# Generated by pormake.
# Topology wfx, (7)-cn, num edge types: 1
# Building blocks:
#     Node 0, Type 0, BuildingBlock: NUHQUE_clean_sbu_2, # of connection points: 7
#     Node 1, Type 0, BuildingBlock: NUHQUE_clean_sbu_2, # of connection points: 7
#     Node 2, Type 0, BuildingBlock: NUHQUE_clean_sbu_2, # of connection points: 7
#     Node 3, Type 0, BuildingBlock: NUHQUE_clean_sbu_2, # of connection points: 7
#     Node 4, Type 0, BuildingBlock: NUHQUE_clean_sbu_2, # of connection points: 7
#     Node 5, Type 0, BuildingBlock: NUHQUE_clean_sbu_2, # of connection points: 7
#     Node 6, Type 0, BuildingBlock: NUHQUE_clean_sbu_2, # of connection points: 7
#     Node 7, Type 0, BuildingBlock: NUHQUE_clean_sbu_2, # of connection points: 7
#     Node 8, Type 0, BuildingBlock: NUHQUE_clean_sbu_2, # of connection points: 7
#     Node 9, Type 0, BuildingBlock: NUHQUE_clean_sbu_2, # of connection points: 7
#     Node 10, Type 0, BuildingBlock: NUHQUE_clean_sbu_2, # of connection points: 7
#     Node 11, Type 0, BuildingBlock: NUHQUE_clean_sbu_2, # of connection points: 7
#     Node 12, Type 0, BuildingBlock: NUHQUE_clean_sbu_2, # of connection points: 7
#     Node 13, Type 0, BuildingBlock: NUHQUE_clean_sbu_2, # of connection points: 7
#     Node 14, Type 0, BuildingBlock: NUHQUE_clean_sbu_2, # of connection points: 7
#     Node 15, Type 0, BuildingBlock: NUHQUE_clean_sbu_2, # of connection points: 7
#     Edge 16, Type (0, 0), BuildingBlock: MIFKUJ_clean_linker_0, # of connection points: 2
#     Edge 17, Type (0, 0), BuildingBlock: MIFKUJ_clean_linker_0, # of connection points: 2
#     Edge 18, Type (0, 0), BuildingBlock: MIFKUJ_clean_linker_0, # of connection points: 2
#     Edge 19, Type (0, 0), BuildingBlock: MIFKUJ_clean_linker_0, # of connection points: 2
#     Edge 20, Type (0, 0), BuildingBlock: MIFKUJ_clean_linker_0, # of connection points: 2
#     Edge 21, Type (0, 0), BuildingBlock: MIFKUJ_clean_linker_0, # of connection points: 2
#     Edge 22, Type (0, 0), BuildingBlock: MIFKUJ_clean_linker_0, # of connection points: 2
#     Edge 23, Type (0, 0), BuildingBlock: MIFKUJ_clean_linker_0, # of connection points: 2
#     Edge 24, Type (0, 0), BuildingBlock: MIFKUJ_clean_linker_0, # of connection points: 2
#     Edge 25, Type (0, 0), BuildingBlock: MIFKUJ_clean_linker_0, # of connection points: 2
#     Edge 26, Type (0, 0), BuildingBlock: MIFKUJ_clean_linker_0, # of connection points: 2
#     Edge 27, Type (0, 0), BuildingBlock: MIFKUJ_clean_linker_0, # of connection points: 2
#     Edge 28, Type (0, 0), BuildingBlock: MIFKUJ_clean_linker_0, # of connection points: 2
#     Edge 29, Type (0, 0), BuildingBlock: MIFKUJ_clean_linker_0, # of connection points: 2
#     Edge 30, Type (0, 0), BuildingBlock: MIFKUJ_clean_linker_0, # of connection points: 2
#     Edge 31, Type (0, 0), BuildingBlock: MIFKUJ_clean_linker_0, # of connection points: 2
#     Edge 32, Type (0, 0), BuildingBlock: MIFKUJ_clean_linker_0, # of connection points: 2
#     Edge 33, Type (0, 0), BuildingBlock: MIFKUJ_clean_linker_0, # of connection points: 2
#     Edge 34, Type (0, 0), BuildingBlock: MIFKUJ_clean_linker_0, # of connection points: 2
#     Edge 35, Type (0, 0), BuildingBlock: MIFKUJ_clean_linker_0, # of connection points: 2
#     Edge 36, Type (0, 0), BuildingBlock: MIFKUJ_clean_linker_0, # of connection points: 2
#     Edge 37, Type (0, 0), BuildingBlock: MIFKUJ_clean_linker_0, # of connection points: 2
#     Edge 38, Type (0, 0), BuildingBlock: MIFKUJ_clean_linker_0, # of connection points: 2
#     Edge 39, Type (0, 0), BuildingBlock: MIFKUJ_clean_linker_0, # of connection points: 2
#     Edge 40, Type (0, 0), BuildingBlock: MIFKUJ_clean_linker_0, # of connection points: 2
#     Edge 41, Type (0, 0), BuildingBlock: MIFKUJ_clean_linker_0, # of connection points: 2
#     Edge 42, Type (0, 0), BuildingBlock: MIFKUJ_clean_linker_0, # of connection points: 2
#     Edge 43, Type (0, 0), BuildingBlock: MIFKUJ_clean_linker_0, # of connection points: 2
#     Edge 44, Type (0, 0), BuildingBlock: MIFKUJ_clean_linker_0, # of connection points: 2
#     Edge 45, Type (0, 0), BuildingBlock: MIFKUJ_clean_linker_0, # of connection points: 2
#     Edge 46, Type (0, 0), BuildingBlock: MIFKUJ_clean_linker_0, # of connection points: 2
#     Edge 47, Type (0, 0), BuildingBlock: MIFKUJ_clean_linker_0, # of connection points: 2
#     Edge 48, Type (0, 0), BuildingBlock: MIFKUJ_clean_linker_0, # of connection points: 2
#     Edge 49, Type (0, 0), BuildingBlock: MIFKUJ_clean_linker_0, # of connection points: 2
#     Edge 50, Type (0, 0), BuildingBlock: MIFKUJ_clean_linker_0, # of connection points: 2
#     Edge 51, Type (0, 0), BuildingBlock: MIFKUJ_clean_linker_0, # of connection points: 2
#     Edge 52, Type (0, 0), BuildingBlock: MIFKUJ_clean_linker_0, # of connection points: 2
#     Edge 53, Type (0, 0), BuildingBlock: MIFKUJ_clean_linker_0, # of connection points: 2
#     Edge 54, Type (0, 0), BuildingBlock: MIFKUJ_clean_linker_0, # of connection points: 2
#     Edge 55, Type (0, 0), BuildingBlock: MIFKUJ_clean_linker_0, # of connection points: 2
#     Edge 56, Type (0, 0), BuildingBlock: MIFKUJ_clean_linker_0, # of connection points: 2
#     Edge 57, Type (0, 0), BuildingBlock: MIFKUJ_clean_linker_0, # of connection points: 2
#     Edge 58, Type (0, 0), BuildingBlock: MIFKUJ_clean_linker_0, # of connection points: 2
#     Edge 59, Type (0, 0), BuildingBlock: MIFKUJ_clean_linker_0, # of connection points: 2
#     Edge 60, Type (0, 0), BuildingBlock: MIFKUJ_clean_linker_0, # of connection points: 2
#     Edge 61, Type (0, 0), BuildingBlock: MIFKUJ_clean_linker_0, # of connection points: 2
#     Edge 62, Type (0, 0), BuildingBlock: MIFKUJ_clean_linker_0, # of connection points: 2
#     Edge 63, Type (0, 0), BuildingBlock: MIFKUJ_clean_linker_0, # of connection points: 2
#     Edge 64, Type (0, 0), BuildingBlock: MIFKUJ_clean_linker_0, # of connection points: 2
#     Edge 65, Type (0, 0), BuildingBlock: MIFKUJ_clean_linker_0, # of connection points: 2
#     Edge 66, Type (0, 0), BuildingBlock: MIFKUJ_clean_linker_0, # of connection points: 2
#     Edge 67, Type (0, 0), BuildingBlock: MIFKUJ_clean_linker_0, # of connection points: 2
#     Edge 68, Type (0, 0), BuildingBlock: MIFKUJ_clean_linker_0, # of connection points: 2
#     Edge 69, Type (0, 0), BuildingBlock: MIFKUJ_clean_linker_0, # of connection points: 2
#     Edge 70, Type (0, 0), BuildingBlock: MIFKUJ_clean_linker_0, # of connection points: 2
#     Edge 71, Type (0, 0), BuildingBlock: MIFKUJ_clean_linker_0, # of connection points: 2
# Relax obj value: 0.251
# Max RMSD: 0.273
# Mean RMSD: 0.273
data_MOF--net-wfx--node1-NUHQUE_clean_sbu_2--edge1-MIFKUJ_clean_linker_0
_symmetry_space_group_name_H-M    P1
_symmetry_Int_Tables_number       1
_symmetry_cell_setting            triclinic
loop_
_symmetry_equiv_pos_as_xyz
'x, y, z'
_cell_length_a     55.257715
_cell_length_b     55.365868
_cell_length_c     62.069617
_cell_angle_alpha  90.011344
_cell_angle_beta   89.953517
_cell_angle_gamma 89.719976
loop_
_atom_site_label
_atom_site_type_symbol
_atom_site_fract_x
_atom_site_fract_y
_atom_site_fract_z
_atom_type_partial_charge
O0 O 0.67427 0.11444 0.08443 0.0
Tb1 Tb 0.69562 0.11026 0.11367 0.0
Eu2 Eu 0.69145 0.0429 0.11539 0.0
C3 C 0.68486 0.11936 0.06593 0.0
O4 O 0.70852 0.11744 0.06454 0.0
C5 C 0.73144 0.07482 0.09396 0.0
O6 O 0.72297 0.01799 0.12288 0.0
C7 C 0.65649 0.01838 0.09814 0.0
C8 C 0.74275 0.0261 0.13218 0.0
O9 O 0.74323 0.04859 0.1389 0.0
C10 C 0.66904 0.08127 0.14997 0.0
C11 C 0.6319 0.00763 0.09781 0.0
C12 C 0.61548 0.01537 0.08183 0.0
C13 C 0.59377 1.00294 0.07845 0.0
C14 C 0.58796 0.98329 0.09155 0.0
C15 C 0.604 0.97504 0.10738 0.0
C16 C 0.62612 0.98713 0.11041 0.0
O17 O 0.72854 0.08907 0.11061 0.0
O18 O 0.71457 0.05915 0.08923 0.0
O19 O 0.70243 0.13882 0.1376 0.0
O20 O 0.70871 0.14594 0.10454 0.0
C21 C 0.70958 0.15498 0.12378 0.0
O22 O 0.68164 0.06112 0.14718 0.0
O23 O 0.66677 0.09762 0.13466 0.0
O24 O 0.67315 0.00871 0.11063 0.0
O25 O 0.65906 0.04183 0.09519 0.0
H26 H 0.62027 0.03003 0.07109 0.0
H27 H 0.57143 0.97336 0.0884 0.0
H28 H 0.63899 0.98011 0.12202 0.0
O29 O 0.39261 0.64998 0.08471 0.0
Tb30 Tb 0.41032 0.67568 0.10584 0.0
Eu31 Eu 0.47167 0.69789 0.11538 0.0
C32 C 0.40088 0.64334 0.06573 0.0
O33 O 0.42275 0.64967 0.05973 0.0
C34 C 0.43388 0.71769 0.08015 0.0
O35 O 0.49594 0.72916 0.12405 0.0
C36 C 0.49661 0.66585 0.09389 0.0
C37 C 0.48691 0.74949 0.13167 0.0
O38 O 0.4636 0.7508 0.13573 0.0
C39 C 0.44123 0.66421 0.14641 0.0
C40 C 0.50645 0.64071 0.09291 0.0
C41 C 0.49558 0.62396 0.07884 0.0
C42 C 0.50573 0.60096 0.07591 0.0
C43 C 0.52688 0.59462 0.08688 0.0
C44 C 0.53866 0.61094 0.10053 0.0
C45 C 0.52832 0.63414 0.10349 0.0
O46 O 0.42497 0.69576 0.07867 0.0
O47 O 0.44917 0.72358 0.09546 0.0
O48 O 0.3925 0.70787 0.11981 0.0
O49 O 0.37327 0.67489 0.11781 0.0
C50 C 0.37175 0.69741 0.12349 0.0
O51 O 0.45477 0.68367 0.14577 0.0
O52 O 0.43208 0.65494 0.12867 0.0
O53 O 0.50624 0.68096 0.10776 0.0
O54 O 0.47316 0.66928 0.09113 0.0
H55 H 0.47965 0.629 0.06966 0.0
H56 H 0.53503 0.57716 0.08356 0.0
H57 H 0.5375 0.64709 0.11365 0.0
O58 O 0.87154 0.39957 0.09374 0.0
Tb59 Tb 0.84539 0.41939 0.11335 0.0
Eu60 Eu 0.82118 0.47826 0.12456 0.0
C61 C 0.87785 0.40604 0.07411 0.0
O62 O 0.87135 0.42736 0.06681 0.0
C63 C 0.80508 0.44375 0.08605 0.0
O64 O 0.78895 0.50267 0.13172 0.0
C65 C 0.85475 0.50207 0.10425 0.0
C66 C 0.76741 0.49332 0.13528 0.0
O67 O 0.76552 0.46973 0.13673 0.0
C68 C 0.85365 0.44656 0.15584 0.0
C69 C 0.87963 0.51231 0.10392 0.0
C70 C 0.89719 0.50254 0.08976 0.0
C71 C 0.91967 0.51399 0.08696 0.0
C72 C 0.92435 0.53546 0.09807 0.0
C73 C 0.90687 0.54605 0.11144 0.0
C74 C 0.88477 0.53416 0.11478 0.0
O75 O 0.82717 0.43486 0.08549 0.0
O76 O 0.79741 0.45692 0.10229 0.0
O77 O 0.84178 0.38264 0.12525 0.0
O78 O 0.81124 0.40599 0.12705 0.0
C79 C 0.81922 0.3842 0.13093 0.0
O80 O 0.83377 0.45977 0.15502 0.0
O81 O 0.86458 0.43988 0.1379 0.0
O82 O 0.83859 0.51222 0.11698 0.0
O83 O 0.85188 0.47857 0.10217 0.0
H84 H 0.89311 0.48655 0.08038 0.0
H85 H 0.94125 0.54486 0.09523 0.0
H86 H 0.87109 0.54278 0.1247 0.0
O87 O 0.11566 0.85684 0.08162 0.0
Tb88 Tb 0.09896 0.83539 0.10679 0.0
Eu89 Eu 0.03701 0.8189 0.12048 0.0
C90 C 0.1265 0.84439 0.06627 0.0
O91 O 0.12565 0.82069 0.06709 0.0
C92 C 0.06888 0.79685 0.08306 0.0
O93 O 0.01121 0.78869 0.12827 0.0
C94 C 0.01267 0.85202 0.0998 0.0
C95 C 0.01217 0.77496 0.14553 0.0
O96 O 0.02793 0.77969 0.16078 0.0
C97 C 0.07304 0.8493 0.15006 0.0
C98 C 1.00246 0.87702 0.09909 0.0
C99 C 0.01151 0.8938 0.08395 0.0
C100 C 1.0004 0.91657 0.08138 0.0
C101 C 0.9802 0.92242 0.09398 0.0
C102 C 0.97031 0.90594 0.10853 0.0
C103 C 0.98143 0.88319 0.11106 0.0
O104 O 0.07799 0.81856 0.08114 0.0
O105 O 0.05601 0.79119 0.10001 0.0
O106 O 0.11635 0.80177 0.11825 0.0
O107 O 0.13701 0.83394 0.11557 0.0
C108 C 0.13793 0.81114 0.12043 0.0
O109 O 0.057 0.83173 0.14992 0.0
O110 O 0.0825 0.85777 0.13202 0.0
O111 O 1.003 0.83678 0.11355 0.0
O112 O 0.03609 0.84847 0.09685 0.0
H113 H 0.02672 0.88892 0.07377 0.0
H114 H 0.97091 0.93948 0.0913 0.0
H115 H 0.97332 0.87022 0.12192 0.0
O116 O 0.15706 0.88762 0.42013 0.0
Tb117 Tb 0.17771 0.90661 0.39555 0.0
Eu118 Eu 0.19454 0.96991 0.38413 0.0
C119 C 0.16957 0.87205 0.43178 0.0
O120 O 0.1927 0.86936 0.42745 0.0
C121 C 0.21623 0.93632 0.42176 0.0
O122 O 0.22543 0.9941 0.37396 0.0
C123 C 0.16157 0.99537 0.40396 0.0
C124 C 0.24659 0.98468 0.36878 0.0
O125 O 0.24857 0.96108 0.36728 0.0
C126 C 0.16304 0.93526 0.35459 0.0
C127 C 0.13679 0.00616 0.40333 0.0
C128 C 0.11902 0.99809 0.418 0.0
C129 C 0.09632 0.00971 0.41935 0.0
C130 C 0.09152 0.02941 0.40585 0.0
C131 C 0.10901 0.03824 0.3916 0.0
C132 C 0.13168 0.02663 0.39039 0.0
O133 O 0.19601 0.9239 0.42255 0.0
O134 O 0.22108 0.95145 0.4061 0.0
O135 O 0.21123 0.891 0.3821 0.0
O136 O 0.17886 0.87037 0.38202 0.0
C137 C 0.20174 0.8701 0.37718 0.0
O138 O 0.18126 0.95053 0.35455 0.0
O139 O 0.15472 0.92624 0.37281 0.0
O140 O 0.17804 1.00461 0.39111 0.0
O141 O 0.16404 0.97185 0.40673 0.0
H142 H 0.12306 0.98319 0.42876 0.0
H143 H 0.07452 0.03914 0.40751 0.0
H144 H 0.14538 0.03394 0.37977 0.0
O145 O 0.61475 0.14238 0.41593 0.0
Tb146 Tb 0.59646 0.17177 0.39925 0.0
Eu147 Eu 0.53806 0.1924 0.38436 0.0
C148 C 0.61027 0.13724 0.43623 0.0
O149 O 0.59167 0.14744 0.44585 0.0
C150 C 0.56929 0.21161 0.42343 0.0
O151 O 0.51344 0.223 0.37365 0.0
C152 C 0.51279 0.15978 0.40459 0.0
C153 C 0.52239 0.24397 0.36766 0.0
O154 O 0.54598 0.24623 0.3661 0.0
C155 C 0.57267 0.15936 0.3549 0.0
C156 C 0.50233 0.13498 0.40463 0.0
C157 C 0.51078 0.11782 0.41976 0.0
C158 C 0.49962 0.0951 0.42164 0.0
C159 C 0.47998 0.0897 0.40833 0.0
C160 C 0.47074 0.10652 0.39365 0.0
C161 C 0.48189 0.12925 0.39185 0.0
O162 O 0.57659 0.18913 0.42524 0.0
O163 O 0.55731 0.21848 0.40625 0.0
O164 O 0.61099 0.20141 0.37939 0.0
O165 O 0.63414 0.18274 0.40108 0.0
C166 C 0.633 0.19993 0.38693 0.0
O167 O 0.55807 0.17832 0.35509 0.0
O168 O 0.58171 0.15029 0.37287 0.0
O169 O 0.50342 0.17582 0.39134 0.0
O170 O 0.53628 0.16238 0.40736 0.0
H171 H 0.52561 0.12233 0.43043 0.0
H172 H 0.47061 0.07268 0.41046 0.0
H173 H 0.47431 0.14249 0.38088 0.0
O174 O 0.3652 0.61824 0.41545 0.0
Tb175 Tb 0.3426 0.60151 0.39108 0.0
Eu176 Eu 0.32058 0.54198 0.37723 0.0
C177 C 0.35396 0.63313 0.42867 0.0
O178 O 0.33062 0.63663 0.42606 0.0
C179 C 0.30065 0.57562 0.41517 0.0
O180 O 0.28986 0.5192 0.36475 0.0
C181 C 0.35121 0.51468 0.39796 0.0
C182 C 0.26876 0.52906 0.36019 0.0
O183 O 0.26646 0.55267 0.36114 0.0
C184 C 0.35651 0.57383 0.34946 0.0
C185 C 0.37587 0.50367 0.3985 0.0
C186 C 0.39314 0.51287 0.41299 0.0
C187 C 0.41565 0.50136 0.4157 0.0
C188 C 0.42096 0.48065 0.40358 0.0
C189 C 0.40397 0.47069 0.38944 0.0
C190 C 0.38132 0.48219 0.387 0.0
O191 O 0.32267 0.58423 0.41716 0.0
O192 O 0.29454 0.56233 0.39853 0.0
O193 O 0.31001 0.61888 0.37756 0.0
O194 O 0.34289 0.63853 0.37931 0.0
C195 C 0.32021 0.63973 0.37389 0.0
O196 O 0.33662 0.56089 0.34859 0.0
O197 O 0.36494 0.58174 0.36801 0.0
O198 O 0.33567 0.50641 0.38377 0.0
O199 O 0.34896 0.53808 0.40149 0.0
H200 H 0.38881 0.52858 0.42271 0.0
H201 H 0.4379 0.47115 0.40632 0.0
H202 H 0.3679 0.47414 0.37654 0.0
O203 O 0.88198 0.33437 0.41833 0.0
Tb204 Tb 0.89943 0.31998 0.38965 0.0
Eu205 Eu 0.97982 0.31917 0.38567 0.0
C206 C 0.89242 0.34068 0.43648 0.0
O207 O 0.91596 0.3384 0.43872 0.0
C208 C 0.9401 0.29226 0.41225 0.0
O209 O 1.00271 0.28637 0.37748 0.0
C210 C 1.00619 0.35377 0.40128 0.0
C211 C 0.99251 0.26584 0.37192 0.0
O212 O 0.96885 0.26513 0.36994 0.0
C213 C 0.93513 0.34102 0.35655 0.0
C214 C 0.01429 0.37934 0.40142 0.0
C215 C 1.00251 0.39624 0.41491 0.0
C216 C 0.01207 0.41944 0.41793 0.0
C217 C 0.03347 0.42576 0.40734 0.0
C218 C 0.04624 0.40895 0.39478 0.0
C219 C 0.03629 0.3859 0.39141 0.0
O220 O 0.92884 0.29478 0.39386 0.0
O221 O 0.96278 0.29887 0.41319 0.0
O222 O 0.87742 0.2893 0.37989 0.0
O223 O 0.87093 0.32343 0.36529 0.0
C224 C 0.86374 0.30105 0.3664 0.0
O225 O 0.95671 0.33039 0.35682 0.0
O226 O 0.92356 0.34607 0.37461 0.0
O227 O 0.01376 0.33921 0.38588 0.0
O228 O 0.98419 0.34888 0.40813 0.0
H229 H 0.98649 0.39109 0.42386 0.0
H230 H 0.04124 0.44344 0.41021 0.0
H231 H 0.04648 0.37263 0.38226 0.0
O232 O 0.32837 0.88506 0.91409 0.0
Tb233 Tb 0.31867 0.9007 0.88322 0.0
Eu234 Eu 0.31689 0.9793 0.88405 0.0
C235 C 0.3485 0.89035 0.92426 0.0
O236 O 0.36261 0.90736 0.91662 0.0
C237 C 0.29135 0.93722 0.90926 0.0
O238 O 0.28043 0.99807 0.88294 0.0
C239 C 0.35025 0.00796 0.89833 0.0
C240 C 0.26901 1.00442 0.86522 0.0
O241 O 0.27918 1.0003 0.84643 0.0
C242 C 0.3389 0.93829 0.85207 0.0
C243 C 0.37506 0.01804 0.89693 0.0
C244 C 0.39359 0.00819 0.90993 0.0
C245 C 0.41608 0.01973 0.91179 0.0
C246 C 0.41999 0.04115 0.90035 0.0
C247 C 0.40163 0.05173 0.88793 0.0
C248 C 0.37931 0.03991 0.88588 0.0
O249 O 0.29141 0.92745 0.89009 0.0
O250 O 0.30159 0.9583 0.91189 0.0
O251 O 0.32546 0.86895 0.86301 0.0
O252 O 0.28936 0.88124 0.86751 0.0
C253 C 0.30282 0.86458 0.85873 0.0
O254 O 0.32748 0.95934 0.8533 0.0
O255 O 0.3443 0.92614 0.86965 0.0
O256 O 0.33379 0.01481 0.8842 0.0
O257 O 0.34784 0.98542 0.90476 0.0
H258 H 0.39023 0.99207 0.91935 0.0
H259 H 0.43701 0.05061 0.90225 0.0
H260 H 0.36486 0.04853 0.87688 0.0
O261 O 0.62018 0.35746 0.92333 0.0
Tb262 Tb 0.60292 0.33542 0.89894 0.0
Eu263 Eu 0.54318 0.31415 0.88598 0.0
C264 C 0.63511 0.34583 0.93623 0.0
O265 O 0.6374 0.32234 0.93385 0.0
C266 C 0.57812 0.29331 0.92227 0.0
O267 O 0.52106 0.2814 0.87778 0.0
C268 C 0.51692 0.34491 0.90758 0.0
C269 C 0.50861 0.27825 0.85998 0.0
O270 O 0.50838 0.29516 0.84514 0.0
C271 C 0.57536 0.3487 0.857 0.0
C272 C 0.50743 0.3701 0.90941 0.0
C273 C 0.51833 0.38624 0.92403 0.0
C274 C 0.50834 0.40923 0.92753 0.0
C275 C 0.48733 0.41611 0.91661 0.0
C276 C 0.47554 0.40035 0.90247 0.0
C277 C 0.48571 0.37723 0.8989 0.0
O278 O 0.58542 0.31563 0.92493 0.0
O279 O 0.56495 0.28754 0.9055 0.0
O280 O 0.61951 0.30225 0.88589 0.0
O281 O 0.64 0.3346 0.88709 0.0
C282 C 0.64065 0.31183 0.88207 0.0
O283 O 0.56169 0.3293 0.85674 0.0
O284 O 0.58366 0.35751 0.8753 0.0
O285 O 0.50828 0.3311 0.89215 0.0
O286 O 0.54002 0.34085 0.91173 0.0
H287 H 0.53415 0.38077 0.93316 0.0
H288 H 0.47929 0.43351 0.92032 0.0
H289 H 0.4765 0.36472 0.88832 0.0
O290 O 0.1524 0.61167 0.91716 0.0
Tb291 Tb 0.17551 0.59523 0.89274 0.0
Eu292 Eu 0.19603 0.53487 0.87919 0.0
C293 C 0.16334 0.6237 0.93264 0.0
O294 O 0.18711 0.6244 0.93266 0.0
C295 C 0.21861 0.56913 0.91496 0.0
O296 O 0.22671 0.50924 0.87066 0.0
C297 C 0.16358 0.51266 0.90225 0.0
C298 C 0.24778 0.51791 0.86454 0.0
O299 O 0.24961 0.54123 0.861 0.0
C300 C 0.16318 0.56889 0.85022 0.0
C301 C 0.13816 0.50405 0.90463 0.0
C302 C 0.12235 0.51561 0.91934 0.0
C303 C 0.09938 0.50587 0.92378 0.0
C304 C 0.09244 0.48436 0.91377 0.0
C305 C 0.10806 0.47214 0.8998 0.0
C306 C 0.13077 0.48211 0.89496 0.0
O307 O 0.19675 0.57789 0.91811 0.0
O308 O 0.22353 0.5558 0.89807 0.0
O309 O 0.20723 0.61168 0.87713 0.0
O310 O 0.17551 0.63274 0.88247 0.0
C311 C 0.19742 0.63304 0.8749 0.0
O312 O 0.18185 0.55401 0.8498 0.0
O313 O 0.15392 0.57612 0.86876 0.0
O314 O 0.17747 0.50186 0.88791 0.0
O315 O 0.16827 0.53587 0.90444 0.0
H316 H 0.12811 0.5317 0.92783 0.0
H317 H 0.07521 0.4762 0.91791 0.0
H318 H 0.14303 0.47211 0.88461 0.0
O319 O 0.90184 0.14422 0.92192 0.0
Tb320 Tb 0.91258 0.1723 0.89919 0.0
Eu321 Eu 0.96764 0.19737 0.88439 0.0
C322 C 0.91167 0.14192 0.94114 0.0
O323 O 0.93106 0.15442 0.94595 0.0
C324 C 0.93392 0.21828 0.92106 0.0
O325 O 0.9934 0.22785 0.87725 0.0
C326 C 0.99099 0.16433 0.90599 0.0
C327 C 0.98717 0.24693 0.86588 0.0
O328 O 0.96602 0.24741 0.85623 0.0
C329 C 0.93719 0.16362 0.85425 0.0
C330 C 1.00095 0.13925 0.90622 0.0
C331 C 0.98922 0.12107 0.91827 0.0
C332 C 1.00001 0.09817 0.92082 0.0
C333 C 0.02268 0.09366 0.91158 0.0
C334 C 0.03519 0.11162 0.90044 0.0
C335 C 0.0241 0.13426 0.89733 0.0
O336 O 0.92681 0.19597 0.92448 0.0
O337 O 0.94574 0.22393 0.90351 0.0
O338 O 0.89253 0.20243 0.88439 0.0
O339 O 0.87355 0.17093 0.89385 0.0
C340 C 0.8713 0.19231 0.88543 0.0
O341 O 0.94945 0.18391 0.85451 0.0
O342 O 0.93031 0.15313 0.87238 0.0
O343 O 1.00142 0.17999 0.89309 0.0
O344 O 0.96744 0.16776 0.90788 0.0
H345 H 0.97216 0.12491 0.92622 0.0
H346 H 0.0315 0.07636 0.91429 0.0
H347 H 0.03414 0.14831 0.88915 0.0
O348 O 0.85751 0.11545 0.58396 0.0
Tb349 Tb 0.83784 0.09488 0.60809 0.0
Eu350 Eu 0.81782 0.03699 0.62226 0.0
C351 C 0.84404 0.1289 0.57114 0.0
O352 O 0.82044 0.12836 0.57376 0.0
C353 C 0.79745 0.06813 0.58364 0.0
O354 O 0.78782 0.01271 0.63405 0.0
C355 C 0.85032 0.01208 0.60125 0.0
C356 C 0.76643 0.02191 0.63871 0.0
O357 O 0.76367 0.0455 0.63848 0.0
C358 C 0.85225 0.06962 0.6504 0.0
C359 C 0.87521 1.00157 0.60135 0.0
C360 C 0.89278 0.01043 0.58686 0.0
C361 C 0.91561 0.99918 0.58508 0.0
C362 C 0.92073 0.97897 0.59792 0.0
C363 C 0.90342 0.96937 0.61198 0.0
C364 C 0.88067 0.98075 0.61368 0.0
O365 O 0.81948 0.07664 0.58155 0.0
O366 O 0.7912 0.05639 0.60107 0.0
O367 O 0.80327 0.107 0.62212 0.0
O368 O 0.83345 0.13071 0.62193 0.0
C369 C 0.81084 0.12854 0.6273 0.0
O370 O 0.83224 0.05686 0.65104 0.0
O371 O 0.86118 0.07708 0.63183 0.0
O372 O 0.83417 1.00247 0.61421 0.0
O373 O 0.84769 0.03562 0.59901 0.0
H374 H 0.88849 0.02569 0.57659 0.0
H375 H 0.93784 0.96957 0.59586 0.0
H376 H 0.86714 0.97301 0.62422 0.0
O377 O 0.40474 0.86536 0.58572 0.0
Tb378 Tb 0.41847 0.84084 0.61016 0.0
Eu379 Eu 0.47646 0.81756 0.62491 0.0
C380 C 0.39292 0.85535 0.56967 0.0
O381 O 0.39089 0.83171 0.56941 0.0
C382 C 0.44413 0.79823 0.58694 0.0
O383 O 0.50215 0.78692 0.63286 0.0
C384 C 0.49991 0.85043 0.60339 0.0
C385 C 0.49622 0.76871 0.64541 0.0
O386 O 0.47531 0.76916 0.65549 0.0
C387 C 0.44361 0.85141 0.65358 0.0
C388 C 0.50894 0.87571 0.60209 0.0
C389 C 0.49695 0.89275 0.58887 0.0
C390 C 0.50689 0.91578 0.58546 0.0
C391 C 0.52901 0.92158 0.59507 0.0
C392 C 0.54199 0.90461 0.60723 0.0
C393 C 0.53161 0.88187 0.61115 0.0
O394 O 0.43664 0.82062 0.58461 0.0
O395 O 0.45558 0.79147 0.60442 0.0
O396 O 0.39951 0.80908 0.6232 0.0
O397 O 0.38037 0.84214 0.61922 0.0
C398 C 0.3785 0.81978 0.62531 0.0
O399 O 0.45683 0.83157 0.65414 0.0
O400 O 0.43743 0.8612 0.63501 0.0
O401 O 0.51009 0.83585 0.6175 0.0
O402 O 0.47667 0.84624 0.6006 0.0
H403 H 0.4803 0.88793 0.58075 0.0
H404 H 0.53695 0.93913 0.59198 0.0
H405 H 0.54185 0.86855 0.62016 0.0
O406 O 0.67619 0.38495 0.58539 0.0
Tb407 Tb 0.6836 0.39569 0.61843 0.0
Eu408 Eu 0.6879 0.46574 0.6166 0.0
C409 C 0.65458 0.38697 0.57672 0.0
O410 O 0.63766 0.39916 0.58694 0.0
C411 C 0.72223 0.42568 0.59546 0.0
O412 O 0.71993 0.48929 0.62459 0.0
C413 C 0.65382 0.49178 0.59917 0.0
C414 C 0.73994 0.4802 0.6328 0.0
O415 O 0.74085 0.45706 0.63739 0.0
C416 C 0.66207 0.4313 0.65075 0.0
C417 C 0.62992 0.50411 0.60091 0.0
C418 C 0.61095 0.49624 0.58751 0.0
C419 C 0.58919 0.5094 0.58605 0.0
C420 C 0.58627 0.5303 0.59852 0.0
C421 C 0.60499 0.53877 0.61161 0.0
C422 C 0.62686 0.5257 0.61283 0.0
O423 O 0.71826 0.4128 0.61283 0.0
O424 O 0.70902 0.44497 0.59132 0.0
O425 O 0.7038 0.37365 0.64163 0.0
O426 O 0.67381 0.35829 0.62551 0.0
C427 C 0.69113 0.35409 0.63917 0.0
O428 O 0.67698 0.44967 0.6487 0.0
O429 O 0.65638 0.41816 0.63388 0.0
O430 O 0.67232 0.50098 0.60958 0.0
O431 O 0.65452 0.46803 0.59781 0.0
H432 H 0.61352 0.48041 0.57747 0.0
H433 H 0.56999 0.54118 0.59681 0.0
H434 H 0.64165 0.53289 0.62228 0.0
O435 O 0.12696 0.6627 0.5833 0.0
Tb436 Tb 0.11143 0.68353 0.60971 0.0
Eu437 Eu 0.03028 0.69061 0.62114 0.0
C438 C 0.12014 0.66411 0.56304 0.0
O439 O 0.10176 0.6779 0.55758 0.0
C440 C 0.06613 0.71491 0.59224 0.0
O441 O 0.00665 0.72108 0.63338 0.0
C442 C 1.00384 0.65608 0.60543 0.0
C443 C 0.01629 0.74198 0.63858 0.0
O444 O 0.03997 0.74402 0.63842 0.0
C445 C 0.07841 0.66779 0.64806 0.0
C446 C 0.99556 0.63053 0.60551 0.0
C447 C 1.00548 0.61387 0.59068 0.0
C448 C 0.99572 0.59058 0.58856 0.0
C449 C 0.97607 0.58392 0.60148 0.0
C450 C 0.96523 0.6004 0.61568 0.0
C451 C 0.97508 0.62369 0.6177 0.0
O452 O 0.07642 0.69901 0.60484 0.0
O453 O 0.04287 0.71611 0.59516 0.0
O454 O 0.13039 0.71741 0.61608 0.0
O455 O 0.14113 0.68555 0.63291 0.0
C456 C 0.14577 0.70839 0.62988 0.0
O457 O 0.05712 0.67936 0.64776 0.0
O458 O 0.08953 0.66019 0.63037 0.0
O459 O 0.99665 0.67041 0.62114 0.0
O460 O 0.02567 0.66114 0.59816 0.0
H461 H 0.02017 0.61926 0.58017 0.0
H462 H 0.9678 0.5664 0.59906 0.0
H463 H 0.96623 0.63666 0.62818 0.0
H464 H 0.40872 0.00616 0.95366 0.0
H465 H 0.43941 1.00216 0.98187 0.0
H466 H 0.49568 0.01284 0.9347 0.0
H467 H 0.46514 0.01656 0.90638 0.0
H468 H 0.47938 0.97395 0.99009 0.0
H469 H 0.53658 0.05357 0.95693 0.0
H470 H 0.53084 0.08988 0.93446 0.0
H471 H 0.45558 0.09226 0.95164 0.0
H472 H 0.46101 0.0564 0.97469 0.0
H473 H 0.59079 0.97532 0.0429 0.0
H474 H 0.561 0.97827 0.01386 0.0
H475 H 0.5317 0.04308 0.04267 0.0
H476 H 0.56203 0.04029 0.07167 0.0
H477 H 0.53178 0.04592 0.99879 0.0
H478 H 0.5055 0.98995 0.05231 0.0
H479 H 0.50957 0.95501 0.07669 0.0
H480 H 0.51844 0.90779 0.02234 0.0
H481 H 0.51488 0.94253 0.99763 0.0
C482 C 0.42765 0.00686 0.94917 0.0
C483 C 0.4345 0.01188 0.92781 0.0
C484 C 0.44516 1.00473 0.96534 0.0
C485 C 0.46977 0.00773 0.96044 0.0
C486 C 0.47675 0.01092 0.93889 0.0
C487 C 0.45929 0.01299 0.92273 0.0
C488 C 0.48797 0.0093 0.97795 0.0
C489 C 0.49088 0.98964 0.99196 0.0
C490 C 0.50252 0.03009 0.98074 0.0
C491 C 0.49917 0.05207 0.96733 0.0
C492 C 0.51884 0.06192 0.95601 0.0
C493 C 0.51564 0.08244 0.94318 0.0
C494 C 0.49283 0.09331 0.94154 0.0
C495 C 0.47322 0.08378 0.95286 0.0
C496 C 0.47636 0.06336 0.96582 0.0
C497 C 0.57831 0.99047 0.0427 0.0
C498 C 0.57857 0.0076 0.05936 0.0
C499 C 0.56122 0.99206 0.02625 0.0
C500 C 0.54382 0.01061 0.02635 0.0
C501 C 0.54491 0.02856 0.04235 0.0
C502 C 0.56219 0.02703 0.05884 0.0
C503 C 0.52373 0.01025 0.01047 0.0
C504 C 0.52035 0.0302 0.99686 0.0
C505 C 0.50842 0.98991 0.00831 0.0
C506 C 0.51012 0.96889 0.02312 0.0
C507 C 0.50847 0.97214 0.04555 0.0
C508 C 0.51068 0.95237 0.05943 0.0
C509 C 0.51431 0.9292 0.05107 0.0
C510 C 0.51565 0.92575 0.0288 0.0
C511 C 0.51353 0.94548 0.01484 0.0
H512 H 0.51603 0.91392 0.06184 0.0
H513 H 0.49037 0.10917 0.93158 0.0
H514 H 0.48396 0.55776 0.08264 0.0
H515 H 0.48225 0.52438 0.05675 0.0
H516 H 0.5088 0.57165 0.00687 0.0
H517 H 0.50959 0.6052 0.03261 0.0
H518 H 0.47951 0.53758 0.99012 0.0
H519 H 0.54589 0.54066 0.04033 0.0
H520 H 0.5632 0.54186 0.0769 0.0
H521 H 0.53421 0.47167 0.09019 0.0
H522 H 0.51568 0.47049 0.05407 0.0
H523 H 0.53059 0.45231 0.92175 0.0
H524 H 0.53186 0.48522 0.94812 0.0
H525 H 0.50446 0.43712 0.99698 0.0
H526 H 0.50398 0.40404 0.97074 0.0
H527 H 0.53387 0.47131 0.01443 0.0
H528 H 0.46756 0.46821 0.96424 0.0
H529 H 0.4501 0.46706 0.92774 0.0
H530 H 0.47903 0.53726 0.91441 0.0
H531 H 0.49765 0.53843 0.9505 0.0
C532 C 0.48827 0.56121 0.0659 0.0
C533 C 0.49675 0.58396 0.05949 0.0
C534 C 0.48757 0.54212 0.05118 0.0
C535 C 0.49609 0.54536 0.03003 0.0
C536 C 0.50229 0.56869 0.02312 0.0
C537 C 0.50261 0.58789 0.03777 0.0
C538 C 0.50158 0.52418 0.01609 0.0
C539 C 0.49154 0.5232 0.99536 0.0
C540 C 0.51716 0.50526 0.02305 0.0
C541 C 0.52912 0.50561 0.04452 0.0
C542 C 0.54298 0.52556 0.0511 0.0
C543 C 0.55292 0.52629 0.07179 0.0
C544 C 0.54982 0.50687 0.08584 0.0
C545 C 0.5366 0.48672 0.07929 0.0
C546 C 0.52625 0.48606 0.05874 0.0
C547 C 0.52603 0.44855 0.93839 0.0
C548 C 0.51736 0.42572 0.94435 0.0
C549 C 0.52647 0.46738 0.95338 0.0
C550 C 0.5176 0.46378 0.97436 0.0
C551 C 0.51126 0.44035 0.98087 0.0
C552 C 0.51113 0.42141 0.96593 0.0
C553 C 0.51185 0.48476 0.98845 0.0
C554 C 0.52184 0.48569 0.00921 0.0
C555 C 0.49623 0.50364 0.98152 0.0
C556 C 0.48429 0.50328 0.96005 0.0
C557 C 0.47044 0.48331 0.95348 0.0
C558 C 0.46043 0.48261 0.93281 0.0
C559 C 0.46347 0.50204 0.91877 0.0
C560 C 0.47669 0.5222 0.92531 0.0
C561 C 0.48709 0.52284 0.94584 0.0
H562 H 0.45553 0.5015 0.90284 0.0
H563 H 0.55769 0.50743 0.1018 0.0
H564 H 0.10926 0.51083 0.96652 0.0
H565 H 0.07921 0.51413 0.99555 0.0
H566 H 0.02276 0.52423 0.94842 0.0
H567 H 0.05272 0.52085 0.91946 0.0
H568 H 0.01466 0.55073 0.98663 0.0
H569 H 0.03671 0.47057 0.96362 0.0
H570 H 0.0661 0.43799 0.95626 0.0
H571 H 0.0849 0.43526 0.0233 0.0
H572 H 0.05648 0.46868 0.03093 0.0
H573 H 0.91259 0.51012 0.04371 0.0
H574 H 0.94419 0.50871 0.01591 0.0
H575 H 0.99864 0.50051 0.06512 0.0
H576 H 0.9671 0.50224 0.09293 0.0
H577 H 0.00839 0.47327 0.02657 0.0
H578 H 0.98805 0.55366 0.04956 0.0
H579 H 0.96002 0.58731 0.05738 0.0
H580 H 0.93826 0.58919 0.991 0.0
H581 H 0.96578 0.55514 0.98288 0.0
C582 C 0.0906 0.51481 0.96245 0.0
C583 C 0.08326 0.51565 0.94081 0.0
C584 C 0.07342 0.51646 0.979 0.0
C585 C 0.04869 0.519 0.97411 0.0
C586 C 0.0417 0.52222 0.95257 0.0
C587 C 0.05882 0.52036 0.93604 0.0
C588 C 0.02989 0.5152 0.99092 0.0
C589 C 0.01318 0.53374 0.99523 0.0
C590 C 0.02811 0.49305 0.00231 0.0
C591 C 0.04466 0.4724 0.99782 0.0
C592 C 0.0473 0.46325 0.97678 0.0
C593 C 0.06381 0.44463 0.97254 0.0
C594 C 0.07731 0.43453 0.98931 0.0
C595 C 0.07443 0.44311 0.01033 0.0
C596 C 0.0582 0.46198 0.0146 0.0
C597 C 0.9312 0.50709 0.04851 0.0
C598 C 0.93744 0.50615 0.07042 0.0
C599 C 0.94926 0.50651 0.03265 0.0
C600 C 0.97379 0.5048 0.03848 0.0
C601 C 0.97985 0.50183 0.06027 0.0
C602 C 0.96184 0.50274 0.07613 0.0
C603 C 0.99315 0.50878 0.02221 0.0
C604 C 0.00992 0.49025 0.01798 0.0
C605 C 0.99505 0.53093 0.01091 0.0
C606 C 0.97877 0.55166 0.01566 0.0
C607 C 0.97713 0.5611 0.03666 0.0
C608 C 0.96135 0.58026 0.04115 0.0
C609 C 0.94733 0.59035 0.02471 0.0
C610 C 0.9491 0.58133 0.00373 0.0
C611 C 0.96478 0.56209 0.99918 0.0
H612 H 0.93513 0.6052 0.02821 0.0
H613 H 0.09 0.42003 0.98601 0.0
H614 H 0.00823 0.96487 0.08518 0.0
H615 H 0.0068 0.99465 0.05613 0.0
H616 H 1.00547 0.93727 0.0092 0.0
H617 H 0.0064 0.90725 0.03835 0.0
H618 H 0.03401 0.97945 0.99718 0.0
H619 H 0.95459 0.95863 0.02284 0.0
H620 H 0.92246 0.95265 0.04987 0.0
H621 H 0.92646 0.02744 0.06773 0.0
H622 H 0.95912 0.03372 0.04122 0.0
H623 H 0.9922 0.05069 0.91205 0.0
H624 H 0.99017 0.01811 0.9386 0.0
H625 H 0.98541 0.07072 0.9897 0.0
H626 H 0.9875 0.10342 0.96312 0.0
H627 H 0.95909 0.02927 0.99843 0.0
H628 H 0.03893 0.0505 0.97522 0.0
H629 H 0.07113 0.05802 0.94858 0.0
H630 H 0.06697 0.98444 0.92714 0.0
H631 H 0.03438 0.97658 0.95341 0.0
C632 C 0.00832 0.95859 0.06864 0.0
C633 C 0.00723 0.93373 0.06403 0.0
C634 C 0.00735 0.97562 0.05208 0.0
C635 C 1.00548 0.96815 0.03057 0.0
C636 C 0.00674 0.94338 0.02574 0.0
C637 C 0.00751 0.92624 0.04238 0.0
C638 C 1.00026 0.98618 0.01348 0.0
C639 C 0.01747 0.99009 0.99726 0.0
C640 C 0.97887 1.00044 0.01391 0.0
C641 C 0.95952 0.99658 0.03017 0.0
C642 C 0.94887 0.97373 0.03272 0.0
C643 C 0.93052 0.9703 0.04794 0.0
C644 C 0.92246 0.98964 0.06055 0.0
C645 C 0.93278 0.01245 0.058 0.0
C646 C 0.95124 0.01594 0.04291 0.0
C647 C 0.98981 0.05527 0.9289 0.0
C648 C 0.9902 0.07955 0.93557 0.0
C649 C 0.98887 0.03667 0.94405 0.0
C650 C 0.98835 0.04201 0.96614 0.0
C651 C 0.98604 0.06621 0.97272 0.0
C652 C 0.98701 0.08489 0.95752 0.0
C653 C 0.99284 0.02268 0.98227 0.0
C654 C 0.97553 0.01854 0.99833 0.0
C655 C 0.01423 0.00842 0.98183 0.0
C656 C 0.03399 0.01302 0.96613 0.0
C657 C 0.04471 0.03597 0.9647 0.0
C658 C 0.06305 0.0403 0.94967 0.0
C659 C 0.07103 0.02175 0.93612 0.0
C660 C 0.06072 0.99881 0.93761 0.0
C661 C 0.04231 0.9944 0.95257 0.0
H662 H 0.08526 0.02513 0.92451 0.0
H663 H 0.90818 0.98697 0.07224 0.0
H664 H 0.10382 1.0024 0.46251 0.0
H665 H 0.07298 1.00073 0.49085 0.0
H666 H 0.01682 1.00289 0.44264 0.0
H667 H 0.04754 1.0045 0.41433 0.0
H668 H 0.00852 0.03604 0.47294 0.0
H669 H 0.0284 0.95164 0.47198 0.0
H670 H 0.05537 0.91605 0.47337 0.0
H671 H 0.07834 0.936 0.53697 0.0
H672 H 0.05175 0.97192 0.53585 0.0
H673 H 0.90807 0.00767 0.54209 0.0
H674 H 0.939 0.01083 0.51391 0.0
H675 H 0.99494 0.00893 0.56232 0.0
H676 H 0.96414 0.00577 0.59046 0.0
H677 H 1.00352 0.97595 0.53197 0.0
H678 H 0.98286 0.06001 0.53316 0.0
H679 H 0.956 0.09565 0.5316 0.0
H680 H 0.93447 0.07645 0.46741 0.0
H681 H 0.96093 0.04047 0.4687 0.0
C682 C 0.08492 1.00177 0.45794 0.0
C683 C 0.07813 1.00357 0.43618 0.0
C684 C 0.06727 1.00098 0.47416 0.0
C685 C 0.04252 1.00178 0.46891 0.0
C686 C 0.03576 1.00244 0.44713 0.0
C687 C 0.05335 1.00323 0.43096 0.0
C688 C 0.02366 1.00324 0.48604 0.0
C689 C 0.0072 0.02269 0.48568 0.0
C690 C 0.0223 0.98623 0.503 0.0
C691 C 0.03826 0.9646 0.50374 0.0
C692 C 0.03935 0.94855 0.4862 0.0
C693 C 0.05454 0.9283 0.48694 0.0
C694 C 0.06861 0.92381 0.50522 0.0
C695 C 0.06746 0.93952 0.52281 0.0
C696 C 0.05231 0.95982 0.52214 0.0
C697 C 0.92693 0.00869 0.54675 0.0
C698 C 0.93367 0.0064 0.56849 0.0
C699 C 0.94463 0.01036 0.53061 0.0
C700 C 0.96937 0.00997 0.53595 0.0
C701 C 0.97602 0.00905 0.55776 0.0
C702 C 0.95839 0.00735 0.57384 0.0
C703 C 0.98833 0.00874 0.51889 0.0
C704 C 1.00482 0.98931 0.51924 0.0
C705 C 0.98968 0.02576 0.50192 0.0
C706 C 0.97368 0.04736 0.50113 0.0
C707 C 0.97222 0.06324 0.51879 0.0
C708 C 0.9571 0.08354 0.51794 0.0
C709 C 0.94347 0.08827 0.49944 0.0
C710 C 0.945 0.07274 0.48174 0.0
C711 C 0.96006 0.05239 0.48252 0.0
H712 H 0.93179 0.104 0.49882 0.0
H713 H 0.08036 0.90812 0.50576 0.0
H714 H 0.50697 0.04663 0.41731 0.0
H715 H 0.50609 0.01639 0.44598 0.0
H716 H 0.50474 0.07304 0.49364 0.0
H717 H 0.5052 0.10352 0.46488 0.0
H718 H 0.53379 0.03309 0.50532 0.0
H719 H 0.45374 0.04896 0.47897 0.0
H720 H 0.42151 0.05286 0.45175 0.0
H721 H 0.42965 0.97795 0.43533 0.0
H722 H 0.46238 0.9737 0.4621 0.0
H723 H 0.49625 0.96326 0.59203 0.0
H724 H 0.49206 0.99426 0.56419 0.0
H725 H 0.492 0.93903 0.51519 0.0
H726 H 0.49611 0.90788 0.54311 0.0
H727 H 0.46252 0.97877 0.5045 0.0
H728 H 0.54391 0.9632 0.52778 0.0
H729 H 0.57632 0.95801 0.55467 0.0
H730 H 0.56571 0.03101 0.57619 0.0
H731 H 0.53303 0.03656 0.54951 0.0
C732 C 0.50703 0.05266 0.43392 0.0
C733 C 0.50595 0.07746 0.43885 0.0
C734 C 0.50636 0.03535 0.45027 0.0
C735 C 0.50473 0.04247 0.47191 0.0
C736 C 0.50577 0.06718 0.47701 0.0
C737 C 0.50628 0.08458 0.46059 0.0
C738 C 0.50068 0.02412 0.489 0.0
C739 C 0.51803 0.02148 0.50531 0.0
C740 C 0.48035 0.00854 0.48868 0.0
C741 C 0.46077 0.01109 0.4724 0.0
C742 C 0.4489 0.03338 0.46939 0.0
C743 C 0.43049 0.03564 0.45405 0.0
C744 C 0.42359 0.01568 0.44177 0.0
C745 C 0.43508 0.99341 0.4448 0.0
C746 C 0.45358 0.99107 0.46005 0.0
C747 C 0.49446 0.9577 0.57537 0.0
C748 C 0.49664 0.9332 0.5697 0.0
C749 C 0.49223 0.97542 0.55947 0.0
C750 C 0.49231 0.96898 0.53759 0.0
C751 C 0.49204 0.9444 0.53198 0.0
C752 C 0.49422 0.9266 0.54794 0.0
C753 C 0.4956 0.98783 0.52079 0.0
C754 C 0.47819 0.99049 0.50452 0.0
C755 C 0.51596 1.00332 0.52099 0.0
C756 C 0.53586 1.00021 0.5368 0.0
C757 C 0.54838 0.97809 0.53834 0.0
C758 C 0.5668 0.97508 0.55354 0.0
C759 C 0.57299 0.99412 0.56721 0.0
C760 C 0.56086 0.01626 0.56562 0.0
C761 C 0.5424 0.01936 0.55044 0.0
H762 H 0.58724 0.99173 0.57899 0.0
H763 H 0.40929 0.01745 0.42996 0.0
H764 H 0.59677 0.49838 0.54367 0.0
H765 H 0.56645 0.49699 0.515 0.0
H766 H 0.50975 0.50766 0.56189 0.0
H767 H 0.53996 0.50861 0.59071 0.0
H768 H 0.4968 0.47554 0.52964 0.0
H769 H 0.53331 0.55362 0.53632 0.0
H770 H 0.56718 0.58246 0.53721 0.0
H771 H 0.58524 0.56453 0.47186 0.0
H772 H 0.55192 0.53508 0.47076 0.0
H773 H 0.40539 0.51192 0.45777 0.0
H774 H 0.43435 0.51531 0.48745 0.0
H775 H 0.49351 0.50922 0.44235 0.0
H776 H 0.46467 0.50649 0.41261 0.0
H777 H 0.50465 0.53985 0.47438 0.0
H778 H 0.47248 0.45983 0.46793 0.0
H779 H 0.44026 0.42926 0.46595 0.0
H780 H 0.41574 0.44927 0.52918 0.0
H781 H 0.44762 0.48024 0.5314 0.0
C782 C 0.5778 0.49967 0.54796 0.0
C783 C 0.57074 0.50372 0.56944 0.0
C784 C 0.56052 0.49913 0.53153 0.0
C785 C 0.53591 0.50269 0.53629 0.0
C786 C 0.52866 0.50503 0.55786 0.0
C787 C 0.54593 0.50564 0.57429 0.0
C788 C 0.51794 0.50572 0.51875 0.0
C789 C 0.49834 0.48978 0.51771 0.0
C790 C 0.52027 0.52405 0.50295 0.0
C791 C 0.54019 0.54198 0.50353 0.0
C792 C 0.5446 0.5557 0.52219 0.0
C793 C 0.56369 0.57216 0.52273 0.0
C794 C 0.57832 0.57534 0.5046 0.0
C795 C 0.5739 0.56204 0.4859 0.0
C796 C 0.55493 0.54543 0.48532 0.0
C797 C 0.42456 0.5121 0.45412 0.0
C798 C 0.43278 0.50872 0.43289 0.0
C799 C 0.44109 0.51376 0.47112 0.0
C800 C 0.46608 0.51194 0.46716 0.0
C801 C 0.47432 0.51047 0.44581 0.0
C802 C 0.45783 0.50884 0.42884 0.0
C803 C 0.48356 0.5096 0.48521 0.0
C804 C 0.50306 0.52568 0.48636 0.0
C805 C 0.48135 0.49122 0.50096 0.0
C806 C 0.46226 0.47253 0.49973 0.0
C807 C 0.4601 0.45784 0.48135 0.0
C808 C 0.44191 0.44043 0.48019 0.0
C809 C 0.42592 0.43737 0.49741 0.0
C810 C 0.42811 0.45169 0.51584 0.0
C811 C 0.44624 0.46917 0.51706 0.0
H812 H 0.41185 0.42387 0.49649 0.0
H813 H 0.59307 0.58812 0.50504 0.0
H814 H 0.99863 0.60073 0.54569 0.0
H815 H 1.00109 0.57147 0.5161 0.0
H816 H 0.0104 0.5137 0.562 0.0
H817 H 0.00796 0.54291 0.59161 0.0
H818 H 0.03855 0.50737 0.52505 0.0
H819 H 0.95616 0.52453 0.54418 0.0
H820 H 0.9208 0.55063 0.5514 0.0
H821 H 0.92313 0.57708 0.4864 0.0
H822 H 0.9588 0.55141 0.4789 0.0
H823 H 1.00435 0.40937 0.46025 0.0
H824 H 0.9997 0.43877 0.48949 0.0
H825 H 0.99532 0.49647 0.44298 0.0
H826 H 1.00013 0.46711 0.41368 0.0
H827 H 0.9643 0.50266 0.48021 0.0
H828 H 0.0473 0.48536 0.46148 0.0
H829 H 0.08191 0.45822 0.45445 0.0
H830 H 0.0778 0.43123 0.5192 0.0
H831 H 0.04282 0.45792 0.52649 0.0
C832 C 1.00201 0.5819 0.54941 0.0
C833 C 1.00313 0.57406 0.57091 0.0
C834 C 1.00314 0.56517 0.53253 0.0
C835 C 1.00552 0.54037 0.53689 0.0
C836 C 0.00846 0.53273 0.55828 0.0
C837 C 0.00711 0.54941 0.57516 0.0
C838 C 1.00305 0.52227 0.51938 0.0
C839 C 0.02224 0.5062 0.51539 0.0
C840 C 0.98183 0.52088 0.50664 0.0
C841 C 0.96032 0.53626 0.51106 0.0
C842 C 0.94927 0.53607 0.53148 0.0
C843 C 0.92915 0.55076 0.53562 0.0
C844 C 0.91977 0.56556 0.51938 0.0
C845 C 0.93045 0.56564 0.49897 0.0
C846 C 0.95062 0.55103 0.49477 0.0
C847 C 1.00148 0.42821 0.45625 0.0
C848 C 1.0026 0.43601 0.43473 0.0
C849 C 0.99903 0.445 0.47295 0.0
C850 C 0.99752 0.4698 0.46837 0.0
C851 C 0.99651 0.47742 0.44684 0.0
C852 C 0.99923 0.46067 0.43014 0.0
C853 C 0.9998 0.48786 0.48589 0.0
C854 C 0.9806 0.50389 0.48987 0.0
C855 C 0.02098 0.48918 0.49867 0.0
C856 C 0.04228 0.47345 0.49446 0.0
C857 C 0.05365 0.4735 0.47417 0.0
C858 C 0.07334 0.45822 0.47014 0.0
C859 C 0.08201 0.44297 0.48635 0.0
C860 C 0.07104 0.44303 0.50665 0.0
C861 C 0.05128 0.45824 0.51074 0.0
H862 H 0.09726 0.43114 0.4832 0.0
H863 H 0.90417 0.5769 0.52261 0.0
H864 H 0.5642 0.96467 0.13138 0.0
H865 H 0.54931 0.92446 0.14081 0.0
H866 H 0.61479 0.89259 0.1155 0.0
H867 H 0.6298 0.93297 0.10617 0.0
H868 H 0.57324 0.874 0.09711 0.0
H869 H 0.60318 0.88829 0.16824 0.0
H870 H 0.60874 0.91105 0.202 0.0
H871 H 0.53215 0.90941 0.21359 0.0
H872 H 0.52607 0.88693 0.17973 0.0
H873 H 0.53443 0.75475 0.11987 0.0
H874 H 0.55853 0.79171 0.12036 0.0
H875 H 0.49836 0.83069 0.14809 0.0
H876 H 0.47418 0.79381 0.14778 0.0
H877 H 0.54072 0.84409 0.16664 0.0
H878 H 0.50952 0.83496 0.09512 0.0
H879 H 0.50171 0.81413 0.0607 0.0
H880 H 0.57815 0.80818 0.04922 0.0
H881 H 0.58642 0.82872 0.08372 0.0
C882 C 0.57577 0.94913 0.12858 0.0
C883 C 0.59824 0.95191 0.11826 0.0
C884 C 0.56723 0.92615 0.1339 0.0
C885 C 0.58092 0.90547 0.12886 0.0
C886 C 0.60396 0.90829 0.11958 0.0
C887 C 0.61263 0.93135 0.11448 0.0
C888 C 0.56999 0.88107 0.13112 0.0
C889 C 0.56665 0.8672 0.11242 0.0
C890 C 0.56057 0.87259 0.15093 0.0
C891 C 0.56416 0.88608 0.17134 0.0
C892 C 0.58749 0.89295 0.17789 0.0
C893 C 0.59075 0.90577 0.19707 0.0
C894 C 0.57081 0.91171 0.20991 0.0
C895 C 0.54758 0.9048 0.20362 0.0
C896 C 0.54422 0.89199 0.18445 0.0
C897 C 0.52637 0.77112 0.12628 0.0
C898 C 0.50229 0.77132 0.13367 0.0
C899 C 0.54017 0.79227 0.12647 0.0
C900 C 0.53018 0.81408 0.13403 0.0
C901 C 0.50646 0.81411 0.14217 0.0
C902 C 0.49263 0.793 0.14191 0.0
C903 C 0.54404 0.83704 0.13264 0.0
C904 C 0.54772 0.85071 0.15142 0.0
C905 C 0.55349 0.84555 0.11284 0.0
C906 C 0.54859 0.8331 0.09213 0.0
C907 C 0.52467 0.829 0.08535 0.0
C908 C 0.52015 0.8173 0.06581 0.0
C909 C 0.53943 0.80977 0.05282 0.0
C910 C 0.56324 0.81399 0.05932 0.0
C911 C 0.56785 0.82567 0.07886 0.0
H912 H 0.53591 0.80072 0.0377 0.0
H913 H 0.57337 0.92164 0.22475 0.0
H914 H 0.76354 0.54298 0.13246 0.0
H915 H 0.72631 0.56719 0.12933 0.0
H916 H 0.68368 0.50244 0.13445 0.0
H917 H 0.7205 0.47829 0.13767 0.0
H918 H 0.67064 0.53009 0.09981 0.0
H919 H 0.6863 0.54222 0.17565 0.0
H920 H 0.71067 0.55496 0.20687 0.0
H921 H 0.71358 0.62721 0.18189 0.0
H922 H 0.68948 0.61481 0.15034 0.0
H923 H 0.55123 0.56725 0.11795 0.0
H924 H 0.59184 0.55179 0.12499 0.0
H925 H 0.62165 0.62194 0.11148 0.0
H926 H 0.58084 0.63745 0.10337 0.0
H927 H 0.64361 0.59617 0.14829 0.0
H928 H 0.62641 0.58592 0.07419 0.0
H929 H 0.60566 0.57406 0.04074 0.0
H930 H 0.60845 0.49965 0.06004 0.0
H931 H 0.62861 0.5111 0.09393 0.0
C932 C 0.74623 0.53394 0.13319 0.0
C933 C 0.74511 0.50863 0.13529 0.0
C934 C 0.72493 0.54783 0.13144 0.0
C935 C 0.70211 0.53667 0.13166 0.0
C936 C 0.70102 0.5115 0.13418 0.0
C937 C 0.72218 0.49769 0.13609 0.0
C938 C 0.6793 0.55073 0.12809 0.0
C939 C 0.6646 0.54433 0.11059 0.0
C940 C 0.67188 0.57007 0.14156 0.0
C941 C 0.68633 0.57752 0.16051 0.0
C942 C 0.69233 0.56077 0.17671 0.0
C943 C 0.70605 0.56794 0.19449 0.0
C944 C 0.71373 0.59186 0.19633 0.0
C945 C 0.70765 0.60868 0.18042 0.0
C946 C 0.69395 0.60159 0.1626 0.0
C947 C 0.56634 0.57956 0.11662 0.0
C948 C 0.56268 0.60357 0.10973 0.0
C949 C 0.5896 0.57064 0.12068 0.0
C950 C 0.60987 0.58557 0.11843 0.0
C951 C 0.60627 0.61005 0.11322 0.0
C952 C 0.58289 0.61895 0.10876 0.0
C953 C 0.63464 0.57492 0.12039 0.0
C954 C 0.64969 0.58198 0.13749 0.0
C955 C 0.64258 0.55626 0.1064 0.0
C956 C 0.62884 0.54943 0.08676 0.0
C957 C 0.62221 0.56707 0.07153 0.0
C958 C 0.61067 0.5604 0.05241 0.0
C959 C 0.60591 0.5361 0.04819 0.0
C960 C 0.61233 0.51845 0.06325 0.0
C961 C 0.6237 0.52504 0.08247 0.0
H962 H 0.59708 0.53097 0.03333 0.0
H963 H 0.72435 0.59737 0.21011 0.0
H964 H 0.98877 0.75326 0.11232 0.0
H965 H 0.96546 0.71623 0.11281 0.0
H966 H 0.97674 0.70986 0.18138 0.0
H967 H 1.00132 0.74672 0.18076 0.0
H968 H 0.98245 0.66794 0.16441 0.0
H969 H 0.9195 0.72601 0.15829 0.0
H970 H 0.89803 0.76186 0.14433 0.0
H971 H 0.89341 0.72893 0.08184 0.0
H972 H 0.91514 0.69301 0.09533 0.0
H973 H 0.90616 0.56293 0.15317 0.0
H974 H 0.91784 0.6036 0.16553 0.0
H975 H 0.92879 0.62543 0.09953 0.0
H976 H 0.91728 0.58522 0.08729 0.0
H977 H 0.90565 0.66067 0.12364 0.0
H978 H 0.97575 0.60651 0.1298 0.0
H979 H 0.99677 0.57069 0.14443 0.0
H980 H 0.98581 0.59703 0.20881 0.0
H981 H 0.96445 0.63287 0.19453 0.0
C982 C 0.98613 0.7442 0.1276 0.0
C983 C 0.99679 0.75308 0.14654 0.0
C984 C 0.97258 0.72301 0.12788 0.0
C985 C 0.9687 0.71042 0.14723 0.0
C986 C 0.97927 0.71928 0.16626 0.0
C987 C 0.99328 0.74037 0.16591 0.0
C988 C 0.95474 0.6874 0.14704 0.0
C989 C 0.96533 0.66655 0.15597 0.0
C990 C 0.93237 0.68532 0.13601 0.0
C991 C 0.91905 0.70682 0.12784 0.0
C992 C 0.91401 0.72645 0.14155 0.0
C993 C 0.90178 0.74679 0.13371 0.0
C994 C 0.89438 0.74768 0.11221 0.0
C995 C 0.89914 0.72821 0.0985 0.0
C996 C 0.91137 0.70783 0.10625 0.0
C997 C 0.91071 0.57661 0.1414 0.0
C998 C 0.91102 0.57098 0.11933 0.0
C999 C 0.91746 0.59974 0.14843 0.0
C1000 C 0.92435 0.61751 0.13344 0.0
C1001 C 0.92353 0.61208 0.11138 0.0
C1002 C 0.91706 0.58907 0.10442 0.0
C1003 C 0.93385 0.64138 0.14028 0.0
C1004 C 0.92241 0.66234 0.1326 0.0
C1005 C 0.95524 0.64359 0.15263 0.0
C1006 C 0.96828 0.62219 0.16113 0.0
C1007 C 0.97768 0.60456 0.14708 0.0
C1008 C 0.98968 0.58428 0.1553 0.0
C1009 C 0.99256 0.58155 0.17754 0.0
C1010 C 0.98353 0.59914 0.19159 0.0
C1011 C 0.97148 0.61944 0.18345 0.0
H1012 H 1.00185 0.56583 0.18388 0.0
H1013 H 0.88493 0.76345 0.10617 0.0
H1014 H 0.78756 0.03906 0.14674 0.0
H1015 H 0.82494 0.0154 0.14566 0.0
H1016 H 0.78625 0.95526 0.11842 0.0
H1017 H 0.74859 0.97883 0.11955 0.0
H1018 H 0.81911 0.94023 0.1487 0.0
H1019 H 0.81837 0.99144 0.08706 0.0
H1020 H 0.81503 0.02969 0.06698 0.0
H1021 H 0.87785 0.05682 0.09945 0.0
H1022 H 0.88116 0.019 0.12024 0.0
H1023 H 0.92716 0.88204 0.10604 0.0
H1024 H 0.88697 0.89919 0.11368 0.0
H1025 H 0.9204 0.96278 0.14032 0.0
H1026 H 0.96038 0.94576 0.1326 0.0
H1027 H 0.88901 0.97436 0.10908 0.0
H1028 H 0.88826 0.92324 0.17185 0.0
H1029 H 0.89126 0.88462 0.19146 0.0
H1030 H 0.83172 0.8565 0.15497 0.0
H1031 H 0.82858 0.89487 0.13492 0.0
C1032 C 0.78688 0.02073 0.14069 0.0
C1033 C 0.76502 0.01092 0.13313 0.0
C1034 C 0.80834 0.00724 0.14 0.0
C1035 C 0.80852 0.98364 0.13168 0.0
C1036 C 0.78659 0.97344 0.12485 0.0
C1037 C 0.76507 0.98698 0.12547 0.0
C1038 C 0.83175 0.97002 0.1295 0.0
C1039 C 0.83432 0.94755 0.13982 0.0
C1040 C 0.85171 0.97965 0.11805 0.0
C1041 C 0.84981 1.00244 0.10547 0.0
C1042 C 0.83132 0.00564 0.09013 0.0
C1043 C 0.82945 0.02726 0.07858 0.0
C1044 C 0.84618 0.0457 0.08198 0.0
C1045 C 0.86486 0.04254 0.09689 0.0
C1046 C 0.86671 0.02103 0.10859 0.0
C1047 C 0.92587 0.89923 0.11432 0.0
C1048 C 0.94688 0.91253 0.11882 0.0
C1049 C 0.9029 0.90912 0.11854 0.0
C1050 C 0.9006 0.9324 0.12744 0.0
C1051 C 0.92165 0.94489 0.13331 0.0
C1052 C 0.9445 0.93506 0.12909 0.0
C1053 C 0.87662 0.94484 0.12874 0.0
C1054 C 0.87385 0.96705 0.11804 0.0
C1055 C 0.85651 0.9349 0.13967 0.0
C1056 C 0.85835 0.91184 0.15173 0.0
C1057 C 0.87594 0.90875 0.16787 0.0
C1058 C 0.87764 0.88692 0.1791 0.0
C1059 C 0.86174 0.86809 0.17442 0.0
C1060 C 0.84405 0.87109 0.15855 0.0
C1061 C 0.84229 0.89288 0.14727 0.0
H1062 H 0.86308 0.85121 0.18313 0.0
H1063 H 0.84471 0.06244 0.07307 0.0
H1064 H 0.04137 0.25954 0.37836 0.0
H1065 H 0.06448 0.22171 0.37692 0.0
H1066 H 0.99992 0.18341 0.35856 0.0
H1067 H 0.97669 0.22097 0.3603 0.0
H1068 H 0.02216 0.16003 0.38968 0.0
H1069 H 0.04671 0.195 0.32244 0.0
H1070 H 0.06345 0.2263 0.2985 0.0
H1071 H 0.13111 0.22311 0.33237 0.0
H1072 H 0.11467 0.19201 0.35671 0.0
H1073 H 0.0708 0.04804 0.36542 0.0
H1074 H 0.05489 0.08811 0.35652 0.0
H1075 H 0.11802 0.12087 0.3847 0.0
H1076 H 0.13411 0.08062 0.39355 0.0
H1077 H 0.09818 0.14735 0.34846 0.0
H1078 H 0.07308 0.11256 0.41585 0.0
H1079 H 0.05683 0.07975 0.43841 0.0
H1080 H 0.9898 0.08246 0.40354 0.0
H1081 H 1.00587 0.11493 0.38042 0.0
C1082 C 0.03213 0.2431 0.37382 0.0
C1083 C 0.00713 0.24334 0.36949 0.0
C1084 C 0.04541 0.22146 0.37292 0.0
C1085 C 0.03403 0.19962 0.36751 0.0
C1086 C 0.00916 0.19995 0.36282 0.0
C1087 C 0.99588 0.22151 0.36377 0.0
C1088 C 0.04761 0.17622 0.36772 0.0
C1089 C 0.03859 0.15725 0.3804 0.0
C1090 C 0.06946 0.17261 0.35611 0.0
C1091 C 0.07936 0.19137 0.34155 0.0
C1092 C 0.06509 0.20113 0.32491 0.0
C1093 C 0.07454 0.2188 0.31124 0.0
C1094 C 0.09831 0.22674 0.31396 0.0
C1095 C 0.11269 0.21698 0.33031 0.0
C1096 C 0.10332 0.19931 0.34404 0.0
C1097 C 0.08172 0.06376 0.36895 0.0
C1098 C 0.10363 0.06126 0.38025 0.0
C1099 C 0.07256 0.08664 0.36396 0.0
C1100 C 0.08503 0.10749 0.37034 0.0
C1101 C 0.10808 0.10502 0.37967 0.0
C1102 C 0.11731 0.08203 0.38463 0.0
C1103 C 0.07245 0.13132 0.37011 0.0
C1104 C 0.08171 0.15028 0.35763 0.0
C1105 C 0.05078 0.13501 0.3819 0.0
C1106 C 0.04077 0.11604 0.39626 0.0
C1107 C 0.05492 0.10607 0.4129 0.0
C1108 C 0.04576 0.08753 0.42579 0.0
C1109 C 0.02232 0.07899 0.42239 0.0
C1110 C 0.00797 0.08907 0.40614 0.0
C1111 C 0.0171 0.10754 0.39313 0.0
H1112 H 0.01526 0.06461 0.43237 0.0
H1113 H 0.10559 0.24042 0.30335 0.0
H1114 H 0.29284 0.97034 0.35947 0.0
H1115 H 0.32963 0.9945 0.36057 0.0
H1116 H 0.28743 0.05775 0.37655 0.0
H1117 H 0.25035 0.03366 0.37525 0.0
H1118 H 0.32233 0.06925 0.34857 0.0
H1119 H 0.31799 0.02649 0.41465 0.0
H1120 H 0.31466 0.99217 0.43976 0.0
H1121 H 0.38066 0.96199 0.4148 0.0
H1122 H 0.38406 0.99573 0.38908 0.0
H1123 H 0.42758 0.1311 0.39407 0.0
H1124 H 0.38775 0.11403 0.3854 0.0
H1125 H 0.42244 0.04969 0.36097 0.0
H1126 H 0.46206 0.06673 0.36934 0.0
H1127 H 0.39005 0.04124 0.39476 0.0
H1128 H 0.39238 0.08481 0.32741 0.0
H1129 H 0.3959 0.12124 0.30481 0.0
H1130 H 0.33372 0.1523 0.336 0.0
H1131 H 0.33004 0.11617 0.35902 0.0
C1132 C 0.29128 0.98944 0.36304 0.0
C1133 C 0.26858 1.0 0.36739 0.0
C1134 C 0.31241 1.00323 0.36378 0.0
C1135 C 0.31142 0.02789 0.36903 0.0
C1136 C 0.2887 0.03874 0.37256 0.0
C1137 C 0.2675 0.02492 0.37181 0.0
C1138 C 0.33416 0.04211 0.37119 0.0
C1139 C 0.33701 0.06325 0.35888 0.0
C1140 C 0.35346 0.03431 0.38459 0.0
C1141 C 0.35108 0.01354 0.39965 0.0
C1142 C 0.33161 0.01236 0.41425 0.0
C1143 C 0.32973 0.99302 0.42864 0.0
C1144 C 0.34738 0.97486 0.4288 0.0
C1145 C 0.36694 0.976 0.41458 0.0
C1146 C 0.36881 0.99521 0.40005 0.0
C1147 C 0.42669 0.11379 0.38597 0.0
C1148 C 0.44789 0.10023 0.38238 0.0
C1149 C 0.40393 0.10396 0.3812 0.0
C1150 C 0.40212 0.08045 0.37277 0.0
C1151 C 0.42339 0.06777 0.36759 0.0
C1152 C 0.44602 0.0776 0.37223 0.0
C1153 C 0.37843 0.06783 0.37167 0.0
C1154 C 0.37535 0.04711 0.3844 0.0
C1155 C 0.3589 0.0762 0.35895 0.0
C1156 C 0.3611 0.0979 0.3451 0.0
C1157 C 0.3796 0.0995 0.3296 0.0
C1158 C 0.38159 0.12008 0.31668 0.0
C1159 C 0.36509 0.1391 0.31901 0.0
C1160 C 0.34652 0.13756 0.33423 0.0
C1161 C 0.34445 0.11704 0.34721 0.0
H1162 H 0.36666 0.15501 0.30898 0.0
H1163 H 0.34593 0.95994 0.43997 0.0
H1164 H 0.44422 0.45873 0.36639 0.0
H1165 H 0.45871 0.4182 0.35753 0.0
H1166 H 0.39221 0.38805 0.3818 0.0
H1167 H 0.37778 0.42882 0.39102 0.0
H1168 H 0.43052 0.36626 0.39962 0.0
H1169 H 0.40701 0.38484 0.32769 0.0
H1170 H 0.40426 0.40923 0.29455 0.0
H1171 H 0.48149 0.40608 0.28734 0.0
H1172 H 0.48476 0.38195 0.32062 0.0
H1173 H 0.47354 0.24778 0.3755 0.0
H1174 H 0.44839 0.28432 0.37423 0.0
H1175 H 0.50989 0.32552 0.3528 0.0
H1176 H 0.53507 0.28913 0.35388 0.0
H1177 H 0.46915 0.33928 0.33152 0.0
H1178 H 0.49306 0.32596 0.4052 0.0
H1179 H 0.4969 0.30268 0.43891 0.0
H1180 H 0.41955 0.29703 0.44303 0.0
H1181 H 0.41528 0.32 0.40916 0.0
C1182 C 0.4324 0.4435 0.36928 0.0
C1183 C 0.40982 0.44697 0.37933 0.0
C1184 C 0.44069 0.42029 0.36417 0.0
C1185 C 0.42657 0.39993 0.36891 0.0
C1186 C 0.40345 0.40343 0.37795 0.0
C1187 C 0.39508 0.42675 0.38299 0.0
C1188 C 0.43705 0.37516 0.36634 0.0
C1189 C 0.43842 0.36015 0.38456 0.0
C1190 C 0.44801 0.36732 0.34688 0.0
C1191 C 0.44613 0.3817 0.32675 0.0
C1192 C 0.42343 0.38948 0.31913 0.0
C1193 C 0.42177 0.40324 0.3003 0.0
C1194 C 0.44269 0.40924 0.28887 0.0
C1195 C 0.4653 0.40142 0.29621 0.0
C1196 C 0.46706 0.38767 0.31505 0.0
C1197 C 0.48167 0.26455 0.37027 0.0
C1198 C 0.5064 0.26549 0.36491 0.0
C1199 C 0.46726 0.28548 0.36963 0.0
C1200 C 0.47728 0.3078 0.36366 0.0
C1201 C 0.50171 0.30857 0.35747 0.0
C1202 C 0.51613 0.2877 0.35817 0.0
C1203 C 0.46276 0.3306 0.36484 0.0
C1204 C 0.46079 0.34525 0.34643 0.0
C1205 C 0.45134 0.3382 0.38414 0.0
C1206 C 0.45386 0.32443 0.40451 0.0
C1207 C 0.47688 0.31957 0.4132 0.0
C1208 C 0.47914 0.30647 0.43235 0.0
C1209 C 0.45849 0.29831 0.44307 0.0
C1210 C 0.43554 0.30331 0.43469 0.0
C1211 C 0.43318 0.31637 0.41552 0.0
H1212 H 0.46027 0.28818 0.4579 0.0
H1213 H 0.44137 0.4199 0.2743 0.0
H1214 H 0.08187 0.42811 0.41928 0.0
H1215 H 0.12108 0.44301 0.40778 0.0
H1216 H 0.10727 0.41773 0.34317 0.0
H1217 H 0.06712 0.4034 0.35464 0.0
H1218 H 0.16049 0.42477 0.39259 0.0
H1219 H 0.13478 0.45783 0.30791 0.0
H1220 H 0.0986 0.4701 0.28724 0.0
H1221 H 0.06348 0.49264 0.34568 0.0
H1222 H 0.09955 0.48077 0.36662 0.0
H1223 H 0.2671 0.48004 0.35407 0.0
H1224 H 0.23111 0.45443 0.35345 0.0
H1225 H 0.18565 0.51763 0.35971 0.0
H1226 H 0.22137 0.54329 0.3596 0.0
H1227 H 0.16388 0.48661 0.33487 0.0
H1228 H 0.20364 0.48301 0.40403 0.0
H1229 H 0.23785 0.47556 0.42871 0.0
H1230 H 0.24142 0.40163 0.40796 0.0
H1231 H 0.20739 0.40875 0.38295 0.0
C1232 C 0.08712 0.42571 0.40259 0.0
C1233 C 0.0712 0.41505 0.38773 0.0
C1234 C 0.1097 0.43404 0.39607 0.0
C1235 C 0.11711 0.43181 0.37454 0.0
C1236 C 0.10181 0.42 0.35981 0.0
C1237 C 0.07898 0.41167 0.36637 0.0
C1238 C 0.14031 0.44313 0.36777 0.0
C1239 C 0.16129 0.43803 0.37974 0.0
C1240 C 0.1414 0.46073 0.35124 0.0
C1241 C 0.11971 0.4681 0.33882 0.0
C1242 C 0.11934 0.46543 0.31632 0.0
C1243 C 0.09886 0.47232 0.30456 0.0
C1244 C 0.07872 0.48205 0.31515 0.0
C1245 C 0.07905 0.48501 0.3375 0.0
C1246 C 0.09949 0.47819 0.34932 0.0
C1247 C 0.24941 0.48849 0.35496 0.0
C1248 C 0.24713 0.51369 0.35709 0.0
C1249 C 0.22884 0.47382 0.35467 0.0
C1250 C 0.20562 0.48402 0.35693 0.0
C1251 C 0.20331 0.50927 0.35794 0.0
C1252 C 0.22381 0.52395 0.35796 0.0
C1253 C 0.18388 0.46858 0.36 0.0
C1254 C 0.16325 0.47289 0.34733 0.0
C1255 C 0.18282 0.45082 0.37641 0.0
C1256 C 0.20321 0.44648 0.39145 0.0
C1257 C 0.21184 0.46521 0.40463 0.0
C1258 C 0.23117 0.46105 0.41869 0.0
C1259 C 0.24185 0.43815 0.41984 0.0
C1260 C 0.23317 0.41936 0.407 0.0
C1261 C 0.21386 0.42345 0.39289 0.0
H1262 H 0.25682 0.43496 0.43074 0.0
H1263 H 0.06288 0.48735 0.30602 0.0
H1264 H 0.48031 0.26396 0.82563 0.0
H1265 H 0.45861 0.22553 0.82167 0.0
H1266 H 0.48467 0.20287 0.884 0.0
H1267 H 0.50636 0.24059 0.88795 0.0
H1268 H 0.49015 0.16765 0.85517 0.0
H1269 H 0.42679 0.2246 0.87624 0.0
H1270 H 0.40123 0.26083 0.87131 0.0
H1271 H 0.37583 0.23309 0.81084 0.0
H1272 H 0.40149 0.19681 0.81532 0.0
H1273 H 0.41663 0.09056 0.91052 0.0
H1274 H 0.43049 0.12919 0.89647 0.0
H1275 H 0.40944 0.10795 0.83236 0.0
H1276 H 0.39574 0.06858 0.84645 0.0
H1277 H 0.40066 0.16282 0.85024 0.0
H1278 H 0.45997 0.10113 0.83455 0.0
H1279 H 0.48404 0.06484 0.84331 0.0
H1280 H 0.51718 0.10227 0.89608 0.0
H1281 H 0.49266 0.13851 0.88817 0.0
C1282 C 0.48139 0.25074 0.83845 0.0
C1283 C 0.49511 0.25537 0.85709 0.0
C1284 C 0.46894 0.22883 0.83618 0.0
C1285 C 0.47002 0.2113 0.85255 0.0
C1286 C 0.4837 0.21601 0.87109 0.0
C1287 C 0.49605 0.23772 0.87335 0.0
C1288 C 0.4571 0.1879 0.8509 0.0
C1289 C 0.4706 0.16662 0.85386 0.0
C1290 C 0.43164 0.1864 0.84863 0.0
C1291 C 0.41629 0.20819 0.84596 0.0
C1292 C 0.41591 0.22634 0.86181 0.0
C1293 C 0.40138 0.24686 0.85912 0.0
C1294 C 0.38699 0.24931 0.84074 0.0
C1295 C 0.38704 0.2312 0.82504 0.0
C1296 C 0.40157 0.21066 0.82765 0.0
C1297 C 0.41461 0.09421 0.89346 0.0
C1298 C 0.40554 0.07646 0.87948 0.0
C1299 C 0.42241 0.11631 0.88549 0.0
C1300 C 0.42117 0.12126 0.8634 0.0
C1301 C 0.41048 0.10437 0.84949 0.0
C1302 C 0.40269 0.08199 0.85751 0.0
C1303 C 0.43374 0.14293 0.85522 0.0
C1304 C 0.42026 0.16382 0.85061 0.0
C1305 C 0.45926 0.14419 0.85614 0.0
C1306 C 0.47431 0.1225 0.86084 0.0
C1307 C 0.47216 0.10154 0.84819 0.0
C1308 C 0.48588 0.08096 0.85303 0.0
C1309 C 0.50203 0.0812 0.87033 0.0
C1310 C 0.50454 0.10205 0.88279 0.0
C1311 C 0.49073 0.12262 0.87814 0.0
H1312 H 0.51266 0.06527 0.87404 0.0
H1313 H 0.37574 0.2652 0.83868 0.0
H1314 H 0.46329 0.4446 0.88609 0.0
H1315 H 0.42281 0.46029 0.87887 0.0
H1316 H 0.39272 0.38984 0.89065 0.0
H1317 H 0.43338 0.37408 0.89885 0.0
H1318 H 0.37145 0.41484 0.85464 0.0
H1319 H 0.38681 0.42703 0.92873 0.0
H1320 H 0.40621 0.43965 0.96261 0.0
H1321 H 0.40468 0.51355 0.94173 0.0
H1322 H 0.38571 0.50134 0.9075 0.0
H1323 H 0.25139 0.46856 0.86973 0.0
H1324 H 0.28859 0.44442 0.87353 0.0
H1325 H 0.33137 0.50846 0.8642 0.0
H1326 H 0.29459 0.53254 0.86017 0.0
H1327 H 0.34359 0.48229 0.90124 0.0
H1328 H 0.329 0.46771 0.82548 0.0
H1329 H 0.30496 0.45388 0.79442 0.0
H1330 H 0.30182 0.38253 0.82137 0.0
H1331 H 0.32558 0.39604 0.85275 0.0
C1332 C 0.44814 0.4323 0.88702 0.0
C1333 C 0.45164 0.4081 0.89338 0.0
C1334 C 0.42496 0.44135 0.88289 0.0
C1335 C 0.40466 0.42637 0.8846 0.0
C1336 C 0.40813 0.40177 0.88937 0.0
C1337 C 0.43142 0.39272 0.89386 0.0
C1338 C 0.37996 0.43695 0.88214 0.0
C1339 C 0.3652 0.42934 0.86503 0.0
C1340 C 0.37177 0.45596 0.89563 0.0
C1341 C 0.38501 0.4632 0.91541 0.0
C1342 C 0.39099 0.44592 0.93117 0.0
C1343 C 0.40175 0.45303 0.95052 0.0
C1344 C 0.40648 0.47741 0.9544 0.0
C1345 C 0.40085 0.49469 0.93877 0.0
C1346 C 0.39016 0.48767 0.91936 0.0
C1347 C 0.26873 0.47743 0.86817 0.0
C1348 C 0.26995 0.50252 0.86465 0.0
C1349 C 0.28997 0.46359 0.87033 0.0
C1350 C 0.31279 0.47464 0.86917 0.0
C1351 C 0.31399 0.49955 0.86519 0.0
C1352 C 0.29288 0.51329 0.8628 0.0
C1353 C 0.3355 0.46079 0.87334 0.0
C1354 C 0.34985 0.46776 0.89088 0.0
C1355 C 0.34308 0.44106 0.86043 0.0
C1356 C 0.32882 0.43295 0.84158 0.0
C1357 C 0.32298 0.44913 0.82489 0.0
C1358 C 0.30945 0.44134 0.8072 0.0
C1359 C 0.3018 0.41736 0.80596 0.0
C1360 C 0.30772 0.40111 0.82237 0.0
C1361 C 0.32123 0.40882 0.8401 0.0
H1362 H 0.29133 0.41136 0.79225 0.0
H1363 H 0.41472 0.48288 0.96943 0.0
H1364 H 0.98653 0.28554 0.83815 0.0
H1365 H 0.00996 0.32301 0.84102 0.0
H1366 H 0.04502 0.29565 0.89809 0.0
H1367 H 0.02224 0.25806 0.89506 0.0
H1368 H 0.02251 0.34309 0.90181 0.0
H1369 H 0.07743 0.29805 0.85626 0.0
H1370 H 0.08859 0.27455 0.82398 0.0
H1371 H 0.06875 0.33439 0.78358 0.0
H1372 H 0.05713 0.35814 0.81564 0.0
H1373 H 0.10852 0.43178 0.92409 0.0
H1374 H 0.08992 0.39286 0.91577 0.0
H1375 H 0.07129 0.41886 0.85233 0.0
H1376 H 0.09049 0.45782 0.86064 0.0
H1377 H 0.08405 0.3727 0.85003 0.0
H1378 H 0.02996 0.41841 0.89343 0.0
H1379 H 0.01393 0.44205 0.92398 0.0
H1380 H 0.02738 0.38246 0.96663 0.0
H1381 H 0.04399 0.35862 0.93645 0.0
C1382 C 0.99948 0.2874 0.85113 0.0
C1383 C 1.00258 0.26879 0.86633 0.0
C1384 C 0.01286 0.30878 0.85272 0.0
C1385 C 0.02924 0.31206 0.86974 0.0
C1386 C 0.03253 0.29344 0.88479 0.0
C1387 C 0.01955 0.27192 0.88297 0.0
C1388 C 0.04203 0.33536 0.87264 0.0
C1389 C 0.03625 0.34945 0.8907 0.0
C1390 C 0.05916 0.34402 0.8576 0.0
C1391 C 0.06614 0.32977 0.83833 0.0
C1392 C 0.07521 0.30612 0.84049 0.0
C1393 C 0.08168 0.29277 0.82223 0.0
C1394 C 0.07931 0.30294 0.80174 0.0
C1395 C 0.07053 0.32651 0.79946 0.0
C1396 C 0.06402 0.33993 0.81767 0.0
C1397 C 0.10101 0.42889 0.90818 0.0
C1398 C 0.10115 0.44755 0.89288 0.0
C1399 C 0.09011 0.40679 0.90352 0.0
C1400 C 0.07872 0.40304 0.88357 0.0
C1401 C 0.07988 0.42132 0.86786 0.0
C1402 C 0.09094 0.44349 0.87252 0.0
C1403 C 0.06495 0.38037 0.87957 0.0
C1404 C 0.07039 0.36643 0.86124 0.0
C1405 C 0.04713 0.37198 0.89421 0.0
C1406 C 0.03843 0.38677 0.91266 0.0
C1407 C 0.02983 0.41045 0.90937 0.0
C1408 C 0.02053 0.42385 0.92661 0.0
C1409 C 0.0195 0.4137 0.94719 0.0
C1410 C 0.02811 0.39026 0.95066 0.0
C1411 C 0.03751 0.37681 0.9335 0.0
H1412 H 0.01211 0.42404 0.96048 0.0
H1413 H 0.08434 0.29258 0.78762 0.0
H1414 H 0.24147 0.01144 0.90134 0.0
H1415 H 0.2018 0.03068 0.90412 0.0
H1416 H 0.20138 0.04284 0.83549 0.0
H1417 H 0.24137 0.02373 0.83258 0.0
H1418 H 0.18593 0.08227 0.85589 0.0
H1419 H 0.16704 0.99888 0.85867 0.0
H1420 H 0.16731 0.95633 0.87033 0.0
H1421 H 0.14342 0.97756 0.93341 0.0
H1422 H 0.14359 0.0203 0.92233 0.0
H1423 H 0.05674 0.11231 0.86037 0.0
H1424 H 0.09717 0.09622 0.85117 0.0
H1425 H 0.11107 0.08296 0.91854 0.0
H1426 H 0.07114 0.09897 0.92762 0.0
H1427 H 0.11807 0.04287 0.89432 0.0
H1428 H 0.1405 0.12715 0.89133 0.0
H1429 H 0.13742 0.16904 0.87808 0.0
H1430 H 0.15215 0.14484 0.81364 0.0
H1431 H 0.15499 0.10273 0.82647 0.0
C1432 C 0.233 0.01818 0.88679 0.0
C1433 C 0.24469 0.01602 0.86671 0.0
C1434 C 0.21018 0.02908 0.8884 0.0
C1435 C 0.19837 0.03803 0.86999 0.0
C1436 C 0.21005 0.03605 0.84993 0.0
C1437 C 0.23291 0.02506 0.84828 0.0
C1438 C 0.17411 0.04983 0.87188 0.0
C1439 C 0.17098 0.07348 0.86401 0.0
C1440 C 0.15456 0.03853 0.88263 0.0
C1441 C 0.15556 0.01289 0.88969 0.0
C1442 C 0.16219 0.99454 0.87512 0.0
C1443 C 0.16217 0.97036 0.88161 0.0
C1444 C 0.1553 0.96424 0.90257 0.0
C1445 C 0.14863 0.98232 0.91715 0.0
C1446 C 0.14877 0.00653 0.91079 0.0
C1447 C 0.06878 0.10656 0.87316 0.0
C1448 C 0.06085 0.10676 0.89467 0.0
C1449 C 0.09179 0.09728 0.86792 0.0
C1450 C 0.10712 0.0882 0.88417 0.0
C1451 C 0.09956 0.08966 0.90571 0.0
C1452 C 0.07678 0.0989 0.9109 0.0
C1453 C 0.13023 0.07548 0.87901 0.0
C1454 C 0.13305 0.05158 0.88616 0.0
C1455 C 0.14935 0.08647 0.86752 0.0
C1456 C 0.14768 0.11176 0.85982 0.0
C1457 C 0.14286 0.13073 0.8743 0.0
C1458 C 0.14121 0.15452 0.86688 0.0
C1459 C 0.14451 0.15959 0.84502 0.0
C1460 C 0.14955 0.14088 0.83056 0.0
C1461 C 0.1512 0.11706 0.8379 0.0
H1462 H 0.14323 0.17802 0.83931 0.0
H1463 H 0.15526 0.94551 0.90755 0.0
H1464 H 0.96708 0.74603 0.63363 0.0
H1465 H 0.94256 0.78296 0.63495 0.0
H1466 H 1.00588 0.82407 0.65176 0.0
H1467 H 0.03047 0.78728 0.65061 0.0
H1468 H 0.96595 0.83944 0.67429 0.0
H1469 H 0.98708 0.8218 0.6004 0.0
H1470 H 0.98909 0.79652 0.56772 0.0
H1471 H 0.91153 0.79231 0.5664 0.0
H1472 H 0.90908 0.81731 0.59928 0.0
H1473 H 0.94389 0.95736 0.63478 0.0
H1474 H 0.95714 0.91694 0.64532 0.0
H1475 H 0.88912 0.88776 0.62364 0.0
H1476 H 0.87598 0.92832 0.61263 0.0
H1477 H 0.92599 0.86387 0.60609 0.0
H1478 H 0.90502 0.88688 0.67751 0.0
H1479 H 0.9037 0.91282 0.70978 0.0
H1480 H 0.98096 0.90769 0.71574 0.0
H1481 H 0.98281 0.88199 0.68332 0.0
C1482 C 0.97574 0.76286 0.63791 0.0
C1483 C 1.0008 0.76369 0.64185 0.0
C1484 C 0.9617 0.78398 0.63859 0.0
C1485 C 0.97242 0.80636 0.6432 0.0
C1486 C 0.99719 0.80704 0.64815 0.0
C1487 C 0.01125 0.78597 0.64741 0.0
C1488 C 0.95832 0.82928 0.64153 0.0
C1489 C 0.95728 0.84486 0.65937 0.0
C1490 C 0.94647 0.83611 0.62223 0.0
C1491 C 0.94791 0.82116 0.60244 0.0
C1492 C 0.97046 0.81531 0.59324 0.0
C1493 C 0.97168 0.80107 0.57467 0.0
C1494 C 0.95045 0.79275 0.56503 0.0
C1495 C 0.92796 0.79872 0.57391 0.0
C1496 C 0.92664 0.81293 0.59251 0.0
C1497 C 0.93153 0.9424 0.63274 0.0
C1498 C 0.90891 0.94601 0.62285 0.0
C1499 C 0.93908 0.91928 0.63886 0.0
C1500 C 0.92413 0.8992 0.63536 0.0
C1501 C 0.90097 0.90294 0.62654 0.0
C1502 C 0.89337 0.92616 0.62044 0.0
C1503 C 0.9338 0.8743 0.6388 0.0
C1504 C 0.93417 0.85834 0.6212 0.0
C1505 C 0.94506 0.8672 0.65831 0.0
C1506 C 0.94406 0.88262 0.67787 0.0
C1507 C 0.92176 0.89142 0.6856 0.0
C1508 C 0.92091 0.90606 0.70394 0.0
C1509 C 0.94224 0.91193 0.71478 0.0
C1510 C 0.96446 0.90313 0.70732 0.0
C1511 C 0.96541 0.88849 0.68898 0.0
H1512 H 0.94154 0.92327 0.72898 0.0
H1513 H 0.95143 0.78173 0.55065 0.0
H1514 H 0.71896 0.03553 0.64139 0.0
H1515 H 0.68345 0.00969 0.64158 0.0
H1516 H 0.72946 0.9465 0.64227 0.0
H1517 H 0.76527 0.97241 0.64137 0.0
H1518 H 0.69645 0.94044 0.61381 0.0
H1519 H 0.69408 0.96385 0.68716 0.0
H1520 H 0.69512 0.99154 0.71826 0.0
H1521 H 0.63103 0.02734 0.69535 0.0
H1522 H 0.62978 1.00008 0.66395 0.0
H1523 H 0.56436 0.89749 0.64653 0.0
H1524 H 0.60525 0.9105 0.65707 0.0
H1525 H 0.61674 0.93872 0.59309 0.0
H1526 H 0.5769 0.92488 0.58238 0.0
H1527 H 0.62399 0.95414 0.65953 0.0
H1528 H 0.6736 0.937 0.57793 0.0
H1529 H 0.67356 0.90692 0.54863 0.0
H1530 H 0.64557 0.85343 0.59196 0.0
H1531 H 0.64576 0.88308 0.62161 0.0
C1532 C 0.72161 0.01614 0.6419 0.0
C1533 C 0.74502 0.00606 0.64137 0.0
C1534 C 0.7012 1.00133 0.64214 0.0
C1535 C 0.70364 0.97606 0.64223 0.0
C1536 C 0.72704 0.96593 0.64224 0.0
C1537 C 0.74751 0.98077 0.6418 0.0
C1538 C 0.68179 0.96041 0.64064 0.0
C1539 C 0.68072 0.9433 0.62397 0.0
C1540 C 0.66135 0.9636 0.65419 0.0
C1541 C 0.66191 0.97997 0.67313 0.0
C1542 C 0.68028 0.97771 0.68868 0.0
C1543 C 0.6809 0.99332 0.70638 0.0
C1544 C 0.66317 0.0112 0.70876 0.0
C1545 C 0.64475 0.01347 0.69348 0.0
C1546 C 0.64405 0.99792 0.67575 0.0
C1547 C 0.57586 0.90606 0.63468 0.0
C1548 C 0.56728 0.9104 0.6137 0.0
C1549 C 0.59913 0.91364 0.64073 0.0
C1550 C 0.61425 0.92543 0.62583 0.0
C1551 C 0.60575 0.9293 0.60482 0.0
C1552 C 0.58275 0.92165 0.59878 0.0
C1553 C 0.63842 0.93495 0.63218 0.0
C1554 C 0.63991 0.95096 0.64968 0.0
C1555 C 0.65943 0.93039 0.61968 0.0
C1556 C 0.65959 0.91233 0.60198 0.0
C1557 C 0.66759 0.91878 0.58126 0.0
C1558 C 0.6675 0.90181 0.56457 0.0
C1559 C 0.65953 0.87829 0.56842 0.0
C1560 C 0.65168 0.87167 0.58899 0.0
C1561 C 0.65175 0.88856 0.60573 0.0
H1562 H 0.65945 0.86519 0.55548 0.0
H1563 H 0.66369 0.02328 0.72247 0.0
H1564 H 0.49437 0.73082 0.67393 0.0
H1565 H 0.51753 0.69288 0.67244 0.0
H1566 H 0.55549 0.7185 0.6163 0.0
H1567 H 0.53289 0.75652 0.61789 0.0
H1568 H 0.53225 0.67228 0.61181 0.0
H1569 H 0.58607 0.71461 0.6595 0.0
H1570 H 0.59677 0.73758 0.69213 0.0
H1571 H 0.57337 0.6786 0.73181 0.0
H1572 H 0.56219 0.65541 0.69939 0.0
H1573 H 0.61745 0.58104 0.59321 0.0
H1574 H 0.6024 0.62129 0.60302 0.0
H1575 H 0.56894 0.59163 0.65989 0.0
H1576 H 0.5837 0.55115 0.64979 0.0
H1577 H 0.58949 0.63933 0.66604 0.0
H1578 H 0.53523 0.59708 0.6205 0.0
H1579 H 0.52005 0.5742 0.5893 0.0
H1580 H 0.53998 0.63224 0.54711 0.0
H1581 H 0.55586 0.65526 0.57802 0.0
C1582 C 0.5079 0.72851 0.66146 0.0
C1583 C 0.51173 0.74671 0.64601 0.0
C1584 C 0.52116 0.70685 0.66067 0.0
C1585 C 0.53824 0.70288 0.64426 0.0
C1586 C 0.54243 0.7212 0.62912 0.0
C1587 C 0.52952 0.74297 0.6301 0.0
C1588 C 0.55043 0.67903 0.64181 0.0
C1589 C 0.54508 0.66525 0.62349 0.0
C1590 C 0.56638 0.66946 0.65752 0.0
C1591 C 0.57302 0.68339 0.67702 0.0
C1592 C 0.58296 0.70664 0.67519 0.0
C1593 C 0.58917 0.71968 0.69364 0.0
C1594 C 0.58568 0.70959 0.71404 0.0
C1595 C 0.57602 0.68641 0.71601 0.0
C1596 C 0.56976 0.67331 0.69759 0.0
C1597 C 0.60768 0.58333 0.60822 0.0
C1598 C 0.60209 0.56318 0.62098 0.0
C1599 C 0.5989 0.60624 0.61372 0.0
C1600 C 0.58439 0.60944 0.6321 0.0
C1601 C 0.58018 0.58959 0.64569 0.0
C1602 C 0.58873 0.56654 0.64002 0.0
C1603 C 0.57171 0.63286 0.63575 0.0
C1604 C 0.57679 0.64644 0.65431 0.0
C1605 C 0.55517 0.64219 0.6204 0.0
C1606 C 0.547 0.6278 0.60158 0.0
C1607 C 0.5368 0.6048 0.60454 0.0
C1608 C 0.52796 0.59184 0.58691 0.0
C1609 C 0.52895 0.60183 0.56627 0.0
C1610 C 0.53917 0.62458 0.56314 0.0
C1611 C 0.54814 0.63757 0.5807 0.0
H1612 H 0.52166 0.59201 0.55271 0.0
H1613 H 0.59052 0.7197 0.72831 0.0
H1614 H 0.74473 0.52835 0.62356 0.0
H1615 H 0.78138 0.55282 0.62565 0.0
H1616 H 0.82122 0.49135 0.64974 0.0
H1617 H 0.78459 0.46681 0.64796 0.0
H1618 H 0.83418 0.53213 0.67074 0.0
H1619 H 0.82471 0.50708 0.59714 0.0
H1620 H 0.80329 0.50234 0.56257 0.0
H1621 H 0.7968 0.57939 0.5568 0.0
H1622 H 0.8179 0.58457 0.59152 0.0
H1623 H 0.9547 0.5596 0.6384 0.0
H1624 H 0.91448 0.54392 0.64673 0.0
H1625 H 0.88218 0.60971 0.62277 0.0
H1626 H 0.92251 0.62536 0.6142 0.0
H1627 H 0.86354 0.57036 0.6034 0.0
H1628 H 0.87785 0.59477 0.67601 0.0
H1629 H 0.90055 0.5981 0.71005 0.0
H1630 H 0.89949 0.52098 0.71724 0.0
H1631 H 0.87707 0.51714 0.68307 0.0
C1632 C 0.76123 0.52005 0.62947 0.0
C1633 C 0.76173 0.49554 0.63545 0.0
C1634 C 0.7822 0.53407 0.6306 0.0
C1635 C 0.80416 0.52387 0.6376 0.0
C1636 C 0.80451 0.49964 0.64428 0.0
C1637 C 0.78354 0.4856 0.64317 0.0
C1638 C 0.82698 0.53808 0.63707 0.0
C1639 C 0.8407 0.54037 0.65599 0.0
C1640 C 0.83528 0.54926 0.61793 0.0
C1641 C 0.82262 0.5462 0.59705 0.0
C1642 C 0.81853 0.523 0.58859 0.0
C1643 C 0.80648 0.52024 0.56896 0.0
C1644 C 0.79862 0.54055 0.55753 0.0
C1645 C 0.80286 0.56367 0.5657 0.0
C1646 C 0.81487 0.56653 0.58534 0.0
C1647 C 0.93905 0.57099 0.63551 0.0
C1648 C 0.94174 0.59372 0.62569 0.0
C1649 C 0.91605 0.56204 0.6403 0.0
C1650 C 0.89524 0.57562 0.63539 0.0
C1651 C 0.89796 0.59891 0.62672 0.0
C1652 C 0.92102 0.60795 0.62204 0.0
C1653 C 0.87086 0.56441 0.63707 0.0
C1654 C 0.85688 0.56251 0.61827 0.0
C1655 C 0.86249 0.55344 0.65628 0.0
C1656 C 0.87592 0.55566 0.67688 0.0
C1657 C 0.88262 0.5785 0.68476 0.0
C1658 C 0.8954 0.58048 0.7041 0.0
C1659 C 0.9015 0.55976 0.71578 0.0
C1660 C 0.89477 0.53701 0.70817 0.0
C1661 C 0.88199 0.53493 0.68883 0.0
H1662 H 0.9114 0.56133 0.73075 0.0
H1663 H 0.7893 0.53838 0.54233 0.0
H1664 H 0.60138 0.29848 0.96105 0.0
H1665 H 0.6177 0.26653 0.98412 0.0
H1666 H 0.59116 0.21268 0.9399 0.0
H1667 H 0.57418 0.24445 0.91716 0.0
H1668 H 0.58466 0.19704 0.9785 0.0
H1669 H 0.6517 0.23024 0.94067 0.0
H1670 H 0.67843 0.26253 0.92737 0.0
H1671 H 0.69712 0.28112 0.99241 0.0
H1672 H 0.67027 0.2491 0.00613 0.0
H1673 H 0.69986 0.12922 0.02485 0.0
H1674 H 0.68016 0.15562 0.99852 0.0
H1675 H 0.61998 0.16571 0.04199 0.0
H1676 H 0.63933 0.13897 0.06813 0.0
H1677 H 0.67071 0.2011 1.00083 0.0
H1678 H 0.56869 0.17949 0.01514 0.0
H1679 H 0.54303 0.14433 0.02337 0.0
H1680 H 0.59701 0.09674 0.99699 0.0
H1681 H 0.62285 0.13161 0.98834 0.0
C1682 C 0.59886 0.27984 0.95631 0.0
C1683 C 0.58657 0.27407 0.93717 0.0
C1684 C 0.60832 0.26155 0.96947 0.0
C1685 C 0.60608 0.23712 0.9636 0.0
C1686 C 0.59319 0.23134 0.94482 0.0
C1687 C 0.5835 0.24958 0.93179 0.0
C1688 C 0.61757 0.21763 0.97673 0.0
C1689 C 0.60346 0.19795 0.98341 0.0
C1690 C 0.64234 0.21833 0.98259 0.0
C1691 C 0.65882 0.23737 0.97443 0.0
C1692 C 0.66142 0.24128 0.95215 0.0
C1693 C 0.6766 0.25952 0.94453 0.0
C1694 C 0.68945 0.27387 0.95904 0.0
C1695 C 0.68717 0.26997 0.98119 0.0
C1696 C 0.67199 0.25176 0.9889 0.0
C1697 C 0.68224 0.13674 0.02865 0.0
C1698 C 0.67123 0.13201 0.04864 0.0
C1699 C 0.67103 0.15194 0.01361 0.0
C1700 C 0.64853 0.16275 0.01818 0.0
C1701 C 0.63713 0.15737 0.03785 0.0
C1702 C 0.64826 0.14203 0.05284 0.0
C1703 C 0.63766 0.18068 0.00299 0.0
C1704 C 0.6519 0.20012 0.99593 0.0
C1705 C 0.61325 0.17929 0.99614 0.0
C1706 C 0.59781 0.15818 1.0013 0.0
C1707 C 0.57506 0.16153 0.01104 0.0
C1708 C 0.56048 0.14164 0.01578 0.0
C1709 C 0.56842 0.11831 0.01076 0.0
C1710 C 0.59093 0.11481 1.00095 0.0
C1711 C 0.60556 0.13463 0.99616 0.0
H1712 H 0.5571 0.10294 0.01443 0.0
H1713 H 0.70119 0.28798 0.95311 0.0
H1714 H 0.26715 0.56184 0.90959 0.0
H1715 H 0.29974 0.57262 0.93421 0.0
H1716 H 0.24728 0.59907 0.98015 0.0
H1717 H 0.21455 0.58895 0.95529 0.0
H1718 H 0.28286 0.63007 0.97599 0.0
H1719 H 0.27885 0.54329 0.98611 0.0
H1720 H 0.27925 0.50103 0.9735 0.0
H1721 H 0.3504 0.51076 0.94719 0.0
H1722 H 0.35038 0.55314 0.95951 0.0
H1723 H 0.35218 0.63759 0.07019 0.0
H1724 H 0.32348 0.62336 0.04332 0.0
H1725 H 0.3821 0.6092 0.99913 0.0
H1726 H 0.4112 0.6238 0.026 0.0
H1727 H 0.34627 0.57236 1.00008 0.0
H1728 H 0.35241 0.6572 0.9923 0.0
H1729 H 0.35256 0.70012 0.00272 0.0
H1730 H 0.278 0.69542 0.02166 0.0
H1731 H 0.27764 0.65219 0.01218 0.0
C1732 C 0.2625 0.56979 0.925 0.0
C1733 C 0.23821 0.57453 0.93048 0.0
C1734 C 0.2812 0.57586 0.93912 0.0
C1735 C 0.27601 0.58638 0.95919 0.0
C1736 C 0.25175 0.59096 0.96476 0.0
C1737 C 0.23304 0.58514 0.95054 0.0
C1738 C 0.29583 0.5934 0.97412 0.0
C1739 C 0.29647 0.61734 0.98154 0.0
C1740 C 0.31428 0.57707 0.98058 0.0
C1741 C 0.31452 0.55144 0.97358 0.0
C1742 C 0.29454 0.53644 0.97756 0.0
C1743 C 0.29472 0.51246 0.97049 0.0
C1744 C 0.31484 0.50323 0.95952 0.0
C1745 C 0.33486 0.51793 0.9557 0.0
C1746 C 0.33479 0.54191 0.96276 0.0
C1747 C 0.35912 0.63119 0.05488 0.0
C1748 C 0.38404 0.63194 0.05022 0.0
C1749 C 0.34262 0.62315 0.0395 0.0
C1750 C 0.35064 0.6155 0.01917 0.0
C1751 C 0.37557 0.61512 0.01473 0.0
C1752 C 0.39215 0.62348 0.03007 0.0
C1753 C 0.33273 0.6088 0.00245 0.0
C1754 C 0.33257 0.58504 0.99458 0.0
C1755 C 0.31478 0.62535 0.99543 0.0
C1756 C 0.31511 0.65126 1.00178 0.0
C1757 C 0.33616 0.66516 0.99905 0.0
C1758 C 0.33627 0.68958 0.00476 0.0
C1759 C 0.31533 0.70047 0.01292 0.0
C1760 C 0.29424 0.68694 0.0154 0.0
C1761 C 0.2941 0.66244 0.00994 0.0
H1762 H 0.31542 0.7194 0.01727 0.0
H1763 H 0.31492 0.48468 0.954 0.0
H1764 H 0.93441 0.26694 0.9147 0.0
H1765 H 0.92672 0.29884 0.9409 0.0
H1766 H 0.91573 0.24528 0.99041 0.0
H1767 H 0.92233 0.2131 0.96387 0.0
H1768 H 0.88347 0.27888 0.9946 0.0
H1769 H 0.9701 0.28066 0.98443 0.0
H1770 H 0.00766 0.2832 0.96306 0.0
H1771 H 0.98632 0.35308 0.93965 0.0
H1772 H 0.9485 0.35086 0.96069 0.0
H1773 H 0.88866 0.35873 0.08278 0.0
H1774 H 0.90068 0.32737 0.05721 0.0
H1775 H 0.90281 0.38017 0.0062 0.0
H1776 H 0.89088 0.41179 0.03174 0.0
H1777 H 0.94028 0.34737 0.00307 0.0
H1778 H 0.85414 0.34577 0.0116 0.0
H1779 H 0.81581 0.34408 0.0319 0.0
H1780 H 0.83571 0.27463 0.05727 0.0
H1781 H 0.87437 0.27608 0.03736 0.0
C1782 C 0.93042 0.2619 0.93119 0.0
C1783 C 0.92919 0.23745 0.93724 0.0
C1784 C 0.92617 0.28022 0.94622 0.0
C1785 C 0.92125 0.2746 0.96785 0.0
C1786 C 0.91966 0.25015 0.97388 0.0
C1787 C 0.92347 0.23175 0.95871 0.0
C1788 C 0.91723 0.2942 0.98401 0.0
C1789 C 0.89617 0.29358 0.99669 0.0
C1790 C 0.93335 0.31394 0.98633 0.0
C1791 C 0.95635 0.31549 0.97401 0.0
C1792 C 0.97336 0.29653 0.97465 0.0
C1793 C 0.99471 0.29792 0.9626 0.0
C1794 C 0.99936 0.31827 0.94997 0.0
C1795 C 0.98271 0.33733 0.94944 0.0
C1796 C 0.96132 0.33603 0.96145 0.0
C1797 C 0.89203 0.36382 0.06621 0.0
C1798 C 0.8886 0.38781 0.05931 0.0
C1799 C 0.8988 0.3458 0.05157 0.0
C1800 C 0.90224 0.35133 0.02971 0.0
C1801 C 0.90015 0.37546 0.02297 0.0
C1802 C 0.8933 0.39352 0.03761 0.0
C1803 C 0.90677 0.33175 0.01374 0.0
C1804 C 0.92779 0.33248 1.00106 0.0
C1805 C 0.8906 0.31217 0.01131 0.0
C1806 C 0.86727 0.31115 0.02317 0.0
C1807 C 0.85044 0.33022 0.02164 0.0
C1808 C 0.82864 0.3293 0.03306 0.0
C1809 C 0.82336 0.30929 0.04591 0.0
C1810 C 0.83985 0.29013 0.04733 0.0
C1811 C 0.8617 0.29099 0.03597 0.0
H1812 H 0.80648 0.30861 0.05474 0.0
H1813 H 0.01586 0.31927 0.94061 0.0
H1814 H 0.26885 0.89329 0.90951 0.0
H1815 H 0.24271 0.87702 0.93777 0.0
H1816 H 0.2588 0.93832 0.9781 0.0
H1817 H 0.28483 0.95479 0.94995 0.0
H1818 H 0.24799 0.86494 0.98112 0.0
H1819 H 0.20289 0.95702 1.00068 0.0
H1820 H 0.19789 0.99696 0.9836 0.0
H1821 H 0.20368 0.96445 0.92101 0.0
H1822 H 0.2073 0.92421 0.93762 0.0
H1823 H 0.14766 0.88914 0.06723 0.0
H1824 H 0.17749 0.90496 0.04156 0.0
H1825 H 0.16907 0.84125 0.00224 0.0
H1826 H 0.13963 0.8254 0.0278 0.0
H1827 H 0.17724 0.91649 0.99976 0.0
H1828 H 0.22258 0.82403 0.98105 0.0
H1829 H 0.23183 0.78521 0.9988 0.0
H1830 H 0.22869 0.81965 0.06073 0.0
H1831 H 0.21957 0.85871 0.04336 0.0
C1832 C 0.2671 0.90314 0.9245 0.0
C1833 C 0.27857 0.92553 0.92735 0.0
C1834 C 0.25224 0.89377 0.94066 0.0
C1835 C 0.24849 0.90673 0.95981 0.0
C1836 C 0.26119 0.92825 0.96327 0.0
C1837 C 0.27608 0.93761 0.94717 0.0
C1838 C 0.22984 0.89877 0.97536 0.0
C1839 C 0.23237 0.87605 0.98504 0.0
C1840 C 0.20977 0.91363 0.98076 0.0
C1841 C 0.2058 0.93758 0.97047 0.0
C1842 C 0.20276 0.95834 0.98327 0.0
C1843 C 0.20007 0.98104 0.97365 0.0
C1844 C 0.20048 0.98324 0.95123 0.0
C1845 C 0.20326 0.96271 0.93837 0.0
C1846 C 0.20552 0.93994 0.94788 0.0
C1847 C 0.15196 0.87873 0.05295 0.0
C1848 C 0.14162 0.85591 0.04963 0.0
C1849 C 0.16905 0.88771 0.03835 0.0
C1850 C 0.17596 0.874 0.02026 0.0
C1851 C 0.16456 0.85185 0.01638 0.0
C1852 C 0.14766 0.84285 0.03096 0.0
C1853 C 0.19531 0.88255 0.00556 0.0
C1854 C 0.19288 0.90537 0.99594 0.0
C1855 C 0.21552 0.86782 1.00024 0.0
C1856 C 0.22014 0.84425 0.0109 0.0
C1857 C 0.22381 0.82331 0.99846 0.0
C1858 C 0.22907 0.80128 0.00845 0.0
C1859 C 0.23089 0.79998 0.03087 0.0
C1860 C 0.22729 0.82069 0.04336 0.0
C1861 C 0.22195 0.84276 0.03346 0.0
H1862 H 0.23501 0.78291 0.03857 0.0
H1863 H 0.19859 1.00084 0.9438 0.0
H1864 H 0.11435 0.71604 0.5795 0.0
H1865 H 0.13278 0.74338 0.55319 0.0
H1866 H 0.06314 0.77653 0.54194 0.0
H1867 H 0.04486 0.74965 0.56818 0.0
H1868 H 0.08561 0.76661 0.50466 0.0
H1869 H 0.10545 0.80462 0.57199 0.0
H1870 H 0.12303 0.80774 0.60837 0.0
H1871 H 0.19365 0.79232 0.5828 0.0
H1872 H 0.17642 0.78877 0.54624 0.0
H1873 H 0.12184 0.87022 0.44478 0.0
H1874 H 0.10456 0.84421 0.47288 0.0
H1875 H 0.17536 0.81426 0.48555 0.0
H1876 H 0.19266 0.84025 0.45808 0.0
H1877 H 0.15282 0.82227 0.52223 0.0
H1878 H 0.13332 0.78374 0.45511 0.0
H1879 H 0.11613 0.78119 0.41853 0.0
H1880 H 0.0454 0.79713 0.44364 0.0
H1881 H 0.06225 0.80009 0.48036 0.0
C1882 C 0.10309 0.72936 0.57172 0.0
C1883 C 0.07821 0.73072 0.57621 0.0
C1884 C 0.1136 0.74494 0.55657 0.0
C1885 C 0.09935 0.76215 0.54568 0.0
C1886 C 0.07451 0.76339 0.55007 0.0
C1887 C 0.0641 0.74795 0.56516 0.0
C1888 C 0.10995 0.77878 0.52945 0.0
C1889 C 0.10015 0.77896 0.50857 0.0
C1890 C 0.12925 0.79453 0.5344 0.0
C1891 C 0.1396 0.79617 0.55641 0.0
C1892 C 0.12468 0.80162 0.57414 0.0
C1893 C 0.13459 0.80353 0.59478 0.0
C1894 C 0.15942 0.80023 0.59787 0.0
C1895 C 0.17441 0.79488 0.58035 0.0
C1896 C 0.16458 0.79292 0.55967 0.0
C1897 C 0.13368 0.85815 0.45364 0.0
C1898 C 0.15857 0.85721 0.44906 0.0
C1899 C 0.1238 0.84323 0.46963 0.0
C1900 C 0.13864 0.82703 0.48118 0.0
C1901 C 0.16353 0.82655 0.4769 0.0
C1902 C 0.17337 0.8414 0.46105 0.0
C1903 C 0.12841 0.81018 0.49745 0.0
C1904 C 0.13831 0.8099 0.51831 0.0
C1905 C 0.10927 0.79423 0.49247 0.0
C1906 C 0.09909 0.79239 0.47044 0.0
C1907 C 0.11413 0.78688 0.4528 0.0
C1908 C 0.10445 0.78533 0.43205 0.0
C1909 C 0.0797 0.78906 0.42876 0.0
C1910 C 0.06457 0.79429 0.44622 0.0
C1911 C 0.07418 0.79589 0.467 0.0
H1912 H 0.07223 0.78785 0.41268 0.0
H1913 H 0.16705 0.80196 0.61384 0.0
H1914 H 0.74855 0.06488 0.58769 0.0
H1915 H 0.71779 0.07338 0.56069 0.0
H1916 H 0.77351 0.08941 0.51412 0.0
H1917 H 0.80454 0.08207 0.54162 0.0
H1918 H 0.73975 0.12074 0.50999 0.0
H1919 H 0.73881 0.03464 0.51403 0.0
H1920 H 0.73695 0.99476 0.53162 0.0
H1921 H 0.66615 0.01148 0.55616 0.0
H1922 H 0.6677 0.0516 0.53895 0.0
H1923 H 0.65573 0.12324 0.4238 0.0
H1924 H 0.68808 0.10752 0.44675 0.0
H1925 H 0.63906 0.10586 0.50079 0.0
H1926 H 0.60654 0.12171 0.47798 0.0
H1927 H 0.67073 0.0652 0.49841 0.0
H1928 H 0.67403 0.15269 0.49556 0.0
H1929 H 0.67615 0.19172 0.47648 0.0
H1930 H 0.74368 0.17052 0.44771 0.0
H1931 H 0.74179 0.13122 0.46639 0.0
C1932 C 0.75433 0.07006 0.57167 0.0
C1933 C 0.77903 0.07257 0.56674 0.0
C1934 C 0.73666 0.07478 0.55615 0.0
C1935 C 0.74322 0.08146 0.53511 0.0
C1936 C 0.76792 0.08412 0.53017 0.0
C1937 C 0.78566 0.07986 0.54587 0.0
C1938 C 0.72421 0.0864 0.51862 0.0
C1939 C 0.72496 0.10832 0.50721 0.0
C1940 C 0.70456 0.07045 0.5151 0.0
C1941 C 0.70346 0.04622 0.52531 0.0
C1942 C 0.7229 0.02987 0.52328 0.0
C1943 C 0.72189 0.00721 0.53317 0.0
C1944 C 0.70147 1.00061 0.54504 0.0
C1945 C 0.68197 0.01663 0.54697 0.0
C1946 C 0.68289 0.03932 0.53712 0.0
C1947 C 0.65164 0.11911 0.44046 0.0
C1948 C 0.62856 0.12392 0.4491 0.0
C1949 C 0.67022 0.11022 0.45357 0.0
C1950 C 0.66604 0.10585 0.47552 0.0
C1951 C 0.64266 0.10919 0.4839 0.0
C1952 C 0.62411 0.11828 0.47084 0.0
C1953 C 0.68637 0.09944 0.49009 0.0
C1954 C 0.68577 0.07736 0.50111 0.0
C1955 C 0.70627 0.11508 0.49308 0.0
C1956 C 0.70764 0.13891 0.4822 0.0
C1957 C 0.68925 0.15629 0.48506 0.0
C1958 C 0.69042 0.17847 0.47433 0.0
C1959 C 0.70999 0.18356 0.46084 0.0
C1960 C 0.7285 0.16653 0.45814 0.0
C1961 C 0.72741 0.14431 0.4688 0.0
H1962 H 0.71086 0.2007 0.45251 0.0
H1963 H 0.70073 0.98307 0.5527 0.0
H1964 H 0.40192 0.64601 0.43024 0.0
H1965 H 0.42102 0.67285 0.45671 0.0
H1966 H 0.35371 0.67698 0.49194 0.0
H1967 H 0.33453 0.65124 0.46524 0.0
H1968 H 0.36935 0.71924 0.48768 0.0
H1969 H 0.40557 0.64445 0.50972 0.0
H1970 H 0.42892 0.60664 0.50567 0.0
H1971 H 0.49177 0.64708 0.48738 0.0
H1972 H 0.46869 0.68513 0.49102 0.0
H1973 H 0.44389 0.74905 0.59016 0.0
H1974 H 0.43219 0.71994 0.56249 0.0
H1975 H 0.42318 0.77804 0.51679 0.0
H1976 H 0.4337 0.80729 0.54469 0.0
H1977 H 0.44705 0.70486 0.52559 0.0
H1978 H 0.37639 0.76652 0.48294 0.0
H1979 H 0.34974 0.80115 0.49139 0.0
H1980 H 0.35003 0.78131 0.55828 0.0
H1981 H 0.37611 0.74628 0.55016 0.0
C1982 C 0.39139 0.65245 0.44381 0.0
C1983 C 0.36674 0.64668 0.44565 0.0
C1984 C 0.40229 0.66773 0.45896 0.0
C1985 C 0.38882 0.67699 0.47639 0.0
C1986 C 0.36446 0.67034 0.47857 0.0
C1987 C 0.35352 0.65553 0.46332 0.0
C1988 C 0.39936 0.69464 0.49182 0.0
C1989 C 0.38638 0.71604 0.49591 0.0
C1990 C 0.42146 0.69049 0.5028 0.0
C1991 C 0.43531 0.66763 0.50039 0.0
C1992 C 0.4243 0.64527 0.50463 0.0
C1993 C 0.4375 0.6238 0.50245 0.0
C1994 C 0.46179 0.62445 0.4962 0.0
C1995 C 0.47294 0.64659 0.49216 0.0
C1996 C 0.45981 0.66812 0.49429 0.0
C1997 C 0.43956 0.7556 0.57417 0.0
C1998 C 0.4394 0.78047 0.56966 0.0
C1999 C 0.43297 0.73892 0.55832 0.0
C2000 C 0.42637 0.74677 0.53761 0.0
C2001 C 0.4276 0.77154 0.53277 0.0
C2002 C 0.43369 0.78826 0.54872 0.0
C2003 C 0.41686 0.72924 0.52156 0.0
C2004 C 0.43009 0.70802 0.51724 0.0
C2005 C 0.39449 0.73307 0.51094 0.0
C2006 C 0.37847 0.75394 0.51596 0.0
C2007 C 0.37066 0.76949 0.49943 0.0
C2008 C 0.3556 0.78916 0.50415 0.0
C2009 C 0.34815 0.79341 0.52533 0.0
C2010 C 0.35573 0.77799 0.54185 0.0
C2011 C 0.37066 0.75822 0.5372 0.0
H2012 H 0.33655 0.80869 0.52893 0.0
H2013 H 0.47199 0.60781 0.49455 0.0
H2014 H 0.7395 0.45004 0.56015 0.0
H2015 H 0.77082 0.43656 0.53481 0.0
H2016 H 0.7812 0.37156 0.57195 0.0
H2017 H 0.7499 0.38467 0.59721 0.0
H2018 H 0.81938 0.42424 0.53892 0.0
H2019 H 0.78867 0.32439 0.53525 0.0
H2020 H 0.75167 0.3003 0.54031 0.0
H2021 H 0.70785 0.36222 0.52509 0.0
H2022 H 0.74458 0.3865 0.51933 0.0
H2023 H 0.90551 0.35327 0.47794 0.0
H2024 H 0.87886 0.36855 0.50665 0.0
H2025 H 0.81799 0.36544 0.46329 0.0
H2026 H 0.84408 0.34996 0.43495 0.0
H2027 H 0.80581 0.34697 0.5004 0.0
H2028 H 0.84629 0.41914 0.47642 0.0
H2029 H 0.88152 0.44496 0.46878 0.0
H2030 H 0.90263 0.44154 0.53528 0.0
H2031 H 0.86769 0.41542 0.54325 0.0
C2032 C 0.74852 0.43292 0.56299 0.0
C2033 C 0.74204 0.41837 0.58063 0.0
C2034 C 0.76652 0.42532 0.54856 0.0
C2035 C 0.77818 0.40295 0.5514 0.0
C2036 C 0.77224 0.38875 0.56934 0.0
C2037 C 0.75435 0.39634 0.58378 0.0
C2038 C 0.79562 0.39384 0.53504 0.0
C2039 C 0.8165 0.4073 0.53054 0.0
C2040 C 0.7917 0.37186 0.52395 0.0
C2041 C 0.76943 0.35735 0.52714 0.0
C2042 C 0.77115 0.33284 0.53287 0.0
C2043 C 0.75022 0.31913 0.53581 0.0
C2044 C 0.72742 0.32975 0.53312 0.0
C2045 C 0.72552 0.35405 0.52728 0.0
C2046 C 0.7464 0.36779 0.52415 0.0
C2047 C 0.88645 0.3559 0.47456 0.0
C2048 C 0.87698 0.35034 0.45412 0.0
C2049 C 0.87125 0.3647 0.49096 0.0
C2050 C 0.84638 0.36825 0.48713 0.0
C2051 C 0.83704 0.36276 0.46672 0.0
C2052 C 0.85209 0.35394 0.45046 0.0
C2053 C 0.82971 0.37731 0.50421 0.0
C2054 C 0.80891 0.36379 0.50891 0.0
C2055 C 0.83352 0.39942 0.51516 0.0
C2056 C 0.85453 0.4151 0.51038 0.0
C2057 C 0.85856 0.42372 0.48937 0.0
C2058 C 0.87846 0.43844 0.48499 0.0
C2059 C 0.89435 0.44482 0.50152 0.0
C2060 C 0.89034 0.43654 0.52248 0.0
C2061 C 0.87048 0.42179 0.52694 0.0
H2062 H 0.90974 0.45623 0.4981 0.0
H2063 H 0.71125 0.31913 0.53552 0.0
H2064 H 0.32994 0.84708 0.93683 0.0
H2065 H 0.34477 0.82029 0.96496 0.0
H2066 H 0.39926 0.87247 0.98209 0.0
H2067 H 0.38512 0.89903 0.95308 0.0
H2068 H 0.41914 0.83075 0.98169 0.0
H2069 H 0.34738 0.86077 0.01416 0.0
H2070 H 0.30419 0.87174 0.01692 0.0
H2071 H 0.2845 0.79733 0.00922 0.0
H2072 H 0.32755 0.78592 0.00604 0.0
H2073 H 0.44984 0.76432 0.0768 0.0
H2074 H 0.43543 0.79569 0.05222 0.0
H2075 H 0.38584 0.7451 0.02353 0.0
H2076 H 0.39996 0.71363 0.04818 0.0
H2077 H 0.3642 0.78877 0.03248 0.0
H2078 H 0.43805 0.76091 0.9975 0.0
H2079 H 0.48178 0.75173 0.99676 0.0
H2080 H 0.49771 0.82539 0.01284 0.0
H2081 H 0.45404 0.83496 0.01381 0.0
C2082 C 0.34493 0.85304 0.9467 0.0
C2083 C 0.35631 0.87526 0.94273 0.0
C2084 C 0.35334 0.83769 0.96292 0.0
C2085 C 0.37293 0.84444 0.97599 0.0
C2086 C 0.38411 0.86682 0.97228 0.0
C2087 C 0.37595 0.88205 0.95575 0.0
C2088 C 0.38229 0.82759 0.99282 0.0
C2089 C 0.40712 0.82195 0.99303 0.0
C2090 C 0.3667 0.81581 0.00758 0.0
C2091 C 0.34073 0.82252 0.00968 0.0
C2092 C 0.33385 0.84675 0.0129 0.0
C2093 C 0.30939 0.85305 0.01456 0.0
C2094 C 0.29163 0.83525 0.0132 0.0
C2095 C 0.29828 0.8111 0.01024 0.0
C2096 C 0.32272 0.8047 0.00853 0.0
C2097 C 0.43597 0.75977 0.06518 0.0
C2098 C 0.42615 0.73637 0.06442 0.0
C2099 C 0.42777 0.77776 0.05111 0.0
C2100 C 0.40966 0.77271 0.03593 0.0
C2101 C 0.39983 0.7494 0.03512 0.0
C2102 C 0.40804 0.73138 0.04915 0.0
C2103 C 0.40081 0.79175 0.02097 0.0
C2104 C 0.37611 0.79779 0.02118 0.0
C2105 C 0.41656 0.80423 0.00691 0.0
C2106 C 0.4428 0.7986 0.00587 0.0
C2107 C 0.45089 0.77512 1.00095 0.0
C2108 C 0.47565 0.76986 1.00047 0.0
C2109 C 0.49251 0.78796 0.00478 0.0
C2110 C 0.48463 0.8114 0.00949 0.0
C2111 C 0.45988 0.81676 0.00997 0.0
H2112 H 0.51167 0.78384 0.00441 0.0
H2113 H 0.27275 0.84021 0.0145 0.0
H2114 H 0.63354 0.39362 0.94845 0.0
H2115 H 0.66058 0.41398 0.97395 0.0
H2116 H 0.69933 0.347 0.98392 0.0
H2117 H 0.67208 0.3266 0.95935 0.0
H2118 H 0.69319 0.36745 0.02047 0.0
H2119 H 0.72066 0.39437 0.95078 0.0
H2120 H 0.71655 0.41348 0.91507 0.0
H2121 H 0.6959 0.48041 0.94502 0.0
H2122 H 0.69959 0.46159 0.98092 0.0
H2123 H 0.80756 0.40557 0.05834 0.0
H2124 H 0.77681 0.39281 0.03241 0.0
H2125 H 0.73318 0.45502 0.04846 0.0
H2126 H 0.76358 0.46767 0.07488 0.0
H2127 H 0.7393 0.44077 1.00034 0.0
H2128 H 0.71419 0.41234 0.07056 0.0
H2129 H 0.72045 0.39204 0.10549 0.0
H2130 H 0.73931 0.32621 0.07285 0.0
H2131 H 0.73355 0.34623 0.03769 0.0
C2132 C 0.64778 0.38329 0.95619 0.0
C2133 C 0.65069 0.35853 0.95187 0.0
C2134 C 0.66331 0.39495 0.97065 0.0
C2135 C 0.68221 0.38209 0.98069 0.0
C2136 C 0.68489 0.35734 0.97646 0.0
C2137 C 0.66927 0.34568 0.96232 0.0
C2138 C 0.69934 0.39405 0.99569 0.0
C2139 C 0.70333 0.38339 0.01592 0.0
C2140 C 0.71232 0.41516 0.99005 0.0
C2141 C 0.71012 0.4265 0.96851 0.0
C2142 C 0.71506 0.41311 0.94974 0.0
C2143 C 0.71284 0.4239 0.92947 0.0
C2144 C 0.70589 0.44812 0.92778 0.0
C2145 C 0.70123 0.46163 0.94635 0.0
C2146 C 0.70339 0.45092 0.96666 0.0
C2147 C 0.7916 0.41674 0.05614 0.0
C2148 C 0.78792 0.43757 0.06869 0.0
C2149 C 0.77407 0.40941 0.04136 0.0
C2150 C 0.7528 0.423 0.03863 0.0
C2151 C 0.74955 0.44439 0.05036 0.0
C2152 C 0.76686 0.4515 0.06547 0.0
C2153 C 0.73328 0.41378 0.02467 0.0
C2154 C 0.72889 0.42497 0.00479 0.0
C2155 C 0.72014 0.39295 0.03043 0.0
C2156 C 0.72367 0.38085 0.05151 0.0
C2157 C 0.71993 0.39361 0.07083 0.0
C2158 C 0.72332 0.38214 0.09066 0.0
C2159 C 0.73026 0.35787 0.09136 0.0
C2160 C 0.7339 0.34501 0.07226 0.0
C2161 C 0.73057 0.3564 0.05237 0.0
H2162 H 0.73268 0.34903 0.10671 0.0
H2163 H 0.70419 0.45645 0.91207 0.0
H2164 H 0.17918 0.63723 0.9721 0.0
H2165 H 0.15955 0.6644 0.99766 0.0
H2166 H 0.09815 0.67102 0.95505 0.0
H2167 H 0.1175 0.64288 0.92971 0.0
H2168 H 0.14972 0.70878 0.99432 0.0
H2169 H 0.04755 0.6872 0.98335 0.0
H2170 H 0.02147 0.65225 0.97545 0.0
H2171 H 0.07593 0.60411 1.00012 0.0
H2172 H 0.10219 0.63877 0.00844 0.0
H2173 H 0.08554 0.80398 0.04203 0.0
H2174 H 0.09718 0.77322 0.01571 0.0
H2175 H 0.07588 0.71724 0.06011 0.0
H2176 H 0.06347 0.74794 0.08624 0.0
H2177 H 0.06511 0.70368 0.02066 0.0
H2178 H 0.13515 0.73457 0.05598 0.0
H2179 H 0.1612 0.76743 0.06921 0.0
H2180 H 0.17409 0.79055 0.0042 0.0
H2181 H 0.14783 0.75798 0.99057 0.0
C2182 C 0.16132 0.64418 0.96831 0.0
C2183 C 0.14986 0.63794 0.9489 0.0
C2184 C 0.15015 0.65984 0.9829 0.0
C2185 C 0.12735 0.66991 0.97836 0.0
C2186 C 0.11558 0.66326 0.95915 0.0
C2187 C 0.12664 0.64719 0.94465 0.0
C2188 C 0.11668 0.68815 0.99334 0.0
C2189 C 0.1312 0.70757 1.00001 0.0
C2190 C 0.09263 0.68656 1.00117 0.0
C2191 C 0.07694 0.66559 0.99628 0.0
C2192 C 0.05393 0.66916 0.98713 0.0
C2193 C 0.03912 0.6494 0.98258 0.0
C2194 C 0.04707 0.62597 0.98721 0.0
C2195 C 0.06983 0.62226 0.99646 0.0
C2196 C 0.0847 0.64195 1.00106 0.0
C2197 C 0.08311 0.78513 0.04611 0.0
C2198 C 0.07388 0.7784 0.06633 0.0
C2199 C 0.08979 0.76754 0.03105 0.0
C2200 C 0.08785 0.74287 0.03607 0.0
C2201 C 0.07758 0.73613 0.05586 0.0
C2202 C 0.07059 0.75373 0.07082 0.0
C2203 C 0.09812 0.72417 0.02139 0.0
C2204 C 0.08357 0.7048 0.0148 0.0
C2205 C 0.12245 0.72521 0.01429 0.0
C2206 C 0.13936 0.74397 0.02227 0.0
C2207 C 0.14355 0.74665 0.0445 0.0
C2208 C 0.15833 0.76522 0.05207 0.0
C2209 C 0.16924 0.78107 0.03755 0.0
C2210 C 0.16564 0.77822 0.01541 0.0
C2211 C 0.15081 0.7597 0.00775 0.0
H2212 H 0.18033 0.79566 0.04349 0.0
H2213 H 0.03558 0.6107 0.98367 0.0
H2214 H 0.7705 0.10391 0.1006 0.0
H2215 H 0.80449 0.11099 0.07632 0.0
H2216 H 0.77534 0.05945 0.0313 0.0
H2217 H 0.74134 0.05192 0.05573 0.0
H2218 H 0.82543 0.05636 0.03451 0.0
H2219 H 0.76493 0.11877 0.02404 0.0
H2220 H 0.73739 0.15112 0.03646 0.0
H2221 H 0.79785 0.19124 0.0606 0.0
H2222 H 0.82576 0.15903 0.04855 0.0
H2223 H 0.87717 0.10688 0.93677 0.0
H2224 H 0.85066 0.09086 0.96507 0.0
H2225 H 0.88806 0.13353 0.01248 0.0
H2226 H 0.91509 0.14902 0.98452 0.0
H2227 H 0.83493 0.14058 0.00862 0.0
H2228 H 0.89528 0.08184 0.02102 0.0
H2229 H 0.92509 0.04996 0.01333 0.0
H2230 H 0.8686 1.00374 0.99017 0.0
H2231 H 0.83835 0.0357 0.99744 0.0
C2232 C 0.77136 0.09391 0.08562 0.0
C2233 C 0.75301 0.07759 0.07997 0.0
C2234 C 0.79082 0.09801 0.07174 0.0
C2235 C 0.79221 0.0861 0.05181 0.0
C2236 C 0.77455 0.06894 0.04655 0.0
C2237 C 0.75509 0.06473 0.0605 0.0
C2238 C 0.81128 0.09263 0.03601 0.0
C2239 C 0.82733 0.0747 0.02864 0.0
C2240 C 0.81417 0.11673 0.0288 0.0
C2241 C 0.79742 0.13639 0.03554 0.0
C2242 C 0.77235 0.13444 0.03208 0.0
C2243 C 0.75667 0.15275 0.03906 0.0
C2244 C 0.76585 0.17317 0.04937 0.0
C2245 C 0.79076 0.1754 0.05263 0.0
C2246 C 0.80652 0.15714 0.0457 0.0
C2247 C 0.88011 0.1124 0.95331 0.0
C2248 C 0.8982 0.12924 0.9584 0.0
C2249 C 0.86498 0.10322 0.96944 0.0
C2250 C 0.8674 0.11109 0.99082 0.0
C2251 C 0.88596 0.12723 0.99607 0.0
C2252 C 0.90144 0.13597 0.98006 0.0
C2253 C 0.84911 0.10432 0.00722 0.0
C2254 C 0.83306 0.12223 0.01453 0.0
C2255 C 0.84654 0.08035 0.01467 0.0
C2256 C 0.8646 0.06135 0.0094 0.0
C2257 C 0.88923 0.06505 0.01393 0.0
C2258 C 0.90622 0.04689 0.00975 0.0
C2259 C 0.89881 0.0248 1.00118 0.0
C2260 C 0.87434 0.02088 0.99675 0.0
C2261 C 0.85725 0.03903 1.00089 0.0
H2262 H 0.91201 0.01071 0.99806 0.0
H2263 H 0.75367 0.18729 0.0548 0.0
H2264 H 0.89207 0.13644 0.56125 0.0
H2265 H 0.90842 0.16477 0.53456 0.0
H2266 H 0.83588 0.18679 0.51765 0.0
H2267 H 0.81954 0.15846 0.54374 0.0
H2268 H 0.86197 0.18142 0.48245 0.0
H2269 H 0.87185 0.2216 0.55054 0.0
H2270 H 0.88588 0.22578 0.58805 0.0
H2271 H 0.95962 0.21805 0.56718 0.0
H2272 H 0.94599 0.2135 0.52955 0.0
H2273 H 0.89211 0.28492 0.42137 0.0
H2274 H 0.87515 0.2592 0.44961 0.0
H2275 H 0.94735 0.24053 0.47053 0.0
H2276 H 0.96419 0.26736 0.44333 0.0
H2277 H 0.92078 0.24438 0.50392 0.0
H2278 H 0.91009 0.20329 0.43535 0.0
H2279 H 0.89532 0.20081 0.39791 0.0
H2280 H 0.8223 0.21127 0.41986 0.0
H2281 H 0.83668 0.21404 0.45741 0.0
C2282 C 0.87965 0.14726 0.55177 0.0
C2283 C 0.85452 0.14524 0.55471 0.0
C2284 C 0.889 0.16352 0.53659 0.0
C2285 C 0.87337 0.17814 0.52424 0.0
C2286 C 0.84831 0.17575 0.52694 0.0
C2287 C 0.839 0.15954 0.54197 0.0
C2288 C 0.88288 0.19612 0.5086 0.0
C2289 C 0.8747 0.1953 0.4872 0.0
C2290 C 0.89964 0.21413 0.51468 0.0
C2291 C 0.90788 0.21696 0.53727 0.0
C2292 C 0.89104 0.22061 0.55397 0.0
C2293 C 0.89893 0.22308 0.57525 0.0
C2294 C 0.92362 0.22211 0.58001 0.0
C2295 C 0.9405 0.21875 0.56348 0.0
C2296 C 0.9327 0.21625 0.54217 0.0
C2297 C 0.9043 0.27551 0.43214 0.0
C2298 C 0.92945 0.27805 0.43004 0.0
C2299 C 0.89462 0.26064 0.4482 0.0
C2300 C 0.90995 0.24731 0.46191 0.0
C2301 C 0.93508 0.25048 0.46018 0.0
C2302 C 0.9447 0.26582 0.44455 0.0
C2303 C 0.90012 0.22955 0.47765 0.0
C2304 C 0.90817 0.23043 0.49911 0.0
C2305 C 0.88319 0.21161 0.47163 0.0
C2306 C 0.87448 0.20903 0.44915 0.0
C2307 C 0.89089 0.20507 0.43217 0.0
C2308 C 0.88259 0.20364 0.41094 0.0
C2309 C 0.85789 0.20594 0.4065 0.0
C2310 C 0.84142 0.20951 0.42331 0.0
C2311 C 0.84963 0.21097 0.44458 0.0
H2312 H 0.85151 0.20494 0.39004 0.0
H2313 H 0.92969 0.22402 0.59649 0.0
H2314 H 0.22388 0.89642 0.44641 0.0
H2315 H 0.25555 0.88973 0.47287 0.0
H2316 H 0.2806 0.96281 0.4637 0.0
H2317 H 0.2498 0.96889 0.43585 0.0
H2318 H 0.31728 0.93711 0.4664 0.0
H2319 H 0.24782 0.94128 0.51112 0.0
H2320 H 0.20658 0.93262 0.52409 0.0
H2321 H 0.22594 0.8582 0.53371 0.0
H2322 H 0.26714 0.86627 0.52042 0.0
H2323 H 0.38401 0.9044 0.56943 0.0
H2324 H 0.35669 0.92634 0.54485 0.0
H2325 H 0.34422 0.8606 0.50945 0.0
H2326 H 0.37176 0.8389 0.53325 0.0
H2327 H 0.30196 0.89179 0.53391 0.0
H2328 H 0.37053 0.89002 0.48259 0.0
H2329 H 0.4116 0.90155 0.47112 0.0
H2330 H 0.39277 0.97656 0.47731 0.0
H2331 H 0.35169 0.96543 0.4893 0.0
C2332 C 0.23596 0.91113 0.45015 0.0
C2333 C 0.23424 0.93319 0.43913 0.0
C2334 C 0.25402 0.90739 0.46549 0.0
C2335 C 0.2702 0.92597 0.47086 0.0
C2336 C 0.26832 0.94819 0.46001 0.0
C2337 C 0.25065 0.95168 0.44414 0.0
C2338 C 0.28981 0.92154 0.48687 0.0
C2339 C 0.31374 0.92766 0.48137 0.0
C2340 C 0.28544 0.90936 0.5066 0.0
C2341 C 0.26059 0.9044 0.51463 0.0
C2342 C 0.24325 0.92303 0.51585 0.0
C2343 C 0.21986 0.91822 0.52327 0.0
C2344 C 0.21363 0.89487 0.52967 0.0
C2345 C 0.23078 0.87628 0.52872 0.0
C2346 C 0.25417 0.88097 0.52126 0.0
C2347 C 0.37589 0.89481 0.55608 0.0
C2348 C 0.3797 0.86984 0.55346 0.0
C2349 C 0.36034 0.90735 0.54209 0.0
C2350 C 0.34857 0.89502 0.52539 0.0
C2351 C 0.35326 0.8704 0.52221 0.0
C2352 C 0.36886 0.85801 0.53594 0.0
C2353 C 0.329 0.90651 0.51285 0.0
C2354 C 0.30515 0.90177 0.51913 0.0
C2355 C 0.3334 0.92032 0.49416 0.0
C2356 C 0.35821 0.92688 0.48731 0.0
C2357 C 0.37527 0.90895 0.48191 0.0
C2358 C 0.39852 0.91542 0.47521 0.0
C2359 C 0.40484 0.93976 0.47363 0.0
C2360 C 0.3879 0.95771 0.47867 0.0
C2361 C 0.36465 0.95133 0.48546 0.0
H2362 H 0.42284 0.9447 0.46842 0.0
H2363 H 0.19551 0.89119 0.53541 0.0
H2364 H 0.61828 0.39423 0.54737 0.0
H2365 H 0.60495 0.36643 0.51916 0.0
H2366 H 0.66192 0.31658 0.5368 0.0
H2367 H 0.67629 0.34508 0.5638 0.0
H2368 H 0.65665 0.31202 0.49742 0.0
H2369 H 0.59896 0.31274 0.55494 0.0
H2370 H 0.56992 0.33043 0.58077 0.0
H2371 H 0.5261 0.35622 0.52842 0.0
H2372 H 0.55505 0.33892 0.50227 0.0
H2373 H 0.60029 0.20538 0.45744 0.0
H2374 H 0.61501 0.23619 0.4824 0.0
H2375 H 0.57009 0.28966 0.45129 0.0
H2376 H 0.55517 0.25898 0.42629 0.0
H2377 H 0.56912 0.29254 0.49628 0.0
H2378 H 0.62853 0.28347 0.43933 0.0
H2379 H 0.65708 0.25945 0.41751 0.0
H2380 H 0.69881 0.2432 0.47402 0.0
H2381 H 0.66995 0.26628 0.49638 0.0
C2382 C 0.62818 0.37752 0.54493 0.0
C2383 C 0.64821 0.37179 0.5579 0.0
C2384 C 0.6204 0.36147 0.52894 0.0
C2385 C 0.63185 0.33888 0.52621 0.0
C2386 C 0.65258 0.33372 0.53854 0.0
C2387 C 0.6608 0.35007 0.55405 0.0
C2388 C 0.62175 0.32023 0.51128 0.0
C2389 C 0.63753 0.30766 0.49739 0.0
C2390 C 0.59676 0.31437 0.511 0.0
C2391 C 0.5793 0.32477 0.52666 0.0
C2392 C 0.58321 0.32232 0.54895 0.0
C2393 C 0.56676 0.33226 0.56364 0.0
C2394 C 0.54622 0.34451 0.55624 0.0
C2395 C 0.54205 0.34678 0.53413 0.0
C2396 C 0.55846 0.33689 0.51936 0.0
C2397 C 0.59332 0.22363 0.45603 0.0
C2398 C 0.5766 0.22972 0.43979 0.0
C2399 C 0.60187 0.24125 0.47025 0.0
C2400 C 0.5939 0.2653 0.46852 0.0
C2401 C 0.57656 0.27124 0.45286 0.0
C2402 C 0.56808 0.25367 0.43856 0.0
C2403 C 0.60402 0.28442 0.48268 0.0
C2404 C 0.58821 0.29705 0.49635 0.0
C2405 C 0.62908 0.28967 0.48327 0.0
C2406 C 0.64686 0.27645 0.46961 0.0
C2407 C 0.6436 0.27455 0.44718 0.0
C2408 C 0.65981 0.261 0.43472 0.0
C2409 C 0.67972 0.24978 0.44439 0.0
C2410 C 0.68338 0.25192 0.46656 0.0
C2411 C 0.66704 0.26516 0.47915 0.0
H2412 H 0.69241 0.23955 0.43471 0.0
H2413 H 0.5335 0.35219 0.56764 0.0
H2414 H 0.14612 0.62255 0.5672 0.0
H2415 H 0.1746 0.60503 0.54138 0.0
H2416 H 0.15777 0.66194 0.49618 0.0
H2417 H 0.12819 0.6787 0.5216 0.0
H2418 H 0.1658 0.62395 0.47446 0.0
H2419 H 0.2091 0.66314 0.53046 0.0
H2420 H 0.22088 0.67286 0.56778 0.0
H2421 H 0.24461 0.5997 0.57742 0.0
H2422 H 0.23266 0.58945 0.54023 0.0
H2423 H 0.30395 0.6084 0.44806 0.0
H2424 H 0.27187 0.62218 0.47199 0.0
H2425 H 0.22372 0.56893 0.44509 0.0
H2426 H 0.25526 0.55647 0.4198 0.0
H2427 H 0.2481 0.60636 0.50241 0.0
H2428 H 0.16593 0.58624 0.44702 0.0
H2429 H 0.1567 0.58395 0.40818 0.0
H2430 H 0.21502 0.63258 0.39445 0.0
H2431 H 0.22441 0.63538 0.43321 0.0
C2432 C 0.14824 0.63109 0.55161 0.0
C2433 C 0.13508 0.65205 0.54643 0.0
C2434 C 0.16466 0.62117 0.5369 0.0
C2435 C 0.16893 0.63251 0.51701 0.0
C2436 C 0.15495 0.65287 0.51143 0.0
C2437 C 0.13803 0.66245 0.52596 0.0
C2438 C 0.1887 0.6238 0.50254 0.0
C2439 C 0.18378 0.62008 0.48059 0.0
C2440 C 0.21245 0.6194 0.51028 0.0
C2441 C 0.21976 0.62547 0.53264 0.0
C2442 C 0.21668 0.64909 0.54059 0.0
C2443 C 0.22341 0.6547 0.56171 0.0
C2444 C 0.23343 0.63689 0.57498 0.0
C2445 C 0.23681 0.61346 0.56713 0.0
C2446 C 0.23008 0.60774 0.54603 0.0
C2447 C 0.28648 0.59979 0.44701 0.0
C2448 C 0.28205 0.58178 0.43157 0.0
C2449 C 0.26813 0.60754 0.46092 0.0
C2450 C 0.24503 0.59706 0.46011 0.0
C2451 C 0.24104 0.57797 0.4456 0.0
C2452 C 0.25921 0.57067 0.43126 0.0
C2453 C 0.22523 0.60634 0.47429 0.0
C2454 C 0.23012 0.61015 0.49623 0.0
C2455 C 0.20183 0.61199 0.46629 0.0
C2456 C 0.196 0.61081 0.44299 0.0
C2457 C 0.1767 0.59653 0.43571 0.0
C2458 C 0.17146 0.59512 0.41371 0.0
C2459 C 0.18531 0.60804 0.39885 0.0
C2460 C 0.20436 0.62251 0.40597 0.0
C2461 C 0.20965 0.624 0.42795 0.0
H2462 H 0.18125 0.60689 0.38183 0.0
H2463 H 0.23862 0.64127 0.59132 0.0
H2464 H 0.56151 0.17493 0.31405 0.0
H2465 H 0.57602 0.1586 0.2798 0.0
H2466 H 0.61456 0.10237 0.3137 0.0
H2467 H 0.60053 0.11888 0.34804 0.0
H2468 H 0.64285 0.12099 0.28416 0.0
H2469 H 0.56183 0.09111 0.28433 0.0
H2470 H 0.51738 0.09348 0.28726 0.0
H2471 H 0.51486 0.14172 0.23314 0.0
H2472 H 0.55935 0.1399 0.23006 0.0
H2473 H 0.67381 0.05631 0.18818 0.0
H2474 H 0.65573 0.06635 0.22317 0.0
H2475 H 0.61913 0.12735 0.19459 0.0
H2476 H 0.63691 0.11747 0.1597 0.0
H2477 H 0.5894 0.10346 0.22199 0.0
H2478 H 0.67047 0.13506 0.22343 0.0
H2479 H 0.71494 0.13282 0.22056 0.0
H2480 H 0.71709 0.0809 0.27192 0.0
H2481 H 0.67257 0.0826 0.27489 0.0
C2482 C 0.57285 0.15893 0.31426 0.0
C2483 C 0.57975 0.14824 0.33391 0.0
C2484 C 0.5811 0.14953 0.29459 0.0
C2485 C 0.59626 0.12905 0.29403 0.0
C2486 C 0.60292 0.11817 0.31362 0.0
C2487 C 0.59476 0.12761 0.33329 0.0
C2488 C 0.60592 0.11957 0.27314 0.0
C2489 C 0.63108 0.11674 0.27072 0.0
C2490 C 0.59072 0.11445 0.25534 0.0
C2491 C 0.56395 0.11553 0.25709 0.0
C2492 C 0.55182 0.10236 0.27315 0.0
C2493 C 0.52661 0.10359 0.27482 0.0
C2494 C 0.51331 0.11779 0.26042 0.0
C2495 C 0.52519 0.13075 0.24429 0.0
C2496 C 0.5504 0.12961 0.24256 0.0
C2497 C 0.66176 0.07174 0.18928 0.0
C2498 C 0.65695 0.0861 0.17105 0.0
C2499 C 0.6515 0.07753 0.20935 0.0
C2500 C 0.63621 0.09777 0.21162 0.0
C2501 C 0.63084 0.11166 0.19331 0.0
C2502 C 0.64115 0.10599 0.17333 0.0
C2503 C 0.62627 0.10501 0.23307 0.0
C2504 C 0.6011 0.10747 0.23554 0.0
C2505 C 0.64143 0.10976 0.25095 0.0
C2506 C 0.66818 0.10875 0.24921 0.0
C2507 C 0.68041 0.12302 0.23398 0.0
C2508 C 0.70563 0.12187 0.23236 0.0
C2509 C 0.71883 0.10667 0.246 0.0
C2510 C 0.70684 0.09263 0.26133 0.0
C2511 C 0.68162 0.09368 0.263 0.0
H2512 H 0.73835 0.10582 0.24473 0.0
H2513 H 0.4938 0.11871 0.26175 0.0
H2514 H 0.34702 0.55741 0.30873 0.0
H2515 H 0.36545 0.57062 0.27498 0.0
H2516 H 0.41277 0.6181 0.31019 0.0
H2517 H 0.39433 0.6051 0.34408 0.0
H2518 H 0.39062 0.64112 0.27695 0.0
H2519 H 0.43496 0.5674 0.2868 0.0
H2520 H 0.44009 0.52378 0.29348 0.0
H2521 H 0.39996 0.50777 0.23607 0.0
H2522 H 0.39428 0.55131 0.2292 0.0
H2523 H 0.45906 0.67642 0.18613 0.0
H2524 H 0.44844 0.65889 0.22098 0.0
H2525 H 0.40129 0.60818 0.18936 0.0
H2526 H 0.4121 0.62532 0.1544 0.0
H2527 H 0.42562 0.58655 0.22155 0.0
H2528 H 0.37868 0.65905 0.21282 0.0
H2529 H 0.37205 0.70243 0.20587 0.0
H2530 H 0.41534 0.72035 0.26098 0.0
H2531 H 0.42251 0.67705 0.26808 0.0
C2532 C 0.36154 0.57046 0.30936 0.0
C2533 C 0.36918 0.58018 0.32916 0.0
C2534 C 0.37213 0.57794 0.29002 0.0
C2535 C 0.39061 0.59525 0.29005 0.0
C2536 C 0.39856 0.6047 0.30979 0.0
C2537 C 0.38806 0.59715 0.32916 0.0
C2538 C 0.40065 0.60444 0.2694 0.0
C2539 C 0.3987 0.62924 0.26501 0.0
C2540 C 0.41054 0.58885 0.25356 0.0
C2541 C 0.41402 0.56264 0.25759 0.0
C2542 C 0.42706 0.55459 0.27569 0.0
C2543 C 0.4301 0.52987 0.27949 0.0
C2544 C 0.42031 0.51301 0.26523 0.0
C2545 C 0.40751 0.52085 0.24711 0.0
C2546 C 0.4044 0.54555 0.24324 0.0
C2547 C 0.4466 0.66139 0.18653 0.0
C2548 C 0.43634 0.65238 0.16743 0.0
C2549 C 0.44047 0.65144 0.2065 0.0
C2550 C 0.42378 0.63244 0.20783 0.0
C2551 C 0.41418 0.62284 0.18875 0.0
C2552 C 0.42035 0.63273 0.16875 0.0
C2553 C 0.41558 0.62322 0.22912 0.0
C2554 C 0.41777 0.59844 0.2336 0.0
C2555 C 0.40572 0.63878 0.24502 0.0
C2556 C 0.40136 0.66482 0.24084 0.0
C2557 C 0.38695 0.67225 0.22336 0.0
C2558 C 0.38306 0.69682 0.21941 0.0
C2559 C 0.39332 0.71414 0.23294 0.0
C2560 C 0.40744 0.70692 0.25049 0.0
C2561 C 0.41141 0.68236 0.25449 0.0
H2562 H 0.39029 0.73315 0.22986 0.0
H2563 H 0.42268 0.49389 0.26821 0.0
H2564 H 0.89345 0.36717 0.3495 0.0
H2565 H 0.87918 0.38468 0.31563 0.0
H2566 H 0.94113 0.35475 0.28261 0.0
H2567 H 0.95562 0.33732 0.3164 0.0
H2568 H 0.93466 0.4006 0.27133 0.0
H2569 H 0.88436 0.33087 0.27655 0.0
H2570 H 0.85537 0.3027 0.29313 0.0
H2571 H 0.80208 0.35923 0.2967 0.0
H2572 H 0.83089 0.38788 0.28045 0.0
H2573 H 0.89444 0.41952 0.16363 0.0
H2574 H 0.9077 0.40199 0.19779 0.0
H2575 H 0.84677 0.43487 0.23005 0.0
H2576 H 0.83325 0.45238 0.19588 0.0
H2577 H 0.8523 0.3878 0.24186 0.0
H2578 H 0.90349 0.4574 0.23635 0.0
H2579 H 0.93267 0.48462 0.21877 0.0
H2580 H 0.98463 0.42686 0.21503 0.0
H2581 H 0.95564 0.39919 0.23232 0.0
C2582 C 0.90399 0.36414 0.33503 0.0
C2583 C 0.92575 0.35081 0.33578 0.0
C2584 C 0.89574 0.37413 0.3156 0.0
C2585 C 0.90897 0.37096 0.29645 0.0
C2586 C 0.93059 0.35752 0.29713 0.0
C2587 C 0.93883 0.34749 0.31652 0.0
C2588 C 0.90074 0.38225 0.27584 0.0
C2589 C 0.91675 0.39751 0.26476 0.0
C2590 C 0.87718 0.37872 0.26743 0.0
C2591 C 0.85989 0.36161 0.27746 0.0
C2592 C 0.86655 0.33738 0.28107 0.0
C2593 C 0.85013 0.3213 0.29036 0.0
C2594 C 0.82691 0.32917 0.29596 0.0
C2595 C 0.82008 0.35316 0.29235 0.0
C2596 C 0.83644 0.36933 0.28308 0.0
C2597 C 0.88395 0.42327 0.178 0.0
C2598 C 0.86281 0.43752 0.17694 0.0
C2599 C 0.89158 0.41321 0.19757 0.0
C2600 C 0.87834 0.41719 0.2166 0.0
C2601 C 0.8573 0.43151 0.21563 0.0
C2602 C 0.84968 0.44165 0.19606 0.0
C2603 C 0.88624 0.4061 0.23739 0.0
C2604 C 0.87018 0.39089 0.24849 0.0
C2605 C 0.9098 0.40954 0.24578 0.0
C2606 C 0.9273 0.42617 0.23545 0.0
C2607 C 0.92107 0.45046 0.23163 0.0
C2608 C 0.93759 0.46597 0.22174 0.0
C2609 C 0.96047 0.45746 0.21574 0.0
C2610 C 0.9669 0.43342 0.21966 0.0
C2611 C 0.95044 0.41782 0.22952 0.0
H2612 H 0.97323 0.4695 0.20809 0.0
H2613 H 0.81418 0.31666 0.30303 0.0
H2614 H 0.17341 0.95239 0.31418 0.0
H2615 H 0.15661 0.93911 0.2798 0.0
H2616 H 0.1104 0.88887 0.31311 0.0
H2617 H 0.12731 0.90188 0.34763 0.0
H2618 H 0.13274 0.86769 0.27916 0.0
H2619 H 0.08764 0.94106 0.29108 0.0
H2620 H 0.08263 0.9845 0.29874 0.0
H2621 H 0.12296 1.00199 0.24173 0.0
H2622 H 0.1285 0.95863 0.23388 0.0
H2623 H 0.05872 0.83587 0.19064 0.0
H2624 H 0.07283 0.85166 0.22513 0.0
H2625 H 0.11847 0.90245 0.19189 0.0
H2626 H 0.10433 0.88689 0.15724 0.0
H2627 H 0.09624 0.92367 0.22576 0.0
H2628 H 0.14274 0.85201 0.21387 0.0
H2629 H 0.15021 0.80898 0.20589 0.0
H2630 H 0.10988 0.78871 0.26216 0.0
H2631 H 0.1019 0.83164 0.27033 0.0
C2632 C 0.15953 0.93865 0.31427 0.0
C2633 C 0.15167 0.92829 0.33377 0.0
C2634 C 0.14987 0.93112 0.29455 0.0
C2635 C 0.13205 0.91312 0.29381 0.0
C2636 C 0.12409 0.90281 0.31324 0.0
C2637 C 0.13371 0.91037 0.333 0.0
C2638 C 0.12231 0.90452 0.27277 0.0
C2639 C 0.12438 0.87988 0.26765 0.0
C2640 C 0.11213 0.9205 0.25738 0.0
C2641 C 0.10867 0.94659 0.262 0.0
C2642 C 0.09559 0.95416 0.28026 0.0
C2643 C 0.09263 0.97878 0.28462 0.0
C2644 C 0.10252 0.99599 0.27076 0.0
C2645 C 0.11533 0.98863 0.25246 0.0
C2646 C 0.11837 0.96404 0.24804 0.0
C2647 C 0.07163 0.85052 0.19059 0.0
C2648 C 0.08038 0.86005 0.17106 0.0
C2649 C 0.0798 0.85945 0.21038 0.0
C2650 C 0.09698 0.87805 0.21117 0.0
C2651 C 0.10526 0.88807 0.19173 0.0
C2652 C 0.09715 0.8791 0.1719 0.0
C2653 C 0.1065 0.88681 0.23224 0.0
C2654 C 0.10447 0.91146 0.23733 0.0
C2655 C 0.11695 0.87089 0.24753 0.0
C2656 C 0.12149 0.84504 0.24257 0.0
C2657 C 0.13526 0.83837 0.22443 0.0
C2658 C 0.13964 0.814 0.2199 0.0
C2659 C 0.13046 0.79612 0.23348 0.0
C2660 C 0.11694 0.80258 0.25164 0.0
C2661 C 0.1125 0.82693 0.25623 0.0
H2662 H 0.13389 0.77726 0.22996 0.0
H2663 H 0.10021 0.01504 0.27417 0.0
H2664 H 0.44575 0.83224 0.69418 0.0
H2665 H 0.42732 0.84822 0.72708 0.0
H2666 H 0.40215 0.91079 0.69219 0.0
H2667 H 0.42045 0.8949 0.65912 0.0
H2668 H 0.42086 0.92239 0.73258 0.0
H2669 H 0.36353 0.86817 0.70213 0.0
H2670 H 0.34939 0.82982 0.68648 0.0
H2671 H 0.36649 0.79287 0.74539 0.0
H2672 H 0.38116 0.83094 0.76127 0.0
H2673 H 0.33658 0.96105 0.81279 0.0
H2674 H 0.35362 0.94723 0.7785 0.0
H2675 H 0.37931 0.8821 0.80914 0.0
H2676 H 0.3624 0.89573 0.84344 0.0
H2677 H 0.35891 0.87285 0.76972 0.0
H2678 H 0.41766 0.92771 0.79937 0.0
H2679 H 0.43156 0.96648 0.81439 0.0
H2680 H 0.41068 1.00282 0.75614 0.0
H2681 H 0.39633 0.96429 0.74088 0.0
C2682 C 0.43654 0.84953 0.69351 0.0
C2683 C 0.43454 0.86224 0.67396 0.0
C2684 C 0.4259 0.85859 0.71233 0.0
C2685 C 0.41312 0.88057 0.71204 0.0
C2686 C 0.41187 0.89377 0.69276 0.0
C2687 C 0.42233 0.88462 0.67387 0.0
C2688 C 0.40048 0.88936 0.73172 0.0
C2689 C 0.40707 0.91172 0.74054 0.0
C2690 C 0.38268 0.87531 0.74224 0.0
C2691 C 0.37369 0.85238 0.73282 0.0
C2692 C 0.36448 0.85183 0.71169 0.0
C2693 C 0.35633 0.83015 0.70278 0.0
C2694 C 0.35709 0.80891 0.71492 0.0
C2695 C 0.36595 0.80933 0.736 0.0
C2696 C 0.37417 0.83096 0.74497 0.0
C2697 C 0.34575 0.94373 0.81224 0.0
C2698 C 0.34818 0.92956 0.83095 0.0
C2699 C 0.35556 0.93589 0.79262 0.0
C2700 C 0.36797 0.91372 0.79127 0.0
C2701 C 0.36984 0.89926 0.80977 0.0
C2702 C 0.36018 0.90714 0.82941 0.0
C2703 C 0.37948 0.90577 0.77074 0.0
C2704 C 0.37264 0.88356 0.76173 0.0
C2705 C 0.39695 0.92003 0.75998 0.0
C2706 C 0.40569 0.94317 0.76908 0.0
C2707 C 0.41586 0.944 0.78983 0.0
C2708 C 0.42384 0.96592 0.79838 0.0
C2709 C 0.42194 0.98711 0.78625 0.0
C2710 C 0.4121 0.9864 0.76553 0.0
C2711 C 0.40406 0.96453 0.75692 0.0
H2712 H 0.42813 1.00406 0.7929 0.0
H2713 H 0.35077 0.79214 0.708 0.0
H2714 H 0.56438 0.33343 0.81627 0.0
H2715 H 0.57894 0.34973 0.78216 0.0
H2716 H 0.61696 0.40583 0.81617 0.0
H2717 H 0.60246 0.38961 0.85056 0.0
H2718 H 0.59375 0.42276 0.77907 0.0
H2719 H 0.64808 0.35912 0.79896 0.0
H2720 H 0.65939 0.31805 0.81073 0.0
H2721 H 0.62749 0.28838 0.75356 0.0
H2722 H 0.61563 0.32925 0.7416 0.0
H2723 H 0.66893 0.45453 0.68936 0.0
H2724 H 0.6539 0.44258 0.72489 0.0
H2725 H 0.61794 0.38142 0.69642 0.0
H2726 H 0.63312 0.39303 0.66097 0.0
H2727 H 0.64182 0.36822 0.73197 0.0
H2728 H 0.58643 0.43199 0.71268 0.0
H2729 H 0.57489 0.4731 0.70123 0.0
H2730 H 0.60909 0.50267 0.75738 0.0
H2731 H 0.62113 0.46173 0.76903 0.0
C2732 C 0.57564 0.34938 0.81658 0.0
C2733 C 0.58233 0.36012 0.83624 0.0
C2734 C 0.58403 0.35863 0.79701 0.0
C2735 C 0.5993 0.37881 0.79661 0.0
C2736 C 0.60525 0.39019 0.8161 0.0
C2737 C 0.59696 0.38086 0.83575 0.0
C2738 C 0.60965 0.38737 0.77585 0.0
C2739 C 0.60456 0.41097 0.76889 0.0
C2740 C 0.62347 0.37187 0.76244 0.0
C2741 C 0.63076 0.34725 0.76948 0.0
C2742 C 0.6433 0.34383 0.78898 0.0
C2743 C 0.64984 0.32058 0.79567 0.0
C2744 C 0.64411 0.30062 0.78292 0.0
C2745 C 0.63189 0.30386 0.76343 0.0
C2746 C 0.62527 0.32707 0.75667 0.0
C2747 C 0.65772 0.43861 0.69063 0.0
C2748 C 0.65218 0.42481 0.67225 0.0
C2749 C 0.64906 0.43183 0.71097 0.0
C2750 C 0.6346 0.41118 0.71335 0.0
C2751 C 0.62905 0.39742 0.69502 0.0
C2752 C 0.63767 0.40417 0.67472 0.0
C2753 C 0.62563 0.40354 0.73494 0.0
C2754 C 0.63106 0.38007 0.74212 0.0
C2755 C 0.61218 0.4192 0.74855 0.0
C2756 C 0.60491 0.44381 0.7416 0.0
C2757 C 0.59167 0.44727 0.7225 0.0
C2758 C 0.585 0.47054 0.71599 0.0
C2759 C 0.59132 0.49049 0.72854 0.0
C2760 C 0.60425 0.4872 0.74766 0.0
C2761 C 0.61098 0.46397 0.75423 0.0
H2762 H 0.58614 0.50849 0.72347 0.0
H2763 H 0.64915 0.28263 0.78814 0.0
H2764 H 0.12509 0.6003 0.84437 0.0
H2765 H 0.11085 0.61805 0.81054 0.0
H2766 H 0.16474 0.57734 0.77553 0.0
H2767 H 0.1792 0.55964 0.80923 0.0
H2768 H 0.16332 0.62397 0.76206 0.0
H2769 H 0.10565 0.56067 0.77467 0.0
H2770 H 0.07534 0.53798 0.79555 0.0
H2771 H 0.03032 0.60127 0.79939 0.0
H2772 H 0.06053 0.62444 0.77877 0.0
H2773 H 0.11767 0.63845 0.65587 0.0
H2774 H 0.13185 0.62294 0.69043 0.0
H2775 H 0.07483 0.66196 0.72301 0.0
H2776 H 0.06015 0.67717 0.68843 0.0
H2777 H 0.07788 0.61758 0.73833 0.0
H2778 H 0.13467 0.68063 0.72413 0.0
H2779 H 0.16442 0.70293 0.70225 0.0
H2780 H 0.21108 0.64073 0.70124 0.0
H2781 H 0.18144 0.61789 0.72278 0.0
C2782 C 0.13379 0.59492 0.82947 0.0
C2783 C 0.15322 0.57838 0.82959 0.0
C2784 C 0.12562 0.60512 0.81011 0.0
C2785 C 0.13664 0.59898 0.79041 0.0
C2786 C 0.15597 0.58243 0.79048 0.0
C2787 C 0.16411 0.57218 0.80981 0.0
C2788 C 0.1281 0.60982 0.76974 0.0
C2789 C 0.14469 0.62235 0.75675 0.0
C2790 C 0.10368 0.60826 0.76301 0.0
C2791 C 0.08547 0.59435 0.77537 0.0
C2792 C 0.08938 0.5698 0.78012 0.0
C2793 C 0.0722 0.55685 0.79188 0.0
C2794 C 0.05095 0.56819 0.79885 0.0
C2795 C 0.04681 0.59251 0.79402 0.0
C2796 C 0.06394 0.60556 0.78228 0.0
C2797 C 0.10811 0.64383 0.67035 0.0
C2798 C 0.08764 0.65903 0.66924 0.0
C2799 C 0.11637 0.63502 0.69018 0.0
C2800 C 0.1046 0.64144 0.70944 0.0
C2801 C 0.08425 0.65671 0.70841 0.0
C2802 C 0.0759 0.66545 0.68857 0.0
C2803 C 0.11308 0.6317 0.73056 0.0
C2804 C 0.09649 0.61935 0.74366 0.0
C2805 C 0.1375 0.63352 0.73738 0.0
C2806 C 0.15568 0.64744 0.7249 0.0
C2807 C 0.15121 0.67164 0.71914 0.0
C2808 C 0.16805 0.68439 0.7068 0.0
C2809 C 0.18955 0.67321 0.70027 0.0
C2810 C 0.19437 0.64934 0.70625 0.0
C2811 C 0.17756 0.63648 0.71854 0.0
H2812 H 0.20248 0.68304 0.69058 0.0
H2813 H 0.03767 0.55813 0.80795 0.0
H2814 H 0.93056 0.18659 0.81598 0.0
H2815 H 0.91783 0.16935 0.78169 0.0
H2816 H 0.9189 0.09811 0.81 0.0
H2817 H 0.93001 0.11569 0.84482 0.0
H2818 H 0.93375 0.14267 0.7534 0.0
H2819 H 0.88019 0.06039 0.78628 0.0
H2820 H 0.85628 0.04919 0.81833 0.0
H2821 H 0.84084 0.12401 0.83068 0.0
H2822 H 0.86438 0.13562 0.79857 0.0
H2823 H 0.90029 0.07423 0.66108 0.0
H2824 H 0.91706 0.08774 0.69562 0.0
H2825 H 0.84458 0.09949 0.71974 0.0
H2826 H 0.82808 0.08412 0.68607 0.0
H2827 H 0.86669 0.08368 0.75022 0.0
H2828 H 0.88706 0.14679 0.701 0.0
H2829 H 0.90475 0.16514 0.66842 0.0
H2830 H 0.9755 0.14121 0.68775 0.0
H2831 H 0.95818 0.12246 0.72034 0.0
C2832 C 0.9281 0.16723 0.81489 0.0
C2833 C 0.93113 0.15252 0.83316 0.0
C2834 C 0.92087 0.15733 0.79519 0.0
C2835 C 0.91694 0.13236 0.79308 0.0
C2836 C 0.92102 0.1175 0.81117 0.0
C2837 C 0.92757 0.12752 0.83109 0.0
C2838 C 0.90816 0.12217 0.7721 0.0
C2839 C 0.91906 0.12977 0.75277 0.0
C2840 C 0.88862 0.1057 0.77092 0.0
C2841 C 0.8743 0.09886 0.79018 0.0
C2842 C 0.87164 0.07443 0.79582 0.0
C2843 C 0.85816 0.06802 0.81399 0.0
C2844 C 0.84713 0.08588 0.82658 0.0
C2845 C 0.84947 0.1102 0.82097 0.0
C2846 C 0.86289 0.11671 0.8028 0.0
C2847 C 0.88805 0.0796 0.67387 0.0
C2848 C 0.86292 0.07803 0.67095 0.0
C2849 C 0.89761 0.08755 0.69359 0.0
C2850 C 0.8822 0.09513 0.71046 0.0
C2851 C 0.85704 0.09364 0.70729 0.0
C2852 C 0.84756 0.08491 0.68794 0.0
C2853 C 0.89193 0.10453 0.73142 0.0
C2854 C 0.88136 0.0966 0.75079 0.0
C2855 C 0.91081 0.12177 0.73254 0.0
C2856 C 0.92129 0.133 0.71297 0.0
C2857 C 0.90637 0.1453 0.69822 0.0
C2858 C 0.91633 0.15579 0.67977 0.0
C2859 C 0.94122 0.15428 0.67598 0.0
C2860 C 0.95622 0.14233 0.69068 0.0
C2861 C 0.94635 0.13178 0.70915 0.0
H2862 H 0.9489 0.16241 0.66169 0.0
H2863 H 0.83672 0.08088 0.84065 0.0
H2864 H 0.77017 0.38204 0.13787 0.0
H2865 H 0.74616 0.34551 0.14455 0.0
H2866 H 0.81154 0.30261 0.14458 0.0
H2867 H 0.83545 0.33885 0.13864 0.0
H2868 H 0.74245 0.30854 0.11744 0.0
H2869 H 0.80535 0.25259 0.17449 0.0
H2870 H 0.83162 0.25958 0.20595 0.0
H2871 H 0.79136 0.32374 0.22163 0.0
H2872 H 0.76459 0.31696 0.19047 0.0
H2873 H 0.73216 0.18573 0.09662 0.0
H2874 H 0.74591 0.22666 0.1039 0.0
H2875 H 0.71887 0.22152 0.169 0.0
H2876 H 0.70587 0.17984 0.16192 0.0
H2877 H 0.76043 0.2431 0.16964 0.0
H2878 H 0.68854 0.25533 0.12892 0.0
H2879 H 0.65977 0.24983 0.09898 0.0
H2880 H 0.7127 0.27614 0.05418 0.0
H2881 H 0.74195 0.28134 0.08379 0.0
C2882 C 0.77938 0.36486 0.13982 0.0
C2883 C 0.80464 0.36324 0.13771 0.0
C2884 C 0.76567 0.34401 0.1435 0.0
C2885 C 0.77702 0.32128 0.14508 0.0
C2886 C 0.80235 0.31991 0.14378 0.0
C2887 C 0.816 0.34066 0.14024 0.0
C2888 C 0.76262 0.29866 0.14576 0.0
C2889 C 0.74611 0.29438 0.12905 0.0
C2890 C 0.76711 0.28024 0.1611 0.0
C2891 C 0.78303 0.28432 0.18002 0.0
C2892 C 0.80199 0.26812 0.18471 0.0
C2893 C 0.817 0.27206 0.20249 0.0
C2894 C 0.81319 0.29211 0.21575 0.0
C2895 C 0.79433 0.30825 0.2113 0.0
C2896 C 0.77926 0.30438 0.19356 0.0
C2897 C 0.7291 0.19332 0.11249 0.0
C2898 C 0.71781 0.17971 0.12868 0.0
C2899 C 0.73682 0.21682 0.1166 0.0
C2900 C 0.73292 0.2275 0.13685 0.0
C2901 C 0.72193 0.21377 0.1532 0.0
C2902 C 0.71448 0.19001 0.14916 0.0
C2903 C 0.74091 0.25278 0.14085 0.0
C2904 C 0.7563 0.25748 0.15835 0.0
C2905 C 0.73502 0.27182 0.12649 0.0
C2906 C 0.71747 0.26867 0.1086 0.0
C2907 C 0.6941 0.2598 0.11267 0.0
C2908 C 0.67771 0.25673 0.09575 0.0
C2909 C 0.68441 0.26261 0.07469 0.0
C2910 C 0.70753 0.27159 0.0705 0.0
C2911 C 0.72401 0.27463 0.08735 0.0
H2912 H 0.67169 0.26022 0.06162 0.0
H2913 H 0.82483 0.29514 0.2295 0.0
H2914 H 0.32959 0.67565 0.13418 0.0
H2915 H 0.28966 0.69422 0.1382 0.0
H2916 H 0.32101 0.76468 0.12923 0.0
H2917 H 0.36134 0.74605 0.12548 0.0
H2918 H 0.28387 0.76464 0.16013 0.0
H2919 H 0.29637 0.73541 0.08756 0.0
H2920 H 0.30746 0.70363 0.0615 0.0
H2921 H 0.24784 0.6604 0.08301 0.0
H2922 H 0.23679 0.69166 0.10965 0.0
H2923 H 0.18238 0.83082 0.12459 0.0
H2924 H 0.22113 0.81035 0.12903 0.0
H2925 H 0.18485 0.74156 0.13076 0.0
H2926 H 0.14565 0.76221 0.12579 0.0
H2927 H 0.22367 0.73889 0.10553 0.0
H2928 H 0.20949 0.76701 0.17676 0.0
H2929 H 0.19888 0.79638 0.20514 0.0
H2930 H 0.26038 0.83949 0.18813 0.0
H2931 H 0.27117 0.81055 0.15942 0.0
C2932 C 0.32809 0.69514 0.13345 0.0
C2933 C 0.34859 0.70939 0.12938 0.0
C2934 C 0.3052 0.70574 0.13568 0.0
C2935 C 0.30219 0.73082 0.13361 0.0
C2936 C 0.32285 0.74527 0.1308 0.0
C2937 C 0.34588 0.73463 0.12868 0.0
C2938 C 0.27738 0.74162 0.13284 0.0
C2939 C 0.27079 0.75923 0.14806 0.0
C2940 C 0.25998 0.73402 0.1175 0.0
C2941 C 0.2659 0.71577 0.10076 0.0
C2942 C 0.28568 0.71909 0.08679 0.0
C2943 C 0.29198 0.70115 0.07194 0.0
C2944 C 0.2784 0.67997 0.07064 0.0
C2945 C 0.25838 0.67679 0.08408 0.0
C2946 C 0.2521 0.6946 0.09908 0.0
C2947 C 0.18254 0.81133 0.12616 0.0
C2948 C 0.1609 0.79814 0.12504 0.0
C2949 C 0.20479 0.79962 0.12878 0.0
C2950 C 0.20604 0.77437 0.13059 0.0
C2951 C 0.1844 0.76107 0.12954 0.0
C2952 C 0.16199 0.77286 0.12684 0.0
C2953 C 0.2301 0.76211 0.13276 0.0
C2954 C 0.23662 0.74425 0.11773 0.0
C2955 C 0.24732 0.7693 0.14843 0.0
C2956 C 0.24103 0.78668 0.16581 0.0
C2957 C 0.22066 0.78283 0.17897 0.0
C2958 C 0.21462 0.79939 0.19513 0.0
C2959 C 0.22892 0.81981 0.19841 0.0
C2960 C 0.24932 0.82367 0.18556 0.0
C2961 C 0.25542 0.80718 0.16936 0.0
H2962 H 0.22421 0.83261 0.21092 0.0
H2963 H 0.28338 0.66603 0.05923 0.0
H2964 H 0.34112 0.68309 0.36655 0.0
H2965 H 0.32131 0.72236 0.36286 0.0
H2966 H 0.25148 0.68807 0.36573 0.0
H2967 H 0.27137 0.6484 0.36945 0.0
H2968 H 0.25388 0.72632 0.33522 0.0
H2969 H 0.27306 0.71197 0.40959 0.0
H2970 H 0.2999 0.70119 0.43986 0.0
H2971 H 0.34494 0.76216 0.42578 0.0
H2972 H 0.31864 0.77303 0.39512 0.0
H2973 H 0.18241 0.82654 0.36762 0.0
H2974 H 0.20343 0.78814 0.36274 0.0
H2975 H 0.27213 0.82426 0.36858 0.0
H2976 H 0.25092 0.86296 0.37398 0.0
H2977 H 0.27138 0.7853 0.39333 0.0
H2978 H 0.25183 0.80064 0.31966 0.0
H2979 H 0.22567 0.81111 0.28885 0.0
H2980 H 0.18186 0.74878 0.30115 0.0
H2981 H 0.20757 0.73809 0.33223 0.0
C2982 C 0.32154 0.68381 0.36605 0.0
C2983 C 0.30778 0.66267 0.36838 0.0
C2984 C 0.31024 0.70631 0.36401 0.0
C2985 C 0.28492 0.70823 0.36433 0.0
C2986 C 0.27106 0.68702 0.36549 0.0
C2987 C 0.28241 0.66438 0.36759 0.0
C2988 C 0.27317 0.7325 0.36479 0.0
C2989 C 0.25745 0.73914 0.34804 0.0
C2990 C 0.27835 0.74945 0.38124 0.0
C2991 C 0.294 0.74317 0.3999 0.0
C2992 C 0.2888 0.72297 0.41283 0.0
C2993 C 0.3039 0.71685 0.43007 0.0
C2994 C 0.32415 0.73095 0.43471 0.0
C2995 C 0.32928 0.75123 0.42214 0.0
C2996 C 0.31427 0.75738 0.40483 0.0
C2997 C 0.20202 0.82642 0.36749 0.0
C2998 C 0.21503 0.84781 0.37109 0.0
C2999 C 0.21405 0.8044 0.36462 0.0
C3000 C 0.23943 0.8032 0.36506 0.0
C3001 C 0.25253 0.82468 0.36812 0.0
C3002 C 0.24044 0.84682 0.37105 0.0
C3003 C 0.25201 0.7793 0.3637 0.0
C3004 C 0.26788 0.77263 0.38038 0.0
C3005 C 0.24699 0.76237 0.34715 0.0
C3006 C 0.23153 0.76868 0.3284 0.0
C3007 C 0.23652 0.78926 0.3159 0.0
C3008 C 0.22178 0.79522 0.29837 0.0
C3009 C 0.20208 0.78065 0.29308 0.0
C3010 C 0.19711 0.76006 0.30528 0.0
C3011 C 0.21178 0.75402 0.32284 0.0
H3012 H 0.19069 0.7853 0.2795 0.0
H3013 H 0.33583 0.72618 0.44806 0.0
H3014 H 0.84696 0.25504 0.36831 0.0
H3015 H 0.80513 0.24189 0.36368 0.0
H3016 H 0.78467 0.31393 0.3442 0.0
H3017 H 0.82667 0.32718 0.34874 0.0
H3018 H 0.75726 0.29697 0.37792 0.0
H3019 H 0.78118 0.26927 0.30831 0.0
H3020 H 0.80711 0.24792 0.2821 0.0
H3021 H 0.7927 0.18052 0.31371 0.0
H3022 H 0.76695 0.2015 0.34032 0.0
H3023 H 0.63832 0.229 0.35128 0.0
H3024 H 0.67504 0.25113 0.34043 0.0
H3025 H 0.71134 0.22643 0.39783 0.0
H3026 H 0.67529 0.20395 0.40839 0.0
H3027 H 0.72671 0.22573 0.338 0.0
H3028 H 0.73822 0.28316 0.41485 0.0
H3029 H 0.71366 0.30598 0.44118 0.0
H3030 H 0.65753 0.3152 0.39407 0.0
H3031 H 0.68186 0.29271 0.36738 0.0
C3032 C 0.83369 0.26791 0.36242 0.0
C3033 C 0.84004 0.29213 0.35889 0.0
C3034 C 0.80977 0.26038 0.35978 0.0
C3035 C 0.79173 0.27693 0.35361 0.0
C3036 C 0.79829 0.30087 0.349 0.0
C3037 C 0.8223 0.30837 0.35146 0.0
C3038 C 0.76584 0.26974 0.35429 0.0
C3039 C 0.75049 0.2816 0.36895 0.0
C3040 C 0.75696 0.24976 0.34252 0.0
C3041 C 0.77219 0.237 0.32638 0.0
C3042 C 0.78364 0.24991 0.30976 0.0
C3043 C 0.7983 0.23787 0.29481 0.0
C3044 C 0.80156 0.21288 0.29625 0.0
C3045 C 0.79013 0.19988 0.31261 0.0
C3046 C 0.77547 0.21183 0.3276 0.0
C3047 C 0.65411 0.22849 0.36159 0.0
C3048 C 0.65401 0.21477 0.38064 0.0
C3049 C 0.67502 0.24104 0.35538 0.0
C3050 C 0.69579 0.24047 0.36843 0.0
C3051 C 0.69545 0.2272 0.38763 0.0
C3052 C 0.67485 0.21433 0.3936 0.0
C3053 C 0.71844 0.25269 0.36191 0.0
C3054 C 0.73332 0.2415 0.34648 0.0
C3055 C 0.72694 0.27327 0.37299 0.0
C3056 C 0.71183 0.28611 0.38915 0.0
C3057 C 0.72065 0.2901 0.41009 0.0
C3058 C 0.70681 0.30305 0.42506 0.0
C3059 C 0.68412 0.31218 0.41925 0.0
C3060 C 0.67514 0.30819 0.39852 0.0
C3061 C 0.68891 0.29524 0.3835 0.0
H3062 H 0.67342 0.32217 0.43087 0.0
H3063 H 0.81293 0.2036 0.28467 0.0
H3064 H 0.25576 0.8517 0.85415 0.0
H3065 H 0.24008 0.81068 0.85088 0.0
H3066 H 0.31277 0.78308 0.84402 0.0
H3067 H 0.32867 0.82426 0.84733 0.0
H3068 H 0.27601 0.7578 0.81843 0.0
H3069 H 0.29263 0.78276 0.89115 0.0
H3070 H 0.29076 0.81054 0.92218 0.0
H3071 H 0.21327 0.80519 0.92305 0.0
H3072 H 0.21466 0.77771 0.89175 0.0
H3073 H 0.24447 0.63879 0.86113 0.0
H3074 H 0.26458 0.67716 0.85225 0.0
H3075 H 0.19751 0.71544 0.86311 0.0
H3076 H 0.1775 0.67755 0.87179 0.0
H3077 H 0.23529 0.73397 0.88642 0.0
H3078 H 0.21808 0.71013 0.81356 0.0
H3079 H 0.21909 0.68408 0.78134 0.0
H3080 H 0.2967 0.68744 0.78039 0.0
H3081 H 0.29616 0.71329 0.81278 0.0
C3082 C 0.26838 0.83701 0.8513 0.0
C3083 C 0.29344 0.84111 0.85121 0.0
C3084 C 0.2594 0.81357 0.84948 0.0
C3085 C 0.2753 0.79384 0.84755 0.0
C3086 C 0.30022 0.79808 0.84554 0.0
C3087 C 0.30926 0.82159 0.84743 0.0
C3088 C 0.26602 0.76895 0.85046 0.0
C3089 C 0.26742 0.75238 0.83337 0.0
C3090 C 0.25462 0.76206 0.86992 0.0
C3091 C 0.25374 0.77835 0.88895 0.0
C3092 C 0.27517 0.78766 0.89784 0.0
C3093 C 0.27421 0.80334 0.91549 0.0
C3094 C 0.2519 0.80968 0.92455 0.0
C3095 C 0.23053 0.80029 0.916 0.0
C3096 C 0.2314 0.78466 0.8983 0.0
C3097 C 0.23402 0.65539 0.86127 0.0
C3098 C 0.20948 0.65523 0.86726 0.0
C3099 C 0.24547 0.67725 0.85617 0.0
C3100 C 0.23253 0.69917 0.85708 0.0
C3101 C 0.20786 0.69879 0.86238 0.0
C3102 C 0.19645 0.67708 0.86731 0.0
C3103 C 0.24474 0.7228 0.85422 0.0
C3104 C 0.24402 0.73919 0.87148 0.0
C3105 C 0.2567 0.72941 0.83493 0.0
C3106 C 0.25709 0.71337 0.81579 0.0
C3107 C 0.23538 0.70506 0.80666 0.0
C3108 C 0.23586 0.6904 0.78831 0.0
C3109 C 0.25795 0.68404 0.77887 0.0
C3110 C 0.2796 0.69233 0.78775 0.0
C3111 C 0.27922 0.707 0.80609 0.0
H3112 H 0.25828 0.67275 0.76463 0.0
H3113 H 0.25118 0.82181 0.93822 0.0
H3114 H 0.86263 0.23972 0.87541 0.0
H3115 H 0.82309 0.25954 0.87111 0.0
H3116 H 0.78753 0.19113 0.88025 0.0
H3117 H 0.82693 0.17129 0.88457 0.0
H3118 H 0.76578 0.21833 0.84812 0.0
H3119 H 0.79187 0.22879 0.92146 0.0
H3120 H 0.82012 0.24088 0.9502 0.0
H3121 H 0.81783 0.31418 0.92769 0.0
H3122 H 0.78982 0.30244 0.8986 0.0
H3123 H 0.64815 0.26279 0.87988 0.0
H3124 H 0.68729 0.24179 0.87673 0.0
H3125 H 0.72339 0.31036 0.87065 0.0
H3126 H 0.68456 0.33128 0.87388 0.0
H3127 H 0.74486 0.28278 0.90056 0.0
H3128 H 0.71821 0.273 0.82773 0.0
H3129 H 0.69004 0.26125 0.79884 0.0
H3130 H 0.69322 0.18747 0.82001 0.0
H3131 H 0.72121 0.19885 0.84923 0.0
C3132 C 0.84638 0.22889 0.8762 0.0
C3133 C 0.84783 0.204 0.88042 0.0
C3134 C 0.8238 0.24023 0.87383 0.0
C3135 C 0.8023 0.22686 0.87558 0.0
C3136 C 0.80382 0.20181 0.87884 0.0
C3137 C 0.82636 0.19052 0.88136 0.0
C3138 C 0.77825 0.2391 0.87523 0.0
C3139 C 0.7611 0.23227 0.8597 0.0
C3140 C 0.77224 0.25755 0.89014 0.0
C3141 C 0.78896 0.26468 0.9077 0.0
C3142 C 0.79754 0.24745 0.92253 0.0
C3143 C 0.81349 0.25424 0.9389 0.0
C3144 C 0.82083 0.27827 0.94073 0.0
C3145 C 0.81217 0.29557 0.92623 0.0
C3146 C 0.79625 0.28886 0.9098 0.0
C3147 C 0.6644 0.2733 0.87741 0.0
C3148 C 0.66331 0.29865 0.87704 0.0
C3149 C 0.68676 0.26131 0.87566 0.0
C3150 C 0.70834 0.2745 0.87345 0.0
C3151 C 0.70706 0.29979 0.87243 0.0
C3152 C 0.68481 0.31172 0.87416 0.0
C3153 C 0.73239 0.26221 0.8733 0.0
C3154 C 0.74953 0.26895 0.88887 0.0
C3155 C 0.73836 0.24376 0.85839 0.0
C3156 C 0.72161 0.23682 0.84081 0.0
C3157 C 0.71275 0.2543 0.82634 0.0
C3158 C 0.69684 0.24771 0.80988 0.0
C3159 C 0.68978 0.22364 0.80763 0.0
C3160 C 0.69868 0.20611 0.8218 0.0
C3161 C 0.71459 0.21262 0.83829 0.0
H3162 H 0.67746 0.21857 0.79488 0.0
H3163 H 0.83318 0.28349 0.95341 0.0
H3164 H 0.73289 0.34159 0.65968 0.0
H3165 H 0.74968 0.30083 0.66352 0.0
H3166 H 0.684 0.27079 0.63763 0.0
H3167 H 0.66715 0.3116 0.63356 0.0
H3168 H 0.70701 0.24163 0.67132 0.0
H3169 H 0.72402 0.28097 0.60429 0.0
H3170 H 0.73769 0.31478 0.58167 0.0
H3171 H 0.80912 0.30872 0.60837 0.0
H3172 H 0.79559 0.27543 0.63185 0.0
H3173 H 0.76128 0.13229 0.62826 0.0
H3174 H 0.73743 0.16896 0.63573 0.0
H3175 H 0.80306 0.20725 0.651 0.0
H3176 H 0.82678 0.17104 0.64312 0.0
H3177 H 0.77761 0.23158 0.62261 0.0
H3178 H 0.76029 0.19174 0.68989 0.0
H3179 H 0.74583 0.15848 0.71289 0.0
H3180 H 0.67505 0.1645 0.68483 0.0
H3181 H 0.68919 0.1976 0.66144 0.0
C3182 C 0.72175 0.32628 0.65539 0.0
C3183 C 0.69882 0.32973 0.64613 0.0
C3184 C 0.73137 0.30301 0.65758 0.0
C3185 C 0.71817 0.28284 0.65063 0.0
C3186 C 0.69445 0.28611 0.64311 0.0
C3187 C 0.68489 0.30943 0.64074 0.0
C3188 C 0.73037 0.25904 0.64839 0.0
C3189 C 0.72233 0.23928 0.66057 0.0
C3190 C 0.75037 0.25609 0.63437 0.0
C3191 C 0.7587 0.27588 0.62004 0.0
C3192 C 0.74257 0.28701 0.60553 0.0
C3193 C 0.75031 0.30608 0.59253 0.0
C3194 C 0.77428 0.31387 0.59354 0.0
C3195 C 0.79054 0.30267 0.60762 0.0
C3196 C 0.78283 0.28374 0.62084 0.0
C3197 C 0.77048 0.14843 0.63364 0.0
C3198 C 0.79584 0.14891 0.63505 0.0
C3199 C 0.75687 0.16937 0.63793 0.0
C3200 C 0.76845 0.19093 0.64392 0.0
C3201 C 0.79371 0.19093 0.64628 0.0
C3202 C 0.80725 0.17018 0.64185 0.0
C3203 C 0.7548 0.21407 0.64602 0.0
C3204 C 0.76241 0.23378 0.63354 0.0
C3205 C 0.7344 0.21683 0.65968 0.0
C3206 C 0.72587 0.19698 0.67376 0.0
C3207 C 0.7417 0.18584 0.68849 0.0
C3208 C 0.73355 0.16704 0.70163 0.0
C3209 C 0.70955 0.15934 0.70028 0.0
C3210 C 0.69364 0.17046 0.68583 0.0
C3211 C 0.70171 0.18926 0.67265 0.0
H3212 H 0.70328 0.14479 0.71046 0.0
H3213 H 0.78027 0.32854 0.58337 0.0
H3214 H 0.18734 0.68767 0.64494 0.0
H3215 H 0.22672 0.70697 0.64916 0.0
H3216 H 0.19424 0.77624 0.6351 0.0
H3217 H 0.15513 0.75664 0.62946 0.0
H3218 H 0.23084 0.7728 0.61221 0.0
H3219 H 0.21872 0.75803 0.68692 0.0
H3220 H 0.20966 0.73472 0.71977 0.0
H3221 H 0.27141 0.68921 0.70811 0.0
H3222 H 0.28066 0.71201 0.67498 0.0
H3223 H 0.33524 0.84206 0.63156 0.0
H3224 H 0.29576 0.8235 0.63732 0.0
H3225 H 0.32921 0.75297 0.63768 0.0
H3226 H 0.36907 0.77163 0.63212 0.0
H3227 H 0.29257 0.75744 0.66856 0.0
H3228 H 0.30283 0.77518 0.5925 0.0
H3229 H 0.31017 0.80129 0.56101 0.0
H3230 H 0.24904 0.84539 0.57802 0.0
H3231 H 0.24146 0.81979 0.60982 0.0
C3232 C 0.18853 0.70709 0.64316 0.0
C3233 C 0.16821 0.72066 0.63678 0.0
C3234 C 0.2111 0.71818 0.64568 0.0
C3235 C 0.21367 0.74322 0.64249 0.0
C3236 C 0.19292 0.75692 0.63741 0.0
C3237 C 0.17051 0.74574 0.63436 0.0
C3238 C 0.23811 0.7548 0.64234 0.0
C3239 C 0.24408 0.76975 0.62484 0.0
C3240 C 0.25583 0.7505 0.65846 0.0
C3241 C 0.25027 0.73663 0.67834 0.0
C3242 C 0.23027 0.74294 0.69125 0.0
C3243 C 0.22514 0.72985 0.70996 0.0
C3244 C 0.23996 0.71051 0.71603 0.0
C3245 C 0.25995 0.70421 0.7034 0.0
C3246 C 0.26516 0.71722 0.68466 0.0
C3247 C 0.33427 0.8226 0.63311 0.0
C3248 C 0.35524 0.80827 0.63122 0.0
C3249 C 0.31164 0.812 0.63633 0.0
C3250 C 0.30939 0.78679 0.63755 0.0
C3251 C 0.33047 0.77245 0.63669 0.0
C3252 C 0.35322 0.78311 0.63351 0.0
C3253 C 0.28494 0.7755 0.63862 0.0
C3254 C 0.27911 0.76055 0.65615 0.0
C3255 C 0.26704 0.78024 0.62281 0.0
C3256 C 0.27177 0.79572 0.60372 0.0
C3257 C 0.29109 0.79059 0.58967 0.0
C3258 C 0.29528 0.80528 0.57174 0.0
C3259 C 0.28019 0.82504 0.56757 0.0
C3260 C 0.26078 0.83013 0.5813 0.0
C3261 C 0.25652 0.81553 0.59928 0.0
H3262 H 0.28348 0.83637 0.55367 0.0
H3263 H 0.23593 0.70039 0.73051 0.0
loop_
_geom_bond_atom_site_label_1
_geom_bond_atom_site_label_2
_geom_bond_distance
_geom_bond_site_symmetry_2
_ccdc_geom_bond_type
O0 Tb1 2.292 . S
O0 C3 1.255 . S
Tb1 O0 2.292 . S
Tb1 O17 2.326 . S
Tb1 O19 2.500 . S
Tb1 O20 2.473 . S
Tb1 O23 2.324 . S
Eu2 O6 2.292 . S
Eu2 C7 2.852 . S
Eu2 O18 2.324 . S
Eu2 O22 2.326 . S
Eu2 O24 2.500 . S
Eu2 O25 2.473 . S
C3 O0 1.255 . S
C3 O4 1.247 . S
O4 C3 1.247 . S
C5 O17 1.242 . S
C5 O18 1.258 . S
O6 Eu2 2.292 . S
O6 C8 1.255 . S
C7 Eu2 2.852 . S
C7 C11 1.503 . S
C7 O24 1.273 . S
C7 O25 1.257 . S
C8 O6 1.255 . S
C8 O9 1.247 . S
O9 C8 1.247 . S
C10 O22 1.242 . S
C10 O23 1.258 . S
C11 C7 1.503 . S
C11 C12 1.379 . S
C11 C16 1.392 1_545 S
C12 C11 1.379 . S
C12 C13 1.404 . S
C12 H26 0.929 . S
C13 C12 1.404 . S
C13 C14 1.389 1_545 S
C14 C13 1.389 1_565 S
C14 C15 1.399 . S
C14 H27 0.931 . S
C15 C14 1.399 . S
C15 C16 1.390 . S
C16 C11 1.392 1_565 S
C16 C15 1.390 . S
C16 H28 0.929 . S
O17 Tb1 2.326 . S
O17 C5 1.242 . S
O18 Eu2 2.324 . S
O18 C5 1.258 . S
O19 Tb1 2.500 . S
O19 C21 1.273 . S
O20 Tb1 2.473 . S
O20 C21 1.257 . S
C21 O19 1.273 . S
C21 O20 1.257 . S
O22 Eu2 2.326 . S
O22 C10 1.242 . S
O23 Tb1 2.324 . S
O23 C10 1.258 . S
O24 Eu2 2.500 . S
O24 C7 1.273 . S
O25 Eu2 2.473 . S
O25 C7 1.257 . S
H26 C12 0.929 . S
H27 C14 0.931 . S
H28 C16 0.929 . S
O29 Tb30 2.292 . S
O29 C32 1.255 . S
Tb30 O29 2.292 . S
Tb30 O46 2.326 . S
Tb30 O48 2.500 . S
Tb30 O49 2.473 . S
Tb30 O52 2.324 . S
Eu31 O35 2.292 . S
Eu31 C36 2.852 . S
Eu31 O47 2.324 . S
Eu31 O51 2.326 . S
Eu31 O53 2.500 . S
Eu31 O54 2.473 . S
C32 O29 1.255 . S
C32 O33 1.247 . S
O33 C32 1.247 . S
C34 O46 1.242 . S
C34 O47 1.258 . S
O35 Eu31 2.292 . S
O35 C37 1.255 . S
C36 Eu31 2.852 . S
C36 C40 1.503 . S
C36 O53 1.273 . S
C36 O54 1.257 . S
C37 O35 1.255 . S
C37 O38 1.247 . S
O38 C37 1.247 . S
C39 O51 1.242 . S
C39 O52 1.258 . S
C40 C36 1.503 . S
C40 C41 1.379 . S
C40 C45 1.392 . S
C41 C40 1.379 . S
C41 C42 1.404 . S
C41 H55 0.929 . S
C42 C41 1.404 . S
C42 C43 1.389 . S
C43 C42 1.389 . S
C43 C44 1.399 . S
C43 H56 0.931 . S
C44 C43 1.399 . S
C44 C45 1.390 . S
C45 C40 1.392 . S
C45 C44 1.390 . S
C45 H57 0.929 . S
O46 Tb30 2.326 . S
O46 C34 1.242 . S
O47 Eu31 2.324 . S
O47 C34 1.258 . S
O48 Tb30 2.500 . S
O48 C50 1.273 . S
O49 Tb30 2.473 . S
O49 C50 1.257 . S
C50 O48 1.273 . S
C50 O49 1.257 . S
O51 Eu31 2.326 . S
O51 C39 1.242 . S
O52 Tb30 2.324 . S
O52 C39 1.258 . S
O53 Eu31 2.500 . S
O53 C36 1.273 . S
O54 Eu31 2.473 . S
O54 C36 1.257 . S
H55 C41 0.929 . S
H56 C43 0.931 . S
H57 C45 0.929 . S
O58 Tb59 2.292 . S
O58 C61 1.255 . S
Tb59 O58 2.292 . S
Tb59 O75 2.326 . S
Tb59 O77 2.500 . S
Tb59 O78 2.473 . S
Tb59 O81 2.324 . S
Eu60 O64 2.292 . S
Eu60 C65 2.852 . S
Eu60 O76 2.324 . S
Eu60 O80 2.326 . S
Eu60 O82 2.500 . S
Eu60 O83 2.473 . S
C61 O58 1.255 . S
C61 O62 1.247 . S
O62 C61 1.247 . S
C63 O75 1.242 . S
C63 O76 1.258 . S
O64 Eu60 2.292 . S
O64 C66 1.255 . S
C65 Eu60 2.852 . S
C65 C69 1.503 . S
C65 O82 1.273 . S
C65 O83 1.257 . S
C66 O64 1.255 . S
C66 O67 1.247 . S
O67 C66 1.247 . S
C68 O80 1.242 . S
C68 O81 1.258 . S
C69 C65 1.503 . S
C69 C70 1.379 . S
C69 C74 1.392 . S
C70 C69 1.379 . S
C70 C71 1.404 . S
C70 H84 0.929 . S
C71 C70 1.404 . S
C71 C72 1.389 . S
C72 C71 1.389 . S
C72 C73 1.399 . S
C72 H85 0.931 . S
C73 C72 1.399 . S
C73 C74 1.390 . S
C74 C69 1.392 . S
C74 C73 1.390 . S
C74 H86 0.929 . S
O75 Tb59 2.326 . S
O75 C63 1.242 . S
O76 Eu60 2.324 . S
O76 C63 1.258 . S
O77 Tb59 2.500 . S
O77 C79 1.273 . S
O78 Tb59 2.473 . S
O78 C79 1.257 . S
C79 O77 1.273 . S
C79 O78 1.257 . S
O80 Eu60 2.326 . S
O80 C68 1.242 . S
O81 Tb59 2.324 . S
O81 C68 1.258 . S
O82 Eu60 2.500 . S
O82 C65 1.273 . S
O83 Eu60 2.473 . S
O83 C65 1.257 . S
H84 C70 0.929 . S
H85 C72 0.931 . S
H86 C74 0.929 . S
O87 Tb88 2.292 . S
O87 C90 1.255 . S
Tb88 O87 2.292 . S
Tb88 O104 2.326 . S
Tb88 O106 2.500 . S
Tb88 O107 2.473 . S
Tb88 O110 2.324 . S
Eu89 O93 2.292 . S
Eu89 C94 2.852 . S
Eu89 O105 2.324 . S
Eu89 O109 2.326 . S
Eu89 O111 2.500 . S
Eu89 O112 2.473 . S
C90 O87 1.255 . S
C90 O91 1.247 . S
O91 C90 1.247 . S
C92 O104 1.242 . S
C92 O105 1.258 . S
O93 Eu89 2.292 . S
O93 C95 1.255 . S
C94 Eu89 2.852 . S
C94 C98 1.503 . S
C94 O111 1.273 . S
C94 O112 1.257 . S
C95 O93 1.255 . S
C95 O96 1.247 . S
O96 C95 1.247 . S
C97 O109 1.242 . S
C97 O110 1.258 . S
C98 C94 1.503 . S
C98 C99 1.379 . S
C98 C103 1.392 1_455 S
C99 C98 1.379 . S
C99 C100 1.404 . S
C99 H113 0.929 . S
C100 C99 1.404 . S
C100 C101 1.389 1_455 S
C101 C100 1.389 1_655 S
C101 C102 1.399 . S
C101 H114 0.931 . S
C102 C101 1.399 . S
C102 C103 1.390 . S
C103 C98 1.392 1_655 S
C103 C102 1.390 . S
C103 H115 0.929 . S
O104 Tb88 2.326 . S
O104 C92 1.242 . S
O105 Eu89 2.324 . S
O105 C92 1.258 . S
O106 Tb88 2.500 . S
O106 C108 1.273 . S
O107 Tb88 2.473 . S
O107 C108 1.257 . S
C108 O106 1.273 . S
C108 O107 1.257 . S
O109 Eu89 2.326 . S
O109 C97 1.242 . S
O110 Tb88 2.324 . S
O110 C97 1.258 . S
O111 Eu89 2.500 . S
O111 C94 1.273 . S
O112 Eu89 2.473 . S
O112 C94 1.257 . S
H113 C99 0.929 . S
H114 C101 0.931 . S
H115 C103 0.929 . S
O116 Tb117 2.292 . S
O116 C119 1.255 . S
Tb117 O116 2.292 . S
Tb117 O133 2.326 . S
Tb117 O135 2.500 . S
Tb117 O136 2.473 . S
Tb117 O139 2.324 . S
Eu118 O122 2.292 . S
Eu118 C123 2.852 . S
Eu118 O134 2.324 . S
Eu118 O138 2.326 . S
Eu118 O140 2.500 . S
Eu118 O141 2.473 . S
C119 O116 1.255 . S
C119 O120 1.247 . S
O120 C119 1.247 . S
C121 O133 1.242 . S
C121 O134 1.258 . S
O122 Eu118 2.292 . S
O122 C124 1.255 . S
C123 Eu118 2.852 . S
C123 C127 1.503 . S
C123 O140 1.273 . S
C123 O141 1.257 . S
C124 O122 1.255 . S
C124 O125 1.247 . S
O125 C124 1.247 . S
C126 O138 1.242 . S
C126 O139 1.258 . S
C127 C123 1.503 . S
C127 C128 1.379 . S
C127 C132 1.392 1_565 S
C128 C127 1.379 . S
C128 C129 1.404 . S
C128 H142 0.929 . S
C129 C128 1.404 . S
C129 C130 1.389 1_565 S
C130 C129 1.389 1_545 S
C130 C131 1.399 . S
C130 H143 0.931 . S
C131 C130 1.399 . S
C131 C132 1.390 . S
C132 C127 1.392 1_545 S
C132 C131 1.390 . S
C132 H144 0.929 . S
O133 Tb117 2.326 . S
O133 C121 1.242 . S
O134 Eu118 2.324 . S
O134 C121 1.258 . S
O135 Tb117 2.500 . S
O135 C137 1.273 . S
O136 Tb117 2.473 . S
O136 C137 1.257 . S
C137 O135 1.273 . S
C137 O136 1.257 . S
O138 Eu118 2.326 . S
O138 C126 1.242 . S
O139 Tb117 2.324 . S
O139 C126 1.258 . S
O140 Eu118 2.500 . S
O140 C123 1.273 . S
O141 Eu118 2.473 . S
O141 C123 1.257 . S
H142 C128 0.929 . S
H143 C130 0.931 . S
H144 C132 0.929 . S
O145 Tb146 2.292 . S
O145 C148 1.255 . S
Tb146 O145 2.292 . S
Tb146 O162 2.326 . S
Tb146 O164 2.500 . S
Tb146 O165 2.473 . S
Tb146 O168 2.324 . S
Eu147 O151 2.292 . S
Eu147 C152 2.852 . S
Eu147 O163 2.324 . S
Eu147 O167 2.326 . S
Eu147 O169 2.500 . S
Eu147 O170 2.473 . S
C148 O145 1.255 . S
C148 O149 1.247 . S
O149 C148 1.247 . S
C150 O162 1.242 . S
C150 O163 1.258 . S
O151 Eu147 2.292 . S
O151 C153 1.255 . S
C152 Eu147 2.852 . S
C152 C156 1.503 . S
C152 O169 1.273 . S
C152 O170 1.257 . S
C153 O151 1.255 . S
C153 O154 1.247 . S
O154 C153 1.247 . S
C155 O167 1.242 . S
C155 O168 1.258 . S
C156 C152 1.503 . S
C156 C157 1.379 . S
C156 C161 1.392 . S
C157 C156 1.379 . S
C157 C158 1.404 . S
C157 H171 0.929 . S
C158 C157 1.404 . S
C158 C159 1.389 . S
C159 C158 1.389 . S
C159 C160 1.399 . S
C159 H172 0.931 . S
C160 C159 1.399 . S
C160 C161 1.390 . S
C161 C156 1.392 . S
C161 C160 1.390 . S
C161 H173 0.929 . S
O162 Tb146 2.326 . S
O162 C150 1.242 . S
O163 Eu147 2.324 . S
O163 C150 1.258 . S
O164 Tb146 2.500 . S
O164 C166 1.273 . S
O165 Tb146 2.473 . S
O165 C166 1.257 . S
C166 O164 1.273 . S
C166 O165 1.257 . S
O167 Eu147 2.326 . S
O167 C155 1.242 . S
O168 Tb146 2.324 . S
O168 C155 1.258 . S
O169 Eu147 2.500 . S
O169 C152 1.273 . S
O170 Eu147 2.473 . S
O170 C152 1.257 . S
H171 C157 0.929 . S
H172 C159 0.931 . S
H173 C161 0.929 . S
O174 Tb175 2.292 . S
O174 C177 1.255 . S
Tb175 O174 2.292 . S
Tb175 O191 2.326 . S
Tb175 O193 2.500 . S
Tb175 O194 2.473 . S
Tb175 O197 2.324 . S
Eu176 O180 2.292 . S
Eu176 C181 2.852 . S
Eu176 O192 2.324 . S
Eu176 O196 2.326 . S
Eu176 O198 2.500 . S
Eu176 O199 2.473 . S
C177 O174 1.255 . S
C177 O178 1.247 . S
O178 C177 1.247 . S
C179 O191 1.242 . S
C179 O192 1.258 . S
O180 Eu176 2.292 . S
O180 C182 1.255 . S
C181 Eu176 2.852 . S
C181 C185 1.503 . S
C181 O198 1.273 . S
C181 O199 1.257 . S
C182 O180 1.255 . S
C182 O183 1.247 . S
O183 C182 1.247 . S
C184 O196 1.242 . S
C184 O197 1.258 . S
C185 C181 1.503 . S
C185 C186 1.379 . S
C185 C190 1.392 . S
C186 C185 1.379 . S
C186 C187 1.404 . S
C186 H200 0.929 . S
C187 C186 1.404 . S
C187 C188 1.389 . S
C188 C187 1.389 . S
C188 C189 1.399 . S
C188 H201 0.931 . S
C189 C188 1.399 . S
C189 C190 1.390 . S
C190 C185 1.392 . S
C190 C189 1.390 . S
C190 H202 0.929 . S
O191 Tb175 2.326 . S
O191 C179 1.242 . S
O192 Eu176 2.324 . S
O192 C179 1.258 . S
O193 Tb175 2.500 . S
O193 C195 1.273 . S
O194 Tb175 2.473 . S
O194 C195 1.257 . S
C195 O193 1.273 . S
C195 O194 1.257 . S
O196 Eu176 2.326 . S
O196 C184 1.242 . S
O197 Tb175 2.324 . S
O197 C184 1.258 . S
O198 Eu176 2.500 . S
O198 C181 1.273 . S
O199 Eu176 2.473 . S
O199 C181 1.257 . S
H200 C186 0.929 . S
H201 C188 0.931 . S
H202 C190 0.929 . S
O203 Tb204 2.292 . S
O203 C206 1.255 . S
Tb204 O203 2.292 . S
Tb204 O220 2.326 . S
Tb204 O222 2.500 . S
Tb204 O223 2.473 . S
Tb204 O226 2.324 . S
Eu205 O209 2.292 . S
Eu205 C210 2.852 . S
Eu205 O221 2.324 . S
Eu205 O225 2.326 . S
Eu205 O227 2.500 . S
Eu205 O228 2.473 . S
C206 O203 1.255 . S
C206 O207 1.247 . S
O207 C206 1.247 . S
C208 O220 1.242 . S
C208 O221 1.258 . S
O209 Eu205 2.292 . S
O209 C211 1.255 . S
C210 Eu205 2.852 . S
C210 C214 1.503 . S
C210 O227 1.273 . S
C210 O228 1.257 . S
C211 O209 1.255 . S
C211 O212 1.247 . S
O212 C211 1.247 . S
C213 O225 1.242 . S
C213 O226 1.258 . S
C214 C210 1.503 . S
C214 C215 1.379 . S
C214 C219 1.392 1_655 S
C215 C214 1.379 . S
C215 C216 1.404 . S
C215 H229 0.929 . S
C216 C215 1.404 . S
C216 C217 1.389 1_655 S
C217 C216 1.389 1_455 S
C217 C218 1.399 . S
C217 H230 0.931 . S
C218 C217 1.399 . S
C218 C219 1.390 . S
C219 C214 1.392 1_455 S
C219 C218 1.390 . S
C219 H231 0.929 . S
O220 Tb204 2.326 . S
O220 C208 1.242 . S
O221 Eu205 2.324 . S
O221 C208 1.258 . S
O222 Tb204 2.500 . S
O222 C224 1.273 . S
O223 Tb204 2.473 . S
O223 C224 1.257 . S
C224 O222 1.273 . S
C224 O223 1.257 . S
O225 Eu205 2.326 . S
O225 C213 1.242 . S
O226 Tb204 2.324 . S
O226 C213 1.258 . S
O227 Eu205 2.500 . S
O227 C210 1.273 . S
O228 Eu205 2.473 . S
O228 C210 1.257 . S
H229 C215 0.929 . S
H230 C217 0.931 . S
H231 C219 0.929 . S
O232 Tb233 2.292 . S
O232 C235 1.255 . S
Tb233 O232 2.292 . S
Tb233 O249 2.326 . S
Tb233 O251 2.500 . S
Tb233 O252 2.473 . S
Tb233 O255 2.324 . S
Eu234 O238 2.292 . S
Eu234 C239 2.852 . S
Eu234 O250 2.324 . S
Eu234 O254 2.326 . S
Eu234 O256 2.500 . S
Eu234 O257 2.473 . S
C235 O232 1.255 . S
C235 O236 1.247 . S
O236 C235 1.247 . S
C237 O249 1.242 . S
C237 O250 1.258 . S
O238 Eu234 2.292 . S
O238 C240 1.255 . S
C239 Eu234 2.852 . S
C239 C243 1.503 . S
C239 O256 1.273 . S
C239 O257 1.257 . S
C240 O238 1.255 . S
C240 O241 1.247 . S
O241 C240 1.247 . S
C242 O254 1.242 . S
C242 O255 1.258 . S
C243 C239 1.503 . S
C243 C244 1.379 . S
C243 C248 1.392 1_565 S
C244 C243 1.379 . S
C244 C245 1.404 . S
C244 H258 0.929 . S
C245 C244 1.404 . S
C245 C246 1.389 1_565 S
C246 C245 1.389 1_545 S
C246 C247 1.399 . S
C246 H259 0.931 . S
C247 C246 1.399 . S
C247 C248 1.390 . S
C248 C243 1.392 1_545 S
C248 C247 1.390 . S
C248 H260 0.929 . S
O249 Tb233 2.326 . S
O249 C237 1.242 . S
O250 Eu234 2.324 . S
O250 C237 1.258 . S
O251 Tb233 2.500 . S
O251 C253 1.273 . S
O252 Tb233 2.473 . S
O252 C253 1.257 . S
C253 O251 1.273 . S
C253 O252 1.257 . S
O254 Eu234 2.326 . S
O254 C242 1.242 . S
O255 Tb233 2.324 . S
O255 C242 1.258 . S
O256 Eu234 2.500 . S
O256 C239 1.273 . S
O257 Eu234 2.473 . S
O257 C239 1.257 . S
H258 C244 0.929 . S
H259 C246 0.931 . S
H260 C248 0.929 . S
O261 Tb262 2.292 . S
O261 C264 1.255 . S
Tb262 O261 2.292 . S
Tb262 O278 2.326 . S
Tb262 O280 2.500 . S
Tb262 O281 2.473 . S
Tb262 O284 2.324 . S
Eu263 O267 2.292 . S
Eu263 C268 2.852 . S
Eu263 O279 2.324 . S
Eu263 O283 2.326 . S
Eu263 O285 2.500 . S
Eu263 O286 2.473 . S
C264 O261 1.255 . S
C264 O265 1.247 . S
O265 C264 1.247 . S
C266 O278 1.242 . S
C266 O279 1.258 . S
O267 Eu263 2.292 . S
O267 C269 1.255 . S
C268 Eu263 2.852 . S
C268 C272 1.503 . S
C268 O285 1.273 . S
C268 O286 1.257 . S
C269 O267 1.255 . S
C269 O270 1.247 . S
O270 C269 1.247 . S
C271 O283 1.242 . S
C271 O284 1.258 . S
C272 C268 1.503 . S
C272 C273 1.379 . S
C272 C277 1.392 . S
C273 C272 1.379 . S
C273 C274 1.404 . S
C273 H287 0.929 . S
C274 C273 1.404 . S
C274 C275 1.389 . S
C275 C274 1.389 . S
C275 C276 1.399 . S
C275 H288 0.931 . S
C276 C275 1.399 . S
C276 C277 1.390 . S
C277 C272 1.392 . S
C277 C276 1.390 . S
C277 H289 0.929 . S
O278 Tb262 2.326 . S
O278 C266 1.242 . S
O279 Eu263 2.324 . S
O279 C266 1.258 . S
O280 Tb262 2.500 . S
O280 C282 1.273 . S
O281 Tb262 2.473 . S
O281 C282 1.257 . S
C282 O280 1.273 . S
C282 O281 1.257 . S
O283 Eu263 2.326 . S
O283 C271 1.242 . S
O284 Tb262 2.324 . S
O284 C271 1.258 . S
O285 Eu263 2.500 . S
O285 C268 1.273 . S
O286 Eu263 2.473 . S
O286 C268 1.257 . S
H287 C273 0.929 . S
H288 C275 0.931 . S
H289 C277 0.929 . S
O290 Tb291 2.292 . S
O290 C293 1.255 . S
Tb291 O290 2.292 . S
Tb291 O307 2.326 . S
Tb291 O309 2.500 . S
Tb291 O310 2.473 . S
Tb291 O313 2.324 . S
Eu292 O296 2.292 . S
Eu292 C297 2.852 . S
Eu292 O308 2.324 . S
Eu292 O312 2.326 . S
Eu292 O314 2.500 . S
Eu292 O315 2.473 . S
C293 O290 1.255 . S
C293 O294 1.247 . S
O294 C293 1.247 . S
C295 O307 1.242 . S
C295 O308 1.258 . S
O296 Eu292 2.292 . S
O296 C298 1.255 . S
C297 Eu292 2.852 . S
C297 C301 1.503 . S
C297 O314 1.273 . S
C297 O315 1.257 . S
C298 O296 1.255 . S
C298 O299 1.247 . S
O299 C298 1.247 . S
C300 O312 1.242 . S
C300 O313 1.258 . S
C301 C297 1.503 . S
C301 C302 1.379 . S
C301 C306 1.392 . S
C302 C301 1.379 . S
C302 C303 1.404 . S
C302 H316 0.929 . S
C303 C302 1.404 . S
C303 C304 1.389 . S
C304 C303 1.389 . S
C304 C305 1.399 . S
C304 H317 0.931 . S
C305 C304 1.399 . S
C305 C306 1.390 . S
C306 C301 1.392 . S
C306 C305 1.390 . S
C306 H318 0.929 . S
O307 Tb291 2.326 . S
O307 C295 1.242 . S
O308 Eu292 2.324 . S
O308 C295 1.258 . S
O309 Tb291 2.500 . S
O309 C311 1.273 . S
O310 Tb291 2.473 . S
O310 C311 1.257 . S
C311 O309 1.273 . S
C311 O310 1.257 . S
O312 Eu292 2.326 . S
O312 C300 1.242 . S
O313 Tb291 2.324 . S
O313 C300 1.258 . S
O314 Eu292 2.500 . S
O314 C297 1.273 . S
O315 Eu292 2.473 . S
O315 C297 1.257 . S
H316 C302 0.929 . S
H317 C304 0.931 . S
H318 C306 0.929 . S
O319 Tb320 2.292 . S
O319 C322 1.255 . S
Tb320 O319 2.292 . S
Tb320 O336 2.326 . S
Tb320 O338 2.500 . S
Tb320 O339 2.473 . S
Tb320 O342 2.324 . S
Eu321 O325 2.292 . S
Eu321 C326 2.852 . S
Eu321 O337 2.324 . S
Eu321 O341 2.326 . S
Eu321 O343 2.500 . S
Eu321 O344 2.473 . S
C322 O319 1.255 . S
C322 O323 1.247 . S
O323 C322 1.247 . S
C324 O336 1.242 . S
C324 O337 1.258 . S
O325 Eu321 2.292 . S
O325 C327 1.255 . S
C326 Eu321 2.852 . S
C326 C330 1.503 . S
C326 O343 1.273 . S
C326 O344 1.257 . S
C327 O325 1.255 . S
C327 O328 1.247 . S
O328 C327 1.247 . S
C329 O341 1.242 . S
C329 O342 1.258 . S
C330 C326 1.503 . S
C330 C331 1.379 . S
C330 C335 1.392 1_655 S
C331 C330 1.379 . S
C331 C332 1.404 . S
C331 H345 0.929 . S
C332 C331 1.404 . S
C332 C333 1.389 1_655 S
C333 C332 1.389 1_455 S
C333 C334 1.399 . S
C333 H346 0.931 . S
C334 C333 1.399 . S
C334 C335 1.390 . S
C335 C330 1.392 1_455 S
C335 C334 1.390 . S
C335 H347 0.929 . S
O336 Tb320 2.326 . S
O336 C324 1.242 . S
O337 Eu321 2.324 . S
O337 C324 1.258 . S
O338 Tb320 2.500 . S
O338 C340 1.273 . S
O339 Tb320 2.473 . S
O339 C340 1.257 . S
C340 O338 1.273 . S
C340 O339 1.257 . S
O341 Eu321 2.326 . S
O341 C329 1.242 . S
O342 Tb320 2.324 . S
O342 C329 1.258 . S
O343 Eu321 2.500 . S
O343 C326 1.273 . S
O344 Eu321 2.473 . S
O344 C326 1.257 . S
H345 C331 0.929 . S
H346 C333 0.931 . S
H347 C335 0.929 . S
O348 Tb349 2.292 . S
O348 C351 1.255 . S
Tb349 O348 2.292 . S
Tb349 O365 2.326 . S
Tb349 O367 2.500 . S
Tb349 O368 2.473 . S
Tb349 O371 2.324 . S
Eu350 O354 2.292 . S
Eu350 C355 2.852 . S
Eu350 O366 2.324 . S
Eu350 O370 2.326 . S
Eu350 O372 2.500 . S
Eu350 O373 2.473 . S
C351 O348 1.255 . S
C351 O352 1.247 . S
O352 C351 1.247 . S
C353 O365 1.242 . S
C353 O366 1.258 . S
O354 Eu350 2.292 . S
O354 C356 1.255 . S
C355 Eu350 2.852 . S
C355 C359 1.503 . S
C355 O372 1.273 . S
C355 O373 1.257 . S
C356 O354 1.255 . S
C356 O357 1.247 . S
O357 C356 1.247 . S
C358 O370 1.242 . S
C358 O371 1.258 . S
C359 C355 1.503 . S
C359 C360 1.379 . S
C359 C364 1.392 1_545 S
C360 C359 1.379 . S
C360 C361 1.404 . S
C360 H374 0.929 . S
C361 C360 1.404 . S
C361 C362 1.389 1_545 S
C362 C361 1.389 1_565 S
C362 C363 1.399 . S
C362 H375 0.931 . S
C363 C362 1.399 . S
C363 C364 1.390 . S
C364 C359 1.392 1_565 S
C364 C363 1.390 . S
C364 H376 0.929 . S
O365 Tb349 2.326 . S
O365 C353 1.242 . S
O366 Eu350 2.324 . S
O366 C353 1.258 . S
O367 Tb349 2.500 . S
O367 C369 1.273 . S
O368 Tb349 2.473 . S
O368 C369 1.257 . S
C369 O367 1.273 . S
C369 O368 1.257 . S
O370 Eu350 2.326 . S
O370 C358 1.242 . S
O371 Tb349 2.324 . S
O371 C358 1.258 . S
O372 Eu350 2.500 . S
O372 C355 1.273 . S
O373 Eu350 2.473 . S
O373 C355 1.257 . S
H374 C360 0.929 . S
H375 C362 0.931 . S
H376 C364 0.929 . S
O377 Tb378 2.292 . S
O377 C380 1.255 . S
Tb378 O377 2.292 . S
Tb378 O394 2.326 . S
Tb378 O396 2.500 . S
Tb378 O397 2.473 . S
Tb378 O400 2.324 . S
Eu379 O383 2.292 . S
Eu379 C384 2.852 . S
Eu379 O395 2.324 . S
Eu379 O399 2.326 . S
Eu379 O401 2.500 . S
Eu379 O402 2.473 . S
C380 O377 1.255 . S
C380 O381 1.247 . S
O381 C380 1.247 . S
C382 O394 1.242 . S
C382 O395 1.258 . S
O383 Eu379 2.292 . S
O383 C385 1.255 . S
C384 Eu379 2.852 . S
C384 C388 1.503 . S
C384 O401 1.273 . S
C384 O402 1.257 . S
C385 O383 1.255 . S
C385 O386 1.247 . S
O386 C385 1.247 . S
C387 O399 1.242 . S
C387 O400 1.258 . S
C388 C384 1.503 . S
C388 C389 1.379 . S
C388 C393 1.392 . S
C389 C388 1.379 . S
C389 C390 1.404 . S
C389 H403 0.929 . S
C390 C389 1.404 . S
C390 C391 1.389 . S
C391 C390 1.389 . S
C391 C392 1.399 . S
C391 H404 0.931 . S
C392 C391 1.399 . S
C392 C393 1.390 . S
C393 C388 1.392 . S
C393 C392 1.390 . S
C393 H405 0.929 . S
O394 Tb378 2.326 . S
O394 C382 1.242 . S
O395 Eu379 2.324 . S
O395 C382 1.258 . S
O396 Tb378 2.500 . S
O396 C398 1.273 . S
O397 Tb378 2.473 . S
O397 C398 1.257 . S
C398 O396 1.273 . S
C398 O397 1.257 . S
O399 Eu379 2.326 . S
O399 C387 1.242 . S
O400 Tb378 2.324 . S
O400 C387 1.258 . S
O401 Eu379 2.500 . S
O401 C384 1.273 . S
O402 Eu379 2.473 . S
O402 C384 1.257 . S
H403 C389 0.929 . S
H404 C391 0.931 . S
H405 C393 0.929 . S
O406 Tb407 2.292 . S
O406 C409 1.255 . S
Tb407 O406 2.292 . S
Tb407 O423 2.326 . S
Tb407 O425 2.500 . S
Tb407 O426 2.473 . S
Tb407 O429 2.324 . S
Eu408 O412 2.292 . S
Eu408 C413 2.852 . S
Eu408 O424 2.324 . S
Eu408 O428 2.326 . S
Eu408 O430 2.500 . S
Eu408 O431 2.473 . S
C409 O406 1.255 . S
C409 O410 1.247 . S
O410 C409 1.247 . S
C411 O423 1.242 . S
C411 O424 1.258 . S
O412 Eu408 2.292 . S
O412 C414 1.255 . S
C413 Eu408 2.852 . S
C413 C417 1.503 . S
C413 O430 1.273 . S
C413 O431 1.257 . S
C414 O412 1.255 . S
C414 O415 1.247 . S
O415 C414 1.247 . S
C416 O428 1.242 . S
C416 O429 1.258 . S
C417 C413 1.503 . S
C417 C418 1.379 . S
C417 C422 1.392 . S
C418 C417 1.379 . S
C418 C419 1.404 . S
C418 H432 0.929 . S
C419 C418 1.404 . S
C419 C420 1.389 . S
C420 C419 1.389 . S
C420 C421 1.399 . S
C420 H433 0.931 . S
C421 C420 1.399 . S
C421 C422 1.390 . S
C422 C417 1.392 . S
C422 C421 1.390 . S
C422 H434 0.929 . S
O423 Tb407 2.326 . S
O423 C411 1.242 . S
O424 Eu408 2.324 . S
O424 C411 1.258 . S
O425 Tb407 2.500 . S
O425 C427 1.273 . S
O426 Tb407 2.473 . S
O426 C427 1.257 . S
C427 O425 1.273 . S
C427 O426 1.257 . S
O428 Eu408 2.326 . S
O428 C416 1.242 . S
O429 Tb407 2.324 . S
O429 C416 1.258 . S
O430 Eu408 2.500 . S
O430 C413 1.273 . S
O431 Eu408 2.473 . S
O431 C413 1.257 . S
H432 C418 0.929 . S
H433 C420 0.931 . S
H434 C422 0.929 . S
O435 Tb436 2.292 . S
O435 C438 1.255 . S
Tb436 O435 2.292 . S
Tb436 O452 2.326 . S
Tb436 O454 2.500 . S
Tb436 O455 2.473 . S
Tb436 O458 2.324 . S
Eu437 O441 2.292 . S
Eu437 C442 2.852 . S
Eu437 O453 2.324 . S
Eu437 O457 2.326 . S
Eu437 O459 2.500 . S
Eu437 O460 2.473 . S
C438 O435 1.255 . S
C438 O439 1.247 . S
O439 C438 1.247 . S
C440 O452 1.242 . S
C440 O453 1.258 . S
O441 Eu437 2.292 . S
O441 C443 1.255 . S
C442 Eu437 2.852 . S
C442 C446 1.503 . S
C442 O459 1.273 . S
C442 O460 1.257 . S
C443 O441 1.255 . S
C443 O444 1.247 . S
O444 C443 1.247 . S
C445 O457 1.242 . S
C445 O458 1.258 . S
C446 C442 1.503 . S
C446 C447 1.379 . S
C446 C451 1.392 1_455 S
C447 C446 1.379 . S
C447 C448 1.404 . S
C447 H461 0.929 . S
C448 C447 1.404 . S
C448 C449 1.389 1_455 S
C449 C448 1.389 1_655 S
C449 C450 1.399 . S
C449 H462 0.931 . S
C450 C449 1.399 . S
C450 C451 1.390 . S
C451 C446 1.392 1_655 S
C451 C450 1.390 . S
C451 H463 0.929 . S
O452 Tb436 2.326 . S
O452 C440 1.242 . S
O453 Eu437 2.324 . S
O453 C440 1.258 . S
O454 Tb436 2.500 . S
O454 C456 1.273 . S
O455 Tb436 2.473 . S
O455 C456 1.257 . S
C456 O454 1.273 . S
C456 O455 1.257 . S
O457 Eu437 2.326 . S
O457 C445 1.242 . S
O458 Tb436 2.324 . S
O458 C445 1.258 . S
O459 Eu437 2.500 . S
O459 C442 1.273 . S
O460 Eu437 2.473 . S
O460 C442 1.257 . S
H461 C447 0.929 . S
H462 C449 0.931 . S
H463 C451 0.929 . S
H464 C482 0.951 . S
H465 C484 0.951 . S
H466 C486 0.950 . S
H467 C487 0.950 . S
H468 C489 0.950 . S
H469 C492 0.931 1_565 S
H470 C493 0.950 . S
H471 C495 0.950 . S
H472 C496 0.950 . S
H473 C497 0.951 . S
H474 C499 0.951 . S
H475 C501 0.950 . S
H476 C502 0.950 . S
H477 C504 0.950 . S
H478 C507 0.931 1_545 S
H479 C508 0.950 . S
H480 C510 0.950 . S
H481 C511 0.950 . S
C482 H464 0.951 . S
C482 C483 1.366 1_545 S
C482 C484 1.388 . S
C483 C482 1.366 1_565 S
C483 C487 1.385 . S
C484 H465 0.951 . S
C484 C482 1.388 . S
C484 C485 1.366 1_545 S
C485 C484 1.366 1_565 S
C485 C486 1.414 . S
C485 C488 1.499 . S
C486 H466 0.950 . S
C486 C485 1.414 . S
C486 C487 1.374 . S
C487 H467 0.950 . S
C487 C483 1.385 . S
C487 C486 1.374 . S
C488 C485 1.499 . S
C488 C489 1.373 1_556 S
C488 C490 1.389 1_565 S
C489 H468 0.950 . S
C489 C488 1.373 1_554 S
C489 C505 1.377 . S
C490 C488 1.389 1_545 S
C490 C491 1.524 . S
C490 C504 1.377 . S
C491 C490 1.524 . S
C491 C492 1.397 . S
C491 C496 1.363 . S
C492 H469 0.931 1_545 S
C492 C491 1.397 . S
C492 C493 1.334 . S
C493 H470 0.950 . S
C493 C492 1.334 . S
C493 C494 1.287 . S
C494 C493 1.287 . S
C494 C495 1.524 . S
C494 H513 0.913 . S
C495 H471 0.950 . S
C495 C494 1.524 . S
C495 C496 1.415 . S
C496 H472 0.950 . S
C496 C491 1.363 . S
C496 C495 1.415 . S
C497 H473 0.951 . S
C497 C498 1.366 1_565 S
C497 C499 1.388 . S
C498 C497 1.366 1_545 S
C498 C502 1.385 . S
C499 H474 0.951 . S
C499 C497 1.388 . S
C499 C500 1.366 1_565 S
C500 C499 1.366 1_545 S
C500 C501 1.414 . S
C500 C503 1.499 . S
C501 H475 0.950 . S
C501 C500 1.414 . S
C501 C502 1.374 . S
C502 H476 0.950 . S
C502 C498 1.385 . S
C502 C501 1.374 . S
C503 C500 1.499 . S
C503 C504 1.373 1_554 S
C503 C505 1.389 1_545 S
C504 H477 0.950 . S
C504 C490 1.377 . S
C504 C503 1.373 1_556 S
C505 C489 1.377 . S
C505 C503 1.389 1_565 S
C505 C506 1.524 . S
C506 C505 1.524 . S
C506 C507 1.397 . S
C506 C511 1.363 . S
C507 H478 0.931 1_565 S
C507 C506 1.397 . S
C507 C508 1.334 . S
C508 H479 0.950 . S
C508 C507 1.334 . S
C508 C509 1.287 . S
C509 C508 1.287 . S
C509 C510 1.524 . S
C509 H512 0.999 . S
C510 H480 0.950 . S
C510 C509 1.524 . S
C510 C511 1.415 . S
C511 H481 0.950 . S
C511 C506 1.363 . S
C511 C510 1.415 . S
H512 C509 0.999 . S
H513 C494 0.913 . S
H514 C532 0.951 . S
H515 C534 0.951 . S
H516 C536 0.950 . S
H517 C537 0.950 . S
H518 C539 0.950 . S
H519 C542 0.950 . S
H520 C543 0.950 . S
H521 C545 0.950 . S
H522 C546 0.950 . S
H523 C547 0.951 . S
H524 C549 0.951 . S
H525 C551 0.950 . S
H526 C552 0.950 . S
H527 C554 0.950 . S
H528 C557 0.950 . S
H529 C558 0.950 . S
H530 C560 0.950 . S
H531 C561 0.950 . S
C532 H514 0.951 . S
C532 C533 1.366 . S
C532 C534 1.388 . S
C533 C532 1.366 . S
C533 C537 1.385 . S
C534 H515 0.951 . S
C534 C532 1.388 . S
C534 C535 1.366 . S
C535 C534 1.366 . S
C535 C536 1.414 . S
C535 C538 1.499 . S
C536 H516 0.950 . S
C536 C535 1.414 . S
C536 C537 1.374 . S
C537 H517 0.950 . S
C537 C533 1.385 . S
C537 C536 1.374 . S
C538 C535 1.499 . S
C538 C539 1.373 1_554 S
C538 C540 1.389 . S
C539 H518 0.950 . S
C539 C538 1.373 1_556 S
C539 C555 1.377 . S
C540 C538 1.389 . S
C540 C541 1.524 . S
C540 C554 1.377 . S
C541 C540 1.524 . S
C541 C542 1.397 . S
C541 C546 1.363 . S
C542 H519 0.950 . S
C542 C541 1.397 . S
C542 C543 1.334 . S
C543 H520 0.950 . S
C543 C542 1.334 . S
C543 C544 1.287 . S
C544 C543 1.287 . S
C544 C545 1.524 . S
C544 H563 0.913 . S
C545 H521 0.950 . S
C545 C544 1.524 . S
C545 C546 1.415 . S
C546 H522 0.950 . S
C546 C541 1.363 . S
C546 C545 1.415 . S
C547 H523 0.951 . S
C547 C548 1.366 . S
C547 C549 1.388 . S
C548 C547 1.366 . S
C548 C552 1.385 . S
C549 H524 0.951 . S
C549 C547 1.388 . S
C549 C550 1.366 . S
C550 C549 1.366 . S
C550 C551 1.414 . S
C550 C553 1.499 . S
C551 H525 0.950 . S
C551 C550 1.414 . S
C551 C552 1.374 . S
C552 H526 0.950 . S
C552 C548 1.385 . S
C552 C551 1.374 . S
C553 C550 1.499 . S
C553 C554 1.373 1_556 S
C553 C555 1.389 . S
C554 H527 0.950 . S
C554 C540 1.377 . S
C554 C553 1.373 1_554 S
C555 C539 1.377 . S
C555 C553 1.389 . S
C555 C556 1.524 . S
C556 C555 1.524 . S
C556 C557 1.397 . S
C556 C561 1.363 . S
C557 H528 0.950 . S
C557 C556 1.397 . S
C557 C558 1.334 . S
C558 H529 0.950 . S
C558 C557 1.334 . S
C558 C559 1.287 . S
C559 C558 1.287 . S
C559 C560 1.524 . S
C559 H562 0.999 . S
C560 H530 0.950 . S
C560 C559 1.524 . S
C560 C561 1.415 . S
C561 H531 0.950 . S
C561 C556 1.363 . S
C561 C560 1.415 . S
H562 C559 0.999 . S
H563 C544 0.913 . S
H564 C582 0.951 . S
H565 C584 0.951 . S
H566 C586 0.950 . S
H567 C587 0.950 . S
H568 C589 0.950 . S
H569 C592 0.950 . S
H570 C593 0.950 . S
H571 C595 0.963 . S
H572 C596 0.950 1_554 S
H573 C597 0.951 . S
H574 C599 0.951 . S
H575 C601 0.950 . S
H576 C602 0.950 . S
H577 C604 0.950 . S
H578 C607 0.950 . S
H579 C608 0.950 . S
H580 C610 0.963 . S
H581 C611 0.950 1_556 S
C582 H564 0.951 . S
C582 C583 1.366 . S
C582 C584 1.388 . S
C583 C582 1.366 . S
C583 C587 1.385 . S
C584 H565 0.951 . S
C584 C582 1.388 . S
C584 C585 1.366 . S
C585 C584 1.366 . S
C585 C586 1.414 . S
C585 C588 1.499 . S
C586 H566 0.950 . S
C586 C585 1.414 . S
C586 C587 1.374 . S
C587 H567 0.950 . S
C587 C583 1.385 . S
C587 C586 1.374 . S
C588 C585 1.499 . S
C588 C589 1.373 . S
C588 C590 1.389 . S
C589 H568 0.950 . S
C589 C588 1.373 . S
C589 C605 1.377 1_456 S
C590 C588 1.389 . S
C590 C591 1.524 . S
C590 C604 1.377 1_456 S
C591 C590 1.524 . S
C591 C592 1.397 . S
C591 C596 1.363 . S
C592 H569 0.950 . S
C592 C591 1.397 . S
C592 C593 1.334 . S
C593 H570 0.950 . S
C593 C592 1.334 . S
C593 C594 1.287 . S
C594 C593 1.287 . S
C594 C595 1.524 . S
C594 H613 0.913 . S
C595 H571 0.963 . S
C595 C594 1.524 . S
C595 C596 1.415 . S
C596 H572 0.950 1_556 S
C596 C591 1.363 . S
C596 C595 1.415 . S
C597 H573 0.951 . S
C597 C598 1.366 . S
C597 C599 1.388 . S
C598 C597 1.366 . S
C598 C602 1.385 . S
C599 H574 0.951 . S
C599 C597 1.388 . S
C599 C600 1.366 . S
C600 C599 1.366 . S
C600 C601 1.414 . S
C600 C603 1.499 . S
C601 H575 0.950 . S
C601 C600 1.414 . S
C601 C602 1.374 . S
C602 H576 0.950 . S
C602 C598 1.385 . S
C602 C601 1.374 . S
C603 C600 1.499 . S
C603 C604 1.373 . S
C603 C605 1.389 . S
C604 H577 0.950 . S
C604 C590 1.377 1_654 S
C604 C603 1.373 . S
C605 C589 1.377 1_654 S
C605 C603 1.389 . S
C605 C606 1.524 . S
C606 C605 1.524 . S
C606 C607 1.397 . S
C606 C611 1.363 . S
C607 H578 0.950 . S
C607 C606 1.397 . S
C607 C608 1.334 . S
C608 H579 0.950 . S
C608 C607 1.334 . S
C608 C609 1.287 . S
C609 C608 1.287 . S
C609 C610 1.524 . S
C609 H612 0.999 . S
C610 H580 0.963 . S
C610 C609 1.524 . S
C610 C611 1.415 . S
C611 H581 0.950 1_554 S
C611 C606 1.363 . S
C611 C610 1.415 . S
H612 C609 0.999 . S
H613 C594 0.913 . S
H614 C632 0.951 . S
H615 C634 0.951 . S
H616 C636 0.943 1_655 S
H617 C637 0.936 1_655 S
H618 C639 0.950 . S
H619 C642 0.950 1_565 S
H620 C643 0.950 1_565 S
H621 C645 0.967 . S
H622 C646 0.933 1_455 S
H623 C647 0.951 . S
H624 C649 0.951 . S
H625 C651 0.943 1_455 S
H626 C652 0.936 1_455 S
H627 C654 0.950 . S
H628 C657 0.950 1_545 S
H629 C658 0.950 1_545 S
H630 C660 0.967 . S
H631 C661 0.933 1_655 S
C632 H614 0.951 . S
C632 C633 1.366 . S
C632 C634 1.388 . S
C633 C632 1.366 . S
C633 C637 1.385 . S
C634 H615 0.951 . S
C634 C632 1.388 . S
C634 C635 1.366 . S
C635 C634 1.366 . S
C635 C636 1.418 . S
C635 C638 1.499 . S
C636 H616 0.943 1_455 S
C636 C635 1.418 . S
C636 C637 1.376 . S
C637 H617 0.936 1_455 S
C637 C633 1.385 . S
C637 C636 1.376 . S
C638 C635 1.499 . S
C638 C639 1.373 1_554 S
C638 C640 1.389 1_465 S
C639 H618 0.950 . S
C639 C638 1.373 1_556 S
C639 C655 1.377 . S
C640 C638 1.389 1_645 S
C640 C641 1.524 . S
C640 C654 1.377 . S
C641 C640 1.524 . S
C641 C642 1.397 . S
C641 C646 1.373 . S
C642 H619 0.950 1_545 S
C642 C641 1.397 . S
C642 C643 1.334 . S
C643 H620 0.950 1_545 S
C643 C642 1.334 . S
C643 C644 1.287 . S
C644 C643 1.287 . S
C644 C645 1.524 . S
C644 H663 0.913 . S
C645 H621 0.967 . S
C645 C644 1.524 . S
C645 C646 1.422 . S
C646 H622 0.933 1_655 S
C646 C641 1.373 . S
C646 C645 1.422 . S
C647 H623 0.951 . S
C647 C648 1.366 . S
C647 C649 1.388 . S
C648 C647 1.366 . S
C648 C652 1.385 . S
C649 H624 0.951 . S
C649 C647 1.388 . S
C649 C650 1.366 . S
C650 C649 1.366 . S
C650 C651 1.418 . S
C650 C653 1.499 . S
C651 H625 0.943 1_655 S
C651 C650 1.418 . S
C651 C652 1.376 . S
C652 H626 0.936 1_655 S
C652 C648 1.385 . S
C652 C651 1.376 . S
C653 C650 1.499 . S
C653 C654 1.373 1_556 S
C653 C655 1.389 1_645 S
C654 H627 0.950 . S
C654 C640 1.377 . S
C654 C653 1.373 1_554 S
C655 C639 1.377 . S
C655 C653 1.389 1_465 S
C655 C656 1.524 . S
C656 C655 1.524 . S
C656 C657 1.397 . S
C656 C661 1.373 . S
C657 H628 0.950 1_565 S
C657 C656 1.397 . S
C657 C658 1.334 . S
C658 H629 0.950 1_565 S
C658 C657 1.334 . S
C658 C659 1.287 . S
C659 C658 1.287 . S
C659 C660 1.524 . S
C659 H662 0.999 . S
C660 H630 0.967 . S
C660 C659 1.524 . S
C660 C661 1.422 . S
C661 H631 0.933 1_455 S
C661 C656 1.373 . S
C661 C660 1.422 . S
H662 C659 0.999 . S
H663 C644 0.913 . S
H664 C682 0.951 . S
H665 C684 0.951 . S
H666 C686 0.922 1_545 S
H667 C687 0.931 1_545 S
H668 C689 0.950 . S
H669 C692 0.950 1_655 S
H670 C693 0.950 . S
H671 C695 0.950 . S
H672 C696 0.950 . S
H673 C697 0.951 . S
H674 C699 0.951 . S
H675 C701 0.922 1_565 S
H676 C702 0.931 1_565 S
H677 C704 0.950 . S
H678 C707 0.950 1_455 S
H679 C708 0.950 . S
H680 C710 0.950 . S
H681 C711 0.950 . S
C682 H664 0.951 . S
C682 C683 1.366 . S
C682 C684 1.388 . S
C683 C682 1.366 . S
C683 C687 1.385 . S
C684 H665 0.951 . S
C684 C682 1.388 . S
C684 C685 1.366 . S
C685 C684 1.366 . S
C685 C686 1.434 . S
C685 C688 1.499 . S
C686 H666 0.922 1_565 S
C686 C685 1.434 . S
C686 C687 1.384 . S
C687 H667 0.931 1_565 S
C687 C683 1.385 . S
C687 C686 1.384 . S
C688 C685 1.499 . S
C688 C689 1.373 1_565 S
C688 C690 1.389 . S
C689 H668 0.950 . S
C689 C688 1.373 1_545 S
C689 C705 1.377 1_455 S
C690 C688 1.389 . S
C690 C691 1.524 . S
C690 C704 1.377 1_455 S
C691 C690 1.524 . S
C691 C692 1.397 . S
C691 C696 1.363 . S
C692 H669 0.950 1_455 S
C692 C691 1.397 . S
C692 C693 1.334 . S
C693 H670 0.950 . S
C693 C692 1.334 . S
C693 C694 1.287 . S
C694 C693 1.287 . S
C694 C695 1.524 . S
C694 H713 0.913 . S
C695 H671 0.950 . S
C695 C694 1.524 . S
C695 C696 1.415 . S
C696 H672 0.950 . S
C696 C691 1.363 . S
C696 C695 1.415 . S
C697 H673 0.951 . S
C697 C698 1.366 . S
C697 C699 1.388 . S
C698 C697 1.366 . S
C698 C702 1.385 . S
C699 H674 0.951 . S
C699 C697 1.388 . S
C699 C700 1.366 . S
C700 C699 1.366 . S
C700 C701 1.434 . S
C700 C703 1.499 . S
C701 H675 0.922 1_545 S
C701 C700 1.434 . S
C701 C702 1.384 . S
C702 H676 0.931 1_545 S
C702 C698 1.385 . S
C702 C701 1.384 . S
C703 C700 1.499 . S
C703 C704 1.373 1_545 S
C703 C705 1.389 . S
C704 H677 0.950 . S
C704 C690 1.377 1_655 S
C704 C703 1.373 1_565 S
C705 C689 1.377 1_655 S
C705 C703 1.389 . S
C705 C706 1.524 . S
C706 C705 1.524 . S
C706 C707 1.397 . S
C706 C711 1.363 . S
C707 H678 0.950 1_655 S
C707 C706 1.397 . S
C707 C708 1.334 . S
C708 H679 0.950 . S
C708 C707 1.334 . S
C708 C709 1.287 . S
C709 C708 1.287 . S
C709 C710 1.524 . S
C709 H712 0.999 . S
C710 H680 0.950 . S
C710 C709 1.524 . S
C710 C711 1.415 . S
C711 H681 0.950 . S
C711 C706 1.363 . S
C711 C710 1.415 . S
H712 C709 0.999 . S
H713 C694 0.913 . S
H714 C732 0.951 . S
H715 C734 0.951 . S
H716 C736 0.950 . S
H717 C737 0.950 . S
H718 C739 0.950 . S
H719 C742 0.950 . S
H720 C743 0.950 . S
H721 C745 0.950 . S
H722 C746 0.950 . S
H723 C747 0.951 . S
H724 C749 0.951 . S
H725 C751 0.950 . S
H726 C752 0.950 . S
H727 C754 0.950 . S
H728 C757 0.950 . S
H729 C758 0.950 . S
H730 C760 0.950 . S
H731 C761 0.950 . S
C732 H714 0.951 . S
C732 C733 1.366 . S
C732 C734 1.388 . S
C733 C732 1.366 . S
C733 C737 1.385 . S
C734 H715 0.951 . S
C734 C732 1.388 . S
C734 C735 1.366 . S
C735 C734 1.366 . S
C735 C736 1.414 . S
C735 C738 1.499 . S
C736 H716 0.950 . S
C736 C735 1.414 . S
C736 C737 1.374 . S
C737 H717 0.950 . S
C737 C733 1.385 . S
C737 C736 1.374 . S
C738 C735 1.499 . S
C738 C739 1.373 . S
C738 C740 1.389 1_545 S
C739 H718 0.950 . S
C739 C738 1.373 . S
C739 C755 1.377 . S
C740 C738 1.389 1_565 S
C740 C741 1.524 . S
C740 C754 1.377 . S
C741 C740 1.524 . S
C741 C742 1.397 1_565 S
C741 C746 1.363 . S
C742 H719 0.950 . S
C742 C741 1.397 1_545 S
C742 C743 1.334 . S
C743 H720 0.950 . S
C743 C742 1.334 . S
C743 C744 1.287 1_545 S
C744 C743 1.287 1_565 S
C744 C745 1.524 . S
C744 H763 0.913 . S
C745 H721 0.950 . S
C745 C744 1.524 . S
C745 C746 1.415 . S
C746 H722 0.950 . S
C746 C741 1.363 . S
C746 C745 1.415 . S
C747 H723 0.951 . S
C747 C748 1.366 . S
C747 C749 1.388 . S
C748 C747 1.366 . S
C748 C752 1.385 . S
C749 H724 0.951 . S
C749 C747 1.388 . S
C749 C750 1.366 . S
C750 C749 1.366 . S
C750 C751 1.414 . S
C750 C753 1.499 . S
C751 H725 0.950 . S
C751 C750 1.414 . S
C751 C752 1.374 . S
C752 H726 0.950 . S
C752 C748 1.385 . S
C752 C751 1.374 . S
C753 C750 1.499 . S
C753 C754 1.373 . S
C753 C755 1.389 1_565 S
C754 H727 0.950 . S
C754 C740 1.377 . S
C754 C753 1.373 . S
C755 C739 1.377 . S
C755 C753 1.389 1_545 S
C755 C756 1.524 . S
C756 C755 1.524 . S
C756 C757 1.397 1_545 S
C756 C761 1.363 . S
C757 H728 0.950 . S
C757 C756 1.397 1_565 S
C757 C758 1.334 . S
C758 H729 0.950 . S
C758 C757 1.334 . S
C758 C759 1.287 1_565 S
C759 C758 1.287 1_545 S
C759 C760 1.524 . S
C759 H762 0.999 . S
C760 H730 0.950 . S
C760 C759 1.524 . S
C760 C761 1.415 . S
C761 H731 0.950 . S
C761 C756 1.363 . S
C761 C760 1.415 . S
H762 C759 0.999 . S
H763 C744 0.913 . S
H764 C782 0.951 . S
H765 C784 0.951 . S
H766 C786 0.950 . S
H767 C787 0.950 . S
H768 C789 0.950 . S
H769 C792 0.950 . S
H770 C793 0.950 . S
H771 C795 0.950 . S
H772 C796 0.950 . S
H773 C797 0.951 . S
H774 C799 0.951 . S
H775 C801 0.950 . S
H776 C802 0.950 . S
H777 C804 0.950 . S
H778 C807 0.950 . S
H779 C808 0.950 . S
H780 C810 0.950 . S
H781 C811 0.950 . S
C782 H764 0.951 . S
C782 C783 1.366 . S
C782 C784 1.388 . S
C783 C782 1.366 . S
C783 C787 1.385 . S
C784 H765 0.951 . S
C784 C782 1.388 . S
C784 C785 1.366 . S
C785 C784 1.366 . S
C785 C786 1.414 . S
C785 C788 1.499 . S
C786 H766 0.950 . S
C786 C785 1.414 . S
C786 C787 1.374 . S
C787 H767 0.950 . S
C787 C783 1.385 . S
C787 C786 1.374 . S
C788 C785 1.499 . S
C788 C789 1.373 . S
C788 C790 1.389 . S
C789 H768 0.950 . S
C789 C788 1.373 . S
C789 C805 1.377 . S
C790 C788 1.389 . S
C790 C791 1.524 . S
C790 C804 1.377 . S
C791 C790 1.524 . S
C791 C792 1.397 . S
C791 C796 1.363 . S
C792 H769 0.950 . S
C792 C791 1.397 . S
C792 C793 1.334 . S
C793 H770 0.950 . S
C793 C792 1.334 . S
C793 C794 1.287 . S
C794 C793 1.287 . S
C794 C795 1.524 . S
C794 H813 0.913 . S
C795 H771 0.950 . S
C795 C794 1.524 . S
C795 C796 1.415 . S
C796 H772 0.950 . S
C796 C791 1.363 . S
C796 C795 1.415 . S
C797 H773 0.951 . S
C797 C798 1.366 . S
C797 C799 1.388 . S
C798 C797 1.366 . S
C798 C802 1.385 . S
C799 H774 0.951 . S
C799 C797 1.388 . S
C799 C800 1.366 . S
C800 C799 1.366 . S
C800 C801 1.414 . S
C800 C803 1.499 . S
C801 H775 0.950 . S
C801 C800 1.414 . S
C801 C802 1.374 . S
C802 H776 0.950 . S
C802 C798 1.385 . S
C802 C801 1.374 . S
C803 C800 1.499 . S
C803 C804 1.373 . S
C803 C805 1.389 . S
C804 H777 0.950 . S
C804 C790 1.377 . S
C804 C803 1.373 . S
C805 C789 1.377 . S
C805 C803 1.389 . S
C805 C806 1.524 . S
C806 C805 1.524 . S
C806 C807 1.397 . S
C806 C811 1.363 . S
C807 H778 0.950 . S
C807 C806 1.397 . S
C807 C808 1.334 . S
C808 H779 0.950 . S
C808 C807 1.334 . S
C808 C809 1.287 . S
C809 C808 1.287 . S
C809 C810 1.524 . S
C809 H812 0.999 . S
C810 H780 0.950 . S
C810 C809 1.524 . S
C810 C811 1.415 . S
C811 H781 0.950 . S
C811 C806 1.363 . S
C811 C810 1.415 . S
H812 C809 0.999 . S
H813 C794 0.913 . S
H814 C832 0.951 . S
H815 C834 0.953 . S
H816 C836 0.950 . S
H817 C837 0.950 . S
H818 C839 0.950 . S
H819 C842 0.950 . S
H820 C843 0.950 . S
H821 C845 0.950 . S
H822 C846 0.950 . S
H823 C847 0.951 . S
H824 C849 0.953 . S
H825 C851 0.950 . S
H826 C852 0.950 . S
H827 C854 0.950 . S
H828 C857 0.950 . S
H829 C858 0.950 . S
H830 C860 0.950 . S
H831 C861 0.950 . S
C832 H814 0.951 . S
C832 C833 1.366 . S
C832 C834 1.388 . S
C833 C832 1.366 . S
C833 C837 1.385 . S
C834 H815 0.953 . S
C834 C832 1.388 . S
C834 C835 1.366 . S
C835 C834 1.366 . S
C835 C836 1.414 . S
C835 C838 1.499 . S
C836 H816 0.950 . S
C836 C835 1.414 . S
C836 C837 1.374 . S
C837 H817 0.950 . S
C837 C833 1.385 . S
C837 C836 1.374 . S
C838 C835 1.499 . S
C838 C839 1.373 . S
C838 C840 1.389 1_455 S
C839 H818 0.950 . S
C839 C838 1.373 . S
C839 C855 1.377 . S
C840 C838 1.389 1_655 S
C840 C841 1.524 . S
C840 C854 1.377 . S
C841 C840 1.524 . S
C841 C842 1.397 . S
C841 C846 1.363 . S
C842 H819 0.950 . S
C842 C841 1.397 . S
C842 C843 1.334 . S
C843 H820 0.950 . S
C843 C842 1.334 . S
C843 C844 1.287 . S
C844 C843 1.287 . S
C844 C845 1.524 . S
C844 H863 0.913 . S
C845 H821 0.950 . S
C845 C844 1.524 . S
C845 C846 1.415 . S
C846 H822 0.950 . S
C846 C841 1.363 . S
C846 C845 1.415 . S
C847 H823 0.951 . S
C847 C848 1.366 . S
C847 C849 1.388 . S
C848 C847 1.366 . S
C848 C852 1.385 . S
C849 H824 0.953 . S
C849 C847 1.388 . S
C849 C850 1.366 . S
C850 C849 1.366 . S
C850 C851 1.414 . S
C850 C853 1.499 . S
C851 H825 0.950 . S
C851 C850 1.414 . S
C851 C852 1.374 . S
C852 H826 0.950 . S
C852 C848 1.385 . S
C852 C851 1.374 . S
C853 C850 1.499 . S
C853 C854 1.373 . S
C853 C855 1.389 1_655 S
C854 H827 0.950 . S
C854 C840 1.377 . S
C854 C853 1.373 . S
C855 C839 1.377 . S
C855 C853 1.389 1_455 S
C855 C856 1.524 . S
C856 C855 1.524 . S
C856 C857 1.397 . S
C856 C861 1.363 . S
C857 H828 0.950 . S
C857 C856 1.397 . S
C857 C858 1.334 . S
C858 H829 0.950 . S
C858 C857 1.334 . S
C858 C859 1.287 . S
C859 C858 1.287 . S
C859 C860 1.524 . S
C859 H862 0.999 . S
C860 H830 0.950 . S
C860 C859 1.524 . S
C860 C861 1.415 . S
C861 H831 0.950 . S
C861 C856 1.363 . S
C861 C860 1.415 . S
H862 C859 0.999 . S
H863 C844 0.913 . S
H864 C882 0.951 . S
H865 C884 0.951 . S
H866 C886 0.950 . S
H867 C887 0.950 . S
H868 C889 0.950 . S
H869 C892 0.950 . S
H870 C893 0.950 . S
H871 C895 0.950 . S
H872 C896 0.950 . S
H873 C897 0.951 . S
H874 C899 0.951 . S
H875 C901 0.950 . S
H876 C902 0.950 . S
H877 C904 0.950 . S
H878 C907 0.950 . S
H879 C908 0.950 . S
H880 C910 0.950 . S
H881 C911 0.950 . S
C882 H864 0.951 . S
C882 C883 1.366 . S
C882 C884 1.388 . S
C883 C882 1.366 . S
C883 C887 1.385 . S
C884 H865 0.951 . S
C884 C882 1.388 . S
C884 C885 1.366 . S
C885 C884 1.366 . S
C885 C886 1.414 . S
C885 C888 1.499 . S
C886 H866 0.950 . S
C886 C885 1.414 . S
C886 C887 1.374 . S
C887 H867 0.950 . S
C887 C883 1.385 . S
C887 C886 1.374 . S
C888 C885 1.499 . S
C888 C889 1.373 . S
C888 C890 1.389 . S
C889 H868 0.950 . S
C889 C888 1.373 . S
C889 C905 1.377 . S
C890 C888 1.389 . S
C890 C891 1.524 . S
C890 C904 1.377 . S
C891 C890 1.524 . S
C891 C892 1.397 . S
C891 C896 1.363 . S
C892 H869 0.950 . S
C892 C891 1.397 . S
C892 C893 1.334 . S
C893 H870 0.950 . S
C893 C892 1.334 . S
C893 C894 1.287 . S
C894 C893 1.287 . S
C894 C895 1.524 . S
C894 H913 0.913 . S
C895 H871 0.950 . S
C895 C894 1.524 . S
C895 C896 1.415 . S
C896 H872 0.950 . S
C896 C891 1.363 . S
C896 C895 1.415 . S
C897 H873 0.951 . S
C897 C898 1.366 . S
C897 C899 1.388 . S
C898 C897 1.366 . S
C898 C902 1.385 . S
C899 H874 0.951 . S
C899 C897 1.388 . S
C899 C900 1.366 . S
C900 C899 1.366 . S
C900 C901 1.414 . S
C900 C903 1.499 . S
C901 H875 0.950 . S
C901 C900 1.414 . S
C901 C902 1.374 . S
C902 H876 0.950 . S
C902 C898 1.385 . S
C902 C901 1.374 . S
C903 C900 1.499 . S
C903 C904 1.373 . S
C903 C905 1.389 . S
C904 H877 0.950 . S
C904 C890 1.377 . S
C904 C903 1.373 . S
C905 C889 1.377 . S
C905 C903 1.389 . S
C905 C906 1.524 . S
C906 C905 1.524 . S
C906 C907 1.397 . S
C906 C911 1.363 . S
C907 H878 0.950 . S
C907 C906 1.397 . S
C907 C908 1.334 . S
C908 H879 0.950 . S
C908 C907 1.334 . S
C908 C909 1.287 . S
C909 C908 1.287 . S
C909 C910 1.524 . S
C909 H912 0.999 . S
C910 H880 0.950 . S
C910 C909 1.524 . S
C910 C911 1.415 . S
C911 H881 0.950 . S
C911 C906 1.363 . S
C911 C910 1.415 . S
H912 C909 0.999 . S
H913 C894 0.913 . S
H914 C932 0.951 . S
H915 C934 0.951 . S
H916 C936 0.950 . S
H917 C937 0.950 . S
H918 C939 0.950 . S
H919 C942 0.950 . S
H920 C943 0.950 . S
H921 C945 0.950 . S
H922 C946 0.950 . S
H923 C947 0.951 . S
H924 C949 0.951 . S
H925 C951 0.950 . S
H926 C952 0.950 . S
H927 C954 0.950 . S
H928 C957 0.950 . S
H929 C958 0.950 . S
H930 C960 0.950 . S
H931 C961 0.950 . S
C932 H914 0.951 . S
C932 C933 1.366 . S
C932 C934 1.388 . S
C933 C932 1.366 . S
C933 C937 1.385 . S
C934 H915 0.951 . S
C934 C932 1.388 . S
C934 C935 1.366 . S
C935 C934 1.366 . S
C935 C936 1.414 . S
C935 C938 1.499 . S
C936 H916 0.950 . S
C936 C935 1.414 . S
C936 C937 1.374 . S
C937 H917 0.950 . S
C937 C933 1.385 . S
C937 C936 1.374 . S
C938 C935 1.499 . S
C938 C939 1.373 . S
C938 C940 1.389 . S
C939 H918 0.950 . S
C939 C938 1.373 . S
C939 C955 1.377 . S
C940 C938 1.389 . S
C940 C941 1.524 . S
C940 C954 1.377 . S
C941 C940 1.524 . S
C941 C942 1.397 . S
C941 C946 1.363 . S
C942 H919 0.950 . S
C942 C941 1.397 . S
C942 C943 1.334 . S
C943 H920 0.950 . S
C943 C942 1.334 . S
C943 C944 1.287 . S
C944 C943 1.287 . S
C944 C945 1.524 . S
C944 H963 0.913 . S
C945 H921 0.950 . S
C945 C944 1.524 . S
C945 C946 1.415 . S
C946 H922 0.950 . S
C946 C941 1.363 . S
C946 C945 1.415 . S
C947 H923 0.951 . S
C947 C948 1.366 . S
C947 C949 1.388 . S
C948 C947 1.366 . S
C948 C952 1.385 . S
C949 H924 0.951 . S
C949 C947 1.388 . S
C949 C950 1.366 . S
C950 C949 1.366 . S
C950 C951 1.414 . S
C950 C953 1.499 . S
C951 H925 0.950 . S
C951 C950 1.414 . S
C951 C952 1.374 . S
C952 H926 0.950 . S
C952 C948 1.385 . S
C952 C951 1.374 . S
C953 C950 1.499 . S
C953 C954 1.373 . S
C953 C955 1.389 . S
C954 H927 0.950 . S
C954 C940 1.377 . S
C954 C953 1.373 . S
C955 C939 1.377 . S
C955 C953 1.389 . S
C955 C956 1.524 . S
C956 C955 1.524 . S
C956 C957 1.397 . S
C956 C961 1.363 . S
C957 H928 0.950 . S
C957 C956 1.397 . S
C957 C958 1.334 . S
C958 H929 0.950 . S
C958 C957 1.334 . S
C958 C959 1.287 . S
C959 C958 1.287 . S
C959 C960 1.524 . S
C959 H962 0.999 . S
C960 H930 0.950 . S
C960 C959 1.524 . S
C960 C961 1.415 . S
C961 H931 0.950 . S
C961 C956 1.363 . S
C961 C960 1.415 . S
H962 C959 0.999 . S
H963 C944 0.913 . S
H964 C982 0.951 . S
H965 C984 0.951 . S
H966 C986 0.950 . S
H967 C987 0.950 . S
H968 C989 0.950 . S
H969 C992 0.950 . S
H970 C993 0.950 . S
H971 C995 0.950 . S
H972 C996 0.950 . S
H973 C997 0.951 . S
H974 C999 0.951 . S
H975 C1001 0.950 . S
H976 C1002 0.950 . S
H977 C1004 0.950 . S
H978 C1007 0.950 . S
H979 C1008 0.950 . S
H980 C1010 0.950 . S
H981 C1011 0.950 . S
C982 H964 0.951 . S
C982 C983 1.366 . S
C982 C984 1.388 . S
C983 C982 1.366 . S
C983 C987 1.385 1_455 S
C984 H965 0.951 . S
C984 C982 1.388 . S
C984 C985 1.366 1_455 S
C985 C984 1.366 1_655 S
C985 C986 1.414 . S
C985 C988 1.499 . S
C986 H966 0.950 . S
C986 C985 1.414 . S
C986 C987 1.374 . S
C987 H967 0.950 . S
C987 C983 1.385 1_655 S
C987 C986 1.374 . S
C988 C985 1.499 . S
C988 C989 1.373 . S
C988 C990 1.389 . S
C989 H968 0.950 . S
C989 C988 1.373 . S
C989 C1005 1.377 . S
C990 C988 1.389 . S
C990 C991 1.524 . S
C990 C1004 1.377 . S
C991 C990 1.524 . S
C991 C992 1.397 . S
C991 C996 1.363 . S
C992 H969 0.950 . S
C992 C991 1.397 . S
C992 C993 1.334 . S
C993 H970 0.950 . S
C993 C992 1.334 . S
C993 C994 1.287 . S
C994 C993 1.287 . S
C994 C995 1.524 . S
C994 H1013 0.913 . S
C995 H971 0.950 . S
C995 C994 1.524 . S
C995 C996 1.415 . S
C996 H972 0.950 . S
C996 C991 1.363 . S
C996 C995 1.415 . S
C997 H973 0.951 . S
C997 C998 1.366 . S
C997 C999 1.388 . S
C998 C997 1.366 . S
C998 C1002 1.385 . S
C999 H974 0.951 . S
C999 C997 1.388 . S
C999 C1000 1.366 . S
C1000 C999 1.366 . S
C1000 C1001 1.414 . S
C1000 C1003 1.499 . S
C1001 H975 0.950 . S
C1001 C1000 1.414 . S
C1001 C1002 1.374 . S
C1002 H976 0.950 . S
C1002 C998 1.385 . S
C1002 C1001 1.374 . S
C1003 C1000 1.499 . S
C1003 C1004 1.373 . S
C1003 C1005 1.389 . S
C1004 H977 0.950 . S
C1004 C990 1.377 . S
C1004 C1003 1.373 . S
C1005 C989 1.377 . S
C1005 C1003 1.389 . S
C1005 C1006 1.524 . S
C1006 C1005 1.524 . S
C1006 C1007 1.397 . S
C1006 C1011 1.363 . S
C1007 H978 0.950 . S
C1007 C1006 1.397 . S
C1007 C1008 1.334 . S
C1008 H979 0.950 . S
C1008 C1007 1.334 . S
C1008 C1009 1.287 . S
C1009 C1008 1.287 . S
C1009 C1010 1.524 . S
C1009 H1012 0.999 . S
C1010 H980 0.950 . S
C1010 C1009 1.524 . S
C1010 C1011 1.415 . S
C1011 H981 0.950 . S
C1011 C1006 1.363 . S
C1011 C1010 1.415 . S
H1012 C1009 0.999 . S
H1013 C994 0.913 . S
H1014 C1032 0.951 . S
H1015 C1034 0.951 . S
H1016 C1036 0.950 . S
H1017 C1037 0.950 . S
H1018 C1039 0.950 . S
H1019 C1042 0.950 . S
H1020 C1043 0.950 . S
H1021 C1045 0.950 . S
H1022 C1046 0.950 . S
H1023 C1047 0.951 . S
H1024 C1049 0.951 . S
H1025 C1051 0.950 . S
H1026 C1052 0.950 . S
H1027 C1054 0.950 . S
H1028 C1057 0.950 . S
H1029 C1058 0.950 . S
H1030 C1060 0.950 . S
H1031 C1061 0.950 . S
C1032 H1014 0.951 . S
C1032 C1033 1.366 . S
C1032 C1034 1.388 . S
C1033 C1032 1.366 . S
C1033 C1037 1.385 1_545 S
C1034 H1015 0.951 . S
C1034 C1032 1.388 . S
C1034 C1035 1.366 1_545 S
C1035 C1034 1.366 1_565 S
C1035 C1036 1.414 . S
C1035 C1038 1.499 . S
C1036 H1016 0.950 . S
C1036 C1035 1.414 . S
C1036 C1037 1.374 . S
C1037 H1017 0.950 . S
C1037 C1033 1.385 1_565 S
C1037 C1036 1.374 . S
C1038 C1035 1.499 . S
C1038 C1039 1.373 . S
C1038 C1040 1.389 . S
C1039 H1018 0.950 . S
C1039 C1038 1.373 . S
C1039 C1055 1.377 . S
C1040 C1038 1.389 . S
C1040 C1041 1.524 1_565 S
C1040 C1054 1.377 . S
C1041 C1040 1.524 1_545 S
C1041 C1042 1.397 . S
C1041 C1046 1.363 . S
C1042 H1019 0.950 . S
C1042 C1041 1.397 . S
C1042 C1043 1.334 . S
C1043 H1020 0.950 . S
C1043 C1042 1.334 . S
C1043 C1044 1.287 . S
C1044 C1043 1.287 . S
C1044 C1045 1.524 . S
C1044 H1063 0.913 . S
C1045 H1021 0.950 . S
C1045 C1044 1.524 . S
C1045 C1046 1.415 . S
C1046 H1022 0.950 . S
C1046 C1041 1.363 . S
C1046 C1045 1.415 . S
C1047 H1023 0.951 . S
C1047 C1048 1.366 . S
C1047 C1049 1.388 . S
C1048 C1047 1.366 . S
C1048 C1052 1.385 . S
C1049 H1024 0.951 . S
C1049 C1047 1.388 . S
C1049 C1050 1.366 . S
C1050 C1049 1.366 . S
C1050 C1051 1.414 . S
C1050 C1053 1.499 . S
C1051 H1025 0.950 . S
C1051 C1050 1.414 . S
C1051 C1052 1.374 . S
C1052 H1026 0.950 . S
C1052 C1048 1.385 . S
C1052 C1051 1.374 . S
C1053 C1050 1.499 . S
C1053 C1054 1.373 . S
C1053 C1055 1.389 . S
C1054 H1027 0.950 . S
C1054 C1040 1.377 . S
C1054 C1053 1.373 . S
C1055 C1039 1.377 . S
C1055 C1053 1.389 . S
C1055 C1056 1.524 . S
C1056 C1055 1.524 . S
C1056 C1057 1.397 . S
C1056 C1061 1.363 . S
C1057 H1028 0.950 . S
C1057 C1056 1.397 . S
C1057 C1058 1.334 . S
C1058 H1029 0.950 . S
C1058 C1057 1.334 . S
C1058 C1059 1.287 . S
C1059 C1058 1.287 . S
C1059 C1060 1.524 . S
C1059 H1062 0.999 . S
C1060 H1030 0.950 . S
C1060 C1059 1.524 . S
C1060 C1061 1.415 . S
C1061 H1031 0.950 . S
C1061 C1056 1.363 . S
C1061 C1060 1.415 . S
H1062 C1059 0.999 . S
H1063 C1044 0.913 . S
H1064 C1082 0.951 . S
H1065 C1084 0.951 . S
H1066 C1086 0.950 . S
H1067 C1087 0.950 . S
H1068 C1089 0.989 . S
H1069 C1092 0.950 . S
H1070 C1093 0.950 . S
H1071 C1095 0.950 . S
H1072 C1096 0.950 . S
H1073 C1097 0.951 . S
H1074 C1099 0.951 . S
H1075 C1101 0.950 . S
H1076 C1102 0.950 . S
H1077 C1104 0.950 . S
H1078 C1107 0.950 . S
H1079 C1108 0.950 . S
H1080 C1110 0.950 . S
H1081 C1111 0.950 . S
C1082 H1064 0.951 . S
C1082 C1083 1.366 1_455 S
C1082 C1084 1.388 . S
C1083 C1082 1.366 1_655 S
C1083 C1087 1.385 . S
C1084 H1065 0.951 . S
C1084 C1082 1.388 . S
C1084 C1085 1.366 . S
C1085 C1084 1.366 . S
C1085 C1086 1.414 1_455 S
C1085 C1088 1.499 . S
C1086 H1066 0.950 . S
C1086 C1085 1.414 1_655 S
C1086 C1087 1.374 . S
C1087 H1067 0.950 . S
C1087 C1083 1.385 . S
C1087 C1086 1.374 . S
C1088 C1085 1.499 . S
C1088 C1089 1.373 . S
C1088 C1090 1.389 . S
C1089 H1068 0.989 . S
C1089 C1088 1.373 . S
C1089 C1105 1.377 . S
C1090 C1088 1.389 . S
C1090 C1091 1.524 . S
C1090 C1104 1.377 . S
C1091 C1090 1.524 . S
C1091 C1092 1.397 . S
C1091 C1096 1.363 . S
C1092 H1069 0.950 . S
C1092 C1091 1.397 . S
C1092 C1093 1.334 . S
C1093 H1070 0.950 . S
C1093 C1092 1.334 . S
C1093 C1094 1.287 . S
C1094 C1093 1.287 . S
C1094 C1095 1.524 . S
C1094 H1113 0.913 . S
C1095 H1071 0.950 . S
C1095 C1094 1.524 . S
C1095 C1096 1.415 . S
C1096 H1072 0.950 . S
C1096 C1091 1.363 . S
C1096 C1095 1.415 . S
C1097 H1073 0.951 . S
C1097 C1098 1.366 . S
C1097 C1099 1.388 . S
C1098 C1097 1.366 . S
C1098 C1102 1.385 . S
C1099 H1074 0.951 . S
C1099 C1097 1.388 . S
C1099 C1100 1.366 . S
C1100 C1099 1.366 . S
C1100 C1101 1.414 . S
C1100 C1103 1.499 . S
C1101 H1075 0.950 . S
C1101 C1100 1.414 . S
C1101 C1102 1.374 . S
C1102 H1076 0.950 . S
C1102 C1098 1.385 . S
C1102 C1101 1.374 . S
C1103 C1100 1.499 . S
C1103 C1104 1.373 . S
C1103 C1105 1.389 . S
C1104 H1077 0.950 . S
C1104 C1090 1.377 . S
C1104 C1103 1.373 . S
C1105 C1089 1.377 . S
C1105 C1103 1.389 . S
C1105 C1106 1.524 . S
C1106 C1105 1.524 . S
C1106 C1107 1.397 . S
C1106 C1111 1.363 1_455 S
C1107 H1078 0.950 . S
C1107 C1106 1.397 . S
C1107 C1108 1.334 . S
C1108 H1079 0.950 . S
C1108 C1107 1.334 . S
C1108 C1109 1.287 1_455 S
C1109 C1108 1.287 1_655 S
C1109 C1110 1.524 . S
C1109 H1112 0.999 . S
C1110 H1080 0.950 . S
C1110 C1109 1.524 . S
C1110 C1111 1.415 . S
C1111 H1081 0.950 . S
C1111 C1106 1.363 1_655 S
C1111 C1110 1.415 . S
H1112 C1109 0.999 . S
H1113 C1094 0.913 . S
H1114 C1132 0.951 . S
H1115 C1134 0.951 . S
H1116 C1136 0.950 . S
H1117 C1137 0.950 . S
H1118 C1139 0.950 . S
H1119 C1142 0.950 1_545 S
H1120 C1143 0.950 . S
H1121 C1145 0.950 . S
H1122 C1146 0.950 . S
H1123 C1147 0.951 . S
H1124 C1149 0.951 . S
H1125 C1151 0.950 . S
H1126 C1152 0.950 . S
H1127 C1154 0.950 . S
H1128 C1157 0.950 . S
H1129 C1158 0.950 . S
H1130 C1160 0.950 . S
H1131 C1161 0.950 . S
C1132 H1114 0.951 . S
C1132 C1133 1.366 . S
C1132 C1134 1.388 . S
C1133 C1132 1.366 . S
C1133 C1137 1.385 1_565 S
C1134 H1115 0.951 . S
C1134 C1132 1.388 . S
C1134 C1135 1.366 1_565 S
C1135 C1134 1.366 1_545 S
C1135 C1136 1.414 . S
C1135 C1138 1.499 . S
C1136 H1116 0.950 . S
C1136 C1135 1.414 . S
C1136 C1137 1.374 . S
C1137 H1117 0.950 . S
C1137 C1133 1.385 1_545 S
C1137 C1136 1.374 . S
C1138 C1135 1.499 . S
C1138 C1139 1.373 . S
C1138 C1140 1.389 . S
C1139 H1118 0.950 . S
C1139 C1138 1.373 . S
C1139 C1155 1.377 . S
C1140 C1138 1.389 . S
C1140 C1141 1.524 1_545 S
C1140 C1154 1.377 . S
C1141 C1140 1.524 1_565 S
C1141 C1142 1.397 . S
C1141 C1146 1.363 . S
C1142 H1119 0.950 1_565 S
C1142 C1141 1.397 . S
C1142 C1143 1.334 . S
C1143 H1120 0.950 . S
C1143 C1142 1.334 . S
C1143 C1144 1.287 . S
C1144 C1143 1.287 . S
C1144 C1145 1.524 . S
C1144 H1163 0.913 . S
C1145 H1121 0.950 . S
C1145 C1144 1.524 . S
C1145 C1146 1.415 . S
C1146 H1122 0.950 . S
C1146 C1141 1.363 . S
C1146 C1145 1.415 . S
C1147 H1123 0.951 . S
C1147 C1148 1.366 . S
C1147 C1149 1.388 . S
C1148 C1147 1.366 . S
C1148 C1152 1.385 . S
C1149 H1124 0.951 . S
C1149 C1147 1.388 . S
C1149 C1150 1.366 . S
C1150 C1149 1.366 . S
C1150 C1151 1.414 . S
C1150 C1153 1.499 . S
C1151 H1125 0.950 . S
C1151 C1150 1.414 . S
C1151 C1152 1.374 . S
C1152 H1126 0.950 . S
C1152 C1148 1.385 . S
C1152 C1151 1.374 . S
C1153 C1150 1.499 . S
C1153 C1154 1.373 . S
C1153 C1155 1.389 . S
C1154 H1127 0.950 . S
C1154 C1140 1.377 . S
C1154 C1153 1.373 . S
C1155 C1139 1.377 . S
C1155 C1153 1.389 . S
C1155 C1156 1.524 . S
C1156 C1155 1.524 . S
C1156 C1157 1.397 . S
C1156 C1161 1.363 . S
C1157 H1128 0.950 . S
C1157 C1156 1.397 . S
C1157 C1158 1.334 . S
C1158 H1129 0.950 . S
C1158 C1157 1.334 . S
C1158 C1159 1.287 . S
C1159 C1158 1.287 . S
C1159 C1160 1.524 . S
C1159 H1162 0.999 . S
C1160 H1130 0.950 . S
C1160 C1159 1.524 . S
C1160 C1161 1.415 . S
C1161 H1131 0.950 . S
C1161 C1156 1.363 . S
C1161 C1160 1.415 . S
H1162 C1159 0.999 . S
H1163 C1144 0.913 . S
H1164 C1182 0.951 . S
H1165 C1184 0.951 . S
H1166 C1186 0.950 . S
H1167 C1187 0.950 . S
H1168 C1189 0.950 . S
H1169 C1192 0.950 . S
H1170 C1193 0.950 . S
H1171 C1195 0.950 . S
H1172 C1196 0.950 . S
H1173 C1197 0.951 . S
H1174 C1199 0.951 . S
H1175 C1201 0.950 . S
H1176 C1202 0.950 . S
H1177 C1204 0.950 . S
H1178 C1207 0.950 . S
H1179 C1208 0.950 . S
H1180 C1210 0.950 . S
H1181 C1211 0.950 . S
C1182 H1164 0.951 . S
C1182 C1183 1.366 . S
C1182 C1184 1.388 . S
C1183 C1182 1.366 . S
C1183 C1187 1.385 . S
C1184 H1165 0.951 . S
C1184 C1182 1.388 . S
C1184 C1185 1.366 . S
C1185 C1184 1.366 . S
C1185 C1186 1.414 . S
C1185 C1188 1.499 . S
C1186 H1166 0.950 . S
C1186 C1185 1.414 . S
C1186 C1187 1.374 . S
C1187 H1167 0.950 . S
C1187 C1183 1.385 . S
C1187 C1186 1.374 . S
C1188 C1185 1.499 . S
C1188 C1189 1.373 . S
C1188 C1190 1.389 . S
C1189 H1168 0.950 . S
C1189 C1188 1.373 . S
C1189 C1205 1.377 . S
C1190 C1188 1.389 . S
C1190 C1191 1.524 . S
C1190 C1204 1.377 . S
C1191 C1190 1.524 . S
C1191 C1192 1.397 . S
C1191 C1196 1.363 . S
C1192 H1169 0.950 . S
C1192 C1191 1.397 . S
C1192 C1193 1.334 . S
C1193 H1170 0.950 . S
C1193 C1192 1.334 . S
C1193 C1194 1.287 . S
C1194 C1193 1.287 . S
C1194 C1195 1.524 . S
C1194 H1213 0.913 . S
C1195 H1171 0.950 . S
C1195 C1194 1.524 . S
C1195 C1196 1.415 . S
C1196 H1172 0.950 . S
C1196 C1191 1.363 . S
C1196 C1195 1.415 . S
C1197 H1173 0.951 . S
C1197 C1198 1.366 . S
C1197 C1199 1.388 . S
C1198 C1197 1.366 . S
C1198 C1202 1.385 . S
C1199 H1174 0.951 . S
C1199 C1197 1.388 . S
C1199 C1200 1.366 . S
C1200 C1199 1.366 . S
C1200 C1201 1.414 . S
C1200 C1203 1.499 . S
C1201 H1175 0.950 . S
C1201 C1200 1.414 . S
C1201 C1202 1.374 . S
C1202 H1176 0.950 . S
C1202 C1198 1.385 . S
C1202 C1201 1.374 . S
C1203 C1200 1.499 . S
C1203 C1204 1.373 . S
C1203 C1205 1.389 . S
C1204 H1177 0.950 . S
C1204 C1190 1.377 . S
C1204 C1203 1.373 . S
C1205 C1189 1.377 . S
C1205 C1203 1.389 . S
C1205 C1206 1.524 . S
C1206 C1205 1.524 . S
C1206 C1207 1.397 . S
C1206 C1211 1.363 . S
C1207 H1178 0.950 . S
C1207 C1206 1.397 . S
C1207 C1208 1.334 . S
C1208 H1179 0.950 . S
C1208 C1207 1.334 . S
C1208 C1209 1.287 . S
C1209 C1208 1.287 . S
C1209 C1210 1.524 . S
C1209 H1212 0.999 . S
C1210 H1180 0.950 . S
C1210 C1209 1.524 . S
C1210 C1211 1.415 . S
C1211 H1181 0.950 . S
C1211 C1206 1.363 . S
C1211 C1210 1.415 . S
H1212 C1209 0.999 . S
H1213 C1194 0.913 . S
H1214 C1232 0.951 . S
H1215 C1234 0.951 . S
H1216 C1236 0.950 . S
H1217 C1237 0.950 . S
H1218 C1239 0.950 . S
H1219 C1242 0.950 . S
H1220 C1243 0.950 . S
H1221 C1245 0.950 . S
H1222 C1246 0.950 . S
H1223 C1247 0.951 . S
H1224 C1249 0.951 . S
H1225 C1251 0.950 . S
H1226 C1252 0.950 . S
H1227 C1254 0.950 . S
H1228 C1257 0.950 . S
H1229 C1258 0.950 . S
H1230 C1260 0.950 . S
H1231 C1261 0.950 . S
C1232 H1214 0.951 . S
C1232 C1233 1.366 . S
C1232 C1234 1.388 . S
C1233 C1232 1.366 . S
C1233 C1237 1.385 . S
C1234 H1215 0.951 . S
C1234 C1232 1.388 . S
C1234 C1235 1.366 . S
C1235 C1234 1.366 . S
C1235 C1236 1.414 . S
C1235 C1238 1.499 . S
C1236 H1216 0.950 . S
C1236 C1235 1.414 . S
C1236 C1237 1.374 . S
C1237 H1217 0.950 . S
C1237 C1233 1.385 . S
C1237 C1236 1.374 . S
C1238 C1235 1.499 . S
C1238 C1239 1.373 . S
C1238 C1240 1.389 . S
C1239 H1218 0.950 . S
C1239 C1238 1.373 . S
C1239 C1255 1.377 . S
C1240 C1238 1.389 . S
C1240 C1241 1.524 . S
C1240 C1254 1.377 . S
C1241 C1240 1.524 . S
C1241 C1242 1.397 . S
C1241 C1246 1.363 . S
C1242 H1219 0.950 . S
C1242 C1241 1.397 . S
C1242 C1243 1.334 . S
C1243 H1220 0.950 . S
C1243 C1242 1.334 . S
C1243 C1244 1.287 . S
C1244 C1243 1.287 . S
C1244 C1245 1.524 . S
C1244 H1263 0.913 . S
C1245 H1221 0.950 . S
C1245 C1244 1.524 . S
C1245 C1246 1.415 . S
C1246 H1222 0.950 . S
C1246 C1241 1.363 . S
C1246 C1245 1.415 . S
C1247 H1223 0.951 . S
C1247 C1248 1.366 . S
C1247 C1249 1.388 . S
C1248 C1247 1.366 . S
C1248 C1252 1.385 . S
C1249 H1224 0.951 . S
C1249 C1247 1.388 . S
C1249 C1250 1.366 . S
C1250 C1249 1.366 . S
C1250 C1251 1.414 . S
C1250 C1253 1.499 . S
C1251 H1225 0.950 . S
C1251 C1250 1.414 . S
C1251 C1252 1.374 . S
C1252 H1226 0.950 . S
C1252 C1248 1.385 . S
C1252 C1251 1.374 . S
C1253 C1250 1.499 . S
C1253 C1254 1.373 . S
C1253 C1255 1.389 . S
C1254 H1227 0.950 . S
C1254 C1240 1.377 . S
C1254 C1253 1.373 . S
C1255 C1239 1.377 . S
C1255 C1253 1.389 . S
C1255 C1256 1.524 . S
C1256 C1255 1.524 . S
C1256 C1257 1.397 . S
C1256 C1261 1.363 . S
C1257 H1228 0.950 . S
C1257 C1256 1.397 . S
C1257 C1258 1.334 . S
C1258 H1229 0.950 . S
C1258 C1257 1.334 . S
C1258 C1259 1.287 . S
C1259 C1258 1.287 . S
C1259 C1260 1.524 . S
C1259 H1262 0.999 . S
C1260 H1230 0.950 . S
C1260 C1259 1.524 . S
C1260 C1261 1.415 . S
C1261 H1231 0.950 . S
C1261 C1256 1.363 . S
C1261 C1260 1.415 . S
H1262 C1259 0.999 . S
H1263 C1244 0.913 . S
H1264 C1282 0.951 . S
H1265 C1284 0.951 . S
H1266 C1286 0.950 . S
H1267 C1287 0.950 . S
H1268 C1289 0.950 . S
H1269 C1292 0.950 . S
H1270 C1293 0.950 . S
H1271 C1295 0.950 . S
H1272 C1296 0.950 . S
H1273 C1297 0.951 . S
H1274 C1299 0.951 . S
H1275 C1301 0.950 . S
H1276 C1302 0.950 . S
H1277 C1304 0.950 . S
H1278 C1307 0.950 . S
H1279 C1308 0.950 . S
H1280 C1310 0.950 . S
H1281 C1311 0.950 . S
C1282 H1264 0.951 . S
C1282 C1283 1.366 . S
C1282 C1284 1.388 . S
C1283 C1282 1.366 . S
C1283 C1287 1.385 . S
C1284 H1265 0.951 . S
C1284 C1282 1.388 . S
C1284 C1285 1.366 . S
C1285 C1284 1.366 . S
C1285 C1286 1.414 . S
C1285 C1288 1.499 . S
C1286 H1266 0.950 . S
C1286 C1285 1.414 . S
C1286 C1287 1.374 . S
C1287 H1267 0.950 . S
C1287 C1283 1.385 . S
C1287 C1286 1.374 . S
C1288 C1285 1.499 . S
C1288 C1289 1.373 . S
C1288 C1290 1.389 . S
C1289 H1268 0.950 . S
C1289 C1288 1.373 . S
C1289 C1305 1.377 . S
C1290 C1288 1.389 . S
C1290 C1291 1.524 . S
C1290 C1304 1.377 . S
C1291 C1290 1.524 . S
C1291 C1292 1.397 . S
C1291 C1296 1.363 . S
C1292 H1269 0.950 . S
C1292 C1291 1.397 . S
C1292 C1293 1.334 . S
C1293 H1270 0.950 . S
C1293 C1292 1.334 . S
C1293 C1294 1.287 . S
C1294 C1293 1.287 . S
C1294 C1295 1.524 . S
C1294 H1313 0.913 . S
C1295 H1271 0.950 . S
C1295 C1294 1.524 . S
C1295 C1296 1.415 . S
C1296 H1272 0.950 . S
C1296 C1291 1.363 . S
C1296 C1295 1.415 . S
C1297 H1273 0.951 . S
C1297 C1298 1.366 . S
C1297 C1299 1.388 . S
C1298 C1297 1.366 . S
C1298 C1302 1.385 . S
C1299 H1274 0.951 . S
C1299 C1297 1.388 . S
C1299 C1300 1.366 . S
C1300 C1299 1.366 . S
C1300 C1301 1.414 . S
C1300 C1303 1.499 . S
C1301 H1275 0.950 . S
C1301 C1300 1.414 . S
C1301 C1302 1.374 . S
C1302 H1276 0.950 . S
C1302 C1298 1.385 . S
C1302 C1301 1.374 . S
C1303 C1300 1.499 . S
C1303 C1304 1.373 . S
C1303 C1305 1.389 . S
C1304 H1277 0.950 . S
C1304 C1290 1.377 . S
C1304 C1303 1.373 . S
C1305 C1289 1.377 . S
C1305 C1303 1.389 . S
C1305 C1306 1.524 . S
C1306 C1305 1.524 . S
C1306 C1307 1.397 . S
C1306 C1311 1.363 . S
C1307 H1278 0.950 . S
C1307 C1306 1.397 . S
C1307 C1308 1.334 . S
C1308 H1279 0.950 . S
C1308 C1307 1.334 . S
C1308 C1309 1.287 . S
C1309 C1308 1.287 . S
C1309 C1310 1.524 . S
C1309 H1312 0.999 . S
C1310 H1280 0.950 . S
C1310 C1309 1.524 . S
C1310 C1311 1.415 . S
C1311 H1281 0.950 . S
C1311 C1306 1.363 . S
C1311 C1310 1.415 . S
H1312 C1309 0.999 . S
H1313 C1294 0.913 . S
H1314 C1332 0.951 . S
H1315 C1334 0.951 . S
H1316 C1336 0.950 . S
H1317 C1337 0.950 . S
H1318 C1339 0.950 . S
H1319 C1342 0.950 . S
H1320 C1343 0.950 . S
H1321 C1345 0.950 . S
H1322 C1346 0.950 . S
H1323 C1347 0.951 . S
H1324 C1349 0.951 . S
H1325 C1351 0.950 . S
H1326 C1352 0.950 . S
H1327 C1354 0.950 . S
H1328 C1357 0.950 . S
H1329 C1358 0.950 . S
H1330 C1360 0.950 . S
H1331 C1361 0.950 . S
C1332 H1314 0.951 . S
C1332 C1333 1.366 . S
C1332 C1334 1.388 . S
C1333 C1332 1.366 . S
C1333 C1337 1.385 . S
C1334 H1315 0.951 . S
C1334 C1332 1.388 . S
C1334 C1335 1.366 . S
C1335 C1334 1.366 . S
C1335 C1336 1.414 . S
C1335 C1338 1.499 . S
C1336 H1316 0.950 . S
C1336 C1335 1.414 . S
C1336 C1337 1.374 . S
C1337 H1317 0.950 . S
C1337 C1333 1.385 . S
C1337 C1336 1.374 . S
C1338 C1335 1.499 . S
C1338 C1339 1.373 . S
C1338 C1340 1.389 . S
C1339 H1318 0.950 . S
C1339 C1338 1.373 . S
C1339 C1355 1.377 . S
C1340 C1338 1.389 . S
C1340 C1341 1.524 . S
C1340 C1354 1.377 . S
C1341 C1340 1.524 . S
C1341 C1342 1.397 . S
C1341 C1346 1.363 . S
C1342 H1319 0.950 . S
C1342 C1341 1.397 . S
C1342 C1343 1.334 . S
C1343 H1320 0.950 . S
C1343 C1342 1.334 . S
C1343 C1344 1.287 . S
C1344 C1343 1.287 . S
C1344 C1345 1.524 . S
C1344 H1363 0.913 . S
C1345 H1321 0.950 . S
C1345 C1344 1.524 . S
C1345 C1346 1.415 . S
C1346 H1322 0.950 . S
C1346 C1341 1.363 . S
C1346 C1345 1.415 . S
C1347 H1323 0.951 . S
C1347 C1348 1.366 . S
C1347 C1349 1.388 . S
C1348 C1347 1.366 . S
C1348 C1352 1.385 . S
C1349 H1324 0.951 . S
C1349 C1347 1.388 . S
C1349 C1350 1.366 . S
C1350 C1349 1.366 . S
C1350 C1351 1.414 . S
C1350 C1353 1.499 . S
C1351 H1325 0.950 . S
C1351 C1350 1.414 . S
C1351 C1352 1.374 . S
C1352 H1326 0.950 . S
C1352 C1348 1.385 . S
C1352 C1351 1.374 . S
C1353 C1350 1.499 . S
C1353 C1354 1.373 . S
C1353 C1355 1.389 . S
C1354 H1327 0.950 . S
C1354 C1340 1.377 . S
C1354 C1353 1.373 . S
C1355 C1339 1.377 . S
C1355 C1353 1.389 . S
C1355 C1356 1.524 . S
C1356 C1355 1.524 . S
C1356 C1357 1.397 . S
C1356 C1361 1.363 . S
C1357 H1328 0.950 . S
C1357 C1356 1.397 . S
C1357 C1358 1.334 . S
C1358 H1329 0.950 . S
C1358 C1357 1.334 . S
C1358 C1359 1.287 . S
C1359 C1358 1.287 . S
C1359 C1360 1.524 . S
C1359 H1362 0.999 . S
C1360 H1330 0.950 . S
C1360 C1359 1.524 . S
C1360 C1361 1.415 . S
C1361 H1331 0.950 . S
C1361 C1356 1.363 . S
C1361 C1360 1.415 . S
H1362 C1359 0.999 . S
H1363 C1344 0.913 . S
H1364 C1382 0.947 1_655 S
H1365 C1384 0.951 . S
H1366 C1386 0.950 . S
H1367 C1387 0.950 . S
H1368 C1389 0.950 . S
H1369 C1392 0.950 . S
H1370 C1393 0.950 . S
H1371 C1395 0.950 . S
H1372 C1396 0.950 . S
H1373 C1397 0.951 . S
H1374 C1399 0.951 . S
H1375 C1401 0.950 . S
H1376 C1402 0.950 . S
H1377 C1404 0.950 . S
H1378 C1407 0.950 . S
H1379 C1408 0.950 . S
H1380 C1410 0.950 . S
H1381 C1411 0.950 . S
C1382 H1364 0.947 1_455 S
C1382 C1383 1.356 1_455 S
C1382 C1384 1.402 . S
C1383 C1382 1.356 1_655 S
C1383 C1387 1.385 . S
C1384 H1365 0.951 . S
C1384 C1382 1.402 . S
C1384 C1385 1.366 . S
C1385 C1384 1.366 . S
C1385 C1386 1.414 . S
C1385 C1388 1.499 . S
C1386 H1366 0.950 . S
C1386 C1385 1.414 . S
C1386 C1387 1.374 1_455 S
C1387 H1367 0.950 . S
C1387 C1383 1.385 . S
C1387 C1386 1.374 1_655 S
C1388 C1385 1.499 . S
C1388 C1389 1.373 . S
C1388 C1390 1.389 . S
C1389 H1368 0.950 . S
C1389 C1388 1.373 . S
C1389 C1405 1.377 . S
C1390 C1388 1.389 . S
C1390 C1391 1.524 . S
C1390 C1404 1.377 . S
C1391 C1390 1.524 . S
C1391 C1392 1.397 . S
C1391 C1396 1.363 . S
C1392 H1369 0.950 . S
C1392 C1391 1.397 . S
C1392 C1393 1.334 . S
C1393 H1370 0.950 . S
C1393 C1392 1.334 . S
C1393 C1394 1.287 . S
C1394 C1393 1.287 . S
C1394 C1395 1.524 . S
C1394 H1413 0.913 . S
C1395 H1371 0.950 . S
C1395 C1394 1.524 . S
C1395 C1396 1.415 . S
C1396 H1372 0.950 . S
C1396 C1391 1.363 . S
C1396 C1395 1.415 . S
C1397 H1373 0.951 . S
C1397 C1398 1.366 . S
C1397 C1399 1.388 . S
C1398 C1397 1.366 . S
C1398 C1402 1.385 . S
C1399 H1374 0.951 . S
C1399 C1397 1.388 . S
C1399 C1400 1.366 . S
C1400 C1399 1.366 . S
C1400 C1401 1.414 . S
C1400 C1403 1.499 . S
C1401 H1375 0.950 . S
C1401 C1400 1.414 . S
C1401 C1402 1.374 . S
C1402 H1376 0.950 . S
C1402 C1398 1.385 . S
C1402 C1401 1.374 . S
C1403 C1400 1.499 . S
C1403 C1404 1.373 . S
C1403 C1405 1.389 . S
C1404 H1377 0.950 . S
C1404 C1390 1.377 . S
C1404 C1403 1.373 . S
C1405 C1389 1.377 . S
C1405 C1403 1.389 . S
C1405 C1406 1.524 . S
C1406 C1405 1.524 . S
C1406 C1407 1.397 . S
C1406 C1411 1.363 . S
C1407 H1378 0.950 . S
C1407 C1406 1.397 . S
C1407 C1408 1.334 1_455 S
C1408 H1379 0.950 . S
C1408 C1407 1.334 1_655 S
C1408 C1409 1.287 . S
C1409 C1408 1.287 . S
C1409 C1410 1.524 . S
C1409 H1412 0.999 . S
C1410 H1380 0.950 . S
C1410 C1409 1.524 . S
C1410 C1411 1.415 1_655 S
C1411 H1381 0.950 . S
C1411 C1406 1.363 . S
C1411 C1410 1.415 1_455 S
H1412 C1409 0.999 . S
H1413 C1394 0.913 . S
H1414 C1432 0.951 . S
H1415 C1434 0.951 . S
H1416 C1436 0.950 . S
H1417 C1437 0.948 1_565 S
H1418 C1439 0.950 . S
H1419 C1442 0.950 . S
H1420 C1443 0.950 . S
H1421 C1445 0.950 . S
H1422 C1446 0.955 1_545 S
H1423 C1447 0.951 . S
H1424 C1449 0.951 . S
H1425 C1451 0.950 . S
H1426 C1452 0.950 . S
H1427 C1454 0.950 . S
H1428 C1457 0.950 . S
H1429 C1458 0.950 . S
H1430 C1460 0.950 . S
H1431 C1461 0.950 . S
C1432 H1414 0.951 . S
C1432 C1433 1.366 . S
C1432 C1434 1.388 1_565 S
C1433 C1432 1.366 . S
C1433 C1437 1.378 1_565 S
C1434 H1415 0.951 . S
C1434 C1432 1.388 1_545 S
C1434 C1435 1.366 . S
C1435 C1434 1.366 . S
C1435 C1436 1.414 . S
C1435 C1438 1.499 . S
C1436 H1416 0.950 . S
C1436 C1435 1.414 . S
C1436 C1437 1.383 . S
C1437 H1417 0.948 1_545 S
C1437 C1433 1.378 1_545 S
C1437 C1436 1.383 . S
C1438 C1435 1.499 . S
C1438 C1439 1.373 . S
C1438 C1440 1.389 . S
C1439 H1418 0.950 . S
C1439 C1438 1.373 . S
C1439 C1455 1.377 . S
C1440 C1438 1.389 . S
C1440 C1441 1.524 1_545 S
C1440 C1454 1.377 . S
C1441 C1440 1.524 1_565 S
C1441 C1442 1.397 . S
C1441 C1446 1.363 . S
C1442 H1419 0.950 . S
C1442 C1441 1.397 . S
C1442 C1443 1.334 . S
C1443 H1420 0.950 . S
C1443 C1442 1.334 . S
C1443 C1444 1.287 . S
C1444 C1443 1.287 . S
C1444 C1445 1.524 . S
C1444 H1463 0.913 . S
C1445 H1421 0.950 . S
C1445 C1444 1.524 . S
C1445 C1446 1.415 . S
C1446 H1422 0.955 1_565 S
C1446 C1441 1.363 . S
C1446 C1445 1.415 . S
C1447 H1423 0.951 . S
C1447 C1448 1.366 . S
C1447 C1449 1.388 . S
C1448 C1447 1.366 . S
C1448 C1452 1.385 . S
C1449 H1424 0.951 . S
C1449 C1447 1.388 . S
C1449 C1450 1.366 . S
C1450 C1449 1.366 . S
C1450 C1451 1.414 . S
C1450 C1453 1.499 . S
C1451 H1425 0.950 . S
C1451 C1450 1.414 . S
C1451 C1452 1.374 . S
C1452 H1426 0.950 . S
C1452 C1448 1.385 . S
C1452 C1451 1.374 . S
C1453 C1450 1.499 . S
C1453 C1454 1.373 . S
C1453 C1455 1.389 . S
C1454 H1427 0.950 . S
C1454 C1440 1.377 . S
C1454 C1453 1.373 . S
C1455 C1439 1.377 . S
C1455 C1453 1.389 . S
C1455 C1456 1.524 . S
C1456 C1455 1.524 . S
C1456 C1457 1.397 . S
C1456 C1461 1.363 . S
C1457 H1428 0.950 . S
C1457 C1456 1.397 . S
C1457 C1458 1.334 . S
C1458 H1429 0.950 . S
C1458 C1457 1.334 . S
C1458 C1459 1.287 . S
C1459 C1458 1.287 . S
C1459 C1460 1.524 . S
C1459 H1462 0.999 . S
C1460 H1430 0.950 . S
C1460 C1459 1.524 . S
C1460 C1461 1.415 . S
C1461 H1431 0.950 . S
C1461 C1456 1.363 . S
C1461 C1460 1.415 . S
H1462 C1459 0.999 . S
H1463 C1444 0.913 . S
H1464 C1482 0.951 . S
H1465 C1484 0.951 . S
H1466 C1486 0.950 . S
H1467 C1487 0.950 . S
H1468 C1489 0.950 . S
H1469 C1492 0.975 . S
H1470 C1493 0.950 . S
H1471 C1495 0.950 . S
H1472 C1496 0.950 . S
H1473 C1497 0.951 . S
H1474 C1499 0.951 . S
H1475 C1501 0.950 . S
H1476 C1502 0.950 . S
H1477 C1504 0.950 . S
H1478 C1507 0.950 . S
H1479 C1508 0.950 . S
H1480 C1510 0.950 . S
H1481 C1511 0.950 . S
C1482 H1464 0.951 . S
C1482 C1483 1.366 1_655 S
C1482 C1484 1.388 . S
C1483 C1482 1.366 1_455 S
C1483 C1487 1.385 . S
C1484 H1465 0.951 . S
C1484 C1482 1.388 . S
C1484 C1485 1.366 . S
C1485 C1484 1.366 . S
C1485 C1486 1.414 1_655 S
C1485 C1488 1.499 . S
C1486 H1466 0.950 . S
C1486 C1485 1.414 1_455 S
C1486 C1487 1.374 . S
C1487 H1467 0.950 . S
C1487 C1483 1.385 . S
C1487 C1486 1.374 . S
C1488 C1485 1.499 . S
C1488 C1489 1.373 . S
C1488 C1490 1.389 . S
C1489 H1468 0.950 . S
C1489 C1488 1.373 . S
C1489 C1505 1.377 . S
C1490 C1488 1.389 . S
C1490 C1491 1.524 . S
C1490 C1504 1.377 . S
C1491 C1490 1.524 . S
C1491 C1492 1.359 1_655 S
C1491 C1496 1.363 . S
C1492 H1469 0.975 . S
C1492 C1491 1.359 1_455 S
C1492 C1493 1.348 . S
C1493 H1470 0.950 . S
C1493 C1492 1.348 . S
C1493 C1494 1.287 1_455 S
C1494 C1493 1.287 1_655 S
C1494 C1495 1.524 . S
C1494 H1513 0.920 . S
C1495 H1471 0.950 . S
C1495 C1494 1.524 . S
C1495 C1496 1.415 . S
C1496 H1472 0.950 . S
C1496 C1491 1.363 . S
C1496 C1495 1.415 . S
C1497 H1473 0.951 . S
C1497 C1498 1.366 . S
C1497 C1499 1.388 . S
C1498 C1497 1.366 . S
C1498 C1502 1.385 . S
C1499 H1474 0.951 . S
C1499 C1497 1.388 . S
C1499 C1500 1.366 . S
C1500 C1499 1.366 . S
C1500 C1501 1.414 . S
C1500 C1503 1.499 . S
C1501 H1475 0.950 . S
C1501 C1500 1.414 . S
C1501 C1502 1.374 . S
C1502 H1476 0.950 . S
C1502 C1498 1.385 . S
C1502 C1501 1.374 . S
C1503 C1500 1.499 . S
C1503 C1504 1.373 . S
C1503 C1505 1.389 . S
C1504 H1477 0.950 . S
C1504 C1490 1.377 . S
C1504 C1503 1.373 . S
C1505 C1489 1.377 . S
C1505 C1503 1.389 . S
C1505 C1506 1.524 . S
C1506 C1505 1.524 . S
C1506 C1507 1.397 . S
C1506 C1511 1.363 . S
C1507 H1478 0.950 . S
C1507 C1506 1.397 . S
C1507 C1508 1.334 . S
C1508 H1479 0.950 . S
C1508 C1507 1.334 . S
C1508 C1509 1.287 . S
C1509 C1508 1.287 . S
C1509 C1510 1.524 . S
C1509 H1512 0.999 . S
C1510 H1480 0.950 . S
C1510 C1509 1.524 . S
C1510 C1511 1.415 . S
C1511 H1481 0.950 . S
C1511 C1506 1.363 . S
C1511 C1510 1.415 . S
H1512 C1509 0.999 . S
H1513 C1494 0.920 . S
H1514 C1532 0.951 . S
H1515 C1534 0.951 . S
H1516 C1536 0.950 . S
H1517 C1537 0.950 . S
H1518 C1539 0.950 . S
H1519 C1542 0.950 . S
H1520 C1543 0.950 . S
H1521 C1545 0.950 . S
H1522 C1546 0.950 . S
H1523 C1547 0.951 . S
H1524 C1549 0.951 . S
H1525 C1551 0.950 . S
H1526 C1552 0.950 . S
H1527 C1554 0.950 . S
H1528 C1557 0.950 . S
H1529 C1558 0.950 . S
H1530 C1560 0.950 . S
H1531 C1561 0.950 . S
C1532 H1514 0.951 . S
C1532 C1533 1.366 . S
C1532 C1534 1.388 . S
C1533 C1532 1.366 . S
C1533 C1537 1.385 1_545 S
C1534 H1515 0.951 . S
C1534 C1532 1.388 . S
C1534 C1535 1.366 1_545 S
C1535 C1534 1.366 1_565 S
C1535 C1536 1.414 . S
C1535 C1538 1.499 . S
C1536 H1516 0.950 . S
C1536 C1535 1.414 . S
C1536 C1537 1.374 . S
C1537 H1517 0.950 . S
C1537 C1533 1.385 1_565 S
C1537 C1536 1.374 . S
C1538 C1535 1.499 . S
C1538 C1539 1.373 . S
C1538 C1540 1.389 . S
C1539 H1518 0.950 . S
C1539 C1538 1.373 . S
C1539 C1555 1.377 . S
C1540 C1538 1.389 . S
C1540 C1541 1.524 1_565 S
C1540 C1554 1.377 . S
C1541 C1540 1.524 1_545 S
C1541 C1542 1.397 . S
C1541 C1546 1.363 . S
C1542 H1519 0.950 . S
C1542 C1541 1.397 . S
C1542 C1543 1.334 . S
C1543 H1520 0.950 . S
C1543 C1542 1.334 . S
C1543 C1544 1.287 . S
C1544 C1543 1.287 . S
C1544 C1545 1.524 . S
C1544 H1563 0.913 . S
C1545 H1521 0.950 . S
C1545 C1544 1.524 . S
C1545 C1546 1.415 . S
C1546 H1522 0.950 . S
C1546 C1541 1.363 . S
C1546 C1545 1.415 . S
C1547 H1523 0.951 . S
C1547 C1548 1.366 . S
C1547 C1549 1.388 . S
C1548 C1547 1.366 . S
C1548 C1552 1.385 . S
C1549 H1524 0.951 . S
C1549 C1547 1.388 . S
C1549 C1550 1.366 . S
C1550 C1549 1.366 . S
C1550 C1551 1.414 . S
C1550 C1553 1.499 . S
C1551 H1525 0.950 . S
C1551 C1550 1.414 . S
C1551 C1552 1.374 . S
C1552 H1526 0.950 . S
C1552 C1548 1.385 . S
C1552 C1551 1.374 . S
C1553 C1550 1.499 . S
C1553 C1554 1.373 . S
C1553 C1555 1.389 . S
C1554 H1527 0.950 . S
C1554 C1540 1.377 . S
C1554 C1553 1.373 . S
C1555 C1539 1.377 . S
C1555 C1553 1.389 . S
C1555 C1556 1.524 . S
C1556 C1555 1.524 . S
C1556 C1557 1.397 . S
C1556 C1561 1.363 . S
C1557 H1528 0.950 . S
C1557 C1556 1.397 . S
C1557 C1558 1.334 . S
C1558 H1529 0.950 . S
C1558 C1557 1.334 . S
C1558 C1559 1.287 . S
C1559 C1558 1.287 . S
C1559 C1560 1.524 . S
C1559 H1562 0.999 . S
C1560 H1530 0.950 . S
C1560 C1559 1.524 . S
C1560 C1561 1.415 . S
C1561 H1531 0.950 . S
C1561 C1556 1.363 . S
C1561 C1560 1.415 . S
H1562 C1559 0.999 . S
H1563 C1544 0.913 . S
H1564 C1582 0.951 . S
H1565 C1584 0.951 . S
H1566 C1586 0.950 . S
H1567 C1587 0.950 . S
H1568 C1589 0.950 . S
H1569 C1592 0.950 . S
H1570 C1593 0.950 . S
H1571 C1595 0.950 . S
H1572 C1596 0.950 . S
H1573 C1597 0.951 . S
H1574 C1599 0.951 . S
H1575 C1601 0.950 . S
H1576 C1602 0.950 . S
H1577 C1604 0.950 . S
H1578 C1607 0.950 . S
H1579 C1608 0.950 . S
H1580 C1610 0.950 . S
H1581 C1611 0.950 . S
C1582 H1564 0.951 . S
C1582 C1583 1.366 . S
C1582 C1584 1.388 . S
C1583 C1582 1.366 . S
C1583 C1587 1.385 . S
C1584 H1565 0.951 . S
C1584 C1582 1.388 . S
C1584 C1585 1.366 . S
C1585 C1584 1.366 . S
C1585 C1586 1.414 . S
C1585 C1588 1.499 . S
C1586 H1566 0.950 . S
C1586 C1585 1.414 . S
C1586 C1587 1.374 . S
C1587 H1567 0.950 . S
C1587 C1583 1.385 . S
C1587 C1586 1.374 . S
C1588 C1585 1.499 . S
C1588 C1589 1.373 . S
C1588 C1590 1.389 . S
C1589 H1568 0.950 . S
C1589 C1588 1.373 . S
C1589 C1605 1.377 . S
C1590 C1588 1.389 . S
C1590 C1591 1.524 . S
C1590 C1604 1.377 . S
C1591 C1590 1.524 . S
C1591 C1592 1.397 . S
C1591 C1596 1.363 . S
C1592 H1569 0.950 . S
C1592 C1591 1.397 . S
C1592 C1593 1.334 . S
C1593 H1570 0.950 . S
C1593 C1592 1.334 . S
C1593 C1594 1.287 . S
C1594 C1593 1.287 . S
C1594 C1595 1.524 . S
C1594 H1613 0.913 . S
C1595 H1571 0.950 . S
C1595 C1594 1.524 . S
C1595 C1596 1.415 . S
C1596 H1572 0.950 . S
C1596 C1591 1.363 . S
C1596 C1595 1.415 . S
C1597 H1573 0.951 . S
C1597 C1598 1.366 . S
C1597 C1599 1.388 . S
C1598 C1597 1.366 . S
C1598 C1602 1.385 . S
C1599 H1574 0.951 . S
C1599 C1597 1.388 . S
C1599 C1600 1.366 . S
C1600 C1599 1.366 . S
C1600 C1601 1.414 . S
C1600 C1603 1.499 . S
C1601 H1575 0.950 . S
C1601 C1600 1.414 . S
C1601 C1602 1.374 . S
C1602 H1576 0.950 . S
C1602 C1598 1.385 . S
C1602 C1601 1.374 . S
C1603 C1600 1.499 . S
C1603 C1604 1.373 . S
C1603 C1605 1.389 . S
C1604 H1577 0.950 . S
C1604 C1590 1.377 . S
C1604 C1603 1.373 . S
C1605 C1589 1.377 . S
C1605 C1603 1.389 . S
C1605 C1606 1.524 . S
C1606 C1605 1.524 . S
C1606 C1607 1.397 . S
C1606 C1611 1.363 . S
C1607 H1578 0.950 . S
C1607 C1606 1.397 . S
C1607 C1608 1.334 . S
C1608 H1579 0.950 . S
C1608 C1607 1.334 . S
C1608 C1609 1.287 . S
C1609 C1608 1.287 . S
C1609 C1610 1.524 . S
C1609 H1612 0.999 . S
C1610 H1580 0.950 . S
C1610 C1609 1.524 . S
C1610 C1611 1.415 . S
C1611 H1581 0.950 . S
C1611 C1606 1.363 . S
C1611 C1610 1.415 . S
H1612 C1609 0.999 . S
H1613 C1594 0.913 . S
H1614 C1632 0.951 . S
H1615 C1634 0.951 . S
H1616 C1636 0.950 . S
H1617 C1637 0.950 . S
H1618 C1639 0.950 . S
H1619 C1642 0.950 . S
H1620 C1643 0.950 . S
H1621 C1645 0.950 . S
H1622 C1646 0.950 . S
H1623 C1647 0.951 . S
H1624 C1649 0.951 . S
H1625 C1651 0.950 . S
H1626 C1652 0.950 . S
H1627 C1654 0.950 . S
H1628 C1657 0.950 . S
H1629 C1658 0.950 . S
H1630 C1660 0.950 . S
H1631 C1661 0.950 . S
C1632 H1614 0.951 . S
C1632 C1633 1.366 . S
C1632 C1634 1.388 . S
C1633 C1632 1.366 . S
C1633 C1637 1.385 . S
C1634 H1615 0.951 . S
C1634 C1632 1.388 . S
C1634 C1635 1.366 . S
C1635 C1634 1.366 . S
C1635 C1636 1.414 . S
C1635 C1638 1.499 . S
C1636 H1616 0.950 . S
C1636 C1635 1.414 . S
C1636 C1637 1.374 . S
C1637 H1617 0.950 . S
C1637 C1633 1.385 . S
C1637 C1636 1.374 . S
C1638 C1635 1.499 . S
C1638 C1639 1.373 . S
C1638 C1640 1.389 . S
C1639 H1618 0.950 . S
C1639 C1638 1.373 . S
C1639 C1655 1.377 . S
C1640 C1638 1.389 . S
C1640 C1641 1.524 . S
C1640 C1654 1.377 . S
C1641 C1640 1.524 . S
C1641 C1642 1.397 . S
C1641 C1646 1.363 . S
C1642 H1619 0.950 . S
C1642 C1641 1.397 . S
C1642 C1643 1.334 . S
C1643 H1620 0.950 . S
C1643 C1642 1.334 . S
C1643 C1644 1.287 . S
C1644 C1643 1.287 . S
C1644 C1645 1.524 . S
C1644 H1663 0.913 . S
C1645 H1621 0.950 . S
C1645 C1644 1.524 . S
C1645 C1646 1.415 . S
C1646 H1622 0.950 . S
C1646 C1641 1.363 . S
C1646 C1645 1.415 . S
C1647 H1623 0.951 . S
C1647 C1648 1.366 . S
C1647 C1649 1.388 . S
C1648 C1647 1.366 . S
C1648 C1652 1.385 . S
C1649 H1624 0.951 . S
C1649 C1647 1.388 . S
C1649 C1650 1.366 . S
C1650 C1649 1.366 . S
C1650 C1651 1.414 . S
C1650 C1653 1.499 . S
C1651 H1625 0.950 . S
C1651 C1650 1.414 . S
C1651 C1652 1.374 . S
C1652 H1626 0.950 . S
C1652 C1648 1.385 . S
C1652 C1651 1.374 . S
C1653 C1650 1.499 . S
C1653 C1654 1.373 . S
C1653 C1655 1.389 . S
C1654 H1627 0.950 . S
C1654 C1640 1.377 . S
C1654 C1653 1.373 . S
C1655 C1639 1.377 . S
C1655 C1653 1.389 . S
C1655 C1656 1.524 . S
C1656 C1655 1.524 . S
C1656 C1657 1.397 . S
C1656 C1661 1.363 . S
C1657 H1628 0.950 . S
C1657 C1656 1.397 . S
C1657 C1658 1.334 . S
C1658 H1629 0.950 . S
C1658 C1657 1.334 . S
C1658 C1659 1.287 . S
C1659 C1658 1.287 . S
C1659 C1660 1.524 . S
C1659 H1662 0.999 . S
C1660 H1630 0.950 . S
C1660 C1659 1.524 . S
C1660 C1661 1.415 . S
C1661 H1631 0.950 . S
C1661 C1656 1.363 . S
C1661 C1660 1.415 . S
H1662 C1659 0.999 . S
H1663 C1644 0.913 . S
H1664 C1682 0.951 . S
H1665 C1684 0.951 . S
H1666 C1686 0.950 . S
H1667 C1687 0.950 . S
H1668 C1689 0.950 . S
H1669 C1692 0.950 . S
H1670 C1693 0.950 . S
H1671 C1695 0.950 . S
H1672 C1696 0.950 . S
H1673 C1697 0.951 . S
H1674 C1699 0.951 . S
H1675 C1701 0.950 . S
H1676 C1702 0.950 . S
H1677 C1704 0.950 . S
H1678 C1707 0.950 1_554 S
H1679 C1708 0.950 1_554 S
H1680 C1710 0.950 . S
H1681 C1711 0.950 . S
C1682 H1664 0.951 . S
C1682 C1683 1.366 . S
C1682 C1684 1.388 . S
C1683 C1682 1.366 . S
C1683 C1687 1.385 . S
C1684 H1665 0.951 . S
C1684 C1682 1.388 . S
C1684 C1685 1.366 . S
C1685 C1684 1.366 . S
C1685 C1686 1.414 . S
C1685 C1688 1.499 . S
C1686 H1666 0.950 . S
C1686 C1685 1.414 . S
C1686 C1687 1.374 . S
C1687 H1667 0.950 . S
C1687 C1683 1.385 . S
C1687 C1686 1.374 . S
C1688 C1685 1.499 . S
C1688 C1689 1.373 . S
C1688 C1690 1.364 1_556 S
C1689 H1668 0.950 . S
C1689 C1688 1.373 . S
C1689 C1705 1.377 . S
C1690 C1688 1.364 1_554 S
C1690 C1691 1.532 . S
C1690 C1704 1.396 . S
C1691 C1690 1.532 . S
C1691 C1692 1.397 1_554 S
C1691 C1696 1.363 . S
C1692 H1669 0.950 . S
C1692 C1691 1.397 1_556 S
C1692 C1693 1.334 . S
C1693 H1670 0.950 . S
C1693 C1692 1.334 . S
C1693 C1694 1.287 1_556 S
C1694 C1693 1.287 1_554 S
C1694 C1695 1.524 . S
C1694 H1713 0.913 . S
C1695 H1671 0.950 . S
C1695 C1694 1.524 . S
C1695 C1696 1.415 . S
C1696 H1672 0.950 . S
C1696 C1691 1.363 . S
C1696 C1695 1.415 . S
C1697 H1673 0.951 . S
C1697 C1698 1.366 . S
C1697 C1699 1.388 . S
C1698 C1697 1.366 . S
C1698 C1702 1.385 . S
C1699 H1674 0.951 . S
C1699 C1697 1.388 . S
C1699 C1700 1.366 . S
C1700 C1699 1.366 . S
C1700 C1701 1.414 . S
C1700 C1703 1.499 . S
C1701 H1675 0.950 . S
C1701 C1700 1.414 . S
C1701 C1702 1.374 . S
C1702 H1676 0.950 . S
C1702 C1698 1.385 . S
C1702 C1701 1.374 . S
C1703 C1700 1.499 . S
C1703 C1704 1.373 . S
C1703 C1705 1.389 1_554 S
C1704 H1677 0.950 . S
C1704 C1690 1.396 . S
C1704 C1703 1.373 . S
C1705 C1689 1.377 . S
C1705 C1703 1.389 1_556 S
C1705 C1706 1.524 . S
C1706 C1705 1.524 . S
C1706 C1707 1.397 . S
C1706 C1711 1.363 . S
C1707 H1678 0.950 1_556 S
C1707 C1706 1.397 . S
C1707 C1708 1.334 . S
C1708 H1679 0.950 1_556 S
C1708 C1707 1.334 . S
C1708 C1709 1.287 . S
C1709 C1708 1.287 . S
C1709 C1710 1.524 . S
C1709 H1712 0.999 . S
C1710 H1680 0.950 . S
C1710 C1709 1.524 . S
C1710 C1711 1.415 . S
C1711 H1681 0.950 . S
C1711 C1706 1.363 . S
C1711 C1710 1.415 . S
H1712 C1709 0.999 . S
H1713 C1694 0.913 . S
H1714 C1732 0.951 . S
H1715 C1734 0.951 . S
H1716 C1736 0.950 . S
H1717 C1737 0.950 . S
H1718 C1739 0.950 . S
H1719 C1742 0.950 . S
H1720 C1743 0.950 . S
H1721 C1745 0.950 . S
H1722 C1746 0.950 . S
H1723 C1747 0.951 . S
H1724 C1749 0.951 . S
H1725 C1751 0.950 . S
H1726 C1752 0.950 . S
H1727 C1754 0.950 . S
H1728 C1757 0.950 . S
H1729 C1758 0.950 . S
H1730 C1760 0.950 . S
H1731 C1761 0.950 . S
C1732 H1714 0.951 . S
C1732 C1733 1.366 . S
C1732 C1734 1.388 . S
C1733 C1732 1.366 . S
C1733 C1737 1.385 . S
C1734 H1715 0.951 . S
C1734 C1732 1.388 . S
C1734 C1735 1.366 . S
C1735 C1734 1.366 . S
C1735 C1736 1.414 . S
C1735 C1738 1.499 . S
C1736 H1716 0.950 . S
C1736 C1735 1.414 . S
C1736 C1737 1.374 . S
C1737 H1717 0.950 . S
C1737 C1733 1.385 . S
C1737 C1736 1.374 . S
C1738 C1735 1.499 . S
C1738 C1739 1.373 . S
C1738 C1740 1.389 . S
C1739 H1718 0.950 . S
C1739 C1738 1.373 . S
C1739 C1755 1.377 1_556 S
C1740 C1738 1.389 . S
C1740 C1741 1.524 . S
C1740 C1754 1.377 . S
C1741 C1740 1.524 . S
C1741 C1742 1.397 . S
C1741 C1746 1.363 . S
C1742 H1719 0.950 . S
C1742 C1741 1.397 . S
C1742 C1743 1.334 . S
C1743 H1720 0.950 . S
C1743 C1742 1.334 . S
C1743 C1744 1.287 . S
C1744 C1743 1.287 . S
C1744 C1745 1.524 . S
C1744 H1763 0.913 . S
C1745 H1721 0.950 . S
C1745 C1744 1.524 . S
C1745 C1746 1.415 . S
C1746 H1722 0.950 . S
C1746 C1741 1.363 . S
C1746 C1745 1.415 . S
C1747 H1723 0.951 . S
C1747 C1748 1.366 . S
C1747 C1749 1.388 . S
C1748 C1747 1.366 . S
C1748 C1752 1.385 . S
C1749 H1724 0.951 . S
C1749 C1747 1.388 . S
C1749 C1750 1.366 . S
C1750 C1749 1.366 . S
C1750 C1751 1.414 . S
C1750 C1753 1.499 . S
C1751 H1725 0.950 . S
C1751 C1750 1.414 . S
C1751 C1752 1.374 . S
C1752 H1726 0.950 . S
C1752 C1748 1.385 . S
C1752 C1751 1.374 . S
C1753 C1750 1.499 . S
C1753 C1754 1.373 1_554 S
C1753 C1755 1.389 . S
C1754 H1727 0.950 . S
C1754 C1740 1.377 . S
C1754 C1753 1.373 1_556 S
C1755 C1739 1.377 1_554 S
C1755 C1753 1.389 . S
C1755 C1756 1.524 . S
C1756 C1755 1.524 . S
C1756 C1757 1.397 . S
C1756 C1761 1.363 . S
C1757 H1728 0.950 . S
C1757 C1756 1.397 . S
C1757 C1758 1.334 . S
C1758 H1729 0.950 . S
C1758 C1757 1.334 . S
C1758 C1759 1.287 . S
C1759 C1758 1.287 . S
C1759 C1760 1.524 . S
C1759 H1762 0.999 . S
C1760 H1730 0.950 . S
C1760 C1759 1.524 . S
C1760 C1761 1.415 . S
C1761 H1731 0.950 . S
C1761 C1756 1.363 . S
C1761 C1760 1.415 . S
H1762 C1759 0.999 . S
H1763 C1744 0.913 . S
H1764 C1782 0.951 . S
H1765 C1784 0.951 . S
H1766 C1786 0.950 . S
H1767 C1787 0.950 . S
H1768 C1789 0.966 . S
H1769 C1792 0.950 . S
H1770 C1793 0.950 . S
H1771 C1795 0.950 . S
H1772 C1796 0.950 . S
H1773 C1797 0.951 . S
H1774 C1799 0.951 . S
H1775 C1801 0.950 . S
H1776 C1802 0.950 . S
H1777 C1804 0.950 . S
H1778 C1807 0.950 . S
H1779 C1808 0.950 . S
H1780 C1810 0.950 . S
H1781 C1811 0.950 . S
C1782 H1764 0.951 . S
C1782 C1783 1.366 . S
C1782 C1784 1.388 . S
C1783 C1782 1.366 . S
C1783 C1787 1.385 . S
C1784 H1765 0.951 . S
C1784 C1782 1.388 . S
C1784 C1785 1.366 . S
C1785 C1784 1.366 . S
C1785 C1786 1.414 . S
C1785 C1788 1.499 . S
C1786 H1766 0.950 . S
C1786 C1785 1.414 . S
C1786 C1787 1.374 . S
C1787 H1767 0.950 . S
C1787 C1783 1.385 . S
C1787 C1786 1.374 . S
C1788 C1785 1.499 . S
C1788 C1789 1.323 1_556 S
C1788 C1790 1.389 . S
C1789 H1768 0.966 . S
C1789 C1788 1.323 1_554 S
C1789 C1805 1.414 . S
C1790 C1788 1.389 . S
C1790 C1791 1.524 . S
C1790 C1804 1.377 . S
C1791 C1790 1.524 . S
C1791 C1792 1.397 . S
C1791 C1796 1.363 . S
C1792 H1769 0.950 . S
C1792 C1791 1.397 . S
C1792 C1793 1.334 . S
C1793 H1770 0.950 . S
C1793 C1792 1.334 . S
C1793 C1794 1.287 . S
C1794 C1793 1.287 . S
C1794 C1795 1.524 . S
C1794 H1813 0.913 . S
C1795 H1771 0.950 . S
C1795 C1794 1.524 . S
C1795 C1796 1.415 . S
C1796 H1772 0.950 . S
C1796 C1791 1.363 . S
C1796 C1795 1.415 . S
C1797 H1773 0.951 . S
C1797 C1798 1.366 . S
C1797 C1799 1.388 . S
C1798 C1797 1.366 . S
C1798 C1802 1.385 . S
C1799 H1774 0.951 . S
C1799 C1797 1.388 . S
C1799 C1800 1.366 . S
C1800 C1799 1.366 . S
C1800 C1801 1.414 . S
C1800 C1803 1.499 . S
C1801 H1775 0.950 . S
C1801 C1800 1.414 . S
C1801 C1802 1.374 . S
C1802 H1776 0.950 . S
C1802 C1798 1.385 . S
C1802 C1801 1.374 . S
C1803 C1800 1.499 . S
C1803 C1804 1.373 1_554 S
C1803 C1805 1.389 . S
C1804 H1777 0.950 . S
C1804 C1790 1.377 . S
C1804 C1803 1.373 1_556 S
C1805 C1789 1.414 . S
C1805 C1803 1.389 . S
C1805 C1806 1.524 . S
C1806 C1805 1.524 . S
C1806 C1807 1.397 . S
C1806 C1811 1.363 . S
C1807 H1778 0.950 . S
C1807 C1806 1.397 . S
C1807 C1808 1.334 . S
C1808 H1779 0.950 . S
C1808 C1807 1.334 . S
C1808 C1809 1.287 . S
C1809 C1808 1.287 . S
C1809 C1810 1.524 . S
C1809 H1812 0.999 . S
C1810 H1780 0.950 . S
C1810 C1809 1.524 . S
C1810 C1811 1.415 . S
C1811 H1781 0.950 . S
C1811 C1806 1.363 . S
C1811 C1810 1.415 . S
H1812 C1809 0.999 . S
H1813 C1794 0.913 . S
H1814 C1832 0.951 . S
H1815 C1834 0.951 . S
H1816 C1836 0.950 . S
H1817 C1837 0.950 . S
H1818 C1839 0.950 . S
H1819 C1842 0.950 . S
H1820 C1843 0.950 . S
H1821 C1845 0.950 . S
H1822 C1846 0.950 . S
H1823 C1847 0.951 . S
H1824 C1849 0.951 . S
H1825 C1851 0.950 . S
H1826 C1852 0.950 . S
H1827 C1854 0.950 . S
H1828 C1857 0.950 . S
H1829 C1858 0.950 . S
H1830 C1860 0.950 . S
H1831 C1861 0.950 . S
C1832 H1814 0.951 . S
C1832 C1833 1.366 . S
C1832 C1834 1.388 . S
C1833 C1832 1.366 . S
C1833 C1837 1.385 . S
C1834 H1815 0.951 . S
C1834 C1832 1.388 . S
C1834 C1835 1.366 . S
C1835 C1834 1.366 . S
C1835 C1836 1.414 . S
C1835 C1838 1.499 . S
C1836 H1816 0.950 . S
C1836 C1835 1.414 . S
C1836 C1837 1.374 . S
C1837 H1817 0.950 . S
C1837 C1833 1.385 . S
C1837 C1836 1.374 . S
C1838 C1835 1.499 . S
C1838 C1839 1.373 . S
C1838 C1840 1.389 . S
C1839 H1818 0.950 . S
C1839 C1838 1.373 . S
C1839 C1855 1.377 1_556 S
C1840 C1838 1.389 . S
C1840 C1841 1.524 . S
C1840 C1854 1.377 . S
C1841 C1840 1.524 . S
C1841 C1842 1.397 . S
C1841 C1846 1.363 . S
C1842 H1819 0.950 . S
C1842 C1841 1.397 . S
C1842 C1843 1.334 . S
C1843 H1820 0.950 . S
C1843 C1842 1.334 . S
C1843 C1844 1.287 . S
C1844 C1843 1.287 . S
C1844 C1845 1.524 . S
C1844 H1863 0.913 . S
C1845 H1821 0.950 . S
C1845 C1844 1.524 . S
C1845 C1846 1.415 . S
C1846 H1822 0.950 . S
C1846 C1841 1.363 . S
C1846 C1845 1.415 . S
C1847 H1823 0.951 . S
C1847 C1848 1.366 . S
C1847 C1849 1.388 . S
C1848 C1847 1.366 . S
C1848 C1852 1.385 . S
C1849 H1824 0.951 . S
C1849 C1847 1.388 . S
C1849 C1850 1.366 . S
C1850 C1849 1.366 . S
C1850 C1851 1.414 . S
C1850 C1853 1.499 . S
C1851 H1825 0.950 . S
C1851 C1850 1.414 . S
C1851 C1852 1.374 . S
C1852 H1826 0.950 . S
C1852 C1848 1.385 . S
C1852 C1851 1.374 . S
C1853 C1850 1.499 . S
C1853 C1854 1.373 1_554 S
C1853 C1855 1.389 . S
C1854 H1827 0.950 . S
C1854 C1840 1.377 . S
C1854 C1853 1.373 1_556 S
C1855 C1839 1.377 1_554 S
C1855 C1853 1.389 . S
C1855 C1856 1.524 . S
C1856 C1855 1.524 . S
C1856 C1857 1.397 . S
C1856 C1861 1.363 . S
C1857 H1828 0.950 . S
C1857 C1856 1.397 . S
C1857 C1858 1.334 . S
C1858 H1829 0.950 . S
C1858 C1857 1.334 . S
C1858 C1859 1.287 . S
C1859 C1858 1.287 . S
C1859 C1860 1.524 . S
C1859 H1862 0.999 . S
C1860 H1830 0.950 . S
C1860 C1859 1.524 . S
C1860 C1861 1.415 . S
C1861 H1831 0.950 . S
C1861 C1856 1.363 . S
C1861 C1860 1.415 . S
H1862 C1859 0.999 . S
H1863 C1844 0.913 . S
H1864 C1882 0.951 . S
H1865 C1884 0.951 . S
H1866 C1886 0.950 . S
H1867 C1887 0.950 . S
H1868 C1889 0.950 . S
H1869 C1892 0.950 . S
H1870 C1893 0.950 . S
H1871 C1895 0.950 . S
H1872 C1896 0.950 . S
H1873 C1897 0.951 . S
H1874 C1899 0.951 . S
H1875 C1901 0.950 . S
H1876 C1902 0.950 . S
H1877 C1904 0.950 . S
H1878 C1907 0.950 . S
H1879 C1908 0.950 . S
H1880 C1910 0.950 . S
H1881 C1911 0.950 . S
C1882 H1864 0.951 . S
C1882 C1883 1.366 . S
C1882 C1884 1.388 . S
C1883 C1882 1.366 . S
C1883 C1887 1.385 . S
C1884 H1865 0.951 . S
C1884 C1882 1.388 . S
C1884 C1885 1.366 . S
C1885 C1884 1.366 . S
C1885 C1886 1.414 . S
C1885 C1888 1.499 . S
C1886 H1866 0.950 . S
C1886 C1885 1.414 . S
C1886 C1887 1.374 . S
C1887 H1867 0.950 . S
C1887 C1883 1.385 . S
C1887 C1886 1.374 . S
C1888 C1885 1.499 . S
C1888 C1889 1.373 . S
C1888 C1890 1.389 . S
C1889 H1868 0.950 . S
C1889 C1888 1.373 . S
C1889 C1905 1.377 . S
C1890 C1888 1.389 . S
C1890 C1891 1.524 . S
C1890 C1904 1.377 . S
C1891 C1890 1.524 . S
C1891 C1892 1.397 . S
C1891 C1896 1.363 . S
C1892 H1869 0.950 . S
C1892 C1891 1.397 . S
C1892 C1893 1.334 . S
C1893 H1870 0.950 . S
C1893 C1892 1.334 . S
C1893 C1894 1.287 . S
C1894 C1893 1.287 . S
C1894 C1895 1.524 . S
C1894 H1913 0.913 . S
C1895 H1871 0.950 . S
C1895 C1894 1.524 . S
C1895 C1896 1.415 . S
C1896 H1872 0.950 . S
C1896 C1891 1.363 . S
C1896 C1895 1.415 . S
C1897 H1873 0.951 . S
C1897 C1898 1.366 . S
C1897 C1899 1.388 . S
C1898 C1897 1.366 . S
C1898 C1902 1.385 . S
C1899 H1874 0.951 . S
C1899 C1897 1.388 . S
C1899 C1900 1.366 . S
C1900 C1899 1.366 . S
C1900 C1901 1.414 . S
C1900 C1903 1.499 . S
C1901 H1875 0.950 . S
C1901 C1900 1.414 . S
C1901 C1902 1.374 . S
C1902 H1876 0.950 . S
C1902 C1898 1.385 . S
C1902 C1901 1.374 . S
C1903 C1900 1.499 . S
C1903 C1904 1.373 . S
C1903 C1905 1.389 . S
C1904 H1877 0.950 . S
C1904 C1890 1.377 . S
C1904 C1903 1.373 . S
C1905 C1889 1.377 . S
C1905 C1903 1.389 . S
C1905 C1906 1.524 . S
C1906 C1905 1.524 . S
C1906 C1907 1.397 . S
C1906 C1911 1.363 . S
C1907 H1878 0.950 . S
C1907 C1906 1.397 . S
C1907 C1908 1.334 . S
C1908 H1879 0.950 . S
C1908 C1907 1.334 . S
C1908 C1909 1.287 . S
C1909 C1908 1.287 . S
C1909 C1910 1.524 . S
C1909 H1912 0.999 . S
C1910 H1880 0.950 . S
C1910 C1909 1.524 . S
C1910 C1911 1.415 . S
C1911 H1881 0.950 . S
C1911 C1906 1.363 . S
C1911 C1910 1.415 . S
H1912 C1909 0.999 . S
H1913 C1894 0.913 . S
H1914 C1932 0.951 . S
H1915 C1934 0.951 . S
H1916 C1936 0.950 . S
H1917 C1937 0.950 . S
H1918 C1939 0.950 . S
H1919 C1942 0.950 . S
H1920 C1943 0.950 . S
H1921 C1945 0.950 . S
H1922 C1946 0.950 . S
H1923 C1947 0.951 . S
H1924 C1949 0.951 . S
H1925 C1951 0.950 . S
H1926 C1952 0.950 . S
H1927 C1954 0.950 . S
H1928 C1957 0.950 . S
H1929 C1958 0.950 . S
H1930 C1960 0.950 . S
H1931 C1961 0.950 . S
C1932 H1914 0.951 . S
C1932 C1933 1.366 . S
C1932 C1934 1.388 . S
C1933 C1932 1.366 . S
C1933 C1937 1.385 . S
C1934 H1915 0.951 . S
C1934 C1932 1.388 . S
C1934 C1935 1.366 . S
C1935 C1934 1.366 . S
C1935 C1936 1.414 . S
C1935 C1938 1.499 . S
C1936 H1916 0.950 . S
C1936 C1935 1.414 . S
C1936 C1937 1.374 . S
C1937 H1917 0.950 . S
C1937 C1933 1.385 . S
C1937 C1936 1.374 . S
C1938 C1935 1.499 . S
C1938 C1939 1.373 . S
C1938 C1940 1.389 . S
C1939 H1918 0.950 . S
C1939 C1938 1.373 . S
C1939 C1955 1.377 . S
C1940 C1938 1.389 . S
C1940 C1941 1.524 . S
C1940 C1954 1.377 . S
C1941 C1940 1.524 . S
C1941 C1942 1.397 . S
C1941 C1946 1.363 . S
C1942 H1919 0.950 . S
C1942 C1941 1.397 . S
C1942 C1943 1.334 . S
C1943 H1920 0.950 . S
C1943 C1942 1.334 . S
C1943 C1944 1.287 . S
C1944 C1943 1.287 . S
C1944 C1945 1.524 . S
C1944 H1963 0.913 . S
C1945 H1921 0.950 . S
C1945 C1944 1.524 . S
C1945 C1946 1.415 . S
C1946 H1922 0.950 . S
C1946 C1941 1.363 . S
C1946 C1945 1.415 . S
C1947 H1923 0.951 . S
C1947 C1948 1.366 . S
C1947 C1949 1.388 . S
C1948 C1947 1.366 . S
C1948 C1952 1.385 . S
C1949 H1924 0.951 . S
C1949 C1947 1.388 . S
C1949 C1950 1.366 . S
C1950 C1949 1.366 . S
C1950 C1951 1.414 . S
C1950 C1953 1.499 . S
C1951 H1925 0.950 . S
C1951 C1950 1.414 . S
C1951 C1952 1.374 . S
C1952 H1926 0.950 . S
C1952 C1948 1.385 . S
C1952 C1951 1.374 . S
C1953 C1950 1.499 . S
C1953 C1954 1.373 . S
C1953 C1955 1.389 . S
C1954 H1927 0.950 . S
C1954 C1940 1.377 . S
C1954 C1953 1.373 . S
C1955 C1939 1.377 . S
C1955 C1953 1.389 . S
C1955 C1956 1.524 . S
C1956 C1955 1.524 . S
C1956 C1957 1.397 . S
C1956 C1961 1.363 . S
C1957 H1928 0.950 . S
C1957 C1956 1.397 . S
C1957 C1958 1.334 . S
C1958 H1929 0.950 . S
C1958 C1957 1.334 . S
C1958 C1959 1.287 . S
C1959 C1958 1.287 . S
C1959 C1960 1.524 . S
C1959 H1962 0.999 . S
C1960 H1930 0.950 . S
C1960 C1959 1.524 . S
C1960 C1961 1.415 . S
C1961 H1931 0.950 . S
C1961 C1956 1.363 . S
C1961 C1960 1.415 . S
H1962 C1959 0.999 . S
H1963 C1944 0.913 . S
H1964 C1982 0.951 . S
H1965 C1984 0.951 . S
H1966 C1986 0.950 . S
H1967 C1987 0.950 . S
H1968 C1989 0.950 . S
H1969 C1992 0.950 . S
H1970 C1993 0.950 . S
H1971 C1995 0.950 . S
H1972 C1996 0.950 . S
H1973 C1997 0.951 . S
H1974 C1999 0.951 . S
H1975 C2001 0.950 . S
H1976 C2002 0.950 . S
H1977 C2004 0.950 . S
H1978 C2007 0.950 . S
H1979 C2008 0.950 . S
H1980 C2010 0.950 . S
H1981 C2011 0.950 . S
C1982 H1964 0.951 . S
C1982 C1983 1.366 . S
C1982 C1984 1.388 . S
C1983 C1982 1.366 . S
C1983 C1987 1.385 . S
C1984 H1965 0.951 . S
C1984 C1982 1.388 . S
C1984 C1985 1.366 . S
C1985 C1984 1.366 . S
C1985 C1986 1.414 . S
C1985 C1988 1.499 . S
C1986 H1966 0.950 . S
C1986 C1985 1.414 . S
C1986 C1987 1.374 . S
C1987 H1967 0.950 . S
C1987 C1983 1.385 . S
C1987 C1986 1.374 . S
C1988 C1985 1.499 . S
C1988 C1989 1.373 . S
C1988 C1990 1.389 . S
C1989 H1968 0.950 . S
C1989 C1988 1.373 . S
C1989 C2005 1.377 . S
C1990 C1988 1.389 . S
C1990 C1991 1.524 . S
C1990 C2004 1.377 . S
C1991 C1990 1.524 . S
C1991 C1992 1.397 . S
C1991 C1996 1.363 . S
C1992 H1969 0.950 . S
C1992 C1991 1.397 . S
C1992 C1993 1.334 . S
C1993 H1970 0.950 . S
C1993 C1992 1.334 . S
C1993 C1994 1.287 . S
C1994 C1993 1.287 . S
C1994 C1995 1.524 . S
C1994 H2013 0.913 . S
C1995 H1971 0.950 . S
C1995 C1994 1.524 . S
C1995 C1996 1.415 . S
C1996 H1972 0.950 . S
C1996 C1991 1.363 . S
C1996 C1995 1.415 . S
C1997 H1973 0.951 . S
C1997 C1998 1.366 . S
C1997 C1999 1.388 . S
C1998 C1997 1.366 . S
C1998 C2002 1.385 . S
C1999 H1974 0.951 . S
C1999 C1997 1.388 . S
C1999 C2000 1.366 . S
C2000 C1999 1.366 . S
C2000 C2001 1.414 . S
C2000 C2003 1.499 . S
C2001 H1975 0.950 . S
C2001 C2000 1.414 . S
C2001 C2002 1.374 . S
C2002 H1976 0.950 . S
C2002 C1998 1.385 . S
C2002 C2001 1.374 . S
C2003 C2000 1.499 . S
C2003 C2004 1.373 . S
C2003 C2005 1.389 . S
C2004 H1977 0.950 . S
C2004 C1990 1.377 . S
C2004 C2003 1.373 . S
C2005 C1989 1.377 . S
C2005 C2003 1.389 . S
C2005 C2006 1.524 . S
C2006 C2005 1.524 . S
C2006 C2007 1.397 . S
C2006 C2011 1.363 . S
C2007 H1978 0.950 . S
C2007 C2006 1.397 . S
C2007 C2008 1.334 . S
C2008 H1979 0.950 . S
C2008 C2007 1.334 . S
C2008 C2009 1.287 . S
C2009 C2008 1.287 . S
C2009 C2010 1.524 . S
C2009 H2012 0.999 . S
C2010 H1980 0.950 . S
C2010 C2009 1.524 . S
C2010 C2011 1.415 . S
C2011 H1981 0.950 . S
C2011 C2006 1.363 . S
C2011 C2010 1.415 . S
H2012 C2009 0.999 . S
H2013 C1994 0.913 . S
H2014 C2032 0.951 . S
H2015 C2034 0.951 . S
H2016 C2036 0.950 . S
H2017 C2037 0.950 . S
H2018 C2039 0.950 . S
H2019 C2042 0.950 . S
H2020 C2043 0.950 . S
H2021 C2045 0.950 . S
H2022 C2046 0.950 . S
H2023 C2047 0.951 . S
H2024 C2049 0.951 . S
H2025 C2051 0.950 . S
H2026 C2052 0.950 . S
H2027 C2054 0.950 . S
H2028 C2057 0.950 . S
H2029 C2058 0.950 . S
H2030 C2060 0.950 . S
H2031 C2061 0.950 . S
C2032 H2014 0.951 . S
C2032 C2033 1.366 . S
C2032 C2034 1.388 . S
C2033 C2032 1.366 . S
C2033 C2037 1.385 . S
C2034 H2015 0.951 . S
C2034 C2032 1.388 . S
C2034 C2035 1.366 . S
C2035 C2034 1.366 . S
C2035 C2036 1.414 . S
C2035 C2038 1.499 . S
C2036 H2016 0.950 . S
C2036 C2035 1.414 . S
C2036 C2037 1.374 . S
C2037 H2017 0.950 . S
C2037 C2033 1.385 . S
C2037 C2036 1.374 . S
C2038 C2035 1.499 . S
C2038 C2039 1.373 . S
C2038 C2040 1.389 . S
C2039 H2018 0.950 . S
C2039 C2038 1.373 . S
C2039 C2055 1.377 . S
C2040 C2038 1.389 . S
C2040 C2041 1.524 . S
C2040 C2054 1.377 . S
C2041 C2040 1.524 . S
C2041 C2042 1.397 . S
C2041 C2046 1.363 . S
C2042 H2019 0.950 . S
C2042 C2041 1.397 . S
C2042 C2043 1.334 . S
C2043 H2020 0.950 . S
C2043 C2042 1.334 . S
C2043 C2044 1.287 . S
C2044 C2043 1.287 . S
C2044 C2045 1.524 . S
C2044 H2063 0.913 . S
C2045 H2021 0.950 . S
C2045 C2044 1.524 . S
C2045 C2046 1.415 . S
C2046 H2022 0.950 . S
C2046 C2041 1.363 . S
C2046 C2045 1.415 . S
C2047 H2023 0.951 . S
C2047 C2048 1.366 . S
C2047 C2049 1.388 . S
C2048 C2047 1.366 . S
C2048 C2052 1.385 . S
C2049 H2024 0.951 . S
C2049 C2047 1.388 . S
C2049 C2050 1.366 . S
C2050 C2049 1.366 . S
C2050 C2051 1.414 . S
C2050 C2053 1.499 . S
C2051 H2025 0.950 . S
C2051 C2050 1.414 . S
C2051 C2052 1.374 . S
C2052 H2026 0.950 . S
C2052 C2048 1.385 . S
C2052 C2051 1.374 . S
C2053 C2050 1.499 . S
C2053 C2054 1.373 . S
C2053 C2055 1.389 . S
C2054 H2027 0.950 . S
C2054 C2040 1.377 . S
C2054 C2053 1.373 . S
C2055 C2039 1.377 . S
C2055 C2053 1.389 . S
C2055 C2056 1.524 . S
C2056 C2055 1.524 . S
C2056 C2057 1.397 . S
C2056 C2061 1.363 . S
C2057 H2028 0.950 . S
C2057 C2056 1.397 . S
C2057 C2058 1.334 . S
C2058 H2029 0.950 . S
C2058 C2057 1.334 . S
C2058 C2059 1.287 . S
C2059 C2058 1.287 . S
C2059 C2060 1.524 . S
C2059 H2062 0.999 . S
C2060 H2030 0.950 . S
C2060 C2059 1.524 . S
C2060 C2061 1.415 . S
C2061 H2031 0.950 . S
C2061 C2056 1.363 . S
C2061 C2060 1.415 . S
H2062 C2059 0.999 . S
H2063 C2044 0.913 . S
H2064 C2082 0.951 . S
H2065 C2084 0.951 . S
H2066 C2086 0.950 . S
H2067 C2087 0.950 . S
H2068 C2089 0.950 . S
H2069 C2092 0.950 . S
H2070 C2093 0.950 . S
H2071 C2095 0.950 . S
H2072 C2096 0.947 1_556 S
H2073 C2097 0.951 . S
H2074 C2099 0.951 . S
H2075 C2101 0.950 . S
H2076 C2102 0.950 . S
H2077 C2104 0.950 . S
H2078 C2107 0.946 1_556 S
H2079 C2108 0.959 . S
H2080 C2110 0.950 . S
H2081 C2111 0.950 . S
C2082 H2064 0.951 . S
C2082 C2083 1.366 . S
C2082 C2084 1.388 . S
C2083 C2082 1.366 . S
C2083 C2087 1.385 . S
C2084 H2065 0.951 . S
C2084 C2082 1.388 . S
C2084 C2085 1.366 . S
C2085 C2084 1.366 . S
C2085 C2086 1.414 . S
C2085 C2088 1.499 . S
C2086 H2066 0.950 . S
C2086 C2085 1.414 . S
C2086 C2087 1.374 . S
C2087 H2067 0.950 . S
C2087 C2083 1.385 . S
C2087 C2086 1.374 . S
C2088 C2085 1.499 . S
C2088 C2089 1.373 . S
C2088 C2090 1.389 1_556 S
C2089 H2068 0.950 . S
C2089 C2088 1.373 . S
C2089 C2105 1.377 1_556 S
C2090 C2088 1.389 1_554 S
C2090 C2091 1.524 . S
C2090 C2104 1.377 . S
C2091 C2090 1.524 . S
C2091 C2092 1.397 . S
C2091 C2096 1.363 . S
C2092 H2069 0.950 . S
C2092 C2091 1.397 . S
C2092 C2093 1.334 . S
C2093 H2070 0.950 . S
C2093 C2092 1.334 . S
C2093 C2094 1.287 . S
C2094 C2093 1.287 . S
C2094 C2095 1.524 . S
C2094 H2113 0.913 . S
C2095 H2071 0.950 . S
C2095 C2094 1.524 . S
C2095 C2096 1.415 . S
C2096 H2072 0.947 1_554 S
C2096 C2091 1.363 . S
C2096 C2095 1.415 . S
C2097 H2073 0.951 . S
C2097 C2098 1.366 . S
C2097 C2099 1.388 . S
C2098 C2097 1.366 . S
C2098 C2102 1.385 . S
C2099 H2074 0.951 . S
C2099 C2097 1.388 . S
C2099 C2100 1.366 . S
C2100 C2099 1.366 . S
C2100 C2101 1.414 . S
C2100 C2103 1.499 . S
C2101 H2075 0.950 . S
C2101 C2100 1.414 . S
C2101 C2102 1.374 . S
C2102 H2076 0.950 . S
C2102 C2098 1.385 . S
C2102 C2101 1.374 . S
C2103 C2100 1.499 . S
C2103 C2104 1.373 . S
C2103 C2105 1.389 . S
C2104 H2077 0.950 . S
C2104 C2090 1.377 . S
C2104 C2103 1.373 . S
C2105 C2089 1.377 1_554 S
C2105 C2103 1.389 . S
C2105 C2106 1.524 . S
C2106 C2105 1.524 . S
C2106 C2107 1.404 . S
C2106 C2111 1.363 . S
C2107 H2078 0.946 1_554 S
C2107 C2106 1.404 . S
C2107 C2108 1.330 1_554 S
C2108 H2079 0.959 . S
C2108 C2107 1.330 1_556 S
C2108 C2109 1.284 1_556 S
C2109 C2108 1.284 1_554 S
C2109 C2110 1.527 . S
C2109 H2112 0.998 1_554 S
C2110 H2080 0.950 . S
C2110 C2109 1.527 . S
C2110 C2111 1.415 . S
C2111 H2081 0.950 . S
C2111 C2106 1.363 . S
C2111 C2110 1.415 . S
H2112 C2109 0.998 1_556 S
H2113 C2094 0.913 . S
H2114 C2132 0.951 . S
H2115 C2134 0.951 . S
H2116 C2136 0.950 . S
H2117 C2137 0.950 . S
H2118 C2139 0.950 . S
H2119 C2142 0.950 . S
H2120 C2143 0.950 . S
H2121 C2145 0.950 . S
H2122 C2146 0.950 . S
H2123 C2147 0.951 . S
H2124 C2149 0.951 . S
H2125 C2151 0.950 . S
H2126 C2152 0.950 . S
H2127 C2154 0.950 . S
H2128 C2157 0.950 . S
H2129 C2158 0.950 . S
H2130 C2160 0.950 . S
H2131 C2161 0.950 . S
C2132 H2114 0.951 . S
C2132 C2133 1.366 . S
C2132 C2134 1.388 . S
C2133 C2132 1.366 . S
C2133 C2137 1.385 . S
C2134 H2115 0.951 . S
C2134 C2132 1.388 . S
C2134 C2135 1.366 . S
C2135 C2134 1.366 . S
C2135 C2136 1.414 . S
C2135 C2138 1.499 . S
C2136 H2116 0.950 . S
C2136 C2135 1.414 . S
C2136 C2137 1.374 . S
C2137 H2117 0.950 . S
C2137 C2133 1.385 . S
C2137 C2136 1.374 . S
C2138 C2135 1.499 . S
C2138 C2139 1.373 1_556 S
C2138 C2140 1.389 . S
C2139 H2118 0.950 . S
C2139 C2138 1.373 1_554 S
C2139 C2155 1.377 . S
C2140 C2138 1.389 . S
C2140 C2141 1.524 . S
C2140 C2154 1.377 1_556 S
C2141 C2140 1.524 . S
C2141 C2142 1.397 . S
C2141 C2146 1.363 . S
C2142 H2119 0.950 . S
C2142 C2141 1.397 . S
C2142 C2143 1.334 . S
C2143 H2120 0.950 . S
C2143 C2142 1.334 . S
C2143 C2144 1.287 . S
C2144 C2143 1.287 . S
C2144 C2145 1.524 . S
C2144 H2163 0.913 . S
C2145 H2121 0.950 . S
C2145 C2144 1.524 . S
C2145 C2146 1.415 . S
C2146 H2122 0.950 . S
C2146 C2141 1.363 . S
C2146 C2145 1.415 . S
C2147 H2123 0.951 . S
C2147 C2148 1.366 . S
C2147 C2149 1.388 . S
C2148 C2147 1.366 . S
C2148 C2152 1.385 . S
C2149 H2124 0.951 . S
C2149 C2147 1.388 . S
C2149 C2150 1.366 . S
C2150 C2149 1.366 . S
C2150 C2151 1.414 . S
C2150 C2153 1.499 . S
C2151 H2125 0.950 . S
C2151 C2150 1.414 . S
C2151 C2152 1.374 . S
C2152 H2126 0.950 . S
C2152 C2148 1.385 . S
C2152 C2151 1.374 . S
C2153 C2150 1.499 . S
C2153 C2154 1.373 . S
C2153 C2155 1.389 . S
C2154 H2127 0.950 . S
C2154 C2140 1.377 1_554 S
C2154 C2153 1.373 . S
C2155 C2139 1.377 . S
C2155 C2153 1.389 . S
C2155 C2156 1.524 . S
C2156 C2155 1.524 . S
C2156 C2157 1.397 . S
C2156 C2161 1.363 . S
C2157 H2128 0.950 . S
C2157 C2156 1.397 . S
C2157 C2158 1.334 . S
C2158 H2129 0.950 . S
C2158 C2157 1.334 . S
C2158 C2159 1.287 . S
C2159 C2158 1.287 . S
C2159 C2160 1.524 . S
C2159 H2162 0.999 . S
C2160 H2130 0.950 . S
C2160 C2159 1.524 . S
C2160 C2161 1.415 . S
C2161 H2131 0.950 . S
C2161 C2156 1.363 . S
C2161 C2160 1.415 . S
H2162 C2159 0.999 . S
H2163 C2144 0.913 . S
H2164 C2182 0.951 . S
H2165 C2184 0.951 . S
H2166 C2186 0.950 . S
H2167 C2187 0.950 . S
H2168 C2189 0.950 . S
H2169 C2192 0.950 . S
H2170 C2193 0.950 . S
H2171 C2195 0.950 . S
H2172 C2196 0.950 . S
H2173 C2197 0.951 . S
H2174 C2199 0.951 . S
H2175 C2201 0.950 . S
H2176 C2202 0.950 . S
H2177 C2204 0.950 . S
H2178 C2207 0.950 . S
H2179 C2208 0.950 . S
H2180 C2210 0.950 . S
H2181 C2211 0.950 . S
C2182 H2164 0.951 . S
C2182 C2183 1.366 . S
C2182 C2184 1.388 . S
C2183 C2182 1.366 . S
C2183 C2187 1.385 . S
C2184 H2165 0.951 . S
C2184 C2182 1.388 . S
C2184 C2185 1.366 . S
C2185 C2184 1.366 . S
C2185 C2186 1.414 . S
C2185 C2188 1.499 . S
C2186 H2166 0.950 . S
C2186 C2185 1.414 . S
C2186 C2187 1.374 . S
C2187 H2167 0.950 . S
C2187 C2183 1.385 . S
C2187 C2186 1.374 . S
C2188 C2185 1.499 . S
C2188 C2189 1.373 . S
C2188 C2190 1.389 1_556 S
C2189 H2168 0.950 . S
C2189 C2188 1.373 . S
C2189 C2205 1.377 1_556 S
C2190 C2188 1.389 1_554 S
C2190 C2191 1.524 . S
C2190 C2204 1.377 . S
C2191 C2190 1.524 . S
C2191 C2192 1.397 1_554 S
C2191 C2196 1.363 . S
C2192 H2169 0.950 . S
C2192 C2191 1.397 1_556 S
C2192 C2193 1.334 . S
C2193 H2170 0.950 . S
C2193 C2192 1.334 . S
C2193 C2194 1.287 1_556 S
C2194 C2193 1.287 1_554 S
C2194 C2195 1.524 . S
C2194 H2213 0.913 . S
C2195 H2171 0.950 . S
C2195 C2194 1.524 . S
C2195 C2196 1.415 . S
C2196 H2172 0.950 . S
C2196 C2191 1.363 . S
C2196 C2195 1.415 . S
C2197 H2173 0.951 . S
C2197 C2198 1.366 . S
C2197 C2199 1.388 . S
C2198 C2197 1.366 . S
C2198 C2202 1.385 . S
C2199 H2174 0.951 . S
C2199 C2197 1.388 . S
C2199 C2200 1.366 . S
C2200 C2199 1.366 . S
C2200 C2201 1.414 . S
C2200 C2203 1.499 . S
C2201 H2175 0.950 . S
C2201 C2200 1.414 . S
C2201 C2202 1.374 . S
C2202 H2176 0.950 . S
C2202 C2198 1.385 . S
C2202 C2201 1.374 . S
C2203 C2200 1.499 . S
C2203 C2204 1.373 . S
C2203 C2205 1.389 . S
C2204 H2177 0.950 . S
C2204 C2190 1.377 . S
C2204 C2203 1.373 . S
C2205 C2189 1.377 1_554 S
C2205 C2203 1.389 . S
C2205 C2206 1.524 1_554 S
C2206 C2205 1.524 1_556 S
C2206 C2207 1.397 1_556 S
C2206 C2211 1.363 . S
C2207 H2178 0.950 . S
C2207 C2206 1.397 1_554 S
C2207 C2208 1.334 . S
C2208 H2179 0.950 . S
C2208 C2207 1.334 . S
C2208 C2209 1.287 1_554 S
C2209 C2208 1.287 1_556 S
C2209 C2210 1.524 . S
C2209 H2212 0.999 . S
C2210 H2180 0.950 . S
C2210 C2209 1.524 . S
C2210 C2211 1.415 . S
C2211 H2181 0.950 . S
C2211 C2206 1.363 . S
C2211 C2210 1.415 . S
H2212 C2209 0.999 . S
H2213 C2194 0.913 . S
H2214 C2232 0.951 . S
H2215 C2234 0.951 . S
H2216 C2236 0.950 . S
H2217 C2237 0.950 . S
H2218 C2239 0.960 . S
H2219 C2242 0.950 . S
H2220 C2243 0.950 . S
H2221 C2245 0.950 . S
H2222 C2246 0.950 . S
H2223 C2247 0.951 . S
H2224 C2249 0.951 . S
H2225 C2251 0.950 . S
H2226 C2252 0.950 . S
H2227 C2254 0.950 . S
H2228 C2257 0.950 . S
H2229 C2258 0.950 . S
H2230 C2260 0.950 . S
H2231 C2261 0.950 . S
C2232 H2214 0.951 . S
C2232 C2233 1.366 . S
C2232 C2234 1.388 . S
C2233 C2232 1.366 . S
C2233 C2237 1.385 . S
C2234 H2215 0.951 . S
C2234 C2232 1.388 . S
C2234 C2235 1.366 . S
C2235 C2234 1.366 . S
C2235 C2236 1.414 . S
C2235 C2238 1.499 . S
C2236 H2216 0.950 . S
C2236 C2235 1.414 . S
C2236 C2237 1.374 . S
C2237 H2217 0.950 . S
C2237 C2233 1.385 . S
C2237 C2236 1.374 . S
C2238 C2235 1.499 . S
C2238 C2239 1.340 1_554 S
C2238 C2240 1.389 . S
C2239 H2218 0.960 . S
C2239 C2238 1.340 1_556 S
C2239 C2255 1.401 . S
C2240 C2238 1.389 . S
C2240 C2241 1.524 . S
C2240 C2254 1.377 . S
C2241 C2240 1.524 . S
C2241 C2242 1.397 . S
C2241 C2246 1.363 . S
C2242 H2219 0.950 . S
C2242 C2241 1.397 . S
C2242 C2243 1.334 . S
C2243 H2220 0.950 . S
C2243 C2242 1.334 . S
C2243 C2244 1.287 . S
C2244 C2243 1.287 . S
C2244 C2245 1.524 . S
C2244 H2263 0.913 . S
C2245 H2221 0.950 . S
C2245 C2244 1.524 . S
C2245 C2246 1.415 . S
C2246 H2222 0.950 . S
C2246 C2241 1.363 . S
C2246 C2245 1.415 . S
C2247 H2223 0.951 . S
C2247 C2248 1.366 . S
C2247 C2249 1.388 . S
C2248 C2247 1.366 . S
C2248 C2252 1.385 . S
C2249 H2224 0.951 . S
C2249 C2247 1.388 . S
C2249 C2250 1.366 . S
C2250 C2249 1.366 . S
C2250 C2251 1.414 . S
C2250 C2253 1.499 . S
C2251 H2225 0.950 . S
C2251 C2250 1.414 . S
C2251 C2252 1.374 . S
C2252 H2226 0.950 . S
C2252 C2248 1.385 . S
C2252 C2251 1.374 . S
C2253 C2250 1.499 . S
C2253 C2254 1.373 1_556 S
C2253 C2255 1.389 . S
C2254 H2227 0.950 . S
C2254 C2240 1.377 . S
C2254 C2253 1.373 1_554 S
C2255 C2239 1.401 . S
C2255 C2253 1.389 . S
C2255 C2256 1.524 . S
C2256 C2255 1.524 . S
C2256 C2257 1.397 . S
C2256 C2261 1.363 . S
C2257 H2228 0.950 . S
C2257 C2256 1.397 . S
C2257 C2258 1.334 . S
C2258 H2229 0.950 . S
C2258 C2257 1.334 . S
C2258 C2259 1.287 . S
C2259 C2258 1.287 . S
C2259 C2260 1.524 . S
C2259 H2262 0.999 . S
C2260 H2230 0.950 . S
C2260 C2259 1.524 . S
C2260 C2261 1.415 . S
C2261 H2231 0.950 . S
C2261 C2256 1.363 . S
C2261 C2260 1.415 . S
H2262 C2259 0.999 . S
H2263 C2244 0.913 . S
H2264 C2282 0.951 . S
H2265 C2284 0.951 . S
H2266 C2286 0.950 . S
H2267 C2287 0.950 . S
H2268 C2289 0.950 . S
H2269 C2292 0.950 . S
H2270 C2293 0.950 . S
H2271 C2295 0.950 . S
H2272 C2296 0.950 . S
H2273 C2297 0.951 . S
H2274 C2299 0.951 . S
H2275 C2301 0.950 . S
H2276 C2302 0.950 . S
H2277 C2304 0.950 . S
H2278 C2307 0.950 . S
H2279 C2308 0.950 . S
H2280 C2310 0.950 . S
H2281 C2311 0.950 . S
C2282 H2264 0.951 . S
C2282 C2283 1.366 . S
C2282 C2284 1.388 . S
C2283 C2282 1.366 . S
C2283 C2287 1.385 . S
C2284 H2265 0.951 . S
C2284 C2282 1.388 . S
C2284 C2285 1.366 . S
C2285 C2284 1.366 . S
C2285 C2286 1.414 . S
C2285 C2288 1.499 . S
C2286 H2266 0.950 . S
C2286 C2285 1.414 . S
C2286 C2287 1.374 . S
C2287 H2267 0.950 . S
C2287 C2283 1.385 . S
C2287 C2286 1.374 . S
C2288 C2285 1.499 . S
C2288 C2289 1.373 . S
C2288 C2290 1.389 . S
C2289 H2268 0.950 . S
C2289 C2288 1.373 . S
C2289 C2305 1.377 . S
C2290 C2288 1.389 . S
C2290 C2291 1.524 . S
C2290 C2304 1.377 . S
C2291 C2290 1.524 . S
C2291 C2292 1.397 . S
C2291 C2296 1.363 . S
C2292 H2269 0.950 . S
C2292 C2291 1.397 . S
C2292 C2293 1.334 . S
C2293 H2270 0.950 . S
C2293 C2292 1.334 . S
C2293 C2294 1.287 . S
C2294 C2293 1.287 . S
C2294 C2295 1.524 . S
C2294 H2313 0.913 . S
C2295 H2271 0.950 . S
C2295 C2294 1.524 . S
C2295 C2296 1.415 . S
C2296 H2272 0.950 . S
C2296 C2291 1.363 . S
C2296 C2295 1.415 . S
C2297 H2273 0.951 . S
C2297 C2298 1.366 . S
C2297 C2299 1.388 . S
C2298 C2297 1.366 . S
C2298 C2302 1.385 . S
C2299 H2274 0.951 . S
C2299 C2297 1.388 . S
C2299 C2300 1.366 . S
C2300 C2299 1.366 . S
C2300 C2301 1.414 . S
C2300 C2303 1.499 . S
C2301 H2275 0.950 . S
C2301 C2300 1.414 . S
C2301 C2302 1.374 . S
C2302 H2276 0.950 . S
C2302 C2298 1.385 . S
C2302 C2301 1.374 . S
C2303 C2300 1.499 . S
C2303 C2304 1.373 . S
C2303 C2305 1.389 . S
C2304 H2277 0.950 . S
C2304 C2290 1.377 . S
C2304 C2303 1.373 . S
C2305 C2289 1.377 . S
C2305 C2303 1.389 . S
C2305 C2306 1.524 . S
C2306 C2305 1.524 . S
C2306 C2307 1.397 . S
C2306 C2311 1.363 . S
C2307 H2278 0.950 . S
C2307 C2306 1.397 . S
C2307 C2308 1.334 . S
C2308 H2279 0.950 . S
C2308 C2307 1.334 . S
C2308 C2309 1.287 . S
C2309 C2308 1.287 . S
C2309 C2310 1.524 . S
C2309 H2312 0.999 . S
C2310 H2280 0.950 . S
C2310 C2309 1.524 . S
C2310 C2311 1.415 . S
C2311 H2281 0.950 . S
C2311 C2306 1.363 . S
C2311 C2310 1.415 . S
H2312 C2309 0.999 . S
H2313 C2294 0.913 . S
H2314 C2332 0.951 . S
H2315 C2334 0.951 . S
H2316 C2336 0.950 . S
H2317 C2337 0.950 . S
H2318 C2339 0.950 . S
H2319 C2342 0.950 . S
H2320 C2343 0.950 . S
H2321 C2345 0.950 . S
H2322 C2346 0.950 . S
H2323 C2347 0.951 . S
H2324 C2349 0.951 . S
H2325 C2351 0.950 . S
H2326 C2352 0.950 . S
H2327 C2354 0.950 . S
H2328 C2357 0.950 . S
H2329 C2358 0.950 . S
H2330 C2360 0.950 . S
H2331 C2361 0.950 . S
C2332 H2314 0.951 . S
C2332 C2333 1.366 . S
C2332 C2334 1.388 . S
C2333 C2332 1.366 . S
C2333 C2337 1.385 . S
C2334 H2315 0.951 . S
C2334 C2332 1.388 . S
C2334 C2335 1.366 . S
C2335 C2334 1.366 . S
C2335 C2336 1.414 . S
C2335 C2338 1.499 . S
C2336 H2316 0.950 . S
C2336 C2335 1.414 . S
C2336 C2337 1.374 . S
C2337 H2317 0.950 . S
C2337 C2333 1.385 . S
C2337 C2336 1.374 . S
C2338 C2335 1.499 . S
C2338 C2339 1.373 . S
C2338 C2340 1.389 . S
C2339 H2318 0.950 . S
C2339 C2338 1.373 . S
C2339 C2355 1.377 . S
C2340 C2338 1.389 . S
C2340 C2341 1.524 . S
C2340 C2354 1.377 . S
C2341 C2340 1.524 . S
C2341 C2342 1.397 . S
C2341 C2346 1.363 . S
C2342 H2319 0.950 . S
C2342 C2341 1.397 . S
C2342 C2343 1.334 . S
C2343 H2320 0.950 . S
C2343 C2342 1.334 . S
C2343 C2344 1.287 . S
C2344 C2343 1.287 . S
C2344 C2345 1.524 . S
C2344 H2363 0.913 . S
C2345 H2321 0.950 . S
C2345 C2344 1.524 . S
C2345 C2346 1.415 . S
C2346 H2322 0.950 . S
C2346 C2341 1.363 . S
C2346 C2345 1.415 . S
C2347 H2323 0.951 . S
C2347 C2348 1.366 . S
C2347 C2349 1.388 . S
C2348 C2347 1.366 . S
C2348 C2352 1.385 . S
C2349 H2324 0.951 . S
C2349 C2347 1.388 . S
C2349 C2350 1.366 . S
C2350 C2349 1.366 . S
C2350 C2351 1.414 . S
C2350 C2353 1.499 . S
C2351 H2325 0.950 . S
C2351 C2350 1.414 . S
C2351 C2352 1.374 . S
C2352 H2326 0.950 . S
C2352 C2348 1.385 . S
C2352 C2351 1.374 . S
C2353 C2350 1.499 . S
C2353 C2354 1.373 . S
C2353 C2355 1.389 . S
C2354 H2327 0.950 . S
C2354 C2340 1.377 . S
C2354 C2353 1.373 . S
C2355 C2339 1.377 . S
C2355 C2353 1.389 . S
C2355 C2356 1.524 . S
C2356 C2355 1.524 . S
C2356 C2357 1.397 . S
C2356 C2361 1.363 . S
C2357 H2328 0.950 . S
C2357 C2356 1.397 . S
C2357 C2358 1.334 . S
C2358 H2329 0.950 . S
C2358 C2357 1.334 . S
C2358 C2359 1.287 . S
C2359 C2358 1.287 . S
C2359 C2360 1.524 . S
C2359 H2362 0.999 . S
C2360 H2330 0.950 . S
C2360 C2359 1.524 . S
C2360 C2361 1.415 . S
C2361 H2331 0.950 . S
C2361 C2356 1.363 . S
C2361 C2360 1.415 . S
H2362 C2359 0.999 . S
H2363 C2344 0.913 . S
H2364 C2382 0.951 . S
H2365 C2384 0.951 . S
H2366 C2386 0.950 . S
H2367 C2387 0.950 . S
H2368 C2389 0.950 . S
H2369 C2392 0.950 . S
H2370 C2393 0.950 . S
H2371 C2395 0.950 . S
H2372 C2396 0.950 . S
H2373 C2397 0.951 . S
H2374 C2399 0.951 . S
H2375 C2401 0.950 . S
H2376 C2402 0.950 . S
H2377 C2404 0.950 . S
H2378 C2407 0.950 . S
H2379 C2408 0.950 . S
H2380 C2410 0.950 . S
H2381 C2411 0.950 . S
C2382 H2364 0.951 . S
C2382 C2383 1.366 . S
C2382 C2384 1.388 . S
C2383 C2382 1.366 . S
C2383 C2387 1.385 . S
C2384 H2365 0.951 . S
C2384 C2382 1.388 . S
C2384 C2385 1.366 . S
C2385 C2384 1.366 . S
C2385 C2386 1.414 . S
C2385 C2388 1.499 . S
C2386 H2366 0.950 . S
C2386 C2385 1.414 . S
C2386 C2387 1.374 . S
C2387 H2367 0.950 . S
C2387 C2383 1.385 . S
C2387 C2386 1.374 . S
C2388 C2385 1.499 . S
C2388 C2389 1.373 . S
C2388 C2390 1.389 . S
C2389 H2368 0.950 . S
C2389 C2388 1.373 . S
C2389 C2405 1.377 . S
C2390 C2388 1.389 . S
C2390 C2391 1.524 . S
C2390 C2404 1.377 . S
C2391 C2390 1.524 . S
C2391 C2392 1.397 . S
C2391 C2396 1.363 . S
C2392 H2369 0.950 . S
C2392 C2391 1.397 . S
C2392 C2393 1.334 . S
C2393 H2370 0.950 . S
C2393 C2392 1.334 . S
C2393 C2394 1.287 . S
C2394 C2393 1.287 . S
C2394 C2395 1.524 . S
C2394 H2413 0.913 . S
C2395 H2371 0.950 . S
C2395 C2394 1.524 . S
C2395 C2396 1.415 . S
C2396 H2372 0.950 . S
C2396 C2391 1.363 . S
C2396 C2395 1.415 . S
C2397 H2373 0.951 . S
C2397 C2398 1.366 . S
C2397 C2399 1.388 . S
C2398 C2397 1.366 . S
C2398 C2402 1.385 . S
C2399 H2374 0.951 . S
C2399 C2397 1.388 . S
C2399 C2400 1.366 . S
C2400 C2399 1.366 . S
C2400 C2401 1.414 . S
C2400 C2403 1.499 . S
C2401 H2375 0.950 . S
C2401 C2400 1.414 . S
C2401 C2402 1.374 . S
C2402 H2376 0.950 . S
C2402 C2398 1.385 . S
C2402 C2401 1.374 . S
C2403 C2400 1.499 . S
C2403 C2404 1.373 . S
C2403 C2405 1.389 . S
C2404 H2377 0.950 . S
C2404 C2390 1.377 . S
C2404 C2403 1.373 . S
C2405 C2389 1.377 . S
C2405 C2403 1.389 . S
C2405 C2406 1.524 . S
C2406 C2405 1.524 . S
C2406 C2407 1.397 . S
C2406 C2411 1.363 . S
C2407 H2378 0.950 . S
C2407 C2406 1.397 . S
C2407 C2408 1.334 . S
C2408 H2379 0.950 . S
C2408 C2407 1.334 . S
C2408 C2409 1.287 . S
C2409 C2408 1.287 . S
C2409 C2410 1.524 . S
C2409 H2412 0.999 . S
C2410 H2380 0.950 . S
C2410 C2409 1.524 . S
C2410 C2411 1.415 . S
C2411 H2381 0.950 . S
C2411 C2406 1.363 . S
C2411 C2410 1.415 . S
H2412 C2409 0.999 . S
H2413 C2394 0.913 . S
H2414 C2432 0.951 . S
H2415 C2434 0.951 . S
H2416 C2436 0.950 . S
H2417 C2437 0.950 . S
H2418 C2439 0.950 . S
H2419 C2442 0.950 . S
H2420 C2443 0.950 . S
H2421 C2445 0.950 . S
H2422 C2446 0.950 . S
H2423 C2447 0.951 . S
H2424 C2449 0.951 . S
H2425 C2451 0.950 . S
H2426 C2452 0.950 . S
H2427 C2454 0.950 . S
H2428 C2457 0.950 . S
H2429 C2458 0.950 . S
H2430 C2460 0.950 . S
H2431 C2461 0.950 . S
C2432 H2414 0.951 . S
C2432 C2433 1.366 . S
C2432 C2434 1.388 . S
C2433 C2432 1.366 . S
C2433 C2437 1.385 . S
C2434 H2415 0.951 . S
C2434 C2432 1.388 . S
C2434 C2435 1.366 . S
C2435 C2434 1.366 . S
C2435 C2436 1.414 . S
C2435 C2438 1.499 . S
C2436 H2416 0.950 . S
C2436 C2435 1.414 . S
C2436 C2437 1.374 . S
C2437 H2417 0.950 . S
C2437 C2433 1.385 . S
C2437 C2436 1.374 . S
C2438 C2435 1.499 . S
C2438 C2439 1.373 . S
C2438 C2440 1.389 . S
C2439 H2418 0.950 . S
C2439 C2438 1.373 . S
C2439 C2455 1.377 . S
C2440 C2438 1.389 . S
C2440 C2441 1.524 . S
C2440 C2454 1.377 . S
C2441 C2440 1.524 . S
C2441 C2442 1.397 . S
C2441 C2446 1.363 . S
C2442 H2419 0.950 . S
C2442 C2441 1.397 . S
C2442 C2443 1.334 . S
C2443 H2420 0.950 . S
C2443 C2442 1.334 . S
C2443 C2444 1.287 . S
C2444 C2443 1.287 . S
C2444 C2445 1.524 . S
C2444 H2463 0.913 . S
C2445 H2421 0.950 . S
C2445 C2444 1.524 . S
C2445 C2446 1.415 . S
C2446 H2422 0.950 . S
C2446 C2441 1.363 . S
C2446 C2445 1.415 . S
C2447 H2423 0.951 . S
C2447 C2448 1.366 . S
C2447 C2449 1.388 . S
C2448 C2447 1.366 . S
C2448 C2452 1.385 . S
C2449 H2424 0.951 . S
C2449 C2447 1.388 . S
C2449 C2450 1.366 . S
C2450 C2449 1.366 . S
C2450 C2451 1.414 . S
C2450 C2453 1.499 . S
C2451 H2425 0.950 . S
C2451 C2450 1.414 . S
C2451 C2452 1.374 . S
C2452 H2426 0.950 . S
C2452 C2448 1.385 . S
C2452 C2451 1.374 . S
C2453 C2450 1.499 . S
C2453 C2454 1.373 . S
C2453 C2455 1.389 . S
C2454 H2427 0.950 . S
C2454 C2440 1.377 . S
C2454 C2453 1.373 . S
C2455 C2439 1.377 . S
C2455 C2453 1.389 . S
C2455 C2456 1.524 . S
C2456 C2455 1.524 . S
C2456 C2457 1.397 . S
C2456 C2461 1.363 . S
C2457 H2428 0.950 . S
C2457 C2456 1.397 . S
C2457 C2458 1.334 . S
C2458 H2429 0.950 . S
C2458 C2457 1.334 . S
C2458 C2459 1.287 . S
C2459 C2458 1.287 . S
C2459 C2460 1.524 . S
C2459 H2462 0.999 . S
C2460 H2430 0.950 . S
C2460 C2459 1.524 . S
C2460 C2461 1.415 . S
C2461 H2431 0.950 . S
C2461 C2456 1.363 . S
C2461 C2460 1.415 . S
H2462 C2459 0.999 . S
H2463 C2444 0.913 . S
H2464 C2482 0.951 . S
H2465 C2484 0.951 . S
H2466 C2486 0.950 . S
H2467 C2487 0.950 . S
H2468 C2489 0.950 . S
H2469 C2492 0.950 . S
H2470 C2493 0.950 . S
H2471 C2495 0.950 . S
H2472 C2496 0.950 . S
H2473 C2497 0.951 . S
H2474 C2499 0.951 . S
H2475 C2501 0.950 . S
H2476 C2502 0.950 . S
H2477 C2504 0.950 . S
H2478 C2507 0.950 . S
H2479 C2508 0.950 . S
H2480 C2510 0.950 . S
H2481 C2511 0.950 . S
C2482 H2464 0.951 . S
C2482 C2483 1.366 . S
C2482 C2484 1.388 . S
C2483 C2482 1.366 . S
C2483 C2487 1.385 . S
C2484 H2465 0.951 . S
C2484 C2482 1.388 . S
C2484 C2485 1.366 . S
C2485 C2484 1.366 . S
C2485 C2486 1.414 . S
C2485 C2488 1.499 . S
C2486 H2466 0.950 . S
C2486 C2485 1.414 . S
C2486 C2487 1.374 . S
C2487 H2467 0.950 . S
C2487 C2483 1.385 . S
C2487 C2486 1.374 . S
C2488 C2485 1.499 . S
C2488 C2489 1.373 . S
C2488 C2490 1.389 . S
C2489 H2468 0.950 . S
C2489 C2488 1.373 . S
C2489 C2505 1.377 . S
C2490 C2488 1.389 . S
C2490 C2491 1.524 . S
C2490 C2504 1.377 . S
C2491 C2490 1.524 . S
C2491 C2492 1.397 . S
C2491 C2496 1.363 . S
C2492 H2469 0.950 . S
C2492 C2491 1.397 . S
C2492 C2493 1.334 . S
C2493 H2470 0.950 . S
C2493 C2492 1.334 . S
C2493 C2494 1.287 . S
C2494 C2493 1.287 . S
C2494 C2495 1.524 . S
C2494 H2513 0.913 . S
C2495 H2471 0.950 . S
C2495 C2494 1.524 . S
C2495 C2496 1.415 . S
C2496 H2472 0.950 . S
C2496 C2491 1.363 . S
C2496 C2495 1.415 . S
C2497 H2473 0.951 . S
C2497 C2498 1.366 . S
C2497 C2499 1.388 . S
C2498 C2497 1.366 . S
C2498 C2502 1.385 . S
C2499 H2474 0.951 . S
C2499 C2497 1.388 . S
C2499 C2500 1.366 . S
C2500 C2499 1.366 . S
C2500 C2501 1.414 . S
C2500 C2503 1.499 . S
C2501 H2475 0.950 . S
C2501 C2500 1.414 . S
C2501 C2502 1.374 . S
C2502 H2476 0.950 . S
C2502 C2498 1.385 . S
C2502 C2501 1.374 . S
C2503 C2500 1.499 . S
C2503 C2504 1.373 . S
C2503 C2505 1.389 . S
C2504 H2477 0.950 . S
C2504 C2490 1.377 . S
C2504 C2503 1.373 . S
C2505 C2489 1.377 . S
C2505 C2503 1.389 . S
C2505 C2506 1.524 . S
C2506 C2505 1.524 . S
C2506 C2507 1.397 . S
C2506 C2511 1.363 . S
C2507 H2478 0.950 . S
C2507 C2506 1.397 . S
C2507 C2508 1.334 . S
C2508 H2479 0.950 . S
C2508 C2507 1.334 . S
C2508 C2509 1.287 . S
C2509 C2508 1.287 . S
C2509 C2510 1.524 . S
C2509 H2512 0.999 . S
C2510 H2480 0.950 . S
C2510 C2509 1.524 . S
C2510 C2511 1.415 . S
C2511 H2481 0.950 . S
C2511 C2506 1.363 . S
C2511 C2510 1.415 . S
H2512 C2509 0.999 . S
H2513 C2494 0.913 . S
H2514 C2532 0.951 . S
H2515 C2534 0.951 . S
H2516 C2536 0.950 . S
H2517 C2537 0.950 . S
H2518 C2539 0.950 . S
H2519 C2542 0.950 . S
H2520 C2543 0.950 . S
H2521 C2545 0.950 . S
H2522 C2546 0.950 . S
H2523 C2547 0.951 . S
H2524 C2549 0.951 . S
H2525 C2551 0.950 . S
H2526 C2552 0.950 . S
H2527 C2554 0.950 . S
H2528 C2557 0.950 . S
H2529 C2558 0.950 . S
H2530 C2560 0.950 . S
H2531 C2561 0.950 . S
C2532 H2514 0.951 . S
C2532 C2533 1.366 . S
C2532 C2534 1.388 . S
C2533 C2532 1.366 . S
C2533 C2537 1.385 . S
C2534 H2515 0.951 . S
C2534 C2532 1.388 . S
C2534 C2535 1.366 . S
C2535 C2534 1.366 . S
C2535 C2536 1.414 . S
C2535 C2538 1.499 . S
C2536 H2516 0.950 . S
C2536 C2535 1.414 . S
C2536 C2537 1.374 . S
C2537 H2517 0.950 . S
C2537 C2533 1.385 . S
C2537 C2536 1.374 . S
C2538 C2535 1.499 . S
C2538 C2539 1.373 . S
C2538 C2540 1.389 . S
C2539 H2518 0.950 . S
C2539 C2538 1.373 . S
C2539 C2555 1.377 . S
C2540 C2538 1.389 . S
C2540 C2541 1.524 . S
C2540 C2554 1.377 . S
C2541 C2540 1.524 . S
C2541 C2542 1.397 . S
C2541 C2546 1.363 . S
C2542 H2519 0.950 . S
C2542 C2541 1.397 . S
C2542 C2543 1.334 . S
C2543 H2520 0.950 . S
C2543 C2542 1.334 . S
C2543 C2544 1.287 . S
C2544 C2543 1.287 . S
C2544 C2545 1.524 . S
C2544 H2563 0.913 . S
C2545 H2521 0.950 . S
C2545 C2544 1.524 . S
C2545 C2546 1.415 . S
C2546 H2522 0.950 . S
C2546 C2541 1.363 . S
C2546 C2545 1.415 . S
C2547 H2523 0.951 . S
C2547 C2548 1.366 . S
C2547 C2549 1.388 . S
C2548 C2547 1.366 . S
C2548 C2552 1.385 . S
C2549 H2524 0.951 . S
C2549 C2547 1.388 . S
C2549 C2550 1.366 . S
C2550 C2549 1.366 . S
C2550 C2551 1.414 . S
C2550 C2553 1.499 . S
C2551 H2525 0.950 . S
C2551 C2550 1.414 . S
C2551 C2552 1.374 . S
C2552 H2526 0.950 . S
C2552 C2548 1.385 . S
C2552 C2551 1.374 . S
C2553 C2550 1.499 . S
C2553 C2554 1.373 . S
C2553 C2555 1.389 . S
C2554 H2527 0.950 . S
C2554 C2540 1.377 . S
C2554 C2553 1.373 . S
C2555 C2539 1.377 . S
C2555 C2553 1.389 . S
C2555 C2556 1.524 . S
C2556 C2555 1.524 . S
C2556 C2557 1.397 . S
C2556 C2561 1.363 . S
C2557 H2528 0.950 . S
C2557 C2556 1.397 . S
C2557 C2558 1.334 . S
C2558 H2529 0.950 . S
C2558 C2557 1.334 . S
C2558 C2559 1.287 . S
C2559 C2558 1.287 . S
C2559 C2560 1.524 . S
C2559 H2562 0.999 . S
C2560 H2530 0.950 . S
C2560 C2559 1.524 . S
C2560 C2561 1.415 . S
C2561 H2531 0.950 . S
C2561 C2556 1.363 . S
C2561 C2560 1.415 . S
H2562 C2559 0.999 . S
H2563 C2544 0.913 . S
H2564 C2582 0.951 . S
H2565 C2584 0.951 . S
H2566 C2586 0.950 . S
H2567 C2587 0.950 . S
H2568 C2589 0.950 . S
H2569 C2592 0.950 . S
H2570 C2593 0.950 . S
H2571 C2595 0.950 . S
H2572 C2596 0.950 . S
H2573 C2597 0.951 . S
H2574 C2599 0.951 . S
H2575 C2601 0.950 . S
H2576 C2602 0.950 . S
H2577 C2604 0.950 . S
H2578 C2607 0.950 . S
H2579 C2608 0.950 . S
H2580 C2610 0.950 . S
H2581 C2611 0.950 . S
C2582 H2564 0.951 . S
C2582 C2583 1.366 . S
C2582 C2584 1.388 . S
C2583 C2582 1.366 . S
C2583 C2587 1.385 . S
C2584 H2565 0.951 . S
C2584 C2582 1.388 . S
C2584 C2585 1.366 . S
C2585 C2584 1.366 . S
C2585 C2586 1.414 . S
C2585 C2588 1.499 . S
C2586 H2566 0.950 . S
C2586 C2585 1.414 . S
C2586 C2587 1.374 . S
C2587 H2567 0.950 . S
C2587 C2583 1.385 . S
C2587 C2586 1.374 . S
C2588 C2585 1.499 . S
C2588 C2589 1.373 . S
C2588 C2590 1.389 . S
C2589 H2568 0.950 . S
C2589 C2588 1.373 . S
C2589 C2605 1.377 . S
C2590 C2588 1.389 . S
C2590 C2591 1.524 . S
C2590 C2604 1.377 . S
C2591 C2590 1.524 . S
C2591 C2592 1.397 . S
C2591 C2596 1.363 . S
C2592 H2569 0.950 . S
C2592 C2591 1.397 . S
C2592 C2593 1.334 . S
C2593 H2570 0.950 . S
C2593 C2592 1.334 . S
C2593 C2594 1.287 . S
C2594 C2593 1.287 . S
C2594 C2595 1.524 . S
C2594 H2613 0.913 . S
C2595 H2571 0.950 . S
C2595 C2594 1.524 . S
C2595 C2596 1.415 . S
C2596 H2572 0.950 . S
C2596 C2591 1.363 . S
C2596 C2595 1.415 . S
C2597 H2573 0.951 . S
C2597 C2598 1.366 . S
C2597 C2599 1.388 . S
C2598 C2597 1.366 . S
C2598 C2602 1.385 . S
C2599 H2574 0.951 . S
C2599 C2597 1.388 . S
C2599 C2600 1.366 . S
C2600 C2599 1.366 . S
C2600 C2601 1.414 . S
C2600 C2603 1.499 . S
C2601 H2575 0.950 . S
C2601 C2600 1.414 . S
C2601 C2602 1.374 . S
C2602 H2576 0.950 . S
C2602 C2598 1.385 . S
C2602 C2601 1.374 . S
C2603 C2600 1.499 . S
C2603 C2604 1.373 . S
C2603 C2605 1.389 . S
C2604 H2577 0.950 . S
C2604 C2590 1.377 . S
C2604 C2603 1.373 . S
C2605 C2589 1.377 . S
C2605 C2603 1.389 . S
C2605 C2606 1.524 . S
C2606 C2605 1.524 . S
C2606 C2607 1.397 . S
C2606 C2611 1.363 . S
C2607 H2578 0.950 . S
C2607 C2606 1.397 . S
C2607 C2608 1.334 . S
C2608 H2579 0.950 . S
C2608 C2607 1.334 . S
C2608 C2609 1.287 . S
C2609 C2608 1.287 . S
C2609 C2610 1.524 . S
C2609 H2612 0.999 . S
C2610 H2580 0.950 . S
C2610 C2609 1.524 . S
C2610 C2611 1.415 . S
C2611 H2581 0.950 . S
C2611 C2606 1.363 . S
C2611 C2610 1.415 . S
H2612 C2609 0.999 . S
H2613 C2594 0.913 . S
H2614 C2632 0.951 . S
H2615 C2634 0.951 . S
H2616 C2636 0.950 . S
H2617 C2637 0.950 . S
H2618 C2639 0.950 . S
H2619 C2642 0.950 . S
H2620 C2643 0.950 . S
H2621 C2645 0.950 . S
H2622 C2646 0.950 . S
H2623 C2647 0.951 . S
H2624 C2649 0.951 . S
H2625 C2651 0.950 . S
H2626 C2652 0.950 . S
H2627 C2654 0.950 . S
H2628 C2657 0.950 . S
H2629 C2658 0.950 . S
H2630 C2660 0.950 . S
H2631 C2661 0.950 . S
C2632 H2614 0.951 . S
C2632 C2633 1.366 . S
C2632 C2634 1.388 . S
C2633 C2632 1.366 . S
C2633 C2637 1.385 . S
C2634 H2615 0.951 . S
C2634 C2632 1.388 . S
C2634 C2635 1.366 . S
C2635 C2634 1.366 . S
C2635 C2636 1.414 . S
C2635 C2638 1.499 . S
C2636 H2616 0.950 . S
C2636 C2635 1.414 . S
C2636 C2637 1.374 . S
C2637 H2617 0.950 . S
C2637 C2633 1.385 . S
C2637 C2636 1.374 . S
C2638 C2635 1.499 . S
C2638 C2639 1.373 . S
C2638 C2640 1.389 . S
C2639 H2618 0.950 . S
C2639 C2638 1.373 . S
C2639 C2655 1.377 . S
C2640 C2638 1.389 . S
C2640 C2641 1.524 . S
C2640 C2654 1.377 . S
C2641 C2640 1.524 . S
C2641 C2642 1.397 . S
C2641 C2646 1.363 . S
C2642 H2619 0.950 . S
C2642 C2641 1.397 . S
C2642 C2643 1.334 . S
C2643 H2620 0.950 . S
C2643 C2642 1.334 . S
C2643 C2644 1.287 . S
C2644 C2643 1.287 . S
C2644 C2645 1.524 . S
C2644 H2663 0.913 . S
C2645 H2621 0.950 . S
C2645 C2644 1.524 . S
C2645 C2646 1.415 . S
C2646 H2622 0.950 . S
C2646 C2641 1.363 . S
C2646 C2645 1.415 . S
C2647 H2623 0.951 . S
C2647 C2648 1.366 . S
C2647 C2649 1.388 . S
C2648 C2647 1.366 . S
C2648 C2652 1.385 . S
C2649 H2624 0.951 . S
C2649 C2647 1.388 . S
C2649 C2650 1.366 . S
C2650 C2649 1.366 . S
C2650 C2651 1.414 . S
C2650 C2653 1.499 . S
C2651 H2625 0.950 . S
C2651 C2650 1.414 . S
C2651 C2652 1.374 . S
C2652 H2626 0.950 . S
C2652 C2648 1.385 . S
C2652 C2651 1.374 . S
C2653 C2650 1.499 . S
C2653 C2654 1.373 . S
C2653 C2655 1.389 . S
C2654 H2627 0.950 . S
C2654 C2640 1.377 . S
C2654 C2653 1.373 . S
C2655 C2639 1.377 . S
C2655 C2653 1.389 . S
C2655 C2656 1.524 . S
C2656 C2655 1.524 . S
C2656 C2657 1.397 . S
C2656 C2661 1.363 . S
C2657 H2628 0.950 . S
C2657 C2656 1.397 . S
C2657 C2658 1.334 . S
C2658 H2629 0.950 . S
C2658 C2657 1.334 . S
C2658 C2659 1.287 . S
C2659 C2658 1.287 . S
C2659 C2660 1.524 . S
C2659 H2662 0.999 . S
C2660 H2630 0.950 . S
C2660 C2659 1.524 . S
C2660 C2661 1.415 . S
C2661 H2631 0.950 . S
C2661 C2656 1.363 . S
C2661 C2660 1.415 . S
H2662 C2659 0.999 . S
H2663 C2644 0.913 . S
H2664 C2682 0.951 . S
H2665 C2684 0.951 . S
H2666 C2686 0.950 . S
H2667 C2687 0.950 . S
H2668 C2689 0.950 . S
H2669 C2692 0.950 . S
H2670 C2693 0.950 . S
H2671 C2695 0.950 . S
H2672 C2696 0.950 . S
H2673 C2697 0.951 . S
H2674 C2699 0.951 . S
H2675 C2701 0.950 . S
H2676 C2702 0.950 . S
H2677 C2704 0.950 . S
H2678 C2707 0.950 . S
H2679 C2708 0.950 . S
H2680 C2710 0.950 . S
H2681 C2711 0.950 . S
C2682 H2664 0.951 . S
C2682 C2683 1.366 . S
C2682 C2684 1.388 . S
C2683 C2682 1.366 . S
C2683 C2687 1.385 . S
C2684 H2665 0.951 . S
C2684 C2682 1.388 . S
C2684 C2685 1.366 . S
C2685 C2684 1.366 . S
C2685 C2686 1.414 . S
C2685 C2688 1.499 . S
C2686 H2666 0.950 . S
C2686 C2685 1.414 . S
C2686 C2687 1.374 . S
C2687 H2667 0.950 . S
C2687 C2683 1.385 . S
C2687 C2686 1.374 . S
C2688 C2685 1.499 . S
C2688 C2689 1.373 . S
C2688 C2690 1.389 . S
C2689 H2668 0.950 . S
C2689 C2688 1.373 . S
C2689 C2705 1.377 . S
C2690 C2688 1.389 . S
C2690 C2691 1.524 . S
C2690 C2704 1.377 . S
C2691 C2690 1.524 . S
C2691 C2692 1.397 . S
C2691 C2696 1.363 . S
C2692 H2669 0.950 . S
C2692 C2691 1.397 . S
C2692 C2693 1.334 . S
C2693 H2670 0.950 . S
C2693 C2692 1.334 . S
C2693 C2694 1.287 . S
C2694 C2693 1.287 . S
C2694 C2695 1.524 . S
C2694 H2713 0.913 . S
C2695 H2671 0.950 . S
C2695 C2694 1.524 . S
C2695 C2696 1.415 . S
C2696 H2672 0.950 . S
C2696 C2691 1.363 . S
C2696 C2695 1.415 . S
C2697 H2673 0.951 . S
C2697 C2698 1.366 . S
C2697 C2699 1.388 . S
C2698 C2697 1.366 . S
C2698 C2702 1.385 . S
C2699 H2674 0.951 . S
C2699 C2697 1.388 . S
C2699 C2700 1.366 . S
C2700 C2699 1.366 . S
C2700 C2701 1.414 . S
C2700 C2703 1.499 . S
C2701 H2675 0.950 . S
C2701 C2700 1.414 . S
C2701 C2702 1.374 . S
C2702 H2676 0.950 . S
C2702 C2698 1.385 . S
C2702 C2701 1.374 . S
C2703 C2700 1.499 . S
C2703 C2704 1.373 . S
C2703 C2705 1.389 . S
C2704 H2677 0.950 . S
C2704 C2690 1.377 . S
C2704 C2703 1.373 . S
C2705 C2689 1.377 . S
C2705 C2703 1.389 . S
C2705 C2706 1.524 . S
C2706 C2705 1.524 . S
C2706 C2707 1.397 . S
C2706 C2711 1.363 . S
C2707 H2678 0.950 . S
C2707 C2706 1.397 . S
C2707 C2708 1.334 . S
C2708 H2679 0.950 . S
C2708 C2707 1.334 . S
C2708 C2709 1.287 . S
C2709 C2708 1.287 . S
C2709 C2710 1.524 . S
C2709 H2712 0.999 . S
C2710 H2680 0.950 . S
C2710 C2709 1.524 . S
C2710 C2711 1.415 . S
C2711 H2681 0.950 . S
C2711 C2706 1.363 . S
C2711 C2710 1.415 . S
H2712 C2709 0.999 . S
H2713 C2694 0.913 . S
H2714 C2732 0.951 . S
H2715 C2734 0.951 . S
H2716 C2736 0.950 . S
H2717 C2737 0.950 . S
H2718 C2739 0.950 . S
H2719 C2742 0.950 . S
H2720 C2743 0.950 . S
H2721 C2745 0.950 . S
H2722 C2746 0.950 . S
H2723 C2747 0.951 . S
H2724 C2749 0.951 . S
H2725 C2751 0.950 . S
H2726 C2752 0.950 . S
H2727 C2754 0.950 . S
H2728 C2757 0.950 . S
H2729 C2758 0.950 . S
H2730 C2760 0.950 . S
H2731 C2761 0.950 . S
C2732 H2714 0.951 . S
C2732 C2733 1.366 . S
C2732 C2734 1.388 . S
C2733 C2732 1.366 . S
C2733 C2737 1.385 . S
C2734 H2715 0.951 . S
C2734 C2732 1.388 . S
C2734 C2735 1.366 . S
C2735 C2734 1.366 . S
C2735 C2736 1.414 . S
C2735 C2738 1.499 . S
C2736 H2716 0.950 . S
C2736 C2735 1.414 . S
C2736 C2737 1.374 . S
C2737 H2717 0.950 . S
C2737 C2733 1.385 . S
C2737 C2736 1.374 . S
C2738 C2735 1.499 . S
C2738 C2739 1.373 . S
C2738 C2740 1.389 . S
C2739 H2718 0.950 . S
C2739 C2738 1.373 . S
C2739 C2755 1.377 . S
C2740 C2738 1.389 . S
C2740 C2741 1.524 . S
C2740 C2754 1.377 . S
C2741 C2740 1.524 . S
C2741 C2742 1.397 . S
C2741 C2746 1.363 . S
C2742 H2719 0.950 . S
C2742 C2741 1.397 . S
C2742 C2743 1.334 . S
C2743 H2720 0.950 . S
C2743 C2742 1.334 . S
C2743 C2744 1.287 . S
C2744 C2743 1.287 . S
C2744 C2745 1.524 . S
C2744 H2763 0.913 . S
C2745 H2721 0.950 . S
C2745 C2744 1.524 . S
C2745 C2746 1.415 . S
C2746 H2722 0.950 . S
C2746 C2741 1.363 . S
C2746 C2745 1.415 . S
C2747 H2723 0.951 . S
C2747 C2748 1.366 . S
C2747 C2749 1.388 . S
C2748 C2747 1.366 . S
C2748 C2752 1.385 . S
C2749 H2724 0.951 . S
C2749 C2747 1.388 . S
C2749 C2750 1.366 . S
C2750 C2749 1.366 . S
C2750 C2751 1.414 . S
C2750 C2753 1.499 . S
C2751 H2725 0.950 . S
C2751 C2750 1.414 . S
C2751 C2752 1.374 . S
C2752 H2726 0.950 . S
C2752 C2748 1.385 . S
C2752 C2751 1.374 . S
C2753 C2750 1.499 . S
C2753 C2754 1.373 . S
C2753 C2755 1.389 . S
C2754 H2727 0.950 . S
C2754 C2740 1.377 . S
C2754 C2753 1.373 . S
C2755 C2739 1.377 . S
C2755 C2753 1.389 . S
C2755 C2756 1.524 . S
C2756 C2755 1.524 . S
C2756 C2757 1.397 . S
C2756 C2761 1.363 . S
C2757 H2728 0.950 . S
C2757 C2756 1.397 . S
C2757 C2758 1.334 . S
C2758 H2729 0.950 . S
C2758 C2757 1.334 . S
C2758 C2759 1.287 . S
C2759 C2758 1.287 . S
C2759 C2760 1.524 . S
C2759 H2762 0.999 . S
C2760 H2730 0.950 . S
C2760 C2759 1.524 . S
C2760 C2761 1.415 . S
C2761 H2731 0.950 . S
C2761 C2756 1.363 . S
C2761 C2760 1.415 . S
H2762 C2759 0.999 . S
H2763 C2744 0.913 . S
H2764 C2782 0.951 . S
H2765 C2784 0.951 . S
H2766 C2786 0.950 . S
H2767 C2787 0.950 . S
H2768 C2789 0.950 . S
H2769 C2792 0.950 . S
H2770 C2793 0.950 . S
H2771 C2795 0.950 . S
H2772 C2796 0.950 . S
H2773 C2797 0.951 . S
H2774 C2799 0.951 . S
H2775 C2801 0.950 . S
H2776 C2802 0.950 . S
H2777 C2804 0.950 . S
H2778 C2807 0.950 . S
H2779 C2808 0.950 . S
H2780 C2810 0.950 . S
H2781 C2811 0.950 . S
C2782 H2764 0.951 . S
C2782 C2783 1.366 . S
C2782 C2784 1.388 . S
C2783 C2782 1.366 . S
C2783 C2787 1.385 . S
C2784 H2765 0.951 . S
C2784 C2782 1.388 . S
C2784 C2785 1.366 . S
C2785 C2784 1.366 . S
C2785 C2786 1.414 . S
C2785 C2788 1.499 . S
C2786 H2766 0.950 . S
C2786 C2785 1.414 . S
C2786 C2787 1.374 . S
C2787 H2767 0.950 . S
C2787 C2783 1.385 . S
C2787 C2786 1.374 . S
C2788 C2785 1.499 . S
C2788 C2789 1.373 . S
C2788 C2790 1.389 . S
C2789 H2768 0.950 . S
C2789 C2788 1.373 . S
C2789 C2805 1.377 . S
C2790 C2788 1.389 . S
C2790 C2791 1.524 . S
C2790 C2804 1.377 . S
C2791 C2790 1.524 . S
C2791 C2792 1.397 . S
C2791 C2796 1.363 . S
C2792 H2769 0.950 . S
C2792 C2791 1.397 . S
C2792 C2793 1.334 . S
C2793 H2770 0.950 . S
C2793 C2792 1.334 . S
C2793 C2794 1.287 . S
C2794 C2793 1.287 . S
C2794 C2795 1.524 . S
C2794 H2813 0.913 . S
C2795 H2771 0.950 . S
C2795 C2794 1.524 . S
C2795 C2796 1.415 . S
C2796 H2772 0.950 . S
C2796 C2791 1.363 . S
C2796 C2795 1.415 . S
C2797 H2773 0.951 . S
C2797 C2798 1.366 . S
C2797 C2799 1.388 . S
C2798 C2797 1.366 . S
C2798 C2802 1.385 . S
C2799 H2774 0.951 . S
C2799 C2797 1.388 . S
C2799 C2800 1.366 . S
C2800 C2799 1.366 . S
C2800 C2801 1.414 . S
C2800 C2803 1.499 . S
C2801 H2775 0.950 . S
C2801 C2800 1.414 . S
C2801 C2802 1.374 . S
C2802 H2776 0.950 . S
C2802 C2798 1.385 . S
C2802 C2801 1.374 . S
C2803 C2800 1.499 . S
C2803 C2804 1.373 . S
C2803 C2805 1.389 . S
C2804 H2777 0.950 . S
C2804 C2790 1.377 . S
C2804 C2803 1.373 . S
C2805 C2789 1.377 . S
C2805 C2803 1.389 . S
C2805 C2806 1.524 . S
C2806 C2805 1.524 . S
C2806 C2807 1.397 . S
C2806 C2811 1.363 . S
C2807 H2778 0.950 . S
C2807 C2806 1.397 . S
C2807 C2808 1.334 . S
C2808 H2779 0.950 . S
C2808 C2807 1.334 . S
C2808 C2809 1.287 . S
C2809 C2808 1.287 . S
C2809 C2810 1.524 . S
C2809 H2812 0.999 . S
C2810 H2780 0.950 . S
C2810 C2809 1.524 . S
C2810 C2811 1.415 . S
C2811 H2781 0.950 . S
C2811 C2806 1.363 . S
C2811 C2810 1.415 . S
H2812 C2809 0.999 . S
H2813 C2794 0.913 . S
H2814 C2832 0.951 . S
H2815 C2834 0.951 . S
H2816 C2836 0.950 . S
H2817 C2837 0.950 . S
H2818 C2839 0.950 . S
H2819 C2842 0.950 . S
H2820 C2843 0.950 . S
H2821 C2845 0.950 . S
H2822 C2846 0.950 . S
H2823 C2847 0.951 . S
H2824 C2849 0.951 . S
H2825 C2851 0.950 . S
H2826 C2852 0.950 . S
H2827 C2854 0.950 . S
H2828 C2857 0.950 . S
H2829 C2858 0.950 . S
H2830 C2860 0.950 . S
H2831 C2861 0.950 . S
C2832 H2814 0.951 . S
C2832 C2833 1.366 . S
C2832 C2834 1.388 . S
C2833 C2832 1.366 . S
C2833 C2837 1.385 . S
C2834 H2815 0.951 . S
C2834 C2832 1.388 . S
C2834 C2835 1.366 . S
C2835 C2834 1.366 . S
C2835 C2836 1.414 . S
C2835 C2838 1.499 . S
C2836 H2816 0.950 . S
C2836 C2835 1.414 . S
C2836 C2837 1.374 . S
C2837 H2817 0.950 . S
C2837 C2833 1.385 . S
C2837 C2836 1.374 . S
C2838 C2835 1.499 . S
C2838 C2839 1.373 . S
C2838 C2840 1.389 . S
C2839 H2818 0.950 . S
C2839 C2838 1.373 . S
C2839 C2855 1.377 . S
C2840 C2838 1.389 . S
C2840 C2841 1.524 . S
C2840 C2854 1.377 . S
C2841 C2840 1.524 . S
C2841 C2842 1.397 . S
C2841 C2846 1.363 . S
C2842 H2819 0.950 . S
C2842 C2841 1.397 . S
C2842 C2843 1.334 . S
C2843 H2820 0.950 . S
C2843 C2842 1.334 . S
C2843 C2844 1.287 . S
C2844 C2843 1.287 . S
C2844 C2845 1.524 . S
C2844 H2863 0.913 . S
C2845 H2821 0.950 . S
C2845 C2844 1.524 . S
C2845 C2846 1.415 . S
C2846 H2822 0.950 . S
C2846 C2841 1.363 . S
C2846 C2845 1.415 . S
C2847 H2823 0.951 . S
C2847 C2848 1.366 . S
C2847 C2849 1.388 . S
C2848 C2847 1.366 . S
C2848 C2852 1.385 . S
C2849 H2824 0.951 . S
C2849 C2847 1.388 . S
C2849 C2850 1.366 . S
C2850 C2849 1.366 . S
C2850 C2851 1.414 . S
C2850 C2853 1.499 . S
C2851 H2825 0.950 . S
C2851 C2850 1.414 . S
C2851 C2852 1.374 . S
C2852 H2826 0.950 . S
C2852 C2848 1.385 . S
C2852 C2851 1.374 . S
C2853 C2850 1.499 . S
C2853 C2854 1.373 . S
C2853 C2855 1.389 . S
C2854 H2827 0.950 . S
C2854 C2840 1.377 . S
C2854 C2853 1.373 . S
C2855 C2839 1.377 . S
C2855 C2853 1.389 . S
C2855 C2856 1.524 . S
C2856 C2855 1.524 . S
C2856 C2857 1.397 . S
C2856 C2861 1.363 . S
C2857 H2828 0.950 . S
C2857 C2856 1.397 . S
C2857 C2858 1.334 . S
C2858 H2829 0.950 . S
C2858 C2857 1.334 . S
C2858 C2859 1.287 . S
C2859 C2858 1.287 . S
C2859 C2860 1.524 . S
C2859 H2862 0.999 . S
C2860 H2830 0.950 . S
C2860 C2859 1.524 . S
C2860 C2861 1.415 . S
C2861 H2831 0.950 . S
C2861 C2856 1.363 . S
C2861 C2860 1.415 . S
H2862 C2859 0.999 . S
H2863 C2844 0.913 . S
H2864 C2882 0.951 . S
H2865 C2884 0.951 . S
H2866 C2886 0.950 . S
H2867 C2887 0.950 . S
H2868 C2889 0.950 . S
H2869 C2892 0.950 . S
H2870 C2893 0.950 . S
H2871 C2895 0.950 . S
H2872 C2896 0.950 . S
H2873 C2897 0.951 . S
H2874 C2899 0.951 . S
H2875 C2901 0.950 . S
H2876 C2902 0.950 . S
H2877 C2904 0.950 . S
H2878 C2907 0.950 . S
H2879 C2908 0.950 . S
H2880 C2910 0.950 . S
H2881 C2911 0.950 . S
C2882 H2864 0.951 . S
C2882 C2883 1.366 . S
C2882 C2884 1.388 . S
C2883 C2882 1.366 . S
C2883 C2887 1.385 . S
C2884 H2865 0.951 . S
C2884 C2882 1.388 . S
C2884 C2885 1.366 . S
C2885 C2884 1.366 . S
C2885 C2886 1.414 . S
C2885 C2888 1.499 . S
C2886 H2866 0.950 . S
C2886 C2885 1.414 . S
C2886 C2887 1.374 . S
C2887 H2867 0.950 . S
C2887 C2883 1.385 . S
C2887 C2886 1.374 . S
C2888 C2885 1.499 . S
C2888 C2889 1.373 . S
C2888 C2890 1.389 . S
C2889 H2868 0.950 . S
C2889 C2888 1.373 . S
C2889 C2905 1.377 . S
C2890 C2888 1.389 . S
C2890 C2891 1.524 . S
C2890 C2904 1.377 . S
C2891 C2890 1.524 . S
C2891 C2892 1.397 . S
C2891 C2896 1.363 . S
C2892 H2869 0.950 . S
C2892 C2891 1.397 . S
C2892 C2893 1.334 . S
C2893 H2870 0.950 . S
C2893 C2892 1.334 . S
C2893 C2894 1.287 . S
C2894 C2893 1.287 . S
C2894 C2895 1.524 . S
C2894 H2913 0.913 . S
C2895 H2871 0.950 . S
C2895 C2894 1.524 . S
C2895 C2896 1.415 . S
C2896 H2872 0.950 . S
C2896 C2891 1.363 . S
C2896 C2895 1.415 . S
C2897 H2873 0.951 . S
C2897 C2898 1.366 . S
C2897 C2899 1.388 . S
C2898 C2897 1.366 . S
C2898 C2902 1.385 . S
C2899 H2874 0.951 . S
C2899 C2897 1.388 . S
C2899 C2900 1.366 . S
C2900 C2899 1.366 . S
C2900 C2901 1.414 . S
C2900 C2903 1.499 . S
C2901 H2875 0.950 . S
C2901 C2900 1.414 . S
C2901 C2902 1.374 . S
C2902 H2876 0.950 . S
C2902 C2898 1.385 . S
C2902 C2901 1.374 . S
C2903 C2900 1.499 . S
C2903 C2904 1.373 . S
C2903 C2905 1.389 . S
C2904 H2877 0.950 . S
C2904 C2890 1.377 . S
C2904 C2903 1.373 . S
C2905 C2889 1.377 . S
C2905 C2903 1.389 . S
C2905 C2906 1.524 . S
C2906 C2905 1.524 . S
C2906 C2907 1.397 . S
C2906 C2911 1.363 . S
C2907 H2878 0.950 . S
C2907 C2906 1.397 . S
C2907 C2908 1.334 . S
C2908 H2879 0.950 . S
C2908 C2907 1.334 . S
C2908 C2909 1.287 . S
C2909 C2908 1.287 . S
C2909 C2910 1.524 . S
C2909 H2912 0.999 . S
C2910 H2880 0.950 . S
C2910 C2909 1.524 . S
C2910 C2911 1.415 . S
C2911 H2881 0.950 . S
C2911 C2906 1.363 . S
C2911 C2910 1.415 . S
H2912 C2909 0.999 . S
H2913 C2894 0.913 . S
H2914 C2932 0.951 . S
H2915 C2934 0.951 . S
H2916 C2936 0.950 . S
H2917 C2937 0.950 . S
H2918 C2939 0.950 . S
H2919 C2942 0.950 . S
H2920 C2943 0.950 . S
H2921 C2945 0.950 . S
H2922 C2946 0.950 . S
H2923 C2947 0.951 . S
H2924 C2949 0.951 . S
H2925 C2951 0.950 . S
H2926 C2952 0.950 . S
H2927 C2954 0.950 . S
H2928 C2957 0.950 . S
H2929 C2958 0.950 . S
H2930 C2960 0.950 . S
H2931 C2961 0.950 . S
C2932 H2914 0.951 . S
C2932 C2933 1.366 . S
C2932 C2934 1.388 . S
C2933 C2932 1.366 . S
C2933 C2937 1.385 . S
C2934 H2915 0.951 . S
C2934 C2932 1.388 . S
C2934 C2935 1.366 . S
C2935 C2934 1.366 . S
C2935 C2936 1.414 . S
C2935 C2938 1.499 . S
C2936 H2916 0.950 . S
C2936 C2935 1.414 . S
C2936 C2937 1.374 . S
C2937 H2917 0.950 . S
C2937 C2933 1.385 . S
C2937 C2936 1.374 . S
C2938 C2935 1.499 . S
C2938 C2939 1.373 . S
C2938 C2940 1.389 . S
C2939 H2918 0.950 . S
C2939 C2938 1.373 . S
C2939 C2955 1.377 . S
C2940 C2938 1.389 . S
C2940 C2941 1.524 . S
C2940 C2954 1.377 . S
C2941 C2940 1.524 . S
C2941 C2942 1.397 . S
C2941 C2946 1.363 . S
C2942 H2919 0.950 . S
C2942 C2941 1.397 . S
C2942 C2943 1.334 . S
C2943 H2920 0.950 . S
C2943 C2942 1.334 . S
C2943 C2944 1.287 . S
C2944 C2943 1.287 . S
C2944 C2945 1.524 . S
C2944 H2963 0.913 . S
C2945 H2921 0.950 . S
C2945 C2944 1.524 . S
C2945 C2946 1.415 . S
C2946 H2922 0.950 . S
C2946 C2941 1.363 . S
C2946 C2945 1.415 . S
C2947 H2923 0.951 . S
C2947 C2948 1.366 . S
C2947 C2949 1.388 . S
C2948 C2947 1.366 . S
C2948 C2952 1.385 . S
C2949 H2924 0.951 . S
C2949 C2947 1.388 . S
C2949 C2950 1.366 . S
C2950 C2949 1.366 . S
C2950 C2951 1.414 . S
C2950 C2953 1.499 . S
C2951 H2925 0.950 . S
C2951 C2950 1.414 . S
C2951 C2952 1.374 . S
C2952 H2926 0.950 . S
C2952 C2948 1.385 . S
C2952 C2951 1.374 . S
C2953 C2950 1.499 . S
C2953 C2954 1.373 . S
C2953 C2955 1.389 . S
C2954 H2927 0.950 . S
C2954 C2940 1.377 . S
C2954 C2953 1.373 . S
C2955 C2939 1.377 . S
C2955 C2953 1.389 . S
C2955 C2956 1.524 . S
C2956 C2955 1.524 . S
C2956 C2957 1.397 . S
C2956 C2961 1.363 . S
C2957 H2928 0.950 . S
C2957 C2956 1.397 . S
C2957 C2958 1.334 . S
C2958 H2929 0.950 . S
C2958 C2957 1.334 . S
C2958 C2959 1.287 . S
C2959 C2958 1.287 . S
C2959 C2960 1.524 . S
C2959 H2962 0.999 . S
C2960 H2930 0.950 . S
C2960 C2959 1.524 . S
C2960 C2961 1.415 . S
C2961 H2931 0.950 . S
C2961 C2956 1.363 . S
C2961 C2960 1.415 . S
H2962 C2959 0.999 . S
H2963 C2944 0.913 . S
H2964 C2982 0.951 . S
H2965 C2984 0.951 . S
H2966 C2986 0.950 . S
H2967 C2987 0.950 . S
H2968 C2989 0.950 . S
H2969 C2992 0.950 . S
H2970 C2993 0.950 . S
H2971 C2995 0.950 . S
H2972 C2996 0.950 . S
H2973 C2997 0.951 . S
H2974 C2999 0.951 . S
H2975 C3001 0.950 . S
H2976 C3002 0.950 . S
H2977 C3004 0.950 . S
H2978 C3007 0.950 . S
H2979 C3008 0.950 . S
H2980 C3010 0.950 . S
H2981 C3011 0.950 . S
C2982 H2964 0.951 . S
C2982 C2983 1.366 . S
C2982 C2984 1.388 . S
C2983 C2982 1.366 . S
C2983 C2987 1.385 . S
C2984 H2965 0.951 . S
C2984 C2982 1.388 . S
C2984 C2985 1.366 . S
C2985 C2984 1.366 . S
C2985 C2986 1.414 . S
C2985 C2988 1.499 . S
C2986 H2966 0.950 . S
C2986 C2985 1.414 . S
C2986 C2987 1.374 . S
C2987 H2967 0.950 . S
C2987 C2983 1.385 . S
C2987 C2986 1.374 . S
C2988 C2985 1.499 . S
C2988 C2989 1.373 . S
C2988 C2990 1.389 . S
C2989 H2968 0.950 . S
C2989 C2988 1.373 . S
C2989 C3005 1.377 . S
C2990 C2988 1.389 . S
C2990 C2991 1.524 . S
C2990 C3004 1.377 . S
C2991 C2990 1.524 . S
C2991 C2992 1.397 . S
C2991 C2996 1.363 . S
C2992 H2969 0.950 . S
C2992 C2991 1.397 . S
C2992 C2993 1.334 . S
C2993 H2970 0.950 . S
C2993 C2992 1.334 . S
C2993 C2994 1.287 . S
C2994 C2993 1.287 . S
C2994 C2995 1.524 . S
C2994 H3013 0.913 . S
C2995 H2971 0.950 . S
C2995 C2994 1.524 . S
C2995 C2996 1.415 . S
C2996 H2972 0.950 . S
C2996 C2991 1.363 . S
C2996 C2995 1.415 . S
C2997 H2973 0.951 . S
C2997 C2998 1.366 . S
C2997 C2999 1.388 . S
C2998 C2997 1.366 . S
C2998 C3002 1.385 . S
C2999 H2974 0.951 . S
C2999 C2997 1.388 . S
C2999 C3000 1.366 . S
C3000 C2999 1.366 . S
C3000 C3001 1.414 . S
C3000 C3003 1.499 . S
C3001 H2975 0.950 . S
C3001 C3000 1.414 . S
C3001 C3002 1.374 . S
C3002 H2976 0.950 . S
C3002 C2998 1.385 . S
C3002 C3001 1.374 . S
C3003 C3000 1.499 . S
C3003 C3004 1.373 . S
C3003 C3005 1.389 . S
C3004 H2977 0.950 . S
C3004 C2990 1.377 . S
C3004 C3003 1.373 . S
C3005 C2989 1.377 . S
C3005 C3003 1.389 . S
C3005 C3006 1.524 . S
C3006 C3005 1.524 . S
C3006 C3007 1.397 . S
C3006 C3011 1.363 . S
C3007 H2978 0.950 . S
C3007 C3006 1.397 . S
C3007 C3008 1.334 . S
C3008 H2979 0.950 . S
C3008 C3007 1.334 . S
C3008 C3009 1.287 . S
C3009 C3008 1.287 . S
C3009 C3010 1.524 . S
C3009 H3012 0.999 . S
C3010 H2980 0.950 . S
C3010 C3009 1.524 . S
C3010 C3011 1.415 . S
C3011 H2981 0.950 . S
C3011 C3006 1.363 . S
C3011 C3010 1.415 . S
H3012 C3009 0.999 . S
H3013 C2994 0.913 . S
H3014 C3032 0.951 . S
H3015 C3034 0.951 . S
H3016 C3036 0.950 . S
H3017 C3037 0.950 . S
H3018 C3039 0.950 . S
H3019 C3042 0.950 . S
H3020 C3043 0.950 . S
H3021 C3045 0.950 . S
H3022 C3046 0.950 . S
H3023 C3047 0.951 . S
H3024 C3049 0.951 . S
H3025 C3051 0.950 . S
H3026 C3052 0.950 . S
H3027 C3054 0.950 . S
H3028 C3057 0.950 . S
H3029 C3058 0.950 . S
H3030 C3060 0.950 . S
H3031 C3061 0.950 . S
C3032 H3014 0.951 . S
C3032 C3033 1.366 . S
C3032 C3034 1.388 . S
C3033 C3032 1.366 . S
C3033 C3037 1.385 . S
C3034 H3015 0.951 . S
C3034 C3032 1.388 . S
C3034 C3035 1.366 . S
C3035 C3034 1.366 . S
C3035 C3036 1.414 . S
C3035 C3038 1.499 . S
C3036 H3016 0.950 . S
C3036 C3035 1.414 . S
C3036 C3037 1.374 . S
C3037 H3017 0.950 . S
C3037 C3033 1.385 . S
C3037 C3036 1.374 . S
C3038 C3035 1.499 . S
C3038 C3039 1.373 . S
C3038 C3040 1.389 . S
C3039 H3018 0.950 . S
C3039 C3038 1.373 . S
C3039 C3055 1.377 . S
C3040 C3038 1.389 . S
C3040 C3041 1.524 . S
C3040 C3054 1.377 . S
C3041 C3040 1.524 . S
C3041 C3042 1.397 . S
C3041 C3046 1.363 . S
C3042 H3019 0.950 . S
C3042 C3041 1.397 . S
C3042 C3043 1.334 . S
C3043 H3020 0.950 . S
C3043 C3042 1.334 . S
C3043 C3044 1.287 . S
C3044 C3043 1.287 . S
C3044 C3045 1.524 . S
C3044 H3063 0.913 . S
C3045 H3021 0.950 . S
C3045 C3044 1.524 . S
C3045 C3046 1.415 . S
C3046 H3022 0.950 . S
C3046 C3041 1.363 . S
C3046 C3045 1.415 . S
C3047 H3023 0.951 . S
C3047 C3048 1.366 . S
C3047 C3049 1.388 . S
C3048 C3047 1.366 . S
C3048 C3052 1.385 . S
C3049 H3024 0.951 . S
C3049 C3047 1.388 . S
C3049 C3050 1.366 . S
C3050 C3049 1.366 . S
C3050 C3051 1.414 . S
C3050 C3053 1.499 . S
C3051 H3025 0.950 . S
C3051 C3050 1.414 . S
C3051 C3052 1.374 . S
C3052 H3026 0.950 . S
C3052 C3048 1.385 . S
C3052 C3051 1.374 . S
C3053 C3050 1.499 . S
C3053 C3054 1.373 . S
C3053 C3055 1.389 . S
C3054 H3027 0.950 . S
C3054 C3040 1.377 . S
C3054 C3053 1.373 . S
C3055 C3039 1.377 . S
C3055 C3053 1.389 . S
C3055 C3056 1.524 . S
C3056 C3055 1.524 . S
C3056 C3057 1.397 . S
C3056 C3061 1.363 . S
C3057 H3028 0.950 . S
C3057 C3056 1.397 . S
C3057 C3058 1.334 . S
C3058 H3029 0.950 . S
C3058 C3057 1.334 . S
C3058 C3059 1.287 . S
C3059 C3058 1.287 . S
C3059 C3060 1.524 . S
C3059 H3062 0.999 . S
C3060 H3030 0.950 . S
C3060 C3059 1.524 . S
C3060 C3061 1.415 . S
C3061 H3031 0.950 . S
C3061 C3056 1.363 . S
C3061 C3060 1.415 . S
H3062 C3059 0.999 . S
H3063 C3044 0.913 . S
H3064 C3082 0.951 . S
H3065 C3084 0.951 . S
H3066 C3086 0.950 . S
H3067 C3087 0.950 . S
H3068 C3089 0.950 . S
H3069 C3092 0.950 . S
H3070 C3093 0.950 . S
H3071 C3095 0.950 . S
H3072 C3096 0.950 . S
H3073 C3097 0.951 . S
H3074 C3099 0.951 . S
H3075 C3101 0.950 . S
H3076 C3102 0.950 . S
H3077 C3104 0.950 . S
H3078 C3107 0.950 . S
H3079 C3108 0.950 . S
H3080 C3110 0.950 . S
H3081 C3111 0.950 . S
C3082 H3064 0.951 . S
C3082 C3083 1.366 . S
C3082 C3084 1.388 . S
C3083 C3082 1.366 . S
C3083 C3087 1.385 . S
C3084 H3065 0.951 . S
C3084 C3082 1.388 . S
C3084 C3085 1.366 . S
C3085 C3084 1.366 . S
C3085 C3086 1.414 . S
C3085 C3088 1.499 . S
C3086 H3066 0.950 . S
C3086 C3085 1.414 . S
C3086 C3087 1.374 . S
C3087 H3067 0.950 . S
C3087 C3083 1.385 . S
C3087 C3086 1.374 . S
C3088 C3085 1.499 . S
C3088 C3089 1.373 . S
C3088 C3090 1.389 . S
C3089 H3068 0.950 . S
C3089 C3088 1.373 . S
C3089 C3105 1.377 . S
C3090 C3088 1.389 . S
C3090 C3091 1.524 . S
C3090 C3104 1.377 . S
C3091 C3090 1.524 . S
C3091 C3092 1.397 . S
C3091 C3096 1.363 . S
C3092 H3069 0.950 . S
C3092 C3091 1.397 . S
C3092 C3093 1.334 . S
C3093 H3070 0.950 . S
C3093 C3092 1.334 . S
C3093 C3094 1.287 . S
C3094 C3093 1.287 . S
C3094 C3095 1.524 . S
C3094 H3113 0.913 . S
C3095 H3071 0.950 . S
C3095 C3094 1.524 . S
C3095 C3096 1.415 . S
C3096 H3072 0.950 . S
C3096 C3091 1.363 . S
C3096 C3095 1.415 . S
C3097 H3073 0.951 . S
C3097 C3098 1.366 . S
C3097 C3099 1.388 . S
C3098 C3097 1.366 . S
C3098 C3102 1.385 . S
C3099 H3074 0.951 . S
C3099 C3097 1.388 . S
C3099 C3100 1.366 . S
C3100 C3099 1.366 . S
C3100 C3101 1.414 . S
C3100 C3103 1.499 . S
C3101 H3075 0.950 . S
C3101 C3100 1.414 . S
C3101 C3102 1.374 . S
C3102 H3076 0.950 . S
C3102 C3098 1.385 . S
C3102 C3101 1.374 . S
C3103 C3100 1.499 . S
C3103 C3104 1.373 . S
C3103 C3105 1.389 . S
C3104 H3077 0.950 . S
C3104 C3090 1.377 . S
C3104 C3103 1.373 . S
C3105 C3089 1.377 . S
C3105 C3103 1.389 . S
C3105 C3106 1.524 . S
C3106 C3105 1.524 . S
C3106 C3107 1.397 . S
C3106 C3111 1.363 . S
C3107 H3078 0.950 . S
C3107 C3106 1.397 . S
C3107 C3108 1.334 . S
C3108 H3079 0.950 . S
C3108 C3107 1.334 . S
C3108 C3109 1.287 . S
C3109 C3108 1.287 . S
C3109 C3110 1.524 . S
C3109 H3112 0.999 . S
C3110 H3080 0.950 . S
C3110 C3109 1.524 . S
C3110 C3111 1.415 . S
C3111 H3081 0.950 . S
C3111 C3106 1.363 . S
C3111 C3110 1.415 . S
H3112 C3109 0.999 . S
H3113 C3094 0.913 . S
H3114 C3132 0.951 . S
H3115 C3134 0.951 . S
H3116 C3136 0.950 . S
H3117 C3137 0.950 . S
H3118 C3139 0.950 . S
H3119 C3142 0.950 . S
H3120 C3143 0.950 . S
H3121 C3145 0.950 . S
H3122 C3146 0.950 . S
H3123 C3147 0.951 . S
H3124 C3149 0.951 . S
H3125 C3151 0.950 . S
H3126 C3152 0.950 . S
H3127 C3154 0.950 . S
H3128 C3157 0.950 . S
H3129 C3158 0.950 . S
H3130 C3160 0.950 . S
H3131 C3161 0.950 . S
C3132 H3114 0.951 . S
C3132 C3133 1.366 . S
C3132 C3134 1.388 . S
C3133 C3132 1.366 . S
C3133 C3137 1.385 . S
C3134 H3115 0.951 . S
C3134 C3132 1.388 . S
C3134 C3135 1.366 . S
C3135 C3134 1.366 . S
C3135 C3136 1.414 . S
C3135 C3138 1.499 . S
C3136 H3116 0.950 . S
C3136 C3135 1.414 . S
C3136 C3137 1.374 . S
C3137 H3117 0.950 . S
C3137 C3133 1.385 . S
C3137 C3136 1.374 . S
C3138 C3135 1.499 . S
C3138 C3139 1.373 . S
C3138 C3140 1.389 . S
C3139 H3118 0.950 . S
C3139 C3138 1.373 . S
C3139 C3155 1.377 . S
C3140 C3138 1.389 . S
C3140 C3141 1.524 . S
C3140 C3154 1.377 . S
C3141 C3140 1.524 . S
C3141 C3142 1.397 . S
C3141 C3146 1.363 . S
C3142 H3119 0.950 . S
C3142 C3141 1.397 . S
C3142 C3143 1.334 . S
C3143 H3120 0.950 . S
C3143 C3142 1.334 . S
C3143 C3144 1.287 . S
C3144 C3143 1.287 . S
C3144 C3145 1.524 . S
C3144 H3163 0.913 . S
C3145 H3121 0.950 . S
C3145 C3144 1.524 . S
C3145 C3146 1.415 . S
C3146 H3122 0.950 . S
C3146 C3141 1.363 . S
C3146 C3145 1.415 . S
C3147 H3123 0.951 . S
C3147 C3148 1.366 . S
C3147 C3149 1.388 . S
C3148 C3147 1.366 . S
C3148 C3152 1.385 . S
C3149 H3124 0.951 . S
C3149 C3147 1.388 . S
C3149 C3150 1.366 . S
C3150 C3149 1.366 . S
C3150 C3151 1.414 . S
C3150 C3153 1.499 . S
C3151 H3125 0.950 . S
C3151 C3150 1.414 . S
C3151 C3152 1.374 . S
C3152 H3126 0.950 . S
C3152 C3148 1.385 . S
C3152 C3151 1.374 . S
C3153 C3150 1.499 . S
C3153 C3154 1.373 . S
C3153 C3155 1.389 . S
C3154 H3127 0.950 . S
C3154 C3140 1.377 . S
C3154 C3153 1.373 . S
C3155 C3139 1.377 . S
C3155 C3153 1.389 . S
C3155 C3156 1.524 . S
C3156 C3155 1.524 . S
C3156 C3157 1.397 . S
C3156 C3161 1.363 . S
C3157 H3128 0.950 . S
C3157 C3156 1.397 . S
C3157 C3158 1.334 . S
C3158 H3129 0.950 . S
C3158 C3157 1.334 . S
C3158 C3159 1.287 . S
C3159 C3158 1.287 . S
C3159 C3160 1.524 . S
C3159 H3162 0.999 . S
C3160 H3130 0.950 . S
C3160 C3159 1.524 . S
C3160 C3161 1.415 . S
C3161 H3131 0.950 . S
C3161 C3156 1.363 . S
C3161 C3160 1.415 . S
H3162 C3159 0.999 . S
H3163 C3144 0.913 . S
H3164 C3182 0.951 . S
H3165 C3184 0.951 . S
H3166 C3186 0.950 . S
H3167 C3187 0.950 . S
H3168 C3189 0.950 . S
H3169 C3192 0.950 . S
H3170 C3193 0.950 . S
H3171 C3195 0.950 . S
H3172 C3196 0.950 . S
H3173 C3197 0.951 . S
H3174 C3199 0.951 . S
H3175 C3201 0.950 . S
H3176 C3202 0.950 . S
H3177 C3204 0.950 . S
H3178 C3207 0.950 . S
H3179 C3208 0.950 . S
H3180 C3210 0.950 . S
H3181 C3211 0.950 . S
C3182 H3164 0.951 . S
C3182 C3183 1.366 . S
C3182 C3184 1.388 . S
C3183 C3182 1.366 . S
C3183 C3187 1.385 . S
C3184 H3165 0.951 . S
C3184 C3182 1.388 . S
C3184 C3185 1.366 . S
C3185 C3184 1.366 . S
C3185 C3186 1.414 . S
C3185 C3188 1.499 . S
C3186 H3166 0.950 . S
C3186 C3185 1.414 . S
C3186 C3187 1.374 . S
C3187 H3167 0.950 . S
C3187 C3183 1.385 . S
C3187 C3186 1.374 . S
C3188 C3185 1.499 . S
C3188 C3189 1.373 . S
C3188 C3190 1.389 . S
C3189 H3168 0.950 . S
C3189 C3188 1.373 . S
C3189 C3205 1.377 . S
C3190 C3188 1.389 . S
C3190 C3191 1.524 . S
C3190 C3204 1.377 . S
C3191 C3190 1.524 . S
C3191 C3192 1.397 . S
C3191 C3196 1.363 . S
C3192 H3169 0.950 . S
C3192 C3191 1.397 . S
C3192 C3193 1.334 . S
C3193 H3170 0.950 . S
C3193 C3192 1.334 . S
C3193 C3194 1.287 . S
C3194 C3193 1.287 . S
C3194 C3195 1.524 . S
C3194 H3213 0.913 . S
C3195 H3171 0.950 . S
C3195 C3194 1.524 . S
C3195 C3196 1.415 . S
C3196 H3172 0.950 . S
C3196 C3191 1.363 . S
C3196 C3195 1.415 . S
C3197 H3173 0.951 . S
C3197 C3198 1.366 . S
C3197 C3199 1.388 . S
C3198 C3197 1.366 . S
C3198 C3202 1.385 . S
C3199 H3174 0.951 . S
C3199 C3197 1.388 . S
C3199 C3200 1.366 . S
C3200 C3199 1.366 . S
C3200 C3201 1.414 . S
C3200 C3203 1.499 . S
C3201 H3175 0.950 . S
C3201 C3200 1.414 . S
C3201 C3202 1.374 . S
C3202 H3176 0.950 . S
C3202 C3198 1.385 . S
C3202 C3201 1.374 . S
C3203 C3200 1.499 . S
C3203 C3204 1.373 . S
C3203 C3205 1.389 . S
C3204 H3177 0.950 . S
C3204 C3190 1.377 . S
C3204 C3203 1.373 . S
C3205 C3189 1.377 . S
C3205 C3203 1.389 . S
C3205 C3206 1.524 . S
C3206 C3205 1.524 . S
C3206 C3207 1.397 . S
C3206 C3211 1.363 . S
C3207 H3178 0.950 . S
C3207 C3206 1.397 . S
C3207 C3208 1.334 . S
C3208 H3179 0.950 . S
C3208 C3207 1.334 . S
C3208 C3209 1.287 . S
C3209 C3208 1.287 . S
C3209 C3210 1.524 . S
C3209 H3212 0.999 . S
C3210 H3180 0.950 . S
C3210 C3209 1.524 . S
C3210 C3211 1.415 . S
C3211 H3181 0.950 . S
C3211 C3206 1.363 . S
C3211 C3210 1.415 . S
H3212 C3209 0.999 . S
H3213 C3194 0.913 . S
H3214 C3232 0.951 . S
H3215 C3234 0.951 . S
H3216 C3236 0.950 . S
H3217 C3237 0.950 . S
H3218 C3239 0.950 . S
H3219 C3242 0.950 . S
H3220 C3243 0.950 . S
H3221 C3245 0.950 . S
H3222 C3246 0.950 . S
H3223 C3247 0.951 . S
H3224 C3249 0.951 . S
H3225 C3251 0.950 . S
H3226 C3252 0.950 . S
H3227 C3254 0.950 . S
H3228 C3257 0.950 . S
H3229 C3258 0.950 . S
H3230 C3260 0.950 . S
H3231 C3261 0.950 . S
C3232 H3214 0.951 . S
C3232 C3233 1.366 . S
C3232 C3234 1.388 . S
C3233 C3232 1.366 . S
C3233 C3237 1.385 . S
C3234 H3215 0.951 . S
C3234 C3232 1.388 . S
C3234 C3235 1.366 . S
C3235 C3234 1.366 . S
C3235 C3236 1.414 . S
C3235 C3238 1.499 . S
C3236 H3216 0.950 . S
C3236 C3235 1.414 . S
C3236 C3237 1.374 . S
C3237 H3217 0.950 . S
C3237 C3233 1.385 . S
C3237 C3236 1.374 . S
C3238 C3235 1.499 . S
C3238 C3239 1.373 . S
C3238 C3240 1.389 . S
C3239 H3218 0.950 . S
C3239 C3238 1.373 . S
C3239 C3255 1.377 . S
C3240 C3238 1.389 . S
C3240 C3241 1.524 . S
C3240 C3254 1.377 . S
C3241 C3240 1.524 . S
C3241 C3242 1.397 . S
C3241 C3246 1.363 . S
C3242 H3219 0.950 . S
C3242 C3241 1.397 . S
C3242 C3243 1.334 . S
C3243 H3220 0.950 . S
C3243 C3242 1.334 . S
C3243 C3244 1.287 . S
C3244 C3243 1.287 . S
C3244 C3245 1.524 . S
C3244 H3263 0.913 . S
C3245 H3221 0.950 . S
C3245 C3244 1.524 . S
C3245 C3246 1.415 . S
C3246 H3222 0.950 . S
C3246 C3241 1.363 . S
C3246 C3245 1.415 . S
C3247 H3223 0.951 . S
C3247 C3248 1.366 . S
C3247 C3249 1.388 . S
C3248 C3247 1.366 . S
C3248 C3252 1.385 . S
C3249 H3224 0.951 . S
C3249 C3247 1.388 . S
C3249 C3250 1.366 . S
C3250 C3249 1.366 . S
C3250 C3251 1.414 . S
C3250 C3253 1.499 . S
C3251 H3225 0.950 . S
C3251 C3250 1.414 . S
C3251 C3252 1.374 . S
C3252 H3226 0.950 . S
C3252 C3248 1.385 . S
C3252 C3251 1.374 . S
C3253 C3250 1.499 . S
C3253 C3254 1.373 . S
C3253 C3255 1.389 . S
C3254 H3227 0.950 . S
C3254 C3240 1.377 . S
C3254 C3253 1.373 . S
C3255 C3239 1.377 . S
C3255 C3253 1.389 . S
C3255 C3256 1.524 . S
C3256 C3255 1.524 . S
C3256 C3257 1.397 . S
C3256 C3261 1.363 . S
C3257 H3228 0.950 . S
C3257 C3256 1.397 . S
C3257 C3258 1.334 . S
C3258 H3229 0.950 . S
C3258 C3257 1.334 . S
C3258 C3259 1.287 . S
C3259 C3258 1.287 . S
C3259 C3260 1.524 . S
C3259 H3262 0.999 . S
C3260 H3230 0.950 . S
C3260 C3259 1.524 . S
C3260 C3261 1.415 . S
C3261 H3231 0.950 . S
C3261 C3256 1.363 . S
C3261 C3260 1.415 . S
H3262 C3259 0.999 . S
H3263 C3244 0.913 . S
C483 C245 1.653 . S
C498 C13 1.653 . S
C533 C42 1.653 . S
C548 C274 1.653 . S
C583 C303 1.654 . S
C598 C71 1.654 . S
C633 C100 1.653 . S
C648 C332 1.653 . S
C683 C129 1.652 . S
C698 C361 1.652 . S
C733 C158 1.654 . S
C748 C390 1.654 . S
C783 C419 1.653 . S
C798 C187 1.653 . S
C833 C448 1.654 . S
C848 C216 1.654 . S
C883 C15 2.963 . S
C898 C37 2.603 . S
C933 C66 2.602 . S
C948 C44 2.963 . S
C983 C95 2.603 . S
C998 C73 2.963 . S
C1033 C8 2.603 . S
C1048 C102 2.963 . S
C1083 C211 2.602 . S
C1098 C131 2.963 . S
C1133 C124 2.603 . S
C1148 C160 2.963 . S
C1183 C189 2.963 . S
C1198 C153 2.603 . S
C1233 C218 2.963 . S
C1248 C182 2.603 . S
C1283 C269 2.602 . S
C1298 C247 2.963 . S
C1333 C276 2.963 . S
C1348 C298 2.602 . S
C1383 C327 2.602 . S
C1398 C305 2.963 . S
C1433 C240 2.603 . S
C1448 C334 2.963 . S
C1483 C443 2.603 . S
C1498 C363 2.963 . S
C1533 C356 2.603 . S
C1548 C392 2.963 . S
C1583 C385 2.602 . S
C1598 C421 2.963 . S
C1633 C414 2.603 . S
C1648 C450 2.963 . S
C1683 C266 0.824 . S
C1698 C3 0.840 . S
C1733 C295 0.825 . S
C1748 C32 0.840 . S
C1783 C324 0.826 . S
C1798 C61 0.840 . S
C1833 C237 0.826 . S
C1848 C90 0.840 . S
C1883 C440 0.826 . S
C1898 C119 0.840 . S
C1933 C353 0.826 . S
C1948 C148 0.840 . S
C1983 C177 0.840 . S
C1998 C382 0.824 . S
C2033 C411 0.824 . S
C2048 C206 0.840 . S
C2083 C235 0.840 . S
C2098 C34 0.825 . S
C2133 C264 0.840 . S
C2148 C63 0.825 . S
C2183 C293 0.840 . S
C2198 C92 0.824 . S
C2233 C5 0.825 . S
C2248 C322 0.840 . S
C2283 C351 0.840 . S
C2298 C208 0.825 . S
C2333 C121 0.824 . S
C2348 C380 0.840 . S
C2383 C409 0.840 . S
C2398 C150 0.825 . S
C2433 C438 0.840 . S
C2448 C179 0.826 . S
C2483 C155 1.738 . S
C2498 C10 1.738 . S
C2533 C184 1.738 . S
C2548 C39 1.738 . S
C2583 C213 1.739 . S
C2598 C68 1.738 . S
C2633 C126 1.738 . S
C2648 C97 1.738 . S
C2683 C387 1.739 . S
C2698 C242 1.738 . S
C2733 C271 1.738 . S
C2748 C416 1.738 . S
C2783 C300 1.738 . S
C2798 C445 1.738 . S
C2833 C329 1.739 . S
C2848 C358 1.739 . S
C2883 C79 0.776 . S
C2898 C21 0.776 . S
C2933 C50 0.775 . S
C2948 C108 0.775 . S
C2983 C195 0.776 . S
C2998 C137 0.775 . S
C3033 C224 0.774 . S
C3048 C166 0.774 . S
C3083 C253 0.773 . S
C3098 C311 0.773 . S
C3133 C340 0.775 . S
C3148 C282 0.774 . S
C3183 C427 0.773 . S
C3198 C369 0.773 . S
C3233 C456 0.775 . S
C3248 C398 0.775 . S
