# Generated by pormake.
# Topology wjm, (5)-cn, num edge types: 1
# Building blocks:
#     Node 0, Type 0, BuildingBlock: XOMCOT_clean_sbu_1, # of connection points: 5
#     Node 1, Type 0, BuildingBlock: XOMCOT_clean_sbu_1, # of connection points: 5
#     Node 2, Type 0, BuildingBlock: XOMCOT_clean_sbu_1, # of connection points: 5
#     Node 3, Type 0, BuildingBlock: XOMCOT_clean_sbu_1, # of connection points: 5
#     Node 4, Type 0, BuildingBlock: XOMCOT_clean_sbu_1, # of connection points: 5
#     Node 5, Type 0, BuildingBlock: XOMCOT_clean_sbu_1, # of connection points: 5
#     Node 6, Type 0, BuildingBlock: XOMCOT_clean_sbu_1, # of connection points: 5
#     Node 7, Type 0, BuildingBlock: XOMCOT_clean_sbu_1, # of connection points: 5
#     Node 8, Type 0, BuildingBlock: XOMCOT_clean_sbu_1, # of connection points: 5
#     Node 9, Type 0, BuildingBlock: XOMCOT_clean_sbu_1, # of connection points: 5
#     Node 10, Type 0, BuildingBlock: XOMCOT_clean_sbu_1, # of connection points: 5
#     Node 11, Type 0, BuildingBlock: XOMCOT_clean_sbu_1, # of connection points: 5
#     Edge 12, Type (0, 0), BuildingBlock: AJUNOK_clean_linker_0, # of connection points: 2
#     Edge 13, Type (0, 0), BuildingBlock: AJUNOK_clean_linker_0, # of connection points: 2
#     Edge 14, Type (0, 0), BuildingBlock: AJUNOK_clean_linker_0, # of connection points: 2
#     Edge 15, Type (0, 0), BuildingBlock: AJUNOK_clean_linker_0, # of connection points: 2
#     Edge 16, Type (0, 0), BuildingBlock: AJUNOK_clean_linker_0, # of connection points: 2
#     Edge 17, Type (0, 0), BuildingBlock: AJUNOK_clean_linker_0, # of connection points: 2
#     Edge 18, Type (0, 0), BuildingBlock: AJUNOK_clean_linker_0, # of connection points: 2
#     Edge 19, Type (0, 0), BuildingBlock: AJUNOK_clean_linker_0, # of connection points: 2
#     Edge 20, Type (0, 0), BuildingBlock: AJUNOK_clean_linker_0, # of connection points: 2
#     Edge 21, Type (0, 0), BuildingBlock: AJUNOK_clean_linker_0, # of connection points: 2
#     Edge 22, Type (0, 0), BuildingBlock: AJUNOK_clean_linker_0, # of connection points: 2
#     Edge 23, Type (0, 0), BuildingBlock: AJUNOK_clean_linker_0, # of connection points: 2
#     Edge 24, Type (0, 0), BuildingBlock: AJUNOK_clean_linker_0, # of connection points: 2
#     Edge 25, Type (0, 0), BuildingBlock: AJUNOK_clean_linker_0, # of connection points: 2
#     Edge 26, Type (0, 0), BuildingBlock: AJUNOK_clean_linker_0, # of connection points: 2
#     Edge 27, Type (0, 0), BuildingBlock: AJUNOK_clean_linker_0, # of connection points: 2
#     Edge 28, Type (0, 0), BuildingBlock: AJUNOK_clean_linker_0, # of connection points: 2
#     Edge 29, Type (0, 0), BuildingBlock: AJUNOK_clean_linker_0, # of connection points: 2
#     Edge 30, Type (0, 0), BuildingBlock: AJUNOK_clean_linker_0, # of connection points: 2
#     Edge 31, Type (0, 0), BuildingBlock: AJUNOK_clean_linker_0, # of connection points: 2
#     Edge 32, Type (0, 0), BuildingBlock: AJUNOK_clean_linker_0, # of connection points: 2
#     Edge 33, Type (0, 0), BuildingBlock: AJUNOK_clean_linker_0, # of connection points: 2
#     Edge 34, Type (0, 0), BuildingBlock: AJUNOK_clean_linker_0, # of connection points: 2
#     Edge 35, Type (0, 0), BuildingBlock: AJUNOK_clean_linker_0, # of connection points: 2
#     Edge 36, Type (0, 0), BuildingBlock: AJUNOK_clean_linker_0, # of connection points: 2
#     Edge 37, Type (0, 0), BuildingBlock: AJUNOK_clean_linker_0, # of connection points: 2
#     Edge 38, Type (0, 0), BuildingBlock: AJUNOK_clean_linker_0, # of connection points: 2
#     Edge 39, Type (0, 0), BuildingBlock: AJUNOK_clean_linker_0, # of connection points: 2
#     Edge 40, Type (0, 0), BuildingBlock: AJUNOK_clean_linker_0, # of connection points: 2
#     Edge 41, Type (0, 0), BuildingBlock: AJUNOK_clean_linker_0, # of connection points: 2
# Relax obj value: 0.703
# Max RMSD: 0.271
# Mean RMSD: 0.271
data_MOF--net-wjm--node1-XOMCOT_clean_sbu_1--edge1-AJUNOK_clean_linker_0
_symmetry_space_group_name_H-M    P1
_symmetry_Int_Tables_number       1
_symmetry_cell_setting            triclinic
loop_
_symmetry_equiv_pos_as_xyz
'x, y, z'
_cell_length_a     23.995794
_cell_length_b     24.042418
_cell_length_c     30.879045
_cell_angle_alpha  90.345011
_cell_angle_beta   89.565479
_cell_angle_gamma 119.95997
loop_
_atom_site_label
_atom_site_type_symbol
_atom_site_fract_x
_atom_site_fract_y
_atom_site_fract_z
_atom_type_partial_charge
C0 C 0.43332 0.47717 0.24285 0.0
C1 C 0.45479 0.52504 0.27356 0.0
N2 N 0.41595 0.5026 0.30861 0.0
N3 N 0.38123 0.42467 0.25853 0.0
C4 C 0.37234 0.44116 0.29874 0.0
H5 H 0.451 0.482 0.20995 0.0
Co6 Co 0.32008 0.35715 0.22586 0.0
C7 C 0.31014 0.25216 0.28724 0.0
O8 O 0.31548 0.22163 0.25352 0.0
N9 N 0.25696 0.29376 0.1896 0.0
C10 C 0.20594 0.21472 0.14154 0.0
C11 C 0.22562 0.22928 0.18439 0.0
C12 C 0.25118 0.31616 0.15074 0.0
N13 N 0.22295 0.26999 0.12052 0.0
O14 O 0.25931 0.39035 0.23878 0.0
H15 H 0.22263 0.19531 0.20823 0.0
H16 H 0.27687 0.36641 0.14249 0.0
O17 O 0.29948 0.2995 0.28072 0.0
C18 C 0.27211 0.43904 0.21445 0.0
O19 O 0.32238 0.46041 0.18866 0.0
N20 N 0.38222 0.33192 0.20847 0.0
C21 C 0.48839 0.32623 0.17624 0.0
C22 C 0.48422 0.33872 0.22054 0.0
C23 C 0.43131 0.34243 0.23568 0.0
C24 C 0.38111 0.30768 0.16791 0.0
C25 C 0.43148 0.29991 0.15257 0.0
H26 H 0.43206 0.35773 0.26874 0.0
H27 H 0.34447 0.29833 0.14489 0.0
H28 H 0.33227 0.40952 0.31914 0.0
H29 H 0.49301 0.57408 0.26905 0.0
H30 H 0.18523 0.16788 0.12641 0.0
H31 H 0.52471 0.35453 0.24214 0.0
H32 H 0.43014 0.28466 0.11933 0.0
C33 C 0.94723 0.40384 0.57527 0.0
C34 C 0.92659 0.43002 0.60665 0.0
N35 N 0.92359 0.40088 0.64437 0.0
N36 N 0.95862 0.35982 0.59341 0.0
C37 C 0.94227 0.35781 0.63544 0.0
H38 H 0.94879 0.4117 0.54081 0.0
Co39 Co 0.96844 0.30139 0.56121 0.0
C40 C 0.0682 0.30343 0.62399 0.0
O41 O 0.10644 0.3119 0.59102 0.0
N42 N 0.9707 0.24038 0.52474 0.0
C43 C 0.9844 0.17652 0.47841 0.0
C44 C 0.98857 0.19534 0.52172 0.0
C45 C 0.95341 0.24541 0.48401 0.0
N46 N 0.96187 0.20843 0.45517 0.0
O47 O 0.87495 0.23812 0.57454 0.0
H48 H 1.00789 0.18097 0.54815 0.0
H49 H 0.9417 0.28147 0.47458 0.0
O50 O 1.00823 0.28523 0.61619 0.0
C51 C 0.83726 0.24516 0.54802 0.0
O52 O 0.86422 0.29074 0.51895 0.0
N53 N 0.0561 0.36663 0.54246 0.0
C54 C 0.12586 0.46585 0.48571 0.0
C55 C 0.11769 0.47937 0.52881 0.0
C56 C 0.08314 0.42842 0.55732 0.0
C57 C 0.08507 0.35672 0.5069 0.0
C58 C 0.11934 0.40597 0.47727 0.0
H59 H 0.07168 0.43923 0.58901 0.0
H60 H 0.0775 0.31026 0.49814 0.0
H61 H 0.93905 0.32226 0.65818 0.0
H62 H 0.90954 0.46349 0.60155 0.0
H63 H 0.9994 0.14439 0.46493 0.0
H64 H 0.12702 0.52656 0.53806 0.0
H65 H 0.13045 0.39462 0.44557 0.0
C66 C 0.57151 0.96306 0.92061 0.0
C67 C 0.52367 0.93855 0.9513 0.0
N68 N 0.54879 0.9322 0.98848 0.0
N69 N 0.62677 0.97325 0.93847 0.0
C70 C 0.61141 0.95339 0.97986 0.0
H71 H 0.56531 0.96694 0.88637 0.0
Co72 Co 0.69217 0.97776 0.90483 0.0
C73 C 0.79848 0.06937 0.96604 0.0
O74 O 0.8334 0.10213 0.93271 0.0
N75 N 0.75126 0.97418 0.86693 0.0
C76 C 0.81984 0.96507 0.82217 0.0
C77 C 0.80714 0.97339 0.86522 0.0
C78 C 0.73079 0.96472 0.82543 0.0
N79 N 0.77124 0.9599 0.79759 0.0
O80 O 0.65456 0.88284 0.91568 0.0
H81 H 0.83642 0.97835 0.89303 0.0
H82 H 0.6873 0.96374 0.81543 0.0
O83 O 0.75 1.01213 0.95933 0.0
C84 C 0.61113 0.84943 0.88708 0.0
O85 O 0.59778 0.88105 0.8584 0.0
N86 N 0.72287 0.06795 0.88867 0.0
C87 C 0.70899 0.14844 0.83293 0.0
C88 C 0.6853 0.14164 0.87555 0.0
C89 C 0.69163 0.09915 0.90304 0.0
C90 C 0.76697 0.09713 0.8557 0.0
C91 C 0.76063 0.13805 0.82686 0.0
H92 H 0.66547 0.0868 0.93329 0.0
H93 H 0.80343 0.08493 0.84822 0.0
H94 H 0.64287 0.94652 1.00135 0.0
H95 H 0.47318 0.92147 0.94575 0.0
H96 H 0.86139 0.96338 0.81002 0.0
H97 H 0.65065 0.15631 0.8841 0.0
H98 H 0.78648 0.14984 0.79638 0.0
C99 C 0.75826 0.65678 0.34641 0.0
C100 C 0.75041 0.60964 0.37445 0.0
N101 N 0.72815 0.55495 0.35184 0.0
N102 N 0.73986 0.63174 0.30615 0.0
C103 C 0.72195 0.56908 0.31078 0.0
H104 H 0.77926 0.70656 0.35537 0.0
Co105 Co 0.75412 0.6774 0.254 0.0
C106 C 0.73472 0.78057 0.29659 0.0
O107 O 0.70276 0.78112 0.2625 0.0
N108 N 0.77543 0.72471 0.20054 0.0
C109 C 0.79852 0.79522 0.14716 0.0
C110 C 0.79616 0.78692 0.19162 0.0
C111 C 0.76913 0.6975 0.16086 0.0
N112 N 0.78105 0.73846 0.1276 0.0
O113 O 0.84019 0.68395 0.25285 0.0
H114 H 0.80696 0.82376 0.21563 0.0
H115 H 0.75288 0.64722 0.1563 0.0
O116 O 0.77163 0.75552 0.29254 0.0
C117 C 0.8286 0.63275 0.23132 0.0
O118 O 0.76993 0.59608 0.21697 0.0
N119 N 0.66424 0.65652 0.25058 0.0
C120 C 0.61052 0.54916 0.20086 0.0
C121 C 0.60246 0.54359 0.24615 0.0
C122 C 0.62481 0.59972 0.27056 0.0
C123 C 0.64606 0.66117 0.20955 0.0
C124 C 0.62466 0.6079 0.1822 0.0
H125 H 0.62203 0.59682 0.30553 0.0
H126 H 0.66153 0.70759 0.19524 0.0
H127 H 0.70604 0.53469 0.28458 0.0
H128 H 0.76048 0.61501 0.40883 0.0
H129 H 0.80938 0.83931 0.13105 0.0
H130 H 0.58284 0.49765 0.26231 0.0
H131 H 0.6253 0.61466 0.14763 0.0
C132 C 0.10816 0.62679 0.57708 0.0
C133 C 0.13575 0.60954 0.60907 0.0
N134 N 0.13692 0.64117 0.64535 0.0
N135 N 0.0898 0.6674 0.59345 0.0
C136 C 0.10813 0.67524 0.63534 0.0
H137 H 0.1072 0.61538 0.54317 0.0
Co138 Co 0.07514 0.7239 0.5609 0.0
C139 C 0.96372 0.70675 0.62106 0.0
O140 O 0.92605 0.68602 0.58712 0.0
N141 N 0.06787 0.78429 0.5262 0.0
C142 C 0.03226 0.83321 0.48252 0.0
C143 C 0.03069 0.8118 0.52462 0.0
C144 C 0.09431 0.79354 0.48615 0.0
N145 N 0.07222 0.82094 0.45854 0.0
O146 O 0.16442 0.79217 0.57746 0.0
H147 H 0.99846 0.80915 0.55021 0.0
H148 H 0.12094 0.77092 0.47511 0.0
O149 O 1.02554 0.732 0.61496 0.0
C150 C 0.20366 0.78675 0.55097 0.0
O151 O 0.1786 0.74023 0.52231 0.0
N152 N 0.99392 0.65419 0.53718 0.0
C153 C 0.99379 0.57501 0.47323 0.0
C154 C 0.9808 0.55327 0.51625 0.0
C155 C 0.97738 0.59304 0.54817 0.0
C156 C 0.97958 0.66225 0.49557 0.0
C157 C 0.98661 0.62704 0.46207 0.0
H158 H 0.97633 0.58028 0.58181 0.0
H159 H 0.97172 0.70096 0.48702 0.0
H160 H 0.10737 0.71081 0.65662 0.0
H161 H 0.15759 0.57983 0.60531 0.0
H162 H 1.0022 0.85098 0.46981 0.0
H163 H 0.98501 0.51272 0.52601 0.0
H164 H 0.99092 0.64271 0.42878 0.0
C165 C 0.50058 0.16386 0.93041 0.0
C166 C 0.53874 0.19907 0.96401 0.0
N167 N 0.50228 0.1827 1.00001 0.0
N168 N 0.44023 0.12463 0.94505 0.0
C169 C 0.44251 0.13748 0.98798 0.0
H170 H 0.51543 0.16749 0.89699 0.0
Co171 Co 0.37449 0.08249 0.90508 0.0
C172 C 0.27698 0.97253 0.96147 0.0
O173 O 0.26389 0.93536 0.92739 0.0
N174 N 0.31175 0.04767 0.86033 0.0
C175 C 0.23229 1.00932 0.81188 0.0
C176 C 0.24741 0.0197 0.85579 0.0
C177 C 0.33387 0.05482 0.81902 0.0
N178 N 0.28731 0.03089 0.78881 0.0
O179 O 0.36894 0.16292 0.90606 0.0
H180 H 0.21377 1.00825 0.88233 0.0
H181 H 0.38432 0.07679 0.81141 0.0
O182 O 0.31186 0.03426 0.95605 0.0
C183 C 0.4065 0.20065 0.876 0.0
O184 O 0.43091 0.17675 0.84869 0.0
N185 N 0.39023 1.00981 0.90007 0.0
C186 C 0.47773 1.01052 0.84303 0.0
C187 C 0.49567 0.03084 0.88581 0.0
C188 C 0.44829 0.02207 0.91555 0.0
C189 C 0.36821 0.97027 0.86447 0.0
C190 C 0.41248 0.97131 0.83417 0.0
H191 H 0.46236 0.03803 0.94848 0.0
H192 H 0.31815 0.94666 0.85536 0.0
H193 H 0.40118 0.11694 1.0094 0.0
H194 H 0.58933 0.23485 0.9622 0.0
H195 H 0.18455 0.98742 0.79816 0.0
H196 H 0.54567 0.05795 0.89514 0.0
H197 H 0.3963 0.94728 0.80334 0.0
C198 C 0.41527 0.71972 0.50352 0.0
C199 C 0.38599 0.67228 0.4726 0.0
N200 N 0.4311 0.66202 0.4537 0.0
N201 N 0.47881 0.74054 0.50361 0.0
C202 C 0.48645 0.70391 0.47355 0.0
H203 H 0.39165 0.73848 0.52385 0.0
Co204 Co 0.54596 0.80759 0.5344 0.0
C205 C 0.65995 0.8424 0.46876 0.0
O206 O 0.70181 0.85913 0.5003 0.0
N207 N 0.6146 0.87499 0.56633 0.0
C208 C 0.70158 0.96558 0.58716 0.0
C209 C 0.65918 0.93448 0.55355 0.0
C210 C 0.63017 0.87208 0.60816 0.0
N211 N 0.68323 0.92605 0.62175 0.0
O212 O 0.50796 0.86195 0.52045 0.0
H213 H 0.66173 0.95354 0.5215 0.0
H214 H 0.60264 0.83129 0.62889 0.0
O215 O 0.60131 0.82706 0.47843 0.0
C216 C 0.47579 0.8636 0.55382 0.0
O217 O 0.49035 0.84923 0.59147 0.0
N218 N 0.56867 0.74949 0.55491 0.0
C219 C 0.54457 0.63298 0.58765 0.0
C220 C 0.59004 0.66255 0.55439 0.0
C221 C 0.60144 0.72143 0.53807 0.0
C222 C 0.52889 0.72349 0.58977 0.0
C223 C 0.51692 0.66572 0.60722 0.0
H224 H 0.63027 0.73926 0.50928 0.0
H225 H 0.50165 0.74517 0.60167 0.0
H226 H 0.53249 0.7085 0.46614 0.0
H227 H 0.3358 0.6497 0.46404 0.0
H228 H 0.74363 1.01292 0.58545 0.0
H229 H 0.61102 0.63725 0.53813 0.0
H230 H 0.48108 0.64361 0.63261 0.0
C231 C 0.68916 0.40664 0.81735 0.0
C232 C 0.71357 0.38035 0.78835 0.0
N233 N 0.77687 0.42184 0.78291 0.0
N234 N 0.73672 0.46505 0.82971 0.0
C235 C 0.78942 0.47171 0.80904 0.0
H236 H 0.6393 0.38568 0.82657 0.0
Co237 Co 0.73489 0.53296 0.85874 0.0
C238 C 0.82154 0.64435 0.79158 0.0
O239 O 0.84114 0.68971 0.82113 0.0
N240 N 0.73412 0.60176 0.88888 0.0
C241 C 0.7309 0.68857 0.91142 0.0
C242 C 0.72578 0.65063 0.8759 0.0
C243 C 0.74222 0.61017 0.93233 0.0
N244 N 0.74124 0.66263 0.94689 0.0
O245 O 0.64349 0.49618 0.8411 0.0
H246 H 0.71663 0.65832 0.84286 0.0
H247 H 0.74871 0.5782 0.95341 0.0
O248 O 0.77808 0.58639 0.80233 0.0
C249 C 0.60891 0.46562 0.87456 0.0
O250 O 0.63832 0.47855 0.91202 0.0
N251 N 0.8133 0.55523 0.88413 0.0
C252 C 0.90701 0.5426 0.9272 0.0
C253 C 0.92437 0.59075 0.89585 0.0
C254 C 0.8764 0.59688 0.87479 0.0
C255 C 0.79667 0.5122 0.91704 0.0
C256 C 0.84273 0.50594 0.93964 0.0
H257 H 0.8905 0.63014 0.8485 0.0
H258 H 0.74646 0.4796 0.92404 0.0
H259 H 0.83588 0.51379 0.81214 0.0
H260 H 0.6859 0.33631 0.77035 0.0
H261 H 0.72612 0.73102 0.91124 0.0
H262 H 0.97365 0.61908 0.88469 0.0
H263 H 0.82763 0.46851 0.96377 0.0
C264 C 0.35263 0.75661 0.19722 0.0
C265 C 0.406 0.77564 0.17121 0.0
N266 N 0.39342 0.79222 0.13253 0.0
N267 N 0.30748 0.76221 0.17498 0.0
C268 C 0.33349 0.78305 0.13546 0.0
H269 H 0.34846 0.74337 0.231 0.0
Co270 Co 0.23443 0.75704 0.19936 0.0
C271 C 0.20291 0.8338 0.1319 0.0
O272 O 0.18725 0.85936 0.16411 0.0
N273 N 0.15996 0.7515 0.22729 0.0
C274 C 0.07006 0.75287 0.24525 0.0
C275 C 0.10399 0.7439 0.21189 0.0
C276 C 0.15639 0.76099 0.27037 0.0
N277 N 0.10404 0.76469 0.28209 0.0
O278 O 0.18858 0.66454 0.18487 0.0
H279 H 0.08989 0.7354 0.17824 0.0
H280 H 0.19135 0.76504 0.29357 0.0
O281 O 0.21589 0.78869 0.14082 0.0
C282 C 0.19314 0.63348 0.21743 0.0
O283 O 0.20931 0.66357 0.25485 0.0
N284 N 0.28587 0.84119 0.21904 0.0
C285 C 0.39106 0.94858 0.25373 0.0
C286 C 0.37017 0.95041 0.21192 0.0
C287 C 0.3189 0.89535 0.19453 0.0
C288 C 0.3058 0.83978 0.26009 0.0
C289 C 0.35693 0.89352 0.27867 0.0
H290 H 0.31289 0.89494 0.16015 0.0
H291 H 0.28777 0.79452 0.27653 0.0
H292 H 0.31144 0.79611 0.11008 0.0
H293 H 0.45121 0.77944 0.18046 0.0
H294 H 1.02557 0.75363 0.242 0.0
H295 H 0.39846 0.99107 0.19089 0.0
H296 H 0.37438 0.8896 0.31013 0.0
C297 C 0.59859 0.31959 0.53184 0.0
C298 C 0.64581 0.36546 0.50619 0.0
N299 N 0.63064 0.34787 0.46446 0.0
N300 N 0.55354 0.27402 0.50633 0.0
C301 C 0.57451 0.29199 0.46548 0.0
H302 H 0.59589 0.32029 0.56681 0.0
Co303 Co 0.48146 0.20371 0.52716 0.0
C304 C 0.3825 0.18769 0.45734 0.0
O305 O 0.34379 0.1816 0.48957 0.0
N306 N 0.40865 0.13011 0.55165 0.0
C307 C 0.31264 0.04638 0.56948 0.0
C308 C 0.35213 0.08298 0.53569 0.0
C309 C 0.40363 0.11743 0.59464 0.0
N310 N 0.34558 0.0687 0.60654 0.0
O311 O 0.5268 0.15512 0.51537 0.0
H312 H 0.33955 0.07544 0.50182 0.0
H313 H 0.44163 0.14423 0.61756 0.0
O314 O 0.43674 0.1902 0.46643 0.0
C315 C 0.56313 0.164 0.54853 0.0
O316 O 0.55144 0.1876 0.58363 0.0
N317 N 0.44959 0.25818 0.54437 0.0
C318 C 0.44538 0.36476 0.57552 0.0
C319 C 0.44525 0.35416 0.53105 0.0
C320 C 0.44976 0.30202 0.51618 0.0
C321 C 0.44801 0.26757 0.58796 0.0
C322 C 0.44538 0.32034 0.60428 0.0
H323 H 0.46046 0.30147 0.48228 0.0
H324 H 0.45704 0.2395 0.61062 0.0
H325 H 0.54837 0.26588 0.437 0.0
H326 H 0.68577 0.41038 0.51738 0.0
H327 H 0.26402 1.00638 0.56699 0.0
H328 H 0.44917 0.38981 0.50801 0.0
H329 H 0.44899 0.32928 0.63887 0.0
C330 C 0.27286 0.60992 0.86581 0.0
C331 C 0.25987 0.64736 0.83885 0.0
N332 N 0.25919 0.6275 0.79795 0.0
N333 N 0.27848 0.56582 0.84187 0.0
C334 C 0.27106 0.57851 0.80061 0.0
H335 H 0.27393 0.61189 0.90081 0.0
Co336 Co 0.28288 0.49702 0.86422 0.0
C337 C 0.20058 0.39083 0.79617 0.0
O338 O 0.17133 0.3523 0.82894 0.0
N339 N 0.28855 0.42736 0.89009 0.0
C340 C 0.27874 0.33228 0.90661 0.0
C341 C 0.28581 0.37394 0.87336 0.0
C342 C 0.28841 0.4186 0.93348 0.0
N343 N 0.27919 0.36037 0.94458 0.0
O344 O 0.37596 0.54403 0.84998 0.0
H345 H 0.28563 0.36399 0.83918 0.0
H346 H 0.29462 0.45404 0.95731 0.0
O347 O 0.24966 0.44739 0.80449 0.0
C348 C 0.40463 0.58031 0.88304 0.0
O349 O 0.37101 0.56818 0.91902 0.0
N350 N 0.19812 0.46393 0.8843 0.0
C351 C 0.09032 0.46102 0.92043 0.0
C352 C 0.09219 0.44893 0.87625 0.0
C353 C 0.14745 0.45287 0.85853 0.0
C354 C 0.19598 0.47531 0.92749 0.0
C355 C 0.14186 0.47207 0.94653 0.0
H356 H 0.15177 0.45523 0.8238 0.0
H357 H 0.23917 0.49672 0.9463 0.0
H358 H 0.26924 0.54946 0.77319 0.0
H359 H 0.24843 0.68387 0.84858 0.0
H360 H 0.27011 0.28384 0.90283 0.0
H361 H 0.0545 0.44411 0.85476 0.0
H362 H 0.14318 0.4851 0.98033 0.0
C363 C 0.79275 0.35789 0.12069 0.0
C364 C 0.7397 0.35057 0.09943 0.0
N365 N 0.68699 0.31065 0.12254 0.0
N366 N 0.7744 0.32365 0.15766 0.0
C367 C 0.70941 0.29596 0.15817 0.0
H368 H 0.84139 0.38266 0.10814 0.0
Co369 Co 0.83243 0.312 0.19126 0.0
C370 C 0.85502 0.22076 0.13156 0.0
O371 O 0.85982 0.19334 0.1669 0.0
N372 N 0.893 0.30077 0.22546 0.0
C373 C 0.97875 0.29426 0.24586 0.0
C374 C 0.95086 0.30997 0.21256 0.0
C375 C 0.88841 0.28178 0.26742 0.0
N376 N 0.93919 0.27635 0.28063 0.0
O377 O 0.89601 0.40443 0.18146 0.0
H378 H 0.97091 0.32551 0.18048 0.0
H379 H 0.84927 0.27311 0.28877 0.0
O380 O 0.85103 0.27256 0.13584 0.0
C381 C 0.89436 0.43508 0.21566 0.0
O382 O 0.87023 0.40116 0.25105 0.0
N383 N 0.76628 0.23201 0.20809 0.0
C384 C 0.65394 0.134 0.24337 0.0
C385 C 0.67465 0.12694 0.20226 0.0
C386 C 0.73012 0.17754 0.18445 0.0
C387 C 0.74509 0.23976 0.24753 0.0
C388 C 0.68966 0.19096 0.26624 0.0
H389 H 0.73933 0.17464 0.15064 0.0
H390 H 0.76942 0.28598 0.26342 0.0
H391 H 0.6787 0.2626 0.18267 0.0
H392 H 0.73961 0.36803 0.06719 0.0
H393 H 1.02376 0.2943 0.2438 0.0
H394 H 0.64514 0.08508 0.18261 0.0
H395 H 0.67295 0.19896 0.29709 0.0
C396 C 0.62999 0.45668 0.19299 0.0
C397 C 0.60602 0.49474 0.17531 0.0
C398 C 0.60584 0.39315 0.17889 0.0
C399 C 0.55083 0.36594 0.15266 0.0
H400 H 0.66186 0.47329 0.22055 0.0
H401 H 0.61712 0.36226 0.1978 0.0
S402 S 0.51478 0.45732 0.07267 0.0
N403 N 0.55586 0.50963 0.11119 0.0
N404 N 0.51345 0.39021 0.08595 0.0
C405 C 0.54869 0.40911 0.12287 0.0
C406 C 0.57184 0.47362 0.13632 0.0
C407 C 0.13828 0.56568 0.45403 0.0
C408 C 0.10961 0.49852 0.45164 0.0
C409 C 0.10014 0.59457 0.45114 0.0
C410 C 0.033 0.55657 0.44646 0.0
H411 H 0.18692 0.59414 0.46608 0.0
H412 H 0.12131 0.64458 0.46043 0.0
S413 S 0.94313 0.3852 0.41576 0.0
N414 N 1.01696 0.40007 0.42534 0.0
N415 N 0.94468 0.45398 0.4235 0.0
C416 C 1.0077 0.49283 0.43332 0.0
C417 C 0.0469 0.46392 0.43446 0.0
C418 C 0.56573 0.01698 0.79721 0.0
C419 C 0.52639 0.04233 0.80878 0.0
C420 C 0.63144 0.05849 0.78942 0.0
C421 C 0.6591 0.12475 0.79879 0.0
H422 H 0.54813 0.96598 0.80025 0.0
H423 H 0.6617 0.03718 0.78631 0.0
S424 S 0.57084 0.21342 0.80605 0.0
N425 N 0.51456 0.13693 0.80837 0.0
N426 N 0.63968 0.21423 0.79984 0.0
C427 C 0.61807 0.15026 0.79783 0.0
C428 C 0.55075 0.10849 0.80284 0.0
C429 C 0.55 0.53594 0.60831 0.0
C430 C 0.51407 0.5635 0.59387 0.0
C431 C 0.52398 0.46937 0.60689 0.0
C432 C 0.462 0.4292 0.59022 0.0
H433 H 0.59928 0.56612 0.6187 0.0
H434 H 0.55442 0.44975 0.61547 0.0
S435 S 0.34773 0.47829 0.55095 0.0
N436 N 0.41235 0.54606 0.56508 0.0
N437 N 0.3641 0.42076 0.56177 0.0
C438 C 0.42441 0.45599 0.57812 0.0
C439 C 0.45043 0.52343 0.58002 0.0
C440 C 0.97722 0.43418 0.92919 0.0
C441 C 0.04256 0.47769 0.93578 0.0
C442 C 0.93241 0.4549 0.93062 0.0
C443 C 0.9518 0.51991 0.93835 0.0
H444 H 0.96148 0.3851 0.91962 0.0
H445 H 0.88323 0.42081 0.92184 0.0
S446 S 0.11627 0.65037 0.96398 0.0
N447 N 0.12402 0.58674 0.95511 0.0
N448 N 0.03893 0.62554 0.95825 0.0
C449 C 1.0161 0.56253 0.94889 0.0
C450 C 0.06181 0.54137 0.94759 0.0
C451 C 0.47762 0.06081 0.26506 0.0
C452 C 0.45756 0.99517 0.26474 0.0
C453 C 0.54288 0.10643 0.26213 0.0
C454 C 0.58924 0.0872 0.2581 0.0
H455 H 0.44252 0.07661 0.26439 0.0
H456 H 0.55668 0.15662 0.25939 0.0
S457 S 0.56126 0.92141 0.25958 0.0
N458 N 0.48884 0.91314 0.26366 0.0
N459 N 0.6119 0.99952 0.25776 0.0
C460 C 0.57012 0.02206 0.26085 0.0
C461 C 0.50392 0.9757 0.26435 0.0
C462 C 0.20991 0.32539 0.05799 0.0
C463 C 0.22854 0.28281 0.07446 0.0
C464 C 0.22535 0.34895 1.0155 0.0
C465 C 0.26114 0.33183 0.98746 0.0
H466 H 0.18462 0.34203 0.07877 0.0
H467 H 0.20965 0.38164 1.00471 0.0
S468 S 0.32382 0.22328 1.01537 0.0
N469 N 0.28549 0.22485 0.05966 0.0
N470 N 0.31508 0.26945 0.97979 0.0
C471 C 0.27918 0.2882 1.00322 0.0
C472 C 0.26294 0.26379 0.04668 0.0
C473 C 0.89206 0.21248 0.34781 0.0
C474 C 0.94676 0.25383 0.3228 0.0
C475 C 0.89753 0.1939 0.39001 0.0
C476 C 0.95779 0.21425 0.4089 0.0
H477 H 0.84426 0.19516 0.33512 0.0
H478 H 0.85419 0.16522 0.40879 0.0
S479 S 0.11628 0.3224 0.35866 0.0
N480 N 0.06393 0.31484 0.32136 0.0
N481 N 0.07329 0.2776 0.39986 0.0
C482 C 1.01287 0.25366 0.38412 0.0
C483 C 1.00761 0.27376 0.34131 0.0
C484 C 0.72964 0.89282 0.73189 0.0
C485 C 0.76217 0.95383 0.75126 0.0
C486 C 0.70609 0.88454 0.68924 0.0
C487 C 0.71318 0.9369 0.66426 0.0
H488 H 0.71985 0.85092 0.75062 0.0
H489 H 0.68087 0.83635 0.67612 0.0
S490 S 0.79598 0.10702 0.70106 0.0
N491 N 0.80184 0.06736 0.7426 0.0
N492 N 0.75688 0.05271 0.66317 0.0
C493 C 0.74738 0.99853 0.68323 0.0
C494 C 0.77169 1.00666 0.72652 0.0
C495 C 0.72845 0.65749 0.06876 0.0
C496 C 0.77043 0.7217 0.08165 0.0
C497 C 0.71836 0.63916 1.02495 0.0
C498 C 0.74881 0.68404 0.99157 0.0
H499 H 0.70267 0.62042 0.09254 0.0
H500 H 0.68622 0.58915 1.01706 0.0
S501 S 0.86444 0.85753 1.00605 0.0
N502 N 0.84417 0.83002 0.05595 0.0
N503 N 0.82318 0.79527 0.97384 0.0
C504 C 0.79 0.7484 1.00342 0.0
C505 C 0.80124 0.76724 0.04825 0.0
C506 C 0.13858 0.84228 0.39294 0.0
C507 C 0.07739 0.81737 0.41198 0.0
C508 C 0.14638 0.82693 0.35018 0.0
C509 C 0.09331 0.78478 0.32447 0.0
H510 H 0.18102 0.87194 0.41207 0.0
H511 H 0.19485 0.84722 0.33754 0.0
S512 S 0.92236 0.70634 0.35925 0.0
N513 N 0.96244 0.74935 0.40178 0.0
N514 N 0.97682 0.71957 0.32156 0.0
C515 C 0.03149 0.76118 0.34264 0.0
C516 C 1.02362 0.7775 0.38631 0.0
C517 C 0.25597 0.03912 0.71294 0.0
C518 C 0.2969 0.03159 0.74202 0.0
C519 C 0.26969 0.04761 0.66799 0.0
C520 C 0.32467 0.04863 0.65056 0.0
H521 H 0.21481 0.04145 0.7252 0.0
H522 H 0.239 0.05656 0.64709 0.0
S523 S 0.44164 0.02123 0.71021 0.0
N524 N 0.39106 0.01869 0.74769 0.0
N525 N 0.41578 0.03468 0.66435 0.0
C526 C 0.36346 0.03747 0.67855 0.0
C527 C 0.34989 0.02897 0.7239 0.0
C528 C 0.31836 0.22267 0.41001 0.0
C529 C 0.36664 0.20486 0.41319 0.0
C530 C 0.30149 0.23982 0.37022 0.0
C531 C 0.33088 0.23891 0.33084 0.0
H532 H 0.29301 0.22384 0.43884 0.0
H533 H 0.26397 0.25237 0.37026 0.0
S534 S 0.46326 0.20063 0.32025 0.0
N535 N 0.44596 0.19167 0.3725 0.0
N536 N 0.41386 0.2215 0.29828 0.0
C537 C 0.38 0.22223 0.33354 0.0
C538 C 0.39795 0.20599 0.37425 0.0
C539 C 0.1678 0.36502 0.67205 0.0
C540 C 0.09975 0.32512 0.66868 0.0
C541 C 0.20011 0.38785 0.71237 0.0
C542 C 0.16659 0.37123 0.75216 0.0
H543 H 0.19706 0.37951 0.64294 0.0
H544 H 0.25201 0.4176 0.71231 0.0
S545 S 0.98792 0.27138 0.76273 0.0
N546 N 1.00048 0.27312 0.70998 0.0
N547 N 0.05967 0.31401 0.78487 0.0
C548 C 0.0984 0.33215 0.74928 0.0
C549 C 0.06557 0.30981 0.70814 0.0
C550 C 0.84106 0.17394 1.00936 0.0
C551 C 0.81072 0.10569 1.00909 0.0
C552 C 0.854 0.21073 0.04813 0.0
C553 C 0.83892 0.18176 0.08933 0.0
H554 H 0.85469 0.19974 0.97896 0.0
H555 H 0.87717 0.26249 0.04572 0.0
S556 S 0.75727 1.00472 0.10777 0.0
N557 N 0.76411 1.01128 0.05455 0.0
N558 N 0.78935 0.07873 0.12674 0.0
C559 C 0.80798 0.11337 0.08952 0.0
C560 C 0.79365 0.07599 0.04991 0.0
C561 C 0.73849 0.83063 0.41755 0.0
C562 C 0.67922 0.82972 0.42392 0.0
C563 C 0.75664 0.81521 0.37713 0.0
C564 C 0.71697 0.79858 0.34029 0.0
H565 H 0.77131 0.8425 0.4444 0.0
H566 H 0.80239 0.81667 0.3748 0.0
S567 S 0.5563 0.78832 0.33864 0.0
N568 N 0.58114 0.81022 0.3888 0.0
N569 N 0.61401 0.78182 0.3139 0.0
C570 C 0.65765 0.79795 0.34621 0.0
C571 C 0.63918 0.8132 0.38741 0.0
C572 C 0.82974 0.62865 0.70944 0.0
C573 C 0.85882 0.66011 0.74847 0.0
C574 C 0.86403 0.64498 0.66936 0.0
C575 C 0.93024 0.69273 0.66559 0.0
H576 H 0.77957 0.59153 0.70962 0.0
H577 H 0.83796 0.61873 0.64085 0.0
S578 S 0.03153 0.78662 0.75841 0.0
N579 N 0.96 0.7406 0.78051 0.0
N580 N 1.02354 0.769 0.70622 0.0
C581 C 0.96038 0.72343 0.70456 0.0
C582 C 0.92513 0.70779 0.74536 0.0
C583 C 0.22108 0.83943 0.04928 0.0
C584 C 0.22131 0.86965 0.08855 0.0
C585 C 0.23788 0.87296 1.00918 0.0
C586 C 0.25743 0.93932 1.0057 0.0
H587 H 0.20716 0.78909 0.04932 0.0
H588 H 0.23624 0.84615 0.98046 0.0
S589 S 0.27094 0.04326 0.09896 0.0
N590 N 0.24547 0.97208 0.12101 0.0
N591 N 0.27775 0.03385 0.04655 0.0
C592 C 0.25917 0.97047 0.04482 0.0
C593 C 0.24102 0.93617 0.08567 0.0
C594 C 0.4766 0.59165 0.3595 0.0
C595 C 0.41766 0.53982 0.34606 0.0
C596 C 0.48018 0.63074 0.39424 0.0
C597 C 0.42502 0.61968 0.41799 0.0
H598 H 0.52076 0.60245 0.34288 0.0
H599 H 0.52717 0.67055 0.4017 0.0
S600 S 0.25781 0.48944 0.39579 0.0
N601 N 0.30182 0.4803 0.35822 0.0
N602 N 0.30894 0.55079 0.42555 0.0
C603 C 0.36545 0.56713 0.40526 0.0
C604 C 0.36169 0.52789 0.36901 0.0
C605 C 0.84344 0.3512 0.70279 0.0
C606 C 0.89365 0.40607 0.68319 0.0
C607 C 0.80699 0.35683 0.73641 0.0
C608 C 0.81946 0.41749 0.75141 0.0
H609 H 0.83051 0.30387 0.69076 0.0
H610 H 0.76789 0.31333 0.75009 0.0
S611 S 0.95247 0.57521 0.71261 0.0
N612 N 0.95908 0.52154 0.68307 0.0
N613 N 0.89001 0.53382 0.74472 0.0
C614 C 0.87217 0.47268 0.73299 0.0
C615 C 0.90931 0.46645 0.6992 0.0
C616 C 0.41518 0.80463 0.05467 0.0
C617 C 0.43676 0.82351 0.09719 0.0
C618 C 0.45261 0.83972 1.01933 0.0
C619 C 0.51275 0.89533 1.02533 0.0
H620 H 0.36836 0.76302 0.04887 0.0
H621 H 0.43412 0.82341 0.98706 0.0
S622 S 0.58995 0.96566 0.13037 0.0
N623 N 0.52136 0.90124 0.14367 0.0
N624 N 0.59218 0.96775 0.07688 0.0
C625 C 0.53551 0.91407 0.06769 0.0
C626 C 0.49734 0.87804 0.10376 0.0
C627 C 0.64455 0.44472 0.36712 0.0
C628 C 0.70897 0.49359 0.36997 0.0
C629 C 0.61984 0.3928 0.39575 0.0
C630 C 0.65929 0.38868 0.42766 0.0
H631 H 0.61198 0.44995 0.34565 0.0
H632 H 0.5686 0.35926 0.39548 0.0
S633 S 0.83453 0.49671 0.44005 0.0
N634 N 0.81392 0.52956 0.4011 0.0
N635 N 0.76806 0.43071 0.45427 0.0
C636 C 0.72541 0.43313 0.4268 0.0
C637 C 0.75019 0.48609 0.39805 0.0
C638 C 0.17512 0.64076 0.76259 0.0
C639 C 0.23449 0.64243 0.76047 0.0
C640 C 0.14442 0.643 0.72477 0.0
C641 C 0.17214 0.64658 0.68394 0.0
H642 H 0.15076 0.63411 0.79341 0.0
H643 H 0.09753 0.63893 0.72723 0.0
S644 S 0.33263 0.66453 0.66223 0.0
N645 N 0.32351 0.65604 0.7153 0.0
N646 N 0.26654 0.66144 0.6441 0.0
C647 C 0.23365 0.65299 0.68178 0.0
C648 C 0.26463 0.65053 0.72015 0.0
C649 C 0.55676 0.278 0.0453 0.0
C650 C 0.52594 0.21094 1.04157 0.0
C651 C 0.60462 0.31056 0.07621 0.0
C652 C 0.62325 0.27715 0.10444 0.0
H653 H 0.54882 0.30562 1.02102 0.0
H654 H 0.63181 0.36251 0.07516 0.0
S655 S 0.54648 0.09989 0.11316 0.0
N656 N 0.50881 0.1114 0.07264 0.0
N657 N 0.5988 0.17217 0.13129 0.0
C658 C 0.58641 0.20953 0.1048 0.0
C659 C 0.53756 0.17646 0.07313 0.0
C660 C 0.19691 0.53979 0.25208 0.0
C661 C 0.19686 0.57242 0.21381 0.0
C662 C 0.21555 0.49228 0.25214 0.0
C663 C 0.23548 0.47516 0.21388 0.0
H664 H 0.18572 0.55352 0.28299 0.0
H665 H 0.21857 0.47226 0.28278 0.0
S666 S 0.23584 0.53826 0.1039 0.0
N667 N 0.21236 0.57801 0.13595 0.0
N668 N 0.24676 0.48956 0.13571 0.0
C669 C 0.231 0.5038 0.17498 0.0
C670 C 0.21183 0.55191 0.17495 0.0
C671 C 0.66456 0.18313 0.50865 0.0
C672 C 0.62745 0.16627 0.54683 0.0
C673 C 0.73106 0.20341 0.50948 0.0
C674 C 0.76433 0.20791 0.54841 0.0
H675 H 0.64339 0.18524 0.47829 0.0
H676 H 0.75756 0.21912 0.47925 0.0
S677 S 0.68824 0.16265 0.657 0.0
N678 N 0.62843 0.14963 0.62457 0.0
N679 N 0.75256 0.18848 0.62568 0.0
C680 C 0.7269 0.1868 0.58632 0.0
C681 C 0.65904 0.16602 0.58559 0.0
C682 C 0.49795 0.67423 0.92108 0.0
C683 C 0.4681 0.64315 0.8816 0.0
C684 C 0.54804 0.73923 0.92292 0.0
C685 C 0.57091 0.77683 0.88529 0.0
H686 H 0.48005 0.64903 0.95147 0.0
H687 H 0.56574 0.76119 0.95428 0.0
S688 S 0.51642 0.71774 0.77299 0.0
N689 N 0.47077 0.65483 0.80361 0.0
N690 N 0.56438 0.77545 0.80654 0.0
C691 C 0.54488 0.74504 0.84532 0.0
C692 C 0.49395 0.67889 0.84354 0.0
C693 C 0.88915 0.58094 0.26126 0.0
C694 C 0.87266 0.60546 0.22542 0.0
C695 C 0.90378 0.53092 0.25664 0.0
C696 C 0.90156 0.50163 0.21605 0.0
H697 H 0.88404 0.59542 0.29361 0.0
H698 H 0.91145 0.51124 0.28598 0.0
S699 S 0.86936 0.55421 0.11112 0.0
N700 N 0.86203 0.60126 0.14716 0.0
N701 N 0.88908 0.50794 0.13869 0.0
C702 C 0.89115 0.52996 0.17955 0.0
C703 C 0.87658 0.58122 0.18425 0.0
C704 C 0.37713 0.85679 0.59019 0.0
C705 C 0.41173 0.86192 0.55134 0.0
C706 C 0.3111 0.83878 0.59042 0.0
C707 C 0.27628 0.82542 0.5517 0.0
H708 H 0.4001 0.86274 0.62126 0.0
H709 H 0.28627 0.83056 0.62119 0.0
S710 S 0.345 0.84212 0.44077 0.0
N711 N 0.4063 0.85949 0.47293 0.0
N712 N 0.28382 0.82701 0.47301 0.0
C713 C 0.31161 0.83607 0.51257 0.0
C714 C 0.37865 0.85407 0.51239 0.0
C715 C 0.51411 0.37313 0.91247 0.0
C716 C 0.54331 0.40516 0.873 0.0
C717 C 0.46339 0.30859 0.9138 0.0
C718 C 0.43843 0.27285 0.87564 0.0
H719 H 0.53378 0.39641 0.9432 0.0
H720 H 0.44804 0.28506 0.94495 0.0
S721 S 0.48693 0.3364 0.76365 0.0
N722 N 0.5353 0.39761 0.79474 0.0
N723 N 0.44004 0.27762 0.7969 0.0
C724 C 0.46203 0.30639 0.83597 0.0
C725 C 0.5141 0.37197 0.83466 0.0
loop_
_geom_bond_atom_site_label_1
_geom_bond_atom_site_label_2
_geom_bond_distance
_geom_bond_site_symmetry_2
_ccdc_geom_bond_type
C0 C1 1.351 . S
C0 N3 1.368 . S
C0 H5 0.931 . S
C1 C0 1.351 . S
C1 N2 1.373 . S
C1 H29 0.930 . S
N2 C1 1.373 . S
N2 C4 1.340 . S
N3 C0 1.368 . S
N3 C4 1.321 . S
N3 Co6 2.135 . S
C4 N2 1.340 . S
C4 N3 1.321 . S
C4 H28 0.930 . S
H5 C0 0.931 . S
Co6 N3 2.135 . S
Co6 N9 2.121 . S
Co6 O14 2.055 . S
Co6 O17 2.039 . S
Co6 N20 2.140 . S
C7 O8 1.227 . S
C7 O17 1.265 . S
O8 C7 1.227 . S
N9 Co6 2.121 . S
N9 C11 1.375 . S
N9 C12 1.313 . S
C10 C11 1.338 . S
C10 N13 1.377 . S
C10 H30 0.930 . S
C11 N9 1.375 . S
C11 C10 1.338 . S
C11 H15 0.931 . S
C12 N9 1.313 . S
C12 N13 1.344 . S
C12 H16 0.930 . S
N13 C10 1.377 . S
N13 C12 1.344 . S
O14 Co6 2.055 . S
O14 C18 1.253 . S
H15 C11 0.931 . S
H16 C12 0.930 . S
O17 Co6 2.039 . S
O17 C7 1.265 . S
C18 O14 1.253 . S
C18 O19 1.227 . S
O19 C18 1.227 . S
N20 Co6 2.140 . S
N20 C23 1.346 . S
N20 C24 1.345 . S
C21 C22 1.387 . S
C21 C25 1.391 . S
C22 C21 1.387 . S
C22 C23 1.369 . S
C22 H31 0.929 . S
C23 N20 1.346 . S
C23 C22 1.369 . S
C23 H26 0.928 . S
C24 N20 1.345 . S
C24 C25 1.371 . S
C24 H27 0.931 . S
C25 C21 1.391 . S
C25 C24 1.371 . S
C25 H32 0.930 . S
H26 C23 0.928 . S
H27 C24 0.931 . S
H28 C4 0.930 . S
H29 C1 0.930 . S
H30 C10 0.930 . S
H31 C22 0.929 . S
H32 C25 0.930 . S
C33 C34 1.351 . S
C33 N36 1.368 . S
C33 H38 0.931 . S
C34 C33 1.351 . S
C34 N35 1.373 . S
C34 H62 0.930 . S
N35 C34 1.373 . S
N35 C37 1.340 . S
N36 C33 1.368 . S
N36 C37 1.321 . S
N36 Co39 2.135 . S
C37 N35 1.340 . S
C37 N36 1.321 . S
C37 H61 0.930 . S
H38 C33 0.931 . S
Co39 N36 2.135 . S
Co39 N42 2.121 . S
Co39 O47 2.055 . S
Co39 O50 2.039 . S
Co39 N53 2.140 . S
C40 O41 1.227 . S
C40 O50 1.265 . S
O41 C40 1.227 . S
N42 Co39 2.121 . S
N42 C44 1.375 . S
N42 C45 1.313 . S
C43 C44 1.338 . S
C43 N46 1.377 . S
C43 H63 0.930 . S
C44 N42 1.375 . S
C44 C43 1.338 . S
C44 H48 0.931 . S
C45 N42 1.313 . S
C45 N46 1.344 . S
C45 H49 0.930 . S
N46 C43 1.377 . S
N46 C45 1.344 . S
O47 Co39 2.055 . S
O47 C51 1.253 . S
H48 C44 0.931 . S
H49 C45 0.930 . S
O50 Co39 2.039 . S
O50 C40 1.265 . S
C51 O47 1.253 . S
C51 O52 1.227 . S
O52 C51 1.227 . S
N53 Co39 2.140 . S
N53 C56 1.346 . S
N53 C57 1.345 . S
C54 C55 1.387 . S
C54 C58 1.391 . S
C55 C54 1.387 . S
C55 C56 1.369 . S
C55 H64 0.929 . S
C56 N53 1.346 . S
C56 C55 1.369 . S
C56 H59 0.928 . S
C57 N53 1.345 . S
C57 C58 1.371 . S
C57 H60 0.931 . S
C58 C54 1.391 . S
C58 C57 1.371 . S
C58 H65 0.930 . S
H59 C56 0.928 . S
H60 C57 0.931 . S
H61 C37 0.930 . S
H62 C34 0.930 . S
H63 C43 0.930 . S
H64 C55 0.929 . S
H65 C58 0.930 . S
C66 C67 1.351 . S
C66 N69 1.368 . S
C66 H71 0.931 . S
C67 C66 1.351 . S
C67 N68 1.373 . S
C67 H95 0.930 . S
N68 C67 1.373 . S
N68 C70 1.340 . S
N69 C66 1.368 . S
N69 C70 1.321 . S
N69 Co72 2.135 . S
C70 N68 1.340 . S
C70 N69 1.321 . S
C70 H94 0.930 . S
H71 C66 0.931 . S
Co72 N69 2.135 . S
Co72 N75 2.121 . S
Co72 O80 2.055 . S
Co72 O83 2.039 . S
Co72 N86 2.140 . S
C73 O74 1.227 . S
C73 O83 1.265 . S
O74 C73 1.227 . S
N75 Co72 2.121 . S
N75 C77 1.375 . S
N75 C78 1.313 . S
C76 C77 1.338 . S
C76 N79 1.377 . S
C76 H96 0.930 . S
C77 N75 1.375 . S
C77 C76 1.338 . S
C77 H81 0.931 . S
C78 N75 1.313 . S
C78 N79 1.344 . S
C78 H82 0.930 . S
N79 C76 1.377 . S
N79 C78 1.344 . S
O80 Co72 2.055 . S
O80 C84 1.253 . S
H81 C77 0.931 . S
H82 C78 0.930 . S
O83 Co72 2.039 . S
O83 C73 1.265 . S
C84 O80 1.253 . S
C84 O85 1.227 . S
O85 C84 1.227 . S
N86 Co72 2.140 . S
N86 C89 1.346 . S
N86 C90 1.345 . S
C87 C88 1.387 . S
C87 C91 1.391 . S
C88 C87 1.387 . S
C88 C89 1.369 . S
C88 H97 0.929 . S
C89 N86 1.346 . S
C89 C88 1.369 . S
C89 H92 0.928 . S
C90 N86 1.345 . S
C90 C91 1.371 . S
C90 H93 0.931 . S
C91 C87 1.391 . S
C91 C90 1.371 . S
C91 H98 0.930 . S
H92 C89 0.928 . S
H93 C90 0.931 . S
H94 C70 0.930 . S
H95 C67 0.930 . S
H96 C76 0.930 . S
H97 C88 0.929 . S
H98 C91 0.930 . S
C99 C100 1.351 . S
C99 N102 1.368 . S
C99 H104 0.931 . S
C100 C99 1.351 . S
C100 N101 1.373 . S
C100 H128 0.930 . S
N101 C100 1.373 . S
N101 C103 1.340 . S
N102 C99 1.368 . S
N102 C103 1.321 . S
N102 Co105 2.135 . S
C103 N101 1.340 . S
C103 N102 1.321 . S
C103 H127 0.930 . S
H104 C99 0.931 . S
Co105 N102 2.135 . S
Co105 N108 2.121 . S
Co105 O113 2.055 . S
Co105 O116 2.039 . S
Co105 N119 2.140 . S
C106 O107 1.227 . S
C106 O116 1.265 . S
O107 C106 1.227 . S
N108 Co105 2.121 . S
N108 C110 1.375 . S
N108 C111 1.313 . S
C109 C110 1.338 . S
C109 N112 1.377 . S
C109 H129 0.930 . S
C110 N108 1.375 . S
C110 C109 1.338 . S
C110 H114 0.931 . S
C111 N108 1.313 . S
C111 N112 1.344 . S
C111 H115 0.930 . S
N112 C109 1.377 . S
N112 C111 1.344 . S
O113 Co105 2.055 . S
O113 C117 1.253 . S
H114 C110 0.931 . S
H115 C111 0.930 . S
O116 Co105 2.039 . S
O116 C106 1.265 . S
C117 O113 1.253 . S
C117 O118 1.227 . S
O118 C117 1.227 . S
N119 Co105 2.140 . S
N119 C122 1.346 . S
N119 C123 1.345 . S
C120 C121 1.387 . S
C120 C124 1.391 . S
C121 C120 1.387 . S
C121 C122 1.369 . S
C121 H130 0.929 . S
C122 N119 1.346 . S
C122 C121 1.369 . S
C122 H125 0.928 . S
C123 N119 1.345 . S
C123 C124 1.371 . S
C123 H126 0.931 . S
C124 C120 1.391 . S
C124 C123 1.371 . S
C124 H131 0.930 . S
H125 C122 0.928 . S
H126 C123 0.931 . S
H127 C103 0.930 . S
H128 C100 0.930 . S
H129 C109 0.930 . S
H130 C121 0.929 . S
H131 C124 0.930 . S
C132 C133 1.351 . S
C132 N135 1.368 . S
C132 H137 0.931 . S
C133 C132 1.351 . S
C133 N134 1.373 . S
C133 H161 0.930 . S
N134 C133 1.373 . S
N134 C136 1.340 . S
N135 C132 1.368 . S
N135 C136 1.321 . S
N135 Co138 2.135 . S
C136 N134 1.340 . S
C136 N135 1.321 . S
C136 H160 0.930 . S
H137 C132 0.931 . S
Co138 N135 2.135 . S
Co138 N141 2.121 . S
Co138 O146 2.055 . S
Co138 O149 2.039 . S
Co138 N152 2.140 . S
C139 O140 1.227 . S
C139 O149 1.265 . S
O140 C139 1.227 . S
N141 Co138 2.121 . S
N141 C143 1.375 . S
N141 C144 1.313 . S
C142 C143 1.338 . S
C142 N145 1.377 . S
C142 H162 0.930 . S
C143 N141 1.375 . S
C143 C142 1.338 . S
C143 H147 0.931 . S
C144 N141 1.313 . S
C144 N145 1.344 . S
C144 H148 0.930 . S
N145 C142 1.377 . S
N145 C144 1.344 . S
O146 Co138 2.055 . S
O146 C150 1.253 . S
H147 C143 0.931 . S
H148 C144 0.930 . S
O149 Co138 2.039 . S
O149 C139 1.265 . S
C150 O146 1.253 . S
C150 O151 1.227 . S
O151 C150 1.227 . S
N152 Co138 2.140 . S
N152 C155 1.346 . S
N152 C156 1.345 . S
C153 C154 1.387 . S
C153 C157 1.391 . S
C154 C153 1.387 . S
C154 C155 1.369 . S
C154 H163 0.929 . S
C155 N152 1.346 . S
C155 C154 1.369 . S
C155 H158 0.928 . S
C156 N152 1.345 . S
C156 C157 1.371 . S
C156 H159 0.931 . S
C157 C153 1.391 . S
C157 C156 1.371 . S
C157 H164 0.930 . S
H158 C155 0.928 . S
H159 C156 0.931 . S
H160 C136 0.930 . S
H161 C133 0.930 . S
H162 C142 0.930 . S
H163 C154 0.929 . S
H164 C157 0.930 . S
C165 C166 1.351 . S
C165 N168 1.368 . S
C165 H170 0.931 . S
C166 C165 1.351 . S
C166 N167 1.373 . S
C166 H194 0.930 . S
N167 C166 1.373 . S
N167 C169 1.340 . S
N168 C165 1.368 . S
N168 C169 1.321 . S
N168 Co171 2.135 . S
C169 N167 1.340 . S
C169 N168 1.321 . S
C169 H193 0.930 . S
H170 C165 0.931 . S
Co171 N168 2.135 . S
Co171 N174 2.121 . S
Co171 O179 2.055 . S
Co171 O182 2.039 . S
Co171 N185 2.140 . S
C172 O173 1.227 . S
C172 O182 1.265 . S
O173 C172 1.227 . S
N174 Co171 2.121 . S
N174 C176 1.375 . S
N174 C177 1.313 . S
C175 C176 1.338 . S
C175 N178 1.377 . S
C175 H195 0.930 . S
C176 N174 1.375 . S
C176 C175 1.338 . S
C176 H180 0.931 . S
C177 N174 1.313 . S
C177 N178 1.344 . S
C177 H181 0.930 . S
N178 C175 1.377 . S
N178 C177 1.344 . S
O179 Co171 2.055 . S
O179 C183 1.253 . S
H180 C176 0.931 . S
H181 C177 0.930 . S
O182 Co171 2.039 . S
O182 C172 1.265 . S
C183 O179 1.253 . S
C183 O184 1.227 . S
O184 C183 1.227 . S
N185 Co171 2.140 . S
N185 C188 1.346 . S
N185 C189 1.345 . S
C186 C187 1.387 . S
C186 C190 1.391 . S
C187 C186 1.387 . S
C187 C188 1.369 . S
C187 H196 0.929 . S
C188 N185 1.346 . S
C188 C187 1.369 . S
C188 H191 0.928 . S
C189 N185 1.345 . S
C189 C190 1.371 . S
C189 H192 0.931 . S
C190 C186 1.391 . S
C190 C189 1.371 . S
C190 H197 0.930 . S
H191 C188 0.928 . S
H192 C189 0.931 . S
H193 C169 0.930 . S
H194 C166 0.930 . S
H195 C175 0.930 . S
H196 C187 0.929 . S
H197 C190 0.930 . S
C198 C199 1.351 . S
C198 N201 1.368 . S
C198 H203 0.931 . S
C199 C198 1.351 . S
C199 N200 1.373 . S
C199 H227 0.930 . S
N200 C199 1.373 . S
N200 C202 1.340 . S
N201 C198 1.368 . S
N201 C202 1.321 . S
N201 Co204 2.135 . S
C202 N200 1.340 . S
C202 N201 1.321 . S
C202 H226 0.930 . S
H203 C198 0.931 . S
Co204 N201 2.135 . S
Co204 N207 2.121 . S
Co204 O212 2.055 . S
Co204 O215 2.039 . S
Co204 N218 2.140 . S
C205 O206 1.227 . S
C205 O215 1.265 . S
O206 C205 1.227 . S
N207 Co204 2.121 . S
N207 C209 1.375 . S
N207 C210 1.313 . S
C208 C209 1.338 . S
C208 N211 1.377 . S
C208 H228 0.930 . S
C209 N207 1.375 . S
C209 C208 1.338 . S
C209 H213 0.931 . S
C210 N207 1.313 . S
C210 N211 1.344 . S
C210 H214 0.930 . S
N211 C208 1.377 . S
N211 C210 1.344 . S
O212 Co204 2.055 . S
O212 C216 1.253 . S
H213 C209 0.931 . S
H214 C210 0.930 . S
O215 Co204 2.039 . S
O215 C205 1.265 . S
C216 O212 1.253 . S
C216 O217 1.227 . S
O217 C216 1.227 . S
N218 Co204 2.140 . S
N218 C221 1.346 . S
N218 C222 1.345 . S
C219 C220 1.387 . S
C219 C223 1.391 . S
C220 C219 1.387 . S
C220 C221 1.369 . S
C220 H229 0.929 . S
C221 N218 1.346 . S
C221 C220 1.369 . S
C221 H224 0.928 . S
C222 N218 1.345 . S
C222 C223 1.371 . S
C222 H225 0.931 . S
C223 C219 1.391 . S
C223 C222 1.371 . S
C223 H230 0.930 . S
H224 C221 0.928 . S
H225 C222 0.931 . S
H226 C202 0.930 . S
H227 C199 0.930 . S
H228 C208 0.930 . S
H229 C220 0.929 . S
H230 C223 0.930 . S
C231 C232 1.351 . S
C231 N234 1.368 . S
C231 H236 0.931 . S
C232 C231 1.351 . S
C232 N233 1.373 . S
C232 H260 0.930 . S
N233 C232 1.373 . S
N233 C235 1.340 . S
N234 C231 1.368 . S
N234 C235 1.321 . S
N234 Co237 2.135 . S
C235 N233 1.340 . S
C235 N234 1.321 . S
C235 H259 0.930 . S
H236 C231 0.931 . S
Co237 N234 2.135 . S
Co237 N240 2.121 . S
Co237 O245 2.055 . S
Co237 O248 2.039 . S
Co237 N251 2.140 . S
C238 O239 1.227 . S
C238 O248 1.265 . S
O239 C238 1.227 . S
N240 Co237 2.121 . S
N240 C242 1.375 . S
N240 C243 1.313 . S
C241 C242 1.338 . S
C241 N244 1.377 . S
C241 H261 0.930 . S
C242 N240 1.375 . S
C242 C241 1.338 . S
C242 H246 0.931 . S
C243 N240 1.313 . S
C243 N244 1.344 . S
C243 H247 0.930 . S
N244 C241 1.377 . S
N244 C243 1.344 . S
O245 Co237 2.055 . S
O245 C249 1.253 . S
H246 C242 0.931 . S
H247 C243 0.930 . S
O248 Co237 2.039 . S
O248 C238 1.265 . S
C249 O245 1.253 . S
C249 O250 1.227 . S
O250 C249 1.227 . S
N251 Co237 2.140 . S
N251 C254 1.346 . S
N251 C255 1.345 . S
C252 C253 1.387 . S
C252 C256 1.391 . S
C253 C252 1.387 . S
C253 C254 1.369 . S
C253 H262 0.929 . S
C254 N251 1.346 . S
C254 C253 1.369 . S
C254 H257 0.928 . S
C255 N251 1.345 . S
C255 C256 1.371 . S
C255 H258 0.931 . S
C256 C252 1.391 . S
C256 C255 1.371 . S
C256 H263 0.930 . S
H257 C254 0.928 . S
H258 C255 0.931 . S
H259 C235 0.930 . S
H260 C232 0.930 . S
H261 C241 0.930 . S
H262 C253 0.929 . S
H263 C256 0.930 . S
C264 C265 1.351 . S
C264 N267 1.368 . S
C264 H269 0.931 . S
C265 C264 1.351 . S
C265 N266 1.373 . S
C265 H293 0.930 . S
N266 C265 1.373 . S
N266 C268 1.340 . S
N267 C264 1.368 . S
N267 C268 1.321 . S
N267 Co270 2.135 . S
C268 N266 1.340 . S
C268 N267 1.321 . S
C268 H292 0.930 . S
H269 C264 0.931 . S
Co270 N267 2.135 . S
Co270 N273 2.121 . S
Co270 O278 2.055 . S
Co270 O281 2.039 . S
Co270 N284 2.140 . S
C271 O272 1.227 . S
C271 O281 1.265 . S
O272 C271 1.227 . S
N273 Co270 2.121 . S
N273 C275 1.375 . S
N273 C276 1.313 . S
C274 C275 1.338 . S
C274 N277 1.377 . S
C274 H294 0.930 . S
C275 N273 1.375 . S
C275 C274 1.338 . S
C275 H279 0.931 . S
C276 N273 1.313 . S
C276 N277 1.344 . S
C276 H280 0.930 . S
N277 C274 1.377 . S
N277 C276 1.344 . S
O278 Co270 2.055 . S
O278 C282 1.253 . S
H279 C275 0.931 . S
H280 C276 0.930 . S
O281 Co270 2.039 . S
O281 C271 1.265 . S
C282 O278 1.253 . S
C282 O283 1.227 . S
O283 C282 1.227 . S
N284 Co270 2.140 . S
N284 C287 1.346 . S
N284 C288 1.345 . S
C285 C286 1.387 . S
C285 C289 1.391 . S
C286 C285 1.387 . S
C286 C287 1.369 . S
C286 H295 0.929 . S
C287 N284 1.346 . S
C287 C286 1.369 . S
C287 H290 0.928 . S
C288 N284 1.345 . S
C288 C289 1.371 . S
C288 H291 0.931 . S
C289 C285 1.391 . S
C289 C288 1.371 . S
C289 H296 0.930 . S
H290 C287 0.928 . S
H291 C288 0.931 . S
H292 C268 0.930 . S
H293 C265 0.930 . S
H294 C274 0.930 . S
H295 C286 0.929 . S
H296 C289 0.930 . S
C297 C298 1.351 . S
C297 N300 1.368 . S
C297 H302 0.931 . S
C298 C297 1.351 . S
C298 N299 1.373 . S
C298 H326 0.930 . S
N299 C298 1.373 . S
N299 C301 1.340 . S
N300 C297 1.368 . S
N300 C301 1.321 . S
N300 Co303 2.135 . S
C301 N299 1.340 . S
C301 N300 1.321 . S
C301 H325 0.930 . S
H302 C297 0.931 . S
Co303 N300 2.135 . S
Co303 N306 2.121 . S
Co303 O311 2.055 . S
Co303 O314 2.039 . S
Co303 N317 2.140 . S
C304 O305 1.227 . S
C304 O314 1.265 . S
O305 C304 1.227 . S
N306 Co303 2.121 . S
N306 C308 1.375 . S
N306 C309 1.313 . S
C307 C308 1.338 . S
C307 N310 1.377 . S
C307 H327 0.930 . S
C308 N306 1.375 . S
C308 C307 1.338 . S
C308 H312 0.931 . S
C309 N306 1.313 . S
C309 N310 1.344 . S
C309 H313 0.930 . S
N310 C307 1.377 . S
N310 C309 1.344 . S
O311 Co303 2.055 . S
O311 C315 1.253 . S
H312 C308 0.931 . S
H313 C309 0.930 . S
O314 Co303 2.039 . S
O314 C304 1.265 . S
C315 O311 1.253 . S
C315 O316 1.227 . S
O316 C315 1.227 . S
N317 Co303 2.140 . S
N317 C320 1.346 . S
N317 C321 1.345 . S
C318 C319 1.387 . S
C318 C322 1.391 . S
C319 C318 1.387 . S
C319 C320 1.369 . S
C319 H328 0.929 . S
C320 N317 1.346 . S
C320 C319 1.369 . S
C320 H323 0.928 . S
C321 N317 1.345 . S
C321 C322 1.371 . S
C321 H324 0.931 . S
C322 C318 1.391 . S
C322 C321 1.371 . S
C322 H329 0.930 . S
H323 C320 0.928 . S
H324 C321 0.931 . S
H325 C301 0.930 . S
H326 C298 0.930 . S
H327 C307 0.930 . S
H328 C319 0.929 . S
H329 C322 0.930 . S
C330 C331 1.351 . S
C330 N333 1.368 . S
C330 H335 0.931 . S
C331 C330 1.351 . S
C331 N332 1.373 . S
C331 H359 0.930 . S
N332 C331 1.373 . S
N332 C334 1.340 . S
N333 C330 1.368 . S
N333 C334 1.321 . S
N333 Co336 2.135 . S
C334 N332 1.340 . S
C334 N333 1.321 . S
C334 H358 0.930 . S
H335 C330 0.931 . S
Co336 N333 2.135 . S
Co336 N339 2.121 . S
Co336 O344 2.055 . S
Co336 O347 2.039 . S
Co336 N350 2.140 . S
C337 O338 1.227 . S
C337 O347 1.265 . S
O338 C337 1.227 . S
N339 Co336 2.121 . S
N339 C341 1.375 . S
N339 C342 1.313 . S
C340 C341 1.338 . S
C340 N343 1.377 . S
C340 H360 0.930 . S
C341 N339 1.375 . S
C341 C340 1.338 . S
C341 H345 0.931 . S
C342 N339 1.313 . S
C342 N343 1.344 . S
C342 H346 0.930 . S
N343 C340 1.377 . S
N343 C342 1.344 . S
O344 Co336 2.055 . S
O344 C348 1.253 . S
H345 C341 0.931 . S
H346 C342 0.930 . S
O347 Co336 2.039 . S
O347 C337 1.265 . S
C348 O344 1.253 . S
C348 O349 1.227 . S
O349 C348 1.227 . S
N350 Co336 2.140 . S
N350 C353 1.346 . S
N350 C354 1.345 . S
C351 C352 1.387 . S
C351 C355 1.391 . S
C352 C351 1.387 . S
C352 C353 1.369 . S
C352 H361 0.929 . S
C353 N350 1.346 . S
C353 C352 1.369 . S
C353 H356 0.928 . S
C354 N350 1.345 . S
C354 C355 1.371 . S
C354 H357 0.931 . S
C355 C351 1.391 . S
C355 C354 1.371 . S
C355 H362 0.930 . S
H356 C353 0.928 . S
H357 C354 0.931 . S
H358 C334 0.930 . S
H359 C331 0.930 . S
H360 C340 0.930 . S
H361 C352 0.929 . S
H362 C355 0.930 . S
C363 C364 1.351 . S
C363 N366 1.368 . S
C363 H368 0.931 . S
C364 C363 1.351 . S
C364 N365 1.373 . S
C364 H392 0.930 . S
N365 C364 1.373 . S
N365 C367 1.340 . S
N366 C363 1.368 . S
N366 C367 1.321 . S
N366 Co369 2.135 . S
C367 N365 1.340 . S
C367 N366 1.321 . S
C367 H391 0.930 . S
H368 C363 0.931 . S
Co369 N366 2.135 . S
Co369 N372 2.121 . S
Co369 O377 2.055 . S
Co369 O380 2.039 . S
Co369 N383 2.140 . S
C370 O371 1.227 . S
C370 O380 1.265 . S
O371 C370 1.227 . S
N372 Co369 2.121 . S
N372 C374 1.375 . S
N372 C375 1.313 . S
C373 C374 1.338 . S
C373 N376 1.377 . S
C373 H393 0.930 . S
C374 N372 1.375 . S
C374 C373 1.338 . S
C374 H378 0.931 . S
C375 N372 1.313 . S
C375 N376 1.344 . S
C375 H379 0.930 . S
N376 C373 1.377 . S
N376 C375 1.344 . S
O377 Co369 2.055 . S
O377 C381 1.253 . S
H378 C374 0.931 . S
H379 C375 0.930 . S
O380 Co369 2.039 . S
O380 C370 1.265 . S
C381 O377 1.253 . S
C381 O382 1.227 . S
O382 C381 1.227 . S
N383 Co369 2.140 . S
N383 C386 1.346 . S
N383 C387 1.345 . S
C384 C385 1.387 . S
C384 C388 1.391 . S
C385 C384 1.387 . S
C385 C386 1.369 . S
C385 H394 0.929 . S
C386 N383 1.346 . S
C386 C385 1.369 . S
C386 H389 0.928 . S
C387 N383 1.345 . S
C387 C388 1.371 . S
C387 H390 0.931 . S
C388 C384 1.391 . S
C388 C387 1.371 . S
C388 H395 0.930 . S
H389 C386 0.928 . S
H390 C387 0.931 . S
H391 C367 0.930 . S
H392 C364 0.930 . S
H393 C373 0.930 . S
H394 C385 0.929 . S
H395 C388 0.930 . S
C396 C397 1.369 . S
C396 C398 1.419 . S
C396 H400 0.930 . S
C397 C396 1.369 . S
C397 C406 1.429 . S
C398 C396 1.419 . S
C398 C399 1.363 . S
C398 H401 0.929 . S
C399 C398 1.363 . S
C399 C405 1.428 . S
H400 C396 0.930 . S
H401 C398 0.929 . S
S402 N403 1.613 . S
S402 N404 1.610 . S
N403 S402 1.613 . S
N403 C406 1.350 . S
N404 S402 1.610 . S
N404 C405 1.351 . S
C405 C399 1.428 . S
C405 N404 1.351 . S
C405 C406 1.434 . S
C406 C397 1.429 . S
C406 N403 1.350 . S
C406 C405 1.434 . S
C407 C408 1.369 1_455 S
C407 C409 1.419 . S
C407 H411 0.930 . S
C408 C407 1.369 1_655 S
C408 C417 1.429 . S
C409 C407 1.419 . S
C409 C410 1.363 . S
C409 H412 0.929 . S
C410 C409 1.363 . S
C410 C416 1.428 1_455 S
H411 C407 0.930 . S
H412 C409 0.929 . S
S413 N414 1.613 . S
S413 N415 1.610 . S
N414 S413 1.613 . S
N414 C417 1.350 . S
N415 S413 1.610 . S
N415 C416 1.351 . S
C416 C410 1.428 1_655 S
C416 N415 1.351 . S
C416 C417 1.434 . S
C417 C408 1.429 . S
C417 N414 1.350 . S
C417 C416 1.434 . S
C418 C419 1.369 1_565 S
C418 C420 1.419 . S
C418 H422 0.930 . S
C419 C418 1.369 1_545 S
C419 C428 1.429 . S
C420 C418 1.419 . S
C420 C421 1.363 . S
C420 H423 0.929 . S
C421 C420 1.363 . S
C421 C427 1.428 1_565 S
H422 C418 0.930 . S
H423 C420 0.929 . S
S424 N425 1.613 . S
S424 N426 1.610 . S
N425 S424 1.613 . S
N425 C428 1.350 . S
N426 S424 1.610 . S
N426 C427 1.351 . S
C427 C421 1.428 1_545 S
C427 N426 1.351 . S
C427 C428 1.434 . S
C428 C419 1.429 . S
C428 N425 1.350 . S
C428 C427 1.434 . S
C429 C430 1.369 . S
C429 C431 1.419 . S
C429 H433 0.930 . S
C430 C429 1.369 . S
C430 C439 1.429 . S
C431 C429 1.419 . S
C431 C432 1.363 . S
C431 H434 0.929 . S
C432 C431 1.363 . S
C432 C438 1.428 . S
H433 C429 0.930 . S
H434 C431 0.929 . S
S435 N436 1.613 . S
S435 N437 1.610 . S
N436 S435 1.613 . S
N436 C439 1.350 . S
N437 S435 1.610 . S
N437 C438 1.351 . S
C438 C432 1.428 . S
C438 N437 1.351 . S
C438 C439 1.434 . S
C439 C430 1.429 . S
C439 N436 1.350 . S
C439 C438 1.434 . S
C440 C441 1.369 1_655 S
C440 C442 1.419 . S
C440 H444 0.930 . S
C441 C440 1.369 1_455 S
C441 C450 1.429 . S
C442 C440 1.419 . S
C442 C443 1.363 . S
C442 H445 0.929 . S
C443 C442 1.363 . S
C443 C449 1.428 1_655 S
H444 C440 0.930 . S
H445 C442 0.929 . S
S446 N447 1.613 . S
S446 N448 1.610 . S
N447 S446 1.613 . S
N447 C450 1.350 . S
N448 S446 1.610 . S
N448 C449 1.351 . S
C449 C443 1.428 1_455 S
C449 N448 1.351 . S
C449 C450 1.434 . S
C450 C441 1.429 . S
C450 N447 1.350 . S
C450 C449 1.434 . S
C451 C452 1.369 1_545 S
C451 C453 1.419 . S
C451 H455 0.930 . S
C452 C451 1.369 1_565 S
C452 C461 1.429 . S
C453 C451 1.419 . S
C453 C454 1.363 . S
C453 H456 0.929 . S
C454 C453 1.363 . S
C454 C460 1.428 1_545 S
H455 C451 0.930 . S
H456 C453 0.929 . S
S457 N458 1.613 . S
S457 N459 1.610 . S
N458 S457 1.613 . S
N458 C461 1.350 . S
N459 S457 1.610 . S
N459 C460 1.351 . S
C460 C454 1.428 1_565 S
C460 N459 1.351 . S
C460 C461 1.434 . S
C461 C452 1.429 . S
C461 N458 1.350 . S
C461 C460 1.434 . S
C462 C463 1.369 . S
C462 C464 1.419 1_554 S
C462 H466 0.930 . S
C463 C462 1.369 . S
C463 C472 1.429 . S
C464 C462 1.419 1_556 S
C464 C465 1.363 . S
C464 H467 0.929 . S
C465 C464 1.363 . S
C465 C471 1.428 . S
H466 C462 0.930 . S
H467 C464 0.929 . S
S468 N469 1.613 . S
S468 N470 1.610 1_554 S
N469 S468 1.613 . S
N469 C472 1.350 . S
N470 S468 1.610 1_556 S
N470 C471 1.351 . S
C471 C465 1.428 . S
C471 N470 1.351 . S
C471 C472 1.434 1_556 S
C472 C463 1.429 . S
C472 N469 1.350 . S
C472 C471 1.434 1_554 S
C473 C474 1.369 . S
C473 C475 1.419 . S
C473 H477 0.930 . S
C474 C473 1.369 . S
C474 C483 1.429 . S
C475 C473 1.419 . S
C475 C476 1.363 . S
C475 H478 0.929 . S
C476 C475 1.363 . S
C476 C482 1.428 . S
H477 C473 0.930 . S
H478 C475 0.929 . S
S479 N480 1.613 1_455 S
S479 N481 1.610 1_455 S
N480 S479 1.613 1_655 S
N480 C483 1.350 . S
N481 S479 1.610 1_655 S
N481 C482 1.351 . S
C482 C476 1.428 . S
C482 N481 1.351 . S
C482 C483 1.434 . S
C483 C474 1.429 . S
C483 N480 1.350 . S
C483 C482 1.434 . S
C484 C485 1.369 . S
C484 C486 1.419 . S
C484 H488 0.930 . S
C485 C484 1.369 . S
C485 C494 1.429 . S
C486 C484 1.419 . S
C486 C487 1.363 . S
C486 H489 0.929 . S
C487 C486 1.363 . S
C487 C493 1.428 . S
H488 C484 0.930 . S
H489 C486 0.929 . S
S490 N491 1.613 1_545 S
S490 N492 1.610 1_545 S
N491 S490 1.613 1_565 S
N491 C494 1.350 . S
N492 S490 1.610 1_565 S
N492 C493 1.351 . S
C493 C487 1.428 . S
C493 N492 1.351 . S
C493 C494 1.434 . S
C494 C485 1.429 . S
C494 N491 1.350 . S
C494 C493 1.434 . S
C495 C496 1.369 . S
C495 C497 1.419 1_554 S
C495 H499 0.930 . S
C496 C495 1.369 . S
C496 C505 1.429 . S
C497 C495 1.419 1_556 S
C497 C498 1.363 . S
C497 H500 0.929 . S
C498 C497 1.363 . S
C498 C504 1.428 . S
H499 C495 0.930 . S
H500 C497 0.929 . S
S501 N502 1.613 1_556 S
S501 N503 1.610 . S
N502 S501 1.613 1_554 S
N502 C505 1.350 . S
N503 S501 1.610 . S
N503 C504 1.351 . S
C504 C498 1.428 . S
C504 N503 1.351 . S
C504 C505 1.434 1_556 S
C505 C496 1.429 . S
C505 N502 1.350 . S
C505 C504 1.434 1_554 S
C506 C507 1.369 . S
C506 C508 1.419 . S
C506 H510 0.930 . S
C507 C506 1.369 . S
C507 C516 1.429 . S
C508 C506 1.419 . S
C508 C509 1.363 . S
C508 H511 0.929 . S
C509 C508 1.363 . S
C509 C515 1.428 . S
H510 C506 0.930 . S
H511 C508 0.929 . S
S512 N513 1.613 . S
S512 N514 1.610 . S
N513 S512 1.613 . S
N513 C516 1.350 . S
N514 S512 1.610 . S
N514 C515 1.351 . S
C515 C509 1.428 . S
C515 N514 1.351 . S
C515 C516 1.434 . S
C516 C507 1.429 . S
C516 N513 1.350 . S
C516 C515 1.434 . S
C517 C518 1.369 . S
C517 C519 1.419 . S
C517 H521 0.930 . S
C518 C517 1.369 . S
C518 C527 1.429 . S
C519 C517 1.419 . S
C519 C520 1.363 . S
C519 H522 0.929 . S
C520 C519 1.363 . S
C520 C526 1.428 . S
H521 C517 0.930 . S
H522 C519 0.929 . S
S523 N524 1.613 . S
S523 N525 1.610 . S
N524 S523 1.613 . S
N524 C527 1.350 . S
N525 S523 1.610 . S
N525 C526 1.351 . S
C526 C520 1.428 . S
C526 N525 1.351 . S
C526 C527 1.434 . S
C527 C518 1.429 . S
C527 N524 1.350 . S
C527 C526 1.434 . S
C528 C529 1.369 . S
C528 C530 1.419 . S
C528 H532 0.930 . S
C529 C528 1.369 . S
C529 C538 1.429 . S
C530 C528 1.419 . S
C530 C531 1.363 . S
C530 H533 0.929 . S
C531 C530 1.363 . S
C531 C537 1.428 . S
H532 C528 0.930 . S
H533 C530 0.929 . S
S534 N535 1.613 . S
S534 N536 1.610 . S
N535 S534 1.613 . S
N535 C538 1.350 . S
N536 S534 1.610 . S
N536 C537 1.351 . S
C537 C531 1.428 . S
C537 N536 1.351 . S
C537 C538 1.434 . S
C538 C529 1.429 . S
C538 N535 1.350 . S
C538 C537 1.434 . S
C539 C540 1.369 . S
C539 C541 1.419 1_655 S
C539 H543 0.930 . S
C540 C539 1.369 . S
C540 C549 1.429 . S
C541 C539 1.419 1_455 S
C541 C542 1.363 . S
C541 H544 0.929 . S
C542 C541 1.363 . S
C542 C548 1.428 . S
H543 C539 0.930 . S
H544 C541 0.929 . S
S545 N546 1.613 . S
S545 N547 1.610 1_655 S
N546 S545 1.613 . S
N546 C549 1.350 . S
N547 S545 1.610 1_455 S
N547 C548 1.351 . S
C548 C542 1.428 . S
C548 N547 1.351 . S
C548 C549 1.434 1_455 S
C549 C540 1.429 . S
C549 N546 1.350 . S
C549 C548 1.434 1_655 S
C550 C551 1.369 . S
C550 C552 1.419 1_566 S
C550 H554 0.930 . S
C551 C550 1.369 . S
C551 C560 1.429 . S
C552 C550 1.419 1_544 S
C552 C553 1.363 . S
C552 H555 0.929 . S
C553 C552 1.363 . S
C553 C559 1.428 . S
H554 C550 0.930 . S
H555 C552 0.929 . S
S556 N557 1.613 1_545 S
S556 N558 1.610 1_556 S
N557 S556 1.613 1_565 S
N557 C560 1.350 . S
N558 S556 1.610 1_554 S
N558 C559 1.351 . S
C559 C553 1.428 . S
C559 N558 1.351 . S
C559 C560 1.434 1_544 S
C560 C551 1.429 . S
C560 N557 1.350 . S
C560 C559 1.434 1_566 S
C561 C562 1.369 . S
C561 C563 1.419 . S
C561 H565 0.930 . S
C562 C561 1.369 . S
C562 C571 1.429 . S
C563 C561 1.419 . S
C563 C564 1.363 . S
C563 H566 0.929 . S
C564 C563 1.363 . S
C564 C570 1.428 . S
H565 C561 0.930 . S
H566 C563 0.929 . S
S567 N568 1.613 . S
S567 N569 1.610 . S
N568 S567 1.613 . S
N568 C571 1.350 . S
N569 S567 1.610 . S
N569 C570 1.351 . S
C570 C564 1.428 . S
C570 N569 1.351 . S
C570 C571 1.434 . S
C571 C562 1.429 . S
C571 N568 1.350 . S
C571 C570 1.434 . S
C572 C573 1.369 . S
C572 C574 1.419 . S
C572 H576 0.930 . S
C573 C572 1.369 . S
C573 C582 1.429 1_655 S
C574 C572 1.419 . S
C574 C575 1.363 1_655 S
C574 H577 0.929 . S
C575 C574 1.363 1_455 S
C575 C581 1.428 . S
H576 C572 0.930 . S
H577 C574 0.929 . S
S578 N579 1.613 . S
S578 N580 1.610 . S
N579 S578 1.613 . S
N579 C582 1.350 . S
N580 S578 1.610 . S
N580 C581 1.351 . S
C581 C575 1.428 . S
C581 N580 1.351 . S
C581 C582 1.434 . S
C582 C573 1.429 1_455 S
C582 N579 1.350 . S
C582 C581 1.434 . S
C583 C584 1.369 1_556 S
C583 C585 1.419 . S
C583 H587 0.930 . S
C584 C583 1.369 1_554 S
C584 C593 1.429 1_565 S
C585 C583 1.419 . S
C585 C586 1.363 1_565 S
C585 H588 0.929 . S
C586 C585 1.363 1_545 S
C586 C592 1.428 1_556 S
H587 C583 0.930 . S
H588 C585 0.929 . S
S589 N590 1.613 . S
S589 N591 1.610 . S
N590 S589 1.613 . S
N590 C593 1.350 . S
N591 S589 1.610 . S
N591 C592 1.351 . S
C592 C586 1.428 1_554 S
C592 N591 1.351 . S
C592 C593 1.434 . S
C593 C584 1.429 1_545 S
C593 N590 1.350 . S
C593 C592 1.434 . S
C594 C595 1.369 . S
C594 C596 1.419 . S
C594 H598 0.930 . S
C595 C594 1.369 . S
C595 C604 1.429 . S
C596 C594 1.419 . S
C596 C597 1.363 . S
C596 H599 0.929 . S
C597 C596 1.363 . S
C597 C603 1.428 . S
H598 C594 0.930 . S
H599 C596 0.929 . S
S600 N601 1.613 . S
S600 N602 1.610 . S
N601 S600 1.613 . S
N601 C604 1.350 . S
N602 S600 1.610 . S
N602 C603 1.351 . S
C603 C597 1.428 . S
C603 N602 1.351 . S
C603 C604 1.434 . S
C604 C595 1.429 . S
C604 N601 1.350 . S
C604 C603 1.434 . S
C605 C606 1.369 . S
C605 C607 1.419 . S
C605 H609 0.930 . S
C606 C605 1.369 . S
C606 C615 1.429 . S
C607 C605 1.419 . S
C607 C608 1.363 . S
C607 H610 0.929 . S
C608 C607 1.363 . S
C608 C614 1.428 . S
H609 C605 0.930 . S
H610 C607 0.929 . S
S611 N612 1.613 . S
S611 N613 1.610 . S
N612 S611 1.613 . S
N612 C615 1.350 . S
N613 S611 1.610 . S
N613 C614 1.351 . S
C614 C608 1.428 . S
C614 N613 1.351 . S
C614 C615 1.434 . S
C615 C606 1.429 . S
C615 N612 1.350 . S
C615 C614 1.434 . S
C616 C617 1.369 . S
C616 C618 1.419 . S
C616 H620 0.930 . S
C617 C616 1.369 . S
C617 C626 1.429 1_556 S
C618 C616 1.419 . S
C618 C619 1.363 1_556 S
C618 H621 0.929 . S
C619 C618 1.363 1_554 S
C619 C625 1.428 . S
H620 C616 0.930 . S
H621 C618 0.929 . S
S622 N623 1.613 . S
S622 N624 1.610 . S
N623 S622 1.613 . S
N623 C626 1.350 . S
N624 S622 1.610 . S
N624 C625 1.351 . S
C625 C619 1.428 . S
C625 N624 1.351 . S
C625 C626 1.434 . S
C626 C617 1.429 1_554 S
C626 N623 1.350 . S
C626 C625 1.434 . S
C627 C628 1.369 . S
C627 C629 1.419 . S
C627 H631 0.930 . S
C628 C627 1.369 . S
C628 C637 1.429 . S
C629 C627 1.419 . S
C629 C630 1.363 . S
C629 H632 0.929 . S
C630 C629 1.363 . S
C630 C636 1.428 . S
H631 C627 0.930 . S
H632 C629 0.929 . S
S633 N634 1.613 . S
S633 N635 1.610 . S
N634 S633 1.613 . S
N634 C637 1.350 . S
N635 S633 1.610 . S
N635 C636 1.351 . S
C636 C630 1.428 . S
C636 N635 1.351 . S
C636 C637 1.434 . S
C637 C628 1.429 . S
C637 N634 1.350 . S
C637 C636 1.434 . S
C638 C639 1.369 . S
C638 C640 1.419 . S
C638 H642 0.930 . S
C639 C638 1.369 . S
C639 C648 1.429 . S
C640 C638 1.419 . S
C640 C641 1.363 . S
C640 H643 0.929 . S
C641 C640 1.363 . S
C641 C647 1.428 . S
H642 C638 0.930 . S
H643 C640 0.929 . S
S644 N645 1.613 . S
S644 N646 1.610 . S
N645 S644 1.613 . S
N645 C648 1.350 . S
N646 S644 1.610 . S
N646 C647 1.351 . S
C647 C641 1.428 . S
C647 N646 1.351 . S
C647 C648 1.434 . S
C648 C639 1.429 . S
C648 N645 1.350 . S
C648 C647 1.434 . S
C649 C650 1.369 . S
C649 C651 1.419 . S
C649 H653 0.930 . S
C650 C649 1.369 . S
C650 C659 1.429 1_554 S
C651 C649 1.419 . S
C651 C652 1.363 1_554 S
C651 H654 0.929 . S
C652 C651 1.363 1_556 S
C652 C658 1.428 . S
H653 C649 0.930 . S
H654 C651 0.929 . S
S655 N656 1.613 . S
S655 N657 1.610 . S
N656 S655 1.613 . S
N656 C659 1.350 . S
N657 S655 1.610 . S
N657 C658 1.351 . S
C658 C652 1.428 . S
C658 N657 1.351 . S
C658 C659 1.434 . S
C659 C650 1.429 1_556 S
C659 N656 1.350 . S
C659 C658 1.434 . S
C660 C661 1.369 . S
C660 C662 1.419 . S
C660 H664 0.930 . S
C661 C660 1.369 . S
C661 C670 1.429 . S
C662 C660 1.419 . S
C662 C663 1.363 . S
C662 H665 0.929 . S
C663 C662 1.363 . S
C663 C669 1.428 . S
H664 C660 0.930 . S
H665 C662 0.929 . S
S666 N667 1.613 . S
S666 N668 1.610 . S
N667 S666 1.613 . S
N667 C670 1.350 . S
N668 S666 1.610 . S
N668 C669 1.351 . S
C669 C663 1.428 . S
C669 N668 1.351 . S
C669 C670 1.434 . S
C670 C661 1.429 . S
C670 N667 1.350 . S
C670 C669 1.434 . S
C671 C672 1.369 . S
C671 C673 1.419 . S
C671 H675 0.930 . S
C672 C671 1.369 . S
C672 C681 1.429 . S
C673 C671 1.419 . S
C673 C674 1.363 . S
C673 H676 0.929 . S
C674 C673 1.363 . S
C674 C680 1.428 . S
H675 C671 0.930 . S
H676 C673 0.929 . S
S677 N678 1.613 . S
S677 N679 1.610 . S
N678 S677 1.613 . S
N678 C681 1.350 . S
N679 S677 1.610 . S
N679 C680 1.351 . S
C680 C674 1.428 . S
C680 N679 1.351 . S
C680 C681 1.434 . S
C681 C672 1.429 . S
C681 N678 1.350 . S
C681 C680 1.434 . S
C682 C683 1.369 . S
C682 C684 1.419 . S
C682 H686 0.930 . S
C683 C682 1.369 . S
C683 C692 1.429 . S
C684 C682 1.419 . S
C684 C685 1.363 . S
C684 H687 0.929 . S
C685 C684 1.363 . S
C685 C691 1.428 . S
H686 C682 0.930 . S
H687 C684 0.929 . S
S688 N689 1.613 . S
S688 N690 1.610 . S
N689 S688 1.613 . S
N689 C692 1.350 . S
N690 S688 1.610 . S
N690 C691 1.351 . S
C691 C685 1.428 . S
C691 N690 1.351 . S
C691 C692 1.434 . S
C692 C683 1.429 . S
C692 N689 1.350 . S
C692 C691 1.434 . S
C693 C694 1.369 . S
C693 C695 1.419 . S
C693 H697 0.930 . S
C694 C693 1.369 . S
C694 C703 1.429 . S
C695 C693 1.419 . S
C695 C696 1.363 . S
C695 H698 0.929 . S
C696 C695 1.363 . S
C696 C702 1.428 . S
H697 C693 0.930 . S
H698 C695 0.929 . S
S699 N700 1.621 . S
S699 N701 1.612 . S
N700 S699 1.621 . S
N700 C703 1.350 . S
N701 S699 1.612 . S
N701 C702 1.351 . S
C702 C696 1.428 . S
C702 N701 1.351 . S
C702 C703 1.434 . S
C703 C694 1.429 . S
C703 N700 1.350 . S
C703 C702 1.434 . S
C704 C705 1.369 . S
C704 C706 1.419 . S
C704 H708 0.930 . S
C705 C704 1.369 . S
C705 C714 1.429 . S
C706 C704 1.419 . S
C706 C707 1.363 . S
C706 H709 0.929 . S
C707 C706 1.363 . S
C707 C713 1.428 . S
H708 C704 0.930 . S
H709 C706 0.929 . S
S710 N711 1.613 . S
S710 N712 1.610 . S
N711 S710 1.613 . S
N711 C714 1.350 . S
N712 S710 1.610 . S
N712 C713 1.351 . S
C713 C707 1.428 . S
C713 N712 1.351 . S
C713 C714 1.434 . S
C714 C705 1.429 . S
C714 N711 1.350 . S
C714 C713 1.434 . S
C715 C716 1.369 . S
C715 C717 1.419 . S
C715 H719 0.930 . S
C716 C715 1.369 . S
C716 C725 1.429 . S
C717 C715 1.419 . S
C717 C718 1.363 . S
C717 H720 0.929 . S
C718 C717 1.363 . S
C718 C724 1.428 . S
H719 C715 0.930 . S
H720 C717 0.929 . S
S721 N722 1.613 . S
S721 N723 1.610 . S
N722 S721 1.613 . S
N722 C725 1.350 . S
N723 S721 1.610 . S
N723 C724 1.351 . S
C724 C718 1.428 . S
C724 N723 1.351 . S
C724 C725 1.434 . S
C725 C716 1.429 . S
C725 N722 1.350 . S
C725 C724 1.434 . S
C397 C120 0.644 . S
C399 C21 0.626 . S
C408 C54 0.617 . S
C410 C153 0.639 . S
C419 C186 0.625 . S
C421 C87 0.641 . S
C430 C219 0.631 . S
C432 C318 0.639 . S
C441 C351 0.631 . S
C443 C252 0.639 . S
C452 C285 0.622 . S
C454 C384 0.641 . S
C463 N13 2.146 . S
C465 N343 2.149 . S
C474 N376 2.151 . S
C476 N46 2.146 . S
C485 N79 2.145 . S
C487 N211 2.151 . S
C496 N112 2.148 . S
C498 N244 2.148 . S
C507 N145 2.144 . S
C509 N277 2.151 . S
C518 N178 2.149 . S
C520 N310 2.147 . S
C529 C304 2.053 . S
C531 C7 2.053 . S
C540 C40 2.052 . S
C542 C337 2.053 . S
C551 C73 2.063 . S
C553 C370 2.061 . S
C562 C205 2.052 . S
C564 C106 2.053 . S
C573 C238 2.059 . S
C575 C139 2.060 . S
C584 C271 2.056 . S
C586 C172 2.058 . S
C595 N2 1.467 . S
C597 N200 1.462 . S
C606 N35 1.465 . S
C608 N233 1.472 . S
C617 N266 1.459 1_556 S
C619 N68 1.473 1_554 S
C628 N101 1.458 . S
C630 N299 1.473 . S
C639 N332 1.464 . S
C641 N134 1.463 . S
C650 N167 1.466 1_554 S
C652 N365 1.471 1_556 S
C661 C282 1.488 . S
C663 C18 1.489 . S
C672 C315 1.486 . S
C674 C51 1.485 . S
C683 C348 1.485 . S
C685 C84 1.487 . S
C694 C117 1.491 . S
C696 C381 1.490 . S
C705 C216 1.491 . S
C707 C150 1.490 . S
C716 C249 1.490 . S
C718 C183 1.490 . S
