# Generated by pormake.
# Topology ukj, (4)-cn, num edge types: 1
# Building blocks:
#     Node 0, Type 0, BuildingBlock: NAWXER_clean_sbu_0, # of connection points: 4
#     Node 1, Type 0, BuildingBlock: NAWXER_clean_sbu_0, # of connection points: 4
#     Node 2, Type 0, BuildingBlock: NAWXER_clean_sbu_0, # of connection points: 4
#     Node 3, Type 0, BuildingBlock: NAWXER_clean_sbu_0, # of connection points: 4
#     Node 4, Type 0, BuildingBlock: NAWXER_clean_sbu_0, # of connection points: 4
#     Node 5, Type 0, BuildingBlock: NAWXER_clean_sbu_0, # of connection points: 4
#     Node 6, Type 0, BuildingBlock: NAWXER_clean_sbu_0, # of connection points: 4
#     Node 7, Type 0, BuildingBlock: NAWXER_clean_sbu_0, # of connection points: 4
#     Node 8, Type 0, BuildingBlock: NAWXER_clean_sbu_0, # of connection points: 4
#     Node 9, Type 0, BuildingBlock: NAWXER_clean_sbu_0, # of connection points: 4
#     Node 10, Type 0, BuildingBlock: NAWXER_clean_sbu_0, # of connection points: 4
#     Node 11, Type 0, BuildingBlock: NAWXER_clean_sbu_0, # of connection points: 4
#     Node 12, Type 0, BuildingBlock: NAWXER_clean_sbu_0, # of connection points: 4
#     Node 13, Type 0, BuildingBlock: NAWXER_clean_sbu_0, # of connection points: 4
#     Node 14, Type 0, BuildingBlock: NAWXER_clean_sbu_0, # of connection points: 4
#     Node 15, Type 0, BuildingBlock: NAWXER_clean_sbu_0, # of connection points: 4
#     Node 16, Type 0, BuildingBlock: NAWXER_clean_sbu_0, # of connection points: 4
#     Node 17, Type 0, BuildingBlock: NAWXER_clean_sbu_0, # of connection points: 4
#     Node 18, Type 0, BuildingBlock: NAWXER_clean_sbu_0, # of connection points: 4
#     Node 19, Type 0, BuildingBlock: NAWXER_clean_sbu_0, # of connection points: 4
#     Node 20, Type 0, BuildingBlock: NAWXER_clean_sbu_0, # of connection points: 4
#     Node 21, Type 0, BuildingBlock: NAWXER_clean_sbu_0, # of connection points: 4
#     Node 22, Type 0, BuildingBlock: NAWXER_clean_sbu_0, # of connection points: 4
#     Node 23, Type 0, BuildingBlock: NAWXER_clean_sbu_0, # of connection points: 4
#     Node 24, Type 0, BuildingBlock: NAWXER_clean_sbu_0, # of connection points: 4
#     Node 25, Type 0, BuildingBlock: NAWXER_clean_sbu_0, # of connection points: 4
#     Node 26, Type 0, BuildingBlock: NAWXER_clean_sbu_0, # of connection points: 4
#     Node 27, Type 0, BuildingBlock: NAWXER_clean_sbu_0, # of connection points: 4
#     Node 28, Type 0, BuildingBlock: NAWXER_clean_sbu_0, # of connection points: 4
#     Node 29, Type 0, BuildingBlock: NAWXER_clean_sbu_0, # of connection points: 4
#     Node 30, Type 0, BuildingBlock: NAWXER_clean_sbu_0, # of connection points: 4
#     Node 31, Type 0, BuildingBlock: NAWXER_clean_sbu_0, # of connection points: 4
#     Edge 32, Type (0, 0), BuildingBlock: CIFDUS_clean_linker_0, # of connection points: 2
#     Edge 33, Type (0, 0), BuildingBlock: CIFDUS_clean_linker_0, # of connection points: 2
#     Edge 34, Type (0, 0), BuildingBlock: CIFDUS_clean_linker_0, # of connection points: 2
#     Edge 35, Type (0, 0), BuildingBlock: CIFDUS_clean_linker_0, # of connection points: 2
#     Edge 36, Type (0, 0), BuildingBlock: CIFDUS_clean_linker_0, # of connection points: 2
#     Edge 37, Type (0, 0), BuildingBlock: CIFDUS_clean_linker_0, # of connection points: 2
#     Edge 38, Type (0, 0), BuildingBlock: CIFDUS_clean_linker_0, # of connection points: 2
#     Edge 39, Type (0, 0), BuildingBlock: CIFDUS_clean_linker_0, # of connection points: 2
#     Edge 40, Type (0, 0), BuildingBlock: CIFDUS_clean_linker_0, # of connection points: 2
#     Edge 41, Type (0, 0), BuildingBlock: CIFDUS_clean_linker_0, # of connection points: 2
#     Edge 42, Type (0, 0), BuildingBlock: CIFDUS_clean_linker_0, # of connection points: 2
#     Edge 43, Type (0, 0), BuildingBlock: CIFDUS_clean_linker_0, # of connection points: 2
#     Edge 44, Type (0, 0), BuildingBlock: CIFDUS_clean_linker_0, # of connection points: 2
#     Edge 45, Type (0, 0), BuildingBlock: CIFDUS_clean_linker_0, # of connection points: 2
#     Edge 46, Type (0, 0), BuildingBlock: CIFDUS_clean_linker_0, # of connection points: 2
#     Edge 47, Type (0, 0), BuildingBlock: CIFDUS_clean_linker_0, # of connection points: 2
#     Edge 48, Type (0, 0), BuildingBlock: CIFDUS_clean_linker_0, # of connection points: 2
#     Edge 49, Type (0, 0), BuildingBlock: CIFDUS_clean_linker_0, # of connection points: 2
#     Edge 50, Type (0, 0), BuildingBlock: CIFDUS_clean_linker_0, # of connection points: 2
#     Edge 51, Type (0, 0), BuildingBlock: CIFDUS_clean_linker_0, # of connection points: 2
#     Edge 52, Type (0, 0), BuildingBlock: CIFDUS_clean_linker_0, # of connection points: 2
#     Edge 53, Type (0, 0), BuildingBlock: CIFDUS_clean_linker_0, # of connection points: 2
#     Edge 54, Type (0, 0), BuildingBlock: CIFDUS_clean_linker_0, # of connection points: 2
#     Edge 55, Type (0, 0), BuildingBlock: CIFDUS_clean_linker_0, # of connection points: 2
#     Edge 56, Type (0, 0), BuildingBlock: CIFDUS_clean_linker_0, # of connection points: 2
#     Edge 57, Type (0, 0), BuildingBlock: CIFDUS_clean_linker_0, # of connection points: 2
#     Edge 58, Type (0, 0), BuildingBlock: CIFDUS_clean_linker_0, # of connection points: 2
#     Edge 59, Type (0, 0), BuildingBlock: CIFDUS_clean_linker_0, # of connection points: 2
#     Edge 60, Type (0, 0), BuildingBlock: CIFDUS_clean_linker_0, # of connection points: 2
#     Edge 61, Type (0, 0), BuildingBlock: CIFDUS_clean_linker_0, # of connection points: 2
#     Edge 62, Type (0, 0), BuildingBlock: CIFDUS_clean_linker_0, # of connection points: 2
#     Edge 63, Type (0, 0), BuildingBlock: CIFDUS_clean_linker_0, # of connection points: 2
#     Edge 64, Type (0, 0), BuildingBlock: CIFDUS_clean_linker_0, # of connection points: 2
#     Edge 65, Type (0, 0), BuildingBlock: CIFDUS_clean_linker_0, # of connection points: 2
#     Edge 66, Type (0, 0), BuildingBlock: CIFDUS_clean_linker_0, # of connection points: 2
#     Edge 67, Type (0, 0), BuildingBlock: CIFDUS_clean_linker_0, # of connection points: 2
#     Edge 68, Type (0, 0), BuildingBlock: CIFDUS_clean_linker_0, # of connection points: 2
#     Edge 69, Type (0, 0), BuildingBlock: CIFDUS_clean_linker_0, # of connection points: 2
#     Edge 70, Type (0, 0), BuildingBlock: CIFDUS_clean_linker_0, # of connection points: 2
#     Edge 71, Type (0, 0), BuildingBlock: CIFDUS_clean_linker_0, # of connection points: 2
#     Edge 72, Type (0, 0), BuildingBlock: CIFDUS_clean_linker_0, # of connection points: 2
#     Edge 73, Type (0, 0), BuildingBlock: CIFDUS_clean_linker_0, # of connection points: 2
#     Edge 74, Type (0, 0), BuildingBlock: CIFDUS_clean_linker_0, # of connection points: 2
#     Edge 75, Type (0, 0), BuildingBlock: CIFDUS_clean_linker_0, # of connection points: 2
#     Edge 76, Type (0, 0), BuildingBlock: CIFDUS_clean_linker_0, # of connection points: 2
#     Edge 77, Type (0, 0), BuildingBlock: CIFDUS_clean_linker_0, # of connection points: 2
#     Edge 78, Type (0, 0), BuildingBlock: CIFDUS_clean_linker_0, # of connection points: 2
#     Edge 79, Type (0, 0), BuildingBlock: CIFDUS_clean_linker_0, # of connection points: 2
#     Edge 80, Type (0, 0), BuildingBlock: CIFDUS_clean_linker_0, # of connection points: 2
#     Edge 81, Type (0, 0), BuildingBlock: CIFDUS_clean_linker_0, # of connection points: 2
#     Edge 82, Type (0, 0), BuildingBlock: CIFDUS_clean_linker_0, # of connection points: 2
#     Edge 83, Type (0, 0), BuildingBlock: CIFDUS_clean_linker_0, # of connection points: 2
#     Edge 84, Type (0, 0), BuildingBlock: CIFDUS_clean_linker_0, # of connection points: 2
#     Edge 85, Type (0, 0), BuildingBlock: CIFDUS_clean_linker_0, # of connection points: 2
#     Edge 86, Type (0, 0), BuildingBlock: CIFDUS_clean_linker_0, # of connection points: 2
#     Edge 87, Type (0, 0), BuildingBlock: CIFDUS_clean_linker_0, # of connection points: 2
#     Edge 88, Type (0, 0), BuildingBlock: CIFDUS_clean_linker_0, # of connection points: 2
#     Edge 89, Type (0, 0), BuildingBlock: CIFDUS_clean_linker_0, # of connection points: 2
#     Edge 90, Type (0, 0), BuildingBlock: CIFDUS_clean_linker_0, # of connection points: 2
#     Edge 91, Type (0, 0), BuildingBlock: CIFDUS_clean_linker_0, # of connection points: 2
#     Edge 92, Type (0, 0), BuildingBlock: CIFDUS_clean_linker_0, # of connection points: 2
#     Edge 93, Type (0, 0), BuildingBlock: CIFDUS_clean_linker_0, # of connection points: 2
#     Edge 94, Type (0, 0), BuildingBlock: CIFDUS_clean_linker_0, # of connection points: 2
#     Edge 95, Type (0, 0), BuildingBlock: CIFDUS_clean_linker_0, # of connection points: 2
# Relax obj value: 0.006
# Max RMSD: 0.183
# Mean RMSD: 0.183
data_MOF--net-ukj--node1-NAWXER_clean_sbu_0--edge1-CIFDUS_clean_linker_0
_symmetry_space_group_name_H-M    P1
_symmetry_Int_Tables_number       1
_symmetry_cell_setting            triclinic
loop_
_symmetry_equiv_pos_as_xyz
'x, y, z'
_cell_length_a     30.031483
_cell_length_b     47.60532
_cell_length_c     50.905326
_cell_angle_alpha  90.080385
_cell_angle_beta   89.985813
_cell_angle_gamma 90.057402
loop_
_atom_site_label
_atom_site_type_symbol
_atom_site_fract_x
_atom_site_fract_y
_atom_site_fract_z
_atom_type_partial_charge
C0 C 0.14116 0.37183 0.30248 0.0
C1 C 0.14184 0.37156 0.20703 0.0
O2 O 0.16037 0.34995 0.29309 0.0
Zn3 Zn 0.17677 0.33338 0.25499 0.0
O4 O 0.12584 0.39035 0.287 0.0
Zn5 Zn 0.14193 0.37204 0.25469 0.0
O6 O 0.10059 0.33465 0.25448 0.0
O7 O 0.14534 0.29792 0.25485 0.0
O8 O 0.12627 0.39033 0.22222 0.0
O9 O 0.16082 0.3498 0.21678 0.0
O10 O 0.24148 0.33331 0.25506 0.0
O11 O 0.21309 0.37594 0.2547 0.0
C12 C 0.10607 0.30788 0.25454 0.0
C13 C 0.24719 0.35977 0.25483 0.0
C14 C 0.10745 0.89692 0.30556 0.0
C15 C 0.11228 0.90404 0.2094 0.0
O16 O 0.09313 0.92048 0.29683 0.0
Zn17 Zn 0.08106 0.94013 0.25967 0.0
O18 O 0.11877 0.8778 0.28941 0.0
Zn19 Zn 0.10748 0.89887 0.2573 0.0
O20 O 0.15605 0.93269 0.26003 0.0
O21 O 0.11888 0.97264 0.26224 0.0
O22 O 0.12162 0.88246 0.22303 0.0
O23 O 0.09706 0.92604 0.22083 0.0
O24 O 0.01721 0.94545 0.25893 0.0
O25 O 0.03597 0.90083 0.2566 0.0
C26 C 0.15586 0.95964 0.2617 0.0
C27 C 1.00573 0.91982 0.25735 0.0
C28 C 0.16031 0.89729 0.95862 0.0
C29 C 0.15574 0.89145 0.05468 0.0
O30 O 0.17879 0.91847 0.96976 0.0
Zn31 Zn 0.19383 0.93185 0.00917 0.0
O32 O 0.14558 0.8773 0.97268 0.0
Zn33 Zn 0.16035 0.89326 0.00671 0.0
O34 O 0.1183 0.93081 0.00828 0.0
O35 O 0.16415 0.96704 0.01062 0.0
O36 O 0.14249 0.87313 0.03825 0.0
O37 O 0.17507 0.91376 0.04633 0.0
O38 O 0.25733 0.93326 0.01034 0.0
O39 O 0.23221 0.8899 0.00777 0.0
C40 C 0.12468 0.9575 0.00975 0.0
C41 C 0.26505 0.90711 0.0092 0.0
C42 C 0.14394 0.29281 1.0028 0.0
C43 C 1.00883 0.34989 1.00342 0.0
O44 O 0.15192 0.31932 1.00351 0.0
Zn45 Zn 0.1146 0.35823 1.0043 0.0
O46 O 0.10384 0.28413 1.00239 0.0
Zn47 Zn 0.07633 0.32058 1.00316 0.0
O48 O 0.09593 0.33651 0.96569 0.0
O49 O 0.13341 0.37591 0.97195 0.0
O50 O 0.01208 0.32329 1.00304 0.0
O51 O 0.0443 0.36484 1.00386 0.0
O52 O 0.13203 0.37444 0.03778 0.0
O53 O 0.09516 0.33444 0.04146 0.0
C54 C 0.11758 0.35748 0.95643 0.0
C55 C 0.11613 0.35497 0.05206 0.0
C56 C 0.87537 0.63715 0.80195 0.0
C57 C 0.87926 0.62482 0.70686 0.0
O58 O 0.88908 0.61574 0.78939 0.0
Zn59 Zn 0.87545 0.62974 0.75453 0.0
O60 O 0.85801 0.65773 0.78939 0.0
Zn61 Zn 0.84369 0.66914 0.7496 0.0
O62 O 0.77932 0.6709 0.74856 0.0
O63 O 0.80411 0.62771 0.7534 0.0
O64 O 0.86113 0.64806 0.71377 0.0
O65 O 0.892 0.60754 0.72431 0.0
O66 O 0.91934 0.66578 0.75151 0.0
O67 O 0.87729 0.70345 0.74667 0.0
C68 C 0.77143 0.64482 0.75106 0.0
C69 C 0.91575 0.69249 0.74873 0.0
C70 C 0.88041 0.0366 0.7564 0.0
C71 C 0.02077 0.08819 0.75474 0.0
O72 O 0.91989 0.02708 0.75717 0.0
Zn73 Zn 0.95 0.0625 0.75541 0.0
O74 O 0.87417 0.06327 0.75489 0.0
Zn75 Zn 0.91571 0.10077 0.75302 0.0
O76 O 0.89988 0.11667 0.71975 0.0
O77 O 0.93438 0.07599 0.71597 0.0
O78 O 0.98718 0.10476 0.75345 0.0
O79 O 0.01419 0.0619 0.75615 0.0
O80 O 0.9319 0.08119 0.79264 0.0
O81 O 0.8986 0.12143 0.78392 0.0
C82 C 0.9151 0.09715 0.70531 0.0
C83 C 0.9126 0.10371 0.80058 0.0
C84 C 0.86926 0.11523 0.05001 0.0
C85 C 0.87008 0.10055 0.95523 0.0
O86 O 0.88543 0.13134 0.03255 0.0
Zn87 Zn 0.8676 0.10926 1.00242 0.0
O88 O 0.84829 0.09292 0.04313 0.0
Zn89 Zn 0.82981 0.07203 0.00733 0.0
O90 O 0.85715 0.03591 0.01197 0.0
O91 O 0.90528 0.0707 0.00722 0.0
O92 O 0.849 0.08125 0.96764 0.0
O93 O 0.88553 0.12153 0.96774 0.0
O94 O 0.79708 0.11545 1.00171 0.0
O95 O 0.76561 0.07404 0.0069 0.0
C96 C 0.89723 0.04442 0.01055 0.0
C97 C 0.76188 0.10037 1.00364 0.0
C98 C 0.91618 0.63017 0.95677 0.0
C99 C 0.9213 0.63447 0.05226 0.0
O100 O 0.90895 0.61042 0.97296 0.0
Zn101 Zn 0.92034 0.63194 1.00446 0.0
O102 O 0.92822 0.65439 0.96529 0.0
Zn103 Zn 0.94125 0.67407 1.00257 0.0
O104 O 1.0034 0.68358 1.00109 0.0
O105 O 0.99146 0.63797 1.00317 0.0
O106 O 0.93244 0.65787 0.04166 0.0
O107 O 0.91205 0.61352 0.03777 0.0
O108 O 0.8673 0.66311 1.00414 0.0
O109 O 0.90028 0.70452 1.00212 0.0
C110 C 0.01863 0.65875 1.00192 0.0
C111 C 0.86478 0.69004 1.00317 0.0
C112 C 0.10978 0.80771 0.75408 0.0
C113 C 0.25288 0.85694 0.75357 0.0
O114 O 0.10571 0.83456 0.75501 0.0
Zn115 Zn 0.14845 0.87116 0.75572 0.0
O116 O 0.14847 0.79685 0.75361 0.0
Zn117 Zn 0.18155 0.83157 0.75431 0.0
O118 O 0.16726 0.84654 0.79307 0.0
O119 O 0.13514 0.88805 0.78974 0.0
O120 O 0.24615 0.83058 0.75321 0.0
O121 O 0.21947 0.87364 0.75445 0.0
O122 O 0.13168 0.89009 0.72316 0.0
O123 O 0.16368 0.8489 0.71694 0.0
C124 C 0.14981 0.86816 0.80398 0.0
C125 C 0.14498 0.87092 0.70758 0.0
C126 C 0.12295 0.39296 0.70846 0.0
C127 C 0.12615 0.39344 0.80411 0.0
O128 O 0.10548 0.41495 0.7187 0.0
Zn129 Zn 0.09048 0.43152 0.75665 0.0
O130 O 0.13669 0.37319 0.72314 0.0
Zn131 Zn 0.12299 0.39151 0.75624 0.0
O132 O 0.05224 0.38941 0.75731 0.0
O133 O 0.02552 0.43247 0.75732 0.0
O134 O 0.13925 0.37383 0.78898 0.0
O135 O 0.10784 0.4154 0.79441 0.0
O136 O 0.12487 0.46597 0.75586 0.0
O137 O 0.16623 0.42762 0.75528 0.0
C138 C 0.01882 0.40609 0.75764 0.0
C139 C 0.16315 0.4545 0.75511 0.0
C140 C 0.14871 0.36934 0.55422 0.0
C141 C 0.14623 0.36702 0.45877 0.0
O142 O 0.16546 0.39148 0.5438 0.0
Zn143 Zn 0.17931 0.40751 0.50527 0.0
O144 O 0.13504 0.34945 0.53962 0.0
Zn145 Zn 0.14855 0.36758 0.5066 0.0
O146 O 0.22026 0.36661 0.50628 0.0
O147 O 0.24366 0.41042 0.5048 0.0
O148 O 0.13355 0.34807 0.47464 0.0
O149 O 0.16342 0.38978 0.46767 0.0
O150 O 0.14484 0.44155 0.50525 0.0
O151 O 0.10328 0.40332 0.50668 0.0
C152 C 0.25244 0.38434 0.50562 0.0
C153 C 0.10648 0.43025 0.50622 0.0
C154 C 0.10657 0.85189 0.45692 0.0
C155 C 0.10893 0.84923 0.55318 0.0
O156 O 0.08951 0.82931 0.46625 0.0
Zn157 Zn 0.07538 0.81187 0.5042 0.0
O158 O 0.12026 0.87082 0.47261 0.0
Zn159 Zn 0.1062 0.85158 0.50522 0.0
O160 O 0.15134 0.81545 0.50456 0.0
O161 O 0.10861 0.77773 0.50317 0.0
O162 O 0.12117 0.86946 0.53859 0.0
O163 O 0.09178 0.82721 0.54272 0.0
O164 O 1.01155 0.80877 0.50484 0.0
O165 O 0.03415 0.85275 0.50567 0.0
C166 C 0.14729 0.78855 0.50384 0.0
C167 C 1.00229 0.83476 0.50551 0.0
C168 C 0.87833 0.12303 0.20633 0.0
C169 C 0.87829 0.12629 0.30175 0.0
O170 O 0.89284 0.10503 0.22256 0.0
Zn171 Zn 0.87816 0.12499 0.25411 0.0
O172 O 0.86065 0.14582 0.21484 0.0
Zn173 Zn 0.84616 0.16412 0.25277 0.0
O174 O 0.87917 0.19871 0.25196 0.0
O175 O 0.92233 0.16131 0.25336 0.0
O176 O 0.86072 0.14837 0.29167 0.0
O177 O 0.89279 0.107 0.2868 0.0
O178 O 0.80629 0.12299 0.25429 0.0
O179 O 0.78196 0.16657 0.25279 0.0
C180 C 0.91798 0.18816 0.2526 0.0
C181 C 0.77374 0.14041 0.25375 0.0
C182 C 0.92238 0.59844 0.20533 0.0
C183 C 0.91482 0.60466 0.30056 0.0
O184 O 0.90786 0.61843 0.21945 0.0
Zn185 Zn 0.91971 0.60161 0.25301 0.0
O186 O 0.93862 0.57651 0.21635 0.0
Zn187 Zn 0.94998 0.56216 0.25593 0.0
O188 O 0.9167 0.52809 0.25687 0.0
O189 O 0.87413 0.56567 0.25376 0.0
O190 O 0.93225 0.58148 0.29281 0.0
O191 O 0.90308 0.62287 0.28375 0.0
O192 O 0.99179 0.6026 0.25478 0.0
O193 O 0.01352 0.55859 0.25791 0.0
C194 C 0.87811 0.53881 0.25529 0.0
C195 C 0.02326 0.58448 0.25665 0.0
C196 C 0.9134 0.54649 0.5097 0.0
C197 C 0.77302 0.59987 0.50662 0.0
O198 O 0.87421 0.53646 0.51173 0.0
Zn199 Zn 0.8426 0.57197 0.50831 0.0
O200 O 0.9186 0.57306 0.50665 0.0
Zn201 Zn 0.87837 0.61041 0.50309 0.0
O202 O 0.89665 0.63221 0.53329 0.0
O203 O 0.8617 0.59295 0.54386 0.0
O204 O 0.80786 0.61519 0.50422 0.0
O205 O 0.77746 0.57345 0.50917 0.0
O206 O 0.85859 0.58237 0.46855 0.0
O207 O 0.89318 0.62333 0.468 0.0
C208 C 0.88189 0.61554 0.55075 0.0
C209 C 0.8778 0.60214 0.45576 0.0
C210 C 1.0079 0.15041 0.50547 0.0
C211 C 0.86366 0.19929 0.50896 0.0
O212 O 1.00133 0.17677 0.50675 0.0
Zn213 Zn 0.93626 0.17611 0.50713 0.0
O214 O 0.97433 0.13383 0.50472 0.0
Zn215 Zn 0.90353 0.13618 0.50509 0.0
O216 O 0.88787 0.12041 0.47105 0.0
O217 O 0.91892 0.16241 0.46855 0.0
O218 O 0.86041 0.17243 0.50753 0.0
O219 O 0.90209 0.21065 0.5093 0.0
O220 O 0.92072 0.15743 0.54415 0.0
O221 O 0.8893 0.11607 0.5372 0.0
C222 C 0.9008 0.14118 0.45732 0.0
C223 C 0.90316 0.13482 0.55305 0.0
C224 C 0.65128 0.37774 0.80349 0.0
C225 C 0.65681 0.36612 0.70857 0.0
O226 O 0.67177 0.3553 0.79659 0.0
Zn227 Zn 0.69153 0.33511 0.76077 0.0
O228 O 0.63694 0.39453 0.78606 0.0
Zn229 Zn 0.65586 0.37311 0.75589 0.0
O230 O 0.6158 0.3352 0.75859 0.0
O231 O 0.66178 0.29943 0.76368 0.0
O232 O 0.64105 0.38687 0.72125 0.0
O233 O 0.67605 0.34609 0.72096 0.0
O234 O 0.75589 0.33604 0.76188 0.0
O235 O 0.72681 0.37812 0.75692 0.0
C236 C 0.62225 0.30869 0.76142 0.0
C237 C 0.76115 0.36236 0.75927 0.0
C238 C 0.62203 0.88562 0.71129 0.0
C239 C 0.61276 0.89008 0.80688 0.0
O240 O 0.60155 0.90759 0.71948 0.0
Zn241 Zn 0.58098 0.92536 0.75649 0.0
O242 O 0.63594 0.86762 0.72775 0.0
Zn243 Zn 0.61641 0.88725 0.759 0.0
O244 O 0.54525 0.88257 0.75691 0.0
O245 O 0.51685 0.9251 0.75433 0.0
O246 O 0.62991 0.87096 0.7927 0.0
O247 O 0.59393 0.91119 0.79589 0.0
O248 O 0.6106 0.96109 0.75599 0.0
O249 O 0.6568 0.92516 0.75862 0.0
C250 C 0.51118 0.89868 0.75518 0.0
C251 C 0.65019 0.95181 0.75738 0.0
C252 C 0.65822 0.89507 0.55609 0.0
C253 C 0.65808 0.8826 0.46077 0.0
O254 O 0.67331 0.91645 0.54364 0.0
Zn255 Zn 0.68706 0.92852 0.50389 0.0
O256 O 0.64715 0.87311 0.54342 0.0
Zn257 Zn 0.65941 0.88789 0.50859 0.0
O258 O 0.73098 0.88911 0.50791 0.0
O259 O 0.75117 0.9333 0.50331 0.0
O260 O 0.64616 0.86493 0.47811 0.0
O261 O 0.67337 0.90658 0.46791 0.0
O262 O 0.64989 0.96121 0.50069 0.0
O263 O 0.61151 0.92199 0.50554 0.0
C264 C 0.76182 0.90763 0.50579 0.0
C265 C 0.61252 0.94882 0.50277 0.0
C266 C 0.62133 0.37428 0.5536 0.0
C267 C 0.61784 0.36803 0.45828 0.0
O268 O 0.60489 0.35103 0.54531 0.0
Zn269 Zn 0.58892 0.33154 0.50847 0.0
O270 O 0.63291 0.39305 0.53724 0.0
Zn271 Zn 0.61825 0.37197 0.50594 0.0
O272 O 0.54684 0.37197 0.50666 0.0
O273 O 0.52441 0.32804 0.50938 0.0
O274 O 0.6307 0.38862 0.47226 0.0
O275 O 0.60203 0.34599 0.46934 0.0
O276 O 0.62502 0.29809 0.5099 0.0
O277 O 0.66467 0.33706 0.50735 0.0
C278 C 0.51507 0.35403 0.50796 0.0
C279 C 0.66281 0.31014 0.50884 0.0
C280 C 0.36938 0.63732 0.30336 0.0
C281 C 0.36725 0.63471 0.20851 0.0
O282 O 0.38043 0.61742 0.28811 0.0
Zn283 Zn 0.36711 0.63639 0.25601 0.0
O284 O 0.35398 0.66029 0.29379 0.0
Zn285 Zn 0.33932 0.67676 0.25518 0.0
O286 O 0.27548 0.68179 0.2556 0.0
O287 O 0.29539 0.63732 0.25638 0.0
O288 O 0.3519 0.65813 0.21716 0.0
O289 O 0.37985 0.61602 0.2246 0.0
O290 O 0.41481 0.67096 0.25545 0.0
O291 O 0.37545 0.71004 0.25433 0.0
C292 C 0.26467 0.65602 0.25617 0.0
C293 C 0.41312 0.69794 0.2549 0.0
C294 C 0.36347 0.06533 0.25967 0.0
C295 C 0.51154 0.10876 0.2562 0.0
O296 O 0.40094 0.05288 0.26035 0.0
Zn297 Zn 0.43767 0.0862 0.2578 0.0
O298 O 0.36228 0.09222 0.25779 0.0
Zn299 Zn 0.40854 0.12691 0.25514 0.0
O300 O 0.39475 0.14255 0.22097 0.0
O301 O 0.42274 0.09976 0.21869 0.0
O302 O 0.47977 0.12668 0.25508 0.0
O303 O 0.50223 0.08277 0.25789 0.0
O304 O 0.42337 0.10631 0.29454 0.0
O305 O 0.39498 0.14823 0.28679 0.0
C306 C 0.40654 0.12145 0.20729 0.0
C307 C 0.40727 0.12954 0.30307 0.0
C308 C 0.37132 0.12197 0.55445 0.0
C309 C 0.37329 0.11804 0.45832 0.0
O310 O 0.38534 0.14097 0.53895 0.0
Zn311 Zn 0.37074 0.12197 0.50622 0.0
O312 O 0.35354 0.09964 0.54504 0.0
Zn313 Zn 0.33792 0.08198 0.50755 0.0
O314 O 0.37217 0.04733 0.5085 0.0
O315 O 0.4137 0.08563 0.5072 0.0
O316 O 0.3551 0.0967 0.46928 0.0
O317 O 0.38635 0.13859 0.47236 0.0
O318 O 0.29992 0.12433 0.50592 0.0
O319 O 0.27286 0.08137 0.50709 0.0
C320 C 0.41056 0.05873 0.50786 0.0
C321 C 0.26633 0.10775 0.5063 0.0
C322 C 0.40862 0.63923 0.55179 0.0
C323 C 0.41333 0.6496 0.45713 0.0
O324 O 0.39356 0.62242 0.53454 0.0
Zn325 Zn 0.41325 0.64315 0.50438 0.0
O326 O 0.42999 0.6613 0.54471 0.0
Zn327 Zn 0.4503 0.6809 0.50867 0.0
O328 O 0.42078 0.71706 0.51141 0.0
O329 O 0.3745 0.68132 0.5069 0.0
O330 O 0.43359 0.6696 0.46907 0.0
O331 O 0.39741 0.62919 0.47018 0.0
O332 O 0.4837 0.63707 0.50545 0.0
O333 O 0.51515 0.67861 0.50951 0.0
C334 C 0.38111 0.70784 0.50941 0.0
C335 C 0.51894 0.6521 0.50744 0.0
C336 C 0.65867 0.87332 0.30409 0.0
C337 C 0.65613 0.86818 0.2086 0.0
O338 O 0.6742 0.84978 0.29585 0.0
Zn339 Zn 0.68703 0.83052 0.25802 0.0
O340 O 0.64626 0.89166 0.28757 0.0
Zn341 Zn 0.65925 0.87081 0.25624 0.0
O342 O 0.61174 0.83612 0.25762 0.0
O343 O 0.65123 0.79711 0.25958 0.0
O344 O 0.64536 0.88864 0.22329 0.0
O345 O 0.67184 0.84568 0.21894 0.0
O346 O 0.75079 0.82569 0.25755 0.0
O347 O 0.73113 0.87016 0.25594 0.0
C348 C 0.61352 0.80915 0.25875 0.0
C349 C 0.76178 0.85141 0.2565 0.0
C350 C 0.60942 0.39785 0.30448 0.0
C351 C 0.6135 0.39084 0.20931 0.0
O352 O 0.59001 0.41868 0.29339 0.0
Zn353 Zn 0.57437 0.4318 0.25407 0.0
O354 O 0.62515 0.37807 0.29052 0.0
Zn355 Zn 0.60977 0.39352 0.25688 0.0
O356 O 0.65019 0.43132 0.25523 0.0
O357 O 0.6046 0.46754 0.25233 0.0
O358 O 0.62786 0.37314 0.22591 0.0
O359 O 0.59349 0.41308 0.21729 0.0
O360 O 0.50981 0.43114 0.25312 0.0
O361 O 0.53879 0.38882 0.25613 0.0
C362 C 0.64407 0.45797 0.25356 0.0
C363 C 0.50447 0.40472 0.25464 0.0
C364 C 0.6501 0.39792 0.05441 0.0
C365 C 0.64725 0.38589 0.95946 0.0
O366 O 0.66944 0.41798 0.04209 0.0
Zn367 Zn 0.68595 0.42902 1.00249 0.0
O368 O 0.63484 0.377 0.04173 0.0
Zn369 Zn 0.65015 0.39056 0.00708 0.0
O370 O 0.7205 0.38594 0.00639 0.0
O371 O 0.75076 0.42781 1.00189 0.0
O372 O 0.63236 0.36904 0.97672 0.0
O373 O 0.66731 0.40844 0.96658 0.0
O374 O 0.65505 0.46463 0.99931 0.0
O375 O 0.61038 0.42802 1.00371 0.0
C376 C 0.75523 0.40139 1.00432 0.0
C377 C 0.61583 0.45461 1.00098 0.0
C378 C 0.60905 0.84717 0.0553 0.0
C379 C 0.60458 0.85164 0.9594 0.0
O380 O 0.59317 0.82492 0.04459 0.0
Zn381 Zn 0.57686 0.80969 0.00614 0.0
O382 O 0.61892 0.86818 0.04103 0.0
Zn383 Zn 0.60415 0.85107 0.00744 0.0
O384 O 0.53323 0.84943 0.0083 0.0
O385 O 0.51262 0.80505 0.00684 0.0
O386 O 0.6158 0.87124 0.97506 0.0
O387 O 0.5898 0.82838 0.96861 0.0
O388 O 0.61457 0.77693 1.00431 0.0
O389 O 0.65152 0.81711 1.00527 0.0
C390 C 0.50228 0.83089 0.00793 0.0
C391 C 0.65143 0.79016 1.00423 0.0
C392 C 0.25079 0.17339 0.7539 0.0
C393 C 0.39141 0.22485 0.75492 0.0
O394 O 0.25736 0.19973 0.75361 0.0
Zn395 Zn 0.32156 0.19925 0.75398 0.0
O396 O 0.28438 0.15678 0.7543 0.0
Zn397 Zn 0.35579 0.16051 0.75475 0.0
O398 O 0.37123 0.14271 0.78788 0.0
O399 O 0.33818 0.18384 0.79239 0.0
O400 O 0.39738 0.19811 0.75522 0.0
O401 O 0.35204 0.23459 0.75404 0.0
O402 O 0.33947 0.18315 0.71607 0.0
O403 O 0.373 0.14248 0.72213 0.0
C404 C 0.35692 0.16228 0.80264 0.0
C405 C 0.35894 0.16141 0.70664 0.0
C406 C 0.40667 0.61951 0.80221 0.0
C407 C 0.40381 0.6321 0.70755 0.0
O408 O 0.39392 0.64117 0.78973 0.0
Zn409 Zn 0.40687 0.62705 0.75498 0.0
O410 O 0.42319 0.59862 0.78966 0.0
Zn411 Zn 0.43712 0.58698 0.75 0.0
O412 O 0.50169 0.58434 0.749 0.0
O413 O 0.47804 0.62781 0.75384 0.0
O414 O 0.42089 0.60858 0.71445 0.0
O415 O 0.3915 0.64964 0.72494 0.0
O416 O 0.36146 0.59197 0.75178 0.0
O417 O 0.40146 0.55341 0.74683 0.0
C418 C 0.51025 0.61036 0.75149 0.0
C419 C 0.3636 0.56521 0.7489 0.0
C420 C 0.37091 0.63096 0.05209 0.0
C421 C 0.37321 0.62933 0.95715 0.0
O422 O 0.38242 0.65004 0.03611 0.0
Zn423 Zn 0.37149 0.62944 1.00452 0.0
O424 O 0.35743 0.60715 0.04329 0.0
Zn425 Zn 0.34699 0.58858 1.00511 0.0
O426 O 0.38424 0.55664 0.00564 0.0
O427 O 0.42227 0.59626 1.00465 0.0
O428 O 0.35957 0.60584 0.96657 0.0
O429 O 0.38328 0.64928 0.97259 0.0
O430 O 0.29922 0.62584 1.00398 0.0
O431 O 0.2849 0.58046 1.00463 0.0
C432 C 0.42144 0.56923 1.005 0.0
C433 C 0.27094 0.60556 1.00407 0.0
C434 C 0.40336 0.1454 0.05223 0.0
C435 C 0.39758 0.14043 0.95625 0.0
O436 O 0.38648 0.12578 0.03846 0.0
Zn437 Zn 0.40208 0.14103 1.00426 0.0
O438 O 0.42363 0.16574 0.0409 0.0
Zn439 Zn 0.43971 0.17888 1.0019 0.0
O440 O 0.41153 0.21503 1.00091 0.0
O441 O 0.36398 0.17964 1.00331 0.0
O442 O 0.41891 0.16178 0.96506 0.0
O443 O 0.38267 0.12216 0.9722 0.0
O444 O 0.47265 0.13517 1.00331 0.0
O445 O 0.50392 0.17694 1.00063 0.0
C446 C 0.37159 0.20617 1.00202 0.0
C447 C 0.50777 0.15041 1.00192 0.0
H448 H 0.14398 0.32938 0.17185 0.0
H449 H 0.12928 0.41927 0.17776 0.0
H450 H 0.12246 0.42258 0.12985 0.0
H451 H 0.11951 0.39938 0.08615 0.0
H452 H 0.1291 0.30906 0.08184 0.0
H453 H 0.13944 0.30645 0.12922 0.0
C454 C 0.13951 0.34974 0.16267 0.0
C455 C 0.13739 0.37405 0.17825 0.0
C456 C 0.13473 0.35137 0.13538 0.0
C457 C 0.13092 0.40023 0.16612 0.0
C458 C 0.12714 0.40213 0.13876 0.0
C459 C 0.12414 0.37923 0.09568 0.0
C460 C 0.12363 0.35446 0.08063 0.0
C461 C 0.12888 0.3778 0.12316 0.0
C462 C 0.12912 0.32839 0.09311 0.0
C463 C 0.1351 0.32687 0.12017 0.0
H464 H 0.15344 0.93257 0.0911 0.0
H465 H 0.13872 0.84295 0.08233 0.0
H466 H 0.12524 0.83842 0.12971 0.0
H467 H 0.11722 0.86044 0.17389 0.0
H468 H 0.12798 0.95062 0.18066 0.0
H469 H 0.14347 0.95434 0.13394 0.0
C470 C 0.14752 0.91198 0.09952 0.0
C471 C 0.14746 0.88812 0.08324 0.0
C472 C 0.13896 0.90965 0.12651 0.0
C473 C 0.13898 0.86167 0.09445 0.0
C474 C 0.13133 0.85907 0.12154 0.0
C475 C 0.12305 0.88083 0.16507 0.0
C476 C 0.12141 0.9052 0.1808 0.0
C477 C 0.13119 0.88297 0.13782 0.0
C478 C 0.12869 0.93153 0.16905 0.0
C479 C 0.13771 0.93372 0.14229 0.0
H480 H 0.89083 0.59519 0.83764 0.0
H481 H 0.87376 0.68496 0.83079 0.0
H482 H 0.88566 0.6905 0.87773 0.0
H483 H 0.90125 0.67034 0.92064 0.0
H484 H 0.91494 0.58063 0.92909 0.0
H485 H 0.90397 0.57457 0.88167 0.0
C486 C 0.88971 0.61591 0.84648 0.0
C487 C 0.88147 0.6396 0.83069 0.0
C488 C 0.89602 0.619 0.87374 0.0
C489 C 0.87978 0.66633 0.84245 0.0
C490 C 0.88673 0.66958 0.86932 0.0
C491 C 0.90204 0.64943 0.91212 0.0
C492 C 0.9093 0.626 0.92828 0.0
C493 C 0.89498 0.64612 0.88511 0.0
C494 C 0.90946 0.59902 0.91702 0.0
C495 C 0.90325 0.59556 0.88993 0.0
H496 H 0.88192 0.14155 0.91838 0.0
H497 H 0.8764 0.05162 0.92846 0.0
H498 H 0.8907 0.04476 0.88176 0.0
H499 H 0.90426 0.06406 0.83803 0.0
H500 H 0.90437 0.15377 0.82656 0.0
H501 H 0.89269 0.16104 0.87374 0.0
C502 C 0.88395 0.12051 0.91028 0.0
C503 C 0.87822 0.09714 0.92681 0.0
C504 C 0.89119 0.11667 0.88319 0.0
C505 C 0.88044 0.06995 0.91609 0.0
C506 C 0.88875 0.06599 0.88941 0.0
C507 C 0.90195 0.08521 0.84589 0.0
C508 C 0.90554 0.10835 0.82896 0.0
C509 C 0.89413 0.08916 0.87279 0.0
C510 C 0.9017 0.13563 0.83928 0.0
C511 C 0.89509 0.13978 0.86623 0.0
H512 H 0.14145 0.82771 0.67356 0.0
H513 H 0.13122 0.91797 0.6771 0.0
H514 H 0.12051 0.91967 0.62927 0.0
H515 H 0.11414 0.89493 0.58621 0.0
H516 H 0.12037 0.80433 0.58473 0.0
H517 H 0.13274 0.80338 0.63192 0.0
C518 C 0.13708 0.84783 0.66392 0.0
C519 C 0.13756 0.8727 0.67884 0.0
C520 C 0.1302 0.84855 0.63671 0.0
C521 C 0.13102 0.89852 0.66604 0.0
C522 C 0.125 0.89947 0.6387 0.0
C523 C 0.11833 0.87505 0.59629 0.0
C524 C 0.11639 0.84973 0.58194 0.0
C525 C 0.12459 0.87457 0.62378 0.0
C526 C 0.12142 0.8241 0.59528 0.0
C527 C 0.12862 0.82351 0.62229 0.0
H528 H 0.14838 0.41304 0.58761 0.0
H529 H 0.13795 0.3227 0.58542 0.0
H530 H 0.1307 0.3216 0.63345 0.0
H531 H 0.12676 0.3469 0.67616 0.0
H532 H 0.13316 0.43751 0.67647 0.0
H533 H 0.14279 0.43789 0.62906 0.0
C534 C 0.14476 0.39304 0.5976 0.0
C535 C 0.14404 0.36799 0.58306 0.0
C536 C 0.13986 0.39265 0.6249 0.0
C537 C 0.1386 0.3423 0.59626 0.0
C538 C 0.13454 0.34167 0.62368 0.0
C539 C 0.13043 0.36663 0.66576 0.0
C540 C 0.12923 0.39212 0.67975 0.0
C541 C 0.13508 0.36677 0.63823 0.0
C542 C 0.13362 0.41761 0.66611 0.0
C543 C 0.13925 0.41788 0.639 0.0
H544 H 0.8744 0.16825 0.33744 0.0
H545 H 0.89087 0.07852 0.33079 0.0
H546 H 0.89694 0.07471 0.37864 0.0
H547 H 0.89894 0.09731 0.42254 0.0
H548 H 0.88707 0.18747 0.42791 0.0
H549 H 0.87755 0.19064 0.3805 0.0
C550 C 0.87911 0.14782 0.34644 0.0
C551 C 0.88201 0.12371 0.33062 0.0
C552 C 0.8834 0.14587 0.3738 0.0
C553 C 0.88866 0.09743 0.34257 0.0
C554 C 0.89203 0.09523 0.36992 0.0
C555 C 0.89398 0.11756 0.41325 0.0
C556 C 0.89367 0.1421 0.42865 0.0
C557 C 0.8896 0.11935 0.38576 0.0
C558 C 0.88771 0.16828 0.41643 0.0
C559 C 0.8822 0.17014 0.38933 0.0
H560 H 0.90588 0.56534 0.33818 0.0
H561 H 0.9074 0.655 0.32638 0.0
H562 H 0.89714 0.66252 0.37366 0.0
H563 H 0.88803 0.6432 0.41859 0.0
H564 H 0.88204 0.55327 0.42886 0.0
H565 H 0.89379 0.54628 0.38202 0.0
C566 C 0.90412 0.58654 0.34596 0.0
C567 C 0.90776 0.60957 0.32891 0.0
C568 C 0.89736 0.59064 0.37292 0.0
C569 C 0.90467 0.63692 0.33918 0.0
C570 C 0.8989 0.64122 0.36619 0.0
C571 C 0.88936 0.62214 0.41049 0.0
C572 C 0.88425 0.59881 0.42716 0.0
C573 C 0.89528 0.6182 0.38329 0.0
C574 C 0.88559 0.5716 0.41643 0.0
C575 C 0.89246 0.56754 0.38964 0.0
H576 H 0.63176 0.33377 0.58976 0.0
H577 H 0.62666 0.4238 0.58111 0.0
H578 H 0.63631 0.42952 0.6287 0.0
H579 H 0.64569 0.40847 0.6729 0.0
H580 H 0.65504 0.31829 0.67994 0.0
H581 H 0.64417 0.31309 0.63282 0.0
C582 C 0.63259 0.35467 0.59828 0.0
C583 C 0.62807 0.37832 0.58207 0.0
C584 C 0.63896 0.35774 0.62536 0.0
C585 C 0.63003 0.40527 0.59328 0.0
C586 C 0.63545 0.40853 0.62045 0.0
C587 C 0.6453 0.38774 0.66404 0.0
C588 C 0.65105 0.36381 0.67986 0.0
C589 C 0.63985 0.38487 0.63671 0.0
C590 C 0.65095 0.33706 0.66816 0.0
C591 C 0.6446 0.33403 0.64123 0.0
H592 H 0.62523 0.92639 0.67468 0.0
H593 H 0.63732 0.83673 0.68412 0.0
H594 H 0.64872 0.83133 0.63666 0.0
H595 H 0.65469 0.85247 0.59224 0.0
H596 H 0.64673 0.94262 0.58436 0.0
H597 H 0.63425 0.94741 0.63138 0.0
C598 C 0.63023 0.90563 0.66636 0.0
C599 C 0.63004 0.88198 0.68281 0.0
C600 C 0.63754 0.90279 0.6393 0.0
C601 C 0.63732 0.85527 0.67182 0.0
C602 C 0.64373 0.85219 0.6447 0.0
C603 C 0.65018 0.87311 0.60089 0.0
C604 C 0.65153 0.89713 0.58481 0.0
C605 C 0.6438 0.87583 0.6282 0.0
C606 C 0.64609 0.92379 0.59629 0.0
C607 C 0.63881 0.92658 0.62319 0.0
H608 H 0.38391 0.67917 0.338 0.0
H609 H 0.37007 0.58918 0.33242 0.0
H610 H 0.38172 0.58486 0.37986 0.0
H611 H 0.39627 0.60691 0.4229 0.0
H612 H 0.41475 0.69673 0.42734 0.0
H613 H 0.40104 0.70088 0.38034 0.0
C614 C 0.38318 0.65864 0.34722 0.0
C615 C 0.37579 0.63456 0.3319 0.0
C616 C 0.39098 0.65629 0.37424 0.0
C617 C 0.37571 0.60802 0.34392 0.0
C618 C 0.38233 0.60555 0.37099 0.0
C619 C 0.39729 0.62734 0.41352 0.0
C620 C 0.40644 0.65146 0.42853 0.0
C621 C 0.3901 0.62956 0.38634 0.0
C622 C 0.40806 0.67781 0.41616 0.0
C623 C 0.40004 0.68025 0.38931 0.0
H624 H 0.37838 0.16173 0.42302 0.0
H625 H 0.3869 0.07146 0.4295 0.0
H626 H 0.39936 0.06745 0.38251 0.0
H627 H 0.40648 0.08887 0.33962 0.0
H628 H 0.39418 0.17862 0.3309 0.0
H629 H 0.38439 0.18357 0.37861 0.0
C630 C 0.38317 0.14128 0.41405 0.0
C631 C 0.38164 0.11694 0.42972 0.0
C632 C 0.38948 0.13899 0.38665 0.0
C633 C 0.38752 0.09051 0.41787 0.0
C634 C 0.39478 0.08816 0.39099 0.0
C635 C 0.40194 0.10961 0.34808 0.0
C636 C 0.4014 0.13336 0.33175 0.0
C637 C 0.39559 0.11218 0.37521 0.0
C638 C 0.39475 0.15999 0.34307 0.0
C639 C 0.38922 0.16281 0.37034 0.0
H640 H 0.64758 0.82449 0.17507 0.0
H641 H 0.64732 0.91504 0.17781 0.0
H642 H 0.6337 0.91685 0.13038 0.0
H643 H 0.62102 0.89236 0.08803 0.0
H644 H 0.61736 0.80169 0.08682 0.0
H645 H 0.63324 0.80033 0.13364 0.0
C646 C 0.64484 0.84465 0.16528 0.0
C647 C 0.64879 0.86958 0.17989 0.0
C648 C 0.63607 0.84551 0.13824 0.0
C649 C 0.64444 0.89552 0.16698 0.0
C650 C 0.63666 0.89657 0.13987 0.0
C651 C 0.62375 0.87236 0.09806 0.0
C652 C 0.61798 0.84719 0.08391 0.0
C653 C 0.63226 0.87166 0.12528 0.0
C654 C 0.62132 0.82141 0.09722 0.0
C655 C 0.63057 0.82056 0.12402 0.0
H656 H 0.64238 0.3558 0.0906 0.0
H657 H 0.64312 0.44602 0.08224 0.0
H658 H 0.63099 0.45159 0.12925 0.0
H659 H 0.62001 0.43117 0.17262 0.0
H660 H 0.62411 0.34128 0.18256 0.0
H661 H 0.6347 0.33517 0.13509 0.0
C662 C 0.63981 0.37662 0.09916 0.0
C663 C 0.64349 0.40046 0.08302 0.0
C664 C 0.63377 0.37972 0.12642 0.0
C665 C 0.64064 0.42735 0.0943 0.0
C666 C 0.63356 0.43058 0.12116 0.0
C667 C 0.62306 0.41021 0.16438 0.0
C668 C 0.62085 0.3867 0.18092 0.0
C669 C 0.63004 0.40696 0.13737 0.0
C670 C 0.62569 0.3597 0.17012 0.0
C671 C 0.63163 0.35621 0.14302 0.0
H672 H 0.3633 0.11654 0.83528 0.0
H673 H 0.36717 0.2072 0.83434 0.0
H674 H 0.38057 0.2081 0.88144 0.0
H675 H 0.39143 0.18366 0.92277 0.0
H676 H 0.38313 0.09333 0.92587 0.0
H677 H 0.3709 0.09169 0.87813 0.0
C678 C 0.36714 0.13641 0.84548 0.0
C679 C 0.36435 0.16177 0.83134 0.0
C680 C 0.37393 0.13685 0.8729 0.0
C681 C 0.36889 0.18741 0.84478 0.0
C682 C 0.37669 0.18797 0.87172 0.0
C683 C 0.38711 0.16356 0.91302 0.0
C684 C 0.38869 0.13864 0.92772 0.0
C685 C 0.37931 0.16288 0.88593 0.0
C686 C 0.38212 0.1128 0.91491 0.0
C687 C 0.37525 0.11189 0.88764 0.0
H688 H 0.39537 0.662 0.83765 0.0
H689 H 0.40444 0.57174 0.831 0.0
H690 H 0.39355 0.56693 0.87814 0.0
H691 H 0.38188 0.58805 0.92123 0.0
H692 H 0.37653 0.67822 0.92907 0.0
H693 H 0.3855 0.68339 0.88151 0.0
C694 C 0.3949 0.64133 0.84658 0.0
C695 C 0.40069 0.6173 0.83088 0.0
C696 C 0.38928 0.63867 0.87386 0.0
C697 C 0.40036 0.59061 0.84268 0.0
C698 C 0.39398 0.58779 0.86963 0.0
C699 C 0.38245 0.60884 0.91252 0.0
C700 C 0.37828 0.6327 0.92853 0.0
C701 C 0.38844 0.61164 0.88538 0.0
C702 C 0.37972 0.65952 0.91707 0.0
C703 C 0.3848 0.66249 0.88991 0.0
H704 H 0.92018 0.2454 0.25254 0.0
H705 H 1.00575 0.1726 0.25308 0.0
H706 H 0.07133 0.203 0.25373 0.0
H707 H 0.10458 0.25037 0.25428 0.0
H708 H 0.01845 0.32295 0.25384 0.0
H709 H 0.95319 0.29251 0.25304 0.0
C710 C 0.95314 0.23612 0.25277 0.0
C711 C 0.95786 0.20669 0.25275 0.0
C712 C 0.99078 0.25372 0.25319 0.0
C713 C 1.00098 0.19515 0.25308 0.0
C714 C 0.03858 0.21254 0.25346 0.0
C715 C 0.07156 0.25954 0.25401 0.0
C716 C 0.06663 0.28898 0.25413 0.0
C717 C 0.03391 0.24187 0.25355 0.0
C718 C 0.02344 0.30042 0.25377 0.0
C719 C 0.98597 0.28301 0.2533 0.0
H720 H 0.16789 0.01638 0.26219 0.0
H721 H 0.24019 0.93805 0.26254 0.0
H722 H 0.31068 0.96361 0.26236 0.0
H723 H 0.35206 0.00831 0.26134 0.0
H724 H 0.27918 0.08646 0.26058 0.0
H725 H 0.20901 0.06085 0.26169 0.0
C726 C 0.19903 0.00486 0.26232 0.0
C727 C 0.19859 0.97532 0.26236 0.0
C728 C 0.23953 0.01968 0.26208 0.0
C729 C 0.2394 0.9608 0.26248 0.0
C730 C 0.27982 0.9754 0.26236 0.0
C731 C 0.32085 0.01974 0.26148 0.0
C732 C 0.32109 0.0493 0.26083 0.0
C733 C 0.28033 0.00486 0.26204 0.0
C734 C 0.28019 0.06373 0.26101 0.0
C735 C 0.2399 0.0491 0.26166 0.0
H736 H 0.03613 0.94471 0.01238 0.0
H737 H 0.12758 0.01468 0.00854 0.0
H738 H 0.06542 0.04747 0.00905 0.0
H739 H 0.98546 0.05646 0.0099 0.0
H740 H 0.89322 0.98698 0.01391 0.0
H741 H 0.95542 0.95388 0.01415 0.0
C742 C 0.04246 0.96712 0.01165 0.0
C743 C 0.08652 0.97716 0.01034 0.0
C744 C 1.00647 0.98599 0.01202 0.0
C745 C 0.09407 0.00631 0.00955 0.0
C746 C 0.05853 0.02513 0.00983 0.0
C747 C 0.97883 0.03408 0.0109 0.0
C748 C 0.93469 0.02425 0.01182 0.0
C749 C 0.01464 0.01521 0.01098 0.0
C750 C 0.92687 0.99516 0.01319 0.0
C751 C 0.96242 0.9762 0.01328 0.0
H752 H 0.28327 0.19362 1.00248 0.0
H753 H 0.37492 0.26359 1.00124 0.0
H754 H 0.31247 0.29639 1.00131 0.0
H755 H 0.23218 0.30519 1.00191 0.0
H756 H 0.14038 0.23531 1.003 0.0
H757 H 0.20283 0.20245 1.00279 0.0
C758 C 0.28968 0.21604 1.00223 0.0
C759 C 0.33379 0.22611 1.00189 0.0
C760 C 0.25364 0.23479 1.00224 0.0
C761 C 0.34136 0.25524 1.0015 0.0
C762 C 0.30565 0.27403 1.00155 0.0
C763 C 0.22571 0.28277 1.0021 0.0
C764 C 0.18158 0.27275 1.0025 0.0
C765 C 0.2617 0.26402 1.00195 0.0
C766 C 0.17396 0.24362 1.00269 0.0
C767 C 0.20966 0.22481 1.00258 0.0
H768 H 0.92059 0.74968 0.74962 0.0
H769 H 1.00237 0.67516 0.74812 0.0
H770 H 0.06945 0.70403 0.74963 0.0
H771 H 0.10514 0.75046 0.75189 0.0
H772 H 0.02314 0.8249 0.75388 0.0
H773 H 0.95621 0.79603 0.75173 0.0
C774 C 0.95307 0.73974 0.7495 0.0
C775 C 0.95631 0.71027 0.74874 0.0
C776 C 0.99163 0.75646 0.75058 0.0
C777 C 0.99877 0.69779 0.74873 0.0
C778 C 0.03724 0.71428 0.74961 0.0
C779 C 0.07265 0.76038 0.75188 0.0
C780 C 0.06934 0.78983 0.75309 0.0
C781 C 0.03409 0.74364 0.75066 0.0
C782 C 0.02685 0.80229 0.75301 0.0
C783 C 0.98843 0.7858 0.75175 0.0
H784 H 0.73831 0.93872 0.7596 0.0
H785 H 0.64831 0.00922 0.755 0.0
H786 H 0.71142 0.04158 0.75443 0.0
H787 H 0.79218 0.04991 0.75496 0.0
H788 H 0.88201 0.9793 0.75948 0.0
H789 H 0.81889 0.94704 0.76037 0.0
C790 C 0.73241 0.96116 0.7585 0.0
C791 C 0.68854 0.97147 0.75733 0.0
C792 C 0.76886 0.97968 0.75815 0.0
C793 C 0.68167 1.00065 0.75592 0.0
C794 C 0.71777 0.0192 0.75558 0.0
C795 C 0.79801 0.02747 0.75616 0.0
C796 C 0.84187 0.01711 0.75713 0.0
C797 C 0.76151 0.00896 0.75665 0.0
C798 C 0.84868 0.98793 0.75869 0.0
C799 C 0.81257 0.96941 0.7592 0.0
H800 H 0.66574 0.73339 1.00517 0.0
H801 H 0.73416 0.81315 1.00108 0.0
H802 H 0.80558 0.78922 1.00025 0.0
H803 H 0.84896 0.74602 1.00111 0.0
H804 H 0.78195 0.66589 1.00538 0.0
H805 H 0.70979 0.68964 0.00571 0.0
C806 C 0.69627 0.74551 1.00403 0.0
C807 C 0.69444 0.77503 1.00322 0.0
C808 C 0.73757 0.73159 1.00364 0.0
C809 C 0.73441 0.79041 1.00178 0.0
C810 C 0.7754 0.77676 1.00131 0.0
C811 C 0.81863 0.73367 1.0021 0.0
C812 C 0.82093 0.70422 1.00325 0.0
C813 C 0.77738 0.7474 1.00231 0.0
C814 C 0.78119 0.68861 1.0045 0.0
C815 C 0.73988 0.70217 1.00468 0.0
H816 H 0.35534 0.50819 0.74919 0.0
H817 H 0.27806 0.5846 0.74892 0.0
H818 H 0.20933 0.55735 0.75076 0.0
H819 H 0.17086 0.51174 0.75313 0.0
H820 H 0.24864 0.43549 0.75379 0.0
H821 H 0.31706 0.46275 0.75118 0.0
C822 C 0.32348 0.5189 0.7494 0.0
C823 C 0.32201 0.5484 0.74892 0.0
C824 C 0.28397 0.50312 0.75066 0.0
C825 C 0.28032 0.5619 0.74931 0.0
C826 C 0.24089 0.54634 0.75039 0.0
C827 C 0.20276 0.50109 0.75272 0.0
C828 C 0.20441 0.47159 0.7537 0.0
C829 C 0.24228 0.51692 0.75122 0.0
C830 C 0.24617 0.45817 0.75309 0.0
C831 C 0.28547 0.47374 0.75157 0.0
H832 H 0.91698 0.48884 0.50999 0.0
H833 H 1.00022 0.56287 0.51009 0.0
H834 H 0.06661 0.5337 0.50903 0.0
H835 H 0.10163 0.48736 0.50746 0.0
H836 H 0.01944 0.41295 0.5072 0.0
H837 H 0.95248 0.44201 0.50889 0.0
C838 C 0.94963 0.49857 0.5099 0.0
C839 C 0.95335 0.52807 0.51009 0.0
C840 C 0.98808 0.4816 0.50915 0.0
C841 C 0.99609 0.54027 0.50989 0.0
C842 C 0.03426 0.52359 0.50927 0.0
C843 C 0.06911 0.47744 0.50776 0.0
C844 C 0.06576 0.44796 0.50714 0.0
C845 C 0.0307 0.49426 0.50876 0.0
C846 C 0.02318 0.43557 0.50762 0.0
C847 C 0.98477 0.4522 0.50861 0.0
H848 H 0.29399 0.6938 0.50463 0.0
H849 H 0.3808 0.76546 0.51379 0.0
H850 H 0.31628 0.79687 0.51265 0.0
H851 H 0.23489 0.80387 0.50889 0.0
H852 H 0.14935 0.73151 0.49977 0.0
H853 H 0.2138 0.7006 0.50099 0.0
C854 C 0.29899 0.71629 0.50643 0.0
C855 C 0.34232 0.72719 0.50931 0.0
C856 C 0.26189 0.73416 0.5057 0.0
C857 C 0.34789 0.75644 0.51158 0.0
C858 C 0.31098 0.77442 0.5109 0.0
C859 C 0.23036 0.78135 0.50711 0.0
C860 C 0.18717 0.77012 0.50421 0.0
C861 C 0.26777 0.76352 0.50791 0.0
C862 C 0.18204 0.74083 0.50203 0.0
C863 C 0.21894 0.72307 0.50273 0.0
H864 H 0.79033 0.554 0.25204 0.0
H865 H 0.87642 0.48168 0.25828 0.0
H866 H 0.81197 0.45067 0.25814 0.0
H867 H 0.73146 0.44377 0.25638 0.0
H868 H 0.64437 0.51553 0.25022 0.0
H869 H 0.70888 0.54694 0.25018 0.0
C870 C 0.79499 0.53146 0.25337 0.0
C871 C 0.83831 0.52028 0.25518 0.0
C872 C 0.7576 0.51358 0.25329 0.0
C873 C 0.84361 0.49097 0.25687 0.0
C874 C 0.80671 0.47315 0.2568 0.0
C875 C 0.72644 0.46628 0.255 0.0
C876 C 0.68302 0.47721 0.2533 0.0
C877 C 0.7636 0.48419 0.25502 0.0
C878 C 0.67737 0.50648 0.25154 0.0
C879 C 0.71428 0.52448 0.25153 0.0
H880 H 0.67137 0.25316 0.51107 0.0
H881 H 0.74852 0.32961 0.50743 0.0
H882 H 0.81734 0.30238 0.50759 0.0
H883 H 0.85596 0.25668 0.50826 0.0
H884 H 0.77812 0.18044 0.51161 0.0
H885 H 0.70969 0.20776 0.51212 0.0
C886 C 0.7032 0.26391 0.51035 0.0
C887 C 0.70458 0.29343 0.50921 0.0
C888 C 0.74277 0.24813 0.51039 0.0
C889 C 0.74629 0.30692 0.50828 0.0
C890 C 0.78578 0.29136 0.50838 0.0
C891 C 0.82405 0.24605 0.50918 0.0
C892 C 0.82242 0.2165 0.50986 0.0
C893 C 0.78447 0.26193 0.50936 0.0
C894 C 0.78061 0.20313 0.51101 0.0
C895 C 0.74129 0.21874 0.5113 0.0
H896 H 0.47908 0.21117 0.76038 0.0
H897 H 0.39084 0.28212 0.75163 0.0
H898 H 0.45428 0.3141 0.75323 0.0
H899 H 0.53461 0.32204 0.75683 0.0
H900 H 0.62321 0.25131 0.76571 0.0
H901 H 0.55972 0.2192 0.76442 0.0
C902 C 0.47368 0.23363 0.75879 0.0
C903 C 0.43016 0.24417 0.75583 0.0
C904 C 0.51036 0.25198 0.7598 0.0
C905 C 0.42389 0.27337 0.75391 0.0
C906 C 0.46018 0.29171 0.75483 0.0
C907 C 0.54014 0.29961 0.75854 0.0
C908 C 0.58372 0.28916 0.76135 0.0
C909 C 0.50353 0.28126 0.75775 0.0
C910 C 0.59009 0.25999 0.76355 0.0
C911 C 0.55378 0.24158 0.76278 0.0
H912 H 0.41868 1.00127 0.50699 0.0
H913 H 0.49597 0.07784 0.50697 0.0
H914 H 0.56451 0.05083 0.50479 0.0
H915 H 0.60314 0.00568 0.50296 0.0
H916 H 0.52701 0.92875 0.50341 0.0
H917 H 0.45781 0.95565 0.50522 0.0
C918 C 0.4505 0.01203 0.50657 0.0
C919 C 0.4519 0.0416 0.50717 0.0
C920 C 0.49022 0.99631 0.50529 0.0
C921 C 0.49361 0.05514 0.50656 0.0
C922 C 0.53301 0.03971 0.50527 0.0
C923 C 0.57145 0.99474 0.50334 0.0
C924 C 0.57043 0.96521 0.50299 0.0
C925 C 0.53176 0.01031 0.50459 0.0
C926 C 0.52892 0.95147 0.50364 0.0
C927 C 0.48924 0.96685 0.50472 0.0
H928 H 0.60552 0.75205 0.25838 0.0
H929 H 0.52771 0.82826 0.25825 0.0
H930 H 0.45918 0.8007 0.25686 0.0
H931 H 0.42117 0.75502 0.25553 0.0
H932 H 0.49894 0.67878 0.25558 0.0
H933 H 0.56748 0.70634 0.25708 0.0
C934 C 0.5736 0.76267 0.25811 0.0
C935 C 0.57192 0.79224 0.25845 0.0
C936 C 0.53421 0.74668 0.25722 0.0
C937 C 0.53014 0.80557 0.25802 0.0
C938 C 0.49085 0.78981 0.2572 0.0
C939 C 0.45308 0.74439 0.25582 0.0
C940 C 0.45475 0.71482 0.25541 0.0
C941 C 0.49247 0.76036 0.25674 0.0
C942 C 0.49652 0.70148 0.25586 0.0
C943 C 0.53582 0.71723 0.25674 0.0
H944 H 0.6123 0.51233 1.00199 0.0
H945 H 0.52948 0.43809 0.99893 0.0
H946 H 0.46303 0.46701 0.99993 0.0
H947 H 0.42794 0.51275 1.00234 0.0
H948 H 0.50835 0.58786 1.00543 0.0
H949 H 0.57612 0.55919 1.00379 0.0
C950 C 0.57971 0.50253 1.00141 0.0
C951 C 0.57607 0.47302 1.00045 0.0
C952 C 0.54114 0.51938 1.00212 0.0
C953 C 0.53349 0.46069 0.99977 0.0
C954 C 0.49531 0.47721 1.00035 0.0
C955 C 0.46022 0.52299 1.00269 0.0
C956 C 0.46298 0.55244 1.00411 0.0
C957 C 0.49873 0.50649 1.00168 0.0
C958 C 0.50522 0.56521 1.00441 0.0
C959 C 0.54398 0.54882 1.00344 0.0
H960 H 0.13966 0.40745 0.42171 0.0
H961 H 0.14333 0.31751 0.43175 0.0
H962 H 0.1414 0.31106 0.38406 0.0
H963 H 0.14159 0.33113 0.33958 0.0
H964 H 0.13398 0.421 0.32966 0.0
H965 H 0.1343 0.42738 0.37734 0.0
C966 C 0.13993 0.38644 0.41343 0.0
C967 C 0.14209 0.36298 0.43013 0.0
C968 C 0.13815 0.38291 0.38609 0.0
C969 C 0.14168 0.33587 0.41924 0.0
C970 C 0.14072 0.33218 0.39201 0.0
C971 C 0.13987 0.3521 0.34789 0.0
C972 C 0.13818 0.37558 0.3312 0.0
C973 C 0.13942 0.35556 0.37526 0.0
C974 C 0.13527 0.40261 0.34215 0.0
C975 C 0.13561 0.40627 0.36938 0.0
H976 H 0.10822 0.84737 0.33265 0.0
H977 H 0.11379 0.93725 0.34316 0.0
H978 H 0.11652 0.93136 0.39071 0.0
H979 H 0.11469 0.90084 0.4296 0.0
H980 H 0.10453 0.81109 0.41936 0.0
H981 H 0.10636 0.81675 0.3717 0.0
C982 C 0.11035 0.86562 0.34537 0.0
C983 C 0.11079 0.89268 0.33434 0.0
C984 C 0.11093 0.86213 0.37285 0.0
C985 C 0.11313 0.91616 0.35111 0.0
C986 C 0.11477 0.91284 0.37835 0.0
C987 C 0.11321 0.88252 0.41693 0.0
C988 C 0.10953 0.85561 0.42805 0.0
C989 C 0.11329 0.88595 0.38947 0.0
C990 C 0.10719 0.83209 0.41133 0.0
C991 C 0.10828 0.83528 0.38404 0.0
H992 H 0.1513 0.91465 0.83544 0.0
H993 H 0.14385 0.82421 0.83765 0.0
H994 H 0.14411 0.82514 0.88559 0.0
H995 H 0.14932 0.85149 0.92707 0.0
H996 H 0.16224 0.9417 0.92496 0.0
H997 H 0.15701 0.94105 0.87708 0.0
C998 C 0.1493 0.89522 0.84647 0.0
C999 C 0.14741 0.86943 0.83302 0.0
C1000 C 0.15074 0.89584 0.87413 0.0
C1001 C 0.14547 0.84435 0.84755 0.0
C1002 C 0.14561 0.84485 0.87498 0.0
C1003 C 0.15073 0.871 0.91613 0.0
C1004 C 0.15613 0.89658 0.92959 0.0
C1005 C 0.1487 0.87044 0.88851 0.0
C1006 C 0.15833 0.92168 0.91509 0.0
C1007 C 0.15524 0.92135 0.88768 0.0
H1008 H 0.12832 0.34583 0.83333 0.0
H1009 H 0.13312 0.43617 0.83924 0.0
H1010 H 0.13454 0.4331 0.88712 0.0
H1011 H 0.12971 0.40479 0.92742 0.0
H1012 H 0.11905 0.31465 0.9213 0.0
H1013 H 0.12482 0.31753 0.87357 0.0
C1014 C 0.13024 0.36478 0.84514 0.0
C1015 C 0.13062 0.39114 0.83286 0.0
C1016 C 0.12969 0.3629 0.87266 0.0
C1017 C 0.13256 0.4156 0.84833 0.0
C1018 C 0.13338 0.41388 0.87569 0.0
C1019 C 0.12912 0.38582 0.9156 0.0
C1020 C 0.12386 0.3596 0.92778 0.0
C1021 C 0.13123 0.38766 0.88809 0.0
C1022 C 0.12271 0.33513 0.91229 0.0
C1023 C 0.12609 0.33673 0.88501 0.0
H1024 H 0.88581 0.66188 0.66675 0.0
H1025 H 0.88387 0.57314 0.68379 0.0
H1026 H 0.88593 0.56248 0.63677 0.0
H1027 H 0.88437 0.57849 0.59091 0.0
H1028 H 0.88991 0.66715 0.5738 0.0
H1029 H 0.89071 0.67781 0.62087 0.0
C1030 C 0.88603 0.64021 0.66014 0.0
C1031 C 0.88418 0.6183 0.67865 0.0
C1032 C 0.8878 0.63427 0.63315 0.0
C1033 C 0.88524 0.59033 0.6699 0.0
C1034 C 0.88626 0.58424 0.64304 0.0
C1035 C 0.88598 0.60014 0.59751 0.0
C1036 C 0.88659 0.62204 0.57898 0.0
C1037 C 0.88694 0.60605 0.62451 0.0
C1038 C 0.88941 0.64996 0.58773 0.0
C1039 C 0.88968 0.65606 0.61461 0.0
H1040 H 0.89735 0.14343 0.67624 0.0
H1041 H 0.92413 0.0547 0.66947 0.0
H1042 H 0.91914 0.05788 0.62161 0.0
H1043 H 0.91019 0.08648 0.58142 0.0
H1044 H 0.8887 0.17571 0.58883 0.0
H1045 H 0.88811 0.17171 0.6366 0.0
C1046 C 0.90182 0.12474 0.66432 0.0
C1047 C 0.91109 0.0989 0.67639 0.0
C1048 C 0.8998 0.12682 0.63686 0.0
C1049 C 0.91718 0.07491 0.66064 0.0
C1050 C 0.91423 0.07669 0.63327 0.0
C1051 C 0.90485 0.10491 0.59357 0.0
C1052 C 0.89938 0.13131 0.58173 0.0
C1053 C 0.90592 0.10259 0.62113 0.0
C1054 C 0.89314 0.15516 0.59759 0.0
C1055 C 0.89282 0.15291 0.62488 0.0
H1056 H 0.87961 0.16093 0.16638 0.0
H1057 H 0.88042 0.07195 0.18246 0.0
H1058 H 0.87804 0.06181 0.13545 0.0
H1059 H 0.87312 0.07812 0.08992 0.0
H1060 H 0.87698 0.16686 0.0732 0.0
H1061 H 0.88043 0.17728 0.12033 0.0
C1062 C 0.87942 0.13934 0.15953 0.0
C1063 C 0.87984 0.11721 0.17783 0.0
C1064 C 0.87883 0.13365 0.13243 0.0
C1065 C 0.8802 0.08934 0.16875 0.0
C1066 C 0.87868 0.08352 0.14189 0.0
C1067 C 0.8748 0.09975 0.09662 0.0
C1068 C 0.87431 0.12172 0.07822 0.0
C1069 C 0.87756 0.10549 0.12359 0.0
C1070 C 0.8773 0.14962 0.08706 0.0
C1071 C 0.87912 0.15556 0.11397 0.0
H1072 H 0.92385 0.58688 0.08176 0.0
H1073 H 0.91466 0.67714 0.08767 0.0
H1074 H 0.91246 0.67392 0.13549 0.0
H1075 H 0.91455 0.64558 0.17571 0.0
H1076 H 0.92779 0.55553 0.16998 0.0
H1077 H 0.92694 0.55855 0.12208 0.0
C1078 C 0.92115 0.60581 0.09353 0.0
C1079 C 0.91934 0.63218 0.08119 0.0
C1080 C 0.92072 0.60386 0.12107 0.0
C1081 C 0.9163 0.65657 0.0967 0.0
C1082 C 0.91496 0.65476 0.12405 0.0
C1083 C 0.91702 0.62662 0.16397 0.0
C1084 C 0.9211 0.60039 0.17636 0.0
C1085 C 0.91735 0.62854 0.13645 0.0
C1086 C 0.92476 0.57601 0.1609 0.0
C1087 C 0.92421 0.5777 0.13351 0.0
H1088 H 0.64301 0.4232 0.9196 0.0
H1089 H 0.64172 0.33436 0.93615 0.0
H1090 H 0.64161 0.32399 0.88903 0.0
H1091 H 0.64612 0.34032 0.84329 0.0
H1092 H 0.64353 0.42915 0.82673 0.0
H1093 H 0.64062 0.43948 0.87382 0.0
C1094 C 0.64247 0.40157 0.91285 0.0
C1095 C 0.64289 0.37954 0.93122 0.0
C1096 C 0.64184 0.39583 0.88582 0.0
C1097 C 0.64141 0.35164 0.92232 0.0
C1098 C 0.64154 0.34572 0.89542 0.0
C1099 C 0.64471 0.36193 0.85002 0.0
C1100 C 0.64557 0.38398 0.83167 0.0
C1101 C 0.64243 0.36766 0.87703 0.0
C1102 C 0.64294 0.41186 0.84054 0.0
C1103 C 0.64145 0.41776 0.86743 0.0
H1104 H 0.60375 0.90004 0.93067 0.0
H1105 H 0.61598 0.81004 0.92365 0.0
H1106 H 0.62215 0.81407 0.87605 0.0
H1107 H 0.62174 0.84288 0.83619 0.0
H1108 H 0.60444 0.93256 0.84254 0.0
H1109 H 0.6027 0.92899 0.89045 0.0
C1110 C 0.60802 0.88138 0.91868 0.0
C1111 C 0.60939 0.85481 0.93065 0.0
C1112 C 0.61053 0.88377 0.89116 0.0
C1113 C 0.61452 0.83075 0.91489 0.0
C1114 C 0.61816 0.83301 0.88766 0.0
C1115 C 0.61794 0.86165 0.84808 0.0
C1116 C 0.61337 0.88792 0.83586 0.0
C1117 C 0.61587 0.85938 0.87555 0.0
C1118 C 0.60789 0.91205 0.8515 0.0
C1119 C 0.60693 0.91004 0.8789 0.0
H1120 H 0.65499 0.91929 0.4203 0.0
H1121 H 0.65504 0.83063 0.43767 0.0
H1122 H 0.65529 0.8198 0.3906 0.0
H1123 H 0.65769 0.83575 0.34446 0.0
H1124 H 0.6541 0.92456 0.32766 0.0
H1125 H 0.65302 0.9351 0.37458 0.0
C1126 C 0.65497 0.89758 0.4138 0.0
C1127 C 0.65536 0.87579 0.43244 0.0
C1128 C 0.6546 0.89156 0.38682 0.0
C1129 C 0.65469 0.84778 0.42371 0.0
C1130 C 0.65501 0.84159 0.39681 0.0
C1131 C 0.65664 0.85739 0.3511 0.0
C1132 C 0.6563 0.87935 0.33259 0.0
C1133 C 0.65534 0.86333 0.37818 0.0
C1134 C 0.65434 0.90728 0.34148 0.0
C1135 C 0.65382 0.91334 0.36831 0.0
H1136 H 0.61584 0.41445 0.42738 0.0
H1137 H 0.62463 0.32406 0.4245 0.0
H1138 H 0.62526 0.32533 0.37654 0.0
H1139 H 0.62051 0.35201 0.33541 0.0
H1140 H 0.60639 0.44214 0.33826 0.0
H1141 H 0.61067 0.44114 0.38617 0.0
C1142 C 0.61828 0.39509 0.41621 0.0
C1143 C 0.62029 0.36923 0.42938 0.0
C1144 C 0.61743 0.39592 0.38864 0.0
C1145 C 0.62286 0.34423 0.41474 0.0
C1146 C 0.62327 0.34494 0.38734 0.0
C1147 C 0.61867 0.37142 0.34654 0.0
C1148 C 0.61319 0.39708 0.33337 0.0
C1149 C 0.62013 0.37063 0.37408 0.0
C1150 C 0.61037 0.42208 0.34801 0.0
C1151 C 0.61291 0.42154 0.37538 0.0
H1152 H 0.3682 0.6733 0.16943 0.0
H1153 H 0.37158 0.58401 0.18377 0.0
H1154 H 0.37297 0.57494 0.13654 0.0
H1155 H 0.37199 0.59239 0.0912 0.0
H1156 H 0.37211 0.68173 0.07689 0.0
H1157 H 0.37075 0.69079 0.12412 0.0
C1158 C 0.36923 0.65187 0.16219 0.0
C1159 C 0.36951 0.62936 0.18001 0.0
C1160 C 0.37068 0.64683 0.13506 0.0
C1161 C 0.37142 0.6017 0.17041 0.0
C1162 C 0.3721 0.59649 0.14343 0.0
C1163 C 0.37173 0.61383 0.09844 0.0
C1164 C 0.37188 0.63634 0.08062 0.0
C1165 C 0.37155 0.61889 0.12558 0.0
C1166 C 0.37209 0.66403 0.09024 0.0
C1167 C 0.37118 0.66923 0.11722 0.0
H1168 H 0.4029 0.16661 0.17461 0.0
H1169 H 0.40016 0.07601 0.1751 0.0
H1170 H 0.3957 0.07525 0.12721 0.0
H1171 H 0.3959 0.10031 0.08489 0.0
H1172 H 0.404 0.19077 0.08449 0.0
H1173 H 0.4028 0.19162 0.13241 0.0
C1174 C 0.40096 0.14674 0.16422 0.0
C1175 C 0.40188 0.12145 0.17837 0.0
C1176 C 0.3995 0.14641 0.13661 0.0
C1177 C 0.39979 0.09581 0.16463 0.0
C1178 C 0.39716 0.09534 0.13724 0.0
C1179 C 0.39697 0.12017 0.09535 0.0
C1180 C 0.40002 0.1454 0.0812 0.0
C1181 C 0.39747 0.12049 0.12298 0.0
C1182 C 0.4019 0.17102 0.09496 0.0
C1183 C 0.40117 0.17155 0.12237 0.0
H1184 H 0.37168 0.11364 0.67812 0.0
H1185 H 0.35859 0.2035 0.67053 0.0
H1186 H 0.36489 0.19962 0.62285 0.0
H1187 H 0.37058 0.17045 0.58296 0.0
H1188 H 0.37819 0.08037 0.59055 0.0
H1189 H 0.37793 0.08456 0.63835 0.0
C1190 C 0.37057 0.13237 0.66602 0.0
C1191 C 0.36464 0.15878 0.67785 0.0
C1192 C 0.37316 0.12994 0.63853 0.0
C1193 C 0.36285 0.18286 0.6619 0.0
C1194 C 0.36653 0.18069 0.63461 0.0
C1195 C 0.3727 0.15181 0.59513 0.0
C1196 C 0.37448 0.12518 0.58328 0.0
C1197 C 0.37122 0.15431 0.62266 0.0
C1198 C 0.37661 0.10113 0.59925 0.0
C1199 C 0.37646 0.10349 0.62658 0.0
H1200 H 0.39563 0.59493 0.66784 0.0
H1201 H 0.40296 0.68374 0.68426 0.0
H1202 H 0.4038 0.69385 0.6371 0.0
H1203 H 0.40689 0.67709 0.59142 0.0
H1204 H 0.39637 0.58834 0.57516 0.0
H1205 H 0.39211 0.57847 0.62223 0.0
C1206 C 0.39717 0.61651 0.66107 0.0
C1207 C 0.39978 0.63857 0.67938 0.0
C1208 C 0.39724 0.6221 0.63407 0.0
C1209 C 0.40097 0.66645 0.67046 0.0
C1210 C 0.40165 0.6722 0.64355 0.0
C1211 C 0.4035 0.6556 0.59822 0.0
C1212 C 0.40251 0.63342 0.57997 0.0
C1213 C 0.40054 0.65015 0.62522 0.0
C1214 C 0.39729 0.60573 0.5889 0.0
C1215 C 0.39499 0.60008 0.61577 0.0
H1216 H 0.32736 0.33254 0.2561 0.0
H1217 H 0.26906 0.41535 0.25303 0.0
H1218 H 0.34294 0.43648 0.2526 0.0
H1219 H 0.42433 0.43173 0.25315 0.0
H1220 H 0.48286 0.34901 0.2564 0.0
H1221 H 0.40894 0.32778 0.2567 0.0
C1222 C 0.33079 0.3552 0.25533 0.0
C1223 C 0.29255 0.37224 0.25461 0.0
C1224 C 0.37355 0.36735 0.25512 0.0
C1225 C 0.29778 0.40162 0.25363 0.0
C1226 C 0.3401 0.4138 0.25337 0.0
C1227 C 0.42096 0.40906 0.25391 0.0
C1228 C 0.45924 0.39207 0.25475 0.0
C1229 C 0.37825 0.3969 0.25412 0.0
C1230 C 0.45408 0.36269 0.25575 0.0
C1231 C 0.41175 0.35047 0.25592 0.0
H1232 H 0.79634 0.90446 0.25642 0.0
H1233 H 0.8347 0.81707 0.25584 0.0
H1234 H 0.91311 0.83054 0.25573 0.0
H1235 H 0.97091 0.86699 0.2562 0.0
H1236 H 0.93288 0.95442 0.25715 0.0
H1237 H 0.85433 0.94101 0.25668 0.0
C1238 C 0.82181 0.88833 0.25622 0.0
C1239 C 0.80946 0.85976 0.25615 0.0
C1240 C 0.86698 0.89622 0.25625 0.0
C1241 C 0.84307 0.8392 0.25593 0.0
C1242 C 0.88801 0.84689 0.25586 0.0
C1243 C 0.9455 0.88316 0.25626 0.0
C1244 C 0.95795 0.9117 0.25671 0.0
C1245 C 0.90036 0.87531 0.25608 0.0
C1246 C 0.9244 0.9323 0.25682 0.0
C1247 C 0.87941 0.92465 0.25655 0.0
H1248 H 0.29427 0.8527 0.00734 0.0
H1249 H 0.34077 0.93849 0.01172 0.0
H1250 H 0.41758 0.92231 0.01199 0.0
H1251 H 0.47162 0.88426 0.01069 0.0
H1252 H 0.42678 0.79821 0.00624 0.0
H1253 H 0.34925 0.8141 0.00635 0.0
C1254 C 0.3212 0.86784 0.00836 0.0
C1255 C 0.31161 0.89679 0.00948 0.0
C1256 C 0.3656 0.85839 0.00851 0.0
C1257 C 0.34701 0.9161 0.01083 0.0
C1258 C 0.39105 0.90688 0.01098 0.0
C1259 C 0.445 0.86888 0.00977 0.0
C1260 C 0.45511 0.84006 0.00844 0.0
C1261 C 0.40071 0.87813 0.00979 0.0
C1262 C 0.42001 0.82052 0.00729 0.0
C1263 C 0.37565 0.8296 0.00733 0.0
H1264 H 0.92711 0.32512 0.00553 0.0
H1265 H 0.99135 0.40614 1.00119 0.0
H1266 H 0.91897 0.42934 1.00108 0.0
H1267 H 0.83705 0.42672 1.00217 0.0
H1268 H 0.77345 0.34546 0.00688 0.0
H1269 H 0.84573 0.32249 0.0069 0.0
C1270 C 0.92533 0.34785 1.00454 0.0
C1271 C 0.96468 0.36379 1.00335 0.0
C1272 C 0.88357 0.36113 1.00456 0.0
C1273 C 0.96164 0.39327 1.00214 0.0
C1274 C 0.92021 0.40662 1.00207 0.0
C1275 C 0.83902 0.404 1.00321 0.0
C1276 C 0.79975 0.38794 1.00451 0.0
C1277 C 0.8809 0.39077 1.00327 0.0
C1278 C 0.80301 0.35847 0.00588 0.0
C1279 C 0.84441 0.34522 0.00588 0.0
H1280 H 0.69424 0.67499 0.75105 0.0
H1281 H 0.74434 0.59003 0.75132 0.0
H1282 H 0.66841 0.5718 0.75134 0.0
H1283 H 0.58743 0.57986 0.75126 0.0
H1284 H 0.53771 0.66494 0.75164 0.0
H1285 H 0.61357 0.68304 0.7514 0.0
C1286 C 0.68859 0.65249 0.75109 0.0
C1287 C 0.72507 0.63398 0.75115 0.0
C1288 C 0.64476 0.64207 0.75123 0.0
C1289 C 0.71699 0.60484 0.75131 0.0
C1290 C 0.6735 0.59434 0.7513 0.0
C1291 C 0.59318 0.60235 0.75127 0.0
C1292 C 0.55677 0.62093 0.75145 0.0
C1293 C 0.63709 0.61275 0.75125 0.0
C1294 C 0.56497 0.65006 0.75155 0.0
C1295 C 0.60843 0.6605 0.75139 0.0
H1296 H 0.04574 0.14319 0.75303 0.0
H1297 H 0.09927 0.05912 0.75632 0.0
H1298 H 0.17485 0.07805 0.75628 0.0
H1299 H 0.22582 0.11839 0.75538 0.0
H1300 H 0.17229 0.20247 0.75226 0.0
H1301 H 0.09671 0.18354 0.75217 0.0
C1302 C 0.0739 0.12896 0.75373 0.0
C1303 C 0.0667 0.09974 0.75466 0.0
C1304 C 0.11734 0.13998 0.75374 0.0
C1305 C 0.10371 0.08169 0.75558 0.0
C1306 C 0.14701 0.09249 0.75557 0.0
C1307 C 0.19767 0.13262 0.75467 0.0
C1308 C 0.20487 0.16184 0.75382 0.0
C1309 C 0.15422 0.1216 0.75465 0.0
C1310 C 0.16786 0.1799 0.75293 0.0
C1311 C 0.12456 0.16909 0.75287 0.0
H1312 H 0.58907 0.17572 0.99826 0.0
H1313 H 0.52631 0.09451 0.0061 0.0
H1314 H 0.59903 0.07189 0.0071 0.0
H1315 H 0.68055 0.07503 0.00619 0.0
H1316 H 0.74342 0.1562 0.99826 0.0
H1317 H 0.67067 0.17881 0.99684 0.0
C1318 C 0.59127 0.15308 1.00016 0.0
C1319 C 0.5522 0.13691 1.00213 0.0
C1320 C 0.63329 0.14012 1.00072 0.0
C1321 C 0.55576 0.10755 1.00454 0.0
C1322 C 0.59739 0.09454 1.00513 0.0
C1323 C 0.67838 0.09766 1.00411 0.0
C1324 C 0.71747 0.11383 1.00237 0.0
C1325 C 0.63638 0.11061 1.0033 0.0
C1326 C 0.71393 0.14316 0.99966 0.0
C1327 C 0.6723 0.15617 0.99885 0.0
H1328 H 0.22912 0.6564 1.00198 0.0
H1329 H 0.2036 0.56715 1.00504 0.0
H1330 H 0.12372 0.57581 1.00445 0.0
H1331 H 0.06103 0.60846 1.00331 0.0
H1332 H 0.08568 0.69775 1.00022 0.0
H1333 H 0.1659 0.68926 1.00054 0.0
C1334 C 0.20609 0.63885 1.00251 0.0
C1335 C 0.22245 0.61118 1.00358 0.0
C1336 C 0.15999 0.64394 1.00215 0.0
C1337 C 0.19206 0.58868 1.00422 0.0
C1338 C 0.14628 0.59358 1.00389 0.0
C1339 C 0.08387 0.6261 1.00267 0.0
C1340 C 0.06728 0.65369 1.00176 0.0
C1341 C 0.12989 0.6211 1.00289 0.0
C1342 C 0.09748 0.67628 1.00093 0.0
C1343 C 0.1434 0.67145 1.00113 0.0
H1344 H 0.43207 0.9265 0.75304 0.0
H1345 H 0.48816 0.84309 0.7557 0.0
H1346 H 0.41356 0.82272 0.75509 0.0
H1347 H 0.33206 0.82854 0.75429 0.0
H1348 H 0.27656 0.91216 0.75194 0.0
H1349 H 0.35108 0.93231 0.75191 0.0
C1350 C 0.42804 0.90386 0.75345 0.0
C1351 C 0.46576 0.88642 0.75444 0.0
C1352 C 0.38502 0.89223 0.75317 0.0
C1353 C 0.45978 0.85709 0.75496 0.0
C1354 C 0.41707 0.84538 0.75461 0.0
C1355 C 0.33626 0.85116 0.75372 0.0
C1356 C 0.29862 0.86873 0.75315 0.0
C1357 C 0.3794 0.86274 0.75379 0.0
C1358 C 0.30481 0.89804 0.75244 0.0
C1359 C 0.34749 0.90965 0.75241 0.0
H1360 H 0.84093 0.33529 0.76164 0.0
H1361 H 0.78306 0.41802 0.75598 0.0
H1362 H 0.85722 0.43901 0.75517 0.0
H1363 H 0.93897 0.43393 0.75588 0.0
H1364 H 0.99604 0.35089 0.76122 0.0
H1365 H 0.92201 0.33021 0.76234 0.0
C1366 C 0.84447 0.35792 0.76025 0.0
C1367 C 0.80637 0.37498 0.75888 0.0
C1368 C 0.88725 0.3699 0.75972 0.0
C1369 C 0.81174 0.4043 0.75705 0.0
C1370 C 0.85421 0.41637 0.75659 0.0
C1371 C 0.9352 0.41133 0.75732 0.0
C1372 C 0.97319 0.39409 0.75845 0.0
C1373 C 0.89226 0.39939 0.75789 0.0
C1374 C 0.96755 0.36478 0.76027 0.0
C1375 C 0.92513 0.35284 0.76093 0.0
H1376 H 0.32862 0.41572 0.50502 0.0
H1377 H 0.28165 0.33002 0.50729 0.0
H1378 H 0.35823 0.31304 0.50838 0.0
H1379 H 0.43889 0.32239 0.50868 0.0
H1380 H 0.48556 0.40817 0.50633 0.0
H1381 H 0.40905 0.42505 0.50532 0.0
C1382 C 0.33508 0.39332 0.50573 0.0
C1383 C 0.29925 0.37424 0.50606 0.0
C1384 C 0.37931 0.38362 0.50637 0.0
C1385 C 0.30844 0.34527 0.50701 0.0
C1386 C 0.35231 0.33548 0.50764 0.0
C1387 C 0.43235 0.34477 0.50798 0.0
C1388 C 0.46813 0.3639 0.5076 0.0
C1389 C 0.38806 0.35445 0.50735 0.0
C1390 C 0.45885 0.39287 0.50664 0.0
C1391 C 0.415 0.40261 0.50605 0.0
H1392 H 0.97055 0.88855 0.50427 0.0
H1393 H 0.92771 0.80202 0.50791 0.0
H1394 H 0.85012 0.81699 0.50861 0.0
H1395 H 0.79427 0.85439 0.50792 0.0
H1396 H 0.83628 0.94102 0.50383 0.0
H1397 H 0.91422 0.92621 0.5036 0.0
C1398 C 0.94426 0.87295 0.50525 0.0
C1399 C 0.95513 0.84417 0.50604 0.0
C1400 C 0.89949 0.8817 0.50556 0.0
C1401 C 0.9205 0.8243 0.50725 0.0
C1402 C 0.87602 0.83283 0.50766 0.0
C1403 C 0.8204 0.8701 0.50703 0.0
C1404 C 0.80927 0.89881 0.50592 0.0
C1405 C 0.86512 0.86145 0.50679 0.0
C1406 C 0.84375 0.91879 0.5047 0.0
C1407 C 0.88839 0.91033 0.50456 0.0
H1408 H 0.58797 0.07739 0.25732 0.0
H1409 H 0.54062 0.16292 0.25362 0.0
H1410 H 0.61693 0.18014 0.25253 0.0
H1411 H 0.69729 0.17123 0.25262 0.0
H1412 H 0.74527 0.08588 0.25623 0.0
H1413 H 0.66883 0.06846 0.25734 0.0
C1414 C 0.59433 0.09979 0.25628 0.0
C1415 C 0.55841 0.11875 0.25556 0.0
C1416 C 0.63854 0.10968 0.25563 0.0
C1417 C 0.56744 0.14775 0.25419 0.0
C1418 C 0.61118 0.15769 0.25357 0.0
C1419 C 0.6911 0.14881 0.25364 0.0
C1420 C 0.72713 0.12996 0.25434 0.0
C1421 C 0.647 0.13888 0.25427 0.0
C1422 C 0.71829 0.10095 0.25566 0.0
C1423 C 0.67451 0.09092 0.25631 0.0
H1424 H 0.05584 0.63805 0.25503 0.0
H1425 H 0.09721 0.55132 0.25938 0.0
H1426 H 0.17505 0.56585 0.25977 0.0
H1427 H 0.23151 0.60293 0.25857 0.0
H1428 H 0.19083 0.68976 0.25431 0.0
H1429 H 0.11269 0.67537 0.25422 0.0
C1430 C 0.08185 0.62231 0.25608 0.0
C1431 C 0.07053 0.59361 0.25714 0.0
C1432 C 0.12674 0.6308 0.25631 0.0
C1433 C 0.1048 0.57354 0.25853 0.0
C1434 C 0.14942 0.58182 0.25875 0.0
C1435 C 0.20562 0.61877 0.25764 0.0
C1436 C 0.21716 0.6474 0.25642 0.0
C1437 C 0.16078 0.61037 0.2576 0.0
C1438 C 0.18301 0.66757 0.25527 0.0
C1439 C 0.13826 0.65936 0.2552 0.0
H1440 H 0.6907 0.57483 0.5075 0.0
H1441 H 0.75506 0.65596 0.50598 0.0
H1442 H 0.68292 0.67919 0.50631 0.0
H1443 H 0.60119 0.67684 0.50698 0.0
H1444 H 0.5365 0.59584 0.50786 0.0
H1445 H 0.60869 0.57249 0.50783 0.0
C1446 C 0.68895 0.59758 0.50725 0.0
C1447 C 0.72845 0.6135 0.50672 0.0
C1448 C 0.64711 0.61098 0.50732 0.0
C1449 C 0.72536 0.64303 0.50634 0.0
C1450 C 0.68402 0.65644 0.50655 0.0
C1451 C 0.60285 0.65409 0.50719 0.0
C1452 C 0.56331 0.63823 0.50744 0.0
C1453 C 0.64463 0.64066 0.50704 0.0
C1454 C 0.56627 0.6087 0.50763 0.0
C1455 C 0.60764 0.59524 0.50763 0.0
H1456 H 0.0877 0.17834 0.50621 0.0
H1457 H 0.03088 0.09502 0.50409 0.0
H1458 H 0.10507 0.07445 0.50414 0.0
H1459 H 0.18654 0.07983 0.50503 0.0
H1460 H 0.24336 0.16315 0.50693 0.0
H1461 H 0.16917 0.18372 0.50672 0.0
C1462 C 0.09152 0.15569 0.50573 0.0
C1463 C 0.05357 0.13836 0.50516 0.0
C1464 C 0.1345 0.14385 0.50574 0.0
C1465 C 0.05934 0.109 0.50453 0.0
C1466 C 0.10187 0.09713 0.50457 0.0
C1467 C 0.18272 0.10247 0.50539 0.0
C1468 C 0.22067 0.1198 0.50602 0.0
C1469 C 0.13974 0.11432 0.50522 0.0
C1470 C 0.2149 0.14917 0.50643 0.0
C1471 C 0.17237 0.16104 0.50632 0.0
loop_
_geom_bond_atom_site_label_1
_geom_bond_atom_site_label_2
_geom_bond_distance
_geom_bond_site_symmetry_2
_ccdc_geom_bond_type
C0 O2 1.247 . S
C0 O4 1.258 . S
C1 O8 1.247 . S
C1 O9 1.258 . S
O2 C0 1.247 . S
O2 Zn3 2.028 . S
Zn3 O2 2.028 . S
Zn3 O7 2.035 . S
Zn3 O9 2.035 . S
Zn3 O10 2.028 . S
O4 C0 1.258 . S
O4 Zn5 2.035 . S
Zn5 O4 2.035 . S
Zn5 O6 2.028 . S
Zn5 O8 2.028 . S
Zn5 O11 2.035 . S
O6 Zn5 2.028 . S
O6 C12 1.247 . S
O7 Zn3 2.035 . S
O7 C12 1.258 . S
O8 C1 1.247 . S
O8 Zn5 2.028 . S
O9 C1 1.258 . S
O9 Zn3 2.035 . S
O10 Zn3 2.028 . S
O10 C13 1.247 . S
O11 Zn5 2.035 . S
O11 C13 1.258 . S
C12 O6 1.247 . S
C12 O7 1.258 . S
C13 O10 1.247 . S
C13 O11 1.258 . S
C14 O16 1.247 . S
C14 O18 1.258 . S
C15 O22 1.247 . S
C15 O23 1.258 . S
O16 C14 1.247 . S
O16 Zn17 2.028 . S
Zn17 O16 2.028 . S
Zn17 O21 2.035 . S
Zn17 O23 2.035 . S
Zn17 O24 2.028 . S
O18 C14 1.258 . S
O18 Zn19 2.035 . S
Zn19 O18 2.035 . S
Zn19 O20 2.028 . S
Zn19 O22 2.028 . S
Zn19 O25 2.035 . S
O20 Zn19 2.028 . S
O20 C26 1.247 . S
O21 Zn17 2.035 . S
O21 C26 1.258 . S
O22 C15 1.247 . S
O22 Zn19 2.028 . S
O23 C15 1.258 . S
O23 Zn17 2.035 . S
O24 Zn17 2.028 . S
O24 C27 1.247 . S
O25 Zn19 2.035 . S
O25 C27 1.258 . S
C26 O20 1.247 . S
C26 O21 1.258 . S
C27 O24 1.247 . S
C27 O25 1.258 . S
C28 O30 1.247 . S
C28 O32 1.258 . S
C29 O36 1.247 . S
C29 O37 1.258 . S
O30 C28 1.247 . S
O30 Zn31 2.028 . S
Zn31 O30 2.028 . S
Zn31 O35 2.035 . S
Zn31 O37 2.035 1_556 S
Zn31 O38 2.025 1_556 S
O32 C28 1.258 . S
O32 Zn33 2.035 1_556 S
Zn33 O32 2.035 1_554 S
Zn33 O34 2.028 1_554 S
Zn33 O36 2.028 . S
Zn33 O39 2.035 . S
O34 Zn33 2.028 1_556 S
O34 C40 1.247 . S
O35 Zn31 2.035 . S
O35 C40 1.258 . S
O36 C29 1.247 . S
O36 Zn33 2.028 . S
O37 C29 1.258 . S
O37 Zn31 2.035 1_554 S
O38 Zn31 2.025 1_554 S
O38 C41 1.248 . S
O39 Zn33 2.035 . S
O39 C41 1.258 . S
C40 O34 1.247 . S
C40 O35 1.258 . S
C41 O38 1.248 . S
C41 O39 1.258 . S
C42 O44 1.247 . S
C42 O46 1.258 . S
C43 O50 1.248 . S
C43 O51 1.258 . S
O44 C42 1.247 . S
O44 Zn45 2.028 1_556 S
Zn45 O44 2.028 1_554 S
Zn45 O49 2.035 1_554 S
Zn45 O51 2.035 . S
Zn45 O52 2.028 . S
O46 C42 1.258 . S
O46 Zn47 2.035 . S
Zn47 O46 2.035 . S
Zn47 O48 2.028 . S
Zn47 O50 2.025 1_556 S
Zn47 O53 2.035 1_556 S
O48 Zn47 2.028 . S
O48 C54 1.247 . S
O49 Zn45 2.035 1_556 S
O49 C54 1.258 . S
O50 C43 1.248 . S
O50 Zn47 2.025 1_554 S
O51 C43 1.258 . S
O51 Zn45 2.035 . S
O52 Zn45 2.028 . S
O52 C55 1.247 . S
O53 Zn47 2.035 1_554 S
O53 C55 1.258 . S
C54 O48 1.247 . S
C54 O49 1.258 . S
C55 O52 1.247 . S
C55 O53 1.258 . S
C56 O58 1.247 . S
C56 O60 1.258 . S
C57 O64 1.247 . S
C57 O65 1.258 . S
O58 C56 1.247 . S
O58 Zn59 2.028 . S
Zn59 O58 2.028 . S
Zn59 O63 2.035 . S
Zn59 O65 2.035 . S
Zn59 O66 2.028 . S
O60 C56 1.258 . S
O60 Zn61 2.035 . S
Zn61 O60 2.035 . S
Zn61 O62 2.028 . S
Zn61 O64 2.028 . S
Zn61 O67 2.035 . S
O62 Zn61 2.028 . S
O62 C68 1.247 . S
O63 Zn59 2.035 . S
O63 C68 1.258 . S
O64 C57 1.247 . S
O64 Zn61 2.028 . S
O65 C57 1.258 . S
O65 Zn59 2.035 . S
O66 Zn59 2.028 . S
O66 C69 1.247 . S
O67 Zn61 2.035 . S
O67 C69 1.258 . S
C68 O62 1.247 . S
C68 O63 1.258 . S
C69 O66 1.247 . S
C69 O67 1.258 . S
C70 O72 1.247 . S
C70 O74 1.258 . S
C71 O78 1.247 . S
C71 O79 1.258 . S
O72 C70 1.247 . S
O72 Zn73 2.028 . S
Zn73 O72 2.028 . S
Zn73 O77 2.035 . S
Zn73 O79 2.035 . S
Zn73 O80 2.028 . S
O74 C70 1.258 . S
O74 Zn75 2.035 . S
Zn75 O74 2.035 . S
Zn75 O76 2.028 . S
Zn75 O78 2.028 . S
Zn75 O81 2.035 . S
O76 Zn75 2.028 . S
O76 C82 1.247 . S
O77 Zn73 2.035 . S
O77 C82 1.258 . S
O78 C71 1.247 . S
O78 Zn75 2.028 . S
O79 C71 1.258 . S
O79 Zn73 2.035 . S
O80 Zn73 2.028 . S
O80 C83 1.247 . S
O81 Zn75 2.035 . S
O81 C83 1.258 . S
C82 O76 1.247 . S
C82 O77 1.258 . S
C83 O80 1.247 . S
C83 O81 1.258 . S
C84 O86 1.247 . S
C84 O88 1.258 . S
C85 O92 1.247 . S
C85 O93 1.258 . S
O86 C84 1.247 . S
O86 Zn87 2.028 1_554 S
Zn87 O86 2.028 1_556 S
Zn87 O91 2.035 1_556 S
Zn87 O93 2.035 . S
Zn87 O94 2.028 . S
O88 C84 1.258 . S
O88 Zn89 2.035 . S
Zn89 O88 2.035 . S
Zn89 O90 2.028 . S
Zn89 O92 2.028 1_554 S
Zn89 O95 2.034 1_554 S
O90 Zn89 2.028 . S
O90 C96 1.247 . S
O91 Zn87 2.035 1_554 S
O91 C96 1.258 . S
O92 C85 1.247 . S
O92 Zn89 2.028 1_556 S
O93 C85 1.258 . S
O93 Zn87 2.035 . S
O94 Zn87 2.028 . S
O94 C97 1.247 . S
O95 Zn89 2.034 1_556 S
O95 C97 1.259 . S
C96 O90 1.247 . S
C96 O91 1.258 . S
C97 O94 1.247 . S
C97 O95 1.259 . S
C98 O100 1.247 . S
C98 O102 1.258 . S
C99 O106 1.247 . S
C99 O107 1.258 . S
O100 C98 1.247 . S
O100 Zn101 2.028 . S
Zn101 O100 2.028 . S
Zn101 O105 2.035 . S
Zn101 O107 2.035 1_556 S
Zn101 O108 2.028 1_556 S
O102 C98 1.258 . S
O102 Zn103 2.035 1_556 S
Zn103 O102 2.035 1_554 S
Zn103 O104 2.026 1_554 S
Zn103 O106 2.028 . S
Zn103 O109 2.035 . S
O104 Zn103 2.026 1_556 S
O104 C110 1.248 . S
O105 Zn101 2.035 . S
O105 C110 1.258 . S
O106 C99 1.247 . S
O106 Zn103 2.028 . S
O107 C99 1.258 . S
O107 Zn101 2.035 1_554 S
O108 Zn101 2.028 1_554 S
O108 C111 1.247 . S
O109 Zn103 2.035 . S
O109 C111 1.258 . S
C110 O104 1.248 . S
C110 O105 1.258 . S
C111 O108 1.247 . S
C111 O109 1.258 . S
C112 O114 1.247 . S
C112 O116 1.258 . S
C113 O120 1.247 . S
C113 O121 1.258 . S
O114 C112 1.247 . S
O114 Zn115 2.028 . S
Zn115 O114 2.028 . S
Zn115 O119 2.035 . S
Zn115 O121 2.035 . S
Zn115 O122 2.028 . S
O116 C112 1.258 . S
O116 Zn117 2.035 . S
Zn117 O116 2.035 . S
Zn117 O118 2.028 . S
Zn117 O120 2.028 . S
Zn117 O123 2.035 . S
O118 Zn117 2.028 . S
O118 C124 1.247 . S
O119 Zn115 2.035 . S
O119 C124 1.258 . S
O120 C113 1.247 . S
O120 Zn117 2.028 . S
O121 C113 1.258 . S
O121 Zn115 2.035 . S
O122 Zn115 2.028 . S
O122 C125 1.247 . S
O123 Zn117 2.035 . S
O123 C125 1.258 . S
C124 O118 1.247 . S
C124 O119 1.258 . S
C125 O122 1.247 . S
C125 O123 1.258 . S
C126 O128 1.247 . S
C126 O130 1.258 . S
C127 O134 1.247 . S
C127 O135 1.258 . S
O128 C126 1.247 . S
O128 Zn129 2.028 . S
Zn129 O128 2.028 . S
Zn129 O133 2.035 . S
Zn129 O135 2.035 . S
Zn129 O136 2.028 . S
O130 C126 1.258 . S
O130 Zn131 2.035 . S
Zn131 O130 2.035 . S
Zn131 O132 2.028 . S
Zn131 O134 2.028 . S
Zn131 O137 2.035 . S
O132 Zn131 2.028 . S
O132 C138 1.247 . S
O133 Zn129 2.035 . S
O133 C138 1.258 . S
O134 C127 1.247 . S
O134 Zn131 2.028 . S
O135 C127 1.258 . S
O135 Zn129 2.035 . S
O136 Zn129 2.028 . S
O136 C139 1.247 . S
O137 Zn131 2.035 . S
O137 C139 1.258 . S
C138 O132 1.247 . S
C138 O133 1.258 . S
C139 O136 1.247 . S
C139 O137 1.258 . S
C140 O142 1.247 . S
C140 O144 1.258 . S
C141 O148 1.247 . S
C141 O149 1.258 . S
O142 C140 1.247 . S
O142 Zn143 2.028 . S
Zn143 O142 2.028 . S
Zn143 O147 2.035 . S
Zn143 O149 2.035 . S
Zn143 O150 2.028 . S
O144 C140 1.258 . S
O144 Zn145 2.035 . S
Zn145 O144 2.035 . S
Zn145 O146 2.028 . S
Zn145 O148 2.028 . S
Zn145 O151 2.035 . S
O146 Zn145 2.028 . S
O146 C152 1.247 . S
O147 Zn143 2.035 . S
O147 C152 1.258 . S
O148 C141 1.247 . S
O148 Zn145 2.028 . S
O149 C141 1.258 . S
O149 Zn143 2.035 . S
O150 Zn143 2.028 . S
O150 C153 1.247 . S
O151 Zn145 2.035 . S
O151 C153 1.258 . S
C152 O146 1.247 . S
C152 O147 1.258 . S
C153 O150 1.247 . S
C153 O151 1.258 . S
C154 O156 1.247 . S
C154 O158 1.258 . S
C155 O162 1.247 . S
C155 O163 1.258 . S
O156 C154 1.247 . S
O156 Zn157 2.028 . S
Zn157 O156 2.028 . S
Zn157 O161 2.035 . S
Zn157 O163 2.035 . S
Zn157 O164 2.028 . S
O158 C154 1.258 . S
O158 Zn159 2.035 . S
Zn159 O158 2.035 . S
Zn159 O160 2.028 . S
Zn159 O162 2.028 . S
Zn159 O165 2.035 . S
O160 Zn159 2.028 . S
O160 C166 1.247 . S
O161 Zn157 2.035 . S
O161 C166 1.258 . S
O162 C155 1.247 . S
O162 Zn159 2.028 . S
O163 C155 1.258 . S
O163 Zn157 2.035 . S
O164 Zn157 2.028 . S
O164 C167 1.247 . S
O165 Zn159 2.035 . S
O165 C167 1.258 . S
C166 O160 1.247 . S
C166 O161 1.258 . S
C167 O164 1.247 . S
C167 O165 1.258 . S
C168 O170 1.247 . S
C168 O172 1.258 . S
C169 O176 1.247 . S
C169 O177 1.258 . S
O170 C168 1.247 . S
O170 Zn171 2.028 . S
Zn171 O170 2.028 . S
Zn171 O175 2.035 . S
Zn171 O177 2.035 . S
Zn171 O178 2.028 . S
O172 C168 1.258 . S
O172 Zn173 2.035 . S
Zn173 O172 2.035 . S
Zn173 O174 2.028 . S
Zn173 O176 2.028 . S
Zn173 O179 2.035 . S
O174 Zn173 2.028 . S
O174 C180 1.247 . S
O175 Zn171 2.035 . S
O175 C180 1.258 . S
O176 C169 1.247 . S
O176 Zn173 2.028 . S
O177 C169 1.258 . S
O177 Zn171 2.035 . S
O178 Zn171 2.028 . S
O178 C181 1.247 . S
O179 Zn173 2.035 . S
O179 C181 1.258 . S
C180 O174 1.247 . S
C180 O175 1.258 . S
C181 O178 1.247 . S
C181 O179 1.258 . S
C182 O184 1.247 . S
C182 O186 1.258 . S
C183 O190 1.247 . S
C183 O191 1.258 . S
O184 C182 1.247 . S
O184 Zn185 2.028 . S
Zn185 O184 2.028 . S
Zn185 O189 2.035 . S
Zn185 O191 2.035 . S
Zn185 O192 2.028 . S
O186 C182 1.258 . S
O186 Zn187 2.035 . S
Zn187 O186 2.035 . S
Zn187 O188 2.028 . S
Zn187 O190 2.028 . S
Zn187 O193 2.035 . S
O188 Zn187 2.028 . S
O188 C194 1.247 . S
O189 Zn185 2.035 . S
O189 C194 1.258 . S
O190 C183 1.247 . S
O190 Zn187 2.028 . S
O191 C183 1.258 . S
O191 Zn185 2.035 . S
O192 Zn185 2.028 . S
O192 C195 1.247 . S
O193 Zn187 2.035 . S
O193 C195 1.258 . S
C194 O188 1.247 . S
C194 O189 1.258 . S
C195 O192 1.247 . S
C195 O193 1.258 . S
C196 O198 1.247 . S
C196 O200 1.258 . S
C197 O204 1.247 . S
C197 O205 1.258 . S
O198 C196 1.247 . S
O198 Zn199 2.028 . S
Zn199 O198 2.028 . S
Zn199 O203 2.035 . S
Zn199 O205 2.035 . S
Zn199 O206 2.028 . S
O200 C196 1.258 . S
O200 Zn201 2.035 . S
Zn201 O200 2.035 . S
Zn201 O202 2.028 . S
Zn201 O204 2.028 . S
Zn201 O207 2.035 . S
O202 Zn201 2.028 . S
O202 C208 1.247 . S
O203 Zn199 2.035 . S
O203 C208 1.258 . S
O204 C197 1.247 . S
O204 Zn201 2.028 . S
O205 C197 1.258 . S
O205 Zn199 2.035 . S
O206 Zn199 2.028 . S
O206 C209 1.247 . S
O207 Zn201 2.035 . S
O207 C209 1.258 . S
C208 O202 1.247 . S
C208 O203 1.258 . S
C209 O206 1.247 . S
C209 O207 1.258 . S
C210 O212 1.247 . S
C210 O214 1.258 . S
C211 O218 1.247 . S
C211 O219 1.258 . S
O212 C210 1.247 . S
O212 Zn213 2.028 . S
Zn213 O212 2.028 . S
Zn213 O217 2.035 . S
Zn213 O219 2.035 . S
Zn213 O220 2.028 . S
O214 C210 1.258 . S
O214 Zn215 2.035 . S
Zn215 O214 2.035 . S
Zn215 O216 2.028 . S
Zn215 O218 2.028 . S
Zn215 O221 2.035 . S
O216 Zn215 2.028 . S
O216 C222 1.247 . S
O217 Zn213 2.035 . S
O217 C222 1.258 . S
O218 C211 1.247 . S
O218 Zn215 2.028 . S
O219 C211 1.258 . S
O219 Zn213 2.035 . S
O220 Zn213 2.028 . S
O220 C223 1.247 . S
O221 Zn215 2.035 . S
O221 C223 1.258 . S
C222 O216 1.247 . S
C222 O217 1.258 . S
C223 O220 1.247 . S
C223 O221 1.258 . S
C224 O226 1.247 . S
C224 O228 1.258 . S
C225 O232 1.247 . S
C225 O233 1.258 . S
O226 C224 1.247 . S
O226 Zn227 2.028 . S
Zn227 O226 2.028 . S
Zn227 O231 2.035 . S
Zn227 O233 2.035 . S
Zn227 O234 2.028 . S
O228 C224 1.258 . S
O228 Zn229 2.035 . S
Zn229 O228 2.035 . S
Zn229 O230 2.028 . S
Zn229 O232 2.028 . S
Zn229 O235 2.035 . S
O230 Zn229 2.028 . S
O230 C236 1.247 . S
O231 Zn227 2.035 . S
O231 C236 1.258 . S
O232 C225 1.247 . S
O232 Zn229 2.028 . S
O233 C225 1.258 . S
O233 Zn227 2.035 . S
O234 Zn227 2.028 . S
O234 C237 1.247 . S
O235 Zn229 2.035 . S
O235 C237 1.258 . S
C236 O230 1.247 . S
C236 O231 1.258 . S
C237 O234 1.247 . S
C237 O235 1.258 . S
C238 O240 1.247 . S
C238 O242 1.258 . S
C239 O246 1.247 . S
C239 O247 1.258 . S
O240 C238 1.247 . S
O240 Zn241 2.028 . S
Zn241 O240 2.028 . S
Zn241 O245 2.035 . S
Zn241 O247 2.035 . S
Zn241 O248 2.028 . S
O242 C238 1.258 . S
O242 Zn243 2.035 . S
Zn243 O242 2.035 . S
Zn243 O244 2.028 . S
Zn243 O246 2.028 . S
Zn243 O249 2.035 . S
O244 Zn243 2.028 . S
O244 C250 1.247 . S
O245 Zn241 2.035 . S
O245 C250 1.258 . S
O246 C239 1.247 . S
O246 Zn243 2.028 . S
O247 C239 1.258 . S
O247 Zn241 2.035 . S
O248 Zn241 2.028 . S
O248 C251 1.247 . S
O249 Zn243 2.035 . S
O249 C251 1.258 . S
C250 O244 1.247 . S
C250 O245 1.258 . S
C251 O248 1.247 . S
C251 O249 1.258 . S
C252 O254 1.247 . S
C252 O256 1.258 . S
C253 O260 1.247 . S
C253 O261 1.258 . S
O254 C252 1.247 . S
O254 Zn255 2.028 . S
Zn255 O254 2.028 . S
Zn255 O259 2.035 . S
Zn255 O261 2.035 . S
Zn255 O262 2.028 . S
O256 C252 1.258 . S
O256 Zn257 2.035 . S
Zn257 O256 2.035 . S
Zn257 O258 2.028 . S
Zn257 O260 2.028 . S
Zn257 O263 2.035 . S
O258 Zn257 2.028 . S
O258 C264 1.247 . S
O259 Zn255 2.035 . S
O259 C264 1.258 . S
O260 C253 1.247 . S
O260 Zn257 2.028 . S
O261 C253 1.258 . S
O261 Zn255 2.035 . S
O262 Zn255 2.028 . S
O262 C265 1.247 . S
O263 Zn257 2.035 . S
O263 C265 1.258 . S
C264 O258 1.247 . S
C264 O259 1.258 . S
C265 O262 1.247 . S
C265 O263 1.258 . S
C266 O268 1.247 . S
C266 O270 1.258 . S
C267 O274 1.247 . S
C267 O275 1.258 . S
O268 C266 1.247 . S
O268 Zn269 2.028 . S
Zn269 O268 2.028 . S
Zn269 O273 2.035 . S
Zn269 O275 2.035 . S
Zn269 O276 2.028 . S
O270 C266 1.258 . S
O270 Zn271 2.035 . S
Zn271 O270 2.035 . S
Zn271 O272 2.028 . S
Zn271 O274 2.028 . S
Zn271 O277 2.035 . S
O272 Zn271 2.028 . S
O272 C278 1.247 . S
O273 Zn269 2.035 . S
O273 C278 1.258 . S
O274 C267 1.247 . S
O274 Zn271 2.028 . S
O275 C267 1.258 . S
O275 Zn269 2.035 . S
O276 Zn269 2.028 . S
O276 C279 1.247 . S
O277 Zn271 2.035 . S
O277 C279 1.258 . S
C278 O272 1.247 . S
C278 O273 1.258 . S
C279 O276 1.247 . S
C279 O277 1.258 . S
C280 O282 1.247 . S
C280 O284 1.258 . S
C281 O288 1.247 . S
C281 O289 1.258 . S
O282 C280 1.247 . S
O282 Zn283 2.028 . S
Zn283 O282 2.028 . S
Zn283 O287 2.035 . S
Zn283 O289 2.035 . S
Zn283 O290 2.028 . S
O284 C280 1.258 . S
O284 Zn285 2.035 . S
Zn285 O284 2.035 . S
Zn285 O286 2.028 . S
Zn285 O288 2.028 . S
Zn285 O291 2.035 . S
O286 Zn285 2.028 . S
O286 C292 1.247 . S
O287 Zn283 2.035 . S
O287 C292 1.258 . S
O288 C281 1.247 . S
O288 Zn285 2.028 . S
O289 C281 1.258 . S
O289 Zn283 2.035 . S
O290 Zn283 2.028 . S
O290 C293 1.247 . S
O291 Zn285 2.035 . S
O291 C293 1.258 . S
C292 O286 1.247 . S
C292 O287 1.258 . S
C293 O290 1.247 . S
C293 O291 1.258 . S
C294 O296 1.247 . S
C294 O298 1.258 . S
C295 O302 1.247 . S
C295 O303 1.258 . S
O296 C294 1.247 . S
O296 Zn297 2.028 . S
Zn297 O296 2.028 . S
Zn297 O301 2.035 . S
Zn297 O303 2.035 . S
Zn297 O304 2.028 . S
O298 C294 1.258 . S
O298 Zn299 2.035 . S
Zn299 O298 2.035 . S
Zn299 O300 2.028 . S
Zn299 O302 2.028 . S
Zn299 O305 2.035 . S
O300 Zn299 2.028 . S
O300 C306 1.247 . S
O301 Zn297 2.035 . S
O301 C306 1.258 . S
O302 C295 1.247 . S
O302 Zn299 2.028 . S
O303 C295 1.258 . S
O303 Zn297 2.035 . S
O304 Zn297 2.028 . S
O304 C307 1.247 . S
O305 Zn299 2.035 . S
O305 C307 1.258 . S
C306 O300 1.247 . S
C306 O301 1.258 . S
C307 O304 1.247 . S
C307 O305 1.258 . S
C308 O310 1.247 . S
C308 O312 1.258 . S
C309 O316 1.247 . S
C309 O317 1.258 . S
O310 C308 1.247 . S
O310 Zn311 2.028 . S
Zn311 O310 2.028 . S
Zn311 O315 2.035 . S
Zn311 O317 2.035 . S
Zn311 O318 2.028 . S
O312 C308 1.258 . S
O312 Zn313 2.035 . S
Zn313 O312 2.035 . S
Zn313 O314 2.028 . S
Zn313 O316 2.028 . S
Zn313 O319 2.035 . S
O314 Zn313 2.028 . S
O314 C320 1.247 . S
O315 Zn311 2.035 . S
O315 C320 1.258 . S
O316 C309 1.247 . S
O316 Zn313 2.028 . S
O317 C309 1.258 . S
O317 Zn311 2.035 . S
O318 Zn311 2.028 . S
O318 C321 1.247 . S
O319 Zn313 2.035 . S
O319 C321 1.258 . S
C320 O314 1.247 . S
C320 O315 1.258 . S
C321 O318 1.247 . S
C321 O319 1.258 . S
C322 O324 1.247 . S
C322 O326 1.258 . S
C323 O330 1.247 . S
C323 O331 1.258 . S
O324 C322 1.247 . S
O324 Zn325 2.028 . S
Zn325 O324 2.028 . S
Zn325 O329 2.035 . S
Zn325 O331 2.035 . S
Zn325 O332 2.028 . S
O326 C322 1.258 . S
O326 Zn327 2.035 . S
Zn327 O326 2.035 . S
Zn327 O328 2.028 . S
Zn327 O330 2.028 . S
Zn327 O333 2.035 . S
O328 Zn327 2.028 . S
O328 C334 1.247 . S
O329 Zn325 2.035 . S
O329 C334 1.258 . S
O330 C323 1.247 . S
O330 Zn327 2.028 . S
O331 C323 1.258 . S
O331 Zn325 2.035 . S
O332 Zn325 2.028 . S
O332 C335 1.247 . S
O333 Zn327 2.035 . S
O333 C335 1.258 . S
C334 O328 1.247 . S
C334 O329 1.258 . S
C335 O332 1.247 . S
C335 O333 1.258 . S
C336 O338 1.247 . S
C336 O340 1.258 . S
C337 O344 1.247 . S
C337 O345 1.258 . S
O338 C336 1.247 . S
O338 Zn339 2.028 . S
Zn339 O338 2.028 . S
Zn339 O343 2.035 . S
Zn339 O345 2.035 . S
Zn339 O346 2.028 . S
O340 C336 1.258 . S
O340 Zn341 2.035 . S
Zn341 O340 2.035 . S
Zn341 O342 2.028 . S
Zn341 O344 2.028 . S
Zn341 O347 2.035 . S
O342 Zn341 2.028 . S
O342 C348 1.247 . S
O343 Zn339 2.035 . S
O343 C348 1.258 . S
O344 C337 1.247 . S
O344 Zn341 2.028 . S
O345 C337 1.258 . S
O345 Zn339 2.035 . S
O346 Zn339 2.028 . S
O346 C349 1.247 . S
O347 Zn341 2.035 . S
O347 C349 1.258 . S
C348 O342 1.247 . S
C348 O343 1.258 . S
C349 O346 1.247 . S
C349 O347 1.258 . S
C350 O352 1.247 . S
C350 O354 1.258 . S
C351 O358 1.247 . S
C351 O359 1.258 . S
O352 C350 1.247 . S
O352 Zn353 2.028 . S
Zn353 O352 2.028 . S
Zn353 O357 2.035 . S
Zn353 O359 2.035 . S
Zn353 O360 2.028 . S
O354 C350 1.258 . S
O354 Zn355 2.035 . S
Zn355 O354 2.035 . S
Zn355 O356 2.028 . S
Zn355 O358 2.028 . S
Zn355 O361 2.035 . S
O356 Zn355 2.028 . S
O356 C362 1.247 . S
O357 Zn353 2.035 . S
O357 C362 1.258 . S
O358 C351 1.247 . S
O358 Zn355 2.028 . S
O359 C351 1.258 . S
O359 Zn353 2.035 . S
O360 Zn353 2.028 . S
O360 C363 1.247 . S
O361 Zn355 2.035 . S
O361 C363 1.258 . S
C362 O356 1.247 . S
C362 O357 1.258 . S
C363 O360 1.247 . S
C363 O361 1.258 . S
C364 O366 1.247 . S
C364 O368 1.258 . S
C365 O372 1.247 . S
C365 O373 1.258 . S
O366 C364 1.247 . S
O366 Zn367 2.028 1_554 S
Zn367 O366 2.028 1_556 S
Zn367 O371 2.034 1_556 S
Zn367 O373 2.035 . S
Zn367 O374 2.028 . S
O368 C364 1.258 . S
O368 Zn369 2.035 . S
Zn369 O368 2.035 . S
Zn369 O370 2.028 . S
Zn369 O372 2.028 1_554 S
Zn369 O375 2.032 1_554 S
O370 Zn369 2.028 . S
O370 C376 1.247 . S
O371 Zn367 2.034 1_554 S
O371 C376 1.259 . S
O372 C365 1.247 . S
O372 Zn369 2.028 1_556 S
O373 C365 1.258 . S
O373 Zn367 2.035 . S
O374 Zn367 2.028 . S
O374 C377 1.247 . S
O375 Zn369 2.032 1_556 S
O375 C377 1.261 . S
C376 O370 1.247 . S
C376 O371 1.259 . S
C377 O374 1.247 . S
C377 O375 1.261 . S
C378 O380 1.247 . S
C378 O382 1.258 . S
C379 O386 1.247 . S
C379 O387 1.258 . S
O380 C378 1.247 . S
O380 Zn381 2.028 1_554 S
Zn381 O380 2.028 1_556 S
Zn381 O385 2.034 1_556 S
Zn381 O387 2.035 . S
Zn381 O388 2.028 . S
O382 C378 1.258 . S
O382 Zn383 2.035 . S
Zn383 O382 2.035 . S
Zn383 O384 2.028 . S
Zn383 O386 2.028 1_554 S
Zn383 O389 2.033 1_554 S
O384 Zn383 2.028 . S
O384 C390 1.247 . S
O385 Zn381 2.034 1_554 S
O385 C390 1.259 . S
O386 C379 1.247 . S
O386 Zn383 2.028 1_556 S
O387 C379 1.258 . S
O387 Zn381 2.035 . S
O388 Zn381 2.028 . S
O388 C391 1.247 . S
O389 Zn383 2.033 1_556 S
O389 C391 1.261 . S
C390 O384 1.247 . S
C390 O385 1.259 . S
C391 O388 1.247 . S
C391 O389 1.261 . S
C392 O394 1.247 . S
C392 O396 1.258 . S
C393 O400 1.247 . S
C393 O401 1.258 . S
O394 C392 1.247 . S
O394 Zn395 2.028 . S
Zn395 O394 2.028 . S
Zn395 O399 2.035 . S
Zn395 O401 2.035 . S
Zn395 O402 2.028 . S
O396 C392 1.258 . S
O396 Zn397 2.035 . S
Zn397 O396 2.035 . S
Zn397 O398 2.028 . S
Zn397 O400 2.028 . S
Zn397 O403 2.035 . S
O398 Zn397 2.028 . S
O398 C404 1.247 . S
O399 Zn395 2.035 . S
O399 C404 1.258 . S
O400 C393 1.247 . S
O400 Zn397 2.028 . S
O401 C393 1.258 . S
O401 Zn395 2.035 . S
O402 Zn395 2.028 . S
O402 C405 1.247 . S
O403 Zn397 2.035 . S
O403 C405 1.258 . S
C404 O398 1.247 . S
C404 O399 1.258 . S
C405 O402 1.247 . S
C405 O403 1.258 . S
C406 O408 1.247 . S
C406 O410 1.258 . S
C407 O414 1.247 . S
C407 O415 1.258 . S
O408 C406 1.247 . S
O408 Zn409 2.028 . S
Zn409 O408 2.028 . S
Zn409 O413 2.035 . S
Zn409 O415 2.035 . S
Zn409 O416 2.028 . S
O410 C406 1.258 . S
O410 Zn411 2.035 . S
Zn411 O410 2.035 . S
Zn411 O412 2.028 . S
Zn411 O414 2.028 . S
Zn411 O417 2.035 . S
O412 Zn411 2.028 . S
O412 C418 1.247 . S
O413 Zn409 2.035 . S
O413 C418 1.258 . S
O414 C407 1.247 . S
O414 Zn411 2.028 . S
O415 C407 1.258 . S
O415 Zn409 2.035 . S
O416 Zn409 2.028 . S
O416 C419 1.247 . S
O417 Zn411 2.035 . S
O417 C419 1.258 . S
C418 O412 1.247 . S
C418 O413 1.258 . S
C419 O416 1.247 . S
C419 O417 1.258 . S
C420 O422 1.247 . S
C420 O424 1.258 . S
C421 O428 1.247 . S
C421 O429 1.258 . S
O422 C420 1.247 . S
O422 Zn423 2.028 1_554 S
Zn423 O422 2.028 1_556 S
Zn423 O427 2.035 1_556 S
Zn423 O429 2.035 . S
Zn423 O430 2.028 . S
O424 C420 1.258 . S
O424 Zn425 2.035 . S
Zn425 O424 2.035 . S
Zn425 O426 2.028 . S
Zn425 O428 2.028 1_554 S
Zn425 O431 2.034 1_554 S
O426 Zn425 2.028 . S
O426 C432 1.247 . S
O427 Zn423 2.035 1_554 S
O427 C432 1.258 . S
O428 C421 1.247 . S
O428 Zn425 2.028 1_556 S
O429 C421 1.258 . S
O429 Zn423 2.035 . S
O430 Zn423 2.028 . S
O430 C433 1.247 . S
O431 Zn425 2.034 1_556 S
O431 C433 1.259 . S
C432 O426 1.247 . S
C432 O427 1.258 . S
C433 O430 1.247 . S
C433 O431 1.259 . S
C434 O436 1.247 . S
C434 O438 1.258 . S
C435 O442 1.247 . S
C435 O443 1.258 . S
O436 C434 1.247 . S
O436 Zn437 2.028 1_554 S
Zn437 O436 2.028 1_556 S
Zn437 O441 2.032 1_556 S
Zn437 O443 2.035 . S
Zn437 O444 2.028 . S
O438 C434 1.258 . S
O438 Zn439 2.035 . S
Zn439 O438 2.035 . S
Zn439 O440 2.028 . S
Zn439 O442 2.028 1_554 S
Zn439 O445 2.034 1_554 S
O440 Zn439 2.028 . S
O440 C446 1.247 . S
O441 Zn437 2.032 1_554 S
O441 C446 1.261 . S
O442 C435 1.247 . S
O442 Zn439 2.028 1_556 S
O443 C435 1.258 . S
O443 Zn437 2.035 . S
O444 Zn437 2.028 . S
O444 C447 1.247 . S
O445 Zn439 2.034 1_556 S
O445 C447 1.259 . S
C446 O440 1.247 . S
C446 O441 1.261 . S
C447 O444 1.247 . S
C447 O445 1.259 . S
H448 C454 0.930 . S
H449 C457 0.930 . S
H450 C458 0.930 . S
H451 C459 0.930 . S
H452 C462 0.930 . S
H453 C463 0.930 . S
C454 H448 0.930 . S
C454 C455 1.355 . S
C454 C456 1.415 . S
C455 C454 1.355 . S
C455 C457 1.419 . S
C456 C454 1.415 . S
C456 C461 1.425 . S
C456 C463 1.409 . S
C457 H449 0.930 . S
C457 C455 1.419 . S
C457 C458 1.362 . S
C458 H450 0.930 . S
C458 C457 1.362 . S
C458 C461 1.409 . S
C459 H451 0.930 . S
C459 C460 1.355 . S
C459 C461 1.415 . S
C460 C459 1.355 . S
C460 C462 1.419 . S
C461 C456 1.425 . S
C461 C458 1.409 . S
C461 C459 1.415 . S
C462 H452 0.930 . S
C462 C460 1.419 . S
C462 C463 1.362 . S
C463 H453 0.930 . S
C463 C456 1.409 . S
C463 C462 1.362 . S
H464 C470 0.930 . S
H465 C473 0.930 . S
H466 C474 0.930 . S
H467 C475 0.930 . S
H468 C478 0.930 . S
H469 C479 0.930 . S
C470 H464 0.930 . S
C470 C471 1.355 . S
C470 C472 1.415 . S
C471 C470 1.355 . S
C471 C473 1.419 . S
C472 C470 1.415 . S
C472 C477 1.425 . S
C472 C479 1.409 . S
C473 H465 0.930 . S
C473 C471 1.419 . S
C473 C474 1.362 . S
C474 H466 0.930 . S
C474 C473 1.362 . S
C474 C477 1.409 . S
C475 H467 0.930 . S
C475 C476 1.355 . S
C475 C477 1.415 . S
C476 C475 1.355 . S
C476 C478 1.419 . S
C477 C472 1.425 . S
C477 C474 1.409 . S
C477 C475 1.415 . S
C478 H468 0.930 . S
C478 C476 1.419 . S
C478 C479 1.362 . S
C479 H469 0.930 . S
C479 C472 1.409 . S
C479 C478 1.362 . S
H480 C486 0.930 . S
H481 C489 0.930 . S
H482 C490 0.930 . S
H483 C491 0.930 . S
H484 C494 0.930 . S
H485 C495 0.930 . S
C486 H480 0.930 . S
C486 C487 1.355 . S
C486 C488 1.415 . S
C487 C486 1.355 . S
C487 C489 1.419 . S
C488 C486 1.415 . S
C488 C493 1.425 . S
C488 C495 1.409 . S
C489 H481 0.930 . S
C489 C487 1.419 . S
C489 C490 1.362 . S
C490 H482 0.930 . S
C490 C489 1.362 . S
C490 C493 1.409 . S
C491 H483 0.930 . S
C491 C492 1.355 . S
C491 C493 1.415 . S
C492 C491 1.355 . S
C492 C494 1.419 . S
C493 C488 1.425 . S
C493 C490 1.409 . S
C493 C491 1.415 . S
C494 H484 0.930 . S
C494 C492 1.419 . S
C494 C495 1.362 . S
C495 H485 0.930 . S
C495 C488 1.409 . S
C495 C494 1.362 . S
H496 C502 0.930 . S
H497 C505 0.930 . S
H498 C506 0.930 . S
H499 C507 0.930 . S
H500 C510 0.930 . S
H501 C511 0.930 . S
C502 H496 0.930 . S
C502 C503 1.355 . S
C502 C504 1.415 . S
C503 C502 1.355 . S
C503 C505 1.419 . S
C504 C502 1.415 . S
C504 C509 1.425 . S
C504 C511 1.409 . S
C505 H497 0.930 . S
C505 C503 1.419 . S
C505 C506 1.362 . S
C506 H498 0.930 . S
C506 C505 1.362 . S
C506 C509 1.409 . S
C507 H499 0.930 . S
C507 C508 1.355 . S
C507 C509 1.415 . S
C508 C507 1.355 . S
C508 C510 1.419 . S
C509 C504 1.425 . S
C509 C506 1.409 . S
C509 C507 1.415 . S
C510 H500 0.930 . S
C510 C508 1.419 . S
C510 C511 1.362 . S
C511 H501 0.930 . S
C511 C504 1.409 . S
C511 C510 1.362 . S
H512 C518 0.930 . S
H513 C521 0.930 . S
H514 C522 0.930 . S
H515 C523 0.930 . S
H516 C526 0.930 . S
H517 C527 0.930 . S
C518 H512 0.930 . S
C518 C519 1.355 . S
C518 C520 1.415 . S
C519 C518 1.355 . S
C519 C521 1.419 . S
C520 C518 1.415 . S
C520 C525 1.425 . S
C520 C527 1.409 . S
C521 H513 0.930 . S
C521 C519 1.419 . S
C521 C522 1.362 . S
C522 H514 0.930 . S
C522 C521 1.362 . S
C522 C525 1.409 . S
C523 H515 0.930 . S
C523 C524 1.355 . S
C523 C525 1.415 . S
C524 C523 1.355 . S
C524 C526 1.419 . S
C525 C520 1.425 . S
C525 C522 1.409 . S
C525 C523 1.415 . S
C526 H516 0.930 . S
C526 C524 1.419 . S
C526 C527 1.362 . S
C527 H517 0.930 . S
C527 C520 1.409 . S
C527 C526 1.362 . S
H528 C534 0.930 . S
H529 C537 0.930 . S
H530 C538 0.930 . S
H531 C539 0.930 . S
H532 C542 0.930 . S
H533 C543 0.930 . S
C534 H528 0.930 . S
C534 C535 1.355 . S
C534 C536 1.415 . S
C535 C534 1.355 . S
C535 C537 1.419 . S
C536 C534 1.415 . S
C536 C541 1.425 . S
C536 C543 1.409 . S
C537 H529 0.930 . S
C537 C535 1.419 . S
C537 C538 1.362 . S
C538 H530 0.930 . S
C538 C537 1.362 . S
C538 C541 1.409 . S
C539 H531 0.930 . S
C539 C540 1.355 . S
C539 C541 1.415 . S
C540 C539 1.355 . S
C540 C542 1.419 . S
C541 C536 1.425 . S
C541 C538 1.409 . S
C541 C539 1.415 . S
C542 H532 0.930 . S
C542 C540 1.419 . S
C542 C543 1.362 . S
C543 H533 0.930 . S
C543 C536 1.409 . S
C543 C542 1.362 . S
H544 C550 0.930 . S
H545 C553 0.930 . S
H546 C554 0.930 . S
H547 C555 0.930 . S
H548 C558 0.930 . S
H549 C559 0.930 . S
C550 H544 0.930 . S
C550 C551 1.355 . S
C550 C552 1.415 . S
C551 C550 1.355 . S
C551 C553 1.419 . S
C552 C550 1.415 . S
C552 C557 1.425 . S
C552 C559 1.409 . S
C553 H545 0.930 . S
C553 C551 1.419 . S
C553 C554 1.362 . S
C554 H546 0.930 . S
C554 C553 1.362 . S
C554 C557 1.409 . S
C555 H547 0.930 . S
C555 C556 1.355 . S
C555 C557 1.415 . S
C556 C555 1.355 . S
C556 C558 1.419 . S
C557 C552 1.425 . S
C557 C554 1.409 . S
C557 C555 1.415 . S
C558 H548 0.930 . S
C558 C556 1.419 . S
C558 C559 1.362 . S
C559 H549 0.930 . S
C559 C552 1.409 . S
C559 C558 1.362 . S
H560 C566 0.930 . S
H561 C569 0.930 . S
H562 C570 0.930 . S
H563 C571 0.930 . S
H564 C574 0.930 . S
H565 C575 0.930 . S
C566 H560 0.930 . S
C566 C567 1.355 . S
C566 C568 1.415 . S
C567 C566 1.355 . S
C567 C569 1.419 . S
C568 C566 1.415 . S
C568 C573 1.425 . S
C568 C575 1.409 . S
C569 H561 0.930 . S
C569 C567 1.419 . S
C569 C570 1.362 . S
C570 H562 0.930 . S
C570 C569 1.362 . S
C570 C573 1.409 . S
C571 H563 0.930 . S
C571 C572 1.355 . S
C571 C573 1.415 . S
C572 C571 1.355 . S
C572 C574 1.419 . S
C573 C568 1.425 . S
C573 C570 1.409 . S
C573 C571 1.415 . S
C574 H564 0.930 . S
C574 C572 1.419 . S
C574 C575 1.362 . S
C575 H565 0.930 . S
C575 C568 1.409 . S
C575 C574 1.362 . S
H576 C582 0.930 . S
H577 C585 0.930 . S
H578 C586 0.930 . S
H579 C587 0.930 . S
H580 C590 0.930 . S
H581 C591 0.930 . S
C582 H576 0.930 . S
C582 C583 1.355 . S
C582 C584 1.415 . S
C583 C582 1.355 . S
C583 C585 1.419 . S
C584 C582 1.415 . S
C584 C589 1.425 . S
C584 C591 1.409 . S
C585 H577 0.930 . S
C585 C583 1.419 . S
C585 C586 1.362 . S
C586 H578 0.930 . S
C586 C585 1.362 . S
C586 C589 1.409 . S
C587 H579 0.930 . S
C587 C588 1.355 . S
C587 C589 1.415 . S
C588 C587 1.355 . S
C588 C590 1.419 . S
C589 C584 1.425 . S
C589 C586 1.409 . S
C589 C587 1.415 . S
C590 H580 0.930 . S
C590 C588 1.419 . S
C590 C591 1.362 . S
C591 H581 0.930 . S
C591 C584 1.409 . S
C591 C590 1.362 . S
H592 C598 0.930 . S
H593 C601 0.930 . S
H594 C602 0.930 . S
H595 C603 0.930 . S
H596 C606 0.930 . S
H597 C607 0.930 . S
C598 H592 0.930 . S
C598 C599 1.355 . S
C598 C600 1.415 . S
C599 C598 1.355 . S
C599 C601 1.419 . S
C600 C598 1.415 . S
C600 C605 1.425 . S
C600 C607 1.409 . S
C601 H593 0.930 . S
C601 C599 1.419 . S
C601 C602 1.362 . S
C602 H594 0.930 . S
C602 C601 1.362 . S
C602 C605 1.409 . S
C603 H595 0.930 . S
C603 C604 1.355 . S
C603 C605 1.415 . S
C604 C603 1.355 . S
C604 C606 1.419 . S
C605 C600 1.425 . S
C605 C602 1.409 . S
C605 C603 1.415 . S
C606 H596 0.930 . S
C606 C604 1.419 . S
C606 C607 1.362 . S
C607 H597 0.930 . S
C607 C600 1.409 . S
C607 C606 1.362 . S
H608 C614 0.930 . S
H609 C617 0.930 . S
H610 C618 0.930 . S
H611 C619 0.930 . S
H612 C622 0.930 . S
H613 C623 0.930 . S
C614 H608 0.930 . S
C614 C615 1.355 . S
C614 C616 1.415 . S
C615 C614 1.355 . S
C615 C617 1.419 . S
C616 C614 1.415 . S
C616 C621 1.425 . S
C616 C623 1.409 . S
C617 H609 0.930 . S
C617 C615 1.419 . S
C617 C618 1.362 . S
C618 H610 0.930 . S
C618 C617 1.362 . S
C618 C621 1.409 . S
C619 H611 0.930 . S
C619 C620 1.355 . S
C619 C621 1.415 . S
C620 C619 1.355 . S
C620 C622 1.419 . S
C621 C616 1.425 . S
C621 C618 1.409 . S
C621 C619 1.415 . S
C622 H612 0.930 . S
C622 C620 1.419 . S
C622 C623 1.362 . S
C623 H613 0.930 . S
C623 C616 1.409 . S
C623 C622 1.362 . S
H624 C630 0.930 . S
H625 C633 0.930 . S
H626 C634 0.930 . S
H627 C635 0.930 . S
H628 C638 0.930 . S
H629 C639 0.930 . S
C630 H624 0.930 . S
C630 C631 1.355 . S
C630 C632 1.415 . S
C631 C630 1.355 . S
C631 C633 1.419 . S
C632 C630 1.415 . S
C632 C637 1.425 . S
C632 C639 1.409 . S
C633 H625 0.930 . S
C633 C631 1.419 . S
C633 C634 1.362 . S
C634 H626 0.930 . S
C634 C633 1.362 . S
C634 C637 1.409 . S
C635 H627 0.930 . S
C635 C636 1.355 . S
C635 C637 1.415 . S
C636 C635 1.355 . S
C636 C638 1.419 . S
C637 C632 1.425 . S
C637 C634 1.409 . S
C637 C635 1.415 . S
C638 H628 0.930 . S
C638 C636 1.419 . S
C638 C639 1.362 . S
C639 H629 0.930 . S
C639 C632 1.409 . S
C639 C638 1.362 . S
H640 C646 0.930 . S
H641 C649 0.930 . S
H642 C650 0.930 . S
H643 C651 0.930 . S
H644 C654 0.930 . S
H645 C655 0.930 . S
C646 H640 0.930 . S
C646 C647 1.355 . S
C646 C648 1.415 . S
C647 C646 1.355 . S
C647 C649 1.419 . S
C648 C646 1.415 . S
C648 C653 1.425 . S
C648 C655 1.409 . S
C649 H641 0.930 . S
C649 C647 1.419 . S
C649 C650 1.362 . S
C650 H642 0.930 . S
C650 C649 1.362 . S
C650 C653 1.409 . S
C651 H643 0.930 . S
C651 C652 1.355 . S
C651 C653 1.415 . S
C652 C651 1.355 . S
C652 C654 1.419 . S
C653 C648 1.425 . S
C653 C650 1.409 . S
C653 C651 1.415 . S
C654 H644 0.930 . S
C654 C652 1.419 . S
C654 C655 1.362 . S
C655 H645 0.930 . S
C655 C648 1.409 . S
C655 C654 1.362 . S
H656 C662 0.930 . S
H657 C665 0.930 . S
H658 C666 0.930 . S
H659 C667 0.930 . S
H660 C670 0.930 . S
H661 C671 0.930 . S
C662 H656 0.930 . S
C662 C663 1.355 . S
C662 C664 1.415 . S
C663 C662 1.355 . S
C663 C665 1.419 . S
C664 C662 1.415 . S
C664 C669 1.425 . S
C664 C671 1.409 . S
C665 H657 0.930 . S
C665 C663 1.419 . S
C665 C666 1.362 . S
C666 H658 0.930 . S
C666 C665 1.362 . S
C666 C669 1.409 . S
C667 H659 0.930 . S
C667 C668 1.355 . S
C667 C669 1.415 . S
C668 C667 1.355 . S
C668 C670 1.419 . S
C669 C664 1.425 . S
C669 C666 1.409 . S
C669 C667 1.415 . S
C670 H660 0.930 . S
C670 C668 1.419 . S
C670 C671 1.362 . S
C671 H661 0.930 . S
C671 C664 1.409 . S
C671 C670 1.362 . S
H672 C678 0.930 . S
H673 C681 0.930 . S
H674 C682 0.930 . S
H675 C683 0.930 . S
H676 C686 0.930 . S
H677 C687 0.930 . S
C678 H672 0.930 . S
C678 C679 1.355 . S
C678 C680 1.415 . S
C679 C678 1.355 . S
C679 C681 1.419 . S
C680 C678 1.415 . S
C680 C685 1.425 . S
C680 C687 1.409 . S
C681 H673 0.930 . S
C681 C679 1.419 . S
C681 C682 1.362 . S
C682 H674 0.930 . S
C682 C681 1.362 . S
C682 C685 1.409 . S
C683 H675 0.930 . S
C683 C684 1.355 . S
C683 C685 1.415 . S
C684 C683 1.355 . S
C684 C686 1.419 . S
C685 C680 1.425 . S
C685 C682 1.409 . S
C685 C683 1.415 . S
C686 H676 0.930 . S
C686 C684 1.419 . S
C686 C687 1.362 . S
C687 H677 0.930 . S
C687 C680 1.409 . S
C687 C686 1.362 . S
H688 C694 0.930 . S
H689 C697 0.930 . S
H690 C698 0.930 . S
H691 C699 0.930 . S
H692 C702 0.930 . S
H693 C703 0.930 . S
C694 H688 0.930 . S
C694 C695 1.355 . S
C694 C696 1.415 . S
C695 C694 1.355 . S
C695 C697 1.419 . S
C696 C694 1.415 . S
C696 C701 1.425 . S
C696 C703 1.409 . S
C697 H689 0.930 . S
C697 C695 1.419 . S
C697 C698 1.362 . S
C698 H690 0.930 . S
C698 C697 1.362 . S
C698 C701 1.409 . S
C699 H691 0.930 . S
C699 C700 1.355 . S
C699 C701 1.415 . S
C700 C699 1.355 . S
C700 C702 1.419 . S
C701 C696 1.425 . S
C701 C698 1.409 . S
C701 C699 1.415 . S
C702 H692 0.930 . S
C702 C700 1.419 . S
C702 C703 1.362 . S
C703 H693 0.930 . S
C703 C696 1.409 . S
C703 C702 1.362 . S
H704 C710 0.930 . S
H705 C713 0.930 . S
H706 C714 0.930 . S
H707 C715 0.930 . S
H708 C718 0.930 . S
H709 C719 0.930 . S
C710 H704 0.930 . S
C710 C711 1.355 . S
C710 C712 1.415 . S
C711 C710 1.355 . S
C711 C713 1.419 . S
C712 C710 1.415 . S
C712 C717 1.425 1_655 S
C712 C719 1.409 . S
C713 H705 0.930 . S
C713 C711 1.419 . S
C713 C714 1.362 1_655 S
C714 H706 0.930 . S
C714 C713 1.362 1_455 S
C714 C717 1.409 . S
C715 H707 0.930 . S
C715 C716 1.355 . S
C715 C717 1.415 . S
C716 C715 1.355 . S
C716 C718 1.419 . S
C717 C712 1.425 1_455 S
C717 C714 1.409 . S
C717 C715 1.415 . S
C718 H708 0.930 . S
C718 C716 1.419 . S
C718 C719 1.362 1_455 S
C719 H709 0.930 . S
C719 C712 1.409 . S
C719 C718 1.362 1_655 S
H720 C726 0.930 . S
H721 C729 0.930 . S
H722 C730 0.930 . S
H723 C731 0.930 . S
H724 C734 0.930 . S
H725 C735 0.930 . S
C726 H720 0.930 . S
C726 C727 1.355 . S
C726 C728 1.415 1_565 S
C727 C726 1.355 . S
C727 C729 1.419 . S
C728 C726 1.415 1_545 S
C728 C733 1.425 1_545 S
C728 C735 1.409 . S
C729 H721 0.930 . S
C729 C727 1.419 . S
C729 C730 1.362 . S
C730 H722 0.930 . S
C730 C729 1.362 . S
C730 C733 1.409 . S
C731 H723 0.930 . S
C731 C732 1.355 . S
C731 C733 1.415 1_545 S
C732 C731 1.355 . S
C732 C734 1.419 . S
C733 C728 1.425 1_565 S
C733 C730 1.409 . S
C733 C731 1.415 1_565 S
C734 H724 0.930 . S
C734 C732 1.419 . S
C734 C735 1.362 . S
C735 H725 0.930 . S
C735 C728 1.409 . S
C735 C734 1.362 . S
H736 C742 0.930 1_655 S
H737 C745 0.930 . S
H738 C746 0.930 . S
H739 C747 0.930 1_455 S
H740 C750 0.930 . S
H741 C751 0.930 . S
C742 H736 0.930 1_455 S
C742 C743 1.355 . S
C742 C744 1.415 1_455 S
C743 C742 1.355 . S
C743 C745 1.419 1_556 S
C744 C742 1.415 1_655 S
C744 C749 1.425 1_666 S
C744 C751 1.409 . S
C745 H737 0.930 . S
C745 C743 1.419 1_554 S
C745 C746 1.362 1_565 S
C746 H738 0.930 . S
C746 C745 1.362 1_545 S
C746 C749 1.409 . S
C747 H739 0.930 1_655 S
C747 C748 1.355 . S
C747 C749 1.415 1_655 S
C748 C747 1.355 . S
C748 C750 1.419 1_554 S
C749 C744 1.425 1_444 S
C749 C746 1.409 . S
C749 C747 1.415 1_455 S
C750 H740 0.930 . S
C750 C748 1.419 1_556 S
C750 C751 1.362 1_545 S
C751 H741 0.930 . S
C751 C744 1.409 . S
C751 C750 1.362 1_565 S
H752 C758 0.929 . S
H753 C761 0.930 . S
H754 C762 0.932 . S
H755 C763 0.929 . S
H756 C766 0.930 . S
H757 C767 0.932 . S
C758 H752 0.929 . S
C758 C759 1.355 . S
C758 C760 1.414 1_556 S
C759 C758 1.355 . S
C759 C761 1.419 . S
C760 C758 1.414 1_554 S
C760 C765 1.425 1_554 S
C760 C767 1.409 . S
C761 H753 0.930 . S
C761 C759 1.419 . S
C761 C762 1.362 . S
C762 H754 0.932 . S
C762 C761 1.362 . S
C762 C765 1.409 . S
C763 H755 0.929 . S
C763 C764 1.355 . S
C763 C765 1.414 1_554 S
C764 C763 1.355 . S
C764 C766 1.419 . S
C765 C760 1.425 1_556 S
C765 C762 1.409 . S
C765 C763 1.414 1_556 S
C766 H756 0.930 . S
C766 C764 1.419 . S
C766 C767 1.362 . S
C767 H757 0.932 . S
C767 C760 1.409 . S
C767 C766 1.362 . S
H768 C774 0.930 . S
H769 C777 0.930 . S
H770 C778 0.930 . S
H771 C779 0.930 . S
H772 C782 0.930 . S
H773 C783 0.930 . S
C774 H768 0.930 . S
C774 C775 1.355 . S
C774 C776 1.415 . S
C775 C774 1.355 . S
C775 C777 1.419 . S
C776 C774 1.415 . S
C776 C781 1.425 1_655 S
C776 C783 1.409 . S
C777 H769 0.930 . S
C777 C775 1.419 . S
C777 C778 1.362 1_655 S
C778 H770 0.930 . S
C778 C777 1.362 1_455 S
C778 C781 1.409 . S
C779 H771 0.930 . S
C779 C780 1.355 . S
C779 C781 1.415 . S
C780 C779 1.355 . S
C780 C782 1.419 . S
C781 C776 1.425 1_455 S
C781 C778 1.409 . S
C781 C779 1.415 . S
C782 H772 0.930 . S
C782 C780 1.419 . S
C782 C783 1.362 1_455 S
C783 H773 0.930 . S
C783 C776 1.409 . S
C783 C782 1.362 1_655 S
H784 C790 0.930 . S
H785 C793 0.930 . S
H786 C794 0.930 . S
H787 C795 0.930 . S
H788 C798 0.930 . S
H789 C799 0.930 . S
C790 H784 0.930 . S
C790 C791 1.355 . S
C790 C792 1.415 . S
C791 C790 1.355 . S
C791 C793 1.419 . S
C792 C790 1.415 . S
C792 C797 1.425 1_565 S
C792 C799 1.409 . S
C793 H785 0.930 . S
C793 C791 1.419 . S
C793 C794 1.362 1_565 S
C794 H786 0.930 . S
C794 C793 1.362 1_545 S
C794 C797 1.409 . S
C795 H787 0.930 . S
C795 C796 1.355 . S
C795 C797 1.415 . S
C796 C795 1.355 . S
C796 C798 1.419 . S
C797 C792 1.425 1_545 S
C797 C794 1.409 . S
C797 C795 1.415 . S
C798 H788 0.930 . S
C798 C796 1.419 . S
C798 C799 1.362 1_545 S
C799 H789 0.930 . S
C799 C792 1.409 . S
C799 C798 1.362 1_565 S
H800 C806 0.930 . S
H801 C809 0.930 . S
H802 C810 0.930 . S
H803 C811 0.930 . S
H804 C814 0.930 . S
H805 C815 0.930 . S
C806 H800 0.930 . S
C806 C807 1.353 1_556 S
C806 C808 1.415 . S
C807 C806 1.353 1_554 S
C807 C809 1.421 . S
C808 C806 1.415 . S
C808 C813 1.425 1_556 S
C808 C815 1.409 . S
C809 H801 0.930 . S
C809 C807 1.421 . S
C809 C810 1.362 . S
C810 H802 0.930 . S
C810 C809 1.362 . S
C810 C813 1.409 . S
C811 H803 0.930 . S
C811 C812 1.354 1_554 S
C811 C813 1.415 . S
C812 C811 1.354 1_556 S
C812 C814 1.421 . S
C813 C808 1.425 1_554 S
C813 C810 1.409 . S
C813 C811 1.415 . S
C814 H804 0.930 . S
C814 C812 1.421 . S
C814 C815 1.362 . S
C815 H805 0.930 . S
C815 C808 1.409 . S
C815 C814 1.362 . S
H816 C822 0.930 . S
H817 C825 0.930 . S
H818 C826 0.930 . S
H819 C827 0.930 . S
H820 C830 0.930 . S
H821 C831 0.930 . S
C822 H816 0.930 . S
C822 C823 1.355 . S
C822 C824 1.415 . S
C823 C822 1.355 . S
C823 C825 1.419 . S
C824 C822 1.415 . S
C824 C829 1.425 . S
C824 C831 1.409 . S
C825 H817 0.930 . S
C825 C823 1.419 . S
C825 C826 1.362 . S
C826 H818 0.930 . S
C826 C825 1.362 . S
C826 C829 1.409 . S
C827 H819 0.930 . S
C827 C828 1.355 . S
C827 C829 1.415 . S
C828 C827 1.355 . S
C828 C830 1.419 . S
C829 C824 1.425 . S
C829 C826 1.409 . S
C829 C827 1.415 . S
C830 H820 0.930 . S
C830 C828 1.419 . S
C830 C831 1.362 . S
C831 H821 0.930 . S
C831 C824 1.409 . S
C831 C830 1.362 . S
H832 C838 0.930 . S
H833 C841 0.930 . S
H834 C842 0.930 . S
H835 C843 0.930 . S
H836 C846 0.930 . S
H837 C847 0.930 . S
C838 H832 0.930 . S
C838 C839 1.355 . S
C838 C840 1.415 . S
C839 C838 1.355 . S
C839 C841 1.419 . S
C840 C838 1.415 . S
C840 C845 1.425 1_655 S
C840 C847 1.409 1_655 S
C841 H833 0.930 . S
C841 C839 1.419 . S
C841 C842 1.362 . S
C842 H834 0.930 . S
C842 C841 1.362 . S
C842 C845 1.409 1_655 S
C843 H835 0.930 . S
C843 C844 1.355 . S
C843 C845 1.415 . S
C844 C843 1.355 . S
C844 C846 1.419 . S
C845 C840 1.425 1_455 S
C845 C842 1.409 1_455 S
C845 C843 1.415 . S
C846 H836 0.930 . S
C846 C844 1.419 . S
C846 C847 1.362 . S
C847 H837 0.930 . S
C847 C840 1.409 1_455 S
C847 C846 1.362 . S
H848 C854 0.930 . S
H849 C857 0.930 . S
H850 C858 0.930 . S
H851 C859 0.930 . S
H852 C862 0.930 . S
H853 C863 0.930 . S
C854 H848 0.930 . S
C854 C855 1.355 . S
C854 C856 1.415 . S
C855 C854 1.355 . S
C855 C857 1.419 . S
C856 C854 1.415 . S
C856 C861 1.425 . S
C856 C863 1.409 . S
C857 H849 0.930 . S
C857 C855 1.419 . S
C857 C858 1.362 . S
C858 H850 0.930 . S
C858 C857 1.362 . S
C858 C861 1.409 . S
C859 H851 0.930 . S
C859 C860 1.355 . S
C859 C861 1.415 . S
C860 C859 1.355 . S
C860 C862 1.419 . S
C861 C856 1.425 . S
C861 C858 1.409 . S
C861 C859 1.415 . S
C862 H852 0.930 . S
C862 C860 1.419 . S
C862 C863 1.362 . S
C863 H853 0.930 . S
C863 C856 1.409 . S
C863 C862 1.362 . S
H864 C870 0.930 . S
H865 C873 0.930 . S
H866 C874 0.930 . S
H867 C875 0.930 . S
H868 C878 0.930 . S
H869 C879 0.930 . S
C870 H864 0.930 . S
C870 C871 1.355 . S
C870 C872 1.415 . S
C871 C870 1.355 . S
C871 C873 1.419 . S
C872 C870 1.415 . S
C872 C877 1.425 . S
C872 C879 1.409 . S
C873 H865 0.930 . S
C873 C871 1.419 . S
C873 C874 1.362 . S
C874 H866 0.930 . S
C874 C873 1.362 . S
C874 C877 1.409 . S
C875 H867 0.930 . S
C875 C876 1.355 . S
C875 C877 1.415 . S
C876 C875 1.355 . S
C876 C878 1.419 . S
C877 C872 1.425 . S
C877 C874 1.409 . S
C877 C875 1.415 . S
C878 H868 0.930 . S
C878 C876 1.419 . S
C878 C879 1.362 . S
C879 H869 0.930 . S
C879 C872 1.409 . S
C879 C878 1.362 . S
H880 C886 0.930 . S
H881 C889 0.930 . S
H882 C890 0.930 . S
H883 C891 0.930 . S
H884 C894 0.930 . S
H885 C895 0.930 . S
C886 H880 0.930 . S
C886 C887 1.355 . S
C886 C888 1.415 . S
C887 C886 1.355 . S
C887 C889 1.419 . S
C888 C886 1.415 . S
C888 C893 1.425 . S
C888 C895 1.409 . S
C889 H881 0.930 . S
C889 C887 1.419 . S
C889 C890 1.362 . S
C890 H882 0.930 . S
C890 C889 1.362 . S
C890 C893 1.409 . S
C891 H883 0.930 . S
C891 C892 1.355 . S
C891 C893 1.415 . S
C892 C891 1.355 . S
C892 C894 1.419 . S
C893 C888 1.425 . S
C893 C890 1.409 . S
C893 C891 1.415 . S
C894 H884 0.930 . S
C894 C892 1.419 . S
C894 C895 1.362 . S
C895 H885 0.930 . S
C895 C888 1.409 . S
C895 C894 1.362 . S
H896 C902 0.930 . S
H897 C905 0.930 . S
H898 C906 0.930 . S
H899 C907 0.930 . S
H900 C910 0.930 . S
H901 C911 0.930 . S
C902 H896 0.930 . S
C902 C903 1.355 . S
C902 C904 1.415 . S
C903 C902 1.355 . S
C903 C905 1.419 . S
C904 C902 1.415 . S
C904 C909 1.425 . S
C904 C911 1.409 . S
C905 H897 0.930 . S
C905 C903 1.419 . S
C905 C906 1.362 . S
C906 H898 0.930 . S
C906 C905 1.362 . S
C906 C909 1.409 . S
C907 H899 0.930 . S
C907 C908 1.355 . S
C907 C909 1.415 . S
C908 C907 1.355 . S
C908 C910 1.419 . S
C909 C904 1.425 . S
C909 C906 1.409 . S
C909 C907 1.415 . S
C910 H900 0.930 . S
C910 C908 1.419 . S
C910 C911 1.362 . S
C911 H901 0.930 . S
C911 C904 1.409 . S
C911 C910 1.362 . S
H912 C918 0.930 . S
H913 C921 0.930 . S
H914 C922 0.930 . S
H915 C923 0.930 . S
H916 C926 0.930 . S
H917 C927 0.930 . S
C918 H912 0.930 . S
C918 C919 1.355 . S
C918 C920 1.415 1_545 S
C919 C918 1.355 . S
C919 C921 1.419 . S
C920 C918 1.415 1_565 S
C920 C925 1.425 1_565 S
C920 C927 1.409 . S
C921 H913 0.930 . S
C921 C919 1.419 . S
C921 C922 1.362 . S
C922 H914 0.930 . S
C922 C921 1.362 . S
C922 C925 1.409 . S
C923 H915 0.930 . S
C923 C924 1.355 . S
C923 C925 1.415 1_565 S
C924 C923 1.355 . S
C924 C926 1.419 . S
C925 C920 1.425 1_545 S
C925 C922 1.409 . S
C925 C923 1.415 1_545 S
C926 H916 0.930 . S
C926 C924 1.419 . S
C926 C927 1.362 . S
C927 H917 0.930 . S
C927 C920 1.409 . S
C927 C926 1.362 . S
H928 C934 0.930 . S
H929 C937 0.930 . S
H930 C938 0.930 . S
H931 C939 0.930 . S
H932 C942 0.930 . S
H933 C943 0.930 . S
C934 H928 0.930 . S
C934 C935 1.355 . S
C934 C936 1.415 . S
C935 C934 1.355 . S
C935 C937 1.419 . S
C936 C934 1.415 . S
C936 C941 1.425 . S
C936 C943 1.409 . S
C937 H929 0.930 . S
C937 C935 1.419 . S
C937 C938 1.362 . S
C938 H930 0.930 . S
C938 C937 1.362 . S
C938 C941 1.409 . S
C939 H931 0.930 . S
C939 C940 1.355 . S
C939 C941 1.415 . S
C940 C939 1.355 . S
C940 C942 1.419 . S
C941 C936 1.425 . S
C941 C938 1.409 . S
C941 C939 1.415 . S
C942 H932 0.930 . S
C942 C940 1.419 . S
C942 C943 1.362 . S
C943 H933 0.930 . S
C943 C936 1.409 . S
C943 C942 1.362 . S
H944 C950 0.930 . S
H945 C953 0.930 . S
H946 C954 0.930 . S
H947 C955 0.930 . S
H948 C958 0.930 . S
H949 C959 0.930 . S
C950 H944 0.930 . S
C950 C951 1.355 1_556 S
C950 C952 1.415 . S
C951 C950 1.355 1_554 S
C951 C953 1.419 . S
C952 C950 1.415 . S
C952 C957 1.425 1_556 S
C952 C959 1.409 . S
C953 H945 0.930 . S
C953 C951 1.419 . S
C953 C954 1.362 . S
C954 H946 0.930 . S
C954 C953 1.362 . S
C954 C957 1.409 . S
C955 H947 0.930 . S
C955 C956 1.355 1_554 S
C955 C957 1.415 . S
C956 C955 1.355 1_556 S
C956 C958 1.419 . S
C957 C952 1.425 1_554 S
C957 C954 1.409 . S
C957 C955 1.415 . S
C958 H948 0.930 . S
C958 C956 1.419 . S
C958 C959 1.362 . S
C959 H949 0.930 . S
C959 C952 1.409 . S
C959 C958 1.362 . S
H960 C966 0.930 . S
H961 C969 0.930 . S
H962 C970 0.930 . S
H963 C971 0.930 . S
H964 C974 0.930 . S
H965 C975 0.930 . S
C966 H960 0.930 . S
C966 C967 1.355 . S
C966 C968 1.415 . S
C967 C966 1.355 . S
C967 C969 1.419 . S
C968 C966 1.415 . S
C968 C973 1.425 . S
C968 C975 1.409 . S
C969 H961 0.930 . S
C969 C967 1.419 . S
C969 C970 1.362 . S
C970 H962 0.930 . S
C970 C969 1.362 . S
C970 C973 1.409 . S
C971 H963 0.930 . S
C971 C972 1.355 . S
C971 C973 1.415 . S
C972 C971 1.355 . S
C972 C974 1.419 . S
C973 C968 1.425 . S
C973 C970 1.409 . S
C973 C971 1.415 . S
C974 H964 0.930 . S
C974 C972 1.419 . S
C974 C975 1.362 . S
C975 H965 0.930 . S
C975 C968 1.409 . S
C975 C974 1.362 . S
H976 C982 0.930 . S
H977 C985 0.930 . S
H978 C986 0.930 . S
H979 C987 0.930 . S
H980 C990 0.930 . S
H981 C991 0.930 . S
C982 H976 0.930 . S
C982 C983 1.355 . S
C982 C984 1.415 . S
C983 C982 1.355 . S
C983 C985 1.419 . S
C984 C982 1.415 . S
C984 C989 1.425 . S
C984 C991 1.409 . S
C985 H977 0.930 . S
C985 C983 1.419 . S
C985 C986 1.362 . S
C986 H978 0.930 . S
C986 C985 1.362 . S
C986 C989 1.409 . S
C987 H979 0.930 . S
C987 C988 1.355 . S
C987 C989 1.415 . S
C988 C987 1.355 . S
C988 C990 1.419 . S
C989 C984 1.425 . S
C989 C986 1.409 . S
C989 C987 1.415 . S
C990 H980 0.930 . S
C990 C988 1.419 . S
C990 C991 1.362 . S
C991 H981 0.930 . S
C991 C984 1.409 . S
C991 C990 1.362 . S
H992 C998 0.930 . S
H993 C1001 0.930 . S
H994 C1002 0.930 . S
H995 C1003 0.930 . S
H996 C1006 0.930 . S
H997 C1007 0.930 . S
C998 H992 0.930 . S
C998 C999 1.355 . S
C998 C1000 1.415 . S
C999 C998 1.355 . S
C999 C1001 1.419 . S
C1000 C998 1.415 . S
C1000 C1005 1.425 . S
C1000 C1007 1.409 . S
C1001 H993 0.930 . S
C1001 C999 1.419 . S
C1001 C1002 1.362 . S
C1002 H994 0.930 . S
C1002 C1001 1.362 . S
C1002 C1005 1.409 . S
C1003 H995 0.930 . S
C1003 C1004 1.355 . S
C1003 C1005 1.415 . S
C1004 C1003 1.355 . S
C1004 C1006 1.419 . S
C1005 C1000 1.425 . S
C1005 C1002 1.409 . S
C1005 C1003 1.415 . S
C1006 H996 0.930 . S
C1006 C1004 1.419 . S
C1006 C1007 1.362 . S
C1007 H997 0.930 . S
C1007 C1000 1.409 . S
C1007 C1006 1.362 . S
H1008 C1014 0.930 . S
H1009 C1017 0.930 . S
H1010 C1018 0.947 . S
H1011 C1019 0.930 . S
H1012 C1022 0.930 . S
H1013 C1023 0.930 . S
C1014 H1008 0.930 . S
C1014 C1015 1.355 . S
C1014 C1016 1.415 . S
C1015 C1014 1.355 . S
C1015 C1017 1.419 . S
C1016 C1014 1.415 . S
C1016 C1021 1.425 . S
C1016 C1023 1.409 . S
C1017 H1009 0.930 . S
C1017 C1015 1.419 . S
C1017 C1018 1.362 . S
C1018 H1010 0.947 . S
C1018 C1017 1.362 . S
C1018 C1021 1.409 . S
C1019 H1011 0.930 . S
C1019 C1020 1.355 . S
C1019 C1021 1.415 . S
C1020 C1019 1.355 . S
C1020 C1022 1.419 . S
C1021 C1016 1.425 . S
C1021 C1018 1.409 . S
C1021 C1019 1.415 . S
C1022 H1012 0.930 . S
C1022 C1020 1.419 . S
C1022 C1023 1.362 . S
C1023 H1013 0.930 . S
C1023 C1016 1.409 . S
C1023 C1022 1.362 . S
H1024 C1030 0.930 . S
H1025 C1033 0.930 . S
H1026 C1034 0.930 . S
H1027 C1035 0.930 . S
H1028 C1038 0.930 . S
H1029 C1039 0.930 . S
C1030 H1024 0.930 . S
C1030 C1031 1.355 . S
C1030 C1032 1.415 . S
C1031 C1030 1.355 . S
C1031 C1033 1.419 . S
C1032 C1030 1.415 . S
C1032 C1037 1.425 . S
C1032 C1039 1.409 . S
C1033 H1025 0.930 . S
C1033 C1031 1.419 . S
C1033 C1034 1.362 . S
C1034 H1026 0.930 . S
C1034 C1033 1.362 . S
C1034 C1037 1.409 . S
C1035 H1027 0.930 . S
C1035 C1036 1.355 . S
C1035 C1037 1.415 . S
C1036 C1035 1.355 . S
C1036 C1038 1.419 . S
C1037 C1032 1.425 . S
C1037 C1034 1.409 . S
C1037 C1035 1.415 . S
C1038 H1028 0.930 . S
C1038 C1036 1.419 . S
C1038 C1039 1.362 . S
C1039 H1029 0.930 . S
C1039 C1032 1.409 . S
C1039 C1038 1.362 . S
H1040 C1046 0.930 . S
H1041 C1049 0.930 . S
H1042 C1050 0.922 1_455 S
H1043 C1051 0.930 . S
H1044 C1054 0.930 . S
H1045 C1055 0.930 . S
C1046 H1040 0.930 . S
C1046 C1047 1.355 . S
C1046 C1048 1.415 . S
C1047 C1046 1.355 . S
C1047 C1049 1.419 . S
C1048 C1046 1.415 . S
C1048 C1053 1.425 . S
C1048 C1055 1.409 . S
C1049 H1041 0.930 . S
C1049 C1047 1.419 . S
C1049 C1050 1.362 . S
C1050 H1042 0.922 1_655 S
C1050 C1049 1.362 . S
C1050 C1053 1.409 . S
C1051 H1043 0.930 . S
C1051 C1052 1.355 . S
C1051 C1053 1.415 . S
C1052 C1051 1.355 . S
C1052 C1054 1.419 . S
C1053 C1048 1.425 . S
C1053 C1050 1.409 . S
C1053 C1051 1.415 . S
C1054 H1044 0.930 . S
C1054 C1052 1.419 . S
C1054 C1055 1.362 . S
C1055 H1045 0.930 . S
C1055 C1048 1.409 . S
C1055 C1054 1.362 . S
H1056 C1062 0.930 . S
H1057 C1065 0.930 . S
H1058 C1066 0.930 . S
H1059 C1067 0.930 . S
H1060 C1070 0.930 . S
H1061 C1071 0.930 . S
C1062 H1056 0.930 . S
C1062 C1063 1.355 . S
C1062 C1064 1.415 . S
C1063 C1062 1.355 . S
C1063 C1065 1.419 . S
C1064 C1062 1.415 . S
C1064 C1069 1.425 . S
C1064 C1071 1.409 . S
C1065 H1057 0.930 . S
C1065 C1063 1.419 . S
C1065 C1066 1.362 . S
C1066 H1058 0.930 . S
C1066 C1065 1.362 . S
C1066 C1069 1.409 . S
C1067 H1059 0.930 . S
C1067 C1068 1.355 . S
C1067 C1069 1.415 . S
C1068 C1067 1.355 . S
C1068 C1070 1.419 . S
C1069 C1064 1.425 . S
C1069 C1066 1.409 . S
C1069 C1067 1.415 . S
C1070 H1060 0.930 . S
C1070 C1068 1.419 . S
C1070 C1071 1.362 . S
C1071 H1061 0.930 . S
C1071 C1064 1.409 . S
C1071 C1070 1.362 . S
H1072 C1078 0.930 . S
H1073 C1081 0.930 . S
H1074 C1082 0.930 . S
H1075 C1083 0.930 . S
H1076 C1086 0.930 . S
H1077 C1087 0.930 . S
C1078 H1072 0.930 . S
C1078 C1079 1.355 . S
C1078 C1080 1.415 . S
C1079 C1078 1.355 . S
C1079 C1081 1.419 . S
C1080 C1078 1.415 . S
C1080 C1085 1.425 . S
C1080 C1087 1.409 . S
C1081 H1073 0.930 . S
C1081 C1079 1.419 . S
C1081 C1082 1.362 . S
C1082 H1074 0.930 . S
C1082 C1081 1.362 . S
C1082 C1085 1.409 . S
C1083 H1075 0.930 . S
C1083 C1084 1.355 . S
C1083 C1085 1.415 . S
C1084 C1083 1.355 . S
C1084 C1086 1.419 . S
C1085 C1080 1.425 . S
C1085 C1082 1.409 . S
C1085 C1083 1.415 . S
C1086 H1076 0.930 . S
C1086 C1084 1.419 . S
C1086 C1087 1.362 . S
C1087 H1077 0.930 . S
C1087 C1080 1.409 . S
C1087 C1086 1.362 . S
H1088 C1094 0.930 . S
H1089 C1097 0.930 . S
H1090 C1098 0.930 . S
H1091 C1099 0.930 . S
H1092 C1102 0.930 . S
H1093 C1103 0.930 . S
C1094 H1088 0.930 . S
C1094 C1095 1.355 . S
C1094 C1096 1.415 . S
C1095 C1094 1.355 . S
C1095 C1097 1.419 . S
C1096 C1094 1.415 . S
C1096 C1101 1.425 . S
C1096 C1103 1.409 . S
C1097 H1089 0.930 . S
C1097 C1095 1.419 . S
C1097 C1098 1.362 . S
C1098 H1090 0.930 . S
C1098 C1097 1.362 . S
C1098 C1101 1.409 . S
C1099 H1091 0.930 . S
C1099 C1100 1.355 . S
C1099 C1101 1.415 . S
C1100 C1099 1.355 . S
C1100 C1102 1.419 . S
C1101 C1096 1.425 . S
C1101 C1098 1.409 . S
C1101 C1099 1.415 . S
C1102 H1092 0.930 . S
C1102 C1100 1.419 . S
C1102 C1103 1.362 . S
C1103 H1093 0.930 . S
C1103 C1096 1.409 . S
C1103 C1102 1.362 . S
H1104 C1110 0.930 . S
H1105 C1113 0.930 . S
H1106 C1114 0.930 . S
H1107 C1115 0.930 . S
H1108 C1118 0.930 . S
H1109 C1119 0.930 . S
C1110 H1104 0.930 . S
C1110 C1111 1.355 . S
C1110 C1112 1.415 . S
C1111 C1110 1.355 . S
C1111 C1113 1.419 . S
C1112 C1110 1.415 . S
C1112 C1117 1.425 . S
C1112 C1119 1.409 . S
C1113 H1105 0.930 . S
C1113 C1111 1.419 . S
C1113 C1114 1.362 . S
C1114 H1106 0.930 . S
C1114 C1113 1.362 . S
C1114 C1117 1.409 . S
C1115 H1107 0.930 . S
C1115 C1116 1.355 . S
C1115 C1117 1.415 . S
C1116 C1115 1.355 . S
C1116 C1118 1.419 . S
C1117 C1112 1.425 . S
C1117 C1114 1.409 . S
C1117 C1115 1.415 . S
C1118 H1108 0.930 . S
C1118 C1116 1.419 . S
C1118 C1119 1.362 . S
C1119 H1109 0.930 . S
C1119 C1112 1.409 . S
C1119 C1118 1.362 . S
H1120 C1126 0.930 . S
H1121 C1129 0.930 . S
H1122 C1130 0.930 . S
H1123 C1131 0.930 . S
H1124 C1134 0.930 . S
H1125 C1135 0.930 . S
C1126 H1120 0.930 . S
C1126 C1127 1.355 . S
C1126 C1128 1.415 . S
C1127 C1126 1.355 . S
C1127 C1129 1.419 . S
C1128 C1126 1.415 . S
C1128 C1133 1.425 . S
C1128 C1135 1.409 . S
C1129 H1121 0.930 . S
C1129 C1127 1.419 . S
C1129 C1130 1.362 . S
C1130 H1122 0.930 . S
C1130 C1129 1.362 . S
C1130 C1133 1.409 . S
C1131 H1123 0.930 . S
C1131 C1132 1.355 . S
C1131 C1133 1.415 . S
C1132 C1131 1.355 . S
C1132 C1134 1.419 . S
C1133 C1128 1.425 . S
C1133 C1130 1.409 . S
C1133 C1131 1.415 . S
C1134 H1124 0.930 . S
C1134 C1132 1.419 . S
C1134 C1135 1.362 . S
C1135 H1125 0.930 . S
C1135 C1128 1.409 . S
C1135 C1134 1.362 . S
H1136 C1142 0.930 . S
H1137 C1145 0.930 . S
H1138 C1146 0.930 . S
H1139 C1147 0.930 . S
H1140 C1150 0.930 . S
H1141 C1151 0.930 . S
C1142 H1136 0.930 . S
C1142 C1143 1.355 . S
C1142 C1144 1.415 . S
C1143 C1142 1.355 . S
C1143 C1145 1.419 . S
C1144 C1142 1.415 . S
C1144 C1149 1.425 . S
C1144 C1151 1.409 . S
C1145 H1137 0.930 . S
C1145 C1143 1.419 . S
C1145 C1146 1.362 . S
C1146 H1138 0.930 . S
C1146 C1145 1.362 . S
C1146 C1149 1.409 . S
C1147 H1139 0.930 . S
C1147 C1148 1.355 . S
C1147 C1149 1.415 . S
C1148 C1147 1.355 . S
C1148 C1150 1.419 . S
C1149 C1144 1.425 . S
C1149 C1146 1.409 . S
C1149 C1147 1.415 . S
C1150 H1140 0.930 . S
C1150 C1148 1.419 . S
C1150 C1151 1.362 . S
C1151 H1141 0.930 . S
C1151 C1144 1.409 . S
C1151 C1150 1.362 . S
H1152 C1158 0.930 . S
H1153 C1161 0.930 . S
H1154 C1162 0.930 . S
H1155 C1163 0.930 . S
H1156 C1166 0.930 . S
H1157 C1167 0.930 . S
C1158 H1152 0.930 . S
C1158 C1159 1.355 . S
C1158 C1160 1.415 . S
C1159 C1158 1.355 . S
C1159 C1161 1.419 . S
C1160 C1158 1.415 . S
C1160 C1165 1.425 . S
C1160 C1167 1.409 . S
C1161 H1153 0.930 . S
C1161 C1159 1.419 . S
C1161 C1162 1.362 . S
C1162 H1154 0.930 . S
C1162 C1161 1.362 . S
C1162 C1165 1.409 . S
C1163 H1155 0.930 . S
C1163 C1164 1.355 . S
C1163 C1165 1.415 . S
C1164 C1163 1.355 . S
C1164 C1166 1.419 . S
C1165 C1160 1.425 . S
C1165 C1162 1.409 . S
C1165 C1163 1.415 . S
C1166 H1156 0.930 . S
C1166 C1164 1.419 . S
C1166 C1167 1.362 . S
C1167 H1157 0.930 . S
C1167 C1160 1.409 . S
C1167 C1166 1.362 . S
H1168 C1174 0.930 . S
H1169 C1177 0.930 . S
H1170 C1178 0.930 . S
H1171 C1179 0.930 . S
H1172 C1182 0.930 . S
H1173 C1183 0.930 . S
C1174 H1168 0.930 . S
C1174 C1175 1.355 . S
C1174 C1176 1.415 . S
C1175 C1174 1.355 . S
C1175 C1177 1.419 . S
C1176 C1174 1.415 . S
C1176 C1181 1.425 . S
C1176 C1183 1.409 . S
C1177 H1169 0.930 . S
C1177 C1175 1.419 . S
C1177 C1178 1.362 . S
C1178 H1170 0.930 . S
C1178 C1177 1.362 . S
C1178 C1181 1.409 . S
C1179 H1171 0.930 . S
C1179 C1180 1.355 . S
C1179 C1181 1.415 . S
C1180 C1179 1.355 . S
C1180 C1182 1.419 . S
C1181 C1176 1.425 . S
C1181 C1178 1.409 . S
C1181 C1179 1.415 . S
C1182 H1172 0.930 . S
C1182 C1180 1.419 . S
C1182 C1183 1.362 . S
C1183 H1173 0.930 . S
C1183 C1176 1.409 . S
C1183 C1182 1.362 . S
H1184 C1190 0.930 . S
H1185 C1193 0.930 . S
H1186 C1194 0.930 . S
H1187 C1195 0.930 . S
H1188 C1198 0.930 . S
H1189 C1199 0.930 . S
C1190 H1184 0.930 . S
C1190 C1191 1.355 . S
C1190 C1192 1.415 . S
C1191 C1190 1.355 . S
C1191 C1193 1.419 . S
C1192 C1190 1.415 . S
C1192 C1197 1.425 . S
C1192 C1199 1.409 . S
C1193 H1185 0.930 . S
C1193 C1191 1.419 . S
C1193 C1194 1.362 . S
C1194 H1186 0.930 . S
C1194 C1193 1.362 . S
C1194 C1197 1.409 . S
C1195 H1187 0.930 . S
C1195 C1196 1.355 . S
C1195 C1197 1.415 . S
C1196 C1195 1.355 . S
C1196 C1198 1.419 . S
C1197 C1192 1.425 . S
C1197 C1194 1.409 . S
C1197 C1195 1.415 . S
C1198 H1188 0.930 . S
C1198 C1196 1.419 . S
C1198 C1199 1.362 . S
C1199 H1189 0.930 . S
C1199 C1192 1.409 . S
C1199 C1198 1.362 . S
H1200 C1206 0.930 . S
H1201 C1209 0.930 . S
H1202 C1210 0.930 . S
H1203 C1211 0.930 . S
H1204 C1214 0.930 . S
H1205 C1215 0.930 . S
C1206 H1200 0.930 . S
C1206 C1207 1.355 . S
C1206 C1208 1.415 . S
C1207 C1206 1.355 . S
C1207 C1209 1.419 . S
C1208 C1206 1.415 . S
C1208 C1213 1.425 . S
C1208 C1215 1.409 . S
C1209 H1201 0.930 . S
C1209 C1207 1.419 . S
C1209 C1210 1.362 . S
C1210 H1202 0.930 . S
C1210 C1209 1.362 . S
C1210 C1213 1.409 . S
C1211 H1203 0.930 . S
C1211 C1212 1.355 . S
C1211 C1213 1.415 . S
C1212 C1211 1.355 . S
C1212 C1214 1.419 . S
C1213 C1208 1.425 . S
C1213 C1210 1.409 . S
C1213 C1211 1.415 . S
C1214 H1204 0.930 . S
C1214 C1212 1.419 . S
C1214 C1215 1.362 . S
C1215 H1205 0.930 . S
C1215 C1208 1.409 . S
C1215 C1214 1.362 . S
H1216 C1222 0.930 . S
H1217 C1225 0.930 . S
H1218 C1226 0.930 . S
H1219 C1227 0.930 . S
H1220 C1230 0.930 . S
H1221 C1231 0.930 . S
C1222 H1216 0.930 . S
C1222 C1223 1.355 . S
C1222 C1224 1.415 . S
C1223 C1222 1.355 . S
C1223 C1225 1.419 . S
C1224 C1222 1.415 . S
C1224 C1229 1.425 . S
C1224 C1231 1.409 . S
C1225 H1217 0.930 . S
C1225 C1223 1.419 . S
C1225 C1226 1.362 . S
C1226 H1218 0.930 . S
C1226 C1225 1.362 . S
C1226 C1229 1.409 . S
C1227 H1219 0.930 . S
C1227 C1228 1.355 . S
C1227 C1229 1.415 . S
C1228 C1227 1.355 . S
C1228 C1230 1.419 . S
C1229 C1224 1.425 . S
C1229 C1226 1.409 . S
C1229 C1227 1.415 . S
C1230 H1220 0.930 . S
C1230 C1228 1.419 . S
C1230 C1231 1.362 . S
C1231 H1221 0.930 . S
C1231 C1224 1.409 . S
C1231 C1230 1.362 . S
H1232 C1238 0.930 . S
H1233 C1241 0.930 . S
H1234 C1242 0.930 . S
H1235 C1243 0.930 . S
H1236 C1246 0.930 . S
H1237 C1247 0.930 . S
C1238 H1232 0.930 . S
C1238 C1239 1.355 . S
C1238 C1240 1.415 . S
C1239 C1238 1.355 . S
C1239 C1241 1.419 . S
C1240 C1238 1.415 . S
C1240 C1245 1.425 . S
C1240 C1247 1.409 . S
C1241 H1233 0.930 . S
C1241 C1239 1.419 . S
C1241 C1242 1.362 . S
C1242 H1234 0.930 . S
C1242 C1241 1.362 . S
C1242 C1245 1.409 . S
C1243 H1235 0.930 . S
C1243 C1244 1.355 . S
C1243 C1245 1.415 . S
C1244 C1243 1.355 . S
C1244 C1246 1.419 . S
C1245 C1240 1.425 . S
C1245 C1242 1.409 . S
C1245 C1243 1.415 . S
C1246 H1236 0.930 . S
C1246 C1244 1.419 . S
C1246 C1247 1.362 . S
C1247 H1237 0.930 . S
C1247 C1240 1.409 . S
C1247 C1246 1.362 . S
H1248 C1254 0.930 . S
H1249 C1257 0.930 . S
H1250 C1258 0.930 . S
H1251 C1259 0.930 . S
H1252 C1262 0.930 . S
H1253 C1263 0.930 . S
C1254 H1248 0.930 . S
C1254 C1255 1.355 . S
C1254 C1256 1.415 . S
C1255 C1254 1.355 . S
C1255 C1257 1.419 1_554 S
C1256 C1254 1.415 . S
C1256 C1261 1.422 1_554 S
C1256 C1263 1.409 . S
C1257 H1249 0.930 . S
C1257 C1255 1.419 1_556 S
C1257 C1258 1.362 . S
C1258 H1250 0.930 . S
C1258 C1257 1.362 . S
C1258 C1261 1.411 . S
C1259 H1251 0.930 . S
C1259 C1260 1.355 . S
C1259 C1261 1.417 . S
C1260 C1259 1.355 . S
C1260 C1262 1.418 1_556 S
C1261 C1256 1.422 1_556 S
C1261 C1258 1.411 . S
C1261 C1259 1.417 . S
C1262 H1252 0.930 . S
C1262 C1260 1.418 1_554 S
C1262 C1263 1.362 . S
C1263 H1253 0.930 . S
C1263 C1256 1.409 . S
C1263 C1262 1.362 . S
H1264 C1270 0.932 . S
H1265 C1273 0.930 . S
H1266 C1274 0.930 . S
H1267 C1275 0.929 . S
H1268 C1278 0.930 . S
H1269 C1279 0.930 . S
C1270 H1264 0.932 . S
C1270 C1271 1.352 1_554 S
C1270 C1272 1.416 . S
C1271 C1270 1.352 1_556 S
C1271 C1273 1.422 . S
C1272 C1270 1.416 . S
C1272 C1277 1.424 1_554 S
C1272 C1279 1.409 . S
C1273 H1265 0.930 . S
C1273 C1271 1.422 . S
C1273 C1274 1.362 . S
C1274 H1266 0.930 . S
C1274 C1273 1.362 . S
C1274 C1277 1.411 . S
C1275 H1267 0.929 . S
C1275 C1276 1.355 1_556 S
C1275 C1277 1.414 . S
C1276 C1275 1.355 1_554 S
C1276 C1278 1.419 . S
C1277 C1272 1.424 1_556 S
C1277 C1274 1.411 . S
C1277 C1275 1.414 . S
C1278 H1268 0.930 . S
C1278 C1276 1.419 . S
C1278 C1279 1.362 . S
C1279 H1269 0.930 . S
C1279 C1272 1.409 . S
C1279 C1278 1.362 . S
H1280 C1286 0.930 . S
H1281 C1289 0.930 . S
H1282 C1290 0.930 . S
H1283 C1291 0.930 . S
H1284 C1294 0.930 . S
H1285 C1295 0.930 . S
C1286 H1280 0.930 . S
C1286 C1287 1.355 . S
C1286 C1288 1.415 . S
C1287 C1286 1.355 . S
C1287 C1289 1.419 . S
C1288 C1286 1.415 . S
C1288 C1293 1.425 . S
C1288 C1295 1.409 . S
C1289 H1281 0.930 . S
C1289 C1287 1.419 . S
C1289 C1290 1.362 . S
C1290 H1282 0.930 . S
C1290 C1289 1.362 . S
C1290 C1293 1.409 . S
C1291 H1283 0.930 . S
C1291 C1292 1.355 . S
C1291 C1293 1.415 . S
C1292 C1291 1.355 . S
C1292 C1294 1.419 . S
C1293 C1288 1.425 . S
C1293 C1290 1.409 . S
C1293 C1291 1.415 . S
C1294 H1284 0.930 . S
C1294 C1292 1.419 . S
C1294 C1295 1.362 . S
C1295 H1285 0.930 . S
C1295 C1288 1.409 . S
C1295 C1294 1.362 . S
H1296 C1302 0.930 . S
H1297 C1305 0.930 . S
H1298 C1306 0.930 . S
H1299 C1307 0.930 . S
H1300 C1310 0.930 . S
H1301 C1311 0.930 . S
C1302 H1296 0.930 . S
C1302 C1303 1.355 . S
C1302 C1304 1.415 . S
C1303 C1302 1.355 . S
C1303 C1305 1.419 . S
C1304 C1302 1.415 . S
C1304 C1309 1.425 . S
C1304 C1311 1.409 . S
C1305 H1297 0.930 . S
C1305 C1303 1.419 . S
C1305 C1306 1.362 . S
C1306 H1298 0.930 . S
C1306 C1305 1.362 . S
C1306 C1309 1.409 . S
C1307 H1299 0.930 . S
C1307 C1308 1.355 . S
C1307 C1309 1.415 . S
C1308 C1307 1.355 . S
C1308 C1310 1.419 . S
C1309 C1304 1.425 . S
C1309 C1306 1.409 . S
C1309 C1307 1.415 . S
C1310 H1300 0.930 . S
C1310 C1308 1.419 . S
C1310 C1311 1.362 . S
C1311 H1301 0.930 . S
C1311 C1304 1.409 . S
C1311 C1310 1.362 . S
H1312 C1318 0.931 . S
H1313 C1321 0.930 . S
H1314 C1322 0.930 . S
H1315 C1323 0.929 . S
H1316 C1326 0.931 . S
H1317 C1327 0.933 . S
C1318 H1312 0.931 . S
C1318 C1319 1.356 . S
C1318 C1320 1.414 . S
C1319 C1318 1.356 . S
C1319 C1321 1.419 . S
C1320 C1318 1.414 . S
C1320 C1325 1.425 . S
C1320 C1327 1.408 1_556 S
C1321 H1313 0.930 . S
C1321 C1319 1.419 . S
C1321 C1322 1.362 . S
C1322 H1314 0.930 . S
C1322 C1321 1.362 . S
C1322 C1325 1.410 . S
C1323 H1315 0.929 . S
C1323 C1324 1.355 . S
C1323 C1325 1.414 1_554 S
C1324 C1323 1.355 . S
C1324 C1326 1.419 . S
C1325 C1320 1.425 . S
C1325 C1322 1.410 . S
C1325 C1323 1.414 1_556 S
C1326 H1316 0.931 . S
C1326 C1324 1.419 . S
C1326 C1327 1.362 . S
C1327 H1317 0.933 . S
C1327 C1320 1.408 1_554 S
C1327 C1326 1.362 . S
H1328 C1334 0.930 . S
H1329 C1337 0.930 . S
H1330 C1338 0.930 . S
H1331 C1339 0.930 . S
H1332 C1342 0.930 . S
H1333 C1343 0.930 . S
C1334 H1328 0.930 . S
C1334 C1335 1.350 1_554 S
C1334 C1336 1.415 . S
C1335 C1334 1.350 1_556 S
C1335 C1337 1.425 . S
C1336 C1334 1.415 . S
C1336 C1341 1.425 1_554 S
C1336 C1343 1.409 . S
C1337 H1329 0.930 . S
C1337 C1335 1.425 . S
C1337 C1338 1.362 . S
C1338 H1330 0.930 . S
C1338 C1337 1.362 . S
C1338 C1341 1.409 . S
C1339 H1331 0.930 . S
C1339 C1340 1.357 . S
C1339 C1341 1.415 . S
C1340 C1339 1.357 . S
C1340 C1342 1.416 1_556 S
C1341 C1336 1.425 1_556 S
C1341 C1338 1.409 . S
C1341 C1339 1.415 . S
C1342 H1332 0.930 . S
C1342 C1340 1.416 1_554 S
C1342 C1343 1.362 . S
C1343 H1333 0.930 . S
C1343 C1336 1.409 . S
C1343 C1342 1.362 . S
H1344 C1350 0.930 . S
H1345 C1353 0.930 . S
H1346 C1354 0.930 . S
H1347 C1355 0.930 . S
H1348 C1358 0.930 . S
H1349 C1359 0.930 . S
C1350 H1344 0.930 . S
C1350 C1351 1.355 . S
C1350 C1352 1.415 . S
C1351 C1350 1.355 . S
C1351 C1353 1.419 . S
C1352 C1350 1.415 . S
C1352 C1357 1.425 . S
C1352 C1359 1.409 . S
C1353 H1345 0.930 . S
C1353 C1351 1.419 . S
C1353 C1354 1.362 . S
C1354 H1346 0.930 . S
C1354 C1353 1.362 . S
C1354 C1357 1.409 . S
C1355 H1347 0.930 . S
C1355 C1356 1.355 . S
C1355 C1357 1.415 . S
C1356 C1355 1.355 . S
C1356 C1358 1.419 . S
C1357 C1352 1.425 . S
C1357 C1354 1.409 . S
C1357 C1355 1.415 . S
C1358 H1348 0.930 . S
C1358 C1356 1.419 . S
C1358 C1359 1.362 . S
C1359 H1349 0.930 . S
C1359 C1352 1.409 . S
C1359 C1358 1.362 . S
H1360 C1366 0.930 . S
H1361 C1369 0.930 . S
H1362 C1370 0.930 . S
H1363 C1371 0.930 . S
H1364 C1374 0.930 . S
H1365 C1375 0.930 . S
C1366 H1360 0.930 . S
C1366 C1367 1.355 . S
C1366 C1368 1.415 . S
C1367 C1366 1.355 . S
C1367 C1369 1.419 . S
C1368 C1366 1.415 . S
C1368 C1373 1.425 . S
C1368 C1375 1.409 . S
C1369 H1361 0.930 . S
C1369 C1367 1.419 . S
C1369 C1370 1.362 . S
C1370 H1362 0.930 . S
C1370 C1369 1.362 . S
C1370 C1373 1.409 . S
C1371 H1363 0.930 . S
C1371 C1372 1.355 . S
C1371 C1373 1.415 . S
C1372 C1371 1.355 . S
C1372 C1374 1.419 . S
C1373 C1368 1.425 . S
C1373 C1370 1.409 . S
C1373 C1371 1.415 . S
C1374 H1364 0.930 . S
C1374 C1372 1.419 . S
C1374 C1375 1.362 . S
C1375 H1365 0.930 . S
C1375 C1368 1.409 . S
C1375 C1374 1.362 . S
H1376 C1382 0.930 . S
H1377 C1385 0.930 . S
H1378 C1386 0.930 . S
H1379 C1387 0.930 . S
H1380 C1390 0.930 . S
H1381 C1391 0.930 . S
C1382 H1376 0.930 . S
C1382 C1383 1.355 . S
C1382 C1384 1.415 . S
C1383 C1382 1.355 . S
C1383 C1385 1.419 . S
C1384 C1382 1.415 . S
C1384 C1389 1.425 . S
C1384 C1391 1.409 . S
C1385 H1377 0.930 . S
C1385 C1383 1.419 . S
C1385 C1386 1.362 . S
C1386 H1378 0.930 . S
C1386 C1385 1.362 . S
C1386 C1389 1.409 . S
C1387 H1379 0.930 . S
C1387 C1388 1.355 . S
C1387 C1389 1.415 . S
C1388 C1387 1.355 . S
C1388 C1390 1.419 . S
C1389 C1384 1.425 . S
C1389 C1386 1.409 . S
C1389 C1387 1.415 . S
C1390 H1380 0.930 . S
C1390 C1388 1.419 . S
C1390 C1391 1.362 . S
C1391 H1381 0.930 . S
C1391 C1384 1.409 . S
C1391 C1390 1.362 . S
H1392 C1398 0.930 . S
H1393 C1401 0.930 . S
H1394 C1402 0.930 . S
H1395 C1403 0.930 . S
H1396 C1406 0.930 . S
H1397 C1407 0.930 . S
C1398 H1392 0.930 . S
C1398 C1399 1.355 . S
C1398 C1400 1.415 . S
C1399 C1398 1.355 . S
C1399 C1401 1.419 . S
C1400 C1398 1.415 . S
C1400 C1405 1.425 . S
C1400 C1407 1.409 . S
C1401 H1393 0.930 . S
C1401 C1399 1.419 . S
C1401 C1402 1.362 . S
C1402 H1394 0.930 . S
C1402 C1401 1.362 . S
C1402 C1405 1.409 . S
C1403 H1395 0.930 . S
C1403 C1404 1.355 . S
C1403 C1405 1.415 . S
C1404 C1403 1.355 . S
C1404 C1406 1.419 . S
C1405 C1400 1.425 . S
C1405 C1402 1.409 . S
C1405 C1403 1.415 . S
C1406 H1396 0.930 . S
C1406 C1404 1.419 . S
C1406 C1407 1.362 . S
C1407 H1397 0.930 . S
C1407 C1400 1.409 . S
C1407 C1406 1.362 . S
H1408 C1414 0.930 . S
H1409 C1417 0.930 . S
H1410 C1418 0.930 . S
H1411 C1419 0.930 . S
H1412 C1422 0.930 . S
H1413 C1423 0.930 . S
C1414 H1408 0.930 . S
C1414 C1415 1.355 . S
C1414 C1416 1.415 . S
C1415 C1414 1.355 . S
C1415 C1417 1.419 . S
C1416 C1414 1.415 . S
C1416 C1421 1.425 . S
C1416 C1423 1.409 . S
C1417 H1409 0.930 . S
C1417 C1415 1.419 . S
C1417 C1418 1.362 . S
C1418 H1410 0.930 . S
C1418 C1417 1.362 . S
C1418 C1421 1.409 . S
C1419 H1411 0.930 . S
C1419 C1420 1.355 . S
C1419 C1421 1.415 . S
C1420 C1419 1.355 . S
C1420 C1422 1.419 . S
C1421 C1416 1.425 . S
C1421 C1418 1.409 . S
C1421 C1419 1.415 . S
C1422 H1412 0.930 . S
C1422 C1420 1.419 . S
C1422 C1423 1.362 . S
C1423 H1413 0.930 . S
C1423 C1416 1.409 . S
C1423 C1422 1.362 . S
H1424 C1430 0.930 . S
H1425 C1433 0.930 . S
H1426 C1434 0.930 . S
H1427 C1435 0.930 . S
H1428 C1438 0.930 . S
H1429 C1439 0.930 . S
C1430 H1424 0.930 . S
C1430 C1431 1.355 . S
C1430 C1432 1.415 . S
C1431 C1430 1.355 . S
C1431 C1433 1.419 . S
C1432 C1430 1.415 . S
C1432 C1437 1.425 . S
C1432 C1439 1.409 . S
C1433 H1425 0.930 . S
C1433 C1431 1.419 . S
C1433 C1434 1.362 . S
C1434 H1426 0.930 . S
C1434 C1433 1.362 . S
C1434 C1437 1.409 . S
C1435 H1427 0.930 . S
C1435 C1436 1.355 . S
C1435 C1437 1.415 . S
C1436 C1435 1.355 . S
C1436 C1438 1.419 . S
C1437 C1432 1.425 . S
C1437 C1434 1.409 . S
C1437 C1435 1.415 . S
C1438 H1428 0.930 . S
C1438 C1436 1.419 . S
C1438 C1439 1.362 . S
C1439 H1429 0.930 . S
C1439 C1432 1.409 . S
C1439 C1438 1.362 . S
H1440 C1446 0.930 . S
H1441 C1449 0.930 . S
H1442 C1450 0.930 . S
H1443 C1451 0.930 . S
H1444 C1454 0.930 . S
H1445 C1455 0.930 . S
C1446 H1440 0.930 . S
C1446 C1447 1.355 . S
C1446 C1448 1.415 . S
C1447 C1446 1.355 . S
C1447 C1449 1.419 . S
C1448 C1446 1.415 . S
C1448 C1453 1.425 . S
C1448 C1455 1.409 . S
C1449 H1441 0.930 . S
C1449 C1447 1.419 . S
C1449 C1450 1.362 . S
C1450 H1442 0.930 . S
C1450 C1449 1.362 . S
C1450 C1453 1.409 . S
C1451 H1443 0.930 . S
C1451 C1452 1.355 . S
C1451 C1453 1.415 . S
C1452 C1451 1.355 . S
C1452 C1454 1.419 . S
C1453 C1448 1.425 . S
C1453 C1450 1.409 . S
C1453 C1451 1.415 . S
C1454 H1444 0.930 . S
C1454 C1452 1.419 . S
C1454 C1455 1.362 . S
C1455 H1445 0.930 . S
C1455 C1448 1.409 . S
C1455 C1454 1.362 . S
H1456 C1462 0.930 . S
H1457 C1465 0.930 . S
H1458 C1466 0.930 . S
H1459 C1467 0.930 . S
H1460 C1470 0.930 . S
H1461 C1471 0.930 . S
C1462 H1456 0.930 . S
C1462 C1463 1.355 . S
C1462 C1464 1.415 . S
C1463 C1462 1.355 . S
C1463 C1465 1.419 . S
C1464 C1462 1.415 . S
C1464 C1469 1.425 . S
C1464 C1471 1.409 . S
C1465 H1457 0.930 . S
C1465 C1463 1.419 . S
C1465 C1466 1.362 . S
C1466 H1458 0.930 . S
C1466 C1465 1.362 . S
C1466 C1469 1.409 . S
C1467 H1459 0.930 . S
C1467 C1468 1.355 . S
C1467 C1469 1.415 . S
C1468 C1467 1.355 . S
C1468 C1470 1.419 . S
C1469 C1464 1.425 . S
C1469 C1466 1.409 . S
C1469 C1467 1.415 . S
C1470 H1460 0.930 . S
C1470 C1468 1.419 . S
C1470 C1471 1.362 . S
C1471 H1461 0.930 . S
C1471 C1464 1.409 . S
C1471 C1470 1.362 . S
C455 C1 1.545 . S
C460 C55 1.562 . S
C471 C29 1.553 . S
C476 C15 1.574 . S
C487 C56 1.568 . S
C492 C98 1.546 . S
C503 C85 1.572 . S
C508 C83 1.565 . S
C519 C125 1.545 . S
C524 C155 1.564 . S
C535 C140 1.549 . S
C540 C126 1.571 . S
C551 C169 1.558 . S
C556 C222 1.574 . S
C567 C183 1.547 . S
C572 C209 1.565 . S
C583 C266 1.549 . S
C588 C225 1.556 . S
C599 C238 1.559 . S
C604 C252 1.574 . S
C615 C280 1.549 . S
C620 C323 1.573 . S
C631 C309 1.570 . S
C636 C307 1.568 . S
C647 C337 1.546 . S
C652 C378 1.570 . S
C663 C364 1.572 . S
C668 C351 1.548 . S
C679 C404 1.560 . S
C684 C435 1.548 . S
C695 C406 1.563 . S
C700 C421 1.547 . S
C711 C180 1.615 . S
C716 C12 1.617 . S
C727 C26 1.624 . S
C732 C294 1.622 . S
C743 C40 1.577 . S
C748 C96 1.574 . S
C759 C446 1.577 1_556 S
C764 C42 1.579 1_554 S
C775 C69 1.623 . S
C780 C112 1.623 . S
C791 C251 1.576 . S
C796 C70 1.576 . S
C807 C391 1.620 1_554 S
C812 C111 1.622 1_556 S
C823 C419 1.624 . S
C828 C139 1.623 . S
C839 C196 1.610 . S
C844 C153 1.610 . S
C855 C334 1.578 . S
C860 C166 1.581 . S
C871 C194 1.574 . S
C876 C362 1.577 . S
C887 C279 1.623 . S
C892 C211 1.624 . S
C903 C393 1.577 . S
C908 C236 1.577 . S
C919 C320 1.621 . S
C924 C265 1.621 . S
C935 C348 1.621 . S
C940 C293 1.621 . S
C951 C377 1.613 1_554 S
C956 C432 1.613 1_556 S
C967 C141 1.661 . S
C972 C0 1.683 . S
C983 C14 1.692 . S
C988 C154 1.690 . S
C999 C124 1.688 . S
C1004 C28 1.693 . S
C1015 C127 1.689 . S
C1020 C54 1.671 . S
C1031 C57 1.684 . S
C1036 C208 1.662 . S
C1047 C82 1.694 . S
C1052 C223 1.681 . S
C1063 C168 1.691 . S
C1068 C84 1.671 . S
C1079 C99 1.695 . S
C1084 C182 1.683 . S
C1095 C365 1.661 . S
C1100 C224 1.683 . S
C1111 C379 1.692 . S
C1116 C239 1.673 . S
C1127 C253 1.658 . S
C1132 C336 1.673 . S
C1143 C267 1.685 . S
C1148 C350 1.666 . S
C1159 C281 1.663 . S
C1164 C420 1.662 . S
C1175 C306 1.693 . S
C1180 C434 1.688 . S
C1191 C405 1.679 . S
C1196 C308 1.694 . S
C1207 C407 1.666 . S
C1212 C322 1.660 . S
C1223 C13 1.707 . S
C1228 C363 1.703 . S
C1239 C349 1.661 . S
C1244 C27 1.664 1_655 S
C1255 C41 1.661 . S
C1260 C390 1.666 1_556 S
C1271 C43 1.706 1_656 S
C1276 C376 1.705 . S
C1287 C68 1.709 . S
C1292 C418 1.707 . S
C1303 C71 1.680 1_455 S
C1308 C392 1.669 . S
C1319 C447 1.706 . S
C1324 C97 1.708 1_554 S
C1335 C433 1.665 . S
C1340 C110 1.662 1_455 S
C1351 C250 1.710 . S
C1356 C113 1.706 . S
C1367 C237 1.703 . S
C1372 C138 1.697 1_655 S
C1383 C152 1.708 . S
C1388 C278 1.703 . S
C1399 C167 1.661 1_655 S
C1404 C264 1.664 . S
C1415 C295 1.697 . S
C1420 C181 1.705 . S
C1431 C195 1.693 1_455 S
C1436 C292 1.682 . S
C1447 C197 1.686 . S
C1452 C335 1.696 . S
C1463 C210 1.685 1_455 S
C1468 C321 1.697 . S
