# Generated by pormake.
# Topology ukc, (4)-cn, num edge types: 1
# Building blocks:
#     Node 0, Type 0, BuildingBlock: NAHDIM_clean_sbu_0, # of connection points: 4
#     Node 1, Type 0, BuildingBlock: NAHDIM_clean_sbu_0, # of connection points: 4
#     Node 2, Type 0, BuildingBlock: NAHDIM_clean_sbu_0, # of connection points: 4
#     Node 3, Type 0, BuildingBlock: NAHDIM_clean_sbu_0, # of connection points: 4
#     Node 4, Type 0, BuildingBlock: NAHDIM_clean_sbu_0, # of connection points: 4
#     Node 5, Type 0, BuildingBlock: NAHDIM_clean_sbu_0, # of connection points: 4
#     Node 6, Type 0, BuildingBlock: NAHDIM_clean_sbu_0, # of connection points: 4
#     Node 7, Type 0, BuildingBlock: NAHDIM_clean_sbu_0, # of connection points: 4
#     Node 8, Type 0, BuildingBlock: NAHDIM_clean_sbu_0, # of connection points: 4
#     Node 9, Type 0, BuildingBlock: NAHDIM_clean_sbu_0, # of connection points: 4
#     Node 10, Type 0, BuildingBlock: NAHDIM_clean_sbu_0, # of connection points: 4
#     Node 11, Type 0, BuildingBlock: NAHDIM_clean_sbu_0, # of connection points: 4
#     Node 12, Type 0, BuildingBlock: NAHDIM_clean_sbu_0, # of connection points: 4
#     Node 13, Type 0, BuildingBlock: NAHDIM_clean_sbu_0, # of connection points: 4
#     Node 14, Type 0, BuildingBlock: NAHDIM_clean_sbu_0, # of connection points: 4
#     Node 15, Type 0, BuildingBlock: NAHDIM_clean_sbu_0, # of connection points: 4
#     Node 16, Type 0, BuildingBlock: NAHDIM_clean_sbu_0, # of connection points: 4
#     Node 17, Type 0, BuildingBlock: NAHDIM_clean_sbu_0, # of connection points: 4
#     Node 18, Type 0, BuildingBlock: NAHDIM_clean_sbu_0, # of connection points: 4
#     Node 19, Type 0, BuildingBlock: NAHDIM_clean_sbu_0, # of connection points: 4
#     Node 20, Type 0, BuildingBlock: NAHDIM_clean_sbu_0, # of connection points: 4
#     Node 21, Type 0, BuildingBlock: NAHDIM_clean_sbu_0, # of connection points: 4
#     Node 22, Type 0, BuildingBlock: NAHDIM_clean_sbu_0, # of connection points: 4
#     Node 23, Type 0, BuildingBlock: NAHDIM_clean_sbu_0, # of connection points: 4
#     Node 24, Type 0, BuildingBlock: NAHDIM_clean_sbu_0, # of connection points: 4
#     Node 25, Type 0, BuildingBlock: NAHDIM_clean_sbu_0, # of connection points: 4
#     Node 26, Type 0, BuildingBlock: NAHDIM_clean_sbu_0, # of connection points: 4
#     Node 27, Type 0, BuildingBlock: NAHDIM_clean_sbu_0, # of connection points: 4
#     Node 28, Type 0, BuildingBlock: NAHDIM_clean_sbu_0, # of connection points: 4
#     Node 29, Type 0, BuildingBlock: NAHDIM_clean_sbu_0, # of connection points: 4
#     Node 30, Type 0, BuildingBlock: NAHDIM_clean_sbu_0, # of connection points: 4
#     Node 31, Type 0, BuildingBlock: NAHDIM_clean_sbu_0, # of connection points: 4
#     Edge 32, Type (0, 0), BuildingBlock: TEMPAE_clean_linker_10, # of connection points: 2
#     Edge 33, Type (0, 0), BuildingBlock: TEMPAE_clean_linker_10, # of connection points: 2
#     Edge 34, Type (0, 0), BuildingBlock: TEMPAE_clean_linker_10, # of connection points: 2
#     Edge 35, Type (0, 0), BuildingBlock: TEMPAE_clean_linker_10, # of connection points: 2
#     Edge 36, Type (0, 0), BuildingBlock: TEMPAE_clean_linker_10, # of connection points: 2
#     Edge 37, Type (0, 0), BuildingBlock: TEMPAE_clean_linker_10, # of connection points: 2
#     Edge 38, Type (0, 0), BuildingBlock: TEMPAE_clean_linker_10, # of connection points: 2
#     Edge 39, Type (0, 0), BuildingBlock: TEMPAE_clean_linker_10, # of connection points: 2
#     Edge 40, Type (0, 0), BuildingBlock: TEMPAE_clean_linker_10, # of connection points: 2
#     Edge 41, Type (0, 0), BuildingBlock: TEMPAE_clean_linker_10, # of connection points: 2
#     Edge 42, Type (0, 0), BuildingBlock: TEMPAE_clean_linker_10, # of connection points: 2
#     Edge 43, Type (0, 0), BuildingBlock: TEMPAE_clean_linker_10, # of connection points: 2
#     Edge 44, Type (0, 0), BuildingBlock: TEMPAE_clean_linker_10, # of connection points: 2
#     Edge 45, Type (0, 0), BuildingBlock: TEMPAE_clean_linker_10, # of connection points: 2
#     Edge 46, Type (0, 0), BuildingBlock: TEMPAE_clean_linker_10, # of connection points: 2
#     Edge 47, Type (0, 0), BuildingBlock: TEMPAE_clean_linker_10, # of connection points: 2
#     Edge 48, Type (0, 0), BuildingBlock: TEMPAE_clean_linker_10, # of connection points: 2
#     Edge 49, Type (0, 0), BuildingBlock: TEMPAE_clean_linker_10, # of connection points: 2
#     Edge 50, Type (0, 0), BuildingBlock: TEMPAE_clean_linker_10, # of connection points: 2
#     Edge 51, Type (0, 0), BuildingBlock: TEMPAE_clean_linker_10, # of connection points: 2
#     Edge 52, Type (0, 0), BuildingBlock: TEMPAE_clean_linker_10, # of connection points: 2
#     Edge 53, Type (0, 0), BuildingBlock: TEMPAE_clean_linker_10, # of connection points: 2
#     Edge 54, Type (0, 0), BuildingBlock: TEMPAE_clean_linker_10, # of connection points: 2
#     Edge 55, Type (0, 0), BuildingBlock: TEMPAE_clean_linker_10, # of connection points: 2
#     Edge 56, Type (0, 0), BuildingBlock: TEMPAE_clean_linker_10, # of connection points: 2
#     Edge 57, Type (0, 0), BuildingBlock: TEMPAE_clean_linker_10, # of connection points: 2
#     Edge 58, Type (0, 0), BuildingBlock: TEMPAE_clean_linker_10, # of connection points: 2
#     Edge 59, Type (0, 0), BuildingBlock: TEMPAE_clean_linker_10, # of connection points: 2
#     Edge 60, Type (0, 0), BuildingBlock: TEMPAE_clean_linker_10, # of connection points: 2
#     Edge 61, Type (0, 0), BuildingBlock: TEMPAE_clean_linker_10, # of connection points: 2
#     Edge 62, Type (0, 0), BuildingBlock: TEMPAE_clean_linker_10, # of connection points: 2
#     Edge 63, Type (0, 0), BuildingBlock: TEMPAE_clean_linker_10, # of connection points: 2
#     Edge 64, Type (0, 0), BuildingBlock: TEMPAE_clean_linker_10, # of connection points: 2
#     Edge 65, Type (0, 0), BuildingBlock: TEMPAE_clean_linker_10, # of connection points: 2
#     Edge 66, Type (0, 0), BuildingBlock: TEMPAE_clean_linker_10, # of connection points: 2
#     Edge 67, Type (0, 0), BuildingBlock: TEMPAE_clean_linker_10, # of connection points: 2
#     Edge 68, Type (0, 0), BuildingBlock: TEMPAE_clean_linker_10, # of connection points: 2
#     Edge 69, Type (0, 0), BuildingBlock: TEMPAE_clean_linker_10, # of connection points: 2
#     Edge 70, Type (0, 0), BuildingBlock: TEMPAE_clean_linker_10, # of connection points: 2
#     Edge 71, Type (0, 0), BuildingBlock: TEMPAE_clean_linker_10, # of connection points: 2
#     Edge 72, Type (0, 0), BuildingBlock: TEMPAE_clean_linker_10, # of connection points: 2
#     Edge 73, Type (0, 0), BuildingBlock: TEMPAE_clean_linker_10, # of connection points: 2
#     Edge 74, Type (0, 0), BuildingBlock: TEMPAE_clean_linker_10, # of connection points: 2
#     Edge 75, Type (0, 0), BuildingBlock: TEMPAE_clean_linker_10, # of connection points: 2
#     Edge 76, Type (0, 0), BuildingBlock: TEMPAE_clean_linker_10, # of connection points: 2
#     Edge 77, Type (0, 0), BuildingBlock: TEMPAE_clean_linker_10, # of connection points: 2
#     Edge 78, Type (0, 0), BuildingBlock: TEMPAE_clean_linker_10, # of connection points: 2
#     Edge 79, Type (0, 0), BuildingBlock: TEMPAE_clean_linker_10, # of connection points: 2
#     Edge 80, Type (0, 0), BuildingBlock: TEMPAE_clean_linker_10, # of connection points: 2
#     Edge 81, Type (0, 0), BuildingBlock: TEMPAE_clean_linker_10, # of connection points: 2
#     Edge 82, Type (0, 0), BuildingBlock: TEMPAE_clean_linker_10, # of connection points: 2
#     Edge 83, Type (0, 0), BuildingBlock: TEMPAE_clean_linker_10, # of connection points: 2
#     Edge 84, Type (0, 0), BuildingBlock: TEMPAE_clean_linker_10, # of connection points: 2
#     Edge 85, Type (0, 0), BuildingBlock: TEMPAE_clean_linker_10, # of connection points: 2
#     Edge 86, Type (0, 0), BuildingBlock: TEMPAE_clean_linker_10, # of connection points: 2
#     Edge 87, Type (0, 0), BuildingBlock: TEMPAE_clean_linker_10, # of connection points: 2
#     Edge 88, Type (0, 0), BuildingBlock: TEMPAE_clean_linker_10, # of connection points: 2
#     Edge 89, Type (0, 0), BuildingBlock: TEMPAE_clean_linker_10, # of connection points: 2
#     Edge 90, Type (0, 0), BuildingBlock: TEMPAE_clean_linker_10, # of connection points: 2
#     Edge 91, Type (0, 0), BuildingBlock: TEMPAE_clean_linker_10, # of connection points: 2
#     Edge 92, Type (0, 0), BuildingBlock: TEMPAE_clean_linker_10, # of connection points: 2
#     Edge 93, Type (0, 0), BuildingBlock: TEMPAE_clean_linker_10, # of connection points: 2
#     Edge 94, Type (0, 0), BuildingBlock: TEMPAE_clean_linker_10, # of connection points: 2
#     Edge 95, Type (0, 0), BuildingBlock: TEMPAE_clean_linker_10, # of connection points: 2
# Relax obj value: 0.064
# Max RMSD: 0.092
# Mean RMSD: 0.092
data_MOF--net-ukc--node1-NAHDIM_clean_sbu_0--edge1-TEMPAE_clean_linker_10
_symmetry_space_group_name_H-M    P1
_symmetry_Int_Tables_number       1
_symmetry_cell_setting            triclinic
loop_
_symmetry_equiv_pos_as_xyz
'x, y, z'
_cell_length_a     46.486109
_cell_length_b     46.503648
_cell_length_c     84.430329
_cell_angle_alpha  90.010758
_cell_angle_beta   90.002143
_cell_angle_gamma 89.992741
loop_
_atom_site_label
_atom_site_type_symbol
_atom_site_fract_x
_atom_site_fract_y
_atom_site_fract_z
_atom_type_partial_charge
C0 C 0.15556 0.37467 0.02231 0.0
O1 O 0.1515 0.36262 0.0362 0.0
O2 O 0.1026 0.3915 0.0499 0.0
Zn3 Zn 0.09622 0.38884 0.02637 0.0
O4 O 0.07394 0.42276 0.01825 0.0
C5 C 0.04734 0.3515 0.0212 0.0
O6 O 0.03278 0.37562 0.02236 0.0
O7 O 0.13461 0.38722 0.01555 0.0
C8 C 0.068 0.42382 0.00356 0.0
O9 O 0.0769 0.40295 0.99429 0.0
C10 C 0.08189 0.38995 0.05968 0.0
O11 O 0.05543 0.3886 0.05427 0.0
O12 O 0.07463 0.35217 0.02213 0.0
C13 C 0.86334 0.8967 0.2755 0.0
O14 O 0.87161 0.89346 0.29027 0.0
O15 O 0.84552 0.84411 0.30244 0.0
Zn16 Zn 0.85001 0.83694 0.27908 0.0
O17 O 0.8163 0.81472 0.2704 0.0
C18 C 0.90874 0.81899 0.28372 0.0
O19 O 0.90899 0.84073 0.29365 0.0
O20 O 0.85342 0.87514 0.26802 0.0
C21 C 0.8176 0.78746 0.26945 0.0
O22 O 0.84074 0.7742 0.2746 0.0
C23 C 0.84966 0.82459 0.3127 0.0
O24 O 0.85472 0.79817 0.30795 0.0
O25 O 0.8861 0.81393 0.27577 0.0
C26 C 0.34254 0.63051 0.5224 0.0
O27 O 0.34565 0.63909 0.53713 0.0
O28 O 0.39428 0.61106 0.54947 0.0
Zn29 Zn 0.4021 0.61616 0.52621 0.0
O30 O 0.42277 0.58192 0.51739 0.0
C31 C 0.42197 0.67431 0.53035 0.0
O32 O 0.39929 0.67596 0.5396 0.0
O33 O 0.3642 0.62056 0.51502 0.0
C34 C 0.42833 0.58179 0.50265 0.0
O35 O 0.42001 0.6037 0.49396 0.0
C36 C 0.41252 0.61761 0.56007 0.0
O37 O 0.43834 0.62607 0.55579 0.0
O38 O 0.42697 0.651 0.52301 0.0
C39 C 0.611 0.10419 0.78017 0.0
O40 O 0.59559 0.10987 0.79284 0.0
O41 O 0.63133 0.15401 0.80897 0.0
Zn42 Zn 0.62945 0.16165 0.78563 0.0
O43 O 0.66458 0.18312 0.77859 0.0
C44 C 0.59051 0.20074 0.76936 0.0
O45 O 0.6103 0.20087 0.75825 0.0
O46 O 0.62691 0.12376 0.77438 0.0
C47 C 0.66752 0.20947 0.78221 0.0
O48 O 0.64753 0.22209 0.79074 0.0
C49 C 0.64719 0.13438 0.81473 0.0
O50 O 0.66411 0.11966 0.80525 0.0
O51 O 0.59416 0.18528 0.7816 0.0
C52 C 0.14562 0.60222 0.47548 0.0
O53 O 0.13625 0.57568 0.47413 0.0
O54 O 0.09816 0.61128 0.43585 0.0
Zn55 Zn 0.09262 0.61446 0.45943 0.0
O56 O 0.07445 0.57903 0.46853 0.0
C57 C 0.06617 0.66948 0.45481 0.0
O58 O 0.0863 0.67187 0.44397 0.0
O59 O 0.13035 0.62268 0.47012 0.0
C60 C 0.06847 0.57984 0.48321 0.0
O61 O 0.07526 0.60292 0.49137 0.0
C62 C 0.12274 0.60912 0.42937 0.0
O63 O 0.14569 0.6066 0.43833 0.0
O64 O 0.06522 0.64694 0.46328 0.0
C65 C 0.6326 0.90335 0.7372 0.0
O66 O 0.65805 0.89112 0.73781 0.0
O67 O 0.61968 0.86323 0.69493 0.0
Zn68 Zn 0.61761 0.85374 0.71811 0.0
O69 O 0.65251 0.8324 0.72593 0.0
C70 C 0.58339 0.80297 0.71683 0.0
O71 O 0.60731 0.79259 0.71085 0.0
O72 O 0.61233 0.89092 0.72979 0.0
C73 C 0.65094 0.82144 0.7397 0.0
O74 O 0.62722 0.82497 0.74794 0.0
C75 C 0.63047 0.84724 0.68427 0.0
O76 O 0.64308 0.82308 0.68836 0.0
O77 O 0.58267 0.82907 0.72127 0.0
C78 C 0.35275 0.37867 0.97266 0.0
O79 O 0.36697 0.40304 0.97198 0.0
O80 O 0.3983 0.36005 0.93301 0.0
Zn81 Zn 0.40301 0.35728 0.95661 0.0
O82 O 0.42628 0.3899 0.96555 0.0
C83 C 0.44873 0.31795 0.95463 0.0
O84 O 0.45847 0.33891 0.94567 0.0
O85 O 0.36399 0.35609 0.96686 0.0
C86 C 0.4331 0.38768 0.98008 0.0
O87 O 0.42465 0.36487 0.988 0.0
C88 C 0.38031 0.37646 0.92618 0.0
O89 O 0.36461 0.39404 0.93476 0.0
O90 O 0.42421 0.32067 0.96109 0.0
C91 C 0.86337 0.0929 0.22471 0.0
O92 O 0.83869 0.106 0.22241 0.0
O93 O 0.88696 0.13379 0.18453 0.0
Zn94 Zn 0.88468 0.14193 0.20778 0.0
O95 O 0.84857 0.16364 0.21304 0.0
C96 C 0.91868 0.1855 0.22393 0.0
O97 O 0.89641 0.18732 0.23346 0.0
O98 O 0.88636 0.10454 0.21969 0.0
C99 C 0.84483 0.18911 0.20802 0.0
O100 O 0.86434 0.20067 0.19873 0.0
C101 C 0.87092 0.11619 0.17717 0.0
O102 O 0.85052 0.10258 0.18489 0.0
O103 O 0.91857 0.16693 0.21289 0.0
C104 C 0.83977 0.59089 0.97814 0.0
O105 O 0.84825 0.57116 0.96803 0.0
O106 O 0.87443 0.62087 0.94275 0.0
Zn107 Zn 0.88854 0.6182 0.96521 0.0
O108 O 0.91438 0.58398 0.96835 0.0
C109 C 0.92172 0.6687 0.95924 0.0
O110 O 0.91831 0.65963 0.94463 0.0
O111 O 0.85423 0.61396 0.97936 0.0
C112 C 0.9409 0.58458 0.96473 0.0
O113 O 0.95164 0.60785 0.95819 0.0
C114 C 0.87311 0.60028 0.93289 0.0
O115 O 0.88114 0.5744 0.93729 0.0
O116 O 0.9105 0.65442 0.9705 0.0
C117 C 0.1093 0.09226 0.71698 0.0
O118 O 0.08514 0.10693 0.71697 0.0
O119 O 0.13382 0.13933 0.67844 0.0
Zn120 Zn 0.13237 0.14347 0.70214 0.0
O121 O 0.16651 0.165 0.71046 0.0
C122 C 0.088 0.18585 0.69972 0.0
O123 O 0.10227 0.19227 0.68676 0.0
O124 O 0.132 0.10383 0.71153 0.0
C125 C 0.16681 0.16996 0.72526 0.0
O126 O 0.14542 0.16047 0.73399 0.0
C127 C 0.11384 0.12472 0.67203 0.0
O128 O 0.0937 0.11366 0.68109 0.0
O129 O 0.09679 0.16529 0.70835 0.0
C130 C 0.65106 0.41103 0.47034 0.0
O131 O 0.6455 0.43012 0.45928 0.0
O132 O 0.61727 0.3859 0.43505 0.0
Zn133 Zn 0.60098 0.38671 0.45713 0.0
O134 O 0.5753 0.4209 0.46073 0.0
C135 C 0.5678 0.33586 0.45039 0.0
O136 O 0.57069 0.34505 0.43577 0.0
O137 O 0.63425 0.38972 0.472 0.0
C138 C 0.54817 0.41967 0.45899 0.0
O139 O 0.5364 0.39567 0.45397 0.0
C140 C 0.60624 0.39867 0.42322 0.0
O141 O 0.58256 0.41369 0.42514 0.0
O142 O 0.57915 0.35016 0.4616 0.0
C143 C 0.34472 0.92137 0.21422 0.0
O144 O 0.32764 0.91662 0.2021 0.0
O145 O 0.35714 0.86929 0.18481 0.0
Zn146 Zn 0.35819 0.86302 0.20831 0.0
O147 O 0.3233 0.84204 0.21596 0.0
C148 C 0.39344 0.81414 0.20699 0.0
O149 O 0.37202 0.8062 0.19782 0.0
O150 O 0.36058 0.90108 0.21924 0.0
C151 C 0.32282 0.83611 0.23065 0.0
O152 O 0.34437 0.84455 0.23959 0.0
C153 C 0.38021 0.87858 0.17857 0.0
O154 O 0.40254 0.88355 0.18771 0.0
O155 O 0.39267 0.83887 0.21336 0.0
C156 C 0.83826 0.41251 0.53016 0.0
O157 O 0.84258 0.42768 0.54307 0.0
O158 O 0.88615 0.39191 0.56049 0.0
Zn159 Zn 0.89497 0.39224 0.53716 0.0
O160 O 0.92093 0.42498 0.53101 0.0
C161 C 0.9275 0.34026 0.54144 0.0
O162 O 0.92929 0.35007 0.55599 0.0
O163 O 0.85798 0.39582 0.52526 0.0
C164 C 0.94815 0.42255 0.53148 0.0
O165 O 0.95956 0.39854 0.53674 0.0
C166 C 0.90079 0.40502 0.57094 0.0
O167 O 0.92273 0.42091 0.56654 0.0
O168 O 0.91372 0.35472 0.53116 0.0
C169 C 0.3469 0.11362 0.2692 0.0
O170 O 0.32676 0.12015 0.27952 0.0
O171 O 0.36466 0.15832 0.30216 0.0
Zn172 Zn 0.36642 0.16812 0.27903 0.0
O173 O 0.33265 0.1916 0.27195 0.0
C174 C 0.42649 0.17927 0.27923 0.0
O175 O 0.4268 0.15322 0.28526 0.0
O176 O 0.36709 0.13144 0.26674 0.0
C177 C 0.33133 0.19698 0.25722 0.0
O178 O 0.35177 0.18718 0.24791 0.0
C179 C 0.37164 0.17676 0.31257 0.0
O180 O 0.37812 0.20302 0.30806 0.0
O181 O 0.40261 0.19025 0.27516 0.0
C182 C 0.65287 0.56786 0.03723 0.0
O183 O 0.65096 0.55259 0.05028 0.0
O184 O 0.60229 0.57606 0.0672 0.0
Zn185 Zn 0.59339 0.57916 0.04394 0.0
O186 O 0.5704 0.54548 0.03575 0.0
C187 C 0.55502 0.62652 0.05034 0.0
O188 O 0.55059 0.61221 0.06352 0.0
O189 O 0.63073 0.58092 0.03213 0.0
C190 C 0.54309 0.54597 0.03496 0.0
O191 O 0.52919 0.56861 0.04023 0.0
C192 C 0.58784 0.5619 0.07731 0.0
O193 O 0.56526 0.54718 0.07263 0.0
O194 O 0.57227 0.61635 0.04008 0.0
C195 C 0.11508 0.88696 0.75513 0.0
O196 O 0.10799 0.86539 0.74587 0.0
O197 O 0.12345 0.84676 0.80223 0.0
Zn198 Zn 0.12294 0.84237 0.77857 0.0
O199 O 0.15759 0.82068 0.77084 0.0
C200 C 0.06247 0.83089 0.77544 0.0
O201 O 0.0603 0.85555 0.78295 0.0
O202 O 0.12245 0.88192 0.76934 0.0
C203 C 0.15689 0.79337 0.7704 0.0
O204 O 0.13376 0.77997 0.77544 0.0
C205 C 0.11336 0.82782 0.81154 0.0
O206 O 0.1033 0.8037 0.80564 0.0
O207 O 0.08726 0.82121 0.77208 0.0
C208 C 0.64728 0.88107 0.53236 0.0
O209 O 0.6448 0.87021 0.54666 0.0
O210 O 0.59444 0.89271 0.56038 0.0
Zn211 Zn 0.5871 0.89179 0.53688 0.0
O212 O 0.56436 0.9264 0.53 0.0
C213 C 0.56981 0.83185 0.53722 0.0
O214 O 0.59171 0.82893 0.54692 0.0
O215 O 0.62514 0.89137 0.52558 0.0
C216 C 0.53702 0.92546 0.53014 0.0
O217 O 0.52417 0.90218 0.53538 0.0
C218 C 0.57646 0.88338 0.57047 0.0
O219 O 0.55121 0.87428 0.56559 0.0
O220 O 0.56453 0.85638 0.53129 0.0
C221 C 0.33739 0.39846 0.76918 0.0
O222 O 0.3207 0.39268 0.78133 0.0
O223 O 0.3606 0.35118 0.79975 0.0
Zn224 Zn 0.35818 0.34256 0.77642 0.0
O225 O 0.32399 0.31808 0.77096 0.0
C226 C 0.41864 0.33146 0.77349 0.0
O227 O 0.42048 0.35605 0.78109 0.0
O228 O 0.35552 0.37975 0.76466 0.0
C229 C 0.32567 0.29086 0.77189 0.0
O230 O 0.34954 0.27913 0.77715 0.0
C231 C 0.34285 0.34232 0.81009 0.0
O232 O 0.32104 0.32625 0.80567 0.0
O233 O 0.39398 0.32168 0.76993 0.0
C234 C 0.86237 0.08622 0.02087 0.0
O235 O 0.86966 0.0687 0.0324 0.0
O236 O 0.90694 0.10774 0.05184 0.0
Zn237 Zn 0.91685 0.10919 0.02867 0.0
O238 O 0.94287 0.07653 0.02243 0.0
C239 C 0.94829 0.161 0.03472 0.0
O240 O 0.94919 0.14988 0.04901 0.0
O241 O 0.87986 0.1058 0.01669 0.0
C242 C 0.97007 0.07911 0.0219 0.0
O243 O 0.98187 0.10377 0.02581 0.0
C244 C 0.91429 0.0879 0.06136 0.0
O245 O 0.9298 0.06626 0.05614 0.0
O246 O 0.93554 0.14727 0.02375 0.0
C247 C 0.15233 0.60696 0.26976 0.0
O248 O 0.17192 0.6123 0.28058 0.0
O249 O 0.13591 0.64836 0.30354 0.0
Zn250 Zn 0.13268 0.66071 0.28082 0.0
O251 O 0.16607 0.68573 0.27464 0.0
C252 C 0.07387 0.6788 0.28609 0.0
O253 O 0.07413 0.65837 0.29684 0.0
O254 O 0.13258 0.62534 0.26737 0.0
C255 C 0.1638 0.71296 0.27508 0.0
O256 O 0.13967 0.72452 0.28009 0.0
C257 C 0.13835 0.66625 0.31482 0.0
O258 O 0.13941 0.69386 0.31159 0.0
O259 O 0.09611 0.6829 0.27766 0.0
C260 C 0.66549 0.07908 0.97117 0.0
O261 O 0.65959 0.06074 0.95978 0.0
O262 O 0.62121 0.09859 0.93938 0.0
Zn263 Zn 0.61029 0.09749 0.96236 0.0
O264 O 0.58724 0.06234 0.9676 0.0
C265 C 0.56295 0.13433 0.95921 0.0
O266 O 0.55562 0.11323 0.94968 0.0
O267 O 0.64674 0.09773 0.97495 0.0
C268 C 0.58402 0.05565 0.98207 0.0
O269 O 0.59629 0.07165 0.99299 0.0
C270 C 0.61015 0.08305 0.92862 0.0
O271 O 0.5902 0.06425 0.93239 0.0
O272 O 0.58649 0.13251 0.96679 0.0
C273 C 0.14588 0.41506 0.21449 0.0
O274 O 0.16154 0.40962 0.20188 0.0
O275 O 0.12358 0.36614 0.18498 0.0
Zn276 Zn 0.12757 0.35811 0.20828 0.0
O277 O 0.16372 0.33595 0.21296 0.0
C278 C 0.06856 0.33867 0.21062 0.0
O279 O 0.06383 0.35899 0.20013 0.0
O280 O 0.12913 0.3957 0.21974 0.0
C281 C 0.16313 0.30865 0.21364 0.0
O282 O 0.13896 0.29515 0.21052 0.0
C283 C 0.1194 0.34643 0.17482 0.0
O284 O 0.11821 0.31955 0.17956 0.0
O285 O 0.09385 0.33506 0.21593 0.0
C286 C 0.84048 0.89524 0.47873 0.0
O287 O 0.85338 0.9203 0.47763 0.0
O288 O 0.87788 0.87697 0.43646 0.0
Zn289 Zn 0.88823 0.87642 0.45955 0.0
O290 O 0.91077 0.91161 0.46599 0.0
C291 C 0.90869 0.81793 0.45665 0.0
O292 O 0.88663 0.81516 0.44704 0.0
O293 O 0.85174 0.87344 0.47211 0.0
C294 C 0.93809 0.91062 0.46661 0.0
O295 O 0.95135 0.88701 0.46218 0.0
C296 C 0.89698 0.87397 0.42583 0.0
O297 O 0.92414 0.87241 0.43005 0.0
O298 O 0.91273 0.84174 0.46365 0.0
C299 C 0.33703 0.59194 0.71563 0.0
O300 O 0.31861 0.5984 0.70437 0.0
O301 O 0.36068 0.6369 0.68369 0.0
Zn302 Zn 0.35857 0.64657 0.70686 0.0
O303 O 0.32428 0.67066 0.71252 0.0
C304 C 0.39911 0.69181 0.70564 0.0
O305 O 0.38032 0.70113 0.69522 0.0
O306 O 0.35674 0.6098 0.71905 0.0
C307 C 0.32307 0.67824 0.72697 0.0
O308 O 0.34367 0.66996 0.73661 0.0
C309 C 0.34969 0.65171 0.6726 0.0
O310 O 0.3346 0.67474 0.67611 0.0
O311 O 0.3944 0.66814 0.71268 0.0
C312 C 0.33785 0.11298 0.46372 0.0
O313 O 0.34295 0.09885 0.45055 0.0
O314 O 0.39089 0.12398 0.43636 0.0
Zn315 Zn 0.39716 0.12443 0.45992 0.0
O316 O 0.4177 0.08915 0.46773 0.0
C317 C 0.44802 0.15793 0.46518 0.0
O318 O 0.46025 0.13268 0.46336 0.0
O319 O 0.35837 0.12635 0.47042 0.0
C320 C 0.42159 0.08767 0.48261 0.0
O321 O 0.41176 0.10853 0.49161 0.0
C322 C 0.41094 0.1233 0.42616 0.0
O323 O 0.43773 0.121 0.43093 0.0
O324 O 0.42073 0.15968 0.46479 0.0
C325 C 0.61774 0.59437 0.2431 0.0
O326 O 0.63896 0.61176 0.2468 0.0
O327 O 0.60694 0.62981 0.19763 0.0
Zn328 Zn 0.60354 0.63935 0.22077 0.0
O329 O 0.63763 0.66184 0.22864 0.0
C330 C 0.56763 0.68622 0.21463 0.0
O331 O 0.5894 0.69149 0.20514 0.0
O332 O 0.5995 0.60219 0.23275 0.0
C333 C 0.65689 0.67272 0.21982 0.0
O334 O 0.6553 0.66913 0.20441 0.0
C335 C 0.61837 0.60669 0.19264 0.0
O336 O 0.62997 0.58882 0.20286 0.0
O337 O 0.56843 0.66391 0.22331 0.0
C338 C 0.16468 0.87821 0.96579 0.0
O339 O 0.15998 0.89434 0.95328 0.0
O340 O 0.11064 0.8655 0.93771 0.0
Zn341 Zn 0.10534 0.86776 0.96128 0.0
O342 O 0.08784 0.90543 0.9678 0.0
C343 C 0.05241 0.83915 0.96926 0.0
O344 O 0.04191 0.86516 0.96744 0.0
O345 O 0.14393 0.86396 0.97165 0.0
C346 C 0.08623 0.91058 0.98255 0.0
O347 O 0.09655 0.89157 0.99257 0.0
C348 C 0.08995 0.86941 0.92813 0.0
O349 O 0.06452 0.87637 0.93374 0.0
O350 O 0.07932 0.83518 0.96766 0.0
C351 C 0.85586 0.40489 0.72643 0.0
O352 O 0.83669 0.39755 0.71573 0.0
O353 O 0.87067 0.35856 0.69526 0.0
Zn354 Zn 0.8736 0.34935 0.71856 0.0
O355 O 0.83856 0.32813 0.72603 0.0
C356 C 0.90766 0.29833 0.72149 0.0
O357 O 0.88255 0.28635 0.71874 0.0
O358 O 0.87532 0.38693 0.73015 0.0
C359 C 0.83749 0.32092 0.74053 0.0
O360 O 0.85919 0.32753 0.74983 0.0
C361 C 0.88215 0.34318 0.68455 0.0
O362 O 0.89557 0.31943 0.68856 0.0
O363 O 0.90922 0.32558 0.72245 0.0
C364 C 0.35914 0.87844 0.01858 0.0
O365 O 0.36642 0.90035 0.02755 0.0
O366 O 0.40398 0.86364 0.05278 0.0
Zn367 Zn 0.41313 0.85848 0.02972 0.0
O368 O 0.43796 0.89111 0.02199 0.0
C369 C 0.45537 0.81731 0.03721 0.0
O370 O 0.46315 0.8386 0.04651 0.0
O371 O 0.37629 0.85729 0.01738 0.0
C372 C 0.46075 0.887 0.01399 0.0
O373 O 0.46845 0.86063 0.01036 0.0
C374 C 0.40407 0.88738 0.06021 0.0
O375 O 0.40992 0.91128 0.05257 0.0
O376 O 0.43392 0.82077 0.02808 0.0
C377 C 0.84131 0.59959 0.77836 0.0
O378 O 0.82262 0.60348 0.78982 0.0
O379 O 0.85464 0.64889 0.80959 0.0
Zn380 Zn 0.85445 0.65755 0.7863 0.0
O381 O 0.81885 0.67901 0.77979 0.0
C382 C 0.89222 0.69824 0.77017 0.0
O383 O 0.87217 0.69872 0.7592 0.0
O384 O 0.85752 0.62034 0.77434 0.0
C385 C 0.81574 0.70513 0.78386 0.0
O386 O 0.8355 0.71724 0.79277 0.0
C387 C 0.8328 0.64675 0.81856 0.0
O388 O 0.80696 0.65069 0.81264 0.0
O389 O 0.8891 0.68204 0.78215 0.0
C390 C 0.13806 0.10272 0.50954 0.0
O391 O 0.1269 0.07736 0.51258 0.0
O392 O 0.08717 0.11895 0.54564 0.0
Zn393 Zn 0.08394 0.12158 0.5219 0.0
O394 O 0.06321 0.08779 0.5123 0.0
C395 C 0.03443 0.15669 0.52073 0.0
O396 O 0.02294 0.13251 0.5257 0.0
O397 O 0.12335 0.12517 0.51238 0.0
C398 C 0.04963 0.06904 0.52029 0.0
O399 O 0.04919 0.07099 0.53581 0.0
C400 C 0.10255 0.10132 0.55342 0.0
O401 O 0.11749 0.08174 0.54581 0.0
O402 O 0.06116 0.15731 0.51761 0.0
C403 C 0.6296 0.38872 0.27963 0.0
O404 O 0.61498 0.37891 0.2918 0.0
O405 O 0.6607 0.33688 0.30562 0.0
Zn406 Zn 0.65499 0.33317 0.28211 0.0
O407 O 0.68891 0.31452 0.2716 0.0
C408 C 0.60092 0.30586 0.28905 0.0
O409 O 0.60411 0.3196 0.30253 0.0
O410 O 0.64819 0.37255 0.27309 0.0
C411 C 0.68571 0.30568 0.25746 0.0
O412 O 0.66086 0.30973 0.25038 0.0
C413 C 0.67216 0.35867 0.31214 0.0
O414 O 0.68382 0.37863 0.30319 0.0
O415 O 0.61998 0.30858 0.27836 0.0
C416 C 0.98975 0.56242 0.96713 0.0
C417 C 0.95984 0.56016 0.96893 0.0
C418 C 0.00808 0.54019 0.97209 0.0
C419 C -0.00382 0.51508 0.97892 0.0
C420 C 0.96597 0.51234 0.98037 0.0
C421 C 0.94816 0.53493 0.97539 0.0
C422 C 0.04021 0.54388 0.97038 0.0
C423 C 0.95249 0.48577 0.9875 0.0
C424 C 0.04142 0.44722 0.98125 0.0
C425 C 0.05034 0.44759 -0.00288 0.0
C426 C 0.02395 0.46916 0.97511 0.0
C427 C 0.01533 0.49206 0.98508 0.0
C428 C 0.02456 0.49277 0.00105 0.0
C429 C 0.04191 0.47048 0.00689 0.0
C430 C 0.01442 0.46766 0.95803 0.0
C431 C 0.0159 0.51693 0.01201 0.0
H432 H -0.00104 0.58183 0.96216 0.0
H433 H 0.92506 0.53295 0.97675 0.0
H434 H 0.05044 0.54386 0.98226 0.0
H435 H 0.04945 0.5256 0.96365 0.0
H436 H 0.04597 0.56422 0.96425 0.0
H437 H 0.92861 0.48647 0.98714 0.0
H438 H 0.95989 0.46631 0.98108 0.0
H439 H 0.95939 0.48348 1e-05 0.0
H440 H 0.04781 0.42959 0.97362 0.0
H441 H 0.04877 0.47097 0.01916 0.0
H442 H 0.02115 0.4874 0.95165 0.0
H443 H 0.9906 0.4666 0.95742 0.0
H444 H 0.02345 0.44868 0.95177 0.0
H445 H 0.02272 0.53789 0.00697 0.0
H446 H 0.02547 0.51465 0.024 0.0
H447 H 0.99214 0.51753 0.0132 0.0
C448 C 0.70232 0.70139 0.21741 0.0
C449 C 0.68056 0.68966 0.22693 0.0
C450 C 0.72474 0.71759 0.22408 0.0
C451 C 0.72534 0.72221 0.24065 0.0
C452 C 0.70343 0.71049 0.25032 0.0
C453 C 0.68134 0.69432 0.24335 0.0
C454 C 0.74782 0.7297 0.21341 0.0
C455 C 0.70334 0.71499 0.26804 0.0
C456 C 0.79631 0.74097 0.26031 0.0
C457 C 0.79384 0.77085 0.2622 0.0
C458 C 0.77425 0.72492 0.25322 0.0
C459 C 0.74906 0.73906 0.24794 0.0
C460 C 0.74637 0.76919 0.24984 0.0
C461 C 0.76882 0.78474 0.25693 0.0
C462 C 0.7779 0.69281 0.25139 0.0
C463 C 0.71975 0.78497 0.2444 0.0
H464 H 0.70188 0.69789 0.20472 0.0
H465 H 0.66462 0.68538 0.25082 0.0
H466 H 0.74864 0.75345 0.21462 0.0
H467 H 0.76916 0.72126 0.21701 0.0
H468 H 0.74416 0.72427 0.20076 0.0
H469 H 0.68457 0.70465 0.27387 0.0
H470 H 0.72331 0.70605 0.27328 0.0
H471 H 0.70297 0.73832 0.27078 0.0
H472 H 0.81559 0.73006 0.26431 0.0
H473 H 0.76673 0.80781 0.25834 0.0
H474 H 0.77611 0.68675 0.23872 0.0
H475 H 0.7605 0.68141 0.25783 0.0
H476 H 0.79895 0.68514 0.25596 0.0
H477 H 0.71639 0.78146 0.23154 0.0
H478 H 0.72108 0.80847 0.24665 0.0
H479 H 0.70055 0.77636 0.25061 0.0
C480 C 0.49987 0.44215 0.46324 0.0
C481 C 0.52995 0.4443 0.46375 0.0
C482 C 0.48237 0.46457 0.46881 0.0
C483 C 0.4953 0.48971 0.47502 0.0
C484 C 0.52563 0.49234 0.47517 0.0
C485 C 0.54259 0.46961 0.46953 0.0
C486 C 0.45009 0.46105 0.46843 0.0
C487 C 0.54018 0.5189 0.48165 0.0
C488 C 0.45133 0.55807 0.47926 0.0
C489 C 0.44463 0.55776 0.49546 0.0
C490 C 0.46751 0.53587 0.47238 0.0
C491 C 0.4772 0.51284 0.48194 0.0
C492 C 0.47019 0.5122 0.49825 0.0
C493 C 0.45399 0.53467 0.50482 0.0
C494 C 0.47456 0.53723 0.45494 0.0
C495 C 0.48014 0.48795 0.50882 0.0
H496 H 0.48992 0.4227 0.45876 0.0
H497 H 0.56582 0.4715 0.46993 0.0
H498 H 0.44151 0.46104 0.48069 0.0
H499 H 0.44004 0.47943 0.46213 0.0
H500 H 0.4434 0.44079 0.46251 0.0
H501 H 0.56394 0.51809 0.48029 0.0
H502 H 0.53201 0.53835 0.47553 0.0
H503 H 0.53505 0.52129 0.49442 0.0
H504 H 0.44414 0.57581 0.47193 0.0
H505 H 0.44887 0.53424 0.51734 0.0
H506 H 0.46691 0.51746 0.4489 0.0
H507 H 0.49821 0.53826 0.45329 0.0
H508 H 0.46469 0.55619 0.44905 0.0
H509 H 0.47248 0.46705 0.50408 0.0
H510 H 0.47228 0.4903 0.52118 0.0
H511 H 0.50399 0.48716 0.50901 0.0
C512 C 0.81291 0.29411 0.76232 0.0
C513 C 0.81249 0.3049 0.74681 0.0
C514 C 0.78951 0.2786 0.7684 0.0
C515 C 0.76504 0.27395 0.75876 0.0
C516 C 0.76438 0.28495 0.74313 0.0
C517 C 0.78817 0.30022 0.73732 0.0
C518 C 0.79103 0.26703 0.78509 0.0
C519 C 0.73856 0.28055 0.73255 0.0
C520 C 0.71518 0.21186 0.76853 0.0
C521 C 0.69271 0.2259 0.77648 0.0
C522 C 0.73896 0.22722 0.7628 0.0
C523 C 0.74019 0.25737 0.76498 0.0
C524 C 0.71763 0.27167 0.77303 0.0
C525 C 0.69419 0.25575 0.77873 0.0
C526 C 0.76272 0.21121 0.75436 0.0
C527 C 0.71817 0.30383 0.77551 0.0
H528 H 0.83165 0.29757 0.76972 0.0
H529 H 0.78765 0.30856 0.72534 0.0
H530 H 0.773 0.27576 0.79224 0.0
H531 H 0.7887 0.24328 0.78495 0.0
H532 H 0.8116 0.27256 0.79105 0.0
H533 H 0.7413 0.29084 0.72077 0.0
H534 H 0.73472 0.25722 0.73077 0.0
H535 H 0.71905 0.28957 0.73826 0.0
H536 H 0.71423 0.18878 0.76678 0.0
H537 H 0.67687 0.26677 0.78482 0.0
H538 H 0.78352 0.21494 0.76046 0.0
H539 H 0.76499 0.21943 0.74209 0.0
H540 H 0.75868 0.18769 0.75384 0.0
H541 H 0.73772 0.31004 0.78222 0.0
H542 H 0.69897 0.31168 0.78204 0.0
H543 H 0.71916 0.31495 0.7639 0.0
C544 C 0.95447 0.47088 0.519 0.0
C545 C 0.96673 0.44593 0.52545 0.0
C546 C 0.97177 0.49259 0.51251 0.0
C547 C 0.00203 0.48929 0.51252 0.0
C548 C 0.01458 0.46442 0.51925 0.0
C549 C -0.00323 0.44301 0.52564 0.0
C550 C 0.95762 0.51886 0.50544 0.0
C551 C 0.0468 0.46026 0.51952 0.0
C552 C 0.04354 0.53222 0.48192 0.0
C553 C 0.05287 0.55586 0.49086 0.0
C554 C 0.02738 0.51013 0.48889 0.0
C555 C 0.02046 0.51171 0.5052 0.0
C556 C 0.03036 0.53517 0.51437 0.0
C557 C 0.04643 0.55699 0.50708 0.0
C558 C 0.01718 0.4854 0.47874 0.0
C559 C 0.0235 0.53749 0.53181 0.0
H560 H 0.93129 0.47333 0.51882 0.0
H561 H 0.00642 0.42382 0.53062 0.0
H562 H 0.96588 0.53859 0.51127 0.0
H563 H 0.96305 0.52045 0.49268 0.0
H564 H 0.93383 0.5184 0.50667 0.0
H565 H 0.05319 0.44007 0.52562 0.0
H566 H 0.05521 0.45967 0.50723 0.0
H567 H 0.05727 0.47864 0.52559 0.0
H568 H 0.04847 0.53116 0.46938 0.0
H569 H 0.05364 0.57513 0.5141 0.0
H570 H 0.99332 0.48501 0.47847 0.0
H571 H 0.02442 0.46468 0.48389 0.0
H572 H 0.02523 0.48687 0.46638 0.0
H573 H -0.00012 0.53917 0.53348 0.0
H574 H 0.03384 0.55648 0.5374 0.0
H575 H 0.03072 0.51784 0.5381 0.0
C576 C 0.70088 0.80149 0.73779 0.0
C577 C 0.67521 0.80471 0.74634 0.0
C578 C 0.72388 0.78543 0.74395 0.0
C579 C 0.72109 0.77226 0.75899 0.0
C580 C 0.69527 0.77549 0.76768 0.0
C581 C 0.67266 0.7917 0.76126 0.0
C582 C 0.75114 0.78251 0.73436 0.0
C583 C 0.69148 0.7617 0.78375 0.0
C584 C 0.76982 0.70907 0.76854 0.0
C585 C 0.79106 0.72211 0.77791 0.0
C586 C 0.74685 0.72512 0.76236 0.0
C587 C 0.74513 0.75493 0.7656 0.0
C588 C 0.76636 0.76819 0.77514 0.0
C589 C 0.78905 0.75161 0.7812 0.0
C590 C 0.72453 0.71021 0.75228 0.0
C591 C 0.76522 0.79994 0.77885 0.0
H592 H 0.70304 0.81149 0.72626 0.0
H593 H 0.65289 0.79405 0.76795 0.0
H594 H 0.76971 0.79082 0.74123 0.0
H595 H 0.75543 0.75948 0.73184 0.0
H596 H 0.74997 0.7943 0.72293 0.0
H597 H 0.67009 0.76638 0.78901 0.0
H598 H 0.69399 0.73804 0.78274 0.0
H599 H 0.70838 0.76947 0.79198 0.0
H600 H 0.77118 0.68628 0.76594 0.0
H601 H 0.80539 0.76187 0.78841 0.0
H602 H 0.72398 0.72003 0.74031 0.0
H603 H 0.70287 0.71308 0.75757 0.0
H604 H 0.72882 0.68682 0.75101 0.0
H605 H 0.76591 0.81254 0.76769 0.0
H606 H 0.78332 0.80693 0.78653 0.0
H607 H 0.74468 0.80524 0.78486 0.0
C608 C 0.45616 0.40821 0.00431 0.0
C609 C 0.44976 0.41055 0.98812 0.0
C610 C 0.4716 0.42979 0.0122 0.0
C611 C 0.48093 0.45428 0.0037 0.0
C612 C 0.47472 0.45672 0.98733 0.0
C613 C 0.45917 0.43482 0.97974 0.0
C614 C 0.47778 0.42647 0.02967 0.0
C615 C 0.48438 0.48253 0.97788 0.0
C616 C 0.49708 0.52265 0.02658 0.0
C617 C 0.52721 0.522 0.02743 0.0
C618 C 0.48174 0.50067 0.01895 0.0
C619 C 0.49691 0.47752 0.01198 0.0
C620 C 0.52729 0.47657 0.01291 0.0
C621 C 0.54209 0.49881 0.02064 0.0
C622 C 0.44932 0.50233 0.01825 0.0
C623 C 0.54418 0.45219 0.00561 0.0
H624 H 0.44897 0.38953 0.01089 0.0
H625 H 0.45434 0.43677 0.96722 0.0
H626 H 0.50132 0.42722 0.03179 0.0
H627 H 0.46805 0.44458 0.03634 0.0
H628 H 0.46926 0.40597 0.03453 0.0
H629 H 0.47815 0.48097 0.9652 0.0
H630 H 0.47483 0.50239 0.98291 0.0
H631 H 0.5081 0.4848 0.97862 0.0
H632 H 0.4854 0.54046 0.0318 0.0
H633 H 0.56537 0.49815 0.02123 0.0
H634 H 0.43976 0.48288 0.02374 0.0
H635 H 0.4421 0.5029 0.00573 0.0
H636 H 0.44075 0.52163 0.02442 0.0
H637 H 0.53718 0.4314 0.01076 0.0
H638 H 0.56772 0.45454 0.00747 0.0
H639 H 0.53992 0.45119 0.99269 0.0
C640 C 0.81824 0.23574 0.21021 0.0
C641 C 0.82022 0.20636 0.2138 0.0
C642 C 0.79615 0.25276 0.21659 0.0
C643 C 0.77552 0.24004 0.22673 0.0
C644 C 0.77697 0.21026 0.23007 0.0
C645 C 0.79933 0.19378 0.22359 0.0
C646 C 0.79527 0.28447 0.21277 0.0
C647 C 0.75526 0.19589 0.24077 0.0
C648 C 0.73596 0.28641 0.25663 0.0
C649 C 0.70912 0.28996 0.24931 0.0
C650 C 0.75794 0.27062 0.24928 0.0
C651 C 0.7529 0.25799 0.23427 0.0
C652 C 0.72601 0.26183 0.22671 0.0
C653 C 0.70445 0.27783 0.23431 0.0
C654 C 0.78641 0.26708 0.25767 0.0
C655 C 0.71984 0.24862 0.21073 0.0
H656 H 0.8343 0.24564 0.20267 0.0
H657 H 0.80064 0.17107 0.22638 0.0
H658 H 0.77398 0.29032 0.20778 0.0
H659 H 0.79817 0.29717 0.22378 0.0
H660 H 0.81223 0.29082 0.20418 0.0
H661 H 0.75875 0.17232 0.24168 0.0
H662 H 0.75653 0.20531 0.25283 0.0
H663 H 0.73315 0.19978 0.23631 0.0
H664 H 0.73978 0.29579 0.26819 0.0
H665 H 0.68377 0.28046 0.22856 0.0
H666 H 0.80419 0.27474 0.24998 0.0
H667 H 0.79037 0.24398 0.26013 0.0
H668 H 0.78721 0.27907 0.26904 0.0
H669 H 0.73614 0.25575 0.20197 0.0
H670 H 0.69814 0.25438 0.20622 0.0
H671 H 0.72135 0.22485 0.21153 0.0
C672 C 0.27644 0.28522 0.76033 0.0
C673 C 0.30174 0.27262 0.76616 0.0
C674 C 0.25424 0.26828 0.75405 0.0
C675 C 0.25743 0.23802 0.75358 0.0
C676 C 0.28266 0.22513 0.7597 0.0
C677 C 0.30452 0.24259 0.76594 0.0
C678 C 0.22756 0.28278 0.74769 0.0
C679 C 0.28678 0.19291 0.75942 0.0
C680 C 0.19002 0.19282 0.74883 0.0
C681 C 0.1904 0.18675 0.73255 0.0
C682 C 0.21182 0.2093 0.75586 0.0
C683 C 0.23456 0.21993 0.74639 0.0
C684 C 0.23524 0.21367 0.72999 0.0
C685 C 0.21314 0.19715 0.72325 0.0
C686 C 0.21039 0.21555 0.7734 0.0
C687 C 0.2592 0.22462 0.71952 0.0
H688 H 0.27408 0.30841 0.76049 0.0
H689 H 0.32398 0.23267 0.77042 0.0
H690 H 0.22526 0.2781 0.73486 0.0
H691 H 0.20817 0.27417 0.7537 0.0
H692 H 0.2281 0.30648 0.74933 0.0
H693 H 0.30732 0.18622 0.76504 0.0
H694 H 0.26875 0.18217 0.76566 0.0
H695 H 0.2866 0.18511 0.747 0.0
H696 H 0.17254 0.18486 0.7561 0.0
H697 H 0.21361 0.19254 0.71067 0.0
H698 H 0.20915 0.23911 0.77537 0.0
H699 H 0.23024 0.20781 0.77932 0.0
H700 H 0.19153 0.20526 0.77915 0.0
H701 H 0.25958 0.24847 0.71973 0.0
H702 H 0.25684 0.21741 0.70704 0.0
H703 H 0.28028 0.21707 0.72407 0.0
C704 C 0.21291 0.71912 0.26346 0.0
C705 C 0.18751 0.73142 0.26934 0.0
C706 C 0.23506 0.73637 0.2574 0.0
C707 C 0.23172 0.76662 0.25723 0.0
C708 C 0.20631 0.7792 0.26333 0.0
C709 C 0.1845 0.76144 0.26932 0.0
C710 C 0.26192 0.72222 0.25102 0.0
C711 C 0.20205 0.8114 0.26336 0.0
C712 C 0.29901 0.81226 0.25369 0.0
C713 C 0.29903 0.81907 0.2375 0.0
C714 C 0.2771 0.79538 0.2603 0.0
C715 C 0.2547 0.78508 0.25048 0.0
C716 C 0.25441 0.7921 0.23417 0.0
C717 C 0.27659 0.80903 0.22787 0.0
C718 C 0.27806 0.78835 0.27776 0.0
C719 C 0.23081 0.78149 0.22335 0.0
H720 H 0.21541 0.69595 0.26345 0.0
H721 H 0.16496 0.77112 0.27385 0.0
H722 H 0.26458 0.72759 0.2383 0.0
H723 H 0.28113 0.73052 0.25733 0.0
H724 H 0.26136 0.69844 0.25227 0.0
H725 H 0.18126 0.8178 0.26882 0.0
H726 H 0.21978 0.82196 0.26996 0.0
H727 H 0.2027 0.81969 0.25105 0.0
H728 H 0.31625 0.81995 0.26122 0.0
H729 H 0.27646 0.81421 0.21535 0.0
H730 H 0.27937 0.76472 0.27942 0.0
H731 H 0.25801 0.79573 0.28361 0.0
H732 H 0.2967 0.79847 0.28381 0.0
H733 H 0.23055 0.75764 0.22325 0.0
H734 H 0.23349 0.78926 0.21099 0.0
H735 H 0.20956 0.78874 0.22781 0.0
C736 C 0.28546 0.22456 0.26045 0.0
C737 C 0.30714 0.21376 0.25055 0.0
C738 C 0.26231 0.24027 0.2542 0.0
C739 C 0.26084 0.24524 0.23768 0.0
C740 C 0.2827 0.2345 0.22764 0.0
C741 C 0.3056 0.21889 0.2342 0.0
C742 C 0.23938 0.25144 0.26528 0.0
C743 C 0.28181 0.23935 0.20996 0.0
C744 C 0.18757 0.26231 0.22027 0.0
C745 C 0.1887 0.29236 0.21898 0.0
C746 C 0.21103 0.24668 0.22618 0.0
C747 C 0.23623 0.26145 0.23089 0.0
C748 C 0.23773 0.29172 0.22936 0.0
C749 C 0.21394 0.30683 0.22341 0.0
C750 C 0.2087 0.21438 0.22759 0.0
C751 C 0.26429 0.30819 0.23425 0.0
H752 H 0.2865 0.22071 0.27309 0.0
H753 H 0.32227 0.21062 0.22646 0.0
H754 H 0.23766 0.27516 0.26419 0.0
H755 H 0.21816 0.2423 0.26198 0.0
H756 H 0.24386 0.24599 0.27785 0.0
H757 H 0.30065 0.22979 0.20381 0.0
H758 H 0.26191 0.22982 0.20494 0.0
H759 H 0.28122 0.26274 0.20737 0.0
H760 H 0.16818 0.25096 0.21686 0.0
H761 H 0.21501 0.33004 0.22244 0.0
H762 H 0.2109 0.20791 0.24018 0.0
H763 H 0.22643 0.20391 0.22095 0.0
H764 H 0.18788 0.20609 0.22302 0.0
H765 H 0.26839 0.30497 0.24707 0.0
H766 H 0.26227 0.33161 0.23193 0.0
H767 H 0.28335 0.29993 0.22778 0.0
C768 C 0.18049 0.74674 0.76343 0.0
C769 C 0.18143 0.77687 0.76389 0.0
C770 C 0.2034 0.73077 0.75714 0.0
C771 C 0.22784 0.7453 0.75116 0.0
C772 C 0.22894 0.7757 0.75154 0.0
C773 C 0.20572 0.79114 0.75792 0.0
C774 C 0.20151 0.69835 0.75697 0.0
C775 C 0.25468 0.79191 0.74527 0.0
C776 C 0.29783 0.70358 0.74904 0.0
C777 C 0.29887 0.6958 0.73299 0.0
C778 C 0.27493 0.71985 0.75507 0.0
C779 C 0.25252 0.72859 0.74481 0.0
C780 C 0.2535 0.72102 0.72857 0.0
C781 C 0.27669 0.70468 0.72285 0.0
C782 C 0.27463 0.72752 0.77246 0.0
C783 C 0.22997 0.73001 0.71728 0.0
H784 H 0.1618 0.73553 0.768 0.0
H785 H 0.2066 0.81443 0.75819 0.0
H786 H 0.20378 0.69026 0.74467 0.0
H787 H 0.21941 0.68905 0.76398 0.0
H788 H 0.18084 0.69036 0.76189 0.0
H789 H 0.25198 0.81559 0.74622 0.0
H790 H 0.27426 0.78558 0.75193 0.0
H791 H 0.25837 0.7863 0.73267 0.0
H792 H 0.31489 0.69684 0.75696 0.0
H793 H 0.27736 0.69879 0.71043 0.0
H794 H 0.25517 0.7184 0.77817 0.0
H795 H 0.2736 0.75121 0.77391 0.0
H796 H 0.29392 0.71939 0.7788 0.0
H797 H 0.20909 0.72093 0.72121 0.0
H798 H 0.23418 0.72278 0.70496 0.0
H799 H 0.22773 0.75376 0.71732 0.0
C800 C 0.48983 0.94751 0.52274 0.0
C801 C 0.51989 0.94963 0.52371 0.0
C802 C 0.47334 0.96975 0.51613 0.0
C803 C 0.48724 0.99474 0.51041 0.0
C804 C 0.51753 -0.00284 0.51149 0.0
C805 C 0.5335 0.97456 0.51812 0.0
C806 C 0.44107 0.9664 0.51517 0.0
C807 C 0.53308 0.02357 0.50557 0.0
C808 C 0.44847 0.04119 0.48019 0.0
C809 C 0.43792 0.06356 0.4897 0.0
C810 C 0.46446 0.01856 0.48679 0.0
C811 C 0.47008 0.01837 0.50327 0.0
C812 C 0.45938 0.04081 0.51294 0.0
C813 C 0.4434 0.06311 0.50604 0.0
C814 C 0.47546 0.99492 0.47612 0.0
C815 C 0.46498 0.04135 0.53056 0.0
H816 H 0.47912 0.92831 0.52701 0.0
H817 H 0.55671 0.97639 0.51883 0.0
H818 H 0.43037 0.98424 0.52161 0.0
H819 H 0.43401 0.96763 0.50263 0.0
H820 H 0.43357 0.94568 0.52024 0.0
H821 H 0.5567 0.02223 0.50743 0.0
H822 H 0.52887 0.02653 0.49274 0.0
H823 H 0.52487 0.04298 0.51173 0.0
H824 H 0.44431 0.04137 0.46756 0.0
H825 H 0.43536 0.08032 0.51348 0.0
H826 H 0.46717 0.97381 0.4802 0.0
H827 H 0.49928 0.99395 0.47672 0.0
H828 H 0.46898 -0.00191 0.46357 0.0
H829 H 0.45637 0.02153 0.53613 0.0
H830 H 0.45503 0.06028 0.53642 0.0
H831 H 0.48848 0.04176 0.53283 0.0
C832 C 0.06775 0.94098 0.00475 0.0
C833 C 0.07126 0.93656 0.98843 0.0
C834 C 0.05228 0.96466 0.01051 0.0
C835 C 0.04009 0.98444 -0.00031 0.0
C836 C 0.04409 0.98048 0.98321 0.0
C837 C 0.0596 0.95655 0.97777 0.0
C838 C 0.04844 0.96818 0.02817 0.0
C839 C 0.03149 0.00121 0.97132 0.0
C840 C 0.97555 0.02812 0.01299 0.0
C841 C 0.98813 0.05478 0.01652 0.0
C842 C 0.99226 0.00503 0.00757 0.0
C843 C 0.02227 0.0087 0.00559 0.0
C844 C 0.03515 0.03548 0.0092 0.0
C845 C 0.01792 0.05821 0.01466 0.0
C846 C 0.97778 0.97673 0.0039 0.0
C847 C 0.06709 0.04017 0.0072 0.0
H848 H 0.07672 0.92566 0.01307 0.0
H849 H 0.06228 0.95334 0.96514 0.0
H850 H 0.05616 0.98968 0.03197 0.0
H851 H 0.02526 0.96688 0.03122 0.0
H852 H 0.06019 0.9515 0.03502 0.0
H853 H 0.03757 0.99574 0.95896 0.0
H854 H 0.00768 0.00112 0.97224 0.0
H855 H 0.03883 0.02342 0.97391 0.0
H856 H 0.95256 0.02526 0.01443 0.0
H857 H 0.02781 0.07874 0.01734 0.0
H858 H 0.98743 0.95934 0.01116 0.0
H859 H 0.98127 0.971 0.99129 0.0
H860 H 0.95426 0.97733 0.00621 0.0
H861 H 0.0792 0.02451 0.01454 0.0
H862 H 0.07379 0.06225 0.01062 0.0
H863 H 0.07332 0.03641 0.99469 0.0
C864 C 0.55016 0.01578 0.97515 0.0
C865 C 0.56622 0.03062 0.98661 0.0
C866 C 0.53276 0.99236 0.97936 0.0
C867 C 0.53159 0.98343 0.99537 0.0
C868 C 0.5479 -0.00183 0.00697 0.0
C869 C 0.56494 0.02167 0.00245 0.0
C870 C 0.51548 0.97727 0.96669 0.0
C871 C 0.54735 0.98911 0.02414 0.0
C872 C 0.46764 0.93967 0.00949 0.0
C873 C 0.47872 0.91163 0.00906 0.0
C874 C 0.48453 0.96323 0.00489 0.0
C875 C 0.51329 0.95865 0.0 0.0
C876 C 0.52464 0.93041 -0.00037 0.0
C877 C 0.50713 0.9072 0.00404 0.0
C878 C 0.47159 0.99302 0.00525 0.0
C879 C 0.55535 0.92476 0.99469 0.0
H880 H 0.55096 0.02263 0.96289 0.0
H881 H 0.57734 0.03298 0.01136 0.0
H882 H 0.5217 0.95426 0.9661 0.0
H883 H 0.49226 0.97808 0.96968 0.0
H884 H 0.51862 0.98702 0.9548 0.0
H885 H 0.56157 0.00262 0.03166 0.0
H886 H 0.52509 0.99052 0.02882 0.0
H887 H 0.55426 0.96636 0.02523 0.0
H888 H 0.44564 0.9432 0.01328 0.0
H889 H 0.51587 0.88559 0.00379 0.0
H890 H 0.47293 0.00294 0.99332 0.0
H891 H 0.48395 0.00693 0.01347 0.0
H892 H 0.44871 0.99284 0.00906 0.0
H893 H 0.55895 0.93266 0.98245 0.0
H894 H 0.56094 0.90155 0.99514 0.0
H895 H 0.5703 0.9367 0.00254 0.0
C896 C 0.01993 0.02417 0.52078 0.0
C897 C 0.03358 0.04593 0.51209 0.0
C898 C 0.00434 0.00238 0.51312 0.0
C899 C 0.00224 0.00247 0.49639 0.0
C900 C 0.01593 0.02439 0.48755 0.0
C901 C 0.03151 0.04581 0.4955 0.0
C902 C 0.99016 0.97922 0.52294 0.0
C903 C 0.01406 0.02524 0.4697 0.0
C904 C 0.98434 0.93199 0.47603 0.0
C905 C 0.95467 0.93482 0.47342 0.0
C906 C 0.00012 0.95395 0.48338 0.0
C907 C 0.98593 0.97944 0.48814 0.0
C908 C 0.95611 0.98272 0.48524 0.0
C909 C 0.9408 0.96032 0.47795 0.0
C910 C 0.03189 0.94965 0.48632 0.0
C911 C 0.94032 0.00973 0.49004 0.0
H912 H 0.02145 0.02409 0.53359 0.0
H913 H 0.04191 0.06259 0.48869 0.0
H914 H 0.96663 0.97912 0.52072 0.0
H915 H -0.00147 0.95781 0.51942 0.0
H916 H 0.99388 0.98221 0.53583 0.0
H917 H 0.02571 0.04392 0.46459 0.0
H918 H 0.02321 0.00523 0.46463 0.0
H919 H 0.99121 0.02635 0.46595 0.0
H920 H 0.99523 0.91235 0.4726 0.0
H921 H 0.9179 0.96271 0.47595 0.0
H922 H 0.03634 0.95047 0.49922 0.0
H923 H 0.04437 0.96724 0.48071 0.0
H924 H 0.0398 0.92877 0.48162 0.0
H925 H 0.94153 0.01253 0.50307 0.0
H926 H 0.91731 0.00928 0.48649 0.0
H927 H 0.95066 0.02881 0.48458 0.0
C928 C 0.96411 0.19968 0.01597 0.0
C929 C 0.96223 0.18898 0.03148 0.0
C930 C 0.97754 0.22611 0.01284 0.0
C931 C 0.98919 0.24223 0.02553 0.0
C932 C 0.98721 0.23161 0.04121 0.0
C933 C 0.97383 0.20509 0.04398 0.0
C934 C 0.97941 0.23674 0.99598 0.0
C935 C -0.00073 0.24827 0.05507 0.0
C936 C 0.04766 0.29784 0.01926 0.0
C937 C 0.03211 0.32359 0.02053 0.0
C938 C 0.03377 0.27113 0.0202 0.0
C939 C 0.00365 0.27018 0.02255 0.0
C940 C 0.98767 0.29607 0.02321 0.0
C941 C 0.0021 0.32249 0.02215 0.0
C942 C 0.05149 0.24396 0.01932 0.0
C943 C 0.95551 0.29589 0.02572 0.0
H944 H 0.95524 0.18731 0.00625 0.0
H945 H 0.9724 0.19704 0.056 0.0
H946 H 0.96877 0.25801 0.99493 0.0
H947 H 0.00227 0.2397 0.99258 0.0
H948 H 0.9692 0.22167 0.98745 0.0
H949 H 0.99568 0.23715 0.06654 0.0
H950 H 0.02273 0.25155 0.05347 0.0
H951 H 0.98916 0.26986 0.05566 0.0
H952 H 0.07084 0.29851 0.0179 0.0
H953 H 0.98991 0.34228 0.02309 0.0
H954 H 0.04223 0.22896 0.01047 0.0
H955 H 0.05106 0.23287 0.03096 0.0
H956 H 0.07426 0.24831 0.01613 0.0
H957 H 0.94495 0.28161 0.01695 0.0
H958 H 0.94598 0.31772 0.02473 0.0
H959 H 0.95056 0.28722 0.03766 0.0
C960 C 0.02502 0.69526 0.29461 0.0
C961 C 0.04887 0.6983 0.28458 0.0
C962 C 0.00197 0.71471 0.29393 0.0
C963 C 0.00281 0.73768 0.28294 0.0
C964 C 0.02653 0.74053 0.27256 0.0
C965 C 0.04928 0.7208 0.27351 0.0
C966 C 0.97698 0.71099 0.30517 0.0
C967 C 0.02813 0.76472 0.26066 0.0
C968 C 0.93242 0.7748 0.27296 0.0
C969 C 0.93352 0.79909 0.28282 0.0
C970 C 0.95498 0.75478 0.27274 0.0
C971 C 0.9792 0.75918 0.28259 0.0
C972 C 0.98069 0.7839 0.29234 0.0
C973 C 0.95782 0.80358 0.29233 0.0
C974 C 0.9527 0.72869 0.26216 0.0
C975 C 0.00624 0.78932 0.30299 0.0
H976 H 0.02452 0.67794 0.30319 0.0
H977 H 0.06761 0.7233 0.26569 0.0
H978 H 0.97528 0.73005 0.31301 0.0
H979 H 0.95655 0.70946 0.29842 0.0
H980 H 0.9792 0.69148 0.31266 0.0
H981 H 0.04761 0.76333 0.25307 0.0
H982 H 0.00882 0.76448 0.25294 0.0
H983 H 0.02835 0.7857 0.26692 0.0
H984 H 0.9137 0.77116 0.26557 0.0
H985 H 0.95885 0.82228 0.29998 0.0
H986 H 0.95285 0.70886 0.26946 0.0
H987 H 0.97155 0.72758 0.25412 0.0
H988 H 0.93279 0.72886 0.25488 0.0
H989 H 0.00835 0.77156 0.31168 0.0
H990 H 0.00439 0.80994 0.30956 0.0
H991 H 0.02632 0.78975 0.29588 0.0
C992 C 0.46673 0.69677 0.5195 0.0
C993 C 0.44303 0.69813 0.52977 0.0
C994 C 0.48791 0.71826 0.51961 0.0
C995 C 0.48539 0.74155 0.53031 0.0
C996 C 0.46125 0.74334 0.54048 0.0
C997 C 0.4403 0.72165 0.54005 0.0
C998 C 0.51324 0.71579 0.50849 0.0
C999 C 0.45786 0.76785 0.55208 0.0
C1000 C 0.55211 0.78225 0.54325 0.0
C1001 C 0.54965 0.80774 0.53449 0.0
C1002 C 0.53164 0.76025 0.54176 0.0
C1003 C 0.50829 0.76377 0.53117 0.0
C1004 C 0.5062 0.78902 0.5219 0.0
C1005 C 0.52686 0.81075 0.5237 0.0
C1006 C 0.53453 0.73361 0.55186 0.0
C1007 C 0.48173 0.79342 0.51039 0.0
H1008 H 0.46895 0.67869 0.51148 0.0
H1009 H 0.4221 0.72285 0.54804 0.0
H1010 H 0.51518 0.73557 0.50123 0.0
H1011 H 0.53341 0.71366 0.51541 0.0
H1012 H 0.51137 0.69699 0.50043 0.0
H1013 H 0.43751 0.76641 0.55892 0.0
H1014 H 0.47615 0.7679 0.56052 0.0
H1015 H 0.45826 0.7887 0.54571 0.0
H1016 H 0.56963 0.77977 0.55161 0.0
H1017 H 0.52486 0.83033 0.51683 0.0
H1018 H 0.53441 0.71411 0.5443 0.0
H1019 H 0.51587 0.73198 0.56001 0.0
H1020 H 0.55458 0.73367 0.55903 0.0
H1021 H 0.48035 0.77497 0.50209 0.0
H1022 H 0.48416 0.81351 0.50339 0.0
H1023 H 0.46106 0.79442 0.51693 0.0
C1024 C 0.56154 0.23851 0.7554 0.0
C1025 C 0.56503 0.21972 0.76826 0.0
C1026 C 0.53808 0.25751 0.75471 0.0
C1027 C 0.51774 0.2577 0.76719 0.0
C1028 C 0.52095 0.2385 0.78007 0.0
C1029 C 0.54451 0.21975 0.78044 0.0
C1030 C 0.53523 0.27763 0.74077 0.0
C1031 C 0.49967 0.23803 0.7936 0.0
C1032 C 0.47156 0.32292 0.77609 0.0
C1033 C 0.44468 0.31405 0.77035 0.0
C1034 C 0.49587 0.30525 0.77454 0.0
C1035 C 0.49321 0.27816 0.76704 0.0
C1036 C 0.46644 0.26966 0.76058 0.0
C1037 C 0.44247 0.2877 0.76234 0.0
C1038 C 0.5241 0.31504 0.78157 0.0
C1039 C 0.46281 0.24099 0.75243 0.0
H1040 H 0.5773 0.23862 0.74594 0.0
H1041 H 0.54699 0.20529 0.79041 0.0
H1042 H 0.51401 0.27464 0.73499 0.0
H1043 H 0.53626 0.30025 0.7449 0.0
H1044 H 0.55239 0.2742 0.7318 0.0
H1045 H 0.50506 0.2215 0.80263 0.0
H1046 H 0.49912 0.25937 0.79947 0.0
H1047 H 0.47772 0.23365 0.78905 0.0
H1048 H 0.47348 0.34329 0.78223 0.0
H1049 H 0.42181 0.28076 0.75777 0.0
H1050 H 0.54158 0.31319 0.77269 0.0
H1051 H 0.52987 0.30095 0.79169 0.0
H1052 H 0.52317 0.33762 0.78584 0.0
H1053 H 0.47961 0.23807 0.74324 0.0
H1054 H 0.44134 0.23876 0.74678 0.0
H1055 H 0.46546 0.22339 0.76118 0.0
C1056 C 0.95453 0.79854 0.46782 0.0
C1057 C 0.93041 0.79482 0.45803 0.0
C1058 C 0.97659 0.778 0.46824 0.0
C1059 C 0.97448 0.75317 0.45864 0.0
C1060 C 0.94982 0.74886 0.44908 0.0
C1061 C 0.92805 0.76975 0.44891 0.0
C1062 C 0.00252 0.78327 0.47863 0.0
C1063 C 0.94683 0.72256 0.43871 0.0
C1064 C 0.04318 0.71547 0.44617 0.0
C1065 C 0.04355 0.69168 0.45637 0.0
C1066 C 0.02093 0.73579 0.44689 0.0
C1067 C -0.00143 0.73225 0.45811 0.0
C1068 C -0.00093 0.70859 0.46863 0.0
C1069 C 0.02157 0.68857 0.46763 0.0
C1070 C 0.02113 0.76083 0.4355 0.0
C1071 C 0.97563 0.70421 0.48078 0.0
H1072 H 0.95651 0.81783 0.47495 0.0
H1073 H 0.90949 0.7667 0.44132 0.0
H1074 H 0.00613 0.76462 0.48658 0.0
H1075 H 0.02201 0.78559 0.47116 0.0
H1076 H 0.00018 0.80294 0.48599 0.0
H1077 H 0.92574 0.72179 0.43254 0.0
H1078 H 0.96417 0.72239 0.42968 0.0
H1079 H 0.94925 0.70276 0.44592 0.0
H1080 H 0.06008 0.71803 0.43743 0.0
H1081 H 0.02171 0.67026 0.47558 0.0
H1082 H 0.02061 0.7814 0.44214 0.0
H1083 H 0.0016 0.76015 0.42795 0.0
H1084 H 0.04037 0.76076 0.4277 0.0
H1085 H 0.97384 0.72346 0.48848 0.0
H1086 H 0.9796 0.6851 0.48837 0.0
H1087 H 0.95462 0.70146 0.47474 0.0
C1088 C 0.55601 0.7591 0.70893 0.0
C1089 C 0.55703 0.78523 0.71719 0.0
C1090 C 0.53046 0.74319 0.70799 0.0
C1091 C 0.50544 0.75352 0.71566 0.0
C1092 C 0.50661 0.7793 0.72455 0.0
C1093 C 0.53238 0.79496 0.72513 0.0
C1094 C 0.52997 0.71589 0.69829 0.0
C1095 C 0.48043 0.79076 0.73306 0.0
C1096 C 0.43363 0.73077 0.69855 0.0
C1097 C 0.42584 0.70812 0.70863 0.0
C1098 C 0.45941 0.74583 0.70079 0.0
C1099 C 0.47767 0.73826 0.71355 0.0
C1100 C 0.46969 0.71579 0.72396 0.0
C1101 C 0.44391 0.70084 0.72131 0.0
C1102 C 0.46734 0.76951 0.68935 0.0
C1103 C 0.48851 0.7074 0.73778 0.0
H1104 H 0.57497 0.75145 0.70275 0.0
H1105 H 0.53309 0.81504 0.73164 0.0
H1106 H 0.52166 0.69777 0.7055 0.0
H1107 H 0.5152 0.71858 0.68808 0.0
H1108 H 0.5516 0.71004 0.69373 0.0
H1109 H 0.4855 0.80984 0.74047 0.0
H1110 H 0.46377 0.79693 0.72429 0.0
H1111 H 0.471 0.77384 0.74073 0.0
H1112 H 0.41981 0.73645 0.68869 0.0
H1113 H 0.43791 0.68345 0.72919 0.0
H1114 H 0.48797 0.76423 0.68341 0.0
H1115 H 0.47055 0.79 0.69585 0.0
H1116 H 0.45063 0.7729 0.68013 0.0
H1117 H 0.50965 0.69971 0.73341 0.0
H1118 H 0.47866 0.69021 0.74514 0.0
H1119 H 0.49264 0.7264 0.7454 0.0
C1120 C 0.5213 0.16386 0.95008 0.0
C1121 C 0.54503 0.16056 0.96018 0.0
C1122 C 0.50516 0.18931 0.95003 0.0
C1123 C 0.5128 0.21193 0.96043 0.0
C1124 C 0.53618 0.20844 0.97099 0.0
C1125 C 0.55211 0.1828 0.97071 0.0
C1126 C 0.48044 0.1923 0.93854 0.0
C1127 C 0.54477 0.23204 0.98233 0.0
C1128 C 0.49087 0.28703 0.94785 0.0
C1129 C 0.46569 0.2913 0.95669 0.0
C1130 C 0.50665 0.26146 0.94916 0.0
C1131 C 0.49712 0.23971 0.95964 0.0
C1132 C 0.47207 0.24411 0.96886 0.0
C1133 C 0.45657 0.26984 0.96723 0.0
C1134 C 0.53318 0.25746 0.93906 0.0
C1135 C 0.46142 0.22146 0.98025 0.0
H1136 H 0.51567 0.14678 0.94191 0.0
H1137 H 0.57033 0.18034 0.9786 0.0
H1138 H 0.46042 0.19796 0.94498 0.0
H1139 H 0.48495 0.21003 0.9301 0.0
H1140 H 0.47659 0.17229 0.93167 0.0
H1141 H 0.56232 0.22527 0.99045 0.0
H1142 H 0.55211 0.25114 0.97558 0.0
H1143 H 0.52598 0.23881 0.98952 0.0
H1144 H 0.49806 0.3035 0.93968 0.0
H1145 H 0.43721 0.27307 0.97416 0.0
H1146 H 0.53013 0.23889 0.93098 0.0
H1147 H 0.55203 0.25259 0.94666 0.0
H1148 H 0.53814 0.27678 0.93182 0.0
H1149 H 0.45547 0.20173 0.97364 0.0
H1150 H 0.44241 0.2288 0.98713 0.0
H1151 H 0.47877 0.21549 0.98866 0.0
C1152 C 0.0188 0.31909 0.20737 0.0
C1153 C 0.04548 0.31833 0.2151 0.0
C1154 C -0.00217 0.2981 0.21036 0.0
C1155 C 0.00365 0.27593 0.2214 0.0
C1156 C 0.03 0.27579 0.22977 0.0
C1157 C 0.05064 0.29696 0.22649 0.0
C1158 C 0.96995 0.29892 0.20118 0.0
C1159 C 0.03688 0.25262 0.24171 0.0
C1160 C 0.94011 0.23077 0.2349 0.0
C1161 C 0.94194 0.2072 0.22457 0.0
C1162 C 0.9605 0.25303 0.23433 0.0
C1163 C 0.98316 0.25163 0.22316 0.0
C1164 C 0.98569 0.22741 0.21311 0.0
C1165 C 0.96509 0.20549 0.21396 0.0
C1166 C 0.95728 0.27846 0.24531 0.0
C1167 C 0.00964 0.22508 0.20108 0.0
H1168 H 0.01461 0.33556 0.19858 0.0
H1169 H 0.07114 0.29632 0.23261 0.0
H1170 H 0.96871 0.27997 0.19322 0.0
H1171 H 0.95135 0.29773 0.20939 0.0
H1172 H 0.96789 0.3187 0.19389 0.0
H1173 H 0.05707 0.25713 0.2483 0.0
H1174 H 0.01903 0.25035 0.25035 0.0
H1175 H 0.03924 0.23166 0.23556 0.0
H1176 H 0.9223 0.23226 0.24315 0.0
H1177 H 0.96677 0.1873 0.20597 0.0
H1178 H 0.95249 0.29806 0.2383 0.0
H1179 H 0.97769 0.28244 0.25175 0.0
H1180 H 0.93977 0.27529 0.25409 0.0
H1181 H 0.00779 0.24279 0.19233 0.0
H1182 H 0.00922 0.20428 0.1946 0.0
H1183 H 0.03083 0.22732 0.20698 0.0
C1184 C 0.94572 0.70298 0.97801 0.0
C1185 C 0.93958 0.69439 0.96244 0.0
C1186 C 0.96357 0.72674 0.98102 0.0
C1187 C 0.97545 0.74219 0.96814 0.0
C1188 C 0.96898 0.73384 0.95242 0.0
C1189 C 0.95115 0.71006 0.94977 0.0
C1190 C 0.97001 0.7351 -0.00207 0.0
C1191 C 0.98117 0.74985 0.93837 0.0
C1192 C 0.00292 0.8186 0.97164 0.0
C1193 C 0.03279 0.81435 0.97122 0.0
C1194 C 0.9839 0.79519 0.97149 0.0
C1195 C 0.99505 0.7669 0.97091 0.0
C1196 C 0.02516 0.76243 0.97138 0.0
C1197 C 0.04369 0.78623 0.97153 0.0
C1198 C 0.95191 0.8008 0.97108 0.0
C1199 C 0.03785 0.73255 0.97085 0.0
H1200 H 0.93686 0.69095 0.98787 0.0
H1201 H 0.94646 0.70365 0.9377 0.0
H1202 H 0.99345 0.73333 0.00019 0.0
H1203 H 0.9639 0.75785 -1e-05 0.0
H1204 H 0.95843 0.72137 0.0066 0.0
H1205 H 0.97366 0.74086 0.9269 0.0
H1206 H 0.97491 0.77285 0.93894 0.0
H1207 H 0.00502 0.74894 0.93863 0.0
H1208 H 0.9943 0.84026 0.97153 0.0
H1209 H 0.06674 0.78274 0.97132 0.0
H1210 H 0.94069 0.78734 0.98 0.0
H1211 H 0.94328 0.79482 0.95928 0.0
H1212 H 0.94667 0.82374 0.97336 0.0
H1213 H 0.02753 0.71858 0.97985 0.0
H1214 H 0.06145 0.73263 0.97292 0.0
H1215 H 0.03365 0.72279 0.95908 0.0
C1216 C 0.96097 0.29301 0.72454 0.0
C1217 C 0.93417 0.28076 0.72096 0.0
C1218 C 0.98651 0.27736 0.72244 0.0
C1219 C 0.98518 0.24895 0.71646 0.0
C1220 C 0.95814 0.23613 0.71338 0.0
C1221 C 0.93296 0.25213 0.71576 0.0
C1222 C 0.01495 0.29156 0.72609 0.0
C1223 C 0.95586 0.20595 0.70688 0.0
C1224 C 0.04911 0.22093 0.69322 0.0
C1225 C 0.06198 0.20227 0.70416 0.0
C1226 C 0.02417 0.23633 0.69712 0.0
C1227 C 0.01203 0.23327 0.71241 0.0
C1228 C 0.02514 0.21478 0.72359 0.0
C1229 C 0.04988 0.19933 0.7193 0.0
C1230 C 0.0106 0.25561 0.68481 0.0
C1231 C 0.01297 0.21125 0.74006 0.0
H1232 H 0.96205 0.31506 0.72866 0.0
H1233 H 0.91235 0.24249 0.71297 0.0
H1234 H 0.02815 0.27752 0.73384 0.0
H1235 H 0.02718 0.29485 0.71495 0.0
H1236 H 0.01219 0.31274 0.73199 0.0
H1237 H 0.9332 0.19853 0.70599 0.0
H1238 H 0.9657 0.20508 0.69491 0.0
H1239 H 0.96791 0.19071 0.7145 0.0
H1240 H 0.05829 0.22323 0.68148 0.0
H1241 H 0.05984 0.18506 0.72784 0.0
H1242 H 0.00936 0.27798 0.68932 0.0
H1243 H 0.98828 0.24843 0.68237 0.0
H1244 H 0.0228 0.25569 0.67349 0.0
H1245 H 0.0114 0.2325 0.74597 0.0
H1246 H 0.02629 0.19678 0.74753 0.0
H1247 H 0.99087 0.20233 0.73938 0.0
C1248 C 0.53871 0.29384 0.44131 0.0
C1249 C 0.55072 0.30972 0.45378 0.0
C1250 C 0.52212 0.26925 0.44427 0.0
C1251 C 0.51739 0.26035 0.46009 0.0
C1252 C 0.52947 0.27622 0.47274 0.0
C1253 C 0.54604 0.30073 0.46944 0.0
C1254 C 0.50963 0.25281 0.43045 0.0
C1255 C 0.52484 0.26734 0.48975 0.0
C1256 C 0.45295 0.21151 0.46602 0.0
C1257 C 0.46587 0.18425 0.46576 0.0
C1258 C 0.46959 0.23658 0.46479 0.0
C1259 C 0.49983 0.2343 0.46326 0.0
C1260 C 0.51309 0.20692 0.46368 0.0
C1261 C 0.49595 0.18222 0.46493 0.0
C1262 C 0.45471 0.26545 0.46448 0.0
C1263 C 0.54529 0.20364 0.46213 0.0
H1264 H 0.54222 0.30061 0.42918 0.0
H1265 H 0.55522 0.31292 0.47915 0.0
H1266 H 0.51749 0.23029 0.43062 0.0
H1267 H 0.48584 0.25206 0.43144 0.0
H1268 H 0.51537 0.26257 0.41886 0.0
H1269 H 0.53573 0.28201 0.49823 0.0
H1270 H 0.5015 0.26703 0.49248 0.0
H1271 H 0.53307 0.24521 0.49164 0.0
H1272 H 0.42974 0.21328 0.46672 0.0
H1273 H 0.50613 0.16126 0.4648 0.0
H1274 H 0.45737 0.27538 0.45262 0.0
H1275 H 0.46464 0.2802 0.47323 0.0
H1276 H 0.43135 0.26369 0.46707 0.0
H1277 H 0.55219 0.21074 0.45017 0.0
H1278 H 0.55242 0.18106 0.46389 0.0
H1279 H 0.55647 0.21751 0.47087 0.0
C1280 C 0.42027 0.7689 0.20105 0.0
C1281 C 0.41842 0.79493 0.20938 0.0
C1282 C 0.4443 0.75093 0.20266 0.0
C1283 C 0.46695 0.75913 0.21291 0.0
C1284 C 0.46496 0.78506 0.22161 0.0
C1285 C 0.44072 0.80272 0.21971 0.0
C1286 C 0.44573 0.72347 0.19313 0.0
C1287 C 0.48866 0.7944 0.23271 0.0
C1288 C 0.51949 0.70079 0.22529 0.0
C1289 C 0.54229 0.70545 0.21471 0.0
C1290 C 0.495 0.71846 0.22506 0.0
C1291 C 0.49327 0.74114 0.21393 0.0
C1292 C 0.51636 0.74616 0.20337 0.0
C1293 C 0.54062 0.72831 0.20392 0.0
C1294 C 0.47083 0.71261 0.23656 0.0
C1295 C 0.51523 0.77009 0.19128 0.0
H1296 H 0.40311 0.7627 0.19305 0.0
H1297 H 0.43938 0.82275 0.22624 0.0
H1298 H 0.4643 0.72434 0.18488 0.0
H1299 H 0.44916 0.70482 0.20109 0.0
H1300 H 0.42586 0.71971 0.18612 0.0
H1301 H 0.48315 0.81442 0.23922 0.0
H1302 H 0.49321 0.77716 0.24145 0.0
H1303 H 0.50874 0.79813 0.22592 0.0
H1304 H 0.52068 0.68323 0.23371 0.0
H1305 H 0.55813 0.73206 0.1957 0.0
H1306 H 0.45102 0.70682 0.22996 0.0
H1307 H 0.46596 0.73227 0.24351 0.0
H1308 H 0.47603 0.69488 0.2449 0.0
H1309 H 0.49688 0.76657 0.1831 0.0
H1310 H 0.53529 0.77156 0.18418 0.0
H1311 H 0.51161 0.79102 0.19727 0.0
C1312 C 0.9579 0.2979 0.54839 0.0
C1313 C 0.94216 0.31321 0.53701 0.0
C1314 C 0.97227 0.27242 0.54444 0.0
C1315 C 0.97085 0.26196 0.52871 0.0
C1316 C 0.95495 0.27722 0.51716 0.0
C1317 C 0.94078 0.30271 0.52145 0.0
C1318 C 0.98904 0.25672 0.5571 0.0
C1319 C 0.95296 0.26662 0.50029 0.0
C1320 C 0.03049 0.21007 0.51783 0.0
C1321 C 0.01727 0.18347 0.5207 0.0
C1322 C 0.01523 0.23587 0.51971 0.0
C1323 C 0.98608 0.23496 0.52452 0.0
C1324 C 0.97221 0.20816 0.52661 0.0
C1325 C 0.98799 0.18271 0.52469 0.0
C1326 C 0.03071 0.26409 0.51733 0.0
C1327 C 0.94108 0.20635 0.53163 0.0
H1328 H 0.95909 0.30585 0.56044 0.0
H1329 H 0.92866 0.31444 0.51258 0.0
H1330 H 0.98053 0.23458 0.55852 0.0
H1331 H 0.01193 0.25483 0.55353 0.0
H1332 H 0.98802 0.26777 0.56875 0.0
H1333 H 0.93963 0.28095 0.49274 0.0
H1334 H 0.97479 0.26508 0.49505 0.0
H1335 H 0.94353 0.24471 0.50005 0.0
H1336 H 0.05308 0.21084 0.51467 0.0
H1337 H 0.97755 0.16222 0.5268 0.0
H1338 H 0.03292 0.27527 0.52887 0.0
H1339 H 0.01811 0.27836 0.50941 0.0
H1340 H 0.05251 0.26111 0.51219 0.0
H1341 H 0.93879 0.21464 0.54389 0.0
H1342 H 0.93276 0.18397 0.53128 0.0
H1343 H 0.92747 0.21997 0.52388 0.0
C1344 C 0.4791 0.18544 0.28435 0.0
C1345 C 0.45312 0.19662 0.27857 0.0
C1346 C 0.50393 0.20252 0.28507 0.0
C1347 C 0.50269 0.23144 0.27988 0.0
C1348 C 0.47683 0.24254 0.27351 0.0
C1349 C 0.45234 0.22498 0.27293 0.0
C1350 C 0.53119 0.18994 0.2919 0.0
C1351 C 0.47473 0.27327 0.26784 0.0
C1352 C 0.55481 0.28428 0.29841 0.0
C1353 C 0.5757 0.28704 0.28653 0.0
C1354 C 0.53094 0.26626 0.29636 0.0
C1355 C 0.5279 0.25061 0.28208 0.0
C1356 C 0.54882 0.25334 0.27 0.0
C1357 C 0.57251 0.27155 0.27237 0.0
C1358 C 0.50901 0.26393 0.3095 0.0
C1359 C 0.54622 0.23695 0.25463 0.0
H1360 H 0.47992 0.16351 0.28868 0.0
H1361 H 0.43237 0.23376 0.26838 0.0
H1362 H 0.54942 0.19327 0.28362 0.0
H1363 H 0.53665 0.20113 0.30311 0.0
H1364 H 0.52915 0.16657 0.29438 0.0
H1365 H 0.45365 0.27799 0.26221 0.0
H1366 H 0.47772 0.28813 0.27799 0.0
H1367 H 0.49206 0.27791 0.25918 0.0
H1368 H 0.55709 0.29616 0.30938 0.0
H1369 H 0.58858 0.27356 0.26313 0.0
H1370 H 0.50733 0.24128 0.31353 0.0
H1371 H 0.48749 0.27039 0.30507 0.0
H1372 H 0.51453 0.2776 0.31986 0.0
H1373 H 0.54568 0.2135 0.25703 0.0
H1374 H 0.5643 0.24153 0.2464 0.0
H1375 H 0.52573 0.24258 0.24865 0.0
C1376 C 0.46009 0.76545 0.02973 0.0
C1377 C 0.47076 0.78951 0.03784 0.0
C1378 C 0.4737 0.73861 0.03097 0.0
C1379 C 0.49865 0.73588 0.04046 0.0
C1380 C 0.50991 0.76023 0.04837 0.0
C1381 C 0.49577 0.78674 0.047 0.0
C1382 C 0.46102 0.71304 0.02243 0.0
C1383 C 0.53661 0.75818 0.0585 0.0
C1384 C 0.51811 0.66316 0.0577 0.0
C1385 C 0.5401 0.65411 0.04749 0.0
C1386 C 0.5041 0.68952 0.05537 0.0
C1387 C 0.51247 0.70736 0.0426 0.0
C1388 C 0.53449 0.69828 0.03217 0.0
C1389 C 0.54798 0.67167 0.03469 0.0
C1390 C 0.48052 0.6984 0.06667 0.0
C1391 C 0.54412 0.71687 0.01849 0.0
H1392 H 0.44075 0.76743 0.02263 0.0
H1393 H 0.50424 0.80527 0.05324 0.0
H1394 H 0.47744 0.70301 0.01467 0.0
H1395 H 0.45428 0.69654 0.03117 0.0
H1396 H 0.44209 0.71898 0.01509 0.0
H1397 H 0.54329 0.7794 0.0633 0.0
H1398 H 0.53269 0.74337 0.06858 0.0
H1399 H 0.55466 0.74912 0.0515 0.0
H1400 H 0.51179 0.64964 0.06756 0.0
H1401 H 0.565 0.66484 0.02677 0.0
H1402 H 0.46045 0.70297 0.06002 0.0
H1403 H 0.48674 0.71848 0.07288 0.0
H1404 H 0.47591 0.68161 0.07568 0.0
H1405 H 0.52556 0.7219 0.01071 0.0
H1406 H 0.56112 0.7064 0.01126 0.0
H1407 H 0.55255 0.73761 0.02303 0.0
C1408 C 0.92072 0.73674 0.7565 0.0
C1409 C 0.91739 0.71767 0.76924 0.0
C1410 C 0.94394 0.75606 0.75598 0.0
C1411 C 0.96416 0.7563 0.76852 0.0
C1412 C 0.96108 0.73687 0.78129 0.0
C1413 C 0.93779 0.71778 0.78149 0.0
C1414 C 0.94667 0.77641 0.74213 0.0
C1415 C 0.98222 0.73646 0.79489 0.0
C1416 C 0.03918 0.78707 0.76405 0.0
C1417 C 0.03663 0.81329 0.77216 0.0
C1418 C 0.0154 0.76885 0.76213 0.0
C1419 C 0.98847 0.77702 0.76852 0.0
C1420 C 0.98548 0.80398 0.77613 0.0
C1421 C 0.0096 0.82184 0.77784 0.0
C1422 C 0.01939 0.74033 0.75386 0.0
C1423 C 0.95708 0.8134 0.78311 0.0
H1424 H 0.90506 0.73678 0.74699 0.0
H1425 H 0.93543 0.70313 0.79138 0.0
H1426 H 0.94542 0.79896 0.74636 0.0
H1427 H 0.96795 0.77369 0.73638 0.0
H1428 H 0.9296 0.77296 0.73312 0.0
H1429 H 0.9769 0.71979 0.80385 0.0
H1430 H 0.00426 0.73235 0.7904 0.0
H1431 H 0.9825 0.75775 0.80083 0.0
H1432 H 0.05995 0.78039 0.75952 0.0
H1433 H 0.00743 0.84211 0.78406 0.0
H1434 H 0.0027 0.73737 0.74461 0.0
H1435 H 0.01685 0.72259 0.76253 0.0
H1436 H 0.04093 0.7384 0.74826 0.0
H1437 H 0.9397 0.81149 0.77417 0.0
H1438 H 0.95774 0.83593 0.78747 0.0
H1439 H 0.95136 0.79913 0.79316 0.0
C1440 C 0.3131 0.40145 0.98822 0.0
C1441 C 0.32383 0.3776 0.97994 0.0
C1442 C 0.2857 0.4008 0.99516 0.0
C1443 C 0.26856 0.3758 0.99367 0.0
C1444 C 0.27922 0.35168 0.98529 0.0
C1445 C 0.3068 0.35283 0.97858 0.0
C1446 C 0.27512 0.42685 0.00412 0.0
C1447 C 0.26143 0.32473 0.98336 0.0
C1448 C 0.20832 0.36447 0.02333 0.0
C1449 C 0.18434 0.37433 0.01483 0.0
C1450 C 0.23587 0.36475 0.01656 0.0
C1451 C 0.23945 0.37491 0.00088 0.0
C1452 C 0.2153 0.38454 0.99217 0.0
C1453 C 0.18802 0.38426 -0.00072 0.0
C1454 C 0.26119 0.3545 0.02624 0.0
C1455 C 0.21829 0.3953 0.97537 0.0
H1456 H 0.32618 0.42063 0.98937 0.0
H1457 H 0.31491 0.33435 0.97215 0.0
H1458 H 0.25505 0.43507 -0.00137 0.0
H1459 H 0.26989 0.42083 0.01651 0.0
H1460 H 0.29122 0.4445 0.00432 0.0
H1461 H 0.2728 0.30793 0.97641 0.0
H1462 H 0.25594 0.31576 0.99515 0.0
H1463 H 0.24088 0.32992 0.97732 0.0
H1464 H 0.20565 0.35685 0.03537 0.0
H1465 H 0.16957 0.39181 0.99262 0.0
H1466 H 0.27708 0.37214 0.02756 0.0
H1467 H 0.27219 0.33654 0.02007 0.0
H1468 H 0.25472 0.34708 0.03823 0.0
H1469 H 0.23269 0.41431 0.97509 0.0
H1470 H 0.19726 0.40141 0.9701 0.0
H1471 H 0.22829 0.37847 0.96786 0.0
C1472 C 0.88977 0.04836 0.23282 0.0
C1473 C 0.86421 0.06439 0.23248 0.0
C1474 C 0.89057 0.02092 0.23971 0.0
C1475 C 0.86526 0.00936 0.2465 0.0
C1476 C 0.83948 0.02555 0.24634 0.0
C1477 C 0.83924 0.05283 0.23928 0.0
C1478 C 0.91842 0.00419 0.23959 0.0
C1479 C 0.81212 0.014 0.2536 0.0
C1480 C 0.85826 0.92861 0.25178 0.0
C1481 C 0.86468 0.92535 0.26791 0.0
C1482 C 0.85879 0.95581 0.24459 0.0
C1483 C 0.86568 0.9803 0.2538 0.0
C1484 C 0.87241 0.97713 0.27004 0.0
C1485 C 0.87193 0.94967 0.27689 0.0
C1486 C 0.85171 0.95837 0.22719 0.0
C1487 C 0.8797 0.0028 0.28025 0.0
H1488 H 0.90914 0.05711 0.22754 0.0
H1489 H 0.81943 0.06511 0.2391 0.0
H1490 H 0.92492 -0.00111 0.25189 0.0
H1491 H 0.91538 0.98353 0.23323 0.0
H1492 H 0.9362 0.01625 0.23383 0.0
H1493 H 0.79398 0.02947 0.25268 0.0
H1494 H 0.80582 0.9937 0.24763 0.0
H1495 H 0.8157 0.00891 0.26629 0.0
H1496 H 0.85276 0.9099 0.24475 0.0
H1497 H 0.87687 0.94736 0.28938 0.0
H1498 H 0.86966 0.96904 0.22083 0.0
H1499 H 0.83234 0.972 0.22561 0.0
H1500 H 0.84765 0.93713 0.2216 0.0
H1501 H 0.89838 0.01447 0.2752 0.0
H1502 H 0.88487 -0.00339 0.29263 0.0
H1503 H 0.86132 0.01802 0.28043 0.0
C1504 C 0.18942 0.58601 0.49008 0.0
C1505 C 0.17414 0.60807 0.48251 0.0
C1506 C 0.21676 0.59104 0.49651 0.0
C1507 C 0.22918 0.61873 0.49524 0.0
C1508 C 0.21386 0.64112 0.48766 0.0
C1509 C 0.18644 0.63556 0.48144 0.0
C1510 C 0.23239 0.56667 0.50464 0.0
C1511 C 0.22655 0.67086 0.486 0.0
C1512 C 0.28918 0.63605 0.52411 0.0
C1513 C 0.31369 0.62989 0.51503 0.0
C1514 C 0.26151 0.63315 0.5177 0.0
C1515 C 0.25831 0.62408 0.5018 0.0
C1516 C 0.28296 0.61881 0.4924 0.0
C1517 C 0.31039 0.62169 0.49915 0.0
C1518 C 0.23569 0.63886 0.5281 0.0
C1519 C 0.28036 0.60937 0.47535 0.0
H1520 H 0.18001 0.56476 0.491 0.0
H1521 H 0.17479 0.65269 0.47555 0.0
H1522 H 0.25301 0.56229 0.49847 0.0
H1523 H 0.23767 0.57279 0.517 0.0
H1524 H 0.21952 0.54655 0.50486 0.0
H1525 H 0.21177 0.68595 0.47984 0.0
H1526 H 0.23169 0.67978 0.49786 0.0
H1527 H 0.24701 0.66974 0.47926 0.0
H1528 H 0.29154 0.64241 0.5364 0.0
H1529 H 0.32923 0.61705 0.49203 0.0
H1530 H 0.22324 0.61871 0.52969 0.0
H1531 H 0.2212 0.6547 0.52237 0.0
H1532 H 0.24186 0.64714 0.53997 0.0
H1533 H 0.26983 0.58799 0.47478 0.0
H1534 H 0.30161 0.6079 0.46937 0.0
H1535 H 0.26661 0.62464 0.46866 0.0
C1536 C 0.60029 0.05169 0.78223 0.0
C1537 C 0.61185 0.07473 0.77361 0.0
C1538 C 0.60268 0.02336 0.77668 0.0
C1539 C 0.61667 0.01804 0.76209 0.0
C1540 C 0.62777 0.04127 0.75315 0.0
C1541 C 0.62536 0.06935 0.75906 0.0
C1542 C 0.59079 -0.00093 0.78659 0.0
C1543 C 0.64252 0.03644 0.73743 0.0
C1544 C 0.64894 0.94456 0.75396 0.0
C1545 C 0.62796 0.93212 0.7442 0.0
C1546 C 0.64528 0.97235 0.76012 0.0
C1547 C 0.62019 0.98812 0.75627 0.0
C1548 C 0.59877 0.97557 0.74658 0.0
C1549 C 0.60285 0.94765 0.74073 0.0
C1550 C 0.66842 0.98496 0.77058 0.0
C1551 C 0.57184 0.99185 0.74213 0.0
H1552 H 0.58995 0.05568 0.79353 0.0
H1553 H 0.63423 0.08709 0.75232 0.0
H1554 H 0.57507 0.9864 0.77959 0.0
H1555 H 0.60843 0.98426 0.79002 0.0
H1556 H 0.58003 0.0069 0.79752 0.0
H1557 H 0.64903 0.05691 0.73168 0.0
H1558 H 0.66198 0.02298 0.73915 0.0
H1559 H 0.62801 0.0246 0.72928 0.0
H1560 H 0.66832 0.93264 0.75676 0.0
H1561 H 0.58656 0.93821 0.73315 0.0
H1562 H 0.65905 0.99182 0.78206 0.0
H1563 H 0.67768 0.00436 0.76488 0.0
H1564 H 0.6861 0.96946 0.77294 0.0
H1565 H 0.56024 -0.00121 0.75296 0.0
H1566 H 0.557 0.97878 0.73475 0.0
H1567 H 0.57766 0.01156 0.73546 0.0
C1568 C 0.70573 0.55846 0.03518 0.0
C1569 C 0.6806 0.57043 0.02877 0.0
C1570 C 0.73225 0.56127 0.02741 0.0
C1571 C 0.7336 0.57629 0.01285 0.0
C1572 C 0.70831 0.58827 0.00627 0.0
C1573 C 0.68212 0.58525 0.01432 0.0
C1574 C 0.75884 0.5483 0.0348 0.0
C1575 C 0.70892 0.60431 0.99071 0.0
C1576 C 0.80468 0.60712 -0.00124 0.0
C1577 C 0.8132 0.58667 0.98749 0.0
C1578 C 0.77903 0.60377 0.00731 0.0
C1579 C 0.76146 0.57946 0.00445 0.0
C1580 C 0.77011 0.55857 0.99323 0.0
C1581 C 0.79592 0.56239 0.98491 0.0
C1582 C 0.77053 0.62641 0.01925 0.0
C1583 C 0.75185 0.53242 0.98983 0.0
H1584 H 0.70475 0.54704 0.04636 0.0
H1585 H 0.6628 0.59453 0.00927 0.0
H1586 H 0.76864 0.5325 0.02656 0.0
H1587 H 0.7751 0.56533 0.03696 0.0
H1588 H 0.75414 0.53733 0.0462 0.0
H1589 H 0.68729 0.61217 0.98715 0.0
H1590 H 0.72365 0.623 0.99159 0.0
H1591 H 0.71732 0.59011 0.98122 0.0
H1592 H 0.81797 0.62589 0.00086 0.0
H1593 H 0.80234 0.54649 0.97622 0.0
H1594 H 0.767 0.61638 0.03101 0.0
H1595 H 0.74994 0.63655 0.01565 0.0
H1596 H 0.78707 0.64351 0.02047 0.0
H1597 H 0.74796 0.52021 0.00091 0.0
H1598 H 0.76199 0.51782 0.98104 0.0
H1599 H 0.73055 0.53922 0.98522 0.0
C1600 C 0.10704 0.92289 0.73349 0.0
C1601 C 0.11404 0.91693 0.74931 0.0
C1602 C 0.10591 0.95131 0.72794 0.0
C1603 C 0.11182 0.97424 0.73848 0.0
C1604 C 0.11881 0.96838 0.75446 0.0
C1605 C 0.11988 0.9398 0.75967 0.0
C1606 C 0.09847 0.95682 0.71079 0.0
C1607 C 0.12519 0.99229 0.76605 0.0
C1608 C 0.13547 0.04614 0.72182 0.0
C1609 C 0.10992 0.06215 0.72261 0.0
C1610 C 0.13631 0.01742 0.72682 0.0
C1611 C 0.11103 0.00443 0.73279 0.0
C1612 C 0.08517 0.02043 0.73364 0.0
C1613 C 0.08492 0.04913 0.72852 0.0
C1614 C 0.16429 0.00099 0.72576 0.0
C1615 C 0.05782 0.00726 0.74 0.0
H1616 H 0.10251 0.90534 0.72542 0.0
H1617 H 0.12523 0.93542 0.77193 0.0
H1618 H 0.0791 0.97068 0.71001 0.0
H1619 H 0.11634 0.96851 0.70492 0.0
H1620 H 0.09431 0.93662 0.70415 0.0
H1621 H 0.12999 0.98409 0.77812 0.0
H1622 H 0.14388 0.00503 0.76186 0.0
H1623 H 0.10656 0.00715 0.76679 0.0
H1624 H 0.15488 0.05602 0.71724 0.0
H1625 H 0.0651 0.06134 0.72915 0.0
H1626 H 0.16136 0.98147 0.71838 0.0
H1627 H 0.17096 0.99373 0.73772 0.0
H1628 H 0.18191 0.01412 0.7206 0.0
H1629 H 0.05206 0.98794 0.73297 0.0
H1630 H 0.03944 0.02252 0.7397 0.0
H1631 H 0.06113 0.00014 0.7524 0.0
C1632 C 0.80675 0.3991 0.50738 0.0
C1633 C 0.81055 0.41416 0.52162 0.0
C1634 C 0.78043 0.39981 0.49931 0.0
C1635 C 0.75731 0.41588 0.50567 0.0
C1636 C 0.76102 0.43136 0.51995 0.0
C1637 C 0.78766 0.43036 0.52776 0.0
C1638 C 0.77729 0.38312 0.48405 0.0
C1639 C 0.73677 0.44867 0.52708 0.0
C1640 C 0.69743 0.4353 0.47711 0.0
C1641 C 0.67735 0.41345 0.4801 0.0
C1642 C 0.72329 0.43679 0.48563 0.0
C1643 C 0.72911 0.41599 0.49743 0.0
C1644 C 0.70859 0.39439 0.50082 0.0
C1645 C 0.68296 0.39334 0.49209 0.0
C1646 C 0.74473 0.46011 0.48168 0.0
C1647 C 0.71402 0.37192 0.51339 0.0
H1648 H 0.82436 0.38661 0.50252 0.0
H1649 H 0.79043 0.44204 0.53876 0.0
H1650 H 0.76019 0.36664 0.48535 0.0
H1651 H 0.77064 0.39775 0.47434 0.0
H1652 H 0.79756 0.3722 0.48053 0.0
H1653 H 0.74334 0.45994 0.5381 0.0
H1654 H 0.72901 0.46487 0.51843 0.0
H1655 H 0.71837 0.43432 0.52984 0.0
H1656 H 0.69324 0.45095 0.46789 0.0
H1657 H 0.66748 0.37648 0.49453 0.0
H1658 H 0.76473 0.45029 0.47696 0.0
H1659 H 0.75066 0.47219 0.49253 0.0
H1660 H 0.73629 0.47552 0.47277 0.0
H1661 H 0.73281 0.35856 0.50999 0.0
H1662 H 0.69521 0.35756 0.51518 0.0
H1663 H 0.71931 0.38241 0.52483 0.0
C1664 C 0.32515 0.06529 0.26437 0.0
C1665 C 0.34632 0.08576 0.26079 0.0
C1666 C 0.32463 0.03856 0.25669 0.0
C1667 C 0.34572 0.03225 0.24512 0.0
C1668 C 0.36699 0.0529 0.24134 0.0
C1669 C 0.36707 0.07941 0.24925 0.0
C1670 C 0.30166 0.017 0.26105 0.0
C1671 C 0.38974 0.04692 0.229 0.0
C1672 C 0.36114 0.95395 0.23595 0.0
C1673 C 0.34523 0.94981 0.22202 0.0
C1674 C 0.3615 0.98072 0.24359 0.0
C1675 C 0.3457 0.00389 0.23708 0.0
C1676 C 0.32976 -8e-05 0.22297 0.0
C1677 C 0.32965 0.97287 0.21563 0.0
C1678 C 0.37865 0.98416 0.25867 0.0
C1679 C 0.31278 0.02422 0.21566 0.0
H1680 H 0.30905 0.07003 0.27329 0.0
H1681 H 0.38346 0.09515 0.24638 0.0
H1682 H 0.289 0.01109 0.2504 0.0
H1683 H 0.31179 -0.00299 0.26556 0.0
H1684 H 0.28669 0.02535 0.27022 0.0
H1685 H 0.40448 0.06545 0.22726 0.0
H1686 H 0.40268 0.02793 0.23254 0.0
H1687 H 0.37944 0.04171 0.21749 0.0
H1688 H 0.37319 0.93621 0.24098 0.0
H1689 H 0.31737 0.96985 0.20484 0.0
H1690 H 0.36423 0.99079 0.26848 0.0
H1691 H 0.39494 0.00138 0.25719 0.0
H1692 H 0.38982 0.96402 0.26215 0.0
H1693 H 0.29632 0.03202 0.22416 0.0
H1694 H 0.3018 0.01768 0.20454 0.0
H1695 H 0.32724 0.04258 0.21303 0.0
C1696 C 0.79701 0.86679 0.48636 0.0
C1697 C 0.81263 0.89258 0.48706 0.0
C1698 C 0.77014 0.86423 0.49377 0.0
C1699 C 0.75873 0.88796 0.50217 0.0
C1700 C 0.77453 0.91392 0.50311 0.0
C1701 C 0.80127 0.91595 0.49549 0.0
C1702 C 0.75381 0.83625 0.49246 0.0
C1703 C 0.76309 0.9396 0.51207 0.0
C1704 C 0.67811 0.89184 0.50882 0.0
C1705 C 0.67569 0.88221 0.5245 0.0
C1706 C 0.70501 0.89362 0.50136 0.0
C1707 C 0.73007 0.88573 0.50984 0.0
C1708 C 0.72778 0.87587 0.52564 0.0
C1709 C 0.70059 0.87414 0.53277 0.0
C1710 C 0.70664 0.90405 0.48445 0.0
C1711 C 0.75407 0.86739 0.53505 0.0
H1712 H 0.80561 0.84864 0.47984 0.0
H1713 H 0.81324 0.93591 0.49613 0.0
H1714 H 0.74926 0.82757 0.50444 0.0
H1715 H 0.73279 0.84001 0.48659 0.0
H1716 H 0.76582 0.81975 0.48561 0.0
H1717 H 0.77833 0.958 0.51195 0.0
H1718 H 0.74242 0.94672 0.50681 0.0
H1719 H 0.75871 0.9336 0.52456 0.0
H1720 H 0.65896 0.89805 0.50234 0.0
H1721 H 0.69891 0.86673 0.5449 0.0
H1722 H 0.71714 0.88754 0.47692 0.0
H1723 H 0.72002 0.92376 0.4838 0.0
H1724 H 0.68508 0.90891 0.47944 0.0
H1725 H 0.76578 0.84986 0.5289 0.0
H1726 H 0.74859 0.86005 0.5472 0.0
H1727 H 0.76901 0.88593 0.53596 0.0
C1728 C 0.31548 0.54308 0.71904 0.0
C1729 C 0.33544 0.56393 0.72386 0.0
C1730 C 0.31446 0.51605 0.72639 0.0
C1731 C 0.33379 0.50983 0.73888 0.0
C1732 C 0.35364 0.53096 0.74398 0.0
C1733 C 0.35427 0.55775 0.73639 0.0
C1734 C 0.29305 0.49398 0.72062 0.0
C1735 C 0.37449 0.52512 0.75732 0.0
C1736 C 0.3175 0.44827 0.76696 0.0
C1737 C 0.3357 0.42665 0.76114 0.0
C1738 C 0.31641 0.4754 0.75973 0.0
C1739 C 0.33386 0.48095 0.74634 0.0
C1740 C 0.35194 0.4591 0.74026 0.0
C1741 C 0.35268 0.43222 0.74776 0.0
C1742 C 0.29692 0.49826 0.76654 0.0
C1743 C 0.37076 0.46422 0.72595 0.0
H1744 H 0.30086 0.5477 0.70937 0.0
H1745 H 0.36968 0.5738 0.74022 0.0
H1746 H 0.30461 0.47483 0.71604 0.0
H1747 H 0.27932 0.48666 0.73058 0.0
H1748 H 0.27896 0.5025 0.71108 0.0
H1749 H 0.38793 0.54417 0.76019 0.0
H1750 H 0.36261 0.51856 0.76813 0.0
H1751 H 0.38891 0.50705 0.75406 0.0
H1752 H 0.30431 0.44413 0.7773 0.0
H1753 H 0.36674 0.4156 0.74315 0.0
H1754 H 0.28185 0.50611 0.75732 0.0
H1755 H 0.30992 0.51695 0.77048 0.0
H1756 H 0.2842 0.49027 0.77677 0.0
H1757 H 0.35741 0.47121 0.71576 0.0
H1758 H 0.38299 0.4447 0.72245 0.0
H1759 H 0.38628 0.48175 0.72848 0.0
C1760 C 0.81325 0.06461 0.01929 0.0
C1761 C 0.83373 0.08397 0.01336 0.0
C1762 C 0.78563 0.06296 0.01267 0.0
C1763 C 0.77842 0.08099 -0.00022 0.0
C1764 C 0.79909 0.10032 0.99361 0.0
C1765 C 0.82649 0.10163 0.0005 0.0
C1766 C 0.76408 0.04215 0.01959 0.0
C1767 C 0.79218 0.11975 0.97979 0.0
C1768 C 0.7157 0.06038 0.9734 0.0
C1769 C 0.69402 0.07883 0.97891 0.0
C1770 C 0.74324 0.06071 0.98017 0.0
C1771 C 0.74915 0.07982 0.99279 0.0
C1772 C 0.72725 0.09817 -0.00142 0.0
C1773 C 0.69993 0.0975 0.99154 0.0
C1774 C 0.76612 0.04089 0.97366 0.0
C1775 C 0.73276 0.11872 0.0121 0.0
H1776 H 0.81865 0.05093 0.02925 0.0
H1777 H 0.84222 0.1166 0.99584 0.0
H1778 H 0.74498 0.05407 0.02396 0.0
H1779 H 0.75649 0.02708 0.0103 0.0
H1780 H 0.77318 0.02944 0.02953 0.0
H1781 H 0.81084 0.1332 0.97622 0.0
H1782 H 0.7853 0.10672 0.96945 0.0
H1783 H 0.77401 0.13416 0.9829 0.0
H1784 H 0.71131 0.04591 0.96363 0.0
H1785 H 0.68326 0.11176 0.99589 0.0
H1786 H 0.77467 0.02698 0.98324 0.0
H1787 H 0.7844 0.05373 0.96904 0.0
H1788 H 0.75788 0.02696 0.96399 0.0
H1789 H 0.74054 0.10673 0.02262 0.0
H1790 H 0.71321 0.13101 0.01547 0.0
H1791 H 0.74988 0.13419 0.00875 0.0
C1792 C 0.13214 0.57411 0.24911 0.0
C1793 C 0.15256 0.57945 0.26098 0.0
C1794 C 0.13146 0.54768 0.24112 0.0
C1795 C 0.15161 0.52608 0.24515 0.0
C1796 C 0.17253 0.53146 0.25696 0.0
C1797 C 0.17279 0.55812 0.26472 0.0
C1798 C 0.10893 0.54272 0.22852 0.0
C1799 C 0.19433 0.50888 0.26158 0.0
C1800 C 0.1318 0.44867 0.23626 0.0
C1801 C 0.14753 0.4434 0.22238 0.0
C1802 C 0.13303 0.47548 0.24382 0.0
C1803 C 0.15032 0.49756 0.2373 0.0
C1804 C 0.16627 0.4924 0.22331 0.0
C1805 C 0.16471 0.46534 0.21602 0.0
C1806 C 0.1158 0.4802 0.25876 0.0
C1807 C 0.18487 0.5155 0.21603 0.0
H1808 H 0.11649 0.59051 0.24612 0.0
H1809 H 0.18864 0.56208 0.27388 0.0
H1810 H 0.11935 0.53652 0.21721 0.0
H1811 H 0.0947 0.52468 0.23207 0.0
H1812 H 0.09543 0.56206 0.22643 0.0
H1813 H 0.20965 0.51675 0.27071 0.0
H1814 H 0.18312 0.48962 0.26628 0.0
H1815 H 0.20673 0.50193 0.25103 0.0
H1816 H 0.1185 0.43182 0.24125 0.0
H1817 H 0.1769 0.46145 0.20529 0.0
H1818 H 0.10039 0.49814 0.25702 0.0
H1819 H 0.13033 0.48641 0.26861 0.0
H1820 H 0.10358 0.46073 0.26235 0.0
H1821 H 0.17154 0.53453 0.21303 0.0
H1822 H 0.19594 0.50801 0.20512 0.0
H1823 H 0.20135 0.52267 0.22467 0.0
C1824 C 0.17722 0.13102 0.49655 0.0
C1825 C 0.16756 0.1051 0.50316 0.0
C1826 C 0.20508 0.1334 0.49029 0.0
C1827 C 0.22379 0.10941 0.49089 0.0
C1828 C 0.2143 0.08334 0.49778 0.0
C1829 C 0.18621 0.08143 0.50373 0.0
C1830 C 0.21434 0.16141 0.48282 0.0
C1831 C 0.23379 0.05741 0.49881 0.0
C1832 C 0.28517 0.10381 0.46152 0.0
C1833 C 0.30866 0.11294 0.47064 0.0
C1834 C 0.25736 0.10305 0.46789 0.0
C1835 C 0.253 0.11123 0.48386 0.0
C1836 C 0.27659 0.12059 0.49313 0.0
C1837 C 0.30416 0.12153 0.48636 0.0
C1838 C 0.23266 0.09331 0.45758 0.0
C1839 C 0.27277 0.12915 0.51025 0.0
H1840 H 0.16286 0.14936 0.49604 0.0
H1841 H 0.17893 0.06142 0.50895 0.0
H1842 H 0.23394 0.16966 0.48877 0.0
H1843 H 0.21989 0.15783 0.47019 0.0
H1844 H 0.19732 0.17814 0.48349 0.0
H1845 H 0.22351 0.03914 0.50511 0.0
H1846 H 0.23982 0.05021 0.48673 0.0
H1847 H 0.25398 0.06316 0.50507 0.0
H1848 H 0.28848 0.09732 0.44932 0.0
H1849 H 0.32227 0.1285 0.49348 0.0
H1850 H 0.2157 0.1101 0.45727 0.0
H1851 H 0.22281 0.07361 0.46262 0.0
H1852 H 0.23953 0.08865 0.44524 0.0
H1853 H 0.25691 0.14689 0.5112 0.0
H1854 H 0.29326 0.13621 0.51579 0.0
H1855 H 0.26412 0.11072 0.51711 0.0
C1856 C 0.64044 0.42892 0.2609 0.0
C1857 C 0.62571 0.41873 0.27426 0.0
C1858 C 0.63782 0.45764 0.25606 0.0
C1859 C 0.62013 0.47663 0.26483 0.0
C1860 C 0.60492 0.46642 0.27821 0.0
C1861 C 0.60785 0.43755 0.28274 0.0
C1862 C 0.65426 0.46776 0.24167 0.0
C1863 C 0.58592 0.48609 0.28786 0.0
C1864 C 0.63723 0.55603 0.26085 0.0
C1865 C 0.61678 0.56489 0.24966 0.0
C1866 C 0.63811 0.52749 0.26619 0.0
C1867 C 0.61809 0.50734 0.26015 0.0
C1868 C 0.59688 0.5163 0.2492 0.0
C1869 C 0.59645 0.545 0.2441 0.0
C1870 C 0.66094 0.51872 0.27796 0.0
C1871 C 0.57518 0.4954 0.24252 0.0
H1872 H 0.65422 0.41449 0.25425 0.0
H1873 H 0.59642 0.42986 0.2931 0.0
H1874 H 0.63922 0.47714 0.23287 0.0
H1875 H 0.6696 0.48493 0.24511 0.0
H1876 H 0.66647 0.45009 0.2359 0.0
H1877 H 0.575 0.47461 0.29771 0.0
H1878 H 0.59897 0.50383 0.29293 0.0
H1879 H 0.56932 0.49603 0.28017 0.0
H1880 H 0.65296 0.57127 0.26525 0.0
H1881 H 0.58056 0.55166 0.23544 0.0
H1882 H 0.67558 0.50271 0.27248 0.0
H1883 H 0.65088 0.50829 0.2884 0.0
H1884 H 0.67397 0.53728 0.2821 0.0
H1885 H 0.58643 0.47854 0.23558 0.0
H1886 H 0.5592 0.50611 0.23471 0.0
H1887 H 0.56353 0.48442 0.25226 0.0
C1888 C 0.21689 0.89095 0.96581 0.0
C1889 C 0.19355 0.8772 0.97312 0.0
C1890 C 0.24428 0.89075 0.97277 0.0
C1891 C 0.24835 0.87661 0.98744 0.0
C1892 C 0.22495 0.86249 0.99483 0.0
C1893 C 0.19783 0.86288 0.98755 0.0
C1894 C 0.26879 0.9059 0.96452 0.0
C1895 C 0.22848 0.84731 0.01052 0.0
C1896 C 0.32397 0.85578 -8e-05 0.0
C1897 C 0.33103 0.87814 0.01037 0.0
C1898 C 0.29717 0.85508 0.99229 0.0
C1899 C 0.27695 0.87718 0.99526 0.0
C1900 C 0.28397 0.89985 0.00575 0.0
C1901 C 0.31097 0.9001 0.01315 0.0
C1902 C 0.29046 0.83067 0.98108 0.0
C1903 C 0.26288 0.92373 0.00926 0.0
H1904 H 0.21379 0.90197 0.95463 0.0
H1905 H 0.17989 0.85224 0.99328 0.0
H1906 H 0.27707 0.92352 0.97211 0.0
H1907 H 0.28682 0.89069 0.96252 0.0
H1908 H 0.26224 0.91515 0.95293 0.0
H1909 H 0.20825 0.83692 0.01455 0.0
H1910 H 0.24546 0.83063 0.0096 0.0
H1911 H 0.23549 0.8629 0.01969 0.0
H1912 H 0.33939 0.83877 -0.00231 0.0
H1913 H 0.31623 0.91742 0.02123 0.0
H1914 H 0.28516 0.8393 0.96918 0.0
H1915 H 0.27131 0.8187 0.98532 0.0
H1916 H 0.30868 0.81536 0.9799 0.0
H1917 H 0.25695 0.93496 -0.00187 0.0
H1918 H 0.27169 0.93978 0.01771 0.0
H1919 H 0.24282 0.91463 0.01431 0.0
C1920 C 0.87334 0.44081 0.74634 0.0
C1921 C 0.85461 0.43361 0.73393 0.0
C1922 C 0.87197 0.46791 0.75362 0.0
C1923 C 0.85149 0.48827 0.7483 0.0
C1924 C 0.83273 0.48123 0.73569 0.0
C1925 C 0.83447 0.45396 0.72868 0.0
C1926 C 0.89223 0.47467 0.7671 0.0
C1927 C 0.81069 0.50244 0.72966 0.0
C1928 C 0.8278 0.54777 0.77611 0.0
C1929 C 0.84394 0.57119 0.77059 0.0
C1930 C 0.83027 0.52059 0.76905 0.0
C1931 C 0.84923 0.51679 0.75611 0.0
C1932 C 0.86559 0.54032 0.75047 0.0
C1933 C 0.8628 0.56726 0.7578 0.0
C1934 C 0.81253 0.49596 0.77542 0.0
C1935 C 0.88592 0.53707 0.73663 0.0
H1936 H 0.88894 0.42519 0.75046 0.0
H1937 H 0.81999 0.44861 0.71906 0.0
H1938 H 0.9051 0.49408 0.76425 0.0
H1939 H 0.87973 0.47954 0.77797 0.0
H1940 H 0.90717 0.45662 0.76967 0.0
H1941 H 0.79813 0.49382 0.71952 0.0
H1942 H 0.79553 0.50816 0.7393 0.0
H1943 H 0.82147 0.52257 0.72586 0.0
H1944 H 0.81326 0.55059 0.78602 0.0
H1945 H 0.87535 0.58525 0.75347 0.0
H1946 H 0.82682 0.47803 0.77906 0.0
H1947 H 0.79812 0.4876 0.76601 0.0
H1948 H 0.79917 0.50238 0.78574 0.0
H1949 H 0.90218 0.52027 0.73926 0.0
H1950 H 0.89729 0.55743 0.73378 0.0
H1951 H 0.87386 0.52994 0.72599 0.0
C1952 C 0.11613 0.38498 0.08239 0.0
C1953 C 0.08773 0.38667 0.07683 0.0
C1954 C 0.12198 0.37948 0.09841 0.0
C1955 C 0.09889 0.37567 0.10913 0.0
C1956 C 0.07019 0.37814 0.10369 0.0
C1957 C 0.06495 0.38359 0.08759 0.0
C1958 C 0.15287 0.37703 0.10379 0.0
C1959 C 0.04501 0.37438 0.11479 0.0
C1960 C 0.11167 0.33222 0.14655 0.0
C1961 C 0.11485 0.3539 0.15796 0.0
C1962 C 0.1067 0.33903 0.13059 0.0
C1963 C 0.10472 0.36822 0.12595 0.0
C1964 C 0.10805 0.39022 0.13738 0.0
C1965 C 0.11315 0.3828 0.15324 0.0
C1966 C 0.10342 0.31498 0.1187 0.0
C1967 C 0.10598 0.42158 0.13288 0.0
H1968 H 0.13388 0.38733 0.07417 0.0
H1969 H 0.04295 0.38491 0.08341 0.0
H1970 H 0.15703 0.39212 0.1137 0.0
H1971 H 0.15702 0.35499 0.10828 0.0
H1972 H 0.16836 0.38166 0.0941 0.0
H1973 H 0.02405 0.37819 0.10883 0.0
H1974 H 0.04505 0.35223 0.11969 0.0
H1975 H 0.04693 0.3894 0.12494 0.0
H1976 H 0.11301 0.30985 0.15008 0.0
H1977 H 0.11553 0.39971 0.16198 0.0
H1978 H 0.11962 0.31734 0.10914 0.0
H1979 H 0.08187 0.31612 0.11308 0.0
H1980 H 0.106 0.29342 0.12418 0.0
H1981 H 0.1222 0.42675 0.12368 0.0
H1982 H 0.10937 0.43608 0.14317 0.0
H1983 H 0.08449 0.42611 0.12773 0.0
C1984 C 0.85937 0.86592 0.40508 0.0
C1985 C 0.88848 0.86924 0.40913 0.0
C1986 C 0.85114 0.85924 0.38952 0.0
C1987 C 0.87249 0.85602 0.37772 0.0
C1988 C 0.90183 0.86004 0.38163 0.0
C1989 C 0.90948 0.86653 0.39731 0.0
C1990 C 0.81965 0.85502 0.38579 0.0
C1991 C 0.92521 0.85701 0.36932 0.0
C1992 C 0.85774 0.81113 0.34105 0.0
C1993 C 0.8527 0.83241 0.32962 0.0
C1994 C 0.86345 0.8185 0.35686 0.0
C1995 C 0.86429 0.84785 0.36131 0.0
C1996 C 0.85839 0.86939 0.34993 0.0
C1997 C 0.85257 0.86141 0.33424 0.0
C1998 C 0.86938 0.79491 0.36871 0.0
C1999 C 0.85917 0.90091 0.35422 0.0
H2000 H 0.84299 0.86791 0.41415 0.0
H2001 H 0.93199 0.86913 0.40033 0.0
H2002 H 0.81303 0.86957 0.37604 0.0
H2003 H 0.81594 0.83267 0.38167 0.0
H2004 H 0.80565 0.85915 0.39621 0.0
H2005 H 0.9469 0.86181 0.37417 0.0
H2006 H 0.92528 0.83478 0.36455 0.0
H2007 H 0.92098 0.87173 0.35924 0.0
H2008 H 0.8578 0.78868 0.33759 0.0
H2009 H 0.84873 0.87802 0.32548 0.0
H2010 H 0.85499 0.79721 0.37912 0.0
H2011 H 0.89183 0.79668 0.37307 0.0
H2012 H 0.86632 0.77313 0.36357 0.0
H2013 H 0.84465 0.90522 0.36437 0.0
H2014 H 0.85273 0.91493 0.34417 0.0
H2015 H 0.88123 0.90696 0.35797 0.0
C2016 C 0.35037 0.66401 0.64374 0.0
C2017 C 0.35631 0.64441 0.65593 0.0
C2018 C 0.35886 0.65833 0.6281 0.0
C2019 C 0.3734 0.63235 0.62456 0.0
C2020 C 0.3786 0.61207 0.63671 0.0
C2021 C 0.37009 0.61839 0.65226 0.0
C2022 C 0.35302 0.68052 0.61544 0.0
C2023 C 0.39375 0.58399 0.63335 0.0
C2024 C 0.37605 0.60955 0.58141 0.0
C2025 C 0.40346 0.61916 0.57686 0.0
C2026 C 0.36618 0.61317 0.59698 0.0
C2027 C 0.38407 0.62688 0.60824 0.0
C2028 C 0.412 0.63602 0.60383 0.0
C2029 C 0.4214 0.63195 0.5882 0.0
C2030 C 0.33639 0.60288 0.6013 0.0
C2031 C 0.43167 0.65079 0.61551 0.0
H2032 H 0.33979 0.68417 0.64649 0.0
H2033 H 0.3746 0.60304 0.6616 0.0
H2034 H 0.37368 0.68849 0.61053 0.0
H2035 H 0.34086 0.67069 0.60552 0.0
H2036 H 0.34062 0.69917 0.62002 0.0
H2037 H 0.39471 0.56984 0.64394 0.0
H2038 H 0.38261 0.57228 0.62368 0.0
H2039 H 0.41603 0.58828 0.62929 0.0
H2040 H 0.36207 0.59958 0.57273 0.0
H2041 H 0.44256 0.63951 0.58478 0.0
H2042 H 0.3228 0.62148 0.60474 0.0
H2043 H 0.33744 0.58827 0.61167 0.0
H2044 H 0.32572 0.59139 0.59138 0.0
H2045 H 0.42161 0.67107 0.61968 0.0
H2046 H 0.45301 0.65594 0.61031 0.0
H2047 H 0.43496 0.63695 0.62606 0.0
C2048 C 0.62513 0.1414 0.84141 0.0
C2049 C 0.64445 0.12649 0.83164 0.0
C2050 C 0.62085 0.13317 0.8572 0.0
C2051 C 0.63632 0.1095 0.86339 0.0
C2052 C 0.6562 0.09462 0.8537 0.0
C2053 C 0.66002 0.10328 0.83791 0.0
C2054 C 0.5995 0.14962 0.8672 0.0
C2055 C 0.67315 0.06936 0.85995 0.0
C2056 C 0.64087 0.10675 0.90816 0.0
C2057 C 0.61842 0.08773 0.9119 0.0
C2058 C 0.64763 0.11322 0.89238 0.0
C2059 C 0.63149 0.10045 0.88005 0.0
C2060 C 0.60946 0.0805 0.8837 0.0
C2061 C 0.60322 0.07432 0.89961 0.0
C2062 C 0.67138 0.13448 0.88894 0.0
C2063 C 0.59179 0.06647 0.87083 0.0
H2064 H 0.613 0.15935 0.83668 0.0
H2065 H 0.67496 0.09163 0.83043 0.0
H2066 H 0.58229 0.13494 0.87138 0.0
H2067 H 0.61032 0.15846 0.87785 0.0
H2068 H 0.58937 0.16766 0.86061 0.0
H2069 H 0.68821 0.06047 0.85098 0.0
H2070 H 0.68568 0.0759 0.87054 0.0
H2071 H 0.65824 0.05204 0.86373 0.0
H2072 H 0.65289 0.11704 0.91759 0.0
H2073 H 0.5859 0.05956 0.9024 0.0
H2074 H 0.66215 0.15411 0.88347 0.0
H2075 H 0.68687 0.12523 0.88034 0.0
H2076 H 0.68328 0.14083 0.8998 0.0
H2077 H 0.57906 0.08308 0.86451 0.0
H2078 H 0.57678 0.05002 0.87559 0.0
H2079 H 0.60608 0.05613 0.86198 0.0
C2080 C 0.13523 0.62666 0.33481 0.0
C2081 C 0.13831 0.65606 0.33142 0.0
C2082 C 0.13367 0.61683 0.3505 0.0
C2083 C 0.13527 0.63687 0.36307 0.0
C2084 C 0.13901 0.66648 0.35975 0.0
C2085 C 0.14047 0.67572 0.34395 0.0
C2086 C 0.1297 0.5851 0.3536 0.0
C2087 C 0.14088 0.68847 0.37287 0.0
C2088 C 0.10147 0.61953 0.40279 0.0
C2089 C 0.12571 0.6132 0.41206 0.0
C2090 C 0.10423 0.62653 0.38671 0.0
C2091 C 0.1319 0.62712 0.37972 0.0
C2092 C 0.15634 0.61969 0.38884 0.0
C2093 C 0.15295 0.61283 0.40492 0.0
C2094 C 0.07764 0.63425 0.37735 0.0
C2095 C 0.18615 0.61991 0.38174 0.0
H2096 H 0.1336 0.6113 0.3252 0.0
H2097 H 0.14294 0.69844 0.34144 0.0
H2098 H 0.14677 0.57715 0.36168 0.0
H2099 H 0.10877 0.5814 0.35957 0.0
H2100 H 0.13025 0.57218 0.34254 0.0
H2101 H 0.14486 0.71052 0.36831 0.0
H2102 H 0.12053 0.6886 0.37974 0.0
H2103 H 0.15843 0.68272 0.38119 0.0
H2104 H 0.08032 0.61983 0.40819 0.0
H2105 H 0.17179 0.60787 0.41197 0.0
H2106 H 0.07629 0.62088 0.36649 0.0
H2107 H 0.07889 0.65704 0.37352 0.0
H2108 H 0.05759 0.63127 0.38432 0.0
H2109 H 0.18671 0.60657 0.37085 0.0
H2110 H 0.20267 0.61173 0.39012 0.0
H2111 H 0.192 0.64216 0.37827 0.0
C2112 C 0.63273 0.83458 0.65546 0.0
C2113 C 0.6259 0.85446 0.66737 0.0
C2114 C 0.62585 0.8401 0.63955 0.0
C2115 C 0.61195 0.86617 0.63548 0.0
C2116 C 0.60593 0.88675 0.64737 0.0
C2117 C 0.61294 0.88063 0.66317 0.0
C2118 C 0.63264 0.81766 0.62718 0.0
C2119 C 0.59132 0.91489 0.64347 0.0
C2120 C 0.61225 0.88943 0.59237 0.0
C2121 C 0.58498 0.88033 0.58728 0.0
C2122 C 0.62127 0.88516 0.60805 0.0
C2123 C 0.60259 0.87141 0.6189 0.0
C2124 C 0.57491 0.8625 0.6139 0.0
C2125 C 0.56642 0.86712 0.59816 0.0
C2126 C 0.65088 0.89507 0.61298 0.0
C2127 C 0.55439 0.84776 0.62515 0.0
H2128 H 0.64273 0.81431 0.6586 0.0
H2129 H 0.60771 0.89621 0.67228 0.0
H2130 H 0.61236 0.8095 0.6219 0.0
H2131 H 0.64545 0.8273 0.61745 0.0
H2132 H 0.64478 0.79916 0.63215 0.0
H2133 H 0.58963 0.92927 0.65394 0.0
H2134 H 0.60332 0.9263 0.63401 0.0
H2135 H 0.56934 0.91067 0.6389 0.0
H2136 H 0.62675 0.89965 0.58404 0.0
H2137 H 0.54534 0.85996 0.59433 0.0
H2138 H 0.66382 0.87641 0.61701 0.0
H2139 H 0.64923 0.91017 0.62311 0.0
H2140 H 0.66258 0.90594 0.60319 0.0
H2141 H 0.56422 0.82763 0.62967 0.0
H2142 H 0.53354 0.84239 0.61944 0.0
H2143 H 0.55014 0.86177 0.63552 0.0
C2144 C 0.36909 0.36879 0.83146 0.0
C2145 C 0.34728 0.34955 0.827 0.0
C2146 C 0.37431 0.37508 0.84746 0.0
C2147 C 0.35744 0.36166 0.85928 0.0
C2148 C 0.33505 0.34263 0.85486 0.0
C2149 C 0.33018 0.33687 0.83876 0.0
C2150 C 0.39823 0.39564 0.85171 0.0
C2151 C 0.3167 0.32781 0.86715 0.0
C2152 C 0.38965 0.35234 0.90023 0.0
C2153 C 0.37554 0.3739 0.90889 0.0
C2154 C 0.38409 0.34831 0.88406 0.0
C2155 C 0.3641 0.36642 0.8763 0.0
C2156 C 0.35024 0.38865 0.88486 0.0
C2157 C 0.35606 0.39207 0.90108 0.0
C2158 C 0.39925 0.32431 0.87535 0.0
C2159 C 0.329 0.40854 0.87693 0.0
H2160 H 0.38231 0.37883 0.82245 0.0
H2161 H 0.31328 0.32201 0.83542 0.0
H2162 H 0.38989 0.41307 0.85942 0.0
H2163 H 0.41511 0.38413 0.8585 0.0
H2164 H 0.40831 0.40549 0.84108 0.0
H2165 H 0.29947 0.31447 0.86175 0.0
H2166 H 0.33038 0.31376 0.87465 0.0
H2167 H 0.3066 0.34395 0.87507 0.0
H2168 H 0.40472 0.33816 0.90615 0.0
H2169 H 0.34513 0.40882 0.90767 0.0
H2170 H 0.41131 0.3331 0.8651 0.0
H2171 H 0.38319 0.3089 0.87061 0.0
H2172 H 0.4145 0.31239 0.88306 0.0
H2173 H 0.33919 0.41916 0.86659 0.0
H2174 H 0.32086 0.4254 0.8851 0.0
H2175 H 0.31044 0.396 0.87242 0.0
C2176 C 0.8576 0.09268 0.15145 0.0
C2177 C 0.87605 0.1106 0.16014 0.0
C2178 C 0.86254 0.0873 0.13531 0.0
C2179 C 0.88655 0.10002 0.12775 0.0
C2180 C 0.90534 0.11794 0.13648 0.0
C2181 C 0.89982 0.12307 0.15254 0.0
C2182 C 0.84196 0.06822 0.12631 0.0
C2183 C 0.93124 0.13184 0.12885 0.0
C2184 C 0.91647 0.06996 0.08931 0.0
C2185 C 0.90589 0.08978 0.07823 0.0
C2186 C 0.90968 0.07253 0.10546 0.0
C2187 C 0.89181 0.09536 0.11059 0.0
C2188 C 0.8804 0.11491 0.0994 0.0
C2189 C 0.88762 0.11192 0.08337 0.0
C2190 C 0.92232 0.05133 0.11708 0.0
C2191 C 0.86117 0.13948 0.10441 0.0
H2192 H 0.83919 0.08297 0.15724 0.0
H2193 H 0.91428 0.13685 0.15916 0.0
H2194 H 0.83199 0.0805 0.11647 0.0
H2195 H 0.85378 0.04993 0.12094 0.0
H2196 H 0.82459 0.05957 0.13398 0.0
H2197 H 0.94411 0.14465 0.1374 0.0
H2198 H 0.94533 0.11513 0.12356 0.0
H2199 H 0.92422 0.14621 0.1191 0.0
H2200 H 0.93054 0.05276 0.08543 0.0
H2201 H 0.87917 0.12723 0.07487 0.0
H2202 H 0.90504 0.04164 0.1244 0.0
H2203 H 0.93716 0.06267 0.12526 0.0
H2204 H 0.93437 0.0338 0.11109 0.0
H2205 H 0.84281 0.13127 0.11148 0.0
H2206 H 0.85259 0.15168 0.09413 0.0
H2207 H 0.8734 0.15452 0.11207 0.0
C2208 C 0.86464 0.63739 0.8418 0.0
C2209 C 0.8368 0.63921 0.83545 0.0
C2210 C 0.86907 0.63022 0.85773 0.0
C2211 C 0.8451 0.62458 0.86756 0.0
C2212 C 0.81693 0.62615 0.86124 0.0
C2213 C 0.81309 0.63355 0.84525 0.0
C2214 C 0.89945 0.62896 0.86406 0.0
C2215 C 0.79088 0.62015 0.8714 0.0
C2216 C 0.86169 0.58359 0.90537 0.0
C2217 C 0.86397 0.60603 0.9164 0.0
C2218 C 0.85453 0.58918 0.88951 0.0
C2219 C 0.84972 0.61789 0.88458 0.0
C2220 C 0.85125 0.64052 0.89574 0.0
C2221 C 0.85828 0.63431 0.91151 0.0
C2222 C 0.85292 0.56449 0.87793 0.0
C2223 C 0.84641 0.67143 0.89092 0.0
H2224 H 0.8831 0.64176 0.83434 0.0
H2225 H 0.79153 0.6348 0.84041 0.0
H2226 H 0.9021 0.64479 0.87378 0.0
H2227 H 0.90385 0.60736 0.86908 0.0
H2228 H 0.91576 0.63357 0.85478 0.0
H2229 H 0.77049 0.62149 0.86458 0.0
H2230 H 0.79256 0.59839 0.87671 0.0
H2231 H 0.78991 0.63579 0.88131 0.0
H2232 H 0.86589 0.56167 0.90907 0.0
H2233 H 0.85993 0.65181 0.91995 0.0
H2234 H 0.87031 0.56659 0.86901 0.0
H2235 H 0.83216 0.56501 0.87145 0.0
H2236 H 0.85511 0.54328 0.88386 0.0
H2237 H 0.86337 0.67817 0.88246 0.0
H2238 H 0.84676 0.68632 0.90121 0.0
H2239 H 0.82543 0.67367 0.88479 0.0
C2240 C 0.09004 0.12617 0.57875 0.0
C2241 C 0.10424 0.10368 0.57088 0.0
C2242 C 0.09198 0.12928 0.59522 0.0
C2243 C 0.1084 0.10935 0.60408 0.0
C2244 C 0.12262 0.08647 0.59627 0.0
C2245 C 0.12042 0.08393 0.57973 0.0
C2246 C 0.07654 0.15399 0.60314 0.0
C2247 C 0.1402 0.06473 0.60536 0.0
C2248 C 0.13367 0.13305 0.64483 0.0
C2249 C 0.11299 0.12031 0.65468 0.0
C2250 C 0.13267 0.12934 0.62833 0.0
C2251 C 0.11051 0.11246 0.62156 0.0
C2252 C 0.08978 0.09928 0.63145 0.0
C2253 C 0.09125 0.10339 0.64789 0.0
C2254 C 0.15511 0.14378 0.61814 0.0
C2255 C 0.06584 0.08111 0.62466 0.0
H2256 H 0.07752 0.14157 0.57201 0.0
H2257 H 0.13143 0.06649 0.57376 0.0
H2258 H 0.061 0.14565 0.61199 0.0
H2259 H 0.09221 0.16764 0.60961 0.0
H2260 H 0.06472 0.16767 0.59454 0.0
H2261 H 0.1498 0.04811 0.59752 0.0
H2262 H 0.15777 0.07574 0.61186 0.0
H2263 H 0.12651 0.05387 0.61431 0.0
H2264 H 0.15054 0.14613 0.64998 0.0
H2265 H 0.07522 0.0934 0.65541 0.0
H2266 H 0.1446 0.1592 0.60995 0.0
H2267 H 0.16634 0.12755 0.61075 0.0
H2268 H 0.17137 0.15556 0.62527 0.0
H2269 H 0.0522 0.09438 0.61673 0.0
H2270 H 0.05197 0.07161 0.63401 0.0
H2271 H 0.07495 0.06344 0.61739 0.0
C2272 C 0.60435 0.40442 0.39378 0.0
C2273 C 0.61906 0.39498 0.4073 0.0
C2274 C 0.61537 0.39924 0.37857 0.0
C2275 C 0.64184 0.38447 0.37687 0.0
C2276 C 0.65728 0.37576 0.39048 0.0
C2277 C 0.64565 0.38102 0.40554 0.0
C2278 C 0.59822 0.40876 0.36431 0.0
C2279 C 0.68569 0.36019 0.38914 0.0
C2280 C 0.65152 0.34415 0.33824 0.0
C2281 C 0.66773 0.36373 0.32928 0.0
C2282 C 0.64365 0.35033 0.3539 0.0
C2283 C 0.65238 0.37663 0.36082 0.0
C2284 C 0.66988 0.39589 0.35212 0.0
C2285 C 0.67731 0.38924 0.33642 0.0
C2286 C 0.62496 0.32922 0.36279 0.0
C2287 C 0.67986 0.42398 0.3592 0.0
H2288 H 0.58382 0.41524 0.39503 0.0
H2289 H 0.65728 0.37384 0.41594 0.0
H2290 H 0.61172 0.42227 0.35644 0.0
H2291 H 0.59145 0.38966 0.35736 0.0
H2292 H 0.57872 0.42116 0.36765 0.0
H2293 H 0.69602 0.3568 0.40085 0.0
H2294 H 0.68233 0.33892 0.38348 0.0
H2295 H 0.70067 0.37248 0.38147 0.0
H2296 H 0.64407 0.32434 0.33286 0.0
H2297 H 0.68989 0.40445 0.3296 0.0
H2298 H 0.60383 0.33923 0.36544 0.0
H2299 H 0.63505 0.32355 0.37428 0.0
H2300 H 0.62119 0.30912 0.35598 0.0
H2301 H 0.66106 0.43821 0.36125 0.0
H2302 H 0.69535 0.4354 0.3514 0.0
H2303 H 0.69019 0.42021 0.37086 0.0
C2304 C 0.39833 0.86173 0.08596 0.0
C2305 C 0.39871 0.88766 0.07748 0.0
C2306 C 0.39433 0.86145 0.1024 0.0
C2307 C 0.39029 0.88773 0.11056 0.0
C2308 C 0.39008 0.91396 0.10205 0.0
C2309 C 0.39447 0.91364 0.08559 0.0
C2310 C 0.39499 0.83305 0.11109 0.0
C2311 C 0.38551 0.94234 0.11036 0.0
C2312 C 0.35781 0.8813 0.15165 0.0
C2313 C 0.3824 0.8826 0.16124 0.0
C2314 C 0.35992 0.88394 0.13513 0.0
C2315 C 0.3873 0.88761 0.12807 0.0
C2316 C 0.41212 0.88948 0.13772 0.0
C2317 C 0.40935 0.88711 0.1542 0.0
C2318 C 0.33295 0.88217 0.1252 0.0
C2319 C 0.44172 0.89309 0.13061 0.0
H2320 H 0.40168 0.84156 0.0798 0.0
H2321 H 0.3946 0.93373 0.07909 0.0
H2322 H 0.41283 0.83302 0.11982 0.0
H2323 H 0.37469 0.82995 0.11778 0.0
H2324 H 0.39792 0.81451 0.10295 0.0
H2325 H 0.38461 0.96068 0.10195 0.0
H2326 H 0.36519 0.94179 0.11725 0.0
H2327 H 0.40324 0.94621 0.11889 0.0
H2328 H 0.3369 0.87803 0.15703 0.0
H2329 H 0.42845 0.88812 0.16154 0.0
H2330 H 0.33368 0.86264 0.11767 0.0
H2331 H 0.33156 0.901 0.11717 0.0
H2332 H 0.31316 0.88135 0.13257 0.0
H2333 H 0.44691 0.87418 0.12312 0.0
H2334 H 0.45869 0.89534 0.13979 0.0
H2335 H 0.44227 0.91232 0.12285 0.0
C2336 C 0.89683 0.33705 0.65629 0.0
C2337 C 0.88219 0.35296 0.66787 0.0
C2338 C 0.89847 0.34678 0.64061 0.0
C2339 C 0.88505 0.37301 0.63639 0.0
C2340 C 0.86979 0.38893 0.64793 0.0
C2341 C 0.86856 0.37873 0.66356 0.0
C2342 C 0.91493 0.32918 0.6286 0.0
C2343 C 0.85509 0.41691 0.64382 0.0
C2344 C 0.91451 0.40906 0.5995 0.0
C2345 C 0.89514 0.39951 0.58791 0.0
C2346 C 0.91096 0.40134 0.61545 0.0
C2347 C 0.88741 0.3838 0.61989 0.0
C2348 C 0.86711 0.37513 0.60836 0.0
C2349 C 0.87125 0.38304 0.5925 0.0
C2350 C 0.93305 0.411 0.62744 0.0
C2351 C 0.84161 0.3566 0.61267 0.0
H2352 H 0.90742 0.31712 0.65951 0.0
H2353 H 0.85716 0.39114 0.67244 0.0
H2354 H 0.9007 0.32343 0.61854 0.0
H2355 H 0.93298 0.34205 0.62374 0.0
H2356 H 0.9238 0.30908 0.63376 0.0
H2357 H 0.84339 0.42627 0.65407 0.0
H2358 H 0.87124 0.43274 0.63964 0.0
H2359 H 0.8396 0.41351 0.634 0.0
H2360 H 0.93299 0.42182 0.59607 0.0
H2361 H 0.85606 0.37573 0.58363 0.0
H2362 H 0.94468 0.39201 0.63217 0.0
H2363 H 0.92234 0.4217 0.6376 0.0
H2364 H 0.94903 0.42609 0.62228 0.0
H2365 H 0.8492 0.33515 0.61662 0.0
H2366 H 0.82662 0.35358 0.60255 0.0
H2367 H 0.82957 0.36631 0.62267 0.0
C2368 C 0.3821 0.18845 0.3409 0.0
C2369 C 0.37506 0.16802 0.32932 0.0
C2370 C 0.38718 0.18021 0.35664 0.0
C2371 C 0.38534 0.1508 0.36087 0.0
C2372 C 0.37781 0.13012 0.3493 0.0
C2373 C 0.37267 0.13898 0.33367 0.0
C2374 C 0.39491 0.20292 0.3687 0.0
C2375 C 0.37572 0.09856 0.35337 0.0
C2376 C 0.42612 0.12837 0.39783 0.0
C2377 C 0.40416 0.12802 0.40921 0.0
C2378 C 0.42018 0.1351 0.38196 0.0
C2379 C 0.39163 0.14174 0.37739 0.0
C2380 C 0.36925 0.14069 0.38873 0.0
C2381 C 0.37577 0.13376 0.40449 0.0
C2382 C 0.44456 0.13577 0.37014 0.0
C2383 C 0.33855 0.14768 0.38432 0.0
H2384 H 0.38394 0.21092 0.33765 0.0
H2385 H 0.36731 0.12302 0.32479 0.0
H2386 H 0.37958 0.2022 0.37877 0.0
H2387 H 0.41666 0.1986 0.37356 0.0
H2388 H 0.39469 0.22493 0.36359 0.0
H2389 H 0.36902 0.08528 0.34307 0.0
H2390 H 0.39686 0.09067 0.35765 0.0
H2391 H 0.36003 0.09531 0.36311 0.0
H2392 H 0.44808 0.12389 0.40136 0.0
H2393 H 0.35863 0.1335 0.4132 0.0
H2394 H 0.44728 0.15793 0.36551 0.0
H2395 H 0.43952 0.1217 0.3599 0.0
H2396 H 0.46527 0.12867 0.37541 0.0
H2397 H 0.33712 0.17032 0.38025 0.0
H2398 H 0.32348 0.14469 0.39439 0.0
H2399 H 0.33142 0.13387 0.37435 0.0
C2400 C 0.62813 0.57316 0.17002 0.0
C2401 C 0.61651 0.59908 0.17564 0.0
C2402 C 0.62503 0.56508 0.15408 0.0
C2403 C 0.60989 0.58332 0.14356 0.0
C2404 C 0.59846 0.60966 0.14911 0.0
C2405 C 0.60197 0.61725 0.16506 0.0
C2406 C 0.63767 0.53692 0.14853 0.0
C2407 C 0.58219 0.62971 0.13825 0.0
C2408 C 0.62 0.57896 0.09908 0.0
C2409 C 0.59486 0.56462 0.09434 0.0
C2410 C 0.62573 0.58419 0.11513 0.0
C2411 C 0.60578 0.57499 0.12672 0.0
C2412 C 0.58091 0.55955 0.12207 0.0
C2413 C 0.57578 0.55447 0.10592 0.0
C2414 C 0.6526 0.60052 0.11962 0.0
C2415 C 0.55913 0.54943 0.13411 0.0
H2416 H 0.63941 0.559 0.1781 0.0
H2417 H 0.59291 0.63732 0.16929 0.0
H2418 H 0.62031 0.52269 0.14408 0.0
H2419 H 0.65269 0.54072 0.13853 0.0
H2420 H 0.64942 0.52551 0.15811 0.0
H2421 H 0.5748 0.64948 0.14441 0.0
H2422 H 0.59602 0.63609 0.12814 0.0
H2423 H 0.56313 0.61852 0.13328 0.0
H2424 H 0.63499 0.58667 0.09021 0.0
H2425 H 0.55634 0.54335 0.10237 0.0
H2426 H 0.66468 0.58872 0.1289 0.0
H2427 H 0.64661 0.62175 0.12464 0.0
H2428 H 0.66705 0.6041 0.10933 0.0
H2429 H 0.56988 0.53679 0.14355 0.0
H2430 H 0.542 0.53599 0.12869 0.0
H2431 H 0.54891 0.56829 0.13987 0.0
C2432 C 0.10114 0.81266 0.83919 0.0
C2433 C 0.11136 0.83376 0.82874 0.0
C2434 C 0.09808 0.81846 0.85542 0.0
C2435 C 0.10525 0.84605 0.86131 0.0
C2436 C 0.1158 0.86736 0.85086 0.0
C2437 C 0.11881 0.86093 0.83471 0.0
C2438 C 0.08695 0.79513 0.86625 0.0
C2439 C 0.12358 0.89706 0.8567 0.0
C2440 C 0.0716 0.86935 0.90025 0.0
C2441 C 0.09414 0.86446 0.91096 0.0
C2442 C 0.075 0.86366 0.88403 0.0
C2443 C 0.10152 0.8527 0.87841 0.0
C2444 C 0.12444 0.84796 0.88913 0.0
C2445 C 0.1205 0.85398 0.90526 0.0
C2446 C 0.05015 0.86917 0.87292 0.0
C2447 C 0.15301 0.83622 0.88358 0.0
H2448 H 0.09538 0.79161 0.83469 0.0
H2449 H 0.12665 0.8774 0.82672 0.0
H2450 H 0.10267 0.79101 0.87588 0.0
H2451 H 0.06662 0.80222 0.87192 0.0
H2452 H 0.08288 0.77465 0.85986 0.0
H2453 H 0.13174 0.91111 0.84705 0.0
H2454 H 0.10444 0.90743 0.86209 0.0
H2455 H 0.14028 0.89556 0.86605 0.0
H2456 H 0.05119 0.87748 0.90454 0.0
H2457 H 0.13804 0.85009 0.91345 0.0
H2458 H 0.04369 0.84883 0.86704 0.0
H2459 H 0.05679 0.88436 0.86347 0.0
H2460 H 0.03112 0.87824 0.87912 0.0
H2461 H 0.14986 0.81484 0.878 0.0
H2462 H 0.16873 0.83398 0.89341 0.0
H2463 H 0.16235 0.85058 0.87443 0.0
loop_
_geom_bond_atom_site_label_1
_geom_bond_atom_site_label_2
_geom_bond_distance
_geom_bond_site_symmetry_2
_ccdc_geom_bond_type
C0 O1 1.160 . S
C0 O7 1.185 . S
O1 C0 1.160 . S
O2 Zn3 1.899 . S
O2 C10 1.284 . S
Zn3 O2 1.899 . S
Zn3 O4 2.032 . S
Zn3 O7 2.086 . S
Zn3 O12 1.977 . S
O4 Zn3 2.032 . S
O4 C8 1.278 . S
C5 O6 1.203 . S
C5 O12 1.267 . S
O6 C5 1.203 . S
O7 C0 1.185 . S
O7 Zn3 2.086 . S
C8 O4 1.278 . S
C8 O9 1.211 . S
O9 C8 1.211 . S
C10 O2 1.284 . S
C10 O11 1.273 . S
O11 C10 1.273 . S
O12 Zn3 1.977 . S
O12 C5 1.267 . S
C13 O14 1.160 . S
C13 O20 1.185 . S
O14 C13 1.160 . S
O15 Zn16 1.899 . S
O15 C23 1.284 . S
Zn16 O15 1.899 . S
Zn16 O17 2.032 . S
Zn16 O20 2.086 . S
Zn16 O25 1.977 . S
O17 Zn16 2.032 . S
O17 C21 1.278 . S
C18 O19 1.203 . S
C18 O25 1.267 . S
O19 C18 1.203 . S
O20 C13 1.185 . S
O20 Zn16 2.086 . S
C21 O17 1.278 . S
C21 O22 1.211 . S
O22 C21 1.211 . S
C23 O15 1.284 . S
C23 O24 1.273 . S
O24 C23 1.273 . S
O25 Zn16 1.977 . S
O25 C18 1.267 . S
C26 O27 1.160 . S
C26 O33 1.185 . S
O27 C26 1.160 . S
O28 Zn29 1.899 . S
O28 C36 1.284 . S
Zn29 O28 1.899 . S
Zn29 O30 2.032 . S
Zn29 O33 2.086 . S
Zn29 O38 1.977 . S
O30 Zn29 2.032 . S
O30 C34 1.278 . S
C31 O32 1.203 . S
C31 O38 1.267 . S
O32 C31 1.203 . S
O33 C26 1.185 . S
O33 Zn29 2.086 . S
C34 O30 1.278 . S
C34 O35 1.211 . S
O35 C34 1.211 . S
C36 O28 1.284 . S
C36 O37 1.273 . S
O37 C36 1.273 . S
O38 Zn29 1.977 . S
O38 C31 1.267 . S
C39 O40 1.160 . S
C39 O46 1.185 . S
O40 C39 1.160 . S
O41 Zn42 1.899 . S
O41 C49 1.284 . S
Zn42 O41 1.899 . S
Zn42 O43 2.032 . S
Zn42 O46 2.086 . S
Zn42 O51 1.977 . S
O43 Zn42 2.032 . S
O43 C47 1.278 . S
C44 O45 1.203 . S
C44 O51 1.267 . S
O45 C44 1.203 . S
O46 C39 1.185 . S
O46 Zn42 2.086 . S
C47 O43 1.278 . S
C47 O48 1.211 . S
O48 C47 1.211 . S
C49 O41 1.284 . S
C49 O50 1.273 . S
O50 C49 1.273 . S
O51 Zn42 1.977 . S
O51 C44 1.267 . S
C52 O53 1.160 . S
C52 O59 1.185 . S
O53 C52 1.160 . S
O54 Zn55 1.899 . S
O54 C62 1.284 . S
Zn55 O54 1.899 . S
Zn55 O56 2.032 . S
Zn55 O59 2.086 . S
Zn55 O64 1.977 . S
O56 Zn55 2.032 . S
O56 C60 1.278 . S
C57 O58 1.203 . S
C57 O64 1.267 . S
O58 C57 1.203 . S
O59 C52 1.185 . S
O59 Zn55 2.086 . S
C60 O56 1.278 . S
C60 O61 1.211 . S
O61 C60 1.211 . S
C62 O54 1.284 . S
C62 O63 1.273 . S
O63 C62 1.273 . S
O64 Zn55 1.977 . S
O64 C57 1.267 . S
C65 O66 1.160 . S
C65 O72 1.185 . S
O66 C65 1.160 . S
O67 Zn68 1.899 . S
O67 C75 1.284 . S
Zn68 O67 1.899 . S
Zn68 O69 2.032 . S
Zn68 O72 2.086 . S
Zn68 O77 1.977 . S
O69 Zn68 2.032 . S
O69 C73 1.278 . S
C70 O71 1.203 . S
C70 O77 1.267 . S
O71 C70 1.203 . S
O72 C65 1.185 . S
O72 Zn68 2.086 . S
C73 O69 1.278 . S
C73 O74 1.211 . S
O74 C73 1.211 . S
C75 O67 1.284 . S
C75 O76 1.273 . S
O76 C75 1.273 . S
O77 Zn68 1.977 . S
O77 C70 1.267 . S
C78 O79 1.160 . S
C78 O85 1.185 . S
O79 C78 1.160 . S
O80 Zn81 1.899 . S
O80 C88 1.284 . S
Zn81 O80 1.899 . S
Zn81 O82 2.032 . S
Zn81 O85 2.086 . S
Zn81 O90 1.977 . S
O82 Zn81 2.032 . S
O82 C86 1.278 . S
C83 O84 1.203 . S
C83 O90 1.267 . S
O84 C83 1.203 . S
O85 C78 1.185 . S
O85 Zn81 2.086 . S
C86 O82 1.278 . S
C86 O87 1.211 . S
O87 C86 1.211 . S
C88 O80 1.284 . S
C88 O89 1.273 . S
O89 C88 1.273 . S
O90 Zn81 1.977 . S
O90 C83 1.267 . S
C91 O92 1.160 . S
C91 O98 1.185 . S
O92 C91 1.160 . S
O93 Zn94 1.899 . S
O93 C101 1.284 . S
Zn94 O93 1.899 . S
Zn94 O95 2.032 . S
Zn94 O98 2.086 . S
Zn94 O103 1.977 . S
O95 Zn94 2.032 . S
O95 C99 1.278 . S
C96 O97 1.203 . S
C96 O103 1.267 . S
O97 C96 1.203 . S
O98 C91 1.185 . S
O98 Zn94 2.086 . S
C99 O95 1.278 . S
C99 O100 1.211 . S
O100 C99 1.211 . S
C101 O93 1.284 . S
C101 O102 1.273 . S
O102 C101 1.273 . S
O103 Zn94 1.977 . S
O103 C96 1.267 . S
C104 O105 1.160 . S
C104 O111 1.185 . S
O105 C104 1.160 . S
O106 Zn107 1.899 . S
O106 C114 1.284 . S
Zn107 O106 1.899 . S
Zn107 O108 2.032 . S
Zn107 O111 2.086 . S
Zn107 O116 1.977 . S
O108 Zn107 2.032 . S
O108 C112 1.278 . S
C109 O110 1.203 . S
C109 O116 1.267 . S
O110 C109 1.203 . S
O111 C104 1.185 . S
O111 Zn107 2.086 . S
C112 O108 1.278 . S
C112 O113 1.211 . S
O113 C112 1.211 . S
C114 O106 1.284 . S
C114 O115 1.273 . S
O115 C114 1.273 . S
O116 Zn107 1.977 . S
O116 C109 1.267 . S
C117 O118 1.160 . S
C117 O124 1.185 . S
O118 C117 1.160 . S
O119 Zn120 1.899 . S
O119 C127 1.284 . S
Zn120 O119 1.899 . S
Zn120 O121 2.032 . S
Zn120 O124 2.086 . S
Zn120 O129 1.977 . S
O121 Zn120 2.032 . S
O121 C125 1.278 . S
C122 O123 1.203 . S
C122 O129 1.267 . S
O123 C122 1.203 . S
O124 C117 1.185 . S
O124 Zn120 2.086 . S
C125 O121 1.278 . S
C125 O126 1.211 . S
O126 C125 1.211 . S
C127 O119 1.284 . S
C127 O128 1.273 . S
O128 C127 1.273 . S
O129 Zn120 1.977 . S
O129 C122 1.267 . S
C130 O131 1.160 . S
C130 O137 1.185 . S
O131 C130 1.160 . S
O132 Zn133 1.899 . S
O132 C140 1.284 . S
Zn133 O132 1.899 . S
Zn133 O134 2.032 . S
Zn133 O137 2.086 . S
Zn133 O142 1.977 . S
O134 Zn133 2.032 . S
O134 C138 1.278 . S
C135 O136 1.203 . S
C135 O142 1.267 . S
O136 C135 1.203 . S
O137 C130 1.185 . S
O137 Zn133 2.086 . S
C138 O134 1.278 . S
C138 O139 1.211 . S
O139 C138 1.211 . S
C140 O132 1.284 . S
C140 O141 1.273 . S
O141 C140 1.273 . S
O142 Zn133 1.977 . S
O142 C135 1.267 . S
C143 O144 1.160 . S
C143 O150 1.185 . S
O144 C143 1.160 . S
O145 Zn146 1.899 . S
O145 C153 1.284 . S
Zn146 O145 1.899 . S
Zn146 O147 2.032 . S
Zn146 O150 2.086 . S
Zn146 O155 1.977 . S
O147 Zn146 2.032 . S
O147 C151 1.278 . S
C148 O149 1.203 . S
C148 O155 1.267 . S
O149 C148 1.203 . S
O150 C143 1.185 . S
O150 Zn146 2.086 . S
C151 O147 1.278 . S
C151 O152 1.211 . S
O152 C151 1.211 . S
C153 O145 1.284 . S
C153 O154 1.273 . S
O154 C153 1.273 . S
O155 Zn146 1.977 . S
O155 C148 1.267 . S
C156 O157 1.160 . S
C156 O163 1.185 . S
O157 C156 1.160 . S
O158 Zn159 1.899 . S
O158 C166 1.284 . S
Zn159 O158 1.899 . S
Zn159 O160 2.032 . S
Zn159 O163 2.086 . S
Zn159 O168 1.977 . S
O160 Zn159 2.032 . S
O160 C164 1.278 . S
C161 O162 1.203 . S
C161 O168 1.267 . S
O162 C161 1.203 . S
O163 C156 1.185 . S
O163 Zn159 2.086 . S
C164 O160 1.278 . S
C164 O165 1.211 . S
O165 C164 1.211 . S
C166 O158 1.284 . S
C166 O167 1.273 . S
O167 C166 1.273 . S
O168 Zn159 1.977 . S
O168 C161 1.267 . S
C169 O170 1.160 . S
C169 O176 1.185 . S
O170 C169 1.160 . S
O171 Zn172 1.899 . S
O171 C179 1.284 . S
Zn172 O171 1.899 . S
Zn172 O173 2.032 . S
Zn172 O176 2.086 . S
Zn172 O181 1.977 . S
O173 Zn172 2.032 . S
O173 C177 1.278 . S
C174 O175 1.203 . S
C174 O181 1.267 . S
O175 C174 1.203 . S
O176 C169 1.185 . S
O176 Zn172 2.086 . S
C177 O173 1.278 . S
C177 O178 1.211 . S
O178 C177 1.211 . S
C179 O171 1.284 . S
C179 O180 1.273 . S
O180 C179 1.273 . S
O181 Zn172 1.977 . S
O181 C174 1.267 . S
C182 O183 1.160 . S
C182 O189 1.185 . S
O183 C182 1.160 . S
O184 Zn185 1.899 . S
O184 C192 1.284 . S
Zn185 O184 1.899 . S
Zn185 O186 2.032 . S
Zn185 O189 2.086 . S
Zn185 O194 1.977 . S
O186 Zn185 2.032 . S
O186 C190 1.278 . S
C187 O188 1.203 . S
C187 O194 1.267 . S
O188 C187 1.203 . S
O189 C182 1.185 . S
O189 Zn185 2.086 . S
C190 O186 1.278 . S
C190 O191 1.211 . S
O191 C190 1.211 . S
C192 O184 1.284 . S
C192 O193 1.273 . S
O193 C192 1.273 . S
O194 Zn185 1.977 . S
O194 C187 1.267 . S
C195 O196 1.160 . S
C195 O202 1.185 . S
O196 C195 1.160 . S
O197 Zn198 1.899 . S
O197 C205 1.284 . S
Zn198 O197 1.899 . S
Zn198 O199 2.032 . S
Zn198 O202 2.086 . S
Zn198 O207 1.977 . S
O199 Zn198 2.032 . S
O199 C203 1.278 . S
C200 O201 1.203 . S
C200 O207 1.267 . S
O201 C200 1.203 . S
O202 C195 1.185 . S
O202 Zn198 2.086 . S
C203 O199 1.278 . S
C203 O204 1.211 . S
O204 C203 1.211 . S
C205 O197 1.284 . S
C205 O206 1.273 . S
O206 C205 1.273 . S
O207 Zn198 1.977 . S
O207 C200 1.267 . S
C208 O209 1.160 . S
C208 O215 1.185 . S
O209 C208 1.160 . S
O210 Zn211 1.899 . S
O210 C218 1.284 . S
Zn211 O210 1.899 . S
Zn211 O212 2.032 . S
Zn211 O215 2.086 . S
Zn211 O220 1.977 . S
O212 Zn211 2.032 . S
O212 C216 1.278 . S
C213 O214 1.203 . S
C213 O220 1.267 . S
O214 C213 1.203 . S
O215 C208 1.185 . S
O215 Zn211 2.086 . S
C216 O212 1.278 . S
C216 O217 1.211 . S
O217 C216 1.211 . S
C218 O210 1.284 . S
C218 O219 1.273 . S
O219 C218 1.273 . S
O220 Zn211 1.977 . S
O220 C213 1.267 . S
C221 O222 1.160 . S
C221 O228 1.185 . S
O222 C221 1.160 . S
O223 Zn224 1.899 . S
O223 C231 1.284 . S
Zn224 O223 1.899 . S
Zn224 O225 2.032 . S
Zn224 O228 2.086 . S
Zn224 O233 1.977 . S
O225 Zn224 2.032 . S
O225 C229 1.278 . S
C226 O227 1.203 . S
C226 O233 1.267 . S
O227 C226 1.203 . S
O228 C221 1.185 . S
O228 Zn224 2.086 . S
C229 O225 1.278 . S
C229 O230 1.211 . S
O230 C229 1.211 . S
C231 O223 1.284 . S
C231 O232 1.273 . S
O232 C231 1.273 . S
O233 Zn224 1.977 . S
O233 C226 1.267 . S
C234 O235 1.160 . S
C234 O241 1.185 . S
O235 C234 1.160 . S
O236 Zn237 1.899 . S
O236 C244 1.284 . S
Zn237 O236 1.899 . S
Zn237 O238 2.032 . S
Zn237 O241 2.086 . S
Zn237 O246 1.977 . S
O238 Zn237 2.032 . S
O238 C242 1.278 . S
C239 O240 1.203 . S
C239 O246 1.267 . S
O240 C239 1.203 . S
O241 C234 1.185 . S
O241 Zn237 2.086 . S
C242 O238 1.278 . S
C242 O243 1.211 . S
O243 C242 1.211 . S
C244 O236 1.284 . S
C244 O245 1.273 . S
O245 C244 1.273 . S
O246 Zn237 1.977 . S
O246 C239 1.267 . S
C247 O248 1.160 . S
C247 O254 1.185 . S
O248 C247 1.160 . S
O249 Zn250 1.899 . S
O249 C257 1.284 . S
Zn250 O249 1.899 . S
Zn250 O251 2.032 . S
Zn250 O254 2.086 . S
Zn250 O259 1.977 . S
O251 Zn250 2.032 . S
O251 C255 1.278 . S
C252 O253 1.203 . S
C252 O259 1.267 . S
O253 C252 1.203 . S
O254 C247 1.185 . S
O254 Zn250 2.086 . S
C255 O251 1.278 . S
C255 O256 1.211 . S
O256 C255 1.211 . S
C257 O249 1.284 . S
C257 O258 1.273 . S
O258 C257 1.273 . S
O259 Zn250 1.977 . S
O259 C252 1.267 . S
C260 O261 1.160 . S
C260 O267 1.185 . S
O261 C260 1.160 . S
O262 Zn263 1.899 . S
O262 C270 1.284 . S
Zn263 O262 1.899 . S
Zn263 O264 2.032 . S
Zn263 O267 2.086 . S
Zn263 O272 1.977 . S
O264 Zn263 2.032 . S
O264 C268 1.278 . S
C265 O266 1.203 . S
C265 O272 1.267 . S
O266 C265 1.203 . S
O267 C260 1.185 . S
O267 Zn263 2.086 . S
C268 O264 1.278 . S
C268 O269 1.211 . S
O269 C268 1.211 . S
C270 O262 1.284 . S
C270 O271 1.273 . S
O271 C270 1.273 . S
O272 Zn263 1.977 . S
O272 C265 1.267 . S
C273 O274 1.160 . S
C273 O280 1.185 . S
O274 C273 1.160 . S
O275 Zn276 1.899 . S
O275 C283 1.284 . S
Zn276 O275 1.899 . S
Zn276 O277 2.032 . S
Zn276 O280 2.086 . S
Zn276 O285 1.977 . S
O277 Zn276 2.032 . S
O277 C281 1.278 . S
C278 O279 1.203 . S
C278 O285 1.267 . S
O279 C278 1.203 . S
O280 C273 1.185 . S
O280 Zn276 2.086 . S
C281 O277 1.278 . S
C281 O282 1.211 . S
O282 C281 1.211 . S
C283 O275 1.284 . S
C283 O284 1.273 . S
O284 C283 1.273 . S
O285 Zn276 1.977 . S
O285 C278 1.267 . S
C286 O287 1.160 . S
C286 O293 1.185 . S
O287 C286 1.160 . S
O288 Zn289 1.899 . S
O288 C296 1.284 . S
Zn289 O288 1.899 . S
Zn289 O290 2.032 . S
Zn289 O293 2.086 . S
Zn289 O298 1.977 . S
O290 Zn289 2.032 . S
O290 C294 1.278 . S
C291 O292 1.203 . S
C291 O298 1.267 . S
O292 C291 1.203 . S
O293 C286 1.185 . S
O293 Zn289 2.086 . S
C294 O290 1.278 . S
C294 O295 1.211 . S
O295 C294 1.211 . S
C296 O288 1.284 . S
C296 O297 1.273 . S
O297 C296 1.273 . S
O298 Zn289 1.977 . S
O298 C291 1.267 . S
C299 O300 1.160 . S
C299 O306 1.185 . S
O300 C299 1.160 . S
O301 Zn302 1.899 . S
O301 C309 1.284 . S
Zn302 O301 1.899 . S
Zn302 O303 2.032 . S
Zn302 O306 2.086 . S
Zn302 O311 1.977 . S
O303 Zn302 2.032 . S
O303 C307 1.278 . S
C304 O305 1.203 . S
C304 O311 1.267 . S
O305 C304 1.203 . S
O306 C299 1.185 . S
O306 Zn302 2.086 . S
C307 O303 1.278 . S
C307 O308 1.211 . S
O308 C307 1.211 . S
C309 O301 1.284 . S
C309 O310 1.273 . S
O310 C309 1.273 . S
O311 Zn302 1.977 . S
O311 C304 1.267 . S
C312 O313 1.160 . S
C312 O319 1.185 . S
O313 C312 1.160 . S
O314 Zn315 1.899 . S
O314 C322 1.284 . S
Zn315 O314 1.899 . S
Zn315 O316 2.032 . S
Zn315 O319 2.086 . S
Zn315 O324 1.977 . S
O316 Zn315 2.032 . S
O316 C320 1.278 . S
C317 O318 1.203 . S
C317 O324 1.267 . S
O318 C317 1.203 . S
O319 C312 1.185 . S
O319 Zn315 2.086 . S
C320 O316 1.278 . S
C320 O321 1.211 . S
O321 C320 1.211 . S
C322 O314 1.284 . S
C322 O323 1.273 . S
O323 C322 1.273 . S
O324 Zn315 1.977 . S
O324 C317 1.267 . S
C325 O326 1.160 . S
C325 O332 1.185 . S
O326 C325 1.160 . S
O327 Zn328 1.899 . S
O327 C335 1.284 . S
Zn328 O327 1.899 . S
Zn328 O329 2.032 . S
Zn328 O332 2.086 . S
Zn328 O337 1.977 . S
O329 Zn328 2.032 . S
O329 C333 1.278 . S
C330 O331 1.203 . S
C330 O337 1.267 . S
O331 C330 1.203 . S
O332 C325 1.185 . S
O332 Zn328 2.086 . S
C333 O329 1.278 . S
C333 O334 1.211 . S
O334 C333 1.211 . S
C335 O327 1.284 . S
C335 O336 1.273 . S
O336 C335 1.273 . S
O337 Zn328 1.977 . S
O337 C330 1.267 . S
C338 O339 1.160 . S
C338 O345 1.185 . S
O339 C338 1.160 . S
O340 Zn341 1.899 . S
O340 C348 1.284 . S
Zn341 O340 1.899 . S
Zn341 O342 2.032 . S
Zn341 O345 2.086 . S
Zn341 O350 1.977 . S
O342 Zn341 2.032 . S
O342 C346 1.278 . S
C343 O344 1.203 . S
C343 O350 1.267 . S
O344 C343 1.203 . S
O345 C338 1.185 . S
O345 Zn341 2.086 . S
C346 O342 1.278 . S
C346 O347 1.211 . S
O347 C346 1.211 . S
C348 O340 1.284 . S
C348 O349 1.273 . S
O349 C348 1.273 . S
O350 Zn341 1.977 . S
O350 C343 1.267 . S
C351 O352 1.160 . S
C351 O358 1.185 . S
O352 C351 1.160 . S
O353 Zn354 1.899 . S
O353 C361 1.284 . S
Zn354 O353 1.899 . S
Zn354 O355 2.032 . S
Zn354 O358 2.086 . S
Zn354 O363 1.977 . S
O355 Zn354 2.032 . S
O355 C359 1.278 . S
C356 O357 1.203 . S
C356 O363 1.267 . S
O357 C356 1.203 . S
O358 C351 1.185 . S
O358 Zn354 2.086 . S
C359 O355 1.278 . S
C359 O360 1.211 . S
O360 C359 1.211 . S
C361 O353 1.284 . S
C361 O362 1.273 . S
O362 C361 1.273 . S
O363 Zn354 1.977 . S
O363 C356 1.267 . S
C364 O365 1.160 . S
C364 O371 1.185 . S
O365 C364 1.160 . S
O366 Zn367 1.899 . S
O366 C374 1.284 . S
Zn367 O366 1.899 . S
Zn367 O368 2.032 . S
Zn367 O371 2.086 . S
Zn367 O376 1.977 . S
O368 Zn367 2.032 . S
O368 C372 1.278 . S
C369 O370 1.203 . S
C369 O376 1.267 . S
O370 C369 1.203 . S
O371 C364 1.185 . S
O371 Zn367 2.086 . S
C372 O368 1.278 . S
C372 O373 1.211 . S
O373 C372 1.211 . S
C374 O366 1.284 . S
C374 O375 1.273 . S
O375 C374 1.273 . S
O376 Zn367 1.977 . S
O376 C369 1.267 . S
C377 O378 1.160 . S
C377 O384 1.185 . S
O378 C377 1.160 . S
O379 Zn380 1.899 . S
O379 C387 1.284 . S
Zn380 O379 1.899 . S
Zn380 O381 2.032 . S
Zn380 O384 2.086 . S
Zn380 O389 1.977 . S
O381 Zn380 2.032 . S
O381 C385 1.278 . S
C382 O383 1.203 . S
C382 O389 1.267 . S
O383 C382 1.203 . S
O384 C377 1.185 . S
O384 Zn380 2.086 . S
C385 O381 1.278 . S
C385 O386 1.211 . S
O386 C385 1.211 . S
C387 O379 1.284 . S
C387 O388 1.273 . S
O388 C387 1.273 . S
O389 Zn380 1.977 . S
O389 C382 1.267 . S
C390 O391 1.160 . S
C390 O397 1.185 . S
O391 C390 1.160 . S
O392 Zn393 1.899 . S
O392 C400 1.284 . S
Zn393 O392 1.899 . S
Zn393 O394 2.032 . S
Zn393 O397 2.086 . S
Zn393 O402 1.977 . S
O394 Zn393 2.032 . S
O394 C398 1.278 . S
C395 O396 1.203 . S
C395 O402 1.267 . S
O396 C395 1.203 . S
O397 C390 1.185 . S
O397 Zn393 2.086 . S
C398 O394 1.278 . S
C398 O399 1.211 . S
O399 C398 1.211 . S
C400 O392 1.284 . S
C400 O401 1.273 . S
O401 C400 1.273 . S
O402 Zn393 1.977 . S
O402 C395 1.267 . S
C403 O404 1.160 . S
C403 O410 1.185 . S
O404 C403 1.160 . S
O405 Zn406 1.899 . S
O405 C413 1.284 . S
Zn406 O405 1.899 . S
Zn406 O407 2.032 . S
Zn406 O410 2.086 . S
Zn406 O415 1.977 . S
O407 Zn406 2.032 . S
O407 C411 1.278 . S
C408 O409 1.203 . S
C408 O415 1.267 . S
O409 C408 1.203 . S
O410 C403 1.185 . S
O410 Zn406 2.086 . S
C411 O407 1.278 . S
C411 O412 1.211 . S
O412 C411 1.211 . S
C413 O405 1.284 . S
C413 O414 1.273 . S
O414 C413 1.273 . S
O415 Zn406 1.977 . S
O415 C408 1.267 . S
C416 C417 1.391 . S
C416 C418 1.370 1_655 S
C416 H432 0.931 . S
C417 C416 1.391 . S
C417 C421 1.376 . S
C418 C416 1.370 1_455 S
C418 C419 1.385 1_455 S
C418 C422 1.569 . S
C419 C418 1.385 1_655 S
C419 C420 1.409 . S
C419 C427 1.482 1_656 S
C420 C419 1.409 . S
C420 C421 1.398 . S
C420 C423 1.505 1_556 S
C421 C417 1.376 . S
C421 C420 1.398 . S
C421 H433 0.929 . S
C422 C418 1.569 . S
C422 H434 0.919 1_556 S
C422 H435 0.962 . S
C422 H436 0.960 . S
C423 C420 1.505 1_554 S
C423 H437 0.961 . S
C423 H438 0.961 . S
C423 H439 0.961 . S
C424 C425 1.370 . S
C424 C426 1.363 1_554 S
C424 H440 0.931 1_554 S
C425 C424 1.370 . S
C425 C429 1.408 . S
C426 C424 1.363 1_556 S
C426 C427 1.370 1_556 S
C426 C430 1.524 . S
C427 C419 1.482 1_454 S
C427 C426 1.370 1_554 S
C427 C428 1.403 . S
C428 C427 1.403 . S
C428 C429 1.404 . S
C428 C431 1.539 . S
C429 C425 1.408 . S
C429 C428 1.404 . S
C429 H441 0.930 . S
C430 C426 1.524 . S
C430 H442 0.956 . S
C430 H443 0.961 1_455 S
C430 H444 0.961 . S
C431 C428 1.539 . S
C431 H445 0.958 . S
C431 H446 0.961 . S
C431 H447 0.960 1_455 S
H432 C416 0.931 . S
H433 C421 0.929 . S
H434 C422 0.919 1_554 S
H435 C422 0.962 . S
H436 C422 0.960 . S
H437 C423 0.961 . S
H438 C423 0.961 . S
H439 C423 0.961 . S
H440 C424 0.931 1_556 S
H441 C429 0.930 . S
H442 C430 0.956 . S
H443 C430 0.961 1_655 S
H444 C430 0.961 . S
H445 C431 0.958 . S
H446 C431 0.961 . S
H447 C431 0.960 1_655 S
C448 C449 1.391 . S
C448 C450 1.394 . S
C448 H464 0.931 . S
C449 C448 1.391 . S
C449 C453 1.376 . S
C450 C448 1.394 . S
C450 C451 1.369 . S
C450 C454 1.531 . S
C451 C450 1.369 . S
C451 C452 1.410 . S
C451 C459 1.503 . S
C452 C451 1.410 . S
C452 C453 1.392 . S
C452 C455 1.511 . S
C453 C449 1.376 . S
C453 C452 1.392 . S
C453 H465 0.929 . S
C454 C450 1.531 . S
C454 H466 0.960 . S
C454 H467 0.962 . S
C454 H468 0.960 . S
C455 C452 1.511 . S
C455 H469 0.961 . S
C455 H470 0.961 . S
C455 H471 0.961 . S
C456 C457 1.370 . S
C456 C458 1.363 . S
C456 H472 0.931 . S
C457 C456 1.370 . S
C457 C461 1.408 . S
C458 C456 1.363 . S
C458 C459 1.370 . S
C458 C462 1.524 . S
C459 C451 1.503 . S
C459 C458 1.370 . S
C459 C460 1.403 . S
C460 C459 1.403 . S
C460 C461 1.404 . S
C460 C463 1.539 . S
C461 C457 1.408 . S
C461 C460 1.404 . S
C461 H473 0.930 . S
C462 C458 1.524 . S
C462 H474 0.956 . S
C462 H475 0.961 . S
C462 H476 0.961 . S
C463 C460 1.539 . S
C463 H477 0.958 . S
C463 H478 0.961 . S
C463 H479 0.960 . S
H464 C448 0.931 . S
H465 C453 0.929 . S
H466 C454 0.960 . S
H467 C454 0.962 . S
H468 C454 0.960 . S
H469 C455 0.961 . S
H470 C455 0.961 . S
H471 C455 0.961 . S
H472 C456 0.931 . S
H473 C461 0.930 . S
H474 C462 0.956 . S
H475 C462 0.961 . S
H476 C462 0.961 . S
H477 C463 0.958 . S
H478 C463 0.961 . S
H479 C463 0.960 . S
C480 C481 1.391 . S
C480 C482 1.394 . S
C480 H496 0.931 . S
C481 C480 1.391 . S
C481 C485 1.376 . S
C482 C480 1.394 . S
C482 C483 1.369 . S
C482 C486 1.531 . S
C483 C482 1.369 . S
C483 C484 1.410 . S
C483 C491 1.503 . S
C484 C483 1.410 . S
C484 C485 1.392 . S
C484 C487 1.511 . S
C485 C481 1.376 . S
C485 C484 1.392 . S
C485 H497 0.929 . S
C486 C482 1.531 . S
C486 H498 0.960 . S
C486 H499 0.962 . S
C486 H500 0.960 . S
C487 C484 1.511 . S
C487 H501 0.961 . S
C487 H502 0.961 . S
C487 H503 0.961 . S
C488 C489 1.370 . S
C488 C490 1.363 . S
C488 H504 0.931 . S
C489 C488 1.370 . S
C489 C493 1.408 . S
C490 C488 1.363 . S
C490 C491 1.370 . S
C490 C494 1.524 . S
C491 C483 1.503 . S
C491 C490 1.370 . S
C491 C492 1.403 . S
C492 C491 1.403 . S
C492 C493 1.404 . S
C492 C495 1.539 . S
C493 C489 1.408 . S
C493 C492 1.404 . S
C493 H505 0.930 . S
C494 C490 1.524 . S
C494 H506 0.956 . S
C494 H507 0.961 . S
C494 H508 0.961 . S
C495 C492 1.539 . S
C495 H509 0.958 . S
C495 H510 0.961 . S
C495 H511 0.960 . S
H496 C480 0.931 . S
H497 C485 0.929 . S
H498 C486 0.960 . S
H499 C486 0.962 . S
H500 C486 0.960 . S
H501 C487 0.961 . S
H502 C487 0.961 . S
H503 C487 0.961 . S
H504 C488 0.931 . S
H505 C493 0.930 . S
H506 C494 0.956 . S
H507 C494 0.961 . S
H508 C494 0.961 . S
H509 C495 0.958 . S
H510 C495 0.961 . S
H511 C495 0.960 . S
C512 C513 1.391 . S
C512 C514 1.394 . S
C512 H528 0.931 . S
C513 C512 1.391 . S
C513 C517 1.376 . S
C514 C512 1.394 . S
C514 C515 1.369 . S
C514 C518 1.531 . S
C515 C514 1.369 . S
C515 C516 1.410 . S
C515 C523 1.503 . S
C516 C515 1.410 . S
C516 C517 1.392 . S
C516 C519 1.511 . S
C517 C513 1.376 . S
C517 C516 1.392 . S
C517 H529 0.929 . S
C518 C514 1.531 . S
C518 H530 0.960 . S
C518 H531 0.962 . S
C518 H532 0.960 . S
C519 C516 1.511 . S
C519 H533 0.961 . S
C519 H534 0.961 . S
C519 H535 0.961 . S
C520 C521 1.370 . S
C520 C522 1.363 . S
C520 H536 0.931 . S
C521 C520 1.370 . S
C521 C525 1.408 . S
C522 C520 1.363 . S
C522 C523 1.370 . S
C522 C526 1.524 . S
C523 C515 1.503 . S
C523 C522 1.370 . S
C523 C524 1.403 . S
C524 C523 1.403 . S
C524 C525 1.404 . S
C524 C527 1.539 . S
C525 C521 1.408 . S
C525 C524 1.404 . S
C525 H537 0.930 . S
C526 C522 1.524 . S
C526 H538 0.956 . S
C526 H539 0.961 . S
C526 H540 0.961 . S
C527 C524 1.539 . S
C527 H541 0.958 . S
C527 H542 0.961 . S
C527 H543 0.960 . S
H528 C512 0.931 . S
H529 C517 0.929 . S
H530 C518 0.960 . S
H531 C518 0.962 . S
H532 C518 0.960 . S
H533 C519 0.961 . S
H534 C519 0.961 . S
H535 C519 0.961 . S
H536 C520 0.931 . S
H537 C525 0.930 . S
H538 C526 0.956 . S
H539 C526 0.961 . S
H540 C526 0.961 . S
H541 C527 0.958 . S
H542 C527 0.961 . S
H543 C527 0.960 . S
C544 C545 1.391 . S
C544 C546 1.394 . S
C544 H560 0.931 . S
C545 C544 1.391 . S
C545 C549 1.376 . S
C546 C544 1.394 . S
C546 C547 1.369 . S
C546 C550 1.531 . S
C547 C546 1.369 . S
C547 C548 1.410 . S
C547 C555 1.503 1_655 S
C548 C547 1.410 . S
C548 C549 1.392 . S
C548 C551 1.511 1_655 S
C549 C545 1.376 . S
C549 C548 1.392 . S
C549 H561 0.929 . S
C550 C546 1.531 . S
C550 H562 0.960 . S
C550 H563 0.962 . S
C550 H564 0.960 . S
C551 C548 1.511 1_455 S
C551 H565 0.961 . S
C551 H566 0.961 . S
C551 H567 0.961 1_455 S
C552 C553 1.370 . S
C552 C554 1.363 . S
C552 H568 0.931 . S
C553 C552 1.370 . S
C553 C557 1.408 . S
C554 C552 1.363 . S
C554 C555 1.370 . S
C554 C558 1.524 . S
C555 C547 1.503 1_455 S
C555 C554 1.370 . S
C555 C556 1.403 1_455 S
C556 C555 1.403 1_655 S
C556 C557 1.404 1_655 S
C556 C559 1.539 . S
C557 C553 1.408 . S
C557 C556 1.404 1_455 S
C557 H569 0.930 . S
C558 C554 1.524 . S
C558 H570 0.956 . S
C558 H571 0.961 . S
C558 H572 0.961 . S
C559 C556 1.539 . S
C559 H573 0.958 . S
C559 H574 0.961 . S
C559 H575 0.960 . S
H560 C544 0.931 . S
H561 C549 0.929 . S
H562 C550 0.960 . S
H563 C550 0.962 . S
H564 C550 0.960 . S
H565 C551 0.961 . S
H566 C551 0.961 . S
H567 C551 0.961 1_655 S
H568 C552 0.931 . S
H569 C557 0.930 . S
H570 C558 0.956 . S
H571 C558 0.961 . S
H572 C558 0.961 . S
H573 C559 0.958 . S
H574 C559 0.961 . S
H575 C559 0.960 . S
C576 C577 1.391 . S
C576 C578 1.394 . S
C576 H592 0.931 . S
C577 C576 1.391 . S
C577 C581 1.376 . S
C578 C576 1.394 . S
C578 C579 1.369 . S
C578 C582 1.531 . S
C579 C578 1.369 . S
C579 C580 1.410 . S
C579 C587 1.503 . S
C580 C579 1.410 . S
C580 C581 1.392 . S
C580 C583 1.511 . S
C581 C577 1.376 . S
C581 C580 1.392 . S
C581 H593 0.929 . S
C582 C578 1.531 . S
C582 H594 0.960 . S
C582 H595 0.962 . S
C582 H596 0.960 . S
C583 C580 1.511 . S
C583 H597 0.961 . S
C583 H598 0.961 . S
C583 H599 0.961 . S
C584 C585 1.370 . S
C584 C586 1.363 . S
C584 H600 0.931 . S
C585 C584 1.370 . S
C585 C589 1.408 . S
C586 C584 1.363 . S
C586 C587 1.370 . S
C586 C590 1.524 . S
C587 C579 1.503 . S
C587 C586 1.370 . S
C587 C588 1.403 . S
C588 C587 1.403 . S
C588 C589 1.404 . S
C588 C591 1.539 . S
C589 C585 1.408 . S
C589 C588 1.404 . S
C589 H601 0.930 . S
C590 C586 1.524 . S
C590 H602 0.956 . S
C590 H603 0.961 . S
C590 H604 0.961 . S
C591 C588 1.539 . S
C591 H605 0.958 . S
C591 H606 0.961 . S
C591 H607 0.960 . S
H592 C576 0.931 . S
H593 C581 0.929 . S
H594 C582 0.960 . S
H595 C582 0.962 . S
H596 C582 0.960 . S
H597 C583 0.961 . S
H598 C583 0.961 . S
H599 C583 0.961 . S
H600 C584 0.931 . S
H601 C589 0.930 . S
H602 C590 0.956 . S
H603 C590 0.961 . S
H604 C590 0.961 . S
H605 C591 0.958 . S
H606 C591 0.961 . S
H607 C591 0.960 . S
C608 C609 1.391 . S
C608 C610 1.394 1_556 S
C608 H624 0.920 1_556 S
C609 C608 1.391 . S
C609 C613 1.376 . S
C610 C608 1.394 1_554 S
C610 C611 1.369 1_554 S
C610 C614 1.531 . S
C611 C610 1.369 1_556 S
C611 C612 1.410 . S
C611 C619 1.503 1_556 S
C612 C611 1.410 . S
C612 C613 1.392 . S
C612 C615 1.511 . S
C613 C609 1.376 . S
C613 C612 1.392 . S
C613 H625 0.929 . S
C614 C610 1.531 . S
C614 H626 0.960 . S
C614 H627 0.962 . S
C614 H628 0.960 . S
C615 C612 1.511 . S
C615 H629 0.961 . S
C615 H630 0.961 . S
C615 H631 0.961 . S
C616 C617 1.370 . S
C616 C618 1.363 . S
C616 H632 0.931 . S
C617 C616 1.370 . S
C617 C621 1.408 . S
C618 C616 1.363 . S
C618 C619 1.370 . S
C618 C622 1.524 . S
C619 C611 1.503 1_554 S
C619 C618 1.370 . S
C619 C620 1.406 . S
C620 C619 1.406 . S
C620 C621 1.415 . S
C620 C623 1.524 1_554 S
C621 C617 1.408 . S
C621 C620 1.415 . S
C621 H633 0.930 . S
C622 C618 1.524 . S
C622 H634 0.956 . S
C622 H635 0.961 . S
C622 H636 0.961 . S
C623 C620 1.524 1_556 S
C623 H637 0.958 . S
C623 H638 0.961 . S
C623 H639 0.960 . S
H624 C608 0.920 1_554 S
H625 C613 0.929 . S
H626 C614 0.960 . S
H627 C614 0.962 . S
H628 C614 0.960 . S
H629 C615 0.961 . S
H630 C615 0.961 . S
H631 C615 0.961 . S
H632 C616 0.931 . S
H633 C621 0.930 . S
H634 C622 0.956 . S
H635 C622 0.961 . S
H636 C622 0.961 . S
H637 C623 0.958 . S
H638 C623 0.961 . S
H639 C623 0.960 . S
C640 C641 1.391 . S
C640 C642 1.394 . S
C640 H656 0.931 . S
C641 C640 1.391 . S
C641 C645 1.376 . S
C642 C640 1.394 . S
C642 C643 1.369 . S
C642 C646 1.531 . S
C643 C642 1.369 . S
C643 C644 1.410 . S
C643 C651 1.503 . S
C644 C643 1.410 . S
C644 C645 1.392 . S
C644 C647 1.511 . S
C645 C641 1.376 . S
C645 C644 1.392 . S
C645 H657 0.929 . S
C646 C642 1.531 . S
C646 H658 0.960 . S
C646 H659 0.962 . S
C646 H660 0.960 . S
C647 C644 1.511 . S
C647 H661 0.961 . S
C647 H662 0.961 . S
C647 H663 0.961 . S
C648 C649 1.370 . S
C648 C650 1.363 . S
C648 H664 0.931 . S
C649 C648 1.370 . S
C649 C653 1.408 . S
C650 C648 1.363 . S
C650 C651 1.370 . S
C650 C654 1.524 . S
C651 C643 1.503 . S
C651 C650 1.370 . S
C651 C652 1.403 . S
C652 C651 1.403 . S
C652 C653 1.404 . S
C652 C655 1.539 . S
C653 C649 1.408 . S
C653 C652 1.404 . S
C653 H665 0.930 . S
C654 C650 1.524 . S
C654 H666 0.956 . S
C654 H667 0.961 . S
C654 H668 0.961 . S
C655 C652 1.539 . S
C655 H669 0.958 . S
C655 H670 0.961 . S
C655 H671 0.960 . S
H656 C640 0.931 . S
H657 C645 0.929 . S
H658 C646 0.960 . S
H659 C646 0.962 . S
H660 C646 0.960 . S
H661 C647 0.961 . S
H662 C647 0.961 . S
H663 C647 0.961 . S
H664 C648 0.931 . S
H665 C653 0.930 . S
H666 C654 0.956 . S
H667 C654 0.961 . S
H668 C654 0.961 . S
H669 C655 0.958 . S
H670 C655 0.961 . S
H671 C655 0.960 . S
C672 C673 1.391 . S
C672 C674 1.394 . S
C672 H688 0.931 . S
C673 C672 1.391 . S
C673 C677 1.376 . S
C674 C672 1.394 . S
C674 C675 1.369 . S
C674 C678 1.531 . S
C675 C674 1.369 . S
C675 C676 1.410 . S
C675 C683 1.503 . S
C676 C675 1.410 . S
C676 C677 1.392 . S
C676 C679 1.511 . S
C677 C673 1.376 . S
C677 C676 1.392 . S
C677 H689 0.929 . S
C678 C674 1.531 . S
C678 H690 0.960 . S
C678 H691 0.962 . S
C678 H692 0.960 . S
C679 C676 1.511 . S
C679 H693 0.961 . S
C679 H694 0.961 . S
C679 H695 0.961 . S
C680 C681 1.370 . S
C680 C682 1.363 . S
C680 H696 0.931 . S
C681 C680 1.370 . S
C681 C685 1.408 . S
C682 C680 1.363 . S
C682 C683 1.370 . S
C682 C686 1.524 . S
C683 C675 1.503 . S
C683 C682 1.370 . S
C683 C684 1.403 . S
C684 C683 1.403 . S
C684 C685 1.404 . S
C684 C687 1.539 . S
C685 C681 1.408 . S
C685 C684 1.404 . S
C685 H697 0.930 . S
C686 C682 1.524 . S
C686 H698 0.956 . S
C686 H699 0.961 . S
C686 H700 0.961 . S
C687 C684 1.539 . S
C687 H701 0.958 . S
C687 H702 0.961 . S
C687 H703 0.960 . S
H688 C672 0.931 . S
H689 C677 0.929 . S
H690 C678 0.960 . S
H691 C678 0.962 . S
H692 C678 0.960 . S
H693 C679 0.961 . S
H694 C679 0.961 . S
H695 C679 0.961 . S
H696 C680 0.931 . S
H697 C685 0.930 . S
H698 C686 0.956 . S
H699 C686 0.961 . S
H700 C686 0.961 . S
H701 C687 0.958 . S
H702 C687 0.961 . S
H703 C687 0.960 . S
C704 C705 1.391 . S
C704 C706 1.394 . S
C704 H720 0.931 . S
C705 C704 1.391 . S
C705 C709 1.376 . S
C706 C704 1.394 . S
C706 C707 1.369 . S
C706 C710 1.531 . S
C707 C706 1.369 . S
C707 C708 1.410 . S
C707 C715 1.503 . S
C708 C707 1.410 . S
C708 C709 1.392 . S
C708 C711 1.511 . S
C709 C705 1.376 . S
C709 C708 1.392 . S
C709 H721 0.929 . S
C710 C706 1.531 . S
C710 H722 0.960 . S
C710 H723 0.962 . S
C710 H724 0.960 . S
C711 C708 1.511 . S
C711 H725 0.961 . S
C711 H726 0.961 . S
C711 H727 0.961 . S
C712 C713 1.370 . S
C712 C714 1.363 . S
C712 H728 0.931 . S
C713 C712 1.370 . S
C713 C717 1.408 . S
C714 C712 1.363 . S
C714 C715 1.370 . S
C714 C718 1.524 . S
C715 C707 1.503 . S
C715 C714 1.370 . S
C715 C716 1.403 . S
C716 C715 1.403 . S
C716 C717 1.404 . S
C716 C719 1.539 . S
C717 C713 1.408 . S
C717 C716 1.404 . S
C717 H729 0.930 . S
C718 C714 1.524 . S
C718 H730 0.956 . S
C718 H731 0.961 . S
C718 H732 0.961 . S
C719 C716 1.539 . S
C719 H733 0.958 . S
C719 H734 0.961 . S
C719 H735 0.960 . S
H720 C704 0.931 . S
H721 C709 0.929 . S
H722 C710 0.960 . S
H723 C710 0.962 . S
H724 C710 0.960 . S
H725 C711 0.961 . S
H726 C711 0.961 . S
H727 C711 0.961 . S
H728 C712 0.931 . S
H729 C717 0.930 . S
H730 C718 0.956 . S
H731 C718 0.961 . S
H732 C718 0.961 . S
H733 C719 0.958 . S
H734 C719 0.961 . S
H735 C719 0.960 . S
C736 C737 1.391 . S
C736 C738 1.394 . S
C736 H752 0.931 . S
C737 C736 1.391 . S
C737 C741 1.376 . S
C738 C736 1.394 . S
C738 C739 1.369 . S
C738 C742 1.531 . S
C739 C738 1.369 . S
C739 C740 1.410 . S
C739 C747 1.503 . S
C740 C739 1.410 . S
C740 C741 1.392 . S
C740 C743 1.511 . S
C741 C737 1.376 . S
C741 C740 1.392 . S
C741 H753 0.929 . S
C742 C738 1.531 . S
C742 H754 0.960 . S
C742 H755 0.962 . S
C742 H756 0.960 . S
C743 C740 1.511 . S
C743 H757 0.961 . S
C743 H758 0.961 . S
C743 H759 0.961 . S
C744 C745 1.370 . S
C744 C746 1.363 . S
C744 H760 0.931 . S
C745 C744 1.370 . S
C745 C749 1.408 . S
C746 C744 1.363 . S
C746 C747 1.370 . S
C746 C750 1.524 . S
C747 C739 1.503 . S
C747 C746 1.370 . S
C747 C748 1.403 . S
C748 C747 1.403 . S
C748 C749 1.404 . S
C748 C751 1.539 . S
C749 C745 1.408 . S
C749 C748 1.404 . S
C749 H761 0.930 . S
C750 C746 1.524 . S
C750 H762 0.956 . S
C750 H763 0.961 . S
C750 H764 0.961 . S
C751 C748 1.539 . S
C751 H765 0.958 . S
C751 H766 0.961 . S
C751 H767 0.960 . S
H752 C736 0.931 . S
H753 C741 0.929 . S
H754 C742 0.960 . S
H755 C742 0.962 . S
H756 C742 0.960 . S
H757 C743 0.961 . S
H758 C743 0.961 . S
H759 C743 0.961 . S
H760 C744 0.931 . S
H761 C749 0.930 . S
H762 C750 0.956 . S
H763 C750 0.961 . S
H764 C750 0.961 . S
H765 C751 0.958 . S
H766 C751 0.961 . S
H767 C751 0.960 . S
C768 C769 1.391 . S
C768 C770 1.394 . S
C768 H784 0.931 . S
C769 C768 1.391 . S
C769 C773 1.376 . S
C770 C768 1.394 . S
C770 C771 1.369 . S
C770 C774 1.531 . S
C771 C770 1.369 . S
C771 C772 1.410 . S
C771 C779 1.503 . S
C772 C771 1.410 . S
C772 C773 1.392 . S
C772 C775 1.511 . S
C773 C769 1.376 . S
C773 C772 1.392 . S
C773 H785 0.929 . S
C774 C770 1.531 . S
C774 H786 0.960 . S
C774 H787 0.962 . S
C774 H788 0.960 . S
C775 C772 1.511 . S
C775 H789 0.961 . S
C775 H790 0.961 . S
C775 H791 0.961 . S
C776 C777 1.370 . S
C776 C778 1.363 . S
C776 H792 0.931 . S
C777 C776 1.370 . S
C777 C781 1.408 . S
C778 C776 1.363 . S
C778 C779 1.370 . S
C778 C782 1.524 . S
C779 C771 1.503 . S
C779 C778 1.370 . S
C779 C780 1.403 . S
C780 C779 1.403 . S
C780 C781 1.404 . S
C780 C783 1.539 . S
C781 C777 1.408 . S
C781 C780 1.404 . S
C781 H793 0.930 . S
C782 C778 1.524 . S
C782 H794 0.956 . S
C782 H795 0.961 . S
C782 H796 0.961 . S
C783 C780 1.539 . S
C783 H797 0.958 . S
C783 H798 0.961 . S
C783 H799 0.960 . S
H784 C768 0.931 . S
H785 C773 0.929 . S
H786 C774 0.960 . S
H787 C774 0.962 . S
H788 C774 0.960 . S
H789 C775 0.961 . S
H790 C775 0.961 . S
H791 C775 0.961 . S
H792 C776 0.931 . S
H793 C781 0.930 . S
H794 C782 0.956 . S
H795 C782 0.961 . S
H796 C782 0.961 . S
H797 C783 0.958 . S
H798 C783 0.961 . S
H799 C783 0.960 . S
C800 C801 1.391 . S
C800 C802 1.394 . S
C800 H816 0.931 . S
C801 C800 1.391 . S
C801 C805 1.376 . S
C802 C800 1.394 . S
C802 C803 1.369 . S
C802 C806 1.531 . S
C803 C802 1.369 . S
C803 C804 1.410 . S
C803 C811 1.503 1_565 S
C804 C803 1.410 . S
C804 C805 1.392 . S
C804 C807 1.511 1_565 S
C805 C801 1.376 . S
C805 C804 1.392 . S
C805 H817 0.929 . S
C806 C802 1.531 . S
C806 H818 0.960 . S
C806 H819 0.962 . S
C806 H820 0.960 . S
C807 C804 1.511 1_545 S
C807 H821 0.961 . S
C807 H822 0.961 . S
C807 H823 0.961 . S
C808 C809 1.370 . S
C808 C810 1.363 . S
C808 H824 0.931 . S
C809 C808 1.370 . S
C809 C813 1.408 . S
C810 C808 1.363 . S
C810 C811 1.370 . S
C810 C814 1.524 1_545 S
C811 C803 1.503 1_545 S
C811 C810 1.370 . S
C811 C812 1.403 . S
C812 C811 1.403 . S
C812 C813 1.404 . S
C812 C815 1.539 . S
C813 C809 1.408 . S
C813 C812 1.404 . S
C813 H825 0.930 . S
C814 C810 1.524 1_565 S
C814 H826 0.956 . S
C814 H827 0.961 . S
C814 H828 0.961 . S
C815 C812 1.539 . S
C815 H829 0.958 . S
C815 H830 0.961 . S
C815 H831 0.960 . S
H816 C800 0.931 . S
H817 C805 0.929 . S
H818 C806 0.960 . S
H819 C806 0.962 . S
H820 C806 0.960 . S
H821 C807 0.961 . S
H822 C807 0.961 . S
H823 C807 0.961 . S
H824 C808 0.931 . S
H825 C813 0.930 . S
H826 C814 0.956 . S
H827 C814 0.961 . S
H828 C814 0.961 . S
H829 C815 0.958 . S
H830 C815 0.961 . S
H831 C815 0.960 . S
C832 C833 1.391 . S
C832 C834 1.394 1_556 S
C832 H848 0.931 1_556 S
C833 C832 1.391 . S
C833 C837 1.376 . S
C834 C832 1.394 1_554 S
C834 C835 1.369 1_554 S
C834 C838 1.531 . S
C835 C834 1.369 1_556 S
C835 C836 1.410 . S
C835 C843 1.503 1_466 S
C836 C835 1.410 . S
C836 C837 1.392 . S
C836 C839 1.511 1_565 S
C837 C833 1.376 . S
C837 C836 1.392 . S
C837 H849 0.929 . S
C838 C834 1.531 . S
C838 H850 0.960 . S
C838 H851 0.962 1_455 S
C838 H852 0.960 . S
C839 C836 1.511 1_545 S
C839 H853 0.961 . S
C839 H854 0.961 . S
C839 H855 0.961 . S
C840 C841 1.370 . S
C840 C842 1.363 . S
C840 H856 0.931 . S
C841 C840 1.370 . S
C841 C845 1.408 . S
C842 C840 1.363 . S
C842 C843 1.370 . S
C842 C846 1.524 1_544 S
C843 C835 1.503 1_644 S
C843 C842 1.370 . S
C843 C844 1.403 1_655 S
C844 C843 1.403 1_455 S
C844 C845 1.404 1_455 S
C844 C847 1.539 . S
C845 C841 1.408 . S
C845 C844 1.404 1_655 S
C845 H857 0.930 . S
C846 C842 1.524 1_566 S
C846 H858 0.956 . S
C846 H859 0.961 . S
C846 H860 0.961 . S
C847 C844 1.539 . S
C847 H861 0.958 . S
C847 H862 0.961 . S
C847 H863 0.960 . S
H848 C832 0.931 1_554 S
H849 C837 0.929 . S
H850 C838 0.960 . S
H851 C838 0.962 1_655 S
H852 C838 0.960 . S
H853 C839 0.961 . S
H854 C839 0.961 . S
H855 C839 0.961 . S
H856 C840 0.931 . S
H857 C845 0.930 . S
H858 C846 0.956 . S
H859 C846 0.961 . S
H860 C846 0.961 . S
H861 C847 0.958 . S
H862 C847 0.961 . S
H863 C847 0.960 . S
C864 C865 1.391 . S
C864 C866 1.408 . S
C864 H880 0.931 . S
C865 C864 1.391 . S
C865 C869 1.376 . S
C866 C864 1.408 . S
C866 C867 1.375 . S
C866 C870 1.510 1_545 S
C867 C866 1.375 . S
C867 C868 1.410 1_556 S
C867 C875 1.503 1_546 S
C868 C867 1.410 1_554 S
C868 C869 1.392 1_554 S
C868 C871 1.511 . S
C869 C865 1.376 . S
C869 C868 1.392 1_556 S
C869 H881 0.929 . S
C870 C866 1.510 1_565 S
C870 H882 0.960 . S
C870 H883 0.962 . S
C870 H884 0.960 . S
C871 C868 1.511 . S
C871 H885 0.961 . S
C871 H886 0.961 . S
C871 H887 0.961 . S
C872 C873 1.370 . S
C872 C874 1.363 1_554 S
C872 H888 0.924 1_554 S
C873 C872 1.370 . S
C873 C877 1.408 . S
C874 C872 1.363 1_556 S
C874 C875 1.370 1_556 S
C874 C878 1.515 1_565 S
C875 C867 1.503 1_564 S
C875 C874 1.370 1_554 S
C875 C876 1.403 . S
C876 C875 1.403 . S
C876 C877 1.404 . S
C876 C879 1.539 . S
C877 C873 1.408 . S
C877 C876 1.404 . S
C877 H889 0.930 . S
C878 C874 1.515 1_545 S
C878 H890 0.951 1_545 S
C878 H891 0.978 . S
C878 H892 0.957 1_545 S
C879 C876 1.539 . S
C879 H893 0.958 . S
C879 H894 0.961 . S
C879 H895 0.960 . S
H880 C864 0.931 . S
H881 C869 0.929 . S
H882 C870 0.960 . S
H883 C870 0.962 . S
H884 C870 0.960 . S
H885 C871 0.961 . S
H886 C871 0.961 . S
H887 C871 0.961 . S
H888 C872 0.924 1_556 S
H889 C877 0.930 . S
H890 C878 0.951 1_565 S
H891 C878 0.978 . S
H892 C878 0.957 1_565 S
H893 C879 0.958 . S
H894 C879 0.961 . S
H895 C879 0.960 . S
C896 C897 1.391 . S
C896 C898 1.394 . S
C896 H912 0.931 . S
C897 C896 1.391 . S
C897 C901 1.376 . S
C898 C896 1.394 . S
C898 C899 1.369 . S
C898 C902 1.531 1_445 S
C899 C898 1.369 . S
C899 C900 1.410 . S
C899 C907 1.503 1_445 S
C900 C899 1.410 . S
C900 C901 1.392 . S
C900 C903 1.511 . S
C901 C897 1.376 . S
C901 C900 1.392 . S
C901 H913 0.929 . S
C902 C898 1.531 1_665 S
C902 H914 0.960 . S
C902 H915 0.962 1_655 S
C902 H916 0.960 . S
C903 C900 1.511 . S
C903 H917 0.961 . S
C903 H918 0.961 . S
C903 H919 0.961 1_455 S
C904 C905 1.370 . S
C904 C906 1.363 . S
C904 H920 0.931 . S
C905 C904 1.370 . S
C905 C909 1.408 . S
C906 C904 1.363 . S
C906 C907 1.370 . S
C906 C910 1.524 1_655 S
C907 C899 1.503 1_665 S
C907 C906 1.370 . S
C907 C908 1.403 . S
C908 C907 1.403 . S
C908 C909 1.404 . S
C908 C911 1.539 1_565 S
C909 C905 1.408 . S
C909 C908 1.404 . S
C909 H921 0.930 . S
C910 C906 1.524 1_455 S
C910 H922 0.956 . S
C910 H923 0.961 . S
C910 H924 0.961 . S
C911 C908 1.539 1_545 S
C911 H925 0.958 . S
C911 H926 0.961 . S
C911 H927 0.960 . S
H912 C896 0.931 . S
H913 C901 0.929 . S
H914 C902 0.960 . S
H915 C902 0.962 1_455 S
H916 C902 0.960 . S
H917 C903 0.961 . S
H918 C903 0.961 . S
H919 C903 0.961 1_655 S
H920 C904 0.931 . S
H921 C909 0.930 . S
H922 C910 0.956 . S
H923 C910 0.961 . S
H924 C910 0.961 . S
H925 C911 0.958 . S
H926 C911 0.961 . S
H927 C911 0.960 . S
C928 C929 1.391 . S
C928 C930 1.394 . S
C928 H944 0.931 . S
C929 C928 1.391 . S
C929 C933 1.376 . S
C930 C928 1.394 . S
C930 C931 1.369 . S
C930 C934 1.531 . S
C931 C930 1.369 . S
C931 C932 1.410 . S
C931 C939 1.503 1_655 S
C932 C931 1.410 . S
C932 C933 1.392 . S
C932 C935 1.511 1_655 S
C933 C929 1.376 . S
C933 C932 1.392 . S
C933 H945 0.929 . S
C934 C930 1.531 . S
C934 H946 0.960 . S
C934 H947 0.962 . S
C934 H948 0.960 . S
C935 C932 1.511 1_455 S
C935 H949 0.961 . S
C935 H950 0.961 . S
C935 H951 0.961 . S
C936 C937 1.370 . S
C936 C938 1.363 . S
C936 H952 0.931 . S
C937 C936 1.370 . S
C937 C941 1.408 . S
C938 C936 1.363 . S
C938 C939 1.370 . S
C938 C942 1.524 . S
C939 C931 1.503 1_455 S
C939 C938 1.370 . S
C939 C940 1.403 . S
C940 C939 1.403 . S
C940 C941 1.404 . S
C940 C943 1.539 1_455 S
C941 C937 1.408 . S
C941 C940 1.404 . S
C941 H953 0.930 . S
C942 C938 1.524 . S
C942 H954 0.956 . S
C942 H955 0.961 . S
C942 H956 0.961 . S
C943 C940 1.539 1_655 S
C943 H957 0.958 . S
C943 H958 0.961 . S
C943 H959 0.960 . S
H944 C928 0.931 . S
H945 C933 0.929 . S
H946 C934 0.960 . S
H947 C934 0.962 . S
H948 C934 0.960 . S
H949 C935 0.961 . S
H950 C935 0.961 . S
H951 C935 0.961 . S
H952 C936 0.931 . S
H953 C941 0.930 . S
H954 C942 0.956 . S
H955 C942 0.961 . S
H956 C942 0.961 . S
H957 C943 0.958 . S
H958 C943 0.961 . S
H959 C943 0.960 . S
C960 C961 1.391 . S
C960 C962 1.394 . S
C960 H976 0.931 . S
C961 C960 1.391 . S
C961 C965 1.376 . S
C962 C960 1.394 . S
C962 C963 1.369 . S
C962 C966 1.531 1_455 S
C963 C962 1.369 . S
C963 C964 1.410 . S
C963 C971 1.503 1_455 S
C964 C963 1.410 . S
C964 C965 1.392 . S
C964 C967 1.511 . S
C965 C961 1.376 . S
C965 C964 1.392 . S
C965 H977 0.929 . S
C966 C962 1.531 1_655 S
C966 H978 0.960 . S
C966 H979 0.962 . S
C966 H980 0.960 . S
C967 C964 1.511 . S
C967 H981 0.961 . S
C967 H982 0.961 . S
C967 H983 0.961 . S
C968 C969 1.370 . S
C968 C970 1.363 . S
C968 H984 0.931 . S
C969 C968 1.370 . S
C969 C973 1.408 . S
C970 C968 1.363 . S
C970 C971 1.370 . S
C970 C974 1.524 . S
C971 C963 1.503 1_655 S
C971 C970 1.370 . S
C971 C972 1.403 . S
C972 C971 1.403 . S
C972 C973 1.404 . S
C972 C975 1.539 . S
C973 C969 1.408 . S
C973 C972 1.404 . S
C973 H985 0.930 . S
C974 C970 1.524 . S
C974 H986 0.956 . S
C974 H987 0.942 1_655 S
C974 H988 0.961 . S
C975 C972 1.539 . S
C975 H989 0.958 . S
C975 H990 0.961 . S
C975 H991 0.960 1_655 S
H976 C960 0.931 . S
H977 C965 0.929 . S
H978 C966 0.960 . S
H979 C966 0.962 . S
H980 C966 0.960 . S
H981 C967 0.961 . S
H982 C967 0.961 . S
H983 C967 0.961 . S
H984 C968 0.931 . S
H985 C973 0.930 . S
H986 C974 0.956 . S
H987 C974 0.942 1_455 S
H988 C974 0.961 . S
H989 C975 0.958 . S
H990 C975 0.961 . S
H991 C975 0.960 1_455 S
C992 C993 1.391 . S
C992 C994 1.394 . S
C992 H1008 0.931 . S
C993 C992 1.391 . S
C993 C997 1.376 . S
C994 C992 1.394 . S
C994 C995 1.369 . S
C994 C998 1.531 . S
C995 C994 1.369 . S
C995 C996 1.410 . S
C995 C1003 1.503 . S
C996 C995 1.410 . S
C996 C997 1.392 . S
C996 C999 1.511 . S
C997 C993 1.376 . S
C997 C996 1.392 . S
C997 H1009 0.929 . S
C998 C994 1.531 . S
C998 H1010 0.960 . S
C998 H1011 0.962 . S
C998 H1012 0.960 . S
C999 C996 1.511 . S
C999 H1013 0.961 . S
C999 H1014 0.961 . S
C999 H1015 0.961 . S
C1000 C1001 1.370 . S
C1000 C1002 1.363 . S
C1000 H1016 0.931 . S
C1001 C1000 1.370 . S
C1001 C1005 1.408 . S
C1002 C1000 1.363 . S
C1002 C1003 1.370 . S
C1002 C1006 1.524 . S
C1003 C995 1.503 . S
C1003 C1002 1.370 . S
C1003 C1004 1.403 . S
C1004 C1003 1.403 . S
C1004 C1005 1.404 . S
C1004 C1007 1.539 . S
C1005 C1001 1.408 . S
C1005 C1004 1.404 . S
C1005 H1017 0.930 . S
C1006 C1002 1.524 . S
C1006 H1018 0.956 . S
C1006 H1019 0.961 . S
C1006 H1020 0.961 . S
C1007 C1004 1.539 . S
C1007 H1021 0.958 . S
C1007 H1022 0.961 . S
C1007 H1023 0.960 . S
H1008 C992 0.931 . S
H1009 C997 0.929 . S
H1010 C998 0.960 . S
H1011 C998 0.962 . S
H1012 C998 0.960 . S
H1013 C999 0.961 . S
H1014 C999 0.961 . S
H1015 C999 0.961 . S
H1016 C1000 0.931 . S
H1017 C1005 0.930 . S
H1018 C1006 0.956 . S
H1019 C1006 0.961 . S
H1020 C1006 0.961 . S
H1021 C1007 0.958 . S
H1022 C1007 0.961 . S
H1023 C1007 0.960 . S
C1024 C1025 1.391 . S
C1024 C1026 1.394 . S
C1024 H1040 0.931 . S
C1025 C1024 1.391 . S
C1025 C1029 1.376 . S
C1026 C1024 1.394 . S
C1026 C1027 1.369 . S
C1026 C1030 1.531 . S
C1027 C1026 1.369 . S
C1027 C1028 1.410 . S
C1027 C1035 1.503 . S
C1028 C1027 1.410 . S
C1028 C1029 1.392 . S
C1028 C1031 1.511 . S
C1029 C1025 1.376 . S
C1029 C1028 1.392 . S
C1029 H1041 0.929 . S
C1030 C1026 1.531 . S
C1030 H1042 0.960 . S
C1030 H1043 0.962 . S
C1030 H1044 0.960 . S
C1031 C1028 1.511 . S
C1031 H1045 0.961 . S
C1031 H1046 0.961 . S
C1031 H1047 0.961 . S
C1032 C1033 1.370 . S
C1032 C1034 1.363 . S
C1032 H1048 0.931 . S
C1033 C1032 1.370 . S
C1033 C1037 1.408 . S
C1034 C1032 1.363 . S
C1034 C1035 1.370 . S
C1034 C1038 1.524 . S
C1035 C1027 1.503 . S
C1035 C1034 1.370 . S
C1035 C1036 1.403 . S
C1036 C1035 1.403 . S
C1036 C1037 1.404 . S
C1036 C1039 1.539 . S
C1037 C1033 1.408 . S
C1037 C1036 1.404 . S
C1037 H1049 0.930 . S
C1038 C1034 1.524 . S
C1038 H1050 0.956 . S
C1038 H1051 0.961 . S
C1038 H1052 0.961 . S
C1039 C1036 1.539 . S
C1039 H1053 0.958 . S
C1039 H1054 0.961 . S
C1039 H1055 0.960 . S
H1040 C1024 0.931 . S
H1041 C1029 0.929 . S
H1042 C1030 0.960 . S
H1043 C1030 0.962 . S
H1044 C1030 0.960 . S
H1045 C1031 0.961 . S
H1046 C1031 0.961 . S
H1047 C1031 0.961 . S
H1048 C1032 0.931 . S
H1049 C1037 0.930 . S
H1050 C1038 0.956 . S
H1051 C1038 0.961 . S
H1052 C1038 0.961 . S
H1053 C1039 0.958 . S
H1054 C1039 0.961 . S
H1055 C1039 0.960 . S
C1056 C1057 1.391 . S
C1056 C1058 1.394 . S
C1056 H1072 0.931 . S
C1057 C1056 1.391 . S
C1057 C1061 1.376 . S
C1058 C1056 1.394 . S
C1058 C1059 1.369 . S
C1058 C1062 1.531 1_655 S
C1059 C1058 1.369 . S
C1059 C1060 1.410 . S
C1059 C1067 1.503 1_655 S
C1060 C1059 1.410 . S
C1060 C1061 1.392 . S
C1060 C1063 1.511 . S
C1061 C1057 1.376 . S
C1061 C1060 1.392 . S
C1061 H1073 0.929 . S
C1062 C1058 1.531 1_455 S
C1062 H1074 0.960 . S
C1062 H1075 0.962 . S
C1062 H1076 0.960 . S
C1063 C1060 1.511 . S
C1063 H1077 0.961 . S
C1063 H1078 0.961 . S
C1063 H1079 0.961 . S
C1064 C1065 1.370 . S
C1064 C1066 1.363 . S
C1064 H1080 0.931 . S
C1065 C1064 1.370 . S
C1065 C1069 1.408 . S
C1066 C1064 1.363 . S
C1066 C1067 1.370 . S
C1066 C1070 1.524 . S
C1067 C1059 1.503 1_455 S
C1067 C1066 1.370 . S
C1067 C1068 1.403 . S
C1068 C1067 1.403 . S
C1068 C1069 1.404 . S
C1068 C1071 1.539 1_455 S
C1069 C1065 1.408 . S
C1069 C1068 1.404 . S
C1069 H1081 0.930 . S
C1070 C1066 1.524 . S
C1070 H1082 0.956 . S
C1070 H1083 0.961 . S
C1070 H1084 0.961 . S
C1071 C1068 1.539 1_655 S
C1071 H1085 0.958 . S
C1071 H1086 0.961 . S
C1071 H1087 0.960 . S
H1072 C1056 0.931 . S
H1073 C1061 0.929 . S
H1074 C1062 0.960 . S
H1075 C1062 0.962 . S
H1076 C1062 0.960 . S
H1077 C1063 0.961 . S
H1078 C1063 0.961 . S
H1079 C1063 0.961 . S
H1080 C1064 0.931 . S
H1081 C1069 0.930 . S
H1082 C1070 0.956 . S
H1083 C1070 0.961 . S
H1084 C1070 0.961 . S
H1085 C1071 0.958 . S
H1086 C1071 0.961 . S
H1087 C1071 0.960 . S
C1088 C1089 1.391 . S
C1088 C1090 1.394 . S
C1088 H1104 0.931 . S
C1089 C1088 1.391 . S
C1089 C1093 1.376 . S
C1090 C1088 1.394 . S
C1090 C1091 1.369 . S
C1090 C1094 1.531 . S
C1091 C1090 1.369 . S
C1091 C1092 1.410 . S
C1091 C1099 1.503 . S
C1092 C1091 1.410 . S
C1092 C1093 1.392 . S
C1092 C1095 1.511 . S
C1093 C1089 1.376 . S
C1093 C1092 1.392 . S
C1093 H1105 0.929 . S
C1094 C1090 1.531 . S
C1094 H1106 0.960 . S
C1094 H1107 0.962 . S
C1094 H1108 0.960 . S
C1095 C1092 1.511 . S
C1095 H1109 0.961 . S
C1095 H1110 0.961 . S
C1095 H1111 0.961 . S
C1096 C1097 1.370 . S
C1096 C1098 1.363 . S
C1096 H1112 0.931 . S
C1097 C1096 1.370 . S
C1097 C1101 1.408 . S
C1098 C1096 1.363 . S
C1098 C1099 1.370 . S
C1098 C1102 1.524 . S
C1099 C1091 1.503 . S
C1099 C1098 1.370 . S
C1099 C1100 1.403 . S
C1100 C1099 1.403 . S
C1100 C1101 1.404 . S
C1100 C1103 1.539 . S
C1101 C1097 1.408 . S
C1101 C1100 1.404 . S
C1101 H1113 0.930 . S
C1102 C1098 1.524 . S
C1102 H1114 0.956 . S
C1102 H1115 0.961 . S
C1102 H1116 0.961 . S
C1103 C1100 1.539 . S
C1103 H1117 0.958 . S
C1103 H1118 0.961 . S
C1103 H1119 0.960 . S
H1104 C1088 0.931 . S
H1105 C1093 0.929 . S
H1106 C1094 0.960 . S
H1107 C1094 0.962 . S
H1108 C1094 0.960 . S
H1109 C1095 0.961 . S
H1110 C1095 0.961 . S
H1111 C1095 0.961 . S
H1112 C1096 0.931 . S
H1113 C1101 0.930 . S
H1114 C1102 0.956 . S
H1115 C1102 0.961 . S
H1116 C1102 0.961 . S
H1117 C1103 0.958 . S
H1118 C1103 0.961 . S
H1119 C1103 0.960 . S
C1120 C1121 1.391 . S
C1120 C1122 1.394 . S
C1120 H1136 0.931 . S
C1121 C1120 1.391 . S
C1121 C1125 1.376 . S
C1122 C1120 1.394 . S
C1122 C1123 1.369 . S
C1122 C1126 1.531 . S
C1123 C1122 1.369 . S
C1123 C1124 1.410 . S
C1123 C1131 1.503 . S
C1124 C1123 1.410 . S
C1124 C1125 1.392 . S
C1124 C1127 1.511 . S
C1125 C1121 1.376 . S
C1125 C1124 1.392 . S
C1125 H1137 0.929 . S
C1126 C1122 1.531 . S
C1126 H1138 0.960 . S
C1126 H1139 0.962 . S
C1126 H1140 0.960 . S
C1127 C1124 1.511 . S
C1127 H1141 0.961 . S
C1127 H1142 0.961 . S
C1127 H1143 0.961 . S
C1128 C1129 1.370 . S
C1128 C1130 1.363 . S
C1128 H1144 0.931 . S
C1129 C1128 1.370 . S
C1129 C1133 1.408 . S
C1130 C1128 1.363 . S
C1130 C1131 1.370 . S
C1130 C1134 1.524 . S
C1131 C1123 1.503 . S
C1131 C1130 1.370 . S
C1131 C1132 1.403 . S
C1132 C1131 1.403 . S
C1132 C1133 1.404 . S
C1132 C1135 1.535 . S
C1133 C1129 1.408 . S
C1133 C1132 1.404 . S
C1133 H1145 0.930 . S
C1134 C1130 1.524 . S
C1134 H1146 0.956 . S
C1134 H1147 0.961 . S
C1134 H1148 0.961 . S
C1135 C1132 1.535 . S
C1135 H1149 0.955 1_556 S
C1135 H1150 0.965 1_556 S
C1135 H1151 0.957 1_556 S
H1136 C1120 0.931 . S
H1137 C1125 0.929 . S
H1138 C1126 0.960 . S
H1139 C1126 0.962 . S
H1140 C1126 0.960 . S
H1141 C1127 0.961 . S
H1142 C1127 0.961 . S
H1143 C1127 0.961 . S
H1144 C1128 0.931 . S
H1145 C1133 0.930 . S
H1146 C1134 0.956 . S
H1147 C1134 0.961 . S
H1148 C1134 0.961 . S
H1149 C1135 0.955 1_554 S
H1150 C1135 0.965 1_554 S
H1151 C1135 0.957 1_554 S
C1152 C1153 1.391 . S
C1152 C1154 1.394 . S
C1152 H1168 0.931 . S
C1153 C1152 1.391 . S
C1153 C1157 1.376 . S
C1154 C1152 1.394 . S
C1154 C1155 1.369 . S
C1154 C1158 1.531 . S
C1155 C1154 1.369 . S
C1155 C1156 1.410 . S
C1155 C1163 1.503 1_455 S
C1156 C1155 1.410 . S
C1156 C1157 1.392 . S
C1156 C1159 1.511 1_455 S
C1157 C1153 1.376 . S
C1157 C1156 1.392 . S
C1157 H1169 0.929 . S
C1158 C1154 1.531 . S
C1158 H1170 0.960 . S
C1158 H1171 0.962 . S
C1158 H1172 0.960 . S
C1159 C1156 1.511 1_655 S
C1159 H1173 0.961 . S
C1159 H1174 0.961 . S
C1159 H1175 0.961 . S
C1160 C1161 1.370 . S
C1160 C1162 1.363 . S
C1160 H1176 0.931 . S
C1161 C1160 1.370 . S
C1161 C1165 1.408 . S
C1162 C1160 1.363 . S
C1162 C1163 1.370 . S
C1162 C1166 1.524 . S
C1163 C1155 1.503 1_655 S
C1163 C1162 1.370 . S
C1163 C1164 1.403 . S
C1164 C1163 1.403 . S
C1164 C1165 1.404 . S
C1164 C1167 1.539 1_655 S
C1165 C1161 1.408 . S
C1165 C1164 1.404 . S
C1165 H1177 0.930 . S
C1166 C1162 1.524 . S
C1166 H1178 0.956 . S
C1166 H1179 0.961 . S
C1166 H1180 0.961 . S
C1167 C1164 1.539 1_455 S
C1167 H1181 0.958 . S
C1167 H1182 0.961 . S
C1167 H1183 0.960 . S
H1168 C1152 0.931 . S
H1169 C1157 0.929 . S
H1170 C1158 0.960 . S
H1171 C1158 0.962 . S
H1172 C1158 0.960 . S
H1173 C1159 0.961 . S
H1174 C1159 0.961 . S
H1175 C1159 0.961 . S
H1176 C1160 0.931 . S
H1177 C1165 0.930 . S
H1178 C1166 0.956 . S
H1179 C1166 0.961 . S
H1180 C1166 0.961 . S
H1181 C1167 0.958 . S
H1182 C1167 0.961 . S
H1183 C1167 0.960 . S
C1184 C1185 1.391 . S
C1184 C1186 1.394 . S
C1184 H1200 0.931 . S
C1185 C1184 1.391 . S
C1185 C1189 1.376 . S
C1186 C1184 1.394 . S
C1186 C1187 1.369 . S
C1186 C1190 1.531 . S
C1187 C1186 1.369 . S
C1187 C1188 1.410 . S
C1187 C1195 1.503 1_655 S
C1188 C1187 1.410 . S
C1188 C1189 1.392 . S
C1188 C1191 1.511 1_655 S
C1189 C1185 1.376 . S
C1189 C1188 1.392 . S
C1189 H1201 0.929 . S
C1190 C1186 1.531 . S
C1190 H1202 0.960 . S
C1190 H1203 0.962 . S
C1190 H1204 0.960 1_556 S
C1191 C1188 1.511 1_455 S
C1191 H1205 0.961 . S
C1191 H1206 0.961 . S
C1191 H1207 0.961 . S
C1192 C1193 1.370 . S
C1192 C1194 1.363 . S
C1192 H1208 0.931 . S
C1193 C1192 1.370 . S
C1193 C1197 1.408 . S
C1194 C1192 1.363 . S
C1194 C1195 1.370 . S
C1194 C1198 1.524 1_455 S
C1195 C1187 1.503 1_455 S
C1195 C1194 1.370 . S
C1195 C1196 1.403 . S
C1196 C1195 1.403 . S
C1196 C1197 1.404 . S
C1196 C1199 1.539 . S
C1197 C1193 1.408 . S
C1197 C1196 1.404 . S
C1197 H1209 0.930 . S
C1198 C1194 1.524 1_655 S
C1198 H1210 0.956 . S
C1198 H1211 0.961 . S
C1198 H1212 0.961 . S
C1199 C1196 1.539 . S
C1199 H1213 0.958 . S
C1199 H1214 0.961 . S
C1199 H1215 0.960 . S
H1200 C1184 0.931 . S
H1201 C1189 0.929 . S
H1202 C1190 0.960 . S
H1203 C1190 0.962 . S
H1204 C1190 0.960 1_554 S
H1205 C1191 0.961 . S
H1206 C1191 0.961 . S
H1207 C1191 0.961 . S
H1208 C1192 0.931 . S
H1209 C1197 0.930 . S
H1210 C1198 0.956 . S
H1211 C1198 0.961 . S
H1212 C1198 0.961 . S
H1213 C1199 0.958 . S
H1214 C1199 0.961 . S
H1215 C1199 0.960 . S
C1216 C1217 1.391 . S
C1216 C1218 1.394 . S
C1216 H1232 0.931 . S
C1217 C1216 1.391 . S
C1217 C1221 1.376 . S
C1218 C1216 1.394 . S
C1218 C1219 1.369 . S
C1218 C1222 1.531 . S
C1219 C1218 1.369 . S
C1219 C1220 1.410 . S
C1219 C1227 1.503 1_655 S
C1220 C1219 1.410 . S
C1220 C1221 1.392 . S
C1220 C1223 1.511 . S
C1221 C1217 1.376 . S
C1221 C1220 1.392 . S
C1221 H1233 0.929 . S
C1222 C1218 1.531 . S
C1222 H1234 0.960 1_655 S
C1222 H1235 0.962 1_655 S
C1222 H1236 0.960 . S
C1223 C1220 1.511 . S
C1223 H1237 0.961 . S
C1223 H1238 0.961 . S
C1223 H1239 0.961 . S
C1224 C1225 1.370 . S
C1224 C1226 1.363 . S
C1224 H1240 0.931 . S
C1225 C1224 1.370 . S
C1225 C1229 1.408 . S
C1226 C1224 1.363 . S
C1226 C1227 1.370 . S
C1226 C1230 1.524 . S
C1227 C1219 1.503 1_455 S
C1227 C1226 1.370 . S
C1227 C1228 1.403 . S
C1228 C1227 1.403 . S
C1228 C1229 1.404 . S
C1228 C1231 1.539 1_455 S
C1229 C1225 1.408 . S
C1229 C1228 1.404 . S
C1229 H1241 0.930 . S
C1230 C1226 1.524 . S
C1230 H1242 0.956 . S
C1230 H1243 0.961 . S
C1230 H1244 0.961 . S
C1231 C1228 1.539 1_655 S
C1231 H1245 0.958 . S
C1231 H1246 0.961 . S
C1231 H1247 0.960 . S
H1232 C1216 0.931 . S
H1233 C1221 0.929 . S
H1234 C1222 0.960 1_455 S
H1235 C1222 0.962 1_455 S
H1236 C1222 0.960 . S
H1237 C1223 0.961 . S
H1238 C1223 0.961 . S
H1239 C1223 0.961 . S
H1240 C1224 0.931 . S
H1241 C1229 0.930 . S
H1242 C1230 0.956 . S
H1243 C1230 0.961 . S
H1244 C1230 0.961 . S
H1245 C1231 0.958 . S
H1246 C1231 0.961 . S
H1247 C1231 0.960 . S
C1248 C1249 1.391 . S
C1248 C1250 1.394 . S
C1248 H1264 0.931 . S
C1249 C1248 1.391 . S
C1249 C1253 1.376 . S
C1250 C1248 1.394 . S
C1250 C1251 1.369 . S
C1250 C1254 1.531 . S
C1251 C1250 1.369 . S
C1251 C1252 1.410 . S
C1251 C1259 1.503 . S
C1252 C1251 1.410 . S
C1252 C1253 1.392 . S
C1252 C1255 1.511 . S
C1253 C1249 1.376 . S
C1253 C1252 1.392 . S
C1253 H1265 0.929 . S
C1254 C1250 1.531 . S
C1254 H1266 0.960 . S
C1254 H1267 0.962 . S
C1254 H1268 0.960 . S
C1255 C1252 1.511 . S
C1255 H1269 0.961 . S
C1255 H1270 0.961 . S
C1255 H1271 0.961 . S
C1256 C1257 1.370 . S
C1256 C1258 1.363 . S
C1256 H1272 0.931 . S
C1257 C1256 1.370 . S
C1257 C1261 1.408 . S
C1258 C1256 1.363 . S
C1258 C1259 1.370 . S
C1258 C1262 1.524 . S
C1259 C1251 1.503 . S
C1259 C1258 1.370 . S
C1259 C1260 1.403 . S
C1260 C1259 1.403 . S
C1260 C1261 1.404 . S
C1260 C1263 1.539 . S
C1261 C1257 1.408 . S
C1261 C1260 1.404 . S
C1261 H1273 0.930 . S
C1262 C1258 1.524 . S
C1262 H1274 0.956 . S
C1262 H1275 0.961 . S
C1262 H1276 0.961 . S
C1263 C1260 1.539 . S
C1263 H1277 0.958 . S
C1263 H1278 0.961 . S
C1263 H1279 0.960 . S
H1264 C1248 0.931 . S
H1265 C1253 0.929 . S
H1266 C1254 0.960 . S
H1267 C1254 0.962 . S
H1268 C1254 0.960 . S
H1269 C1255 0.961 . S
H1270 C1255 0.961 . S
H1271 C1255 0.961 . S
H1272 C1256 0.931 . S
H1273 C1261 0.930 . S
H1274 C1262 0.956 . S
H1275 C1262 0.961 . S
H1276 C1262 0.961 . S
H1277 C1263 0.958 . S
H1278 C1263 0.961 . S
H1279 C1263 0.960 . S
C1280 C1281 1.391 . S
C1280 C1282 1.394 . S
C1280 H1296 0.931 . S
C1281 C1280 1.391 . S
C1281 C1285 1.376 . S
C1282 C1280 1.394 . S
C1282 C1283 1.369 . S
C1282 C1286 1.531 . S
C1283 C1282 1.369 . S
C1283 C1284 1.410 . S
C1283 C1291 1.503 . S
C1284 C1283 1.410 . S
C1284 C1285 1.392 . S
C1284 C1287 1.511 . S
C1285 C1281 1.376 . S
C1285 C1284 1.392 . S
C1285 H1297 0.929 . S
C1286 C1282 1.531 . S
C1286 H1298 0.960 . S
C1286 H1299 0.962 . S
C1286 H1300 0.960 . S
C1287 C1284 1.511 . S
C1287 H1301 0.961 . S
C1287 H1302 0.961 . S
C1287 H1303 0.961 . S
C1288 C1289 1.370 . S
C1288 C1290 1.363 . S
C1288 H1304 0.931 . S
C1289 C1288 1.370 . S
C1289 C1293 1.408 . S
C1290 C1288 1.363 . S
C1290 C1291 1.370 . S
C1290 C1294 1.524 . S
C1291 C1283 1.503 . S
C1291 C1290 1.370 . S
C1291 C1292 1.403 . S
C1292 C1291 1.403 . S
C1292 C1293 1.404 . S
C1292 C1295 1.539 . S
C1293 C1289 1.408 . S
C1293 C1292 1.404 . S
C1293 H1305 0.930 . S
C1294 C1290 1.524 . S
C1294 H1306 0.956 . S
C1294 H1307 0.961 . S
C1294 H1308 0.961 . S
C1295 C1292 1.539 . S
C1295 H1309 0.958 . S
C1295 H1310 0.961 . S
C1295 H1311 0.960 . S
H1296 C1280 0.931 . S
H1297 C1285 0.929 . S
H1298 C1286 0.960 . S
H1299 C1286 0.962 . S
H1300 C1286 0.960 . S
H1301 C1287 0.961 . S
H1302 C1287 0.961 . S
H1303 C1287 0.961 . S
H1304 C1288 0.931 . S
H1305 C1293 0.930 . S
H1306 C1294 0.956 . S
H1307 C1294 0.961 . S
H1308 C1294 0.961 . S
H1309 C1295 0.958 . S
H1310 C1295 0.961 . S
H1311 C1295 0.960 . S
C1312 C1313 1.391 . S
C1312 C1314 1.394 . S
C1312 H1328 0.931 . S
C1313 C1312 1.391 . S
C1313 C1317 1.376 . S
C1314 C1312 1.394 . S
C1314 C1315 1.369 . S
C1314 C1318 1.531 1_655 S
C1315 C1314 1.369 . S
C1315 C1316 1.410 . S
C1315 C1323 1.503 1_655 S
C1316 C1315 1.410 . S
C1316 C1317 1.392 . S
C1316 C1319 1.511 . S
C1317 C1313 1.376 . S
C1317 C1316 1.392 . S
C1317 H1329 0.929 . S
C1318 C1314 1.531 1_455 S
C1318 H1330 0.960 . S
C1318 H1331 0.962 . S
C1318 H1332 0.960 . S
C1319 C1316 1.511 . S
C1319 H1333 0.961 . S
C1319 H1334 0.961 . S
C1319 H1335 0.961 . S
C1320 C1321 1.370 . S
C1320 C1322 1.363 . S
C1320 H1336 0.931 . S
C1321 C1320 1.370 . S
C1321 C1325 1.408 . S
C1322 C1320 1.363 . S
C1322 C1323 1.370 . S
C1322 C1326 1.524 . S
C1323 C1315 1.503 1_455 S
C1323 C1322 1.370 . S
C1323 C1324 1.401 1_455 S
C1324 C1323 1.401 1_655 S
C1324 C1325 1.399 1_655 S
C1324 C1327 1.546 . S
C1325 C1321 1.408 . S
C1325 C1324 1.399 1_455 S
C1325 H1337 0.930 . S
C1326 C1322 1.524 . S
C1326 H1338 0.956 . S
C1326 H1339 0.961 . S
C1326 H1340 0.961 . S
C1327 C1324 1.546 . S
C1327 H1341 0.958 . S
C1327 H1342 0.961 . S
C1327 H1343 0.960 . S
H1328 C1312 0.931 . S
H1329 C1317 0.929 . S
H1330 C1318 0.960 . S
H1331 C1318 0.962 . S
H1332 C1318 0.960 . S
H1333 C1319 0.961 . S
H1334 C1319 0.961 . S
H1335 C1319 0.961 . S
H1336 C1320 0.931 . S
H1337 C1325 0.930 . S
H1338 C1326 0.956 . S
H1339 C1326 0.961 . S
H1340 C1326 0.961 . S
H1341 C1327 0.958 . S
H1342 C1327 0.961 . S
H1343 C1327 0.960 . S
C1344 C1345 1.391 . S
C1344 C1346 1.394 . S
C1344 H1360 0.931 . S
C1345 C1344 1.391 . S
C1345 C1349 1.376 . S
C1346 C1344 1.394 . S
C1346 C1347 1.369 . S
C1346 C1350 1.531 . S
C1347 C1346 1.369 . S
C1347 C1348 1.410 . S
C1347 C1355 1.503 . S
C1348 C1347 1.410 . S
C1348 C1349 1.392 . S
C1348 C1351 1.511 . S
C1349 C1345 1.376 . S
C1349 C1348 1.392 . S
C1349 H1361 0.929 . S
C1350 C1346 1.531 . S
C1350 H1362 0.960 . S
C1350 H1363 0.962 . S
C1350 H1364 0.960 . S
C1351 C1348 1.511 . S
C1351 H1365 0.961 . S
C1351 H1366 0.961 . S
C1351 H1367 0.961 . S
C1352 C1353 1.370 . S
C1352 C1354 1.363 . S
C1352 H1368 0.931 . S
C1353 C1352 1.370 . S
C1353 C1357 1.408 . S
C1354 C1352 1.363 . S
C1354 C1355 1.370 . S
C1354 C1358 1.524 . S
C1355 C1347 1.503 . S
C1355 C1354 1.370 . S
C1355 C1356 1.403 . S
C1356 C1355 1.403 . S
C1356 C1357 1.404 . S
C1356 C1359 1.539 . S
C1357 C1353 1.408 . S
C1357 C1356 1.404 . S
C1357 H1369 0.930 . S
C1358 C1354 1.524 . S
C1358 H1370 0.956 . S
C1358 H1371 0.961 . S
C1358 H1372 0.961 . S
C1359 C1356 1.539 . S
C1359 H1373 0.958 . S
C1359 H1374 0.961 . S
C1359 H1375 0.960 . S
H1360 C1344 0.931 . S
H1361 C1349 0.929 . S
H1362 C1350 0.960 . S
H1363 C1350 0.962 . S
H1364 C1350 0.960 . S
H1365 C1351 0.961 . S
H1366 C1351 0.961 . S
H1367 C1351 0.961 . S
H1368 C1352 0.931 . S
H1369 C1357 0.930 . S
H1370 C1358 0.956 . S
H1371 C1358 0.961 . S
H1372 C1358 0.961 . S
H1373 C1359 0.958 . S
H1374 C1359 0.961 . S
H1375 C1359 0.960 . S
C1376 C1377 1.391 . S
C1376 C1378 1.394 . S
C1376 H1392 0.931 . S
C1377 C1376 1.391 . S
C1377 C1381 1.376 . S
C1378 C1376 1.394 . S
C1378 C1379 1.369 . S
C1378 C1382 1.531 . S
C1379 C1378 1.369 . S
C1379 C1380 1.410 . S
C1379 C1387 1.503 . S
C1380 C1379 1.410 . S
C1380 C1381 1.392 . S
C1380 C1383 1.511 . S
C1381 C1377 1.376 . S
C1381 C1380 1.392 . S
C1381 H1393 0.929 . S
C1382 C1378 1.531 . S
C1382 H1394 0.960 . S
C1382 H1395 0.962 . S
C1382 H1396 0.960 . S
C1383 C1380 1.511 . S
C1383 H1397 0.961 . S
C1383 H1398 0.961 . S
C1383 H1399 0.961 . S
C1384 C1385 1.370 . S
C1384 C1386 1.363 . S
C1384 H1400 0.931 . S
C1385 C1384 1.370 . S
C1385 C1389 1.408 . S
C1386 C1384 1.363 . S
C1386 C1387 1.370 . S
C1386 C1390 1.524 . S
C1387 C1379 1.503 . S
C1387 C1386 1.370 . S
C1387 C1388 1.403 . S
C1388 C1387 1.403 . S
C1388 C1389 1.404 . S
C1388 C1391 1.539 1_554 S
C1389 C1385 1.408 . S
C1389 C1388 1.404 . S
C1389 H1401 0.930 . S
C1390 C1386 1.524 . S
C1390 H1402 0.956 . S
C1390 H1403 0.961 . S
C1390 H1404 0.961 . S
C1391 C1388 1.539 1_556 S
C1391 H1405 0.958 . S
C1391 H1406 0.961 . S
C1391 H1407 0.962 . S
H1392 C1376 0.931 . S
H1393 C1381 0.929 . S
H1394 C1382 0.960 . S
H1395 C1382 0.962 . S
H1396 C1382 0.960 . S
H1397 C1383 0.961 . S
H1398 C1383 0.961 . S
H1399 C1383 0.961 . S
H1400 C1384 0.931 . S
H1401 C1389 0.930 . S
H1402 C1390 0.956 . S
H1403 C1390 0.961 . S
H1404 C1390 0.961 . S
H1405 C1391 0.958 . S
H1406 C1391 0.961 . S
H1407 C1391 0.962 . S
C1408 C1409 1.391 . S
C1408 C1410 1.394 . S
C1408 H1424 0.931 . S
C1409 C1408 1.391 . S
C1409 C1413 1.376 . S
C1410 C1408 1.394 . S
C1410 C1411 1.369 . S
C1410 C1414 1.531 . S
C1411 C1410 1.369 . S
C1411 C1412 1.410 . S
C1411 C1419 1.503 1_655 S
C1412 C1411 1.410 . S
C1412 C1413 1.392 . S
C1412 C1415 1.511 1_655 S
C1413 C1409 1.376 . S
C1413 C1412 1.392 . S
C1413 H1425 0.929 . S
C1414 C1410 1.531 . S
C1414 H1426 0.960 . S
C1414 H1427 0.962 . S
C1414 H1428 0.960 . S
C1415 C1412 1.511 1_455 S
C1415 H1429 0.961 . S
C1415 H1430 0.961 . S
C1415 H1431 0.961 . S
C1416 C1417 1.370 . S
C1416 C1418 1.363 . S
C1416 H1432 0.931 . S
C1417 C1416 1.370 . S
C1417 C1421 1.408 . S
C1418 C1416 1.363 . S
C1418 C1419 1.370 . S
C1418 C1422 1.524 . S
C1419 C1411 1.503 1_455 S
C1419 C1418 1.370 . S
C1419 C1420 1.403 . S
C1420 C1419 1.403 . S
C1420 C1421 1.404 . S
C1420 C1423 1.539 . S
C1421 C1417 1.408 . S
C1421 C1420 1.404 . S
C1421 H1433 0.930 . S
C1422 C1418 1.524 . S
C1422 H1434 0.956 1_455 S
C1422 H1435 0.961 . S
C1422 H1436 0.961 . S
C1423 C1420 1.539 . S
C1423 H1437 0.958 . S
C1423 H1438 0.961 . S
C1423 H1439 0.960 . S
H1424 C1408 0.931 . S
H1425 C1413 0.929 . S
H1426 C1414 0.960 . S
H1427 C1414 0.962 . S
H1428 C1414 0.960 . S
H1429 C1415 0.961 . S
H1430 C1415 0.961 . S
H1431 C1415 0.961 . S
H1432 C1416 0.931 . S
H1433 C1421 0.930 . S
H1434 C1422 0.956 1_655 S
H1435 C1422 0.961 . S
H1436 C1422 0.961 . S
H1437 C1423 0.958 . S
H1438 C1423 0.961 . S
H1439 C1423 0.960 . S
C1440 C1441 1.391 . S
C1440 C1442 1.382 1_556 S
C1440 H1456 0.929 . S
C1441 C1440 1.391 . S
C1441 C1445 1.376 . S
C1442 C1440 1.382 1_554 S
C1442 C1443 1.353 1_554 S
C1442 C1446 1.559 . S
C1443 C1442 1.353 1_556 S
C1443 C1444 1.410 . S
C1443 C1451 1.503 1_556 S
C1444 C1443 1.410 . S
C1444 C1445 1.392 . S
C1444 C1447 1.511 . S
C1445 C1441 1.376 . S
C1445 C1444 1.392 . S
C1445 H1457 0.929 . S
C1446 C1442 1.559 . S
C1446 H1458 0.960 . S
C1446 H1459 0.962 . S
C1446 H1460 0.960 . S
C1447 C1444 1.511 . S
C1447 H1461 0.961 . S
C1447 H1462 0.961 . S
C1447 H1463 0.961 . S
C1448 C1449 1.370 . S
C1448 C1450 1.363 . S
C1448 H1464 0.931 . S
C1449 C1448 1.370 . S
C1449 C1453 1.436 . S
C1450 C1448 1.363 . S
C1450 C1451 1.370 . S
C1450 C1454 1.524 . S
C1451 C1443 1.503 1_554 S
C1451 C1450 1.370 . S
C1451 C1452 1.403 1_554 S
C1452 C1451 1.403 1_556 S
C1452 C1453 1.391 1_556 S
C1452 C1455 1.539 . S
C1453 C1449 1.436 . S
C1453 C1452 1.391 1_554 S
C1453 H1465 0.916 1_554 S
C1454 C1450 1.524 . S
C1454 H1466 0.956 . S
C1454 H1467 0.961 . S
C1454 H1468 0.961 . S
C1455 C1452 1.539 . S
C1455 H1469 0.958 . S
C1455 H1470 0.961 . S
C1455 H1471 0.960 . S
H1456 C1440 0.929 . S
H1457 C1445 0.929 . S
H1458 C1446 0.960 . S
H1459 C1446 0.962 . S
H1460 C1446 0.960 . S
H1461 C1447 0.961 . S
H1462 C1447 0.961 . S
H1463 C1447 0.961 . S
H1464 C1448 0.931 . S
H1465 C1453 0.916 1_556 S
H1466 C1454 0.956 . S
H1467 C1454 0.961 . S
H1468 C1454 0.961 . S
H1469 C1455 0.958 . S
H1470 C1455 0.961 . S
H1471 C1455 0.960 . S
C1472 C1473 1.391 . S
C1472 C1474 1.394 . S
C1472 H1488 0.931 . S
C1473 C1472 1.391 . S
C1473 C1477 1.376 . S
C1474 C1472 1.394 . S
C1474 C1475 1.369 . S
C1474 C1478 1.531 . S
C1475 C1474 1.369 . S
C1475 C1476 1.410 . S
C1475 C1483 1.503 1_545 S
C1476 C1475 1.410 . S
C1476 C1477 1.392 . S
C1476 C1479 1.511 . S
C1477 C1473 1.376 . S
C1477 C1476 1.392 . S
C1477 H1489 0.929 . S
C1478 C1474 1.531 . S
C1478 H1490 0.960 1_545 S
C1478 H1491 0.962 1_545 S
C1478 H1492 0.960 . S
C1479 C1476 1.511 . S
C1479 H1493 0.961 . S
C1479 H1494 0.961 . S
C1479 H1495 0.961 . S
C1480 C1481 1.370 . S
C1480 C1482 1.363 . S
C1480 H1496 0.931 . S
C1481 C1480 1.370 . S
C1481 C1485 1.408 . S
C1482 C1480 1.363 . S
C1482 C1483 1.370 . S
C1482 C1486 1.524 . S
C1483 C1475 1.503 1_565 S
C1483 C1482 1.370 . S
C1483 C1484 1.403 . S
C1484 C1483 1.403 . S
C1484 C1485 1.404 . S
C1484 C1487 1.539 1_565 S
C1485 C1481 1.408 . S
C1485 C1484 1.404 . S
C1485 H1497 0.930 . S
C1486 C1482 1.524 . S
C1486 H1498 0.956 . S
C1486 H1499 0.961 . S
C1486 H1500 0.961 . S
C1487 C1484 1.539 1_545 S
C1487 H1501 0.958 . S
C1487 H1502 0.961 1_545 S
C1487 H1503 0.960 . S
H1488 C1472 0.931 . S
H1489 C1477 0.929 . S
H1490 C1478 0.960 1_565 S
H1491 C1478 0.962 1_565 S
H1492 C1478 0.960 . S
H1493 C1479 0.961 . S
H1494 C1479 0.961 . S
H1495 C1479 0.961 . S
H1496 C1480 0.931 . S
H1497 C1485 0.930 . S
H1498 C1486 0.956 . S
H1499 C1486 0.961 . S
H1500 C1486 0.961 . S
H1501 C1487 0.958 . S
H1502 C1487 0.961 1_565 S
H1503 C1487 0.960 . S
C1504 C1505 1.391 . S
C1504 C1506 1.394 . S
C1504 H1520 0.931 . S
C1505 C1504 1.391 . S
C1505 C1509 1.376 . S
C1506 C1504 1.394 . S
C1506 C1507 1.369 . S
C1506 C1510 1.531 . S
C1507 C1506 1.369 . S
C1507 C1508 1.410 . S
C1507 C1515 1.503 . S
C1508 C1507 1.410 . S
C1508 C1509 1.392 . S
C1508 C1511 1.511 . S
C1509 C1505 1.376 . S
C1509 C1508 1.392 . S
C1509 H1521 0.929 . S
C1510 C1506 1.531 . S
C1510 H1522 0.960 . S
C1510 H1523 0.962 . S
C1510 H1524 0.960 . S
C1511 C1508 1.511 . S
C1511 H1525 0.961 . S
C1511 H1526 0.961 . S
C1511 H1527 0.961 . S
C1512 C1513 1.370 . S
C1512 C1514 1.363 . S
C1512 H1528 0.931 . S
C1513 C1512 1.370 . S
C1513 C1517 1.408 . S
C1514 C1512 1.363 . S
C1514 C1515 1.370 . S
C1514 C1518 1.524 . S
C1515 C1507 1.503 . S
C1515 C1514 1.370 . S
C1515 C1516 1.403 . S
C1516 C1515 1.403 . S
C1516 C1517 1.404 . S
C1516 C1519 1.539 . S
C1517 C1513 1.408 . S
C1517 C1516 1.404 . S
C1517 H1529 0.930 . S
C1518 C1514 1.524 . S
C1518 H1530 0.956 . S
C1518 H1531 0.961 . S
C1518 H1532 0.961 . S
C1519 C1516 1.539 . S
C1519 H1533 0.958 . S
C1519 H1534 0.961 . S
C1519 H1535 0.960 . S
H1520 C1504 0.931 . S
H1521 C1509 0.929 . S
H1522 C1510 0.960 . S
H1523 C1510 0.962 . S
H1524 C1510 0.960 . S
H1525 C1511 0.961 . S
H1526 C1511 0.961 . S
H1527 C1511 0.961 . S
H1528 C1512 0.931 . S
H1529 C1517 0.930 . S
H1530 C1518 0.956 . S
H1531 C1518 0.961 . S
H1532 C1518 0.961 . S
H1533 C1519 0.958 . S
H1534 C1519 0.961 . S
H1535 C1519 0.960 . S
C1536 C1537 1.391 . S
C1536 C1538 1.394 . S
C1536 H1552 0.931 . S
C1537 C1536 1.391 . S
C1537 C1541 1.376 . S
C1538 C1536 1.394 . S
C1538 C1539 1.369 . S
C1538 C1542 1.531 . S
C1539 C1538 1.369 . S
C1539 C1540 1.410 . S
C1539 C1547 1.503 1_545 S
C1540 C1539 1.410 . S
C1540 C1541 1.392 . S
C1540 C1543 1.511 . S
C1541 C1537 1.376 . S
C1541 C1540 1.392 . S
C1541 H1553 0.929 . S
C1542 C1538 1.531 . S
C1542 H1554 0.960 1_545 S
C1542 H1555 0.962 1_545 S
C1542 H1556 0.960 . S
C1543 C1540 1.511 . S
C1543 H1557 0.961 . S
C1543 H1558 0.961 . S
C1543 H1559 0.961 . S
C1544 C1545 1.370 . S
C1544 C1546 1.363 . S
C1544 H1560 0.931 . S
C1545 C1544 1.370 . S
C1545 C1549 1.408 . S
C1546 C1544 1.363 . S
C1546 C1547 1.370 . S
C1546 C1550 1.524 . S
C1547 C1539 1.503 1_565 S
C1547 C1546 1.370 . S
C1547 C1548 1.403 . S
C1548 C1547 1.403 . S
C1548 C1549 1.404 . S
C1548 C1551 1.539 . S
C1549 C1545 1.408 . S
C1549 C1548 1.404 . S
C1549 H1561 0.930 . S
C1550 C1546 1.524 . S
C1550 H1562 0.956 . S
C1550 H1563 0.961 . S
C1550 H1564 0.961 . S
C1551 C1548 1.539 . S
C1551 H1565 0.958 . S
C1551 H1566 0.961 . S
C1551 H1567 0.960 1_565 S
H1552 C1536 0.931 . S
H1553 C1541 0.929 . S
H1554 C1542 0.960 1_565 S
H1555 C1542 0.962 1_565 S
H1556 C1542 0.960 . S
H1557 C1543 0.961 . S
H1558 C1543 0.961 . S
H1559 C1543 0.961 . S
H1560 C1544 0.931 . S
H1561 C1549 0.930 . S
H1562 C1550 0.956 . S
H1563 C1550 0.961 . S
H1564 C1550 0.961 . S
H1565 C1551 0.958 . S
H1566 C1551 0.961 . S
H1567 C1551 0.960 1_545 S
C1568 C1569 1.391 . S
C1568 C1570 1.394 . S
C1568 H1584 0.931 . S
C1569 C1568 1.391 . S
C1569 C1573 1.376 1_554 S
C1570 C1568 1.394 . S
C1570 C1571 1.369 . S
C1570 C1574 1.531 . S
C1571 C1570 1.369 . S
C1571 C1572 1.410 1_554 S
C1571 C1579 1.503 1_554 S
C1572 C1571 1.410 1_556 S
C1572 C1573 1.392 . S
C1572 C1575 1.511 . S
C1573 C1569 1.376 1_556 S
C1573 C1572 1.392 . S
C1573 H1585 0.929 . S
C1574 C1570 1.531 . S
C1574 H1586 0.960 . S
C1574 H1587 0.962 . S
C1574 H1588 0.960 . S
C1575 C1572 1.511 . S
C1575 H1589 0.961 . S
C1575 H1590 0.961 . S
C1575 H1591 0.961 . S
C1576 C1577 1.370 . S
C1576 C1578 1.358 1_556 S
C1576 H1592 0.931 . S
C1577 C1576 1.370 . S
C1577 C1581 1.408 . S
C1578 C1576 1.358 1_554 S
C1578 C1579 1.365 1_554 S
C1578 C1582 1.535 . S
C1579 C1571 1.503 1_556 S
C1579 C1578 1.365 1_556 S
C1579 C1580 1.403 . S
C1580 C1579 1.403 . S
C1580 C1581 1.404 . S
C1580 C1583 1.539 . S
C1581 C1577 1.408 . S
C1581 C1580 1.404 . S
C1581 H1593 0.930 . S
C1582 C1578 1.535 . S
C1582 H1594 0.956 . S
C1582 H1595 0.961 . S
C1582 H1596 0.961 . S
C1583 C1580 1.539 . S
C1583 H1597 0.958 . S
C1583 H1598 0.961 . S
C1583 H1599 0.960 . S
H1584 C1568 0.931 . S
H1585 C1573 0.929 . S
H1586 C1574 0.960 . S
H1587 C1574 0.962 . S
H1588 C1574 0.960 . S
H1589 C1575 0.961 . S
H1590 C1575 0.961 . S
H1591 C1575 0.961 . S
H1592 C1576 0.931 . S
H1593 C1581 0.930 . S
H1594 C1582 0.956 . S
H1595 C1582 0.961 . S
H1596 C1582 0.961 . S
H1597 C1583 0.958 . S
H1598 C1583 0.961 . S
H1599 C1583 0.960 . S
C1600 C1601 1.391 . S
C1600 C1602 1.394 . S
C1600 H1616 0.931 . S
C1601 C1600 1.391 . S
C1601 C1605 1.376 . S
C1602 C1600 1.394 . S
C1602 C1603 1.369 . S
C1602 C1606 1.531 . S
C1603 C1602 1.369 . S
C1603 C1604 1.410 . S
C1603 C1611 1.503 1_565 S
C1604 C1603 1.410 . S
C1604 C1605 1.392 . S
C1604 C1607 1.511 . S
C1605 C1601 1.376 . S
C1605 C1604 1.392 . S
C1605 H1617 0.929 . S
C1606 C1602 1.531 . S
C1606 H1618 0.960 . S
C1606 H1619 0.962 . S
C1606 H1620 0.960 . S
C1607 C1604 1.511 . S
C1607 H1621 0.961 . S
C1607 H1622 0.961 1_565 S
C1607 H1623 0.961 . S
C1608 C1609 1.370 . S
C1608 C1610 1.363 . S
C1608 H1624 0.931 . S
C1609 C1608 1.370 . S
C1609 C1613 1.408 . S
C1610 C1608 1.363 . S
C1610 C1611 1.370 . S
C1610 C1614 1.524 . S
C1611 C1603 1.503 1_545 S
C1611 C1610 1.370 . S
C1611 C1612 1.403 . S
C1612 C1611 1.403 . S
C1612 C1613 1.404 . S
C1612 C1615 1.539 . S
C1613 C1609 1.408 . S
C1613 C1612 1.404 . S
C1613 H1625 0.930 . S
C1614 C1610 1.524 . S
C1614 H1626 0.956 . S
C1614 H1627 0.961 . S
C1614 H1628 0.961 . S
C1615 C1612 1.539 . S
C1615 H1629 0.958 1_545 S
C1615 H1630 0.961 . S
C1615 H1631 0.960 1_545 S
H1616 C1600 0.931 . S
H1617 C1605 0.929 . S
H1618 C1606 0.960 . S
H1619 C1606 0.962 . S
H1620 C1606 0.960 . S
H1621 C1607 0.961 . S
H1622 C1607 0.961 1_545 S
H1623 C1607 0.961 . S
H1624 C1608 0.931 . S
H1625 C1613 0.930 . S
H1626 C1614 0.956 . S
H1627 C1614 0.961 . S
H1628 C1614 0.961 . S
H1629 C1615 0.958 1_565 S
H1630 C1615 0.961 . S
H1631 C1615 0.960 1_565 S
C1632 C1633 1.391 . S
C1632 C1634 1.394 . S
C1632 H1648 0.931 . S
C1633 C1632 1.391 . S
C1633 C1637 1.376 . S
C1634 C1632 1.394 . S
C1634 C1635 1.369 . S
C1634 C1638 1.531 . S
C1635 C1634 1.369 . S
C1635 C1636 1.410 . S
C1635 C1643 1.503 . S
C1636 C1635 1.410 . S
C1636 C1637 1.392 . S
C1636 C1639 1.511 . S
C1637 C1633 1.376 . S
C1637 C1636 1.392 . S
C1637 H1649 0.929 . S
C1638 C1634 1.531 . S
C1638 H1650 0.960 . S
C1638 H1651 0.962 . S
C1638 H1652 0.960 . S
C1639 C1636 1.511 . S
C1639 H1653 0.961 . S
C1639 H1654 0.961 . S
C1639 H1655 0.961 . S
C1640 C1641 1.370 . S
C1640 C1642 1.363 . S
C1640 H1656 0.931 . S
C1641 C1640 1.370 . S
C1641 C1645 1.408 . S
C1642 C1640 1.363 . S
C1642 C1643 1.370 . S
C1642 C1646 1.524 . S
C1643 C1635 1.503 . S
C1643 C1642 1.370 . S
C1643 C1644 1.403 . S
C1644 C1643 1.403 . S
C1644 C1645 1.404 . S
C1644 C1647 1.539 . S
C1645 C1641 1.408 . S
C1645 C1644 1.404 . S
C1645 H1657 0.930 . S
C1646 C1642 1.524 . S
C1646 H1658 0.956 . S
C1646 H1659 0.961 . S
C1646 H1660 0.961 . S
C1647 C1644 1.539 . S
C1647 H1661 0.958 . S
C1647 H1662 0.961 . S
C1647 H1663 0.960 . S
H1648 C1632 0.931 . S
H1649 C1637 0.929 . S
H1650 C1638 0.960 . S
H1651 C1638 0.962 . S
H1652 C1638 0.960 . S
H1653 C1639 0.961 . S
H1654 C1639 0.961 . S
H1655 C1639 0.961 . S
H1656 C1640 0.931 . S
H1657 C1645 0.930 . S
H1658 C1646 0.956 . S
H1659 C1646 0.961 . S
H1660 C1646 0.961 . S
H1661 C1647 0.958 . S
H1662 C1647 0.961 . S
H1663 C1647 0.960 . S
C1664 C1665 1.391 . S
C1664 C1666 1.394 . S
C1664 H1680 0.931 . S
C1665 C1664 1.391 . S
C1665 C1669 1.376 . S
C1666 C1664 1.394 . S
C1666 C1667 1.369 . S
C1666 C1670 1.531 . S
C1667 C1666 1.369 . S
C1667 C1668 1.410 . S
C1667 C1675 1.503 1_545 S
C1668 C1667 1.410 . S
C1668 C1669 1.392 . S
C1668 C1671 1.511 . S
C1669 C1665 1.376 . S
C1669 C1668 1.392 . S
C1669 H1681 0.929 . S
C1670 C1666 1.531 . S
C1670 H1682 0.960 . S
C1670 H1683 0.962 . S
C1670 H1684 0.960 . S
C1671 C1668 1.511 . S
C1671 H1685 0.961 . S
C1671 H1686 0.961 1_545 S
C1671 H1687 0.961 . S
C1672 C1673 1.370 . S
C1672 C1674 1.363 . S
C1672 H1688 0.931 . S
C1673 C1672 1.370 . S
C1673 C1677 1.408 . S
C1674 C1672 1.363 . S
C1674 C1675 1.370 . S
C1674 C1678 1.524 . S
C1675 C1667 1.503 1_565 S
C1675 C1674 1.370 . S
C1675 C1676 1.403 . S
C1676 C1675 1.403 . S
C1676 C1677 1.404 . S
C1676 C1679 1.539 . S
C1677 C1673 1.408 . S
C1677 C1676 1.404 . S
C1677 H1689 0.930 . S
C1678 C1674 1.524 . S
C1678 H1690 0.956 . S
C1678 H1691 0.961 . S
C1678 H1692 0.961 . S
C1679 C1676 1.539 . S
C1679 H1693 0.958 1_565 S
C1679 H1694 0.961 . S
C1679 H1695 0.960 1_565 S
H1680 C1664 0.931 . S
H1681 C1669 0.929 . S
H1682 C1670 0.960 . S
H1683 C1670 0.962 . S
H1684 C1670 0.960 . S
H1685 C1671 0.961 . S
H1686 C1671 0.961 1_565 S
H1687 C1671 0.961 . S
H1688 C1672 0.931 . S
H1689 C1677 0.930 . S
H1690 C1678 0.956 . S
H1691 C1678 0.961 . S
H1692 C1678 0.961 . S
H1693 C1679 0.958 1_545 S
H1694 C1679 0.961 . S
H1695 C1679 0.960 1_545 S
C1696 C1697 1.391 . S
C1696 C1698 1.394 . S
C1696 H1712 0.931 . S
C1697 C1696 1.391 . S
C1697 C1701 1.376 . S
C1698 C1696 1.394 . S
C1698 C1699 1.369 . S
C1698 C1702 1.531 . S
C1699 C1698 1.369 . S
C1699 C1700 1.410 . S
C1699 C1707 1.503 . S
C1700 C1699 1.410 . S
C1700 C1701 1.392 . S
C1700 C1703 1.511 . S
C1701 C1697 1.376 . S
C1701 C1700 1.392 . S
C1701 H1713 0.929 . S
C1702 C1698 1.531 . S
C1702 H1714 0.960 . S
C1702 H1715 0.962 . S
C1702 H1716 0.960 . S
C1703 C1700 1.511 . S
C1703 H1717 0.961 . S
C1703 H1718 0.961 . S
C1703 H1719 0.961 . S
C1704 C1705 1.370 . S
C1704 C1706 1.363 . S
C1704 H1720 0.931 . S
C1705 C1704 1.370 . S
C1705 C1709 1.408 . S
C1706 C1704 1.363 . S
C1706 C1707 1.370 . S
C1706 C1710 1.524 . S
C1707 C1699 1.503 . S
C1707 C1706 1.370 . S
C1707 C1708 1.403 . S
C1708 C1707 1.403 . S
C1708 C1709 1.404 . S
C1708 C1711 1.539 . S
C1709 C1705 1.408 . S
C1709 C1708 1.404 . S
C1709 H1721 0.930 . S
C1710 C1706 1.524 . S
C1710 H1722 0.956 . S
C1710 H1723 0.961 . S
C1710 H1724 0.961 . S
C1711 C1708 1.539 . S
C1711 H1725 0.958 . S
C1711 H1726 0.961 . S
C1711 H1727 0.960 . S
H1712 C1696 0.931 . S
H1713 C1701 0.929 . S
H1714 C1702 0.960 . S
H1715 C1702 0.962 . S
H1716 C1702 0.960 . S
H1717 C1703 0.961 . S
H1718 C1703 0.961 . S
H1719 C1703 0.961 . S
H1720 C1704 0.931 . S
H1721 C1709 0.930 . S
H1722 C1710 0.956 . S
H1723 C1710 0.961 . S
H1724 C1710 0.961 . S
H1725 C1711 0.958 . S
H1726 C1711 0.961 . S
H1727 C1711 0.960 . S
C1728 C1729 1.391 . S
C1728 C1730 1.394 . S
C1728 H1744 0.931 . S
C1729 C1728 1.391 . S
C1729 C1733 1.376 . S
C1730 C1728 1.394 . S
C1730 C1731 1.369 . S
C1730 C1734 1.531 . S
C1731 C1730 1.369 . S
C1731 C1732 1.410 . S
C1731 C1739 1.503 . S
C1732 C1731 1.410 . S
C1732 C1733 1.392 . S
C1732 C1735 1.511 . S
C1733 C1729 1.376 . S
C1733 C1732 1.392 . S
C1733 H1745 0.929 . S
C1734 C1730 1.531 . S
C1734 H1746 0.960 . S
C1734 H1747 0.962 . S
C1734 H1748 0.960 . S
C1735 C1732 1.511 . S
C1735 H1749 0.961 . S
C1735 H1750 0.961 . S
C1735 H1751 0.961 . S
C1736 C1737 1.370 . S
C1736 C1738 1.363 . S
C1736 H1752 0.931 . S
C1737 C1736 1.370 . S
C1737 C1741 1.408 . S
C1738 C1736 1.363 . S
C1738 C1739 1.370 . S
C1738 C1742 1.524 . S
C1739 C1731 1.503 . S
C1739 C1738 1.370 . S
C1739 C1740 1.403 . S
C1740 C1739 1.403 . S
C1740 C1741 1.404 . S
C1740 C1743 1.539 . S
C1741 C1737 1.408 . S
C1741 C1740 1.404 . S
C1741 H1753 0.930 . S
C1742 C1738 1.524 . S
C1742 H1754 0.956 . S
C1742 H1755 0.961 . S
C1742 H1756 0.961 . S
C1743 C1740 1.539 . S
C1743 H1757 0.958 . S
C1743 H1758 0.961 . S
C1743 H1759 0.960 . S
H1744 C1728 0.931 . S
H1745 C1733 0.929 . S
H1746 C1734 0.960 . S
H1747 C1734 0.962 . S
H1748 C1734 0.960 . S
H1749 C1735 0.961 . S
H1750 C1735 0.961 . S
H1751 C1735 0.961 . S
H1752 C1736 0.931 . S
H1753 C1741 0.930 . S
H1754 C1742 0.956 . S
H1755 C1742 0.961 . S
H1756 C1742 0.961 . S
H1757 C1743 0.958 . S
H1758 C1743 0.961 . S
H1759 C1743 0.960 . S
C1760 C1761 1.391 . S
C1760 C1762 1.394 . S
C1760 H1776 0.931 . S
C1761 C1760 1.391 . S
C1761 C1765 1.376 . S
C1762 C1760 1.394 . S
C1762 C1763 1.369 . S
C1762 C1766 1.531 . S
C1763 C1762 1.369 . S
C1763 C1764 1.410 1_554 S
C1763 C1771 1.503 1_554 S
C1764 C1763 1.410 1_556 S
C1764 C1765 1.392 1_556 S
C1764 C1767 1.511 . S
C1765 C1761 1.376 . S
C1765 C1764 1.392 1_554 S
C1765 H1777 0.909 1_554 S
C1766 C1762 1.531 . S
C1766 H1778 0.960 . S
C1766 H1779 0.962 . S
C1766 H1780 0.960 . S
C1767 C1764 1.511 . S
C1767 H1781 0.961 . S
C1767 H1782 0.961 . S
C1767 H1783 0.961 . S
C1768 C1769 1.370 . S
C1768 C1770 1.363 . S
C1768 H1784 0.931 . S
C1769 C1768 1.370 . S
C1769 C1773 1.458 . S
C1770 C1768 1.363 . S
C1770 C1771 1.370 . S
C1770 C1774 1.524 . S
C1771 C1763 1.503 1_556 S
C1771 C1770 1.370 . S
C1771 C1772 1.403 1_556 S
C1772 C1771 1.403 1_554 S
C1772 C1773 1.380 1_554 S
C1772 C1775 1.539 . S
C1773 C1769 1.458 . S
C1773 C1772 1.380 1_556 S
C1773 H1785 0.908 1_556 S
C1774 C1770 1.524 . S
C1774 H1786 0.956 . S
C1774 H1787 0.961 . S
C1774 H1788 0.961 . S
C1775 C1772 1.539 . S
C1775 H1789 0.958 . S
C1775 H1790 0.961 . S
C1775 H1791 0.960 . S
H1776 C1760 0.931 . S
H1777 C1765 0.909 1_556 S
H1778 C1766 0.960 . S
H1779 C1766 0.962 . S
H1780 C1766 0.960 . S
H1781 C1767 0.961 . S
H1782 C1767 0.961 . S
H1783 C1767 0.961 . S
H1784 C1768 0.931 . S
H1785 C1773 0.908 1_554 S
H1786 C1774 0.956 . S
H1787 C1774 0.961 . S
H1788 C1774 0.961 . S
H1789 C1775 0.958 . S
H1790 C1775 0.961 . S
H1791 C1775 0.960 . S
C1792 C1793 1.391 . S
C1792 C1794 1.394 . S
C1792 H1808 0.931 . S
C1793 C1792 1.391 . S
C1793 C1797 1.376 . S
C1794 C1792 1.394 . S
C1794 C1795 1.369 . S
C1794 C1798 1.531 . S
C1795 C1794 1.369 . S
C1795 C1796 1.410 . S
C1795 C1803 1.503 . S
C1796 C1795 1.410 . S
C1796 C1797 1.392 . S
C1796 C1799 1.511 . S
C1797 C1793 1.376 . S
C1797 C1796 1.392 . S
C1797 H1809 0.929 . S
C1798 C1794 1.531 . S
C1798 H1810 0.960 . S
C1798 H1811 0.962 . S
C1798 H1812 0.960 . S
C1799 C1796 1.511 . S
C1799 H1813 0.961 . S
C1799 H1814 0.961 . S
C1799 H1815 0.961 . S
C1800 C1801 1.370 . S
C1800 C1802 1.363 . S
C1800 H1816 0.931 . S
C1801 C1800 1.370 . S
C1801 C1805 1.408 . S
C1802 C1800 1.363 . S
C1802 C1803 1.370 . S
C1802 C1806 1.524 . S
C1803 C1795 1.503 . S
C1803 C1802 1.370 . S
C1803 C1804 1.403 . S
C1804 C1803 1.403 . S
C1804 C1805 1.404 . S
C1804 C1807 1.539 . S
C1805 C1801 1.408 . S
C1805 C1804 1.404 . S
C1805 H1817 0.930 . S
C1806 C1802 1.524 . S
C1806 H1818 0.956 . S
C1806 H1819 0.961 . S
C1806 H1820 0.961 . S
C1807 C1804 1.539 . S
C1807 H1821 0.958 . S
C1807 H1822 0.961 . S
C1807 H1823 0.960 . S
H1808 C1792 0.931 . S
H1809 C1797 0.929 . S
H1810 C1798 0.960 . S
H1811 C1798 0.962 . S
H1812 C1798 0.960 . S
H1813 C1799 0.961 . S
H1814 C1799 0.961 . S
H1815 C1799 0.961 . S
H1816 C1800 0.931 . S
H1817 C1805 0.930 . S
H1818 C1806 0.956 . S
H1819 C1806 0.961 . S
H1820 C1806 0.961 . S
H1821 C1807 0.958 . S
H1822 C1807 0.961 . S
H1823 C1807 0.960 . S
C1824 C1825 1.391 . S
C1824 C1826 1.394 . S
C1824 H1840 0.931 . S
C1825 C1824 1.391 . S
C1825 C1829 1.376 . S
C1826 C1824 1.394 . S
C1826 C1827 1.369 . S
C1826 C1830 1.531 . S
C1827 C1826 1.369 . S
C1827 C1828 1.410 . S
C1827 C1835 1.503 . S
C1828 C1827 1.410 . S
C1828 C1829 1.392 . S
C1828 C1831 1.511 . S
C1829 C1825 1.376 . S
C1829 C1828 1.392 . S
C1829 H1841 0.929 . S
C1830 C1826 1.531 . S
C1830 H1842 0.960 . S
C1830 H1843 0.962 . S
C1830 H1844 0.960 . S
C1831 C1828 1.511 . S
C1831 H1845 0.961 . S
C1831 H1846 0.961 . S
C1831 H1847 0.961 . S
C1832 C1833 1.370 . S
C1832 C1834 1.363 . S
C1832 H1848 0.931 . S
C1833 C1832 1.370 . S
C1833 C1837 1.408 . S
C1834 C1832 1.363 . S
C1834 C1835 1.370 . S
C1834 C1838 1.524 . S
C1835 C1827 1.503 . S
C1835 C1834 1.370 . S
C1835 C1836 1.403 . S
C1836 C1835 1.403 . S
C1836 C1837 1.404 . S
C1836 C1839 1.539 . S
C1837 C1833 1.408 . S
C1837 C1836 1.404 . S
C1837 H1849 0.930 . S
C1838 C1834 1.524 . S
C1838 H1850 0.956 . S
C1838 H1851 0.961 . S
C1838 H1852 0.961 . S
C1839 C1836 1.539 . S
C1839 H1853 0.958 . S
C1839 H1854 0.961 . S
C1839 H1855 0.960 . S
H1840 C1824 0.931 . S
H1841 C1829 0.929 . S
H1842 C1830 0.960 . S
H1843 C1830 0.962 . S
H1844 C1830 0.960 . S
H1845 C1831 0.961 . S
H1846 C1831 0.961 . S
H1847 C1831 0.961 . S
H1848 C1832 0.931 . S
H1849 C1837 0.930 . S
H1850 C1838 0.956 . S
H1851 C1838 0.961 . S
H1852 C1838 0.961 . S
H1853 C1839 0.958 . S
H1854 C1839 0.961 . S
H1855 C1839 0.960 . S
C1856 C1857 1.391 . S
C1856 C1858 1.394 . S
C1856 H1872 0.931 . S
C1857 C1856 1.391 . S
C1857 C1861 1.376 . S
C1858 C1856 1.394 . S
C1858 C1859 1.369 . S
C1858 C1862 1.531 . S
C1859 C1858 1.369 . S
C1859 C1860 1.410 . S
C1859 C1867 1.503 . S
C1860 C1859 1.410 . S
C1860 C1861 1.392 . S
C1860 C1863 1.511 . S
C1861 C1857 1.376 . S
C1861 C1860 1.392 . S
C1861 H1873 0.929 . S
C1862 C1858 1.531 . S
C1862 H1874 0.960 . S
C1862 H1875 0.962 . S
C1862 H1876 0.960 . S
C1863 C1860 1.511 . S
C1863 H1877 0.961 . S
C1863 H1878 0.961 . S
C1863 H1879 0.961 . S
C1864 C1865 1.370 . S
C1864 C1866 1.363 . S
C1864 H1880 0.931 . S
C1865 C1864 1.370 . S
C1865 C1869 1.408 . S
C1866 C1864 1.363 . S
C1866 C1867 1.370 . S
C1866 C1870 1.524 . S
C1867 C1859 1.503 . S
C1867 C1866 1.370 . S
C1867 C1868 1.403 . S
C1868 C1867 1.403 . S
C1868 C1869 1.404 . S
C1868 C1871 1.539 . S
C1869 C1865 1.408 . S
C1869 C1868 1.404 . S
C1869 H1881 0.930 . S
C1870 C1866 1.524 . S
C1870 H1882 0.956 . S
C1870 H1883 0.961 . S
C1870 H1884 0.961 . S
C1871 C1868 1.539 . S
C1871 H1885 0.958 . S
C1871 H1886 0.961 . S
C1871 H1887 0.960 . S
H1872 C1856 0.931 . S
H1873 C1861 0.929 . S
H1874 C1862 0.960 . S
H1875 C1862 0.962 . S
H1876 C1862 0.960 . S
H1877 C1863 0.961 . S
H1878 C1863 0.961 . S
H1879 C1863 0.961 . S
H1880 C1864 0.931 . S
H1881 C1869 0.930 . S
H1882 C1870 0.956 . S
H1883 C1870 0.961 . S
H1884 C1870 0.961 . S
H1885 C1871 0.958 . S
H1886 C1871 0.961 . S
H1887 C1871 0.960 . S
C1888 C1889 1.391 . S
C1888 C1890 1.394 . S
C1888 H1904 0.931 . S
C1889 C1888 1.391 . S
C1889 C1893 1.376 . S
C1890 C1888 1.394 . S
C1890 C1891 1.362 1_556 S
C1890 C1894 1.531 . S
C1891 C1890 1.362 1_554 S
C1891 C1892 1.411 . S
C1891 C1899 1.508 . S
C1892 C1891 1.411 . S
C1892 C1893 1.392 1_554 S
C1892 C1895 1.511 . S
C1893 C1889 1.376 . S
C1893 C1892 1.392 1_556 S
C1893 H1905 0.929 . S
C1894 C1890 1.531 . S
C1894 H1906 0.960 1_556 S
C1894 H1907 0.962 . S
C1894 H1908 0.960 . S
C1895 C1892 1.511 . S
C1895 H1909 0.961 . S
C1895 H1910 0.961 . S
C1895 H1911 0.961 . S
C1896 C1897 1.329 1_556 S
C1896 C1898 1.376 . S
C1896 H1912 0.961 . S
C1897 C1896 1.329 1_554 S
C1897 C1901 1.408 . S
C1898 C1896 1.376 . S
C1898 C1899 1.370 1_556 S
C1898 C1902 1.524 . S
C1899 C1891 1.508 . S
C1899 C1898 1.370 1_554 S
C1899 C1900 1.403 . S
C1900 C1899 1.403 . S
C1900 C1901 1.404 . S
C1900 C1903 1.539 . S
C1901 C1897 1.408 . S
C1901 C1900 1.404 . S
C1901 H1913 0.930 . S
C1902 C1898 1.524 . S
C1902 H1914 0.956 . S
C1902 H1915 0.961 . S
C1902 H1916 0.961 . S
C1903 C1900 1.539 . S
C1903 H1917 0.958 . S
C1903 H1918 0.961 . S
C1903 H1919 0.960 . S
H1904 C1888 0.931 . S
H1905 C1893 0.929 . S
H1906 C1894 0.960 1_554 S
H1907 C1894 0.962 . S
H1908 C1894 0.960 . S
H1909 C1895 0.961 . S
H1910 C1895 0.961 . S
H1911 C1895 0.961 . S
H1912 C1896 0.961 . S
H1913 C1901 0.930 . S
H1914 C1902 0.956 . S
H1915 C1902 0.961 . S
H1916 C1902 0.961 . S
H1917 C1903 0.958 . S
H1918 C1903 0.961 . S
H1919 C1903 0.960 . S
C1920 C1921 1.391 . S
C1920 C1922 1.394 . S
C1920 H1936 0.931 . S
C1921 C1920 1.391 . S
C1921 C1925 1.376 . S
C1922 C1920 1.394 . S
C1922 C1923 1.369 . S
C1922 C1926 1.531 . S
C1923 C1922 1.369 . S
C1923 C1924 1.410 . S
C1923 C1931 1.503 . S
C1924 C1923 1.410 . S
C1924 C1925 1.392 . S
C1924 C1927 1.511 . S
C1925 C1921 1.376 . S
C1925 C1924 1.392 . S
C1925 H1937 0.929 . S
C1926 C1922 1.531 . S
C1926 H1938 0.960 . S
C1926 H1939 0.962 . S
C1926 H1940 0.960 . S
C1927 C1924 1.511 . S
C1927 H1941 0.961 . S
C1927 H1942 0.961 . S
C1927 H1943 0.961 . S
C1928 C1929 1.370 . S
C1928 C1930 1.363 . S
C1928 H1944 0.931 . S
C1929 C1928 1.370 . S
C1929 C1933 1.408 . S
C1930 C1928 1.363 . S
C1930 C1931 1.370 . S
C1930 C1934 1.524 . S
C1931 C1923 1.503 . S
C1931 C1930 1.370 . S
C1931 C1932 1.403 . S
C1932 C1931 1.403 . S
C1932 C1933 1.404 . S
C1932 C1935 1.539 . S
C1933 C1929 1.408 . S
C1933 C1932 1.404 . S
C1933 H1945 0.930 . S
C1934 C1930 1.524 . S
C1934 H1946 0.956 . S
C1934 H1947 0.961 . S
C1934 H1948 0.961 . S
C1935 C1932 1.539 . S
C1935 H1949 0.958 . S
C1935 H1950 0.961 . S
C1935 H1951 0.960 . S
H1936 C1920 0.931 . S
H1937 C1925 0.929 . S
H1938 C1926 0.960 . S
H1939 C1926 0.962 . S
H1940 C1926 0.960 . S
H1941 C1927 0.961 . S
H1942 C1927 0.961 . S
H1943 C1927 0.961 . S
H1944 C1928 0.931 . S
H1945 C1933 0.930 . S
H1946 C1934 0.956 . S
H1947 C1934 0.961 . S
H1948 C1934 0.961 . S
H1949 C1935 0.958 . S
H1950 C1935 0.961 . S
H1951 C1935 0.960 . S
C1952 C1953 1.391 . S
C1952 C1954 1.394 . S
C1952 H1968 0.931 . S
C1953 C1952 1.391 . S
C1953 C1957 1.376 . S
C1954 C1952 1.394 . S
C1954 C1955 1.369 . S
C1954 C1958 1.531 . S
C1955 C1954 1.369 . S
C1955 C1956 1.410 . S
C1955 C1963 1.503 . S
C1956 C1955 1.410 . S
C1956 C1957 1.392 . S
C1956 C1959 1.511 . S
C1957 C1953 1.376 . S
C1957 C1956 1.392 . S
C1957 H1969 0.929 . S
C1958 C1954 1.531 . S
C1958 H1970 0.960 . S
C1958 H1971 0.962 . S
C1958 H1972 0.960 . S
C1959 C1956 1.511 . S
C1959 H1973 0.961 . S
C1959 H1974 0.961 . S
C1959 H1975 0.961 . S
C1960 C1961 1.370 . S
C1960 C1962 1.363 . S
C1960 H1976 0.931 . S
C1961 C1960 1.370 . S
C1961 C1965 1.408 . S
C1962 C1960 1.363 . S
C1962 C1963 1.370 . S
C1962 C1966 1.524 . S
C1963 C1955 1.503 . S
C1963 C1962 1.370 . S
C1963 C1964 1.403 . S
C1964 C1963 1.403 . S
C1964 C1965 1.404 . S
C1964 C1967 1.539 . S
C1965 C1961 1.408 . S
C1965 C1964 1.404 . S
C1965 H1977 0.930 . S
C1966 C1962 1.524 . S
C1966 H1978 0.956 . S
C1966 H1979 0.961 . S
C1966 H1980 0.961 . S
C1967 C1964 1.539 . S
C1967 H1981 0.958 . S
C1967 H1982 0.961 . S
C1967 H1983 0.960 . S
H1968 C1952 0.931 . S
H1969 C1957 0.929 . S
H1970 C1958 0.960 . S
H1971 C1958 0.962 . S
H1972 C1958 0.960 . S
H1973 C1959 0.961 . S
H1974 C1959 0.961 . S
H1975 C1959 0.961 . S
H1976 C1960 0.931 . S
H1977 C1965 0.930 . S
H1978 C1966 0.956 . S
H1979 C1966 0.961 . S
H1980 C1966 0.961 . S
H1981 C1967 0.958 . S
H1982 C1967 0.961 . S
H1983 C1967 0.960 . S
C1984 C1985 1.391 . S
C1984 C1986 1.394 . S
C1984 H2000 0.931 . S
C1985 C1984 1.391 . S
C1985 C1989 1.376 . S
C1986 C1984 1.394 . S
C1986 C1987 1.369 . S
C1986 C1990 1.531 . S
C1987 C1986 1.369 . S
C1987 C1988 1.410 . S
C1987 C1995 1.503 . S
C1988 C1987 1.410 . S
C1988 C1989 1.392 . S
C1988 C1991 1.511 . S
C1989 C1985 1.376 . S
C1989 C1988 1.392 . S
C1989 H2001 0.929 . S
C1990 C1986 1.531 . S
C1990 H2002 0.960 . S
C1990 H2003 0.962 . S
C1990 H2004 0.960 . S
C1991 C1988 1.511 . S
C1991 H2005 0.961 . S
C1991 H2006 0.961 . S
C1991 H2007 0.961 . S
C1992 C1993 1.370 . S
C1992 C1994 1.363 . S
C1992 H2008 0.931 . S
C1993 C1992 1.370 . S
C1993 C1997 1.408 . S
C1994 C1992 1.363 . S
C1994 C1995 1.370 . S
C1994 C1998 1.524 . S
C1995 C1987 1.503 . S
C1995 C1994 1.370 . S
C1995 C1996 1.403 . S
C1996 C1995 1.403 . S
C1996 C1997 1.404 . S
C1996 C1999 1.539 . S
C1997 C1993 1.408 . S
C1997 C1996 1.404 . S
C1997 H2009 0.930 . S
C1998 C1994 1.524 . S
C1998 H2010 0.956 . S
C1998 H2011 0.961 . S
C1998 H2012 0.961 . S
C1999 C1996 1.539 . S
C1999 H2013 0.958 . S
C1999 H2014 0.961 . S
C1999 H2015 0.960 . S
H2000 C1984 0.931 . S
H2001 C1989 0.929 . S
H2002 C1990 0.960 . S
H2003 C1990 0.962 . S
H2004 C1990 0.960 . S
H2005 C1991 0.961 . S
H2006 C1991 0.961 . S
H2007 C1991 0.961 . S
H2008 C1992 0.931 . S
H2009 C1997 0.930 . S
H2010 C1998 0.956 . S
H2011 C1998 0.961 . S
H2012 C1998 0.961 . S
H2013 C1999 0.958 . S
H2014 C1999 0.961 . S
H2015 C1999 0.960 . S
C2016 C2017 1.391 . S
C2016 C2018 1.394 . S
C2016 H2032 0.931 . S
C2017 C2016 1.391 . S
C2017 C2021 1.376 . S
C2018 C2016 1.394 . S
C2018 C2019 1.369 . S
C2018 C2022 1.531 . S
C2019 C2018 1.369 . S
C2019 C2020 1.410 . S
C2019 C2027 1.503 . S
C2020 C2019 1.410 . S
C2020 C2021 1.392 . S
C2020 C2023 1.511 . S
C2021 C2017 1.376 . S
C2021 C2020 1.392 . S
C2021 H2033 0.929 . S
C2022 C2018 1.531 . S
C2022 H2034 0.960 . S
C2022 H2035 0.962 . S
C2022 H2036 0.960 . S
C2023 C2020 1.511 . S
C2023 H2037 0.961 . S
C2023 H2038 0.961 . S
C2023 H2039 0.961 . S
C2024 C2025 1.370 . S
C2024 C2026 1.363 . S
C2024 H2040 0.931 . S
C2025 C2024 1.370 . S
C2025 C2029 1.408 . S
C2026 C2024 1.363 . S
C2026 C2027 1.370 . S
C2026 C2030 1.524 . S
C2027 C2019 1.503 . S
C2027 C2026 1.370 . S
C2027 C2028 1.403 . S
C2028 C2027 1.403 . S
C2028 C2029 1.404 . S
C2028 C2031 1.539 . S
C2029 C2025 1.408 . S
C2029 C2028 1.404 . S
C2029 H2041 0.930 . S
C2030 C2026 1.524 . S
C2030 H2042 0.956 . S
C2030 H2043 0.961 . S
C2030 H2044 0.961 . S
C2031 C2028 1.539 . S
C2031 H2045 0.958 . S
C2031 H2046 0.961 . S
C2031 H2047 0.960 . S
H2032 C2016 0.931 . S
H2033 C2021 0.929 . S
H2034 C2022 0.960 . S
H2035 C2022 0.962 . S
H2036 C2022 0.960 . S
H2037 C2023 0.961 . S
H2038 C2023 0.961 . S
H2039 C2023 0.961 . S
H2040 C2024 0.931 . S
H2041 C2029 0.930 . S
H2042 C2030 0.956 . S
H2043 C2030 0.961 . S
H2044 C2030 0.961 . S
H2045 C2031 0.958 . S
H2046 C2031 0.961 . S
H2047 C2031 0.960 . S
C2048 C2049 1.391 . S
C2048 C2050 1.394 . S
C2048 H2064 0.931 . S
C2049 C2048 1.391 . S
C2049 C2053 1.376 . S
C2050 C2048 1.394 . S
C2050 C2051 1.369 . S
C2050 C2054 1.531 . S
C2051 C2050 1.369 . S
C2051 C2052 1.410 . S
C2051 C2059 1.503 . S
C2052 C2051 1.410 . S
C2052 C2053 1.392 . S
C2052 C2055 1.511 . S
C2053 C2049 1.376 . S
C2053 C2052 1.392 . S
C2053 H2065 0.929 . S
C2054 C2050 1.531 . S
C2054 H2066 0.960 . S
C2054 H2067 0.962 . S
C2054 H2068 0.960 . S
C2055 C2052 1.511 . S
C2055 H2069 0.961 . S
C2055 H2070 0.961 . S
C2055 H2071 0.961 . S
C2056 C2057 1.370 . S
C2056 C2058 1.363 . S
C2056 H2072 0.931 . S
C2057 C2056 1.370 . S
C2057 C2061 1.408 . S
C2058 C2056 1.363 . S
C2058 C2059 1.370 . S
C2058 C2062 1.524 . S
C2059 C2051 1.503 . S
C2059 C2058 1.370 . S
C2059 C2060 1.403 . S
C2060 C2059 1.403 . S
C2060 C2061 1.404 . S
C2060 C2063 1.539 . S
C2061 C2057 1.408 . S
C2061 C2060 1.404 . S
C2061 H2073 0.930 . S
C2062 C2058 1.524 . S
C2062 H2074 0.956 . S
C2062 H2075 0.961 . S
C2062 H2076 0.961 . S
C2063 C2060 1.539 . S
C2063 H2077 0.958 . S
C2063 H2078 0.961 . S
C2063 H2079 0.960 . S
H2064 C2048 0.931 . S
H2065 C2053 0.929 . S
H2066 C2054 0.960 . S
H2067 C2054 0.962 . S
H2068 C2054 0.960 . S
H2069 C2055 0.961 . S
H2070 C2055 0.961 . S
H2071 C2055 0.961 . S
H2072 C2056 0.931 . S
H2073 C2061 0.930 . S
H2074 C2062 0.956 . S
H2075 C2062 0.961 . S
H2076 C2062 0.961 . S
H2077 C2063 0.958 . S
H2078 C2063 0.961 . S
H2079 C2063 0.960 . S
C2080 C2081 1.391 . S
C2080 C2082 1.394 . S
C2080 H2096 0.931 . S
C2081 C2080 1.391 . S
C2081 C2085 1.376 . S
C2082 C2080 1.394 . S
C2082 C2083 1.369 . S
C2082 C2086 1.531 . S
C2083 C2082 1.369 . S
C2083 C2084 1.410 . S
C2083 C2091 1.503 . S
C2084 C2083 1.410 . S
C2084 C2085 1.392 . S
C2084 C2087 1.511 . S
C2085 C2081 1.376 . S
C2085 C2084 1.392 . S
C2085 H2097 0.929 . S
C2086 C2082 1.531 . S
C2086 H2098 0.960 . S
C2086 H2099 0.962 . S
C2086 H2100 0.960 . S
C2087 C2084 1.511 . S
C2087 H2101 0.961 . S
C2087 H2102 0.961 . S
C2087 H2103 0.961 . S
C2088 C2089 1.370 . S
C2088 C2090 1.363 . S
C2088 H2104 0.931 . S
C2089 C2088 1.370 . S
C2089 C2093 1.408 . S
C2090 C2088 1.363 . S
C2090 C2091 1.370 . S
C2090 C2094 1.524 . S
C2091 C2083 1.503 . S
C2091 C2090 1.370 . S
C2091 C2092 1.403 . S
C2092 C2091 1.403 . S
C2092 C2093 1.404 . S
C2092 C2095 1.539 . S
C2093 C2089 1.408 . S
C2093 C2092 1.404 . S
C2093 H2105 0.930 . S
C2094 C2090 1.524 . S
C2094 H2106 0.956 . S
C2094 H2107 0.961 . S
C2094 H2108 0.961 . S
C2095 C2092 1.539 . S
C2095 H2109 0.958 . S
C2095 H2110 0.961 . S
C2095 H2111 0.960 . S
H2096 C2080 0.931 . S
H2097 C2085 0.929 . S
H2098 C2086 0.960 . S
H2099 C2086 0.962 . S
H2100 C2086 0.960 . S
H2101 C2087 0.961 . S
H2102 C2087 0.961 . S
H2103 C2087 0.961 . S
H2104 C2088 0.931 . S
H2105 C2093 0.930 . S
H2106 C2094 0.956 . S
H2107 C2094 0.961 . S
H2108 C2094 0.961 . S
H2109 C2095 0.958 . S
H2110 C2095 0.961 . S
H2111 C2095 0.960 . S
C2112 C2113 1.391 . S
C2112 C2114 1.394 . S
C2112 H2128 0.931 . S
C2113 C2112 1.391 . S
C2113 C2117 1.376 . S
C2114 C2112 1.394 . S
C2114 C2115 1.369 . S
C2114 C2118 1.531 . S
C2115 C2114 1.369 . S
C2115 C2116 1.410 . S
C2115 C2123 1.503 . S
C2116 C2115 1.410 . S
C2116 C2117 1.392 . S
C2116 C2119 1.511 . S
C2117 C2113 1.376 . S
C2117 C2116 1.392 . S
C2117 H2129 0.929 . S
C2118 C2114 1.531 . S
C2118 H2130 0.960 . S
C2118 H2131 0.962 . S
C2118 H2132 0.960 . S
C2119 C2116 1.511 . S
C2119 H2133 0.961 . S
C2119 H2134 0.961 . S
C2119 H2135 0.961 . S
C2120 C2121 1.370 . S
C2120 C2122 1.363 . S
C2120 H2136 0.931 . S
C2121 C2120 1.370 . S
C2121 C2125 1.408 . S
C2122 C2120 1.363 . S
C2122 C2123 1.370 . S
C2122 C2126 1.524 . S
C2123 C2115 1.503 . S
C2123 C2122 1.370 . S
C2123 C2124 1.403 . S
C2124 C2123 1.403 . S
C2124 C2125 1.404 . S
C2124 C2127 1.539 . S
C2125 C2121 1.408 . S
C2125 C2124 1.404 . S
C2125 H2137 0.930 . S
C2126 C2122 1.524 . S
C2126 H2138 0.956 . S
C2126 H2139 0.961 . S
C2126 H2140 0.961 . S
C2127 C2124 1.539 . S
C2127 H2141 0.958 . S
C2127 H2142 0.961 . S
C2127 H2143 0.960 . S
H2128 C2112 0.931 . S
H2129 C2117 0.929 . S
H2130 C2118 0.960 . S
H2131 C2118 0.962 . S
H2132 C2118 0.960 . S
H2133 C2119 0.961 . S
H2134 C2119 0.961 . S
H2135 C2119 0.961 . S
H2136 C2120 0.931 . S
H2137 C2125 0.930 . S
H2138 C2126 0.956 . S
H2139 C2126 0.961 . S
H2140 C2126 0.961 . S
H2141 C2127 0.958 . S
H2142 C2127 0.961 . S
H2143 C2127 0.960 . S
C2144 C2145 1.391 . S
C2144 C2146 1.394 . S
C2144 H2160 0.931 . S
C2145 C2144 1.391 . S
C2145 C2149 1.376 . S
C2146 C2144 1.394 . S
C2146 C2147 1.369 . S
C2146 C2150 1.531 . S
C2147 C2146 1.369 . S
C2147 C2148 1.410 . S
C2147 C2155 1.503 . S
C2148 C2147 1.410 . S
C2148 C2149 1.392 . S
C2148 C2151 1.511 . S
C2149 C2145 1.376 . S
C2149 C2148 1.392 . S
C2149 H2161 0.929 . S
C2150 C2146 1.531 . S
C2150 H2162 0.960 . S
C2150 H2163 0.962 . S
C2150 H2164 0.960 . S
C2151 C2148 1.511 . S
C2151 H2165 0.961 . S
C2151 H2166 0.961 . S
C2151 H2167 0.961 . S
C2152 C2153 1.370 . S
C2152 C2154 1.363 . S
C2152 H2168 0.931 . S
C2153 C2152 1.370 . S
C2153 C2157 1.408 . S
C2154 C2152 1.363 . S
C2154 C2155 1.370 . S
C2154 C2158 1.524 . S
C2155 C2147 1.503 . S
C2155 C2154 1.370 . S
C2155 C2156 1.403 . S
C2156 C2155 1.403 . S
C2156 C2157 1.404 . S
C2156 C2159 1.539 . S
C2157 C2153 1.408 . S
C2157 C2156 1.404 . S
C2157 H2169 0.930 . S
C2158 C2154 1.524 . S
C2158 H2170 0.956 . S
C2158 H2171 0.961 . S
C2158 H2172 0.961 . S
C2159 C2156 1.539 . S
C2159 H2173 0.958 . S
C2159 H2174 0.961 . S
C2159 H2175 0.960 . S
H2160 C2144 0.931 . S
H2161 C2149 0.929 . S
H2162 C2150 0.960 . S
H2163 C2150 0.962 . S
H2164 C2150 0.960 . S
H2165 C2151 0.961 . S
H2166 C2151 0.961 . S
H2167 C2151 0.961 . S
H2168 C2152 0.931 . S
H2169 C2157 0.930 . S
H2170 C2158 0.956 . S
H2171 C2158 0.961 . S
H2172 C2158 0.961 . S
H2173 C2159 0.958 . S
H2174 C2159 0.961 . S
H2175 C2159 0.960 . S
C2176 C2177 1.391 . S
C2176 C2178 1.394 . S
C2176 H2192 0.931 . S
C2177 C2176 1.391 . S
C2177 C2181 1.376 . S
C2178 C2176 1.394 . S
C2178 C2179 1.369 . S
C2178 C2182 1.531 . S
C2179 C2178 1.369 . S
C2179 C2180 1.410 . S
C2179 C2187 1.503 . S
C2180 C2179 1.410 . S
C2180 C2181 1.392 . S
C2180 C2183 1.511 . S
C2181 C2177 1.376 . S
C2181 C2180 1.392 . S
C2181 H2193 0.929 . S
C2182 C2178 1.531 . S
C2182 H2194 0.960 . S
C2182 H2195 0.962 . S
C2182 H2196 0.960 . S
C2183 C2180 1.511 . S
C2183 H2197 0.961 . S
C2183 H2198 0.961 . S
C2183 H2199 0.961 . S
C2184 C2185 1.370 . S
C2184 C2186 1.363 . S
C2184 H2200 0.931 . S
C2185 C2184 1.370 . S
C2185 C2189 1.408 . S
C2186 C2184 1.363 . S
C2186 C2187 1.370 . S
C2186 C2190 1.524 . S
C2187 C2179 1.503 . S
C2187 C2186 1.370 . S
C2187 C2188 1.403 . S
C2188 C2187 1.403 . S
C2188 C2189 1.404 . S
C2188 C2191 1.539 . S
C2189 C2185 1.408 . S
C2189 C2188 1.404 . S
C2189 H2201 0.930 . S
C2190 C2186 1.524 . S
C2190 H2202 0.956 . S
C2190 H2203 0.961 . S
C2190 H2204 0.961 . S
C2191 C2188 1.539 . S
C2191 H2205 0.958 . S
C2191 H2206 0.961 . S
C2191 H2207 0.960 . S
H2192 C2176 0.931 . S
H2193 C2181 0.929 . S
H2194 C2182 0.960 . S
H2195 C2182 0.962 . S
H2196 C2182 0.960 . S
H2197 C2183 0.961 . S
H2198 C2183 0.961 . S
H2199 C2183 0.961 . S
H2200 C2184 0.931 . S
H2201 C2189 0.930 . S
H2202 C2190 0.956 . S
H2203 C2190 0.961 . S
H2204 C2190 0.961 . S
H2205 C2191 0.958 . S
H2206 C2191 0.961 . S
H2207 C2191 0.960 . S
C2208 C2209 1.391 . S
C2208 C2210 1.394 . S
C2208 H2224 0.931 . S
C2209 C2208 1.391 . S
C2209 C2213 1.376 . S
C2210 C2208 1.394 . S
C2210 C2211 1.369 . S
C2210 C2214 1.531 . S
C2211 C2210 1.369 . S
C2211 C2212 1.410 . S
C2211 C2219 1.503 . S
C2212 C2211 1.410 . S
C2212 C2213 1.392 . S
C2212 C2215 1.511 . S
C2213 C2209 1.376 . S
C2213 C2212 1.392 . S
C2213 H2225 0.929 . S
C2214 C2210 1.531 . S
C2214 H2226 0.960 . S
C2214 H2227 0.962 . S
C2214 H2228 0.960 . S
C2215 C2212 1.511 . S
C2215 H2229 0.961 . S
C2215 H2230 0.961 . S
C2215 H2231 0.961 . S
C2216 C2217 1.370 . S
C2216 C2218 1.363 . S
C2216 H2232 0.931 . S
C2217 C2216 1.370 . S
C2217 C2221 1.408 . S
C2218 C2216 1.363 . S
C2218 C2219 1.370 . S
C2218 C2222 1.524 . S
C2219 C2211 1.503 . S
C2219 C2218 1.370 . S
C2219 C2220 1.403 . S
C2220 C2219 1.403 . S
C2220 C2221 1.404 . S
C2220 C2223 1.539 . S
C2221 C2217 1.408 . S
C2221 C2220 1.404 . S
C2221 H2233 0.930 . S
C2222 C2218 1.524 . S
C2222 H2234 0.956 . S
C2222 H2235 0.961 . S
C2222 H2236 0.961 . S
C2223 C2220 1.539 . S
C2223 H2237 0.958 . S
C2223 H2238 0.961 . S
C2223 H2239 0.960 . S
H2224 C2208 0.931 . S
H2225 C2213 0.929 . S
H2226 C2214 0.960 . S
H2227 C2214 0.962 . S
H2228 C2214 0.960 . S
H2229 C2215 0.961 . S
H2230 C2215 0.961 . S
H2231 C2215 0.961 . S
H2232 C2216 0.931 . S
H2233 C2221 0.930 . S
H2234 C2222 0.956 . S
H2235 C2222 0.961 . S
H2236 C2222 0.961 . S
H2237 C2223 0.958 . S
H2238 C2223 0.961 . S
H2239 C2223 0.960 . S
C2240 C2241 1.391 . S
C2240 C2242 1.394 . S
C2240 H2256 0.931 . S
C2241 C2240 1.391 . S
C2241 C2245 1.376 . S
C2242 C2240 1.394 . S
C2242 C2243 1.369 . S
C2242 C2246 1.531 . S
C2243 C2242 1.369 . S
C2243 C2244 1.410 . S
C2243 C2251 1.503 . S
C2244 C2243 1.410 . S
C2244 C2245 1.392 . S
C2244 C2247 1.511 . S
C2245 C2241 1.376 . S
C2245 C2244 1.392 . S
C2245 H2257 0.929 . S
C2246 C2242 1.531 . S
C2246 H2258 0.960 . S
C2246 H2259 0.962 . S
C2246 H2260 0.960 . S
C2247 C2244 1.511 . S
C2247 H2261 0.961 . S
C2247 H2262 0.961 . S
C2247 H2263 0.961 . S
C2248 C2249 1.370 . S
C2248 C2250 1.363 . S
C2248 H2264 0.931 . S
C2249 C2248 1.370 . S
C2249 C2253 1.408 . S
C2250 C2248 1.363 . S
C2250 C2251 1.370 . S
C2250 C2254 1.524 . S
C2251 C2243 1.503 . S
C2251 C2250 1.370 . S
C2251 C2252 1.403 . S
C2252 C2251 1.403 . S
C2252 C2253 1.404 . S
C2252 C2255 1.539 . S
C2253 C2249 1.408 . S
C2253 C2252 1.404 . S
C2253 H2265 0.930 . S
C2254 C2250 1.524 . S
C2254 H2266 0.956 . S
C2254 H2267 0.961 . S
C2254 H2268 0.961 . S
C2255 C2252 1.539 . S
C2255 H2269 0.958 . S
C2255 H2270 0.961 . S
C2255 H2271 0.960 . S
H2256 C2240 0.931 . S
H2257 C2245 0.929 . S
H2258 C2246 0.960 . S
H2259 C2246 0.962 . S
H2260 C2246 0.960 . S
H2261 C2247 0.961 . S
H2262 C2247 0.961 . S
H2263 C2247 0.961 . S
H2264 C2248 0.931 . S
H2265 C2253 0.930 . S
H2266 C2254 0.956 . S
H2267 C2254 0.961 . S
H2268 C2254 0.961 . S
H2269 C2255 0.958 . S
H2270 C2255 0.961 . S
H2271 C2255 0.960 . S
C2272 C2273 1.391 . S
C2272 C2274 1.394 . S
C2272 H2288 0.931 . S
C2273 C2272 1.391 . S
C2273 C2277 1.376 . S
C2274 C2272 1.394 . S
C2274 C2275 1.369 . S
C2274 C2278 1.531 . S
C2275 C2274 1.369 . S
C2275 C2276 1.410 . S
C2275 C2283 1.503 . S
C2276 C2275 1.410 . S
C2276 C2277 1.392 . S
C2276 C2279 1.511 . S
C2277 C2273 1.376 . S
C2277 C2276 1.392 . S
C2277 H2289 0.929 . S
C2278 C2274 1.531 . S
C2278 H2290 0.960 . S
C2278 H2291 0.962 . S
C2278 H2292 0.960 . S
C2279 C2276 1.511 . S
C2279 H2293 0.961 . S
C2279 H2294 0.961 . S
C2279 H2295 0.961 . S
C2280 C2281 1.370 . S
C2280 C2282 1.363 . S
C2280 H2296 0.931 . S
C2281 C2280 1.370 . S
C2281 C2285 1.408 . S
C2282 C2280 1.363 . S
C2282 C2283 1.370 . S
C2282 C2286 1.524 . S
C2283 C2275 1.503 . S
C2283 C2282 1.370 . S
C2283 C2284 1.403 . S
C2284 C2283 1.403 . S
C2284 C2285 1.404 . S
C2284 C2287 1.539 . S
C2285 C2281 1.408 . S
C2285 C2284 1.404 . S
C2285 H2297 0.930 . S
C2286 C2282 1.524 . S
C2286 H2298 0.956 . S
C2286 H2299 0.961 . S
C2286 H2300 0.961 . S
C2287 C2284 1.539 . S
C2287 H2301 0.958 . S
C2287 H2302 0.961 . S
C2287 H2303 0.960 . S
H2288 C2272 0.931 . S
H2289 C2277 0.929 . S
H2290 C2278 0.960 . S
H2291 C2278 0.962 . S
H2292 C2278 0.960 . S
H2293 C2279 0.961 . S
H2294 C2279 0.961 . S
H2295 C2279 0.961 . S
H2296 C2280 0.931 . S
H2297 C2285 0.930 . S
H2298 C2286 0.956 . S
H2299 C2286 0.961 . S
H2300 C2286 0.961 . S
H2301 C2287 0.958 . S
H2302 C2287 0.961 . S
H2303 C2287 0.960 . S
C2304 C2305 1.391 . S
C2304 C2306 1.394 . S
C2304 H2320 0.931 . S
C2305 C2304 1.391 . S
C2305 C2309 1.376 . S
C2306 C2304 1.394 . S
C2306 C2307 1.369 . S
C2306 C2310 1.531 . S
C2307 C2306 1.369 . S
C2307 C2308 1.410 . S
C2307 C2315 1.503 . S
C2308 C2307 1.410 . S
C2308 C2309 1.392 . S
C2308 C2311 1.511 . S
C2309 C2305 1.376 . S
C2309 C2308 1.392 . S
C2309 H2321 0.929 . S
C2310 C2306 1.531 . S
C2310 H2322 0.960 . S
C2310 H2323 0.962 . S
C2310 H2324 0.960 . S
C2311 C2308 1.511 . S
C2311 H2325 0.961 . S
C2311 H2326 0.961 . S
C2311 H2327 0.961 . S
C2312 C2313 1.370 . S
C2312 C2314 1.363 . S
C2312 H2328 0.931 . S
C2313 C2312 1.370 . S
C2313 C2317 1.408 . S
C2314 C2312 1.363 . S
C2314 C2315 1.370 . S
C2314 C2318 1.524 . S
C2315 C2307 1.503 . S
C2315 C2314 1.370 . S
C2315 C2316 1.403 . S
C2316 C2315 1.403 . S
C2316 C2317 1.404 . S
C2316 C2319 1.539 . S
C2317 C2313 1.408 . S
C2317 C2316 1.404 . S
C2317 H2329 0.930 . S
C2318 C2314 1.524 . S
C2318 H2330 0.956 . S
C2318 H2331 0.961 . S
C2318 H2332 0.961 . S
C2319 C2316 1.539 . S
C2319 H2333 0.958 . S
C2319 H2334 0.961 . S
C2319 H2335 0.960 . S
H2320 C2304 0.931 . S
H2321 C2309 0.929 . S
H2322 C2310 0.960 . S
H2323 C2310 0.962 . S
H2324 C2310 0.960 . S
H2325 C2311 0.961 . S
H2326 C2311 0.961 . S
H2327 C2311 0.961 . S
H2328 C2312 0.931 . S
H2329 C2317 0.930 . S
H2330 C2318 0.956 . S
H2331 C2318 0.961 . S
H2332 C2318 0.961 . S
H2333 C2319 0.958 . S
H2334 C2319 0.961 . S
H2335 C2319 0.960 . S
C2336 C2337 1.391 . S
C2336 C2338 1.394 . S
C2336 H2352 0.931 . S
C2337 C2336 1.391 . S
C2337 C2341 1.376 . S
C2338 C2336 1.394 . S
C2338 C2339 1.369 . S
C2338 C2342 1.531 . S
C2339 C2338 1.369 . S
C2339 C2340 1.410 . S
C2339 C2347 1.503 . S
C2340 C2339 1.410 . S
C2340 C2341 1.392 . S
C2340 C2343 1.511 . S
C2341 C2337 1.376 . S
C2341 C2340 1.392 . S
C2341 H2353 0.929 . S
C2342 C2338 1.531 . S
C2342 H2354 0.960 . S
C2342 H2355 0.962 . S
C2342 H2356 0.960 . S
C2343 C2340 1.511 . S
C2343 H2357 0.961 . S
C2343 H2358 0.961 . S
C2343 H2359 0.961 . S
C2344 C2345 1.370 . S
C2344 C2346 1.363 . S
C2344 H2360 0.931 . S
C2345 C2344 1.370 . S
C2345 C2349 1.408 . S
C2346 C2344 1.363 . S
C2346 C2347 1.370 . S
C2346 C2350 1.524 . S
C2347 C2339 1.503 . S
C2347 C2346 1.370 . S
C2347 C2348 1.403 . S
C2348 C2347 1.403 . S
C2348 C2349 1.404 . S
C2348 C2351 1.539 . S
C2349 C2345 1.408 . S
C2349 C2348 1.404 . S
C2349 H2361 0.930 . S
C2350 C2346 1.524 . S
C2350 H2362 0.956 . S
C2350 H2363 0.961 . S
C2350 H2364 0.961 . S
C2351 C2348 1.539 . S
C2351 H2365 0.958 . S
C2351 H2366 0.961 . S
C2351 H2367 0.960 . S
H2352 C2336 0.931 . S
H2353 C2341 0.929 . S
H2354 C2342 0.960 . S
H2355 C2342 0.962 . S
H2356 C2342 0.960 . S
H2357 C2343 0.961 . S
H2358 C2343 0.961 . S
H2359 C2343 0.961 . S
H2360 C2344 0.931 . S
H2361 C2349 0.930 . S
H2362 C2350 0.956 . S
H2363 C2350 0.961 . S
H2364 C2350 0.961 . S
H2365 C2351 0.958 . S
H2366 C2351 0.961 . S
H2367 C2351 0.960 . S
C2368 C2369 1.391 . S
C2368 C2370 1.394 . S
C2368 H2384 0.931 . S
C2369 C2368 1.391 . S
C2369 C2373 1.376 . S
C2370 C2368 1.394 . S
C2370 C2371 1.369 . S
C2370 C2374 1.531 . S
C2371 C2370 1.369 . S
C2371 C2372 1.410 . S
C2371 C2379 1.503 . S
C2372 C2371 1.410 . S
C2372 C2373 1.392 . S
C2372 C2375 1.511 . S
C2373 C2369 1.376 . S
C2373 C2372 1.392 . S
C2373 H2385 0.929 . S
C2374 C2370 1.531 . S
C2374 H2386 0.960 . S
C2374 H2387 0.962 . S
C2374 H2388 0.960 . S
C2375 C2372 1.511 . S
C2375 H2389 0.961 . S
C2375 H2390 0.961 . S
C2375 H2391 0.961 . S
C2376 C2377 1.370 . S
C2376 C2378 1.363 . S
C2376 H2392 0.931 . S
C2377 C2376 1.370 . S
C2377 C2381 1.408 . S
C2378 C2376 1.363 . S
C2378 C2379 1.370 . S
C2378 C2382 1.524 . S
C2379 C2371 1.503 . S
C2379 C2378 1.370 . S
C2379 C2380 1.403 . S
C2380 C2379 1.403 . S
C2380 C2381 1.404 . S
C2380 C2383 1.539 . S
C2381 C2377 1.408 . S
C2381 C2380 1.404 . S
C2381 H2393 0.930 . S
C2382 C2378 1.524 . S
C2382 H2394 0.956 . S
C2382 H2395 0.961 . S
C2382 H2396 0.961 . S
C2383 C2380 1.539 . S
C2383 H2397 0.958 . S
C2383 H2398 0.961 . S
C2383 H2399 0.960 . S
H2384 C2368 0.931 . S
H2385 C2373 0.929 . S
H2386 C2374 0.960 . S
H2387 C2374 0.962 . S
H2388 C2374 0.960 . S
H2389 C2375 0.961 . S
H2390 C2375 0.961 . S
H2391 C2375 0.961 . S
H2392 C2376 0.931 . S
H2393 C2381 0.930 . S
H2394 C2382 0.956 . S
H2395 C2382 0.961 . S
H2396 C2382 0.961 . S
H2397 C2383 0.958 . S
H2398 C2383 0.961 . S
H2399 C2383 0.960 . S
C2400 C2401 1.391 . S
C2400 C2402 1.394 . S
C2400 H2416 0.931 . S
C2401 C2400 1.391 . S
C2401 C2405 1.376 . S
C2402 C2400 1.394 . S
C2402 C2403 1.369 . S
C2402 C2406 1.531 . S
C2403 C2402 1.369 . S
C2403 C2404 1.410 . S
C2403 C2411 1.503 . S
C2404 C2403 1.410 . S
C2404 C2405 1.392 . S
C2404 C2407 1.511 . S
C2405 C2401 1.376 . S
C2405 C2404 1.392 . S
C2405 H2417 0.929 . S
C2406 C2402 1.531 . S
C2406 H2418 0.960 . S
C2406 H2419 0.962 . S
C2406 H2420 0.960 . S
C2407 C2404 1.511 . S
C2407 H2421 0.961 . S
C2407 H2422 0.961 . S
C2407 H2423 0.961 . S
C2408 C2409 1.370 . S
C2408 C2410 1.363 . S
C2408 H2424 0.931 . S
C2409 C2408 1.370 . S
C2409 C2413 1.408 . S
C2410 C2408 1.363 . S
C2410 C2411 1.370 . S
C2410 C2414 1.524 . S
C2411 C2403 1.503 . S
C2411 C2410 1.370 . S
C2411 C2412 1.403 . S
C2412 C2411 1.403 . S
C2412 C2413 1.404 . S
C2412 C2415 1.539 . S
C2413 C2409 1.408 . S
C2413 C2412 1.404 . S
C2413 H2425 0.930 . S
C2414 C2410 1.524 . S
C2414 H2426 0.956 . S
C2414 H2427 0.961 . S
C2414 H2428 0.961 . S
C2415 C2412 1.539 . S
C2415 H2429 0.958 . S
C2415 H2430 0.961 . S
C2415 H2431 0.960 . S
H2416 C2400 0.931 . S
H2417 C2405 0.929 . S
H2418 C2406 0.960 . S
H2419 C2406 0.962 . S
H2420 C2406 0.960 . S
H2421 C2407 0.961 . S
H2422 C2407 0.961 . S
H2423 C2407 0.961 . S
H2424 C2408 0.931 . S
H2425 C2413 0.930 . S
H2426 C2414 0.956 . S
H2427 C2414 0.961 . S
H2428 C2414 0.961 . S
H2429 C2415 0.958 . S
H2430 C2415 0.961 . S
H2431 C2415 0.960 . S
C2432 C2433 1.391 . S
C2432 C2434 1.394 . S
C2432 H2448 0.931 . S
C2433 C2432 1.391 . S
C2433 C2437 1.376 . S
C2434 C2432 1.394 . S
C2434 C2435 1.369 . S
C2434 C2438 1.531 . S
C2435 C2434 1.369 . S
C2435 C2436 1.410 . S
C2435 C2443 1.503 . S
C2436 C2435 1.410 . S
C2436 C2437 1.392 . S
C2436 C2439 1.511 . S
C2437 C2433 1.376 . S
C2437 C2436 1.392 . S
C2437 H2449 0.929 . S
C2438 C2434 1.531 . S
C2438 H2450 0.960 . S
C2438 H2451 0.962 . S
C2438 H2452 0.960 . S
C2439 C2436 1.511 . S
C2439 H2453 0.961 . S
C2439 H2454 0.961 . S
C2439 H2455 0.961 . S
C2440 C2441 1.370 . S
C2440 C2442 1.363 . S
C2440 H2456 0.931 . S
C2441 C2440 1.370 . S
C2441 C2445 1.408 . S
C2442 C2440 1.363 . S
C2442 C2443 1.370 . S
C2442 C2446 1.524 . S
C2443 C2435 1.503 . S
C2443 C2442 1.370 . S
C2443 C2444 1.403 . S
C2444 C2443 1.403 . S
C2444 C2445 1.404 . S
C2444 C2447 1.539 . S
C2445 C2441 1.408 . S
C2445 C2444 1.404 . S
C2445 H2457 0.930 . S
C2446 C2442 1.524 . S
C2446 H2458 0.956 . S
C2446 H2459 0.961 . S
C2446 H2460 0.961 . S
C2447 C2444 1.539 . S
C2447 H2461 0.958 . S
C2447 H2462 0.961 . S
C2447 H2463 0.960 . S
H2448 C2432 0.931 . S
H2449 C2437 0.929 . S
H2450 C2438 0.960 . S
H2451 C2438 0.962 . S
H2452 C2438 0.960 . S
H2453 C2439 0.961 . S
H2454 C2439 0.961 . S
H2455 C2439 0.961 . S
H2456 C2440 0.931 . S
H2457 C2445 0.930 . S
H2458 C2446 0.956 . S
H2459 C2446 0.961 . S
H2460 C2446 0.961 . S
H2461 C2447 0.958 . S
H2462 C2447 0.961 . S
H2463 C2447 0.960 . S
C417 C112 1.620 . S
C425 C8 1.641 . S
C449 C333 1.610 . S
C457 C21 1.649 . S
C481 C138 1.611 . S
C489 C34 1.646 . S
C513 C359 1.641 . S
C521 C47 1.633 . S
C545 C164 1.662 . S
C553 C60 1.626 . S
C577 C73 1.651 . S
C585 C385 1.632 . S
C609 C86 1.612 . S
C617 C190 1.645 . S
C641 C99 1.656 . S
C649 C411 1.627 . S
C673 C229 1.605 . S
C681 C125 1.650 . S
C705 C255 1.615 . S
C713 C151 1.647 . S
C737 C177 1.622 . S
C745 C281 1.644 . S
C769 C203 1.608 . S
C777 C307 1.647 . S
C801 C216 1.654 . S
C809 C320 1.628 . S
C833 C346 1.655 . S
C841 C242 1.628 . S
C865 C268 1.647 . S
C873 C372 1.634 . S
C897 C398 1.606 . S
C905 C294 1.649 . S
C929 C239 1.159 . S
C937 C5 1.165 . S
C961 C252 1.141 . S
C969 C18 1.171 . S
C993 C31 1.212 . S
C1001 C213 1.189 . S
C1025 C44 1.210 . S
C1033 C226 1.192 . S
C1057 C291 1.212 . S
C1065 C57 1.186 . S
C1089 C70 1.166 . S
C1097 C304 1.189 . S
C1121 C265 1.204 . S
C1129 C83 1.194 . S
C1153 C278 1.189 . S
C1161 C96 1.194 . S
C1185 C109 1.177 . S
C1193 C343 1.189 . S
C1217 C356 1.177 . S
C1225 C122 1.189 . S
C1249 C135 1.158 . S
C1257 C317 1.165 . S
C1281 C148 1.141 . S
C1289 C330 1.166 . S
C1313 C161 1.171 . S
C1321 C395 1.168 . S
C1345 C174 1.208 . S
C1353 C408 1.186 . S
C1377 C369 1.209 . S
C1385 C187 1.194 . S
C1409 C382 1.146 . S
C1417 C200 1.165 . S
C1441 C78 1.228 . S
C1449 C0 1.270 . S
C1473 C91 1.284 . S
C1481 C13 1.244 . S
C1505 C52 1.230 . S
C1513 C26 1.269 . S
C1537 C39 1.278 . S
C1545 C65 1.246 . S
C1569 C182 1.274 . S
C1577 C104 1.248 . S
C1601 C195 1.281 . S
C1609 C117 1.247 . S
C1633 C156 1.241 . S
C1641 C130 1.265 . S
C1665 C169 1.281 . S
C1673 C143 1.247 . S
C1697 C286 1.286 . S
C1705 C208 1.243 . S
C1729 C299 1.221 . S
C1737 C221 1.270 . S
C1761 C234 1.228 . S
C1769 C260 1.266 . S
C1793 C247 1.252 . S
C1801 C273 1.262 . S
C1825 C390 1.226 . S
C1833 C312 1.270 . S
C1857 C403 1.262 . S
C1865 C325 1.256 . S
C1889 C338 1.288 . S
C1897 C364 1.243 . S
C1921 C351 1.235 . S
C1929 C377 1.267 . S
C1953 C10 1.480 . S
C1961 C283 1.486 . S
C1985 C296 1.482 . S
C1993 C23 1.487 . S
C2017 C309 1.477 . S
C2025 C36 1.483 . S
C2049 C49 1.486 . S
C2057 C270 1.486 . S
C2081 C257 1.486 . S
C2089 C62 1.486 . S
C2113 C75 1.478 . S
C2121 C218 1.483 . S
C2145 C231 1.486 . S
C2153 C88 1.487 . S
C2177 C101 1.477 . S
C2185 C244 1.483 . S
C2209 C387 1.478 . S
C2217 C114 1.486 . S
C2241 C400 1.477 . S
C2249 C127 1.483 . S
C2273 C140 1.485 . S
C2281 C413 1.486 . S
C2305 C374 1.477 . S
C2313 C153 1.483 . S
C2337 C361 1.480 . S
C2345 C166 1.486 . S
C2369 C179 1.479 . S
C2377 C322 1.486 . S
C2401 C335 1.484 . S
C2409 C192 1.484 . S
C2433 C205 1.479 . S
C2441 C348 1.486 . S
