# Generated by pormake.
# Topology umf, (4)-cn, num edge types: 1
# Building blocks:
#     Node 0, Type 0, BuildingBlock: CEKHIL_clean_sbu_0, # of connection points: 4
#     Node 1, Type 0, BuildingBlock: CEKHIL_clean_sbu_0, # of connection points: 4
#     Node 2, Type 0, BuildingBlock: CEKHIL_clean_sbu_0, # of connection points: 4
#     Node 3, Type 0, BuildingBlock: CEKHIL_clean_sbu_0, # of connection points: 4
#     Node 4, Type 0, BuildingBlock: CEKHIL_clean_sbu_0, # of connection points: 4
#     Node 5, Type 0, BuildingBlock: CEKHIL_clean_sbu_0, # of connection points: 4
#     Node 6, Type 0, BuildingBlock: CEKHIL_clean_sbu_0, # of connection points: 4
#     Node 7, Type 0, BuildingBlock: CEKHIL_clean_sbu_0, # of connection points: 4
#     Edge 8, Type (0, 0), BuildingBlock: ZUJKAS_clean_linker_0, # of connection points: 2
#     Edge 9, Type (0, 0), BuildingBlock: ZUJKAS_clean_linker_0, # of connection points: 2
#     Edge 10, Type (0, 0), BuildingBlock: ZUJKAS_clean_linker_0, # of connection points: 2
#     Edge 11, Type (0, 0), BuildingBlock: ZUJKAS_clean_linker_0, # of connection points: 2
#     Edge 12, Type (0, 0), BuildingBlock: ZUJKAS_clean_linker_0, # of connection points: 2
#     Edge 13, Type (0, 0), BuildingBlock: ZUJKAS_clean_linker_0, # of connection points: 2
#     Edge 14, Type (0, 0), BuildingBlock: ZUJKAS_clean_linker_0, # of connection points: 2
#     Edge 15, Type (0, 0), BuildingBlock: ZUJKAS_clean_linker_0, # of connection points: 2
#     Edge 16, Type (0, 0), BuildingBlock: ZUJKAS_clean_linker_0, # of connection points: 2
#     Edge 17, Type (0, 0), BuildingBlock: ZUJKAS_clean_linker_0, # of connection points: 2
#     Edge 18, Type (0, 0), BuildingBlock: ZUJKAS_clean_linker_0, # of connection points: 2
#     Edge 19, Type (0, 0), BuildingBlock: ZUJKAS_clean_linker_0, # of connection points: 2
#     Edge 20, Type (0, 0), BuildingBlock: ZUJKAS_clean_linker_0, # of connection points: 2
#     Edge 21, Type (0, 0), BuildingBlock: ZUJKAS_clean_linker_0, # of connection points: 2
#     Edge 22, Type (0, 0), BuildingBlock: ZUJKAS_clean_linker_0, # of connection points: 2
#     Edge 23, Type (0, 0), BuildingBlock: ZUJKAS_clean_linker_0, # of connection points: 2
# Relax obj value: 0.166
# Max RMSD: 0.287
# Mean RMSD: 0.281
data_MOF--net-umf--node1-CEKHIL_clean_sbu_0--edge1-ZUJKAS_clean_linker_0
_symmetry_space_group_name_H-M    P1
_symmetry_Int_Tables_number       1
_symmetry_cell_setting            triclinic
loop_
_symmetry_equiv_pos_as_xyz
'x, y, z'
_cell_length_a     36.067592
_cell_length_b     34.521476
_cell_length_c     68.432846
_cell_angle_alpha  89.995978
_cell_angle_beta   89.999725
_cell_angle_gamma 89.995326
loop_
_atom_site_label
_atom_site_type_symbol
_atom_site_fract_x
_atom_site_fract_y
_atom_site_fract_z
_atom_type_partial_charge
Co0 Co 0.07375 0.23938 0.14273 0.0
O1 O 0.10056 0.25447 0.1655 0.0
O2 O 0.12025 0.21051 0.14431 0.0
C3 C 0.05844 0.29936 0.13344 0.0
O4 O 0.05204 0.21934 0.1169 0.0
Co5 Co 0.98941 0.25698 0.14334 0.0
O6 O 0.99484 0.24543 0.1151 0.0
C7 C 0.01695 0.1909 0.16559 0.0
C8 C 0.12565 0.22969 0.1605 0.0
C9 C 0.02191 0.22717 0.10741 0.0
O10 O 0.04895 0.19683 0.15792 0.0
O11 O 0.98931 0.21345 0.1628 0.0
O12 O 0.09073 0.28532 0.12885 0.0
O13 O 0.03882 0.27865 0.14528 0.0
Co14 Co 0.75307 0.09279 0.63388 0.0
O15 O 0.70174 0.10288 0.62932 0.0
O16 O 0.72527 0.04477 0.63525 0.0
C17 C 0.76232 0.14051 0.65553 0.0
O18 O 0.80515 0.07293 0.64012 0.0
Co19 Co 0.80883 0.15361 0.61965 0.0
O20 O 0.84313 0.12417 0.63657 0.0
C21 C 0.77844 0.09977 0.59092 0.0
C22 C 0.69623 0.06613 0.63173 0.0
C23 C 0.83687 0.08966 0.64228 0.0
O24 O 0.76096 0.08378 0.60512 0.0
O25 O 0.7985 0.13002 0.59322 0.0
O26 O 0.74783 0.10787 0.66086 0.0
O27 O 0.76632 0.14562 0.63681 0.0
Co28 Co 0.93358 0.74453 0.14306 0.0
O29 O 0.90687 0.72949 0.16588 0.0
O30 O 0.88603 0.77136 0.14394 0.0
C31 C 0.95183 0.68519 0.13455 0.0
O32 O 0.95487 0.76406 0.11702 0.0
Co33 Co 0.01852 0.73202 0.14422 0.0
O34 O 0.01232 0.73858 0.11564 0.0
C35 C 0.98745 0.79764 0.16534 0.0
C36 C 0.8811 0.75316 0.16045 0.0
C37 C 0.98473 0.75525 0.10754 0.0
O38 O 0.95589 0.78898 0.15789 0.0
O39 O 0.01666 0.77735 0.1626 0.0
O40 O 0.91896 0.69732 0.12971 0.0
O41 O 0.97033 0.70722 0.14633 0.0
Co42 Co 0.26425 0.90541 0.63679 0.0
O43 O 0.31465 0.89409 0.63027 0.0
O44 O 0.2928 0.9529 0.63627 0.0
C45 C 0.25775 0.85897 0.6595 0.0
O46 O 0.21358 0.92689 0.64474 0.0
Co47 Co 0.20451 0.84538 0.62652 0.0
O48 O 0.1752 0.87559 0.64563 0.0
C49 C 0.23133 0.89674 0.5955 0.0
C50 C 0.32097 0.93089 0.63194 0.0
C51 C 0.18262 0.9108 0.64954 0.0
O52 O 0.25215 0.91268 0.60838 0.0
O53 O 0.21033 0.86782 0.59938 0.0
O54 O 0.27351 0.89169 0.66363 0.0
O55 O 0.2503 0.85321 0.64112 0.0
Co56 Co 0.06242 0.74889 0.86248 0.0
O57 O 0.07776 0.73017 0.83747 0.0
O58 O 0.11274 0.76617 0.85691 0.0
C59 C 0.03768 0.69336 0.87311 0.0
O60 O 0.05443 0.7711 0.88996 0.0
Co61 Co 0.97756 0.75255 0.8694 0.0
O62 O 0.99313 0.7659 0.8963 0.0
C63 C 0.01191 0.81172 0.84508 0.0
C64 C 0.10881 0.74804 0.84031 0.0
C65 C 0.02616 0.77418 0.90146 0.0
O66 O 0.04345 0.79757 0.84995 0.0
O67 O 0.98111 0.79635 0.85015 0.0
O68 O 0.07321 0.69913 0.87429 0.0
O69 O 0.01925 0.71901 0.86331 0.0
Co70 Co 0.24553 0.09238 0.37151 0.0
O71 O 0.29802 0.09742 0.37369 0.0
O72 O 0.26822 0.04138 0.37191 0.0
C73 C 0.23769 0.13641 0.34788 0.0
O74 O 0.19102 0.07754 0.36829 0.0
Co75 Co 0.19815 0.16154 0.38432 0.0
O76 O 0.15912 0.13343 0.36985 0.0
C77 C 0.22639 0.1098 0.41459 0.0
C78 C 0.29958 0.05995 0.37336 0.0
C79 C 0.16095 0.09732 0.36614 0.0
O80 O 0.24114 0.08996 0.40079 0.0
O81 O 0.20838 0.14113 0.41144 0.0
O82 O 0.24796 0.10141 0.34374 0.0
O83 O 0.23722 0.14556 0.36631 0.0
Co84 Co 0.922 0.24856 0.86509 0.0
O85 O 0.90072 0.26305 0.84063 0.0
O86 O 0.87806 0.21721 0.8599 0.0
C87 C 0.93103 0.30902 0.87586 0.0
O88 O 0.93768 0.22859 0.89213 0.0
Co89 Co 0.00446 0.27046 0.87128 0.0
O90 O 0.99031 0.26132 0.89891 0.0
C91 C 0.98691 0.20365 0.84683 0.0
C92 C 0.87583 0.23681 0.84364 0.0
C93 C 0.9631 0.2401 0.90411 0.0
O94 O 0.95284 0.20825 0.85167 0.0
O95 O 0.01261 0.22692 0.85218 0.0
O96 O 0.89874 0.29271 0.87769 0.0
O97 O 0.95512 0.29001 0.86563 0.0
Co98 Co 0.73005 0.90334 0.37079 0.0
O99 O 0.68022 0.88688 0.3755 0.0
O100 O 0.69879 0.94809 0.37515 0.0
C101 C 0.74104 0.86696 0.34432 0.0
O102 O 0.7797 0.93008 0.36562 0.0
Co103 Co 0.79258 0.8443 0.37663 0.0
O104 O 0.81977 0.88147 0.35992 0.0
C105 C 0.7639 0.88468 0.41105 0.0
C106 C 0.67186 0.92323 0.37714 0.0
C107 C 0.81107 0.9172 0.35933 0.0
O108 O 0.74092 0.90154 0.39956 0.0
O109 O 0.7873 0.85946 0.40503 0.0
O110 O 0.72287 0.89924 0.34304 0.0
O111 O 0.7472 0.85444 0.36197 0.0
H112 H 0.08271 0.33903 0.10144 0.0
H113 H 0.06447 0.40449 0.09137 0.0
H114 H 0.98933 0.41089 0.1404 0.0
H115 H 0.00586 0.34502 0.14976 0.0
H116 H 0.95942 0.44301 0.10948 0.0
H117 H 0.10342 0.49869 0.11793 0.0
H118 H 0.09737 0.46182 0.09973 0.0
H119 H 0.09061 0.45034 0.12513 0.0
C120 C 0.06205 0.35444 0.1099 0.0
C121 C 0.04592 0.33737 0.12648 0.0
C122 C 0.05184 0.39182 0.10421 0.0
C123 C 0.02623 0.41293 0.1154 0.0
C124 C 0.00921 0.39519 0.13155 0.0
H125 H 0.00377 0.64013 0.15189 0.0
H126 H 0.02295 0.57517 0.14209 0.0
C127 C 0.01873 0.35761 0.13694 0.0
C128 C 0.01802 0.45409 0.11123 0.0
H129 H 0.05686 0.54416 0.11203 0.0
C130 C 0.9807 0.46521 0.1098 0.0
C131 C 0.04598 0.48286 0.11158 0.0
C132 C 0.08657 0.47301 0.11382 0.0
C133 C 0.97026 0.50426 0.1104 0.0
C134 C 0.99817 0.53303 0.1115 0.0
C135 C 0.03561 0.52197 0.11125 0.0
C136 C 0.98927 0.57396 0.11585 0.0
C137 C 0.92945 0.51393 0.11143 0.0
C138 C 0.96481 0.59529 0.10408 0.0
C139 C 0.953 0.63197 0.11001 0.0
C140 C 0.96649 0.64822 0.12742 0.0
C141 C 0.99291 0.62805 0.13845 0.0
C142 C 0.00394 0.59105 0.1328 0.0
H143 H 0.91223 0.48803 0.11469 0.0
H144 H 0.92398 0.53605 0.12285 0.0
H145 H 0.92026 0.5257 0.09715 0.0
H146 H 0.9541 0.58321 0.09062 0.0
H147 H 0.93309 0.64745 0.10109 0.0
H148 H 0.34472 0.00626 0.63471 0.0
H149 H 0.40896 0.02955 0.63281 0.0
H150 H 0.44691 0.91257 0.62328 0.0
H151 H 0.38331 0.88933 0.6247 0.0
H152 H 0.46674 0.00882 0.65689 0.0
H153 H 0.5001 0.97048 0.58023 0.0
H154 H 0.45318 0.97163 0.58938 0.0
H155 H 0.48233 0.93029 0.59395 0.0
C156 C 0.36676 0.98567 0.63194 0.0
C157 C 0.35899 0.94604 0.62978 0.0
C158 C 0.40337 -0.00104 0.63089 0.0
C159 C 0.43257 0.97282 0.62758 0.0
C160 C 0.42474 0.93334 0.62534 0.0
H161 H 0.67392 0.98999 0.63354 0.0
H162 H 0.60975 0.96569 0.63276 0.0
C163 C 0.38832 0.92011 0.6263 0.0
C164 C 0.47152 0.98619 0.62766 0.0
H165 H 0.55141 0.98616 0.60085 0.0
C166 C 0.48518 0.00414 0.64459 0.0
C167 C 0.49553 0.9798 0.61161 0.0
C168 C 0.48197 0.96233 0.5927 0.0
C169 C 0.52241 0.01541 0.64599 0.0
C170 C 0.54639 0.00865 0.63005 0.0
C171 C 0.53287 0.99076 0.61312 0.0
C172 C 0.58501 0.02257 0.63023 0.0
C173 C 0.53602 0.03429 0.66454 0.0
C174 C 0.59193 0.06231 0.62878 0.0
C175 C 0.62816 0.07612 0.62911 0.0
C176 C 0.65823 0.05041 0.63093 0.0
C177 C 0.65128 0.01043 0.63218 0.0
C178 C 0.61479 0.99656 0.63173 0.0
H179 H 0.51603 0.03077 0.67677 0.0
H180 H 0.56316 0.02191 0.66898 0.0
H181 H 0.54003 0.06574 0.66192 0.0
H182 H 0.56921 0.08269 0.62743 0.0
H183 H 0.63252 0.1071 0.62809 0.0
H184 H 0.99735 0.34684 0.87751 0.0
H185 H 0.00755 0.41474 0.88638 0.0
H186 H 0.89142 0.42728 0.89991 0.0
H187 H 0.881 0.35933 0.89134 0.0
H188 H 0.926 0.47705 0.86846 0.0
H189 H -0.00042 0.47987 0.93979 0.0
H190 H 0.01433 0.44363 0.92253 0.0
H191 H 0.96861 0.44106 0.93277 0.0
C192 C 0.97417 0.36385 0.88276 0.0
C193 C 0.93835 0.34805 0.88355 0.0
C194 C 0.98008 0.40245 0.88796 0.0
C195 C 0.95024 0.42566 0.89393 0.0
C196 C 0.91476 0.40953 0.89553 0.0
H197 H 0.96401 0.67836 0.87904 0.0
H198 H 0.93642 0.61623 0.88867 0.0
C199 C 0.9089 0.37083 0.89056 0.0
C200 C 0.95524 0.46784 0.89542 0.0
H201 H 0.0018 0.53754 0.92066 0.0
C202 C 0.94191 0.49065 0.88004 0.0
C203 C 0.97613 0.48492 0.91054 0.0
C204 C 0.99036 0.46127 0.92747 0.0
C205 C 0.95118 0.52991 0.87857 0.0
C206 C 0.97326 0.54698 0.89337 0.0
C207 C 0.98474 0.52446 0.90939 0.0
C208 C 0.98901 0.58627 0.89103 0.0
C209 C 0.93956 0.55176 0.86044 0.0
C210 C 0.02766 0.59058 0.89043 0.0
C211 C 0.04335 0.62604 0.88543 0.0
C212 C 0.02066 0.65771 0.88067 0.0
C213 C 0.98202 0.6541 0.8823 0.0
C214 C 0.96629 0.61867 0.88772 0.0
H215 H 0.92967 0.53204 0.84872 0.0
H216 H 0.91651 0.57173 0.86414 0.0
H217 H 0.96292 0.56917 0.85457 0.0
H218 H 0.04574 0.56602 0.89297 0.0
H219 H 0.07326 0.62808 0.88442 0.0
H220 H 0.36706 0.09382 0.3716 0.0
H221 H 0.4275 0.0636 0.37507 0.0
H222 H 0.3755 0.95204 0.3825 0.0
H223 H 0.31411 0.98231 0.37871 0.0
H224 H 0.45403 0.02197 0.40727 0.0
H225 H 0.45303 0.93359 0.33913 0.0
H226 H 0.42052 0.97251 0.34322 0.0
H227 H 0.4147 0.9271 0.35562 0.0
C228 C 0.36828 0.06279 0.37389 0.0
C229 C 0.3358 0.04038 0.37486 0.0
C230 C 0.40292 0.04562 0.37592 0.0
C231 C 0.40594 0.00566 0.37896 0.0
C232 C 0.37367 0.98293 0.3799 0.0
H233 H 0.61295 0.87615 0.38398 0.0
H234 H 0.54785 0.89437 0.38683 0.0
C235 C 0.33871 0.0002 0.37778 0.0
C236 C 0.44327 0.98864 0.38126 0.0
H237 H 0.50731 0.93232 0.3581 0.0
C238 C 0.46563 0.00204 0.39664 0.0
C239 C 0.45817 0.9627 0.36736 0.0
C240 C 0.43558 0.94821 0.3503 0.0
C241 C 0.50287 0.9909 0.39824 0.0
C242 C 0.51814 0.96613 0.38392 0.0
C243 C 0.49544 0.95152 0.36897 0.0
C244 C 0.5579 0.95581 0.38379 0.0
C245 C 0.52558 0.00588 0.41514 0.0
C246 C 0.58513 0.98447 0.38125 0.0
C247 C 0.62252 0.97419 0.37964 0.0
C248 C 0.63305 0.93506 0.38039 0.0
C249 C 0.60572 0.90658 0.3833 0.0
C250 C 0.56849 0.91687 0.38493 0.0
H251 H 0.5077 0.01543 0.42745 0.0
H252 H 0.54508 0.9834 0.42054 0.0
H253 H 0.54207 0.03119 0.41021 0.0
H254 H 0.57737 0.01468 0.37998 0.0
H255 H 0.64296 0.9967 0.37731 0.0
H256 H 0.96955 0.28852 0.93462 0.0
H257 H 0.98122 0.27167 0.96869 0.0
H258 H 0.96906 0.15046 0.95474 0.0
H259 H 0.95612 0.16759 0.92039 0.0
H260 H 0.93906 0.16837 0.99056 0.0
H261 H 0.0803 0.22887 0.98591 0.0
H262 H 0.04666 0.26433 0.97874 0.0
H263 H 0.052 0.2207 0.96455 0.0
C264 C 0.9686 0.25831 0.93891 0.0
C265 C 0.96201 0.22932 0.92495 0.0
C266 C 0.97576 0.24867 0.95831 0.0
C267 C 0.9774 0.20974 0.96413 0.0
C268 C 0.96848 0.18068 0.95049 0.0
H269 H 0.07188 0.18954 0.08309 0.0
H270 H 0.06378 0.17481 0.04814 0.0
C271 C 0.96077 0.19044 0.93096 0.0
C272 C 0.98906 0.20019 0.98442 0.0
H273 H 0.05449 0.22368 0.01852 0.0
C274 C 0.96463 0.17978 0.9966 0.0
C275 C 0.02302 0.21388 0.99224 0.0
C276 C 0.05217 0.23275 0.97959 0.0
C277 C 0.97181 0.17565 0.01669 0.0
C278 C 0.00375 0.19327 0.02488 0.0
C279 C 0.02967 0.21073 0.01239 0.0
C280 C 0.00826 0.19846 0.04635 0.0
C281 C 0.94457 0.15319 0.02899 0.0
C282 C 0.9801 0.21699 0.0569 0.0
C283 C 0.98454 0.22521 0.07667 0.0
C284 C 0.01763 0.21573 0.08654 0.0
C285 C 0.046 0.19705 0.07602 0.0
C286 C 0.04138 0.18862 0.05606 0.0
H287 H 0.93152 0.12959 0.02035 0.0
H288 H 0.95805 0.14036 0.04206 0.0
H289 H 0.92208 0.17288 0.03388 0.0
H290 H 0.95486 0.22623 0.0497 0.0
H291 H 0.96204 0.23988 0.08408 0.0
H292 H 0.82233 0.11177 0.55845 0.0
H293 H 0.82259 0.07407 0.52804 0.0
H294 H 0.73103 0.00571 0.54928 0.0
H295 H 0.73078 0.04261 0.5796 0.0
H296 H 0.78786 0.96063 0.5347 0.0
H297 H 0.7499 0.07694 0.48224 0.0
H298 H 0.78944 0.08726 0.49734 0.0
H299 H 0.74443 0.0824 0.50831 0.0
C300 C 0.80191 0.08909 0.55653 0.0
C301 C 0.77658 0.08029 0.57154 0.0
C302 C 0.80208 0.06755 0.53912 0.0
C303 C 0.77672 0.0371 0.53633 0.0
C304 C 0.75096 0.02891 0.55111 0.0
H305 H 0.70933 0.92247 0.43088 0.0
H306 H 0.71447 0.95663 0.46192 0.0
C307 C 0.75083 0.05022 0.56845 0.0
C308 C 0.77734 0.01281 0.51836 0.0
H309 H 0.76427 0.01564 0.46895 0.0
C310 C 0.78285 0.97266 0.5203 0.0
C311 C 0.7705 0.02847 0.49961 0.0
C312 C 0.76291 0.07106 0.49666 0.0
C313 C 0.78135 0.94774 0.50405 0.0
C314 C 0.77466 0.96344 0.48529 0.0
C315 C 0.76955 0.00363 0.48333 0.0
C316 C 0.77092 0.93874 0.46756 0.0
C317 C 0.78573 0.90473 0.50718 0.0
C318 C 0.80065 0.91626 0.4606 0.0
C319 C 0.7977 0.89625 0.4428 0.0
C320 C 0.7651 0.89877 0.43157 0.0
C321 C 0.73492 0.91995 0.43908 0.0
C322 C 0.73783 0.93968 0.45682 0.0
H323 H 0.78226 0.89661 0.52278 0.0
H324 H 0.76527 0.88831 0.49832 0.0
H325 H 0.81391 0.89579 0.50251 0.0
H326 H 0.82665 0.91549 0.4685 0.0
H327 H 0.82161 0.88063 0.43735 0.0
H328 H 0.9405 0.80137 0.08388 0.0
H329 H 0.94775 0.81231 0.04844 0.0
H330 H 0.04336 0.73744 0.04796 0.0
H331 H 0.03662 0.72639 0.08275 0.0
H332 H 0.01741 0.84005 0.02704 0.0
H333 H 0.96979 0.69301 0.00587 0.0
H334 H 0.95833 0.71481 0.0291 0.0
H335 H 0.00334 0.69384 0.02528 0.0
C336 C 0.96302 0.78731 0.07618 0.0
C337 C 0.98796 0.7631 0.08624 0.0
C338 C 0.96719 0.79366 0.056 0.0
C339 C 0.99598 0.77543 0.04563 0.0
C340 C 0.02084 0.75155 0.05566 0.0
H341 H 0.07725 0.74697 0.92758 0.0
H342 H 0.07315 0.75225 0.96338 0.0
C343 C 0.01692 0.74544 0.07565 0.0
C344 C 0.0006 0.78048 0.02426 0.0
H345 H 0.00181 0.72921 0.9816 0.0
C346 C 0.01356 0.81605 0.01702 0.0
C347 C 0.99586 0.74897 0.0113 0.0
C348 C 0.98077 0.71055 0.01819 0.0
C349 C 0.02284 0.82053 0.99716 0.0
C350 C 0.01892 0.78869 0.98433 0.0
C351 C 0.00538 0.75339 0.99155 0.0
C352 C 0.02648 0.79167 0.96309 0.0
C353 C 0.03764 0.85888 0.99007 0.0
C354 C 0.00234 0.81293 0.95117 0.0
C355 C 0.00449 0.8097 0.93086 0.0
C356 C 0.03104 0.78545 0.9221 0.0
C357 C 0.05699 0.76637 0.93398 0.0
C358 C 0.05447 0.76915 0.95438 0.0
H359 H 0.04573 0.87812 1.00237 0.0
H360 H 0.06204 0.8544 0.98044 0.0
H361 H 0.01593 0.87377 0.98138 0.0
H362 H 0.98027 0.83002 0.95757 0.0
H363 H 0.98396 0.82445 0.922 0.0
H364 H 0.27632 0.05732 0.42845 0.0
H365 H 0.2744 0.02226 0.45936 0.0
H366 H 0.17815 0.08774 0.47683 0.0
H367 H 0.18032 0.12378 0.44591 0.0
H368 H 0.22641 0.07683 0.50715 0.0
H369 H 0.20045 0.93678 0.47028 0.0
H370 H 0.24191 0.95984 0.46168 0.0
H371 H 0.19763 0.98255 0.45763 0.0
C372 C 0.25489 0.06463 0.43892 0.0
C373 C 0.22822 0.09315 0.43459 0.0
C374 C 0.25366 0.04426 0.45654 0.0
C375 C 0.22542 0.05143 0.47016 0.0
C376 C 0.19992 0.08134 0.46642 0.0
H377 H 0.1777 0.8907 0.56692 0.0
H378 H 0.17371 0.92821 0.53647 0.0
C379 C 0.20131 0.10208 0.44878 0.0
C380 C 0.22254 0.02733 0.48815 0.0
H381 H 0.21779 0.93348 0.504 0.0
C382 C 0.22422 0.04553 0.50646 0.0
C383 C 0.21886 0.98647 0.4873 0.0
C384 C 0.2142 0.96527 0.46817 0.0
C385 C 0.22385 0.02393 0.52388 0.0
C386 C 0.22256 0.98292 0.52298 0.0
C387 C 0.21934 0.96482 0.50471 0.0
C388 C 0.22567 0.9584 0.54081 0.0
C389 C 0.22464 0.04535 0.5431 0.0
C390 C 0.25682 0.96171 0.55296 0.0
C391 C 0.25912 0.94048 0.57028 0.0
C392 C 0.23053 0.91494 0.57581 0.0
C393 C 0.20021 0.91004 0.56311 0.0
C394 C 0.19781 0.93162 0.54576 0.0
H395 H 0.21391 0.07536 0.54153 0.0
H396 H 0.20796 0.03013 0.55438 0.0
H397 H 0.2537 0.04727 0.54834 0.0
H398 H 0.27924 0.98118 0.54917 0.0
H399 H 0.28316 0.94465 0.57955 0.0
H400 H 0.16839 0.28236 0.17869 0.0
H401 H 0.19958 0.27309 0.21002 0.0
H402 H 0.17766 0.15043 0.20679 0.0
H403 H 0.14704 0.15968 0.1751 0.0
H404 H 0.15669 0.2471 0.24011 0.0
H405 H 0.2806 0.15336 0.23211 0.0
H406 H 0.26037 0.17928 0.21179 0.0
H407 H 0.23996 0.13478 0.22018 0.0
C408 C 0.17197 0.25316 0.1842 0.0
C409 C 0.15572 0.22166 0.17445 0.0
C410 C 0.18949 0.24794 0.20218 0.0
C411 C 0.19086 0.21113 0.21082 0.0
C412 C 0.17751 0.17902 0.20028 0.0
H413 H 0.17146 0.14189 0.32979 0.0
H414 H 0.16112 0.16688 0.29684 0.0
C415 C 0.16021 0.18424 0.1821 0.0
C416 C 0.20031 0.20762 0.23189 0.0
H417 H 0.25576 0.16 0.2644 0.0
C418 C 0.17871 0.22843 0.24539 0.0
C419 C 0.22909 0.18346 0.23879 0.0
C420 C 0.2541 0.16169 0.22497 0.0
C421 C 0.18432 0.2248 0.2656 0.0
C422 C 0.21198 0.19932 0.27254 0.0
C423 C 0.23447 0.1795 0.25906 0.0
C424 C 0.21634 0.19066 0.29367 0.0
C425 C 0.16036 0.24805 0.27935 0.0
C426 C 0.2505 0.19653 0.30306 0.0
C427 C 0.25622 0.18266 0.32206 0.0
C428 C 0.22789 0.16274 0.33188 0.0
C429 C 0.19321 0.15855 0.32285 0.0
C430 C 0.18742 0.17254 0.30393 0.0
H431 H 0.14856 0.274 0.27203 0.0
H432 H 0.13692 0.22979 0.2844 0.0
H433 H 0.17631 0.25755 0.29238 0.0
H434 H 0.27326 0.21015 0.29535 0.0
H435 H 0.28359 0.18493 0.32849 0.0
H436 H 0.836 0.28926 0.82355 0.0
H437 H 0.80702 0.27975 0.79165 0.0
H438 H 0.83061 0.15738 0.79509 0.0
H439 H 0.85853 0.16683 0.82746 0.0
H440 H 0.84656 0.25694 0.7612 0.0
H441 H 0.72892 0.15571 0.77073 0.0
H442 H 0.75015 0.18062 0.79105 0.0
H443 H 0.77111 0.13755 0.78117 0.0
C444 C 0.83347 0.26009 0.81785 0.0
C445 C 0.84898 0.22867 0.828 0.0
C446 C 0.81723 0.25472 0.79955 0.0
C447 C 0.81661 0.21788 0.7909 0.0
C448 C 0.83004 0.18597 0.80159 0.0
H449 H 0.83077 0.15809 0.6696 0.0
H450 H 0.8432 0.18375 0.70216 0.0
C451 C 0.84585 0.19129 0.82013 0.0
C452 C 0.80639 0.21401 0.76993 0.0
H453 H 0.75203 0.16337 0.73813 0.0
C454 C 0.82553 0.23679 0.75619 0.0
C455 C 0.77877 0.18806 0.76335 0.0
C456 C 0.75579 0.16438 0.77737 0.0
C457 C 0.81852 0.23362 0.73607 0.0
C458 C 0.79221 0.2063 0.72942 0.0
C459 C 0.77234 0.18426 0.74319 0.0
C460 C 0.78599 0.1985 0.70831 0.0
C461 C 0.83928 0.25971 0.72217 0.0
C462 C 0.74991 0.19919 0.70061 0.0
C463 C 0.74285 0.18442 0.68196 0.0
C464 C 0.77175 0.16908 0.67061 0.0
C465 C 0.8082 0.171 0.6777 0.0
C466 C 0.81526 0.18549 0.69643 0.0
H467 H 0.84846 0.28675 0.72952 0.0
H468 H 0.8644 0.24443 0.71686 0.0
H469 H 0.82198 0.26755 0.70934 0.0
H470 H 0.72687 0.20895 0.70949 0.0
H471 H 0.71438 0.18217 0.67702 0.0
H472 H 0.76366 0.90665 0.3128 0.0
H473 H 0.78349 0.88153 0.28131 0.0
H474 H 0.77525 0.76477 0.30332 0.0
H475 H 0.75507 0.79017 0.33539 0.0
H476 H 0.84464 0.83257 0.27184 0.0
H477 H 0.70757 0.76795 0.25322 0.0
H478 H 0.713 0.80307 0.27257 0.0
H479 H 0.72844 0.75418 0.2761 0.0
C480 C 0.76621 0.87556 0.31104 0.0
C481 C 0.75743 0.85026 0.32645 0.0
C482 C 0.77763 0.8613 0.29302 0.0
C483 C 0.78022 0.82135 0.28988 0.0
C484 C 0.77286 0.79576 0.30542 0.0
H485 H 0.84579 0.70318 0.18437 0.0
H486 H 0.8156 0.71988 0.2152 0.0
C487 C 0.7617 0.81019 0.32372 0.0
C488 C 0.79014 0.80749 0.27006 0.0
H489 H 0.75393 0.76582 0.22895 0.0
C490 C 0.82492 0.81774 0.26249 0.0
C491 C 0.76419 0.78844 0.25789 0.0
C492 C 0.72606 0.77786 0.2652 0.0
C493 C 0.83446 0.80963 0.24305 0.0
C494 C 0.8082 0.79147 0.23071 0.0
C495 C 0.7737 0.78035 0.23837 0.0
C496 C 0.81745 0.78168 0.21019 0.0
C497 C 0.8728 0.82016 0.23594 0.0
C498 C 0.8261 0.81083 0.19656 0.0
C499 C 0.84302 0.80128 0.17876 0.0
C500 C 0.85154 0.76252 0.17452 0.0
C501 C 0.83936 0.73329 0.1873 0.0
C502 C 0.82227 0.74279 0.20496 0.0
H503 H 0.89205 0.8263 0.24823 0.0
H504 H 0.88471 0.79646 0.22693 0.0
H505 H 0.87111 0.84651 0.22669 0.0
H506 H 0.82212 0.84105 0.20027 0.0
H507 H 0.85261 0.82435 0.16929 0.0
H508 H 0.19773 0.80966 0.66274 0.0
H509 H 0.17598 0.77917 0.69322 0.0
H510 H 0.27464 0.81843 0.72279 0.0
H511 H 0.29599 0.84915 0.69279 0.0
H512 H 0.24871 0.74067 0.73363 0.0
H513 H 0.14186 0.85711 0.73744 0.0
H514 H 0.14331 0.82808 0.71561 0.0
H515 H 0.18113 0.85996 0.72116 0.0
C516 C 0.21508 0.81087 0.67563 0.0
C517 C 0.24821 0.83224 0.67554 0.0
C518 C 0.20263 0.79362 0.69302 0.0
C519 C 0.22354 0.7971 0.71029 0.0
C520 C 0.25806 0.81552 0.70966 0.0
H521 H 0.15627 0.80754 0.83156 0.0
H522 H 0.1887 0.81712 0.80031 0.0
C523 C 0.27016 0.83311 0.6925 0.0
C524 C 0.20829 0.78584 0.72956 0.0
H525 H 0.14645 0.81512 0.76433 0.0
C526 C 0.22606 0.75657 0.7403 0.0
C527 C 0.17938 0.80736 0.73834 0.0
C528 C 0.16032 0.84009 0.72768 0.0
C529 C 0.21553 0.74819 0.75963 0.0
C530 C 0.1866 0.76971 0.76837 0.0
C531 C 0.16882 0.79889 0.7576 0.0
C532 C 0.17296 0.76144 0.78836 0.0
C533 C 0.23589 0.71699 0.77072 0.0
C534 C 0.15432 0.72664 0.79212 0.0
C535 C 0.13581 0.72125 0.80981 0.0
C536 C 0.13571 0.75049 0.82412 0.0
C537 C 0.15637 0.78435 0.8209 0.0
C538 C 0.17461 0.78993 0.80302 0.0
H539 H 0.26265 0.70938 0.76364 0.0
H540 H 0.24136 0.72626 0.78599 0.0
H541 H 0.21846 0.69052 0.77124 0.0
H542 H 0.15227 0.70453 0.78094 0.0
H543 H 0.11995 0.69492 0.8119 0.0
H544 H 0.95184 0.16032 0.17962 0.0
H545 H 0.94202 0.0943 0.19148 0.0
H546 H 0.05939 0.07196 0.18702 0.0
H547 H 0.06962 0.13778 0.17577 0.0
H548 H 0.95653 0.03537 0.16783 0.0
H549 H 0.03579 0.01259 0.2358 0.0
H550 H 0.02465 0.06037 0.22677 0.0
H551 H 0.06429 0.03452 0.21743 0.0
C552 C 0.9757 0.14176 0.18175 0.0
C553 C 0.01143 0.15419 0.17642 0.0
C554 C 0.97003 0.10403 0.18857 0.0
C555 C -2e-05 0.07822 0.19028 0.0
C556 C 0.03593 0.09148 0.18627 0.0
H557 H 0.04851 0.84367 0.17036 0.0
H558 H 0.04867 0.91118 0.18135 0.0
C559 C 0.04165 0.12914 0.17956 0.0
C560 C 0.99332 0.03612 0.19262 0.0
H561 H 0.02546 0.9551 0.21576 0.0
C562 C 0.9708 0.01791 0.17866 0.0
C563 C 0.01227 0.01334 0.20662 0.0
C564 C 0.03529 0.03134 0.22261 0.0
C565 C 0.9685 0.97751 0.1775 0.0
C566 C 0.98876 0.95465 0.19094 0.0
C567 C 0.01002 0.97276 0.20548 0.0
C568 C 0.99038 0.91207 0.18882 0.0
C569 C 0.94617 0.95964 0.16113 0.0
C570 C 0.958 0.88984 0.19037 0.0
C571 C 0.95772 0.85153 0.1839 0.0
C572 C 0.98999 0.83472 0.17603 0.0
C573 C 0.02325 0.85588 0.17629 0.0
C574 C 0.02338 0.89442 0.18259 0.0
H575 H 0.9381 0.9813 0.1499 0.0
H576 H 0.96207 0.93616 0.15387 0.0
H577 H 0.92041 0.94684 0.16721 0.0
H578 H 0.93242 0.90283 0.19546 0.0
H579 H 0.93179 0.83569 0.18418 0.0
H580 H 0.12939 0.88689 0.67478 0.0
H581 H 0.06977 0.91846 0.68079 0.0
H582 H 0.10579 0.01783 0.6477 0.0
H583 H 0.16582 0.98644 0.64168 0.0
H584 H 0.04598 0.00304 0.69407 0.0
H585 H 0.01629 0.95568 0.61781 0.0
H586 H 0.05204 0.93351 0.63251 0.0
H587 H 0.05938 0.98061 0.62215 0.0
C588 C 0.12505 0.91601 0.66932 0.0
C589 C 0.15199 0.93413 0.65758 0.0
C590 C 0.09105 0.93398 0.67281 0.0
C591 C 0.08344 0.97017 0.66451 0.0
C592 C 0.11137 0.98982 0.65421 0.0
H593 H 0.89797 0.12059 0.65931 0.0
H594 H 0.95507 0.08755 0.66813 0.0
C595 C 0.14564 0.97198 0.65086 0.0
C596 C 0.04487 0.98437 0.66408 0.0
H597 H 0.97023 0.99208 0.63376 0.0
C598 C 0.02929 0.00068 0.68094 0.0
C599 C 0.02306 0.98017 0.64706 0.0
C600 C 0.03826 0.96134 0.62883 0.0
C601 C 0.99255 0.01428 0.68097 0.0
C602 C 0.97122 0.01158 0.66365 0.0
C603 C 0.98656 0.994 0.64704 0.0
C604 C 0.93441 0.03014 0.66163 0.0
C605 C 0.97695 0.03144 0.69949 0.0
C606 C 0.90355 0.0088 0.65514 0.0
C607 C 0.87067 0.02776 0.6499 0.0
C608 C 0.86853 0.06835 0.65079 0.0
C609 C 0.89885 0.08929 0.65827 0.0
C610 C 0.93145 0.0704 0.66356 0.0
H611 H 0.99133 0.01987 0.71261 0.0
H612 H 0.98105 0.06329 0.69927 0.0
H613 H 0.94679 0.02551 0.70086 0.0
H614 H 0.90543 0.97767 0.65341 0.0
H615 H 0.8478 0.01091 0.64417 0.0
H616 H 0.05609 0.17388 0.8387 0.0
H617 H 0.06997 0.10879 0.82647 0.0
H618 H 0.95294 0.08678 0.81951 0.0
H619 H 0.93901 0.15157 0.83081 0.0
H620 H 0.05046 0.048 0.84622 0.0
H621 H 0.9899 0.03055 0.773 0.0
H622 H 0.99732 0.07772 0.78373 0.0
H623 H 0.95564 0.05069 0.78897 0.0
C624 C 0.03342 0.1556 0.83394 0.0
C625 C 0.99644 0.16777 0.83604 0.0
C626 C 0.04139 0.1184 0.82694 0.0
C627 C 0.01254 0.09289 0.82188 0.0
C628 C 0.9758 0.10605 0.82278 0.0
H629 H 0.95411 0.86261 0.84048 0.0
H630 H 0.95847 0.93015 0.82982 0.0
C631 C 0.96785 0.14313 0.82959 0.0
C632 C 0.01974 0.05091 0.81924 0.0
H633 H 0.99069 0.97173 0.79346 0.0
C634 C 0.03839 0.03146 0.83434 0.0
C635 C 0.00387 0.02918 0.8038 0.0
C636 C 0.98593 0.04831 0.78639 0.0
C637 C 0.03916 0.99095 0.83521 0.0
C638 C 0.02101 0.96933 0.82052 0.0
C639 C 0.00424 0.98853 0.80479 0.0
C640 C 0.01671 0.927 0.82246 0.0
C641 C 0.05743 0.97154 0.8525 0.0
C642 C 0.04765 0.90269 0.82099 0.0
C643 C 0.04533 0.86424 0.82713 0.0
C644 C 0.01198 0.8495 0.83485 0.0
C645 C 0.98021 0.87309 0.83471 0.0
C646 C 0.98262 0.91165 0.82859 0.0
H647 H 0.06626 0.99267 0.86383 0.0
H648 H 0.03819 0.95034 0.8593 0.0
H649 H 0.0823 0.95545 0.84748 0.0
H650 H 0.0741 0.91408 0.81616 0.0
H651 H 0.07022 0.84667 0.82675 0.0
H652 H 0.86273 0.90515 0.33133 0.0
H653 H 0.92125 0.94001 0.32754 0.0
H654 H 0.8858 0.0236 0.37047 0.0
H655 H 0.82689 0.98869 0.37436 0.0
H656 H 0.94362 0.02147 0.3204 0.0
H657 H 0.97773 0.96284 0.39401 0.0
H658 H 0.93982 0.94452 0.37949 0.0
H659 H 0.93517 0.98978 0.39216 0.0
C660 C 0.86697 0.93164 0.33953 0.0
C661 C 0.84058 0.94409 0.35329 0.0
C662 C 0.90035 0.95149 0.33733 0.0
C663 C 0.90794 0.98387 0.34897 0.0
C664 C 0.88038 -0.00161 0.36149 0.0
H665 H 0.09741 0.13206 0.35386 0.0
H666 H 0.03781 0.10206 0.34736 0.0
C667 C 0.84671 0.97867 0.36359 0.0
C668 C 0.94614 -0.00088 0.34973 0.0
H669 H 0.02238 0.00304 0.37915 0.0
C670 C 0.9609 0.01761 0.33323 0.0
C671 C 0.9688 0.99285 0.36629 0.0
C672 C 0.95485 0.97115 0.38397 0.0
C673 C 0.99762 0.03111 0.33309 0.0
C674 C 0.01983 0.0262 0.34997 0.0
C675 C 0.00528 0.00677 0.36624 0.0
C676 C 0.05724 0.04341 0.3517 0.0
C677 C 0.01237 0.05024 0.31486 0.0
C678 C 0.08809 0.02036 0.35645 0.0
C679 C 0.12246 0.03753 0.36041 0.0
C680 C 0.12626 0.07804 0.35991 0.0
C681 C 0.0955 0.10078 0.35452 0.0
C682 C 0.06137 0.08366 0.35056 0.0
H683 H 0.99685 0.04077 0.30167 0.0
H684 H 0.0091 0.08209 0.3162 0.0
H685 H 0.04225 0.04374 0.31271 0.0
H686 H 0.08532 0.98919 0.35754 0.0
H687 H 0.14558 0.01925 0.36453 0.0
loop_
_geom_bond_atom_site_label_1
_geom_bond_atom_site_label_2
_geom_bond_distance
_geom_bond_site_symmetry_2
_ccdc_geom_bond_type
Co0 O1 2.216 . S
Co0 O2 2.091 . S
Co0 O4 2.004 . S
Co0 O10 2.021 . S
Co0 O12 2.137 . S
Co0 O13 2.244 . S
O1 Co0 2.216 . S
O1 C8 1.247 . S
O2 Co0 2.091 . S
O2 C8 1.261 . S
C3 O12 1.247 . S
C3 O13 1.272 . S
O4 Co0 2.004 . S
O4 C9 1.259 . S
Co5 O6 2.061 . S
Co5 O11 2.052 . S
Co5 O13 2.135 . S
O6 Co5 2.061 . S
O6 C9 1.235 . S
C7 O10 1.238 . S
C7 O11 1.241 . S
C8 O1 1.247 . S
C8 O2 1.261 . S
C9 O4 1.259 . S
C9 O6 1.235 . S
O10 Co0 2.021 . S
O10 C7 1.238 . S
O11 Co5 2.052 . S
O11 C7 1.241 . S
O12 Co0 2.137 . S
O12 C3 1.247 . S
O13 Co0 2.244 . S
O13 C3 1.272 . S
O13 Co5 2.135 . S
Co14 O15 2.216 . S
Co14 O16 2.091 . S
Co14 O18 2.004 . S
Co14 O24 2.021 . S
Co14 O26 2.137 . S
Co14 O27 2.244 . S
O15 Co14 2.216 . S
O15 C22 1.247 . S
O16 Co14 2.091 . S
O16 C22 1.261 . S
C17 O26 1.247 . S
C17 O27 1.272 . S
O18 Co14 2.004 . S
O18 C23 1.259 . S
Co19 O20 2.061 . S
Co19 O25 2.052 . S
Co19 O27 2.135 . S
O20 Co19 2.061 . S
O20 C23 1.235 . S
C21 O24 1.238 . S
C21 O25 1.241 . S
C22 O15 1.247 . S
C22 O16 1.261 . S
C23 O18 1.259 . S
C23 O20 1.235 . S
O24 Co14 2.021 . S
O24 C21 1.238 . S
O25 Co19 2.052 . S
O25 C21 1.241 . S
O26 Co14 2.137 . S
O26 C17 1.247 . S
O27 Co14 2.244 . S
O27 C17 1.272 . S
O27 Co19 2.135 . S
Co28 O29 2.216 . S
Co28 O30 2.091 . S
Co28 O32 2.004 . S
Co28 O38 2.021 . S
Co28 O40 2.137 . S
Co28 O41 2.244 . S
O29 Co28 2.216 . S
O29 C36 1.247 . S
O30 Co28 2.091 . S
O30 C36 1.261 . S
C31 O40 1.247 . S
C31 O41 1.272 . S
O32 Co28 2.004 . S
O32 C37 1.259 . S
Co33 O34 2.061 . S
Co33 O39 2.052 . S
Co33 O41 2.135 . S
O34 Co33 2.061 . S
O34 C37 1.235 . S
C35 O38 1.238 . S
C35 O39 1.241 . S
C36 O29 1.247 . S
C36 O30 1.261 . S
C37 O32 1.259 . S
C37 O34 1.235 . S
O38 Co28 2.021 . S
O38 C35 1.238 . S
O39 Co33 2.052 . S
O39 C35 1.241 . S
O40 Co28 2.137 . S
O40 C31 1.247 . S
O41 Co28 2.244 . S
O41 C31 1.272 . S
O41 Co33 2.135 . S
Co42 O43 2.216 . S
Co42 O44 2.091 . S
Co42 O46 2.004 . S
Co42 O52 2.021 . S
Co42 O54 2.137 . S
Co42 O55 2.244 . S
O43 Co42 2.216 . S
O43 C50 1.247 . S
O44 Co42 2.091 . S
O44 C50 1.261 . S
C45 O54 1.247 . S
C45 O55 1.272 . S
O46 Co42 2.004 . S
O46 C51 1.259 . S
Co47 O48 2.061 . S
Co47 O53 2.052 . S
Co47 O55 2.135 . S
O48 Co47 2.061 . S
O48 C51 1.235 . S
C49 O52 1.238 . S
C49 O53 1.241 . S
C50 O43 1.247 . S
C50 O44 1.261 . S
C51 O46 1.259 . S
C51 O48 1.235 . S
O52 Co42 2.021 . S
O52 C49 1.238 . S
O53 Co47 2.052 . S
O53 C49 1.241 . S
O54 Co42 2.137 . S
O54 C45 1.247 . S
O55 Co42 2.244 . S
O55 C45 1.272 . S
O55 Co47 2.135 . S
Co56 O57 2.216 . S
Co56 O58 2.091 . S
Co56 O60 2.004 . S
Co56 O66 2.021 . S
Co56 O68 2.137 . S
Co56 O69 2.244 . S
O57 Co56 2.216 . S
O57 C64 1.247 . S
O58 Co56 2.091 . S
O58 C64 1.261 . S
C59 O68 1.247 . S
C59 O69 1.272 . S
O60 Co56 2.004 . S
O60 C65 1.259 . S
Co61 O62 2.061 . S
Co61 O67 2.052 . S
Co61 O69 2.135 . S
O62 Co61 2.061 . S
O62 C65 1.235 . S
C63 O66 1.238 . S
C63 O67 1.241 . S
C64 O57 1.247 . S
C64 O58 1.261 . S
C65 O60 1.259 . S
C65 O62 1.235 . S
O66 Co56 2.021 . S
O66 C63 1.238 . S
O67 Co61 2.052 . S
O67 C63 1.241 . S
O68 Co56 2.137 . S
O68 C59 1.247 . S
O69 Co56 2.244 . S
O69 C59 1.272 . S
O69 Co61 2.135 . S
Co70 O71 2.216 . S
Co70 O72 2.091 . S
Co70 O74 2.004 . S
Co70 O80 2.021 . S
Co70 O82 2.137 . S
Co70 O83 2.244 . S
O71 Co70 2.216 . S
O71 C78 1.247 . S
O72 Co70 2.091 . S
O72 C78 1.261 . S
C73 O82 1.247 . S
C73 O83 1.272 . S
O74 Co70 2.004 . S
O74 C79 1.259 . S
Co75 O76 2.061 . S
Co75 O81 2.052 . S
Co75 O83 2.135 . S
O76 Co75 2.061 . S
O76 C79 1.235 . S
C77 O80 1.238 . S
C77 O81 1.241 . S
C78 O71 1.247 . S
C78 O72 1.261 . S
C79 O74 1.259 . S
C79 O76 1.235 . S
O80 Co70 2.021 . S
O80 C77 1.238 . S
O81 Co75 2.052 . S
O81 C77 1.241 . S
O82 Co70 2.137 . S
O82 C73 1.247 . S
O83 Co70 2.244 . S
O83 C73 1.272 . S
O83 Co75 2.135 . S
Co84 O85 2.216 . S
Co84 O86 2.091 . S
Co84 O88 2.004 . S
Co84 O94 2.021 . S
Co84 O96 2.137 . S
Co84 O97 2.244 . S
O85 Co84 2.216 . S
O85 C92 1.247 . S
O86 Co84 2.091 . S
O86 C92 1.261 . S
C87 O96 1.247 . S
C87 O97 1.272 . S
O88 Co84 2.004 . S
O88 C93 1.259 . S
Co89 O90 2.061 . S
Co89 O95 2.052 . S
Co89 O97 2.135 . S
O90 Co89 2.061 . S
O90 C93 1.235 . S
C91 O94 1.238 . S
C91 O95 1.241 . S
C92 O85 1.247 . S
C92 O86 1.261 . S
C93 O88 1.259 . S
C93 O90 1.235 . S
O94 Co84 2.021 . S
O94 C91 1.238 . S
O95 Co89 2.052 . S
O95 C91 1.241 . S
O96 Co84 2.137 . S
O96 C87 1.247 . S
O97 Co84 2.244 . S
O97 C87 1.272 . S
O97 Co89 2.135 . S
Co98 O99 2.216 . S
Co98 O100 2.091 . S
Co98 O102 2.004 . S
Co98 O108 2.021 . S
Co98 O110 2.137 . S
Co98 O111 2.244 . S
O99 Co98 2.216 . S
O99 C106 1.247 . S
O100 Co98 2.091 . S
O100 C106 1.261 . S
C101 O110 1.247 . S
C101 O111 1.272 . S
O102 Co98 2.004 . S
O102 C107 1.259 . S
Co103 O104 2.061 . S
Co103 O109 2.052 . S
Co103 O111 2.135 . S
O104 Co103 2.061 . S
O104 C107 1.235 . S
C105 O108 1.238 . S
C105 O109 1.241 . S
C106 O99 1.247 . S
C106 O100 1.261 . S
C107 O102 1.259 . S
C107 O104 1.235 . S
O108 Co98 2.021 . S
O108 C105 1.238 . S
O109 Co103 2.052 . S
O109 C105 1.241 . S
O110 Co98 2.137 . S
O110 C101 1.247 . S
O111 Co98 2.244 . S
O111 C101 1.272 . S
O111 Co103 2.135 . S
H112 C120 0.929 . S
H113 C122 0.930 . S
H114 C124 0.930 . S
H115 C127 0.929 . S
H116 C130 0.930 . S
H117 C132 0.960 . S
H118 C132 0.960 . S
H119 C132 0.960 . S
C120 H112 0.929 . S
C120 C121 1.377 . S
C120 C122 1.384 . S
C121 C120 1.377 . S
C121 C127 1.390 . S
C122 H113 0.930 . S
C122 C120 1.384 . S
C122 C123 1.372 . S
C123 C122 1.372 . S
C123 C124 1.400 . S
C123 C128 1.490 . S
C124 H114 0.930 . S
C124 C123 1.400 . S
C124 C127 1.386 . S
H125 C141 0.930 . S
H126 C142 0.931 . S
C127 H115 0.929 . S
C127 C121 1.390 . S
C127 C124 1.386 . S
C128 C123 1.490 . S
C128 C130 1.395 1_455 S
C128 C131 1.403 . S
H129 C135 0.930 . S
C130 H116 0.930 . S
C130 C128 1.395 1_655 S
C130 C133 1.403 . S
C131 C128 1.403 . S
C131 C132 1.524 . S
C131 C135 1.400 . S
C132 H117 0.960 . S
C132 H118 0.960 . S
C132 H119 0.960 . S
C132 C131 1.524 . S
C133 C130 1.403 . S
C133 C134 1.392 . S
C133 C137 1.495 . S
C134 C133 1.392 . S
C134 C135 1.385 1_655 S
C134 C136 1.478 . S
C135 H129 0.930 . S
C135 C131 1.400 . S
C135 C134 1.385 1_455 S
C136 C134 1.478 . S
C136 C138 1.381 . S
C136 C142 1.383 . S
C137 C133 1.495 . S
C137 H143 0.959 . S
C137 H144 0.961 . S
C137 H145 0.960 . S
C138 C136 1.381 . S
C138 C139 1.394 . S
C138 H146 0.930 . S
C139 C138 1.394 . S
C139 C140 1.383 . S
C139 H147 0.929 . S
C140 C139 1.383 . S
C140 C141 1.377 . S
C141 H125 0.930 . S
C141 C140 1.377 . S
C141 C142 1.379 . S
C142 H126 0.931 . S
C142 C136 1.383 . S
C142 C141 1.379 . S
H143 C137 0.959 . S
H144 C137 0.961 . S
H145 C137 0.960 . S
H146 C138 0.930 . S
H147 C139 0.929 . S
H148 C156 0.929 . S
H149 C158 0.930 1_545 S
H150 C160 0.930 . S
H151 C163 0.929 . S
H152 C166 0.930 . S
H153 C168 0.960 . S
H154 C168 0.960 . S
H155 C168 0.960 . S
C156 H148 0.929 . S
C156 C157 1.377 . S
C156 C158 1.384 . S
C157 C156 1.377 . S
C157 C163 1.390 . S
C158 H149 0.930 1_565 S
C158 C156 1.384 . S
C158 C159 1.372 . S
C159 C158 1.372 . S
C159 C160 1.400 . S
C159 C164 1.490 . S
C160 H150 0.930 . S
C160 C159 1.400 . S
C160 C163 1.386 . S
H161 C177 0.930 . S
H162 C178 0.931 1_565 S
C163 H151 0.929 . S
C163 C157 1.390 . S
C163 C160 1.386 . S
C164 C159 1.490 . S
C164 C166 1.395 1_565 S
C164 C167 1.403 . S
H165 C171 0.930 . S
C166 H152 0.930 . S
C166 C164 1.395 1_545 S
C166 C169 1.403 . S
C167 C164 1.403 . S
C167 C168 1.524 . S
C167 C171 1.400 . S
C168 H153 0.960 . S
C168 H154 0.960 . S
C168 H155 0.960 . S
C168 C167 1.524 . S
C169 C166 1.403 . S
C169 C170 1.392 . S
C169 C173 1.495 . S
C170 C169 1.392 . S
C170 C171 1.385 1_545 S
C170 C172 1.478 . S
C171 H165 0.930 . S
C171 C167 1.400 . S
C171 C170 1.385 1_565 S
C172 C170 1.478 . S
C172 C174 1.381 . S
C172 C178 1.383 . S
C173 C169 1.495 . S
C173 H179 0.959 . S
C173 H180 0.961 . S
C173 H181 0.960 . S
C174 C172 1.381 . S
C174 C175 1.394 . S
C174 H182 0.930 . S
C175 C174 1.394 . S
C175 C176 1.383 . S
C175 H183 0.929 . S
C176 C175 1.383 . S
C176 C177 1.377 . S
C177 H161 0.930 . S
C177 C176 1.377 . S
C177 C178 1.379 . S
C178 H162 0.931 1_545 S
C178 C172 1.383 . S
C178 C177 1.379 . S
H179 C173 0.959 . S
H180 C173 0.961 . S
H181 C173 0.960 . S
H182 C174 0.930 . S
H183 C175 0.929 . S
H184 C192 0.929 . S
H185 C194 0.930 1_455 S
H186 C196 0.930 . S
H187 C199 0.929 . S
H188 C202 0.930 . S
H189 C204 0.960 . S
H190 C204 0.960 . S
H191 C204 0.960 1_655 S
C192 H184 0.929 . S
C192 C193 1.377 . S
C192 C194 1.384 . S
C193 C192 1.377 . S
C193 C199 1.390 . S
C194 H185 0.930 1_655 S
C194 C192 1.384 . S
C194 C195 1.372 . S
C195 C194 1.372 . S
C195 C196 1.400 . S
C195 C200 1.490 . S
C196 H186 0.930 . S
C196 C195 1.400 . S
C196 C199 1.386 . S
H197 C213 0.930 . S
H198 C214 0.931 1_655 S
C199 H187 0.929 . S
C199 C193 1.390 . S
C199 C196 1.386 . S
C200 C195 1.490 . S
C200 C202 1.395 . S
C200 C203 1.403 1_655 S
H201 C207 0.930 . S
C202 H188 0.930 . S
C202 C200 1.395 . S
C202 C205 1.403 . S
C203 C200 1.403 1_455 S
C203 C204 1.524 . S
C203 C207 1.400 . S
C204 H189 0.960 . S
C204 H190 0.960 . S
C204 H191 0.960 1_455 S
C204 C203 1.524 . S
C205 C202 1.403 . S
C205 C206 1.392 1_655 S
C205 C209 1.495 . S
C206 C205 1.392 1_455 S
C206 C207 1.385 . S
C206 C208 1.478 . S
C207 H201 0.930 . S
C207 C203 1.400 . S
C207 C206 1.385 . S
C208 C206 1.478 . S
C208 C210 1.381 . S
C208 C214 1.383 . S
C209 C205 1.495 . S
C209 H215 0.959 . S
C209 H216 0.961 . S
C209 H217 0.960 1_655 S
C210 C208 1.381 . S
C210 C211 1.394 . S
C210 H218 0.930 . S
C211 C210 1.394 . S
C211 C212 1.383 . S
C211 H219 0.929 . S
C212 C211 1.383 . S
C212 C213 1.377 . S
C213 H197 0.930 . S
C213 C212 1.377 . S
C213 C214 1.379 . S
C214 H198 0.931 1_455 S
C214 C208 1.383 . S
C214 C213 1.379 . S
H215 C209 0.959 . S
H216 C209 0.961 . S
H217 C209 0.960 1_455 S
H218 C210 0.930 . S
H219 C211 0.929 . S
H220 C228 0.929 . S
H221 C230 0.930 . S
H222 C232 0.930 . S
H223 C235 0.929 . S
H224 C238 0.930 . S
H225 C240 0.960 . S
H226 C240 0.960 . S
H227 C240 0.960 . S
C228 H220 0.929 . S
C228 C229 1.377 . S
C228 C230 1.384 . S
C229 C228 1.377 . S
C229 C235 1.390 . S
C230 H221 0.930 . S
C230 C228 1.384 . S
C230 C231 1.372 . S
C231 C230 1.372 . S
C231 C232 1.400 . S
C231 C236 1.490 . S
C232 H222 0.930 . S
C232 C231 1.400 . S
C232 C235 1.386 . S
H233 C249 0.930 . S
H234 C250 0.931 . S
C235 H223 0.929 . S
C235 C229 1.390 . S
C235 C232 1.386 . S
C236 C231 1.490 . S
C236 C238 1.395 . S
C236 C239 1.403 1_545 S
H237 C243 0.930 . S
C238 H224 0.930 . S
C238 C236 1.395 . S
C238 C241 1.403 . S
C239 C236 1.403 1_565 S
C239 C240 1.524 . S
C239 C243 1.400 . S
C240 H225 0.960 . S
C240 H226 0.960 . S
C240 H227 0.960 . S
C240 C239 1.524 . S
C241 C238 1.403 . S
C241 C242 1.392 1_545 S
C241 C245 1.495 . S
C242 C241 1.392 1_565 S
C242 C243 1.385 . S
C242 C244 1.478 . S
C243 H237 0.930 . S
C243 C239 1.400 . S
C243 C242 1.385 . S
C244 C242 1.478 . S
C244 C246 1.381 . S
C244 C250 1.383 . S
C245 C241 1.495 . S
C245 H251 0.959 . S
C245 H252 0.961 . S
C245 H253 0.960 . S
C246 C244 1.381 . S
C246 C247 1.394 . S
C246 H254 0.930 . S
C247 C246 1.394 . S
C247 C248 1.383 . S
C247 H255 0.929 . S
C248 C247 1.383 . S
C248 C249 1.377 . S
C249 H233 0.930 . S
C249 C248 1.377 . S
C249 C250 1.379 . S
C250 H234 0.931 . S
C250 C244 1.383 . S
C250 C249 1.379 . S
H251 C245 0.959 . S
H252 C245 0.961 . S
H253 C245 0.960 . S
H254 C246 0.930 . S
H255 C247 0.929 . S
H256 C264 0.929 . S
H257 C266 0.930 . S
H258 C268 0.930 . S
H259 C271 0.929 . S
H260 C274 0.930 . S
H261 C276 0.960 . S
H262 C276 0.960 1_655 S
H263 C276 0.960 . S
C264 H256 0.929 . S
C264 C265 1.377 . S
C264 C266 1.384 . S
C265 C264 1.377 . S
C265 C271 1.390 . S
C266 H257 0.930 . S
C266 C264 1.384 . S
C266 C267 1.372 . S
C267 C266 1.372 . S
C267 C268 1.400 . S
C267 C272 1.490 . S
C268 H258 0.930 . S
C268 C267 1.400 . S
C268 C271 1.386 . S
H269 C285 0.930 . S
H270 C286 0.931 . S
C271 H259 0.929 . S
C271 C265 1.390 . S
C271 C268 1.386 . S
C272 C267 1.490 . S
C272 C274 1.395 . S
C272 C275 1.403 1_655 S
H273 C279 0.930 . S
C274 H260 0.930 . S
C274 C272 1.395 . S
C274 C277 1.403 1_556 S
C275 C272 1.403 1_455 S
C275 C276 1.524 . S
C275 C279 1.400 1_556 S
C276 H261 0.960 . S
C276 H262 0.960 1_455 S
C276 H263 0.960 . S
C276 C275 1.524 . S
C277 C274 1.403 1_554 S
C277 C278 1.392 1_655 S
C277 C281 1.495 . S
C278 C277 1.392 1_455 S
C278 C279 1.385 . S
C278 C280 1.478 . S
C279 H273 0.930 . S
C279 C275 1.400 1_554 S
C279 C278 1.385 . S
C280 C278 1.478 . S
C280 C282 1.381 . S
C280 C286 1.383 . S
C281 C277 1.495 . S
C281 H287 0.959 . S
C281 H288 0.961 1_655 S
C281 H289 0.960 . S
C282 C280 1.381 . S
C282 C283 1.394 . S
C282 H290 0.921 1_455 S
C283 C282 1.394 . S
C283 C284 1.383 . S
C283 H291 0.929 . S
C284 C283 1.383 . S
C284 C285 1.377 . S
C285 H269 0.930 . S
C285 C284 1.377 . S
C285 C286 1.379 . S
C286 H270 0.931 . S
C286 C280 1.383 . S
C286 C285 1.379 . S
H287 C281 0.959 . S
H288 C281 0.961 1_455 S
H289 C281 0.960 . S
H290 C282 0.921 1_655 S
H291 C283 0.929 . S
H292 C300 0.929 . S
H293 C302 0.930 . S
H294 C304 0.930 . S
H295 C307 0.929 . S
H296 C310 0.930 . S
H297 C312 0.960 . S
H298 C312 0.960 . S
H299 C312 0.960 . S
C300 H292 0.929 . S
C300 C301 1.377 . S
C300 C302 1.384 . S
C301 C300 1.377 . S
C301 C307 1.390 . S
C302 H293 0.930 . S
C302 C300 1.384 . S
C302 C303 1.372 . S
C303 C302 1.372 . S
C303 C304 1.400 . S
C303 C308 1.490 . S
C304 H294 0.930 . S
C304 C303 1.400 . S
C304 C307 1.386 . S
H305 C321 0.930 . S
H306 C322 0.931 . S
C307 H295 0.929 . S
C307 C301 1.390 . S
C307 C304 1.386 . S
C308 C303 1.490 . S
C308 C310 1.395 1_545 S
C308 C311 1.403 . S
H309 C315 0.930 . S
C310 H296 0.930 . S
C310 C308 1.395 1_565 S
C310 C313 1.403 . S
C311 C308 1.403 . S
C311 C312 1.524 . S
C311 C315 1.400 . S
C312 H297 0.960 . S
C312 H298 0.960 . S
C312 H299 0.960 . S
C312 C311 1.524 . S
C313 C310 1.403 . S
C313 C314 1.392 . S
C313 C317 1.495 . S
C314 C313 1.392 . S
C314 C315 1.385 1_565 S
C314 C316 1.478 . S
C315 H309 0.930 . S
C315 C311 1.400 . S
C315 C314 1.385 1_545 S
C316 C314 1.478 . S
C316 C318 1.381 . S
C316 C322 1.383 . S
C317 C313 1.495 . S
C317 H323 0.959 . S
C317 H324 0.961 . S
C317 H325 0.960 . S
C318 C316 1.381 . S
C318 C319 1.394 . S
C318 H326 0.930 . S
C319 C318 1.394 . S
C319 C320 1.383 . S
C319 H327 0.929 . S
C320 C319 1.383 . S
C320 C321 1.377 . S
C321 H305 0.930 . S
C321 C320 1.377 . S
C321 C322 1.379 . S
C322 H306 0.931 . S
C322 C316 1.383 . S
C322 C321 1.379 . S
H323 C317 0.959 . S
H324 C317 0.961 . S
H325 C317 0.960 . S
H326 C318 0.930 . S
H327 C319 0.929 . S
H328 C336 0.929 . S
H329 C338 0.930 . S
H330 C340 0.930 . S
H331 C343 0.929 . S
H332 C346 0.930 . S
H333 C348 0.960 1_556 S
H334 C348 0.960 . S
H335 C348 0.960 . S
C336 H328 0.929 . S
C336 C337 1.377 . S
C336 C338 1.384 . S
C337 C336 1.377 . S
C337 C343 1.390 . S
C338 H329 0.930 . S
C338 C336 1.384 . S
C338 C339 1.372 . S
C339 C338 1.372 . S
C339 C340 1.400 . S
C339 C344 1.490 . S
C340 H330 0.930 . S
C340 C339 1.400 . S
C340 C343 1.386 . S
H341 C357 0.930 . S
H342 C358 0.931 . S
C343 H331 0.929 . S
C343 C337 1.390 . S
C343 C340 1.386 . S
C344 C339 1.490 . S
C344 C346 1.395 . S
C344 C347 1.403 . S
H345 C351 0.930 . S
C346 H332 0.930 . S
C346 C344 1.395 . S
C346 C349 1.403 1_654 S
C347 C344 1.403 . S
C347 C348 1.524 . S
C347 C351 1.400 1_654 S
C348 H333 0.960 1_554 S
C348 H334 0.960 . S
C348 H335 0.960 . S
C348 C347 1.524 . S
C349 C346 1.403 1_456 S
C349 C350 1.392 . S
C349 C353 1.495 . S
C350 C349 1.392 . S
C350 C351 1.385 . S
C350 C352 1.478 . S
C351 H345 0.930 . S
C351 C347 1.400 1_456 S
C351 C350 1.385 . S
C352 C350 1.478 . S
C352 C354 1.381 . S
C352 C358 1.383 . S
C353 C349 1.495 . S
C353 H359 0.936 1_556 S
C353 H360 0.961 . S
C353 H361 0.960 . S
C354 C352 1.381 . S
C354 C355 1.394 . S
C354 H362 0.930 . S
C355 C354 1.394 . S
C355 C356 1.383 . S
C355 H363 0.929 . S
C356 C355 1.383 . S
C356 C357 1.377 . S
C357 H341 0.930 . S
C357 C356 1.377 . S
C357 C358 1.379 . S
C358 H342 0.931 . S
C358 C352 1.383 . S
C358 C357 1.379 . S
H359 C353 0.936 1_554 S
H360 C353 0.961 . S
H361 C353 0.960 . S
H362 C354 0.930 . S
H363 C355 0.929 . S
H364 C372 0.929 . S
H365 C374 0.930 . S
H366 C376 0.930 . S
H367 C379 0.929 . S
H368 C382 0.930 . S
H369 C384 0.960 . S
H370 C384 0.960 . S
H371 C384 0.960 . S
C372 H364 0.929 . S
C372 C373 1.377 . S
C372 C374 1.384 . S
C373 C372 1.377 . S
C373 C379 1.390 . S
C374 H365 0.930 . S
C374 C372 1.384 . S
C374 C375 1.372 . S
C375 C374 1.372 . S
C375 C376 1.400 . S
C375 C380 1.490 . S
C376 H366 0.930 . S
C376 C375 1.400 . S
C376 C379 1.386 . S
H377 C393 0.930 . S
H378 C394 0.931 . S
C379 H367 0.929 . S
C379 C373 1.390 . S
C379 C376 1.386 . S
C380 C375 1.490 . S
C380 C382 1.395 . S
C380 C383 1.403 1_545 S
H381 C387 0.930 . S
C382 H368 0.930 . S
C382 C380 1.395 . S
C382 C385 1.403 . S
C383 C380 1.403 1_565 S
C383 C384 1.524 . S
C383 C387 1.400 . S
C384 H369 0.960 . S
C384 H370 0.960 . S
C384 H371 0.960 . S
C384 C383 1.524 . S
C385 C382 1.403 . S
C385 C386 1.392 1_545 S
C385 C389 1.495 . S
C386 C385 1.392 1_565 S
C386 C387 1.385 . S
C386 C388 1.478 . S
C387 H381 0.930 . S
C387 C383 1.400 . S
C387 C386 1.385 . S
C388 C386 1.478 . S
C388 C390 1.381 . S
C388 C394 1.383 . S
C389 C385 1.495 . S
C389 H395 0.959 . S
C389 H396 0.961 . S
C389 H397 0.960 . S
C390 C388 1.381 . S
C390 C391 1.394 . S
C390 H398 0.930 . S
C391 C390 1.394 . S
C391 C392 1.383 . S
C391 H399 0.929 . S
C392 C391 1.383 . S
C392 C393 1.377 . S
C393 H377 0.930 . S
C393 C392 1.377 . S
C393 C394 1.379 . S
C394 H378 0.931 . S
C394 C388 1.383 . S
C394 C393 1.379 . S
H395 C389 0.959 . S
H396 C389 0.961 . S
H397 C389 0.960 . S
H398 C390 0.930 . S
H399 C391 0.929 . S
H400 C408 0.929 . S
H401 C410 0.930 . S
H402 C412 0.930 . S
H403 C415 0.929 . S
H404 C418 0.930 . S
H405 C420 0.960 . S
H406 C420 0.960 . S
H407 C420 0.960 . S
C408 H400 0.929 . S
C408 C409 1.377 . S
C408 C410 1.384 . S
C409 C408 1.377 . S
C409 C415 1.390 . S
C410 H401 0.930 . S
C410 C408 1.384 . S
C410 C411 1.372 . S
C411 C410 1.372 . S
C411 C412 1.400 . S
C411 C416 1.490 . S
C412 H402 0.930 . S
C412 C411 1.400 . S
C412 C415 1.386 . S
H413 C429 0.930 . S
H414 C430 0.931 . S
C415 H403 0.929 . S
C415 C409 1.390 . S
C415 C412 1.386 . S
C416 C411 1.490 . S
C416 C418 1.395 . S
C416 C419 1.403 . S
H417 C423 0.930 . S
C418 H404 0.930 . S
C418 C416 1.395 . S
C418 C421 1.403 . S
C419 C416 1.403 . S
C419 C420 1.524 . S
C419 C423 1.400 . S
C420 H405 0.960 . S
C420 H406 0.960 . S
C420 H407 0.960 . S
C420 C419 1.524 . S
C421 C418 1.403 . S
C421 C422 1.392 . S
C421 C425 1.495 . S
C422 C421 1.392 . S
C422 C423 1.385 . S
C422 C424 1.478 . S
C423 H417 0.930 . S
C423 C419 1.400 . S
C423 C422 1.385 . S
C424 C422 1.478 . S
C424 C426 1.381 . S
C424 C430 1.383 . S
C425 C421 1.495 . S
C425 H431 0.959 . S
C425 H432 0.961 . S
C425 H433 0.960 . S
C426 C424 1.381 . S
C426 C427 1.394 . S
C426 H434 0.930 . S
C427 C426 1.394 . S
C427 C428 1.383 . S
C427 H435 0.929 . S
C428 C427 1.383 . S
C428 C429 1.377 . S
C429 H413 0.930 . S
C429 C428 1.377 . S
C429 C430 1.379 . S
C430 H414 0.931 . S
C430 C424 1.383 . S
C430 C429 1.379 . S
H431 C425 0.959 . S
H432 C425 0.961 . S
H433 C425 0.960 . S
H434 C426 0.930 . S
H435 C427 0.929 . S
H436 C444 0.929 . S
H437 C446 0.930 . S
H438 C448 0.930 . S
H439 C451 0.929 . S
H440 C454 0.930 . S
H441 C456 0.960 . S
H442 C456 0.960 . S
H443 C456 0.960 . S
C444 H436 0.929 . S
C444 C445 1.377 . S
C444 C446 1.384 . S
C445 C444 1.377 . S
C445 C451 1.390 . S
C446 H437 0.930 . S
C446 C444 1.384 . S
C446 C447 1.372 . S
C447 C446 1.372 . S
C447 C448 1.400 . S
C447 C452 1.490 . S
C448 H438 0.930 . S
C448 C447 1.400 . S
C448 C451 1.386 . S
H449 C465 0.930 . S
H450 C466 0.931 . S
C451 H439 0.929 . S
C451 C445 1.390 . S
C451 C448 1.386 . S
C452 C447 1.490 . S
C452 C454 1.395 . S
C452 C455 1.403 . S
H453 C459 0.930 . S
C454 H440 0.930 . S
C454 C452 1.395 . S
C454 C457 1.403 . S
C455 C452 1.403 . S
C455 C456 1.524 . S
C455 C459 1.400 . S
C456 H441 0.960 . S
C456 H442 0.960 . S
C456 H443 0.960 . S
C456 C455 1.524 . S
C457 C454 1.403 . S
C457 C458 1.392 . S
C457 C461 1.495 . S
C458 C457 1.392 . S
C458 C459 1.385 . S
C458 C460 1.478 . S
C459 H453 0.930 . S
C459 C455 1.400 . S
C459 C458 1.385 . S
C460 C458 1.478 . S
C460 C462 1.381 . S
C460 C466 1.383 . S
C461 C457 1.495 . S
C461 H467 0.959 . S
C461 H468 0.961 . S
C461 H469 0.960 . S
C462 C460 1.381 . S
C462 C463 1.394 . S
C462 H470 0.930 . S
C463 C462 1.394 . S
C463 C464 1.383 . S
C463 H471 0.929 . S
C464 C463 1.383 . S
C464 C465 1.377 . S
C465 H449 0.930 . S
C465 C464 1.377 . S
C465 C466 1.379 . S
C466 H450 0.931 . S
C466 C460 1.383 . S
C466 C465 1.379 . S
H467 C461 0.959 . S
H468 C461 0.961 . S
H469 C461 0.960 . S
H470 C462 0.930 . S
H471 C463 0.929 . S
H472 C480 0.929 . S
H473 C482 0.930 . S
H474 C484 0.930 . S
H475 C487 0.929 . S
H476 C490 0.930 . S
H477 C492 0.960 . S
H478 C492 0.960 . S
H479 C492 0.960 . S
C480 H472 0.929 . S
C480 C481 1.377 . S
C480 C482 1.384 . S
C481 C480 1.377 . S
C481 C487 1.390 . S
C482 H473 0.930 . S
C482 C480 1.384 . S
C482 C483 1.372 . S
C483 C482 1.372 . S
C483 C484 1.400 . S
C483 C488 1.490 . S
C484 H474 0.930 . S
C484 C483 1.400 . S
C484 C487 1.386 . S
H485 C501 0.930 . S
H486 C502 0.931 . S
C487 H475 0.929 . S
C487 C481 1.390 . S
C487 C484 1.386 . S
C488 C483 1.490 . S
C488 C490 1.395 . S
C488 C491 1.403 . S
H489 C495 0.930 . S
C490 H476 0.930 . S
C490 C488 1.395 . S
C490 C493 1.403 . S
C491 C488 1.403 . S
C491 C492 1.524 . S
C491 C495 1.400 . S
C492 H477 0.960 . S
C492 H478 0.960 . S
C492 H479 0.960 . S
C492 C491 1.524 . S
C493 C490 1.403 . S
C493 C494 1.392 . S
C493 C497 1.495 . S
C494 C493 1.392 . S
C494 C495 1.385 . S
C494 C496 1.478 . S
C495 H489 0.930 . S
C495 C491 1.400 . S
C495 C494 1.385 . S
C496 C494 1.478 . S
C496 C498 1.381 . S
C496 C502 1.383 . S
C497 C493 1.495 . S
C497 H503 0.959 . S
C497 H504 0.961 . S
C497 H505 0.960 . S
C498 C496 1.381 . S
C498 C499 1.394 . S
C498 H506 0.930 . S
C499 C498 1.394 . S
C499 C500 1.383 . S
C499 H507 0.929 . S
C500 C499 1.383 . S
C500 C501 1.377 . S
C501 H485 0.930 . S
C501 C500 1.377 . S
C501 C502 1.379 . S
C502 H486 0.931 . S
C502 C496 1.383 . S
C502 C501 1.379 . S
H503 C497 0.959 . S
H504 C497 0.961 . S
H505 C497 0.960 . S
H506 C498 0.930 . S
H507 C499 0.929 . S
H508 C516 0.929 . S
H509 C518 0.930 . S
H510 C520 0.930 . S
H511 C523 0.929 . S
H512 C526 0.930 . S
H513 C528 0.960 . S
H514 C528 0.960 . S
H515 C528 0.960 . S
C516 H508 0.929 . S
C516 C517 1.377 . S
C516 C518 1.384 . S
C517 C516 1.377 . S
C517 C523 1.390 . S
C518 H509 0.930 . S
C518 C516 1.384 . S
C518 C519 1.372 . S
C519 C518 1.372 . S
C519 C520 1.400 . S
C519 C524 1.490 . S
C520 H510 0.930 . S
C520 C519 1.400 . S
C520 C523 1.386 . S
H521 C537 0.930 . S
H522 C538 0.931 . S
C523 H511 0.929 . S
C523 C517 1.390 . S
C523 C520 1.386 . S
C524 C519 1.490 . S
C524 C526 1.395 . S
C524 C527 1.403 . S
H525 C531 0.930 . S
C526 H512 0.930 . S
C526 C524 1.395 . S
C526 C529 1.403 . S
C527 C524 1.403 . S
C527 C528 1.524 . S
C527 C531 1.400 . S
C528 H513 0.960 . S
C528 H514 0.960 . S
C528 H515 0.960 . S
C528 C527 1.524 . S
C529 C526 1.403 . S
C529 C530 1.392 . S
C529 C533 1.495 . S
C530 C529 1.392 . S
C530 C531 1.385 . S
C530 C532 1.478 . S
C531 H525 0.930 . S
C531 C527 1.400 . S
C531 C530 1.385 . S
C532 C530 1.478 . S
C532 C534 1.381 . S
C532 C538 1.383 . S
C533 C529 1.495 . S
C533 H539 0.959 . S
C533 H540 0.961 . S
C533 H541 0.960 . S
C534 C532 1.381 . S
C534 C535 1.394 . S
C534 H542 0.930 . S
C535 C534 1.394 . S
C535 C536 1.383 . S
C535 H543 0.929 . S
C536 C535 1.383 . S
C536 C537 1.377 . S
C537 H521 0.930 . S
C537 C536 1.377 . S
C537 C538 1.379 . S
C538 H522 0.931 . S
C538 C532 1.383 . S
C538 C537 1.379 . S
H539 C533 0.959 . S
H540 C533 0.961 . S
H541 C533 0.960 . S
H542 C534 0.930 . S
H543 C535 0.929 . S
H544 C552 0.929 . S
H545 C554 0.930 . S
H546 C556 0.930 . S
H547 C559 0.929 . S
H548 C562 0.930 . S
H549 C564 0.960 1_565 S
H550 C564 0.960 . S
H551 C564 0.960 . S
C552 H544 0.929 . S
C552 C553 1.377 . S
C552 C554 1.384 . S
C553 C552 1.377 . S
C553 C559 1.390 . S
C554 H545 0.930 . S
C554 C552 1.384 . S
C554 C555 1.372 . S
C555 C554 1.372 . S
C555 C556 1.400 . S
C555 C560 1.490 . S
C556 H546 0.930 . S
C556 C555 1.400 . S
C556 C559 1.386 . S
H557 C573 0.930 . S
H558 C574 0.931 . S
C559 H547 0.929 . S
C559 C553 1.390 . S
C559 C556 1.386 . S
C560 C555 1.490 . S
C560 C562 1.395 1_455 S
C560 C563 1.403 . S
H561 C567 0.930 . S
C562 H548 0.930 . S
C562 C560 1.395 1_655 S
C562 C565 1.403 1_545 S
C563 C560 1.403 . S
C563 C564 1.524 . S
C563 C567 1.400 1_545 S
C564 H549 0.960 1_545 S
C564 H550 0.960 . S
C564 H551 0.960 . S
C564 C563 1.524 . S
C565 C562 1.403 1_565 S
C565 C566 1.392 . S
C565 C569 1.495 . S
C566 C565 1.392 . S
C566 C567 1.385 1_655 S
C566 C568 1.478 . S
C567 H561 0.930 . S
C567 C563 1.400 1_565 S
C567 C566 1.385 1_455 S
C568 C566 1.478 . S
C568 C570 1.381 . S
C568 C574 1.383 . S
C569 C565 1.495 . S
C569 H575 0.959 1_565 S
C569 H576 0.961 . S
C569 H577 0.960 . S
C570 C568 1.381 . S
C570 C571 1.394 . S
C570 H578 0.930 . S
C571 C570 1.394 . S
C571 C572 1.383 . S
C571 H579 0.929 . S
C572 C571 1.383 . S
C572 C573 1.377 . S
C573 H557 0.930 . S
C573 C572 1.377 . S
C573 C574 1.379 . S
C574 H558 0.931 . S
C574 C568 1.383 . S
C574 C573 1.379 . S
H575 C569 0.959 1_545 S
H576 C569 0.961 . S
H577 C569 0.960 . S
H578 C570 0.930 . S
H579 C571 0.929 . S
H580 C588 0.929 . S
H581 C590 0.930 . S
H582 C592 0.930 . S
H583 C595 0.929 . S
H584 C598 0.930 . S
H585 C600 0.960 1_655 S
H586 C600 0.960 . S
H587 C600 0.960 . S
C588 H580 0.929 . S
C588 C589 1.377 . S
C588 C590 1.384 . S
C589 C588 1.377 . S
C589 C595 1.390 . S
C590 H581 0.930 . S
C590 C588 1.384 . S
C590 C591 1.372 . S
C591 C590 1.372 . S
C591 C592 1.400 . S
C591 C596 1.490 . S
C592 H582 0.930 . S
C592 C591 1.400 . S
C592 C595 1.386 . S
H593 C609 0.930 . S
H594 C610 0.931 . S
C595 H583 0.929 . S
C595 C589 1.390 . S
C595 C592 1.386 . S
C596 C591 1.490 . S
C596 C598 1.395 1_565 S
C596 C599 1.403 . S
H597 C603 0.930 . S
C598 H584 0.930 . S
C598 C596 1.395 1_545 S
C598 C601 1.403 1_455 S
C599 C596 1.403 . S
C599 C600 1.524 . S
C599 C603 1.400 1_455 S
C600 H585 0.960 1_455 S
C600 H586 0.960 . S
C600 H587 0.960 . S
C600 C599 1.524 . S
C601 C598 1.403 1_655 S
C601 C602 1.392 . S
C601 C605 1.495 . S
C602 C601 1.392 . S
C602 C603 1.385 1_545 S
C602 C604 1.478 . S
C603 H597 0.930 . S
C603 C599 1.400 1_655 S
C603 C602 1.385 1_565 S
C604 C602 1.478 . S
C604 C606 1.381 . S
C604 C610 1.383 . S
C605 C601 1.495 . S
C605 H611 0.959 1_655 S
C605 H612 0.961 . S
C605 H613 0.960 . S
C606 C604 1.381 . S
C606 C607 1.394 . S
C606 H614 0.930 . S
C607 C606 1.394 . S
C607 C608 1.383 . S
C607 H615 0.929 . S
C608 C607 1.383 . S
C608 C609 1.377 . S
C609 H593 0.930 . S
C609 C608 1.377 . S
C609 C610 1.379 . S
C610 H594 0.931 . S
C610 C604 1.383 . S
C610 C609 1.379 . S
H611 C605 0.959 1_455 S
H612 C605 0.961 . S
H613 C605 0.960 . S
H614 C606 0.930 . S
H615 C607 0.929 . S
H616 C624 0.929 . S
H617 C626 0.930 . S
H618 C628 0.930 . S
H619 C631 0.929 . S
H620 C634 0.930 . S
H621 C636 0.960 1_565 S
H622 C636 0.960 . S
H623 C636 0.960 . S
C624 H616 0.929 . S
C624 C625 1.377 . S
C624 C626 1.384 . S
C625 C624 1.377 . S
C625 C631 1.390 . S
C626 H617 0.930 . S
C626 C624 1.384 . S
C626 C627 1.372 . S
C627 C626 1.372 . S
C627 C628 1.400 . S
C627 C632 1.490 . S
C628 H618 0.930 . S
C628 C627 1.400 . S
C628 C631 1.386 . S
H629 C645 0.930 . S
H630 C646 0.931 . S
C631 H619 0.929 . S
C631 C625 1.390 . S
C631 C628 1.386 . S
C632 C627 1.490 . S
C632 C634 1.395 1_655 S
C632 C635 1.403 . S
H633 C639 0.930 . S
C634 H620 0.930 . S
C634 C632 1.395 1_455 S
C634 C637 1.403 1_545 S
C635 C632 1.403 . S
C635 C636 1.524 . S
C635 C639 1.400 1_545 S
C636 H621 0.960 1_545 S
C636 H622 0.960 . S
C636 H623 0.960 . S
C636 C635 1.524 . S
C637 C634 1.403 1_565 S
C637 C638 1.392 . S
C637 C641 1.495 . S
C638 C637 1.392 . S
C638 C639 1.385 1_455 S
C638 C640 1.478 . S
C639 H633 0.930 . S
C639 C635 1.400 1_565 S
C639 C638 1.385 1_655 S
C640 C638 1.478 . S
C640 C642 1.381 . S
C640 C646 1.383 . S
C641 C637 1.495 . S
C641 H647 0.959 1_565 S
C641 H648 0.961 . S
C641 H649 0.960 . S
C642 C640 1.381 . S
C642 C643 1.394 . S
C642 H650 0.930 . S
C643 C642 1.394 . S
C643 C644 1.383 . S
C643 H651 0.929 . S
C644 C643 1.383 . S
C644 C645 1.377 . S
C645 H629 0.930 . S
C645 C644 1.377 . S
C645 C646 1.379 . S
C646 H630 0.931 . S
C646 C640 1.383 . S
C646 C645 1.379 . S
H647 C641 0.959 1_545 S
H648 C641 0.961 . S
H649 C641 0.960 . S
H650 C642 0.930 . S
H651 C643 0.929 . S
H652 C660 0.929 . S
H653 C662 0.930 . S
H654 C664 0.930 . S
H655 C667 0.929 . S
H656 C670 0.930 . S
H657 C672 0.960 1_455 S
H658 C672 0.960 . S
H659 C672 0.960 . S
C660 H652 0.929 . S
C660 C661 1.377 . S
C660 C662 1.384 . S
C661 C660 1.377 . S
C661 C667 1.390 . S
C662 H653 0.930 . S
C662 C660 1.384 . S
C662 C663 1.372 . S
C663 C662 1.372 . S
C663 C664 1.400 . S
C663 C668 1.490 . S
C664 H654 0.930 . S
C664 C663 1.400 . S
C664 C667 1.386 . S
H665 C681 0.930 . S
H666 C682 0.931 . S
C667 H655 0.929 . S
C667 C661 1.390 . S
C667 C664 1.386 . S
C668 C663 1.490 . S
C668 C670 1.395 1_565 S
C668 C671 1.403 . S
H669 C675 0.930 . S
C670 H656 0.930 . S
C670 C668 1.395 1_545 S
C670 C673 1.403 1_655 S
C671 C668 1.403 . S
C671 C672 1.524 . S
C671 C675 1.400 1_655 S
C672 H657 0.960 1_655 S
C672 H658 0.960 . S
C672 H659 0.960 . S
C672 C671 1.524 . S
C673 C670 1.403 1_455 S
C673 C674 1.392 . S
C673 C677 1.495 . S
C674 C673 1.392 . S
C674 C675 1.385 1_545 S
C674 C676 1.478 . S
C675 H669 0.930 . S
C675 C671 1.400 1_455 S
C675 C674 1.385 1_565 S
C676 C674 1.478 . S
C676 C678 1.381 . S
C676 C682 1.383 . S
C677 C673 1.495 . S
C677 H683 0.959 1_455 S
C677 H684 0.961 . S
C677 H685 0.960 . S
C678 C676 1.381 . S
C678 C679 1.394 . S
C678 H686 0.930 . S
C679 C678 1.394 . S
C679 C680 1.383 . S
C679 H687 0.929 . S
C680 C679 1.383 . S
C680 C681 1.377 . S
C681 H665 0.930 . S
C681 C680 1.377 . S
C681 C682 1.379 . S
C682 H666 0.931 . S
C682 C676 1.383 . S
C682 C681 1.379 . S
H683 C677 0.959 1_655 S
H684 C677 0.961 . S
H685 C677 0.960 . S
H686 C678 0.930 . S
H687 C679 0.929 . S
C121 C3 1.328 . S
C140 C31 1.319 . S
C157 C50 1.362 . S
C176 C22 1.362 . S
C193 C87 1.332 . S
C212 C59 1.339 . S
C229 C78 1.364 . S
C248 C106 1.360 . S
C265 C93 1.411 . S
C284 C9 1.384 . S
C301 C21 1.422 . S
C320 C105 1.436 . S
C337 C37 1.415 . S
C356 C65 1.421 . S
C373 C77 1.421 . S
C392 C49 1.396 . S
C409 C8 1.338 . S
C428 C73 1.329 . S
C445 C92 1.336 . S
C464 C17 1.327 . S
C481 C101 1.296 . S
C500 C36 1.308 . S
C517 C45 1.299 . S
C536 C64 1.342 . S
C553 C7 0.770 . S
C572 C35 0.777 . S
C589 C51 0.793 . S
C608 C23 0.767 . S
C625 C91 0.769 . S
C644 C63 0.782 . S
C661 C107 0.794 . S
C680 C79 0.763 . S
