# Generated by pormake.
# Topology oob, (7)-cn, num edge types: 1
# Building blocks:
#     Node 0, Type 0, BuildingBlock: HICVOG_clean_sbu_0, # of connection points: 7
#     Node 1, Type 0, BuildingBlock: HICVOG_clean_sbu_0, # of connection points: 7
#     Node 2, Type 0, BuildingBlock: HICVOG_clean_sbu_0, # of connection points: 7
#     Node 3, Type 0, BuildingBlock: HICVOG_clean_sbu_0, # of connection points: 7
#     Edge 4, Type (0, 0), BuildingBlock: XIVTED_clean_linker_0, # of connection points: 2
#     Edge 5, Type (0, 0), BuildingBlock: XIVTED_clean_linker_0, # of connection points: 2
#     Edge 6, Type (0, 0), BuildingBlock: XIVTED_clean_linker_0, # of connection points: 2
#     Edge 7, Type (0, 0), BuildingBlock: XIVTED_clean_linker_0, # of connection points: 2
#     Edge 8, Type (0, 0), BuildingBlock: XIVTED_clean_linker_0, # of connection points: 2
#     Edge 9, Type (0, 0), BuildingBlock: XIVTED_clean_linker_0, # of connection points: 2
#     Edge 10, Type (0, 0), BuildingBlock: XIVTED_clean_linker_0, # of connection points: 2
#     Edge 11, Type (0, 0), BuildingBlock: XIVTED_clean_linker_0, # of connection points: 2
#     Edge 12, Type (0, 0), BuildingBlock: XIVTED_clean_linker_0, # of connection points: 2
#     Edge 13, Type (0, 0), BuildingBlock: XIVTED_clean_linker_0, # of connection points: 2
#     Edge 14, Type (0, 0), BuildingBlock: XIVTED_clean_linker_0, # of connection points: 2
#     Edge 15, Type (0, 0), BuildingBlock: XIVTED_clean_linker_0, # of connection points: 2
#     Edge 16, Type (0, 0), BuildingBlock: XIVTED_clean_linker_0, # of connection points: 2
#     Edge 17, Type (0, 0), BuildingBlock: XIVTED_clean_linker_0, # of connection points: 2
# Relax obj value: 0.265
# Max RMSD: 0.256
# Mean RMSD: 0.256
data_MOF--net-oob--node1-HICVOG_clean_sbu_0--edge1-XIVTED_clean_linker_0
_symmetry_space_group_name_H-M    P1
_symmetry_Int_Tables_number       1
_symmetry_cell_setting            triclinic
loop_
_symmetry_equiv_pos_as_xyz
'x, y, z'
_cell_length_a     17.575898
_cell_length_b     40.377402
_cell_length_c     27.225916
_cell_angle_alpha  89.980017
_cell_angle_beta   107.13671
_cell_angle_gamma 90.010491
loop_
_atom_site_label
_atom_site_type_symbol
_atom_site_fract_x
_atom_site_fract_y
_atom_site_fract_z
_atom_type_partial_charge
Zn0 Zn 0.24311 0.04386 0.81429 0.0
C1 C 0.16575 1.00142 0.925 0.0
N2 N 0.21944 0.02169 0.95563 0.0
C3 C 0.25473 0.03534 0.92309 0.0
N4 N 0.22447 0.02368 0.87456 0.0
N5 N 0.1678 1.00229 0.87583 0.0
C6 C 0.95585 0.99285 0.80517 0.0
O7 O 0.98924 0.01804 0.78891 0.0
O8 O 0.35713 0.03867 0.81268 0.0
Zn9 Zn 0.11418 0.97 0.82444 0.0
N10 N 0.2192 0.09011 0.82028 0.0
C11 C 0.13196 0.12785 0.84363 0.0
C12 C 0.1516 0.09574 0.83354 0.0
C13 C 0.26774 0.11551 0.81573 0.0
N14 N 0.18031 0.15318 0.83948 0.0
C15 C 0.24772 0.14814 0.82552 0.0
O16 O 0.10911 0.98067 0.75082 0.0
C17 C 0.12838 1.0034 0.72432 0.0
O18 O 0.173 0.0275 0.74525 0.0
H19 H 0.11407 0.07521 0.83721 0.0
H20 H 0.32173 0.11024 0.80576 0.0
C21 C 0.13646 0.89821 0.82401 0.0
C22 C 0.17523 0.86852 0.84435 0.0
C23 C 0.27262 0.89936 0.9063 0.0
C24 C 0.23493 0.92863 0.88576 0.0
N25 N 0.16671 0.92764 0.8458 0.0
N26 N 0.24196 0.8701 0.88528 0.0
H27 H 0.08259 0.89795 0.79194 0.0
C28 C 0.38588 0.01036 0.80772 0.0
O29 O 0.34078 0.98398 0.80426 0.0
O30 O 0.99841 0.96766 0.82337 0.0
H31 H 0.25999 0.95193 0.90214 0.0
H32 H 0.0788 0.13266 0.85478 0.0
H33 H 0.32617 0.89986 0.93856 0.0
Zn34 Zn 0.7728 0.04362 0.24855 0.0
C35 C 0.85331 1.00073 0.13967 0.0
N36 N 0.8 0.02093 0.10856 0.0
C37 C 0.76406 0.03471 0.14061 0.0
N38 N 0.79349 0.02321 0.18926 0.0
N39 N 0.85055 1.00184 0.18871 0.0
C40 C 0.0632 0.99118 0.26305 0.0
O41 O 0.03111 0.01609 0.28087 0.0
O42 O 0.65826 0.03799 0.24889 0.0
Zn43 Zn 0.90301 0.9697 0.24095 0.0
N44 N 0.79599 0.08992 0.24202 0.0
C45 C 0.88239 0.12773 0.2179 0.0
C46 C 0.86324 0.09561 0.22836 0.0
C47 C 0.74744 0.11526 0.24671 0.0
N48 N 0.83404 0.153 0.2222 0.0
C49 C 0.76705 0.1479 0.23663 0.0
O50 O 0.90673 0.98097 0.31421 0.0
C51 C 0.88667 1.00396 0.33992 0.0
O52 O 0.842 0.02784 0.31814 0.0
H53 H 0.90089 0.07515 0.22468 0.0
H54 H 0.69381 0.10994 0.25707 0.0
C55 C 0.88022 0.89785 0.24043 0.0
C56 C 0.84075 0.86836 0.21972 0.0
C57 C 0.74202 0.89983 0.1597 0.0
C58 C 0.78053 0.9289 0.18051 0.0
N59 N 0.84967 0.9275 0.2197 0.0
N60 N 0.77299 0.87036 0.17961 0.0
H61 H 0.9349 0.89724 0.27185 0.0
C62 C 0.62928 0.00953 0.25262 0.0
O63 O 0.6742 0.9832 0.25502 0.0
O64 O 0.01925 0.9667 0.24309 0.0
H65 H 0.75541 0.95237 0.16492 0.0
H66 H 0.93524 0.13258 0.2064 0.0
H67 H 0.68768 0.90066 0.12806 0.0
Zn68 Zn 0.74881 0.54235 0.31343 0.0
C69 C 0.66551 0.50295 0.42351 0.0
N70 N 0.71952 0.52325 0.45382 0.0
C71 C 0.75652 0.53574 0.42141 0.0
N72 N 0.72701 0.52339 0.3733 0.0
N73 N 0.66927 0.50261 0.37464 0.0
C74 C 0.45773 0.49439 0.29416 0.0
O75 O 0.49345 0.51627 0.27284 0.0
O76 O 0.86333 0.5347 0.31508 0.0
Zn77 Zn 0.61565 0.47001 0.32364 0.0
N78 N 0.7266 0.58897 0.31809 0.0
C79 C 0.63807 0.62694 0.33971 0.0
C80 C 0.65783 0.5948 0.32987 0.0
C81 C 0.77604 0.61428 0.31448 0.0
N82 N 0.68739 0.65213 0.33667 0.0
C83 C 0.75581 0.64691 0.32401 0.0
O84 O 0.61596 0.47875 0.25022 0.0
C85 C 0.63605 0.50118 0.22355 0.0
O86 O 0.67973 0.52558 0.24432 0.0
H87 H 0.61947 0.57438 0.33271 0.0
H88 H 0.83086 0.60903 0.30557 0.0
C89 C 0.63417 0.39793 0.32342 0.0
C90 C 0.66868 0.36774 0.34498 0.0
C91 C 0.75864 0.39726 0.41298 0.0
C92 C 0.72552 0.427 0.39117 0.0
N93 N 0.66274 0.42693 0.34758 0.0
N94 N 0.72956 0.36845 0.38951 0.0
H95 H 0.58498 0.39838 0.28839 0.0
C96 C 0.88949 0.54234 0.27775 0.0
O97 O 0.84112 0.55642 0.23688 0.0
O98 O 0.49839 0.47049 0.31932 0.0
H99 H 0.75002 0.4499 0.40935 0.0
H100 H 0.58405 0.63186 0.34979 0.0
H101 H 0.80768 0.39705 0.44807 0.0
Zn102 Zn 0.27164 0.54294 0.74943 0.0
C103 C 0.35634 0.50299 0.64045 0.0
N104 N 0.30379 0.52374 0.60994 0.0
C105 C 0.26686 0.53668 0.64207 0.0
N106 N 0.29493 0.52412 0.69013 0.0
N107 N 0.35179 0.50282 0.6891 0.0
C108 C 0.56181 0.49494 0.76719 0.0
O109 O 0.52576 0.51722 0.78755 0.0
O110 O 0.15692 0.53474 0.7469 0.0
Zn111 Zn 0.4048 0.47034 0.74025 0.0
N112 N 0.29279 0.58969 0.74476 0.0
C113 C 0.38021 0.62825 0.72324 0.0
C114 C 0.36119 0.59594 0.73275 0.0
C115 C 0.24302 0.61472 0.74892 0.0
N116 N 0.33063 0.65319 0.72693 0.0
C117 C 0.26257 0.64754 0.73984 0.0
O118 O 0.4057 0.47981 0.81373 0.0
C119 C 0.38509 0.50235 0.83998 0.0
O120 O 0.34064 0.52644 0.81874 0.0
H121 H 0.39989 0.57575 0.72955 0.0
H122 H 0.18852 0.60911 0.75801 0.0
C123 C 0.38472 0.39827 0.7408 0.0
C124 C 0.34893 0.36824 0.71945 0.0
C125 C 0.25802 0.39817 0.65243 0.0
C126 C 0.29242 0.42776 0.67404 0.0
N127 N 0.35628 0.42741 0.71699 0.0
N128 N 0.28698 0.36923 0.6755 0.0
H129 H 0.43477 0.3985 0.77535 0.0
C130 C 0.13059 0.54224 0.78421 0.0
O131 O 0.17879 0.55634 0.82513 0.0
O132 O 0.52159 0.47051 0.74341 0.0
H133 H 0.26812 0.45078 0.65617 0.0
H134 H 0.43394 0.63352 0.71299 0.0
H135 H 0.20813 0.39819 0.61781 0.0
H136 H 0.85819 0.04686 0.78297 0.0
H137 H 0.47253 0.95337 0.81164 0.0
H138 H 0.86183 0.94434 0.82854 0.0
H139 H 0.49148 0.05975 0.80475 0.0
H140 H 0.6115 0.94857 0.81182 0.0
H141 H 0.72045 0.05097 0.7844 0.0
C142 C 0.82999 0.02513 0.79315 0.0
C143 C 0.87175 0.99515 0.80551 0.0
C144 C 0.58523 0.97295 0.81035 0.0
C145 C 0.71331 0.99974 0.80713 0.0
C146 C 0.50579 0.97573 0.81008 0.0
C147 C 0.47007 1.00703 0.80801 0.0
C148 C 0.62918 1.00165 0.808 0.0
C149 C 0.51637 0.03511 0.80631 0.0
C150 C 0.75127 0.02756 0.79414 0.0
C151 C 0.83194 0.96792 0.81866 0.0
N152 N 0.59327 0.03174 0.8061 0.0
N153 N 0.75483 0.97082 0.81892 0.0
H154 H 0.54139 0.95257 0.24527 0.0
H155 H 0.16385 0.04405 0.28966 0.0
H156 H 0.52582 0.05853 0.26083 0.0
H157 H 0.15349 0.94369 0.23347 0.0
H158 H 0.30047 0.04833 0.2861 0.0
H159 H 0.40337 0.94747 0.24714 0.0
C160 C 0.50905 0.97477 0.24911 0.0
C161 C 0.54543 1.00604 0.25303 0.0
C162 C 0.26843 0.02535 0.27453 0.0
C163 C 0.38753 1.00031 0.25548 0.0
C164 C 0.19036 0.0228 0.27675 0.0
C165 C 0.14701 0.99339 0.26203 0.0
C166 C 0.30419 0.9982 0.25788 0.0
C167 C 0.18469 0.9668 0.24536 0.0
C168 C 0.43016 0.97182 0.25002 0.0
C169 C 0.50035 0.03392 0.2577 0.0
N170 N 0.26124 0.96979 0.24392 0.0
N171 N 0.42404 0.03037 0.25906 0.0
H172 H 0.37074 0.46325 0.35002 0.0
H173 H 0.96856 0.56082 0.20934 0.0
H174 H 0.35145 0.53667 0.23171 0.0
H175 H 1.00087 0.50678 0.35087 0.0
H176 H 0.10561 0.54784 0.21265 0.0
H177 H 0.23184 0.47433 0.34647 0.0
C178 C 0.33725 0.48153 0.32312 0.0
C179 C 0.37289 0.49913 0.29121 0.0
C180 C 0.08282 0.53883 0.24305 0.0
C181 C 0.21418 0.5118 0.28681 0.0
C182 C 1.00443 0.54621 0.24114 0.0
C183 C 0.97303 0.53491 0.27988 0.0
C184 C 0.13034 0.51976 0.28378 0.0
C185 C 0.02258 0.51608 0.32019 0.0
C186 C 0.25814 0.48793 0.32127 0.0
C187 C 0.32668 0.52259 0.25719 0.0
N188 N 0.09869 0.509 0.32102 0.0
N189 N 0.2499 0.52817 0.25584 0.0
H190 H 0.64915 0.46314 0.71221 0.0
H191 H 0.05084 0.56134 0.85187 0.0
H192 H 0.66765 0.53778 0.8286 0.0
H193 H 0.01985 0.50607 0.71163 0.0
H194 H 0.91364 0.54852 0.84834 0.0
H195 H 0.78832 0.47396 0.71597 0.0
C196 C 0.68254 0.48162 0.73874 0.0
C197 C 0.64664 0.49962 0.77008 0.0
C198 C 0.93674 0.5392 0.81828 0.0
C199 C 0.80554 0.51202 0.77466 0.0
C200 C 0.01523 0.54648 0.82031 0.0
C201 C 0.04702 0.53481 0.78197 0.0
C202 C 0.88951 0.51984 0.77783 0.0
C203 C 0.99778 0.51567 0.74197 0.0
C204 C 0.76177 0.48788 0.7407 0.0
C205 C 0.69264 0.52338 0.80357 0.0
N206 N 0.92155 0.50869 0.74101 0.0
N207 N 0.76951 0.52882 0.80503 0.0
H208 H 0.06724 0.95005 0.66283 0.0
H209 H 0.89992 0.05604 0.40652 0.0
H210 H 0.11175 0.05484 0.65614 0.0
H211 H 0.94937 0.9515 0.40321 0.0
H212 H 0.9599 0.05571 0.49991 0.0
H213 H 1.0076 0.94976 0.56927 0.0
C214 C 0.06461 0.97299 0.64173 0.0
C215 C 0.09482 1.00251 0.66745 0.0
C216 C 0.95751 0.03286 0.47869 0.0
C217 C 0.02545 1.00238 0.56049 0.0
C218 C 0.92282 0.03295 0.42541 0.0
C219 C 0.91956 1.00374 0.39686 0.0
C220 C 0.988 1.00323 0.5039 0.0
C221 C 0.9508 0.97462 0.42357 0.0
C222 C 0.03072 0.97276 0.58835 0.0
C223 C 0.08977 0.03146 0.63799 0.0
N224 N 0.98328 0.97506 0.47558 0.0
N225 N 0.05518 0.03072 0.5862 0.0
H226 H 0.39807 0.55385 0.90753 0.0
H227 H 0.57482 0.44763 0.16242 0.0
H228 H 0.44965 0.44963 0.90227 0.0
H229 H 0.6192 0.55238 0.15499 0.0
H230 H 0.51269 0.44732 0.06904 0.0
H231 H 0.461 0.5532 1.00061 0.0
C232 C 0.42194 0.53075 0.92594 0.0
C233 C 0.41852 0.50174 0.8969 0.0
C234 C 0.53642 0.4703 0.08792 0.0
C235 C 0.49047 0.50088 1.00362 0.0
C236 C 0.57181 0.47053 0.14119 0.0
C237 C 0.60258 0.50007 0.16667 0.0
C238 C 0.53013 0.49993 0.05999 0.0
C239 C 0.59687 0.52899 0.13705 0.0
C240 C 0.45837 0.53048 0.97904 0.0
C241 C 0.45112 0.4726 0.92302 0.0
N242 N 0.56071 0.52825 0.08544 0.0
N243 N 0.48533 0.47287 0.97489 0.0
H244 H 0.39685 0.02732 0.90495 0.0
H245 H 0.74587 0.08525 0.07285 0.0
H246 H 0.27913 0.08399 0.99452 0.0
H247 H 0.61899 0.0268 0.15496 0.0
H248 H 0.61797 0.10235 1.01274 0.0
H249 H 0.52496 0.04702 0.95901 0.0
C250 C 0.3975 0.04617 0.93299 0.0
C251 C 0.32703 0.05553 0.94308 0.0
C252 C 0.61854 0.08743 0.04592 0.0
C253 C 0.4737 0.07507 1.00927 0.0
C254 C 0.6911 0.07778 0.08032 0.0
C255 C 0.69283 0.05542 0.12018 0.0
C256 C 0.54769 0.07488 0.0521 0.0
C257 C 0.62044 0.04561 0.12721 0.0
C258 C 0.4709 0.05668 0.96508 0.0
C259 C 0.33232 0.0768 0.98485 0.0
N260 N 0.55059 0.05504 0.09301 0.0
N261 N 0.40461 0.08485 1.01771 0.0
H262 H 0.24663 0.5882 0.57598 0.0
H263 H 0.89984 0.52469 0.40605 0.0
H264 H 0.12141 0.52603 0.65468 0.0
H265 H 0.78145 0.58608 0.48992 0.0
H266 H 0.02804 0.54368 0.46142 0.0
H267 H 0.11852 0.60385 0.51465 0.0
C268 C 0.19195 0.5796 0.58245 0.0
C269 C 0.19435 0.5566 0.62163 0.0
C270 C 0.97393 0.55439 0.4659 0.0
C271 C 0.04908 0.5744 0.55217 0.0
C272 C 0.90063 0.54427 0.43315 0.0
C273 C 0.8299 0.55523 0.44139 0.0
C274 C 0.97611 0.57414 0.50865 0.0
C275 C 0.83494 0.57765 0.48173 0.0
C276 C 0.11933 0.5884 0.54734 0.0
C277 C 0.12218 0.54529 0.62736 0.0
N278 N 0.90691 0.58545 0.51518 0.0
N279 N 0.05231 0.55393 0.59244 0.0
H280 H 0.0133 1.00483 0.16266 0.0
H281 H 0.21479 0.95394 0.99716 0.0
H282 H 0.80859 0.95531 0.06389 0.0
H283 H 1.00622 1.00551 0.90692 0.0
H284 H 0.14073 0.93615 0.05635 0.0
H285 H 0.09319 0.98472 0.10934 0.0
C286 C 0.98684 0.98752 0.13217 0.0
C287 C 0.90572 0.98006 0.11942 0.0
C288 C 0.11019 0.94975 1.02186 0.0
C289 C 0.99395 0.96009 0.05485 0.0
C290 C 0.15194 0.95971 0.98802 0.0
C291 C 0.11534 0.98022 0.9461 0.0
C292 C 0.0315 0.96038 1.0133 0.0
C293 C 0.03495 0.98821 0.93689 0.0
C294 C 0.03187 0.97665 0.1009 0.0
C295 C 0.87175 0.96073 0.0756 0.0
N296 N 0.99573 0.97853 0.97061 0.0
N297 N 0.91539 0.95237 0.04373 0.0
H298 H 0.30534 0.45689 0.56656 0.0
H299 H 0.50466 0.5048 0.39966 0.0
H300 H 0.51682 0.50496 0.66047 0.0
H301 H 0.71323 0.45963 0.50191 0.0
H302 H 0.42626 0.4849 0.45415 0.0
H303 H 0.37904 0.43936 0.50722 0.0
C304 C 0.36859 0.46199 0.5763 0.0
C305 C 0.40603 0.48156 0.61918 0.0
C306 C 0.48828 0.47773 0.46323 0.0
C307 C 0.48937 0.46224 0.55153 0.0
C308 C 0.53258 0.48856 0.43143 0.0
C309 C 0.61434 0.48237 0.44493 0.0
C310 C 0.52731 0.4623 0.51015 0.0
C311 C 0.64966 0.46415 0.48977 0.0
C312 C 0.41012 0.45222 0.5423 0.0
C313 C 0.48707 0.48861 0.6293 0.0
N314 N 0.60646 0.45567 0.52181 0.0
N315 N 0.52605 0.47926 0.59527 0.0
H316 H 0.32702 0.15897 0.75341 0.0
H317 H 0.38148 0.35175 0.82148 0.0
H318 H 0.27421 0.20435 0.88309 0.0
H319 H 0.36446 0.31044 0.6726 0.0
H320 H 0.38467 0.29541 0.85592 0.0
H321 H 0.3824 0.21171 0.73546 0.0
C322 C 0.32901 0.17972 0.77895 0.0
C323 C 0.29525 0.17736 0.81955 0.0
C324 C 0.38218 0.29873 0.816 0.0
C325 C 0.35771 0.23777 0.7989 0.0
C326 C 0.38114 0.33085 0.79649 0.0
C327 C 0.37209 0.33566 0.74406 0.0
C328 C 0.37455 0.27141 0.78283 0.0
C329 C 0.3707 0.30771 0.71317 0.0
C330 C 0.36012 0.20989 0.76846 0.0
C331 C 0.29864 0.20524 0.85095 0.0
N332 N 0.37096 0.2768 0.73284 0.0
N333 N 0.32848 0.23436 0.8397 0.0
H334 H 0.63661 0.35163 0.2428 0.0
H335 H 0.68885 0.15863 0.30935 0.0
H336 H 0.65217 0.30976 0.39117 0.0
H337 H 0.73992 0.20418 0.17916 0.0
H338 H 0.63421 0.21136 0.32786 0.0
H339 H 0.63252 0.29544 0.20782 0.0
C340 C 0.63648 0.33065 0.26757 0.0
C341 C 0.64537 0.33526 0.32002 0.0
C342 C 0.65594 0.20958 0.29463 0.0
C343 C 0.64192 0.27115 0.28062 0.0
C344 C 0.68661 0.17941 0.28382 0.0
C345 C 0.71971 0.1771 0.2429 0.0
C346 C 0.65816 0.23752 0.26423 0.0
C347 C 0.71603 0.20503 0.21153 0.0
C348 C 0.63492 0.2986 0.24774 0.0
C349 C 0.64612 0.3072 0.3506 0.0
N350 N 0.68667 0.23415 0.22313 0.0
N351 N 0.6454 0.27636 0.33063 0.0
H352 H 0.84971 0.8124 0.16672 0.0
H353 H 0.79028 0.70074 0.38635 0.0
H354 H 0.88681 0.84884 0.32078 0.0
H355 H 0.82736 0.65993 0.24889 0.0
H356 H 0.84281 0.75376 0.36781 0.0
H357 H 0.8596 0.7557 0.19923 0.0
C358 C 0.86203 0.80838 0.20768 0.0
C359 C 0.86706 0.83525 0.24111 0.0
C360 C 0.84132 0.73306 0.34226 0.0
C361 C 0.87606 0.77043 0.27848 0.0
C362 C 0.81121 0.7028 0.35281 0.0
C363 C 0.80393 0.67604 0.31889 0.0
C364 C 0.86237 0.73688 0.29669 0.0
C365 C 0.83214 0.67993 0.27611 0.0
C366 C 0.86763 0.77601 0.22625 0.0
C367 C 0.88293 0.82878 0.29378 0.0
N368 N 0.85853 0.71004 0.2656 0.0
N369 N 0.88507 0.79697 0.31073 0.0
H370 H 0.18824 0.65857 0.81423 0.0
H371 H 0.12834 0.85073 0.74246 0.0
H372 H 0.22995 0.70272 0.68019 0.0
H373 H 0.16775 0.81139 0.89519 0.0
H374 H 0.11959 0.79394 0.70908 0.0
H375 H 0.13516 0.71164 0.83324 0.0
C376 C 0.184 0.67911 0.78797 0.0
C377 C 0.21423 0.67641 0.74585 0.0
C378 C 0.12816 0.7978 0.74972 0.0
C379 C 0.15439 0.73705 0.76755 0.0
C380 C 0.13246 0.83017 0.76868 0.0
C381 C 0.14942 0.83564 0.82168 0.0
C382 C 0.14037 0.77091 0.78403 0.0
C383 C 0.1554 0.80813 0.8541 0.0
C384 C 0.15428 0.70944 0.79903 0.0
C385 C 0.20816 0.70394 0.71343 0.0
N386 N 0.15174 0.77695 0.83487 0.0
N387 N 0.1797 0.73321 0.72521 0.0
loop_
_geom_bond_atom_site_label_1
_geom_bond_atom_site_label_2
_geom_bond_distance
_geom_bond_site_symmetry_2
_ccdc_geom_bond_type
Zn0 N4 2.020 . S
Zn0 O8 2.019 . S
Zn0 N10 2.119 . S
Zn0 O18 1.975 . S
C1 N2 1.337 . S
C1 N5 1.336 . S
N2 C1 1.337 . S
N2 C3 1.331 1_565 S
C3 N2 1.331 1_545 S
C3 N4 1.336 . S
N4 Zn0 2.020 . S
N4 C3 1.336 . S
N4 N5 1.354 1_545 S
N5 C1 1.336 . S
N5 N4 1.354 1_565 S
N5 Zn9 2.020 . S
C6 O7 1.244 1_565 S
C6 O30 1.257 . S
O7 C6 1.244 1_545 S
O8 Zn0 2.019 . S
O8 C28 1.257 . S
Zn9 N5 2.020 . S
Zn9 O16 1.975 . S
Zn9 N25 2.119 . S
Zn9 O30 2.019 1_455 S
N10 Zn0 2.119 . S
N10 C12 1.334 . S
N10 C13 1.328 . S
C11 C12 1.391 . S
C11 N14 1.329 . S
C11 H32 0.930 . S
C12 N10 1.334 . S
C12 C11 1.391 . S
C12 H19 0.930 . S
C13 N10 1.328 . S
C13 C15 1.392 . S
C13 H20 0.930 . S
N14 C11 1.329 . S
N14 C15 1.331 . S
C15 C13 1.392 . S
C15 N14 1.331 . S
O16 Zn9 1.975 . S
O16 C17 1.250 1_565 S
C17 O16 1.250 1_545 S
C17 O18 1.254 . S
O18 Zn0 1.975 . S
O18 C17 1.254 . S
H19 C12 0.930 . S
H20 C13 0.930 . S
C21 C22 1.392 . S
C21 N25 1.328 . S
C21 H27 0.930 . S
C22 C21 1.392 . S
C22 N26 1.331 . S
C23 C24 1.391 . S
C23 N26 1.329 . S
C23 H33 0.930 . S
C24 C23 1.391 . S
C24 N25 1.334 . S
C24 H31 0.930 . S
N25 Zn9 2.119 . S
N25 C21 1.328 . S
N25 C24 1.334 . S
N26 C22 1.331 . S
N26 C23 1.329 . S
H27 C21 0.930 . S
C28 O8 1.257 . S
C28 O29 1.244 1_545 S
O29 C28 1.244 1_565 S
O30 C6 1.257 . S
O30 Zn9 2.019 1_655 S
H31 C24 0.930 . S
H32 C11 0.930 . S
H33 C23 0.930 . S
Zn34 N38 2.020 . S
Zn34 O42 2.019 . S
Zn34 N44 2.119 . S
Zn34 O52 1.975 . S
C35 N36 1.337 . S
C35 N39 1.336 . S
N36 C35 1.337 . S
N36 C37 1.331 1_565 S
C37 N36 1.331 1_545 S
C37 N38 1.336 . S
N38 Zn34 2.020 . S
N38 C37 1.336 . S
N38 N39 1.354 1_545 S
N39 C35 1.336 . S
N39 N38 1.354 1_565 S
N39 Zn43 2.020 . S
C40 O41 1.244 1_565 S
C40 O64 1.257 . S
O41 C40 1.244 1_545 S
O42 Zn34 2.019 . S
O42 C62 1.257 . S
Zn43 N39 2.020 . S
Zn43 O50 1.975 . S
Zn43 N59 2.119 . S
Zn43 O64 2.019 1_655 S
N44 Zn34 2.119 . S
N44 C46 1.334 . S
N44 C47 1.328 . S
C45 C46 1.391 . S
C45 N48 1.329 . S
C45 H66 0.930 . S
C46 N44 1.334 . S
C46 C45 1.391 . S
C46 H53 0.930 . S
C47 N44 1.328 . S
C47 C49 1.392 . S
C47 H54 0.930 . S
N48 C45 1.329 . S
N48 C49 1.331 . S
C49 C47 1.392 . S
C49 N48 1.331 . S
O50 Zn43 1.975 . S
O50 C51 1.250 1_565 S
C51 O50 1.250 1_545 S
C51 O52 1.254 . S
O52 Zn34 1.975 . S
O52 C51 1.254 . S
H53 C46 0.930 . S
H54 C47 0.930 . S
C55 C56 1.392 . S
C55 N59 1.328 . S
C55 H61 0.930 . S
C56 C55 1.392 . S
C56 N60 1.331 . S
C57 C58 1.391 . S
C57 N60 1.329 . S
C57 H67 0.930 . S
C58 C57 1.391 . S
C58 N59 1.334 . S
C58 H65 0.930 . S
N59 Zn43 2.119 . S
N59 C55 1.328 . S
N59 C58 1.334 . S
N60 C56 1.331 . S
N60 C57 1.329 . S
H61 C55 0.930 . S
C62 O42 1.257 . S
C62 O63 1.244 1_545 S
O63 C62 1.244 1_565 S
O64 C40 1.257 . S
O64 Zn43 2.019 1_455 S
H65 C58 0.930 . S
H66 C45 0.930 . S
H67 C57 0.930 . S
Zn68 N72 2.020 . S
Zn68 O76 2.019 . S
Zn68 N78 2.119 . S
Zn68 O86 1.975 . S
C69 N70 1.334 . S
C69 N73 1.336 . S
N70 C69 1.334 . S
N70 C71 1.334 . S
C71 N70 1.334 . S
C71 N72 1.336 . S
N72 Zn68 2.020 . S
N72 C71 1.336 . S
N72 N73 1.354 . S
N73 C69 1.336 . S
N73 N72 1.354 . S
N73 Zn77 2.020 . S
C74 O75 1.244 . S
C74 O98 1.257 . S
O75 C74 1.244 . S
O76 Zn68 2.019 . S
O76 C96 1.257 . S
Zn77 N73 2.020 . S
Zn77 O84 1.975 . S
Zn77 N93 2.119 . S
Zn77 O98 2.019 . S
N78 Zn68 2.119 . S
N78 C80 1.334 . S
N78 C81 1.328 . S
C79 C80 1.391 . S
C79 N82 1.329 . S
C79 H100 0.930 . S
C80 N78 1.334 . S
C80 C79 1.391 . S
C80 H87 0.930 . S
C81 N78 1.328 . S
C81 C83 1.392 . S
C81 H88 0.930 . S
N82 C79 1.329 . S
N82 C83 1.331 . S
C83 C81 1.392 . S
C83 N82 1.331 . S
O84 Zn77 1.975 . S
O84 C85 1.252 . S
C85 O84 1.252 . S
C85 O86 1.252 . S
O86 Zn68 1.975 . S
O86 C85 1.252 . S
H87 C80 0.930 . S
H88 C81 0.930 . S
C89 C90 1.392 . S
C89 N93 1.328 . S
C89 H95 0.930 . S
C90 C89 1.392 . S
C90 N94 1.331 . S
C91 C92 1.391 . S
C91 N94 1.329 . S
C91 H101 0.930 . S
C92 C91 1.391 . S
C92 N93 1.334 . S
C92 H99 0.930 . S
N93 Zn77 2.119 . S
N93 C89 1.328 . S
N93 C92 1.334 . S
N94 C90 1.331 . S
N94 C91 1.329 . S
H95 C89 0.930 . S
C96 O76 1.257 . S
C96 O97 1.244 . S
O97 C96 1.244 . S
O98 C74 1.257 . S
O98 Zn77 2.019 . S
H99 C92 0.930 . S
H100 C79 0.930 . S
H101 C91 0.930 . S
Zn102 N106 2.020 . S
Zn102 O110 2.019 . S
Zn102 N112 2.119 . S
Zn102 O120 1.975 . S
C103 N104 1.334 . S
C103 N107 1.336 . S
N104 C103 1.334 . S
N104 C105 1.334 . S
C105 N104 1.334 . S
C105 N106 1.336 . S
N106 Zn102 2.020 . S
N106 C105 1.336 . S
N106 N107 1.354 . S
N107 C103 1.336 . S
N107 N106 1.354 . S
N107 Zn111 2.020 . S
C108 O109 1.244 . S
C108 O132 1.257 . S
O109 C108 1.244 . S
O110 Zn102 2.019 . S
O110 C130 1.257 . S
Zn111 N107 2.020 . S
Zn111 O118 1.975 . S
Zn111 N127 2.119 . S
Zn111 O132 2.019 . S
N112 Zn102 2.119 . S
N112 C114 1.334 . S
N112 C115 1.328 . S
C113 C114 1.391 . S
C113 N116 1.329 . S
C113 H134 0.930 . S
C114 N112 1.334 . S
C114 C113 1.391 . S
C114 H121 0.930 . S
C115 N112 1.328 . S
C115 C117 1.392 . S
C115 H122 0.930 . S
N116 C113 1.329 . S
N116 C117 1.331 . S
C117 C115 1.392 . S
C117 N116 1.331 . S
O118 Zn111 1.975 . S
O118 C119 1.252 . S
C119 O118 1.252 . S
C119 O120 1.252 . S
O120 Zn102 1.975 . S
O120 C119 1.252 . S
H121 C114 0.930 . S
H122 C115 0.930 . S
C123 C124 1.392 . S
C123 N127 1.328 . S
C123 H129 0.930 . S
C124 C123 1.392 . S
C124 N128 1.331 . S
C125 C126 1.391 . S
C125 N128 1.329 . S
C125 H135 0.930 . S
C126 C125 1.391 . S
C126 N127 1.334 . S
C126 H133 0.930 . S
N127 Zn111 2.119 . S
N127 C123 1.328 . S
N127 C126 1.334 . S
N128 C124 1.331 . S
N128 C125 1.329 . S
H129 C123 0.930 . S
C130 O110 1.257 . S
C130 O131 1.244 . S
O131 C130 1.244 . S
O132 C108 1.257 . S
O132 Zn111 2.019 . S
H133 C126 0.930 . S
H134 C113 0.930 . S
H135 C125 0.930 . S
H136 C142 0.930 . S
H137 C146 0.930 . S
H138 C151 0.929 . S
H139 C149 0.929 . S
H140 C144 0.929 . S
H141 C150 0.929 . S
C142 H136 0.930 . S
C142 C143 1.367 1_545 S
C142 C150 1.378 . S
C143 C142 1.367 1_565 S
C143 C151 1.433 . S
C144 H140 0.929 . S
C144 C146 1.378 . S
C144 C148 1.350 1_565 S
C145 C148 1.463 1_565 S
C145 C150 1.350 1_565 S
C145 N153 1.427 . S
C146 H137 0.930 . S
C146 C144 1.378 . S
C146 C147 1.367 1_565 S
C147 C146 1.367 1_545 S
C147 C149 1.433 . S
C148 C144 1.350 1_545 S
C148 C145 1.463 1_545 S
C148 N152 1.427 . S
C149 H139 0.929 . S
C149 C147 1.433 . S
C149 N152 1.384 . S
C150 H141 0.929 . S
C150 C142 1.378 . S
C150 C145 1.350 1_545 S
C151 H138 0.929 . S
C151 C143 1.433 . S
C151 N153 1.384 . S
N152 C148 1.427 . S
N152 C149 1.384 . S
N153 C145 1.427 . S
N153 C151 1.384 . S
H154 C160 0.930 1_565 S
H155 C164 0.930 1_545 S
H156 C169 0.929 . S
H157 C167 0.929 . S
H158 C162 0.929 . S
H159 C168 0.929 . S
C160 H154 0.930 1_545 S
C160 C161 1.367 . S
C160 C168 1.378 1_545 S
C161 C160 1.367 . S
C161 C169 1.433 . S
C162 H158 0.929 . S
C162 C164 1.378 1_545 S
C162 C166 1.350 1_545 S
C163 C166 1.463 1_545 S
C163 C168 1.350 1_545 S
C163 N171 1.427 . S
C164 H155 0.930 1_565 S
C164 C162 1.378 1_565 S
C164 C165 1.367 . S
C165 C164 1.367 . S
C165 C167 1.433 . S
C166 C162 1.350 1_565 S
C166 C163 1.463 1_565 S
C166 N170 1.427 . S
C167 H157 0.929 . S
C167 C165 1.433 . S
C167 N170 1.384 . S
C168 H159 0.929 . S
C168 C160 1.378 1_565 S
C168 C163 1.350 1_565 S
C169 H156 0.929 . S
C169 C161 1.433 . S
C169 N171 1.384 . S
N170 C166 1.427 . S
N170 C167 1.384 . S
N171 C163 1.427 . S
N171 C169 1.384 . S
H172 C178 0.930 . S
H173 C182 0.930 1_655 S
H174 C187 0.929 . S
H175 C185 0.929 . S
H176 C180 0.929 . S
H177 C186 0.929 . S
C178 H172 0.930 . S
C178 C179 1.367 . S
C178 C186 1.378 . S
C179 C178 1.367 . S
C179 C187 1.433 . S
C180 H176 0.929 . S
C180 C182 1.378 . S
C180 C184 1.350 . S
C181 C184 1.463 . S
C181 C186 1.350 . S
C181 N189 1.427 . S
C182 H173 0.930 1_455 S
C182 C180 1.378 . S
C182 C183 1.367 1_455 S
C183 C182 1.367 1_655 S
C183 C185 1.433 1_655 S
C184 C180 1.350 . S
C184 C181 1.463 . S
C184 N188 1.427 . S
C185 H175 0.929 . S
C185 C183 1.433 1_455 S
C185 N188 1.384 . S
C186 H177 0.929 . S
C186 C178 1.378 . S
C186 C181 1.350 . S
C187 H174 0.929 . S
C187 C179 1.433 . S
C187 N189 1.384 . S
N188 C184 1.427 . S
N188 C185 1.384 . S
N189 C181 1.427 . S
N189 C187 1.384 . S
H190 C196 0.930 . S
H191 C200 0.930 1_455 S
H192 C205 0.929 . S
H193 C203 0.929 . S
H194 C198 0.929 . S
H195 C204 0.929 . S
C196 H190 0.930 . S
C196 C197 1.367 . S
C196 C204 1.378 . S
C197 C196 1.367 . S
C197 C205 1.433 . S
C198 H194 0.929 . S
C198 C200 1.378 . S
C198 C202 1.350 . S
C199 C202 1.463 . S
C199 C204 1.350 . S
C199 N207 1.427 . S
C200 H191 0.930 1_655 S
C200 C198 1.378 . S
C200 C201 1.367 1_655 S
C201 C200 1.367 1_455 S
C201 C203 1.433 1_455 S
C202 C198 1.350 . S
C202 C199 1.463 . S
C202 N206 1.427 . S
C203 H193 0.929 . S
C203 C201 1.433 1_655 S
C203 N206 1.384 . S
C204 H195 0.929 . S
C204 C196 1.378 . S
C204 C199 1.350 . S
C205 H192 0.929 . S
C205 C197 1.433 . S
C205 N207 1.384 . S
N206 C202 1.427 . S
N206 C203 1.384 . S
N207 C199 1.427 . S
N207 C205 1.384 . S
H208 C214 0.930 . S
H209 C218 0.930 . S
H210 C223 0.929 . S
H211 C221 0.929 . S
H212 C216 0.929 . S
H213 C222 0.929 . S
C214 H208 0.930 . S
C214 C215 1.370 . S
C214 C222 1.378 . S
C215 C214 1.370 . S
C215 C223 1.430 1_565 S
C216 H212 0.929 . S
C216 C218 1.378 . S
C216 C220 1.350 . S
C217 C220 1.462 1_465 S
C217 C222 1.365 . S
C217 N225 1.412 1_565 S
C218 H209 0.930 . S
C218 C216 1.378 . S
C218 C219 1.367 . S
C219 C218 1.367 . S
C219 C221 1.433 1_545 S
C220 C216 1.350 . S
C220 C217 1.462 1_645 S
C220 N224 1.427 1_545 S
C221 H211 0.929 . S
C221 C219 1.433 1_565 S
C221 N224 1.384 . S
C222 H213 0.929 . S
C222 C214 1.378 . S
C222 C217 1.365 . S
C223 H210 0.929 . S
C223 C215 1.430 1_545 S
C223 N225 1.384 . S
N224 C220 1.427 1_565 S
N224 C221 1.384 . S
N225 C217 1.412 1_545 S
N225 C223 1.384 . S
H226 C232 0.930 . S
H227 C236 0.930 . S
H228 C241 0.929 . S
H229 C239 0.929 . S
H230 C234 0.929 . S
H231 C240 0.929 . S
C232 H226 0.930 . S
C232 C233 1.367 . S
C232 C240 1.378 . S
C233 C232 1.367 . S
C233 C241 1.433 . S
C234 H230 0.929 . S
C234 C236 1.378 . S
C234 C238 1.350 . S
C235 C238 1.463 1_556 S
C235 C240 1.350 . S
C235 N243 1.427 . S
C236 H227 0.930 . S
C236 C234 1.378 . S
C236 C237 1.367 . S
C237 C236 1.367 . S
C237 C239 1.433 . S
C238 C234 1.350 . S
C238 C235 1.463 1_554 S
C238 N242 1.427 . S
C239 H229 0.929 . S
C239 C237 1.433 . S
C239 N242 1.384 . S
C240 H231 0.929 . S
C240 C232 1.378 . S
C240 C235 1.350 . S
C241 H228 0.929 . S
C241 C233 1.433 . S
C241 N243 1.384 . S
N242 C238 1.427 . S
N242 C239 1.384 . S
N243 C235 1.427 . S
N243 C241 1.384 . S
H244 C250 0.930 1_565 S
H245 C254 0.930 . S
H246 C259 0.929 . S
H247 C257 0.929 1_565 S
H248 C252 0.929 . S
H249 C258 0.929 1_565 S
C250 H244 0.930 1_545 S
C250 C251 1.367 . S
C250 C258 1.378 . S
C251 C250 1.367 . S
C251 C259 1.433 . S
C252 H248 0.929 . S
C252 C254 1.378 . S
C252 C256 1.350 . S
C253 C256 1.463 1_556 S
C253 C258 1.350 . S
C253 N261 1.427 . S
C254 H245 0.930 . S
C254 C252 1.378 . S
C254 C255 1.367 . S
C255 C254 1.367 . S
C255 C257 1.433 . S
C256 C252 1.350 . S
C256 C253 1.463 1_554 S
C256 N260 1.427 . S
C257 H247 0.929 1_545 S
C257 C255 1.433 . S
C257 N260 1.384 . S
C258 H249 0.929 1_545 S
C258 C250 1.378 . S
C258 C253 1.350 . S
C259 H246 0.929 . S
C259 C251 1.433 . S
C259 N261 1.384 . S
N260 C256 1.427 . S
N260 C257 1.384 . S
N261 C253 1.427 . S
N261 C259 1.384 . S
H262 C268 0.930 . S
H263 C272 0.930 . S
H264 C277 0.929 . S
H265 C275 0.929 . S
H266 C270 0.929 . S
H267 C276 0.929 . S
C268 H262 0.930 . S
C268 C269 1.367 . S
C268 C276 1.378 . S
C269 C268 1.367 . S
C269 C277 1.433 . S
C270 H266 0.929 . S
C270 C272 1.378 . S
C270 C274 1.350 . S
C271 C274 1.463 1_455 S
C271 C276 1.350 . S
C271 N279 1.427 . S
C272 H263 0.930 . S
C272 C270 1.378 . S
C272 C273 1.367 . S
C273 C272 1.367 . S
C273 C275 1.433 . S
C274 C270 1.350 . S
C274 C271 1.463 1_655 S
C274 N278 1.427 . S
C275 H265 0.929 . S
C275 C273 1.433 . S
C275 N278 1.384 . S
C276 H267 0.929 . S
C276 C268 1.378 . S
C276 C271 1.350 . S
C277 H264 0.929 . S
C277 C269 1.433 . S
C277 N279 1.384 . S
N278 C274 1.427 . S
N278 C275 1.384 . S
N279 C271 1.427 . S
N279 C277 1.384 . S
H280 C286 0.930 . S
H281 C290 0.930 . S
H282 C295 0.929 . S
H283 C293 0.929 . S
H284 C288 0.929 . S
H285 C294 0.929 . S
C286 H280 0.930 . S
C286 C287 1.367 1_545 S
C286 C294 1.378 . S
C287 C286 1.367 1_565 S
C287 C295 1.433 . S
C288 H284 0.929 . S
C288 C290 1.378 . S
C288 C292 1.350 . S
C289 C292 1.463 1_654 S
C289 C294 1.350 1_565 S
C289 N297 1.427 . S
C290 H281 0.930 . S
C290 C288 1.378 . S
C290 C291 1.367 . S
C291 C290 1.367 . S
C291 C293 1.433 1_565 S
C292 C288 1.350 . S
C292 C289 1.463 1_456 S
C292 N296 1.427 1_565 S
C293 H283 0.929 . S
C293 C291 1.433 1_545 S
C293 N296 1.384 . S
C294 H285 0.929 . S
C294 C286 1.378 . S
C294 C289 1.350 1_545 S
C295 H282 0.929 . S
C295 C287 1.433 . S
C295 N297 1.384 . S
N296 C292 1.427 1_545 S
N296 C293 1.384 . S
N297 C289 1.427 . S
N297 C295 1.384 . S
H298 C304 0.930 . S
H299 C308 0.930 . S
H300 C313 0.929 . S
H301 C311 0.929 . S
H302 C306 0.929 . S
H303 C312 0.929 . S
C304 H298 0.930 . S
C304 C305 1.367 . S
C304 C312 1.378 . S
C305 C304 1.367 . S
C305 C313 1.433 . S
C306 H302 0.929 . S
C306 C308 1.378 . S
C306 C310 1.350 . S
C307 C310 1.463 . S
C307 C312 1.350 . S
C307 N315 1.427 . S
C308 H299 0.930 . S
C308 C306 1.378 . S
C308 C309 1.367 . S
C309 C308 1.367 . S
C309 C311 1.433 . S
C310 C306 1.350 . S
C310 C307 1.463 . S
C310 N314 1.427 . S
C311 H301 0.929 . S
C311 C309 1.433 . S
C311 N314 1.384 . S
C312 H303 0.929 . S
C312 C304 1.378 . S
C312 C307 1.350 . S
C313 H300 0.929 . S
C313 C305 1.433 . S
C313 N315 1.384 . S
N314 C310 1.427 . S
N314 C311 1.384 . S
N315 C307 1.427 . S
N315 C313 1.384 . S
H316 C322 0.930 . S
H317 C326 0.930 . S
H318 C331 0.929 . S
H319 C329 0.929 . S
H320 C324 0.929 . S
H321 C330 0.929 . S
C322 H316 0.930 . S
C322 C323 1.367 . S
C322 C330 1.378 . S
C323 C322 1.367 . S
C323 C331 1.433 . S
C324 H320 0.929 . S
C324 C326 1.378 . S
C324 C328 1.350 . S
C325 C328 1.463 . S
C325 C330 1.350 . S
C325 N333 1.427 . S
C326 H317 0.930 . S
C326 C324 1.378 . S
C326 C327 1.367 . S
C327 C326 1.367 . S
C327 C329 1.433 . S
C328 C324 1.350 . S
C328 C325 1.463 . S
C328 N332 1.427 . S
C329 H319 0.929 . S
C329 C327 1.433 . S
C329 N332 1.384 . S
C330 H321 0.929 . S
C330 C322 1.378 . S
C330 C325 1.350 . S
C331 H318 0.929 . S
C331 C323 1.433 . S
C331 N333 1.384 . S
N332 C328 1.427 . S
N332 C329 1.384 . S
N333 C325 1.427 . S
N333 C331 1.384 . S
H334 C340 0.930 . S
H335 C344 0.930 . S
H336 C349 0.929 . S
H337 C347 0.929 . S
H338 C342 0.929 . S
H339 C348 0.929 . S
C340 H334 0.930 . S
C340 C341 1.367 . S
C340 C348 1.378 . S
C341 C340 1.367 . S
C341 C349 1.433 . S
C342 H338 0.929 . S
C342 C344 1.378 . S
C342 C346 1.350 . S
C343 C346 1.463 . S
C343 C348 1.350 . S
C343 N351 1.427 . S
C344 H335 0.930 . S
C344 C342 1.378 . S
C344 C345 1.367 . S
C345 C344 1.367 . S
C345 C347 1.433 . S
C346 C342 1.350 . S
C346 C343 1.463 . S
C346 N350 1.427 . S
C347 H337 0.929 . S
C347 C345 1.433 . S
C347 N350 1.384 . S
C348 H339 0.929 . S
C348 C340 1.378 . S
C348 C343 1.350 . S
C349 H336 0.929 . S
C349 C341 1.433 . S
C349 N351 1.384 . S
N350 C346 1.427 . S
N350 C347 1.384 . S
N351 C343 1.427 . S
N351 C349 1.384 . S
H352 C358 0.930 1_455 S
H353 C362 0.930 . S
H354 C367 0.929 . S
H355 C365 0.929 . S
H356 C360 0.929 . S
H357 C366 0.929 . S
C358 H352 0.930 1_655 S
C358 C359 1.367 . S
C358 C366 1.378 . S
C359 C358 1.367 . S
C359 C367 1.433 . S
C360 H356 0.929 . S
C360 C362 1.378 . S
C360 C364 1.350 . S
C361 C364 1.463 . S
C361 C366 1.350 . S
C361 N369 1.427 . S
C362 H353 0.930 . S
C362 C360 1.378 . S
C362 C363 1.367 . S
C363 C362 1.367 . S
C363 C365 1.433 . S
C364 C360 1.350 . S
C364 C361 1.463 . S
C364 N368 1.427 . S
C365 H355 0.929 . S
C365 C363 1.433 . S
C365 N368 1.384 . S
C366 H357 0.929 . S
C366 C358 1.378 . S
C366 C361 1.350 . S
C367 H354 0.929 . S
C367 C359 1.433 . S
C367 N369 1.384 . S
N368 C364 1.427 . S
N368 C365 1.384 . S
N369 C361 1.427 . S
N369 C367 1.384 . S
H370 C376 0.930 . S
H371 C380 0.930 . S
H372 C385 0.929 . S
H373 C383 0.929 1_655 S
H374 C378 0.929 . S
H375 C384 0.929 . S
C376 H370 0.930 . S
C376 C377 1.367 . S
C376 C384 1.378 . S
C377 C376 1.367 . S
C377 C385 1.433 . S
C378 H374 0.929 . S
C378 C380 1.378 . S
C378 C382 1.350 . S
C379 C382 1.463 . S
C379 C384 1.350 . S
C379 N387 1.427 . S
C380 H371 0.930 . S
C380 C378 1.378 . S
C380 C381 1.367 . S
C381 C380 1.367 . S
C381 C383 1.433 . S
C382 C378 1.350 . S
C382 C379 1.463 . S
C382 N386 1.427 . S
C383 H373 0.929 1_455 S
C383 C381 1.433 . S
C383 N386 1.384 . S
C384 H375 0.929 . S
C384 C376 1.378 . S
C384 C379 1.350 . S
C385 H372 0.929 . S
C385 C377 1.433 . S
C385 N387 1.384 . S
N386 C382 1.427 . S
N386 C383 1.384 . S
N387 C379 1.427 . S
N387 C385 1.384 . S
C143 C6 1.109 . S
C147 C28 1.109 . S
C161 C62 1.113 . S
C165 C40 1.109 . S
C179 C74 1.110 . S
C183 C96 1.115 . S
C197 C108 1.111 . S
C201 C130 1.115 . S
C215 C17 1.926 1_565 S
C219 C51 1.927 . S
C233 C119 1.925 . S
C237 C85 1.925 . S
C251 C3 1.232 . S
C255 C37 1.240 . S
C269 C105 1.239 . S
C273 C71 1.222 . S
C287 C35 1.982 . S
C291 C1 1.992 . S
C305 C103 1.989 . S
C309 C69 1.980 . S
C323 C15 1.871 . S
C327 C124 1.679 . S
C341 C90 1.685 . S
C345 C49 1.869 . S
C359 C56 1.697 . S
C363 C83 1.863 . S
C377 C117 1.872 . S
C381 C22 1.677 . S
