# Generated by pormake.
# Topology rob, (6)-cn, num edge types: 1
# Building blocks:
#     Node 0, Type 0, BuildingBlock: MIFKUJ_clean_sbu_0, # of connection points: 6
#     Node 1, Type 0, BuildingBlock: MIFKUJ_clean_sbu_0, # of connection points: 6
#     Node 2, Type 0, BuildingBlock: MIFKUJ_clean_sbu_0, # of connection points: 6
#     Node 3, Type 0, BuildingBlock: MIFKUJ_clean_sbu_0, # of connection points: 6
#     Edge 4, Type (0, 0), BuildingBlock: FUNLAD_clean_linker_1, # of connection points: 2
#     Edge 5, Type (0, 0), BuildingBlock: FUNLAD_clean_linker_1, # of connection points: 2
#     Edge 6, Type (0, 0), BuildingBlock: FUNLAD_clean_linker_1, # of connection points: 2
#     Edge 7, Type (0, 0), BuildingBlock: FUNLAD_clean_linker_1, # of connection points: 2
#     Edge 8, Type (0, 0), BuildingBlock: FUNLAD_clean_linker_1, # of connection points: 2
#     Edge 9, Type (0, 0), BuildingBlock: FUNLAD_clean_linker_1, # of connection points: 2
#     Edge 10, Type (0, 0), BuildingBlock: FUNLAD_clean_linker_1, # of connection points: 2
#     Edge 11, Type (0, 0), BuildingBlock: FUNLAD_clean_linker_1, # of connection points: 2
#     Edge 12, Type (0, 0), BuildingBlock: FUNLAD_clean_linker_1, # of connection points: 2
#     Edge 13, Type (0, 0), BuildingBlock: FUNLAD_clean_linker_1, # of connection points: 2
#     Edge 14, Type (0, 0), BuildingBlock: FUNLAD_clean_linker_1, # of connection points: 2
#     Edge 15, Type (0, 0), BuildingBlock: FUNLAD_clean_linker_1, # of connection points: 2
# Relax obj value: 0.071
# Max RMSD: 0.164
# Mean RMSD: 0.164
data_MOF--net-rob--node1-MIFKUJ_clean_sbu_0--edge1-FUNLAD_clean_linker_1
_symmetry_space_group_name_H-M    P1
_symmetry_Int_Tables_number       1
_symmetry_cell_setting            triclinic
loop_
_symmetry_equiv_pos_as_xyz
'x, y, z'
_cell_length_a     16.454233
_cell_length_b     24.164137
_cell_length_c     31.809952
_cell_angle_alpha  90.096875
_cell_angle_beta   84.11989
_cell_angle_gamma 90.389887
loop_
_atom_site_label
_atom_site_type_symbol
_atom_site_fract_x
_atom_site_fract_y
_atom_site_fract_z
_atom_type_partial_charge
Zn0 Zn 0.18815 0.2683 0.94291 0.0
Zn1 Zn 0.27483 0.23403 0.03955 0.0
C2 C 0.34925 0.25371 0.89253 0.0
O3 O 0.38623 0.26815 0.92559 0.0
C4 C 0.16851 0.18765 0.1068 0.0
O5 O 0.23205 0.15526 0.10794 0.0
O6 O 0.09318 0.28195 0.90881 0.0
O7 O 0.16163 0.19912 0.97849 0.0
O8 O 0.28455 0.17752 0.99369 0.0
C9 C 0.0619 0.23856 0.89418 0.0
O10 O 0.08363 0.1899 0.9072 0.0
O11 O 0.27209 0.24975 0.89531 0.0
C12 C 0.35247 0.2536 0.11008 0.0
O13 O 0.29152 0.28875 0.11364 0.0
O14 O 0.36301 0.22297 0.07755 0.0
O15 O 0.28899 0.31232 0.02234 0.0
O16 O 0.22614 0.34047 0.96788 0.0
O17 O 0.16853 0.22351 0.07754 0.0
C18 C 0.21488 0.16269 0.98421 0.0
C19 C 0.26992 0.35014 0.99782 0.0
Zn20 Zn 0.69023 0.80015 0.97825 0.0
Zn21 Zn 0.75574 0.73772 0.055 0.0
C22 C 0.82168 0.78321 0.91703 0.0
O23 O 0.81822 0.83747 0.91947 0.0
C24 C 0.62056 0.76373 0.11438 0.0
O25 O 0.60217 0.71198 0.10655 0.0
O26 O 0.64111 0.84454 0.93328 0.0
O27 O 0.60278 0.75168 0.00674 0.0
O28 O 0.68672 0.68559 0.02195 0.0
C29 C 0.58336 0.82332 0.91489 0.0
O30 O 0.54984 0.77669 0.92931 0.0
O31 O 0.77372 0.75453 0.94239 0.0
C32 C 0.87798 0.7097 0.11205 0.0
O33 O 0.92063 0.74902 0.09139 0.0
O34 O 0.80986 0.69479 0.0998 0.0
O35 O 0.84 0.78833 0.02356 0.0
O36 O 0.74738 0.8515 0.0149 0.0
O37 O 0.68137 0.78622 0.0931 0.0
C38 C 0.61744 0.70084 0.01163 0.0
C39 C 0.82027 0.83883 0.02021 0.0
Zn40 Zn 0.27316 0.77117 0.56715 0.0
Zn41 Zn 0.22611 0.71723 0.46563 0.0
C42 C 0.13245 0.78485 0.62312 0.0
O43 O 0.14735 0.83557 0.60965 0.0
C44 C 0.36542 0.77251 0.41878 0.0
O45 O 0.41025 0.73877 0.4389 0.0
O46 O 0.33213 0.81827 0.60697 0.0
O47 O 0.34444 0.70717 0.54854 0.0
O48 O 0.30626 0.66652 0.49072 0.0
C49 C 0.40544 0.81177 0.61498 0.0
O50 O 0.45252 0.77675 0.59238 0.0
O51 O 0.17639 0.74559 0.60688 0.0
C52 C 0.11031 0.70086 0.40548 0.0
O53 O 0.08468 0.74828 0.42199 0.0
O54 O 0.16792 0.67591 0.4213 0.0
O55 O 0.14304 0.75853 0.5043 0.0
O56 O 0.23424 0.81902 0.52196 0.0
O57 O 0.2887 0.77334 0.42832 0.0
C58 C 0.3513 0.669 0.52098 0.0
C59 C 0.16302 0.80799 0.51233 0.0
Zn60 Zn 0.79337 0.24351 0.52914 0.0
Zn61 Zn 0.6838 0.20658 0.46303 0.0
C62 C 0.68031 0.26475 0.60056 0.0
O63 O 0.70811 0.31529 0.59324 0.0
C64 C 0.80272 0.18497 0.39578 0.0
O65 O 0.75314 0.14216 0.3952 0.0
O66 O 0.88302 0.26724 0.56401 0.0
O67 O 0.82518 0.16998 0.5011 0.0
O68 O 0.69921 0.14006 0.49731 0.0
C69 C 0.89775 0.23288 0.59241 0.0
O70 O 0.86361 0.18352 0.59256 0.0
O71 O 0.70392 0.22616 0.57517 0.0
C72 C 0.60422 0.22946 0.39438 0.0
O73 O 0.65415 0.27171 0.39708 0.0
O74 O 0.60117 0.19178 0.42227 0.0
O75 O 0.63919 0.27228 0.4944 0.0
O76 O 0.75928 0.31112 0.49705 0.0
O77 O 0.78931 0.221 0.42489 0.0
C78 C 0.77368 0.13028 0.50098 0.0
C79 C 0.68278 0.31537 0.49537 0.0
H80 H 0.49321 0.67709 0.99876 0.0
C81 C 0.55213 0.66069 0.00513 0.0
H82 H 0.62165 0.58829 0.00996 0.0
H83 H 0.23406 0.50023 0.03771 0.0
H84 H 0.22324 0.55409 0.10262 0.0
H85 H 0.33797 0.61286 0.1206 0.0
H86 H 0.46312 0.61914 0.07352 0.0
C87 C 0.56236 0.60572 0.00568 0.0
C88 C 0.49467 0.56769 0.99657 0.0
C89 C 0.42311 0.56305 0.02535 0.0
C90 C 0.35863 0.52697 0.01612 0.0
C91 C 0.28615 0.52521 0.04423 0.0
C92 C 0.27895 0.55618 0.08138 0.0
C93 C 0.3434 0.58943 0.09141 0.0
C94 C 0.41479 0.59294 0.0639 0.0
H95 H 0.34008 0.40979 0.0313 0.0
C96 C 0.30648 0.40497 1.00376 0.0
H97 H 0.28129 0.44073 0.9461 0.0
H98 H 0.62008 0.57051 0.93302 0.0
H99 H 0.63069 0.51605 0.86853 0.0
H100 H 0.5216 0.4502 0.85425 0.0
H101 H 0.40147 0.43841 0.9041 0.0
C102 C 0.31044 0.44572 0.97502 0.0
C103 C 0.36769 0.49309 0.97948 0.0
C104 C 0.43781 0.49929 0.94993 0.0
C105 C 0.50124 0.53675 0.95845 0.0
C106 C 0.57051 0.54223 0.92837 0.0
C107 C 0.57738 0.51127 0.8912 0.0
C108 C 0.51603 0.47416 0.88316 0.0
C109 C 0.44716 0.46787 0.91212 0.0
H110 H 0.45467 0.63278 0.54979 0.0
C111 C 0.41619 0.62801 0.52416 0.0
H112 H 0.39458 0.582 0.46994 0.0
H113 H 0.7368 0.47141 0.43327 0.0
H114 H 0.7361 0.5338 0.37341 0.0
H115 H 0.62842 0.60401 0.3715 0.0
H116 H 0.51953 0.61145 0.42872 0.0
C117 C 0.43019 0.58609 0.49674 0.0
C118 C 0.49891 0.54707 0.50002 0.0
C119 C 0.56285 0.5441 0.46656 0.0
C120 C 0.626 0.50444 0.468 0.0
C121 C 0.68769 0.50104 0.43368 0.0
C122 C 0.6881 0.53665 0.39926 0.0
C123 C 0.62733 0.57611 0.39814 0.0
C124 C 0.56516 0.57991 0.43122 0.0
H125 H 0.57504 0.36742 0.4957 0.0
C126 C 0.641 0.36886 0.49658 0.0
H127 H 0.7434 0.42181 0.49991 0.0
H128 H 0.38372 0.53872 0.56913 0.0
H129 H 0.3928 0.48236 0.63125 0.0
H130 H 0.51068 0.42107 0.63652 0.0
H131 H 0.61919 0.415 0.57883 0.0
C132 C 0.67754 0.41816 0.50001 0.0
C133 C 0.6255 0.46841 0.50302 0.0
C134 C 0.56586 0.47474 0.5381 0.0
C135 C 0.50067 0.51253 0.53604 0.0
C136 C 0.43739 0.51338 0.56982 0.0
C137 C 0.44133 0.48069 0.6056 0.0
C138 C 0.50746 0.446 0.60849 0.0
C139 C 0.56899 0.44269 0.57514 0.0
H140 H 0.23479 0.07543 1.00088 0.0
C141 C 0.19076 0.10423 0.99022 0.0
H142 H 0.0711 0.11415 0.97288 0.0
H143 H 0.01384 0.86121 0.93589 0.0
H144 H 0.06223 0.89041 0.86449 0.0
H145 H 0.12515 0.98253 0.85127 0.0
H146 H 0.13947 0.04637 0.90927 0.0
C147 C 0.11557 0.08631 0.98421 0.0
C148 C 0.0899 0.02821 0.99287 0.0
C149 C 0.08387 0.99116 0.95876 0.0
C150 C 0.04815 0.93798 0.96639 0.0
C151 C 0.04063 0.90212 0.93172 0.0
C152 C 0.06831 0.91828 0.89067 0.0
C153 C 0.10369 0.9702 0.88322 0.0
C154 C 0.11144 0.00645 0.91674 0.0
H155 H 0.85936 0.92567 0.01897 0.0
C156 C 0.88151 0.88332 0.01881 0.0
H157 H 0.98667 0.83259 0.01208 0.0
H158 H 0.09679 0.08826 0.06574 0.0
H159 H 0.05281 0.0576 0.137 0.0
H160 H 0.99564 0.9638 0.15035 0.0
H161 H 0.98033 0.90055 0.09193 0.0
C162 C 0.96222 0.87425 0.01453 0.0
C163 C 0.01823 0.92244 0.00803 0.0
C164 C 0.03019 0.95772 0.04247 0.0
C165 C 0.06521 0.01108 0.03488 0.0
C166 C 0.07218 0.04679 0.0697 0.0
C167 C 0.0471 0.0297 0.11083 0.0
C168 C 0.01459 0.97697 0.1183 0.0
C169 C 0.00585 0.94124 0.08459 0.0
H170 H 0.75475 0.03992 0.50044 0.0
C171 C 0.80028 0.07252 0.5019 0.0
H172 H 0.92473 0.0911 0.50658 0.0
H173 H 0.98972 0.8583 0.58688 0.0
H174 H 0.96436 0.91193 0.65165 0.0
H175 H 0.91122 0.00715 0.64997 0.0
H176 H 0.88244 0.04899 0.58372 0.0
C177 C 0.87855 0.05926 0.50396 0.0
C178 C 0.9038 0.00077 0.50535 0.0
C179 C 0.92088 0.97756 0.54428 0.0
C180 C 0.95306 0.92338 0.54517 0.0
C181 C 0.96773 0.90017 0.5845 0.0
C182 C 0.95277 0.9303 0.62184 0.0
C183 C 0.92273 0.98386 0.6209 0.0
C184 C 0.90668 0.00743 0.58266 0.0
H185 H 0.12443 0.89409 0.5211 0.0
C186 C 0.1034 0.8528 0.51355 0.0
H187 H 0.00306 0.80472 0.49723 0.0
H188 H 0.8679 0.03096 0.42617 0.0
H189 H 0.88525 0.97456 0.36277 0.0
H190 H 0.94358 0.88091 0.36434 0.0
H191 H 0.98285 0.84246 0.42981 0.0
C192 C 0.02543 0.8451 0.50599 0.0
C193 C 0.97072 0.89361 0.50697 0.0
C194 C 0.94677 0.91474 0.46869 0.0
C195 C 0.91342 0.96872 0.46779 0.0
C196 C 0.89258 0.98989 0.42884 0.0
C197 C 0.90282 0.95811 0.3921 0.0
C198 C 0.9355 0.90531 0.39301 0.0
C199 C 0.95785 0.88377 0.43074 0.0
H200 H 0.4994 0.20084 0.36173 0.0
C201 C 0.55541 0.22525 0.35847 0.0
H202 H 0.63679 0.27481 0.31895 0.0
H203 H 0.38043 0.1569 0.1935 0.0
H204 H 0.43069 0.06845 0.21519 0.0
H205 H 0.53123 0.0636 0.26753 0.0
H206 H 0.57934 0.14704 0.29966 0.0
C207 C 0.5802 0.25096 0.32199 0.0
C208 C 0.52861 0.25322 0.2865 0.0
C209 C 0.50561 0.2041 0.26613 0.0
C210 C 0.45258 0.20714 0.2337 0.0
C211 C 0.42447 0.15725 0.2165 0.0
C212 C 0.45232 0.1061 0.22892 0.0
C213 C 0.5085 0.10335 0.25857 0.0
C214 C 0.53509 0.15162 0.27705 0.0
H215 H 0.4619 0.22608 0.13879 0.0
C216 C 0.4034 0.24675 0.14488 0.0
H217 H 0.31821 0.28423 0.19016 0.0
H218 H 0.56032 0.35543 0.31953 0.0
H219 H 0.51745 0.44404 0.29448 0.0
H220 H 0.43476 0.44965 0.23421 0.0
H221 H 0.39363 0.36658 0.19906 0.0
C222 C 0.37688 0.26376 0.18404 0.0
C223 C 0.42835 0.25954 0.21946 0.0
C224 C 0.45311 0.30869 0.23905 0.0
C225 C 0.50253 0.3055 0.27299 0.0
C226 C 0.52435 0.35524 0.29292 0.0
C227 C 0.4999 0.40653 0.27897 0.0
C228 C 0.45324 0.40968 0.24511 0.0
C229 C 0.4299 0.36154 0.22527 0.0
H230 H 0.62528 0.8199 0.16858 0.0
C231 C 0.58761 0.78924 0.15454 0.0
H232 H 0.48468 0.73707 0.16295 0.0
H233 H 0.49659 0.68177 0.35263 0.0
H234 H 0.52107 0.5932 0.3185 0.0
H235 H 0.54499 0.58618 0.24094 0.0
H236 H 0.54233 0.66747 0.19706 0.0
C237 C 0.5214 0.76813 0.1772 0.0
C238 C 0.50991 0.77419 0.22399 0.0
C239 C 0.51514 0.72624 0.24933 0.0
C240 C 0.50456 0.73057 0.29409 0.0
C241 C 0.50625 0.68151 0.3185 0.0
C242 C 0.5202 0.63014 0.29934 0.0
C243 C 0.53335 0.62616 0.25569 0.0
C244 C 0.53117 0.67338 0.23084 0.0
H245 H 0.35306 0.81242 0.35789 0.0
C246 C 0.39737 0.79579 0.37758 0.0
H247 H 0.5176 0.76747 0.37941 0.0
H248 H 0.48937 0.87346 0.18504 0.0
H249 H 0.46975 0.96293 0.21926 0.0
H250 H 0.46245 0.97133 0.29688 0.0
H251 H 0.47376 0.89011 0.34078 0.0
C252 C 0.47369 0.78577 0.36032 0.0
C253 C 0.49107 0.78307 0.31354 0.0
C254 C 0.48799 0.83118 0.28829 0.0
C255 C 0.49559 0.82661 0.24344 0.0
C256 C 0.48732 0.87486 0.21911 0.0
C257 C 0.47544 0.92642 0.23838 0.0
C258 C 0.47112 0.93113 0.28209 0.0
C259 C 0.47726 0.8842 0.30692 0.0
H260 H 0.61277 0.87156 0.85633 0.0
C261 C 0.56852 0.84323 0.87253 0.0
H262 H 0.46684 0.79123 0.86756 0.0
H263 H 0.49484 0.92868 0.68416 0.0
H264 H 0.46921 0.01277 0.72519 0.0
H265 H 0.46037 0.01076 0.80308 0.0
H266 H 0.47888 0.92488 0.84037 0.0
C267 C 0.50967 0.82065 0.85155 0.0
C268 C 0.5131 0.82338 0.80463 0.0
C269 C 0.49966 0.87364 0.78352 0.0
C270 C 0.50102 0.87437 0.73868 0.0
C271 C 0.49113 0.92549 0.71822 0.0
C272 C 0.47693 0.97408 0.74138 0.0
C273 C 0.47227 0.97297 0.78523 0.0
C274 C 0.48339 0.92345 0.80624 0.0
H275 H 0.38004 0.84976 0.67772 0.0
C276 C 0.4284 0.83245 0.65582 0.0
H277 H 0.54964 0.80412 0.6478 0.0
H278 H 0.54929 0.72099 0.83479 0.0
H279 H 0.57165 0.63692 0.79402 0.0
H280 H 0.56593 0.63702 0.71687 0.0
H281 H 0.5386 0.72117 0.68008 0.0
C282 C 0.5017 0.82261 0.66923 0.0
C283 C 0.51216 0.82444 0.71526 0.0
C284 C 0.52755 0.77444 0.73635 0.0
C285 C 0.52869 0.77405 0.78098 0.0
C286 C 0.54558 0.72364 0.8011 0.0
C287 C 0.55893 0.67495 0.77806 0.0
C288 C 0.5559 0.67504 0.73464 0.0
C289 C 0.54032 0.72394 0.71389 0.0
H290 H 0.63895 0.20834 0.65263 0.0
C291 C 0.63578 0.25075 0.64161 0.0
H292 H 0.59553 0.33175 0.65539 0.0
H293 H 0.43062 0.15709 0.80786 0.0
H294 H 0.37814 0.10249 0.75231 0.0
H295 H 0.4043 0.13099 0.67765 0.0
H296 H 0.48653 0.2123 0.65806 0.0
C297 C 0.59745 0.28936 0.6666 0.0
C298 C 0.56724 0.27769 0.71157 0.0
C299 C 0.51238 0.23314 0.72245 0.0
C300 C 0.49019 0.22 0.76564 0.0
C301 C 0.444 0.17122 0.77562 0.0
C302 C 0.41418 0.13926 0.74405 0.0
C303 C 0.42938 0.15509 0.70203 0.0
C304 C 0.47763 0.20152 0.69118 0.0
H305 H 0.35599 0.25292 0.82361 0.0
C306 C 0.39311 0.25133 0.84999 0.0
H307 H 0.51257 0.24935 0.86823 0.0
H308 H 0.68024 0.36234 0.70254 0.0
H309 H 0.72531 0.41944 0.75827 0.0
H310 H 0.67164 0.40425 0.83261 0.0
H311 H 0.57405 0.331 0.85171 0.0
C312 C 0.47473 0.24999 0.84219 0.0
C313 C 0.51363 0.25568 0.79788 0.0
C314 C 0.56783 0.30051 0.78711 0.0
C315 C 0.59618 0.3107 0.74401 0.0
C316 C 0.65416 0.35374 0.73446 0.0
C317 C 0.68104 0.3868 0.76622 0.0
C318 C 0.65096 0.37817 0.80807 0.0
C319 C 0.59481 0.33581 0.81858 0.0
H320 H 0.85166 0.673 0.17568 0.0
C321 C 0.8993 0.69201 0.15413 0.0
H322 H 0.0185 0.72484 0.1463 0.0
H323 H 0.05612 0.80795 0.32804 0.0
H324 H 0.06404 0.89244 0.28737 0.0
H325 H 0.03249 0.89284 0.21321 0.0
H326 H 0.99517 0.80834 0.17907 0.0
C327 C 0.97171 0.70514 0.16796 0.0
C328 C 0.9852 0.70409 0.21384 0.0
C329 C 0.00428 0.75445 0.23391 0.0
C330 C 0.01894 0.75474 0.27726 0.0
C331 C 0.04155 0.80534 0.2957 0.0
C332 C 0.04667 0.85435 0.27264 0.0
C333 C 0.02931 0.8545 0.23088 0.0
C334 C 0.00833 0.80539 0.2116 0.0
H335 H 0.12303 0.65388 0.34532 0.0
C336 C 0.08484 0.68317 0.36412 0.0
H337 H 0.98545 0.73773 0.36627 0.0
H338 H 0.9611 0.59923 0.18453 0.0
H339 H 0.94604 0.51522 0.22631 0.0
H340 H 0.95661 0.51754 0.30309 0.0
H341 H 0.98462 0.60362 0.33837 0.0
C342 C 0.02232 0.70778 0.34739 0.0
C343 C 0.01147 0.70512 0.30126 0.0
C344 C 0.99127 0.65488 0.28144 0.0
C345 C 0.9805 0.65409 0.23746 0.0
C346 C 0.96592 0.60271 0.21807 0.0
C347 C 0.95774 0.55409 0.24164 0.0
C348 C 0.96404 0.55535 0.28485 0.0
C349 C 0.9806 0.60502 0.30468 0.0
H350 H 0.91756 0.22243 0.36549 0.0
C351 C 0.86934 0.19254 0.36142 0.0
H352 H 0.82061 0.13442 0.3211 0.0
H353 H 0.0837 0.27789 0.18866 0.0
H354 H 0.00482 0.35926 0.21011 0.0
H355 H 0.88988 0.3537 0.2662 0.0
H356 H 0.85506 0.26718 0.3021 0.0
C357 C 0.86903 0.16431 0.32487 0.0
C358 C 0.93574 0.16843 0.28952 0.0
C359 C 0.95177 0.21871 0.26705 0.0
C360 C 0.01418 0.22102 0.23254 0.0
C361 C 0.03371 0.27285 0.2132 0.0
C362 C 0.9894 0.3201 0.2255 0.0
C363 C 0.92499 0.31704 0.25723 0.0
C364 C 0.90607 0.26708 0.27784 0.0
H365 H 0.04296 0.20223 0.13683 0.0
C366 C 0.10321 0.1874 0.1422 0.0
H367 H 0.18041 0.15918 0.18646 0.0
H368 H 0.92372 0.06621 0.32685 0.0
H369 H -0.00193 0.9838 0.3032 0.0
H370 H 0.09909 0.98617 0.24037 0.0
H371 H 0.12698 0.07097 0.20112 0.0
C372 C 0.11941 0.17293 0.18134 0.0
C373 C 0.05613 0.17209 0.21848 0.0
C374 C 0.03991 0.12186 0.24093 0.0
C375 C 0.98032 0.12018 0.27663 0.0
C376 C 0.96684 0.06964 0.29893 0.0
C377 C 0.00938 0.02199 0.28583 0.0
C378 C 0.06634 0.02335 0.25051 0.0
C379 C 0.0818 0.07251 0.22828 0.0
H380 H 0.95747 0.295 0.63038 0.0
C381 C 0.9379 0.25201 0.62927 0.0
H382 H 0.9183 0.17718 0.66293 0.0
H383 H 0.15969 0.30172 0.78816 0.0
H384 H 0.26572 0.29677 0.72962 0.0
H385 H 0.23373 0.26692 0.65896 0.0
H386 H 0.09541 0.24158 0.64651 0.0
C387 C 0.94115 0.21947 0.66327 0.0
C388 C 0.96058 0.24194 0.70468 0.0
C389 C 0.04141 0.25803 0.71111 0.0
C390 C 0.05983 0.27501 0.75198 0.0
C391 C 0.14178 0.2889 0.75785 0.0
C392 C 0.20345 0.28617 0.72448 0.0
C393 C 0.18544 0.26939 0.6847 0.0
C394 C 0.10559 0.25524 0.67793 0.0
H395 H 0.98812 0.20195 0.84769 0.0
C396 C 0.01577 0.24051 0.85697 0.0
H397 H 0.0524 0.32112 0.83761 0.0
H398 H 0.79872 0.21479 0.70296 0.0
H399 H 0.69406 0.2159 0.76221 0.0
H400 H 0.72471 0.24946 0.83222 0.0
H401 H 0.86197 0.27927 0.84375 0.0
C402 C 0.0201 0.28357 0.83016 0.0
C403 C -0.00255 0.27547 0.78634 0.0
C404 C 0.91603 0.26158 0.77942 0.0
C405 C 0.89782 0.244 0.73874 0.0
C406 C 0.81642 0.22829 0.73319 0.0
C407 C 0.75535 0.22932 0.76687 0.0
C408 C 0.77275 0.24788 0.80632 0.0
C409 C 0.85188 0.26438 0.8126 0.0
H410 H 0.03393 0.81103 0.67048 0.0
C411 C 0.07416 0.77671 0.66096 0.0
H412 H 0.12237 0.70106 0.67992 0.0
H413 H 0.06111 0.77913 0.87158 0.0
H414 H 0.20932 0.77615 0.86036 0.0
H415 H 0.27963 0.75475 0.78998 0.0
H416 H 0.20239 0.73601 0.73052 0.0
C417 C 0.07834 0.73382 0.68747 0.0
C418 C 0.03555 0.73698 0.73105 0.0
C419 C 0.0818 0.74632 0.76572 0.0
C420 C 0.04145 0.75932 0.8062 0.0
C421 C 0.08895 0.76967 0.8401 0.0
C422 C 0.17396 0.76794 0.83411 0.0
C423 C 0.21352 0.75584 0.7945 0.0
C424 C 0.16836 0.74513 0.76061 0.0
H425 H 0.86774 0.7119 0.87779 0.0
C426 C 0.87147 0.75653 0.88147 0.0
H427 H 0.91948 0.83171 0.8553 0.0
H428 H 0.92909 0.71231 0.67315 0.0
H429 H 0.78086 0.71753 0.68398 0.0
H430 H 0.71118 0.74464 0.75318 0.0
H431 H 0.78834 0.76515 0.81227 0.0
C432 C 0.91475 0.78712 0.85169 0.0
C433 C 0.95517 0.76301 0.81196 0.0
C434 C 0.9087 0.75082 0.77785 0.0
C435 C 0.949 0.73703 0.7375 0.0
C436 C 0.90137 0.72446 0.70408 0.0
C437 C 0.81639 0.72702 0.70992 0.0
C438 C 0.77708 0.74206 0.74895 0.0
C439 C 0.82227 0.75377 0.78264 0.0
loop_
_geom_bond_atom_site_label_1
_geom_bond_atom_site_label_2
_geom_bond_distance
_geom_bond_site_symmetry_2
_ccdc_geom_bond_type
Zn0 O6 1.969 . S
Zn0 O7 1.965 . S
Zn0 O11 2.024 . S
Zn0 O16 1.969 . S
Zn1 O8 1.969 . S
Zn1 O14 1.969 . S
Zn1 O15 1.965 . S
Zn1 O17 2.024 . S
C2 O3 1.229 . S
C2 O11 1.058 . S
O3 C2 1.229 . S
C4 O5 1.229 . S
C4 O17 1.058 . S
O5 C4 1.229 . S
O6 Zn0 1.969 . S
O6 C9 1.267 . S
O7 Zn0 1.965 . S
O7 C18 1.260 1_556 S
O8 Zn1 1.969 . S
O8 C18 1.258 . S
C9 O6 1.267 . S
C9 O10 1.228 . S
O10 C9 1.228 . S
O11 Zn0 2.024 . S
O11 C2 1.058 . S
C12 O13 1.228 . S
C12 O14 1.267 . S
O13 C12 1.228 . S
O14 Zn1 1.969 . S
O14 C12 1.267 . S
O15 Zn1 1.965 . S
O15 C19 1.260 1_554 S
O16 Zn0 1.969 . S
O16 C19 1.258 . S
O17 Zn1 2.024 . S
O17 C4 1.058 . S
C18 O7 1.260 1_554 S
C18 O8 1.258 . S
C19 O15 1.260 1_556 S
C19 O16 1.258 . S
Zn20 O26 1.969 . S
Zn20 O27 1.965 . S
Zn20 O31 2.024 . S
Zn20 O36 1.969 . S
Zn21 O28 1.969 . S
Zn21 O34 1.969 . S
Zn21 O35 1.965 . S
Zn21 O37 2.024 . S
C22 O23 1.229 . S
C22 O31 1.058 . S
O23 C22 1.229 . S
C24 O25 1.229 . S
C24 O37 1.058 . S
O25 C24 1.229 . S
O26 Zn20 1.969 . S
O26 C29 1.267 . S
O27 Zn20 1.965 . S
O27 C38 1.260 1_556 S
O28 Zn21 1.969 . S
O28 C38 1.258 . S
C29 O26 1.267 . S
C29 O30 1.228 . S
O30 C29 1.228 . S
O31 Zn20 2.024 . S
O31 C22 1.058 . S
C32 O33 1.228 . S
C32 O34 1.267 . S
O33 C32 1.228 . S
O34 Zn21 1.969 . S
O34 C32 1.267 . S
O35 Zn21 1.965 . S
O35 C39 1.260 1_554 S
O36 Zn20 1.969 . S
O36 C39 1.258 . S
O37 Zn21 2.024 . S
O37 C24 1.058 . S
C38 O27 1.260 1_554 S
C38 O28 1.258 . S
C39 O35 1.260 1_556 S
C39 O36 1.258 . S
Zn40 O46 1.969 . S
Zn40 O47 1.965 . S
Zn40 O51 2.024 . S
Zn40 O56 1.969 . S
Zn41 O48 1.969 . S
Zn41 O54 1.969 . S
Zn41 O55 1.965 . S
Zn41 O57 2.024 . S
C42 O43 1.229 . S
C42 O51 1.058 . S
O43 C42 1.229 . S
C44 O45 1.229 . S
C44 O57 1.058 . S
O45 C44 1.229 . S
O46 Zn40 1.969 . S
O46 C49 1.267 . S
O47 Zn40 1.965 . S
O47 C58 1.260 . S
O48 Zn41 1.969 . S
O48 C58 1.258 . S
C49 O46 1.267 . S
C49 O50 1.228 . S
O50 C49 1.228 . S
O51 Zn40 2.024 . S
O51 C42 1.058 . S
C52 O53 1.228 . S
C52 O54 1.267 . S
O53 C52 1.228 . S
O54 Zn41 1.969 . S
O54 C52 1.267 . S
O55 Zn41 1.965 . S
O55 C59 1.260 . S
O56 Zn40 1.969 . S
O56 C59 1.258 . S
O57 Zn41 2.024 . S
O57 C44 1.058 . S
C58 O47 1.260 . S
C58 O48 1.258 . S
C59 O55 1.260 . S
C59 O56 1.258 . S
Zn60 O66 1.969 . S
Zn60 O67 1.965 . S
Zn60 O71 2.024 . S
Zn60 O76 1.969 . S
Zn61 O68 1.969 . S
Zn61 O74 1.969 . S
Zn61 O75 1.965 . S
Zn61 O77 2.024 . S
C62 O63 1.229 . S
C62 O71 1.058 . S
O63 C62 1.229 . S
C64 O65 1.229 . S
C64 O77 1.058 . S
O65 C64 1.229 . S
O66 Zn60 1.969 . S
O66 C69 1.267 . S
O67 Zn60 1.965 . S
O67 C78 1.260 . S
O68 Zn61 1.969 . S
O68 C78 1.258 . S
C69 O66 1.267 . S
C69 O70 1.228 . S
O70 C69 1.228 . S
O71 Zn60 2.024 . S
O71 C62 1.058 . S
C72 O73 1.228 . S
C72 O74 1.267 . S
O73 C72 1.228 . S
O74 Zn61 1.969 . S
O74 C72 1.267 . S
O75 Zn61 1.965 . S
O75 C79 1.260 . S
O76 Zn60 1.969 . S
O76 C79 1.258 . S
O77 Zn61 2.024 . S
O77 C64 1.058 . S
C78 O67 1.260 . S
C78 O68 1.258 . S
C79 O75 1.260 . S
C79 O76 1.258 . S
H80 C81 0.954 1_554 S
C81 H80 0.954 1_556 S
C81 C87 1.265 . S
H82 C87 0.950 . S
H83 C91 0.949 . S
H84 C92 0.950 . S
H85 C93 0.951 . S
H86 C94 0.951 . S
C87 C81 1.265 . S
C87 H82 0.950 . S
C87 C88 1.478 1_556 S
C88 C87 1.478 1_554 S
C88 C89 1.398 . S
C88 C105 1.392 1_554 S
C89 C88 1.398 . S
C89 C90 1.438 . S
C89 C94 1.429 . S
C90 C89 1.438 . S
C90 C91 1.428 . S
C90 C103 1.394 . S
C91 H83 0.949 . S
C91 C90 1.428 . S
C91 C92 1.345 . S
C92 H84 0.950 . S
C92 C91 1.345 . S
C92 C93 1.424 . S
C93 H85 0.951 . S
C93 C92 1.424 . S
C93 C94 1.347 . S
C94 H86 0.951 . S
C94 C89 1.429 . S
C94 C93 1.347 . S
H95 C96 0.951 . S
C96 H95 0.951 . S
C96 C102 1.265 . S
H97 C102 0.950 . S
H98 C106 0.949 . S
H99 C107 0.950 . S
H100 C108 0.951 . S
H101 C109 0.951 . S
C102 C96 1.265 . S
C102 H97 0.950 . S
C102 C103 1.478 . S
C103 C90 1.394 . S
C103 C102 1.478 . S
C103 C104 1.397 1_554 S
C104 C103 1.397 1_556 S
C104 C105 1.438 . S
C104 C109 1.429 . S
C105 C88 1.392 1_556 S
C105 C104 1.438 . S
C105 C106 1.428 . S
C106 H98 0.949 . S
C106 C105 1.428 . S
C106 C107 1.345 . S
C107 H99 0.950 . S
C107 C106 1.345 . S
C107 C108 1.424 . S
C108 H100 0.951 . S
C108 C107 1.424 . S
C108 C109 1.347 . S
C109 H101 0.951 . S
C109 C104 1.429 . S
C109 C108 1.347 . S
H110 C111 0.951 . S
C111 H110 0.951 . S
C111 C117 1.265 . S
H112 C117 0.950 . S
H113 C121 0.949 . S
H114 C122 0.950 . S
H115 C123 0.951 . S
H116 C124 0.951 . S
C117 C111 1.265 . S
C117 H112 0.950 . S
C117 C118 1.478 . S
C118 C117 1.478 . S
C118 C119 1.397 . S
C118 C135 1.394 . S
C119 C118 1.397 . S
C119 C120 1.438 . S
C119 C124 1.429 . S
C120 C119 1.438 . S
C120 C121 1.428 . S
C120 C133 1.394 . S
C121 H113 0.949 . S
C121 C120 1.428 . S
C121 C122 1.345 . S
C122 H114 0.950 . S
C122 C121 1.345 . S
C122 C123 1.424 . S
C123 H115 0.951 . S
C123 C122 1.424 . S
C123 C124 1.347 . S
C124 H116 0.951 . S
C124 C119 1.429 . S
C124 C123 1.347 . S
H125 C126 0.951 . S
C126 H125 0.951 . S
C126 C132 1.265 . S
H127 C132 0.950 . S
H128 C136 0.949 . S
H129 C137 0.950 . S
H130 C138 0.951 . S
H131 C139 0.951 . S
C132 C126 1.265 . S
C132 H127 0.950 . S
C132 C133 1.478 . S
C133 C120 1.394 . S
C133 C132 1.478 . S
C133 C134 1.397 . S
C134 C133 1.397 . S
C134 C135 1.438 . S
C134 C139 1.429 . S
C135 C118 1.394 . S
C135 C134 1.438 . S
C135 C136 1.428 . S
C136 H128 0.949 . S
C136 C135 1.428 . S
C136 C137 1.345 . S
C137 H129 0.950 . S
C137 C136 1.345 . S
C137 C138 1.424 . S
C138 H130 0.951 . S
C138 C137 1.424 . S
C138 C139 1.347 . S
C139 H131 0.951 . S
C139 C134 1.429 . S
C139 C138 1.347 . S
H140 C141 0.951 . S
C141 H140 0.951 . S
C141 C147 1.265 . S
H142 C147 0.950 . S
H143 C151 0.949 . S
H144 C152 0.950 1_565 S
H145 C153 0.951 . S
H146 C154 0.951 1_455 S
C147 C141 1.265 . S
C147 H142 0.950 . S
C147 C148 1.478 1_556 S
C148 C147 1.478 1_554 S
C148 C149 1.388 1_454 S
C148 C165 1.402 . S
C149 C148 1.388 1_656 S
C149 C150 1.438 1_545 S
C149 C154 1.429 . S
C150 C149 1.438 1_565 S
C150 C151 1.428 . S
C150 C163 1.394 1_556 S
C151 H143 0.949 . S
C151 C150 1.428 . S
C151 C152 1.345 1_565 S
C152 H144 0.950 1_545 S
C152 C151 1.345 1_545 S
C152 C153 1.424 . S
C153 H145 0.951 . S
C153 C152 1.424 . S
C153 C154 1.347 . S
C154 H146 0.951 1_655 S
C154 C149 1.429 . S
C154 C153 1.347 . S
H155 C156 0.951 . S
C156 H155 0.951 . S
C156 C162 1.265 . S
H157 C162 0.950 . S
H158 C166 0.949 . S
H159 C167 0.950 1_545 S
H160 C168 0.951 . S
H161 C169 0.951 1_655 S
C162 C156 1.265 . S
C162 H157 0.950 . S
C162 C163 1.478 . S
C163 C150 1.394 1_554 S
C163 C162 1.478 . S
C163 C164 1.397 1_655 S
C164 C163 1.397 1_455 S
C164 C165 1.438 1_565 S
C164 C169 1.429 . S
C165 C148 1.402 . S
C165 C164 1.438 1_545 S
C165 C166 1.428 . S
C166 H158 0.949 . S
C166 C165 1.428 . S
C166 C167 1.345 1_545 S
C167 H159 0.950 1_565 S
C167 C166 1.345 1_565 S
C167 C168 1.424 . S
C168 H160 0.951 . S
C168 C167 1.424 . S
C168 C169 1.347 . S
C169 H161 0.951 1_455 S
C169 C164 1.429 . S
C169 C168 1.347 . S
H170 C171 0.951 . S
C171 H170 0.951 . S
C171 C177 1.265 . S
H172 C177 0.950 . S
H173 C181 0.949 . S
H174 C182 0.954 . S
H175 C183 0.951 . S
H176 C184 0.951 1_655 S
C177 C171 1.265 . S
C177 H172 0.950 . S
C177 C178 1.478 . S
C178 C177 1.478 . S
C178 C179 1.397 1_655 S
C178 C195 1.394 . S
C179 C178 1.397 1_455 S
C179 C180 1.438 1_545 S
C179 C184 1.429 . S
C180 C179 1.438 1_565 S
C180 C181 1.428 . S
C180 C193 1.394 . S
C181 H173 0.949 . S
C181 C180 1.428 . S
C181 C182 1.354 . S
C182 H174 0.954 . S
C182 C181 1.354 . S
C182 C183 1.410 1_565 S
C183 H175 0.951 . S
C183 C182 1.410 1_545 S
C183 C184 1.347 . S
C184 H176 0.951 1_455 S
C184 C179 1.429 . S
C184 C183 1.347 . S
H185 C186 0.951 . S
C186 H185 0.951 . S
C186 C192 1.265 . S
H187 C192 0.950 . S
H188 C196 0.949 . S
H189 C197 0.954 . S
H190 C198 0.951 . S
H191 C199 0.951 1_455 S
C192 C186 1.265 . S
C192 H187 0.950 . S
C192 C193 1.478 . S
C193 C180 1.394 . S
C193 C192 1.478 . S
C193 C194 1.397 1_455 S
C194 C193 1.397 1_655 S
C194 C195 1.438 1_565 S
C194 C199 1.429 . S
C195 C178 1.394 . S
C195 C194 1.438 1_545 S
C195 C196 1.428 . S
C196 H188 0.949 . S
C196 C195 1.428 . S
C196 C197 1.354 . S
C197 H189 0.954 . S
C197 C196 1.354 . S
C197 C198 1.410 1_545 S
C198 H190 0.951 . S
C198 C197 1.410 1_565 S
C198 C199 1.347 . S
C199 H191 0.951 1_655 S
C199 C194 1.429 . S
C199 C198 1.347 . S
H200 C201 0.951 . S
C201 H200 0.951 . S
C201 C207 1.265 . S
H202 C207 0.950 . S
H203 C211 0.949 . S
H204 C212 0.950 . S
H205 C213 0.951 . S
H206 C214 0.951 . S
C207 C201 1.265 . S
C207 H202 0.950 . S
C207 C208 1.478 . S
C208 C207 1.478 . S
C208 C209 1.397 . S
C208 C225 1.394 . S
C209 C208 1.397 . S
C209 C210 1.438 . S
C209 C214 1.429 . S
C210 C209 1.438 . S
C210 C211 1.428 . S
C210 C223 1.394 . S
C211 H203 0.949 . S
C211 C210 1.428 . S
C211 C212 1.345 . S
C212 H204 0.950 . S
C212 C211 1.345 . S
C212 C213 1.424 . S
C213 H205 0.951 . S
C213 C212 1.424 . S
C213 C214 1.347 . S
C214 H206 0.951 . S
C214 C209 1.429 . S
C214 C213 1.347 . S
H215 C216 0.951 . S
C216 H215 0.951 . S
C216 C222 1.265 . S
H217 C222 0.950 . S
H218 C226 0.949 . S
H219 C227 0.950 . S
H220 C228 0.951 . S
H221 C229 0.951 . S
C222 C216 1.265 . S
C222 H217 0.950 . S
C222 C223 1.478 . S
C223 C210 1.394 . S
C223 C222 1.478 . S
C223 C224 1.397 . S
C224 C223 1.397 . S
C224 C225 1.438 . S
C224 C229 1.429 . S
C225 C208 1.394 . S
C225 C224 1.438 . S
C225 C226 1.428 . S
C226 H218 0.949 . S
C226 C225 1.428 . S
C226 C227 1.345 . S
C227 H219 0.950 . S
C227 C226 1.345 . S
C227 C228 1.424 . S
C228 H220 0.951 . S
C228 C227 1.424 . S
C228 C229 1.347 . S
C229 H221 0.951 . S
C229 C224 1.429 . S
C229 C228 1.347 . S
H230 C231 0.951 . S
C231 H230 0.951 . S
C231 C237 1.265 . S
H232 C237 0.950 . S
H233 C241 0.949 . S
H234 C242 0.950 . S
H235 C243 0.951 . S
H236 C244 0.951 . S
C237 C231 1.265 . S
C237 H232 0.950 . S
C237 C238 1.478 . S
C238 C237 1.478 . S
C238 C239 1.397 . S
C238 C255 1.394 . S
C239 C238 1.397 . S
C239 C240 1.438 . S
C239 C244 1.429 . S
C240 C239 1.438 . S
C240 C241 1.428 . S
C240 C253 1.394 . S
C241 H233 0.949 . S
C241 C240 1.428 . S
C241 C242 1.345 . S
C242 H234 0.950 . S
C242 C241 1.345 . S
C242 C243 1.424 . S
C243 H235 0.951 . S
C243 C242 1.424 . S
C243 C244 1.347 . S
C244 H236 0.951 . S
C244 C239 1.429 . S
C244 C243 1.347 . S
H245 C246 0.951 . S
C246 H245 0.951 . S
C246 C252 1.265 . S
H247 C252 0.950 . S
H248 C256 0.949 . S
H249 C257 0.950 . S
H250 C258 0.951 . S
H251 C259 0.951 . S
C252 C246 1.265 . S
C252 H247 0.950 . S
C252 C253 1.478 . S
C253 C240 1.394 . S
C253 C252 1.478 . S
C253 C254 1.397 . S
C254 C253 1.397 . S
C254 C255 1.438 . S
C254 C259 1.429 . S
C255 C238 1.394 . S
C255 C254 1.438 . S
C255 C256 1.428 . S
C256 H248 0.949 . S
C256 C255 1.428 . S
C256 C257 1.345 . S
C257 H249 0.950 . S
C257 C256 1.345 . S
C257 C258 1.424 . S
C258 H250 0.951 . S
C258 C257 1.424 . S
C258 C259 1.347 . S
C259 H251 0.951 . S
C259 C254 1.429 . S
C259 C258 1.347 . S
H260 C261 0.951 . S
C261 H260 0.951 . S
C261 C267 1.265 . S
H262 C267 0.950 . S
H263 C271 0.949 . S
H264 C272 0.950 . S
H265 C273 0.951 . S
H266 C274 0.951 . S
C267 C261 1.265 . S
C267 H262 0.950 . S
C267 C268 1.478 . S
C268 C267 1.478 . S
C268 C269 1.397 . S
C268 C285 1.394 . S
C269 C268 1.397 . S
C269 C270 1.438 . S
C269 C274 1.429 . S
C270 C269 1.438 . S
C270 C271 1.428 . S
C270 C283 1.394 . S
C271 H263 0.949 . S
C271 C270 1.428 . S
C271 C272 1.345 . S
C272 H264 0.950 . S
C272 C271 1.345 . S
C272 C273 1.424 . S
C273 H265 0.951 . S
C273 C272 1.424 . S
C273 C274 1.347 . S
C274 H266 0.951 . S
C274 C269 1.429 . S
C274 C273 1.347 . S
H275 C276 0.951 . S
C276 H275 0.951 . S
C276 C282 1.265 . S
H277 C282 0.950 . S
H278 C286 0.949 . S
H279 C287 0.950 . S
H280 C288 0.951 . S
H281 C289 0.951 . S
C282 C276 1.265 . S
C282 H277 0.950 . S
C282 C283 1.478 . S
C283 C270 1.394 . S
C283 C282 1.478 . S
C283 C284 1.397 . S
C284 C283 1.397 . S
C284 C285 1.438 . S
C284 C289 1.429 . S
C285 C268 1.394 . S
C285 C284 1.438 . S
C285 C286 1.428 . S
C286 H278 0.949 . S
C286 C285 1.428 . S
C286 C287 1.345 . S
C287 H279 0.950 . S
C287 C286 1.345 . S
C287 C288 1.424 . S
C288 H280 0.951 . S
C288 C287 1.424 . S
C288 C289 1.347 . S
C289 H281 0.951 . S
C289 C284 1.429 . S
C289 C288 1.347 . S
H290 C291 0.951 . S
C291 H290 0.951 . S
C291 C297 1.265 . S
H292 C297 0.950 . S
H293 C301 0.949 . S
H294 C302 0.950 . S
H295 C303 0.951 . S
H296 C304 0.951 . S
C297 C291 1.265 . S
C297 H292 0.950 . S
C297 C298 1.478 . S
C298 C297 1.478 . S
C298 C299 1.397 . S
C298 C315 1.394 . S
C299 C298 1.397 . S
C299 C300 1.438 . S
C299 C304 1.429 . S
C300 C299 1.438 . S
C300 C301 1.428 . S
C300 C313 1.394 . S
C301 H293 0.949 . S
C301 C300 1.428 . S
C301 C302 1.345 . S
C302 H294 0.950 . S
C302 C301 1.345 . S
C302 C303 1.424 . S
C303 H295 0.951 . S
C303 C302 1.424 . S
C303 C304 1.347 . S
C304 H296 0.951 . S
C304 C299 1.429 . S
C304 C303 1.347 . S
H305 C306 0.951 . S
C306 H305 0.951 . S
C306 C312 1.265 . S
H307 C312 0.950 . S
H308 C316 0.949 . S
H309 C317 0.950 . S
H310 C318 0.951 . S
H311 C319 0.951 . S
C312 C306 1.265 . S
C312 H307 0.950 . S
C312 C313 1.478 . S
C313 C300 1.394 . S
C313 C312 1.478 . S
C313 C314 1.397 . S
C314 C313 1.397 . S
C314 C315 1.438 . S
C314 C319 1.429 . S
C315 C298 1.394 . S
C315 C314 1.438 . S
C315 C316 1.428 . S
C316 H308 0.949 . S
C316 C315 1.428 . S
C316 C317 1.345 . S
C317 H309 0.950 . S
C317 C316 1.345 . S
C317 C318 1.424 . S
C318 H310 0.951 . S
C318 C317 1.424 . S
C318 C319 1.347 . S
C319 H311 0.951 . S
C319 C314 1.429 . S
C319 C318 1.347 . S
H320 C321 0.951 . S
C321 H320 0.951 . S
C321 C327 1.265 . S
H322 C327 0.950 1_455 S
H323 C331 0.949 . S
H324 C332 0.950 . S
H325 C333 0.951 . S
H326 C334 0.951 . S
C327 C321 1.265 . S
C327 H322 0.950 1_655 S
C327 C328 1.478 . S
C328 C327 1.478 . S
C328 C329 1.397 1_655 S
C328 C345 1.394 . S
C329 C328 1.397 1_455 S
C329 C330 1.438 . S
C329 C334 1.429 . S
C330 C329 1.438 . S
C330 C331 1.428 . S
C330 C343 1.394 . S
C331 H323 0.949 . S
C331 C330 1.428 . S
C331 C332 1.345 . S
C332 H324 0.950 . S
C332 C331 1.345 . S
C332 C333 1.424 . S
C333 H325 0.951 . S
C333 C332 1.424 . S
C333 C334 1.347 . S
C334 H326 0.951 . S
C334 C329 1.429 . S
C334 C333 1.347 . S
H335 C336 0.951 . S
C336 H335 0.951 . S
C336 C342 1.265 . S
H337 C342 0.950 1_655 S
H338 C346 0.949 . S
H339 C347 0.950 . S
H340 C348 0.951 . S
H341 C349 0.951 . S
C342 C336 1.265 . S
C342 H337 0.950 1_455 S
C342 C343 1.478 . S
C343 C330 1.394 . S
C343 C342 1.478 . S
C343 C344 1.397 1_455 S
C344 C343 1.397 1_655 S
C344 C345 1.438 . S
C344 C349 1.429 . S
C345 C328 1.394 . S
C345 C344 1.438 . S
C345 C346 1.428 . S
C346 H338 0.949 . S
C346 C345 1.428 . S
C346 C347 1.345 . S
C347 H339 0.950 . S
C347 C346 1.345 . S
C347 C348 1.424 . S
C348 H340 0.951 . S
C348 C347 1.424 . S
C348 C349 1.347 . S
C349 H341 0.951 . S
C349 C344 1.429 . S
C349 C348 1.347 . S
H350 C351 0.951 . S
C351 H350 0.951 . S
C351 C357 1.265 . S
H352 C357 0.950 . S
H353 C361 0.949 . S
H354 C362 0.950 . S
H355 C363 0.951 . S
H356 C364 0.951 . S
C357 C351 1.265 . S
C357 H352 0.950 . S
C357 C358 1.478 . S
C358 C357 1.478 . S
C358 C359 1.397 . S
C358 C375 1.394 . S
C359 C358 1.397 . S
C359 C360 1.438 1_655 S
C359 C364 1.429 . S
C360 C359 1.438 1_455 S
C360 C361 1.428 . S
C360 C373 1.394 . S
C361 H353 0.949 . S
C361 C360 1.428 . S
C361 C362 1.345 1_455 S
C362 H354 0.950 . S
C362 C361 1.345 1_655 S
C362 C363 1.424 . S
C363 H355 0.951 . S
C363 C362 1.424 . S
C363 C364 1.347 . S
C364 H356 0.951 . S
C364 C359 1.429 . S
C364 C363 1.347 . S
H365 C366 0.951 . S
C366 H365 0.951 . S
C366 C372 1.265 . S
H367 C372 0.950 . S
H368 C376 0.949 . S
H369 C377 0.950 . S
H370 C378 0.951 . S
H371 C379 0.951 . S
C372 C366 1.265 . S
C372 H367 0.950 . S
C372 C373 1.478 . S
C373 C360 1.394 . S
C373 C372 1.478 . S
C373 C374 1.397 . S
C374 C373 1.397 . S
C374 C375 1.438 1_455 S
C374 C379 1.429 . S
C375 C358 1.394 . S
C375 C374 1.438 1_655 S
C375 C376 1.428 . S
C376 H368 0.949 . S
C376 C375 1.428 . S
C376 C377 1.345 1_655 S
C377 H369 0.950 . S
C377 C376 1.345 1_455 S
C377 C378 1.424 . S
C378 H370 0.951 . S
C378 C377 1.424 . S
C378 C379 1.347 . S
C379 H371 0.951 . S
C379 C374 1.429 . S
C379 C378 1.347 . S
H380 C381 0.951 . S
C381 H380 0.951 . S
C381 C387 1.265 . S
H382 C387 0.950 1_455 S
H383 C391 0.949 . S
H384 C392 0.950 . S
H385 C393 0.951 . S
H386 C394 0.951 . S
C387 C381 1.265 . S
C387 H382 0.950 1_655 S
C387 C388 1.478 . S
C388 C387 1.478 . S
C388 C389 1.397 1_655 S
C388 C405 1.394 . S
C389 C388 1.397 1_455 S
C389 C390 1.438 . S
C389 C394 1.429 . S
C390 C389 1.438 . S
C390 C391 1.428 . S
C390 C403 1.394 . S
C391 H383 0.949 . S
C391 C390 1.428 . S
C391 C392 1.345 . S
C392 H384 0.950 . S
C392 C391 1.345 . S
C392 C393 1.424 . S
C393 H385 0.951 . S
C393 C392 1.424 . S
C393 C394 1.347 . S
C394 H386 0.951 . S
C394 C389 1.429 . S
C394 C393 1.347 . S
H395 C396 0.951 . S
C396 H395 0.951 . S
C396 C402 1.265 . S
H397 C402 0.950 1_655 S
H398 C406 0.949 . S
H399 C407 0.950 . S
H400 C408 0.951 . S
H401 C409 0.951 . S
C402 C396 1.265 . S
C402 H397 0.950 1_455 S
C402 C403 1.478 . S
C403 C390 1.394 . S
C403 C402 1.478 . S
C403 C404 1.397 1_455 S
C404 C403 1.397 1_655 S
C404 C405 1.438 . S
C404 C409 1.429 . S
C405 C388 1.394 . S
C405 C404 1.438 . S
C405 C406 1.428 . S
C406 H398 0.949 . S
C406 C405 1.428 . S
C406 C407 1.345 . S
C407 H399 0.950 . S
C407 C406 1.345 . S
C407 C408 1.424 . S
C408 H400 0.951 . S
C408 C407 1.424 . S
C408 C409 1.347 . S
C409 H401 0.951 . S
C409 C404 1.429 . S
C409 C408 1.347 . S
H410 C411 0.951 . S
C411 H410 0.951 . S
C411 C417 1.265 . S
H412 C417 0.950 . S
H413 C421 0.949 . S
H414 C422 0.950 . S
H415 C423 0.951 . S
H416 C424 0.951 . S
C417 C411 1.265 . S
C417 H412 0.950 . S
C417 C418 1.478 . S
C418 C417 1.478 . S
C418 C419 1.397 . S
C418 C435 1.394 . S
C419 C418 1.397 . S
C419 C420 1.438 1_455 S
C419 C424 1.429 . S
C420 C419 1.438 1_655 S
C420 C421 1.428 . S
C420 C433 1.394 . S
C421 H413 0.949 . S
C421 C420 1.428 . S
C421 C422 1.345 1_655 S
C422 H414 0.950 . S
C422 C421 1.345 1_455 S
C422 C423 1.424 . S
C423 H415 0.951 . S
C423 C422 1.424 . S
C423 C424 1.347 . S
C424 H416 0.951 . S
C424 C419 1.429 . S
C424 C423 1.347 . S
H425 C426 0.951 . S
C426 H425 0.951 . S
C426 C432 1.265 . S
H427 C432 0.950 . S
H428 C436 0.949 . S
H429 C437 0.950 . S
H430 C438 0.951 . S
H431 C439 0.951 . S
C432 C426 1.265 . S
C432 H427 0.950 . S
C432 C433 1.478 . S
C433 C420 1.394 . S
C433 C432 1.478 . S
C433 C434 1.397 . S
C434 C433 1.397 . S
C434 C435 1.438 1_655 S
C434 C439 1.429 . S
C435 C418 1.394 . S
C435 C434 1.438 1_455 S
C435 C436 1.428 . S
C436 H428 0.949 . S
C436 C435 1.428 . S
C436 C437 1.345 1_455 S
C437 H429 0.950 . S
C437 C436 1.345 1_655 S
C437 C438 1.424 . S
C438 H430 0.951 . S
C438 C437 1.424 . S
C438 C439 1.347 . S
C439 H431 0.951 . S
C439 C434 1.429 . S
C439 C438 1.347 . S
C81 C38 1.442 1_556 S
C96 C19 1.447 1_554 S
C111 C58 1.437 . S
C126 C79 1.437 . S
C141 C18 1.517 1_556 S
C156 C39 1.517 1_554 S
C171 C78 1.515 . S
C186 C59 1.515 . S
C201 C72 1.284 . S
C216 C12 1.293 . S
C231 C24 0.930 . S
C246 C44 0.896 . S
C261 C29 1.174 . S
C276 C49 1.183 . S
C291 C62 0.906 . S
C306 C2 0.915 . S
C321 C32 1.180 . S
C336 C52 1.176 . S
C351 C64 1.073 . S
C366 C4 1.085 . S
C381 C69 1.185 . S
C396 C9 1.172 . S
C411 C42 1.080 . S
C426 C22 1.079 . S
