# Generated by pormake.
# Topology unb, (4)-cn, num edge types: 1
# Building blocks:
#     Node 0, Type 0, BuildingBlock: ICAMEG_clean_sbu_1, # of connection points: 4
#     Node 1, Type 0, BuildingBlock: ICAMEG_clean_sbu_1, # of connection points: 4
#     Node 2, Type 0, BuildingBlock: ICAMEG_clean_sbu_1, # of connection points: 4
#     Node 3, Type 0, BuildingBlock: ICAMEG_clean_sbu_1, # of connection points: 4
#     Node 4, Type 0, BuildingBlock: ICAMEG_clean_sbu_1, # of connection points: 4
#     Node 5, Type 0, BuildingBlock: ICAMEG_clean_sbu_1, # of connection points: 4
#     Node 6, Type 0, BuildingBlock: ICAMEG_clean_sbu_1, # of connection points: 4
#     Node 7, Type 0, BuildingBlock: ICAMEG_clean_sbu_1, # of connection points: 4
#     Node 8, Type 0, BuildingBlock: ICAMEG_clean_sbu_1, # of connection points: 4
#     Node 9, Type 0, BuildingBlock: ICAMEG_clean_sbu_1, # of connection points: 4
#     Node 10, Type 0, BuildingBlock: ICAMEG_clean_sbu_1, # of connection points: 4
#     Node 11, Type 0, BuildingBlock: ICAMEG_clean_sbu_1, # of connection points: 4
#     Node 12, Type 0, BuildingBlock: ICAMEG_clean_sbu_1, # of connection points: 4
#     Node 13, Type 0, BuildingBlock: ICAMEG_clean_sbu_1, # of connection points: 4
#     Node 14, Type 0, BuildingBlock: ICAMEG_clean_sbu_1, # of connection points: 4
#     Node 15, Type 0, BuildingBlock: ICAMEG_clean_sbu_1, # of connection points: 4
#     Node 16, Type 0, BuildingBlock: ICAMEG_clean_sbu_1, # of connection points: 4
#     Node 17, Type 0, BuildingBlock: ICAMEG_clean_sbu_1, # of connection points: 4
#     Edge 18, Type (0, 0), BuildingBlock: UVAHIK_clean_linker_0, # of connection points: 2
#     Edge 19, Type (0, 0), BuildingBlock: UVAHIK_clean_linker_0, # of connection points: 2
#     Edge 20, Type (0, 0), BuildingBlock: UVAHIK_clean_linker_0, # of connection points: 2
#     Edge 21, Type (0, 0), BuildingBlock: UVAHIK_clean_linker_0, # of connection points: 2
#     Edge 22, Type (0, 0), BuildingBlock: UVAHIK_clean_linker_0, # of connection points: 2
#     Edge 23, Type (0, 0), BuildingBlock: UVAHIK_clean_linker_0, # of connection points: 2
#     Edge 24, Type (0, 0), BuildingBlock: UVAHIK_clean_linker_0, # of connection points: 2
#     Edge 25, Type (0, 0), BuildingBlock: UVAHIK_clean_linker_0, # of connection points: 2
#     Edge 26, Type (0, 0), BuildingBlock: UVAHIK_clean_linker_0, # of connection points: 2
#     Edge 27, Type (0, 0), BuildingBlock: UVAHIK_clean_linker_0, # of connection points: 2
#     Edge 28, Type (0, 0), BuildingBlock: UVAHIK_clean_linker_0, # of connection points: 2
#     Edge 29, Type (0, 0), BuildingBlock: UVAHIK_clean_linker_0, # of connection points: 2
#     Edge 30, Type (0, 0), BuildingBlock: UVAHIK_clean_linker_0, # of connection points: 2
#     Edge 31, Type (0, 0), BuildingBlock: UVAHIK_clean_linker_0, # of connection points: 2
#     Edge 32, Type (0, 0), BuildingBlock: UVAHIK_clean_linker_0, # of connection points: 2
#     Edge 33, Type (0, 0), BuildingBlock: UVAHIK_clean_linker_0, # of connection points: 2
#     Edge 34, Type (0, 0), BuildingBlock: UVAHIK_clean_linker_0, # of connection points: 2
#     Edge 35, Type (0, 0), BuildingBlock: UVAHIK_clean_linker_0, # of connection points: 2
#     Edge 36, Type (0, 0), BuildingBlock: UVAHIK_clean_linker_0, # of connection points: 2
#     Edge 37, Type (0, 0), BuildingBlock: UVAHIK_clean_linker_0, # of connection points: 2
#     Edge 38, Type (0, 0), BuildingBlock: UVAHIK_clean_linker_0, # of connection points: 2
#     Edge 39, Type (0, 0), BuildingBlock: UVAHIK_clean_linker_0, # of connection points: 2
#     Edge 40, Type (0, 0), BuildingBlock: UVAHIK_clean_linker_0, # of connection points: 2
#     Edge 41, Type (0, 0), BuildingBlock: UVAHIK_clean_linker_0, # of connection points: 2
#     Edge 42, Type (0, 0), BuildingBlock: UVAHIK_clean_linker_0, # of connection points: 2
#     Edge 43, Type (0, 0), BuildingBlock: UVAHIK_clean_linker_0, # of connection points: 2
#     Edge 44, Type (0, 0), BuildingBlock: UVAHIK_clean_linker_0, # of connection points: 2
#     Edge 45, Type (0, 0), BuildingBlock: UVAHIK_clean_linker_0, # of connection points: 2
#     Edge 46, Type (0, 0), BuildingBlock: UVAHIK_clean_linker_0, # of connection points: 2
#     Edge 47, Type (0, 0), BuildingBlock: UVAHIK_clean_linker_0, # of connection points: 2
#     Edge 48, Type (0, 0), BuildingBlock: UVAHIK_clean_linker_0, # of connection points: 2
#     Edge 49, Type (0, 0), BuildingBlock: UVAHIK_clean_linker_0, # of connection points: 2
#     Edge 50, Type (0, 0), BuildingBlock: UVAHIK_clean_linker_0, # of connection points: 2
#     Edge 51, Type (0, 0), BuildingBlock: UVAHIK_clean_linker_0, # of connection points: 2
#     Edge 52, Type (0, 0), BuildingBlock: UVAHIK_clean_linker_0, # of connection points: 2
#     Edge 53, Type (0, 0), BuildingBlock: UVAHIK_clean_linker_0, # of connection points: 2
# Relax obj value: 0.100
# Max RMSD: 0.095
# Mean RMSD: 0.095
data_MOF--net-unb--node1-ICAMEG_clean_sbu_1--edge1-UVAHIK_clean_linker_0
_symmetry_space_group_name_H-M    P1
_symmetry_Int_Tables_number       1
_symmetry_cell_setting            triclinic
loop_
_symmetry_equiv_pos_as_xyz
'x, y, z'
_cell_length_a     80.873782
_cell_length_b     80.797995
_cell_length_c     37.495492
_cell_angle_alpha  90.031458
_cell_angle_beta   90.00229
_cell_angle_gamma 120.02292
loop_
_atom_site_label
_atom_site_type_symbol
_atom_site_fract_x
_atom_site_fract_y
_atom_site_fract_z
_atom_type_partial_charge
Co0 Co 0.16536 0.29691 0.07974 0.0
Co1 Co 0.12889 0.25365 0.05115 0.0
O2 O 0.13951 0.27485 0.0855 0.0
C3 C 0.16281 0.28755 0.15792 0.0
O4 O 0.151 0.26938 0.15157 0.0
C5 C 0.0972 0.26233 0.05187 0.0
O6 O 0.10973 0.28036 0.04566 0.0
O7 O 0.13387 0.27168 0.01127 0.0
O8 O 0.16269 0.29571 0.02672 0.0
H9 H 0.12775 0.22091 0.9364 0.0
H10 H 0.13749 0.29981 0.12679 0.0
O11 O 0.16933 0.29958 0.13255 0.0
H12 H 0.15536 0.3503 0.03648 0.0
H13 H 0.22045 0.3621 0.11003 0.0
H14 H 0.19786 0.30587 0.03152 0.0
H15 H 0.16973 0.32964 0.03552 0.0
H16 H 0.18789 0.33458 0.11652 0.0
O17 O 0.10276 0.2503 0.05715 0.0
H18 H 0.14108 0.2471 0.98044 0.0
H19 H 0.09347 0.21541 0.04848 0.0
H20 H 0.23047 0.33316 0.02392 0.0
H21 H 0.12291 0.32027 0.12895 0.0
H22 H 0.24196 0.36154 0.06336 0.0
H23 H 0.1318 0.34571 0.08351 0.0
O24 O 0.17634 0.27964 0.07797 0.0
H25 H 0.1037 0.22507 0.17173 0.0
H26 H 0.13746 0.22225 0.06442 0.0
H27 H 0.13169 0.20007 0.11419 0.0
H28 H 0.11464 0.20135 0.16828 0.0
H29 H 0.11004 0.24721 0.12153 0.0
H30 H 0.07952 0.18894 0.00503 0.0
H31 H 0.09674 0.19157 0.94857 0.0
O32 O 0.15457 0.25618 0.04337 0.0
C33 C 0.14925 0.28709 0.00417 0.0
C34 C 0.12014 0.21957 0.96096 0.0
C35 C 0.09307 0.20164 -0.00054 0.0
N36 N 0.11816 0.23272 0.01716 0.0
C37 C 0.12766 0.23433 0.98606 0.0
C38 C 0.10102 0.21668 0.02394 0.0
C39 C 0.10273 0.20312 0.96779 0.0
C40 C 0.14156 0.31096 0.10713 0.0
N41 N 0.15454 0.3136 0.08123 0.0
C42 C 0.1332 0.32245 0.10839 0.0
C43 C 0.13818 0.33671 0.08286 0.0
C44 C 0.15139 0.33928 0.05646 0.0
C45 C 0.15945 0.32751 0.05602 0.0
C46 C 0.2156 0.34983 0.09265 0.0
C47 C 0.20272 0.3182 0.04869 0.0
C48 C 0.19719 0.33417 0.09625 0.0
N49 N 0.19093 0.31866 0.07428 0.0
C50 C 0.22122 0.3336 0.0443 0.0
C51 C 0.22766 0.34951 0.06645 0.0
C52 C 0.17112 0.26524 0.05751 0.0
C53 C 0.11112 0.22435 0.14828 0.0
C54 C 0.13019 0.22303 0.088 0.0
C55 C 0.12688 0.21036 0.11603 0.0
C56 C 0.11729 0.21107 0.14635 0.0
N57 N 0.12411 0.23603 0.09011 0.0
C58 C 0.11467 0.23679 0.11972 0.0
Co59 Co 0.74146 0.87204 0.0513 0.0
Co60 Co 0.69717 0.86392 0.07471 0.0
O61 O 0.7195 0.86104 0.08368 0.0
C62 C 0.73376 0.83209 0.05493 0.0
O63 O 0.71574 0.82626 0.04813 0.0
C64 C 0.70471 0.87398 0.15208 0.0
O65 O 0.72295 0.88523 0.14532 0.0
O66 O 0.71373 0.89231 0.07329 0.0
O67 O 0.73818 0.89458 0.04112 0.0
H68 H 0.66085 0.89109 0.01302 0.0
H69 H 0.74602 0.8607 0.12399 0.0
O70 O 0.74554 0.84982 0.0597 0.0
H71 H 0.79215 0.92979 0.11635 0.0
H72 H 0.80774 0.88921 0.01231 0.0
H73 H 0.74926 0.89046 0.98011 0.0
H74 H 0.77186 0.91244 0.06483 0.0
H75 H 0.78022 0.87617 0.05332 0.0
O76 O 0.69312 0.86476 0.12703 0.0
H77 H 0.68852 0.88681 0.02417 0.0
H78 H 0.65843 0.84748 0.10744 0.0
H79 H 0.7765 0.90382 0.93845 0.0
H80 H 0.76617 0.87745 0.1761 0.0
H81 H 0.80601 0.90323 0.95446 0.0
H82 H 0.7894 0.91225 0.17246 0.0
O83 O 0.72457 0.85822 0.0104 0.0
H84 H 0.67446 0.79835 0.12479 0.0
H85 H 0.66616 0.83492 0.02815 0.0
H86 H 0.64649 0.79978 0.02848 0.0
H87 H 0.65055 0.78124 0.07711 0.0
H88 H 0.69399 0.83353 0.12322 0.0
H89 H 0.63049 0.85148 0.0974 0.0
H90 H 0.63157 0.87336 0.0498 0.0
O91 O 0.6999 0.86262 0.022 0.0
C92 C 0.72846 0.9017 0.05377 0.0
C93 C 0.6602 0.8815 0.03381 0.0
C94 C 0.64317 0.85928 0.0812 0.0
N95 N 0.67509 0.86687 0.06638 0.0
C96 C 0.67582 0.87899 0.04022 0.0
C97 C 0.65906 0.85713 0.08685 0.0
C98 C 0.64378 0.87155 0.05447 0.0
C99 C 0.75622 0.87581 0.12216 0.0
N100 N 0.75783 0.88556 0.09141 0.0
C101 C 0.76754 0.88523 0.15177 0.0
C102 C 0.78055 0.90477 0.14972 0.0
C103 C 0.78209 0.91462 0.11826 0.0
C104 C 0.77052 0.90473 0.08921 0.0
C105 C 0.79497 0.88958 0.00506 0.0
C106 C 0.76209 0.89026 0.98737 0.0
C107 C 0.77933 0.88217 0.02814 0.0
N108 N 0.76319 0.88266 0.01922 0.0
C109 C 0.77745 0.8978 0.96363 0.0
C110 C 0.794 0.89745 0.97261 0.0
C111 C 0.70911 0.8576 0.00132 0.0
C112 C 0.67253 0.80627 0.1035 0.0
C113 C 0.66809 0.82697 0.04931 0.0
C114 C 0.65686 0.80707 0.04941 0.0
C115 C 0.65914 0.79668 0.07672 0.0
N116 N 0.68119 0.83629 0.07569 0.0
C117 C 0.68351 0.82619 0.10254 0.0
Co118 Co 0.12352 0.86723 0.06018 0.0
Co119 Co 0.1328 0.83073 0.07991 0.0
O120 O 0.13615 0.85628 0.08841 0.0
C121 C 0.16411 0.89738 0.04952 0.0
O122 O 0.16833 0.88396 0.04288 0.0
C123 C 0.1251 0.83091 0.15796 0.0
O124 O 0.11712 0.84133 0.15188 0.0
O125 O 0.10433 0.81858 0.07835 0.0
O126 O 0.09934 0.84212 0.05951 0.0
H127 H 0.10603 0.76733 0.01768 0.0
H128 H 0.14362 0.88645 0.12669 0.0
O129 O 0.14732 0.89292 0.05945 0.0
H130 H 0.0767 0.86986 0.14539 0.0
H131 H 0.10708 0.91774 0.02723 0.0
H132 H 0.09756 0.85405 0.99774 0.0
H133 H 0.08676 0.86221 0.08859 0.0
H134 H 0.12266 0.90374 0.06289 0.0
O135 O 0.13176 0.82567 0.13237 0.0
H136 H 0.11024 0.7993 0.02887 0.0
H137 H 0.14889 0.80828 0.11327 0.0
H138 H 0.08152 0.86742 0.96162 0.0
H139 H 0.13428 0.89465 0.18379 0.0
H140 H 0.08627 0.8995 0.97627 0.0
H141 H 0.10058 0.88625 0.19347 0.0
O142 O 0.13169 0.86074 0.01455 0.0
H143 H 0.19841 0.87337 0.13001 0.0
H144 H 0.16162 0.82889 0.03287 0.0
H145 H 0.19674 0.84429 0.03305 0.0
H146 H 0.21538 0.86667 0.08193 0.0
H147 H 0.16327 0.85779 0.12862 0.0
H148 H 0.14499 0.77635 0.10317 0.0
H149 H 0.12348 0.75567 0.05499 0.0
O150 O 0.13399 0.83487 0.02763 0.0
C151 C 0.09339 0.8247 0.06752 0.0
C152 C 0.11546 0.77622 0.03871 0.0
C153 C 0.13731 0.78128 0.08672 0.0
N154 N 0.12984 0.80568 0.0716 0.0
C155 C 0.11793 0.79435 0.04514 0.0
C156 C 0.13942 0.79932 0.09238 0.0
C157 C 0.12525 0.76968 0.05968 0.0
C158 C 0.12896 0.88289 0.13065 0.0
N159 N 0.11571 0.87375 0.10444 0.0
C160 C 0.12374 0.8875 0.16306 0.0
C161 C 0.10483 0.88276 0.16849 0.0
C162 C 0.09141 0.87353 0.14155 0.0
C163 C 0.09715 0.86911 0.10952 0.0
C164 C 0.10489 0.90374 0.02059 0.0
C165 C 0.09961 0.86798 0.0044 0.0
C166 C 0.11373 0.89577 0.04061 0.0
N167 N 0.11098 0.87807 0.03247 0.0
C168 C 0.09053 0.87549 0.9838 0.0
C169 C 0.09321 0.8935 0.99201 0.0
C170 C 0.13438 0.84704 0.00562 0.0
C171 C 0.19044 0.86359 0.10864 0.0
C172 C 0.16962 0.83865 0.0542 0.0
C173 C 0.18951 0.84729 0.05419 0.0
C174 C 0.19996 0.85985 0.08162 0.0
N175 N 0.16039 0.84234 0.08086 0.0
C176 C 0.17054 0.85467 0.10779 0.0
Co177 Co 0.25513 0.12502 0.94684 0.0
Co178 Co 0.29843 0.1611 0.91708 0.0
O179 O 0.27584 0.13553 0.91149 0.0
C180 C 0.26305 0.09286 0.94272 0.0
O181 O 0.28123 0.1052 0.94784 0.0
C182 C 0.28886 0.15776 0.83839 0.0
O183 O 0.2716 0.14341 0.844 0.0
O184 O 0.2818 0.17272 0.92153 0.0
O185 O 0.25843 0.15091 0.95622 0.0
H186 H 0.33689 0.22545 0.97515 0.0
H187 H 0.24693 0.10621 0.87607 0.0
O188 O 0.2511 0.09868 0.93937 0.0
H189 H 0.20163 0.12991 0.88845 0.0
H190 H 0.19075 0.07625 0.99491 0.0
H191 H 0.24987 0.13714 0.01868 0.0
H192 H 0.22443 0.13488 0.93659 0.0
H193 H 0.21662 0.09 0.95034 0.0
O194 O 0.30034 0.1658 0.86425 0.0
H195 H 0.309 0.1932 0.96738 0.0
H196 H 0.3355 0.1834 0.8784 0.0
H197 H 0.2243 0.12397 0.06385 0.0
H198 H 0.22414 0.10064 0.82748 0.0
H199 H 0.19447 0.09331 0.0521 0.0
H200 H 0.20135 0.11261 0.83344 0.0
O201 O 0.27353 0.12929 0.98553 0.0
H202 H 0.31921 0.11753 0.86275 0.0
H203 H 0.33169 0.16449 0.95794 0.0
H204 H 0.35165 0.14944 0.95389 0.0
H205 H 0.34551 0.12581 0.90595 0.0
H206 H 0.29947 0.13277 0.86802 0.0
H207 H 0.3636 0.21561 0.88503 0.0
H208 H 0.36445 0.23685 0.93378 0.0
O209 O 0.29807 0.15781 0.97002 0.0
C210 C 0.26769 0.16757 0.94262 0.0
C211 C 0.33671 0.21631 0.95385 0.0
C212 C 0.35169 0.2108 0.90325 0.0
N213 N 0.32065 0.18637 0.9226 0.0
C214 C 0.32097 0.19802 0.94936 0.0
C215 C 0.33571 0.19259 0.89957 0.0
C216 C 0.35216 0.22271 0.93062 0.0
C217 C 0.23693 0.11131 0.87898 0.0
N218 N 0.23706 0.12091 0.90907 0.0
C219 C 0.22412 0.10818 0.85133 0.0
C220 C 0.21135 0.11493 0.85466 0.0
C221 C 0.21153 0.12466 0.88549 0.0
C222 C 0.22455 0.12753 0.91259 0.0
C223 C 0.20366 0.08964 0.00032 0.0
C224 C 0.23689 0.12385 0.01326 0.0
C225 C 0.21838 0.09748 0.97521 0.0
N226 N 0.23469 0.11443 0.98178 0.0
C227 C 0.22248 0.11644 0.03899 0.0
C228 C 0.20576 0.09922 0.03239 0.0
C229 C 0.28934 0.14429 0.9924 0.0
C230 C 0.32209 0.12788 0.88365 0.0
C231 C 0.32889 0.15421 0.93702 0.0
C232 C 0.34027 0.14575 0.93484 0.0
C233 C 0.33682 0.1325 0.90793 0.0
N234 N 0.31453 0.14968 0.91298 0.0
C235 C 0.31101 0.13663 0.88665 0.0
Co236 Co 0.86896 0.12469 0.9442 0.0
Co237 Co 0.83379 0.13422 0.92006 0.0
O238 O 0.85891 0.13669 0.91207 0.0
C239 C 0.90152 0.16444 0.94372 0.0
O240 O 0.88923 0.17035 0.94868 0.0
C241 C 0.83171 0.12506 0.84224 0.0
O242 O 0.83746 0.11277 0.84874 0.0
O243 O 0.82139 0.10574 0.9198 0.0
O244 O 0.84281 0.10226 0.95209 0.0
H245 H 0.76945 0.10728 0.97831 0.0
H246 H 0.88625 0.13741 0.87282 0.0
O247 O 0.89557 0.14676 0.93828 0.0
H248 H 0.86206 0.06798 0.87549 0.0
H249 H 0.91633 0.10526 0.98374 0.0
H250 H 0.85689 0.10502 0.01409 0.0
H251 H 0.85855 0.08442 0.92793 0.0
H252 H 0.90305 0.11962 0.94299 0.0
O253 O 0.82984 0.13447 0.86757 0.0
H254 H 0.80125 0.11095 0.9684 0.0
H255 H 0.81274 0.15201 0.88732 0.0
H256 H 0.86955 0.09033 0.05545 0.0
H257 H 0.89022 0.12158 0.81983 0.0
H258 H 0.8995 0.09041 0.04037 0.0
H259 H 0.87803 0.08661 0.82097 0.0
O260 O 0.86546 0.13785 0.98574 0.0
H261 H 0.8784 0.20038 0.87433 0.0
H262 H 0.8318 0.16278 0.96796 0.0
H263 H 0.84794 0.19796 0.96977 0.0
H264 H 0.8714 0.21701 0.92267 0.0
H265 H 0.86209 0.16515 0.87378 0.0
H266 H 0.78099 0.14866 0.89612 0.0
H267 H 0.75912 0.12621 0.94201 0.0
O268 O 0.83689 0.13446 0.97292 0.0
C269 C 0.82617 0.09572 0.93883 0.0
C270 C 0.77886 0.11712 0.95826 0.0
C271 C 0.78532 0.14033 0.91211 0.0
N272 N 0.80888 0.13172 0.92737 0.0
C273 C 0.7969 0.11928 0.95256 0.0
C274 C 0.80326 0.14212 0.90715 0.0
C275 C 0.77307 0.12774 0.93787 0.0
C276 C 0.88106 0.12222 0.87356 0.0
N277 N 0.87227 0.11187 0.90343 0.0
C278 C 0.88328 0.11332 0.84346 0.0
C279 C 0.87642 0.09369 0.8441 0.0
C280 C 0.86744 0.08323 0.87468 0.0
C281 C 0.86545 0.09261 0.90425 0.0
C282 C 0.90325 0.10511 0.99058 0.0
C283 C 0.86985 0.10499 0.00723 0.0
C284 C 0.89569 0.11325 0.96765 0.0
N285 N 0.87913 0.11304 0.97604 0.0
C286 C 0.87699 0.0967 0.0308 0.0
C287 C 0.8938 0.09677 0.02234 0.0
C288 C 0.85068 0.1387 0.99434 0.0
C289 C 0.86818 0.19223 0.89497 0.0
C290 C 0.84206 0.17095 0.94747 0.0
C291 C 0.85111 0.19088 0.94857 0.0
C292 C 0.86426 0.20156 0.92212 0.0
N293 N 0.84598 0.1619 0.92075 0.0
C294 C 0.85885 0.17228 0.89472 0.0
Co295 Co 0.86523 0.70051 0.91975 0.0
Co296 Co 0.8733 0.74552 0.9396 0.0
O297 O 0.86108 0.72212 0.91094 0.0
C298 C 0.87278 0.70629 0.84148 0.0
O299 O 0.88496 0.7245 0.84687 0.0
C300 C 0.83278 0.73561 0.94713 0.0
O301 O 0.82835 0.71798 0.9546 0.0
O302 O 0.86379 0.7305 0.98455 0.0
O303 O 0.86608 0.70458 0.97204 0.0
H304 H 0.91287 0.78682 0.04141 0.0
H305 H 0.83263 0.69516 0.87512 0.0
O306 O 0.86404 0.69534 0.86757 0.0
H307 H 0.80377 0.65027 0.97552 0.0
H308 H 0.85358 0.6339 0.8991 0.0
H309 H 0.89047 0.6936 0.96739 0.0
H310 H 0.83874 0.67065 0.97089 0.0
H311 H 0.84845 0.66118 0.88941 0.0
O312 O 0.84973 0.74778 0.93767 0.0
H313 H 0.89749 0.75764 0.00451 0.0
H314 H 0.87492 0.78321 0.9357 0.0
H315 H 0.89595 0.66663 0.97812 0.0
H316 H 0.7976 0.67489 0.87854 0.0
H317 H 0.87743 0.6365 0.94382 0.0
H318 H 0.78295 0.65228 0.92908 0.0
O319 O 0.89362 0.71747 0.91767 0.0
H320 H 0.86657 0.76301 0.81413 0.0
H321 H 0.91114 0.77689 0.9143 0.0
H322 H 0.92305 0.79484 0.85808 0.0
H323 H 0.90068 0.78796 0.80751 0.0
H324 H 0.85532 0.74529 0.87081 0.0
H325 H 0.88988 0.8126 0.97208 0.0
H326 H 0.90908 0.81456 0.02529 0.0
O327 O 0.8972 0.7442 0.94306 0.0
C328 C 0.86355 0.7152 0.99378 0.0
C329 C 0.90456 0.78615 0.01826 0.0
C330 C 0.89164 0.80061 0.97938 0.0
N331 N 0.88538 0.76874 0.96791 0.0
C332 C 0.89585 0.76968 0.99722 0.0
C333 C 0.88315 0.78391 0.95894 0.0
C334 C 0.90242 0.8017 0.00922 0.0
C335 C 0.82637 0.68524 0.89702 0.0
N336 N 0.83773 0.68403 0.92266 0.0
C337 C 0.80652 0.67385 0.89889 0.0
C338 C 0.79831 0.66118 0.92728 0.0
C339 C 0.80999 0.66005 0.95335 0.0
C340 C 0.82978 0.67167 0.95063 0.0
C341 C 0.86173 0.64695 0.91423 0.0
C342 C 0.88229 0.68052 0.95246 0.0
C343 C 0.85893 0.66247 0.90878 0.0
N344 N 0.8691 0.67896 0.9279 0.0
C345 C 0.88549 0.6653 0.9586 0.0
C346 C 0.87511 0.64841 0.93933 0.0
C347 C 0.90393 0.73378 0.9323 0.0
C348 C 0.87645 0.76616 0.83599 0.0
C349 C 0.90135 0.77375 0.89237 0.0
C350 C 0.90816 0.784 0.86063 0.0
C351 C 0.89559 0.78014 0.83228 0.0
N352 N 0.88255 0.76009 0.89582 0.0
C353 C 0.87015 0.75622 0.86815 0.0
Co354 Co 0.83566 0.63421 0.41352 0.0
Co355 Co 0.79955 0.59187 0.38143 0.0
O356 O 0.80978 0.61213 0.41765 0.0
C357 C 0.8342 0.62322 0.49039 0.0
O358 O 0.82499 0.60496 0.48226 0.0
C359 C 0.76756 0.60018 0.38338 0.0
O360 O 0.77991 0.61831 0.37769 0.0
O361 O 0.80483 0.61095 0.34321 0.0
O362 O 0.8337 0.6341 0.36058 0.0
H363 H 0.7995 0.56204 0.26375 0.0
H364 H 0.80715 0.63608 0.46025 0.0
O365 O 0.83882 0.63583 0.46632 0.0
H366 H 0.82635 0.68864 0.37403 0.0
H367 H 0.89041 0.69882 0.44808 0.0
H368 H 0.86878 0.6439 0.36655 0.0
H369 H 0.84082 0.6681 0.37197 0.0
H370 H 0.85772 0.6713 0.45242 0.0
O371 O 0.77333 0.58825 0.3878 0.0
H372 H 0.8124 0.58712 0.30999 0.0
H373 H 0.76418 0.55372 0.3757 0.0
H374 H 0.90153 0.67121 0.36107 0.0
H375 H 0.79244 0.65642 0.46355 0.0
H376 H 0.91255 0.69893 0.40204 0.0
H377 H 0.802 0.68289 0.42014 0.0
O378 O 0.84653 0.61686 0.41072 0.0
H379 H 0.7745 0.56109 0.50058 0.0
H380 H 0.8077 0.55993 0.39109 0.0
H381 H 0.80188 0.53677 0.43906 0.0
H382 H 0.78512 0.53722 0.49425 0.0
H383 H 0.78081 0.58414 0.45207 0.0
H384 H 0.75067 0.52836 0.33004 0.0
H385 H 0.76841 0.5324 0.27363 0.0
O386 O 0.82533 0.59463 0.37349 0.0
C387 C 0.8204 0.62646 0.33754 0.0
C388 C 0.79167 0.56008 0.28827 0.0
C389 C 0.76425 0.54119 0.32545 0.0
N390 N 0.78915 0.57183 0.34565 0.0
C391 C 0.79893 0.57421 0.3146 0.0
C392 C 0.77196 0.55562 0.35118 0.0
C393 C 0.77421 0.54347 0.29381 0.0
C394 C 0.81147 0.64766 0.44143 0.0
N395 N 0.82485 0.6509 0.41598 0.0
C396 C 0.80306 0.65909 0.44336 0.0
C397 C 0.80841 0.67393 0.41898 0.0
C398 C 0.82206 0.67715 0.39309 0.0
C399 C 0.83016 0.66542 0.39196 0.0
C400 C 0.88578 0.68683 0.43007 0.0
C401 C 0.87344 0.65592 0.38442 0.0
C402 C 0.8673 0.67116 0.43248 0.0
N403 N 0.86132 0.656 0.40972 0.0
C404 C 0.89201 0.67134 0.38121 0.0
C405 C 0.89819 0.68688 0.40422 0.0
C406 C 0.84158 0.60306 0.38886 0.0
C407 C 0.78178 0.56072 0.47662 0.0
C408 C 0.80049 0.56029 0.41511 0.0
C409 C 0.79718 0.5471 0.44213 0.0
C410 C 0.78776 0.54735 0.47308 0.0
N411 N 0.79455 0.57334 0.41878 0.0
C412 C 0.78532 0.57368 0.44903 0.0
Co413 Co 0.41033 0.20521 0.38363 0.0
Co414 Co 0.36692 0.19766 0.41337 0.0
O415 O 0.38958 0.19482 0.4189 0.0
C416 C 0.40259 0.16519 0.38699 0.0
O417 O 0.3844 0.15925 0.38195 0.0
C418 C 0.37651 0.2038 0.49203 0.0
O419 O 0.39386 0.20703 0.48623 0.0
O420 O 0.38346 0.22596 0.40915 0.0
O421 O 0.40692 0.22774 0.37449 0.0
H422 H 0.32827 0.22335 0.35569 0.0
H423 H 0.41857 0.19452 0.45423 0.0
O424 O 0.41446 0.18296 0.39082 0.0
H425 H 0.46366 0.26366 0.44245 0.0
H426 H 0.47479 0.22123 0.33548 0.0
H427 H 0.41554 0.22268 0.31194 0.0
H428 H 0.4409 0.24585 0.39421 0.0
H429 H 0.44892 0.20896 0.38007 0.0
O430 O 0.36497 0.2003 0.46625 0.0
H431 H 0.35624 0.21915 0.36329 0.0
H432 H 0.32983 0.18263 0.45206 0.0
H433 H 0.44111 0.23525 0.26674 0.0
H434 H 0.44133 0.21173 0.5029 0.0
H435 H 0.47099 0.23455 0.27838 0.0
H436 H 0.46403 0.24658 0.49723 0.0
O437 O 0.39197 0.19104 0.34491 0.0
H438 H 0.34635 0.13323 0.46715 0.0
H439 H 0.33373 0.16773 0.37233 0.0
H440 H 0.31387 0.13266 0.37614 0.0
H441 H 0.32007 0.11517 0.4239 0.0
H442 H 0.366 0.16825 0.46213 0.0
H443 H 0.30166 0.18659 0.4456 0.0
H444 H 0.30072 0.20701 0.39704 0.0
O445 O 0.3673 0.19481 0.36036 0.0
C446 C 0.39759 0.23503 0.38816 0.0
C447 C 0.32849 0.21438 0.3769 0.0
C448 C 0.31357 0.19377 0.42739 0.0
N449 N 0.34464 0.20058 0.40795 0.0
C450 C 0.34427 0.21191 0.3813 0.0
C451 C 0.32958 0.19163 0.43097 0.0
C452 C 0.31305 0.20522 0.40013 0.0
C453 C 0.42852 0.20965 0.45145 0.0
N454 N 0.42835 0.21917 0.42149 0.0
C455 C 0.44132 0.21933 0.47915 0.0
C456 C 0.45403 0.23889 0.47598 0.0
C457 C 0.45381 0.24849 0.44527 0.0
C458 C 0.4408 0.23834 0.41813 0.0
C459 C 0.46185 0.22164 0.33012 0.0
C460 C 0.42854 0.22244 0.31731 0.0
C461 C 0.44713 0.21468 0.35524 0.0
N462 N 0.43078 0.21522 0.34873 0.0
C463 C 0.44295 0.22953 0.29156 0.0
C464 C 0.45971 0.22912 0.2981 0.0
C465 C 0.37608 0.19004 0.33805 0.0
C466 C 0.34344 0.14069 0.44633 0.0
C467 C 0.33656 0.16024 0.39317 0.0
C468 C 0.32523 0.14037 0.39522 0.0
C469 C 0.32872 0.13057 0.42202 0.0
N470 N 0.35091 0.1701 0.41724 0.0
C471 C 0.35447 0.16056 0.44347 0.0
Co472 Co 0.79154 0.20004 0.38466 0.0
Co473 Co 0.80074 0.16482 0.41101 0.0
O474 O 0.80284 0.18988 0.41831 0.0
C475 C 0.8312 0.23274 0.38718 0.0
O476 O 0.83726 0.22052 0.38291 0.0
C477 C 0.79023 0.1634 0.48795 0.0
O478 O 0.77994 0.17136 0.48039 0.0
O479 O 0.77234 0.15224 0.40817 0.0
O480 O 0.76933 0.1739 0.3756 0.0
H481 H 0.77598 0.10097 0.35152 0.0
H482 H 0.80281 0.2175 0.45629 0.0
O483 O 0.81344 0.22668 0.39163 0.0
H484 H 0.73349 0.19292 0.44835 0.0
H485 H 0.77309 0.24761 0.3415 0.0
H486 H 0.77321 0.18802 0.31355 0.0
H487 H 0.75096 0.18939 0.39772 0.0
H488 H 0.78651 0.23419 0.38409 0.0
O489 O 0.79921 0.16025 0.46352 0.0
H490 H 0.77918 0.13266 0.36084 0.0
H491 H 0.81764 0.14363 0.44663 0.0
H492 H 0.75949 0.20084 0.27035 0.0
H493 H 0.78595 0.22153 0.50748 0.0
H494 H 0.75939 0.23086 0.2842 0.0
H495 H 0.75103 0.20914 0.5037 0.0
O496 O 0.8055 0.19665 0.34442 0.0
H497 H 0.86516 0.20936 0.46377 0.0
H498 H 0.83087 0.16345 0.36698 0.0
H499 H 0.86601 0.17976 0.36927 0.0
H500 H 0.8834 0.20288 0.41799 0.0
H501 H 0.83 0.19286 0.46023 0.0
H502 H 0.81471 0.11199 0.43844 0.0
H503 H 0.79382 0.09044 0.3905 0.0
O504 O 0.80267 0.16839 0.35822 0.0
C505 C 0.76268 0.15716 0.38846 0.0
C506 C 0.78515 0.11024 0.37246 0.0
C507 C 0.80687 0.11642 0.42128 0.0
N508 N 0.79863 0.14002 0.40418 0.0
C509 C 0.78705 0.12822 0.37784 0.0
C510 C 0.80842 0.1343 0.42586 0.0
C511 C 0.79515 0.10434 0.39436 0.0
C512 C 0.78765 0.21223 0.45439 0.0
N513 N 0.7779 0.20329 0.42407 0.0
C514 C 0.77816 0.21448 0.48348 0.0
C515 C 0.75856 0.2075 0.48135 0.0
C516 C 0.74871 0.19839 0.45032 0.0
C517 C 0.75867 0.19637 0.42178 0.0
C518 C 0.77302 0.2345 0.33518 0.0
C519 C 0.77312 0.20103 0.31988 0.0
C520 C 0.78064 0.22686 0.35915 0.0
N521 N 0.78056 0.21028 0.3514 0.0
C522 C 0.76537 0.20825 0.29526 0.0
C523 C 0.76533 0.2251 0.30304 0.0
C524 C 0.80693 0.1821 0.33658 0.0
C525 C 0.85774 0.19929 0.44246 0.0
C526 C 0.83832 0.17355 0.38817 0.0
C527 C 0.85823 0.18271 0.38939 0.0
C528 C 0.86797 0.19566 0.41674 0.0
N529 N 0.82838 0.17716 0.41352 0.0
C530 C 0.83784 0.18986 0.44039 0.0
Co531 Co 0.92357 0.46124 0.2799 0.0
Co532 Co 0.96787 0.49671 0.25391 0.0
O533 O 0.94506 0.47161 0.24639 0.0
C534 C 0.93061 0.42854 0.27703 0.0
O535 O 0.94876 0.44062 0.28306 0.0
C536 C 0.95886 0.49848 0.17715 0.0
O537 O 0.94066 0.49091 0.18494 0.0
O538 O 0.95183 0.50907 0.25664 0.0
O539 O 0.92733 0.4873 0.28936 0.0
H540 H 0.00641 0.56056 0.31374 0.0
H541 H 0.91768 0.44425 0.20786 0.0
O542 O 0.91902 0.43471 0.27227 0.0
H543 H 0.87249 0.46826 0.21656 0.0
H544 H 0.85764 0.41313 0.32248 0.0
H545 H 0.91699 0.47292 0.35112 0.0
H546 H 0.89343 0.47164 0.2672 0.0
H547 H 0.88457 0.42685 0.28011 0.0
O548 O 0.97097 0.50131 0.20143 0.0
H549 H 0.97811 0.52877 0.30417 0.0
H550 H 0.00601 0.51819 0.21862 0.0
H551 H 0.89035 0.45979 0.39411 0.0
H552 H 0.89686 0.44039 0.15665 0.0
H553 H 0.86041 0.42968 0.3799 0.0
H554 H 0.8741 0.4525 0.16082 0.0
O555 O 0.94091 0.46459 0.32015 0.0
H556 H 0.98828 0.45252 0.20146 0.0
H557 H 0.99944 0.49836 0.29813 0.0
H558 H 0.01848 0.48226 0.29603 0.0
H559 H 0.01299 0.45919 0.24738 0.0
H560 H 0.96941 0.46881 0.20479 0.0
H561 H 0.03455 0.54993 0.22705 0.0
H562 H 0.0349 0.57133 0.275 0.0
O563 O 0.96611 0.49307 0.30669 0.0
C564 C 0.93726 0.50405 0.27643 0.0
C565 C 0.00645 0.55135 0.29279 0.0
C566 C 0.02223 0.5454 0.2441 0.0
N567 N 0.99041 0.5216 0.26093 0.0
C568 C 0.99047 0.53332 0.28727 0.0
C569 C 0.006 0.52746 0.23938 0.0
C570 C 0.02242 0.55739 0.27103 0.0
C571 C 0.90769 0.44939 0.20994 0.0
N572 N 0.90672 0.45809 0.24048 0.0
C573 C 0.89599 0.44724 0.18083 0.0
C574 C 0.88325 0.45406 0.18317 0.0
C575 C 0.88235 0.46292 0.21443 0.0
C576 C 0.89428 0.46484 0.24298 0.0
C577 C 0.8706 0.42628 0.32895 0.0
C578 C 0.90397 0.45987 0.34464 0.0
C579 C 0.88591 0.43409 0.3051 0.0
N580 N 0.9023 0.45073 0.31303 0.0
C581 C 0.88895 0.45248 0.36913 0.0
C582 C 0.87216 0.43557 0.36116 0.0
C583 C 0.95679 0.47925 0.32817 0.0
C584 C 0.99083 0.46258 0.22275 0.0
C585 C 0.99689 0.48828 0.27697 0.0
C586 C 0.00776 0.47924 0.27586 0.0
C587 C 0.00468 0.46631 0.24854 0.0
N588 N 0.98335 0.48457 0.25154 0.0
C589 C 0.98024 0.47189 0.2247 0.0
Co590 Co 0.53906 0.45919 0.28176 0.0
Co591 Co 0.50366 0.46727 0.25105 0.0
O592 O 0.52919 0.47007 0.24644 0.0
C593 C 0.57125 0.49926 0.28022 0.0
O594 O 0.55877 0.50507 0.28317 0.0
C595 C 0.50825 0.4625 0.17208 0.0
O596 O 0.52305 0.46032 0.17772 0.0
O597 O 0.49174 0.43892 0.25444 0.0
O598 O 0.51302 0.43653 0.28922 0.0
H599 H 0.4387 0.44127 0.30623 0.0
H600 H 0.559 0.47091 0.21223 0.0
O601 O 0.56555 0.48153 0.27643 0.0
H602 H 0.53475 0.40161 0.22067 0.0
H603 H 0.58655 0.44205 0.33073 0.0
H604 H 0.52596 0.44107 0.35273 0.0
H605 H 0.52915 0.41871 0.26941 0.0
H606 H 0.57364 0.455 0.28611 0.0
O607 O 0.49959 0.46503 0.198 0.0
H608 H 0.47089 0.4454 0.29971 0.0
H609 H 0.48214 0.48278 0.21192 0.0
H610 H 0.53826 0.4278 0.39793 0.0
H611 H 0.56519 0.45442 0.16307 0.0
H612 H 0.56878 0.42825 0.38707 0.0
H613 H 0.55294 0.4195 0.16706 0.0
O614 O 0.53434 0.47284 0.32078 0.0
H615 H 0.54832 0.53221 0.19991 0.0
H616 H 0.5 0.49685 0.29243 0.0
H617 H 0.5153 0.53195 0.28976 0.0
H618 H 0.5396 0.54988 0.24316 0.0
H619 H 0.53285 0.49715 0.2038 0.0
H620 H 0.45001 0.47891 0.2173 0.0
H621 H 0.42807 0.4581 0.26482 0.0
O622 O 0.50629 0.46963 0.30414 0.0
C623 C 0.49652 0.42949 0.27513 0.0
C624 C 0.44815 0.45041 0.28546 0.0
C625 C 0.45449 0.47152 0.23553 0.0
N626 N 0.47844 0.4644 0.25561 0.0
C627 C 0.46641 0.45284 0.28169 0.0
C628 C 0.47265 0.47361 0.23256 0.0
C629 C 0.44219 0.45985 0.26221 0.0
C630 C 0.55377 0.45575 0.21427 0.0
N631 N 0.54367 0.44579 0.24358 0.0
C632 C 0.55725 0.44647 0.1863 0.0
C633 C 0.55035 0.42687 0.18853 0.0
C634 C 0.54011 0.41682 0.21857 0.0
C635 C 0.5369 0.42657 0.24601 0.0
C636 C 0.57322 0.44173 0.33575 0.0
C637 C 0.53917 0.4412 0.34769 0.0
C638 C 0.56585 0.44908 0.3106 0.0
N639 N 0.54898 0.44866 0.31668 0.0
C640 C 0.5461 0.43371 0.37344 0.0
C641 C 0.56324 0.43399 0.36734 0.0
C642 C 0.51945 0.47393 0.32709 0.0
C643 C 0.53767 0.52455 0.22021 0.0
C644 C 0.51057 0.50452 0.27207 0.0
C645 C 0.51917 0.52441 0.27068 0.0
C646 C 0.5328 0.53446 0.24452 0.0
N647 N 0.51533 0.49488 0.24799 0.0
C648 C 0.52876 0.50466 0.22241 0.0
Co649 Co 0.53089 0.03025 0.25294 0.0
Co650 Co 0.54012 0.07488 0.27738 0.0
O651 O 0.52836 0.05289 0.245 0.0
C652 C 0.54026 0.03777 0.17534 0.0
O653 O 0.55196 0.05594 0.18211 0.0
C654 C 0.50037 0.06756 0.27662 0.0
O655 O 0.4945 0.04936 0.28162 0.0
O656 O 0.52687 0.05808 0.31868 0.0
O657 O 0.5303 0.03291 0.30578 0.0
H658 H 0.57383 0.10964 0.38931 0.0
H659 H 0.50023 0.02768 0.206 0.0
O660 O 0.53104 0.02626 0.20046 0.0
H661 H 0.46698 0.98028 0.30108 0.0
H662 H 0.51686 0.96311 0.22856 0.0
H663 H 0.55398 0.02095 0.30169 0.0
H664 H 0.50213 0.99944 0.30009 0.0
H665 H 0.5134 0.99147 0.2198 0.0
O666 O 0.51802 0.07932 0.27117 0.0
H667 H 0.55943 0.08236 0.34765 0.0
H668 H 0.54504 0.11401 0.27633 0.0
H669 H 0.55774 0.99284 0.31157 0.0
H670 H 0.46504 0.00865 0.20572 0.0
H671 H 0.53911 0.96365 0.27483 0.0
H672 H 0.44818 0.9848 0.25359 0.0
O673 O 0.55933 0.04642 0.25332 0.0
H674 H 0.54357 0.09961 0.15322 0.0
H675 H 0.58038 0.10491 0.26173 0.0
H676 H 0.59693 0.12506 0.20961 0.0
H677 H 0.57848 0.12251 0.15488 0.0
H678 H 0.52762 0.07961 0.2059 0.0
H679 H 0.5591 0.14158 0.31738 0.0
H680 H 0.57371 0.13952 0.37427 0.0
O681 O 0.56259 0.07128 0.28557 0.0
C682 C 0.52595 0.04239 0.32716 0.0
C683 C 0.56757 0.11074 0.36454 0.0
C684 C 0.55928 0.12865 0.3242 0.0
N685 N 0.55154 0.09664 0.30946 0.0
C686 C 0.55945 0.09536 0.3408 0.0
C687 C 0.5513 0.11299 0.30109 0.0
C688 C 0.56748 0.12749 0.35611 0.0
C689 C 0.493 0.01721 0.22674 0.0
N690 N 0.50324 0.01466 0.25297 0.0
C691 C 0.47307 0.00653 0.22652 0.0
C692 C 0.46362 0.99316 0.25341 0.0
C693 C 0.47416 0.99063 0.28007 0.0
C694 C 0.49407 0.00157 0.27944 0.0
C695 C 0.52506 0.97575 0.24473 0.0
C696 C 0.54577 0.00829 0.28566 0.0
C697 C 0.52322 0.99188 0.2398 0.0
N698 N 0.53345 0.00786 0.26025 0.0
C699 C 0.54799 0.99242 0.29135 0.0
C700 C 0.53754 0.97605 0.27071 0.0
C701 C 0.56922 0.06121 0.27247 0.0
C702 C 0.55175 0.10089 0.17694 0.0
C703 C 0.57227 0.10367 0.23796 0.0
C704 C 0.58171 0.11515 0.20857 0.0
C705 C 0.57135 0.11372 0.17788 0.0
N706 N 0.55304 0.09116 0.23685 0.0
C707 C 0.54279 0.08966 0.20686 0.0
Co708 Co 0.49983 0.96721 0.74304 0.0
Co709 Co 0.46471 0.92241 0.71824 0.0
O710 O 0.47489 0.94428 0.75094 0.0
C711 C 0.50175 0.95893 0.82009 0.0
O712 O 0.49455 0.94071 0.81268 0.0
C713 C 0.43207 0.92947 0.72019 0.0
O714 O 0.44422 0.9476 0.71404 0.0
O715 O 0.46801 0.93925 0.67714 0.0
O716 O 0.49622 0.96491 0.69029 0.0
H717 H 0.46373 0.88794 0.60594 0.0
H718 H 0.47178 0.96889 0.79147 0.0
O719 O 0.50437 0.97082 0.79549 0.0
H720 H 0.48462 0.01689 0.69825 0.0
H721 H 0.55248 0.03444 0.76836 0.0
H722 H 0.53195 0.97734 0.69314 0.0
H723 H 0.50105 0.99815 0.69741 0.0
H724 H 0.52092 0.00573 0.77722 0.0
O725 O 0.43814 0.91781 0.72516 0.0
H726 H 0.47664 0.91509 0.64791 0.0
H727 H 0.43046 0.88331 0.71891 0.0
H728 H 0.56355 0.0058 0.68315 0.0
H729 H 0.45517 0.98748 0.79355 0.0
H730 H 0.57401 0.03462 0.72093 0.0
H731 H 0.46152 0.01164 0.74663 0.0
O732 O 0.51246 0.95143 0.74127 0.0
H733 H 0.4438 0.89705 0.84221 0.0
H734 H 0.47531 0.89257 0.73298 0.0
H735 H 0.47201 0.87226 0.78466 0.0
H736 H 0.45611 0.8744 0.83975 0.0
H737 H 0.44759 0.91723 0.78999 0.0
H738 H 0.41696 0.85587 0.67756 0.0
H739 H 0.43367 0.85807 0.62066 0.0
O740 O 0.49086 0.92624 0.70957 0.0
C741 C 0.48252 0.95518 0.66882 0.0
C742 C 0.45635 0.88679 0.63069 0.0
C743 C 0.43009 0.8688 0.67087 0.0
N744 N 0.45439 0.90074 0.68594 0.0
C745 C 0.46362 0.9021 0.65461 0.0
C746 C 0.43778 0.8844 0.69414 0.0
C747 C 0.43947 0.87004 0.63896 0.0
C748 C 0.47473 0.97949 0.77113 0.0
N749 N 0.48742 0.98246 0.74443 0.0
C750 C 0.46524 0.98993 0.77238 0.0
C751 C 0.46878 0.00346 0.74602 0.0
C752 C 0.48173 0.00641 0.71885 0.0
C753 C 0.49096 0.9957 0.71846 0.0
C754 C 0.54808 0.02197 0.75172 0.0
C755 C 0.53636 0.98984 0.70961 0.0
C756 C 0.53025 0.00565 0.75669 0.0
N757 N 0.52456 0.98988 0.73566 0.0
C758 C 0.55429 0.00591 0.70386 0.0
C759 C 0.56015 0.02207 0.72509 0.0
C760 C 0.50756 0.93654 0.72243 0.0
C761 C 0.45071 0.89595 0.81833 0.0
C762 C 0.46846 0.89364 0.75691 0.0
C763 C 0.46658 0.88207 0.78605 0.0
C764 C 0.45764 0.88326 0.81695 0.0
N765 N 0.46159 0.90602 0.75847 0.0
C766 C 0.45283 0.90728 0.78865 0.0
Co767 Co 0.07538 0.53846 0.72143 0.0
Co768 Co 0.03041 0.5287 0.74422 0.0
O769 O 0.05309 0.52641 0.75293 0.0
C770 C 0.06814 0.49868 0.72211 0.0
O771 O 0.05013 0.49286 0.71521 0.0
C772 C 0.03731 0.53791 0.82191 0.0
O773 O 0.05545 0.54984 0.81544 0.0
O774 O 0.04633 0.55716 0.74427 0.0
O775 O 0.07174 0.56094 0.7132 0.0
H776 H 0.99307 0.55521 0.68417 0.0
H777 H 0.0794 0.52563 0.79312 0.0
O778 O 0.07979 0.51633 0.72796 0.0
H779 H 0.12468 0.59504 0.7911 0.0
H780 H 0.14233 0.5575 0.68369 0.0
H781 H 0.08371 0.5586 0.65191 0.0
H782 H 0.10512 0.57869 0.73823 0.0
H783 H 0.11437 0.54315 0.72365 0.0
O784 O 0.02598 0.52863 0.79658 0.0
H785 H 0.02124 0.55171 0.695 0.0
H786 H 0.99141 0.51085 0.77624 0.0
H787 H 0.11141 0.57327 0.61131 0.0
H788 H 0.09882 0.54137 0.84654 0.0
H789 H 0.14098 0.57276 0.62711 0.0
H790 H 0.12162 0.57634 0.84573 0.0
O791 O 0.0591 0.52542 0.6794 0.0
H792 H 0.009 0.46273 0.79083 0.0
H793 H 1.00021 0.49994 0.69609 0.0
H794 H 0.98134 0.46474 0.69454 0.0
H795 H 0.98564 0.44589 0.74221 0.0
H796 H 0.02775 0.49797 0.79114 0.0
H797 H 0.96297 0.51404 0.76651 0.0
H798 H 0.96367 0.5363 0.72009 0.0
O799 O 0.03357 0.52834 0.6915 0.0
C800 C 0.06141 0.5673 0.72607 0.0
C801 C 0.99258 0.54545 0.70445 0.0
C802 C 0.9757 0.52236 0.75069 0.0
N803 N 0.00796 0.53105 0.73616 0.0
C804 C 0.00848 0.54338 0.71067 0.0
C805 C 0.99187 0.52066 0.75616 0.0
C806 C 0.97609 0.53484 0.72462 0.0
C807 C 0.08942 0.54082 0.79252 0.0
N808 N 0.0912 0.55121 0.76259 0.0
C809 C 0.10032 0.54967 0.82286 0.0
C810 C 0.11309 0.56929 0.82241 0.0
C811 C 0.11481 0.5798 0.79177 0.0
C812 C 0.10366 0.57047 0.76195 0.0
C813 C 0.12954 0.55784 0.67653 0.0
C814 C 0.09657 0.55842 0.65908 0.0
C815 C 0.11365 0.5497 0.69902 0.0
N816 N 0.09747 0.55014 0.69023 0.0
C817 C 0.11219 0.56671 0.63594 0.0
C818 C 0.12877 0.56641 0.6448 0.0
C819 C 0.04342 0.52435 0.67038 0.0
C820 C 0.00697 0.47079 0.76996 0.0
C821 C 0.00224 0.49185 0.71684 0.0
C822 C 0.99147 0.47192 0.71588 0.0
C823 C 0.99388 0.46135 0.74264 0.0
N824 N 0.01505 0.50101 0.74374 0.0
C825 C 0.01749 0.49074 0.77006 0.0
Co826 Co 0.46029 0.53753 0.71703 0.0
Co827 Co 0.46848 0.50216 0.74763 0.0
O828 O 0.47119 0.52768 0.75232 0.0
C829 C 0.50027 0.56982 0.71823 0.0
O830 O 0.50612 0.55738 0.71508 0.0
C831 C 0.46345 0.50659 0.82654 0.0
O832 O 0.46105 0.52126 0.82084 0.0
O833 O 0.44015 0.49013 0.744 0.0
O834 O 0.43771 0.51147 0.70948 0.0
H835 H 0.44283 0.43723 0.69215 0.0
H836 H 0.47199 0.5575 0.78659 0.0
O837 O 0.48256 0.56407 0.72242 0.0
H838 H 0.40272 0.53306 0.77816 0.0
H839 H 0.44301 0.58499 0.66828 0.0
H840 H 0.44224 0.52447 0.64596 0.0
H841 H 0.41982 0.52751 0.7294 0.0
H842 H 0.45598 0.57207 0.71285 0.0
O843 O 0.46618 0.49804 0.80065 0.0
H844 H 0.44681 0.46939 0.69875 0.0
H845 H 0.48405 0.4807 0.78683 0.0
H846 H 0.42895 0.53676 0.6008 0.0
H847 H 0.4555 0.56365 0.83577 0.0
H848 H 0.42929 0.56725 0.61183 0.0
H849 H 0.42059 0.55131 0.83178 0.0
O850 O 0.47393 0.53285 0.67797 0.0
H851 H 0.53321 0.54697 0.79937 0.0
H852 H 0.4982 0.49869 0.70644 0.0
H853 H 0.53327 0.51413 0.7094 0.0
H854 H 0.55103 0.53841 0.75621 0.0
H855 H 0.49818 0.53137 0.79518 0.0
H856 H 0.48031 0.44859 0.78136 0.0
H857 H 0.45965 0.42663 0.73365 0.0
O858 O 0.47093 0.50485 0.69457 0.0
C859 C 0.43072 0.49491 0.72334 0.0
C860 C 0.45191 0.44668 0.71299 0.0
C861 C 0.47293 0.45305 0.76309 0.0
N862 N 0.46573 0.47697 0.743 0.0
C863 C 0.45425 0.46493 0.71682 0.0
C864 C 0.47494 0.4712 0.7661 0.0
C865 C 0.46134 0.44074 0.7363 0.0
C866 C 0.45683 0.55223 0.78455 0.0
N867 N 0.44689 0.5421 0.75524 0.0
C868 C 0.44755 0.55569 0.81253 0.0
C869 C 0.42796 0.54874 0.8103 0.0
C870 C 0.41792 0.53847 0.78025 0.0
C871 C 0.42767 0.53527 0.75281 0.0
C872 C 0.44273 0.57167 0.6632 0.0
C873 C 0.44231 0.53766 0.65107 0.0
C874 C 0.45009 0.5643 0.68831 0.0
N875 N 0.44973 0.54744 0.68215 0.0
C876 C 0.43482 0.54459 0.62535 0.0
C877 C 0.43504 0.56171 0.63154 0.0
C878 C 0.47513 0.51801 0.67164 0.0
C879 C 0.52563 0.53633 0.77897 0.0
C880 C 0.5058 0.50926 0.72688 0.0
C881 C 0.52567 0.51793 0.72844 0.0
C882 C 0.53562 0.53155 0.75471 0.0
N883 N 0.49607 0.51393 0.75091 0.0
C884 C 0.50576 0.52735 0.77661 0.0
Co885 Co 0.5911 0.79683 0.6084 0.0
Co886 Co 0.6356 0.83295 0.58473 0.0
O887 O 0.61305 0.80783 0.57599 0.0
C888 C 0.59903 0.76476 0.60556 0.0
O889 O 0.61704 0.7771 0.61228 0.0
C890 C 0.62712 0.83547 0.50802 0.0
O891 O 0.6089 0.82792 0.5156 0.0
O892 O 0.61932 0.84506 0.58766 0.0
O893 O 0.59421 0.8226 0.61814 0.0
H894 H 0.6732 0.89611 0.64732 0.0
H895 H 0.58658 0.78054 0.536 0.0
O896 O 0.58719 0.77057 0.60042 0.0
H897 H 0.54034 0.80333 0.54259 0.0
H898 H 0.52479 0.74759 0.64721 0.0
H899 H 0.58325 0.8074 0.6796 0.0
H900 H 0.56064 0.80662 0.59428 0.0
H901 H 0.55237 0.76208 0.60632 0.0
O902 O 0.63911 0.83812 0.53243 0.0
H903 H 0.64512 0.86435 0.63621 0.0
H904 H 0.674 0.8551 0.55067 0.0
H905 H 0.55595 0.79351 0.72113 0.0
H906 H 0.56642 0.77679 0.48374 0.0
H907 H 0.52645 0.76338 0.70502 0.0
H908 H 0.54314 0.78828 0.48685 0.0
O909 O 0.60793 0.80013 0.64953 0.0
H910 H 0.65703 0.7898 0.53113 0.0
H911 H 0.6669 0.83437 0.62947 0.0
H912 H 0.68618 0.81853 0.62719 0.0
H913 H 0.68133 0.79609 0.57769 0.0
H914 H 0.6379 0.8058 0.53467 0.0
H915 H 0.70231 0.88683 0.56064 0.0
H916 H 0.70206 0.90754 0.60937 0.0
O917 O 0.63339 0.82867 0.63732 0.0
C918 C 0.60432 0.83961 0.60644 0.0
C919 C 0.6735 0.8872 0.62604 0.0
C920 C 0.68983 0.88201 0.57736 0.0
N921 N 0.65793 0.85785 0.5929 0.0
C922 C 0.65765 0.86919 0.61965 0.0
C923 C 0.67372 0.86408 0.57176 0.0
C924 C 0.68968 0.89362 0.60472 0.0
C925 C 0.57635 0.78541 0.53761 0.0
N926 N 0.57473 0.79371 0.56815 0.0
C927 C 0.56503 0.78332 0.50792 0.0
C928 C 0.55199 0.7898 0.50966 0.0
C929 C 0.55043 0.79826 0.54092 0.0
C930 C 0.562 0.80013 0.57007 0.0
C931 C 0.53754 0.76075 0.65449 0.0
C932 C 0.57041 0.79438 0.67227 0.0
C933 C 0.55322 0.76901 0.63147 0.0
N934 N 0.56934 0.78568 0.64041 0.0
C935 C 0.55502 0.78654 0.69595 0.0
C936 C 0.53848 0.76962 0.68692 0.0
C937 C 0.62373 0.81469 0.65831 0.0
C938 C 0.6593 0.79958 0.55279 0.0
C939 C 0.66463 0.82456 0.60795 0.0
C940 C 0.67564 0.81567 0.60673 0.0
C941 C 0.67292 0.80309 0.57894 0.0
N942 N 0.65131 0.82105 0.58217 0.0
C943 C 0.64856 0.80873 0.55486 0.0
Co944 Co 0.20231 0.79187 0.62035 0.0
Co945 Co 0.16712 0.79883 0.585 0.0
O946 O 0.19279 0.8018 0.58258 0.0
C947 C 0.23518 0.83172 0.6171 0.0
O948 O 0.22317 0.83812 0.61985 0.0
C949 C 0.17354 0.79439 0.50652 0.0
O950 O 0.18976 0.79497 0.513 0.0
O951 O 0.15545 0.7706 0.59058 0.0
O952 O 0.17619 0.7695 0.62874 0.0
H953 H 0.10149 0.77323 0.63689 0.0
H954 H 0.2224 0.80132 0.55092 0.0
O955 O 0.22894 0.81384 0.61405 0.0
H956 H 0.19801 0.7324 0.56794 0.0
H957 H 0.24916 0.77584 0.67647 0.0
H958 H 0.18876 0.77606 0.69273 0.0
H959 H 0.19241 0.75106 0.6135 0.0
H960 H 0.23664 0.7875 0.62867 0.0
O961 O 0.16359 0.7954 0.53187 0.0
H962 H 0.13393 0.77774 0.63313 0.0
H963 H 0.14563 0.81296 0.54175 0.0
H964 H 0.20066 0.7641 0.74109 0.0
H965 H 0.22854 0.78325 0.50483 0.0
H966 H 0.23108 0.76396 0.73313 0.0
H967 H 0.21624 0.74851 0.51316 0.0
O968 O 0.19741 0.80675 0.65663 0.0
H969 H 0.21237 0.86334 0.53233 0.0
H970 H 0.16202 0.82869 0.62188 0.0
H971 H 0.17682 0.86365 0.61699 0.0
H972 H 0.20213 0.88123 0.57184 0.0
H973 H 0.1974 0.82846 0.5384 0.0
H974 H 0.11325 0.80867 0.54434 0.0
H975 H 0.09096 0.78876 0.59226 0.0
O976 O 0.16917 0.80234 0.63801 0.0
C977 C 0.15996 0.76183 0.61338 0.0
C978 C 0.11109 0.78198 0.61593 0.0
C979 C 0.11768 0.80185 0.56396 0.0
N980 N 0.14172 0.79569 0.5874 0.0
C981 C 0.1295 0.78462 0.61371 0.0
C982 C 0.13599 0.80418 0.56258 0.0
C983 C 0.10518 0.79068 0.59087 0.0
C984 C 0.2171 0.78623 0.5548 0.0
N985 N 0.20699 0.77725 0.58477 0.0
C986 C 0.22058 0.77606 0.52858 0.0
C987 C 0.21365 0.75657 0.53325 0.0
C988 C 0.2034 0.74752 0.56395 0.0
C989 C 0.20018 0.75814 0.58958 0.0
C990 C 0.23587 0.7758 0.68024 0.0
C991 C 0.20194 0.77592 0.68896 0.0
C992 C 0.22873 0.78242 0.65329 0.0
N993 N 0.21191 0.78234 0.65779 0.0
C994 C 0.20864 0.76918 0.71649 0.0
C995 C 0.22572 0.76913 0.71202 0.0
C996 C 0.18233 0.80771 0.66138 0.0
C997 C 0.20124 0.85582 0.55191 0.0
C998 C 0.173 0.83618 0.60208 0.0
C999 C 0.18133 0.85601 0.59946 0.0
C1000 C 0.19552 0.86586 0.57413 0.0
N1001 N 0.17853 0.82638 0.57994 0.0
C1002 C 0.19258 0.83599 0.55529 0.0
Co1003 Co 0.19977 0.36691 0.58159 0.0
Co1004 Co 0.20719 0.40954 0.61558 0.0
O1005 O 0.19678 0.38959 0.57864 0.0
C1006 C 0.20337 0.37676 0.50273 0.0
O1007 O 0.20305 0.3926 0.50859 0.0
C1008 C 0.16728 0.40211 0.61331 0.0
O1009 O 0.16122 0.38373 0.61588 0.0
O1010 O 0.19294 0.39029 0.65304 0.0
O1011 O 0.19704 0.36622 0.63462 0.0
H1012 H 0.23696 0.43757 0.73428 0.0
H1013 H 0.16965 0.36691 0.53561 0.0
O1014 O 0.20249 0.36609 0.52849 0.0
H1015 H 0.1354 0.31231 0.61716 0.0
H1016 H 0.18929 0.30256 0.54326 0.0
H1017 H 0.22147 0.35541 0.62944 0.0
H1018 H 0.17039 0.33253 0.62052 0.0
H1019 H 0.18503 0.33067 0.5399 0.0
O1020 O 0.18507 0.41399 0.60996 0.0
H1021 H 0.22437 0.41301 0.68709 0.0
H1022 H 0.21138 0.44825 0.62272 0.0
H1023 H 0.22597 0.32747 0.63396 0.0
H1024 H 0.13472 0.34693 0.53104 0.0
H1025 H 0.20982 0.30079 0.59065 0.0
H1026 H 0.11731 0.31939 0.57205 0.0
O1027 O 0.22804 0.38351 0.58586 0.0
H1028 H 0.214 0.44281 0.49882 0.0
H1029 H 0.24782 0.44036 0.60633 0.0
H1030 H 0.26575 0.46399 0.5594 0.0
H1031 H 0.24881 0.46536 0.5052 0.0
H1032 H 0.19667 0.41922 0.54624 0.0
H1033 H 0.22367 0.47312 0.66935 0.0
H1034 H 0.23664 0.46788 0.72558 0.0
O1035 O 0.22962 0.40588 0.62339 0.0
C1036 C 0.19218 0.37435 0.65818 0.0
C1037 C 0.23139 0.44004 0.70987 0.0
C1038 C 0.22391 0.45998 0.67345 0.0
N1039 N 0.21724 0.42922 0.65209 0.0
C1040 C 0.22428 0.4262 0.683 0.0
C1041 C 0.21692 0.44582 0.64717 0.0
C1042 C 0.23119 0.45703 0.70498 0.0
C1043 C 0.16231 0.35481 0.55316 0.0
N1044 N 0.1722 0.35074 0.57781 0.0
C1045 C 0.14246 0.34361 0.55062 0.0
C1046 C 0.13269 0.32818 0.57369 0.0
C1047 C 0.14283 0.3242 0.59899 0.0
C1048 C 0.16267 0.33573 0.60076 0.0
C1049 C 0.19639 0.31408 0.56231 0.0
C1050 C 0.21432 0.34383 0.61059 0.0
C1051 C 0.19408 0.33007 0.56048 0.0
N1052 N 0.20291 0.34465 0.58458 0.0
C1053 C 0.21695 0.32806 0.61324 0.0
C1054 C 0.2079 0.3131 0.58891 0.0
C1055 C 0.237 0.39702 0.60817 0.0
C1056 C 0.22154 0.44236 0.52231 0.0
C1057 C 0.24038 0.44072 0.58268 0.0
C1058 C 0.25059 0.45421 0.55627 0.0
C1059 C 0.24107 0.45499 0.52589 0.0
N1060 N 0.22122 0.42836 0.57893 0.0
C1061 C 0.21179 0.42907 0.54928 0.0
C1062 C 0.19408 0.37495 0.4383 0.0
C1063 C 0.20197 0.36942 0.46603 0.0
C1064 C 0.19051 0.36598 0.40494 0.0
C1065 C 0.2041 0.3384 0.34621 0.0
H1066 H 0.15352 0.3183 0.30543 0.0
C1067 C 0.18513 0.31216 0.20082 0.0
C1068 C 0.1681 0.29485 0.19477 0.0
C1069 C 0.18963 0.32031 0.23477 0.0
C1070 C 0.16765 0.32372 0.31666 0.0
H1071 H 0.21303 0.35073 0.48013 0.0
H1072 H 0.20724 0.3355 0.42176 0.0
H1073 H 0.16131 0.33571 0.36212 0.0
H1074 H 0.14254 0.27233 0.21966 0.0
H1075 H 0.15029 0.28687 0.27934 0.0
H1076 H 0.21054 0.32666 0.30054 0.0
C1077 C 0.20366 0.34661 0.42586 0.0
C1078 C 0.17217 0.33387 0.34883 0.0
C1079 C 0.20693 0.35532 0.45929 0.0
C1080 C 0.15581 0.28562 0.22362 0.0
C1081 C 0.16016 0.294 0.25762 0.0
C1082 C 0.19968 0.32852 0.31381 0.0
C1083 C 0.19508 0.35158 0.39854 0.0
C1084 C 0.19045 0.3413 0.36392 0.0
C1085 C 0.17706 0.3115 0.2634 0.0
C1086 C 0.18141 0.32108 0.29871 0.0
H1087 H 0.18999 0.38567 0.44277 0.0
H1088 H 0.18403 0.37019 0.3842 0.0
H1089 H 0.2183 0.344 0.35722 0.0
H1090 H 0.19492 0.31959 0.17912 0.0
H1091 H 0.20268 0.33386 0.23838 0.0
C1092 C 0.62176 0.83481 0.44167 0.0
C1093 C 0.63425 0.84084 0.47101 0.0
C1094 C 0.62899 0.8393 0.40685 0.0
C1095 C 0.6723 0.87232 0.35531 0.0
H1096 H 0.65183 0.83202 0.28438 0.0
C1097 C 0.70911 0.87933 0.21856 0.0
C1098 C 0.69705 0.87152 0.18884 0.0
C1099 C 0.70143 0.87627 0.25308 0.0
C1100 C 0.65758 0.84353 0.30371 0.0
H1101 H 0.6641 0.85676 0.48672 0.0
H1102 H 0.67654 0.86446 0.42649 0.0
H1103 H 0.63775 0.82576 0.34374 0.0
H1104 H 0.66739 0.85474 0.1722 0.0
H1105 H 0.65418 0.84977 0.2317 0.0
H1106 H 0.69216 0.89008 0.31526 0.0
C1107 C 0.66121 0.85636 0.43019 0.0
C1108 C 0.64946 0.83993 0.33773 0.0
C1109 C 0.65403 0.85179 0.4648 0.0
C1110 C 0.67719 0.86086 0.19439 0.0
C1111 C 0.66956 0.85788 0.22866 0.0
C1112 C 0.68039 0.87595 0.32121 0.0
C1113 C 0.64882 0.85007 0.40077 0.0
C1114 C 0.65677 0.85425 0.36399 0.0
C1115 C 0.68154 0.86537 0.2585 0.0
C1116 C 0.67315 0.86158 0.29499 0.0
H1117 H 0.60646 0.82636 0.44556 0.0
H1118 H 0.61908 0.83437 0.38467 0.0
H1119 H 0.67814 0.88372 0.37486 0.0
H1120 H 0.72446 0.88757 0.21522 0.0
H1121 H 0.71108 0.88213 0.27554 0.0
C1122 C 0.18139 0.80342 0.44211 0.0
C1123 C 0.16774 0.79536 0.46947 0.0
C1124 C 0.17611 0.80652 0.40826 0.0
C1125 C 0.13575 0.79108 0.34714 0.0
H1126 H 0.16435 0.84213 0.30727 0.0
C1127 C 0.12967 0.80982 0.20058 0.0
C1128 C 0.12752 0.82584 0.19474 0.0
C1129 C 0.13339 0.80558 0.23471 0.0
C1130 C 0.15619 0.82785 0.3182 0.0
H1131 H 0.13778 0.78354 0.48243 0.0
H1132 H 0.12852 0.78841 0.42307 0.0
H1133 H 0.17381 0.83514 0.36491 0.0
H1134 H 0.12745 0.8499 0.22013 0.0
H1135 H 0.13447 0.84269 0.28003 0.0
H1136 H 0.11835 0.78369 0.30013 0.0
C1137 C 0.1433 0.79253 0.42792 0.0
C1138 C 0.16171 0.8238 0.35094 0.0
C1139 C 0.14862 0.78977 0.46188 0.0
C1140 C 0.12892 0.83741 0.2239 0.0
C1141 C 0.13306 0.83336 0.25804 0.0
C1142 C 0.13045 0.79503 0.3141 0.0
C1143 C 0.15704 0.80126 0.40097 0.0
C1144 C 0.15152 0.80539 0.36575 0.0
C1145 C 0.13542 0.81745 0.26369 0.0
C1146 C 0.14059 0.81346 0.29936 0.0
H1147 H 0.19625 0.80801 0.44722 0.0
H1148 H 0.18695 0.81317 0.38783 0.0
H1149 H 0.12766 0.77676 0.35796 0.0
H1150 H 0.12863 0.80062 0.17864 0.0
H1151 H 0.13525 0.79331 0.23826 0.0
C1152 C 0.35305 0.20387 0.5353 0.0
C1153 C 0.36914 0.20196 0.52882 0.0
C1154 C 0.34475 0.20031 0.56915 0.0
C1155 C 0.33763 0.17185 0.64862 0.0
H1156 H 0.32401 0.20642 0.69456 0.0
C1157 C 0.28844 0.15083 0.77295 0.0
C1158 C 0.29619 0.16365 0.80167 0.0
C1159 C 0.29694 0.15587 0.73915 0.0
C1160 C 0.32771 0.19663 0.68198 0.0
H1161 H 0.38932 0.19507 0.55291 0.0
H1162 H 0.37452 0.18847 0.61217 0.0
H1163 H 0.3408 0.21521 0.63724 0.0
H1164 H 0.31843 0.19205 0.8172 0.0
H1165 H 0.33286 0.20098 0.75809 0.0
H1166 H 0.32432 0.15316 0.69313 0.0
C1167 C 0.36846 0.19286 0.59094 0.0
C1168 C 0.33726 0.20164 0.64922 0.0
C1169 C 0.37701 0.19678 0.55715 0.0
C1170 C 0.31213 0.18185 0.7956 0.0
C1171 C 0.32037 0.187 0.76176 0.0
C1172 C 0.32777 0.1667 0.68107 0.0
C1173 C 0.35215 0.19444 0.59715 0.0
C1174 C 0.34241 0.18934 0.6323 0.0
C1175 C 0.31309 0.17396 0.73334 0.0
C1176 C 0.32279 0.17907 0.69815 0.0
H1177 H 0.34666 0.20784 0.514 0.0
H1178 H 0.33214 0.20155 0.57314 0.0
H1179 H 0.34126 0.16203 0.63597 0.0
H1180 H 0.27624 0.13668 0.77686 0.0
H1181 H 0.29097 0.1456 0.71759 0.0
C1182 C 0.78745 0.16579 0.55449 0.0
C1183 C 0.79204 0.15813 0.52499 0.0
C1184 C 0.79055 0.16153 0.58926 0.0
C1185 C 0.79809 0.12691 0.64155 0.0
H1186 H 0.82407 0.16885 0.70824 0.0
C1187 C 0.82909 0.11879 0.77592 0.0
C1188 C 0.82694 0.1282 0.80557 0.0
C1189 C 0.82437 0.12203 0.74161 0.0
C1190 C 0.81659 0.15691 0.69014 0.0
H1191 H 0.80283 0.13944 0.50894 0.0
H1192 H 0.80814 0.13209 0.56908 0.0
H1193 H 0.81535 0.17484 0.64943 0.0
H1194 H 0.81803 0.14833 0.82222 0.0
H1195 H 0.8096 0.15361 0.76314 0.0
H1196 H 0.7993 0.10895 0.68226 0.0
C1197 C 0.80215 0.14135 0.56556 0.0
C1198 C 0.81157 0.16036 0.65644 0.0
C1199 C 0.79924 0.14572 0.53101 0.0
C1200 C 0.81997 0.14085 0.8001 0.0
C1201 C 0.81523 0.14402 0.76604 0.0
C1202 C 0.80304 0.12343 0.67534 0.0
C1203 C 0.79806 0.14934 0.59511 0.0
C1204 C 0.80234 0.14543 0.63169 0.0
C1205 C 0.81742 0.13473 0.73629 0.0
C1206 C 0.81239 0.13839 0.70005 0.0
H1207 H 0.78191 0.17541 0.55072 0.0
H1208 H 0.78712 0.16779 0.61157 0.0
H1209 H 0.79082 0.11506 0.62318 0.0
H1210 H 0.83445 0.109 0.77918 0.0
H1211 H 0.82641 0.11477 0.7192 0.0
C1212 C 0.87928 0.70855 0.77535 0.0
C1213 C 0.86909 0.69782 0.80525 0.0
C1214 C 0.87585 0.69996 0.7416 0.0
C1215 C 0.83976 0.65788 0.69074 0.0
H1216 H 0.88231 0.66921 0.62825 0.0
C1217 C 0.82988 0.61793 0.55683 0.0
C1218 C 0.83931 0.62987 0.52767 0.0
C1219 C 0.834 0.62524 0.59169 0.0
C1220 C 0.87027 0.66595 0.64535 0.0
H1221 H 0.84714 0.66966 0.82293 0.0
H1222 H 0.84143 0.65483 0.7647 0.0
H1223 H 0.88832 0.68478 0.68636 0.0
H1224 H 0.86103 0.65858 0.51234 0.0
H1225 H 0.86803 0.67116 0.57246 0.0
H1226 H 0.82171 0.63914 0.64962 0.0
C1227 C 0.85189 0.66989 0.76704 0.0
C1228 C 0.87371 0.67496 0.67857 0.0
C1229 C 0.8553 0.67842 0.80058 0.0
C1230 C 0.85335 0.64899 0.53413 0.0
C1231 C 0.85753 0.65621 0.56872 0.0
C1232 C 0.83632 0.64886 0.65754 0.0
C1233 C 0.86212 0.6805 0.73713 0.0
C1234 C 0.85849 0.6711 0.70159 0.0
C1235 C 0.84777 0.64453 0.59791 0.0
C1236 C 0.85152 0.6529 0.63435 0.0
H1237 H 0.88995 0.72352 0.77803 0.0
H1238 H 0.88383 0.70858 0.71898 0.0
H1239 H 0.82769 0.65475 0.70764 0.0
H1240 H 0.819 0.60315 0.55268 0.0
H1241 H 0.82635 0.61585 0.61374 0.0
C1242 C 0.95341 0.49703 0.11074 0.0
C1243 C 0.96588 0.50379 0.14008 0.0
C1244 C 0.96061 0.50148 0.07589 0.0
C1245 C 0.00326 0.53545 0.02397 0.0
H1246 H 0.98493 0.49446 0.95456 0.0
C1247 C 0.04125 0.54345 0.88837 0.0
C1248 C 0.02945 0.53494 0.85858 0.0
C1249 C 0.03339 0.54017 0.92276 0.0
C1250 C 0.99007 0.50615 0.97345 0.0
H1251 H 0.99564 0.52096 0.15578 0.0
H1252 H 0.00803 0.5286 0.09552 0.0
H1253 H 0.97059 0.48815 0.01373 0.0
H1254 H 1.00006 0.51651 0.84167 0.0
H1255 H 0.98653 0.51115 0.90094 0.0
H1256 H 0.02275 0.55346 0.98372 0.0
C1257 C 0.99273 0.51995 0.09923 0.0
C1258 C 0.9818 0.50252 0.00736 0.0
C1259 C 0.98559 0.51541 0.13385 0.0
C1260 C 0.00966 0.52324 0.86393 0.0
C1261 C 0.00185 0.52003 0.89807 0.0
C1262 C 0.01149 0.53911 0.99 0.0
C1263 C 0.98039 0.51293 0.06981 0.0
C1264 C 0.98836 0.51709 0.03307 0.0
C1265 C 0.01358 0.52833 0.92798 0.0
C1266 C 0.00503 0.52449 0.96433 0.0
H1267 H 0.93816 0.48805 0.11467 0.0
H1268 H 0.95073 0.49597 0.05369 0.0
H1269 H 0.00851 0.54703 0.04311 0.0
H1270 H 0.05654 0.5525 0.88519 0.0
H1271 H 0.04287 0.54666 0.94527 0.0
C1272 C 0.51564 0.46997 0.10699 0.0
C1273 C 0.50257 0.4643 0.13537 0.0
C1274 C 0.51075 0.47374 0.07331 0.0
C1275 C 0.47012 0.46392 0.01566 0.0
H1276 H 0.5049 0.5124 0.9709 0.0
C1277 C 0.46296 0.48277 0.86963 0.0
C1278 C 0.46528 0.50097 0.86327 0.0
C1279 C 0.46646 0.47788 0.90339 0.0
C1280 C 0.49502 0.49886 0.9832 0.0
H1281 H 0.47391 0.45741 0.15034 0.0
H1282 H 0.46529 0.46352 0.09147 0.0
H1283 H 0.51353 0.50392 0.02788 0.0
H1284 H 0.47281 0.52821 0.88753 0.0
H1285 H 0.47923 0.5197 0.94665 0.0
H1286 H 0.45169 0.45877 0.97082 0.0
C1287 C 0.47933 0.46522 0.0953 0.0
C1288 C 0.50005 0.49392 0.01556 0.0
C1289 C 0.48431 0.46178 0.12903 0.0
C1290 C 0.47079 0.51405 0.89166 0.0
C1291 C 0.47461 0.50924 0.92537 0.0
C1292 C 0.46523 0.46872 0.98303 0.0
C1293 C 0.4926 0.47155 0.06724 0.0
C1294 C 0.48761 0.47643 0.03218 0.0
C1295 C 0.47264 0.49116 0.93145 0.0
C1296 C 0.47759 0.48627 0.96654 0.0
H1297 H 0.52985 0.47214 0.1111 0.0
H1298 H 0.5212 0.47847 0.05203 0.0
H1299 H 0.46028 0.45033 0.02785 0.0
H1300 H 0.45872 0.47237 0.84831 0.0
H1301 H 0.46492 0.46389 0.90723 0.0
C1302 C 0.52624 0.01021 0.13302 0.0
C1303 C 0.53745 0.03005 0.13856 0.0
C1304 C 0.52313 0.00251 0.09879 0.0
C1305 C 0.54173 0.0128 0.00661 0.0
H1306 H 0.49129 0.97074 0.9835 0.0
C1307 C 0.51797 0.98603 0.86302 0.0
C1308 C 0.50692 0.96621 0.85706 0.0
C1309 C 0.52243 0.99336 0.89755 0.0
C1310 C 0.50552 0.98229 0.98969 0.0
H1311 H 0.55426 0.05736 0.11218 0.0
H1312 H 0.54857 0.04387 0.0519 0.0
H1313 H 0.49747 0.98511 0.04266 0.0
H1314 H 0.4921 0.93852 0.88285 0.0
H1315 H 0.49987 0.95142 0.94364 0.0
H1316 H 0.54964 0.0101 0.95332 0.0
C1317 C 0.5424 0.03427 0.07436 0.0
C1318 C 0.50908 0.99057 0.02359 0.0
C1319 C 0.5456 0.04203 0.10885 0.0
C1320 C 0.50064 0.95384 0.88656 0.0
C1321 C 0.50499 0.96124 0.92132 0.0
C1322 C 0.53814 0.00455 0.97263 0.0
C1323 C 0.53102 0.0144 0.06895 0.0
C1324 C 0.52723 0.00592 0.03252 0.0
C1325 C 0.51588 0.9811 0.92713 0.0
C1326 C 0.51998 0.98922 0.96377 0.0
H1327 H 0.51983 1.00047 0.1552 0.0
H1328 H 0.51463 0.98714 0.09579 0.0
H1329 H 0.55594 0.02437 0.01273 0.0
H1330 H 0.52314 0.996 0.84096 0.0
H1331 H 0.53063 0.00872 0.90107 0.0
C1332 C 0.13724 0.28828 0.94288 0.0
C1333 C 0.15211 0.29548 0.96812 0.0
C1334 C 0.14026 0.29655 0.90898 0.0
C1335 C 0.17859 0.32397 0.84541 0.0
H1336 H 0.14368 0.33786 0.80197 0.0
C1337 C 0.1865 0.34804 0.70008 0.0
C1338 C 0.18588 0.36483 0.69321 0.0
C1339 C 0.18106 0.33911 0.73315 0.0
C1340 C 0.15355 0.3341 0.81392 0.0
H1341 H 0.18174 0.31712 0.97752 0.0
H1342 H 0.1869 0.33127 0.9187 0.0
H1343 H 0.1365 0.32287 0.86114 0.0
H1344 H 0.1786 0.38515 0.71562 0.0
H1345 H 0.16908 0.3694 0.77381 0.0
H1346 H 0.19572 0.33525 0.79865 0.0
C1347 C 0.17298 0.31923 0.92502 0.0
C1348 C 0.14936 0.32538 0.8475 0.0
C1349 C 0.16996 0.31111 0.9588 0.0
C1350 C 0.17931 0.37227 0.72008 0.0
C1351 C 0.17374 0.36322 0.75327 0.0
C1352 C 0.18267 0.3325 0.81188 0.0
C1353 C 0.15822 0.31198 0.89973 0.0
C1354 C 0.16195 0.32039 0.86359 0.0
C1355 C 0.17481 0.34669 0.76018 0.0
C1356 C 0.17024 0.33768 0.79583 0.0
H1357 H 0.1233 0.2763 0.94929 0.0
H1358 H 0.12869 0.29066 0.88981 0.0
H1359 H 0.18846 0.32013 0.85711 0.0
H1360 H 0.19138 0.3418 0.68004 0.0
H1361 H 0.1818 0.32624 0.73763 0.0
C1362 C 0.6231 0.8 0.71779 0.0
C1363 C 0.63181 0.81553 0.69407 0.0
C1364 C 0.63145 0.80083 0.75093 0.0
C1365 C 0.67732 0.82733 0.79975 0.0
H1366 H 0.64547 0.8139 0.88408 0.0
C1367 C 0.7085 0.84194 0.94299 0.0
C1368 C 0.70095 0.8504 0.9656 0.0
C1369 C 0.69988 0.83428 0.91009 0.0
C1370 C 0.65453 0.81763 0.86074 0.0
H1371 H 0.65601 0.84419 0.68689 0.0
H1372 H 0.67025 0.84563 0.74433 0.0
H1373 H 0.63064 0.80667 0.82524 0.0
H1374 H 0.67862 0.85776 0.97098 0.0
H1375 H 0.66394 0.84475 0.91387 0.0
H1376 H 0.70126 0.83927 0.8352 0.0
C1377 C 0.65724 0.83266 0.73715 0.0
C1378 C 0.64603 0.8133 0.82708 0.0
C1379 C 0.64893 0.83188 0.70428 0.0
C1380 C 0.68478 0.85123 0.95445 0.0
C1381 C 0.6762 0.84358 0.92179 0.0
C1382 C 0.68582 0.83168 0.83341 0.0
C1383 C 0.64867 0.81715 0.76079 0.0
C1384 C 0.65738 0.8187 0.79625 0.0
C1385 C 0.68355 0.83491 0.89934 0.0
C1386 C 0.67453 0.82746 0.86418 0.0
H1387 H 0.60994 0.78717 0.71069 0.0
H1388 H 0.62453 0.78867 0.76869 0.0
H1389 H 0.68639 0.83135 0.77639 0.0
H1390 H 0.7209 0.84101 0.95087 0.0
H1391 H 0.70585 0.82767 0.89326 0.0
C1392 C 0.14513 0.86057 0.94397 0.0
C1393 C 0.13927 0.84539 0.96826 0.0
C1394 C 0.15147 0.85931 0.90982 0.0
C1395 C 0.15408 0.84724 0.83302 0.0
H1396 H 0.18444 0.82239 0.82646 0.0
C1397 C 0.16228 0.81461 0.70278 0.0
C1398 C 0.1796 0.81513 0.69564 0.0
C1399 C 0.15944 0.82135 0.73512 0.0
C1400 C 0.17626 0.82965 0.82774 0.0
H1401 H 0.13461 0.81665 0.97504 0.0
H1402 H 0.14526 0.81441 0.91592 0.0
H1403 H 0.17564 0.82876 0.88468 0.0
H1404 H 0.20775 0.82363 0.71668 0.0
H1405 H 0.20284 0.83557 0.77314 0.0
H1406 H 0.15475 0.84814 0.77594 0.0
C1407 C 0.1455 0.82748 0.92339 0.0
C1408 C 0.171 0.83308 0.86113 0.0
C1409 C 0.13924 0.82874 0.95728 0.0
C1410 C 0.19417 0.82286 0.72143 0.0
C1411 C 0.19135 0.82968 0.7538 0.0
C1412 C 0.1594 0.84386 0.79952 0.0
C1413 C 0.15204 0.84286 0.89951 0.0
C1414 C 0.15942 0.84143 0.86412 0.0
C1415 C 0.17388 0.82885 0.76113 0.0
C1416 C 0.17017 0.8346 0.7965 0.0
H1417 H 0.14536 0.87361 0.95165 0.0
H1418 H 0.15641 0.87138 0.89191 0.0
H1419 H 0.14516 0.85371 0.83448 0.0
H1420 H 0.15071 0.80874 0.6836 0.0
H1421 H 0.1457 0.82015 0.7401 0.0
C1422 C 0.35048 0.18325 0.29344 0.0
C1423 C 0.36725 0.18309 0.30263 0.0
C1424 C 0.34192 0.17657 0.26029 0.0
C1425 C 0.32099 0.15278 0.19606 0.0
H1426 H 0.35321 0.16777 0.11206 0.0
C1427 C 0.28986 0.13178 0.05352 0.0
C1428 C 0.2981 0.14646 0.02799 0.0
C1429 C 0.29835 0.13406 0.08702 0.0
C1430 C 0.34401 0.16349 0.13527 0.0
H1431 H 0.38809 0.17558 0.28412 0.0
H1432 H 0.37299 0.16373 0.22618 0.0
H1433 H 0.36782 0.176 0.17096 0.0
H1434 H 0.32173 0.1751 0.01785 0.0
H1435 H 0.33621 0.17912 0.07609 0.0
H1436 H 0.29719 0.14108 0.16029 0.0
C1437 C 0.36661 0.16925 0.24462 0.0
C1438 C 0.35239 0.168 0.16904 0.0
C1439 C 0.37524 0.176 0.27784 0.0
C1440 C 0.315 0.16342 0.0367 0.0
C1441 C 0.32343 0.16569 0.07008 0.0
C1442 C 0.31261 0.14833 0.16227 0.0
C1443 C 0.34986 0.16948 0.23548 0.0
C1444 C 0.34098 0.16304 0.1998 0.0
C1445 C 0.31524 0.15106 0.09563 0.0
C1446 C 0.32404 0.15398 0.13149 0.0
H1447 H 0.34395 0.18867 0.31175 0.0
H1448 H 0.32925 0.17731 0.25385 0.0
H1449 H 0.3118 0.14847 0.21927 0.0
H1450 H 0.27687 0.11852 0.04765 0.0
H1451 H 0.29177 0.12247 0.10608 0.0
C1452 C 0.86502 0.15321 0.05376 0.0
C1453 C 0.84933 0.14538 0.03034 0.0
C1454 C 0.86379 0.16055 0.08684 0.0
C1455 C 0.83537 0.17785 0.13508 0.0
H1456 H 0.85208 0.16315 0.22013 0.0
C1457 C 0.81463 0.16427 0.29149 0.0
C1458 C 0.81422 0.18088 0.30111 0.0
C1459 C 0.82213 0.1631 0.25883 0.0
C1460 C 0.84741 0.16743 0.19658 0.0
H1461 H 0.81992 0.13873 0.02371 0.0
H1462 H 0.81778 0.15119 0.08112 0.0
H1463 H 0.85914 0.15501 0.16162 0.0
H1464 H 0.82135 0.20932 0.28375 0.0
H1465 H 0.83447 0.20719 0.22624 0.0
H1466 H 0.82272 0.18933 0.17003 0.0
C1467 C 0.83117 0.15211 0.07373 0.0
C1468 C 0.85163 0.16294 0.1631 0.0
C1469 C 0.83236 0.14479 0.04088 0.0
C1470 C 0.82139 0.19629 0.27708 0.0
C1471 C 0.82891 0.19509 0.24421 0.0
C1472 C 0.83112 0.1823 0.16855 0.0
C1473 C 0.84688 0.16022 0.09694 0.0
C1474 C 0.8451 0.16757 0.13206 0.0
C1475 C 0.82943 0.17849 0.23488 0.0
C1476 C 0.83656 0.17658 0.19964 0.0
H1477 H 0.87832 0.15394 0.04636 0.0
H1478 H 0.87613 0.16672 0.10426 0.0
H1479 H 0.83047 0.1819 0.11154 0.0
H1480 H 0.80913 0.15204 0.30916 0.0
H1481 H 0.82188 0.14994 0.25208 0.0
C1482 C 0.86381 0.69458 0.04256 0.0
C1483 C 0.85972 0.70873 0.0312 0.0
C1484 C 0.85917 0.68714 0.07679 0.0
C1485 C 0.82729 0.67882 0.1515 0.0
H1486 H 0.86453 0.67077 0.20201 0.0
C1487 C 0.80987 0.62947 0.27576 0.0
C1488 C 0.8237 0.63641 0.30295 0.0
C1489 C 0.81349 0.63936 0.24338 0.0
C1490 C 0.85401 0.67306 0.18848 0.0
H1491 H 0.84767 0.72629 0.04709 0.0
H1492 H 0.83958 0.71319 0.10783 0.0
H1493 H 0.87305 0.68749 0.14536 0.0
H1494 H 0.85206 0.65938 0.31748 0.0
H1495 H 0.85801 0.6765 0.26203 0.0
H1496 H 0.80826 0.66434 0.19511 0.0
C1497 C 0.84632 0.70789 0.08972 0.0
C1498 C 0.85886 0.68253 0.15591 0.0
C1499 C 0.85109 0.71549 0.05519 0.0
C1500 C 0.84103 0.65349 0.29726 0.0
C1501 C 0.84454 0.66333 0.26528 0.0
C1502 C 0.8224 0.66929 0.18432 0.0
C1503 C 0.85035 0.69365 0.10071 0.0
C1504 C 0.84551 0.6853 0.13687 0.0
C1505 C 0.83098 0.65629 0.23779 0.0
C1506 C 0.83573 0.66628 0.20302 0.0
H1507 H 0.87045 0.68901 0.02487 0.0
H1508 H 0.86221 0.67599 0.08434 0.0
H1509 H 0.81669 0.68065 0.13713 0.0
H1510 H 0.79636 0.61639 0.27935 0.0
H1511 H 0.80282 0.63353 0.22247 0.0
C1512 C 0.95709 0.46509 0.38771 0.0
C1513 C 0.96529 0.48049 0.36365 0.0
C1514 C 0.96581 0.46634 0.42062 0.0
C1515 C 0.98072 0.47944 0.49628 0.0
H1516 H 0.03603 0.50689 0.50338 0.0
C1517 C 0.01927 0.51807 0.62321 0.0
C1518 C 0.03561 0.51755 0.63431 0.0
C1519 C 0.01084 0.51049 0.59044 0.0
C1520 C 0.02059 0.49891 0.50186 0.0
H1521 H 0.98899 0.50935 0.35558 0.0
H1522 H 0.00385 0.51153 0.41265 0.0
H1523 H 0.02087 0.49835 0.44483 0.0
H1524 H 0.05608 0.50888 0.61929 0.0
H1525 H 0.04127 0.49565 0.56146 0.0
H1526 H 0.98044 0.48023 0.55326 0.0
C1527 C 0.99097 0.49835 0.40592 0.0
C1528 C 0.01191 0.49419 0.46836 0.0
C1529 C 0.98229 0.49713 0.37325 0.0
C1530 C 0.04355 0.50957 0.61145 0.0
C1531 C 0.03506 0.50196 0.57843 0.0
C1532 C 0.9894 0.48413 0.52976 0.0
C1533 C 0.98289 0.48298 0.42992 0.0
C1534 C 0.99191 0.48499 0.46523 0.0
C1535 C 0.01849 0.50217 0.56783 0.0
C1536 C 0.00942 0.49449 0.53282 0.0
H1537 H 0.94405 0.45204 0.38106 0.0
H1538 H 0.95928 0.45427 0.43865 0.0
H1539 H 0.9653 0.47238 0.49473 0.0
H1540 H 0.01283 0.52425 0.63994 0.0
H1541 H 0.99838 0.51133 0.58263 0.0
C1542 C 0.48831 0.5304 0.6106 0.0
C1543 C 0.48169 0.51571 0.63613 0.0
C1544 C 0.49474 0.52813 0.57733 0.0
C1545 C 0.51127 0.49867 0.53001 0.0
H1546 H 0.49534 0.51444 0.44528 0.0
C1547 C 0.50009 0.48029 0.37109 0.0
C1548 C 0.51711 0.48048 0.3626 0.0
C1549 C 0.49777 0.48664 0.40427 0.0
C1550 C 0.49986 0.50991 0.4687 0.0
H1551 H 0.47655 0.48705 0.64651 0.0
H1552 H 0.48734 0.48301 0.58859 0.0
H1553 H 0.4874 0.52148 0.5039 0.0
H1554 H 0.54514 0.48762 0.3824 0.0
H1555 H 0.54113 0.4989 0.4404 0.0
H1556 H 0.52293 0.4863 0.49482 0.0
C1557 C 0.48799 0.49645 0.59445 0.0
C1558 C 0.49552 0.51416 0.5023 0.0
C1559 C 0.48163 0.49873 0.62762 0.0
C1560 C 0.53181 0.4872 0.38813 0.0
C1561 C 0.5295 0.49362 0.42139 0.0
C1562 C 0.51553 0.49435 0.49641 0.0
C1563 C 0.49465 0.51112 0.56892 0.0
C1564 C 0.50085 0.50826 0.53333 0.0
C1565 C 0.51244 0.49341 0.42979 0.0
C1566 C 0.50955 0.49959 0.46538 0.0
H1567 H 0.48863 0.5437 0.61634 0.0
H1568 H 0.49994 0.53976 0.55832 0.0
H1569 H 0.51586 0.49421 0.55343 0.0
H1570 H 0.48841 0.47513 0.3522 0.0
H1571 H 0.48431 0.4859 0.41012 0.0
C1572 C 0.4681 0.95506 0.60932 0.0
C1573 C 0.48363 0.96336 0.63307 0.0
C1574 C 0.46915 0.96366 0.57636 0.0
C1575 C 0.48166 0.97862 0.50044 0.0
H1576 H 0.50886 0.03399 0.49385 0.0
C1577 C 0.51951 0.01773 0.37338 0.0
C1578 C 0.51903 0.0342 0.36295 0.0
C1579 C 0.51196 0.00906 0.406 0.0
C1580 C 0.50093 0.01852 0.49523 0.0
H1581 H 0.51258 0.98701 0.64043 0.0
H1582 H 0.51441 0.00166 0.58327 0.0
H1583 H 0.50082 0.0187 0.55226 0.0
H1584 H 0.51042 0.0546 0.37894 0.0
H1585 H 0.49727 0.03938 0.43647 0.0
H1586 H 0.48202 0.97845 0.44341 0.0
C1587 C 0.50127 0.98881 0.59031 0.0
C1588 C 0.49651 0.00977 0.52865 0.0
C1589 C 0.50025 0.98026 0.62301 0.0
C1590 C 0.51107 0.04198 0.38626 0.0
C1591 C 0.50352 0.03325 0.41912 0.0
C1592 C 0.48606 0.98737 0.46702 0.0
C1593 C 0.48572 0.98071 0.56672 0.0
C1594 C 0.48743 0.98976 0.53157 0.0
C1595 C 0.50375 0.0166 0.42911 0.0
C1596 C 0.49632 0.00741 0.46412 0.0
H1597 H 0.45507 0.94208 0.61633 0.0
H1598 H 0.45695 0.9571 0.55863 0.0
H1599 H 0.47467 0.96317 0.50185 0.0
H1600 H 0.52565 0.0114 0.35629 0.0
H1601 H 0.51282 0.99654 0.41333 0.0
C1602 C 0.18462 0.25273 0.01233 0.0
C1603 C 0.18499 0.25926 0.04725 0.0
C1604 C 0.19688 0.24609 0.00225 0.0
C1605 C 0.21909 0.22075 0.03587 0.0
H1606 H 0.2511 0.23837 0.95155 0.0
C1607 C 0.26041 0.18359 0.99147 0.0
C1608 C 0.26252 0.18172 0.95483 0.0
C1609 C 0.25388 0.1956 0.00387 0.0
C1610 C 0.24207 0.23305 0.97489 0.0
H1611 H 0.19864 0.26424 0.0989 0.0
H1612 H 0.21973 0.25174 0.08155 0.0
H1613 H 0.23432 0.25485 0.97126 0.0
H1614 H 0.2598 0.19101 0.90223 0.0
H1615 H 0.2473 0.21126 0.92349 0.0
H1616 H 0.22547 0.1982 0.03852 0.0
C1617 C 0.2101 0.25215 0.06195 0.0
C1618 C 0.23263 0.24266 0.98635 0.0
C1619 C 0.19811 0.2593 0.07182 0.0
C1620 C 0.2584 0.19238 0.93066 0.0
C1621 C 0.25132 0.20405 0.943 0.0
C1622 C 0.22814 0.21087 0.02402 0.0
C1623 C 0.2095 0.24543 0.02707 0.0
C1624 C 0.22099 0.23653 0.01684 0.0
C1625 C 0.24868 0.20561 0.97985 0.0
C1626 C 0.23972 0.21679 0.99321 0.0
H1627 H 0.17477 0.2527 0.99273 0.0
H1628 H 0.19605 0.24086 0.97532 0.0
H1629 H 0.20992 0.21554 0.0591 0.0
H1630 H 0.26373 0.17564 0.01064 0.0
H1631 H 0.25273 0.1968 0.03239 0.0
C1632 C 0.81135 0.06998 0.98418 0.0
C1633 C 0.81168 0.07606 0.94895 0.0
C1634 C 0.79884 0.05109 0.99412 0.0
C1635 C 0.77721 0.00346 0.96033 0.0
H1636 H 0.74465 0.98898 0.0439 0.0
C1637 C 0.73588 0.92495 0.00484 0.0
C1638 C 0.7336 0.921 0.04149 0.0
C1639 C 0.74242 0.94347 0.99234 0.0
C1640 C 0.75383 0.99273 0.02076 0.0
H1641 H 0.79901 0.06733 0.89656 0.0
H1642 H 0.77744 0.03376 0.91372 0.0
H1643 H 0.76139 0.02224 0.02407 0.0
H1644 H 0.73602 0.93305 0.09398 0.0
H1645 H 0.7485 0.96579 0.07254 0.0
H1646 H 0.77099 0.97455 0.95804 0.0
C1647 C 0.78671 0.04384 0.93367 0.0
C1648 C 0.76325 0.01177 0.00922 0.0
C1649 C 0.79895 0.06297 0.9239 0.0
C1650 C 0.73755 0.9358 0.06555 0.0
C1651 C 0.74462 0.95454 0.0531 0.0
C1652 C 0.76816 0.98453 0.97225 0.0
C1653 C 0.78666 0.03774 0.96886 0.0
C1654 C 0.7751 0.01732 0.97901 0.0
C1655 C 0.74744 0.95871 0.01626 0.0
C1656 C 0.75639 0.97884 0.0028 0.0
H1657 H 0.82096 0.07984 0.00407 0.0
H1658 H 0.79921 0.04674 0.02131 0.0
H1659 H 0.78655 0.00744 0.93734 0.0
H1660 H 0.73271 0.91366 0.98577 0.0
H1661 H 0.74371 0.9458 0.96381 0.0
C1662 C 0.93577 0.75924 0.95408 0.0
C1663 C 0.92426 0.74051 0.94116 0.0
C1664 C 0.95366 0.76502 0.96876 0.0
C1665 C 0.99367 0.75633 0.97534 0.0
H1666 H 1.00173 0.78323 0.06514 0.0
C1667 C 0.0663 0.79169 0.05254 0.0
C1668 C 0.07284 0.81097 0.06106 0.0
C1669 C 0.04742 0.77974 0.04099 0.0
C1670 C 0.99972 0.77571 0.04016 0.0
H1671 H 0.92329 0.71356 0.93153 0.0
H1672 H 0.95499 0.72389 0.95712 0.0
H1673 H 0.97061 0.7689 0.03629 0.0
H1674 H 0.06432 0.83244 0.06551 0.0
H1675 H 0.03172 0.81175 0.04637 0.0
H1676 H 0.02315 0.76385 0.97879 0.0
C1677 C 0.94985 0.73395 0.95598 0.0
C1678 C 0.9819 0.76752 0.02359 0.0
C1679 C 0.93174 0.72807 0.94125 0.0
C1680 C 0.05986 0.81771 0.05935 0.0
C1681 C 0.04106 0.80578 0.04842 0.0
C1682 C 0.01163 0.76461 0.99198 0.0
C1683 C 0.96068 0.7523 0.97096 0.0
C1684 C 0.97884 0.75832 0.99042 0.0
C1685 C 0.03466 0.78676 0.03849 0.0
C1686 C 0.01499 0.77495 0.02399 0.0
H1687 H 0.9307 0.76936 0.95422 0.0
H1688 H 0.96186 0.7794 0.97926 0.0
H1689 H 0.99169 0.74928 0.94982 0.0
H1690 H 0.07596 0.78607 0.05331 0.0
H1691 H 0.04287 0.76511 0.03365 0.0
C1692 C 0.82602 0.76225 0.95716 0.0
C1693 C 0.8193 0.74248 0.95572 0.0
C1694 C 0.81442 0.76914 0.97007 0.0
C1695 C 0.76693 0.76064 0.98243 0.0
H1696 H 0.78813 0.79488 0.06337 0.0
C1697 C 0.72919 0.7994 0.04239 0.0
C1698 C 0.74126 0.81872 0.05142 0.0
C1699 C 0.7368 0.78755 0.03463 0.0
C1700 C 0.78203 0.78551 0.04059 0.0
H1701 H 0.79466 0.71444 0.96497 0.0
H1702 H 0.77407 0.72667 0.98657 0.0
H1703 H 0.80479 0.77919 0.03949 0.0
H1704 H 0.77079 0.8405 0.06054 0.0
H1705 H 0.78397 0.82026 0.04629 0.0
H1706 H 0.74473 0.76776 0.98206 0.0
C1707 C 0.78851 0.7367 0.97814 0.0
C1708 C 0.79154 0.77642 0.02712 0.0
C1709 C 0.80028 0.72974 0.96578 0.0
C1710 C 0.76101 0.8257 0.05379 0.0
C1711 C 0.7686 0.81397 0.0458 0.0
C1712 C 0.75753 0.77001 0.99554 0.0
C1713 C 0.7957 0.75647 0.98124 0.0
C1714 C 0.78428 0.76421 0.99753 0.0
C1715 C 0.75667 0.79479 0.0356 0.0
C1716 C 0.76521 0.78293 0.02432 0.0
H1717 H 0.84052 0.77253 0.94963 0.0
H1718 H 0.82021 0.78445 0.97188 0.0
H1719 H 0.76112 0.75132 0.95949 0.0
H1720 H 0.71389 0.79353 0.04039 0.0
H1721 H 0.72713 0.7728 0.02744 0.0
C1722 C 0.17109 0.93073 0.03797 0.0
C1723 C 0.17768 0.9176 0.04001 0.0
C1724 C 0.1828 0.94912 0.02473 0.0
C1725 C 0.23039 0.98794 0.01289 0.0
H1726 H 0.20943 0.00126 0.93207 0.0
C1727 C 0.26792 0.06485 0.95446 0.0
C1728 C 0.25572 0.072 0.94598 0.0
C1729 C 0.26044 0.04535 0.96174 0.0
C1730 C 0.21548 0.99789 0.95479 0.0
H1731 H 0.20217 0.91395 0.03127 0.0
H1732 H 0.22298 0.94664 0.00906 0.0
H1733 H 0.19275 0.96876 0.95533 0.0
H1734 H 0.22611 0.06404 0.93731 0.0
H1735 H 0.21318 0.03055 0.95067 0.0
H1736 H 0.25254 0.01732 0.01384 0.0
C1737 C 0.20855 0.94234 0.0173 0.0
C1738 C 0.20596 0.97922 0.9679 0.0
C1739 C 0.19665 0.92369 0.03001 0.0
C1740 C 0.23598 0.05911 0.94369 0.0
C1741 C 0.22854 0.03975 0.95114 0.0
C1742 C 0.23981 0.00678 0.00011 0.0
C1743 C 0.20151 0.95502 0.01378 0.0
C1744 C 0.2131 0.97417 0.99751 0.0
C1745 C 0.2406 0.03259 0.96075 0.0
C1746 C 0.23219 0.01212 0.97143 0.0
H1747 H 0.15661 0.92665 0.04541 0.0
H1748 H 0.17712 0.95872 0.0226 0.0
H1749 H 0.23611 0.98436 0.03587 0.0
H1750 H 0.2832 0.07438 0.9564 0.0
H1751 H 0.2702 0.04034 0.96855 0.0
C1752 C 0.93427 0.16979 0.95561 0.0
C1753 C 0.92213 0.17743 0.95104 0.0
C1754 C 0.95293 0.18124 0.96784 0.0
C1755 C 0.99341 0.22893 0.97489 0.0
H1756 H 0.00555 0.20949 0.05951 0.0
C1757 C 0.06958 0.26721 0.03646 0.0
C1758 C 0.07645 0.2551 0.04743 0.0
C1759 C 0.05021 0.25968 0.02798 0.0
C1760 C 0.00252 0.21508 0.03569 0.0
H1761 H 0.92055 0.20343 0.95384 0.0
H1762 H 0.95363 0.22364 0.97429 0.0
H1763 H 0.97326 0.1927 0.0354 0.0
H1764 H 0.06811 0.22564 0.05932 0.0
H1765 H 0.03488 0.21261 0.04386 0.0
H1766 H 0.0229 0.25077 0.97398 0.0
C1767 C 0.9484 0.20866 0.96883 0.0
C1768 C 0.98398 0.20549 0.02204 0.0
C1769 C 0.92951 0.19709 0.95713 0.0
C1770 C 0.0634 0.23545 0.051 0.0
C1771 C 0.04419 0.22795 0.04233 0.0
C1772 C 0.01213 0.2384 0.98824 0.0
C1773 C 0.96006 0.20067 0.97522 0.0
C1774 C 0.97933 0.21209 0.99115 0.0
C1775 C 0.03732 0.23988 0.03022 0.0
C1776 C 0.01703 0.23134 0.0184 0.0
H1777 H 0.92916 0.15476 0.95117 0.0
H1778 H 0.96173 0.1748 0.97214 0.0
H1779 H 0.99015 0.23427 0.95099 0.0
H1780 H 0.07922 0.28242 0.03348 0.0
H1781 H 0.04542 0.26935 0.01926 0.0
C1782 C 0.86822 0.59662 0.40357 0.0
C1783 C 0.8554 0.59696 0.37872 0.0
C1784 C 0.88007 0.5893 0.39385 0.0
C1785 C 0.9026 0.57963 0.3182 0.0
H1786 H 0.89552 0.53544 0.3713 0.0
C1787 C 0.92808 0.52887 0.26375 0.0
C1788 C 0.93235 0.51844 0.28822 0.0
C1789 C 0.92107 0.54064 0.27577 0.0
C1790 C 0.89816 0.54804 0.35652 0.0
H1791 H 0.84557 0.59084 0.32391 0.0
H1792 H 0.86661 0.57867 0.30682 0.0
H1793 H 0.88003 0.55292 0.39145 0.0
H1794 H 0.93382 0.51282 0.34417 0.0
H1795 H 0.92291 0.53417 0.36536 0.0
H1796 H 0.92096 0.57508 0.28352 0.0
C1797 C 0.86733 0.58377 0.33382 0.0
C1798 C 0.88914 0.55799 0.36813 0.0
C1799 C 0.85521 0.59061 0.34372 0.0
C1800 C 0.93043 0.52064 0.32481 0.0
C1801 C 0.92394 0.53273 0.33687 0.0
C1802 C 0.91198 0.56992 0.30696 0.0
C1803 C 0.87965 0.58274 0.35889 0.0
C1804 C 0.89103 0.57368 0.34879 0.0
C1805 C 0.9186 0.54251 0.31258 0.0
C1806 C 0.90967 0.55377 0.32564 0.0
H1807 H 0.86861 0.60139 0.43072 0.0
H1808 H 0.88947 0.58862 0.41364 0.0
H1809 H 0.9043 0.59174 0.30286 0.0
H1810 H 0.92931 0.52721 0.23536 0.0
H1811 H 0.91693 0.54767 0.25607 0.0
C1812 C 0.48232 0.40347 0.32026 0.0
C1813 C 0.48223 0.40974 0.28533 0.0
C1814 C 0.46977 0.3846 0.33019 0.0
C1815 C 0.44699 0.33703 0.29597 0.0
H1816 H 0.41507 0.32281 0.3804 0.0
C1817 C 0.40479 0.25845 0.33959 0.0
C1818 C 0.40277 0.25439 0.37621 0.0
C1819 C 0.41149 0.27705 0.32741 0.0
C1820 C 0.42407 0.32649 0.35701 0.0
H1821 H 0.46875 0.40127 0.23349 0.0
H1822 H 0.44713 0.36774 0.25059 0.0
H1823 H 0.43226 0.35614 0.36102 0.0
H1824 H 0.40581 0.26635 0.42897 0.0
H1825 H 0.41857 0.29921 0.40806 0.0
H1826 H 0.44015 0.30796 0.29293 0.0
C1827 C 0.45678 0.37768 0.27032 0.0
C1828 C 0.43375 0.34558 0.34575 0.0
C1829 C 0.46906 0.3968 0.26059 0.0
C1830 C 0.40713 0.26918 0.40056 0.0
C1831 C 0.41436 0.28798 0.38843 0.0
C1832 C 0.43769 0.31805 0.30761 0.0
C1833 C 0.45712 0.37143 0.3052 0.0
C1834 C 0.44536 0.35102 0.31523 0.0
C1835 C 0.41695 0.29226 0.35161 0.0
C1836 C 0.42614 0.31245 0.33845 0.0
H1837 H 0.49222 0.41319 0.33997 0.0
H1838 H 0.47042 0.38011 0.35713 0.0
H1839 H 0.45614 0.34094 0.27271 0.0
H1840 H 0.40131 0.24718 0.32029 0.0
H1841 H 0.41259 0.27947 0.29891 0.0
C1842 C 0.59511 0.07294 0.31773 0.0
C1843 C 0.58888 0.06647 0.28283 0.0
C1844 C 0.61391 0.07915 0.32787 0.0
C1845 C 0.66156 0.10327 0.29382 0.0
H1846 H 0.67513 0.08654 0.38033 0.0
C1847 C 0.73978 0.13996 0.33971 0.0
C1848 C 0.7435 0.14262 0.3764 0.0
C1849 C 0.72129 0.12787 0.3272 0.0
C1850 C 0.67164 0.09158 0.35634 0.0
H1851 H 0.59729 0.0611 0.23126 0.0
H1852 H 0.63073 0.0728 0.24873 0.0
H1853 H 0.64195 0.07031 0.36023 0.0
H1854 H 0.73111 0.1347 0.42902 0.0
H1855 H 0.69845 0.11421 0.40745 0.0
H1856 H 0.69071 0.12533 0.29082 0.0
C1857 C 0.62082 0.0727 0.26828 0.0
C1858 C 0.65263 0.08212 0.34466 0.0
C1859 C 0.60176 0.06598 0.25833 0.0
C1860 C 0.72853 0.13265 0.40057 0.0
C1861 C 0.70984 0.12086 0.38806 0.0
C1862 C 0.68047 0.11299 0.30582 0.0
C1863 C 0.62705 0.07942 0.30313 0.0
C1864 C 0.64741 0.08798 0.31344 0.0
C1865 C 0.70589 0.11855 0.35111 0.0
C1866 C 0.68582 0.10741 0.33744 0.0
H1867 H 0.58542 0.07332 0.33723 0.0
H1868 H 0.61837 0.0844 0.35477 0.0
H1869 H 0.65785 0.10828 0.27 0.0
H1870 H 0.75121 0.14746 0.3206 0.0
H1871 H 0.71909 0.12609 0.29867 0.0
C1872 C 0.46787 0.06291 0.29121 0.0
C1873 C 0.4874 0.07519 0.28409 0.0
C1874 C 0.45642 0.0703 0.30325 0.0
C1875 C 0.46033 0.10983 0.35534 0.0
H1876 H 0.41375 0.1019 0.31038 0.0
C1877 C 0.42984 0.15886 0.38473 0.0
C1878 C 0.41008 0.15186 0.38264 0.0
C1879 C 0.43745 0.14724 0.37596 0.0
C1880 C 0.4265 0.10395 0.32379 0.0
H1881 H 0.50992 0.10496 0.28258 0.0
H1882 H 0.4901 0.11762 0.30409 0.0
H1883 H 0.43012 0.08563 0.28685 0.0
H1884 H 0.38271 0.12675 0.37124 0.0
H1885 H 0.39599 0.10621 0.35683 0.0
H1886 H 0.45684 0.12788 0.39251 0.0
C1887 C 0.48367 0.10232 0.3004 0.0
C1888 C 0.4359 0.09469 0.31012 0.0
C1889 C 0.49499 0.09502 0.28787 0.0
C1890 C 0.39801 0.13262 0.37307 0.0
C1891 C 0.40565 0.1209 0.36447 0.0
C1892 C 0.45083 0.11881 0.36932 0.0
C1893 C 0.4644 0.09003 0.3089 0.0
C1894 C 0.45317 0.09799 0.32523 0.0
C1895 C 0.42552 0.12817 0.36519 0.0
C1896 C 0.43409 0.11647 0.35314 0.0
H1897 H 0.46157 0.04757 0.28854 0.0
H1898 H 0.44156 0.06055 0.30956 0.0
H1899 H 0.47346 0.11233 0.36785 0.0
H1900 H 0.43962 0.17359 0.39194 0.0
H1901 H 0.45282 0.15354 0.37631 0.0
C1902 C 0.86375 0.26077 0.37345 0.0
C1903 C 0.84415 0.25339 0.38002 0.0
C1904 C 0.87522 0.27966 0.36163 0.0
C1905 C 0.87144 0.3154 0.30947 0.0
H1906 H 0.9182 0.35381 0.3544 0.0
C1907 C 0.9346 0.40027 0.29139 0.0
C1908 C 0.92279 0.40767 0.28155 0.0
C1909 C 0.92668 0.38089 0.3002 0.0
C1910 C 0.90539 0.34318 0.34101 0.0
H1911 H 0.82154 0.26048 0.38086 0.0
H1912 H 0.84141 0.29306 0.35976 0.0
H1913 H 0.90157 0.32116 0.37788 0.0
H1914 H 0.89339 0.40025 0.27204 0.0
H1915 H 0.87969 0.36696 0.28803 0.0
H1916 H 0.87514 0.33702 0.27233 0.0
C1917 C 0.84787 0.28424 0.36366 0.0
C1918 C 0.89584 0.32451 0.35465 0.0
C1919 C 0.83652 0.26557 0.37596 0.0
C1920 C 0.90298 0.39511 0.27942 0.0
C1921 C 0.89508 0.37586 0.28842 0.0
C1922 C 0.88109 0.33389 0.29552 0.0
C1923 C 0.86721 0.29135 0.35566 0.0
C1924 C 0.87852 0.31061 0.33953 0.0
C1925 C 0.90676 0.36849 0.29945 0.0
C1926 C 0.89792 0.34822 0.31166 0.0
H1927 H 0.87009 0.2518 0.37635 0.0
H1928 H 0.89013 0.28486 0.35572 0.0
H1929 H 0.85827 0.30483 0.29691 0.0
H1930 H 0.94993 0.40953 0.29326 0.0
H1931 H 0.93616 0.37569 0.308 0.0
C1932 C 0.59895 0.5323 0.29244 0.0
C1933 C 0.5918 0.51259 0.28751 0.0
C1934 C 0.61784 0.54425 0.30385 0.0
C1935 C 0.65408 0.54241 0.35766 0.0
H1936 H 0.69231 0.58715 0.30726 0.0
C1937 C 0.73385 0.57312 0.38377 0.0
C1938 C 0.74674 0.59277 0.37955 0.0
C1939 C 0.71453 0.56542 0.37578 0.0
C1940 C 0.68173 0.57495 0.32215 0.0
H1941 H 0.59925 0.49023 0.28937 0.0
H1942 H 0.63178 0.51091 0.3098 0.0
H1943 H 0.65936 0.57009 0.28528 0.0
H1944 H 0.74916 0.61987 0.36506 0.0
H1945 H 0.71518 0.60644 0.3519 0.0
H1946 H 0.67607 0.54709 0.39467 0.0
C1947 C 0.62281 0.5171 0.30488 0.0
C1948 C 0.6629 0.56515 0.3094 0.0
C1949 C 0.60416 0.50528 0.29297 0.0
C1950 C 0.73963 0.60467 0.36857 0.0
C1951 C 0.72017 0.59694 0.36069 0.0
C1952 C 0.67274 0.55231 0.37069 0.0
C1953 C 0.62973 0.53661 0.31108 0.0
C1954 C 0.64906 0.54848 0.3265 0.0
C1955 C 0.70742 0.57714 0.36364 0.0
C1956 C 0.687 0.56837 0.35252 0.0
H1957 H 0.58983 0.5384 0.28842 0.0
H1958 H 0.62291 0.55928 0.30836 0.0
H1959 H 0.64357 0.52976 0.37167 0.0
H1960 H 0.73875 0.56347 0.39215 0.0
H1961 H 0.70532 0.55009 0.37785 0.0
C1962 C 0.60054 0.86823 0.59451 0.0
C1963 C 0.59863 0.85364 0.61745 0.0
C1964 C 0.5937 0.88042 0.60488 0.0
C1965 C 0.58145 0.8998 0.6825 0.0
H1966 H 0.54211 0.89952 0.62316 0.0
C1967 C 0.53012 0.92464 0.7356 0.0
C1968 C 0.52215 0.93184 0.71129 0.0
C1969 C 0.54197 0.91776 0.72349 0.0
C1970 C 0.55338 0.90024 0.63981 0.0
H1971 H 0.58899 0.84094 0.66972 0.0
H1972 H 0.57764 0.86247 0.68805 0.0
H1973 H 0.55914 0.88363 0.60249 0.0
H1974 H 0.5207 0.93836 0.65587 0.0
H1975 H 0.54218 0.92749 0.63483 0.0
H1976 H 0.57596 0.91654 0.71975 0.0
C1977 C 0.58413 0.86435 0.66197 0.0
C1978 C 0.56309 0.89102 0.62788 0.0
C1979 C 0.59049 0.85194 0.65134 0.0
C1980 C 0.52675 0.93282 0.67503 0.0
C1981 C 0.53887 0.92635 0.663 0.0
C1982 C 0.572 0.90935 0.69419 0.0
C1983 C 0.58539 0.87853 0.63871 0.0
C1984 C 0.57695 0.8904 0.64939 0.0
C1985 C 0.54628 0.91823 0.68687 0.0
C1986 C 0.55754 0.90941 0.67333 0.0
H1987 H 0.60673 0.86981 0.56824 0.0
H1988 H 0.59482 0.89127 0.58648 0.0
H1989 H 0.59217 0.89959 0.69953 0.0
H1990 H 0.52649 0.92354 0.76365 0.0
H1991 H 0.54709 0.91138 0.74274 0.0
C1992 C 0.14661 0.73578 0.6587 0.0
C1993 C 0.14581 0.74207 0.62411 0.0
C1994 C 0.13417 0.71694 0.669 0.0
C1995 C 0.1086 0.669 0.63393 0.0
H1996 H 0.08187 0.65599 0.72452 0.0
C1997 C 0.06565 0.5906 0.67912 0.0
C1998 C 0.06625 0.58671 0.71537 0.0
C1999 C 0.0724 0.60931 0.66746 0.0
C2000 C 0.0894 0.65933 0.69933 0.0
H2001 H 0.13109 0.7336 0.57335 0.0
H2002 H 0.10957 0.70022 0.59114 0.0
H2003 H 0.09906 0.68925 0.70481 0.0
H2004 H 0.07415 0.59901 0.76808 0.0
H2005 H 0.08674 0.63197 0.74784 0.0
H2006 H 0.10008 0.63948 0.62905 0.0
C2007 C 0.11977 0.71008 0.6103 0.0
C2008 C 0.09911 0.67839 0.68793 0.0
C2009 C 0.13201 0.72915 0.60017 0.0
C2010 C 0.07333 0.60174 0.74004 0.0
C2011 C 0.08048 0.62059 0.72831 0.0
C2012 C 0.09919 0.65 0.64555 0.0
C2013 C 0.12083 0.7038 0.6448 0.0
C2014 C 0.10894 0.68343 0.65526 0.0
C2015 C 0.08042 0.62469 0.69171 0.0
C2016 C 0.08956 0.64487 0.67858 0.0
H2017 H 0.15698 0.74542 0.67788 0.0
H2018 H 0.13543 0.71247 0.69562 0.0
H2019 H 0.11632 0.67252 0.60891 0.0
H2020 H 0.06022 0.57913 0.65968 0.0
H2021 H 0.07159 0.6117 0.63927 0.0
C2022 C 0.40487 0.48089 0.67789 0.0
C2023 C 0.41106 0.48056 0.71279 0.0
C2024 C 0.38607 0.4683 0.66763 0.0
C2025 C 0.33841 0.44463 0.70173 0.0
H2026 H 0.32476 0.41453 0.61487 0.0
C2027 C 0.26015 0.40287 0.65656 0.0
C2028 C 0.25629 0.40186 0.61992 0.0
C2029 C 0.27868 0.40933 0.66879 0.0
C2030 C 0.32828 0.42302 0.63896 0.0
H2031 H 0.40254 0.46661 0.7642 0.0
H2032 H 0.36915 0.4449 0.74652 0.0
H2033 H 0.35798 0.43154 0.6348 0.0
H2034 H 0.26851 0.4064 0.56713 0.0
H2035 H 0.30125 0.41873 0.58825 0.0
H2036 H 0.30926 0.43743 0.70503 0.0
C2037 C 0.37909 0.45477 0.72707 0.0
C2038 C 0.3473 0.43259 0.65053 0.0
C2039 C 0.39813 0.46711 0.73714 0.0
C2040 C 0.27119 0.40694 0.59553 0.0
C2041 C 0.28993 0.41392 0.60778 0.0
C2042 C 0.31949 0.43541 0.68983 0.0
C2043 C 0.3729 0.45536 0.69224 0.0
C2044 C 0.35255 0.44358 0.68189 0.0
C2045 C 0.294 0.41553 0.64468 0.0
C2046 C 0.31411 0.42454 0.65812 0.0
H2047 H 0.41458 0.49099 0.65846 0.0
H2048 H 0.38165 0.46916 0.64075 0.0
H2049 H 0.34215 0.45329 0.72566 0.0
H2050 H 0.24878 0.39882 0.67586 0.0
H2051 H 0.28097 0.40969 0.69729 0.0
C2052 C 0.13457 0.39722 0.62691 0.0
C2053 C 0.15418 0.40959 0.62067 0.0
C2054 C 0.12296 0.40447 0.63873 0.0
C2055 C 0.12625 0.44358 0.6915 0.0
H2056 H 0.08025 0.43609 0.6448 0.0
C2057 C 0.0955 0.49248 0.72033 0.0
C2058 C 0.07576 0.48547 0.7176 0.0
C2059 C 0.10322 0.48095 0.71159 0.0
C2060 C 0.09283 0.43802 0.65868 0.0
H2061 H 0.17666 0.4394 0.62037 0.0
H2062 H 0.15656 0.45179 0.64151 0.0
H2063 H 0.09681 0.41992 0.62176 0.0
H2064 H 0.04854 0.46043 0.70503 0.0
H2065 H 0.062 0.44005 0.6907 0.0
H2066 H 0.12242 0.46143 0.72862 0.0
C2067 C 0.15021 0.43653 0.63737 0.0
C2068 C 0.10234 0.42881 0.64531 0.0
C2069 C 0.16169 0.42938 0.62508 0.0
C2070 C 0.06382 0.46631 0.70735 0.0
C2071 C 0.07157 0.45468 0.6988 0.0
C2072 C 0.11665 0.45252 0.70517 0.0
C2073 C 0.13085 0.42414 0.64502 0.0
C2074 C 0.11942 0.43195 0.66107 0.0
C2075 C 0.09143 0.46196 0.70022 0.0
C2076 C 0.10011 0.45034 0.68836 0.0
H2077 H 0.12832 0.38192 0.62372 0.0
H2078 H 0.10803 0.39465 0.64436 0.0
H2079 H 0.13924 0.44597 0.7045 0.0
H2080 H 0.10518 0.50716 0.728 0.0
H2081 H 0.11859 0.48726 0.71248 0.0
C2082 C 0.53298 0.59746 0.70385 0.0
C2083 C 0.51342 0.59035 0.71034 0.0
C2084 C 0.54462 0.61622 0.69151 0.0
C2085 C 0.54142 0.65162 0.63755 0.0
H2086 H 0.58733 0.69066 0.68382 0.0
C2087 C 0.57189 0.73105 0.60689 0.0
C2088 C 0.59159 0.74394 0.60987 0.0
C2089 C 0.56427 0.71183 0.61583 0.0
C2090 C 0.57479 0.67984 0.67005 0.0
H2091 H 0.49105 0.5978 0.71047 0.0
H2092 H 0.5112 0.63012 0.68841 0.0
H2093 H 0.5708 0.65809 0.70775 0.0
H2094 H 0.61887 0.74643 0.62299 0.0
H2095 H 0.60558 0.71264 0.63766 0.0
H2096 H 0.54525 0.67297 0.59967 0.0
C2097 C 0.5175 0.62119 0.69281 0.0
C2098 C 0.56529 0.66123 0.68393 0.0
C2099 C 0.50599 0.60267 0.70563 0.0
C2100 C 0.60361 0.73691 0.62045 0.0
C2101 C 0.59597 0.71755 0.62921 0.0
C2102 C 0.55102 0.67005 0.62337 0.0
C2103 C 0.5368 0.62803 0.68493 0.0
C2104 C 0.54824 0.64712 0.66834 0.0
C2105 C 0.57613 0.70483 0.62766 0.0
C2106 C 0.56752 0.6846 0.64 0.0
H2107 H 0.53917 0.58838 0.70725 0.0
H2108 H 0.55951 0.62123 0.68571 0.0
H2109 H 0.52845 0.64088 0.6247 0.0
H2110 H 0.56215 0.73591 0.59892 0.0
H2111 H 0.54891 0.70266 0.61481 0.0
C2112 C 0.26797 0.83679 0.62721 0.0
C2113 C 0.2559 0.84459 0.62382 0.0
C2114 C 0.28677 0.84803 0.63887 0.0
C2115 C 0.32741 0.89586 0.64686 0.0
H2116 H 0.34066 0.87479 0.72762 0.0
C2117 C 0.39854 0.902 0.71793 0.0
C2118 C 0.41122 0.92181 0.71601 0.0
C2119 C 0.37925 0.89431 0.70964 0.0
C2120 C 0.33733 0.88084 0.70486 0.0
H2121 H 0.25463 0.87071 0.62803 0.0
H2122 H 0.28792 0.89056 0.64759 0.0
H2123 H 0.30815 0.85829 0.70462 0.0
H2124 H 0.41327 0.94915 0.70527 0.0
H2125 H 0.37937 0.93573 0.69174 0.0
H2126 H 0.3568 0.91795 0.64594 0.0
C2127 C 0.28253 0.8756 0.64164 0.0
C2128 C 0.31865 0.8714 0.69182 0.0
C2129 C 0.26351 0.86424 0.63042 0.0
C2130 C 0.40392 0.93381 0.70696 0.0
C2131 C 0.3845 0.9261 0.69886 0.0
C2132 C 0.34625 0.9052 0.65959 0.0
C2133 C 0.29412 0.86743 0.64693 0.0
C2134 C 0.31358 0.87861 0.66231 0.0
C2135 C 0.37195 0.90619 0.69955 0.0
C2136 C 0.35155 0.89758 0.68834 0.0
H2137 H 0.26274 0.82179 0.62214 0.0
H2138 H 0.29551 0.84145 0.6422 0.0
H2139 H 0.32385 0.90168 0.62402 0.0
H2140 H 0.40361 0.89226 0.72466 0.0
H2141 H 0.37021 0.87891 0.70992 0.0
loop_
_geom_bond_atom_site_label_1
_geom_bond_atom_site_label_2
_geom_bond_distance
_geom_bond_site_symmetry_2
_ccdc_geom_bond_type
Co0 O2 2.143 . S
Co0 O8 2.074 . S
Co0 O11 2.093 . S
Co0 O24 2.097 . S
Co0 N41 2.151 . S
Co0 N49 2.214 . S
Co1 O2 2.160 . S
Co1 O7 2.058 1_554 S
Co1 O17 2.057 . S
Co1 O32 2.037 . S
Co1 N36 2.145 1_554 S
Co1 N57 2.257 . S
O2 Co0 2.143 . S
O2 Co1 2.160 . S
C3 O4 1.278 . S
C3 O11 1.224 . S
O4 C3 1.278 . S
C5 O6 1.245 . S
C5 O17 1.232 . S
O6 C5 1.245 . S
O7 Co1 2.058 1_556 S
O7 C33 1.269 . S
O8 Co0 2.074 . S
O8 C33 1.257 1_554 S
H9 C34 0.930 . S
H10 C40 0.930 . S
O11 Co0 2.093 . S
O11 C3 1.224 . S
H12 C44 0.929 . S
H13 C46 0.930 . S
H14 C47 0.930 . S
H15 C45 0.929 . S
H16 C48 0.928 . S
O17 Co1 2.057 . S
O17 C5 1.232 . S
H18 C37 0.929 . S
H19 C38 0.929 . S
H20 C50 0.931 . S
H21 C42 0.929 . S
H22 C51 0.930 . S
H23 C43 0.931 . S
O24 Co0 2.097 . S
O24 C52 1.214 . S
H25 C53 0.929 . S
H26 C54 0.929 . S
H27 C55 0.930 . S
H28 C56 0.929 . S
H29 C58 0.930 . S
H30 C35 0.930 . S
H31 C39 0.930 . S
O32 Co1 2.037 . S
O32 C52 1.234 . S
C33 O7 1.269 . S
C33 O8 1.257 1_556 S
C34 H9 0.930 . S
C34 C37 1.388 . S
C34 C39 1.418 . S
C35 H30 0.930 . S
C35 C38 1.404 . S
C35 C39 1.353 . S
N36 Co1 2.145 1_556 S
N36 C37 1.397 . S
N36 C38 1.334 . S
C37 H18 0.929 . S
C37 C34 1.388 . S
C37 N36 1.397 . S
C38 H19 0.929 . S
C38 C35 1.404 . S
C38 N36 1.334 . S
C39 H31 0.930 . S
C39 C34 1.418 . S
C39 C35 1.353 . S
C40 H10 0.930 . S
C40 N41 1.330 . S
C40 C42 1.446 . S
N41 Co0 2.151 . S
N41 C40 1.330 . S
N41 C45 1.418 . S
C42 H21 0.929 . S
C42 C40 1.446 . S
C42 C43 1.332 . S
C43 H23 0.931 . S
C43 C42 1.332 . S
C43 C44 1.267 . S
C44 H12 0.929 . S
C44 C43 1.267 . S
C44 C45 1.251 . S
C45 H15 0.929 . S
C45 N41 1.418 . S
C45 C44 1.251 . S
C46 H13 0.930 . S
C46 C48 1.406 . S
C46 C51 1.261 . S
C47 H14 0.930 . S
C47 N49 1.325 . S
C47 C50 1.357 . S
C48 H16 0.928 . S
C48 C46 1.406 . S
C48 N49 1.261 . S
N49 Co0 2.214 . S
N49 C47 1.325 . S
N49 C48 1.261 . S
C50 H20 0.931 . S
C50 C47 1.357 . S
C50 C51 1.312 . S
C51 H22 0.930 . S
C51 C46 1.261 . S
C51 C50 1.312 . S
C52 O24 1.214 . S
C52 O32 1.234 . S
C53 H25 0.929 . S
C53 C56 1.391 . S
C53 C58 1.391 . S
C54 H26 0.929 . S
C54 C55 1.390 . S
C54 N57 1.391 . S
C55 H27 0.930 . S
C55 C54 1.390 . S
C55 C56 1.392 . S
C56 H28 0.929 . S
C56 C53 1.391 . S
C56 C55 1.392 . S
N57 Co1 2.257 . S
N57 C54 1.391 . S
N57 C58 1.388 . S
C58 H29 0.930 . S
C58 C53 1.391 . S
C58 N57 1.388 . S
Co59 O61 2.143 . S
Co59 O67 2.074 . S
Co59 O70 2.093 . S
Co59 O83 2.097 1_554 S
Co59 N100 2.151 . S
Co59 N108 2.214 1_554 S
Co60 O61 2.160 . S
Co60 O66 2.058 . S
Co60 O76 2.057 . S
Co60 O91 2.037 . S
Co60 N95 2.145 . S
Co60 N116 2.257 . S
O61 Co59 2.143 . S
O61 Co60 2.160 . S
C62 O63 1.278 . S
C62 O70 1.224 . S
O63 C62 1.278 . S
C64 O65 1.245 . S
C64 O76 1.232 . S
O65 C64 1.245 . S
O66 Co60 2.058 . S
O66 C92 1.269 . S
O67 Co59 2.074 . S
O67 C92 1.257 . S
H68 C93 0.930 . S
H69 C99 0.930 . S
O70 Co59 2.093 . S
O70 C62 1.224 . S
H71 C103 0.929 . S
H72 C105 0.930 . S
H73 C106 0.930 . S
H74 C104 0.929 . S
H75 C107 0.928 . S
O76 Co60 2.057 . S
O76 C64 1.232 . S
H77 C96 0.929 . S
H78 C97 0.929 . S
H79 C109 0.931 . S
H80 C101 0.929 . S
H81 C110 0.930 . S
H82 C102 0.931 . S
O83 Co59 2.097 1_556 S
O83 C111 1.214 . S
H84 C112 0.929 . S
H85 C113 0.929 . S
H86 C114 0.930 . S
H87 C115 0.929 . S
H88 C117 0.930 . S
H89 C94 0.930 . S
H90 C98 0.930 . S
O91 Co60 2.037 . S
O91 C111 1.234 1_554 S
C92 O66 1.269 . S
C92 O67 1.257 . S
C93 H68 0.930 . S
C93 C96 1.388 . S
C93 C98 1.418 . S
C94 H89 0.930 . S
C94 C97 1.404 . S
C94 C98 1.353 . S
N95 Co60 2.145 . S
N95 C96 1.397 . S
N95 C97 1.334 . S
C96 H77 0.929 . S
C96 C93 1.388 . S
C96 N95 1.397 . S
C97 H78 0.929 . S
C97 C94 1.404 . S
C97 N95 1.334 . S
C98 H90 0.930 . S
C98 C93 1.418 . S
C98 C94 1.353 . S
C99 H69 0.930 . S
C99 N100 1.330 . S
C99 C101 1.446 . S
N100 Co59 2.151 . S
N100 C99 1.330 . S
N100 C104 1.418 . S
C101 H80 0.929 . S
C101 C99 1.446 . S
C101 C102 1.332 . S
C102 H82 0.931 . S
C102 C101 1.332 . S
C102 C103 1.267 . S
C103 H71 0.929 . S
C103 C102 1.267 . S
C103 C104 1.251 . S
C104 H74 0.929 . S
C104 N100 1.418 . S
C104 C103 1.251 . S
C105 H72 0.930 . S
C105 C107 1.406 . S
C105 C110 1.261 . S
C106 H73 0.930 . S
C106 N108 1.325 . S
C106 C109 1.357 . S
C107 H75 0.928 . S
C107 C105 1.406 . S
C107 N108 1.261 . S
N108 Co59 2.214 1_556 S
N108 C106 1.325 . S
N108 C107 1.261 . S
C109 H79 0.931 . S
C109 C106 1.357 . S
C109 C110 1.312 . S
C110 H81 0.930 . S
C110 C105 1.261 . S
C110 C109 1.312 . S
C111 O83 1.214 . S
C111 O91 1.234 1_556 S
C112 H84 0.929 . S
C112 C115 1.391 . S
C112 C117 1.391 . S
C113 H85 0.929 . S
C113 C114 1.390 . S
C113 N116 1.391 . S
C114 H86 0.930 . S
C114 C113 1.390 . S
C114 C115 1.392 . S
C115 H87 0.929 . S
C115 C112 1.391 . S
C115 C114 1.392 . S
N116 Co60 2.257 . S
N116 C113 1.391 . S
N116 C117 1.388 . S
C117 H88 0.930 . S
C117 C112 1.391 . S
C117 N116 1.388 . S
Co118 O120 2.143 . S
Co118 O126 2.074 . S
Co118 O129 2.093 . S
Co118 O142 2.097 1_554 S
Co118 N159 2.151 . S
Co118 N167 2.214 1_554 S
Co119 O120 2.160 . S
Co119 O125 2.058 . S
Co119 O135 2.057 . S
Co119 O150 2.037 . S
Co119 N154 2.145 . S
Co119 N175 2.257 . S
O120 Co118 2.143 . S
O120 Co119 2.160 . S
C121 O122 1.278 . S
C121 O129 1.224 . S
O122 C121 1.278 . S
C123 O124 1.245 . S
C123 O135 1.232 . S
O124 C123 1.245 . S
O125 Co119 2.058 . S
O125 C151 1.269 . S
O126 Co118 2.074 . S
O126 C151 1.257 . S
H127 C152 0.930 . S
H128 C158 0.930 . S
O129 Co118 2.093 . S
O129 C121 1.224 . S
H130 C162 0.929 . S
H131 C164 0.930 . S
H132 C165 0.930 . S
H133 C163 0.929 . S
H134 C166 0.928 . S
O135 Co119 2.057 . S
O135 C123 1.232 . S
H136 C155 0.929 . S
H137 C156 0.929 . S
H138 C168 0.931 . S
H139 C160 0.929 . S
H140 C169 0.930 . S
H141 C161 0.931 . S
O142 Co118 2.097 1_556 S
O142 C170 1.214 . S
H143 C171 0.929 . S
H144 C172 0.929 . S
H145 C173 0.930 . S
H146 C174 0.929 . S
H147 C176 0.930 . S
H148 C153 0.930 . S
H149 C157 0.930 . S
O150 Co119 2.037 . S
O150 C170 1.234 1_554 S
C151 O125 1.269 . S
C151 O126 1.257 . S
C152 H127 0.930 . S
C152 C155 1.388 . S
C152 C157 1.418 . S
C153 H148 0.930 . S
C153 C156 1.404 . S
C153 C157 1.353 . S
N154 Co119 2.145 . S
N154 C155 1.397 . S
N154 C156 1.334 . S
C155 H136 0.929 . S
C155 C152 1.388 . S
C155 N154 1.397 . S
C156 H137 0.929 . S
C156 C153 1.404 . S
C156 N154 1.334 . S
C157 H149 0.930 . S
C157 C152 1.418 . S
C157 C153 1.353 . S
C158 H128 0.930 . S
C158 N159 1.330 . S
C158 C160 1.446 . S
N159 Co118 2.151 . S
N159 C158 1.330 . S
N159 C163 1.418 . S
C160 H139 0.929 . S
C160 C158 1.446 . S
C160 C161 1.332 . S
C161 H141 0.931 . S
C161 C160 1.332 . S
C161 C162 1.267 . S
C162 H130 0.929 . S
C162 C161 1.267 . S
C162 C163 1.251 . S
C163 H133 0.929 . S
C163 N159 1.418 . S
C163 C162 1.251 . S
C164 H131 0.930 . S
C164 C166 1.406 . S
C164 C169 1.261 . S
C165 H132 0.930 . S
C165 N167 1.325 . S
C165 C168 1.357 . S
C166 H134 0.928 . S
C166 C164 1.406 . S
C166 N167 1.261 . S
N167 Co118 2.214 1_556 S
N167 C165 1.325 . S
N167 C166 1.261 . S
C168 H138 0.931 . S
C168 C165 1.357 . S
C168 C169 1.312 . S
C169 H140 0.930 . S
C169 C164 1.261 . S
C169 C168 1.312 . S
C170 O142 1.214 . S
C170 O150 1.234 1_556 S
C171 H143 0.929 . S
C171 C174 1.391 . S
C171 C176 1.391 . S
C172 H144 0.929 . S
C172 C173 1.390 . S
C172 N175 1.391 . S
C173 H145 0.930 . S
C173 C172 1.390 . S
C173 C174 1.392 . S
C174 H146 0.929 . S
C174 C171 1.391 . S
C174 C173 1.392 . S
N175 Co119 2.257 . S
N175 C172 1.391 . S
N175 C176 1.388 . S
C176 H147 0.930 . S
C176 C171 1.391 . S
C176 N175 1.388 . S
Co177 O179 2.143 . S
Co177 O185 2.074 . S
Co177 O188 2.093 . S
Co177 O201 2.097 1_556 S
Co177 N218 2.151 . S
Co177 N226 2.214 1_556 S
Co178 O179 2.160 . S
Co178 O184 2.058 . S
Co178 O194 2.057 . S
Co178 O209 2.037 . S
Co178 N213 2.145 . S
Co178 N234 2.257 . S
O179 Co177 2.143 . S
O179 Co178 2.160 . S
C180 O181 1.278 . S
C180 O188 1.224 . S
O181 C180 1.278 . S
C182 O183 1.245 . S
C182 O194 1.232 . S
O183 C182 1.245 . S
O184 Co178 2.058 . S
O184 C210 1.269 . S
O185 Co177 2.074 . S
O185 C210 1.257 . S
H186 C211 0.930 . S
H187 C217 0.930 . S
O188 Co177 2.093 . S
O188 C180 1.224 . S
H189 C221 0.929 . S
H190 C223 0.930 . S
H191 C224 0.930 . S
H192 C222 0.929 . S
H193 C225 0.928 . S
O194 Co178 2.057 . S
O194 C182 1.232 . S
H195 C214 0.929 . S
H196 C215 0.929 . S
H197 C227 0.931 . S
H198 C219 0.929 . S
H199 C228 0.930 . S
H200 C220 0.931 . S
O201 Co177 2.097 1_554 S
O201 C229 1.214 . S
H202 C230 0.929 . S
H203 C231 0.929 . S
H204 C232 0.930 . S
H205 C233 0.929 . S
H206 C235 0.930 . S
H207 C212 0.930 . S
H208 C216 0.930 . S
O209 Co178 2.037 . S
O209 C229 1.234 1_556 S
C210 O184 1.269 . S
C210 O185 1.257 . S
C211 H186 0.930 . S
C211 C214 1.388 . S
C211 C216 1.418 . S
C212 H207 0.930 . S
C212 C215 1.404 . S
C212 C216 1.353 . S
N213 Co178 2.145 . S
N213 C214 1.397 . S
N213 C215 1.334 . S
C214 H195 0.929 . S
C214 C211 1.388 . S
C214 N213 1.397 . S
C215 H196 0.929 . S
C215 C212 1.404 . S
C215 N213 1.334 . S
C216 H208 0.930 . S
C216 C211 1.418 . S
C216 C212 1.353 . S
C217 H187 0.930 . S
C217 N218 1.330 . S
C217 C219 1.446 . S
N218 Co177 2.151 . S
N218 C217 1.330 . S
N218 C222 1.418 . S
C219 H198 0.929 . S
C219 C217 1.446 . S
C219 C220 1.332 . S
C220 H200 0.931 . S
C220 C219 1.332 . S
C220 C221 1.267 . S
C221 H189 0.929 . S
C221 C220 1.267 . S
C221 C222 1.251 . S
C222 H192 0.929 . S
C222 N218 1.418 . S
C222 C221 1.251 . S
C223 H190 0.930 . S
C223 C225 1.406 . S
C223 C228 1.261 . S
C224 H191 0.930 . S
C224 N226 1.325 . S
C224 C227 1.357 . S
C225 H193 0.928 . S
C225 C223 1.406 . S
C225 N226 1.261 . S
N226 Co177 2.214 1_554 S
N226 C224 1.325 . S
N226 C225 1.261 . S
C227 H197 0.931 . S
C227 C224 1.357 . S
C227 C228 1.312 . S
C228 H199 0.930 . S
C228 C223 1.261 . S
C228 C227 1.312 . S
C229 O201 1.214 . S
C229 O209 1.234 1_554 S
C230 H202 0.929 . S
C230 C233 1.391 . S
C230 C235 1.391 . S
C231 H203 0.929 . S
C231 C232 1.390 . S
C231 N234 1.391 . S
C232 H204 0.930 . S
C232 C231 1.390 . S
C232 C233 1.392 . S
C233 H205 0.929 . S
C233 C230 1.391 . S
C233 C232 1.392 . S
N234 Co178 2.257 . S
N234 C231 1.391 . S
N234 C235 1.388 . S
C235 H206 0.930 . S
C235 C230 1.391 . S
C235 N234 1.388 . S
Co236 O238 2.143 . S
Co236 O244 2.074 . S
Co236 O247 2.093 . S
Co236 O260 2.097 1_556 S
Co236 N277 2.151 . S
Co236 N285 2.214 1_556 S
Co237 O238 2.160 . S
Co237 O243 2.058 . S
Co237 O253 2.057 . S
Co237 O268 2.037 . S
Co237 N272 2.145 . S
Co237 N293 2.257 . S
O238 Co236 2.143 . S
O238 Co237 2.160 . S
C239 O240 1.278 . S
C239 O247 1.224 . S
O240 C239 1.278 . S
C241 O242 1.245 . S
C241 O253 1.232 . S
O242 C241 1.245 . S
O243 Co237 2.058 . S
O243 C269 1.269 . S
O244 Co236 2.074 . S
O244 C269 1.257 . S
H245 C270 0.930 . S
H246 C276 0.930 . S
O247 Co236 2.093 . S
O247 C239 1.224 . S
H248 C280 0.929 . S
H249 C282 0.930 . S
H250 C283 0.930 . S
H251 C281 0.929 . S
H252 C284 0.928 . S
O253 Co237 2.057 . S
O253 C241 1.232 . S
H254 C273 0.929 . S
H255 C274 0.929 . S
H256 C286 0.931 . S
H257 C278 0.929 . S
H258 C287 0.930 . S
H259 C279 0.931 . S
O260 Co236 2.097 1_554 S
O260 C288 1.214 . S
H261 C289 0.929 . S
H262 C290 0.929 . S
H263 C291 0.930 . S
H264 C292 0.929 . S
H265 C294 0.930 . S
H266 C271 0.930 . S
H267 C275 0.930 . S
O268 Co237 2.037 . S
O268 C288 1.234 1_556 S
C269 O243 1.269 . S
C269 O244 1.257 . S
C270 H245 0.930 . S
C270 C273 1.388 . S
C270 C275 1.418 . S
C271 H266 0.930 . S
C271 C274 1.404 . S
C271 C275 1.353 . S
N272 Co237 2.145 . S
N272 C273 1.397 . S
N272 C274 1.334 . S
C273 H254 0.929 . S
C273 C270 1.388 . S
C273 N272 1.397 . S
C274 H255 0.929 . S
C274 C271 1.404 . S
C274 N272 1.334 . S
C275 H267 0.930 . S
C275 C270 1.418 . S
C275 C271 1.353 . S
C276 H246 0.930 . S
C276 N277 1.330 . S
C276 C278 1.446 . S
N277 Co236 2.151 . S
N277 C276 1.330 . S
N277 C281 1.418 . S
C278 H257 0.929 . S
C278 C276 1.446 . S
C278 C279 1.332 . S
C279 H259 0.931 . S
C279 C278 1.332 . S
C279 C280 1.267 . S
C280 H248 0.929 . S
C280 C279 1.267 . S
C280 C281 1.251 . S
C281 H251 0.929 . S
C281 N277 1.418 . S
C281 C280 1.251 . S
C282 H249 0.930 . S
C282 C284 1.406 . S
C282 C287 1.261 . S
C283 H250 0.930 . S
C283 N285 1.325 . S
C283 C286 1.357 . S
C284 H252 0.928 . S
C284 C282 1.406 . S
C284 N285 1.261 . S
N285 Co236 2.214 1_554 S
N285 C283 1.325 . S
N285 C284 1.261 . S
C286 H256 0.931 . S
C286 C283 1.357 . S
C286 C287 1.312 . S
C287 H258 0.930 . S
C287 C282 1.261 . S
C287 C286 1.312 . S
C288 O260 1.214 . S
C288 O268 1.234 1_554 S
C289 H261 0.929 . S
C289 C292 1.391 . S
C289 C294 1.391 . S
C290 H262 0.929 . S
C290 C291 1.390 . S
C290 N293 1.391 . S
C291 H263 0.930 . S
C291 C290 1.390 . S
C291 C292 1.392 . S
C292 H264 0.929 . S
C292 C289 1.391 . S
C292 C291 1.392 . S
N293 Co237 2.257 . S
N293 C290 1.391 . S
N293 C294 1.388 . S
C294 H265 0.930 . S
C294 C289 1.391 . S
C294 N293 1.388 . S
Co295 O297 2.143 . S
Co295 O303 2.074 . S
Co295 O306 2.093 . S
Co295 O319 2.097 . S
Co295 N336 2.151 . S
Co295 N344 2.214 . S
Co296 O297 2.160 . S
Co296 O302 2.058 1_556 S
Co296 O312 2.057 . S
Co296 O327 2.037 . S
Co296 N331 2.145 1_556 S
Co296 N352 2.257 . S
O297 Co295 2.143 . S
O297 Co296 2.160 . S
C298 O299 1.278 . S
C298 O306 1.224 . S
O299 C298 1.278 . S
C300 O301 1.245 . S
C300 O312 1.232 . S
O301 C300 1.245 . S
O302 Co296 2.058 1_554 S
O302 C328 1.269 . S
O303 Co295 2.074 . S
O303 C328 1.257 1_556 S
H304 C329 0.930 . S
H305 C335 0.930 . S
O306 Co295 2.093 . S
O306 C298 1.224 . S
H307 C339 0.929 . S
H308 C341 0.930 . S
H309 C342 0.930 . S
H310 C340 0.929 . S
H311 C343 0.928 . S
O312 Co296 2.057 . S
O312 C300 1.232 . S
H313 C332 0.929 . S
H314 C333 0.929 . S
H315 C345 0.931 . S
H316 C337 0.929 . S
H317 C346 0.930 . S
H318 C338 0.931 . S
O319 Co295 2.097 . S
O319 C347 1.214 . S
H320 C348 0.929 . S
H321 C349 0.929 . S
H322 C350 0.930 . S
H323 C351 0.929 . S
H324 C353 0.930 . S
H325 C330 0.930 . S
H326 C334 0.930 . S
O327 Co296 2.037 . S
O327 C347 1.234 . S
C328 O302 1.269 . S
C328 O303 1.257 1_554 S
C329 H304 0.930 . S
C329 C332 1.388 . S
C329 C334 1.418 . S
C330 H325 0.930 . S
C330 C333 1.404 . S
C330 C334 1.353 . S
N331 Co296 2.145 1_554 S
N331 C332 1.397 . S
N331 C333 1.334 . S
C332 H313 0.929 . S
C332 C329 1.388 . S
C332 N331 1.397 . S
C333 H314 0.929 . S
C333 C330 1.404 . S
C333 N331 1.334 . S
C334 H326 0.930 . S
C334 C329 1.418 . S
C334 C330 1.353 . S
C335 H305 0.930 . S
C335 N336 1.330 . S
C335 C337 1.446 . S
N336 Co295 2.151 . S
N336 C335 1.330 . S
N336 C340 1.418 . S
C337 H316 0.929 . S
C337 C335 1.446 . S
C337 C338 1.332 . S
C338 H318 0.931 . S
C338 C337 1.332 . S
C338 C339 1.267 . S
C339 H307 0.929 . S
C339 C338 1.267 . S
C339 C340 1.251 . S
C340 H310 0.929 . S
C340 N336 1.418 . S
C340 C339 1.251 . S
C341 H308 0.930 . S
C341 C343 1.406 . S
C341 C346 1.261 . S
C342 H309 0.930 . S
C342 N344 1.325 . S
C342 C345 1.357 . S
C343 H311 0.928 . S
C343 C341 1.406 . S
C343 N344 1.261 . S
N344 Co295 2.214 . S
N344 C342 1.325 . S
N344 C343 1.261 . S
C345 H315 0.931 . S
C345 C342 1.357 . S
C345 C346 1.312 . S
C346 H317 0.930 . S
C346 C341 1.261 . S
C346 C345 1.312 . S
C347 O319 1.214 . S
C347 O327 1.234 . S
C348 H320 0.929 . S
C348 C351 1.391 . S
C348 C353 1.391 . S
C349 H321 0.929 . S
C349 C350 1.390 . S
C349 N352 1.391 . S
C350 H322 0.930 . S
C350 C349 1.390 . S
C350 C351 1.392 . S
C351 H323 0.929 . S
C351 C348 1.391 . S
C351 C350 1.392 . S
N352 Co296 2.257 . S
N352 C349 1.391 . S
N352 C353 1.388 . S
C353 H324 0.930 . S
C353 C348 1.391 . S
C353 N352 1.388 . S
Co354 O356 2.143 . S
Co354 O362 2.074 . S
Co354 O365 2.093 . S
Co354 O378 2.097 . S
Co354 N395 2.151 . S
Co354 N403 2.214 . S
Co355 O356 2.160 . S
Co355 O361 2.058 . S
Co355 O371 2.057 . S
Co355 O386 2.037 . S
Co355 N390 2.145 . S
Co355 N411 2.257 . S
O356 Co354 2.143 . S
O356 Co355 2.160 . S
C357 O358 1.278 . S
C357 O365 1.224 . S
O358 C357 1.278 . S
C359 O360 1.245 . S
C359 O371 1.232 . S
O360 C359 1.245 . S
O361 Co355 2.058 . S
O361 C387 1.269 . S
O362 Co354 2.074 . S
O362 C387 1.257 . S
H363 C388 0.930 . S
H364 C394 0.930 . S
O365 Co354 2.093 . S
O365 C357 1.224 . S
H366 C398 0.929 . S
H367 C400 0.930 . S
H368 C401 0.930 . S
H369 C399 0.929 . S
H370 C402 0.928 . S
O371 Co355 2.057 . S
O371 C359 1.232 . S
H372 C391 0.929 . S
H373 C392 0.929 . S
H374 C404 0.931 . S
H375 C396 0.929 . S
H376 C405 0.930 . S
H377 C397 0.931 . S
O378 Co354 2.097 . S
O378 C406 1.214 . S
H379 C407 0.929 . S
H380 C408 0.929 . S
H381 C409 0.930 . S
H382 C410 0.929 . S
H383 C412 0.930 . S
H384 C389 0.930 . S
H385 C393 0.930 . S
O386 Co355 2.037 . S
O386 C406 1.234 . S
C387 O361 1.269 . S
C387 O362 1.257 . S
C388 H363 0.930 . S
C388 C391 1.388 . S
C388 C393 1.418 . S
C389 H384 0.930 . S
C389 C392 1.404 . S
C389 C393 1.353 . S
N390 Co355 2.145 . S
N390 C391 1.397 . S
N390 C392 1.334 . S
C391 H372 0.929 . S
C391 C388 1.388 . S
C391 N390 1.397 . S
C392 H373 0.929 . S
C392 C389 1.404 . S
C392 N390 1.334 . S
C393 H385 0.930 . S
C393 C388 1.418 . S
C393 C389 1.353 . S
C394 H364 0.930 . S
C394 N395 1.330 . S
C394 C396 1.446 . S
N395 Co354 2.151 . S
N395 C394 1.330 . S
N395 C399 1.418 . S
C396 H375 0.929 . S
C396 C394 1.446 . S
C396 C397 1.332 . S
C397 H377 0.931 . S
C397 C396 1.332 . S
C397 C398 1.267 . S
C398 H366 0.929 . S
C398 C397 1.267 . S
C398 C399 1.251 . S
C399 H369 0.929 . S
C399 N395 1.418 . S
C399 C398 1.251 . S
C400 H367 0.930 . S
C400 C402 1.406 . S
C400 C405 1.261 . S
C401 H368 0.930 . S
C401 N403 1.325 . S
C401 C404 1.357 . S
C402 H370 0.928 . S
C402 C400 1.406 . S
C402 N403 1.261 . S
N403 Co354 2.214 . S
N403 C401 1.325 . S
N403 C402 1.261 . S
C404 H374 0.931 . S
C404 C401 1.357 . S
C404 C405 1.312 . S
C405 H376 0.930 . S
C405 C400 1.261 . S
C405 C404 1.312 . S
C406 O378 1.214 . S
C406 O386 1.234 . S
C407 H379 0.929 . S
C407 C410 1.391 . S
C407 C412 1.391 . S
C408 H380 0.929 . S
C408 C409 1.390 . S
C408 N411 1.391 . S
C409 H381 0.930 . S
C409 C408 1.390 . S
C409 C410 1.392 . S
C410 H382 0.929 . S
C410 C407 1.391 . S
C410 C409 1.392 . S
N411 Co355 2.257 . S
N411 C408 1.391 . S
N411 C412 1.388 . S
C412 H383 0.930 . S
C412 C407 1.391 . S
C412 N411 1.388 . S
Co413 O415 2.143 . S
Co413 O421 2.074 . S
Co413 O424 2.093 . S
Co413 O437 2.097 . S
Co413 N454 2.151 . S
Co413 N462 2.214 . S
Co414 O415 2.160 . S
Co414 O420 2.058 . S
Co414 O430 2.057 . S
Co414 O445 2.037 . S
Co414 N449 2.145 . S
Co414 N470 2.257 . S
O415 Co413 2.143 . S
O415 Co414 2.160 . S
C416 O417 1.278 . S
C416 O424 1.224 . S
O417 C416 1.278 . S
C418 O419 1.245 . S
C418 O430 1.232 . S
O419 C418 1.245 . S
O420 Co414 2.058 . S
O420 C446 1.269 . S
O421 Co413 2.074 . S
O421 C446 1.257 . S
H422 C447 0.930 . S
H423 C453 0.930 . S
O424 Co413 2.093 . S
O424 C416 1.224 . S
H425 C457 0.929 . S
H426 C459 0.930 . S
H427 C460 0.930 . S
H428 C458 0.929 . S
H429 C461 0.928 . S
O430 Co414 2.057 . S
O430 C418 1.232 . S
H431 C450 0.929 . S
H432 C451 0.929 . S
H433 C463 0.931 . S
H434 C455 0.929 . S
H435 C464 0.930 . S
H436 C456 0.931 . S
O437 Co413 2.097 . S
O437 C465 1.214 . S
H438 C466 0.929 . S
H439 C467 0.929 . S
H440 C468 0.930 . S
H441 C469 0.929 . S
H442 C471 0.930 . S
H443 C448 0.930 . S
H444 C452 0.930 . S
O445 Co414 2.037 . S
O445 C465 1.234 . S
C446 O420 1.269 . S
C446 O421 1.257 . S
C447 H422 0.930 . S
C447 C450 1.388 . S
C447 C452 1.418 . S
C448 H443 0.930 . S
C448 C451 1.404 . S
C448 C452 1.353 . S
N449 Co414 2.145 . S
N449 C450 1.397 . S
N449 C451 1.334 . S
C450 H431 0.929 . S
C450 C447 1.388 . S
C450 N449 1.397 . S
C451 H432 0.929 . S
C451 C448 1.404 . S
C451 N449 1.334 . S
C452 H444 0.930 . S
C452 C447 1.418 . S
C452 C448 1.353 . S
C453 H423 0.930 . S
C453 N454 1.330 . S
C453 C455 1.446 . S
N454 Co413 2.151 . S
N454 C453 1.330 . S
N454 C458 1.418 . S
C455 H434 0.929 . S
C455 C453 1.446 . S
C455 C456 1.332 . S
C456 H436 0.931 . S
C456 C455 1.332 . S
C456 C457 1.267 . S
C457 H425 0.929 . S
C457 C456 1.267 . S
C457 C458 1.251 . S
C458 H428 0.929 . S
C458 N454 1.418 . S
C458 C457 1.251 . S
C459 H426 0.930 . S
C459 C461 1.406 . S
C459 C464 1.261 . S
C460 H427 0.930 . S
C460 N462 1.325 . S
C460 C463 1.357 . S
C461 H429 0.928 . S
C461 C459 1.406 . S
C461 N462 1.261 . S
N462 Co413 2.214 . S
N462 C460 1.325 . S
N462 C461 1.261 . S
C463 H433 0.931 . S
C463 C460 1.357 . S
C463 C464 1.312 . S
C464 H435 0.930 . S
C464 C459 1.261 . S
C464 C463 1.312 . S
C465 O437 1.214 . S
C465 O445 1.234 . S
C466 H438 0.929 . S
C466 C469 1.391 . S
C466 C471 1.391 . S
C467 H439 0.929 . S
C467 C468 1.390 . S
C467 N470 1.391 . S
C468 H440 0.930 . S
C468 C467 1.390 . S
C468 C469 1.392 . S
C469 H441 0.929 . S
C469 C466 1.391 . S
C469 C468 1.392 . S
N470 Co414 2.257 . S
N470 C467 1.391 . S
N470 C471 1.388 . S
C471 H442 0.930 . S
C471 C466 1.391 . S
C471 N470 1.388 . S
Co472 O474 2.143 . S
Co472 O480 2.074 . S
Co472 O483 2.093 . S
Co472 O496 2.097 . S
Co472 N513 2.151 . S
Co472 N521 2.214 . S
Co473 O474 2.160 . S
Co473 O479 2.058 . S
Co473 O489 2.057 . S
Co473 O504 2.037 . S
Co473 N508 2.145 . S
Co473 N529 2.257 . S
O474 Co472 2.143 . S
O474 Co473 2.160 . S
C475 O476 1.278 . S
C475 O483 1.224 . S
O476 C475 1.278 . S
C477 O478 1.245 . S
C477 O489 1.232 . S
O478 C477 1.245 . S
O479 Co473 2.058 . S
O479 C505 1.269 . S
O480 Co472 2.074 . S
O480 C505 1.257 . S
H481 C506 0.930 . S
H482 C512 0.930 . S
O483 Co472 2.093 . S
O483 C475 1.224 . S
H484 C516 0.929 . S
H485 C518 0.930 . S
H486 C519 0.930 . S
H487 C517 0.929 . S
H488 C520 0.928 . S
O489 Co473 2.057 . S
O489 C477 1.232 . S
H490 C509 0.929 . S
H491 C510 0.929 . S
H492 C522 0.931 . S
H493 C514 0.929 . S
H494 C523 0.930 . S
H495 C515 0.931 . S
O496 Co472 2.097 . S
O496 C524 1.214 . S
H497 C525 0.929 . S
H498 C526 0.929 . S
H499 C527 0.930 . S
H500 C528 0.929 . S
H501 C530 0.930 . S
H502 C507 0.930 . S
H503 C511 0.930 . S
O504 Co473 2.037 . S
O504 C524 1.234 . S
C505 O479 1.269 . S
C505 O480 1.257 . S
C506 H481 0.930 . S
C506 C509 1.388 . S
C506 C511 1.418 . S
C507 H502 0.930 . S
C507 C510 1.404 . S
C507 C511 1.353 . S
N508 Co473 2.145 . S
N508 C509 1.397 . S
N508 C510 1.334 . S
C509 H490 0.929 . S
C509 C506 1.388 . S
C509 N508 1.397 . S
C510 H491 0.929 . S
C510 C507 1.404 . S
C510 N508 1.334 . S
C511 H503 0.930 . S
C511 C506 1.418 . S
C511 C507 1.353 . S
C512 H482 0.930 . S
C512 N513 1.330 . S
C512 C514 1.446 . S
N513 Co472 2.151 . S
N513 C512 1.330 . S
N513 C517 1.418 . S
C514 H493 0.929 . S
C514 C512 1.446 . S
C514 C515 1.332 . S
C515 H495 0.931 . S
C515 C514 1.332 . S
C515 C516 1.267 . S
C516 H484 0.929 . S
C516 C515 1.267 . S
C516 C517 1.251 . S
C517 H487 0.929 . S
C517 N513 1.418 . S
C517 C516 1.251 . S
C518 H485 0.930 . S
C518 C520 1.406 . S
C518 C523 1.261 . S
C519 H486 0.930 . S
C519 N521 1.325 . S
C519 C522 1.357 . S
C520 H488 0.928 . S
C520 C518 1.406 . S
C520 N521 1.261 . S
N521 Co472 2.214 . S
N521 C519 1.325 . S
N521 C520 1.261 . S
C522 H492 0.931 . S
C522 C519 1.357 . S
C522 C523 1.312 . S
C523 H494 0.930 . S
C523 C518 1.261 . S
C523 C522 1.312 . S
C524 O496 1.214 . S
C524 O504 1.234 . S
C525 H497 0.929 . S
C525 C528 1.391 . S
C525 C530 1.391 . S
C526 H498 0.929 . S
C526 C527 1.390 . S
C526 N529 1.391 . S
C527 H499 0.930 . S
C527 C526 1.390 . S
C527 C528 1.392 . S
C528 H500 0.929 . S
C528 C525 1.391 . S
C528 C527 1.392 . S
N529 Co473 2.257 . S
N529 C526 1.391 . S
N529 C530 1.388 . S
C530 H501 0.930 . S
C530 C525 1.391 . S
C530 N529 1.388 . S
Co531 O533 2.143 . S
Co531 O539 2.074 . S
Co531 O542 2.093 . S
Co531 O555 2.097 . S
Co531 N572 2.151 . S
Co531 N580 2.214 . S
Co532 O533 2.160 . S
Co532 O538 2.058 . S
Co532 O548 2.057 . S
Co532 O563 2.037 . S
Co532 N567 2.145 1_655 S
Co532 N588 2.257 1_655 S
O533 Co531 2.143 . S
O533 Co532 2.160 . S
C534 O535 1.278 . S
C534 O542 1.224 . S
O535 C534 1.278 . S
C536 O537 1.245 . S
C536 O548 1.232 . S
O537 C536 1.245 . S
O538 Co532 2.058 . S
O538 C564 1.269 . S
O539 Co531 2.074 . S
O539 C564 1.257 . S
H540 C565 0.930 . S
H541 C571 0.930 . S
O542 Co531 2.093 . S
O542 C534 1.224 . S
H543 C575 0.929 . S
H544 C577 0.930 . S
H545 C578 0.930 . S
H546 C576 0.929 . S
H547 C579 0.928 . S
O548 Co532 2.057 . S
O548 C536 1.232 . S
H549 C568 0.929 . S
H550 C569 0.929 . S
H551 C581 0.931 . S
H552 C573 0.929 . S
H553 C582 0.930 . S
H554 C574 0.931 . S
O555 Co531 2.097 . S
O555 C583 1.214 . S
H556 C584 0.929 . S
H557 C585 0.929 . S
H558 C586 0.930 . S
H559 C587 0.929 . S
H560 C589 0.930 . S
H561 C566 0.930 . S
H562 C570 0.930 . S
O563 Co532 2.037 . S
O563 C583 1.234 . S
C564 O538 1.269 . S
C564 O539 1.257 . S
C565 H540 0.930 . S
C565 C568 1.388 . S
C565 C570 1.418 . S
C566 H561 0.930 . S
C566 C569 1.404 . S
C566 C570 1.353 . S
N567 Co532 2.145 1_455 S
N567 C568 1.397 . S
N567 C569 1.334 . S
C568 H549 0.929 . S
C568 C565 1.388 . S
C568 N567 1.397 . S
C569 H550 0.929 . S
C569 C566 1.404 . S
C569 N567 1.334 . S
C570 H562 0.930 . S
C570 C565 1.418 . S
C570 C566 1.353 . S
C571 H541 0.930 . S
C571 N572 1.330 . S
C571 C573 1.446 . S
N572 Co531 2.151 . S
N572 C571 1.330 . S
N572 C576 1.418 . S
C573 H552 0.929 . S
C573 C571 1.446 . S
C573 C574 1.332 . S
C574 H554 0.931 . S
C574 C573 1.332 . S
C574 C575 1.267 . S
C575 H543 0.929 . S
C575 C574 1.267 . S
C575 C576 1.251 . S
C576 H546 0.929 . S
C576 N572 1.418 . S
C576 C575 1.251 . S
C577 H544 0.930 . S
C577 C579 1.406 . S
C577 C582 1.261 . S
C578 H545 0.930 . S
C578 N580 1.325 . S
C578 C581 1.357 . S
C579 H547 0.928 . S
C579 C577 1.406 . S
C579 N580 1.261 . S
N580 Co531 2.214 . S
N580 C578 1.325 . S
N580 C579 1.261 . S
C581 H551 0.931 . S
C581 C578 1.357 . S
C581 C582 1.312 . S
C582 H553 0.930 . S
C582 C577 1.261 . S
C582 C581 1.312 . S
C583 O555 1.214 . S
C583 O563 1.234 . S
C584 H556 0.929 . S
C584 C587 1.391 . S
C584 C589 1.391 1_455 S
C585 H557 0.929 . S
C585 C586 1.390 . S
C585 N588 1.391 . S
C586 H558 0.930 . S
C586 C585 1.390 . S
C586 C587 1.392 . S
C587 H559 0.929 . S
C587 C584 1.391 . S
C587 C586 1.392 . S
N588 Co532 2.257 1_455 S
N588 C585 1.391 . S
N588 C589 1.388 1_455 S
C589 H560 0.930 . S
C589 C584 1.391 1_655 S
C589 N588 1.388 1_655 S
Co590 O592 2.143 . S
Co590 O598 2.074 . S
Co590 O601 2.093 . S
Co590 O614 2.097 . S
Co590 N631 2.151 . S
Co590 N639 2.214 . S
Co591 O592 2.160 . S
Co591 O597 2.058 . S
Co591 O607 2.057 . S
Co591 O622 2.037 . S
Co591 N626 2.145 . S
Co591 N647 2.257 . S
O592 Co590 2.143 . S
O592 Co591 2.160 . S
C593 O594 1.278 . S
C593 O601 1.224 . S
O594 C593 1.278 . S
C595 O596 1.245 . S
C595 O607 1.232 . S
O596 C595 1.245 . S
O597 Co591 2.058 . S
O597 C623 1.269 . S
O598 Co590 2.074 . S
O598 C623 1.257 . S
H599 C624 0.930 . S
H600 C630 0.930 . S
O601 Co590 2.093 . S
O601 C593 1.224 . S
H602 C634 0.929 . S
H603 C636 0.930 . S
H604 C637 0.930 . S
H605 C635 0.929 . S
H606 C638 0.928 . S
O607 Co591 2.057 . S
O607 C595 1.232 . S
H608 C627 0.929 . S
H609 C628 0.929 . S
H610 C640 0.931 . S
H611 C632 0.929 . S
H612 C641 0.930 . S
H613 C633 0.931 . S
O614 Co590 2.097 . S
O614 C642 1.214 . S
H615 C643 0.929 . S
H616 C644 0.929 . S
H617 C645 0.930 . S
H618 C646 0.929 . S
H619 C648 0.930 . S
H620 C625 0.930 . S
H621 C629 0.930 . S
O622 Co591 2.037 . S
O622 C642 1.234 . S
C623 O597 1.269 . S
C623 O598 1.257 . S
C624 H599 0.930 . S
C624 C627 1.388 . S
C624 C629 1.418 . S
C625 H620 0.930 . S
C625 C628 1.404 . S
C625 C629 1.353 . S
N626 Co591 2.145 . S
N626 C627 1.397 . S
N626 C628 1.334 . S
C627 H608 0.929 . S
C627 C624 1.388 . S
C627 N626 1.397 . S
C628 H609 0.929 . S
C628 C625 1.404 . S
C628 N626 1.334 . S
C629 H621 0.930 . S
C629 C624 1.418 . S
C629 C625 1.353 . S
C630 H600 0.930 . S
C630 N631 1.330 . S
C630 C632 1.446 . S
N631 Co590 2.151 . S
N631 C630 1.330 . S
N631 C635 1.418 . S
C632 H611 0.929 . S
C632 C630 1.446 . S
C632 C633 1.332 . S
C633 H613 0.931 . S
C633 C632 1.332 . S
C633 C634 1.267 . S
C634 H602 0.929 . S
C634 C633 1.267 . S
C634 C635 1.251 . S
C635 H605 0.929 . S
C635 N631 1.418 . S
C635 C634 1.251 . S
C636 H603 0.930 . S
C636 C638 1.406 . S
C636 C641 1.261 . S
C637 H604 0.930 . S
C637 N639 1.325 . S
C637 C640 1.357 . S
C638 H606 0.928 . S
C638 C636 1.406 . S
C638 N639 1.261 . S
N639 Co590 2.214 . S
N639 C637 1.325 . S
N639 C638 1.261 . S
C640 H610 0.931 . S
C640 C637 1.357 . S
C640 C641 1.312 . S
C641 H612 0.930 . S
C641 C636 1.261 . S
C641 C640 1.312 . S
C642 O614 1.214 . S
C642 O622 1.234 . S
C643 H615 0.929 . S
C643 C646 1.391 . S
C643 C648 1.391 . S
C644 H616 0.929 . S
C644 C645 1.390 . S
C644 N647 1.391 . S
C645 H617 0.930 . S
C645 C644 1.390 . S
C645 C646 1.392 . S
C646 H618 0.929 . S
C646 C643 1.391 . S
C646 C645 1.392 . S
N647 Co591 2.257 . S
N647 C644 1.391 . S
N647 C648 1.388 . S
C648 H619 0.930 . S
C648 C643 1.391 . S
C648 N647 1.388 . S
Co649 O651 2.143 . S
Co649 O657 2.074 . S
Co649 O660 2.093 . S
Co649 O673 2.097 . S
Co649 N690 2.151 1_545 S
Co649 N698 2.214 1_545 S
Co650 O651 2.160 . S
Co650 O656 2.058 . S
Co650 O666 2.057 . S
Co650 O681 2.037 . S
Co650 N685 2.145 . S
Co650 N706 2.257 . S
O651 Co649 2.143 . S
O651 Co650 2.160 . S
C652 O653 1.278 . S
C652 O660 1.224 . S
O653 C652 1.278 . S
C654 O655 1.245 . S
C654 O666 1.232 . S
O655 C654 1.245 . S
O656 Co650 2.058 . S
O656 C682 1.269 . S
O657 Co649 2.074 . S
O657 C682 1.257 . S
H658 C683 0.930 . S
H659 C689 0.930 . S
O660 Co649 2.093 . S
O660 C652 1.224 . S
H661 C693 0.929 . S
H662 C695 0.930 . S
H663 C696 0.930 1_545 S
H664 C694 0.929 . S
H665 C697 0.928 . S
O666 Co650 2.057 . S
O666 C654 1.232 . S
H667 C686 0.929 . S
H668 C687 0.929 . S
H669 C699 0.931 . S
H670 C691 0.929 . S
H671 C700 0.930 . S
H672 C692 0.931 . S
O673 Co649 2.097 . S
O673 C701 1.214 . S
H674 C702 0.929 . S
H675 C703 0.929 . S
H676 C704 0.930 . S
H677 C705 0.929 . S
H678 C707 0.930 . S
H679 C684 0.930 . S
H680 C688 0.930 . S
O681 Co650 2.037 . S
O681 C701 1.234 . S
C682 O656 1.269 . S
C682 O657 1.257 . S
C683 H658 0.930 . S
C683 C686 1.388 . S
C683 C688 1.418 . S
C684 H679 0.930 . S
C684 C687 1.404 . S
C684 C688 1.353 . S
N685 Co650 2.145 . S
N685 C686 1.397 . S
N685 C687 1.334 . S
C686 H667 0.929 . S
C686 C683 1.388 . S
C686 N685 1.397 . S
C687 H668 0.929 . S
C687 C684 1.404 . S
C687 N685 1.334 . S
C688 H680 0.930 . S
C688 C683 1.418 . S
C688 C684 1.353 . S
C689 H659 0.930 . S
C689 N690 1.330 . S
C689 C691 1.446 . S
N690 Co649 2.151 1_565 S
N690 C689 1.330 . S
N690 C694 1.418 . S
C691 H670 0.929 . S
C691 C689 1.446 . S
C691 C692 1.332 . S
C692 H672 0.931 . S
C692 C691 1.332 . S
C692 C693 1.267 . S
C693 H661 0.929 . S
C693 C692 1.267 . S
C693 C694 1.251 . S
C694 H664 0.929 . S
C694 N690 1.418 . S
C694 C693 1.251 . S
C695 H662 0.930 . S
C695 C697 1.406 . S
C695 C700 1.261 . S
C696 H663 0.930 1_565 S
C696 N698 1.325 . S
C696 C699 1.357 . S
C697 H665 0.928 . S
C697 C695 1.406 . S
C697 N698 1.261 . S
N698 Co649 2.214 1_565 S
N698 C696 1.325 . S
N698 C697 1.261 . S
C699 H669 0.931 . S
C699 C696 1.357 . S
C699 C700 1.312 . S
C700 H671 0.930 . S
C700 C695 1.261 . S
C700 C699 1.312 . S
C701 O673 1.214 . S
C701 O681 1.234 . S
C702 H674 0.929 . S
C702 C705 1.391 . S
C702 C707 1.391 . S
C703 H675 0.929 . S
C703 C704 1.390 . S
C703 N706 1.391 . S
C704 H676 0.930 . S
C704 C703 1.390 . S
C704 C705 1.392 . S
C705 H677 0.929 . S
C705 C702 1.391 . S
C705 C704 1.392 . S
N706 Co650 2.257 . S
N706 C703 1.391 . S
N706 C707 1.388 . S
C707 H678 0.930 . S
C707 C702 1.391 . S
C707 N706 1.388 . S
Co708 O710 2.143 . S
Co708 O716 2.074 . S
Co708 O719 2.093 . S
Co708 O732 2.097 . S
Co708 N749 2.151 1_565 S
Co708 N757 2.214 1_565 S
Co709 O710 2.160 . S
Co709 O715 2.058 . S
Co709 O725 2.057 . S
Co709 O740 2.037 . S
Co709 N744 2.145 . S
Co709 N765 2.257 . S
O710 Co708 2.143 . S
O710 Co709 2.160 . S
C711 O712 1.278 . S
C711 O719 1.224 . S
O712 C711 1.278 . S
C713 O714 1.245 . S
C713 O725 1.232 . S
O714 C713 1.245 . S
O715 Co709 2.058 . S
O715 C741 1.269 . S
O716 Co708 2.074 . S
O716 C741 1.257 . S
H717 C742 0.930 . S
H718 C748 0.930 1_565 S
O719 Co708 2.093 . S
O719 C711 1.224 . S
H720 C752 0.929 . S
H721 C754 0.930 . S
H722 C755 0.930 1_565 S
H723 C753 0.929 . S
H724 C756 0.928 . S
O725 Co709 2.057 . S
O725 C713 1.232 . S
H726 C745 0.929 . S
H727 C746 0.929 . S
H728 C758 0.931 . S
H729 C750 0.929 . S
H730 C759 0.930 . S
H731 C751 0.931 . S
O732 Co708 2.097 . S
O732 C760 1.214 . S
H733 C761 0.929 . S
H734 C762 0.929 . S
H735 C763 0.930 . S
H736 C764 0.929 . S
H737 C766 0.930 . S
H738 C743 0.930 . S
H739 C747 0.930 . S
O740 Co709 2.037 . S
O740 C760 1.234 . S
C741 O715 1.269 . S
C741 O716 1.257 . S
C742 H717 0.930 . S
C742 C745 1.388 . S
C742 C747 1.418 . S
C743 H738 0.930 . S
C743 C746 1.404 . S
C743 C747 1.353 . S
N744 Co709 2.145 . S
N744 C745 1.397 . S
N744 C746 1.334 . S
C745 H726 0.929 . S
C745 C742 1.388 . S
C745 N744 1.397 . S
C746 H727 0.929 . S
C746 C743 1.404 . S
C746 N744 1.334 . S
C747 H739 0.930 . S
C747 C742 1.418 . S
C747 C743 1.353 . S
C748 H718 0.930 1_545 S
C748 N749 1.330 . S
C748 C750 1.446 . S
N749 Co708 2.151 1_545 S
N749 C748 1.330 . S
N749 C753 1.418 . S
C750 H729 0.929 . S
C750 C748 1.446 . S
C750 C751 1.332 . S
C751 H731 0.931 . S
C751 C750 1.332 . S
C751 C752 1.267 . S
C752 H720 0.929 . S
C752 C751 1.267 . S
C752 C753 1.251 . S
C753 H723 0.929 . S
C753 N749 1.418 . S
C753 C752 1.251 . S
C754 H721 0.930 . S
C754 C756 1.406 . S
C754 C759 1.261 . S
C755 H722 0.930 1_545 S
C755 N757 1.325 . S
C755 C758 1.357 . S
C756 H724 0.928 . S
C756 C754 1.406 . S
C756 N757 1.261 . S
N757 Co708 2.214 1_545 S
N757 C755 1.325 . S
N757 C756 1.261 . S
C758 H728 0.931 . S
C758 C755 1.357 . S
C758 C759 1.312 . S
C759 H730 0.930 . S
C759 C754 1.261 . S
C759 C758 1.312 . S
C760 O732 1.214 . S
C760 O740 1.234 . S
C761 H733 0.929 . S
C761 C764 1.391 . S
C761 C766 1.391 . S
C762 H734 0.929 . S
C762 C763 1.390 . S
C762 N765 1.391 . S
C763 H735 0.930 . S
C763 C762 1.390 . S
C763 C764 1.392 . S
C764 H736 0.929 . S
C764 C761 1.391 . S
C764 C763 1.392 . S
N765 Co709 2.257 . S
N765 C762 1.391 . S
N765 C766 1.388 . S
C766 H737 0.930 . S
C766 C761 1.391 . S
C766 N765 1.388 . S
Co767 O769 2.143 . S
Co767 O775 2.074 . S
Co767 O778 2.093 . S
Co767 O791 2.097 . S
Co767 N808 2.151 . S
Co767 N816 2.214 . S
Co768 O769 2.160 . S
Co768 O774 2.058 . S
Co768 O784 2.057 . S
Co768 O799 2.037 . S
Co768 N803 2.145 1_455 S
Co768 N824 2.257 1_455 S
O769 Co767 2.143 . S
O769 Co768 2.160 . S
C770 O771 1.278 . S
C770 O778 1.224 . S
O771 C770 1.278 . S
C772 O773 1.245 . S
C772 O784 1.232 . S
O773 C772 1.245 . S
O774 Co768 2.058 . S
O774 C800 1.269 . S
O775 Co767 2.074 . S
O775 C800 1.257 . S
H776 C801 0.930 . S
H777 C807 0.930 . S
O778 Co767 2.093 . S
O778 C770 1.224 . S
H779 C811 0.929 . S
H780 C813 0.930 . S
H781 C814 0.930 . S
H782 C812 0.929 . S
H783 C815 0.928 . S
O784 Co768 2.057 . S
O784 C772 1.232 . S
H785 C804 0.929 . S
H786 C805 0.929 . S
H787 C817 0.931 . S
H788 C809 0.929 . S
H789 C818 0.930 . S
H790 C810 0.931 . S
O791 Co767 2.097 . S
O791 C819 1.214 . S
H792 C820 0.929 . S
H793 C821 0.929 . S
H794 C822 0.930 . S
H795 C823 0.929 . S
H796 C825 0.930 1_455 S
H797 C802 0.930 . S
H798 C806 0.930 . S
O799 Co768 2.037 . S
O799 C819 1.234 . S
C800 O774 1.269 . S
C800 O775 1.257 . S
C801 H776 0.930 . S
C801 C804 1.388 . S
C801 C806 1.418 . S
C802 H797 0.930 . S
C802 C805 1.404 . S
C802 C806 1.353 . S
N803 Co768 2.145 1_655 S
N803 C804 1.397 . S
N803 C805 1.334 . S
C804 H785 0.929 . S
C804 C801 1.388 . S
C804 N803 1.397 . S
C805 H786 0.929 . S
C805 C802 1.404 . S
C805 N803 1.334 . S
C806 H798 0.930 . S
C806 C801 1.418 . S
C806 C802 1.353 . S
C807 H777 0.930 . S
C807 N808 1.330 . S
C807 C809 1.446 . S
N808 Co767 2.151 . S
N808 C807 1.330 . S
N808 C812 1.418 . S
C809 H788 0.929 . S
C809 C807 1.446 . S
C809 C810 1.332 . S
C810 H790 0.931 . S
C810 C809 1.332 . S
C810 C811 1.267 . S
C811 H779 0.929 . S
C811 C810 1.267 . S
C811 C812 1.251 . S
C812 H782 0.929 . S
C812 N808 1.418 . S
C812 C811 1.251 . S
C813 H780 0.930 . S
C813 C815 1.406 . S
C813 C818 1.261 . S
C814 H781 0.930 . S
C814 N816 1.325 . S
C814 C817 1.357 . S
C815 H783 0.928 . S
C815 C813 1.406 . S
C815 N816 1.261 . S
N816 Co767 2.214 . S
N816 C814 1.325 . S
N816 C815 1.261 . S
C817 H787 0.931 . S
C817 C814 1.357 . S
C817 C818 1.312 . S
C818 H789 0.930 . S
C818 C813 1.261 . S
C818 C817 1.312 . S
C819 O791 1.214 . S
C819 O799 1.234 . S
C820 H792 0.929 . S
C820 C823 1.391 . S
C820 C825 1.391 . S
C821 H793 0.929 . S
C821 C822 1.390 . S
C821 N824 1.391 . S
C822 H794 0.930 . S
C822 C821 1.390 . S
C822 C823 1.392 . S
C823 H795 0.929 . S
C823 C820 1.391 . S
C823 C822 1.392 . S
N824 Co768 2.257 1_655 S
N824 C821 1.391 . S
N824 C825 1.388 . S
C825 H796 0.930 1_655 S
C825 C820 1.391 . S
C825 N824 1.388 . S
Co826 O828 2.143 . S
Co826 O834 2.074 . S
Co826 O837 2.093 . S
Co826 O850 2.097 . S
Co826 N867 2.151 . S
Co826 N875 2.214 . S
Co827 O828 2.160 . S
Co827 O833 2.058 . S
Co827 O843 2.057 . S
Co827 O858 2.037 . S
Co827 N862 2.145 . S
Co827 N883 2.257 . S
O828 Co826 2.143 . S
O828 Co827 2.160 . S
C829 O830 1.278 . S
C829 O837 1.224 . S
O830 C829 1.278 . S
C831 O832 1.245 . S
C831 O843 1.232 . S
O832 C831 1.245 . S
O833 Co827 2.058 . S
O833 C859 1.269 . S
O834 Co826 2.074 . S
O834 C859 1.257 . S
H835 C860 0.930 . S
H836 C866 0.930 . S
O837 Co826 2.093 . S
O837 C829 1.224 . S
H838 C870 0.929 . S
H839 C872 0.930 . S
H840 C873 0.930 . S
H841 C871 0.929 . S
H842 C874 0.928 . S
O843 Co827 2.057 . S
O843 C831 1.232 . S
H844 C863 0.929 . S
H845 C864 0.929 . S
H846 C876 0.931 . S
H847 C868 0.929 . S
H848 C877 0.930 . S
H849 C869 0.931 . S
O850 Co826 2.097 . S
O850 C878 1.214 . S
H851 C879 0.929 . S
H852 C880 0.929 . S
H853 C881 0.930 . S
H854 C882 0.929 . S
H855 C884 0.930 . S
H856 C861 0.930 . S
H857 C865 0.930 . S
O858 Co827 2.037 . S
O858 C878 1.234 . S
C859 O833 1.269 . S
C859 O834 1.257 . S
C860 H835 0.930 . S
C860 C863 1.388 . S
C860 C865 1.418 . S
C861 H856 0.930 . S
C861 C864 1.404 . S
C861 C865 1.353 . S
N862 Co827 2.145 . S
N862 C863 1.397 . S
N862 C864 1.334 . S
C863 H844 0.929 . S
C863 C860 1.388 . S
C863 N862 1.397 . S
C864 H845 0.929 . S
C864 C861 1.404 . S
C864 N862 1.334 . S
C865 H857 0.930 . S
C865 C860 1.418 . S
C865 C861 1.353 . S
C866 H836 0.930 . S
C866 N867 1.330 . S
C866 C868 1.446 . S
N867 Co826 2.151 . S
N867 C866 1.330 . S
N867 C871 1.418 . S
C868 H847 0.929 . S
C868 C866 1.446 . S
C868 C869 1.332 . S
C869 H849 0.931 . S
C869 C868 1.332 . S
C869 C870 1.267 . S
C870 H838 0.929 . S
C870 C869 1.267 . S
C870 C871 1.251 . S
C871 H841 0.929 . S
C871 N867 1.418 . S
C871 C870 1.251 . S
C872 H839 0.930 . S
C872 C874 1.406 . S
C872 C877 1.261 . S
C873 H840 0.930 . S
C873 N875 1.325 . S
C873 C876 1.357 . S
C874 H842 0.928 . S
C874 C872 1.406 . S
C874 N875 1.261 . S
N875 Co826 2.214 . S
N875 C873 1.325 . S
N875 C874 1.261 . S
C876 H846 0.931 . S
C876 C873 1.357 . S
C876 C877 1.312 . S
C877 H848 0.930 . S
C877 C872 1.261 . S
C877 C876 1.312 . S
C878 O850 1.214 . S
C878 O858 1.234 . S
C879 H851 0.929 . S
C879 C882 1.391 . S
C879 C884 1.391 . S
C880 H852 0.929 . S
C880 C881 1.390 . S
C880 N883 1.391 . S
C881 H853 0.930 . S
C881 C880 1.390 . S
C881 C882 1.392 . S
C882 H854 0.929 . S
C882 C879 1.391 . S
C882 C881 1.392 . S
N883 Co827 2.257 . S
N883 C880 1.391 . S
N883 C884 1.388 . S
C884 H855 0.930 . S
C884 C879 1.391 . S
C884 N883 1.388 . S
Co885 O887 2.143 . S
Co885 O893 2.074 . S
Co885 O896 2.093 . S
Co885 O909 2.097 . S
Co885 N926 2.151 . S
Co885 N934 2.214 . S
Co886 O887 2.160 . S
Co886 O892 2.058 . S
Co886 O902 2.057 . S
Co886 O917 2.037 . S
Co886 N921 2.145 . S
Co886 N942 2.257 . S
O887 Co885 2.143 . S
O887 Co886 2.160 . S
C888 O889 1.278 . S
C888 O896 1.224 . S
O889 C888 1.278 . S
C890 O891 1.245 . S
C890 O902 1.232 . S
O891 C890 1.245 . S
O892 Co886 2.058 . S
O892 C918 1.269 . S
O893 Co885 2.074 . S
O893 C918 1.257 . S
H894 C919 0.930 . S
H895 C925 0.930 . S
O896 Co885 2.093 . S
O896 C888 1.224 . S
H897 C929 0.929 . S
H898 C931 0.930 . S
H899 C932 0.930 . S
H900 C930 0.929 . S
H901 C933 0.928 . S
O902 Co886 2.057 . S
O902 C890 1.232 . S
H903 C922 0.929 . S
H904 C923 0.929 . S
H905 C935 0.931 . S
H906 C927 0.929 . S
H907 C936 0.930 . S
H908 C928 0.931 . S
O909 Co885 2.097 . S
O909 C937 1.214 . S
H910 C938 0.929 . S
H911 C939 0.929 . S
H912 C940 0.930 . S
H913 C941 0.929 . S
H914 C943 0.930 . S
H915 C920 0.930 . S
H916 C924 0.930 . S
O917 Co886 2.037 . S
O917 C937 1.234 . S
C918 O892 1.269 . S
C918 O893 1.257 . S
C919 H894 0.930 . S
C919 C922 1.388 . S
C919 C924 1.418 . S
C920 H915 0.930 . S
C920 C923 1.404 . S
C920 C924 1.353 . S
N921 Co886 2.145 . S
N921 C922 1.397 . S
N921 C923 1.334 . S
C922 H903 0.929 . S
C922 C919 1.388 . S
C922 N921 1.397 . S
C923 H904 0.929 . S
C923 C920 1.404 . S
C923 N921 1.334 . S
C924 H916 0.930 . S
C924 C919 1.418 . S
C924 C920 1.353 . S
C925 H895 0.930 . S
C925 N926 1.330 . S
C925 C927 1.446 . S
N926 Co885 2.151 . S
N926 C925 1.330 . S
N926 C930 1.418 . S
C927 H906 0.929 . S
C927 C925 1.446 . S
C927 C928 1.332 . S
C928 H908 0.931 . S
C928 C927 1.332 . S
C928 C929 1.267 . S
C929 H897 0.929 . S
C929 C928 1.267 . S
C929 C930 1.251 . S
C930 H900 0.929 . S
C930 N926 1.418 . S
C930 C929 1.251 . S
C931 H898 0.930 . S
C931 C933 1.406 . S
C931 C936 1.261 . S
C932 H899 0.930 . S
C932 N934 1.325 . S
C932 C935 1.357 . S
C933 H901 0.928 . S
C933 C931 1.406 . S
C933 N934 1.261 . S
N934 Co885 2.214 . S
N934 C932 1.325 . S
N934 C933 1.261 . S
C935 H905 0.931 . S
C935 C932 1.357 . S
C935 C936 1.312 . S
C936 H907 0.930 . S
C936 C931 1.261 . S
C936 C935 1.312 . S
C937 O909 1.214 . S
C937 O917 1.234 . S
C938 H910 0.929 . S
C938 C941 1.391 . S
C938 C943 1.391 . S
C939 H911 0.929 . S
C939 C940 1.390 . S
C939 N942 1.391 . S
C940 H912 0.930 . S
C940 C939 1.390 . S
C940 C941 1.392 . S
C941 H913 0.929 . S
C941 C938 1.391 . S
C941 C940 1.392 . S
N942 Co886 2.257 . S
N942 C939 1.391 . S
N942 C943 1.388 . S
C943 H914 0.930 . S
C943 C938 1.391 . S
C943 N942 1.388 . S
Co944 O946 2.143 . S
Co944 O952 2.074 . S
Co944 O955 2.093 . S
Co944 O968 2.097 . S
Co944 N985 2.151 . S
Co944 N993 2.214 . S
Co945 O946 2.160 . S
Co945 O951 2.058 . S
Co945 O961 2.057 . S
Co945 O976 2.037 . S
Co945 N980 2.145 . S
Co945 N1001 2.257 . S
O946 Co944 2.143 . S
O946 Co945 2.160 . S
C947 O948 1.278 . S
C947 O955 1.224 . S
O948 C947 1.278 . S
C949 O950 1.245 . S
C949 O961 1.232 . S
O950 C949 1.245 . S
O951 Co945 2.058 . S
O951 C977 1.269 . S
O952 Co944 2.074 . S
O952 C977 1.257 . S
H953 C978 0.930 . S
H954 C984 0.930 . S
O955 Co944 2.093 . S
O955 C947 1.224 . S
H956 C988 0.929 . S
H957 C990 0.930 . S
H958 C991 0.930 . S
H959 C989 0.929 . S
H960 C992 0.928 . S
O961 Co945 2.057 . S
O961 C949 1.232 . S
H962 C981 0.929 . S
H963 C982 0.929 . S
H964 C994 0.931 . S
H965 C986 0.929 . S
H966 C995 0.930 . S
H967 C987 0.931 . S
O968 Co944 2.097 . S
O968 C996 1.214 . S
H969 C997 0.929 . S
H970 C998 0.929 . S
H971 C999 0.930 . S
H972 C1000 0.929 . S
H973 C1002 0.930 . S
H974 C979 0.930 . S
H975 C983 0.930 . S
O976 Co945 2.037 . S
O976 C996 1.234 . S
C977 O951 1.269 . S
C977 O952 1.257 . S
C978 H953 0.930 . S
C978 C981 1.388 . S
C978 C983 1.418 . S
C979 H974 0.930 . S
C979 C982 1.404 . S
C979 C983 1.353 . S
N980 Co945 2.145 . S
N980 C981 1.397 . S
N980 C982 1.334 . S
C981 H962 0.929 . S
C981 C978 1.388 . S
C981 N980 1.397 . S
C982 H963 0.929 . S
C982 C979 1.404 . S
C982 N980 1.334 . S
C983 H975 0.930 . S
C983 C978 1.418 . S
C983 C979 1.353 . S
C984 H954 0.930 . S
C984 N985 1.330 . S
C984 C986 1.446 . S
N985 Co944 2.151 . S
N985 C984 1.330 . S
N985 C989 1.418 . S
C986 H965 0.929 . S
C986 C984 1.446 . S
C986 C987 1.332 . S
C987 H967 0.931 . S
C987 C986 1.332 . S
C987 C988 1.267 . S
C988 H956 0.929 . S
C988 C987 1.267 . S
C988 C989 1.251 . S
C989 H959 0.929 . S
C989 N985 1.418 . S
C989 C988 1.251 . S
C990 H957 0.930 . S
C990 C992 1.406 . S
C990 C995 1.261 . S
C991 H958 0.930 . S
C991 N993 1.325 . S
C991 C994 1.357 . S
C992 H960 0.928 . S
C992 C990 1.406 . S
C992 N993 1.261 . S
N993 Co944 2.214 . S
N993 C991 1.325 . S
N993 C992 1.261 . S
C994 H964 0.931 . S
C994 C991 1.357 . S
C994 C995 1.312 . S
C995 H966 0.930 . S
C995 C990 1.261 . S
C995 C994 1.312 . S
C996 O968 1.214 . S
C996 O976 1.234 . S
C997 H969 0.929 . S
C997 C1000 1.391 . S
C997 C1002 1.391 . S
C998 H970 0.929 . S
C998 C999 1.390 . S
C998 N1001 1.391 . S
C999 H971 0.930 . S
C999 C998 1.390 . S
C999 C1000 1.392 . S
C1000 H972 0.929 . S
C1000 C997 1.391 . S
C1000 C999 1.392 . S
N1001 Co945 2.257 . S
N1001 C998 1.391 . S
N1001 C1002 1.388 . S
C1002 H973 0.930 . S
C1002 C997 1.391 . S
C1002 N1001 1.388 . S
Co1003 O1005 2.143 . S
Co1003 O1011 2.074 . S
Co1003 O1014 2.093 . S
Co1003 O1027 2.097 . S
Co1003 N1044 2.151 . S
Co1003 N1052 2.214 . S
Co1004 O1005 2.160 . S
Co1004 O1010 2.058 . S
Co1004 O1020 2.057 . S
Co1004 O1035 2.037 . S
Co1004 N1039 2.145 . S
Co1004 N1060 2.257 . S
O1005 Co1003 2.143 . S
O1005 Co1004 2.160 . S
C1006 O1007 1.278 . S
C1006 O1014 1.224 . S
O1007 C1006 1.278 . S
C1008 O1009 1.245 . S
C1008 O1020 1.232 . S
O1009 C1008 1.245 . S
O1010 Co1004 2.058 . S
O1010 C1036 1.269 . S
O1011 Co1003 2.074 . S
O1011 C1036 1.257 . S
H1012 C1037 0.930 . S
H1013 C1043 0.930 . S
O1014 Co1003 2.093 . S
O1014 C1006 1.224 . S
H1015 C1047 0.929 . S
H1016 C1049 0.930 . S
H1017 C1050 0.930 . S
H1018 C1048 0.929 . S
H1019 C1051 0.928 . S
O1020 Co1004 2.057 . S
O1020 C1008 1.232 . S
H1021 C1040 0.929 . S
H1022 C1041 0.929 . S
H1023 C1053 0.931 . S
H1024 C1045 0.929 . S
H1025 C1054 0.930 . S
H1026 C1046 0.931 . S
O1027 Co1003 2.097 . S
O1027 C1055 1.214 . S
H1028 C1056 0.929 . S
H1029 C1057 0.929 . S
H1030 C1058 0.930 . S
H1031 C1059 0.929 . S
H1032 C1061 0.930 . S
H1033 C1038 0.930 . S
H1034 C1042 0.930 . S
O1035 Co1004 2.037 . S
O1035 C1055 1.234 . S
C1036 O1010 1.269 . S
C1036 O1011 1.257 . S
C1037 H1012 0.930 . S
C1037 C1040 1.388 . S
C1037 C1042 1.418 . S
C1038 H1033 0.930 . S
C1038 C1041 1.404 . S
C1038 C1042 1.353 . S
N1039 Co1004 2.145 . S
N1039 C1040 1.397 . S
N1039 C1041 1.334 . S
C1040 H1021 0.929 . S
C1040 C1037 1.388 . S
C1040 N1039 1.397 . S
C1041 H1022 0.929 . S
C1041 C1038 1.404 . S
C1041 N1039 1.334 . S
C1042 H1034 0.930 . S
C1042 C1037 1.418 . S
C1042 C1038 1.353 . S
C1043 H1013 0.930 . S
C1043 N1044 1.330 . S
C1043 C1045 1.446 . S
N1044 Co1003 2.151 . S
N1044 C1043 1.330 . S
N1044 C1048 1.418 . S
C1045 H1024 0.929 . S
C1045 C1043 1.446 . S
C1045 C1046 1.332 . S
C1046 H1026 0.931 . S
C1046 C1045 1.332 . S
C1046 C1047 1.267 . S
C1047 H1015 0.929 . S
C1047 C1046 1.267 . S
C1047 C1048 1.251 . S
C1048 H1018 0.929 . S
C1048 N1044 1.418 . S
C1048 C1047 1.251 . S
C1049 H1016 0.930 . S
C1049 C1051 1.406 . S
C1049 C1054 1.261 . S
C1050 H1017 0.930 . S
C1050 N1052 1.325 . S
C1050 C1053 1.357 . S
C1051 H1019 0.928 . S
C1051 C1049 1.406 . S
C1051 N1052 1.261 . S
N1052 Co1003 2.214 . S
N1052 C1050 1.325 . S
N1052 C1051 1.261 . S
C1053 H1023 0.931 . S
C1053 C1050 1.357 . S
C1053 C1054 1.312 . S
C1054 H1025 0.930 . S
C1054 C1049 1.261 . S
C1054 C1053 1.312 . S
C1055 O1027 1.214 . S
C1055 O1035 1.234 . S
C1056 H1028 0.929 . S
C1056 C1059 1.391 . S
C1056 C1061 1.391 . S
C1057 H1029 0.929 . S
C1057 C1058 1.390 . S
C1057 N1060 1.391 . S
C1058 H1030 0.930 . S
C1058 C1057 1.390 . S
C1058 C1059 1.392 . S
C1059 H1031 0.929 . S
C1059 C1056 1.391 . S
C1059 C1058 1.392 . S
N1060 Co1004 2.257 . S
N1060 C1057 1.391 . S
N1060 C1061 1.388 . S
C1061 H1032 0.930 . S
C1061 C1056 1.391 . S
C1061 N1060 1.388 . S
C1062 C1063 1.349 . S
C1062 C1064 1.327 . S
C1062 H1087 0.950 . S
C1063 C1062 1.349 . S
C1063 C1079 1.349 . S
C1064 C1062 1.327 . S
C1064 C1083 1.429 . S
C1064 H1088 0.950 . S
C1065 C1082 1.574 . S
C1065 C1084 1.368 . S
C1065 H1089 0.949 . S
H1066 C1070 0.949 . S
C1067 C1068 1.349 . S
C1067 C1069 1.327 . S
C1067 H1090 0.950 . S
C1068 C1067 1.349 . S
C1068 C1080 1.349 . S
C1069 C1067 1.327 . S
C1069 C1085 1.429 . S
C1069 H1091 0.950 . S
C1070 H1066 0.949 . S
C1070 C1078 1.574 . S
C1070 C1086 1.368 . S
H1071 C1079 0.950 . S
H1072 C1077 0.950 . S
H1073 C1078 0.949 . S
H1074 C1080 0.950 . S
H1075 C1081 0.950 . S
H1076 C1082 0.949 . S
C1077 H1072 0.950 . S
C1077 C1079 1.327 . S
C1077 C1083 1.429 . S
C1078 C1070 1.574 . S
C1078 H1073 0.949 . S
C1078 C1084 1.368 . S
C1079 C1063 1.349 . S
C1079 H1071 0.950 . S
C1079 C1077 1.327 . S
C1080 C1068 1.349 . S
C1080 H1074 0.950 . S
C1080 C1081 1.327 . S
C1081 H1075 0.950 . S
C1081 C1080 1.327 . S
C1081 C1085 1.429 . S
C1082 C1065 1.574 . S
C1082 H1076 0.949 . S
C1082 C1086 1.368 . S
C1083 C1064 1.429 . S
C1083 C1077 1.429 . S
C1083 C1084 1.523 . S
C1084 C1065 1.368 . S
C1084 C1078 1.368 . S
C1084 C1083 1.523 . S
C1085 C1069 1.429 . S
C1085 C1081 1.429 . S
C1085 C1086 1.523 . S
C1086 C1070 1.368 . S
C1086 C1082 1.368 . S
C1086 C1085 1.523 . S
H1087 C1062 0.950 . S
H1088 C1064 0.950 . S
H1089 C1065 0.949 . S
H1090 C1067 0.950 . S
H1091 C1069 0.950 . S
C1092 C1093 1.349 . S
C1092 C1094 1.327 . S
C1092 H1117 0.950 . S
C1093 C1092 1.349 . S
C1093 C1109 1.349 . S
C1094 C1092 1.327 . S
C1094 C1113 1.429 . S
C1094 H1118 0.950 . S
C1095 C1112 1.574 . S
C1095 C1114 1.368 . S
C1095 H1119 0.949 . S
H1096 C1100 0.949 . S
C1097 C1098 1.349 . S
C1097 C1099 1.327 . S
C1097 H1120 0.950 . S
C1098 C1097 1.349 . S
C1098 C1110 1.349 . S
C1099 C1097 1.327 . S
C1099 C1115 1.429 . S
C1099 H1121 0.950 . S
C1100 H1096 0.949 . S
C1100 C1108 1.574 . S
C1100 C1116 1.368 . S
H1101 C1109 0.950 . S
H1102 C1107 0.950 . S
H1103 C1108 0.949 . S
H1104 C1110 0.950 . S
H1105 C1111 0.950 . S
H1106 C1112 0.949 . S
C1107 H1102 0.950 . S
C1107 C1109 1.327 . S
C1107 C1113 1.429 . S
C1108 C1100 1.574 . S
C1108 H1103 0.949 . S
C1108 C1114 1.368 . S
C1109 C1093 1.349 . S
C1109 H1101 0.950 . S
C1109 C1107 1.327 . S
C1110 C1098 1.349 . S
C1110 H1104 0.950 . S
C1110 C1111 1.327 . S
C1111 H1105 0.950 . S
C1111 C1110 1.327 . S
C1111 C1115 1.429 . S
C1112 C1095 1.574 . S
C1112 H1106 0.949 . S
C1112 C1116 1.368 . S
C1113 C1094 1.429 . S
C1113 C1107 1.429 . S
C1113 C1114 1.523 . S
C1114 C1095 1.368 . S
C1114 C1108 1.368 . S
C1114 C1113 1.523 . S
C1115 C1099 1.429 . S
C1115 C1111 1.429 . S
C1115 C1116 1.523 . S
C1116 C1100 1.368 . S
C1116 C1112 1.368 . S
C1116 C1115 1.523 . S
H1117 C1092 0.950 . S
H1118 C1094 0.950 . S
H1119 C1095 0.949 . S
H1120 C1097 0.950 . S
H1121 C1099 0.950 . S
C1122 C1123 1.349 . S
C1122 C1124 1.327 . S
C1122 H1147 0.950 . S
C1123 C1122 1.349 . S
C1123 C1139 1.349 . S
C1124 C1122 1.327 . S
C1124 C1143 1.429 . S
C1124 H1148 0.950 . S
C1125 C1142 1.574 . S
C1125 C1144 1.368 . S
C1125 H1149 0.949 . S
H1126 C1130 0.949 . S
C1127 C1128 1.349 . S
C1127 C1129 1.327 . S
C1127 H1150 0.950 . S
C1128 C1127 1.349 . S
C1128 C1140 1.349 . S
C1129 C1127 1.327 . S
C1129 C1145 1.429 . S
C1129 H1151 0.950 . S
C1130 H1126 0.949 . S
C1130 C1138 1.574 . S
C1130 C1146 1.368 . S
H1131 C1139 0.950 . S
H1132 C1137 0.950 . S
H1133 C1138 0.949 . S
H1134 C1140 0.950 . S
H1135 C1141 0.950 . S
H1136 C1142 0.949 . S
C1137 H1132 0.950 . S
C1137 C1139 1.327 . S
C1137 C1143 1.429 . S
C1138 C1130 1.574 . S
C1138 H1133 0.949 . S
C1138 C1144 1.368 . S
C1139 C1123 1.349 . S
C1139 H1131 0.950 . S
C1139 C1137 1.327 . S
C1140 C1128 1.349 . S
C1140 H1134 0.950 . S
C1140 C1141 1.327 . S
C1141 H1135 0.950 . S
C1141 C1140 1.327 . S
C1141 C1145 1.429 . S
C1142 C1125 1.574 . S
C1142 H1136 0.949 . S
C1142 C1146 1.368 . S
C1143 C1124 1.429 . S
C1143 C1137 1.429 . S
C1143 C1144 1.523 . S
C1144 C1125 1.368 . S
C1144 C1138 1.368 . S
C1144 C1143 1.523 . S
C1145 C1129 1.429 . S
C1145 C1141 1.429 . S
C1145 C1146 1.523 . S
C1146 C1130 1.368 . S
C1146 C1142 1.368 . S
C1146 C1145 1.523 . S
H1147 C1122 0.950 . S
H1148 C1124 0.950 . S
H1149 C1125 0.949 . S
H1150 C1127 0.950 . S
H1151 C1129 0.950 . S
C1152 C1153 1.349 . S
C1152 C1154 1.327 . S
C1152 H1177 0.950 . S
C1153 C1152 1.349 . S
C1153 C1169 1.349 . S
C1154 C1152 1.327 . S
C1154 C1173 1.429 . S
C1154 H1178 0.950 . S
C1155 C1172 1.574 . S
C1155 C1174 1.368 . S
C1155 H1179 0.949 . S
H1156 C1160 0.949 . S
C1157 C1158 1.349 . S
C1157 C1159 1.327 . S
C1157 H1180 0.950 . S
C1158 C1157 1.349 . S
C1158 C1170 1.349 . S
C1159 C1157 1.327 . S
C1159 C1175 1.429 . S
C1159 H1181 0.950 . S
C1160 H1156 0.949 . S
C1160 C1168 1.574 . S
C1160 C1176 1.368 . S
H1161 C1169 0.950 . S
H1162 C1167 0.950 . S
H1163 C1168 0.949 . S
H1164 C1170 0.950 . S
H1165 C1171 0.950 . S
H1166 C1172 0.949 . S
C1167 H1162 0.950 . S
C1167 C1169 1.327 . S
C1167 C1173 1.429 . S
C1168 C1160 1.574 . S
C1168 H1163 0.949 . S
C1168 C1174 1.368 . S
C1169 C1153 1.349 . S
C1169 H1161 0.950 . S
C1169 C1167 1.327 . S
C1170 C1158 1.349 . S
C1170 H1164 0.950 . S
C1170 C1171 1.327 . S
C1171 H1165 0.950 . S
C1171 C1170 1.327 . S
C1171 C1175 1.429 . S
C1172 C1155 1.574 . S
C1172 H1166 0.949 . S
C1172 C1176 1.368 . S
C1173 C1154 1.429 . S
C1173 C1167 1.429 . S
C1173 C1174 1.523 . S
C1174 C1155 1.368 . S
C1174 C1168 1.368 . S
C1174 C1173 1.523 . S
C1175 C1159 1.429 . S
C1175 C1171 1.429 . S
C1175 C1176 1.523 . S
C1176 C1160 1.368 . S
C1176 C1172 1.368 . S
C1176 C1175 1.523 . S
H1177 C1152 0.950 . S
H1178 C1154 0.950 . S
H1179 C1155 0.949 . S
H1180 C1157 0.950 . S
H1181 C1159 0.950 . S
C1182 C1183 1.349 . S
C1182 C1184 1.327 . S
C1182 H1207 0.950 . S
C1183 C1182 1.349 . S
C1183 C1199 1.349 . S
C1184 C1182 1.327 . S
C1184 C1203 1.429 . S
C1184 H1208 0.950 . S
C1185 C1202 1.574 . S
C1185 C1204 1.368 . S
C1185 H1209 0.949 . S
H1186 C1190 0.949 . S
C1187 C1188 1.349 . S
C1187 C1189 1.327 . S
C1187 H1210 0.950 . S
C1188 C1187 1.349 . S
C1188 C1200 1.349 . S
C1189 C1187 1.327 . S
C1189 C1205 1.429 . S
C1189 H1211 0.950 . S
C1190 H1186 0.949 . S
C1190 C1198 1.574 . S
C1190 C1206 1.368 . S
H1191 C1199 0.950 . S
H1192 C1197 0.950 . S
H1193 C1198 0.949 . S
H1194 C1200 0.950 . S
H1195 C1201 0.950 . S
H1196 C1202 0.949 . S
C1197 H1192 0.950 . S
C1197 C1199 1.327 . S
C1197 C1203 1.429 . S
C1198 C1190 1.574 . S
C1198 H1193 0.949 . S
C1198 C1204 1.368 . S
C1199 C1183 1.349 . S
C1199 H1191 0.950 . S
C1199 C1197 1.327 . S
C1200 C1188 1.349 . S
C1200 H1194 0.950 . S
C1200 C1201 1.327 . S
C1201 H1195 0.950 . S
C1201 C1200 1.327 . S
C1201 C1205 1.429 . S
C1202 C1185 1.574 . S
C1202 H1196 0.949 . S
C1202 C1206 1.368 . S
C1203 C1184 1.429 . S
C1203 C1197 1.429 . S
C1203 C1204 1.523 . S
C1204 C1185 1.368 . S
C1204 C1198 1.368 . S
C1204 C1203 1.523 . S
C1205 C1189 1.429 . S
C1205 C1201 1.429 . S
C1205 C1206 1.523 . S
C1206 C1190 1.368 . S
C1206 C1202 1.368 . S
C1206 C1205 1.523 . S
H1207 C1182 0.950 . S
H1208 C1184 0.950 . S
H1209 C1185 0.949 . S
H1210 C1187 0.950 . S
H1211 C1189 0.950 . S
C1212 C1213 1.349 . S
C1212 C1214 1.327 . S
C1212 H1237 0.950 . S
C1213 C1212 1.349 . S
C1213 C1229 1.349 . S
C1214 C1212 1.327 . S
C1214 C1233 1.429 . S
C1214 H1238 0.950 . S
C1215 C1232 1.574 . S
C1215 C1234 1.368 . S
C1215 H1239 0.949 . S
H1216 C1220 0.949 . S
C1217 C1218 1.349 . S
C1217 C1219 1.327 . S
C1217 H1240 0.950 . S
C1218 C1217 1.349 . S
C1218 C1230 1.349 . S
C1219 C1217 1.327 . S
C1219 C1235 1.429 . S
C1219 H1241 0.950 . S
C1220 H1216 0.949 . S
C1220 C1228 1.574 . S
C1220 C1236 1.368 . S
H1221 C1229 0.950 . S
H1222 C1227 0.950 . S
H1223 C1228 0.949 . S
H1224 C1230 0.950 . S
H1225 C1231 0.950 . S
H1226 C1232 0.949 . S
C1227 H1222 0.950 . S
C1227 C1229 1.327 . S
C1227 C1233 1.429 . S
C1228 C1220 1.574 . S
C1228 H1223 0.949 . S
C1228 C1234 1.368 . S
C1229 C1213 1.349 . S
C1229 H1221 0.950 . S
C1229 C1227 1.327 . S
C1230 C1218 1.349 . S
C1230 H1224 0.950 . S
C1230 C1231 1.327 . S
C1231 H1225 0.950 . S
C1231 C1230 1.327 . S
C1231 C1235 1.429 . S
C1232 C1215 1.574 . S
C1232 H1226 0.949 . S
C1232 C1236 1.368 . S
C1233 C1214 1.429 . S
C1233 C1227 1.429 . S
C1233 C1234 1.523 . S
C1234 C1215 1.368 . S
C1234 C1228 1.368 . S
C1234 C1233 1.523 . S
C1235 C1219 1.429 . S
C1235 C1231 1.429 . S
C1235 C1236 1.523 . S
C1236 C1220 1.368 . S
C1236 C1232 1.368 . S
C1236 C1235 1.523 . S
H1237 C1212 0.950 . S
H1238 C1214 0.950 . S
H1239 C1215 0.949 . S
H1240 C1217 0.950 . S
H1241 C1219 0.950 . S
C1242 C1243 1.349 . S
C1242 C1244 1.327 . S
C1242 H1267 0.950 . S
C1243 C1242 1.349 . S
C1243 C1259 1.349 . S
C1244 C1242 1.327 . S
C1244 C1263 1.429 . S
C1244 H1268 0.950 . S
C1245 C1262 1.574 1_554 S
C1245 C1264 1.368 1_455 S
C1245 H1269 0.949 . S
H1246 C1250 0.949 . S
C1247 C1248 1.349 . S
C1247 C1249 1.327 . S
C1247 H1270 0.950 . S
C1248 C1247 1.349 . S
C1248 C1260 1.351 . S
C1249 C1247 1.327 . S
C1249 C1265 1.429 . S
C1249 H1271 0.950 . S
C1250 H1246 0.949 . S
C1250 C1258 1.574 1_556 S
C1250 C1266 1.368 1_655 S
H1251 C1259 0.950 1_455 S
H1252 C1257 0.941 1_455 S
H1253 C1258 0.949 . S
H1254 C1260 0.949 1_655 S
H1255 C1261 0.950 . S
H1256 C1262 0.949 . S
C1257 H1252 0.941 1_655 S
C1257 C1259 1.331 . S
C1257 C1263 1.433 . S
C1258 C1250 1.574 1_554 S
C1258 H1253 0.949 . S
C1258 C1264 1.368 . S
C1259 C1243 1.349 . S
C1259 H1251 0.950 1_655 S
C1259 C1257 1.331 . S
C1260 C1248 1.351 . S
C1260 H1254 0.949 1_455 S
C1260 C1261 1.326 1_455 S
C1261 H1255 0.950 . S
C1261 C1260 1.326 1_655 S
C1261 C1265 1.429 1_655 S
C1262 C1245 1.574 1_556 S
C1262 H1256 0.949 . S
C1262 C1266 1.368 . S
C1263 C1244 1.429 . S
C1263 C1257 1.433 . S
C1263 C1264 1.523 . S
C1264 C1245 1.368 1_655 S
C1264 C1258 1.368 . S
C1264 C1263 1.523 . S
C1265 C1249 1.429 . S
C1265 C1261 1.429 1_455 S
C1265 C1266 1.523 . S
C1266 C1250 1.368 1_455 S
C1266 C1262 1.368 . S
C1266 C1265 1.523 . S
H1267 C1242 0.950 . S
H1268 C1244 0.950 . S
H1269 C1245 0.949 . S
H1270 C1247 0.950 . S
H1271 C1249 0.950 . S
C1272 C1273 1.349 . S
C1272 C1274 1.327 . S
C1272 H1297 0.950 . S
C1273 C1272 1.349 . S
C1273 C1289 1.349 . S
C1274 C1272 1.327 . S
C1274 C1293 1.429 . S
C1274 H1298 0.950 . S
C1275 C1292 1.574 1_554 S
C1275 C1294 1.368 . S
C1275 H1299 0.949 . S
H1276 C1280 0.949 . S
C1277 C1278 1.349 . S
C1277 C1279 1.327 . S
C1277 H1300 0.950 . S
C1278 C1277 1.349 . S
C1278 C1290 1.349 . S
C1279 C1277 1.327 . S
C1279 C1295 1.429 . S
C1279 H1301 0.950 . S
C1280 H1276 0.949 . S
C1280 C1288 1.574 1_556 S
C1280 C1296 1.368 . S
H1281 C1289 0.950 . S
H1282 C1287 0.950 . S
H1283 C1288 0.949 . S
H1284 C1290 0.950 . S
H1285 C1291 0.950 . S
H1286 C1292 0.949 . S
C1287 H1282 0.950 . S
C1287 C1289 1.327 . S
C1287 C1293 1.429 . S
C1288 C1280 1.574 1_554 S
C1288 H1283 0.949 . S
C1288 C1294 1.368 . S
C1289 C1273 1.349 . S
C1289 H1281 0.950 . S
C1289 C1287 1.327 . S
C1290 C1278 1.349 . S
C1290 H1284 0.950 . S
C1290 C1291 1.327 . S
C1291 H1285 0.950 . S
C1291 C1290 1.327 . S
C1291 C1295 1.429 . S
C1292 C1275 1.574 1_556 S
C1292 H1286 0.949 . S
C1292 C1296 1.368 . S
C1293 C1274 1.429 . S
C1293 C1287 1.429 . S
C1293 C1294 1.523 . S
C1294 C1275 1.368 . S
C1294 C1288 1.368 . S
C1294 C1293 1.523 . S
C1295 C1279 1.429 . S
C1295 C1291 1.429 . S
C1295 C1296 1.523 . S
C1296 C1280 1.368 . S
C1296 C1292 1.368 . S
C1296 C1295 1.523 . S
H1297 C1272 0.950 . S
H1298 C1274 0.950 . S
H1299 C1275 0.949 . S
H1300 C1277 0.950 . S
H1301 C1279 0.950 . S
C1302 C1303 1.345 1_565 S
C1302 C1304 1.329 . S
C1302 H1327 0.952 . S
C1303 C1302 1.345 1_545 S
C1303 C1319 1.349 . S
C1304 C1302 1.329 . S
C1304 C1323 1.429 1_565 S
C1304 H1328 0.950 . S
C1305 C1322 1.574 1_554 S
C1305 C1324 1.368 . S
C1305 H1329 0.949 . S
H1306 C1310 0.949 . S
C1307 C1308 1.349 . S
C1307 C1309 1.329 . S
C1307 H1330 0.950 1_565 S
C1308 C1307 1.349 . S
C1308 C1320 1.349 . S
C1309 C1307 1.329 . S
C1309 C1325 1.431 . S
C1309 H1331 0.945 1_565 S
C1310 H1306 0.949 . S
C1310 C1318 1.574 1_556 S
C1310 C1326 1.368 . S
H1311 C1319 0.950 . S
H1312 C1317 0.950 . S
H1313 C1318 0.949 . S
H1314 C1320 0.950 . S
H1315 C1321 0.950 . S
H1316 C1322 0.949 . S
C1317 H1312 0.950 . S
C1317 C1319 1.327 . S
C1317 C1323 1.429 . S
C1318 C1310 1.574 1_554 S
C1318 H1313 0.949 . S
C1318 C1324 1.368 1_565 S
C1319 C1303 1.349 . S
C1319 H1311 0.950 . S
C1319 C1317 1.327 . S
C1320 C1308 1.349 . S
C1320 H1314 0.950 . S
C1320 C1321 1.327 . S
C1321 H1315 0.950 . S
C1321 C1320 1.327 . S
C1321 C1325 1.429 . S
C1322 C1305 1.574 1_556 S
C1322 H1316 0.949 . S
C1322 C1326 1.368 1_545 S
C1323 C1304 1.429 1_545 S
C1323 C1317 1.429 . S
C1323 C1324 1.523 . S
C1324 C1305 1.368 . S
C1324 C1318 1.368 1_545 S
C1324 C1323 1.523 . S
C1325 C1309 1.431 . S
C1325 C1321 1.429 . S
C1325 C1326 1.523 . S
C1326 C1310 1.368 . S
C1326 C1322 1.368 1_565 S
C1326 C1325 1.523 . S
H1327 C1302 0.952 . S
H1328 C1304 0.950 . S
H1329 C1305 0.949 . S
H1330 C1307 0.950 1_545 S
H1331 C1309 0.945 1_545 S
C1332 C1333 1.349 . S
C1332 C1334 1.327 . S
C1332 H1357 0.950 . S
C1333 C1332 1.349 . S
C1333 C1349 1.349 . S
C1334 C1332 1.327 . S
C1334 C1353 1.429 . S
C1334 H1358 0.950 . S
C1335 C1352 1.574 . S
C1335 C1354 1.368 . S
C1335 H1359 0.949 . S
H1336 C1340 0.949 . S
C1337 C1338 1.349 . S
C1337 C1339 1.327 . S
C1337 H1360 0.950 . S
C1338 C1337 1.349 . S
C1338 C1350 1.349 . S
C1339 C1337 1.327 . S
C1339 C1355 1.429 . S
C1339 H1361 0.950 . S
C1340 H1336 0.949 . S
C1340 C1348 1.574 . S
C1340 C1356 1.368 . S
H1341 C1349 0.950 . S
H1342 C1347 0.950 . S
H1343 C1348 0.949 . S
H1344 C1350 0.950 . S
H1345 C1351 0.950 . S
H1346 C1352 0.949 . S
C1347 H1342 0.950 . S
C1347 C1349 1.327 . S
C1347 C1353 1.429 . S
C1348 C1340 1.574 . S
C1348 H1343 0.949 . S
C1348 C1354 1.368 . S
C1349 C1333 1.349 . S
C1349 H1341 0.950 . S
C1349 C1347 1.327 . S
C1350 C1338 1.349 . S
C1350 H1344 0.950 . S
C1350 C1351 1.327 . S
C1351 H1345 0.950 . S
C1351 C1350 1.327 . S
C1351 C1355 1.429 . S
C1352 C1335 1.574 . S
C1352 H1346 0.949 . S
C1352 C1356 1.368 . S
C1353 C1334 1.429 . S
C1353 C1347 1.429 . S
C1353 C1354 1.523 . S
C1354 C1335 1.368 . S
C1354 C1348 1.368 . S
C1354 C1353 1.523 . S
C1355 C1339 1.429 . S
C1355 C1351 1.429 . S
C1355 C1356 1.523 . S
C1356 C1340 1.368 . S
C1356 C1352 1.368 . S
C1356 C1355 1.523 . S
H1357 C1332 0.950 . S
H1358 C1334 0.950 . S
H1359 C1335 0.949 . S
H1360 C1337 0.950 . S
H1361 C1339 0.950 . S
C1362 C1363 1.349 . S
C1362 C1364 1.327 . S
C1362 H1387 0.950 . S
C1363 C1362 1.349 . S
C1363 C1379 1.349 . S
C1364 C1362 1.327 . S
C1364 C1383 1.429 . S
C1364 H1388 0.950 . S
C1365 C1382 1.574 . S
C1365 C1384 1.368 . S
C1365 H1389 0.949 . S
H1366 C1370 0.949 . S
C1367 C1368 1.349 . S
C1367 C1369 1.327 . S
C1367 H1390 0.950 . S
C1368 C1367 1.349 . S
C1368 C1380 1.349 . S
C1369 C1367 1.327 . S
C1369 C1385 1.429 . S
C1369 H1391 0.950 . S
C1370 H1366 0.949 . S
C1370 C1378 1.574 . S
C1370 C1386 1.368 . S
H1371 C1379 0.950 . S
H1372 C1377 0.950 . S
H1373 C1378 0.949 . S
H1374 C1380 0.950 . S
H1375 C1381 0.950 . S
H1376 C1382 0.949 . S
C1377 H1372 0.950 . S
C1377 C1379 1.327 . S
C1377 C1383 1.429 . S
C1378 C1370 1.574 . S
C1378 H1373 0.949 . S
C1378 C1384 1.368 . S
C1379 C1363 1.349 . S
C1379 H1371 0.950 . S
C1379 C1377 1.327 . S
C1380 C1368 1.349 . S
C1380 H1374 0.950 . S
C1380 C1381 1.327 . S
C1381 H1375 0.950 . S
C1381 C1380 1.327 . S
C1381 C1385 1.429 . S
C1382 C1365 1.574 . S
C1382 H1376 0.949 . S
C1382 C1386 1.368 . S
C1383 C1364 1.429 . S
C1383 C1377 1.429 . S
C1383 C1384 1.523 . S
C1384 C1365 1.368 . S
C1384 C1378 1.368 . S
C1384 C1383 1.523 . S
C1385 C1369 1.429 . S
C1385 C1381 1.429 . S
C1385 C1386 1.523 . S
C1386 C1370 1.368 . S
C1386 C1382 1.368 . S
C1386 C1385 1.523 . S
H1387 C1362 0.950 . S
H1388 C1364 0.950 . S
H1389 C1365 0.949 . S
H1390 C1367 0.950 . S
H1391 C1369 0.950 . S
C1392 C1393 1.349 . S
C1392 C1394 1.327 . S
C1392 H1417 0.950 . S
C1393 C1392 1.349 . S
C1393 C1409 1.349 . S
C1394 C1392 1.327 . S
C1394 C1413 1.429 . S
C1394 H1418 0.950 . S
C1395 C1412 1.574 . S
C1395 C1414 1.368 . S
C1395 H1419 0.949 . S
H1396 C1400 0.949 . S
C1397 C1398 1.349 . S
C1397 C1399 1.327 . S
C1397 H1420 0.950 . S
C1398 C1397 1.349 . S
C1398 C1410 1.349 . S
C1399 C1397 1.327 . S
C1399 C1415 1.429 . S
C1399 H1421 0.950 . S
C1400 H1396 0.949 . S
C1400 C1408 1.574 . S
C1400 C1416 1.368 . S
H1401 C1409 0.950 . S
H1402 C1407 0.950 . S
H1403 C1408 0.949 . S
H1404 C1410 0.950 . S
H1405 C1411 0.950 . S
H1406 C1412 0.949 . S
C1407 H1402 0.950 . S
C1407 C1409 1.327 . S
C1407 C1413 1.429 . S
C1408 C1400 1.574 . S
C1408 H1403 0.949 . S
C1408 C1414 1.368 . S
C1409 C1393 1.349 . S
C1409 H1401 0.950 . S
C1409 C1407 1.327 . S
C1410 C1398 1.349 . S
C1410 H1404 0.950 . S
C1410 C1411 1.327 . S
C1411 H1405 0.950 . S
C1411 C1410 1.327 . S
C1411 C1415 1.429 . S
C1412 C1395 1.574 . S
C1412 H1406 0.949 . S
C1412 C1416 1.368 . S
C1413 C1394 1.429 . S
C1413 C1407 1.429 . S
C1413 C1414 1.523 . S
C1414 C1395 1.368 . S
C1414 C1408 1.368 . S
C1414 C1413 1.523 . S
C1415 C1399 1.429 . S
C1415 C1411 1.429 . S
C1415 C1416 1.523 . S
C1416 C1400 1.368 . S
C1416 C1412 1.368 . S
C1416 C1415 1.523 . S
H1417 C1392 0.950 . S
H1418 C1394 0.950 . S
H1419 C1395 0.949 . S
H1420 C1397 0.950 . S
H1421 C1399 0.950 . S
C1422 C1423 1.349 . S
C1422 C1424 1.327 . S
C1422 H1447 0.950 . S
C1423 C1422 1.349 . S
C1423 C1439 1.349 . S
C1424 C1422 1.327 . S
C1424 C1443 1.429 . S
C1424 H1448 0.950 . S
C1425 C1442 1.574 . S
C1425 C1444 1.368 . S
C1425 H1449 0.949 . S
H1426 C1430 0.949 . S
C1427 C1428 1.349 . S
C1427 C1429 1.327 . S
C1427 H1450 0.950 . S
C1428 C1427 1.349 . S
C1428 C1440 1.349 . S
C1429 C1427 1.327 . S
C1429 C1445 1.429 . S
C1429 H1451 0.950 . S
C1430 H1426 0.949 . S
C1430 C1438 1.574 . S
C1430 C1446 1.368 . S
H1431 C1439 0.950 . S
H1432 C1437 0.950 . S
H1433 C1438 0.949 . S
H1434 C1440 0.950 . S
H1435 C1441 0.950 . S
H1436 C1442 0.949 . S
C1437 H1432 0.950 . S
C1437 C1439 1.327 . S
C1437 C1443 1.429 . S
C1438 C1430 1.574 . S
C1438 H1433 0.949 . S
C1438 C1444 1.368 . S
C1439 C1423 1.349 . S
C1439 H1431 0.950 . S
C1439 C1437 1.327 . S
C1440 C1428 1.349 . S
C1440 H1434 0.950 . S
C1440 C1441 1.327 . S
C1441 H1435 0.950 . S
C1441 C1440 1.327 . S
C1441 C1445 1.429 . S
C1442 C1425 1.574 . S
C1442 H1436 0.949 . S
C1442 C1446 1.368 . S
C1443 C1424 1.429 . S
C1443 C1437 1.429 . S
C1443 C1444 1.523 . S
C1444 C1425 1.368 . S
C1444 C1438 1.368 . S
C1444 C1443 1.523 . S
C1445 C1429 1.429 . S
C1445 C1441 1.429 . S
C1445 C1446 1.523 . S
C1446 C1430 1.368 . S
C1446 C1442 1.368 . S
C1446 C1445 1.523 . S
H1447 C1422 0.950 . S
H1448 C1424 0.950 . S
H1449 C1425 0.949 . S
H1450 C1427 0.950 . S
H1451 C1429 0.950 . S
C1452 C1453 1.349 . S
C1452 C1454 1.327 . S
C1452 H1477 0.950 . S
C1453 C1452 1.349 . S
C1453 C1469 1.349 . S
C1454 C1452 1.327 . S
C1454 C1473 1.429 . S
C1454 H1478 0.950 . S
C1455 C1472 1.574 . S
C1455 C1474 1.368 . S
C1455 H1479 0.949 . S
H1456 C1460 0.949 . S
C1457 C1458 1.349 . S
C1457 C1459 1.327 . S
C1457 H1480 0.950 . S
C1458 C1457 1.349 . S
C1458 C1470 1.349 . S
C1459 C1457 1.327 . S
C1459 C1475 1.429 . S
C1459 H1481 0.950 . S
C1460 H1456 0.949 . S
C1460 C1468 1.574 . S
C1460 C1476 1.368 . S
H1461 C1469 0.950 . S
H1462 C1467 0.950 . S
H1463 C1468 0.949 . S
H1464 C1470 0.950 . S
H1465 C1471 0.950 . S
H1466 C1472 0.949 . S
C1467 H1462 0.950 . S
C1467 C1469 1.327 . S
C1467 C1473 1.429 . S
C1468 C1460 1.574 . S
C1468 H1463 0.949 . S
C1468 C1474 1.368 . S
C1469 C1453 1.349 . S
C1469 H1461 0.950 . S
C1469 C1467 1.327 . S
C1470 C1458 1.349 . S
C1470 H1464 0.950 . S
C1470 C1471 1.327 . S
C1471 H1465 0.950 . S
C1471 C1470 1.327 . S
C1471 C1475 1.429 . S
C1472 C1455 1.574 . S
C1472 H1466 0.949 . S
C1472 C1476 1.368 . S
C1473 C1454 1.429 . S
C1473 C1467 1.429 . S
C1473 C1474 1.523 . S
C1474 C1455 1.368 . S
C1474 C1468 1.368 . S
C1474 C1473 1.523 . S
C1475 C1459 1.429 . S
C1475 C1471 1.429 . S
C1475 C1476 1.523 . S
C1476 C1460 1.368 . S
C1476 C1472 1.368 . S
C1476 C1475 1.523 . S
H1477 C1452 0.950 . S
H1478 C1454 0.950 . S
H1479 C1455 0.949 . S
H1480 C1457 0.950 . S
H1481 C1459 0.950 . S
C1482 C1483 1.349 . S
C1482 C1484 1.327 . S
C1482 H1507 0.950 . S
C1483 C1482 1.349 . S
C1483 C1499 1.349 . S
C1484 C1482 1.327 . S
C1484 C1503 1.429 . S
C1484 H1508 0.950 . S
C1485 C1502 1.574 . S
C1485 C1504 1.368 . S
C1485 H1509 0.949 . S
H1486 C1490 0.949 . S
C1487 C1488 1.349 . S
C1487 C1489 1.327 . S
C1487 H1510 0.950 . S
C1488 C1487 1.349 . S
C1488 C1500 1.349 . S
C1489 C1487 1.327 . S
C1489 C1505 1.429 . S
C1489 H1511 0.950 . S
C1490 H1486 0.949 . S
C1490 C1498 1.574 . S
C1490 C1506 1.368 . S
H1491 C1499 0.950 . S
H1492 C1497 0.950 . S
H1493 C1498 0.949 . S
H1494 C1500 0.950 . S
H1495 C1501 0.950 . S
H1496 C1502 0.949 . S
C1497 H1492 0.950 . S
C1497 C1499 1.327 . S
C1497 C1503 1.429 . S
C1498 C1490 1.574 . S
C1498 H1493 0.949 . S
C1498 C1504 1.368 . S
C1499 C1483 1.349 . S
C1499 H1491 0.950 . S
C1499 C1497 1.327 . S
C1500 C1488 1.349 . S
C1500 H1494 0.950 . S
C1500 C1501 1.327 . S
C1501 H1495 0.950 . S
C1501 C1500 1.327 . S
C1501 C1505 1.429 . S
C1502 C1485 1.574 . S
C1502 H1496 0.949 . S
C1502 C1506 1.368 . S
C1503 C1484 1.429 . S
C1503 C1497 1.429 . S
C1503 C1504 1.523 . S
C1504 C1485 1.368 . S
C1504 C1498 1.368 . S
C1504 C1503 1.523 . S
C1505 C1489 1.429 . S
C1505 C1501 1.429 . S
C1505 C1506 1.523 . S
C1506 C1490 1.368 . S
C1506 C1502 1.368 . S
C1506 C1505 1.523 . S
H1507 C1482 0.950 . S
H1508 C1484 0.950 . S
H1509 C1485 0.949 . S
H1510 C1487 0.950 . S
H1511 C1489 0.950 . S
C1512 C1513 1.349 . S
C1512 C1514 1.327 . S
C1512 H1537 0.950 . S
C1513 C1512 1.349 . S
C1513 C1529 1.349 . S
C1514 C1512 1.327 . S
C1514 C1533 1.429 . S
C1514 H1538 0.950 . S
C1515 C1532 1.574 . S
C1515 C1534 1.368 . S
C1515 H1539 0.949 . S
H1516 C1520 0.949 . S
C1517 C1518 1.349 . S
C1517 C1519 1.327 . S
C1517 H1540 0.950 . S
C1518 C1517 1.349 . S
C1518 C1530 1.349 . S
C1519 C1517 1.327 . S
C1519 C1535 1.429 . S
C1519 H1541 0.950 . S
C1520 H1516 0.949 . S
C1520 C1528 1.574 1_455 S
C1520 C1536 1.368 . S
H1521 C1529 0.950 . S
H1522 C1527 0.950 . S
H1523 C1528 0.949 . S
H1524 C1530 0.950 . S
H1525 C1531 0.950 . S
H1526 C1532 0.949 . S
C1527 H1522 0.950 . S
C1527 C1529 1.327 . S
C1527 C1533 1.429 . S
C1528 C1520 1.574 1_655 S
C1528 H1523 0.949 . S
C1528 C1534 1.368 . S
C1529 C1513 1.349 . S
C1529 H1521 0.950 . S
C1529 C1527 1.327 . S
C1530 C1518 1.349 . S
C1530 H1524 0.950 . S
C1530 C1531 1.327 . S
C1531 H1525 0.950 . S
C1531 C1530 1.327 . S
C1531 C1535 1.429 . S
C1532 C1515 1.574 . S
C1532 H1526 0.949 . S
C1532 C1536 1.368 1_655 S
C1533 C1514 1.429 . S
C1533 C1527 1.429 . S
C1533 C1534 1.523 . S
C1534 C1515 1.368 . S
C1534 C1528 1.368 . S
C1534 C1533 1.523 . S
C1535 C1519 1.429 . S
C1535 C1531 1.429 . S
C1535 C1536 1.523 . S
C1536 C1520 1.368 . S
C1536 C1532 1.368 1_455 S
C1536 C1535 1.523 . S
H1537 C1512 0.950 . S
H1538 C1514 0.950 . S
H1539 C1515 0.949 . S
H1540 C1517 0.950 . S
H1541 C1519 0.950 . S
C1542 C1543 1.349 . S
C1542 C1544 1.327 . S
C1542 H1567 0.950 . S
C1543 C1542 1.349 . S
C1543 C1559 1.349 . S
C1544 C1542 1.327 . S
C1544 C1563 1.429 . S
C1544 H1568 0.950 . S
C1545 C1562 1.574 . S
C1545 C1564 1.368 . S
C1545 H1569 0.949 . S
H1546 C1550 0.949 . S
C1547 C1548 1.349 . S
C1547 C1549 1.327 . S
C1547 H1570 0.950 . S
C1548 C1547 1.349 . S
C1548 C1560 1.349 . S
C1549 C1547 1.327 . S
C1549 C1565 1.429 . S
C1549 H1571 0.950 . S
C1550 H1546 0.949 . S
C1550 C1558 1.574 . S
C1550 C1566 1.368 . S
H1551 C1559 0.950 . S
H1552 C1557 0.950 . S
H1553 C1558 0.949 . S
H1554 C1560 0.950 . S
H1555 C1561 0.950 . S
H1556 C1562 0.949 . S
C1557 H1552 0.950 . S
C1557 C1559 1.327 . S
C1557 C1563 1.429 . S
C1558 C1550 1.574 . S
C1558 H1553 0.949 . S
C1558 C1564 1.368 . S
C1559 C1543 1.349 . S
C1559 H1551 0.950 . S
C1559 C1557 1.327 . S
C1560 C1548 1.349 . S
C1560 H1554 0.950 . S
C1560 C1561 1.327 . S
C1561 H1555 0.950 . S
C1561 C1560 1.327 . S
C1561 C1565 1.429 . S
C1562 C1545 1.574 . S
C1562 H1556 0.949 . S
C1562 C1566 1.368 . S
C1563 C1544 1.429 . S
C1563 C1557 1.429 . S
C1563 C1564 1.523 . S
C1564 C1545 1.368 . S
C1564 C1558 1.368 . S
C1564 C1563 1.523 . S
C1565 C1549 1.429 . S
C1565 C1561 1.429 . S
C1565 C1566 1.523 . S
C1566 C1550 1.368 . S
C1566 C1562 1.368 . S
C1566 C1565 1.523 . S
H1567 C1542 0.950 . S
H1568 C1544 0.950 . S
H1569 C1545 0.949 . S
H1570 C1547 0.950 . S
H1571 C1549 0.950 . S
C1572 C1573 1.349 . S
C1572 C1574 1.327 . S
C1572 H1597 0.950 . S
C1573 C1572 1.349 . S
C1573 C1589 1.349 . S
C1574 C1572 1.327 . S
C1574 C1593 1.429 . S
C1574 H1598 0.950 . S
C1575 C1592 1.574 . S
C1575 C1594 1.368 . S
C1575 H1599 0.949 . S
H1576 C1580 0.949 . S
C1577 C1578 1.349 . S
C1577 C1579 1.327 . S
C1577 H1600 0.950 . S
C1578 C1577 1.349 . S
C1578 C1590 1.349 . S
C1579 C1577 1.327 . S
C1579 C1595 1.429 . S
C1579 H1601 0.950 1_545 S
C1580 H1576 0.949 . S
C1580 C1588 1.586 . S
C1580 C1596 1.368 . S
H1581 C1589 0.950 . S
H1582 C1587 0.950 . S
H1583 C1588 0.978 . S
H1584 C1590 0.950 . S
H1585 C1591 0.950 . S
H1586 C1592 0.949 . S
C1587 H1582 0.950 . S
C1587 C1589 1.327 . S
C1587 C1593 1.429 . S
C1588 C1580 1.586 . S
C1588 H1583 0.978 . S
C1588 C1594 1.326 1_545 S
C1589 C1573 1.349 . S
C1589 H1581 0.950 . S
C1589 C1587 1.327 . S
C1590 C1578 1.349 . S
C1590 H1584 0.950 . S
C1590 C1591 1.327 . S
C1591 H1585 0.950 . S
C1591 C1590 1.327 . S
C1591 C1595 1.429 . S
C1592 C1575 1.574 . S
C1592 H1586 0.949 . S
C1592 C1596 1.368 1_565 S
C1593 C1574 1.429 . S
C1593 C1587 1.429 . S
C1593 C1594 1.523 . S
C1594 C1575 1.368 . S
C1594 C1588 1.326 1_565 S
C1594 C1593 1.523 . S
C1595 C1579 1.429 . S
C1595 C1591 1.429 . S
C1595 C1596 1.523 . S
C1596 C1580 1.368 . S
C1596 C1592 1.368 1_545 S
C1596 C1595 1.523 . S
H1597 C1572 0.950 . S
H1598 C1574 0.950 . S
H1599 C1575 0.949 . S
H1600 C1577 0.950 . S
H1601 C1579 0.950 1_565 S
C1602 C1603 1.349 . S
C1602 C1604 1.327 1_554 S
C1602 H1627 0.950 1_554 S
C1603 C1602 1.349 . S
C1603 C1619 1.349 . S
C1604 C1602 1.327 1_556 S
C1604 C1623 1.429 1_556 S
C1604 H1628 0.950 . S
C1605 C1622 1.574 . S
C1605 C1624 1.368 . S
C1605 H1629 0.949 . S
H1606 C1610 0.949 . S
C1607 C1608 1.349 . S
C1607 C1609 1.327 1_556 S
C1607 H1630 0.950 1_556 S
C1608 C1607 1.349 . S
C1608 C1620 1.349 . S
C1609 C1607 1.327 1_554 S
C1609 C1625 1.429 1_554 S
C1609 H1631 0.950 . S
C1610 H1606 0.949 . S
C1610 C1618 1.574 . S
C1610 C1626 1.368 . S
H1611 C1619 0.950 . S
H1612 C1617 0.950 . S
H1613 C1618 0.949 . S
H1614 C1620 0.950 . S
H1615 C1621 0.950 . S
H1616 C1622 0.949 . S
C1617 H1612 0.950 . S
C1617 C1619 1.327 . S
C1617 C1623 1.429 . S
C1618 C1610 1.574 . S
C1618 H1613 0.949 . S
C1618 C1624 1.368 1_556 S
C1619 C1603 1.349 . S
C1619 H1611 0.950 . S
C1619 C1617 1.327 . S
C1620 C1608 1.349 . S
C1620 H1614 0.950 . S
C1620 C1621 1.327 . S
C1621 H1615 0.950 . S
C1621 C1620 1.327 . S
C1621 C1625 1.429 . S
C1622 C1605 1.574 . S
C1622 H1616 0.949 . S
C1622 C1626 1.368 1_554 S
C1623 C1604 1.429 1_554 S
C1623 C1617 1.429 . S
C1623 C1624 1.523 . S
C1624 C1605 1.368 . S
C1624 C1618 1.368 1_554 S
C1624 C1623 1.523 . S
C1625 C1609 1.429 1_556 S
C1625 C1621 1.429 . S
C1625 C1626 1.523 . S
C1626 C1610 1.368 . S
C1626 C1622 1.368 1_556 S
C1626 C1625 1.523 . S
H1627 C1602 0.950 1_556 S
H1628 C1604 0.950 . S
H1629 C1605 0.949 . S
H1630 C1607 0.950 1_554 S
H1631 C1609 0.950 . S
C1632 C1633 1.349 . S
C1632 C1634 1.327 1_556 S
C1632 H1657 0.950 1_556 S
C1633 C1632 1.349 . S
C1633 C1649 1.349 . S
C1634 C1632 1.327 1_554 S
C1634 C1653 1.429 1_554 S
C1634 H1658 0.950 . S
C1635 C1652 1.574 1_545 S
C1635 C1654 1.368 . S
C1635 H1659 0.949 . S
H1636 C1640 0.949 . S
C1637 C1638 1.349 . S
C1637 C1639 1.327 1_554 S
C1637 H1660 0.950 1_554 S
C1638 C1637 1.349 . S
C1638 C1650 1.349 . S
C1639 C1637 1.327 1_556 S
C1639 C1655 1.429 1_556 S
C1639 H1661 0.950 . S
C1640 H1636 0.949 . S
C1640 C1648 1.574 1_565 S
C1640 C1656 1.368 . S
H1641 C1649 0.950 . S
H1642 C1647 0.950 . S
H1643 C1648 0.949 . S
H1644 C1650 0.950 . S
H1645 C1651 0.950 . S
H1646 C1652 0.949 . S
C1647 H1642 0.950 . S
C1647 C1649 1.327 . S
C1647 C1653 1.429 . S
C1648 C1640 1.574 1_545 S
C1648 H1643 0.949 . S
C1648 C1654 1.368 1_554 S
C1649 C1633 1.349 . S
C1649 H1641 0.950 . S
C1649 C1647 1.327 . S
C1650 C1638 1.349 . S
C1650 H1644 0.950 . S
C1650 C1651 1.327 . S
C1651 H1645 0.950 . S
C1651 C1650 1.327 . S
C1651 C1655 1.429 . S
C1652 C1635 1.574 1_565 S
C1652 H1646 0.949 . S
C1652 C1656 1.368 1_556 S
C1653 C1634 1.429 1_556 S
C1653 C1647 1.429 . S
C1653 C1654 1.523 . S
C1654 C1635 1.368 . S
C1654 C1648 1.368 1_556 S
C1654 C1653 1.523 . S
C1655 C1639 1.429 1_554 S
C1655 C1651 1.429 . S
C1655 C1656 1.523 . S
C1656 C1640 1.368 . S
C1656 C1652 1.368 1_554 S
C1656 C1655 1.523 . S
H1657 C1632 0.950 1_554 S
H1658 C1634 0.950 . S
H1659 C1635 0.949 . S
H1660 C1637 0.950 1_556 S
H1661 C1639 0.950 . S
C1662 C1663 1.349 . S
C1662 C1664 1.327 . S
C1662 H1687 0.950 1_556 S
C1663 C1662 1.349 . S
C1663 C1679 1.349 . S
C1664 C1662 1.327 . S
C1664 C1683 1.429 . S
C1664 H1688 0.950 1_556 S
C1665 C1682 1.574 1_655 S
C1665 C1684 1.368 . S
C1665 H1689 0.949 . S
H1666 C1670 0.949 . S
C1667 C1668 1.349 . S
C1667 C1669 1.334 . S
C1667 H1690 0.950 1_554 S
C1668 C1667 1.349 . S
C1668 C1680 1.349 . S
C1669 C1667 1.334 . S
C1669 C1685 1.441 . S
C1669 H1691 0.931 1_554 S
C1670 H1666 0.949 . S
C1670 C1678 1.574 1_455 S
C1670 C1686 1.368 . S
H1671 C1679 0.950 . S
H1672 C1677 0.950 . S
H1673 C1678 0.949 . S
H1674 C1680 0.950 . S
H1675 C1681 0.950 . S
H1676 C1682 0.949 . S
C1677 H1672 0.950 . S
C1677 C1679 1.327 . S
C1677 C1683 1.429 . S
C1678 C1670 1.574 1_655 S
C1678 H1673 0.949 . S
C1678 C1684 1.368 1_554 S
C1679 C1663 1.349 . S
C1679 H1671 0.950 . S
C1679 C1677 1.327 . S
C1680 C1668 1.349 . S
C1680 H1674 0.950 . S
C1680 C1681 1.327 . S
C1681 H1675 0.950 . S
C1681 C1680 1.327 . S
C1681 C1685 1.429 . S
C1682 C1665 1.574 1_455 S
C1682 H1676 0.949 . S
C1682 C1686 1.368 1_556 S
C1683 C1664 1.429 . S
C1683 C1677 1.429 . S
C1683 C1684 1.523 . S
C1684 C1665 1.368 . S
C1684 C1678 1.368 1_556 S
C1684 C1683 1.523 . S
C1685 C1669 1.441 . S
C1685 C1681 1.429 . S
C1685 C1686 1.523 . S
C1686 C1670 1.368 . S
C1686 C1682 1.368 1_554 S
C1686 C1685 1.523 . S
H1687 C1662 0.950 1_554 S
H1688 C1664 0.950 1_554 S
H1689 C1665 0.949 . S
H1690 C1667 0.950 1_556 S
H1691 C1669 0.931 1_556 S
C1692 C1693 1.349 . S
C1692 C1694 1.327 1_556 S
C1692 H1717 0.950 1_556 S
C1693 C1692 1.349 . S
C1693 C1709 1.349 . S
C1694 C1692 1.327 1_554 S
C1694 C1713 1.429 1_554 S
C1694 H1718 0.950 . S
C1695 C1712 1.574 . S
C1695 C1714 1.368 . S
C1695 H1719 0.949 . S
H1696 C1700 0.949 . S
C1697 C1698 1.349 . S
C1697 C1699 1.327 1_554 S
C1697 H1720 0.950 1_554 S
C1698 C1697 1.349 . S
C1698 C1710 1.349 . S
C1699 C1697 1.327 1_556 S
C1699 C1715 1.429 1_556 S
C1699 H1721 0.950 . S
C1700 H1696 0.949 . S
C1700 C1708 1.574 . S
C1700 C1716 1.368 . S
H1701 C1709 0.950 . S
H1702 C1707 0.950 . S
H1703 C1708 0.949 . S
H1704 C1710 0.950 . S
H1705 C1711 0.950 . S
H1706 C1712 0.949 . S
C1707 H1702 0.950 . S
C1707 C1709 1.327 . S
C1707 C1713 1.429 . S
C1708 C1700 1.574 . S
C1708 H1703 0.949 . S
C1708 C1714 1.368 1_554 S
C1709 C1693 1.349 . S
C1709 H1701 0.950 . S
C1709 C1707 1.327 . S
C1710 C1698 1.349 . S
C1710 H1704 0.950 . S
C1710 C1711 1.327 . S
C1711 H1705 0.950 . S
C1711 C1710 1.327 . S
C1711 C1715 1.429 . S
C1712 C1695 1.574 . S
C1712 H1706 0.949 . S
C1712 C1716 1.368 1_556 S
C1713 C1694 1.429 1_556 S
C1713 C1707 1.429 . S
C1713 C1714 1.523 . S
C1714 C1695 1.368 . S
C1714 C1708 1.368 1_556 S
C1714 C1713 1.523 . S
C1715 C1699 1.429 1_554 S
C1715 C1711 1.429 . S
C1715 C1716 1.523 . S
C1716 C1700 1.368 . S
C1716 C1712 1.368 1_554 S
C1716 C1715 1.523 . S
H1717 C1692 0.950 1_554 S
H1718 C1694 0.950 . S
H1719 C1695 0.949 . S
H1720 C1697 0.950 1_556 S
H1721 C1699 0.950 . S
C1722 C1723 1.349 . S
C1722 C1724 1.327 . S
C1722 H1747 0.950 . S
C1723 C1722 1.349 . S
C1723 C1739 1.349 . S
C1724 C1722 1.327 . S
C1724 C1743 1.429 . S
C1724 H1748 0.950 1_554 S
C1725 C1742 1.574 1_565 S
C1725 C1744 1.368 . S
C1725 H1749 0.949 . S
H1726 C1730 0.949 . S
C1727 C1728 1.349 . S
C1727 C1729 1.327 . S
C1727 H1750 0.950 . S
C1728 C1727 1.349 . S
C1728 C1740 1.349 . S
C1729 C1727 1.327 . S
C1729 C1745 1.429 . S
C1729 H1751 0.950 1_556 S
C1730 H1726 0.949 . S
C1730 C1738 1.574 1_545 S
C1730 C1746 1.368 . S
H1731 C1739 0.950 . S
H1732 C1737 0.950 . S
H1733 C1738 0.949 . S
H1734 C1740 0.950 . S
H1735 C1741 0.950 . S
H1736 C1742 0.949 . S
C1737 H1732 0.950 . S
C1737 C1739 1.327 . S
C1737 C1743 1.429 . S
C1738 C1730 1.574 1_565 S
C1738 H1733 0.949 . S
C1738 C1744 1.368 1_556 S
C1739 C1723 1.349 . S
C1739 H1731 0.950 . S
C1739 C1737 1.327 . S
C1740 C1728 1.349 . S
C1740 H1734 0.950 . S
C1740 C1741 1.327 . S
C1741 H1735 0.950 . S
C1741 C1740 1.327 . S
C1741 C1745 1.429 . S
C1742 C1725 1.574 1_545 S
C1742 H1736 0.949 . S
C1742 C1746 1.368 1_554 S
C1743 C1724 1.429 . S
C1743 C1737 1.429 . S
C1743 C1744 1.523 . S
C1744 C1725 1.368 . S
C1744 C1738 1.368 1_554 S
C1744 C1743 1.523 . S
C1745 C1729 1.429 . S
C1745 C1741 1.429 . S
C1745 C1746 1.523 . S
C1746 C1730 1.368 . S
C1746 C1742 1.368 1_556 S
C1746 C1745 1.523 . S
H1747 C1722 0.950 . S
H1748 C1724 0.950 1_556 S
H1749 C1725 0.949 . S
H1750 C1727 0.950 . S
H1751 C1729 0.950 1_554 S
C1752 C1753 1.349 . S
C1752 C1754 1.327 1_556 S
C1752 H1777 0.950 1_556 S
C1753 C1752 1.349 . S
C1753 C1769 1.349 . S
C1754 C1752 1.327 1_554 S
C1754 C1773 1.429 1_554 S
C1754 H1778 0.950 . S
C1755 C1772 1.574 1_655 S
C1755 C1774 1.368 . S
C1755 H1779 0.949 . S
H1756 C1760 0.949 . S
C1757 C1758 1.349 . S
C1757 C1759 1.327 1_554 S
C1757 H1780 0.950 1_554 S
C1758 C1757 1.349 . S
C1758 C1770 1.349 . S
C1759 C1757 1.327 1_556 S
C1759 C1775 1.429 1_556 S
C1759 H1781 0.950 . S
C1760 H1756 0.949 . S
C1760 C1768 1.574 1_455 S
C1760 C1776 1.368 . S
H1761 C1769 0.950 . S
H1762 C1767 0.950 . S
H1763 C1768 0.949 . S
H1764 C1770 0.950 . S
H1765 C1771 0.950 . S
H1766 C1772 0.949 . S
C1767 H1762 0.950 . S
C1767 C1769 1.327 . S
C1767 C1773 1.429 . S
C1768 C1760 1.574 1_655 S
C1768 H1763 0.949 . S
C1768 C1774 1.368 1_554 S
C1769 C1753 1.349 . S
C1769 H1761 0.950 . S
C1769 C1767 1.327 . S
C1770 C1758 1.349 . S
C1770 H1764 0.950 . S
C1770 C1771 1.327 . S
C1771 H1765 0.950 . S
C1771 C1770 1.327 . S
C1771 C1775 1.429 . S
C1772 C1755 1.574 1_455 S
C1772 H1766 0.949 . S
C1772 C1776 1.368 1_556 S
C1773 C1754 1.429 1_556 S
C1773 C1767 1.429 . S
C1773 C1774 1.523 . S
C1774 C1755 1.368 . S
C1774 C1768 1.368 1_556 S
C1774 C1773 1.523 . S
C1775 C1759 1.429 1_554 S
C1775 C1771 1.429 . S
C1775 C1776 1.523 . S
C1776 C1760 1.368 . S
C1776 C1772 1.368 1_554 S
C1776 C1775 1.523 . S
H1777 C1752 0.950 1_554 S
H1778 C1754 0.950 . S
H1779 C1755 0.949 . S
H1780 C1757 0.950 1_556 S
H1781 C1759 0.950 . S
C1782 C1783 1.349 . S
C1782 C1784 1.327 . S
C1782 H1807 0.950 . S
C1783 C1782 1.349 . S
C1783 C1799 1.349 . S
C1784 C1782 1.327 . S
C1784 C1803 1.429 . S
C1784 H1808 0.950 . S
C1785 C1802 1.574 . S
C1785 C1804 1.368 . S
C1785 H1809 0.949 . S
H1786 C1790 0.949 . S
C1787 C1788 1.349 . S
C1787 C1789 1.327 . S
C1787 H1810 0.950 . S
C1788 C1787 1.349 . S
C1788 C1800 1.349 . S
C1789 C1787 1.327 . S
C1789 C1805 1.429 . S
C1789 H1811 0.950 . S
C1790 H1786 0.949 . S
C1790 C1798 1.574 . S
C1790 C1806 1.368 . S
H1791 C1799 0.950 . S
H1792 C1797 0.950 . S
H1793 C1798 0.949 . S
H1794 C1800 0.950 . S
H1795 C1801 0.950 . S
H1796 C1802 0.949 . S
C1797 H1792 0.950 . S
C1797 C1799 1.327 . S
C1797 C1803 1.429 . S
C1798 C1790 1.574 . S
C1798 H1793 0.949 . S
C1798 C1804 1.368 . S
C1799 C1783 1.349 . S
C1799 H1791 0.950 . S
C1799 C1797 1.327 . S
C1800 C1788 1.349 . S
C1800 H1794 0.950 . S
C1800 C1801 1.327 . S
C1801 H1795 0.950 . S
C1801 C1800 1.327 . S
C1801 C1805 1.429 . S
C1802 C1785 1.574 . S
C1802 H1796 0.949 . S
C1802 C1806 1.368 . S
C1803 C1784 1.429 . S
C1803 C1797 1.429 . S
C1803 C1804 1.523 . S
C1804 C1785 1.368 . S
C1804 C1798 1.368 . S
C1804 C1803 1.523 . S
C1805 C1789 1.429 . S
C1805 C1801 1.429 . S
C1805 C1806 1.523 . S
C1806 C1790 1.368 . S
C1806 C1802 1.368 . S
C1806 C1805 1.523 . S
H1807 C1782 0.950 . S
H1808 C1784 0.950 . S
H1809 C1785 0.949 . S
H1810 C1787 0.950 . S
H1811 C1789 0.950 . S
C1812 C1813 1.349 . S
C1812 C1814 1.327 . S
C1812 H1837 0.950 . S
C1813 C1812 1.349 . S
C1813 C1829 1.349 . S
C1814 C1812 1.327 . S
C1814 C1833 1.429 . S
C1814 H1838 0.950 . S
C1815 C1832 1.574 . S
C1815 C1834 1.368 . S
C1815 H1839 0.949 . S
H1816 C1820 0.949 . S
C1817 C1818 1.349 . S
C1817 C1819 1.327 . S
C1817 H1840 0.950 . S
C1818 C1817 1.349 . S
C1818 C1830 1.349 . S
C1819 C1817 1.327 . S
C1819 C1835 1.429 . S
C1819 H1841 0.950 . S
C1820 H1816 0.949 . S
C1820 C1828 1.574 . S
C1820 C1836 1.368 . S
H1821 C1829 0.950 . S
H1822 C1827 0.950 . S
H1823 C1828 0.949 . S
H1824 C1830 0.950 . S
H1825 C1831 0.950 . S
H1826 C1832 0.949 . S
C1827 H1822 0.950 . S
C1827 C1829 1.327 . S
C1827 C1833 1.429 . S
C1828 C1820 1.574 . S
C1828 H1823 0.949 . S
C1828 C1834 1.368 . S
C1829 C1813 1.349 . S
C1829 H1821 0.950 . S
C1829 C1827 1.327 . S
C1830 C1818 1.349 . S
C1830 H1824 0.950 . S
C1830 C1831 1.327 . S
C1831 H1825 0.950 . S
C1831 C1830 1.327 . S
C1831 C1835 1.429 . S
C1832 C1815 1.574 . S
C1832 H1826 0.949 . S
C1832 C1836 1.368 . S
C1833 C1814 1.429 . S
C1833 C1827 1.429 . S
C1833 C1834 1.523 . S
C1834 C1815 1.368 . S
C1834 C1828 1.368 . S
C1834 C1833 1.523 . S
C1835 C1819 1.429 . S
C1835 C1831 1.429 . S
C1835 C1836 1.523 . S
C1836 C1820 1.368 . S
C1836 C1832 1.368 . S
C1836 C1835 1.523 . S
H1837 C1812 0.950 . S
H1838 C1814 0.950 . S
H1839 C1815 0.949 . S
H1840 C1817 0.950 . S
H1841 C1819 0.950 . S
C1842 C1843 1.349 . S
C1842 C1844 1.327 . S
C1842 H1867 0.950 . S
C1843 C1842 1.349 . S
C1843 C1859 1.349 . S
C1844 C1842 1.327 . S
C1844 C1863 1.429 . S
C1844 H1868 0.950 . S
C1845 C1862 1.574 . S
C1845 C1864 1.368 . S
C1845 H1869 0.949 . S
H1846 C1850 0.949 . S
C1847 C1848 1.349 . S
C1847 C1849 1.327 . S
C1847 H1870 0.950 . S
C1848 C1847 1.349 . S
C1848 C1860 1.349 . S
C1849 C1847 1.327 . S
C1849 C1865 1.429 . S
C1849 H1871 0.950 . S
C1850 H1846 0.949 . S
C1850 C1858 1.574 . S
C1850 C1866 1.368 . S
H1851 C1859 0.950 . S
H1852 C1857 0.950 . S
H1853 C1858 0.949 . S
H1854 C1860 0.950 . S
H1855 C1861 0.950 . S
H1856 C1862 0.949 . S
C1857 H1852 0.950 . S
C1857 C1859 1.327 . S
C1857 C1863 1.429 . S
C1858 C1850 1.574 . S
C1858 H1853 0.949 . S
C1858 C1864 1.368 . S
C1859 C1843 1.349 . S
C1859 H1851 0.950 . S
C1859 C1857 1.327 . S
C1860 C1848 1.349 . S
C1860 H1854 0.950 . S
C1860 C1861 1.327 . S
C1861 H1855 0.950 . S
C1861 C1860 1.327 . S
C1861 C1865 1.429 . S
C1862 C1845 1.574 . S
C1862 H1856 0.949 . S
C1862 C1866 1.368 . S
C1863 C1844 1.429 . S
C1863 C1857 1.429 . S
C1863 C1864 1.523 . S
C1864 C1845 1.368 . S
C1864 C1858 1.368 . S
C1864 C1863 1.523 . S
C1865 C1849 1.429 . S
C1865 C1861 1.429 . S
C1865 C1866 1.523 . S
C1866 C1850 1.368 . S
C1866 C1862 1.368 . S
C1866 C1865 1.523 . S
H1867 C1842 0.950 . S
H1868 C1844 0.950 . S
H1869 C1845 0.949 . S
H1870 C1847 0.950 . S
H1871 C1849 0.950 . S
C1872 C1873 1.349 . S
C1872 C1874 1.327 . S
C1872 H1897 0.950 . S
C1873 C1872 1.349 . S
C1873 C1889 1.349 . S
C1874 C1872 1.327 . S
C1874 C1893 1.429 . S
C1874 H1898 0.950 . S
C1875 C1892 1.574 . S
C1875 C1894 1.368 . S
C1875 H1899 0.949 . S
H1876 C1880 0.949 . S
C1877 C1878 1.349 . S
C1877 C1879 1.327 . S
C1877 H1900 0.950 . S
C1878 C1877 1.349 . S
C1878 C1890 1.349 . S
C1879 C1877 1.327 . S
C1879 C1895 1.429 . S
C1879 H1901 0.950 . S
C1880 H1876 0.949 . S
C1880 C1888 1.574 . S
C1880 C1896 1.368 . S
H1881 C1889 0.950 . S
H1882 C1887 0.950 . S
H1883 C1888 0.949 . S
H1884 C1890 0.950 . S
H1885 C1891 0.950 . S
H1886 C1892 0.949 . S
C1887 H1882 0.950 . S
C1887 C1889 1.327 . S
C1887 C1893 1.429 . S
C1888 C1880 1.574 . S
C1888 H1883 0.949 . S
C1888 C1894 1.368 . S
C1889 C1873 1.349 . S
C1889 H1881 0.950 . S
C1889 C1887 1.327 . S
C1890 C1878 1.349 . S
C1890 H1884 0.950 . S
C1890 C1891 1.327 . S
C1891 H1885 0.950 . S
C1891 C1890 1.327 . S
C1891 C1895 1.429 . S
C1892 C1875 1.574 . S
C1892 H1886 0.949 . S
C1892 C1896 1.368 . S
C1893 C1874 1.429 . S
C1893 C1887 1.429 . S
C1893 C1894 1.523 . S
C1894 C1875 1.368 . S
C1894 C1888 1.368 . S
C1894 C1893 1.523 . S
C1895 C1879 1.429 . S
C1895 C1891 1.429 . S
C1895 C1896 1.523 . S
C1896 C1880 1.368 . S
C1896 C1892 1.368 . S
C1896 C1895 1.523 . S
H1897 C1872 0.950 . S
H1898 C1874 0.950 . S
H1899 C1875 0.949 . S
H1900 C1877 0.950 . S
H1901 C1879 0.950 . S
C1902 C1903 1.349 . S
C1902 C1904 1.327 . S
C1902 H1927 0.950 . S
C1903 C1902 1.349 . S
C1903 C1919 1.349 . S
C1904 C1902 1.327 . S
C1904 C1923 1.429 . S
C1904 H1928 0.950 . S
C1905 C1922 1.574 . S
C1905 C1924 1.368 . S
C1905 H1929 0.949 . S
H1906 C1910 0.949 . S
C1907 C1908 1.349 . S
C1907 C1909 1.327 . S
C1907 H1930 0.950 . S
C1908 C1907 1.349 . S
C1908 C1920 1.349 . S
C1909 C1907 1.327 . S
C1909 C1925 1.429 . S
C1909 H1931 0.950 . S
C1910 H1906 0.949 . S
C1910 C1918 1.574 . S
C1910 C1926 1.368 . S
H1911 C1919 0.950 . S
H1912 C1917 0.950 . S
H1913 C1918 0.949 . S
H1914 C1920 0.950 . S
H1915 C1921 0.950 . S
H1916 C1922 0.949 . S
C1917 H1912 0.950 . S
C1917 C1919 1.327 . S
C1917 C1923 1.429 . S
C1918 C1910 1.574 . S
C1918 H1913 0.949 . S
C1918 C1924 1.368 . S
C1919 C1903 1.349 . S
C1919 H1911 0.950 . S
C1919 C1917 1.327 . S
C1920 C1908 1.349 . S
C1920 H1914 0.950 . S
C1920 C1921 1.327 . S
C1921 H1915 0.950 . S
C1921 C1920 1.327 . S
C1921 C1925 1.429 . S
C1922 C1905 1.574 . S
C1922 H1916 0.949 . S
C1922 C1926 1.368 . S
C1923 C1904 1.429 . S
C1923 C1917 1.429 . S
C1923 C1924 1.523 . S
C1924 C1905 1.368 . S
C1924 C1918 1.368 . S
C1924 C1923 1.523 . S
C1925 C1909 1.429 . S
C1925 C1921 1.429 . S
C1925 C1926 1.523 . S
C1926 C1910 1.368 . S
C1926 C1922 1.368 . S
C1926 C1925 1.523 . S
H1927 C1902 0.950 . S
H1928 C1904 0.950 . S
H1929 C1905 0.949 . S
H1930 C1907 0.950 . S
H1931 C1909 0.950 . S
C1932 C1933 1.349 . S
C1932 C1934 1.327 . S
C1932 H1957 0.950 . S
C1933 C1932 1.349 . S
C1933 C1949 1.349 . S
C1934 C1932 1.327 . S
C1934 C1953 1.429 . S
C1934 H1958 0.950 . S
C1935 C1952 1.574 . S
C1935 C1954 1.368 . S
C1935 H1959 0.949 . S
H1936 C1940 0.949 . S
C1937 C1938 1.349 . S
C1937 C1939 1.327 . S
C1937 H1960 0.950 . S
C1938 C1937 1.349 . S
C1938 C1950 1.349 . S
C1939 C1937 1.327 . S
C1939 C1955 1.429 . S
C1939 H1961 0.950 . S
C1940 H1936 0.949 . S
C1940 C1948 1.574 . S
C1940 C1956 1.368 . S
H1941 C1949 0.950 . S
H1942 C1947 0.950 . S
H1943 C1948 0.949 . S
H1944 C1950 0.950 . S
H1945 C1951 0.950 . S
H1946 C1952 0.949 . S
C1947 H1942 0.950 . S
C1947 C1949 1.327 . S
C1947 C1953 1.429 . S
C1948 C1940 1.574 . S
C1948 H1943 0.949 . S
C1948 C1954 1.368 . S
C1949 C1933 1.349 . S
C1949 H1941 0.950 . S
C1949 C1947 1.327 . S
C1950 C1938 1.349 . S
C1950 H1944 0.950 . S
C1950 C1951 1.327 . S
C1951 H1945 0.950 . S
C1951 C1950 1.327 . S
C1951 C1955 1.429 . S
C1952 C1935 1.574 . S
C1952 H1946 0.949 . S
C1952 C1956 1.368 . S
C1953 C1934 1.429 . S
C1953 C1947 1.429 . S
C1953 C1954 1.523 . S
C1954 C1935 1.368 . S
C1954 C1948 1.368 . S
C1954 C1953 1.523 . S
C1955 C1939 1.429 . S
C1955 C1951 1.429 . S
C1955 C1956 1.523 . S
C1956 C1940 1.368 . S
C1956 C1952 1.368 . S
C1956 C1955 1.523 . S
H1957 C1932 0.950 . S
H1958 C1934 0.950 . S
H1959 C1935 0.949 . S
H1960 C1937 0.950 . S
H1961 C1939 0.950 . S
C1962 C1963 1.349 . S
C1962 C1964 1.327 . S
C1962 H1987 0.950 . S
C1963 C1962 1.349 . S
C1963 C1979 1.349 . S
C1964 C1962 1.327 . S
C1964 C1983 1.429 . S
C1964 H1988 0.950 . S
C1965 C1982 1.574 . S
C1965 C1984 1.368 . S
C1965 H1989 0.949 . S
H1966 C1970 0.949 . S
C1967 C1968 1.349 . S
C1967 C1969 1.327 . S
C1967 H1990 0.950 . S
C1968 C1967 1.349 . S
C1968 C1980 1.349 . S
C1969 C1967 1.327 . S
C1969 C1985 1.429 . S
C1969 H1991 0.950 . S
C1970 H1966 0.949 . S
C1970 C1978 1.574 . S
C1970 C1986 1.368 . S
H1971 C1979 0.950 . S
H1972 C1977 0.950 . S
H1973 C1978 0.949 . S
H1974 C1980 0.950 . S
H1975 C1981 0.950 . S
H1976 C1982 0.949 . S
C1977 H1972 0.950 . S
C1977 C1979 1.327 . S
C1977 C1983 1.429 . S
C1978 C1970 1.574 . S
C1978 H1973 0.949 . S
C1978 C1984 1.368 . S
C1979 C1963 1.349 . S
C1979 H1971 0.950 . S
C1979 C1977 1.327 . S
C1980 C1968 1.349 . S
C1980 H1974 0.950 . S
C1980 C1981 1.327 . S
C1981 H1975 0.950 . S
C1981 C1980 1.327 . S
C1981 C1985 1.429 . S
C1982 C1965 1.574 . S
C1982 H1976 0.949 . S
C1982 C1986 1.368 . S
C1983 C1964 1.429 . S
C1983 C1977 1.429 . S
C1983 C1984 1.523 . S
C1984 C1965 1.368 . S
C1984 C1978 1.368 . S
C1984 C1983 1.523 . S
C1985 C1969 1.429 . S
C1985 C1981 1.429 . S
C1985 C1986 1.523 . S
C1986 C1970 1.368 . S
C1986 C1982 1.368 . S
C1986 C1985 1.523 . S
H1987 C1962 0.950 . S
H1988 C1964 0.950 . S
H1989 C1965 0.949 . S
H1990 C1967 0.950 . S
H1991 C1969 0.950 . S
C1992 C1993 1.349 . S
C1992 C1994 1.327 . S
C1992 H2017 0.950 . S
C1993 C1992 1.349 . S
C1993 C2009 1.349 . S
C1994 C1992 1.327 . S
C1994 C2013 1.429 . S
C1994 H2018 0.950 . S
C1995 C2012 1.574 . S
C1995 C2014 1.368 . S
C1995 H2019 0.949 . S
H1996 C2000 0.949 . S
C1997 C1998 1.349 . S
C1997 C1999 1.327 . S
C1997 H2020 0.950 . S
C1998 C1997 1.349 . S
C1998 C2010 1.349 . S
C1999 C1997 1.327 . S
C1999 C2015 1.429 . S
C1999 H2021 0.950 . S
C2000 H1996 0.949 . S
C2000 C2008 1.574 . S
C2000 C2016 1.368 . S
H2001 C2009 0.950 . S
H2002 C2007 0.950 . S
H2003 C2008 0.949 . S
H2004 C2010 0.950 . S
H2005 C2011 0.950 . S
H2006 C2012 0.949 . S
C2007 H2002 0.950 . S
C2007 C2009 1.327 . S
C2007 C2013 1.429 . S
C2008 C2000 1.574 . S
C2008 H2003 0.949 . S
C2008 C2014 1.368 . S
C2009 C1993 1.349 . S
C2009 H2001 0.950 . S
C2009 C2007 1.327 . S
C2010 C1998 1.349 . S
C2010 H2004 0.950 . S
C2010 C2011 1.327 . S
C2011 H2005 0.950 . S
C2011 C2010 1.327 . S
C2011 C2015 1.429 . S
C2012 C1995 1.574 . S
C2012 H2006 0.949 . S
C2012 C2016 1.368 . S
C2013 C1994 1.429 . S
C2013 C2007 1.429 . S
C2013 C2014 1.523 . S
C2014 C1995 1.368 . S
C2014 C2008 1.368 . S
C2014 C2013 1.523 . S
C2015 C1999 1.429 . S
C2015 C2011 1.429 . S
C2015 C2016 1.523 . S
C2016 C2000 1.368 . S
C2016 C2012 1.368 . S
C2016 C2015 1.523 . S
H2017 C1992 0.950 . S
H2018 C1994 0.950 . S
H2019 C1995 0.949 . S
H2020 C1997 0.950 . S
H2021 C1999 0.950 . S
C2022 C2023 1.349 . S
C2022 C2024 1.327 . S
C2022 H2047 0.950 . S
C2023 C2022 1.349 . S
C2023 C2039 1.349 . S
C2024 C2022 1.327 . S
C2024 C2043 1.429 . S
C2024 H2048 0.950 . S
C2025 C2042 1.574 . S
C2025 C2044 1.368 . S
C2025 H2049 0.949 . S
H2026 C2030 0.949 . S
C2027 C2028 1.349 . S
C2027 C2029 1.327 . S
C2027 H2050 0.950 . S
C2028 C2027 1.349 . S
C2028 C2040 1.349 . S
C2029 C2027 1.327 . S
C2029 C2045 1.429 . S
C2029 H2051 0.950 . S
C2030 H2026 0.949 . S
C2030 C2038 1.574 . S
C2030 C2046 1.368 . S
H2031 C2039 0.950 . S
H2032 C2037 0.950 . S
H2033 C2038 0.949 . S
H2034 C2040 0.950 . S
H2035 C2041 0.950 . S
H2036 C2042 0.949 . S
C2037 H2032 0.950 . S
C2037 C2039 1.327 . S
C2037 C2043 1.429 . S
C2038 C2030 1.574 . S
C2038 H2033 0.949 . S
C2038 C2044 1.368 . S
C2039 C2023 1.349 . S
C2039 H2031 0.950 . S
C2039 C2037 1.327 . S
C2040 C2028 1.349 . S
C2040 H2034 0.950 . S
C2040 C2041 1.327 . S
C2041 H2035 0.950 . S
C2041 C2040 1.327 . S
C2041 C2045 1.429 . S
C2042 C2025 1.574 . S
C2042 H2036 0.949 . S
C2042 C2046 1.368 . S
C2043 C2024 1.429 . S
C2043 C2037 1.429 . S
C2043 C2044 1.523 . S
C2044 C2025 1.368 . S
C2044 C2038 1.368 . S
C2044 C2043 1.523 . S
C2045 C2029 1.429 . S
C2045 C2041 1.429 . S
C2045 C2046 1.523 . S
C2046 C2030 1.368 . S
C2046 C2042 1.368 . S
C2046 C2045 1.523 . S
H2047 C2022 0.950 . S
H2048 C2024 0.950 . S
H2049 C2025 0.949 . S
H2050 C2027 0.950 . S
H2051 C2029 0.950 . S
C2052 C2053 1.349 . S
C2052 C2054 1.327 . S
C2052 H2077 0.950 . S
C2053 C2052 1.349 . S
C2053 C2069 1.349 . S
C2054 C2052 1.327 . S
C2054 C2073 1.429 . S
C2054 H2078 0.950 . S
C2055 C2072 1.574 . S
C2055 C2074 1.368 . S
C2055 H2079 0.949 . S
H2056 C2060 0.949 . S
C2057 C2058 1.349 . S
C2057 C2059 1.327 . S
C2057 H2080 0.950 . S
C2058 C2057 1.349 . S
C2058 C2070 1.349 . S
C2059 C2057 1.327 . S
C2059 C2075 1.429 . S
C2059 H2081 0.950 . S
C2060 H2056 0.949 . S
C2060 C2068 1.574 . S
C2060 C2076 1.368 . S
H2061 C2069 0.950 . S
H2062 C2067 0.950 . S
H2063 C2068 0.949 . S
H2064 C2070 0.950 . S
H2065 C2071 0.950 . S
H2066 C2072 0.949 . S
C2067 H2062 0.950 . S
C2067 C2069 1.327 . S
C2067 C2073 1.429 . S
C2068 C2060 1.574 . S
C2068 H2063 0.949 . S
C2068 C2074 1.368 . S
C2069 C2053 1.349 . S
C2069 H2061 0.950 . S
C2069 C2067 1.327 . S
C2070 C2058 1.349 . S
C2070 H2064 0.950 . S
C2070 C2071 1.327 . S
C2071 H2065 0.950 . S
C2071 C2070 1.327 . S
C2071 C2075 1.429 . S
C2072 C2055 1.574 . S
C2072 H2066 0.949 . S
C2072 C2076 1.368 . S
C2073 C2054 1.429 . S
C2073 C2067 1.429 . S
C2073 C2074 1.523 . S
C2074 C2055 1.368 . S
C2074 C2068 1.368 . S
C2074 C2073 1.523 . S
C2075 C2059 1.429 . S
C2075 C2071 1.429 . S
C2075 C2076 1.523 . S
C2076 C2060 1.368 . S
C2076 C2072 1.368 . S
C2076 C2075 1.523 . S
H2077 C2052 0.950 . S
H2078 C2054 0.950 . S
H2079 C2055 0.949 . S
H2080 C2057 0.950 . S
H2081 C2059 0.950 . S
C2082 C2083 1.349 . S
C2082 C2084 1.327 . S
C2082 H2107 0.950 . S
C2083 C2082 1.349 . S
C2083 C2099 1.349 . S
C2084 C2082 1.327 . S
C2084 C2103 1.429 . S
C2084 H2108 0.950 . S
C2085 C2102 1.574 . S
C2085 C2104 1.368 . S
C2085 H2109 0.949 . S
H2086 C2090 0.949 . S
C2087 C2088 1.349 . S
C2087 C2089 1.327 . S
C2087 H2110 0.950 . S
C2088 C2087 1.349 . S
C2088 C2100 1.349 . S
C2089 C2087 1.327 . S
C2089 C2105 1.429 . S
C2089 H2111 0.950 . S
C2090 H2086 0.949 . S
C2090 C2098 1.574 . S
C2090 C2106 1.368 . S
H2091 C2099 0.950 . S
H2092 C2097 0.950 . S
H2093 C2098 0.949 . S
H2094 C2100 0.950 . S
H2095 C2101 0.950 . S
H2096 C2102 0.949 . S
C2097 H2092 0.950 . S
C2097 C2099 1.327 . S
C2097 C2103 1.429 . S
C2098 C2090 1.574 . S
C2098 H2093 0.949 . S
C2098 C2104 1.368 . S
C2099 C2083 1.349 . S
C2099 H2091 0.950 . S
C2099 C2097 1.327 . S
C2100 C2088 1.349 . S
C2100 H2094 0.950 . S
C2100 C2101 1.327 . S
C2101 H2095 0.950 . S
C2101 C2100 1.327 . S
C2101 C2105 1.429 . S
C2102 C2085 1.574 . S
C2102 H2096 0.949 . S
C2102 C2106 1.368 . S
C2103 C2084 1.429 . S
C2103 C2097 1.429 . S
C2103 C2104 1.523 . S
C2104 C2085 1.368 . S
C2104 C2098 1.368 . S
C2104 C2103 1.523 . S
C2105 C2089 1.429 . S
C2105 C2101 1.429 . S
C2105 C2106 1.523 . S
C2106 C2090 1.368 . S
C2106 C2102 1.368 . S
C2106 C2105 1.523 . S
H2107 C2082 0.950 . S
H2108 C2084 0.950 . S
H2109 C2085 0.949 . S
H2110 C2087 0.950 . S
H2111 C2089 0.950 . S
C2112 C2113 1.349 . S
C2112 C2114 1.327 . S
C2112 H2137 0.950 . S
C2113 C2112 1.349 . S
C2113 C2129 1.349 . S
C2114 C2112 1.327 . S
C2114 C2133 1.429 . S
C2114 H2138 0.950 . S
C2115 C2132 1.574 . S
C2115 C2134 1.368 . S
C2115 H2139 0.949 . S
H2116 C2120 0.949 . S
C2117 C2118 1.349 . S
C2117 C2119 1.327 . S
C2117 H2140 0.950 . S
C2118 C2117 1.349 . S
C2118 C2130 1.349 . S
C2119 C2117 1.327 . S
C2119 C2135 1.429 . S
C2119 H2141 0.950 . S
C2120 H2116 0.949 . S
C2120 C2128 1.574 . S
C2120 C2136 1.368 . S
H2121 C2129 0.950 . S
H2122 C2127 0.950 . S
H2123 C2128 0.949 . S
H2124 C2130 0.950 . S
H2125 C2131 0.950 . S
H2126 C2132 0.949 . S
C2127 H2122 0.950 . S
C2127 C2129 1.327 . S
C2127 C2133 1.429 . S
C2128 C2120 1.574 . S
C2128 H2123 0.949 . S
C2128 C2134 1.368 . S
C2129 C2113 1.349 . S
C2129 H2121 0.950 . S
C2129 C2127 1.327 . S
C2130 C2118 1.349 . S
C2130 H2124 0.950 . S
C2130 C2131 1.327 . S
C2131 H2125 0.950 . S
C2131 C2130 1.327 . S
C2131 C2135 1.429 . S
C2132 C2115 1.574 . S
C2132 H2126 0.949 . S
C2132 C2136 1.368 . S
C2133 C2114 1.429 . S
C2133 C2127 1.429 . S
C2133 C2134 1.523 . S
C2134 C2115 1.368 . S
C2134 C2128 1.368 . S
C2134 C2133 1.523 . S
C2135 C2119 1.429 . S
C2135 C2131 1.429 . S
C2135 C2136 1.523 . S
C2136 C2120 1.368 . S
C2136 C2132 1.368 . S
C2136 C2135 1.523 . S
H2137 C2112 0.950 . S
H2138 C2114 0.950 . S
H2139 C2115 0.949 . S
H2140 C2117 0.950 . S
H2141 C2119 0.950 . S
C1063 C1006 1.815 . S
C1068 C3 1.815 . S
C1093 C890 1.810 . S
C1098 C64 1.810 . S
C1123 C949 1.810 . S
C1128 C123 1.810 . S
C1153 C418 1.810 . S
C1158 C182 1.810 . S
C1183 C477 1.810 . S
C1188 C241 1.810 . S
C1213 C298 1.815 . S
C1218 C357 1.815 . S
C1243 C536 1.810 . S
C1248 C772 1.810 . S
C1273 C595 1.810 . S
C1278 C831 1.810 . S
C1303 C652 1.815 . S
C1308 C711 1.815 . S
C1333 C33 0.327 . S
C1338 C1036 0.327 . S
C1363 C937 0.313 . S
C1368 C111 0.312 . S
C1393 C170 0.313 . S
C1398 C996 0.312 . S
C1423 C465 0.313 . S
C1428 C229 0.313 . S
C1453 C288 0.312 . S
C1458 C524 0.313 . S
C1483 C328 0.327 . S
C1488 C387 0.327 . S
C1513 C583 0.313 . S
C1518 C819 0.313 . S
C1543 C878 0.313 . S
C1548 C642 0.313 . S
C1573 C741 0.327 . S
C1578 C682 0.327 . S
C1603 C52 1.910 . S
C1608 C210 1.912 . S
C1633 C269 1.909 . S
C1638 C92 1.909 . S
C1663 C347 1.910 . S
C1668 C151 1.911 . S
C1693 C300 1.914 . S
C1698 C62 1.893 . S
C1723 C121 1.893 . S
C1728 C180 1.893 . S
C1753 C239 1.892 . S
C1758 C5 1.914 . S
C1783 C406 1.910 . S
C1788 C564 1.912 . S
C1813 C623 1.909 . S
C1818 C446 1.909 . S
C1843 C701 1.910 . S
C1848 C505 1.911 . S
C1873 C654 1.914 . S
C1878 C416 1.893 . S
C1903 C475 1.893 . S
C1908 C534 1.893 . S
C1933 C593 1.892 . S
C1938 C359 1.914 . S
C1963 C918 1.912 . S
C1968 C760 1.910 . S
C1993 C977 1.909 . S
C1998 C800 1.909 . S
C2023 C859 1.911 . S
C2028 C1055 1.910 . S
C2053 C1008 1.914 . S
C2058 C770 1.893 . S
C2083 C829 1.893 . S
C2088 C888 1.893 . S
C2113 C947 1.892 . S
C2118 C713 1.914 . S
