# Generated by pormake.
# Topology wna, (6)-cn, num edge types: 1
# Building blocks:
#     Node 0, Type 0, BuildingBlock: BETFEN_clean_sbu_0, # of connection points: 6
#     Node 1, Type 0, BuildingBlock: BETFEN_clean_sbu_0, # of connection points: 6
#     Node 2, Type 0, BuildingBlock: BETFEN_clean_sbu_0, # of connection points: 6
#     Node 3, Type 0, BuildingBlock: BETFEN_clean_sbu_0, # of connection points: 6
#     Node 4, Type 0, BuildingBlock: BETFEN_clean_sbu_0, # of connection points: 6
#     Node 5, Type 0, BuildingBlock: BETFEN_clean_sbu_0, # of connection points: 6
#     Node 6, Type 0, BuildingBlock: BETFEN_clean_sbu_0, # of connection points: 6
#     Node 7, Type 0, BuildingBlock: BETFEN_clean_sbu_0, # of connection points: 6
#     Node 8, Type 0, BuildingBlock: BETFEN_clean_sbu_0, # of connection points: 6
#     Node 9, Type 0, BuildingBlock: BETFEN_clean_sbu_0, # of connection points: 6
#     Node 10, Type 0, BuildingBlock: BETFEN_clean_sbu_0, # of connection points: 6
#     Node 11, Type 0, BuildingBlock: BETFEN_clean_sbu_0, # of connection points: 6
#     Node 12, Type 0, BuildingBlock: BETFEN_clean_sbu_0, # of connection points: 6
#     Node 13, Type 0, BuildingBlock: BETFEN_clean_sbu_0, # of connection points: 6
#     Node 14, Type 0, BuildingBlock: BETFEN_clean_sbu_0, # of connection points: 6
#     Node 15, Type 0, BuildingBlock: BETFEN_clean_sbu_0, # of connection points: 6
#     Node 16, Type 0, BuildingBlock: BETFEN_clean_sbu_0, # of connection points: 6
#     Node 17, Type 0, BuildingBlock: BETFEN_clean_sbu_0, # of connection points: 6
#     Node 18, Type 0, BuildingBlock: BETFEN_clean_sbu_0, # of connection points: 6
#     Node 19, Type 0, BuildingBlock: BETFEN_clean_sbu_0, # of connection points: 6
#     Node 20, Type 0, BuildingBlock: BETFEN_clean_sbu_0, # of connection points: 6
#     Node 21, Type 0, BuildingBlock: BETFEN_clean_sbu_0, # of connection points: 6
#     Node 22, Type 0, BuildingBlock: BETFEN_clean_sbu_0, # of connection points: 6
#     Node 23, Type 0, BuildingBlock: BETFEN_clean_sbu_0, # of connection points: 6
#     Node 24, Type 0, BuildingBlock: BETFEN_clean_sbu_0, # of connection points: 6
#     Node 25, Type 0, BuildingBlock: BETFEN_clean_sbu_0, # of connection points: 6
#     Node 26, Type 0, BuildingBlock: BETFEN_clean_sbu_0, # of connection points: 6
#     Node 27, Type 0, BuildingBlock: BETFEN_clean_sbu_0, # of connection points: 6
#     Node 28, Type 0, BuildingBlock: BETFEN_clean_sbu_0, # of connection points: 6
#     Node 29, Type 0, BuildingBlock: BETFEN_clean_sbu_0, # of connection points: 6
#     Node 30, Type 0, BuildingBlock: BETFEN_clean_sbu_0, # of connection points: 6
#     Node 31, Type 0, BuildingBlock: BETFEN_clean_sbu_0, # of connection points: 6
#     Node 32, Type 0, BuildingBlock: BETFEN_clean_sbu_0, # of connection points: 6
#     Node 33, Type 0, BuildingBlock: BETFEN_clean_sbu_0, # of connection points: 6
#     Node 34, Type 0, BuildingBlock: BETFEN_clean_sbu_0, # of connection points: 6
#     Node 35, Type 0, BuildingBlock: BETFEN_clean_sbu_0, # of connection points: 6
#     Edge 36, Type (0, 0), BuildingBlock: XIVTED_clean_linker_0, # of connection points: 2
#     Edge 37, Type (0, 0), BuildingBlock: XIVTED_clean_linker_0, # of connection points: 2
#     Edge 38, Type (0, 0), BuildingBlock: XIVTED_clean_linker_0, # of connection points: 2
#     Edge 39, Type (0, 0), BuildingBlock: XIVTED_clean_linker_0, # of connection points: 2
#     Edge 40, Type (0, 0), BuildingBlock: XIVTED_clean_linker_0, # of connection points: 2
#     Edge 41, Type (0, 0), BuildingBlock: XIVTED_clean_linker_0, # of connection points: 2
#     Edge 42, Type (0, 0), BuildingBlock: XIVTED_clean_linker_0, # of connection points: 2
#     Edge 43, Type (0, 0), BuildingBlock: XIVTED_clean_linker_0, # of connection points: 2
#     Edge 44, Type (0, 0), BuildingBlock: XIVTED_clean_linker_0, # of connection points: 2
#     Edge 45, Type (0, 0), BuildingBlock: XIVTED_clean_linker_0, # of connection points: 2
#     Edge 46, Type (0, 0), BuildingBlock: XIVTED_clean_linker_0, # of connection points: 2
#     Edge 47, Type (0, 0), BuildingBlock: XIVTED_clean_linker_0, # of connection points: 2
#     Edge 48, Type (0, 0), BuildingBlock: XIVTED_clean_linker_0, # of connection points: 2
#     Edge 49, Type (0, 0), BuildingBlock: XIVTED_clean_linker_0, # of connection points: 2
#     Edge 50, Type (0, 0), BuildingBlock: XIVTED_clean_linker_0, # of connection points: 2
#     Edge 51, Type (0, 0), BuildingBlock: XIVTED_clean_linker_0, # of connection points: 2
#     Edge 52, Type (0, 0), BuildingBlock: XIVTED_clean_linker_0, # of connection points: 2
#     Edge 53, Type (0, 0), BuildingBlock: XIVTED_clean_linker_0, # of connection points: 2
#     Edge 54, Type (0, 0), BuildingBlock: XIVTED_clean_linker_0, # of connection points: 2
#     Edge 55, Type (0, 0), BuildingBlock: XIVTED_clean_linker_0, # of connection points: 2
#     Edge 56, Type (0, 0), BuildingBlock: XIVTED_clean_linker_0, # of connection points: 2
#     Edge 57, Type (0, 0), BuildingBlock: XIVTED_clean_linker_0, # of connection points: 2
#     Edge 58, Type (0, 0), BuildingBlock: XIVTED_clean_linker_0, # of connection points: 2
#     Edge 59, Type (0, 0), BuildingBlock: XIVTED_clean_linker_0, # of connection points: 2
#     Edge 60, Type (0, 0), BuildingBlock: XIVTED_clean_linker_0, # of connection points: 2
#     Edge 61, Type (0, 0), BuildingBlock: XIVTED_clean_linker_0, # of connection points: 2
#     Edge 62, Type (0, 0), BuildingBlock: XIVTED_clean_linker_0, # of connection points: 2
#     Edge 63, Type (0, 0), BuildingBlock: XIVTED_clean_linker_0, # of connection points: 2
#     Edge 64, Type (0, 0), BuildingBlock: XIVTED_clean_linker_0, # of connection points: 2
#     Edge 65, Type (0, 0), BuildingBlock: XIVTED_clean_linker_0, # of connection points: 2
#     Edge 66, Type (0, 0), BuildingBlock: XIVTED_clean_linker_0, # of connection points: 2
#     Edge 67, Type (0, 0), BuildingBlock: XIVTED_clean_linker_0, # of connection points: 2
#     Edge 68, Type (0, 0), BuildingBlock: XIVTED_clean_linker_0, # of connection points: 2
#     Edge 69, Type (0, 0), BuildingBlock: XIVTED_clean_linker_0, # of connection points: 2
#     Edge 70, Type (0, 0), BuildingBlock: XIVTED_clean_linker_0, # of connection points: 2
#     Edge 71, Type (0, 0), BuildingBlock: XIVTED_clean_linker_0, # of connection points: 2
#     Edge 72, Type (0, 0), BuildingBlock: XIVTED_clean_linker_0, # of connection points: 2
#     Edge 73, Type (0, 0), BuildingBlock: XIVTED_clean_linker_0, # of connection points: 2
#     Edge 74, Type (0, 0), BuildingBlock: XIVTED_clean_linker_0, # of connection points: 2
#     Edge 75, Type (0, 0), BuildingBlock: XIVTED_clean_linker_0, # of connection points: 2
#     Edge 76, Type (0, 0), BuildingBlock: XIVTED_clean_linker_0, # of connection points: 2
#     Edge 77, Type (0, 0), BuildingBlock: XIVTED_clean_linker_0, # of connection points: 2
#     Edge 78, Type (0, 0), BuildingBlock: XIVTED_clean_linker_0, # of connection points: 2
#     Edge 79, Type (0, 0), BuildingBlock: XIVTED_clean_linker_0, # of connection points: 2
#     Edge 80, Type (0, 0), BuildingBlock: XIVTED_clean_linker_0, # of connection points: 2
#     Edge 81, Type (0, 0), BuildingBlock: XIVTED_clean_linker_0, # of connection points: 2
#     Edge 82, Type (0, 0), BuildingBlock: XIVTED_clean_linker_0, # of connection points: 2
#     Edge 83, Type (0, 0), BuildingBlock: XIVTED_clean_linker_0, # of connection points: 2
#     Edge 84, Type (0, 0), BuildingBlock: XIVTED_clean_linker_0, # of connection points: 2
#     Edge 85, Type (0, 0), BuildingBlock: XIVTED_clean_linker_0, # of connection points: 2
#     Edge 86, Type (0, 0), BuildingBlock: XIVTED_clean_linker_0, # of connection points: 2
#     Edge 87, Type (0, 0), BuildingBlock: XIVTED_clean_linker_0, # of connection points: 2
#     Edge 88, Type (0, 0), BuildingBlock: XIVTED_clean_linker_0, # of connection points: 2
#     Edge 89, Type (0, 0), BuildingBlock: XIVTED_clean_linker_0, # of connection points: 2
#     Edge 90, Type (0, 0), BuildingBlock: XIVTED_clean_linker_0, # of connection points: 2
#     Edge 91, Type (0, 0), BuildingBlock: XIVTED_clean_linker_0, # of connection points: 2
#     Edge 92, Type (0, 0), BuildingBlock: XIVTED_clean_linker_0, # of connection points: 2
#     Edge 93, Type (0, 0), BuildingBlock: XIVTED_clean_linker_0, # of connection points: 2
#     Edge 94, Type (0, 0), BuildingBlock: XIVTED_clean_linker_0, # of connection points: 2
#     Edge 95, Type (0, 0), BuildingBlock: XIVTED_clean_linker_0, # of connection points: 2
#     Edge 96, Type (0, 0), BuildingBlock: XIVTED_clean_linker_0, # of connection points: 2
#     Edge 97, Type (0, 0), BuildingBlock: XIVTED_clean_linker_0, # of connection points: 2
#     Edge 98, Type (0, 0), BuildingBlock: XIVTED_clean_linker_0, # of connection points: 2
#     Edge 99, Type (0, 0), BuildingBlock: XIVTED_clean_linker_0, # of connection points: 2
#     Edge 100, Type (0, 0), BuildingBlock: XIVTED_clean_linker_0, # of connection points: 2
#     Edge 101, Type (0, 0), BuildingBlock: XIVTED_clean_linker_0, # of connection points: 2
#     Edge 102, Type (0, 0), BuildingBlock: XIVTED_clean_linker_0, # of connection points: 2
#     Edge 103, Type (0, 0), BuildingBlock: XIVTED_clean_linker_0, # of connection points: 2
#     Edge 104, Type (0, 0), BuildingBlock: XIVTED_clean_linker_0, # of connection points: 2
#     Edge 105, Type (0, 0), BuildingBlock: XIVTED_clean_linker_0, # of connection points: 2
#     Edge 106, Type (0, 0), BuildingBlock: XIVTED_clean_linker_0, # of connection points: 2
#     Edge 107, Type (0, 0), BuildingBlock: XIVTED_clean_linker_0, # of connection points: 2
#     Edge 108, Type (0, 0), BuildingBlock: XIVTED_clean_linker_0, # of connection points: 2
#     Edge 109, Type (0, 0), BuildingBlock: XIVTED_clean_linker_0, # of connection points: 2
#     Edge 110, Type (0, 0), BuildingBlock: XIVTED_clean_linker_0, # of connection points: 2
#     Edge 111, Type (0, 0), BuildingBlock: XIVTED_clean_linker_0, # of connection points: 2
#     Edge 112, Type (0, 0), BuildingBlock: XIVTED_clean_linker_0, # of connection points: 2
#     Edge 113, Type (0, 0), BuildingBlock: XIVTED_clean_linker_0, # of connection points: 2
#     Edge 114, Type (0, 0), BuildingBlock: XIVTED_clean_linker_0, # of connection points: 2
#     Edge 115, Type (0, 0), BuildingBlock: XIVTED_clean_linker_0, # of connection points: 2
#     Edge 116, Type (0, 0), BuildingBlock: XIVTED_clean_linker_0, # of connection points: 2
#     Edge 117, Type (0, 0), BuildingBlock: XIVTED_clean_linker_0, # of connection points: 2
#     Edge 118, Type (0, 0), BuildingBlock: XIVTED_clean_linker_0, # of connection points: 2
#     Edge 119, Type (0, 0), BuildingBlock: XIVTED_clean_linker_0, # of connection points: 2
#     Edge 120, Type (0, 0), BuildingBlock: XIVTED_clean_linker_0, # of connection points: 2
#     Edge 121, Type (0, 0), BuildingBlock: XIVTED_clean_linker_0, # of connection points: 2
#     Edge 122, Type (0, 0), BuildingBlock: XIVTED_clean_linker_0, # of connection points: 2
#     Edge 123, Type (0, 0), BuildingBlock: XIVTED_clean_linker_0, # of connection points: 2
#     Edge 124, Type (0, 0), BuildingBlock: XIVTED_clean_linker_0, # of connection points: 2
#     Edge 125, Type (0, 0), BuildingBlock: XIVTED_clean_linker_0, # of connection points: 2
#     Edge 126, Type (0, 0), BuildingBlock: XIVTED_clean_linker_0, # of connection points: 2
#     Edge 127, Type (0, 0), BuildingBlock: XIVTED_clean_linker_0, # of connection points: 2
#     Edge 128, Type (0, 0), BuildingBlock: XIVTED_clean_linker_0, # of connection points: 2
#     Edge 129, Type (0, 0), BuildingBlock: XIVTED_clean_linker_0, # of connection points: 2
#     Edge 130, Type (0, 0), BuildingBlock: XIVTED_clean_linker_0, # of connection points: 2
#     Edge 131, Type (0, 0), BuildingBlock: XIVTED_clean_linker_0, # of connection points: 2
#     Edge 132, Type (0, 0), BuildingBlock: XIVTED_clean_linker_0, # of connection points: 2
#     Edge 133, Type (0, 0), BuildingBlock: XIVTED_clean_linker_0, # of connection points: 2
#     Edge 134, Type (0, 0), BuildingBlock: XIVTED_clean_linker_0, # of connection points: 2
#     Edge 135, Type (0, 0), BuildingBlock: XIVTED_clean_linker_0, # of connection points: 2
#     Edge 136, Type (0, 0), BuildingBlock: XIVTED_clean_linker_0, # of connection points: 2
#     Edge 137, Type (0, 0), BuildingBlock: XIVTED_clean_linker_0, # of connection points: 2
#     Edge 138, Type (0, 0), BuildingBlock: XIVTED_clean_linker_0, # of connection points: 2
#     Edge 139, Type (0, 0), BuildingBlock: XIVTED_clean_linker_0, # of connection points: 2
#     Edge 140, Type (0, 0), BuildingBlock: XIVTED_clean_linker_0, # of connection points: 2
#     Edge 141, Type (0, 0), BuildingBlock: XIVTED_clean_linker_0, # of connection points: 2
#     Edge 142, Type (0, 0), BuildingBlock: XIVTED_clean_linker_0, # of connection points: 2
#     Edge 143, Type (0, 0), BuildingBlock: XIVTED_clean_linker_0, # of connection points: 2
# Relax obj value: 0.158
# Max RMSD: 0.224
# Mean RMSD: 0.208
data_MOF--net-wna--node1-BETFEN_clean_sbu_0--edge1-XIVTED_clean_linker_0
_symmetry_space_group_name_H-M    P1
_symmetry_Int_Tables_number       1
_symmetry_cell_setting            triclinic
loop_
_symmetry_equiv_pos_as_xyz
'x, y, z'
_cell_length_a     41.398982
_cell_length_b     41.429065
_cell_length_c     153.28702
_cell_angle_alpha  90.02076
_cell_angle_beta   90.013291
_cell_angle_gamma 120.01454
loop_
_atom_site_label
_atom_site_type_symbol
_atom_site_fract_x
_atom_site_fract_y
_atom_site_fract_z
_atom_type_partial_charge
Pr0 Pr 0.11313 0.25545 0.17032 0.0
Pr1 Pr 0.12142 0.24423 0.19107 0.0
C2 C 0.10817 0.28121 0.15447 0.0
C3 C 0.12286 0.29068 0.14541 0.0
C4 C 0.10862 0.26332 0.13883 0.0
C5 C 0.11851 0.27289 0.13009 0.0
C6 C 0.14283 0.31015 0.12766 0.0
C7 C 0.15789 0.33738 0.13428 0.0
C8 C 0.14792 0.32778 0.14303 0.0
C9 C 0.12766 0.19828 0.17428 0.0
C10 C 0.19869 0.30076 0.17962 0.0
C11 C 0.12649 0.21965 0.20701 0.0
C12 C 0.1079 0.21188 0.21563 0.0
C13 C 0.09784 0.23642 0.21947 0.0
C14 C 0.08039 0.22841 0.22766 0.0
C15 C 0.07235 0.19556 0.23215 0.0
C16 C 0.08234 0.17104 0.22824 0.0
C17 C 0.09995 0.17916 0.22009 0.0
C18 C 0.09182 0.29223 0.18834 0.0
C19 C 0.041 0.19056 0.18093 0.0
O20 O 0.12766 0.30328 0.1609 0.0
O21 O 0.08979 0.24598 0.15667 0.0
O22 O 0.14089 0.2288 0.17839 0.0
O23 O 0.10999 0.19872 0.1673 0.0
O24 O 0.18437 0.28346 0.18713 0.0
O25 O 0.17768 0.29603 0.17264 0.0
O26 O 0.10731 0.19717 0.20061 0.0
O27 O 0.14645 0.25466 0.2046 0.0
O28 O 0.101 0.27619 0.18277 0.0
O29 O 0.09867 0.28392 0.19601 0.0
O30 O 0.05118 0.21642 0.17481 0.0
O31 O 0.06443 0.19244 0.18704 0.0
H32 H 0.08876 0.23454 0.14038 0.0
H33 H 0.10582 0.25119 0.12521 0.0
H34 H 0.17707 0.36627 0.13268 0.0
H35 H 0.1591 0.34964 0.14791 0.0
H36 H 0.10334 0.26173 0.21614 0.0
H37 H 0.0727 0.2477 0.23042 0.0
H38 H 0.07704 0.14574 0.23154 0.0
H39 H 0.10747 0.15984 0.21727 0.0
Pr40 Pr 0.76151 0.86443 0.16972 0.0
Pr41 Pr 0.77504 0.88427 0.19138 0.0
C42 C 0.73444 0.82683 0.15466 0.0
C43 C 0.72346 0.82822 0.14556 0.0
C44 C 0.74222 0.86062 0.14046 0.0
C45 C 0.73361 0.85981 0.13157 0.0
C46 C 0.70627 0.82652 0.12763 0.0
C47 C 0.68677 0.79458 0.13287 0.0
C48 C 0.69529 0.79546 0.14173 0.0
C49 C 0.81328 0.93992 0.17283 0.0
C50 C 0.71897 0.9053 0.17964 0.0
C51 C 0.79969 0.91338 0.20735 0.0
C52 C 0.80688 0.90207 0.21597 0.0
C53 C 0.78083 0.86846 0.21998 0.0
C54 C 0.78854 0.85843 0.22813 0.0
C55 C 0.82257 0.88161 0.23241 0.0
C56 C 0.84854 0.91518 0.22836 0.0
C57 C 0.84073 0.92527 0.22025 0.0
C58 C 0.72553 0.80763 0.18785 0.0
C59 C 0.82956 0.85975 0.1805 0.0
O60 O 0.71277 0.82645 0.16096 0.0
O61 O 0.77012 0.8457 0.15655 0.0
O62 O 0.7956 0.91461 0.17837 0.0
O63 O 0.80335 0.92608 0.165 0.0
O64 O 0.73939 0.91125 0.1868 0.0
O65 O 0.71927 0.88508 0.17293 0.0
O66 O 0.82211 0.91615 0.20098 0.0
O67 O 0.76478 0.89929 0.20489 0.0
O68 O 0.7425 0.83405 0.1826 0.0
O69 O 0.73374 0.82114 0.1957 0.0
O70 O 0.80656 0.84838 0.1737 0.0
O71 O 0.82515 0.87633 0.18742 0.0
H72 H 0.76412 0.88626 0.14328 0.0
H73 H 0.7493 0.88486 0.12772 0.0
H74 H 0.66511 0.76867 0.1301 0.0
H75 H 0.68045 0.77016 0.14554 0.0
H76 H 0.75459 0.84983 0.21681 0.0
H77 H 0.76809 0.8322 0.23101 0.0
H78 H 0.8748 0.93395 0.2315 0.0
H79 H 0.86123 0.95134 0.2173 0.0
Pr80 Pr 0.15662 0.90816 0.17017 0.0
Pr81 Pr 0.1365 0.89954 0.19101 0.0
C82 C 0.1874 0.91261 0.15436 0.0
C83 C 0.18159 0.89719 0.14537 0.0
C84 C 0.17163 0.91349 0.13861 0.0
C85 C 0.17034 0.90232 0.12995 0.0
C86 C 0.17918 0.87464 0.12777 0.0
C87 C 0.18835 0.85772 0.13456 0.0
C88 C 0.18966 0.86893 0.14325 0.0
C89 C 0.08571 0.89601 0.17407 0.0
C90 C 0.11482 0.82258 0.17934 0.0
C91 C 0.10693 0.89461 0.20697 0.0
C92 C 0.11755 0.91254 0.21568 0.0
C93 C 0.15164 0.92143 0.21964 0.0
C94 C 0.16055 0.93759 0.22798 0.0
C95 C 0.13565 0.94536 0.23254 0.0
C96 C 0.10177 0.93682 0.22846 0.0
C97 C 0.09286 0.92057 0.22015 0.0
C98 C 0.2138 0.92768 0.18812 0.0
C99 C 0.16601 0.98056 0.18098 0.0
O100 O 0.19005 0.89345 0.16085 0.0
O101 O 0.17064 0.93117 0.1565 0.0
O102 O 0.10186 0.88157 0.1782 0.0
O103 O 0.10452 0.91362 0.16716 0.0
O104 O 0.11175 0.83669 0.18687 0.0
O105 O 0.1316 0.84367 0.17242 0.0
O106 O 0.10418 0.91431 0.20061 0.0
O107 O 0.12151 0.87428 0.20451 0.0
O108 O 0.18824 0.91896 0.18269 0.0
O109 O 0.19917 0.92102 0.19586 0.0
O110 O 0.18129 0.96992 0.17486 0.0
O111 O 0.1439 0.95744 0.18706 0.0
H112 H 0.1659 0.9358 0.13997 0.0
H113 H 0.16379 0.91648 0.12491 0.0
H114 H 0.19492 0.83602 0.13315 0.0
H115 H 0.19782 0.85605 0.14827 0.0
H116 H 0.17133 0.91566 0.21633 0.0
H117 H 0.18671 0.94335 0.23091 0.0
H118 H 0.08214 0.94297 0.23166 0.0
H119 H 0.06649 0.91418 0.21722 0.0
Pr120 Pr 0.25841 0.10777 0.35449 0.0
Pr121 Pr 0.24529 0.11346 0.33368 0.0
C122 C 0.28586 0.1039 0.37021 0.0
C123 C 0.29796 0.11972 0.37905 0.0
C124 C 0.27699 0.13083 0.38415 0.0
C125 C 0.28617 0.14069 0.39293 0.0
C126 C 0.31649 0.13963 0.39681 0.0
C127 C 0.33821 0.12983 0.39157 0.0
C128 C 0.32899 0.11997 0.38281 0.0
C129 C 0.20086 0.12192 0.3506 0.0
C130 C 0.30354 0.19179 0.3446 0.0
C131 C 0.22011 0.11735 0.31771 0.0
C132 C 0.21236 0.09855 0.30911 0.0
C133 C 0.23543 0.08585 0.30563 0.0
C134 C 0.2278 0.06867 0.29741 0.0
C135 C 0.19678 0.06357 0.2925 0.0
C136 C 0.17363 0.07609 0.29607 0.0
C137 C 0.18138 0.0934 0.30426 0.0
C138 C 0.29321 0.08388 0.33659 0.0
C139 C 0.19245 0.03459 0.34433 0.0
O140 O 0.30739 0.12124 0.36353 0.0
O141 O 0.25021 0.08773 0.36841 0.0
O142 O 0.23097 0.13467 0.34631 0.0
O143 O 0.20202 0.10495 0.35764 0.0
O144 O 0.2855 0.17646 0.33723 0.0
O145 O 0.29912 0.17194 0.35177 0.0
O146 O 0.19784 0.09832 0.32415 0.0
O147 O 0.25518 0.13754 0.32007 0.0
O148 O 0.27754 0.09389 0.34206 0.0
O149 O 0.28449 0.08977 0.32886 0.0
O150 O 0.21873 0.0454 0.35038 0.0
O151 O 0.19379 0.05732 0.33812 0.0
H152 H 0.2529 0.13093 0.38142 0.0
H153 H 0.26917 0.14865 0.39671 0.0
H154 H 0.36145 0.12822 0.39432 0.0
H155 H 0.34536 0.11115 0.37903 0.0
H156 H 0.25937 0.0892 0.30926 0.0
H157 H 0.24596 0.05898 0.29493 0.0
H158 H 0.14979 0.0731 0.29246 0.0
H159 H 0.16322 0.103 0.3068 0.0
Pr160 Pr 0.91124 0.15526 0.35387 0.0
Pr161 Pr 0.90452 0.13549 0.33307 0.0
C162 C 0.91511 0.18586 0.36969 0.0
C163 C 0.90029 0.17965 0.37875 0.0
C164 C 0.91939 0.17317 0.38549 0.0
C165 C 0.90847 0.1714 0.3942 0.0
C166 C 0.87821 0.17626 0.39643 0.0
C167 C 0.8586 0.18203 0.38967 0.0
C168 C 0.86956 0.18381 0.38094 0.0
C169 C 0.89771 0.08379 0.35009 0.0
C170 C 0.8266 0.11487 0.34417 0.0
C171 C 0.89996 0.10571 0.31717 0.0
C172 C 0.9183 0.11666 0.30853 0.0
C173 C 0.93062 0.15231 0.30504 0.0
C174 C 0.94742 0.16181 0.29679 0.0
C175 C 0.95244 0.13594 0.29185 0.0
C176 C 0.94039 0.10041 0.29545 0.0
C177 C 0.9235 0.09092 0.30368 0.0
C178 C 0.93296 0.21286 0.33582 0.0
C179 C 0.98427 0.16285 0.34349 0.0
O180 O 0.89486 0.18715 0.36327 0.0
O181 O 0.93495 0.17057 0.36748 0.0
O182 O 0.88454 0.10072 0.34581 0.0
O183 O 0.91455 0.10207 0.35712 0.0
O184 O 0.84154 0.11136 0.33683 0.0
O185 O 0.84692 0.13162 0.35121 0.0
O186 O 0.91958 0.10311 0.32357 0.0
O187 O 0.87953 0.12027 0.31956 0.0
O188 O 0.92374 0.18758 0.34136 0.0
O189 O 0.92684 0.19792 0.32813 0.0
O190 O 0.97352 0.17809 0.34961 0.0
O191 O 0.96148 0.14146 0.33728 0.0
H192 H 0.9436 0.17053 0.38408 0.0
H193 H 0.92472 0.16758 0.3992 0.0
H194 H 0.83492 0.1855 0.39111 0.0
H195 H 0.85443 0.18922 0.37593 0.0
H196 H 0.92708 0.17277 0.30867 0.0
H197 H 0.95592 0.18926 0.29422 0.0
H198 H 0.94435 0.07994 0.29195 0.0
H199 H 0.91445 0.06336 0.30627 0.0
Pr200 Pr 0.86435 0.75829 0.35472 0.0
Pr201 Pr 0.88419 0.77353 0.33306 0.0
C202 C 0.82793 0.73075 0.36988 0.0
C203 C 0.83222 0.7217 0.379 0.0
C204 C 0.85991 0.74821 0.38453 0.0
C205 C 0.86107 0.74016 0.39336 0.0
C206 C 0.83468 0.70539 0.39686 0.0
C207 C 0.80767 0.67858 0.39124 0.0
C208 C 0.80642 0.68672 0.38243 0.0
C209 C 0.93988 0.80994 0.35166 0.0
C210 C 0.90485 0.71647 0.34442 0.0
C211 C 0.91388 0.79881 0.31717 0.0
C212 C 0.90275 0.80535 0.30848 0.0
C213 C 0.86628 0.78317 0.3053 0.0
C214 C 0.85643 0.79002 0.29703 0.0
C215 C 0.88282 0.81929 0.29178 0.0
C216 C 0.91925 0.84155 0.29506 0.0
C217 C 0.92905 0.83461 0.3033 0.0
C218 C 0.80781 0.72304 0.33656 0.0
C219 C 0.85962 0.82707 0.34429 0.0
O220 O 0.82867 0.70937 0.36365 0.0
O221 O 0.84388 0.76609 0.36774 0.0
O222 O 0.91441 0.79282 0.34612 0.0
O223 O 0.92616 0.79966 0.35949 0.0
O224 O 0.91148 0.73815 0.33748 0.0
O225 O 0.88408 0.71565 0.35112 0.0
O226 O 0.91525 0.82084 0.32348 0.0
O227 O 0.90036 0.76402 0.31962 0.0
O228 O 0.83422 0.74009 0.3418 0.0
O229 O 0.82109 0.73182 0.3287 0.0
O230 O 0.84819 0.80353 0.35099 0.0
O231 O 0.87629 0.82325 0.33732 0.0
H232 H 0.88029 0.77543 0.38208 0.0
H233 H 0.88256 0.76126 0.39747 0.0
H234 H 0.78665 0.6517 0.39372 0.0
H235 H 0.78463 0.66592 0.37832 0.0
H236 H 0.84542 0.7605 0.30919 0.0
H237 H 0.82825 0.77202 0.29471 0.0
H238 H 0.94018 0.86476 0.29131 0.0
H239 H 0.95726 0.85226 0.30566 0.0
Pr240 Pr 0.90419 0.77212 0.83405 0.0
Pr241 Pr 0.91368 0.76137 0.85478 0.0
C242 C 0.89772 0.7957 0.81809 0.0
C243 C 0.91459 0.80172 0.80931 0.0
C244 C 0.92872 0.77946 0.80611 0.0
C245 C 0.94405 0.78534 0.7977 0.0
C246 C 0.94567 0.8137 0.79232 0.0
C247 C 0.93182 0.83616 0.79563 0.0
C248 C 0.91645 0.83019 0.80401 0.0
C249 C 0.9333 0.72363 0.83674 0.0
C250 C 0.98534 0.82534 0.84389 0.0
C251 C 0.91916 0.73583 0.87063 0.0
C252 C 0.9044 0.72602 0.87967 0.0
C253 C 0.91858 0.75314 0.8863 0.0
C254 C 0.9086 0.74327 0.89503 0.0
C255 C 0.88425 0.70594 0.8974 0.0
C256 C 0.86928 0.67893 0.89073 0.0
C257 C 0.87933 0.68883 0.88199 0.0
C258 C 0.90054 0.81952 0.85086 0.0
C259 C 0.82757 0.71657 0.84578 0.0
O260 O 0.9186 0.8185 0.82428 0.0
O261 O 0.87731 0.76108 0.82072 0.0
O262 O 0.92462 0.74012 0.84229 0.0
O263 O 0.92611 0.73167 0.82907 0.0
O264 O 0.97538 0.79954 0.85002 0.0
O265 O 0.96159 0.82367 0.8379 0.0
O266 O 0.90001 0.71367 0.86417 0.0
O267 O 0.93698 0.77111 0.86845 0.0
O268 O 0.88617 0.78871 0.84683 0.0
O269 O 0.9187 0.81887 0.85773 0.0
O270 O 0.84151 0.73354 0.83823 0.0
O271 O 0.84891 0.72138 0.85269 0.0
H272 H 0.92772 0.75736 0.81009 0.0
H273 H 0.95404 0.76723 0.79537 0.0
H274 H 0.93316 0.8587 0.79177 0.0
H275 H 0.90595 0.84787 0.80637 0.0
H276 H 0.93845 0.78197 0.8848 0.0
H277 H 0.92122 0.76481 0.89996 0.0
H278 H 0.85008 0.64998 0.89227 0.0
H279 H 0.86819 0.66714 0.87707 0.0
Pr280 Pr 0.24841 0.13236 0.83307 0.0
Pr281 Pr 0.26249 0.15258 0.85471 0.0
C282 C 0.22409 0.10284 0.8171 0.0
C283 C 0.21839 0.11385 0.8083 0.0
C284 C 0.24209 0.14967 0.80493 0.0
C285 C 0.23616 0.15925 0.79654 0.0
C286 C 0.20633 0.13326 0.79134 0.0
C287 C 0.18253 0.09755 0.79481 0.0
C288 C 0.18854 0.088 0.80318 0.0
C289 C 0.29809 0.20908 0.83652 0.0
C290 C 0.19347 0.15609 0.84407 0.0
C291 C 0.28999 0.18993 0.86978 0.0
C292 C 0.30083 0.18742 0.87885 0.0
C293 C 0.27942 0.15586 0.88406 0.0
C294 C 0.28851 0.1557 0.89287 0.0
C295 C 0.31924 0.18704 0.89665 0.0
C296 C 0.34108 0.21817 0.89132 0.0
C297 C 0.33193 0.21833 0.88253 0.0
C298 C 0.21099 0.07701 0.85167 0.0
C299 C 0.30445 0.11105 0.84477 0.0
O300 O 0.20171 0.10187 0.82328 0.0
O301 O 0.25863 0.11589 0.81972 0.0
O302 O 0.28126 0.18274 0.84179 0.0
O303 O 0.28959 0.19547 0.82868 0.0
O304 O 0.21711 0.16837 0.85075 0.0
O305 O 0.19763 0.139 0.83721 0.0
O306 O 0.31147 0.19036 0.86343 0.0
O307 O 0.2543 0.17165 0.86788 0.0
O308 O 0.22832 0.10228 0.84611 0.0
O309 O 0.22097 0.09098 0.8595 0.0
O310 O 0.28387 0.10512 0.83764 0.0
O311 O 0.30445 0.1315 0.85147 0.0
H312 H 0.26526 0.1702 0.80878 0.0
H313 H 0.25531 0.18687 0.79409 0.0
H314 H 0.15888 0.07698 0.7911 0.0
H315 H 0.16974 0.06031 0.80566 0.0
H316 H 0.25531 0.13158 0.88137 0.0
H317 H 0.27137 0.13104 0.89673 0.0
H318 H 0.36462 0.24299 0.894 0.0
H319 H 0.34869 0.24307 0.87866 0.0
Pr320 Pr 0.88731 0.11768 0.83337 0.0
Pr321 Pr 0.86778 0.11095 0.85501 0.0
C322 C 0.91531 0.1221 0.81726 0.0
C323 C 0.90345 0.1036 0.80858 0.0
C324 C 0.89642 0.12148 0.80166 0.0
C325 C 0.88643 0.10487 0.79339 0.0
C326 C 0.88342 0.06997 0.7918 0.0
C327 C 0.89045 0.05211 0.79875 0.0
C328 C 0.90036 0.06868 0.80702 0.0
C329 C 0.81069 0.09086 0.83697 0.0
C330 C 0.86282 0.03838 0.84414 0.0
C331 C 0.83203 0.10158 0.8703 0.0
C332 C 0.83708 0.11472 0.87948 0.0
C333 C 0.85961 0.10853 0.88533 0.0
C334 C 0.86123 0.11795 0.89416 0.0
C335 C 0.84046 0.13386 0.89735 0.0
C336 C 0.81868 0.14087 0.89144 0.0
C337 C 0.81691 0.13127 0.88262 0.0
C338 C 0.94316 0.13431 0.8519 0.0
C339 C 0.90902 0.19463 0.84521 0.0
O340 O 0.91893 0.10301 0.82364 0.0
O341 O 0.90141 0.14295 0.81981 0.0
O342 O 0.83716 0.10012 0.84219 0.0
O343 O 0.82409 0.09614 0.82911 0.0
O344 O 0.85134 0.04986 0.85094 0.0
O345 O 0.8794 0.05952 0.83724 0.0
O346 O 0.83264 0.12399 0.86416 0.0
O347 O 0.84736 0.08183 0.86795 0.0
O348 O 0.91796 0.12701 0.84634 0.0
O349 O 0.92925 0.13012 0.85973 0.0
O350 O 0.91498 0.18032 0.83802 0.0
O351 O 0.88851 0.17386 0.85185 0.0
H352 H 0.8988 0.14849 0.80262 0.0
H353 H 0.88081 0.11933 0.78826 0.0
H354 H 0.88907 0.02556 0.79777 0.0
H355 H 0.90592 0.05417 0.81215 0.0
H356 H 0.87554 0.09581 0.88314 0.0
H357 H 0.87867 0.11261 0.8985 0.0
H358 H 0.80197 0.15267 0.89368 0.0
H359 H 0.79901 0.13599 0.87828 0.0
Pr360 Pr 0.77413 0.90004 0.69086 0.0
Pr361 Pr 0.76243 0.90918 0.67014 0.0
C362 C 0.79914 0.89555 0.7068 0.0
C363 C 0.80663 0.91423 0.71548 0.0
C364 C 0.78002 0.89903 0.7222 0.0
C365 C 0.78731 0.9159 0.73044 0.0
C366 C 0.82154 0.94835 0.73222 0.0
C367 C 0.84818 0.9635 0.72549 0.0
C368 C 0.84087 0.94665 0.71724 0.0
C369 C 0.72462 0.92795 0.68827 0.0
C370 C 0.82511 0.98167 0.68099 0.0
C371 C 0.73543 0.91369 0.65442 0.0
C372 C 0.72312 0.89747 0.64562 0.0
C373 C 0.74361 0.8855 0.64061 0.0
C374 C 0.73406 0.87488 0.63188 0.0
C375 C 0.70383 0.87601 0.62797 0.0
C376 C 0.68264 0.88676 0.63312 0.0
C377 C 0.69224 0.89739 0.64183 0.0
C378 C 0.8221 0.89826 0.674 0.0
C379 C 0.71944 0.82318 0.67912 0.0
O380 O 0.82138 0.91444 0.70033 0.0
O381 O 0.76416 0.87491 0.7044 0.0
O382 O 0.74123 0.91955 0.68269 0.0
O383 O 0.73297 0.92093 0.69593 0.0
O384 O 0.79948 0.971 0.67479 0.0
O385 O 0.82413 0.95848 0.68704 0.0
O386 O 0.71378 0.89674 0.66111 0.0
O387 O 0.77104 0.92938 0.65623 0.0
O388 O 0.79121 0.88286 0.67802 0.0
O389 O 0.8209 0.9165 0.66721 0.0
O390 O 0.73627 0.83721 0.68669 0.0
O391 O 0.72383 0.84442 0.67223 0.0
H392 H 0.75348 0.87393 0.7211 0.0
H393 H 0.7659 0.9036 0.7354 0.0
H394 H 0.87509 0.98804 0.72663 0.0
H395 H 0.86226 0.95893 0.71228 0.0
H396 H 0.76757 0.88523 0.64337 0.0
H397 H 0.75066 0.86622 0.62816 0.0
H398 H 0.6595 0.88845 0.63034 0.0
H399 H 0.67623 0.90683 0.64554 0.0
Pr400 Pr 0.12098 0.88055 0.69071 0.0
Pr401 Pr 0.11641 0.86656 0.66981 0.0
C402 C 0.11891 0.89988 0.70747 0.0
C403 C 0.09764 0.88674 0.71575 0.0
C404 C 0.09182 0.85406 0.71995 0.0
C405 C 0.07377 0.84374 0.72806 0.0
C406 C 0.06102 0.86575 0.73215 0.0
C407 C 0.06642 0.8981 0.72785 0.0
C408 C 0.08456 0.90847 0.71977 0.0
C409 C 0.10296 0.8087 0.68523 0.0
C410 C 0.04263 0.86145 0.67998 0.0
C411 C 0.10744 0.83337 0.65415 0.0
C412 C 0.12121 0.83766 0.64503 0.0
C413 C 0.10103 0.8424 0.63827 0.0
C414 C 0.11128 0.84314 0.62955 0.0
C415 C 0.14193 0.83893 0.62732 0.0
C416 C 0.16247 0.83463 0.6341 0.0
C417 C 0.1522 0.83395 0.64285 0.0
C418 C 0.14363 0.94238 0.67315 0.0
C419 C 0.19889 0.90609 0.67977 0.0
O420 O 0.10353 0.90816 0.70103 0.0
O421 O 0.13808 0.88433 0.70487 0.0
O422 O 0.09152 0.82876 0.68181 0.0
O423 O 0.12264 0.82471 0.69214 0.0
O424 O 0.05605 0.85517 0.67273 0.0
O425 O 0.06158 0.87147 0.68739 0.0
O426 O 0.12711 0.8303 0.6605 0.0
O427 O 0.09062 0.85182 0.65639 0.0
O428 O 0.13468 0.91676 0.67865 0.0
O429 O 0.13924 0.92889 0.66529 0.0
O430 O 0.18386 0.91401 0.68648 0.0
O431 O 0.17812 0.88293 0.67348 0.0
H432 H 0.10152 0.83665 0.71702 0.0
H433 H 0.0697 0.81841 0.73112 0.0
H434 H 0.0575 0.91604 0.73083 0.0
H435 H 0.08897 0.93395 0.71672 0.0
H436 H 0.0766 0.84465 0.6397 0.0
H437 H 0.09434 0.84581 0.62453 0.0
H438 H 0.18644 0.83165 0.63264 0.0
H439 H 0.1682 0.82991 0.64789 0.0
Pr440 Pr 0.13765 0.24573 0.69042 0.0
Pr441 Pr 0.15402 0.25515 0.67088 0.0
C442 C 0.11759 0.22364 0.70713 0.0
C443 C 0.13064 0.21468 0.71532 0.0
C444 C 0.16483 0.24011 0.71923 0.0
C445 C 0.17528 0.23186 0.72726 0.0
C446 C 0.15189 0.19797 0.73156 0.0
C447 C 0.11801 0.17237 0.72754 0.0
C448 C 0.10752 0.18069 0.71954 0.0
C449 C 0.2115 0.29921 0.68614 0.0
C450 C 0.16325 0.19059 0.68059 0.0
C451 C 0.18204 0.2796 0.65476 0.0
C452 C 0.17844 0.2931 0.64607 0.0
C453 C 0.14628 0.27305 0.64092 0.0
C454 C 0.14576 0.28332 0.63223 0.0
C455 C 0.17735 0.31383 0.62849 0.0
C456 C 0.20893 0.33466 0.63378 0.0
C457 C 0.20945 0.32435 0.64246 0.0
C458 C 0.08152 0.19873 0.67457 0.0
C459 C 0.11613 0.30163 0.68011 0.0
O460 O 0.10854 0.20025 0.70062 0.0
O461 O 0.13411 0.25848 0.70463 0.0
O462 O 0.19255 0.2678 0.68262 0.0
O463 O 0.19303 0.30339 0.69244 0.0
O464 O 0.17723 0.21565 0.67431 0.0
O465 O 0.14331 0.1935 0.68693 0.0
O466 O 0.1911 0.30195 0.6615 0.0
O467 O 0.15934 0.24458 0.65668 0.0
O468 O 0.09809 0.22955 0.67858 0.0
O469 O 0.10107 0.198 0.66804 0.0
O470 O 0.10736 0.27886 0.68685 0.0
O471 O 0.1375 0.30117 0.67375 0.0
H472 H 0.18337 0.26653 0.71613 0.0
H473 H 0.20178 0.25204 0.73009 0.0
H474 H 0.09904 0.14623 0.73069 0.0
H475 H 0.08091 0.16072 0.71671 0.0
H476 H 0.12191 0.24879 0.64353 0.0
H477 H 0.12075 0.26698 0.6284 0.0
H478 H 0.23393 0.35803 0.63113 0.0
H479 H 0.23472 0.34001 0.64625 0.0
Pr480 Pr 0.7808 0.58586 0.50313 0.0
Pr481 Pr 0.7871 0.5757 0.52384 0.0
C482 C 0.77132 0.6109 0.48765 0.0
C483 C 0.78495 0.62064 0.47852 0.0
C484 C 0.76698 0.59454 0.4718 0.0
C485 C 0.77691 0.60429 0.46308 0.0
C486 C 0.80498 0.6405 0.4608 0.0
C487 C 0.82339 0.6665 0.46754 0.0
C488 C 0.81344 0.65671 0.47629 0.0
C489 C 0.80794 0.53668 0.50596 0.0
C490 C 0.86397 0.62874 0.51273 0.0
C491 C 0.78557 0.55376 0.54051 0.0
C492 C 0.76431 0.54635 0.54878 0.0
C493 C 0.76049 0.57428 0.55307 0.0
C494 C 0.74184 0.56696 0.56109 0.0
C495 C 0.72646 0.53152 0.56499 0.0
C496 C 0.72998 0.50356 0.56062 0.0
C497 C 0.74876 0.51094 0.55263 0.0
C498 C 0.76872 0.62993 0.51886 0.0
C499 C 0.70758 0.51748 0.51336 0.0
O500 O 0.79135 0.63331 0.494 0.0
O501 O 0.75428 0.57555 0.48981 0.0
O502 O 0.79966 0.55336 0.51161 0.0
O503 O 0.80277 0.546 0.4982 0.0
O504 O 0.84965 0.6052 0.51936 0.0
O505 O 0.84252 0.63141 0.50667 0.0
O506 O 0.76938 0.53034 0.53408 0.0
O507 O 0.80568 0.58839 0.53793 0.0
O508 O 0.7568 0.59847 0.51537 0.0
O509 O 0.78927 0.63334 0.52558 0.0
O510 O 0.72018 0.53803 0.50622 0.0
O511 O 0.72761 0.52531 0.52059 0.0
H512 H 0.74444 0.56672 0.47326 0.0
H513 H 0.76161 0.58368 0.45809 0.0
H514 H 0.84539 0.69453 0.46605 0.0
H515 H 0.82762 0.67765 0.48129 0.0
H516 H 0.7721 0.60188 0.55027 0.0
H517 H 0.73928 0.58902 0.56422 0.0
H518 H 0.71897 0.47612 0.56347 0.0
H519 H 0.75156 0.489 0.5495 0.0
Pr520 Pr 0.42635 0.19114 0.50323 0.0
Pr521 Pr 0.44288 0.21306 0.5248 0.0
C522 C 0.39736 0.15378 0.48822 0.0
C523 C 0.38758 0.15768 0.47916 0.0
C524 C 0.40943 0.19019 0.47428 0.0
C525 C 0.40135 0.19189 0.46546 0.0
C526 C 0.3712 0.16115 0.46134 0.0
C527 C 0.34892 0.12902 0.46634 0.0
C528 C 0.35707 0.12734 0.47514 0.0
C529 C 0.47966 0.26644 0.50597 0.0
C530 C 0.38676 0.23466 0.51324 0.0
C531 C 0.46976 0.24356 0.54056 0.0
C532 C 0.47707 0.23298 0.54927 0.0
C533 C 0.45119 0.19961 0.55339 0.0
C534 C 0.45895 0.19038 0.56164 0.0
C535 C 0.49285 0.21416 0.56591 0.0
C536 C 0.51866 0.24747 0.56172 0.0
C537 C 0.51081 0.25675 0.55352 0.0
C538 C 0.39153 0.13652 0.52174 0.0
C539 C 0.49478 0.18593 0.5136 0.0
O540 O 0.37659 0.15503 0.49454 0.0
O541 O 0.43296 0.17007 0.49017 0.0
O542 O 0.4621 0.24166 0.5116 0.0
O543 O 0.46889 0.25213 0.4982 0.0
O544 O 0.40806 0.24109 0.52027 0.0
O545 O 0.38551 0.21318 0.50665 0.0
O546 O 0.49116 0.24441 0.53415 0.0
O547 O 0.43482 0.23042 0.53825 0.0
O548 O 0.40822 0.16225 0.51632 0.0
O549 O 0.40109 0.15072 0.52952 0.0
O550 O 0.47062 0.17388 0.50703 0.0
O551 O 0.49185 0.20371 0.52048 0.0
H552 H 0.43308 0.21406 0.47724 0.0
H553 H 0.4188 0.21727 0.46186 0.0
H554 H 0.32581 0.10463 0.4634 0.0
H555 H 0.33998 0.1019 0.47876 0.0
H556 H 0.42505 0.18058 0.55023 0.0
H557 H 0.43861 0.16432 0.56461 0.0
H558 H 0.54481 0.2667 0.56485 0.0
H559 H 0.53118 0.28265 0.55048 0.0
Pr560 Pr 0.82218 0.23555 0.50339 0.0
Pr561 Pr 0.80652 0.22913 0.5228 0.0
C562 C 0.84933 0.2385 0.48719 0.0
C563 C 0.84434 0.22166 0.47839 0.0
C564 C 0.81545 0.21737 0.47281 0.0
C565 C 0.81469 0.20718 0.46407 0.0
C566 C 0.84274 0.20098 0.46068 0.0
C567 C 0.8707 0.20375 0.46638 0.0
C568 C 0.87154 0.2141 0.47511 0.0
C569 C 0.74987 0.22018 0.50709 0.0
C570 C 0.78326 0.15103 0.5126 0.0
C571 C 0.78649 0.23085 0.53952 0.0
C572 C 0.79855 0.25204 0.54783 0.0
C573 C 0.8319 0.25983 0.55203 0.0
C574 C 0.84095 0.27716 0.56024 0.0
C575 C 0.81685 0.28703 0.56444 0.0
C576 C 0.784 0.28001 0.56009 0.0
C577 C 0.77496 0.26267 0.5519 0.0
C578 C 0.8804 0.24901 0.5185 0.0
C579 C 0.83151 0.30966 0.51298 0.0
O580 O 0.85721 0.22366 0.49381 0.0
O581 O 0.82857 0.25288 0.48929 0.0
O582 O 0.76629 0.20579 0.5111 0.0
O583 O 0.76939 0.24018 0.50053 0.0
O584 O 0.77529 0.16558 0.51936 0.0
O585 O 0.80451 0.17252 0.50618 0.0
O586 O 0.77756 0.24543 0.53305 0.0
O587 O 0.80338 0.21292 0.537 0.0
O588 O 0.8617 0.26186 0.515 0.0
O589 O 0.8615 0.22606 0.52471 0.0
O590 O 0.84528 0.29843 0.50668 0.0
O591 O 0.81202 0.28697 0.51938 0.0
H592 H 0.79405 0.22304 0.47512 0.0
H593 H 0.79242 0.20475 0.45991 0.0
H594 H 0.89297 0.19957 0.464 0.0
H595 H 0.89438 0.21763 0.47923 0.0
H596 H 0.85067 0.25192 0.54906 0.0
H597 H 0.86632 0.2818 0.5634 0.0
H598 H 0.76507 0.28781 0.56301 0.0
H599 H 0.74908 0.25698 0.54882 0.0
Pr600 Pr 0.92674 0.45018 0.68668 0.0
Pr601 Pr 0.91645 0.45374 0.6659 0.0
C602 C 0.94845 0.45488 0.70335 0.0
C603 C 0.96005 0.45855 0.71262 0.0
C604 C 0.9564 0.48373 0.71811 0.0
C605 C 0.96674 0.4872 0.72689 0.0
C606 C 0.98102 0.46558 0.73043 0.0
C607 C 0.98473 0.44037 0.72493 0.0
C608 C 0.9744 0.43693 0.71612 0.0
C609 C 0.86598 0.4567 0.68147 0.0
C610 C 0.97449 0.5317 0.67622 0.0
C611 C 0.89222 0.45614 0.64972 0.0
C612 C 0.88573 0.43763 0.64113 0.0
C613 C 0.90946 0.42533 0.63787 0.0
C614 C 0.90293 0.40839 0.62963 0.0
C615 C 0.87239 0.40317 0.62452 0.0
C616 C 0.84863 0.41536 0.62786 0.0
C617 C 0.85527 0.4324 0.63606 0.0
C618 C 0.96858 0.43012 0.66937 0.0
C619 C 0.86299 0.37431 0.67697 0.0
O620 O 0.95188 0.43277 0.69776 0.0
O621 O 0.93397 0.47418 0.70019 0.0
O622 O 0.89792 0.47398 0.67798 0.0
O623 O 0.86515 0.43651 0.68804 0.0
O624 O 0.95253 0.51713 0.66935 0.0
O625 O 0.97364 0.51096 0.68289 0.0
O626 O 0.8697 0.43653 0.65607 0.0
O627 O 0.92695 0.47725 0.65223 0.0
O628 O 0.95128 0.43854 0.67478 0.0
O629 O 0.9595 0.43459 0.66156 0.0
O630 O 0.88596 0.38712 0.68374 0.0
O631 O 0.86692 0.39507 0.67004 0.0
H632 H 0.94532 0.50073 0.71564 0.0
H633 H 0.9629 0.50645 0.73094 0.0
H634 H 0.99598 0.42354 0.72741 0.0
H635 H 0.97758 0.41732 0.71205 0.0
H636 H 0.93303 0.4288 0.64168 0.0
H637 H 0.92153 0.39896 0.62732 0.0
H638 H 0.82517 0.4123 0.62408 0.0
H639 H 0.83665 0.44173 0.63844 0.0
Pr640 Pr 0.57406 0.49006 0.6876 0.0
Pr641 Pr 0.56419 0.46855 0.66595 0.0
C642 C 0.58659 0.52806 0.70267 0.0
C643 C 0.57367 0.52559 0.71177 0.0
C644 C 0.562 0.49333 0.71683 0.0
C645 C 0.55279 0.49289 0.72565 0.0
C646 C 0.55494 0.52466 0.72959 0.0
C647 C 0.56583 0.55655 0.72442 0.0
C648 C 0.57511 0.55698 0.71562 0.0
C649 C 0.54713 0.41392 0.68458 0.0
C650 C 0.48945 0.45063 0.67817 0.0
C651 C 0.55628 0.43793 0.65003 0.0
C652 C 0.57188 0.44876 0.64115 0.0
C653 C 0.58869 0.48589 0.6383 0.0
C654 C 0.60418 0.49561 0.62991 0.0
C655 C 0.60328 0.46841 0.62423 0.0
C656 C 0.58641 0.43127 0.62717 0.0
C657 C 0.57091 0.42161 0.63553 0.0
C658 C 0.59497 0.54589 0.66929 0.0
C659 C 0.64167 0.48651 0.67663 0.0
O660 O 0.56555 0.52931 0.69642 0.0
O661 O 0.60285 0.50882 0.70063 0.0
O662 O 0.55463 0.4392 0.67906 0.0
O663 O 0.55281 0.42815 0.69241 0.0
O664 O 0.50275 0.44369 0.67096 0.0
O665 O 0.51094 0.47088 0.68477 0.0
O666 O 0.5788 0.43758 0.65599 0.0
O667 O 0.53521 0.45113 0.65286 0.0
O668 O 0.58516 0.51965 0.6746 0.0
O669 O 0.58854 0.53191 0.66148 0.0
O670 O 0.63398 0.50279 0.68314 0.0
O671 O 0.61837 0.46891 0.67013 0.0
H672 H 0.56052 0.46866 0.714 0.0
H673 H 0.54403 0.46768 0.72939 0.0
H674 H 0.56832 0.58168 0.72723 0.0
H675 H 0.58425 0.58224 0.71186 0.0
H676 H 0.58994 0.50736 0.64256 0.0
H677 H 0.61655 0.52439 0.62786 0.0
H678 H 0.58574 0.40965 0.62307 0.0
H679 H 0.55839 0.39286 0.63764 0.0
Pr680 Pr 0.53341 0.10004 0.68808 0.0
Pr681 Pr 0.55353 0.11181 0.66733 0.0
C682 C 0.50218 0.07319 0.70381 0.0
C683 C 0.50655 0.0615 0.71266 0.0
C684 C 0.53659 0.08504 0.7181 0.0
C685 C 0.53739 0.07548 0.72684 0.0
C686 C 0.50821 0.04218 0.73033 0.0
C687 C 0.4789 0.01809 0.72477 0.0
C688 C 0.47808 0.02771 0.71605 0.0
C689 C 0.60479 0.15829 0.68421 0.0
C690 C 0.57459 0.05572 0.67884 0.0
C691 C 0.5834 0.13656 0.65141 0.0
C692 C 0.57233 0.14337 0.64273 0.0
C693 C 0.53607 0.1208 0.63945 0.0
C694 C 0.5264 0.12751 0.63115 0.0
C695 C 0.55273 0.15703 0.62594 0.0
C696 C 0.5889 0.17975 0.62933 0.0
C697 C 0.59854 0.17295 0.63761 0.0
C698 C 0.47606 0.06278 0.67001 0.0
C699 C 0.52468 0.16381 0.67743 0.0
O700 O 0.49799 0.05147 0.69717 0.0
O701 O 0.52121 0.10875 0.70193 0.0
O702 O 0.58825 0.1277 0.68009 0.0
O703 O 0.58598 0.1575 0.69108 0.0
O704 O 0.57764 0.07305 0.67134 0.0
O705 O 0.55813 0.06022 0.6858 0.0
O706 O 0.5857 0.15893 0.65774 0.0
O707 O 0.56908 0.10172 0.65388 0.0
O708 O 0.50125 0.07927 0.67556 0.0
O709 O 0.49121 0.07115 0.66233 0.0
O710 O 0.5092 0.13776 0.68352 0.0
O711 O 0.5469 0.16273 0.67139 0.0
H712 H 0.559 0.11129 0.71567 0.0
H713 H 0.56068 0.09443 0.73088 0.0
H714 H 0.45574 0.99245 0.72724 0.0
H715 H 0.45443 0.00926 0.71203 0.0
H716 H 0.51526 0.09785 0.64329 0.0
H717 H 0.49842 0.10915 0.62876 0.0
H718 H 0.60978 0.20315 0.62562 0.0
H719 H 0.6266 0.19088 0.64002 0.0
Pr720 Pr 0.56697 0.10669 0.16603 0.0
Pr721 Pr 0.57496 0.09356 0.18765 0.0
C722 C 0.56078 0.13059 0.15011 0.0
C723 C 0.57699 0.1356 0.14127 0.0
C724 C 0.58825 0.11121 0.13792 0.0
C725 C 0.60357 0.11664 0.12952 0.0
C726 C 0.60809 0.14665 0.1243 0.0
C727 C 0.597 0.17113 0.12776 0.0
C728 C 0.58163 0.16562 0.13614 0.0
C729 C 0.59315 0.05631 0.16933 0.0
C730 C 0.64699 0.16073 0.17663 0.0
C731 C 0.58573 0.06763 0.20286 0.0
C732 C 0.57363 0.05941 0.21211 0.0
C733 C 0.59648 0.08361 0.21872 0.0
C734 C 0.58721 0.07505 0.22752 0.0
C735 C 0.55493 0.04187 0.22997 0.0
C736 C 0.53182 0.01778 0.22335 0.0
C737 C 0.54107 0.02642 0.21453 0.0
C738 C 0.55209 0.14609 0.18467 0.0
C739 C 0.49082 0.0515 0.17815 0.0
O740 O 0.5828 0.15306 0.1562 0.0
O741 O 0.53908 0.09627 0.15283 0.0
O742 O 0.58456 0.07367 0.17467 0.0
O743 O 0.58753 0.06463 0.16152 0.0
O744 O 0.6359 0.13727 0.18332 0.0
O745 O 0.62534 0.15685 0.16987 0.0
O746 O 0.56313 0.04574 0.19674 0.0
O747 O 0.60483 0.10279 0.20054 0.0
O748 O 0.55884 0.12786 0.17911 0.0
O749 O 0.55657 0.13644 0.19248 0.0
O750 O 0.50473 0.07199 0.17098 0.0
O751 O 0.51192 0.05144 0.18468 0.0
H752 H 0.58514 0.08792 0.14177 0.0
H753 H 0.61138 0.09697 0.12707 0.0
H754 H 0.60064 0.19493 0.12404 0.0
H755 H 0.57342 0.18495 0.13862 0.0
H756 H 0.62208 0.10893 0.21709 0.0
H757 H 0.60605 0.09398 0.23241 0.0
H758 H 0.50656 0.99217 0.22499 0.0
H759 H 0.52295 1.00696 0.20962 0.0
Pr760 Pr 0.91208 0.46768 0.16733 0.0
Pr761 Pr 0.92392 0.48761 0.18817 0.0
C762 C 0.88711 0.4385 0.15137 0.0
C763 C 0.87967 0.44998 0.14279 0.0
C764 C 0.9051 0.48426 0.13894 0.0
C765 C 0.8974 0.49438 0.1308 0.0
C766 C 0.86397 0.4706 0.12636 0.0
C767 C 0.83857 0.43639 0.13027 0.0
C768 C 0.84639 0.42621 0.13837 0.0
C769 C 0.96072 0.54507 0.17017 0.0
C770 C 0.85935 0.49549 0.17756 0.0
C771 C 0.95112 0.51883 0.20389 0.0
C772 C 0.96313 0.51421 0.21267 0.0
C773 C 0.9414 0.48219 0.21773 0.0
C774 C 0.95095 0.48061 0.22643 0.0
C775 C 0.98244 0.51096 0.23026 0.0
C776 C 1.00479 0.5424 0.22506 0.0
C777 C 0.99518 0.54398 0.21638 0.0
C778 C 0.86566 0.41654 0.18418 0.0
C779 C 0.96771 0.44586 0.17884 0.0
O780 O 0.86475 0.43532 0.15779 0.0
O781 O 0.92209 0.45292 0.15378 0.0
O782 O 0.94427 0.51962 0.17565 0.0
O783 O 0.95255 0.53025 0.16246 0.0
O784 O 0.88515 0.51087 0.18372 0.0
O785 O 0.86097 0.47389 0.17143 0.0
O786 O 0.97271 0.52334 0.1972 0.0
O787 O 0.91548 0.49949 0.20207 0.0
O788 O 0.89631 0.43321 0.1801 0.0
O789 O 0.8665 0.43494 0.19114 0.0
O790 O 0.95064 0.44326 0.17131 0.0
O791 O 0.96322 0.46222 0.18583 0.0
H792 H 0.93088 0.50332 0.14223 0.0
H793 H 0.91738 0.52111 0.12805 0.0
H794 H 0.81279 0.41717 0.127 0.0
H795 H 0.82637 0.39963 0.14119 0.0
H796 H 0.91653 0.45876 0.21503 0.0
H797 H 0.93341 0.45574 0.23019 0.0
H798 H 0.02896 0.56648 0.22779 0.0
H799 H 0.01218 0.56909 0.21264 0.0
Pr800 Pr 0.55344 0.45277 0.16664 0.0
Pr801 Pr 0.53201 0.44631 0.18817 0.0
C802 C 0.58378 0.45761 0.1508 0.0
C803 C 0.57287 0.44021 0.14206 0.0
C804 C 0.53707 0.4278 0.13864 0.0
C805 C 0.52743 0.41126 0.13034 0.0
C806 C 0.55334 0.40663 0.12531 0.0
C807 C 0.58907 0.41892 0.12884 0.0
C808 C 0.59868 0.43552 0.1371 0.0
C809 C 0.47645 0.4259 0.16974 0.0
C810 C 0.52852 0.37379 0.17762 0.0
C811 C 0.49448 0.43653 0.2032 0.0
C812 C 0.49799 0.44971 0.2123 0.0
C813 C 0.53017 0.45983 0.21728 0.0
C814 C 0.53141 0.46904 0.22612 0.0
C815 C 0.50054 0.46842 0.23016 0.0
C816 C 0.46877 0.4592 0.22507 0.0
C817 C 0.46754 0.44992 0.21624 0.0
C818 C 0.60778 0.47017 0.18539 0.0
C819 C 0.57391 0.5299 0.17831 0.0
O820 O 0.58475 0.43667 0.15709 0.0
O821 O 0.57046 0.47905 0.15326 0.0
O822 O 0.50233 0.4352 0.17516 0.0
O823 O 0.49073 0.43108 0.16197 0.0
O824 O 0.51583 0.38513 0.18421 0.0
O825 O 0.54619 0.39513 0.17082 0.0
O826 O 0.49516 0.45853 0.19695 0.0
O827 O 0.51149 0.41801 0.20117 0.0
O828 O 0.58279 0.46248 0.17976 0.0
O829 O 0.59341 0.46602 0.19316 0.0
O830 O 0.58052 0.5155 0.17123 0.0
O831 O 0.55288 0.50921 0.1849 0.0
H832 H 0.51656 0.43092 0.14236 0.0
H833 H 0.49981 0.40255 0.12784 0.0
H834 H 0.60958 0.41527 0.12527 0.0
H835 H 0.62635 0.4446 0.13964 0.0
H836 H 0.55412 0.46002 0.21437 0.0
H837 H 0.55651 0.4765 0.22981 0.0
H838 H 0.4443 0.45795 0.22795 0.0
H839 H 0.44235 0.44199 0.21254 0.0
Pr840 Pr 0.44587 0.23412 0.0248 0.0
Pr841 Pr 0.43134 0.23982 1.00312 0.0
C842 C 0.47153 0.23042 0.04071 0.0
C843 C 0.47853 0.2487 0.04936 0.0
C844 C 0.45327 0.2579 0.05315 0.0
C845 C 0.46086 0.2755 0.06133 0.0
C846 C 0.49399 0.28456 0.06584 0.0
C847 C 0.51915 0.27528 0.06198 0.0
C848 C 0.51146 0.25753 0.05385 0.0
C849 C 0.3954 0.26015 0.0214 0.0
C850 C 0.49964 0.313 0.01371 0.0
C851 C 0.40346 0.24882 0.98802 0.0
C852 C 0.39254 0.23505 0.97899 0.0
C853 C 0.41396 0.22473 0.97382 0.0
C854 C 0.40482 0.2151 0.96502 0.0
C855 C 0.37403 0.21552 0.96122 0.0
C856 C 0.35218 0.22496 0.9665 0.0
C857 C 0.36137 0.23463 0.97527 0.0
C858 C 0.48344 0.21652 1.00627 0.0
C859 C 0.39011 0.15652 0.01314 0.0
O860 O 0.49345 0.25061 0.03433 0.0
O861 O 0.43666 0.20894 0.0383 0.0
O862 O 0.41251 0.25112 0.01608 0.0
O863 O 0.40411 0.25514 0.02922 0.0
O864 O 0.47597 0.30124 1.00703 0.0
O865 O 0.49584 0.29199 0.02059 0.0
O866 O 0.38214 0.228 0.99442 0.0
O867 O 0.43918 0.26647 0.9899 0.0
O868 O 0.46574 0.22431 1.01175 0.0
O869 O 0.47358 0.22028 0.99842 0.0
O870 O 0.41073 0.17131 0.02026 0.0
O871 O 0.38984 0.17682 1.00644 0.0
H872 H 0.42778 0.2517 0.04979 0.0
H873 H 0.44106 0.2826 0.06404 0.0
H874 H 0.54468 0.28135 0.0653 0.0
H875 H 0.53134 0.25069 0.05106 0.0
H876 H 0.43811 0.22471 0.97654 0.0
H877 H 0.42197 0.20748 0.9612 0.0
H878 H 0.3286 0.2261 0.9638 0.0
H879 H 0.34461 0.24274 0.97911 0.0
Pr880 Pr 0.78864 0.21222 0.02336 0.0
Pr881 Pr 0.78023 0.19653 1.00394 0.0
C882 C 0.7872 0.23164 0.04016 0.0
C883 C 0.76523 0.21891 0.04835 0.0
C884 C 0.75571 0.1845 0.05222 0.0
C885 C 0.73696 0.17432 0.06025 0.0
C886 C 0.72718 0.19823 0.06458 0.0
C887 C 0.73627 0.23236 0.0606 0.0
C888 C 0.75512 0.24256 0.0526 0.0
C889 C 0.76907 0.13868 0.01891 0.0
C890 C 0.70684 0.18649 0.01395 0.0
C891 C 0.77579 0.17044 0.98756 0.0
C892 C 0.79253 0.17435 0.97877 0.0
C893 C 0.78231 0.19005 0.97193 0.0
C894 C 0.79327 0.18913 0.96335 0.0
C895 C 0.81466 0.17233 0.96134 0.0
C896 C 0.82587 0.15762 0.96823 0.0
C897 C 0.81483 0.1585 0.97684 0.0
C898 C 0.79343 0.26744 1.00805 0.0
C899 C 0.86603 0.23665 0.01272 0.0
O900 O 0.77333 0.24155 0.03372 0.0
O901 O 0.80466 0.21438 0.03756 0.0
O902 O 0.7556 0.1571 0.01557 0.0
O903 O 0.79259 0.15764 0.02503 0.0
O904 O 0.71752 0.17251 1.00758 0.0
O905 O 0.73015 0.20617 0.02025 0.0
O906 O 0.78821 0.1597 0.99417 0.0
O907 O 0.76466 0.19382 0.98975 0.0
O908 O 0.81024 0.25242 1.01159 0.0
O909 O 0.77094 0.24691 1.00192 0.0
O910 O 0.8519 0.24381 0.01969 0.0
O911 O 0.8441 0.21584 1.00629 0.0
H912 H 0.76302 0.16557 0.0491 0.0
H913 H 0.73001 0.14764 0.06306 0.0
H914 H 0.72969 0.25172 0.06377 0.0
H915 H 0.76237 0.26936 0.04979 0.0
H916 H 0.76457 0.20186 0.97314 0.0
H917 H 0.7835 0.20018 0.95824 0.0
H918 H 0.84274 0.14489 0.96696 0.0
H919 H 0.82288 0.1458 0.98193 0.0
Pr920 Pr 0.80534 0.57884 0.02547 0.0
Pr921 Pr 0.82655 0.59186 1.00381 0.0
C922 C 0.77529 0.55449 0.04138 0.0
C923 C 0.78604 0.54839 0.05017 0.0
C924 C 0.82203 0.57139 0.05354 0.0
C925 C 0.83158 0.56458 0.06185 0.0
C926 C 0.80538 0.53452 0.06696 0.0
C927 C 0.76943 0.51153 0.06349 0.0
C928 C 0.75993 0.51843 0.05521 0.0
C929 C 0.88237 0.62726 0.02209 0.0
C930 C 0.82666 0.52211 0.0146 0.0
C931 C 0.86327 0.6181 0.98862 0.0
C932 C 0.859 0.62652 0.97943 0.0
C933 C 0.83357 0.59873 0.97374 0.0
C934 C 0.83254 0.60647 0.96488 0.0
C935 C 0.8568 0.64218 0.96149 0.0
C936 C 0.8815 0.67018 0.96724 0.0
C937 C 0.88265 0.66238 0.97609 0.0
C938 C 0.75073 0.54089 1.00679 0.0
C939 C 0.7859 0.63517 0.01354 0.0
O940 O 0.77434 0.53218 0.03519 0.0
O941 O 0.78864 0.58909 0.0388 0.0
O942 O 0.8561 0.61052 0.0168 0.0
O943 O 0.86863 0.61913 0.02992 0.0
O944 O 0.84178 0.54633 1.0081 0.0
O945 O 0.80868 0.5267 0.02119 0.0
O946 O 0.86272 0.64002 0.99474 0.0
O947 O 0.84723 0.58293 0.99094 0.0
O948 O 0.77588 0.55875 0.01235 0.0
O949 O 0.76494 0.55013 0.99898 0.0
O950 O 0.77898 0.61439 0.02066 0.0
O951 O 0.80672 0.63497 1.00695 0.0
H952 H 0.84278 0.59459 0.04975 0.0
H953 H 0.85938 0.58314 0.06431 0.0
H954 H 0.74868 0.48773 0.06712 0.0
H955 H 0.7321 0.50013 0.05271 0.0
H956 H 0.81487 0.57079 0.9761 0.0
H957 H 0.81281 0.58437 0.96067 0.0
H958 H 0.90088 0.69786 0.96486 0.0
H959 H 0.90274 0.68422 0.98031 0.0
Pr960 Pr 0.44972 0.92252 0.83652 0.0
Pr961 Pr 0.45555 0.9082 0.85813 0.0
C962 C 0.44041 0.94911 0.82124 0.0
C963 C 0.45304 0.9575 0.81202 0.0
C964 C 0.43027 0.93372 0.80535 0.0
C965 C 0.44 0.94249 0.79657 0.0
C966 C 0.47268 0.97547 0.79421 0.0
C967 C 0.49573 0.99912 0.8009 0.0
C968 C 0.48601 0.99027 0.8097 0.0
C969 C 0.47264 0.87006 0.83959 0.0
C970 C 0.53299 0.96459 0.84655 0.0
C971 C 0.45901 0.8828 0.87409 0.0
C972 C 0.44089 0.876 0.88281 0.0
C973 C 0.44659 0.9055 0.88835 0.0
C974 C 0.42992 0.89832 0.89662 0.0
C975 C 0.40719 0.86147 0.89959 0.0
C976 C 0.40144 0.83206 0.894 0.0
C977 C 0.41815 0.83924 0.88575 0.0
C978 C 0.42909 0.9584 0.85478 0.0
C979 C 0.37669 0.85434 0.84705 0.0
O980 O 0.46272 0.97072 0.82744 0.0
O981 O 0.4209 0.91391 0.82351 0.0
O982 O 0.46529 0.88797 0.84511 0.0
O983 O 0.4688 0.88004 0.83176 0.0
O984 O 0.51846 0.94362 0.85363 0.0
O985 O 0.51242 0.9648 0.83991 0.0
O986 O 0.43884 0.86086 0.86771 0.0
O987 O 0.48099 0.91748 0.87163 0.0
O988 O 0.43835 0.94156 0.84944 0.0
O989 O 0.43411 0.94958 0.86259 0.0
O990 O 0.38828 0.87837 0.84046 0.0
O991 O 0.39786 0.85791 0.85388 0.0
H992 H 0.40437 0.90859 0.8069 0.0
H993 H 0.4212 0.9239 0.79163 0.0
H994 H 0.52128 0.02456 0.79934 0.0
H995 H 0.50409 0.00941 0.81466 0.0
H996 H 0.46411 0.93419 0.88633 0.0
H997 H 0.43547 0.92172 0.90076 0.0
H998 H 0.38371 0.80333 0.89597 0.0
H999 H 0.41331 0.8159 0.88166 0.0
Pr1000 Pr 0.09799 0.52702 0.83656 0.0
Pr1001 Pr 0.11331 0.54863 0.85816 0.0
C1002 C 0.06953 0.48804 0.82175 0.0
C1003 C 0.05879 0.48925 0.81262 0.0
C1004 C 0.0826 0.5177 0.80687 0.0
C1005 C 0.07344 0.51596 0.79802 0.0
C1006 C 0.04033 0.48572 0.79472 0.0
C1007 C 0.01608 0.45795 0.80058 0.0
C1008 C 0.02527 0.45969 0.80941 0.0
C1009 C 0.15059 0.6024 0.83942 0.0
C1010 C 0.05745 0.57013 0.84637 0.0
C1011 C 0.13885 0.57934 0.87395 0.0
C1012 C 0.14522 0.56883 0.88274 0.0
C1013 C 0.12044 0.53408 0.88646 0.0
C1014 C 0.12726 0.52486 0.8948 0.0
C1015 C 0.15907 0.55015 0.89958 0.0
C1016 C 0.18389 0.58479 0.89576 0.0
C1017 C 0.17699 0.59399 0.88745 0.0
C1018 C 0.06296 0.47192 0.85492 0.0
C1019 C 0.16701 0.5234 0.84711 0.0
O1020 O 0.04845 0.48927 0.828 0.0
O1021 O 0.10526 0.50567 0.82363 0.0
O1022 O 0.13284 0.57741 0.845 0.0
O1023 O 0.14046 0.58826 0.83161 0.0
O1024 O 0.07815 0.57611 0.85349 0.0
O1025 O 0.05691 0.5492 0.83973 0.0
O1026 O 0.16074 0.57982 0.86771 0.0
O1027 O 0.10413 0.56624 0.87146 0.0
O1028 O 0.07974 0.49803 0.8496 0.0
O1029 O 0.07189 0.48576 0.86274 0.0
O1030 O 0.14278 0.51063 0.84056 0.0
O1031 O 0.1636 0.5412 0.85393 0.0
H1032 H 0.1087 0.54082 0.80917 0.0
H1033 H 0.09294 0.53769 0.79371 0.0
H1034 H 0.99004 0.43463 0.79832 0.0
H1035 H 1.0065 0.43742 0.81372 0.0
H1036 H 0.09579 0.51407 0.88294 0.0
H1037 H 0.1073 0.49811 0.89755 0.0
H1038 H 0.20903 0.60472 0.89913 0.0
H1039 H 0.19663 0.62083 0.88467 0.0
Pr1040 Pr 0.49364 0.5705 0.83627 0.0
Pr1041 Pr 0.4725 0.56386 0.85788 0.0
C1042 C 0.5311 0.58032 0.82122 0.0
C1043 C 0.52826 0.56721 0.81213 0.0
C1044 C 0.49687 0.55804 0.80692 0.0
C1045 C 0.49646 0.54903 0.79809 0.0
C1046 C 0.52738 0.54892 0.79427 0.0
C1047 C 0.55831 0.55719 0.79959 0.0
C1048 C 0.55872 0.56626 0.80841 0.0
C1049 C 0.41813 0.54727 0.83925 0.0
C1050 C 0.45136 0.48676 0.84607 0.0
C1051 C 0.44226 0.55856 0.87375 0.0
C1052 C 0.45305 0.57547 0.88253 0.0
C1053 C 0.48798 0.58556 0.8862 0.0
C1054 C 0.49755 0.60186 0.89452 0.0
C1055 C 0.47252 0.60868 0.89931 0.0
C1056 C 0.4376 0.59848 0.89558 0.0
C1057 C 0.42801 0.58205 0.8873 0.0
C1058 C 0.54936 0.59076 0.85466 0.0
C1059 C 0.49708 0.64284 0.8469 0.0
O1060 O 0.53089 0.55873 0.82752 0.0
O1061 O 0.5135 0.59833 0.82319 0.0
O1062 O 0.44332 0.55447 0.84478 0.0
O1063 O 0.4321 0.55144 0.83142 0.0
O1064 O 0.44518 0.50119 0.8532 0.0
O1065 O 0.47217 0.50742 0.83944 0.0
O1066 O 0.44148 0.57989 0.86753 0.0
O1067 O 0.45536 0.53704 0.87119 0.0
O1068 O 0.52334 0.5814 0.84928 0.0
O1069 O 0.53531 0.58561 0.86245 0.0
O1070 O 0.50993 0.63164 0.8403 0.0
O1071 O 0.47944 0.62142 0.8537 0.0
H1072 H 0.47292 0.55844 0.80964 0.0
H1073 H 0.47195 0.5423 0.79423 0.0
H1074 H 0.58281 0.55789 0.79689 0.0
H1075 H 0.58333 0.57348 0.81228 0.0
H1076 H 0.50796 0.58106 0.88262 0.0
H1077 H 0.52482 0.60973 0.89713 0.0
H1078 H 0.41741 0.60281 0.89911 0.0
H1079 H 0.40092 0.57448 0.88461 0.0
Pr1080 Pr 0.59116 0.77657 0.02058 0.0
Pr1081 Pr 0.58144 0.78253 1.00103 0.0
C1082 C 0.61598 0.77252 0.03662 0.0
C1083 C 0.63146 0.78861 0.04529 0.0
C1084 C 0.61424 0.80283 0.05076 0.0
C1085 C 0.62562 0.81192 0.05947 0.0
C1086 C 0.65426 0.80673 0.0629 0.0
C1087 C 0.67257 0.79422 0.05727 0.0
C1088 C 0.66126 0.78524 0.04858 0.0
C1089 C 0.53549 0.7936 0.01684 0.0
C1090 C 0.63778 0.86049 1.01117 0.0
C1091 C 0.55991 0.78102 0.98429 0.0
C1092 C 0.55067 0.75958 0.97603 0.0
C1093 C 0.57507 0.7493 0.97219 0.0
C1094 C 0.56683 0.73158 0.96403 0.0
C1095 C 0.53404 0.72377 0.95952 0.0
C1096 C 0.50931 0.73332 0.96351 0.0
C1097 C 0.51759 0.75106 0.97164 0.0
C1098 C 0.63414 0.7613 1.00547 0.0
C1099 C 0.52427 0.70302 1.01108 0.0
O1100 O 0.63774 0.78365 0.02975 0.0
O1101 O 0.58141 0.76316 0.03492 0.0
O1102 O 0.56609 0.80697 0.01277 0.0
O1103 O 0.53464 0.77384 0.0235 0.0
O1104 O 0.61467 0.84591 1.0045 0.0
O1105 O 0.63753 0.83918 0.01764 0.0
O1106 O 0.53629 0.76674 0.99076 0.0
O1107 O 0.59475 0.79861 0.98684 0.0
O1108 O 0.60268 0.74928 1.00894 0.0
O1109 O 0.6388 0.78402 0.99916 0.0
O1110 O 0.54887 0.71396 0.01748 0.0
O1111 O 0.5284 0.72551 1.00455 0.0
H1112 H 0.59105 0.80558 0.04841 0.0
H1113 H 0.61077 0.8213 0.06362 0.0
H1114 H 0.69515 0.79051 0.05964 0.0
H1115 H 0.67488 0.77419 0.04452 0.0
H1116 H 0.60084 0.75552 0.97541 0.0
H1117 H 0.58671 0.72497 0.96115 0.0
H1118 H 0.48347 0.72716 0.96034 0.0
H1119 H 0.49831 0.75867 0.97445 0.0
Pr1120 Pr 0.24489 0.82087 0.02137 0.0
Pr1121 Pr 0.23657 0.80165 1.00059 0.0
C1122 C 0.24868 0.85076 0.03726 0.0
C1123 C 0.23278 0.84482 0.04617 0.0
C1124 C 0.23156 0.81715 0.0517 0.0
C1125 C 0.22129 0.81538 0.06047 0.0
C1126 C 0.21196 0.84118 0.06391 0.0
C1127 C 0.21185 0.86791 0.05827 0.0
C1128 C 0.22226 0.86976 0.04951 0.0
C1129 C 0.23252 0.74993 0.01729 0.0
C1130 C 0.15942 0.77999 1.01211 0.0
C1131 C 0.23278 0.77295 0.98458 0.0
C1132 C 0.25223 0.78401 0.97599 0.0
C1133 C 0.2391 0.79765 0.96928 0.0
C1134 C 0.25657 0.80681 0.9611 0.0
C1135 C 0.28751 0.80233 0.95937 0.0
C1136 C 0.30065 0.78875 0.9661 0.0
C1137 C 0.28322 0.77964 0.97428 0.0
C1138 C 0.26486 0.87896 1.00345 0.0
C1139 C 0.31774 0.83161 1.01062 0.0
O1140 O 0.22998 0.85408 0.03075 0.0
O1141 O 0.26689 0.83362 0.03513 0.0
O1142 O 0.21812 0.76633 0.01326 0.0
O1143 O 0.25043 0.76857 0.0242 0.0
O1144 O 0.17354 0.77701 1.00457 0.0
O1145 O 0.18052 0.79645 0.01905 0.0
O1146 O 0.25071 0.76863 0.99113 0.0
O1147 O 0.21272 0.78801 0.9869 0.0
O1148 O 0.25615 0.85363 1.00896 0.0
O1149 O 0.25801 0.86403 0.99575 0.0
O1150 O 0.30681 0.84641 0.01679 0.0
O1151 O 0.29474 0.80952 1.00452 0.0
H1152 H 0.23949 0.79746 0.04933 0.0
H1153 H 0.22115 0.79409 0.06459 0.0
H1154 H 0.20523 0.88848 0.0607 0.0
H1155 H 0.22334 0.8916 0.04541 0.0
H1156 H 0.215 0.80091 0.97031 0.0
H1157 H 0.24525 0.81664 0.95606 0.0
H1158 H 0.32465 0.78533 0.96507 0.0
H1159 H 0.29401 0.76896 0.97925 0.0
Pr1160 Pr 0.19819 0.42306 0.0213 0.0
Pr1161 Pr 0.22002 0.43928 0.99979 0.0
C1162 C 0.16102 0.3947 0.03635 0.0
C1163 C 0.16563 0.38653 0.04553 0.0
C1164 C 0.19164 0.41436 0.05112 0.0
C1165 C 0.193 0.40693 0.05998 0.0
C1166 C 0.16852 0.37147 0.06347 0.0
C1167 C 0.14328 0.34339 0.05781 0.0
C1168 C 0.14179 0.3509 0.04895 0.0
C1169 C 0.27375 0.47542 0.01863 0.0
C1170 C 0.24094 0.38259 1.01126 0.0
C1171 C 0.25074 0.46556 0.98404 0.0
C1172 C 0.23964 0.47227 0.97536 0.0
C1173 C 0.20392 0.4486 0.97192 0.0
C1174 C 0.1939 0.45592 0.96373 0.0
C1175 C 0.21928 0.48723 0.95885 0.0
C1176 C 0.25499 0.51082 0.96234 0.0
C1177 C 0.26503 0.50338 0.9705 0.0
C1178 C 0.14321 0.3885 1.00278 0.0
C1179 C 0.19513 0.49294 1.01099 0.0
O1180 O 0.16323 0.37378 0.03021 0.0
O1181 O 0.17557 0.42982 0.03411 0.0
O1182 O 0.24892 0.45821 0.01297 0.0
O1183 O 0.25936 0.46478 0.02639 0.0
O1184 O 0.2475 0.40397 1.00426 0.0
O1185 O 0.21967 0.38162 0.01787 0.0
O1186 O 0.25152 0.48717 0.99039 0.0
O1187 O 0.23757 0.43074 0.98642 0.0
O1188 O 0.16891 0.40498 1.00823 0.0
O1189 O 0.15755 0.39806 0.99502 0.0
O1190 O 0.18291 0.46899 0.0176 0.0
O1191 O 0.2121 0.48915 1.00406 0.0
H1192 H 0.21051 0.44211 0.04868 0.0
H1193 H 0.21315 0.42905 0.06412 0.0
H1194 H 0.12375 0.3159 0.06027 0.0
H1195 H 0.12131 0.32904 0.0448 0.0
H1196 H 0.18368 0.4246 0.97559 0.0
H1197 H 0.16604 0.43742 0.96129 0.0
H1198 H 0.2754 0.5349 0.95873 0.0
H1199 H 0.2927 0.52202 0.97303 0.0
Pr1200 Pr 0.23766 0.44001 0.50101 0.0
Pr1201 Pr 0.2442 0.42765 0.5219 0.0
C1202 C 0.23276 0.46416 0.48501 0.0
C1203 C 0.2508 0.47091 0.47634 0.0
C1204 C 0.2638 0.44784 0.47303 0.0
C1205 C 0.28034 0.45455 0.46475 0.0
C1206 C 0.28447 0.48462 0.45963 0.0
C1207 C 0.27158 0.50773 0.46302 0.0
C1208 C 0.25492 0.50091 0.47127 0.0
C1209 C 0.26701 0.39202 0.50402 0.0
C1210 C 0.31712 0.49296 0.51149 0.0
C1211 C 0.24809 0.40082 0.53768 0.0
C1212 C 0.23139 0.38875 0.54645 0.0
C1213 C 0.2208 0.41029 0.55149 0.0
C1214 C 0.20964 0.40074 0.56019 0.0
C1215 C 0.20879 0.36944 0.56404 0.0
C1216 C 0.2182 0.34728 0.55886 0.0
C1217 C 0.22941 0.35689 0.55018 0.0
C1218 C 0.23004 0.48502 0.51784 0.0
C1219 C 0.15982 0.3824 0.51213 0.0
O1220 O 0.25257 0.48681 0.49133 0.0
O1221 O 0.21242 0.42934 0.48751 0.0
O1222 O 0.25738 0.40813 0.50944 0.0
O1223 O 0.26082 0.40027 0.49627 0.0
O1224 O 0.30648 0.46707 0.51763 0.0
O1225 O 0.29416 0.49143 0.5053 0.0
O1226 O 0.23132 0.37911 0.53098 0.0
O1227 O 0.2641 0.43639 0.53584 0.0
O1228 O 0.21715 0.45465 0.51368 0.0
O1229 O 0.24711 0.48423 0.5249 0.0
O1230 O 0.17481 0.4006 0.50477 0.0
O1231 O 0.18 0.38653 0.51923 0.0
H1232 H 0.26121 0.42465 0.47684 0.0
H1233 H 0.29035 0.43646 0.46241 0.0
H1234 H 0.27382 0.53084 0.45924 0.0
H1235 H 0.24505 0.51903 0.47369 0.0
H1236 H 0.22201 0.43502 0.54879 0.0
H1237 H 0.20205 0.41812 0.56394 0.0
H1238 H 0.21835 0.32328 0.5616 0.0
H1239 H 0.23778 0.34005 0.54645 0.0
Pr1240 Pr 0.57983 0.79742 0.49993 0.0
Pr1241 Pr 0.59677 0.81924 0.52143 0.0
C1242 C 0.55381 0.767 0.48413 0.0
C1243 C 0.54799 0.77801 0.4753 0.0
C1244 C 0.57813 0.80254 0.47001 0.0
C1245 C 0.57191 0.81187 0.46163 0.0
C1246 C 0.53543 0.79693 0.45833 0.0
C1247 C 0.50537 0.77256 0.46367 0.0
C1248 C 0.5116 0.76316 0.47203 0.0
C1249 C 0.63089 0.87409 0.50292 0.0
C1250 C 0.52681 0.82268 0.51117 0.0
C1251 C 0.62553 0.85707 0.53639 0.0
C1252 C 0.63551 0.85365 0.54548 0.0
C1253 C 0.61304 0.82196 0.55056 0.0
C1254 C 0.6214 0.82089 0.55938 0.0
C1255 C 0.65246 0.85142 0.5633 0.0
C1256 C 0.67536 0.88266 0.5581 0.0
C1257 C 0.66692 0.88373 0.5493 0.0
C1258 C 0.5446 0.74356 0.5188 0.0
C1259 C 0.63735 0.77714 0.51122 0.0
O1260 O 0.53216 0.76694 0.4904 0.0
O1261 O 0.58824 0.77874 0.48667 0.0
O1262 O 0.61435 0.84841 0.50836 0.0
O1263 O 0.62124 0.8598 0.49516 0.0
O1264 O 0.5509 0.83479 0.51777 0.0
O1265 O 0.53017 0.80538 0.50426 0.0
O1266 O 0.64642 0.85597 0.53009 0.0
O1267 O 0.58991 0.84039 0.53445 0.0
O1268 O 0.56132 0.7684 0.51312 0.0
O1269 O 0.55566 0.75802 0.52654 0.0
O1270 O 0.61523 0.77015 0.50435 0.0
O1271 O 0.63873 0.79847 0.51787 0.0
H1272 H 0.60657 0.81442 0.47231 0.0
H1273 H 0.59579 0.83032 0.45768 0.0
H1274 H 0.47687 0.76093 0.46143 0.0
H1275 H 0.48783 0.74416 0.47595 0.0
H1276 H 0.58869 0.7983 0.54775 0.0
H1277 H 0.60345 0.79617 0.56315 0.0
H1278 H 0.6992 0.90687 0.56089 0.0
H1279 H 0.68451 0.90854 0.54552 0.0
Pr1280 Pr 0.21886 0.78263 0.50014 0.0
Pr1281 Pr 0.19938 0.77412 0.52099 0.0
C1282 C 0.24835 0.78857 0.48414 0.0
C1283 C 0.23738 0.7715 0.47537 0.0
C1284 C 0.20124 0.75833 0.47207 0.0
C1285 C 0.19181 0.74307 0.46366 0.0
C1286 C 0.21828 0.74055 0.45835 0.0
C1287 C 0.2543 0.75337 0.46176 0.0
C1288 C 0.2637 0.76867 0.47016 0.0
C1289 C 0.14146 0.75377 0.50309 0.0
C1290 C 0.19077 0.70193 0.51018 0.0
C1291 C 0.16859 0.7695 0.53681 0.0
C1292 C 0.17352 0.78534 0.54571 0.0
C1293 C 0.20262 0.78954 0.55119 0.0
C1294 C 0.20377 0.79974 0.55996 0.0
C1295 C 0.17591 0.80602 0.56344 0.0
C1296 C 0.1476 0.80308 0.55784 0.0
C1297 C 0.1464 0.79276 0.54909 0.0
C1298 C 0.27052 0.787 0.51695 0.0
C1299 C 0.24007 0.85956 0.51176 0.0
O1300 O 0.25062 0.76799 0.49034 0.0
O1301 O 0.23408 0.80895 0.48676 0.0
O1302 O 0.16709 0.76273 0.50852 0.0
O1303 O 0.15607 0.76056 0.49535 0.0
O1304 O 0.17554 0.71234 0.51637 0.0
O1305 O 0.21245 0.72513 0.50406 0.0
O1306 O 0.16456 0.78749 0.53025 0.0
O1307 O 0.18706 0.75252 0.53479 0.0
O1308 O 0.25386 0.8011 0.51289 0.0
O1309 O 0.25203 0.76927 0.52388 0.0
O1310 O 0.24291 0.84536 0.50423 0.0
O1311 O 0.22391 0.83859 0.51874 0.0
H1312 H 0.18036 0.76008 0.47598 0.0
H1313 H 0.16394 0.73388 0.46125 0.0
H1314 H 0.27527 0.75131 0.45798 0.0
H1315 H 0.29167 0.77844 0.47259 0.0
H1316 H 0.22399 0.78404 0.54879 0.0
H1317 H 0.22629 0.80228 0.56404 0.0
H1318 H 0.12544 0.80727 0.56029 0.0
H1319 H 0.12346 0.78934 0.54503 0.0
Pr1320 Pr 0.10775 0.56746 0.35647 0.0
Pr1321 Pr 0.0985 0.5741 0.33692 0.0
C1322 C 0.1296 0.56959 0.37321 0.0
C1323 C 0.1383 0.591 0.38149 0.0
C1324 C 0.11211 0.59795 0.38565 0.0
C1325 C 0.12015 0.61585 0.39379 0.0
C1326 C 0.15458 0.62731 0.39795 0.0
C1327 C 0.18093 0.62087 0.39367 0.0
C1328 C 0.17283 0.60287 0.38556 0.0
C1329 C 0.05376 0.58707 0.35208 0.0
C1330 C 0.16329 0.64807 0.34656 0.0
C1331 C 0.0737 0.57713 0.32081 0.0
C1332 C 0.05976 0.55948 0.31218 0.0
C1333 C 0.07921 0.54642 0.30713 0.0
C1334 C 0.06866 0.53514 0.29847 0.0
C1335 C 0.03847 0.53667 0.29467 0.0
C1336 C 0.01819 0.54834 0.29988 0.0
C1337 C 0.02879 0.55967 0.30852 0.0
C1338 C 0.15598 0.55991 0.34074 0.0
C1339 C 0.05382 0.48933 0.34606 0.0
O1340 O 0.15309 0.58442 0.36674 0.0
O1341 O 0.0948 0.55103 0.37067 0.0
O1342 O 0.08532 0.59987 0.3486 0.0
O1343 O 0.04962 0.56431 0.35834 0.0
O1344 O 0.13841 0.63688 0.34023 0.0
O1345 O 0.15995 0.62546 0.353 0.0
O1346 O 0.05152 0.56443 0.32759 0.0
O1347 O 0.10873 0.5892 0.32268 0.0
O1348 O 0.12499 0.5449 0.34469 0.0
O1349 O 0.15635 0.57984 0.33417 0.0
O1350 O 0.07587 0.50394 0.3529 0.0
O1351 O 0.05403 0.51076 0.33963 0.0
H1352 H 0.08523 0.58921 0.38268 0.0
H1353 H 0.09937 0.62076 0.39683 0.0
H1354 H 0.20751 0.62881 0.3967 0.0
H1355 H 0.19339 0.59758 0.38254 0.0
H1356 H 0.10323 0.54594 0.30977 0.0
H1357 H 0.08456 0.52576 0.2947 0.0
H1358 H 0.99508 0.55033 0.29718 0.0
H1359 H 0.01359 0.56999 0.31225 0.0
Pr1360 Pr 0.45386 0.54306 0.35752 0.0
Pr1361 Pr 0.44945 0.52723 0.33677 0.0
C1362 C 0.45215 0.56428 0.37412 0.0
C1363 C 0.43158 0.55237 0.38251 0.0
C1364 C 0.42493 0.51963 0.38682 0.0
C1365 C 0.40786 0.51066 0.39505 0.0
C1366 C 0.39711 0.53424 0.39918 0.0
C1367 C 0.4031 0.56652 0.39473 0.0
C1368 C 0.42017 0.57547 0.38652 0.0
C1369 C 0.43415 0.47012 0.35249 0.0
C1370 C 0.37571 0.52301 0.34659 0.0
C1371 C 0.44072 0.4921 0.32141 0.0
C1372 C 0.45543 0.49526 0.31247 0.0
C1373 C 0.46825 0.52799 0.30753 0.0
C1374 C 0.47799 0.52878 0.29874 0.0
C1375 C 0.47518 0.49689 0.29471 0.0
C1376 C 0.46349 0.4646 0.29979 0.0
C1377 C 0.45369 0.46382 0.30856 0.0
C1378 C 0.47688 0.60356 0.33959 0.0
C1379 C 0.53155 0.56632 0.34677 0.0
O1380 O 0.43619 0.57138 0.36761 0.0
O1381 O 0.47143 0.54863 0.37168 0.0
O1382 O 0.42368 0.49062 0.34888 0.0
O1383 O 0.45388 0.48637 0.35938 0.0
O1384 O 0.389 0.51546 0.33951 0.0
O1385 O 0.3948 0.53441 0.35397 0.0
O1386 O 0.45959 0.48904 0.32792 0.0
O1387 O 0.42495 0.51193 0.32327 0.0
O1388 O 0.46792 0.57865 0.3453 0.0
O1389 O 0.47248 0.58901 0.33185 0.0
O1390 O 0.51684 0.57549 0.35332 0.0
O1391 O 0.5105 0.54246 0.34063 0.0
H1392 H 0.43345 0.50126 0.3839 0.0
H1393 H 0.40404 0.48576 0.39829 0.0
H1394 H 0.39462 0.58502 0.3976 0.0
H1395 H 0.42498 0.60087 0.38335 0.0
H1396 H 0.46995 0.55269 0.3104 0.0
H1397 H 0.4874 0.55429 0.29507 0.0
H1398 H 0.46052 0.43939 0.29691 0.0
H1399 H 0.44363 0.4382 0.31222 0.0
Pr1400 Pr 0.47546 0.91138 0.35682 0.0
Pr1401 Pr 0.49174 0.9217 0.33609 0.0
C1402 C 0.45487 0.88933 0.37349 0.0
C1403 C 0.46796 0.88124 0.38181 0.0
C1404 C 0.47987 0.90707 0.3887 0.0
C1405 C 0.48962 0.89869 0.39679 0.0
C1406 C 0.48743 0.86409 0.39823 0.0
C1407 C 0.47594 0.83842 0.39129 0.0
C1408 C 0.46628 0.84685 0.38319 0.0
C1409 C 0.54791 0.96612 0.35188 0.0
C1410 C 0.49737 0.85365 0.34632 0.0
C1411 C 0.52652 0.94787 0.3207 0.0
C1412 C 0.52289 0.95885 0.31172 0.0
C1413 C 0.49277 0.93525 0.30631 0.0
C1414 C 0.49219 0.94435 0.29753 0.0
C1415 C 0.52165 0.97728 0.29396 0.0
C1416 C 0.55113 1.00138 0.29948 0.0
C1417 C 0.55175 0.99219 0.30825 0.0
C1418 C 0.41552 0.87234 0.33897 0.0
C1419 C 0.45039 0.96358 0.34574 0.0
O1420 O 0.44695 0.86607 0.36698 0.0
O1421 O 0.47036 0.92415 0.37098 0.0
O1422 O 0.52862 0.93473 0.34832 0.0
O1423 O 0.53057 0.96919 0.3586 0.0
O1424 O 0.50465 0.87384 0.33913 0.0
O1425 O 0.48552 0.86162 0.35359 0.0
O1426 O 0.5293 0.96992 0.32716 0.0
O1427 O 0.50749 0.91232 0.32266 0.0
O1428 O 0.44061 0.88904 0.34459 0.0
O1429 O 0.42985 0.88157 0.33119 0.0
O1430 O 0.44188 0.94038 0.35241 0.0
O1431 O 0.4743 0.96638 0.33961 0.0
H1432 H 0.48097 0.93358 0.38791 0.0
H1433 H 0.49783 0.91895 0.40201 0.0
H1434 H 0.47433 0.8117 0.39211 0.0
H1435 H 0.45701 0.82615 0.37805 0.0
H1436 H 0.47003 0.90936 0.30881 0.0
H1437 H 0.46879 0.92541 0.29351 0.0
H1438 H 0.57449 0.02674 0.29696 0.0
H1439 H 0.57542 0.01069 0.31226 0.0
H1440 H 0.1536 0.18278 0.18934 0.0
H1441 H 0.18456 0.02626 0.16674 0.0
H1442 H 0.12693 0.14921 0.16245 0.0
H1443 H 0.15491 0.01971 0.19393 0.0
H1444 H 0.18033 0.08291 0.16538 0.0
H1445 H 0.16936 0.13316 0.1914 0.0
C1446 C 0.1513 0.16516 0.18388 0.0
C1447 C 0.13867 0.16983 0.17574 0.0
C1448 C 0.17524 0.06929 0.17167 0.0
C1449 C 0.15743 0.11412 0.17797 0.0
C1450 C 0.17793 0.03713 0.17247 0.0
C1451 C 0.16981 0.01804 0.18044 0.0
C1452 C 0.16491 0.08283 0.17892 0.0
C1453 C 0.16109 0.03338 0.18764 0.0
C1454 C 0.16025 0.13696 0.18505 0.0
C1455 C 0.13626 0.14638 0.16886 0.0
N1456 N 0.15875 0.06483 0.18671 0.0
N1457 N 0.1457 0.11971 0.17011 0.0
H1458 H 1.00711 0.1357 0.19329 0.0
H1459 H 0.84437 0.99718 0.16131 0.0
H1460 H 0.98921 0.16728 0.16769 0.0
H1461 H 0.84926 0.97129 0.18834 0.0
H1462 H 0.89627 0.06017 0.16374 0.0
H1463 H 0.94866 0.07654 0.19188 0.0
C1464 C 0.99074 0.13043 0.1874 0.0
C1465 C 1.00336 0.15661 0.18057 0.0
C1466 C 0.8859 0.04094 0.16918 0.0
C1467 C 0.93632 0.08843 0.1789 0.0
C1468 C 0.85624 1.00489 0.16779 0.0
C1469 C 0.84257 0.97891 0.17463 0.0
C1470 C 0.90252 0.05117 0.17746 0.0
C1471 C 0.85897 0.99047 0.18289 0.0
C1472 C 0.9573 0.09655 0.18661 0.0
C1473 C 0.98074 0.14808 0.17312 0.0
N1474 N 0.88834 0.02566 0.18406 0.0
N1475 N 0.9486 0.11465 0.17246 0.0
H1476 H 0.04058 0.90111 0.16206 0.0
H1477 H 0.87645 0.86563 0.19389 0.0
H1478 H 0.04132 0.86833 0.18873 0.0
H1479 H 0.8615 0.84828 0.16607 0.0
H1480 H 0.93738 0.86957 0.1926 0.0
H1481 H 0.97612 0.8861 0.1638 0.0
C1482 C 0.02712 0.89069 0.1683 0.0
C1483 C 0.04634 0.886 0.17527 0.0
C1484 C 0.92045 0.86436 0.18682 0.0
C1485 C 0.97231 0.86903 0.17734 0.0
C1486 C 0.88571 0.86218 0.18753 0.0
C1487 C 0.86384 0.85685 0.18006 0.0
C1488 C 0.93372 0.86195 0.17856 0.0
C1489 C 0.87727 0.85242 0.172 0.0
C1490 C 0.99018 0.88191 0.16927 0.0
C1491 C 0.0274 0.87229 0.1832 0.0
N1492 N 0.91153 0.85564 0.17146 0.0
N1493 N 0.99143 0.86465 0.18406 0.0
H1494 H 0.15306 0.12157 0.36274 0.0
H1495 H 0.02413 0.15414 0.33036 0.0
H1496 H 0.18379 0.14784 0.3357 0.0
H1497 H 0.02878 0.17755 0.35791 0.0
H1498 H 0.08063 0.1495 0.33184 0.0
H1499 H 0.10491 0.13846 0.36086 0.0
C1500 C 0.14969 0.13096 0.35639 0.0
C1501 C 0.17241 0.13321 0.34935 0.0
C1502 C 0.0696 0.15623 0.33753 0.0
C1503 C 0.11686 0.15232 0.34714 0.0
C1504 C 0.03735 0.15886 0.3367 0.0
C1505 C 0.02159 0.16613 0.34404 0.0
C1506 C 0.08578 0.16005 0.34578 0.0
C1507 C 0.03996 0.17204 0.35207 0.0
C1508 C 0.12231 0.14083 0.35534 0.0
C1509 C 0.16685 0.14573 0.34129 0.0
N1510 N 0.07069 0.16825 0.35276 0.0
N1511 N 0.13925 0.1544 0.34036 0.0
H1512 H 0.84814 0.85807 0.35892 0.0
H1513 H 0.87051 0.04057 0.33527 0.0
H1514 H 0.86523 0.87455 0.33112 0.0
H1515 H 0.90087 0.03733 0.36205 0.0
H1516 H 0.85516 0.97515 0.33358 0.0
H1517 H 0.85252 0.91898 0.3601 0.0
C1518 C 0.85218 0.87415 0.35304 0.0
C1519 C 0.85667 0.86125 0.34492 0.0
C1520 C 0.86502 0.98888 0.33982 0.0
C1521 C 0.86181 0.93112 0.34624 0.0
C1522 C 0.87372 0.02605 0.34079 0.0
C1523 C 0.88717 0.04436 0.34879 0.0
C1524 C 0.86908 0.96991 0.34697 0.0
C1525 C 0.89083 0.02437 0.35574 0.0
C1526 C 0.85494 0.90906 0.35373 0.0
C1527 C 0.86198 0.88353 0.33753 0.0
N1528 N 0.88172 0.98828 0.35468 0.0
N1529 N 0.86456 0.91746 0.33837 0.0
H1530 H 0.97151 0.84364 0.33603 0.0
H1531 H 0.16964 0.98422 0.35785 0.0
H1532 H 0.99702 0.84199 0.36324 0.0
H1533 H 0.13762 0.99943 0.33205 0.0
H1534 H 0.10997 0.92607 0.35916 0.0
H1535 H 0.03554 0.89511 0.33371 0.0
C1536 C 0.99068 0.85389 0.34149 0.0
C1537 C 0.97894 0.83879 0.34984 0.0
C1538 C 0.11616 0.942 0.35319 0.0
C1539 C 0.05206 0.89739 0.34727 0.0
C1540 C 0.15035 0.97514 0.35242 0.0
C1541 C 0.15865 0.99701 0.34486 0.0
C1542 C 0.09007 0.93047 0.34634 0.0
C1543 C 0.13238 0.98374 0.33804 0.0
C1544 C 0.02717 0.88328 0.34018 0.0
C1545 C 1.00488 0.85302 0.3567 0.0
N1546 N 0.09927 0.95151 0.33895 0.0
N1547 N 0.04011 0.88154 0.35527 0.0
H1548 H 0.90482 0.86955 0.86283 0.0
H1549 H 0.86983 0.99784 0.83079 0.0
H1550 H 0.8729 0.83584 0.83613 0.0
H1551 H 0.8508 0.99472 0.85855 0.0
H1552 H 0.87411 0.94106 0.83213 0.0
H1553 H 0.88954 0.91874 0.86098 0.0
C1554 C 0.89452 0.87249 0.85656 0.0
C1555 C 0.89016 0.84859 0.84961 0.0
C1556 C 0.86846 0.95258 0.83789 0.0
C1557 C 0.87291 0.90538 0.84742 0.0
C1558 C 0.86607 0.98501 0.83715 0.0
C1559 C 0.86015 1.0013 0.84458 0.0
C1560 C 0.86567 0.93677 0.84614 0.0
C1561 C 0.85539 0.9833 0.85263 0.0
C1562 C 0.88559 0.90049 0.85553 0.0
C1563 C 0.87659 0.85369 0.84164 0.0
N1564 N 0.85881 0.9524 0.85321 0.0
N1565 N 0.86883 0.8819 0.84072 0.0
H1566 H 0.1809 0.0199 0.86324 0.0
H1567 H 0.01885 0.87962 0.83141 0.0
H1568 H 0.17523 0.04513 0.8362 0.0
H1569 H 0.03752 0.84896 0.85704 0.0
H1570 H 0.07707 0.93902 0.83272 0.0
H1571 H 0.1298 0.95647 0.86084 0.0
C1572 C 0.16901 0.01195 0.85676 0.0
C1573 C 0.18219 0.03785 0.84991 0.0
C1574 C 0.06867 0.91915 0.83802 0.0
C1575 C 0.1232 0.96511 0.84712 0.0
C1576 C 0.03537 0.88514 0.83729 0.0
C1577 C 0.02301 0.85919 0.84416 0.0
C1578 C 0.08975 0.92762 0.84572 0.0
C1579 C 0.0458 0.86799 0.85158 0.0
C1580 C 0.13983 0.97566 0.85539 0.0
C1581 C 0.16585 0.026 0.84165 0.0
N1582 N 0.07779 0.90157 0.85219 0.0
N1583 N 0.13692 0.99057 0.8405 0.0
H1584 H 0.99989 0.15939 0.86353 0.0
H1585 H 0.1401 0.13841 0.8314 0.0
H1586 H 0.97484 0.13023 0.83639 0.0
H1587 H 0.16823 0.18066 0.85772 0.0
H1588 H 0.08102 0.13789 0.83276 0.0
H1589 H 0.06268 0.16992 0.86121 0.0
C1590 C 1.00775 0.15547 0.85704 0.0
C1591 C 0.98207 0.14376 0.85015 0.0
C1592 C 0.10026 0.14759 0.8382 0.0
C1593 C 0.05412 0.15542 0.84744 0.0
C1594 C 0.1341 0.14792 0.83745 0.0
C1595 C 0.1593 0.15938 0.84448 0.0
C1596 C 0.09126 0.15857 0.84607 0.0
C1597 C 0.14982 0.17149 0.85212 0.0
C1598 C 0.04369 0.16151 0.85572 0.0
C1599 C 0.99382 0.13923 0.84188 0.0
N1600 N 0.11652 0.17046 0.85273 0.0
N1601 N 0.02892 0.14473 0.84077 0.0
H1602 H 0.87539 0.90871 0.66231 0.0
H1603 H 1.00004 0.86386 0.69354 0.0
H1604 H 0.83766 0.86767 0.68834 0.0
H1605 H 1.00193 0.85657 0.66546 0.0
H1606 H 0.94356 0.86899 0.69241 0.0
H1607 H 0.92566 0.89492 0.66396 0.0
C1608 C 0.87768 0.89675 0.6684 0.0
C1609 C 0.85224 0.88928 0.6752 0.0
C1610 C 0.95618 0.86579 0.68652 0.0
C1611 C 0.91032 0.87365 0.67717 0.0
C1612 C 0.98843 0.8629 0.68715 0.0
C1613 C 1.00601 0.85996 0.67958 0.0
C1614 C 0.94184 0.86642 0.67827 0.0
C1615 C 0.98956 0.85882 0.67149 0.0
C1616 C 0.90635 0.88869 0.66932 0.0
C1617 C 0.85667 0.87374 0.68294 0.0
N1618 N 0.9588 0.86253 0.67105 0.0
N1619 N 0.88546 0.86672 0.68375 0.0
H1620 H 0.1952 0.17036 0.66761 0.0
H1621 H 0.13886 0.97203 0.6888 0.0
H1622 H 0.14141 0.13462 0.69269 0.0
H1623 H 0.1704 1.00065 0.66188 0.0
H1624 H 0.14942 0.03521 0.6913 0.0
H1625 H 0.19634 0.11216 0.66642 0.0
C1626 C 0.18399 0.1505 0.67292 0.0
C1627 C 0.16788 0.15734 0.68023 0.0
C1628 C 0.15434 0.02772 0.68487 0.0
C1629 C 0.16897 0.0904 0.67888 0.0
C1630 C 0.14846 0.99178 0.68346 0.0
C1631 C 0.15355 0.98116 0.67511 0.0
C1632 C 0.16565 0.05316 0.6779 0.0
C1633 C 0.16593 1.00769 0.66841 0.0
C1634 C 0.18454 0.11716 0.67222 0.0
C1635 C 0.15386 0.13047 0.6869 0.0
N1636 N 0.17142 0.04238 0.66993 0.0
N1637 N 0.15452 0.09811 0.68605 0.0
H1638 H 0.87328 0.02118 0.69423 0.0
H1639 H 0.03498 0.15082 0.66229 0.0
H1640 H 0.85407 0.02725 0.66677 0.0
H1641 H 0.03739 0.18306 0.68915 0.0
H1642 H 0.9697 0.10271 0.66403 0.0
H1643 H 0.93394 0.07839 0.69287 0.0
C1644 C 0.88155 0.03486 0.68795 0.0
C1645 C 0.8586 0.01932 0.68059 0.0
C1646 C 0.98434 0.1205 0.66953 0.0
C1647 C 0.92824 0.0842 0.67897 0.0
C1648 C 0.02167 0.14782 0.66856 0.0
C1649 C 0.04157 0.17087 0.6756 0.0
C1650 C 0.96688 0.11545 0.67765 0.0
C1651 C 0.02291 0.16585 0.68356 0.0
C1652 C 0.91613 0.06751 0.68719 0.0
C1653 C 0.87074 0.03826 0.67261 0.0
N1654 N 0.98665 0.13825 0.68442 0.0
N1655 N 0.905 0.06932 0.67199 0.0
H1656 H 0.86029 0.36062 0.49966 0.0
H1657 H 0.80591 0.50306 0.52155 0.0
H1658 H 0.81121 0.34439 0.52528 0.0
H1659 H 0.83215 0.50401 0.4943 0.0
H1660 H 0.81717 0.45079 0.52383 0.0
H1661 H 0.85995 0.41927 0.49844 0.0
C1662 C 0.84985 0.36955 0.50508 0.0
C1663 C 0.8355 0.3473 0.51256 0.0
C1664 C 0.82073 0.46265 0.51737 0.0
C1665 C 0.83487 0.41451 0.51118 0.0
C1666 C 0.81444 0.49252 0.51608 0.0
C1667 C 0.8179 0.50765 0.50772 0.0
C1668 C 0.83084 0.44809 0.51026 0.0
C1669 C 0.82897 0.49299 0.50084 0.0
C1670 C 0.84951 0.40301 0.50436 0.0
C1671 C 0.82233 0.36044 0.51936 0.0
N1672 N 0.83493 0.46399 0.50226 0.0
N1673 N 0.82215 0.39305 0.51849 0.0
H1674 H 0.51217 0.32223 0.49414 0.0
H1675 H 0.67175 0.4654 0.52631 0.0
H1676 H 0.5152 0.29884 0.52143 0.0
H1677 H 0.65848 0.49044 0.49965 0.0
H1678 H 0.61341 0.40581 0.52504 0.0
H1679 H 0.56443 0.38504 0.49638 0.0
C1680 C 0.52376 0.33045 0.50064 0.0
C1681 C 0.50948 0.30526 0.50761 0.0
C1682 C 0.62313 0.42453 0.51951 0.0
C1683 C 0.5698 0.37733 0.51023 0.0
C1684 C 0.65646 0.45864 0.52022 0.0
C1685 C 0.67035 0.48306 0.51305 0.0
C1686 C 0.60357 0.41461 0.51156 0.0
C1687 C 0.64916 0.47262 0.50534 0.0
C1688 C 0.55364 0.3664 0.50192 0.0
C1689 C 0.52548 0.31745 0.51589 0.0
N1690 N 0.61711 0.43918 0.50479 0.0
N1691 N 0.55505 0.35257 0.51697 0.0
H1692 H 0.52402 0.17274 0.49891 0.0
H1693 H 0.70657 0.19178 0.52178 0.0
H1694 H 0.54337 0.19208 0.52659 0.0
H1695 H 0.70342 0.2242 0.4952 0.0
H1696 H 0.6415 0.17743 0.52365 0.0
H1697 H 0.58436 0.17592 0.49748 0.0
C1698 C 0.5406 0.17701 0.50472 0.0
C1699 C 0.52866 0.18244 0.51288 0.0
C1700 C 0.65513 0.18744 0.51741 0.0
C1701 C 0.59784 0.18611 0.51126 0.0
C1702 C 0.69207 0.1955 0.51634 0.0
C1703 C 0.71032 0.20932 0.50834 0.0
C1704 C 0.63629 0.19248 0.51037 0.0
C1705 C 0.69044 0.21381 0.50149 0.0
C1706 C 0.57517 0.17907 0.50388 0.0
C1707 C 0.55158 0.18806 0.52016 0.0
N1708 N 0.65452 0.2053 0.50265 0.0
N1709 N 0.58514 0.18986 0.51918 0.0
H1710 H 0.8685 0.5217 0.67654 0.0
H1711 H 0.65035 0.42993 0.67066 0.0
H1712 H 0.79264 0.40596 0.68234 0.0
H1713 H 0.71138 0.53766 0.68307 0.0
H1714 H 0.70627 0.42442 0.6711 0.0
H1715 H 0.81459 0.53163 0.67515 0.0
C1716 C 0.8405 0.49836 0.67737 0.0
C1717 C 0.83472 0.46295 0.67953 0.0
C1718 C 0.70747 0.44935 0.67367 0.0
C1719 C 0.77374 0.47396 0.67789 0.0
C1720 C 0.67567 0.45265 0.67341 0.0
C1721 C 0.67625 0.48435 0.67684 0.0
C1722 C 0.74047 0.47825 0.67722 0.0
C1723 C 0.70979 0.51271 0.6804 0.0
C1724 C 0.80998 0.50411 0.67667 0.0
C1725 C 0.79811 0.43365 0.68066 0.0
N1726 N 0.74083 0.50914 0.68045 0.0
N1727 N 0.76897 0.43972 0.67976 0.0
H1728 H 0.49403 0.18507 0.69057 0.0
H1729 H 0.55009 0.38288 0.66894 0.0
H1730 H 0.54551 0.21915 0.66522 0.0
H1731 H 0.52201 0.35655 0.69608 0.0
H1732 H 0.5389 0.31936 0.66658 0.0
H1733 H 0.49399 0.24393 0.69177 0.0
C1734 C 0.50487 0.20465 0.6852 0.0
C1735 C 0.52006 0.19715 0.67781 0.0
C1736 C 0.53488 0.32742 0.67304 0.0
C1737 C 0.52028 0.26485 0.67917 0.0
C1738 C 0.54113 0.36359 0.67436 0.0
C1739 C 0.53714 0.37497 0.68272 0.0
C1740 C 0.52425 0.30246 0.6801 0.0
C1741 C 0.5256 0.34895 0.68954 0.0
C1742 C 0.50501 0.23838 0.68591 0.0
C1743 C 0.53377 0.22377 0.67107 0.0
N1744 N 0.51967 0.31402 0.68809 0.0
N1745 N 0.53373 0.25645 0.67193 0.0
H1746 H 0.81606 0.33172 0.66377 0.0
H1747 H 0.65042 0.20971 0.69601 0.0
H1748 H 0.83066 0.33308 0.69167 0.0
H1749 H 0.6491 0.1729 0.66962 0.0
H1750 H 0.71535 0.25811 0.69414 0.0
H1751 H 0.75444 0.27581 0.66531 0.0
C1752 C 0.80659 0.31998 0.67021 0.0
C1753 C 0.82861 0.33727 0.67761 0.0
C1754 C 0.70103 0.23936 0.68876 0.0
C1755 C 0.75783 0.27381 0.67941 0.0
C1756 C 0.66384 0.21182 0.6898 0.0
C1757 C 0.64431 0.18726 0.68295 0.0
C1758 C 0.71887 0.24306 0.68074 0.0
C1759 C 0.66322 0.19129 0.67506 0.0
C1760 C 0.77142 0.28807 0.67107 0.0
C1761 C 0.81483 0.32075 0.68578 0.0
N1762 N 0.69943 0.21899 0.67413 0.0
N1763 N 0.78015 0.29034 0.68647 0.0
H1764 H 0.55415 0.17984 0.16902 0.0
H1765 H 0.50279 0.32407 0.19126 0.0
H1766 H 0.52954 0.17997 0.19634 0.0
H1767 H 0.54714 0.33803 0.16516 0.0
H1768 H 0.50375 0.2658 0.19249 0.0
H1769 H 0.5435 0.23262 0.16678 0.0
C1770 C 0.54616 0.19074 0.17452 0.0
C1771 C 0.54292 0.17571 0.18288 0.0
C1772 C 0.51305 0.28148 0.18647 0.0
C1773 C 0.53063 0.2358 0.1804 0.0
C1774 C 0.51236 0.31477 0.18574 0.0
C1775 C 0.52515 0.33632 0.17812 0.0
C1776 C 0.52652 0.26939 0.17951 0.0
C1777 C 0.53723 0.32259 0.1712 0.0
C1778 C 0.54019 0.22089 0.17325 0.0
C1779 C 0.53254 0.19086 0.18979 0.0
N1780 N 0.53779 0.29017 0.17208 0.0
N1781 N 0.52687 0.22004 0.1884 0.0
H1782 H 0.81522 0.37006 0.19598 0.0
H1783 H 0.68688 0.20952 0.16342 0.0
H1784 H 0.84966 0.3738 0.16927 0.0
H1785 H 0.69141 0.1908 0.19099 0.0
H1786 H 0.7437 0.27051 0.16493 0.0
H1787 H 0.7661 0.30566 0.19388 0.0
C1788 C 0.81243 0.35727 0.18965 0.0
C1789 C 0.8365 0.37729 0.18278 0.0
C1790 C 0.73248 0.25272 0.1706 0.0
C1791 C 0.77987 0.30344 0.1803 0.0
C1792 C 0.70003 0.21796 0.16977 0.0
C1793 C 0.68413 0.19501 0.17711 0.0
C1794 C 0.74863 0.26492 0.17887 0.0
C1795 C 0.70253 0.20742 0.18515 0.0
C1796 C 0.78449 0.32039 0.18848 0.0
C1797 C 0.83163 0.35923 0.17473 0.0
N1798 N 0.7334 0.24171 0.18583 0.0
N1799 N 0.80349 0.32333 0.17367 0.0
H1800 H 0.80551 0.47641 0.16503 0.0
H1801 H 0.66425 0.49515 0.19715 0.0
H1802 H 0.83534 0.52242 0.19099 0.0
H1803 H 0.64031 0.46767 0.16991 0.0
H1804 H 0.72767 0.5072 0.19481 0.0
H1805 H 0.74616 0.47526 0.16642 0.0
C1806 C 0.79981 0.48668 0.17099 0.0
C1807 C 0.82553 0.49934 0.17793 0.0
C1808 C 0.70876 0.49884 0.18931 0.0
C1809 C 0.75712 0.49767 0.17958 0.0
C1810 C 0.67247 0.4919 0.19064 0.0
C1811 C 0.64694 0.48022 0.18371 0.0
C1812 C 0.71964 0.49367 0.18099 0.0
C1813 C 0.65913 0.47658 0.17542 0.0
C1814 C 0.76583 0.48599 0.17177 0.0
C1815 C 0.8165 0.51242 0.18547 0.0
N1816 N 0.69453 0.48293 0.17431 0.0
N1817 N 0.78293 0.51086 0.18613 0.0
H1818 H 0.65481 0.15699 1.00085 0.0
H1819 H 0.51714 0.21954 0.02197 0.0
H1820 H 0.67398 0.20979 0.02609 0.0
H1821 H 0.51569 0.19099 0.99488 0.0
H1822 H 0.56855 0.20701 0.02449 0.0
H1823 H 0.59731 0.1595 0.99952 0.0
C1824 C 0.64674 0.16867 1.00617 0.0
C1825 C 0.66951 0.1834 0.01357 0.0
C1826 C 0.55677 0.20326 0.01801 0.0
C1827 C 0.60359 0.18661 1.01206 0.0
C1828 C 0.52742 0.21032 0.01658 0.0
C1829 C 0.51236 0.20652 1.0082 0.0
C1830 C 0.57081 0.19196 1.01101 0.0
C1831 C 0.52666 0.19449 1.00144 0.0
C1832 C 0.61394 0.17027 1.00539 0.0
C1833 C 0.65746 0.19824 0.02024 0.0
N1834 N 0.55505 0.18772 1.00298 0.0
N1835 N 0.62547 0.19965 0.01931 0.0
H1836 H 0.74268 0.2899 1.00797 0.0
H1837 H 0.87629 0.50543 1.00648 0.0
H1838 H 0.85986 0.33058 1.01206 0.0
H1839 H 0.77527 0.45661 0.0218 0.0
H1840 H 0.87117 0.44343 1.00561 0.0
H1841 H 0.7537 0.35321 1.01008 0.0
C1842 C 0.77074 0.31227 1.00934 0.0
C1843 C 0.8004 0.30524 1.0099 0.0
C1844 C 0.85052 0.44672 1.00923 0.0
C1845 C 0.81332 0.37759 1.01206 0.0
C1846 C 0.85327 0.48185 1.00969 0.0
C1847 C 0.82624 0.48619 0.01424 0.0
C1848 C 0.81995 0.41587 0.01312 0.0
C1849 C 0.79694 0.45472 0.01828 0.0
C1850 C 0.77697 0.34824 1.01054 0.0
C1851 C 0.83629 0.33507 1.01167 0.0
N1852 N 0.79428 0.42088 0.01751 0.0
N1853 N 0.84194 0.3703 0.01257 0.0
H1854 H 0.52368 0.36259 1.00004 0.0
H1855 H 0.719 0.507 0.02242 0.0
H1856 H 0.55355 0.34924 0.02624 0.0
H1857 H 0.69416 0.50762 0.99513 0.0
H1858 H 0.65547 0.45429 0.02463 0.0
H1859 H 0.58277 0.42109 0.99885 0.0
C1860 C 0.5424 0.37207 1.00558 0.0
C1861 C 0.53355 0.35062 0.01323 0.0
C1862 C 0.66388 0.46619 0.01818 0.0
C1863 C 0.60168 0.4178 1.01188 0.0
C1864 C 0.70006 0.4963 0.01693 0.0
C1865 C 0.71184 0.5115 1.00858 0.0
C1866 C 0.63937 0.45146 1.01103 0.0
C1867 C 0.68626 0.49659 1.00167 0.0
C1868 C 0.57629 0.4055 1.00489 0.0
C1869 C 0.55915 0.36459 0.02019 0.0
N1870 N 0.65136 0.46741 1.00304 0.0
N1871 N 0.59207 0.39712 0.01933 0.0
H1872 H 0.46964 0.83592 0.85524 0.0
H1873 H 0.52322 0.69277 0.8333 0.0
H1874 H 0.49592 0.83645 0.82801 0.0
H1875 H 0.47747 0.67816 0.85926 0.0
H1876 H 0.52184 0.7508 0.83201 0.0
H1877 H 0.48034 0.78321 0.85755 0.0
C1878 C 0.47798 0.82517 0.84978 0.0
C1879 C 0.4817 0.84038 0.84142 0.0
C1880 C 0.51232 0.73503 0.83802 0.0
C1881 C 0.49406 0.78037 0.84399 0.0
C1882 C 0.51324 0.70187 0.83878 0.0
C1883 C 0.50021 0.6802 0.84638 0.0
C1884 C 0.49836 0.74688 0.84492 0.0
C1885 C 0.48761 0.69369 0.85325 0.0
C1886 C 0.48399 0.79506 0.85109 0.0
C1887 C 0.49254 0.82542 0.83456 0.0
N1888 N 0.48683 0.726 0.85233 0.0
N1889 N 0.49825 0.79628 0.83599 0.0
H1890 H 0.18334 0.63419 0.85511 0.0
H1891 H 0.32761 0.83052 0.83327 0.0
H1892 H 0.18501 0.65883 0.82774 0.0
H1893 H 0.34042 0.79981 0.85943 0.0
H1894 H 0.26965 0.77104 0.83185 0.0
H1895 H 0.23552 0.69779 0.85748 0.0
C1896 C 0.1945 0.65308 0.84962 0.0
C1897 C 0.18007 0.64123 0.84121 0.0
C1898 C 0.285 0.77742 0.83793 0.0
C1899 C 0.23946 0.71386 0.84385 0.0
C1900 C 0.3181 0.81154 0.83876 0.0
C1901 C 0.33926 0.82026 0.84646 0.0
C1902 C 0.27272 0.75171 0.84484 0.0
C1903 C 0.32529 0.79432 0.85334 0.0
C1904 C 0.22429 0.68932 0.85097 0.0
C1905 C 0.19547 0.66679 0.83432 0.0
N1906 N 0.29306 0.7612 0.85235 0.0
N1907 N 0.22432 0.70179 0.83579 0.0
H1908 H 0.38706 0.54913 0.85498 0.0
H1909 H 0.19012 0.49717 0.83341 0.0
H1910 H 0.36125 0.52504 0.82767 0.0
H1911 H 0.2222 0.54248 0.85939 0.0
H1912 H 0.24938 0.49827 0.83196 0.0
H1913 H 0.32372 0.5384 0.85742 0.0
C1914 C 0.36796 0.54127 0.84952 0.0
C1915 C 0.37942 0.53818 0.84111 0.0
C1916 C 0.24336 0.50775 0.838 0.0
C1917 C 0.30709 0.52575 0.84383 0.0
C1918 C 0.20937 0.50698 0.83886 0.0
C1919 C 0.20108 0.52 0.84652 0.0
C1920 C 0.26939 0.52152 0.84486 0.0
C1921 C 0.22735 0.53237 0.85334 0.0
C1922 C 0.33188 0.53524 0.85091 0.0
C1923 C 0.35361 0.52791 0.83426 0.0
N1924 N 0.26035 0.533 0.85233 0.0
N1925 N 0.31876 0.52215 0.83577 0.0
H1926 H 0.52021 0.82042 1.00196 0.0
H1927 H 0.36359 0.85051 0.02486 0.0
H1928 H 0.48773 0.79407 0.0289 0.0
H1929 H 0.35727 0.82139 0.99763 0.0
H1930 H 0.42076 0.84713 0.02617 0.0
H1931 H 0.47091 0.83674 1.00006 0.0
C1932 C 0.50298 0.81846 1.00747 0.0
C1933 C 0.50778 0.8057 0.01558 0.0
C1934 C 0.40708 0.84199 0.01988 0.0
C1935 C 0.45232 0.82488 0.01352 0.0
C1936 C 0.37462 0.84419 0.01911 0.0
C1937 C 0.35545 0.83593 1.01114 0.0
C1938 C 0.42081 0.83203 0.01261 0.0
C1939 C 0.37099 0.82764 1.00392 0.0
C1940 C 0.47492 0.82766 1.00639 0.0
C1941 C 0.48475 0.80353 0.02253 0.0
N1942 N 0.40272 0.82576 1.00483 0.0
N1943 N 0.45813 0.81313 0.02135 0.0
H1944 H 0.20416 0.70639 1.00253 0.0
H1945 H 0.1844 0.52411 0.02568 0.0
H1946 H 0.23814 0.70397 0.02901 0.0
H1947 H 0.20148 0.54121 0.9979 0.0
H1948 H 0.18929 0.58523 0.02698 0.0
H1949 H 0.1898 0.64131 1.0007 0.0
C1950 C 0.2084 0.69214 1.00795 0.0
C1951 C 0.22255 0.71062 0.01592 0.0
C1952 C 0.1916 0.57541 0.02059 0.0
C1953 C 0.20553 0.63644 0.01394 0.0
C1954 C 0.18854 0.54037 0.01983 0.0
C1955 C 0.19278 0.5275 1.01168 0.0
C1956 C 0.19844 0.59767 0.01314 0.0
C1957 C 0.19833 0.5501 1.00433 0.0
C1958 C 0.20027 0.65515 1.0069 0.0
C1959 C 0.22751 0.69091 0.02274 0.0
N1960 N 0.20108 0.58412 1.00524 0.0
N1961 N 0.21886 0.65495 0.02161 0.0
H1962 H 0.32997 0.50715 0.03043 0.0
H1963 H 0.47039 0.66866 0.99851 0.0
H1964 H 0.30593 0.51104 1.00321 0.0
H1965 H 0.49973 0.65248 0.02452 0.0
H1966 H 0.41117 0.61022 0.99983 0.0
H1967 H 0.39298 0.55926 0.02817 0.0
C1968 C 0.3381 0.51887 0.02395 0.0
C1969 C 0.31268 0.50492 0.017 0.0
C1970 C 0.43071 0.61926 1.00521 0.0
C1971 C 0.38485 0.56499 0.01436 0.0
C1972 C 0.46459 0.65269 1.00447 0.0
C1973 C 0.4901 0.66573 1.01144 0.0
C1974 C 0.42202 0.59879 0.01301 0.0
C1975 C 0.48099 0.64367 0.01899 0.0
C1976 C 0.37413 0.54863 0.02265 0.0
C1977 C 0.32471 0.52106 1.00874 0.0
N1978 N 0.44761 0.61152 0.01959 0.0
N1979 N 0.35986 0.55051 1.00766 0.0
H1980 H 0.2297 0.53291 0.52983 0.0
H1981 H 0.20208 0.66338 0.49712 0.0
H1982 H 0.20517 0.50187 0.50275 0.0
H1983 H 0.17296 0.65594 0.52437 0.0
H1984 H 0.20618 0.6066 0.49865 0.0
H1985 H 0.21315 0.58113 0.52769 0.0
C1986 C 0.22076 0.53623 0.52341 0.0
C1987 C 0.2189 0.51343 0.51644 0.0
C1988 C 0.1983 0.61711 0.50425 0.0
C1989 C 0.20023 0.56904 0.51393 0.0
C1990 C 0.196 0.64952 0.50339 0.0
C1991 C 0.18733 0.66457 0.51064 0.0
C1992 C 0.19274 0.60013 0.51245 0.0
C1993 C 0.17966 0.64537 0.5186 0.0
C1994 C 0.21108 0.56364 0.52222 0.0
C1995 C 0.20697 0.51891 0.50828 0.0
N1996 N 0.18317 0.61454 0.51932 0.0
N1997 N 0.19852 0.54657 0.50721 0.0
H1998 H 0.5137 0.68756 0.53066 0.0
H1999 H 0.35238 0.54587 0.49884 0.0
H2000 H 0.50876 0.71067 0.50343 0.0
H2001 H 0.36782 0.51731 0.52499 0.0
H2002 H 0.41091 0.60485 0.50012 0.0
H2003 H 0.46199 0.62421 0.52849 0.0
C2004 C 0.50185 0.67916 0.52419 0.0
C2005 C 0.51538 0.70443 0.51722 0.0
C2006 C 0.40174 0.58556 0.50555 0.0
C2007 C 0.45578 0.63186 0.51468 0.0
C2008 C 0.36823 0.55179 0.50484 0.0
C2009 C 0.35489 0.52656 0.51185 0.0
C2010 C 0.42206 0.59453 0.51337 0.0
C2011 C 0.3769 0.53581 0.51942 0.0
C2012 C 0.47232 0.64293 0.52296 0.0
C2013 C 0.49909 0.69205 0.50898 0.0
N2014 N 0.40915 0.56918 0.52001 0.0
N2015 N 0.46988 0.65671 0.50795 0.0
H2016 H 0.49602 0.83458 0.52579 0.0
H2017 H 0.31404 0.81437 0.50216 0.0
H2018 H 0.47915 0.817 0.49801 0.0
H2019 H 0.31681 0.78333 0.52888 0.0
H2020 H 0.37932 0.82894 0.50046 0.0
H2021 H 0.4353 0.83082 0.52696 0.0
C2022 C 0.47989 0.83056 0.51991 0.0
C2023 C 0.49265 0.82578 0.5118 0.0
C2024 C 0.36552 0.81912 0.50669 0.0
C2025 C 0.423 0.8214 0.51311 0.0
C2026 C 0.32843 0.81088 0.50766 0.0
C2027 C 0.30999 0.79742 0.51565 0.0
C2028 C 0.38431 0.81463 0.51383 0.0
C2029 C 0.32984 0.79338 0.52259 0.0
C2030 C 0.4451 0.82816 0.52059 0.0
C2031 C 0.4703 0.82047 0.50441 0.0
N2032 N 0.36584 0.80206 0.52153 0.0
N2033 N 0.43651 0.8183 0.50524 0.0
H2034 H 0.17038 0.5302 0.35529 0.0
H2035 H 0.33449 0.51431 0.33193 0.0
H2036 H 0.20774 0.5664 0.32897 0.0
H2037 H 0.33334 0.52797 0.35985 0.0
H2038 H 0.27813 0.51873 0.33075 0.0
H2039 H 0.2213 0.51605 0.35707 0.0
C2040 C 0.18908 0.53485 0.34989 0.0
C2041 C 0.18501 0.54956 0.34198 0.0
C2042 C 0.29006 0.52047 0.33715 0.0
C2043 C 0.24241 0.53302 0.34391 0.0
C2044 C 0.32218 0.51774 0.33784 0.0
C2045 C 0.339 0.5211 0.346 0.0
C2046 C 0.27423 0.52622 0.34466 0.0
C2047 C 0.32154 0.52553 0.35341 0.0
C2048 C 0.21807 0.52692 0.35091 0.0
C2049 C 0.20998 0.55527 0.33519 0.0
N2050 N 0.29012 0.52809 0.35257 0.0
N2051 N 0.23743 0.54684 0.33629 0.0
H2052 H 0.50225 0.65964 0.32776 0.0
H2053 H 0.4826 0.8025 0.35941 0.0
H2054 H 0.47272 0.63616 0.35491 0.0
H2055 H 0.51915 0.82626 0.33261 0.0
H2056 H 0.48247 0.74348 0.35831 0.0
H2057 H 0.5123 0.72237 0.32982 0.0
C2058 C 0.49819 0.66786 0.33419 0.0
C2059 C 0.48649 0.64263 0.34117 0.0
C2060 C 0.49082 0.76177 0.3527 0.0
C2061 C 0.49757 0.71458 0.34358 0.0
C2062 C 0.49096 0.79558 0.35331 0.0
C2063 C 0.5007 0.81949 0.34607 0.0
C2064 C 0.50036 0.75163 0.34478 0.0
C2065 C 0.51127 0.80883 0.33837 0.0
C2066 C 0.50391 0.70374 0.33537 0.0
C2067 C 0.48175 0.6548 0.34936 0.0
N2068 N 0.51057 0.7757 0.33791 0.0
N2069 N 0.48698 0.68984 0.35033 0.0
H2070 H 0.18567 0.69868 0.33317 0.0
H2071 H 0.38402 0.83975 0.35464 0.0
H2072 H 0.2187 0.68272 0.35879 0.0
H2073 H 0.35831 0.83958 0.32738 0.0
H2074 H 0.32013 0.78832 0.35708 0.0
H2075 H 0.24516 0.75673 0.3318 0.0
C2076 C 0.20518 0.70756 0.33856 0.0
C2077 C 0.19719 0.68553 0.34608 0.0
C2078 C 0.32842 0.79975 0.35058 0.0
C2079 C 0.26562 0.75205 0.34453 0.0
C2080 C 0.3648 0.82912 0.3492 0.0
C2081 C 0.37643 0.84369 0.34079 0.0
C2082 C 0.30351 0.78513 0.3435 0.0
C2083 C 0.35049 0.82896 0.33395 0.0
C2084 C 0.23927 0.74067 0.33775 0.0
C2085 C 0.22371 0.69861 0.35285 0.0
N2086 N 0.31533 0.80046 0.33545 0.0
N2087 N 0.25679 0.73087 0.35189 0.0
H2088 H 0.25263 0.31642 0.19212 0.0
H2089 H 0.42192 0.41283 0.15809 0.0
H2090 H 0.23985 0.33638 0.16504 0.0
H2091 H 0.43904 0.40396 0.18552 0.0
H2092 H 0.35521 0.38561 0.16074 0.0
H2093 H 0.32044 0.34919 0.1901 0.0
C2094 C 0.26396 0.3279 0.18576 0.0
C2095 C 0.24016 0.32339 0.17873 0.0
C2096 C 0.37341 0.38971 0.16621 0.0
C2097 C 0.31815 0.36084 0.17638 0.0
C2098 C 0.41161 0.40528 0.1647 0.0
C2099 C 0.43615 0.41074 0.17159 0.0
C2100 C 0.35922 0.37909 0.1747 0.0
C2101 C 0.42113 0.40038 0.18002 0.0
C2102 C 0.30279 0.3466 0.18462 0.0
C2103 C 0.25679 0.33897 0.17066 0.0
N2104 N 0.38361 0.38487 0.18134 0.0
N2105 N 0.29454 0.35671 0.16971 0.0
H2106 H 0.60317 0.01183 0.158 0.0
H2107 H 0.70901 0.949 0.19173 0.0
H2108 H 0.61787 0.04425 0.18508 0.0
H2109 H 0.67789 0.90549 0.16559 0.0
H2110 H 0.67585 0.98361 0.18968 0.0
H2111 H 0.6306 0.97272 0.16086 0.0
C2112 C 0.61204 0.01055 0.16458 0.0
C2113 C 0.60819 0.03129 0.17132 0.0
C2114 C 0.67608 0.96627 0.18443 0.0
C2115 C 0.64011 0.98659 0.17466 0.0
C2116 C 0.69503 0.94643 0.18559 0.0
C2117 C 0.69648 0.92423 0.17882 0.0
C2118 C 0.65862 0.96419 0.17642 0.0
C2119 C 0.67772 0.92216 0.17101 0.0
C2120 C 0.62771 0.98814 0.16622 0.0
C2121 C 0.6202 0.02856 0.17971 0.0
N2122 N 0.65988 0.94199 0.17002 0.0
N2123 N 0.63585 1.0068 0.18114 0.0
H2124 H 0.11079 0.78241 0.16471 0.0
H2125 H 0.97569 0.5816 0.18595 0.0
H2126 H 0.07475 0.76808 0.19157 0.0
H2127 H 1.00194 0.60013 0.15855 0.0
H2128 H 0.01564 0.64891 0.18855 0.0
H2129 H 0.07542 0.71498 0.16278 0.0
C2130 C 0.09568 0.76516 0.17024 0.0
C2131 C 0.09577 0.78125 0.17832 0.0
C2132 C 0.01275 0.63821 0.18197 0.0
C2133 C 0.05475 0.7034 0.1761 0.0
C2134 C 0.99003 0.59981 0.1805 0.0
C2135 C 0.98552 0.5853 0.17203 0.0
C2136 C 0.0312 0.6622 0.17492 0.0
C2137 C 1.00459 0.61013 0.16519 0.0
C2138 C 0.07532 0.72651 0.16911 0.0
C2139 C 0.07553 0.75711 0.18521 0.0
N2140 N 0.02651 0.64723 0.16678 0.0
N2141 N 0.05578 0.71949 0.18394 0.0
H2142 H 0.32057 0.24224 0.33132 0.0
H2143 H 0.38962 0.4312 0.33873 0.0
H2144 H 0.3401 0.23637 0.35879 0.0
H2145 H 0.44176 0.41742 0.36167 0.0
H2146 H 0.35977 0.36438 0.33601 0.0
H2147 H 0.35487 0.30991 0.33224 0.0
C2148 C 0.33196 0.25513 0.33757 0.0
C2149 C 0.32692 0.23325 0.34501 0.0
C2150 C 0.37836 0.37579 0.34153 0.0
C2151 C 0.36565 0.31159 0.34619 0.0
C2152 C 0.39522 0.4141 0.34313 0.0
C2153 C 0.4183 0.42996 0.35043 0.0
C2154 C 0.3846 0.35294 0.34728 0.0
C2155 C 0.42428 0.40638 0.35595 0.0
C2156 C 0.35131 0.29404 0.33811 0.0
C2157 C 0.34295 0.2519 0.35288 0.0
N2158 N 0.40732 0.36908 0.3543 0.0
N2159 N 0.36143 0.28988 0.35326 0.0
H2160 H 0.59723 0.02675 0.36142 0.0
H2161 H 0.7747 0.06923 0.3321 0.0
H2162 H 0.59068 0.9628 0.33861 0.0
H2163 H 0.78347 0.11756 0.35756 0.0
H2164 H 0.70685 0.03546 0.33353 0.0
H2165 H 0.66465 0.06542 0.35923 0.0
C2166 C 0.60994 0.02101 0.35591 0.0
C2167 C 0.5883 0.99135 0.35021 0.0
C2168 C 0.72359 0.05356 0.33879 0.0
C2169 C 0.66564 0.03563 0.34766 0.0
C2170 C 0.76246 0.07305 0.33797 0.0
C2171 C 0.78513 0.09634 0.34474 0.0
C2172 C 0.70694 0.05741 0.3464 0.0
C2173 C 0.76732 0.09991 0.35218 0.0
C2174 C 0.64849 0.04304 0.35468 0.0
C2175 C 0.60632 0.98526 0.34318 0.0
N2176 N 0.72939 0.08066 0.35282 0.0
N2177 N 0.6439 1.00713 0.34211 0.0
H2178 H 0.95518 0.71518 0.33294 0.0
H2179 H 0.99149 0.57358 0.3613 0.0
H2180 H 0.8979 0.66621 0.3571 0.0
H2181 H 0.05916 0.63573 0.33935 0.0
H2182 H 0.95269 0.60226 0.35908 0.0
H2183 H 0.98901 0.68128 0.3344 0.0
C2184 C 0.94942 0.69711 0.33853 0.0
C2185 C 0.9236 0.69378 0.34493 0.0
C2186 C 0.97594 0.60953 0.35473 0.0
C2187 C 0.96263 0.65476 0.34664 0.0
C2188 C 0.99804 0.5931 0.35599 0.0
C2189 C 0.02872 0.60246 0.35054 0.0
C2190 C 0.98443 0.63537 0.34794 0.0
C2191 C 0.0359 0.62788 0.34374 0.0
C2192 C 0.96893 0.6778 0.33937 0.0
C2193 C 0.91756 0.66984 0.35201 0.0
N2194 N 0.014 0.64347 0.34265 0.0
N2195 N 0.93696 0.65137 0.35268 0.0
H2196 H 0.58605 0.61267 0.83883 0.0
H2197 H 0.78719 0.68062 0.86041 0.0
H2198 H 0.60441 0.60431 0.86622 0.0
H2199 H 0.7731 0.7011 0.83345 0.0
H2200 H 0.71959 0.64777 0.86222 0.0
H2201 H 0.65358 0.64056 0.8363 0.0
C2202 C 0.60423 0.61643 0.84429 0.0
C2203 C 0.5896 0.60613 0.85274 0.0
C2204 C 0.73121 0.6593 0.85589 0.0
C2205 C 0.66675 0.63804 0.84993 0.0
C2206 C 0.76996 0.67804 0.85484 0.0
C2207 C 0.78618 0.69393 0.84676 0.0
C2208 C 0.70811 0.65619 0.84883 0.0
C2209 C 0.76205 0.68947 0.8398 0.0
C2210 C 0.64276 0.63245 0.84286 0.0
C2211 C 0.61445 0.61187 0.85959 0.0
N2212 N 0.72435 0.67118 0.841 0.0
N2213 N 0.65163 0.62739 0.85804 0.0
H2214 H 0.31443 0.06765 0.83258 0.0
H2215 H 0.41829 1.00203 0.8662 0.0
H2216 H 0.34495 0.10979 0.85885 0.0
H2217 H 0.40544 0.97182 0.83899 0.0
H2218 H 0.39109 0.04138 0.86343 0.0
H2219 H 0.34723 0.03262 0.83455 0.0
C2220 C 0.3282 0.06984 0.83874 0.0
C2221 C 0.32669 0.09181 0.84556 0.0
C2222 C 0.39433 0.02639 0.85803 0.0
C2223 C 0.36415 0.05132 0.84787 0.0
C2224 C 0.40987 1.00383 0.85961 0.0
C2225 C 0.41418 0.98361 0.85282 0.0
C2226 C 0.38249 0.02866 0.84957 0.0
C2227 C 0.40274 0.98706 0.84441 0.0
C2228 C 0.34694 0.04975 0.83985 0.0
C2229 C 0.34518 0.09335 0.85338 0.0
N2230 N 0.38717 0.00896 0.84303 0.0
N2231 N 0.36282 0.07328 0.85433 0.0
H2232 H 0.90858 0.23515 0.85934 0.0
H2233 H 0.05057 0.43606 0.83907 0.0
H2234 H 0.95384 0.24901 0.83335 0.0
H2235 H 0.01901 0.41651 0.86617 0.0
H2236 H 1.01073 0.36885 0.83624 0.0
H2237 H 0.94377 0.30252 0.86131 0.0
C2238 C 0.92567 0.25227 0.854 0.0
C2239 C 0.92819 0.23603 0.84617 0.0
C2240 C 0.01242 0.37933 0.8428 0.0
C2241 C 0.96904 0.31392 0.84842 0.0
C2242 C 0.03501 0.41769 0.8444 0.0
C2243 C 0.03803 0.43187 0.85286 0.0
C2244 C 0.99253 0.35509 0.84971 0.0
C2245 C 0.01755 0.40679 0.85955 0.0
C2246 C 0.94595 0.29092 0.85515 0.0
C2247 C 0.95099 0.26008 0.83952 0.0
N2248 N 0.99574 0.36978 0.85783 0.0
N2249 N 0.97057 0.29772 0.8408 0.0
H2250 H 0.61832 0.58173 0.68517 0.0
H2251 H 0.68305 0.78333 0.66449 0.0
H2252 H 0.6085 0.60156 0.65796 0.0
H2253 H 0.7057 0.76839 0.69123 0.0
H2254 H 0.65106 0.716 0.66245 0.0
H2255 H 0.64616 0.64901 0.68797 0.0
C2256 C 0.62178 0.60019 0.67981 0.0
C2257 C 0.61101 0.58605 0.67133 0.0
C2258 C 0.66288 0.72735 0.66879 0.0
C2259 C 0.64284 0.66289 0.67444 0.0
C2260 C 0.68115 0.76596 0.66997 0.0
C2261 C 0.69736 0.78186 0.67805 0.0
C2262 C 0.6606 0.70407 0.67571 0.0
C2263 C 0.69376 0.75756 0.68488 0.0
C2264 C 0.63777 0.63858 0.6814 0.0
C2265 C 0.61643 0.61123 0.6646 0.0
N2266 N 0.67591 0.71996 0.68355 0.0
N2267 N 0.63188 0.64826 0.6663 0.0
H2268 H 0.42218 0.01967 0.6583 0.0
H2269 H 0.25184 0.95159 0.69174 0.0
H2270 H 0.43815 0.04858 0.6856 0.0
H2271 H 0.24079 0.90685 0.66577 0.0
H2272 H 0.31955 0.9879 0.6897 0.0
H2273 H 0.35543 0.97933 0.66094 0.0
C2274 C 0.41161 0.01742 0.66487 0.0
C2275 C 0.43577 0.0375 0.67174 0.0
C2276 C 0.30232 0.96994 0.68448 0.0
C2277 C 0.35903 0.99139 0.67482 0.0
C2278 C 0.26357 0.94914 0.68563 0.0
C2279 C 0.24033 0.92603 0.67891 0.0
C2280 C 0.31811 0.96802 0.67652 0.0
C2281 C 0.25739 0.92414 0.67115 0.0
C2282 C 0.37345 0.9943 0.66638 0.0
C2283 C 0.4205 0.0335 0.68012 0.0
N2284 N 0.29507 0.945 0.67015 0.0
N2285 N 0.38307 0.01108 0.68142 0.0
H2286 H 0.01308 0.41984 0.65805 0.0
H2287 H 0.0725 0.3123 0.69198 0.0
H2288 H 0.98118 0.40647 0.68515 0.0
H2289 H 0.11876 0.34412 0.6661 0.0
H2290 H 0.03934 0.34677 0.6898 0.0
H2291 H 0.05207 0.39225 0.66101 0.0
C2292 C 0.01448 0.41127 0.66465 0.0
C2293 C 0.99387 0.41545 0.67137 0.0
C2294 C 0.05698 0.34644 0.68463 0.0
C2295 C 0.03832 0.3834 0.67481 0.0
C2296 C 0.07596 0.32674 0.68586 0.0
C2297 C 0.09843 0.32509 0.6792 0.0
C2298 C 0.06016 0.36442 0.67664 0.0
C2299 C 0.10179 0.34448 0.67142 0.0
C2300 C 0.0368 0.39554 0.66634 0.0
C2301 C 0.99674 0.40386 0.6798 0.0
N2302 N 0.08268 0.36302 0.67034 0.0
N2303 N 0.01833 0.38809 0.68127 0.0
H2304 H 0.90415 0.6719 0.49881 0.0
H2305 H 0.10525 0.72941 0.51882 0.0
H2306 H 0.91836 0.63582 0.52422 0.0
H2307 H 0.08608 0.74201 0.49171 0.0
H2308 H 0.03793 0.70131 0.52155 0.0
H2309 H 0.9717 0.70432 0.49678 0.0
C2310 C 0.92142 0.67099 0.50401 0.0
C2311 C 0.9053 0.65089 0.5117 0.0
C2312 C 0.0485 0.71034 0.51502 0.0
C2313 C 0.98314 0.68812 0.50938 0.0
C2314 C 0.0869 0.72647 0.51346 0.0
C2315 C 0.10123 0.73802 0.50503 0.0
C2316 C 0.02432 0.70607 0.50809 0.0
C2317 C 0.07621 0.73343 0.49831 0.0
C2318 C 0.96009 0.68944 0.50282 0.0
C2319 C 0.92939 0.6508 0.51817 0.0
N2320 N 0.0391 0.7179 0.49999 0.0
N2321 N 0.96701 0.66905 0.51686 0.0
H2322 H 0.34549 0.23474 0.49924 0.0
H2323 H 0.28947 0.37825 0.51982 0.0
H2324 H 0.37901 0.28047 0.52515 0.0
H2325 H 0.27926 0.3492 0.49256 0.0
H2326 H 0.31623 0.33779 0.52252 0.0
H2327 H 0.31448 0.27108 0.49737 0.0
C2328 C 0.34615 0.25217 0.50458 0.0
C2329 C 0.36517 0.25449 0.51237 0.0
C2330 C 0.30802 0.34023 0.51596 0.0
C2331 C 0.3295 0.29664 0.51021 0.0
C2332 C 0.29268 0.36321 0.51442 0.0
C2333 C 0.28217 0.36707 0.50595 0.0
C2334 C 0.31253 0.32075 0.50898 0.0
C2335 C 0.28704 0.34709 0.49918 0.0
C2336 C 0.32848 0.27311 0.50348 0.0
C2337 C 0.36486 0.27776 0.51902 0.0
N2338 N 0.30176 0.32483 0.50084 0.0
N2339 N 0.34741 0.29796 0.51779 0.0
H2340 H 0.67422 0.92792 0.49131 0.0
H2341 H 0.74052 0.09779 0.52475 0.0
H2342 H 0.64555 0.91163 0.51861 0.0
H2343 H 0.78305 0.10972 0.49854 0.0
H2344 H 0.70599 0.03003 0.52281 0.0
H2345 H 0.71416 0.99459 0.49396 0.0
C2346 C 0.67651 0.9384 0.49789 0.0
C2347 C 0.65654 0.91418 0.50475 0.0
C2348 C 0.7231 0.04746 0.51751 0.0
C2349 C 0.70217 0.9909 0.50785 0.0
C2350 C 0.74287 0.08623 0.51861 0.0
C2351 C 0.76474 0.10971 0.51179 0.0
C2352 C 0.72484 0.03188 0.50951 0.0
C2353 C 0.76663 0.09291 0.50399 0.0
C2354 C 0.6994 0.97654 0.4994 0.0
C2355 C 0.66059 0.92934 0.51314 0.0
N2356 N 0.74677 0.05517 0.50305 0.0
N2357 N 0.68274 0.96678 0.51445 0.0
H2358 H 0.05778 0.76909 0.67155 0.0
H2359 H 0.02588 0.57277 0.68888 0.0
H2360 H 0.11445 0.75764 0.69392 0.0
H2361 H 0.97752 0.58507 0.66504 0.0
H2362 H 0.06049 0.64054 0.69048 0.0
H2363 H 0.03005 0.70216 0.6687 0.0
C2364 C 0.06457 0.75252 0.67583 0.0
C2365 C 0.08827 0.76891 0.68302 0.0
C2366 C 0.04253 0.62845 0.68486 0.0
C2367 C 0.05647 0.69219 0.67983 0.0
C2368 C 0.02273 0.58965 0.68393 0.0
C2369 C 0.99853 0.57296 0.67683 0.0
C2370 C 0.03801 0.65095 0.67868 0.0
C2371 C 0.99577 0.59652 0.67064 0.0
C2372 C 0.04874 0.7143 0.6742 0.0
C2373 C 0.09622 0.74614 0.68832 0.0
N2374 N 0.01499 0.63419 0.67174 0.0
N2375 N 0.08017 0.70896 0.68667 0.0
H2376 H 0.25334 0.29508 0.67292 0.0
H2377 H 0.44846 0.45635 0.69168 0.0
H2378 H 0.26141 0.36009 0.69565 0.0
H2379 H 0.43588 0.40275 0.66674 0.0
H2380 H 0.38047 0.42198 0.69336 0.0
H2381 H 0.3205 0.33453 0.67065 0.0
C2382 C 0.26928 0.31778 0.67742 0.0
C2383 C 0.25182 0.32424 0.6845 0.0
C2384 C 0.39264 0.41799 0.6875 0.0
C2385 C 0.32893 0.36951 0.68199 0.0
C2386 C 0.43152 0.43764 0.68653 0.0
C2387 C 0.44817 0.43247 0.67907 0.0
C2388 C 0.37019 0.39275 0.681 0.0
C2389 C 0.42456 0.40775 0.67262 0.0
C2390 C 0.30765 0.34036 0.67612 0.0
C2391 C 0.2738 0.35414 0.69011 0.0
N2392 N 0.38696 0.38873 0.67376 0.0
N2393 N 0.31126 0.37551 0.68877 0.0
H2394 H 0.68378 0.94119 0.70013 0.0
H2395 H 0.6126 0.03991 0.66633 0.0
H2396 H 0.70963 0.95102 0.67269 0.0
H2397 H 0.58002 0.02013 0.69343 0.0
H2398 H 0.64707 1.00664 0.66832 0.0
H2399 H 0.64496 0.96934 0.69763 0.0
C2400 C 0.68114 0.94916 0.69356 0.0
C2401 C 0.69996 0.94373 0.68661 0.0
C2402 C 0.6322 0.0094 0.67381 0.0
C2403 C 0.65553 0.97634 0.68367 0.0
C2404 C 0.6124 0.0284 0.67269 0.0
C2405 C 0.59331 0.03307 0.67973 0.0
C2406 C 0.63316 0.99502 0.68205 0.0
C2407 C 0.59424 0.01741 0.6878 0.0
C2408 C 0.65891 0.96525 0.69212 0.0
C2409 C 0.69551 0.95462 0.67822 0.0
N2410 N 0.61393 0.99936 0.68873 0.0
N2411 N 0.6739 0.97056 0.67699 0.0
H2412 H 0.24948 0.95053 0.17231 0.0
H2413 H 0.45106 0.01134 0.19244 0.0
H2414 H 0.26944 0.94041 0.19951 0.0
H2415 H 0.43595 0.04138 0.1664 0.0
H2416 H 0.38371 0.9792 0.19456 0.0
H2417 H 0.31666 0.9782 0.16949 0.0
C2418 C 0.26798 0.95394 0.17767 0.0
C2419 C 0.25393 0.9432 0.18616 0.0
C2420 C 0.39506 0.99269 0.18836 0.0
C2421 C 0.33066 0.97469 0.18299 0.0
C2422 C 0.43366 0.01101 0.18712 0.0
C2423 C 0.44951 0.02936 0.17923 0.0
C2424 C 0.37177 0.99242 0.18166 0.0
C2425 C 0.42518 0.02779 0.17261 0.0
C2426 C 0.3063 0.96981 0.17607 0.0
C2427 C 0.27911 0.94835 0.19287 0.0
N2428 N 0.3876 0.00976 0.17398 0.0
N2429 N 0.31615 0.96367 0.19115 0.0
H2430 H 0.98352 0.408 0.16628 0.0
H2431 H 0.07723 0.33189 0.20024 0.0
H2432 H 1.00204 0.43887 0.1935 0.0
H2433 H 0.07041 0.30875 0.17267 0.0
H2434 H 0.04992 0.37141 0.19772 0.0
H2435 H 0.01564 0.37238 0.16828 0.0
C2436 C 0.99453 0.40759 0.17267 0.0
C2437 C 0.98984 0.42655 0.17974 0.0
C2438 C 0.05446 0.35788 0.19219 0.0
C2439 C 0.02653 0.38536 0.18207 0.0
C2440 C 0.07005 0.33523 0.19363 0.0
C2441 C 0.07612 0.31697 0.18666 0.0
C2442 C 0.04449 0.36229 0.1837 0.0
C2443 C 0.06626 0.32236 0.17824 0.0
C2444 C 0.01286 0.38714 0.17379 0.0
C2445 C 1.00482 0.42481 0.18784 0.0
N2446 N 0.05078 0.3444 0.17699 0.0
N2447 N 0.02221 0.40448 0.18878 0.0
H2448 H 0.57219 0.57069 0.19224 0.0
H2449 H 0.71436 0.77174 0.17199 0.0
H2450 H 0.61943 0.58415 0.16648 0.0
H2451 H 0.68098 0.75215 0.19898 0.0
H2452 H 0.67518 0.70436 0.16917 0.0
H2453 H 0.60678 0.63812 0.1941 0.0
C2454 C 0.5896 0.58774 0.18693 0.0
C2455 C 0.59283 0.57135 0.17919 0.0
C2456 C 0.67633 0.71489 0.17569 0.0
C2457 C 0.63301 0.64936 0.18133 0.0
C2458 C 0.69855 0.75334 0.17729 0.0
C2459 C 0.70088 0.76756 0.18573 0.0
C2460 C 0.65612 0.69062 0.18258 0.0
C2461 C 0.68007 0.74243 0.19238 0.0
C2462 C 0.60953 0.62642 0.18802 0.0
C2463 C 0.61603 0.59533 0.17257 0.0
N2464 N 0.65866 0.70538 0.19067 0.0
N2465 N 0.63526 0.63303 0.1738 0.0
H2466 H 0.2767 0.93318 0.99179 0.0
H2467 H 0.38012 0.10325 0.02534 0.0
H2468 H 0.28889 0.91665 0.01909 0.0
H2469 H 0.35016 0.11472 0.99901 0.0
H2470 H 0.34757 0.03545 0.02336 0.0
H2471 H 0.30439 0.99996 0.99444 0.0
C2472 C 0.28512 0.94364 0.99837 0.0
C2473 C 0.28046 0.91929 1.00523 0.0
C2474 C 0.34794 0.05283 0.01805 0.0
C2475 C 0.31261 0.99617 1.00834 0.0
C2476 C 0.36654 0.09164 0.01917 0.0
C2477 C 0.36809 0.11505 0.01233 0.0
C2478 C 0.33094 0.03716 1.01001 0.0
C2479 C 0.34986 0.09808 1.00449 0.0
C2480 C 0.30092 0.98185 0.99989 0.0
C2481 C 0.2919 0.93446 0.01362 0.0
N2482 N 0.33235 0.06039 1.00354 0.0
N2483 N 0.30765 0.97195 0.01493 0.0
H2484 H 0.08897 0.34648 0.9911 0.0
H2485 H 0.91986 0.27809 0.02488 0.0
H2486 H 0.10583 0.37314 0.0185 0.0
H2487 H 0.90677 0.23862 0.99834 0.0
H2488 H 0.98756 0.31263 0.02283 0.0
H2489 H 0.0222 0.30689 0.99374 0.0
C2490 C 0.07859 0.34384 0.9977 0.0
C2491 C 0.10301 0.36314 1.00459 0.0
C2492 C 0.9699 0.29622 0.01748 0.0
C2493 C 0.02618 0.31788 1.00768 0.0
C2494 C 0.93115 0.27644 0.01864 0.0
C2495 C 0.90735 0.25539 1.01177 0.0
C2496 C 0.98518 0.29531 1.00936 0.0
C2497 C 0.92383 0.25438 1.00383 0.0
C2498 C 0.0404 0.32115 0.99921 0.0
C2499 C 0.08798 0.35865 0.01301 0.0
N2500 N 0.96158 0.27422 1.00284 0.0
N2501 N 0.05048 0.33668 0.01431 0.0
H2502 H 0.79308 0.68385 1.00042 0.0
H2503 H 0.62843 0.71388 0.01853 0.0
H2504 H 0.73557 0.63796 0.02473 0.0
H2505 H 0.69593 0.77305 0.99629 0.0
H2506 H 0.66769 0.68597 0.02088 0.0
H2507 H 0.7584 0.71705 0.99877 0.0
C2508 C 0.77341 0.6809 1.00544 0.0
C2509 C 0.76729 0.65787 0.01272 0.0
C2510 C 0.67408 0.70518 0.01551 0.0
C2511 C 0.72716 0.6957 1.01082 0.0
C2512 C 0.65162 0.72108 0.01416 0.0
C2513 C 0.65884 0.74568 1.00718 0.0
C2514 C 0.7039 0.71368 1.0098 0.0
C2515 C 0.68935 0.75415 1.00174 0.0
C2516 C 0.75357 0.69989 1.00449 0.0
C2517 C 0.74135 0.65528 0.019 0.0
N2518 N 0.71061 0.73801 1.00313 0.0
N2519 N 0.72216 0.67371 0.01788 0.0
H2520 H 0.77512 0.06658 0.85287 0.0
H2521 H 0.57379 1.00753 0.83269 0.0
H2522 H 0.75503 0.07974 0.82586 0.0
H2523 H 0.58727 0.97317 0.85838 0.0
H2524 H 0.64124 0.04051 0.83084 0.0
H2525 H 0.70771 0.03836 0.85573 0.0
C2526 C 0.75659 0.06381 0.84757 0.0
C2527 C 0.77066 0.0755 0.83911 0.0
C2528 C 0.62954 0.0259 0.83691 0.0
C2529 C 0.69376 0.04339 0.84231 0.0
C2530 C 0.59085 1.00706 0.83799 0.0
C2531 C 0.57446 0.98722 0.8457 0.0
C2532 C 0.6525 0.02523 0.84358 0.0
C2533 C 0.59845 0.98792 0.85231 0.0
C2534 C 0.71815 0.0476 0.84919 0.0
C2535 C 0.74542 0.07106 0.83247 0.0
N2536 N 0.63618 1.00647 0.85109 0.0
N2537 N 0.70838 0.05545 0.83421 0.0
H2538 H 0.9455 0.68168 0.82499 0.0
H2539 H 0.04749 0.61347 0.85857 0.0
H2540 H 0.95724 0.70966 0.85234 0.0
H2541 H 0.01812 0.57259 0.83218 0.0
H2542 H 0.01543 0.64916 0.85656 0.0
H2543 H 0.97305 0.64239 0.8276 0.0
C2544 C 0.9538 0.67945 0.83157 0.0
C2545 C 0.94903 0.69896 0.83846 0.0
C2546 C 0.01582 0.63218 0.85123 0.0
C2547 C 0.98099 0.65401 0.84151 0.0
C2548 C 0.03414 0.61172 0.85237 0.0
C2549 C 0.0357 0.58986 0.84553 0.0
C2550 C 0.9991 0.63113 0.84318 0.0
C2551 C 0.01777 0.5889 0.83766 0.0
C2552 C 0.96951 0.65693 0.83306 0.0
C2553 C 0.96034 0.69501 0.84684 0.0
N2554 N 1.00052 0.60933 0.83669 0.0
N2555 N 0.97597 0.67314 0.84813 0.0
H2556 H 0.31008 0.24503 0.8524 0.0
H2557 H 0.45202 0.44591 0.83202 0.0
H2558 H 0.34214 0.26453 0.82532 0.0
H2559 H 0.40619 0.43255 0.85794 0.0
H2560 H 0.41694 0.37849 0.83014 0.0
H2561 H 0.3496 0.31238 0.85519 0.0
C2562 C 0.32566 0.26341 0.84707 0.0
C2563 C 0.32287 0.24916 0.83861 0.0
C2564 C 0.41461 0.39021 0.83626 0.0
C2565 C 0.36803 0.32607 0.84174 0.0
C2566 C 0.43482 0.42889 0.83736 0.0
C2567 C 0.43213 0.4453 0.84515 0.0
C2568 C 0.3914 0.36732 0.84299 0.0
C2569 C 0.40918 0.42136 0.85181 0.0
C2570 C 0.34808 0.30184 0.84865 0.0
C2571 C 0.34341 0.27426 0.83193 0.0
N2572 N 0.38968 0.38367 0.85057 0.0
N2573 N 0.36503 0.31131 0.83364 0.0
H2574 H 0.64123 0.9126 0.99965 0.0
H2575 H 0.7826 0.09001 0.0282 0.0
H2576 H 0.6874 0.90293 0.02411 0.0
H2577 H 0.7201 0.09521 1.00627 0.0
H2578 H 0.75363 0.0224 0.02604 0.0
H2579 H 0.67571 0.98019 1.00118 0.0
C2580 C 0.65882 0.92462 1.00533 0.0
C2581 C 0.66117 0.9018 1.01178 0.0
C2582 C 0.74637 0.03836 0.02168 0.0
C2583 C 0.7009 0.97977 0.01359 0.0
C2584 C 0.76296 0.07695 0.0229 0.0
C2585 C 0.75358 0.09821 0.01743 0.0
C2586 C 0.72042 0.02095 0.01491 0.0
C2587 C 0.72799 0.07987 1.01067 0.0
C2588 C 0.67847 0.96336 1.00621 0.0
C2589 C 0.68459 0.91929 0.01898 0.0
N2590 N 0.71231 0.04238 1.0096 0.0
N2591 N 0.70344 0.95719 0.0197 0.0
H2592 H 0.91764 0.64052 1.00613 0.0
H2593 H 0.11967 0.77791 0.02662 0.0
H2594 H 0.93828 0.6697 0.03337 0.0
H2595 H 0.10451 0.7387 1.00001 0.0
H2596 H 0.05234 0.74298 0.02866 0.0
H2597 H 0.98486 0.68027 1.00325 0.0
C2598 C 0.93627 0.65548 1.01148 0.0
C2599 C 0.92241 0.65185 0.02 0.0
C2600 C 0.06363 0.74207 0.02235 0.0
C2601 C 0.99912 0.69725 0.01678 0.0
C2602 C 0.10225 0.76218 0.02116 0.0
C2603 C 0.11809 0.76124 0.01313 0.0
C2604 C 0.04027 0.72067 0.01547 0.0
C2605 C 0.09371 0.74027 1.00633 0.0
C2606 C 0.97461 0.67805 1.00985 0.0
C2607 C 0.94776 0.67164 0.0267 0.0
N2608 N 0.05609 0.72073 1.00766 0.0
N2609 N 0.98473 0.69339 0.02495 0.0
H2610 H 0.28592 0.3744 0.9992 0.0
H2611 H 0.35034 0.26931 0.03271 0.0
H2612 H 0.24106 0.34077 0.02515 0.0
H2613 H 0.38274 0.28448 1.00563 0.0
H2614 H 0.31046 0.29587 0.02987 0.0
H2615 H 0.32136 0.34202 1.00118 0.0
C2616 C 0.28323 0.36003 1.00529 0.0
C2617 C 0.26039 0.36055 1.01203 0.0
C2618 C 0.32603 0.29326 0.02451 0.0
C2619 C 0.30132 0.32359 0.01435 0.0
C2620 C 0.3489 0.27809 0.02613 0.0
C2621 C 0.36987 0.27461 0.01939 0.0
C2622 C 0.32424 0.30558 0.01608 0.0
C2623 C 0.36688 0.2865 1.011 0.0
C2624 C 0.30354 0.34153 1.00641 0.0
C2625 C 0.25819 0.34132 0.01976 0.0
N2626 N 0.34468 0.3017 1.00959 0.0
N2627 N 0.27851 0.32394 0.02071 0.0
H2628 H 0.10829 0.37503 0.49986 0.0
H2629 H 0.92915 0.23799 0.52843 0.0
H2630 H 0.11641 0.33688 0.52554 0.0
H2631 H 0.92446 0.29701 0.50574 0.0
H2632 H 0.99702 0.26783 0.52667 0.0
H2633 H 0.04046 0.34039 0.5011 0.0
C2634 C 0.09591 0.35916 0.50575 0.0
C2635 C 0.11838 0.35911 0.51262 0.0
C2636 C 0.98114 0.27417 0.52206 0.0
C2637 C 0.04017 0.31918 0.51407 0.0
C2638 C 0.94238 0.25705 0.52305 0.0
C2639 C 0.92115 0.26517 0.51725 0.0
C2640 C 0.99881 0.29934 0.51517 0.0
C2641 C 0.93977 0.29009 0.51039 0.0
C2642 C 0.05704 0.33946 0.50646 0.0
C2643 C 0.10038 0.33794 0.52008 0.0
N2644 N 0.97746 0.30626 0.50954 0.0
N2645 N 0.06241 0.31889 0.52061 0.0
H2646 H 0.63794 0.72625 0.4998 0.0
H2647 H 0.78159 0.69208 0.52794 0.0
H2648 H 0.68839 0.78458 0.52377 0.0
H2649 H 0.72038 0.62427 0.5059 0.0
H2650 H 0.75233 0.73021 0.5257 0.0
H2651 H 0.6723 0.69278 0.50115 0.0
C2652 C 0.65641 0.7323 0.50533 0.0
C2653 C 0.66005 0.75836 0.5117 0.0
C2654 C 0.74538 0.70711 0.52132 0.0
C2655 C 0.69962 0.71976 0.51328 0.0
C2656 C 0.76217 0.68537 0.52259 0.0
C2657 C 0.75326 0.65481 0.51713 0.0
C2658 C 0.71952 0.69838 0.51452 0.0
C2659 C 0.72793 0.64747 0.51029 0.0
C2660 C 0.67599 0.71301 0.5061 0.0
C2661 C 0.68449 0.76476 0.5187 0.0
N2662 N 0.71189 0.669 0.5092 0.0
N2663 N 0.70321 0.74558 0.51931 0.0
H2664 H 0.27815 0.91347 0.49929 0.0
H2665 H 0.34968 0.08221 0.53338 0.0
H2666 H 0.24513 0.90038 0.52636 0.0
H2667 H 0.37606 0.09942 0.50597 0.0
H2668 H 0.31021 0.01557 0.53069 0.0
H2669 H 0.31262 0.9812 0.50133 0.0
C2670 C 0.27785 0.92472 0.50565 0.0
C2671 C 0.25868 0.9009 0.51267 0.0
C2672 C 0.32438 0.03379 0.52523 0.0
C2673 C 0.29848 0.97871 0.51505 0.0
C2674 C 0.34698 0.07193 0.52676 0.0
C2675 C 0.36617 0.09641 0.51989 0.0
C2676 C 0.32101 0.01968 0.51673 0.0
C2677 C 0.36162 0.0815 0.51145 0.0
C2678 C 0.29763 0.96349 0.5068 0.0
C2679 C 0.25945 0.91738 0.52074 0.0
N2680 N 0.33967 0.04404 0.51011 0.0
N2681 N 0.27912 0.95508 0.52171 0.0
H2682 H 0.04322 0.43577 0.35813 0.0
H2683 H 0.94561 0.26718 0.32409 0.0
H2684 H 0.01474 0.44839 0.33175 0.0
H2685 H 0.9544 0.25005 0.35153 0.0
H2686 H 0.97181 0.33379 0.32683 0.0
H2687 H 1.01149 0.36817 0.35596 0.0
C2688 C 0.03008 0.42439 0.3519 0.0
C2689 C 0.03182 0.44801 0.34511 0.0
C2690 C 0.96789 0.31555 0.33228 0.0
C2691 C 0.99568 0.3704 0.34256 0.0
C2692 C 0.95298 0.27747 0.33071 0.0
C2693 C 0.94783 0.25305 0.3376 0.0
C2694 C 0.97818 0.32959 0.34079 0.0
C2695 C 0.95787 0.26794 0.34604 0.0
C2696 C 0.01195 0.38571 0.35067 0.0
C2697 C 0.01418 0.43145 0.33719 0.0
N2698 N 0.97277 0.30528 0.3474 0.0
N2699 N 0.99716 0.39382 0.33612 0.0
H2700 H 0.77275 0.71092 0.3525 0.0
H2701 H 0.57221 0.56231 0.33311 0.0
H2702 H 0.75236 0.67737 0.32551 0.0
H2703 H 0.58553 0.61484 0.35821 0.0
H2704 H 0.63965 0.59804 0.33107 0.0
H2705 H 0.70577 0.67016 0.35551 0.0
C2706 C 0.75424 0.69475 0.34723 0.0
C2707 C 0.76806 0.6975 0.33874 0.0
C2708 C 0.62789 0.60166 0.33705 0.0
C2709 C 0.69168 0.65089 0.34212 0.0
C2710 C 0.58927 0.58108 0.33825 0.0
C2711 C 0.57291 0.58557 0.34584 0.0
C2712 C 0.65067 0.62692 0.34351 0.0
C2713 C 0.59676 0.61049 0.35224 0.0
C2714 C 0.71605 0.67164 0.34894 0.0
C2715 C 0.74287 0.67616 0.33214 0.0
N2716 N 0.63437 0.63027 0.35092 0.0
N2717 N 0.70604 0.6538 0.33397 0.0
H2718 H 0.30763 0.06165 0.35235 0.0
H2719 H 0.45084 1.00504 0.3317 0.0
H2720 H 0.33541 0.07112 0.32502 0.0
H2721 H 0.40392 0.97079 0.35746 0.0
H2722 H 0.41444 0.03618 0.32978 0.0
H2723 H 0.34797 0.03467 0.35494 0.0
C2724 C 0.32237 0.05823 0.34691 0.0
C2725 C 0.31816 0.06859 0.33845 0.0
C2726 C 0.41219 0.02199 0.33587 0.0
C2727 C 0.36441 0.03798 0.34136 0.0
C2728 C 0.43316 1.00429 0.337 0.0
C2729 C 0.4305 0.98506 0.34476 0.0
C2730 C 0.38841 0.02083 0.34256 0.0
C2731 C 0.40687 0.98511 0.35135 0.0
C2732 C 0.34529 0.04276 0.34839 0.0
C2733 C 0.33779 0.06345 0.33164 0.0
N2734 N 0.38677 1.00263 0.35011 0.0
N2735 N 0.36003 0.04862 0.33324 0.0
H2736 H 0.17457 0.41711 0.07713 0.0
H2737 H 0.1529 0.27138 0.11431 0.0
H2738 H 0.16154 0.30906 0.07163 0.0
H2739 H 0.15053 0.37267 0.11941 0.0
H2740 H 0.16137 0.28701 0.09879 0.0
H2741 H 0.17165 0.40378 0.09273 0.0
C2742 C 0.17147 0.39071 0.07919 0.0
C2743 C 0.16827 0.36417 0.07302 0.0
C2744 C 0.15914 0.30588 0.10331 0.0
C2745 C 0.16453 0.34854 0.09095 0.0
C2746 C 0.15414 0.29691 0.11219 0.0
C2747 C 0.15077 0.3206 0.11824 0.0
C2748 C 0.16091 0.33888 0.1004 0.0
C2749 C 0.1534 0.35369 0.11506 0.0
C2750 C 0.16955 0.38301 0.08812 0.0
C2751 C 0.16369 0.3302 0.07612 0.0
N2752 N 0.15816 0.36173 0.10639 0.0
N2753 N 0.16195 0.32338 0.08485 0.0
H2754 H 0.66011 0.86211 0.07396 0.0
H2755 H 0.6954 0.77063 0.11638 0.0
H2756 H 0.66845 0.76239 0.07361 0.0
H2757 H 0.70133 0.8776 0.11694 0.0
H2758 H 0.68333 0.76672 0.10075 0.0
H2759 H 0.67316 0.86796 0.08969 0.0
C2760 C 0.66469 0.84147 0.07718 0.0
C2761 C 0.66336 0.81181 0.07241 0.0
C2762 C 0.68726 0.79111 0.10427 0.0
C2763 C 0.67827 0.81832 0.09042 0.0
C2764 C 0.6939 0.79324 0.11323 0.0
C2765 C 0.69915 0.82438 0.11804 0.0
C2766 C 0.68566 0.82026 0.09999 0.0
C2767 C 0.69767 0.85315 0.11351 0.0
C2768 C 0.67229 0.84491 0.08615 0.0
C2769 C 0.66979 0.78607 0.07694 0.0
N2770 N 0.69091 0.85033 0.10475 0.0
N2771 N 0.67681 0.78986 0.08566 0.0
H2772 H 0.13226 0.86844 0.11431 0.0
H2773 H 0.24822 0.8311 0.07773 0.0
H2774 H 0.22954 0.85914 0.11984 0.0
H2775 H 0.15885 0.85272 0.07183 0.0
H2776 H 0.23788 0.83532 0.09327 0.0
H2777 H 0.1381 0.85738 0.09888 0.0
C2778 C 0.15486 0.86407 0.1123 0.0
C2779 C 0.18057 0.86499 0.11843 0.0
C2780 C 0.2204 0.83898 0.08859 0.0
C2781 C 0.18719 0.85191 0.1007 0.0
C2782 C 0.22609 0.83629 0.07969 0.0
C2783 C 0.2044 0.84159 0.07342 0.0
C2784 C 0.19271 0.84695 0.09129 0.0
C2785 C 0.17657 0.84889 0.0764 0.0
C2786 C 0.15807 0.85759 0.10347 0.0
C2787 C 0.20879 0.85833 0.11541 0.0
N2788 N 0.17158 0.8514 0.08511 0.0
N2789 N 0.21142 0.85226 0.10678 0.0
H2790 H 0.42184 0.19135 0.44791 0.0
H2791 H 0.26622 0.11814 0.41032 0.0
H2792 H 0.30342 0.1324 0.45298 0.0
H2793 H 0.38458 0.17661 0.40517 0.0
H2794 H 0.27942 0.12643 0.42595 0.0
H2795 H 0.40888 0.18946 0.4323 0.0
C2796 C 0.3931 0.17835 0.44577 0.0
C2797 C 0.36371 0.16191 0.45182 0.0
C2798 C 0.30254 0.13762 0.4214 0.0
C2799 C 0.34862 0.15922 0.43386 0.0
C2800 C 0.29502 0.13315 0.41245 0.0
C2801 C 0.3243 0.14663 0.40636 0.0
C2802 C 0.33966 0.15571 0.42435 0.0
C2803 C 0.36105 0.16525 0.40959 0.0
C2804 C 0.38571 0.17706 0.43683 0.0
C2805 C 0.32702 0.14496 0.44858 0.0
N2806 N 0.36764 0.16912 0.41834 0.0
N2807 N 0.32056 0.14398 0.43985 0.0
H2808 H 0.85571 0.22153 0.40429 0.0
H2809 H 0.8606 0.15209 0.45283 0.0
H2810 H 0.87895 0.13316 0.41005 0.0
H2811 H 0.82856 0.23396 0.44679 0.0
H2812 H 0.8663 0.14384 0.4372 0.0
H2813 H 0.84373 0.22501 0.41977 0.0
C2814 C 0.85787 0.2025 0.40877 0.0
C2815 C 0.86851 0.17706 0.4058 0.0
C2816 C 0.85781 0.16346 0.43929 0.0
C2817 C 0.8554 0.18142 0.42366 0.0
C2818 C 0.8547 0.16831 0.44823 0.0
C2819 C 0.84411 0.19381 0.45117 0.0
C2820 C 0.85054 0.18443 0.43321 0.0
C2821 C 0.83637 0.21366 0.44486 0.0
C2822 C 0.85127 0.20471 0.41764 0.0
C2823 C 0.87145 0.15365 0.41201 0.0
N2824 N 0.83995 0.20871 0.43621 0.0
N2825 N 0.86511 0.15651 0.42062 0.0
H2826 H 0.84589 0.75219 0.41067 0.0
H2827 H 0.80858 0.59891 0.44722 0.0
H2828 H 0.82226 0.64057 0.4048 0.0
H2829 H 0.82103 0.7066 0.45292 0.0
H2830 H 0.81841 0.61543 0.43177 0.0
H2831 H 0.84228 0.7379 0.42623 0.0
C2832 C 0.84033 0.72478 0.41264 0.0
C2833 C 0.83431 0.69754 0.40638 0.0
C2834 C 0.81914 0.63552 0.4364 0.0
C2835 C 0.82972 0.68082 0.42425 0.0
C2836 C 0.81337 0.62605 0.44524 0.0
C2837 C 0.8137 0.65127 0.45143 0.0
C2838 C 0.82537 0.67054 0.43367 0.0
C2839 C 0.82085 0.68633 0.44844 0.0
C2840 C 0.83802 0.71656 0.42154 0.0
C2841 C 0.82663 0.66232 0.40936 0.0
N2842 N 0.82621 0.69482 0.43979 0.0
N2843 N 0.82452 0.65499 0.41807 0.0
H2844 H 0.87392 0.74423 0.91082 0.0
H2845 H 0.85183 0.59732 0.94775 0.0
H2846 H 0.87643 0.64314 0.90553 0.0
H2847 H 0.8635 0.70467 0.95343 0.0
H2848 H 0.85524 0.61125 0.93217 0.0
H2849 H 0.86509 0.72803 0.92631 0.0
C2850 C 0.87264 0.71863 0.91289 0.0
C2851 C 0.87615 0.69517 0.9068 0.0
C2852 C 0.85694 0.63174 0.93681 0.0
C2853 C 0.8656 0.67622 0.9246 0.0
C2854 C 0.85473 0.62369 0.94573 0.0
C2855 C 0.85739 0.64985 0.95195 0.0
C2856 C 0.86172 0.66619 0.93404 0.0
C2857 C 0.86176 0.68381 0.9489 0.0
C2858 C 0.86743 0.70932 0.92175 0.0
C2859 C 0.87346 0.66197 0.90992 0.0
N2860 N 0.86379 0.69098 0.94018 0.0
N2861 N 0.8685 0.65361 0.91858 0.0
H2862 H 0.38794 0.21697 0.90462 0.0
H2863 H 0.30532 0.17642 0.95326 0.0
H2864 H 0.27017 0.15955 0.91044 0.0
H2865 H 0.42309 0.23668 0.94743 0.0
H2866 H 0.29194 0.16716 0.93764 0.0
H2867 H 0.40131 0.2216 0.92025 0.0
C2868 C 0.36484 0.20533 0.90917 0.0
C2869 C 0.32782 0.18798 0.90615 0.0
C2870 C 0.32072 0.18227 0.93977 0.0
C2871 C 0.34303 0.193 0.92414 0.0
C2872 C 0.32842 0.18774 0.94871 0.0
C2873 C 0.36544 0.20755 0.95172 0.0
C2874 C 0.35022 0.19675 0.93374 0.0
C2875 C 0.39413 0.22092 0.94547 0.0
C2876 C 0.37253 0.20784 0.91811 0.0
C2877 C 0.29912 0.17284 0.91241 0.0
N2878 N 0.38592 0.21544 0.9368 0.0
N2879 N 0.30733 0.17587 0.92108 0.0
H2880 H 0.84249 0.19476 0.90512 0.0
H2881 H 0.81573 0.11295 0.95358 0.0
H2882 H 0.83785 0.09091 0.91128 0.0
H2883 H 0.83248 0.22227 0.9478 0.0
H2884 H 0.82529 0.1051 0.93819 0.0
H2885 H 0.8394 0.20564 0.92071 0.0
C2886 C 0.84082 0.17423 0.90974 0.0
C2887 C 0.84037 0.14182 0.90685 0.0
C2888 C 0.82709 0.13091 0.94029 0.0
C2889 C 0.83693 0.15417 0.92476 0.0
C2890 C 0.82191 0.13556 0.94912 0.0
C2891 C 0.82317 0.16833 0.95205 0.0
C2892 C 0.83344 0.15911 0.93429 0.0
C2893 C 0.83061 0.19627 0.94586 0.0
C2894 C 0.83925 0.18055 0.91866 0.0
C2895 C 0.83869 0.11647 0.91318 0.0
N2896 N 0.83526 0.19094 0.93729 0.0
N2897 N 0.83682 0.12308 0.92181 0.0
H2898 H 0.72044 0.87852 0.57146 0.0
H2899 H 0.6353 0.83856 0.61985 0.0
H2900 H 0.60249 0.82457 0.57692 0.0
H2901 H 0.75333 0.89549 0.61433 0.0
H2902 H 0.62259 0.82992 0.60419 0.0
H2903 H 0.73282 0.88174 0.58712 0.0
C2904 C 0.6971 0.86734 0.57594 0.0
C2905 C 0.66033 0.85141 0.57282 0.0
C2906 C 0.65127 0.84413 0.6064 0.0
C2907 C 0.67437 0.8548 0.59084 0.0
C2908 C 0.65858 0.84923 0.61536 0.0
C2909 C 0.69549 0.86796 0.61847 0.0
C2910 C 0.68104 0.8579 0.60045 0.0
C2911 C 0.72443 0.88054 0.61229 0.0
C2912 C 0.7042 0.86904 0.5849 0.0
C2913 C 0.63126 0.83678 0.57898 0.0
N2914 N 0.7166 0.87547 0.60361 0.0
N2915 N 0.63891 0.83901 0.58767 0.0
H2916 H 0.19159 0.77426 0.57735 0.0
H2917 H 0.13993 0.88077 0.6136 0.0
H2918 H 0.15816 0.85505 0.57126 0.0
H2919 H 0.16506 0.79388 0.61958 0.0
H2920 H 0.15091 0.87496 0.59817 0.0
H2921 H 0.187 0.78473 0.59288 0.0
C2922 C 0.1837 0.79454 0.57926 0.0
C2923 C 0.17521 0.81375 0.57294 0.0
C2924 C 0.15418 0.85726 0.60286 0.0
C2925 C 0.16942 0.82555 0.5908 0.0
C2926 C 0.14775 0.86044 0.61169 0.0
C2927 C 0.15129 0.83761 0.61795 0.0
C2928 C 0.16428 0.83104 0.60021 0.0
C2929 C 0.16228 0.81234 0.61504 0.0
C2930 C 0.18082 0.80031 0.58815 0.0
C2931 C 0.16452 0.83922 0.57587 0.0
N2932 N 0.16818 0.80962 0.6064 0.0
N2933 N 0.16188 0.8443 0.58456 0.0
H2934 H 0.16772 0.30084 0.5719 0.0
H2935 H 0.20873 0.3828 0.62062 0.0
H2936 H 0.23003 0.41839 0.57784 0.0
H2937 H 0.14855 0.26521 0.61466 0.0
H2938 H 0.21376 0.39647 0.605 0.0
H2939 H 0.1574 0.28739 0.58751 0.0
C2940 C 0.17923 0.32386 0.57647 0.0
C2941 C 0.19994 0.36084 0.5735 0.0
C2942 C 0.19927 0.36767 0.60711 0.0
C2943 C 0.18799 0.34557 0.59146 0.0
C2944 C 0.19651 0.35982 0.61604 0.0
C2945 C 0.17828 0.32275 0.61901 0.0
C2946 C 0.18381 0.33829 0.60104 0.0
C2947 C 0.16249 0.29421 0.61273 0.0
C2948 C 0.17317 0.31615 0.5854 0.0
C2949 C 0.21357 0.38948 0.57977 0.0
N2950 N 0.1658 0.30257 0.60407 0.0
N2951 N 0.20753 0.38123 0.58843 0.0
H2952 H 0.0164 0.52932 0.74034 0.0
H2953 H 1.00948 0.42269 0.78454 0.0
H2954 H 0.96954 0.41013 0.74203 0.0
H2955 H 0.05169 0.54123 0.78312 0.0
H2956 H 0.9957 0.41774 0.76895 0.0
H2957 H 0.0309 0.5344 0.7559 0.0
C2958 C 1.00903 0.50416 0.74398 0.0
C2959 C 0.99152 0.46919 0.73984 0.0
C2960 C 1.00796 0.44485 0.77204 0.0
C2961 C 1.00844 0.47492 0.75771 0.0
C2962 C 0.01561 0.44769 0.78098 0.0
C2963 C 0.03165 0.48244 0.7852 0.0
C2964 C 0.0164 0.47698 0.76724 0.0
C2965 C 0.03968 0.51391 0.78015 0.0
C2966 C 0.0175 0.50713 0.75287 0.0
C2967 C 0.98336 0.43771 0.74489 0.0
N2968 N 0.03194 0.51041 0.77146 0.0
N2969 N 0.99177 0.44132 0.75355 0.0
H2970 H 0.51821 0.55635 0.73771 0.0
H2971 H 0.55555 0.50897 0.78613 0.0
H2972 H 0.57409 0.4943 0.74323 0.0
H2973 H 0.50121 0.57249 0.78061 0.0
H2974 H 0.55995 0.50078 0.77047 0.0
H2975 H 0.50913 0.56 0.75336 0.0
C2976 C 0.52862 0.54349 0.7422 0.0
C2977 C 0.54714 0.52513 0.7391 0.0
C2978 C 0.54691 0.51638 0.77268 0.0
C2979 C 0.53654 0.52902 0.75711 0.0
C2980 C 0.54453 0.52123 0.78164 0.0
C2981 C 0.52812 0.54163 0.78474 0.0
C2982 C 0.53288 0.5321 0.76671 0.0
C2983 C 0.51376 0.55624 0.77856 0.0
C2984 C 0.52324 0.54544 0.75115 0.0
C2985 C 0.55935 0.50844 0.74527 0.0
N2986 N 0.51665 0.55136 0.76987 0.0
N2987 N 0.55401 0.51095 0.75395 0.0
H2988 H 0.52772 0.09006 0.74429 0.0
H2989 H 0.46426 0.92945 0.78039 0.0
H2990 H 0.48598 0.97421 0.73808 0.0
H2991 H 0.50165 0.04453 0.78653 0.0
H2992 H 0.47555 0.94593 0.76494 0.0
H2993 H 0.52252 0.07465 0.7598 0.0
C2994 C 0.51788 0.06143 0.74617 0.0
C2995 C 0.50723 0.03341 0.73982 0.0
C2996 C 0.48144 0.96763 0.76967 0.0
C2997 C 0.50068 0.01544 0.75766 0.0
C2998 C 0.47483 0.9582 0.77851 0.0
C2999 C 0.48178 0.98557 0.78482 0.0
C3000 C 0.4951 1.00474 0.76706 0.0
C3001 C 0.49618 0.0225 0.78195 0.0
C3002 C 0.51465 0.0526 0.75505 0.0
C3003 C 0.49406 0.9967 0.74271 0.0
N3004 N 0.50216 0.03093 0.7733 0.0
N3005 N 0.49108 0.9888 0.75139 0.0
H3006 H 0.56315 0.08814 0.24372 0.0
H3007 H 0.50185 0.92892 0.2801 0.0
H3008 H 0.52723 0.9732 0.23778 0.0
H3009 H 0.544 0.04501 0.28611 0.0
H3010 H 0.50664 0.9438 0.26456 0.0
H3011 H 0.55257 0.07217 0.2592 0.0
C3012 C 0.55306 0.05952 0.24565 0.0
C3013 C 0.5463 0.03205 0.23939 0.0
C3014 C 0.5147 0.96601 0.26927 0.0
C3015 C 0.5338 0.01346 0.25718 0.0
C3016 C 0.51172 0.95749 0.27817 0.0
C3017 C 0.52258 0.98574 0.28446 0.0
C3018 C 0.52861 1.00309 0.2666 0.0
C3019 C 0.53576 0.02236 0.28151 0.0
C3020 C 0.54686 0.05039 0.25451 0.0
C3021 C 0.53253 0.9953 0.24232 0.0
N3022 N 0.53845 0.02996 0.27282 0.0
N3023 N 0.52692 0.98715 0.25099 0.0
H3024 H 0.96933 0.49962 0.28683 0.0
H3025 H 0.05102 0.5379 0.23812 0.0
H3026 H 0.08691 0.55501 0.28086 0.0
H3027 H 0.93348 0.484 0.24405 0.0
H3028 H 0.06452 0.54124 0.25373 0.0
H3029 H 0.9555 0.49047 0.27122 0.0
C3030 C 0.99228 0.50982 0.28225 0.0
C3031 C 0.02939 0.52827 0.28521 0.0
C3032 C 0.03575 0.52849 0.25162 0.0
C3033 C 0.01367 0.51768 0.26726 0.0
C3034 C 0.02801 0.52671 0.24269 0.0
C3035 C 0.99102 0.51077 0.23972 0.0
C3036 C 1.00634 0.51435 0.25768 0.0
C3037 C 0.96239 0.49619 0.24599 0.0
C3038 C 0.98433 0.50443 0.27332 0.0
C3039 C 0.05787 0.54029 0.27893 0.0
N3040 N 0.97066 0.49852 0.25465 0.0
N3041 N 0.04943 0.53498 0.27028 0.0
H3042 H 0.52908 0.44614 0.24357 0.0
H3043 H 0.45653 0.5285 0.28129 0.0
H3044 H 0.47215 0.50759 0.23858 0.0
H3045 H 0.51041 0.46417 0.28633 0.0
H3046 H 0.46575 0.52468 0.26566 0.0
H3047 H 0.52622 0.45596 0.25921 0.0
C3048 C 0.51633 0.46206 0.24574 0.0
C3049 C 0.50075 0.47595 0.2397 0.0
C3050 C 0.47572 0.51152 0.27018 0.0
C3051 C 0.49693 0.48691 0.25769 0.0
C3052 C 0.47071 0.51393 0.27913 0.0
C3053 C 0.48263 0.49658 0.28518 0.0
C3054 C 0.49283 0.49162 0.2672 0.0
C3055 C 0.50026 0.47755 0.28193 0.0
C3056 C 0.51447 0.46743 0.2547 0.0
C3057 C 0.48407 0.49586 0.24297 0.0
N3058 N 0.50473 0.47552 0.27318 0.0
N3059 N 0.48254 0.50065 0.25171 0.0
H3060 H 1.0105 0.20321 0.28609 0.0
H3061 H 0.01714 0.12793 0.23828 0.0
H3062 H 0.93454 0.09121 0.27728 0.0
H3063 H 0.08479 0.24312 0.24594 0.0
H3064 H 0.98785 0.11377 0.25267 0.0
H3065 H 0.03876 0.21827 0.27157 0.0
C3066 C 0.99953 0.18179 0.28111 0.0
C3067 C 0.96999 0.14577 0.28298 0.0
C3068 C 1.00905 0.14218 0.25121 0.0
C3069 C 1.00279 0.16284 0.2663 0.0
C3070 C 0.02598 0.15026 0.243 0.0
C3071 C 0.05365 0.18679 0.24087 0.0
C3072 C 0.01988 0.17073 0.25742 0.0
C3073 C 0.0634 0.21463 0.24723 0.0
C3074 C 0.01588 0.1904 0.27282 0.0
C3075 C 0.95758 0.11915 0.27624 0.0
N3076 N 0.04668 0.206 0.25521 0.0
N3077 N 0.97402 0.12819 0.26824 0.0
H3078 H 0.81673 0.81424 0.28646 0.0
H3079 H 0.88883 0.88872 0.23804 0.0
H3080 H 0.92545 0.84139 0.27684 0.0
H3081 H 0.77595 0.85013 0.24653 0.0
H3082 H 0.90292 0.87267 0.25233 0.0
H3083 H 0.80126 0.82762 0.272 0.0
C3084 C 0.83731 0.82273 0.28131 0.0
C3085 C 0.87258 0.82674 0.28294 0.0
C3086 C 0.87502 0.86762 0.25108 0.0
C3087 C 0.85508 0.84268 0.26633 0.0
C3088 C 0.867 0.877 0.24292 0.0
C3089 C 0.83115 0.87095 0.24106 0.0
C3090 C 0.84711 0.85219 0.2575 0.0
C3091 C 0.80388 0.85503 0.24762 0.0
C3092 C 0.82848 0.83059 0.27305 0.0
C3093 C 0.89817 0.83848 0.27599 0.0
N3094 N 0.81245 0.84638 0.25554 0.0
N3095 N 0.88896 0.84607 0.26803 0.0
H3096 H 0.2462 0.07251 0.27941 0.0
H3097 H 0.0881 0.93035 0.24646 0.0
H3098 H 0.12867 0.01326 0.28547 0.0
H3099 H 0.20389 0.99834 0.23923 0.0
H3100 H 0.103 0.95853 0.26095 0.0
H3101 H 0.23192 0.04328 0.26497 0.0
C3102 C 0.2174 0.05318 0.27774 0.0
C3103 C 0.18862 0.04548 0.28371 0.0
C3104 C 0.12519 0.96732 0.2562 0.0
C3105 C 0.17201 0.012 0.26709 0.0
C3106 C 0.11665 0.95137 0.24787 0.0
C3107 C 0.14468 0.962 0.24152 0.0
C3108 C 0.16211 0.99415 0.25828 0.0
C3109 C 0.18133 0.98884 0.24389 0.0
C3110 C 0.20925 0.03667 0.26946 0.0
C3111 C 0.15179 0.02052 0.28108 0.0
N3112 N 0.18893 1.00396 0.25205 0.0
N3113 N 0.1446 1.00472 0.273 0.0
H3114 H 0.92159 0.83281 0.77748 0.0
H3115 H 0.07995 0.8379 0.74635 0.0
H3116 H 1.00599 0.80851 0.78646 0.0
H3117 H 1.00087 0.8707 0.73808 0.0
H3118 H 0.05122 0.82361 0.76083 0.0
H3119 H 0.94868 0.84417 0.76288 0.0
C3120 C 0.94595 0.83004 0.77642 0.0
C3121 C 0.96155 0.81985 0.78329 0.0
C3122 C 0.0401 0.83388 0.75584 0.0
C3123 C 0.99256 0.83238 0.76644 0.0
C3124 C 0.05635 0.84181 0.74754 0.0
C3125 C 0.04294 0.85565 0.74094 0.0
C3126 C 1.01004 0.83963 0.75761 0.0
C3127 C 0.01257 0.86062 0.74296 0.0
C3128 C 0.96129 0.83632 0.76804 0.0
C3129 C 0.99267 0.81592 0.78139 0.0
N3130 N 0.99722 0.85265 0.75109 0.0
N3131 N 1.00714 0.82225 0.77318 0.0
H3132 H 0.18466 0.24547 0.74548 0.0
H3133 H 0.18288 0.08899 0.77666 0.0
H3134 H 0.14262 0.13128 0.73761 0.0
H3135 H 0.21528 0.2002 0.7854 0.0
H3136 H 0.17087 0.10495 0.76215 0.0
H3137 H 0.19958 0.2306 0.75984 0.0
C3138 C 0.17883 0.21733 0.74673 0.0
C3139 C 0.16225 0.1896 0.74028 0.0
C3140 C 0.18064 0.1259 0.76724 0.0
C3141 C 0.17901 0.17226 0.75682 0.0
C3142 C 0.18732 0.11673 0.77557 0.0
C3143 C 0.19995 0.14315 0.78235 0.0
C3144 C 0.18666 0.16186 0.76559 0.0
C3145 C 0.20595 0.17894 0.7804 0.0
C3146 C 0.18715 0.2088 0.75497 0.0
C3147 C 0.15489 0.15349 0.74238 0.0
N3148 N 0.19919 0.18717 0.77223 0.0
N3149 N 0.1633 0.14592 0.75044 0.0
H3150 H 0.9049 0.10427 0.77574 0.0
H3151 H 0.80215 0.91401 0.74829 0.0
H3152 H 0.83943 0.9957 0.7875 0.0
H3153 H 0.85955 0.02311 0.73645 0.0
H3154 H 0.81594 0.94337 0.76267 0.0
H3155 H 0.88899 0.07512 0.76134 0.0
C3156 C 0.88694 0.07434 0.77532 0.0
C3157 C 0.87355 0.05254 0.78292 0.0
C3158 C 0.82548 0.96092 0.75693 0.0
C3159 C 0.85561 0.01876 0.76634 0.0
C3160 C 0.81741 0.94414 0.74869 0.0
C3161 C 0.82962 0.96599 0.74108 0.0
C3162 C 0.84605 0.99996 0.75764 0.0
C3163 C 0.84995 1.00498 0.74209 0.0
C3164 C 0.87805 0.05766 0.76707 0.0
C3165 C 0.85094 0.01373 0.78188 0.0
N3166 N 0.85751 0.02063 0.75019 0.0
N3167 N 0.84275 0.99816 0.77378 0.0
H3168 H 0.57733 0.42843 0.60898 0.0
H3169 H 0.74689 0.57681 0.57948 0.0
H3170 H 0.66763 0.53164 0.61903 0.0
H3171 H 0.66254 0.46854 0.57029 0.0
H3172 H 0.71618 0.56271 0.59373 0.0
H3173 H 0.60636 0.44432 0.59458 0.0
C3174 C 0.60335 0.45439 0.60819 0.0
C3175 C 0.62007 0.47857 0.6153 0.0
C3176 C 0.70435 0.54205 0.58859 0.0
C3177 C 0.65337 0.49724 0.5987 0.0
C3178 C 0.72175 0.55018 0.58042 0.0
C3179 C 0.7074 0.52381 0.57364 0.0
C3180 C 0.67217 0.50733 0.59002 0.0
C3181 C 0.67497 0.48957 0.57533 0.0
C3182 C 0.61983 0.46354 0.59993 0.0
C3183 C 0.65341 0.51223 0.61377 0.0
N3184 N 0.65852 0.48235 0.58332 0.0
N3185 N 0.66896 0.52048 0.60566 0.0
H3186 H 0.48627 0.15036 0.62032 0.0
H3187 H 0.55945 0.22291 0.57183 0.0
H3188 H 0.59622 0.17983 0.61113 0.0
H3189 H 0.44598 0.18312 0.58001 0.0
H3190 H 0.57355 0.2084 0.58629 0.0
H3191 H 0.47099 0.16262 0.60573 0.0
C3192 C 0.50718 0.15916 0.61524 0.0
C3193 C 0.54271 0.1641 0.61703 0.0
C3194 C 0.54552 0.20276 0.58493 0.0
C3195 C 0.5254 0.17873 0.60025 0.0
C3196 C 0.53748 0.21126 0.57667 0.0
C3197 C 0.50146 0.20441 0.57467 0.0
C3198 C 0.51745 0.1874 0.59132 0.0
C3199 C 0.47405 0.18861 0.58121 0.0
C3200 C 0.49845 0.16636 0.6069 0.0
C3201 C 0.5687 0.17619 0.61016 0.0
N3202 N 0.48264 0.18081 0.58923 0.0
N3203 N 0.55956 0.18311 0.60212 0.0
H3204 H 0.92327 0.41274 0.61174 0.0
H3205 H 0.76794 0.2732 0.57794 0.0
H3206 H 0.80519 0.35264 0.61719 0.0
H3207 H 0.8849 0.33837 0.5715 0.0
H3208 H 0.78166 0.30076 0.59248 0.0
H3209 H 0.91048 0.38403 0.59724 0.0
C3210 C 0.89467 0.39333 0.60993 0.0
C3211 C 0.86527 0.38526 0.61572 0.0
C3212 C 0.80438 0.3091 0.58789 0.0
C3213 C 0.85039 0.35245 0.59906 0.0
C3214 C 0.79652 0.29352 0.57954 0.0
C3215 C 0.82523 0.30358 0.5734 0.0
C3216 C 0.8413 0.33502 0.59022 0.0
C3217 C 0.86185 0.32946 0.576 0.0
C3218 C 0.88738 0.37711 0.60161 0.0
C3219 C 0.82875 0.3602 0.61293 0.0
N3220 N 0.8688 0.3443 0.58419 0.0
N3221 N 0.82239 0.34476 0.60483 0.0
H3222 H 0.74075 0.16457 0.07848 0.0
H3223 H 0.58808 0.17074 0.10961 0.0
H3224 H 0.67064 0.20902 0.07059 0.0
H3225 H 0.66508 0.13598 0.11839 0.0
H3226 H 0.61598 0.18197 0.0951 0.0
H3227 H 0.7109 0.15028 0.09283 0.0
C3228 C 0.71887 0.17106 0.07972 0.0
C3229 C 0.70833 0.18815 0.07328 0.0
C3230 C 0.62678 0.17185 0.1002 0.0
C3231 C 0.67417 0.17212 0.0898 0.0
C3232 C 0.61098 0.16562 0.10852 0.0
C3233 C 0.62428 0.15256 0.11531 0.0
C3234 C 0.65617 0.16494 0.09856 0.0
C3235 C 0.65353 0.14567 0.11338 0.0
C3236 C 0.702 0.16311 0.08796 0.0
C3237 C 0.68012 0.19634 0.07536 0.0
N3238 N 0.66849 0.15201 0.10522 0.0
N3239 N 0.6641 0.18827 0.08341 0.0
H3240 H 0.7971 0.46113 0.12044 0.0
H3241 H 0.87211 0.54175 0.07255 0.0
H3242 H 0.91146 0.50458 0.1125 0.0
H3243 H 0.76146 0.50984 0.08169 0.0
H3244 H 0.88706 0.52787 0.08701 0.0
H3245 H 0.78337 0.47754 0.10615 0.0
C3246 C 0.81934 0.47399 0.11569 0.0
C3247 C 0.85551 0.48132 0.11771 0.0
C3248 C 0.85953 0.52397 0.08585 0.0
C3249 C 0.83995 0.50051 0.10126 0.0
C3250 C 0.85099 0.53212 0.07759 0.0
C3251 C 0.81535 0.52692 0.07582 0.0
C3252 C 0.83226 0.51038 0.09243 0.0
C3253 C 0.78908 0.51372 0.08264 0.0
C3254 C 0.81151 0.48358 0.10753 0.0
C3255 C 0.88326 0.49866 0.11129 0.0
N3256 N 0.79803 0.50587 0.0906 0.0
N3257 N 0.87488 0.5075 0.10336 0.0
H3258 H 0.48612 0.34807 0.11964 0.0
H3259 H 0.56115 0.34117 0.07183 0.0
H3260 H 0.59758 0.42496 0.11065 0.0
H3261 H 0.44636 0.27183 0.07963 0.0
H3262 H 0.57507 0.37116 0.08614 0.0
H3263 H 0.47096 0.31939 0.10516 0.0
C3264 C 0.50738 0.35917 0.11463 0.0
C3265 C 0.5433 0.38906 0.11645 0.0
C3266 C 0.5468 0.34944 0.08473 0.0
C3267 C 0.52613 0.35578 0.09981 0.0
C3268 C 0.53885 0.3321 0.07656 0.0
C3269 C 0.50252 0.30373 0.0745 0.0
C3270 C 0.5183 0.33833 0.09097 0.0
C3271 C 0.4747 0.29374 0.08088 0.0
C3272 C 0.49872 0.34258 0.10636 0.0
C3273 C 0.56973 0.40165 0.10966 0.0
N3274 N 0.48319 0.31086 0.08882 0.0
N3275 N 0.56065 0.38495 0.10169 0.0
H3276 H 0.37755 0.89881 0.90841 0.0
H3277 H 0.31533 0.76437 0.95023 0.0
H3278 H 0.39703 0.80622 0.91114 0.0
H3279 H 0.30092 0.86035 0.94833 0.0
H3280 H 0.34484 0.77917 0.93588 0.0
H3281 H 0.34919 0.88521 0.92292 0.0
C3282 C 0.37611 0.87575 0.91205 0.0
C3283 C 0.38979 0.85365 0.90847 0.0
C3284 C 0.33528 0.79706 0.93859 0.0
C3285 C 0.35675 0.8376 0.92514 0.0
C3286 C 0.31858 0.78874 0.94684 0.0
C3287 C 0.3056 0.81116 0.95057 0.0
C3288 C 0.33916 0.82808 0.93397 0.0
C3289 C 0.31003 0.84196 0.94572 0.0
C3290 C 0.35967 0.86786 0.92034 0.0
C3291 C 0.38645 0.82376 0.91352 0.0
N3292 N 0.32642 0.84949 0.9377 0.0
N3293 N 0.37033 0.81666 0.92155 0.0
H3294 H 0.17958 0.43821 0.94563 0.0
H3295 H 0.18853 0.59624 0.91384 0.0
H3296 H 0.23465 0.55508 0.95224 0.0
H3297 H 0.1465 0.48223 0.90577 0.0
H3298 H 0.20229 0.58076 0.9282 0.0
H3299 H 0.16342 0.45277 0.93136 0.0
C3300 C 0.18809 0.46691 0.94411 0.0
C3301 C 0.20865 0.49546 0.95017 0.0
C3302 C 0.19004 0.55909 0.9233 0.0
C3303 C 0.19036 0.51237 0.93378 0.0
C3304 C 0.18234 0.56797 0.91505 0.0
C3305 C 0.1665 0.54062 0.9085 0.0
C3306 C 0.18177 0.52249 0.9251 0.0
C3307 C 0.15835 0.50424 0.9106 0.0
C3308 C 0.17903 0.47523 0.93594 0.0
C3309 C 0.21925 0.53219 0.94776 0.0
N3310 N 0.16612 0.49628 0.91869 0.0
N3311 N 0.20997 0.53954 0.93979 0.0
H3312 H 0.45873 0.66203 0.90605 0.0
H3313 H 0.547 0.66892 0.95311 0.0
H3314 H 0.50958 0.5963 0.91268 0.0
H3315 H 0.50287 0.73962 0.94549 0.0
H3316 H 0.53346 0.64167 0.93846 0.0
H3317 H 0.47404 0.68991 0.92058 0.0
C3318 C 0.47297 0.65328 0.91057 0.0
C3319 C 0.48268 0.62655 0.90811 0.0
C3320 C 0.52675 0.66315 0.94 0.0
C3321 C 0.50067 0.65878 0.92484 0.0
C3322 C 0.53464 0.67889 0.94837 0.0
C3323 C 0.52597 0.70662 0.95061 0.0
C3324 C 0.51001 0.67512 0.93379 0.0
C3325 C 0.50948 0.71791 0.94417 0.0
C3326 C 0.48192 0.66942 0.91887 0.0
C3327 C 0.50179 0.61697 0.91424 0.0
N3328 N 0.50206 0.70215 0.9361 0.0
N3329 N 0.51001 0.63293 0.92231 0.0
H3330 H 0.33346 0.55208 0.4522 0.0
H3331 H 0.34722 0.46598 0.40636 0.0
H3332 H 0.27585 0.43398 0.44686 0.0
H3333 H 0.4093 0.5833 0.41257 0.0
H3334 H 0.32069 0.45341 0.42107 0.0
H3335 H 0.36083 0.56377 0.43762 0.0
C3336 C 0.32639 0.52856 0.44796 0.0
C3337 C 0.3021 0.49196 0.45079 0.0
C3338 C 0.34012 0.4819 0.41921 0.0
C3339 C 0.33378 0.5052 0.43402 0.0
C3340 C 0.35547 0.48912 0.4108 0.0
C3341 C 0.38053 0.52583 0.40814 0.0
C3342 C 0.34983 0.51157 0.42504 0.0
C3343 C 0.38965 0.55462 0.41422 0.0
C3344 C 0.34224 0.53526 0.43963 0.0
C3345 C 0.29465 0.46264 0.44501 0.0
N3346 N 0.37433 0.54688 0.42234 0.0
N3347 N 0.31028 0.46989 0.43691 0.0
H3348 H 0.54334 0.90919 0.40967 0.0
H3349 H 0.48295 0.75109 0.44633 0.0
H3350 H 0.45096 0.797 0.40687 0.0
H3351 H 0.57255 0.86437 0.44974 0.0
H3352 H 0.47176 0.76724 0.43177 0.0
H3353 H 0.55548 0.89311 0.42419 0.0
C3354 C 0.52551 0.8812 0.4121 0.0
C3355 C 0.49602 0.85446 0.407 0.0
C3356 C 0.4939 0.78859 0.43569 0.0
C3357 C 0.51 0.83574 0.42366 0.0
C3358 C 0.50019 0.77945 0.44406 0.0
C3359 C 0.5287 0.8064 0.44935 0.0
C3360 C 0.51626 0.82501 0.43252 0.0
C3361 C 0.55053 0.84249 0.4459 0.0
C3362 C 0.53259 0.87199 0.42039 0.0
C3363 C 0.4743 0.81846 0.41048 0.0
N3364 N 0.54382 0.85072 0.43774 0.0
N3365 N 0.48167 0.81023 0.41858 0.0
H3366 H 0.26231 0.76372 0.44364 0.0
H3367 H 0.10739 0.60936 0.41204 0.0
H3368 H 0.15207 0.68167 0.45231 0.0
H3369 H 0.22054 0.68574 0.40408 0.0
H3370 H 0.12203 0.63753 0.42658 0.0
H3371 H 0.24658 0.7371 0.429 0.0
C3372 C 0.23484 0.73997 0.4425 0.0
C3373 C 0.20862 0.7249 0.4493 0.0
C3374 C 0.14365 0.64818 0.42165 0.0
C3375 C 0.19015 0.69445 0.43239 0.0
C3376 C 0.13524 0.63226 0.41331 0.0
C3377 C 0.16276 0.64507 0.40678 0.0
C3378 C 0.17986 0.67732 0.42352 0.0
C3379 C 0.19851 0.67452 0.4089 0.0
C3380 C 0.2258 0.7249 0.43409 0.0
C3381 C 0.17316 0.69458 0.4473 0.0
N3382 N 0.20598 0.68957 0.41706 0.0
N3383 N 0.16504 0.68037 0.43906 0.0
loop_
_geom_bond_atom_site_label_1
_geom_bond_atom_site_label_2
_geom_bond_distance
_geom_bond_site_symmetry_2
_ccdc_geom_bond_type
Pr0 C2 2.880 . S
Pr0 O20 2.562 . S
Pr0 O21 2.490 . S
Pr0 O22 2.695 . S
Pr0 O23 2.512 . S
Pr0 O25 2.437 . S
Pr0 O28 2.436 . S
Pr0 O30 2.438 . S
Pr1 C11 2.880 . S
Pr1 O22 2.436 . S
Pr1 O24 2.438 . S
Pr1 O26 2.562 . S
Pr1 O27 2.490 . S
Pr1 O28 2.695 . S
Pr1 O29 2.512 . S
Pr1 O31 2.437 . S
C2 Pr0 2.880 . S
C2 C3 1.491 . S
C2 O20 1.254 . S
C2 O21 1.225 . S
C3 C2 1.491 . S
C3 C4 1.392 . S
C3 C8 1.356 . S
C4 C3 1.392 . S
C4 C5 1.368 . S
C4 H32 0.929 . S
C5 C4 1.368 . S
C5 C6 1.386 . S
C5 H33 0.929 . S
C6 C5 1.386 . S
C6 C7 1.373 . S
C7 C6 1.373 . S
C7 C8 1.409 . S
C7 H34 0.931 . S
C8 C3 1.356 . S
C8 C7 1.409 . S
C8 H35 0.930 . S
C9 O22 1.270 . S
C9 O23 1.248 . S
C10 O24 1.267 . S
C10 O25 1.278 . S
C11 Pr1 2.880 . S
C11 C12 1.491 . S
C11 O26 1.254 . S
C11 O27 1.225 . S
C12 C11 1.491 . S
C12 C13 1.392 . S
C12 C17 1.356 . S
C13 C12 1.392 . S
C13 C14 1.368 . S
C13 H36 0.929 . S
C14 C13 1.368 . S
C14 C15 1.386 . S
C14 H37 0.929 . S
C15 C14 1.386 . S
C15 C16 1.373 . S
C16 C15 1.373 . S
C16 C17 1.409 . S
C16 H38 0.931 . S
C17 C12 1.356 . S
C17 C16 1.409 . S
C17 H39 0.930 . S
C18 O28 1.270 . S
C18 O29 1.248 . S
C19 O30 1.267 . S
C19 O31 1.278 . S
O20 Pr0 2.562 . S
O20 C2 1.254 . S
O21 Pr0 2.490 . S
O21 C2 1.225 . S
O22 Pr0 2.695 . S
O22 Pr1 2.436 . S
O22 C9 1.270 . S
O23 Pr0 2.512 . S
O23 C9 1.248 . S
O24 Pr1 2.438 . S
O24 C10 1.267 . S
O25 Pr0 2.437 . S
O25 C10 1.278 . S
O26 Pr1 2.562 . S
O26 C11 1.254 . S
O27 Pr1 2.490 . S
O27 C11 1.225 . S
O28 Pr0 2.436 . S
O28 Pr1 2.695 . S
O28 C18 1.270 . S
O29 Pr1 2.512 . S
O29 C18 1.248 . S
O30 Pr0 2.438 . S
O30 C19 1.267 . S
O31 Pr1 2.437 . S
O31 C19 1.278 . S
H32 C4 0.929 . S
H33 C5 0.929 . S
H34 C7 0.931 . S
H35 C8 0.930 . S
H36 C13 0.929 . S
H37 C14 0.929 . S
H38 C16 0.931 . S
H39 C17 0.930 . S
Pr40 C42 2.880 . S
Pr40 O60 2.562 . S
Pr40 O61 2.490 . S
Pr40 O62 2.695 . S
Pr40 O63 2.512 . S
Pr40 O65 2.437 . S
Pr40 O68 2.436 . S
Pr40 O70 2.438 . S
Pr41 C51 2.880 . S
Pr41 O62 2.436 . S
Pr41 O64 2.438 . S
Pr41 O66 2.562 . S
Pr41 O67 2.490 . S
Pr41 O68 2.695 . S
Pr41 O69 2.512 . S
Pr41 O71 2.437 . S
C42 Pr40 2.880 . S
C42 C43 1.491 . S
C42 O60 1.254 . S
C42 O61 1.225 . S
C43 C42 1.491 . S
C43 C44 1.392 . S
C43 C48 1.356 . S
C44 C43 1.392 . S
C44 C45 1.368 . S
C44 H72 0.929 . S
C45 C44 1.368 . S
C45 C46 1.386 . S
C45 H73 0.929 . S
C46 C45 1.386 . S
C46 C47 1.373 . S
C47 C46 1.373 . S
C47 C48 1.409 . S
C47 H74 0.931 . S
C48 C43 1.356 . S
C48 C47 1.409 . S
C48 H75 0.930 . S
C49 O62 1.270 . S
C49 O63 1.248 . S
C50 O64 1.267 . S
C50 O65 1.278 . S
C51 Pr41 2.880 . S
C51 C52 1.491 . S
C51 O66 1.254 . S
C51 O67 1.225 . S
C52 C51 1.491 . S
C52 C53 1.392 . S
C52 C57 1.356 . S
C53 C52 1.392 . S
C53 C54 1.368 . S
C53 H76 0.929 . S
C54 C53 1.368 . S
C54 C55 1.386 . S
C54 H77 0.929 . S
C55 C54 1.386 . S
C55 C56 1.373 . S
C56 C55 1.373 . S
C56 C57 1.409 . S
C56 H78 0.931 . S
C57 C52 1.356 . S
C57 C56 1.409 . S
C57 H79 0.930 . S
C58 O68 1.270 . S
C58 O69 1.248 . S
C59 O70 1.267 . S
C59 O71 1.278 . S
O60 Pr40 2.562 . S
O60 C42 1.254 . S
O61 Pr40 2.490 . S
O61 C42 1.225 . S
O62 Pr40 2.695 . S
O62 Pr41 2.436 . S
O62 C49 1.270 . S
O63 Pr40 2.512 . S
O63 C49 1.248 . S
O64 Pr41 2.438 . S
O64 C50 1.267 . S
O65 Pr40 2.437 . S
O65 C50 1.278 . S
O66 Pr41 2.562 . S
O66 C51 1.254 . S
O67 Pr41 2.490 . S
O67 C51 1.225 . S
O68 Pr40 2.436 . S
O68 Pr41 2.695 . S
O68 C58 1.270 . S
O69 Pr41 2.512 . S
O69 C58 1.248 . S
O70 Pr40 2.438 . S
O70 C59 1.267 . S
O71 Pr41 2.437 . S
O71 C59 1.278 . S
H72 C44 0.929 . S
H73 C45 0.929 . S
H74 C47 0.931 . S
H75 C48 0.930 . S
H76 C53 0.929 . S
H77 C54 0.929 . S
H78 C56 0.931 . S
H79 C57 0.930 . S
Pr80 C82 2.880 . S
Pr80 O100 2.562 . S
Pr80 O101 2.490 . S
Pr80 O102 2.695 . S
Pr80 O103 2.512 . S
Pr80 O105 2.437 . S
Pr80 O108 2.436 . S
Pr80 O110 2.438 . S
Pr81 C91 2.880 . S
Pr81 O102 2.436 . S
Pr81 O104 2.438 . S
Pr81 O106 2.562 . S
Pr81 O107 2.490 . S
Pr81 O108 2.695 . S
Pr81 O109 2.512 . S
Pr81 O111 2.437 . S
C82 Pr80 2.880 . S
C82 C83 1.491 . S
C82 O100 1.254 . S
C82 O101 1.225 . S
C83 C82 1.491 . S
C83 C84 1.392 . S
C83 C88 1.356 . S
C84 C83 1.392 . S
C84 C85 1.368 . S
C84 H112 0.929 . S
C85 C84 1.368 . S
C85 C86 1.386 . S
C85 H113 0.929 . S
C86 C85 1.386 . S
C86 C87 1.373 . S
C87 C86 1.373 . S
C87 C88 1.409 . S
C87 H114 0.931 . S
C88 C83 1.356 . S
C88 C87 1.409 . S
C88 H115 0.930 . S
C89 O102 1.270 . S
C89 O103 1.248 . S
C90 O104 1.267 . S
C90 O105 1.278 . S
C91 Pr81 2.880 . S
C91 C92 1.491 . S
C91 O106 1.254 . S
C91 O107 1.225 . S
C92 C91 1.491 . S
C92 C93 1.392 . S
C92 C97 1.356 . S
C93 C92 1.392 . S
C93 C94 1.368 . S
C93 H116 0.929 . S
C94 C93 1.368 . S
C94 C95 1.386 . S
C94 H117 0.929 . S
C95 C94 1.386 . S
C95 C96 1.373 . S
C96 C95 1.373 . S
C96 C97 1.409 . S
C96 H118 0.931 . S
C97 C92 1.356 . S
C97 C96 1.409 . S
C97 H119 0.930 . S
C98 O108 1.270 . S
C98 O109 1.248 . S
C99 O110 1.267 . S
C99 O111 1.278 . S
O100 Pr80 2.562 . S
O100 C82 1.254 . S
O101 Pr80 2.490 . S
O101 C82 1.225 . S
O102 Pr80 2.695 . S
O102 Pr81 2.436 . S
O102 C89 1.270 . S
O103 Pr80 2.512 . S
O103 C89 1.248 . S
O104 Pr81 2.438 . S
O104 C90 1.267 . S
O105 Pr80 2.437 . S
O105 C90 1.278 . S
O106 Pr81 2.562 . S
O106 C91 1.254 . S
O107 Pr81 2.490 . S
O107 C91 1.225 . S
O108 Pr80 2.436 . S
O108 Pr81 2.695 . S
O108 C98 1.270 . S
O109 Pr81 2.512 . S
O109 C98 1.248 . S
O110 Pr80 2.438 . S
O110 C99 1.267 . S
O111 Pr81 2.437 . S
O111 C99 1.278 . S
H112 C84 0.929 . S
H113 C85 0.929 . S
H114 C87 0.931 . S
H115 C88 0.930 . S
H116 C93 0.929 . S
H117 C94 0.929 . S
H118 C96 0.931 . S
H119 C97 0.930 . S
Pr120 C122 2.880 . S
Pr120 O140 2.562 . S
Pr120 O141 2.490 . S
Pr120 O142 2.695 . S
Pr120 O143 2.512 . S
Pr120 O145 2.437 . S
Pr120 O148 2.436 . S
Pr120 O150 2.438 . S
Pr121 C131 2.880 . S
Pr121 O142 2.436 . S
Pr121 O144 2.438 . S
Pr121 O146 2.562 . S
Pr121 O147 2.490 . S
Pr121 O148 2.695 . S
Pr121 O149 2.512 . S
Pr121 O151 2.437 . S
C122 Pr120 2.880 . S
C122 C123 1.491 . S
C122 O140 1.254 . S
C122 O141 1.225 . S
C123 C122 1.491 . S
C123 C124 1.392 . S
C123 C128 1.356 . S
C124 C123 1.392 . S
C124 C125 1.368 . S
C124 H152 0.929 . S
C125 C124 1.368 . S
C125 C126 1.386 . S
C125 H153 0.929 . S
C126 C125 1.386 . S
C126 C127 1.373 . S
C127 C126 1.373 . S
C127 C128 1.409 . S
C127 H154 0.931 . S
C128 C123 1.356 . S
C128 C127 1.409 . S
C128 H155 0.930 . S
C129 O142 1.270 . S
C129 O143 1.248 . S
C130 O144 1.267 . S
C130 O145 1.278 . S
C131 Pr121 2.880 . S
C131 C132 1.491 . S
C131 O146 1.254 . S
C131 O147 1.225 . S
C132 C131 1.491 . S
C132 C133 1.392 . S
C132 C137 1.356 . S
C133 C132 1.392 . S
C133 C134 1.368 . S
C133 H156 0.929 . S
C134 C133 1.368 . S
C134 C135 1.386 . S
C134 H157 0.929 . S
C135 C134 1.386 . S
C135 C136 1.373 . S
C136 C135 1.373 . S
C136 C137 1.409 . S
C136 H158 0.931 . S
C137 C132 1.356 . S
C137 C136 1.409 . S
C137 H159 0.930 . S
C138 O148 1.270 . S
C138 O149 1.248 . S
C139 O150 1.267 . S
C139 O151 1.278 . S
O140 Pr120 2.562 . S
O140 C122 1.254 . S
O141 Pr120 2.490 . S
O141 C122 1.225 . S
O142 Pr120 2.695 . S
O142 Pr121 2.436 . S
O142 C129 1.270 . S
O143 Pr120 2.512 . S
O143 C129 1.248 . S
O144 Pr121 2.438 . S
O144 C130 1.267 . S
O145 Pr120 2.437 . S
O145 C130 1.278 . S
O146 Pr121 2.562 . S
O146 C131 1.254 . S
O147 Pr121 2.490 . S
O147 C131 1.225 . S
O148 Pr120 2.436 . S
O148 Pr121 2.695 . S
O148 C138 1.270 . S
O149 Pr121 2.512 . S
O149 C138 1.248 . S
O150 Pr120 2.438 . S
O150 C139 1.267 . S
O151 Pr121 2.437 . S
O151 C139 1.278 . S
H152 C124 0.929 . S
H153 C125 0.929 . S
H154 C127 0.931 . S
H155 C128 0.930 . S
H156 C133 0.929 . S
H157 C134 0.929 . S
H158 C136 0.931 . S
H159 C137 0.930 . S
Pr160 C162 2.880 . S
Pr160 O180 2.562 . S
Pr160 O181 2.490 . S
Pr160 O182 2.695 . S
Pr160 O183 2.512 . S
Pr160 O185 2.437 . S
Pr160 O188 2.436 . S
Pr160 O190 2.438 . S
Pr161 C171 2.880 . S
Pr161 O182 2.436 . S
Pr161 O184 2.438 . S
Pr161 O186 2.562 . S
Pr161 O187 2.490 . S
Pr161 O188 2.695 . S
Pr161 O189 2.512 . S
Pr161 O191 2.437 . S
C162 Pr160 2.880 . S
C162 C163 1.491 . S
C162 O180 1.254 . S
C162 O181 1.225 . S
C163 C162 1.491 . S
C163 C164 1.392 . S
C163 C168 1.356 . S
C164 C163 1.392 . S
C164 C165 1.368 . S
C164 H192 0.929 . S
C165 C164 1.368 . S
C165 C166 1.386 . S
C165 H193 0.929 . S
C166 C165 1.386 . S
C166 C167 1.373 . S
C167 C166 1.373 . S
C167 C168 1.409 . S
C167 H194 0.931 . S
C168 C163 1.356 . S
C168 C167 1.409 . S
C168 H195 0.930 . S
C169 O182 1.270 . S
C169 O183 1.248 . S
C170 O184 1.267 . S
C170 O185 1.278 . S
C171 Pr161 2.880 . S
C171 C172 1.491 . S
C171 O186 1.254 . S
C171 O187 1.225 . S
C172 C171 1.491 . S
C172 C173 1.392 . S
C172 C177 1.356 . S
C173 C172 1.392 . S
C173 C174 1.368 . S
C173 H196 0.929 . S
C174 C173 1.368 . S
C174 C175 1.386 . S
C174 H197 0.929 . S
C175 C174 1.386 . S
C175 C176 1.373 . S
C176 C175 1.373 . S
C176 C177 1.409 . S
C176 H198 0.931 . S
C177 C172 1.356 . S
C177 C176 1.409 . S
C177 H199 0.930 . S
C178 O188 1.270 . S
C178 O189 1.248 . S
C179 O190 1.267 . S
C179 O191 1.278 . S
O180 Pr160 2.562 . S
O180 C162 1.254 . S
O181 Pr160 2.490 . S
O181 C162 1.225 . S
O182 Pr160 2.695 . S
O182 Pr161 2.436 . S
O182 C169 1.270 . S
O183 Pr160 2.512 . S
O183 C169 1.248 . S
O184 Pr161 2.438 . S
O184 C170 1.267 . S
O185 Pr160 2.437 . S
O185 C170 1.278 . S
O186 Pr161 2.562 . S
O186 C171 1.254 . S
O187 Pr161 2.490 . S
O187 C171 1.225 . S
O188 Pr160 2.436 . S
O188 Pr161 2.695 . S
O188 C178 1.270 . S
O189 Pr161 2.512 . S
O189 C178 1.248 . S
O190 Pr160 2.438 . S
O190 C179 1.267 . S
O191 Pr161 2.437 . S
O191 C179 1.278 . S
H192 C164 0.929 . S
H193 C165 0.929 . S
H194 C167 0.931 . S
H195 C168 0.930 . S
H196 C173 0.929 . S
H197 C174 0.929 . S
H198 C176 0.931 . S
H199 C177 0.930 . S
Pr200 C202 2.880 . S
Pr200 O220 2.562 . S
Pr200 O221 2.490 . S
Pr200 O222 2.695 . S
Pr200 O223 2.512 . S
Pr200 O225 2.437 . S
Pr200 O228 2.436 . S
Pr200 O230 2.438 . S
Pr201 C211 2.880 . S
Pr201 O222 2.436 . S
Pr201 O224 2.438 . S
Pr201 O226 2.562 . S
Pr201 O227 2.490 . S
Pr201 O228 2.695 . S
Pr201 O229 2.512 . S
Pr201 O231 2.437 . S
C202 Pr200 2.880 . S
C202 C203 1.491 . S
C202 O220 1.254 . S
C202 O221 1.225 . S
C203 C202 1.491 . S
C203 C204 1.392 . S
C203 C208 1.356 . S
C204 C203 1.392 . S
C204 C205 1.368 . S
C204 H232 0.929 . S
C205 C204 1.368 . S
C205 C206 1.386 . S
C205 H233 0.929 . S
C206 C205 1.386 . S
C206 C207 1.373 . S
C207 C206 1.373 . S
C207 C208 1.409 . S
C207 H234 0.931 . S
C208 C203 1.356 . S
C208 C207 1.409 . S
C208 H235 0.930 . S
C209 O222 1.270 . S
C209 O223 1.248 . S
C210 O224 1.267 . S
C210 O225 1.278 . S
C211 Pr201 2.880 . S
C211 C212 1.491 . S
C211 O226 1.254 . S
C211 O227 1.225 . S
C212 C211 1.491 . S
C212 C213 1.392 . S
C212 C217 1.356 . S
C213 C212 1.392 . S
C213 C214 1.368 . S
C213 H236 0.929 . S
C214 C213 1.368 . S
C214 C215 1.386 . S
C214 H237 0.929 . S
C215 C214 1.386 . S
C215 C216 1.373 . S
C216 C215 1.373 . S
C216 C217 1.409 . S
C216 H238 0.931 . S
C217 C212 1.356 . S
C217 C216 1.409 . S
C217 H239 0.930 . S
C218 O228 1.270 . S
C218 O229 1.248 . S
C219 O230 1.267 . S
C219 O231 1.278 . S
O220 Pr200 2.562 . S
O220 C202 1.254 . S
O221 Pr200 2.490 . S
O221 C202 1.225 . S
O222 Pr200 2.695 . S
O222 Pr201 2.436 . S
O222 C209 1.270 . S
O223 Pr200 2.512 . S
O223 C209 1.248 . S
O224 Pr201 2.438 . S
O224 C210 1.267 . S
O225 Pr200 2.437 . S
O225 C210 1.278 . S
O226 Pr201 2.562 . S
O226 C211 1.254 . S
O227 Pr201 2.490 . S
O227 C211 1.225 . S
O228 Pr200 2.436 . S
O228 Pr201 2.695 . S
O228 C218 1.270 . S
O229 Pr201 2.512 . S
O229 C218 1.248 . S
O230 Pr200 2.438 . S
O230 C219 1.267 . S
O231 Pr201 2.437 . S
O231 C219 1.278 . S
H232 C204 0.929 . S
H233 C205 0.929 . S
H234 C207 0.931 . S
H235 C208 0.930 . S
H236 C213 0.929 . S
H237 C214 0.929 . S
H238 C216 0.931 . S
H239 C217 0.930 . S
Pr240 C242 2.880 . S
Pr240 O260 2.562 . S
Pr240 O261 2.490 . S
Pr240 O262 2.695 . S
Pr240 O263 2.512 . S
Pr240 O265 2.437 . S
Pr240 O268 2.436 . S
Pr240 O270 2.438 . S
Pr241 C251 2.880 . S
Pr241 O262 2.436 . S
Pr241 O264 2.438 . S
Pr241 O266 2.562 . S
Pr241 O267 2.490 . S
Pr241 O268 2.695 . S
Pr241 O269 2.512 . S
Pr241 O271 2.437 . S
C242 Pr240 2.880 . S
C242 C243 1.491 . S
C242 O260 1.254 . S
C242 O261 1.225 . S
C243 C242 1.491 . S
C243 C244 1.392 . S
C243 C248 1.356 . S
C244 C243 1.392 . S
C244 C245 1.368 . S
C244 H272 0.929 . S
C245 C244 1.368 . S
C245 C246 1.386 . S
C245 H273 0.929 . S
C246 C245 1.386 . S
C246 C247 1.373 . S
C247 C246 1.373 . S
C247 C248 1.409 . S
C247 H274 0.931 . S
C248 C243 1.356 . S
C248 C247 1.409 . S
C248 H275 0.930 . S
C249 O262 1.270 . S
C249 O263 1.248 . S
C250 O264 1.267 . S
C250 O265 1.278 . S
C251 Pr241 2.880 . S
C251 C252 1.491 . S
C251 O266 1.254 . S
C251 O267 1.225 . S
C252 C251 1.491 . S
C252 C253 1.392 . S
C252 C257 1.356 . S
C253 C252 1.392 . S
C253 C254 1.368 . S
C253 H276 0.929 . S
C254 C253 1.368 . S
C254 C255 1.386 . S
C254 H277 0.929 . S
C255 C254 1.386 . S
C255 C256 1.373 . S
C256 C255 1.373 . S
C256 C257 1.409 . S
C256 H278 0.931 . S
C257 C252 1.356 . S
C257 C256 1.409 . S
C257 H279 0.930 . S
C258 O268 1.270 . S
C258 O269 1.248 . S
C259 O270 1.267 . S
C259 O271 1.278 . S
O260 Pr240 2.562 . S
O260 C242 1.254 . S
O261 Pr240 2.490 . S
O261 C242 1.225 . S
O262 Pr240 2.695 . S
O262 Pr241 2.436 . S
O262 C249 1.270 . S
O263 Pr240 2.512 . S
O263 C249 1.248 . S
O264 Pr241 2.438 . S
O264 C250 1.267 . S
O265 Pr240 2.437 . S
O265 C250 1.278 . S
O266 Pr241 2.562 . S
O266 C251 1.254 . S
O267 Pr241 2.490 . S
O267 C251 1.225 . S
O268 Pr240 2.436 . S
O268 Pr241 2.695 . S
O268 C258 1.270 . S
O269 Pr241 2.512 . S
O269 C258 1.248 . S
O270 Pr240 2.438 . S
O270 C259 1.267 . S
O271 Pr241 2.437 . S
O271 C259 1.278 . S
H272 C244 0.929 . S
H273 C245 0.929 . S
H274 C247 0.931 . S
H275 C248 0.930 . S
H276 C253 0.929 . S
H277 C254 0.929 . S
H278 C256 0.931 . S
H279 C257 0.930 . S
Pr280 C282 2.880 . S
Pr280 O300 2.562 . S
Pr280 O301 2.490 . S
Pr280 O302 2.695 . S
Pr280 O303 2.512 . S
Pr280 O305 2.437 . S
Pr280 O308 2.436 . S
Pr280 O310 2.438 . S
Pr281 C291 2.880 . S
Pr281 O302 2.436 . S
Pr281 O304 2.438 . S
Pr281 O306 2.562 . S
Pr281 O307 2.490 . S
Pr281 O308 2.695 . S
Pr281 O309 2.512 . S
Pr281 O311 2.437 . S
C282 Pr280 2.880 . S
C282 C283 1.491 . S
C282 O300 1.254 . S
C282 O301 1.225 . S
C283 C282 1.491 . S
C283 C284 1.392 . S
C283 C288 1.356 . S
C284 C283 1.392 . S
C284 C285 1.368 . S
C284 H312 0.929 . S
C285 C284 1.368 . S
C285 C286 1.386 . S
C285 H313 0.929 . S
C286 C285 1.386 . S
C286 C287 1.373 . S
C287 C286 1.373 . S
C287 C288 1.409 . S
C287 H314 0.931 . S
C288 C283 1.356 . S
C288 C287 1.409 . S
C288 H315 0.930 . S
C289 O302 1.270 . S
C289 O303 1.248 . S
C290 O304 1.267 . S
C290 O305 1.278 . S
C291 Pr281 2.880 . S
C291 C292 1.491 . S
C291 O306 1.254 . S
C291 O307 1.225 . S
C292 C291 1.491 . S
C292 C293 1.392 . S
C292 C297 1.356 . S
C293 C292 1.392 . S
C293 C294 1.368 . S
C293 H316 0.929 . S
C294 C293 1.368 . S
C294 C295 1.386 . S
C294 H317 0.929 . S
C295 C294 1.386 . S
C295 C296 1.373 . S
C296 C295 1.373 . S
C296 C297 1.409 . S
C296 H318 0.931 . S
C297 C292 1.356 . S
C297 C296 1.409 . S
C297 H319 0.930 . S
C298 O308 1.270 . S
C298 O309 1.248 . S
C299 O310 1.267 . S
C299 O311 1.278 . S
O300 Pr280 2.562 . S
O300 C282 1.254 . S
O301 Pr280 2.490 . S
O301 C282 1.225 . S
O302 Pr280 2.695 . S
O302 Pr281 2.436 . S
O302 C289 1.270 . S
O303 Pr280 2.512 . S
O303 C289 1.248 . S
O304 Pr281 2.438 . S
O304 C290 1.267 . S
O305 Pr280 2.437 . S
O305 C290 1.278 . S
O306 Pr281 2.562 . S
O306 C291 1.254 . S
O307 Pr281 2.490 . S
O307 C291 1.225 . S
O308 Pr280 2.436 . S
O308 Pr281 2.695 . S
O308 C298 1.270 . S
O309 Pr281 2.512 . S
O309 C298 1.248 . S
O310 Pr280 2.438 . S
O310 C299 1.267 . S
O311 Pr281 2.437 . S
O311 C299 1.278 . S
H312 C284 0.929 . S
H313 C285 0.929 . S
H314 C287 0.931 . S
H315 C288 0.930 . S
H316 C293 0.929 . S
H317 C294 0.929 . S
H318 C296 0.931 . S
H319 C297 0.930 . S
Pr320 C322 2.880 . S
Pr320 O340 2.562 . S
Pr320 O341 2.490 . S
Pr320 O342 2.695 . S
Pr320 O343 2.512 . S
Pr320 O345 2.437 . S
Pr320 O348 2.436 . S
Pr320 O350 2.438 . S
Pr321 C331 2.880 . S
Pr321 O342 2.436 . S
Pr321 O344 2.438 . S
Pr321 O346 2.562 . S
Pr321 O347 2.490 . S
Pr321 O348 2.695 . S
Pr321 O349 2.512 . S
Pr321 O351 2.437 . S
C322 Pr320 2.880 . S
C322 C323 1.491 . S
C322 O340 1.254 . S
C322 O341 1.225 . S
C323 C322 1.491 . S
C323 C324 1.392 . S
C323 C328 1.356 . S
C324 C323 1.392 . S
C324 C325 1.368 . S
C324 H352 0.929 . S
C325 C324 1.368 . S
C325 C326 1.386 . S
C325 H353 0.929 . S
C326 C325 1.386 . S
C326 C327 1.373 . S
C327 C326 1.373 . S
C327 C328 1.409 . S
C327 H354 0.931 . S
C328 C323 1.356 . S
C328 C327 1.409 . S
C328 H355 0.930 . S
C329 O342 1.270 . S
C329 O343 1.248 . S
C330 O344 1.267 . S
C330 O345 1.278 . S
C331 Pr321 2.880 . S
C331 C332 1.491 . S
C331 O346 1.254 . S
C331 O347 1.225 . S
C332 C331 1.491 . S
C332 C333 1.392 . S
C332 C337 1.356 . S
C333 C332 1.392 . S
C333 C334 1.368 . S
C333 H356 0.929 . S
C334 C333 1.368 . S
C334 C335 1.386 . S
C334 H357 0.929 . S
C335 C334 1.386 . S
C335 C336 1.373 . S
C336 C335 1.373 . S
C336 C337 1.409 . S
C336 H358 0.931 . S
C337 C332 1.356 . S
C337 C336 1.409 . S
C337 H359 0.930 . S
C338 O348 1.270 . S
C338 O349 1.248 . S
C339 O350 1.267 . S
C339 O351 1.278 . S
O340 Pr320 2.562 . S
O340 C322 1.254 . S
O341 Pr320 2.490 . S
O341 C322 1.225 . S
O342 Pr320 2.695 . S
O342 Pr321 2.436 . S
O342 C329 1.270 . S
O343 Pr320 2.512 . S
O343 C329 1.248 . S
O344 Pr321 2.438 . S
O344 C330 1.267 . S
O345 Pr320 2.437 . S
O345 C330 1.278 . S
O346 Pr321 2.562 . S
O346 C331 1.254 . S
O347 Pr321 2.490 . S
O347 C331 1.225 . S
O348 Pr320 2.436 . S
O348 Pr321 2.695 . S
O348 C338 1.270 . S
O349 Pr321 2.512 . S
O349 C338 1.248 . S
O350 Pr320 2.438 . S
O350 C339 1.267 . S
O351 Pr321 2.437 . S
O351 C339 1.278 . S
H352 C324 0.929 . S
H353 C325 0.929 . S
H354 C327 0.931 . S
H355 C328 0.930 . S
H356 C333 0.929 . S
H357 C334 0.929 . S
H358 C336 0.931 . S
H359 C337 0.930 . S
Pr360 C362 2.880 . S
Pr360 O380 2.562 . S
Pr360 O381 2.490 . S
Pr360 O382 2.695 . S
Pr360 O383 2.512 . S
Pr360 O385 2.437 . S
Pr360 O388 2.436 . S
Pr360 O390 2.438 . S
Pr361 C371 2.880 . S
Pr361 O382 2.436 . S
Pr361 O384 2.438 . S
Pr361 O386 2.562 . S
Pr361 O387 2.490 . S
Pr361 O388 2.695 . S
Pr361 O389 2.512 . S
Pr361 O391 2.437 . S
C362 Pr360 2.880 . S
C362 C363 1.491 . S
C362 O380 1.254 . S
C362 O381 1.225 . S
C363 C362 1.491 . S
C363 C364 1.392 . S
C363 C368 1.356 . S
C364 C363 1.392 . S
C364 C365 1.368 . S
C364 H392 0.929 . S
C365 C364 1.368 . S
C365 C366 1.386 . S
C365 H393 0.929 . S
C366 C365 1.386 . S
C366 C367 1.373 . S
C367 C366 1.373 . S
C367 C368 1.409 . S
C367 H394 0.931 . S
C368 C363 1.356 . S
C368 C367 1.409 . S
C368 H395 0.930 . S
C369 O382 1.270 . S
C369 O383 1.248 . S
C370 O384 1.267 . S
C370 O385 1.278 . S
C371 Pr361 2.880 . S
C371 C372 1.491 . S
C371 O386 1.254 . S
C371 O387 1.225 . S
C372 C371 1.491 . S
C372 C373 1.392 . S
C372 C377 1.356 . S
C373 C372 1.392 . S
C373 C374 1.368 . S
C373 H396 0.929 . S
C374 C373 1.368 . S
C374 C375 1.386 . S
C374 H397 0.929 . S
C375 C374 1.386 . S
C375 C376 1.373 . S
C376 C375 1.373 . S
C376 C377 1.409 . S
C376 H398 0.931 . S
C377 C372 1.356 . S
C377 C376 1.409 . S
C377 H399 0.930 . S
C378 O388 1.270 . S
C378 O389 1.248 . S
C379 O390 1.267 . S
C379 O391 1.278 . S
O380 Pr360 2.562 . S
O380 C362 1.254 . S
O381 Pr360 2.490 . S
O381 C362 1.225 . S
O382 Pr360 2.695 . S
O382 Pr361 2.436 . S
O382 C369 1.270 . S
O383 Pr360 2.512 . S
O383 C369 1.248 . S
O384 Pr361 2.438 . S
O384 C370 1.267 . S
O385 Pr360 2.437 . S
O385 C370 1.278 . S
O386 Pr361 2.562 . S
O386 C371 1.254 . S
O387 Pr361 2.490 . S
O387 C371 1.225 . S
O388 Pr360 2.436 . S
O388 Pr361 2.695 . S
O388 C378 1.270 . S
O389 Pr361 2.512 . S
O389 C378 1.248 . S
O390 Pr360 2.438 . S
O390 C379 1.267 . S
O391 Pr361 2.437 . S
O391 C379 1.278 . S
H392 C364 0.929 . S
H393 C365 0.929 . S
H394 C367 0.931 . S
H395 C368 0.930 . S
H396 C373 0.929 . S
H397 C374 0.929 . S
H398 C376 0.931 . S
H399 C377 0.930 . S
Pr400 C402 2.880 . S
Pr400 O420 2.562 . S
Pr400 O421 2.490 . S
Pr400 O422 2.695 . S
Pr400 O423 2.512 . S
Pr400 O425 2.437 . S
Pr400 O428 2.436 . S
Pr400 O430 2.438 . S
Pr401 C411 2.880 . S
Pr401 O422 2.436 . S
Pr401 O424 2.438 . S
Pr401 O426 2.562 . S
Pr401 O427 2.490 . S
Pr401 O428 2.695 . S
Pr401 O429 2.512 . S
Pr401 O431 2.437 . S
C402 Pr400 2.880 . S
C402 C403 1.491 . S
C402 O420 1.254 . S
C402 O421 1.225 . S
C403 C402 1.491 . S
C403 C404 1.392 . S
C403 C408 1.356 . S
C404 C403 1.392 . S
C404 C405 1.368 . S
C404 H432 0.929 . S
C405 C404 1.368 . S
C405 C406 1.386 . S
C405 H433 0.929 . S
C406 C405 1.386 . S
C406 C407 1.373 . S
C407 C406 1.373 . S
C407 C408 1.409 . S
C407 H434 0.931 . S
C408 C403 1.356 . S
C408 C407 1.409 . S
C408 H435 0.930 . S
C409 O422 1.270 . S
C409 O423 1.248 . S
C410 O424 1.267 . S
C410 O425 1.278 . S
C411 Pr401 2.880 . S
C411 C412 1.491 . S
C411 O426 1.254 . S
C411 O427 1.225 . S
C412 C411 1.491 . S
C412 C413 1.392 . S
C412 C417 1.356 . S
C413 C412 1.392 . S
C413 C414 1.368 . S
C413 H436 0.929 . S
C414 C413 1.368 . S
C414 C415 1.386 . S
C414 H437 0.929 . S
C415 C414 1.386 . S
C415 C416 1.373 . S
C416 C415 1.373 . S
C416 C417 1.409 . S
C416 H438 0.931 . S
C417 C412 1.356 . S
C417 C416 1.409 . S
C417 H439 0.930 . S
C418 O428 1.270 . S
C418 O429 1.248 . S
C419 O430 1.267 . S
C419 O431 1.278 . S
O420 Pr400 2.562 . S
O420 C402 1.254 . S
O421 Pr400 2.490 . S
O421 C402 1.225 . S
O422 Pr400 2.695 . S
O422 Pr401 2.436 . S
O422 C409 1.270 . S
O423 Pr400 2.512 . S
O423 C409 1.248 . S
O424 Pr401 2.438 . S
O424 C410 1.267 . S
O425 Pr400 2.437 . S
O425 C410 1.278 . S
O426 Pr401 2.562 . S
O426 C411 1.254 . S
O427 Pr401 2.490 . S
O427 C411 1.225 . S
O428 Pr400 2.436 . S
O428 Pr401 2.695 . S
O428 C418 1.270 . S
O429 Pr401 2.512 . S
O429 C418 1.248 . S
O430 Pr400 2.438 . S
O430 C419 1.267 . S
O431 Pr401 2.437 . S
O431 C419 1.278 . S
H432 C404 0.929 . S
H433 C405 0.929 . S
H434 C407 0.931 . S
H435 C408 0.930 . S
H436 C413 0.929 . S
H437 C414 0.929 . S
H438 C416 0.931 . S
H439 C417 0.930 . S
Pr440 C442 2.880 . S
Pr440 O460 2.562 . S
Pr440 O461 2.490 . S
Pr440 O462 2.695 . S
Pr440 O463 2.512 . S
Pr440 O465 2.437 . S
Pr440 O468 2.436 . S
Pr440 O470 2.438 . S
Pr441 C451 2.880 . S
Pr441 O462 2.436 . S
Pr441 O464 2.438 . S
Pr441 O466 2.562 . S
Pr441 O467 2.490 . S
Pr441 O468 2.695 . S
Pr441 O469 2.512 . S
Pr441 O471 2.437 . S
C442 Pr440 2.880 . S
C442 C443 1.491 . S
C442 O460 1.254 . S
C442 O461 1.225 . S
C443 C442 1.491 . S
C443 C444 1.392 . S
C443 C448 1.356 . S
C444 C443 1.392 . S
C444 C445 1.368 . S
C444 H472 0.929 . S
C445 C444 1.368 . S
C445 C446 1.386 . S
C445 H473 0.929 . S
C446 C445 1.386 . S
C446 C447 1.373 . S
C447 C446 1.373 . S
C447 C448 1.409 . S
C447 H474 0.931 . S
C448 C443 1.356 . S
C448 C447 1.409 . S
C448 H475 0.930 . S
C449 O462 1.270 . S
C449 O463 1.248 . S
C450 O464 1.267 . S
C450 O465 1.278 . S
C451 Pr441 2.880 . S
C451 C452 1.491 . S
C451 O466 1.254 . S
C451 O467 1.225 . S
C452 C451 1.491 . S
C452 C453 1.392 . S
C452 C457 1.356 . S
C453 C452 1.392 . S
C453 C454 1.368 . S
C453 H476 0.929 . S
C454 C453 1.368 . S
C454 C455 1.386 . S
C454 H477 0.929 . S
C455 C454 1.386 . S
C455 C456 1.373 . S
C456 C455 1.373 . S
C456 C457 1.409 . S
C456 H478 0.931 . S
C457 C452 1.356 . S
C457 C456 1.409 . S
C457 H479 0.930 . S
C458 O468 1.270 . S
C458 O469 1.248 . S
C459 O470 1.267 . S
C459 O471 1.278 . S
O460 Pr440 2.562 . S
O460 C442 1.254 . S
O461 Pr440 2.490 . S
O461 C442 1.225 . S
O462 Pr440 2.695 . S
O462 Pr441 2.436 . S
O462 C449 1.270 . S
O463 Pr440 2.512 . S
O463 C449 1.248 . S
O464 Pr441 2.438 . S
O464 C450 1.267 . S
O465 Pr440 2.437 . S
O465 C450 1.278 . S
O466 Pr441 2.562 . S
O466 C451 1.254 . S
O467 Pr441 2.490 . S
O467 C451 1.225 . S
O468 Pr440 2.436 . S
O468 Pr441 2.695 . S
O468 C458 1.270 . S
O469 Pr441 2.512 . S
O469 C458 1.248 . S
O470 Pr440 2.438 . S
O470 C459 1.267 . S
O471 Pr441 2.437 . S
O471 C459 1.278 . S
H472 C444 0.929 . S
H473 C445 0.929 . S
H474 C447 0.931 . S
H475 C448 0.930 . S
H476 C453 0.929 . S
H477 C454 0.929 . S
H478 C456 0.931 . S
H479 C457 0.930 . S
Pr480 C482 2.880 . S
Pr480 O500 2.562 . S
Pr480 O501 2.490 . S
Pr480 O502 2.695 . S
Pr480 O503 2.512 . S
Pr480 O505 2.437 . S
Pr480 O508 2.436 . S
Pr480 O510 2.438 . S
Pr481 C491 2.880 . S
Pr481 O502 2.436 . S
Pr481 O504 2.438 . S
Pr481 O506 2.562 . S
Pr481 O507 2.490 . S
Pr481 O508 2.695 . S
Pr481 O509 2.512 . S
Pr481 O511 2.437 . S
C482 Pr480 2.880 . S
C482 C483 1.491 . S
C482 O500 1.254 . S
C482 O501 1.225 . S
C483 C482 1.491 . S
C483 C484 1.392 . S
C483 C488 1.356 . S
C484 C483 1.392 . S
C484 C485 1.368 . S
C484 H512 0.929 . S
C485 C484 1.368 . S
C485 C486 1.386 . S
C485 H513 0.929 . S
C486 C485 1.386 . S
C486 C487 1.373 . S
C487 C486 1.373 . S
C487 C488 1.409 . S
C487 H514 0.931 . S
C488 C483 1.356 . S
C488 C487 1.409 . S
C488 H515 0.930 . S
C489 O502 1.270 . S
C489 O503 1.248 . S
C490 O504 1.267 . S
C490 O505 1.278 . S
C491 Pr481 2.880 . S
C491 C492 1.491 . S
C491 O506 1.254 . S
C491 O507 1.225 . S
C492 C491 1.491 . S
C492 C493 1.392 . S
C492 C497 1.356 . S
C493 C492 1.392 . S
C493 C494 1.368 . S
C493 H516 0.929 . S
C494 C493 1.368 . S
C494 C495 1.386 . S
C494 H517 0.929 . S
C495 C494 1.386 . S
C495 C496 1.373 . S
C496 C495 1.373 . S
C496 C497 1.409 . S
C496 H518 0.931 . S
C497 C492 1.356 . S
C497 C496 1.409 . S
C497 H519 0.930 . S
C498 O508 1.270 . S
C498 O509 1.248 . S
C499 O510 1.267 . S
C499 O511 1.278 . S
O500 Pr480 2.562 . S
O500 C482 1.254 . S
O501 Pr480 2.490 . S
O501 C482 1.225 . S
O502 Pr480 2.695 . S
O502 Pr481 2.436 . S
O502 C489 1.270 . S
O503 Pr480 2.512 . S
O503 C489 1.248 . S
O504 Pr481 2.438 . S
O504 C490 1.267 . S
O505 Pr480 2.437 . S
O505 C490 1.278 . S
O506 Pr481 2.562 . S
O506 C491 1.254 . S
O507 Pr481 2.490 . S
O507 C491 1.225 . S
O508 Pr480 2.436 . S
O508 Pr481 2.695 . S
O508 C498 1.270 . S
O509 Pr481 2.512 . S
O509 C498 1.248 . S
O510 Pr480 2.438 . S
O510 C499 1.267 . S
O511 Pr481 2.437 . S
O511 C499 1.278 . S
H512 C484 0.929 . S
H513 C485 0.929 . S
H514 C487 0.931 . S
H515 C488 0.930 . S
H516 C493 0.929 . S
H517 C494 0.929 . S
H518 C496 0.931 . S
H519 C497 0.930 . S
Pr520 C522 2.880 . S
Pr520 O540 2.562 . S
Pr520 O541 2.490 . S
Pr520 O542 2.695 . S
Pr520 O543 2.512 . S
Pr520 O545 2.437 . S
Pr520 O548 2.436 . S
Pr520 O550 2.438 . S
Pr521 C531 2.880 . S
Pr521 O542 2.436 . S
Pr521 O544 2.438 . S
Pr521 O546 2.562 . S
Pr521 O547 2.490 . S
Pr521 O548 2.695 . S
Pr521 O549 2.512 . S
Pr521 O551 2.437 . S
C522 Pr520 2.880 . S
C522 C523 1.491 . S
C522 O540 1.254 . S
C522 O541 1.225 . S
C523 C522 1.491 . S
C523 C524 1.392 . S
C523 C528 1.356 . S
C524 C523 1.392 . S
C524 C525 1.368 . S
C524 H552 0.929 . S
C525 C524 1.368 . S
C525 C526 1.386 . S
C525 H553 0.929 . S
C526 C525 1.386 . S
C526 C527 1.373 . S
C527 C526 1.373 . S
C527 C528 1.409 . S
C527 H554 0.931 . S
C528 C523 1.356 . S
C528 C527 1.409 . S
C528 H555 0.930 . S
C529 O542 1.270 . S
C529 O543 1.248 . S
C530 O544 1.267 . S
C530 O545 1.278 . S
C531 Pr521 2.880 . S
C531 C532 1.491 . S
C531 O546 1.254 . S
C531 O547 1.225 . S
C532 C531 1.491 . S
C532 C533 1.392 . S
C532 C537 1.356 . S
C533 C532 1.392 . S
C533 C534 1.368 . S
C533 H556 0.929 . S
C534 C533 1.368 . S
C534 C535 1.386 . S
C534 H557 0.929 . S
C535 C534 1.386 . S
C535 C536 1.373 . S
C536 C535 1.373 . S
C536 C537 1.409 . S
C536 H558 0.931 . S
C537 C532 1.356 . S
C537 C536 1.409 . S
C537 H559 0.930 . S
C538 O548 1.270 . S
C538 O549 1.248 . S
C539 O550 1.267 . S
C539 O551 1.278 . S
O540 Pr520 2.562 . S
O540 C522 1.254 . S
O541 Pr520 2.490 . S
O541 C522 1.225 . S
O542 Pr520 2.695 . S
O542 Pr521 2.436 . S
O542 C529 1.270 . S
O543 Pr520 2.512 . S
O543 C529 1.248 . S
O544 Pr521 2.438 . S
O544 C530 1.267 . S
O545 Pr520 2.437 . S
O545 C530 1.278 . S
O546 Pr521 2.562 . S
O546 C531 1.254 . S
O547 Pr521 2.490 . S
O547 C531 1.225 . S
O548 Pr520 2.436 . S
O548 Pr521 2.695 . S
O548 C538 1.270 . S
O549 Pr521 2.512 . S
O549 C538 1.248 . S
O550 Pr520 2.438 . S
O550 C539 1.267 . S
O551 Pr521 2.437 . S
O551 C539 1.278 . S
H552 C524 0.929 . S
H553 C525 0.929 . S
H554 C527 0.931 . S
H555 C528 0.930 . S
H556 C533 0.929 . S
H557 C534 0.929 . S
H558 C536 0.931 . S
H559 C537 0.930 . S
Pr560 C562 2.880 . S
Pr560 O580 2.562 . S
Pr560 O581 2.490 . S
Pr560 O582 2.695 . S
Pr560 O583 2.512 . S
Pr560 O585 2.437 . S
Pr560 O588 2.436 . S
Pr560 O590 2.438 . S
Pr561 C571 2.880 . S
Pr561 O582 2.436 . S
Pr561 O584 2.438 . S
Pr561 O586 2.562 . S
Pr561 O587 2.490 . S
Pr561 O588 2.695 . S
Pr561 O589 2.512 . S
Pr561 O591 2.437 . S
C562 Pr560 2.880 . S
C562 C563 1.491 . S
C562 O580 1.254 . S
C562 O581 1.225 . S
C563 C562 1.491 . S
C563 C564 1.392 . S
C563 C568 1.356 . S
C564 C563 1.392 . S
C564 C565 1.368 . S
C564 H592 0.929 . S
C565 C564 1.368 . S
C565 C566 1.386 . S
C565 H593 0.929 . S
C566 C565 1.386 . S
C566 C567 1.373 . S
C567 C566 1.373 . S
C567 C568 1.409 . S
C567 H594 0.931 . S
C568 C563 1.356 . S
C568 C567 1.409 . S
C568 H595 0.930 . S
C569 O582 1.270 . S
C569 O583 1.248 . S
C570 O584 1.267 . S
C570 O585 1.278 . S
C571 Pr561 2.880 . S
C571 C572 1.491 . S
C571 O586 1.254 . S
C571 O587 1.225 . S
C572 C571 1.491 . S
C572 C573 1.392 . S
C572 C577 1.356 . S
C573 C572 1.392 . S
C573 C574 1.368 . S
C573 H596 0.929 . S
C574 C573 1.368 . S
C574 C575 1.386 . S
C574 H597 0.929 . S
C575 C574 1.386 . S
C575 C576 1.373 . S
C576 C575 1.373 . S
C576 C577 1.409 . S
C576 H598 0.931 . S
C577 C572 1.356 . S
C577 C576 1.409 . S
C577 H599 0.930 . S
C578 O588 1.270 . S
C578 O589 1.248 . S
C579 O590 1.267 . S
C579 O591 1.278 . S
O580 Pr560 2.562 . S
O580 C562 1.254 . S
O581 Pr560 2.490 . S
O581 C562 1.225 . S
O582 Pr560 2.695 . S
O582 Pr561 2.436 . S
O582 C569 1.270 . S
O583 Pr560 2.512 . S
O583 C569 1.248 . S
O584 Pr561 2.438 . S
O584 C570 1.267 . S
O585 Pr560 2.437 . S
O585 C570 1.278 . S
O586 Pr561 2.562 . S
O586 C571 1.254 . S
O587 Pr561 2.490 . S
O587 C571 1.225 . S
O588 Pr560 2.436 . S
O588 Pr561 2.695 . S
O588 C578 1.270 . S
O589 Pr561 2.512 . S
O589 C578 1.248 . S
O590 Pr560 2.438 . S
O590 C579 1.267 . S
O591 Pr561 2.437 . S
O591 C579 1.278 . S
H592 C564 0.929 . S
H593 C565 0.929 . S
H594 C567 0.931 . S
H595 C568 0.930 . S
H596 C573 0.929 . S
H597 C574 0.929 . S
H598 C576 0.931 . S
H599 C577 0.930 . S
Pr600 C602 2.880 . S
Pr600 O620 2.562 . S
Pr600 O621 2.490 . S
Pr600 O622 2.695 . S
Pr600 O623 2.512 . S
Pr600 O625 2.437 . S
Pr600 O628 2.436 . S
Pr600 O630 2.438 . S
Pr601 C611 2.880 . S
Pr601 O622 2.436 . S
Pr601 O624 2.438 . S
Pr601 O626 2.562 . S
Pr601 O627 2.490 . S
Pr601 O628 2.695 . S
Pr601 O629 2.512 . S
Pr601 O631 2.437 . S
C602 Pr600 2.880 . S
C602 C603 1.491 . S
C602 O620 1.254 . S
C602 O621 1.225 . S
C603 C602 1.491 . S
C603 C604 1.392 . S
C603 C608 1.356 . S
C604 C603 1.392 . S
C604 C605 1.368 . S
C604 H632 0.929 . S
C605 C604 1.368 . S
C605 C606 1.386 . S
C605 H633 0.929 . S
C606 C605 1.386 . S
C606 C607 1.373 1_655 S
C607 C606 1.373 1_455 S
C607 C608 1.409 1_455 S
C607 H634 0.931 . S
C608 C603 1.356 . S
C608 C607 1.409 1_655 S
C608 H635 0.930 1_655 S
C609 O622 1.270 . S
C609 O623 1.248 . S
C610 O624 1.267 . S
C610 O625 1.278 . S
C611 Pr601 2.880 . S
C611 C612 1.491 . S
C611 O626 1.254 . S
C611 O627 1.225 . S
C612 C611 1.491 . S
C612 C613 1.392 . S
C612 C617 1.356 . S
C613 C612 1.392 . S
C613 C614 1.368 . S
C613 H636 0.929 . S
C614 C613 1.368 . S
C614 C615 1.386 . S
C614 H637 0.929 . S
C615 C614 1.386 . S
C615 C616 1.373 . S
C616 C615 1.373 . S
C616 C617 1.409 . S
C616 H638 0.931 . S
C617 C612 1.356 . S
C617 C616 1.409 . S
C617 H639 0.930 . S
C618 O628 1.270 . S
C618 O629 1.248 . S
C619 O630 1.267 . S
C619 O631 1.278 . S
O620 Pr600 2.562 . S
O620 C602 1.254 . S
O621 Pr600 2.490 . S
O621 C602 1.225 . S
O622 Pr600 2.695 . S
O622 Pr601 2.436 . S
O622 C609 1.270 . S
O623 Pr600 2.512 . S
O623 C609 1.248 . S
O624 Pr601 2.438 . S
O624 C610 1.267 . S
O625 Pr600 2.437 . S
O625 C610 1.278 . S
O626 Pr601 2.562 . S
O626 C611 1.254 . S
O627 Pr601 2.490 . S
O627 C611 1.225 . S
O628 Pr600 2.436 . S
O628 Pr601 2.695 . S
O628 C618 1.270 . S
O629 Pr601 2.512 . S
O629 C618 1.248 . S
O630 Pr600 2.438 . S
O630 C619 1.267 . S
O631 Pr601 2.437 . S
O631 C619 1.278 . S
H632 C604 0.929 . S
H633 C605 0.929 . S
H634 C607 0.931 . S
H635 C608 0.930 1_455 S
H636 C613 0.929 . S
H637 C614 0.929 . S
H638 C616 0.931 . S
H639 C617 0.930 . S
Pr640 C642 2.880 . S
Pr640 O660 2.562 . S
Pr640 O661 2.490 . S
Pr640 O662 2.695 . S
Pr640 O663 2.512 . S
Pr640 O665 2.437 . S
Pr640 O668 2.436 . S
Pr640 O670 2.438 . S
Pr641 C651 2.880 . S
Pr641 O662 2.436 . S
Pr641 O664 2.438 . S
Pr641 O666 2.562 . S
Pr641 O667 2.490 . S
Pr641 O668 2.695 . S
Pr641 O669 2.512 . S
Pr641 O671 2.437 . S
C642 Pr640 2.880 . S
C642 C643 1.491 . S
C642 O660 1.254 . S
C642 O661 1.225 . S
C643 C642 1.491 . S
C643 C644 1.392 . S
C643 C648 1.356 . S
C644 C643 1.392 . S
C644 C645 1.368 . S
C644 H672 0.929 . S
C645 C644 1.368 . S
C645 C646 1.386 . S
C645 H673 0.929 . S
C646 C645 1.386 . S
C646 C647 1.373 . S
C647 C646 1.373 . S
C647 C648 1.409 . S
C647 H674 0.931 . S
C648 C643 1.356 . S
C648 C647 1.409 . S
C648 H675 0.930 . S
C649 O662 1.270 . S
C649 O663 1.248 . S
C650 O664 1.267 . S
C650 O665 1.278 . S
C651 Pr641 2.880 . S
C651 C652 1.491 . S
C651 O666 1.254 . S
C651 O667 1.225 . S
C652 C651 1.491 . S
C652 C653 1.392 . S
C652 C657 1.356 . S
C653 C652 1.392 . S
C653 C654 1.368 . S
C653 H676 0.929 . S
C654 C653 1.368 . S
C654 C655 1.386 . S
C654 H677 0.929 . S
C655 C654 1.386 . S
C655 C656 1.373 . S
C656 C655 1.373 . S
C656 C657 1.409 . S
C656 H678 0.931 . S
C657 C652 1.356 . S
C657 C656 1.409 . S
C657 H679 0.930 . S
C658 O668 1.270 . S
C658 O669 1.248 . S
C659 O670 1.267 . S
C659 O671 1.278 . S
O660 Pr640 2.562 . S
O660 C642 1.254 . S
O661 Pr640 2.490 . S
O661 C642 1.225 . S
O662 Pr640 2.695 . S
O662 Pr641 2.436 . S
O662 C649 1.270 . S
O663 Pr640 2.512 . S
O663 C649 1.248 . S
O664 Pr641 2.438 . S
O664 C650 1.267 . S
O665 Pr640 2.437 . S
O665 C650 1.278 . S
O666 Pr641 2.562 . S
O666 C651 1.254 . S
O667 Pr641 2.490 . S
O667 C651 1.225 . S
O668 Pr640 2.436 . S
O668 Pr641 2.695 . S
O668 C658 1.270 . S
O669 Pr641 2.512 . S
O669 C658 1.248 . S
O670 Pr640 2.438 . S
O670 C659 1.267 . S
O671 Pr641 2.437 . S
O671 C659 1.278 . S
H672 C644 0.929 . S
H673 C645 0.929 . S
H674 C647 0.931 . S
H675 C648 0.930 . S
H676 C653 0.929 . S
H677 C654 0.929 . S
H678 C656 0.931 . S
H679 C657 0.930 . S
Pr680 C682 2.880 . S
Pr680 O700 2.562 . S
Pr680 O701 2.490 . S
Pr680 O702 2.695 . S
Pr680 O703 2.512 . S
Pr680 O705 2.437 . S
Pr680 O708 2.436 . S
Pr680 O710 2.438 . S
Pr681 C691 2.880 . S
Pr681 O702 2.436 . S
Pr681 O704 2.438 . S
Pr681 O706 2.562 . S
Pr681 O707 2.490 . S
Pr681 O708 2.695 . S
Pr681 O709 2.512 . S
Pr681 O711 2.437 . S
C682 Pr680 2.880 . S
C682 C683 1.491 . S
C682 O700 1.254 . S
C682 O701 1.225 . S
C683 C682 1.491 . S
C683 C684 1.392 . S
C683 C688 1.356 . S
C684 C683 1.392 . S
C684 C685 1.368 . S
C684 H712 0.929 . S
C685 C684 1.368 . S
C685 C686 1.386 . S
C685 H713 0.929 . S
C686 C685 1.386 . S
C686 C687 1.373 1_545 S
C687 C686 1.373 1_565 S
C687 C688 1.409 1_565 S
C687 H714 0.931 . S
C688 C683 1.356 . S
C688 C687 1.409 1_545 S
C688 H715 0.930 1_545 S
C689 O702 1.270 . S
C689 O703 1.248 . S
C690 O704 1.267 . S
C690 O705 1.278 . S
C691 Pr681 2.880 . S
C691 C692 1.491 . S
C691 O706 1.254 . S
C691 O707 1.225 . S
C692 C691 1.491 . S
C692 C693 1.392 . S
C692 C697 1.356 . S
C693 C692 1.392 . S
C693 C694 1.368 . S
C693 H716 0.929 . S
C694 C693 1.368 . S
C694 C695 1.386 . S
C694 H717 0.929 . S
C695 C694 1.386 . S
C695 C696 1.373 . S
C696 C695 1.373 . S
C696 C697 1.409 . S
C696 H718 0.931 . S
C697 C692 1.356 . S
C697 C696 1.409 . S
C697 H719 0.930 . S
C698 O708 1.270 . S
C698 O709 1.248 . S
C699 O710 1.267 . S
C699 O711 1.278 . S
O700 Pr680 2.562 . S
O700 C682 1.254 . S
O701 Pr680 2.490 . S
O701 C682 1.225 . S
O702 Pr680 2.695 . S
O702 Pr681 2.436 . S
O702 C689 1.270 . S
O703 Pr680 2.512 . S
O703 C689 1.248 . S
O704 Pr681 2.438 . S
O704 C690 1.267 . S
O705 Pr680 2.437 . S
O705 C690 1.278 . S
O706 Pr681 2.562 . S
O706 C691 1.254 . S
O707 Pr681 2.490 . S
O707 C691 1.225 . S
O708 Pr680 2.436 . S
O708 Pr681 2.695 . S
O708 C698 1.270 . S
O709 Pr681 2.512 . S
O709 C698 1.248 . S
O710 Pr680 2.438 . S
O710 C699 1.267 . S
O711 Pr681 2.437 . S
O711 C699 1.278 . S
H712 C684 0.929 . S
H713 C685 0.929 . S
H714 C687 0.931 . S
H715 C688 0.930 1_565 S
H716 C693 0.929 . S
H717 C694 0.929 . S
H718 C696 0.931 . S
H719 C697 0.930 . S
Pr720 C722 2.880 . S
Pr720 O740 2.562 . S
Pr720 O741 2.490 . S
Pr720 O742 2.695 . S
Pr720 O743 2.512 . S
Pr720 O745 2.437 . S
Pr720 O748 2.436 . S
Pr720 O750 2.438 . S
Pr721 C731 2.880 . S
Pr721 O742 2.436 . S
Pr721 O744 2.438 . S
Pr721 O746 2.562 . S
Pr721 O747 2.490 . S
Pr721 O748 2.695 . S
Pr721 O749 2.512 . S
Pr721 O751 2.437 . S
C722 Pr720 2.880 . S
C722 C723 1.491 . S
C722 O740 1.254 . S
C722 O741 1.225 . S
C723 C722 1.491 . S
C723 C724 1.392 . S
C723 C728 1.356 . S
C724 C723 1.392 . S
C724 C725 1.368 . S
C724 H752 0.929 . S
C725 C724 1.368 . S
C725 C726 1.386 . S
C725 H753 0.929 . S
C726 C725 1.386 . S
C726 C727 1.373 . S
C727 C726 1.373 . S
C727 C728 1.409 . S
C727 H754 0.931 . S
C728 C723 1.356 . S
C728 C727 1.409 . S
C728 H755 0.930 . S
C729 O742 1.270 . S
C729 O743 1.248 . S
C730 O744 1.267 . S
C730 O745 1.278 . S
C731 Pr721 2.880 . S
C731 C732 1.491 . S
C731 O746 1.254 . S
C731 O747 1.225 . S
C732 C731 1.491 . S
C732 C733 1.392 . S
C732 C737 1.356 . S
C733 C732 1.392 . S
C733 C734 1.368 . S
C733 H756 0.929 . S
C734 C733 1.368 . S
C734 C735 1.386 . S
C734 H757 0.929 . S
C735 C734 1.386 . S
C735 C736 1.373 1_545 S
C736 C735 1.373 1_565 S
C736 C737 1.409 1_565 S
C736 H758 0.931 . S
C737 C732 1.356 . S
C737 C736 1.409 1_545 S
C737 H759 0.904 1_545 S
C738 O748 1.270 . S
C738 O749 1.248 . S
C739 O750 1.267 . S
C739 O751 1.278 . S
O740 Pr720 2.562 . S
O740 C722 1.254 . S
O741 Pr720 2.490 . S
O741 C722 1.225 . S
O742 Pr720 2.695 . S
O742 Pr721 2.436 . S
O742 C729 1.270 . S
O743 Pr720 2.512 . S
O743 C729 1.248 . S
O744 Pr721 2.438 . S
O744 C730 1.267 . S
O745 Pr720 2.437 . S
O745 C730 1.278 . S
O746 Pr721 2.562 . S
O746 C731 1.254 . S
O747 Pr721 2.490 . S
O747 C731 1.225 . S
O748 Pr720 2.436 . S
O748 Pr721 2.695 . S
O748 C738 1.270 . S
O749 Pr721 2.512 . S
O749 C738 1.248 . S
O750 Pr720 2.438 . S
O750 C739 1.267 . S
O751 Pr721 2.437 . S
O751 C739 1.278 . S
H752 C724 0.929 . S
H753 C725 0.929 . S
H754 C727 0.931 . S
H755 C728 0.930 . S
H756 C733 0.929 . S
H757 C734 0.929 . S
H758 C736 0.931 . S
H759 C737 0.904 1_565 S
Pr760 C762 2.880 . S
Pr760 O780 2.562 . S
Pr760 O781 2.490 . S
Pr760 O782 2.695 . S
Pr760 O783 2.512 . S
Pr760 O785 2.437 . S
Pr760 O788 2.436 . S
Pr760 O790 2.438 . S
Pr761 C771 2.880 . S
Pr761 O782 2.436 . S
Pr761 O784 2.438 . S
Pr761 O786 2.562 . S
Pr761 O787 2.490 . S
Pr761 O788 2.695 . S
Pr761 O789 2.512 . S
Pr761 O791 2.437 . S
C762 Pr760 2.880 . S
C762 C763 1.491 . S
C762 O780 1.254 . S
C762 O781 1.225 . S
C763 C762 1.491 . S
C763 C764 1.392 . S
C763 C768 1.356 . S
C764 C763 1.392 . S
C764 C765 1.368 . S
C764 H792 0.929 . S
C765 C764 1.368 . S
C765 C766 1.386 . S
C765 H793 0.929 . S
C766 C765 1.386 . S
C766 C767 1.373 . S
C767 C766 1.373 . S
C767 C768 1.409 . S
C767 H794 0.931 . S
C768 C763 1.356 . S
C768 C767 1.409 . S
C768 H795 0.930 . S
C769 O782 1.270 . S
C769 O783 1.248 . S
C770 O784 1.267 . S
C770 O785 1.278 . S
C771 Pr761 2.880 . S
C771 C772 1.491 . S
C771 O786 1.254 . S
C771 O787 1.225 . S
C772 C771 1.491 . S
C772 C773 1.392 . S
C772 C777 1.356 . S
C773 C772 1.392 . S
C773 C774 1.368 . S
C773 H796 0.929 . S
C774 C773 1.368 . S
C774 C775 1.386 . S
C774 H797 0.929 . S
C775 C774 1.386 . S
C775 C776 1.373 1_655 S
C776 C775 1.373 1_455 S
C776 C777 1.409 1_455 S
C776 H798 0.931 . S
C777 C772 1.356 . S
C777 C776 1.409 1_655 S
C777 H799 0.924 1_655 S
C778 O788 1.270 . S
C778 O789 1.248 . S
C779 O790 1.267 . S
C779 O791 1.278 . S
O780 Pr760 2.562 . S
O780 C762 1.254 . S
O781 Pr760 2.490 . S
O781 C762 1.225 . S
O782 Pr760 2.695 . S
O782 Pr761 2.436 . S
O782 C769 1.270 . S
O783 Pr760 2.512 . S
O783 C769 1.248 . S
O784 Pr761 2.438 . S
O784 C770 1.267 . S
O785 Pr760 2.437 . S
O785 C770 1.278 . S
O786 Pr761 2.562 . S
O786 C771 1.254 . S
O787 Pr761 2.490 . S
O787 C771 1.225 . S
O788 Pr760 2.436 . S
O788 Pr761 2.695 . S
O788 C778 1.270 . S
O789 Pr761 2.512 . S
O789 C778 1.248 . S
O790 Pr760 2.438 . S
O790 C779 1.267 . S
O791 Pr761 2.437 . S
O791 C779 1.278 . S
H792 C764 0.929 . S
H793 C765 0.929 . S
H794 C767 0.931 . S
H795 C768 0.930 . S
H796 C773 0.929 . S
H797 C774 0.929 . S
H798 C776 0.931 . S
H799 C777 0.924 1_455 S
Pr800 C802 2.880 . S
Pr800 O820 2.562 . S
Pr800 O821 2.490 . S
Pr800 O822 2.695 . S
Pr800 O823 2.512 . S
Pr800 O825 2.437 . S
Pr800 O828 2.436 . S
Pr800 O830 2.438 . S
Pr801 C811 2.880 . S
Pr801 O822 2.436 . S
Pr801 O824 2.438 . S
Pr801 O826 2.562 . S
Pr801 O827 2.490 . S
Pr801 O828 2.695 . S
Pr801 O829 2.512 . S
Pr801 O831 2.437 . S
C802 Pr800 2.880 . S
C802 C803 1.491 . S
C802 O820 1.254 . S
C802 O821 1.225 . S
C803 C802 1.491 . S
C803 C804 1.392 . S
C803 C808 1.356 . S
C804 C803 1.392 . S
C804 C805 1.368 . S
C804 H832 0.929 . S
C805 C804 1.368 . S
C805 C806 1.386 . S
C805 H833 0.929 . S
C806 C805 1.386 . S
C806 C807 1.373 . S
C807 C806 1.373 . S
C807 C808 1.409 . S
C807 H834 0.931 . S
C808 C803 1.356 . S
C808 C807 1.409 . S
C808 H835 0.930 . S
C809 O822 1.270 . S
C809 O823 1.248 . S
C810 O824 1.267 . S
C810 O825 1.278 . S
C811 Pr801 2.880 . S
C811 C812 1.491 . S
C811 O826 1.254 . S
C811 O827 1.225 . S
C812 C811 1.491 . S
C812 C813 1.392 . S
C812 C817 1.356 . S
C813 C812 1.392 . S
C813 C814 1.368 . S
C813 H836 0.929 . S
C814 C813 1.368 . S
C814 C815 1.386 . S
C814 H837 0.929 . S
C815 C814 1.386 . S
C815 C816 1.373 . S
C816 C815 1.373 . S
C816 C817 1.409 . S
C816 H838 0.931 . S
C817 C812 1.356 . S
C817 C816 1.409 . S
C817 H839 0.930 . S
C818 O828 1.270 . S
C818 O829 1.248 . S
C819 O830 1.267 . S
C819 O831 1.278 . S
O820 Pr800 2.562 . S
O820 C802 1.254 . S
O821 Pr800 2.490 . S
O821 C802 1.225 . S
O822 Pr800 2.695 . S
O822 Pr801 2.436 . S
O822 C809 1.270 . S
O823 Pr800 2.512 . S
O823 C809 1.248 . S
O824 Pr801 2.438 . S
O824 C810 1.267 . S
O825 Pr800 2.437 . S
O825 C810 1.278 . S
O826 Pr801 2.562 . S
O826 C811 1.254 . S
O827 Pr801 2.490 . S
O827 C811 1.225 . S
O828 Pr800 2.436 . S
O828 Pr801 2.695 . S
O828 C818 1.270 . S
O829 Pr801 2.512 . S
O829 C818 1.248 . S
O830 Pr800 2.438 . S
O830 C819 1.267 . S
O831 Pr801 2.437 . S
O831 C819 1.278 . S
H832 C804 0.929 . S
H833 C805 0.929 . S
H834 C807 0.931 . S
H835 C808 0.930 . S
H836 C813 0.929 . S
H837 C814 0.929 . S
H838 C816 0.931 . S
H839 C817 0.930 . S
Pr840 C842 2.880 . S
Pr840 O860 2.562 . S
Pr840 O861 2.490 . S
Pr840 O862 2.695 1_554 S
Pr840 O863 2.512 . S
Pr840 O865 2.437 . S
Pr840 O868 2.436 . S
Pr840 O870 2.438 . S
Pr841 C851 2.880 . S
Pr841 O862 2.436 . S
Pr841 O864 2.438 . S
Pr841 O866 2.562 . S
Pr841 O867 2.490 . S
Pr841 O868 2.695 1_556 S
Pr841 O869 2.512 . S
Pr841 O871 2.437 . S
C842 Pr840 2.880 . S
C842 C843 1.491 . S
C842 O860 1.254 . S
C842 O861 1.225 . S
C843 C842 1.491 . S
C843 C844 1.392 . S
C843 C848 1.356 . S
C844 C843 1.392 . S
C844 C845 1.368 . S
C844 H872 0.929 . S
C845 C844 1.368 . S
C845 C846 1.386 . S
C845 H873 0.929 . S
C846 C845 1.386 . S
C846 C847 1.373 . S
C847 C846 1.373 . S
C847 C848 1.409 . S
C847 H874 0.931 . S
C848 C843 1.356 . S
C848 C847 1.409 . S
C848 H875 0.930 . S
C849 O862 1.270 1_554 S
C849 O863 1.248 . S
C850 O864 1.267 1_554 S
C850 O865 1.278 . S
C851 Pr841 2.880 . S
C851 C852 1.491 . S
C851 O866 1.254 . S
C851 O867 1.225 . S
C852 C851 1.491 . S
C852 C853 1.392 . S
C852 C857 1.356 . S
C853 C852 1.392 . S
C853 C854 1.368 . S
C853 H876 0.929 . S
C854 C853 1.368 . S
C854 C855 1.386 . S
C854 H877 0.929 . S
C855 C854 1.386 . S
C855 C856 1.373 . S
C856 C855 1.373 . S
C856 C857 1.409 . S
C856 H878 0.931 . S
C857 C852 1.356 . S
C857 C856 1.409 . S
C857 H879 0.930 . S
C858 O868 1.270 1_556 S
C858 O869 1.248 . S
C859 O870 1.267 1_556 S
C859 O871 1.278 . S
O860 Pr840 2.562 . S
O860 C842 1.254 . S
O861 Pr840 2.490 . S
O861 C842 1.225 . S
O862 Pr840 2.695 1_556 S
O862 Pr841 2.436 . S
O862 C849 1.270 1_556 S
O863 Pr840 2.512 . S
O863 C849 1.248 . S
O864 Pr841 2.438 . S
O864 C850 1.267 1_556 S
O865 Pr840 2.437 . S
O865 C850 1.278 . S
O866 Pr841 2.562 . S
O866 C851 1.254 . S
O867 Pr841 2.490 . S
O867 C851 1.225 . S
O868 Pr840 2.436 . S
O868 Pr841 2.695 1_554 S
O868 C858 1.270 1_554 S
O869 Pr841 2.512 . S
O869 C858 1.248 . S
O870 Pr840 2.438 . S
O870 C859 1.267 1_554 S
O871 Pr841 2.437 . S
O871 C859 1.278 . S
H872 C844 0.929 . S
H873 C845 0.929 . S
H874 C847 0.931 . S
H875 C848 0.930 . S
H876 C853 0.929 . S
H877 C854 0.929 . S
H878 C856 0.931 . S
H879 C857 0.930 . S
Pr880 C882 2.880 . S
Pr880 O900 2.562 . S
Pr880 O901 2.490 . S
Pr880 O902 2.695 1_554 S
Pr880 O903 2.512 . S
Pr880 O905 2.437 . S
Pr880 O908 2.436 . S
Pr880 O910 2.438 . S
Pr881 C891 2.880 . S
Pr881 O902 2.436 . S
Pr881 O904 2.438 . S
Pr881 O906 2.562 . S
Pr881 O907 2.490 . S
Pr881 O908 2.695 1_556 S
Pr881 O909 2.512 . S
Pr881 O911 2.437 . S
C882 Pr880 2.880 . S
C882 C883 1.491 . S
C882 O900 1.254 . S
C882 O901 1.225 . S
C883 C882 1.491 . S
C883 C884 1.392 . S
C883 C888 1.356 . S
C884 C883 1.392 . S
C884 C885 1.368 . S
C884 H912 0.929 . S
C885 C884 1.368 . S
C885 C886 1.386 . S
C885 H913 0.929 . S
C886 C885 1.386 . S
C886 C887 1.373 . S
C887 C886 1.373 . S
C887 C888 1.409 . S
C887 H914 0.931 . S
C888 C883 1.356 . S
C888 C887 1.409 . S
C888 H915 0.930 . S
C889 O902 1.270 1_554 S
C889 O903 1.248 . S
C890 O904 1.267 1_554 S
C890 O905 1.278 . S
C891 Pr881 2.880 . S
C891 C892 1.491 . S
C891 O906 1.254 . S
C891 O907 1.225 . S
C892 C891 1.491 . S
C892 C893 1.392 . S
C892 C897 1.356 . S
C893 C892 1.392 . S
C893 C894 1.368 . S
C893 H916 0.929 . S
C894 C893 1.368 . S
C894 C895 1.386 . S
C894 H917 0.929 . S
C895 C894 1.386 . S
C895 C896 1.373 . S
C896 C895 1.373 . S
C896 C897 1.409 . S
C896 H918 0.931 . S
C897 C892 1.356 . S
C897 C896 1.409 . S
C897 H919 0.930 . S
C898 O908 1.270 1_556 S
C898 O909 1.248 . S
C899 O910 1.267 1_556 S
C899 O911 1.278 . S
O900 Pr880 2.562 . S
O900 C882 1.254 . S
O901 Pr880 2.490 . S
O901 C882 1.225 . S
O902 Pr880 2.695 1_556 S
O902 Pr881 2.436 . S
O902 C889 1.270 1_556 S
O903 Pr880 2.512 . S
O903 C889 1.248 . S
O904 Pr881 2.438 . S
O904 C890 1.267 1_556 S
O905 Pr880 2.437 . S
O905 C890 1.278 . S
O906 Pr881 2.562 . S
O906 C891 1.254 . S
O907 Pr881 2.490 . S
O907 C891 1.225 . S
O908 Pr880 2.436 . S
O908 Pr881 2.695 1_554 S
O908 C898 1.270 1_554 S
O909 Pr881 2.512 . S
O909 C898 1.248 . S
O910 Pr880 2.438 . S
O910 C899 1.267 1_554 S
O911 Pr881 2.437 . S
O911 C899 1.278 . S
H912 C884 0.929 . S
H913 C885 0.929 . S
H914 C887 0.931 . S
H915 C888 0.930 . S
H916 C893 0.929 . S
H917 C894 0.929 . S
H918 C896 0.931 . S
H919 C897 0.930 . S
Pr920 C922 2.880 . S
Pr920 O940 2.562 . S
Pr920 O941 2.490 . S
Pr920 O942 2.695 1_554 S
Pr920 O943 2.512 . S
Pr920 O945 2.437 . S
Pr920 O948 2.436 . S
Pr920 O950 2.438 . S
Pr921 C931 2.880 . S
Pr921 O942 2.436 . S
Pr921 O944 2.438 . S
Pr921 O946 2.562 . S
Pr921 O947 2.490 . S
Pr921 O948 2.695 1_556 S
Pr921 O949 2.512 . S
Pr921 O951 2.437 . S
C922 Pr920 2.880 . S
C922 C923 1.491 . S
C922 O940 1.254 . S
C922 O941 1.225 . S
C923 C922 1.491 . S
C923 C924 1.392 . S
C923 C928 1.356 . S
C924 C923 1.392 . S
C924 C925 1.368 . S
C924 H952 0.929 . S
C925 C924 1.368 . S
C925 C926 1.386 . S
C925 H953 0.929 . S
C926 C925 1.386 . S
C926 C927 1.373 . S
C927 C926 1.373 . S
C927 C928 1.409 . S
C927 H954 0.931 . S
C928 C923 1.356 . S
C928 C927 1.409 . S
C928 H955 0.930 . S
C929 O942 1.270 1_554 S
C929 O943 1.248 . S
C930 O944 1.267 1_554 S
C930 O945 1.278 . S
C931 Pr921 2.880 . S
C931 C932 1.491 . S
C931 O946 1.254 . S
C931 O947 1.225 . S
C932 C931 1.491 . S
C932 C933 1.392 . S
C932 C937 1.356 . S
C933 C932 1.392 . S
C933 C934 1.368 . S
C933 H956 0.929 . S
C934 C933 1.368 . S
C934 C935 1.386 . S
C934 H957 0.929 . S
C935 C934 1.386 . S
C935 C936 1.373 . S
C936 C935 1.373 . S
C936 C937 1.409 . S
C936 H958 0.931 . S
C937 C932 1.356 . S
C937 C936 1.409 . S
C937 H959 0.930 . S
C938 O948 1.270 1_556 S
C938 O949 1.248 . S
C939 O950 1.267 1_556 S
C939 O951 1.278 . S
O940 Pr920 2.562 . S
O940 C922 1.254 . S
O941 Pr920 2.490 . S
O941 C922 1.225 . S
O942 Pr920 2.695 1_556 S
O942 Pr921 2.436 . S
O942 C929 1.270 1_556 S
O943 Pr920 2.512 . S
O943 C929 1.248 . S
O944 Pr921 2.438 . S
O944 C930 1.267 1_556 S
O945 Pr920 2.437 . S
O945 C930 1.278 . S
O946 Pr921 2.562 . S
O946 C931 1.254 . S
O947 Pr921 2.490 . S
O947 C931 1.225 . S
O948 Pr920 2.436 . S
O948 Pr921 2.695 1_554 S
O948 C938 1.270 1_554 S
O949 Pr921 2.512 . S
O949 C938 1.248 . S
O950 Pr920 2.438 . S
O950 C939 1.267 1_554 S
O951 Pr921 2.437 . S
O951 C939 1.278 . S
H952 C924 0.929 . S
H953 C925 0.929 . S
H954 C927 0.931 . S
H955 C928 0.930 . S
H956 C933 0.929 . S
H957 C934 0.929 . S
H958 C936 0.931 . S
H959 C937 0.930 . S
Pr960 C962 2.880 . S
Pr960 O980 2.562 . S
Pr960 O981 2.490 . S
Pr960 O982 2.695 . S
Pr960 O983 2.512 . S
Pr960 O985 2.437 . S
Pr960 O988 2.436 . S
Pr960 O990 2.438 . S
Pr961 C971 2.880 . S
Pr961 O982 2.436 . S
Pr961 O984 2.438 . S
Pr961 O986 2.562 . S
Pr961 O987 2.490 . S
Pr961 O988 2.695 . S
Pr961 O989 2.512 . S
Pr961 O991 2.437 . S
C962 Pr960 2.880 . S
C962 C963 1.491 . S
C962 O980 1.254 . S
C962 O981 1.225 . S
C963 C962 1.491 . S
C963 C964 1.392 . S
C963 C968 1.356 . S
C964 C963 1.392 . S
C964 C965 1.368 . S
C964 H992 0.929 . S
C965 C964 1.368 . S
C965 C966 1.386 . S
C965 H993 0.929 . S
C966 C965 1.386 . S
C966 C967 1.373 1_565 S
C967 C966 1.373 1_545 S
C967 C968 1.409 1_545 S
C967 H994 0.931 . S
C968 C963 1.356 . S
C968 C967 1.409 1_565 S
C968 H995 0.904 1_565 S
C969 O982 1.270 . S
C969 O983 1.248 . S
C970 O984 1.267 . S
C970 O985 1.278 . S
C971 Pr961 2.880 . S
C971 C972 1.491 . S
C971 O986 1.254 . S
C971 O987 1.225 . S
C972 C971 1.491 . S
C972 C973 1.392 . S
C972 C977 1.356 . S
C973 C972 1.392 . S
C973 C974 1.368 . S
C973 H996 0.929 . S
C974 C973 1.368 . S
C974 C975 1.386 . S
C974 H997 0.929 . S
C975 C974 1.386 . S
C975 C976 1.373 . S
C976 C975 1.373 . S
C976 C977 1.409 . S
C976 H998 0.931 . S
C977 C972 1.356 . S
C977 C976 1.409 . S
C977 H999 0.930 . S
C978 O988 1.270 . S
C978 O989 1.248 . S
C979 O990 1.267 . S
C979 O991 1.278 . S
O980 Pr960 2.562 . S
O980 C962 1.254 . S
O981 Pr960 2.490 . S
O981 C962 1.225 . S
O982 Pr960 2.695 . S
O982 Pr961 2.436 . S
O982 C969 1.270 . S
O983 Pr960 2.512 . S
O983 C969 1.248 . S
O984 Pr961 2.438 . S
O984 C970 1.267 . S
O985 Pr960 2.437 . S
O985 C970 1.278 . S
O986 Pr961 2.562 . S
O986 C971 1.254 . S
O987 Pr961 2.490 . S
O987 C971 1.225 . S
O988 Pr960 2.436 . S
O988 Pr961 2.695 . S
O988 C978 1.270 . S
O989 Pr961 2.512 . S
O989 C978 1.248 . S
O990 Pr960 2.438 . S
O990 C979 1.267 . S
O991 Pr961 2.437 . S
O991 C979 1.278 . S
H992 C964 0.929 . S
H993 C965 0.929 . S
H994 C967 0.931 . S
H995 C968 0.904 1_545 S
H996 C973 0.929 . S
H997 C974 0.929 . S
H998 C976 0.931 . S
H999 C977 0.930 . S
Pr1000 C1002 2.880 . S
Pr1000 O1020 2.562 . S
Pr1000 O1021 2.490 . S
Pr1000 O1022 2.695 . S
Pr1000 O1023 2.512 . S
Pr1000 O1025 2.437 . S
Pr1000 O1028 2.436 . S
Pr1000 O1030 2.438 . S
Pr1001 C1011 2.880 . S
Pr1001 O1022 2.436 . S
Pr1001 O1024 2.438 . S
Pr1001 O1026 2.562 . S
Pr1001 O1027 2.490 . S
Pr1001 O1028 2.695 . S
Pr1001 O1029 2.512 . S
Pr1001 O1031 2.437 . S
C1002 Pr1000 2.880 . S
C1002 C1003 1.491 . S
C1002 O1020 1.254 . S
C1002 O1021 1.225 . S
C1003 C1002 1.491 . S
C1003 C1004 1.392 . S
C1003 C1008 1.356 . S
C1004 C1003 1.392 . S
C1004 C1005 1.368 . S
C1004 H1032 0.929 . S
C1005 C1004 1.368 . S
C1005 C1006 1.386 . S
C1005 H1033 0.929 . S
C1006 C1005 1.386 . S
C1006 C1007 1.373 1_455 S
C1007 C1006 1.373 1_655 S
C1007 C1008 1.409 1_655 S
C1007 H1034 0.931 . S
C1008 C1003 1.356 . S
C1008 C1007 1.409 1_455 S
C1008 H1035 0.924 1_455 S
C1009 O1022 1.270 . S
C1009 O1023 1.248 . S
C1010 O1024 1.267 . S
C1010 O1025 1.278 . S
C1011 Pr1001 2.880 . S
C1011 C1012 1.491 . S
C1011 O1026 1.254 . S
C1011 O1027 1.225 . S
C1012 C1011 1.491 . S
C1012 C1013 1.392 . S
C1012 C1017 1.356 . S
C1013 C1012 1.392 . S
C1013 C1014 1.368 . S
C1013 H1036 0.929 . S
C1014 C1013 1.368 . S
C1014 C1015 1.386 . S
C1014 H1037 0.929 . S
C1015 C1014 1.386 . S
C1015 C1016 1.373 . S
C1016 C1015 1.373 . S
C1016 C1017 1.409 . S
C1016 H1038 0.931 . S
C1017 C1012 1.356 . S
C1017 C1016 1.409 . S
C1017 H1039 0.930 . S
C1018 O1028 1.270 . S
C1018 O1029 1.248 . S
C1019 O1030 1.267 . S
C1019 O1031 1.278 . S
O1020 Pr1000 2.562 . S
O1020 C1002 1.254 . S
O1021 Pr1000 2.490 . S
O1021 C1002 1.225 . S
O1022 Pr1000 2.695 . S
O1022 Pr1001 2.436 . S
O1022 C1009 1.270 . S
O1023 Pr1000 2.512 . S
O1023 C1009 1.248 . S
O1024 Pr1001 2.438 . S
O1024 C1010 1.267 . S
O1025 Pr1000 2.437 . S
O1025 C1010 1.278 . S
O1026 Pr1001 2.562 . S
O1026 C1011 1.254 . S
O1027 Pr1001 2.490 . S
O1027 C1011 1.225 . S
O1028 Pr1000 2.436 . S
O1028 Pr1001 2.695 . S
O1028 C1018 1.270 . S
O1029 Pr1001 2.512 . S
O1029 C1018 1.248 . S
O1030 Pr1000 2.438 . S
O1030 C1019 1.267 . S
O1031 Pr1001 2.437 . S
O1031 C1019 1.278 . S
H1032 C1004 0.929 . S
H1033 C1005 0.929 . S
H1034 C1007 0.931 . S
H1035 C1008 0.924 1_655 S
H1036 C1013 0.929 . S
H1037 C1014 0.929 . S
H1038 C1016 0.931 . S
H1039 C1017 0.930 . S
Pr1040 C1042 2.880 . S
Pr1040 O1060 2.562 . S
Pr1040 O1061 2.490 . S
Pr1040 O1062 2.695 . S
Pr1040 O1063 2.512 . S
Pr1040 O1065 2.437 . S
Pr1040 O1068 2.436 . S
Pr1040 O1070 2.438 . S
Pr1041 C1051 2.880 . S
Pr1041 O1062 2.436 . S
Pr1041 O1064 2.438 . S
Pr1041 O1066 2.562 . S
Pr1041 O1067 2.490 . S
Pr1041 O1068 2.695 . S
Pr1041 O1069 2.512 . S
Pr1041 O1071 2.437 . S
C1042 Pr1040 2.880 . S
C1042 C1043 1.491 . S
C1042 O1060 1.254 . S
C1042 O1061 1.225 . S
C1043 C1042 1.491 . S
C1043 C1044 1.392 . S
C1043 C1048 1.356 . S
C1044 C1043 1.392 . S
C1044 C1045 1.368 . S
C1044 H1072 0.929 . S
C1045 C1044 1.368 . S
C1045 C1046 1.386 . S
C1045 H1073 0.929 . S
C1046 C1045 1.386 . S
C1046 C1047 1.373 . S
C1047 C1046 1.373 . S
C1047 C1048 1.409 . S
C1047 H1074 0.931 . S
C1048 C1043 1.356 . S
C1048 C1047 1.409 . S
C1048 H1075 0.930 . S
C1049 O1062 1.270 . S
C1049 O1063 1.248 . S
C1050 O1064 1.267 . S
C1050 O1065 1.278 . S
C1051 Pr1041 2.880 . S
C1051 C1052 1.491 . S
C1051 O1066 1.254 . S
C1051 O1067 1.225 . S
C1052 C1051 1.491 . S
C1052 C1053 1.392 . S
C1052 C1057 1.356 . S
C1053 C1052 1.392 . S
C1053 C1054 1.368 . S
C1053 H1076 0.929 . S
C1054 C1053 1.368 . S
C1054 C1055 1.386 . S
C1054 H1077 0.929 . S
C1055 C1054 1.386 . S
C1055 C1056 1.373 . S
C1056 C1055 1.373 . S
C1056 C1057 1.409 . S
C1056 H1078 0.931 . S
C1057 C1052 1.356 . S
C1057 C1056 1.409 . S
C1057 H1079 0.930 . S
C1058 O1068 1.270 . S
C1058 O1069 1.248 . S
C1059 O1070 1.267 . S
C1059 O1071 1.278 . S
O1060 Pr1040 2.562 . S
O1060 C1042 1.254 . S
O1061 Pr1040 2.490 . S
O1061 C1042 1.225 . S
O1062 Pr1040 2.695 . S
O1062 Pr1041 2.436 . S
O1062 C1049 1.270 . S
O1063 Pr1040 2.512 . S
O1063 C1049 1.248 . S
O1064 Pr1041 2.438 . S
O1064 C1050 1.267 . S
O1065 Pr1040 2.437 . S
O1065 C1050 1.278 . S
O1066 Pr1041 2.562 . S
O1066 C1051 1.254 . S
O1067 Pr1041 2.490 . S
O1067 C1051 1.225 . S
O1068 Pr1040 2.436 . S
O1068 Pr1041 2.695 . S
O1068 C1058 1.270 . S
O1069 Pr1041 2.512 . S
O1069 C1058 1.248 . S
O1070 Pr1040 2.438 . S
O1070 C1059 1.267 . S
O1071 Pr1041 2.437 . S
O1071 C1059 1.278 . S
H1072 C1044 0.929 . S
H1073 C1045 0.929 . S
H1074 C1047 0.931 . S
H1075 C1048 0.930 . S
H1076 C1053 0.929 . S
H1077 C1054 0.929 . S
H1078 C1056 0.931 . S
H1079 C1057 0.930 . S
Pr1080 C1082 2.880 . S
Pr1080 O1100 2.562 . S
Pr1080 O1101 2.490 . S
Pr1080 O1102 2.695 1_554 S
Pr1080 O1103 2.512 . S
Pr1080 O1105 2.437 . S
Pr1080 O1108 2.436 . S
Pr1080 O1110 2.438 . S
Pr1081 C1091 2.880 . S
Pr1081 O1102 2.436 . S
Pr1081 O1104 2.438 . S
Pr1081 O1106 2.562 . S
Pr1081 O1107 2.490 . S
Pr1081 O1108 2.695 1_556 S
Pr1081 O1109 2.512 . S
Pr1081 O1111 2.437 . S
C1082 Pr1080 2.880 . S
C1082 C1083 1.491 . S
C1082 O1100 1.254 . S
C1082 O1101 1.225 . S
C1083 C1082 1.491 . S
C1083 C1084 1.392 . S
C1083 C1088 1.356 . S
C1084 C1083 1.392 . S
C1084 C1085 1.368 . S
C1084 H1112 0.929 . S
C1085 C1084 1.368 . S
C1085 C1086 1.386 . S
C1085 H1113 0.929 . S
C1086 C1085 1.386 . S
C1086 C1087 1.373 . S
C1087 C1086 1.373 . S
C1087 C1088 1.409 . S
C1087 H1114 0.931 . S
C1088 C1083 1.356 . S
C1088 C1087 1.409 . S
C1088 H1115 0.930 . S
C1089 O1102 1.270 1_554 S
C1089 O1103 1.248 . S
C1090 O1104 1.267 1_554 S
C1090 O1105 1.278 . S
C1091 Pr1081 2.880 . S
C1091 C1092 1.491 . S
C1091 O1106 1.254 . S
C1091 O1107 1.225 . S
C1092 C1091 1.491 . S
C1092 C1093 1.392 . S
C1092 C1097 1.356 . S
C1093 C1092 1.392 . S
C1093 C1094 1.368 . S
C1093 H1116 0.929 . S
C1094 C1093 1.368 . S
C1094 C1095 1.386 . S
C1094 H1117 0.929 . S
C1095 C1094 1.386 . S
C1095 C1096 1.373 . S
C1096 C1095 1.373 . S
C1096 C1097 1.409 . S
C1096 H1118 0.931 . S
C1097 C1092 1.356 . S
C1097 C1096 1.409 . S
C1097 H1119 0.930 . S
C1098 O1108 1.270 1_556 S
C1098 O1109 1.248 . S
C1099 O1110 1.267 1_556 S
C1099 O1111 1.278 . S
O1100 Pr1080 2.562 . S
O1100 C1082 1.254 . S
O1101 Pr1080 2.490 . S
O1101 C1082 1.225 . S
O1102 Pr1080 2.695 1_556 S
O1102 Pr1081 2.436 . S
O1102 C1089 1.270 1_556 S
O1103 Pr1080 2.512 . S
O1103 C1089 1.248 . S
O1104 Pr1081 2.438 . S
O1104 C1090 1.267 1_556 S
O1105 Pr1080 2.437 . S
O1105 C1090 1.278 . S
O1106 Pr1081 2.562 . S
O1106 C1091 1.254 . S
O1107 Pr1081 2.490 . S
O1107 C1091 1.225 . S
O1108 Pr1080 2.436 . S
O1108 Pr1081 2.695 1_554 S
O1108 C1098 1.270 1_554 S
O1109 Pr1081 2.512 . S
O1109 C1098 1.248 . S
O1110 Pr1080 2.438 . S
O1110 C1099 1.267 1_554 S
O1111 Pr1081 2.437 . S
O1111 C1099 1.278 . S
H1112 C1084 0.929 . S
H1113 C1085 0.929 . S
H1114 C1087 0.931 . S
H1115 C1088 0.930 . S
H1116 C1093 0.929 . S
H1117 C1094 0.929 . S
H1118 C1096 0.931 . S
H1119 C1097 0.930 . S
Pr1120 C1122 2.880 . S
Pr1120 O1140 2.562 . S
Pr1120 O1141 2.490 . S
Pr1120 O1142 2.695 1_554 S
Pr1120 O1143 2.512 . S
Pr1120 O1145 2.437 . S
Pr1120 O1148 2.436 . S
Pr1120 O1150 2.438 . S
Pr1121 C1131 2.880 . S
Pr1121 O1142 2.436 . S
Pr1121 O1144 2.438 . S
Pr1121 O1146 2.562 . S
Pr1121 O1147 2.490 . S
Pr1121 O1148 2.695 1_556 S
Pr1121 O1149 2.512 . S
Pr1121 O1151 2.437 . S
C1122 Pr1120 2.880 . S
C1122 C1123 1.491 . S
C1122 O1140 1.254 . S
C1122 O1141 1.225 . S
C1123 C1122 1.491 . S
C1123 C1124 1.392 . S
C1123 C1128 1.356 . S
C1124 C1123 1.392 . S
C1124 C1125 1.368 . S
C1124 H1152 0.929 . S
C1125 C1124 1.368 . S
C1125 C1126 1.386 . S
C1125 H1153 0.929 . S
C1126 C1125 1.386 . S
C1126 C1127 1.373 . S
C1127 C1126 1.373 . S
C1127 C1128 1.409 . S
C1127 H1154 0.931 . S
C1128 C1123 1.356 . S
C1128 C1127 1.409 . S
C1128 H1155 0.930 . S
C1129 O1142 1.270 1_554 S
C1129 O1143 1.248 . S
C1130 O1144 1.267 1_554 S
C1130 O1145 1.278 . S
C1131 Pr1121 2.880 . S
C1131 C1132 1.491 . S
C1131 O1146 1.254 . S
C1131 O1147 1.225 . S
C1132 C1131 1.491 . S
C1132 C1133 1.392 . S
C1132 C1137 1.356 . S
C1133 C1132 1.392 . S
C1133 C1134 1.368 . S
C1133 H1156 0.929 . S
C1134 C1133 1.368 . S
C1134 C1135 1.386 . S
C1134 H1157 0.929 . S
C1135 C1134 1.386 . S
C1135 C1136 1.373 . S
C1136 C1135 1.373 . S
C1136 C1137 1.409 . S
C1136 H1158 0.931 . S
C1137 C1132 1.356 . S
C1137 C1136 1.409 . S
C1137 H1159 0.930 . S
C1138 O1148 1.270 1_556 S
C1138 O1149 1.248 . S
C1139 O1150 1.267 1_556 S
C1139 O1151 1.278 . S
O1140 Pr1120 2.562 . S
O1140 C1122 1.254 . S
O1141 Pr1120 2.490 . S
O1141 C1122 1.225 . S
O1142 Pr1120 2.695 1_556 S
O1142 Pr1121 2.436 . S
O1142 C1129 1.270 1_556 S
O1143 Pr1120 2.512 . S
O1143 C1129 1.248 . S
O1144 Pr1121 2.438 . S
O1144 C1130 1.267 1_556 S
O1145 Pr1120 2.437 . S
O1145 C1130 1.278 . S
O1146 Pr1121 2.562 . S
O1146 C1131 1.254 . S
O1147 Pr1121 2.490 . S
O1147 C1131 1.225 . S
O1148 Pr1120 2.436 . S
O1148 Pr1121 2.695 1_554 S
O1148 C1138 1.270 1_554 S
O1149 Pr1121 2.512 . S
O1149 C1138 1.248 . S
O1150 Pr1120 2.438 . S
O1150 C1139 1.267 1_554 S
O1151 Pr1121 2.437 . S
O1151 C1139 1.278 . S
H1152 C1124 0.929 . S
H1153 C1125 0.929 . S
H1154 C1127 0.931 . S
H1155 C1128 0.930 . S
H1156 C1133 0.929 . S
H1157 C1134 0.929 . S
H1158 C1136 0.931 . S
H1159 C1137 0.930 . S
Pr1160 C1162 2.880 . S
Pr1160 O1180 2.562 . S
Pr1160 O1181 2.490 . S
Pr1160 O1182 2.695 1_554 S
Pr1160 O1183 2.512 . S
Pr1160 O1185 2.437 . S
Pr1160 O1188 2.436 . S
Pr1160 O1190 2.438 . S
Pr1161 C1171 2.880 . S
Pr1161 O1182 2.436 . S
Pr1161 O1184 2.438 . S
Pr1161 O1186 2.562 . S
Pr1161 O1187 2.490 . S
Pr1161 O1188 2.695 1_556 S
Pr1161 O1189 2.512 . S
Pr1161 O1191 2.437 . S
C1162 Pr1160 2.880 . S
C1162 C1163 1.491 . S
C1162 O1180 1.254 . S
C1162 O1181 1.225 . S
C1163 C1162 1.491 . S
C1163 C1164 1.392 . S
C1163 C1168 1.356 . S
C1164 C1163 1.392 . S
C1164 C1165 1.368 . S
C1164 H1192 0.929 . S
C1165 C1164 1.368 . S
C1165 C1166 1.386 . S
C1165 H1193 0.929 . S
C1166 C1165 1.386 . S
C1166 C1167 1.373 . S
C1167 C1166 1.373 . S
C1167 C1168 1.409 . S
C1167 H1194 0.931 . S
C1168 C1163 1.356 . S
C1168 C1167 1.409 . S
C1168 H1195 0.930 . S
C1169 O1182 1.270 1_554 S
C1169 O1183 1.248 . S
C1170 O1184 1.267 1_554 S
C1170 O1185 1.278 . S
C1171 Pr1161 2.880 . S
C1171 C1172 1.491 . S
C1171 O1186 1.254 . S
C1171 O1187 1.225 . S
C1172 C1171 1.491 . S
C1172 C1173 1.392 . S
C1172 C1177 1.356 . S
C1173 C1172 1.392 . S
C1173 C1174 1.368 . S
C1173 H1196 0.929 . S
C1174 C1173 1.368 . S
C1174 C1175 1.386 . S
C1174 H1197 0.929 . S
C1175 C1174 1.386 . S
C1175 C1176 1.373 . S
C1176 C1175 1.373 . S
C1176 C1177 1.409 . S
C1176 H1198 0.931 . S
C1177 C1172 1.356 . S
C1177 C1176 1.409 . S
C1177 H1199 0.930 . S
C1178 O1188 1.270 1_556 S
C1178 O1189 1.248 . S
C1179 O1190 1.267 1_556 S
C1179 O1191 1.278 . S
O1180 Pr1160 2.562 . S
O1180 C1162 1.254 . S
O1181 Pr1160 2.490 . S
O1181 C1162 1.225 . S
O1182 Pr1160 2.695 1_556 S
O1182 Pr1161 2.436 . S
O1182 C1169 1.270 1_556 S
O1183 Pr1160 2.512 . S
O1183 C1169 1.248 . S
O1184 Pr1161 2.438 . S
O1184 C1170 1.267 1_556 S
O1185 Pr1160 2.437 . S
O1185 C1170 1.278 . S
O1186 Pr1161 2.562 . S
O1186 C1171 1.254 . S
O1187 Pr1161 2.490 . S
O1187 C1171 1.225 . S
O1188 Pr1160 2.436 . S
O1188 Pr1161 2.695 1_554 S
O1188 C1178 1.270 1_554 S
O1189 Pr1161 2.512 . S
O1189 C1178 1.248 . S
O1190 Pr1160 2.438 . S
O1190 C1179 1.267 1_554 S
O1191 Pr1161 2.437 . S
O1191 C1179 1.278 . S
H1192 C1164 0.929 . S
H1193 C1165 0.929 . S
H1194 C1167 0.931 . S
H1195 C1168 0.930 . S
H1196 C1173 0.929 . S
H1197 C1174 0.929 . S
H1198 C1176 0.931 . S
H1199 C1177 0.930 . S
Pr1200 C1202 2.880 . S
Pr1200 O1220 2.562 . S
Pr1200 O1221 2.490 . S
Pr1200 O1222 2.695 . S
Pr1200 O1223 2.512 . S
Pr1200 O1225 2.437 . S
Pr1200 O1228 2.436 . S
Pr1200 O1230 2.438 . S
Pr1201 C1211 2.880 . S
Pr1201 O1222 2.436 . S
Pr1201 O1224 2.438 . S
Pr1201 O1226 2.562 . S
Pr1201 O1227 2.490 . S
Pr1201 O1228 2.695 . S
Pr1201 O1229 2.512 . S
Pr1201 O1231 2.437 . S
C1202 Pr1200 2.880 . S
C1202 C1203 1.491 . S
C1202 O1220 1.254 . S
C1202 O1221 1.225 . S
C1203 C1202 1.491 . S
C1203 C1204 1.392 . S
C1203 C1208 1.356 . S
C1204 C1203 1.392 . S
C1204 C1205 1.368 . S
C1204 H1232 0.929 . S
C1205 C1204 1.368 . S
C1205 C1206 1.386 . S
C1205 H1233 0.929 . S
C1206 C1205 1.386 . S
C1206 C1207 1.373 . S
C1207 C1206 1.373 . S
C1207 C1208 1.409 . S
C1207 H1234 0.931 . S
C1208 C1203 1.356 . S
C1208 C1207 1.409 . S
C1208 H1235 0.930 . S
C1209 O1222 1.270 . S
C1209 O1223 1.248 . S
C1210 O1224 1.267 . S
C1210 O1225 1.278 . S
C1211 Pr1201 2.880 . S
C1211 C1212 1.491 . S
C1211 O1226 1.254 . S
C1211 O1227 1.225 . S
C1212 C1211 1.491 . S
C1212 C1213 1.392 . S
C1212 C1217 1.356 . S
C1213 C1212 1.392 . S
C1213 C1214 1.368 . S
C1213 H1236 0.929 . S
C1214 C1213 1.368 . S
C1214 C1215 1.386 . S
C1214 H1237 0.929 . S
C1215 C1214 1.386 . S
C1215 C1216 1.373 . S
C1216 C1215 1.373 . S
C1216 C1217 1.409 . S
C1216 H1238 0.931 . S
C1217 C1212 1.356 . S
C1217 C1216 1.409 . S
C1217 H1239 0.930 . S
C1218 O1228 1.270 . S
C1218 O1229 1.248 . S
C1219 O1230 1.267 . S
C1219 O1231 1.278 . S
O1220 Pr1200 2.562 . S
O1220 C1202 1.254 . S
O1221 Pr1200 2.490 . S
O1221 C1202 1.225 . S
O1222 Pr1200 2.695 . S
O1222 Pr1201 2.436 . S
O1222 C1209 1.270 . S
O1223 Pr1200 2.512 . S
O1223 C1209 1.248 . S
O1224 Pr1201 2.438 . S
O1224 C1210 1.267 . S
O1225 Pr1200 2.437 . S
O1225 C1210 1.278 . S
O1226 Pr1201 2.562 . S
O1226 C1211 1.254 . S
O1227 Pr1201 2.490 . S
O1227 C1211 1.225 . S
O1228 Pr1200 2.436 . S
O1228 Pr1201 2.695 . S
O1228 C1218 1.270 . S
O1229 Pr1201 2.512 . S
O1229 C1218 1.248 . S
O1230 Pr1200 2.438 . S
O1230 C1219 1.267 . S
O1231 Pr1201 2.437 . S
O1231 C1219 1.278 . S
H1232 C1204 0.929 . S
H1233 C1205 0.929 . S
H1234 C1207 0.931 . S
H1235 C1208 0.930 . S
H1236 C1213 0.929 . S
H1237 C1214 0.929 . S
H1238 C1216 0.931 . S
H1239 C1217 0.930 . S
Pr1240 C1242 2.880 . S
Pr1240 O1260 2.562 . S
Pr1240 O1261 2.490 . S
Pr1240 O1262 2.695 . S
Pr1240 O1263 2.512 . S
Pr1240 O1265 2.437 . S
Pr1240 O1268 2.436 . S
Pr1240 O1270 2.438 . S
Pr1241 C1251 2.880 . S
Pr1241 O1262 2.436 . S
Pr1241 O1264 2.438 . S
Pr1241 O1266 2.562 . S
Pr1241 O1267 2.490 . S
Pr1241 O1268 2.695 . S
Pr1241 O1269 2.512 . S
Pr1241 O1271 2.437 . S
C1242 Pr1240 2.880 . S
C1242 C1243 1.491 . S
C1242 O1260 1.254 . S
C1242 O1261 1.225 . S
C1243 C1242 1.491 . S
C1243 C1244 1.392 . S
C1243 C1248 1.356 . S
C1244 C1243 1.392 . S
C1244 C1245 1.368 . S
C1244 H1272 0.929 . S
C1245 C1244 1.368 . S
C1245 C1246 1.386 . S
C1245 H1273 0.929 . S
C1246 C1245 1.386 . S
C1246 C1247 1.373 . S
C1247 C1246 1.373 . S
C1247 C1248 1.409 . S
C1247 H1274 0.931 . S
C1248 C1243 1.356 . S
C1248 C1247 1.409 . S
C1248 H1275 0.930 . S
C1249 O1262 1.270 . S
C1249 O1263 1.248 . S
C1250 O1264 1.267 . S
C1250 O1265 1.278 . S
C1251 Pr1241 2.880 . S
C1251 C1252 1.491 . S
C1251 O1266 1.254 . S
C1251 O1267 1.225 . S
C1252 C1251 1.491 . S
C1252 C1253 1.392 . S
C1252 C1257 1.356 . S
C1253 C1252 1.392 . S
C1253 C1254 1.368 . S
C1253 H1276 0.929 . S
C1254 C1253 1.368 . S
C1254 C1255 1.386 . S
C1254 H1277 0.929 . S
C1255 C1254 1.386 . S
C1255 C1256 1.373 . S
C1256 C1255 1.373 . S
C1256 C1257 1.409 . S
C1256 H1278 0.931 . S
C1257 C1252 1.356 . S
C1257 C1256 1.409 . S
C1257 H1279 0.930 . S
C1258 O1268 1.270 . S
C1258 O1269 1.248 . S
C1259 O1270 1.267 . S
C1259 O1271 1.278 . S
O1260 Pr1240 2.562 . S
O1260 C1242 1.254 . S
O1261 Pr1240 2.490 . S
O1261 C1242 1.225 . S
O1262 Pr1240 2.695 . S
O1262 Pr1241 2.436 . S
O1262 C1249 1.270 . S
O1263 Pr1240 2.512 . S
O1263 C1249 1.248 . S
O1264 Pr1241 2.438 . S
O1264 C1250 1.267 . S
O1265 Pr1240 2.437 . S
O1265 C1250 1.278 . S
O1266 Pr1241 2.562 . S
O1266 C1251 1.254 . S
O1267 Pr1241 2.490 . S
O1267 C1251 1.225 . S
O1268 Pr1240 2.436 . S
O1268 Pr1241 2.695 . S
O1268 C1258 1.270 . S
O1269 Pr1241 2.512 . S
O1269 C1258 1.248 . S
O1270 Pr1240 2.438 . S
O1270 C1259 1.267 . S
O1271 Pr1241 2.437 . S
O1271 C1259 1.278 . S
H1272 C1244 0.929 . S
H1273 C1245 0.929 . S
H1274 C1247 0.931 . S
H1275 C1248 0.930 . S
H1276 C1253 0.929 . S
H1277 C1254 0.929 . S
H1278 C1256 0.931 . S
H1279 C1257 0.930 . S
Pr1280 C1282 2.880 . S
Pr1280 O1300 2.562 . S
Pr1280 O1301 2.490 . S
Pr1280 O1302 2.695 . S
Pr1280 O1303 2.512 . S
Pr1280 O1305 2.437 . S
Pr1280 O1308 2.436 . S
Pr1280 O1310 2.438 . S
Pr1281 C1291 2.880 . S
Pr1281 O1302 2.436 . S
Pr1281 O1304 2.438 . S
Pr1281 O1306 2.562 . S
Pr1281 O1307 2.490 . S
Pr1281 O1308 2.695 . S
Pr1281 O1309 2.512 . S
Pr1281 O1311 2.437 . S
C1282 Pr1280 2.880 . S
C1282 C1283 1.491 . S
C1282 O1300 1.254 . S
C1282 O1301 1.225 . S
C1283 C1282 1.491 . S
C1283 C1284 1.392 . S
C1283 C1288 1.356 . S
C1284 C1283 1.392 . S
C1284 C1285 1.368 . S
C1284 H1312 0.929 . S
C1285 C1284 1.368 . S
C1285 C1286 1.386 . S
C1285 H1313 0.929 . S
C1286 C1285 1.386 . S
C1286 C1287 1.373 . S
C1287 C1286 1.373 . S
C1287 C1288 1.409 . S
C1287 H1314 0.931 . S
C1288 C1283 1.356 . S
C1288 C1287 1.409 . S
C1288 H1315 0.930 . S
C1289 O1302 1.270 . S
C1289 O1303 1.248 . S
C1290 O1304 1.267 . S
C1290 O1305 1.278 . S
C1291 Pr1281 2.880 . S
C1291 C1292 1.491 . S
C1291 O1306 1.254 . S
C1291 O1307 1.225 . S
C1292 C1291 1.491 . S
C1292 C1293 1.392 . S
C1292 C1297 1.356 . S
C1293 C1292 1.392 . S
C1293 C1294 1.368 . S
C1293 H1316 0.929 . S
C1294 C1293 1.368 . S
C1294 C1295 1.386 . S
C1294 H1317 0.929 . S
C1295 C1294 1.386 . S
C1295 C1296 1.373 . S
C1296 C1295 1.373 . S
C1296 C1297 1.409 . S
C1296 H1318 0.931 . S
C1297 C1292 1.356 . S
C1297 C1296 1.409 . S
C1297 H1319 0.930 . S
C1298 O1308 1.270 . S
C1298 O1309 1.248 . S
C1299 O1310 1.267 . S
C1299 O1311 1.278 . S
O1300 Pr1280 2.562 . S
O1300 C1282 1.254 . S
O1301 Pr1280 2.490 . S
O1301 C1282 1.225 . S
O1302 Pr1280 2.695 . S
O1302 Pr1281 2.436 . S
O1302 C1289 1.270 . S
O1303 Pr1280 2.512 . S
O1303 C1289 1.248 . S
O1304 Pr1281 2.438 . S
O1304 C1290 1.267 . S
O1305 Pr1280 2.437 . S
O1305 C1290 1.278 . S
O1306 Pr1281 2.562 . S
O1306 C1291 1.254 . S
O1307 Pr1281 2.490 . S
O1307 C1291 1.225 . S
O1308 Pr1280 2.436 . S
O1308 Pr1281 2.695 . S
O1308 C1298 1.270 . S
O1309 Pr1281 2.512 . S
O1309 C1298 1.248 . S
O1310 Pr1280 2.438 . S
O1310 C1299 1.267 . S
O1311 Pr1281 2.437 . S
O1311 C1299 1.278 . S
H1312 C1284 0.929 . S
H1313 C1285 0.929 . S
H1314 C1287 0.931 . S
H1315 C1288 0.930 . S
H1316 C1293 0.929 . S
H1317 C1294 0.929 . S
H1318 C1296 0.931 . S
H1319 C1297 0.930 . S
Pr1320 C1322 2.880 . S
Pr1320 O1340 2.562 . S
Pr1320 O1341 2.490 . S
Pr1320 O1342 2.695 . S
Pr1320 O1343 2.512 . S
Pr1320 O1345 2.437 . S
Pr1320 O1348 2.436 . S
Pr1320 O1350 2.438 . S
Pr1321 C1331 2.880 . S
Pr1321 O1342 2.436 . S
Pr1321 O1344 2.438 . S
Pr1321 O1346 2.562 . S
Pr1321 O1347 2.490 . S
Pr1321 O1348 2.695 . S
Pr1321 O1349 2.512 . S
Pr1321 O1351 2.437 . S
C1322 Pr1320 2.880 . S
C1322 C1323 1.491 . S
C1322 O1340 1.254 . S
C1322 O1341 1.225 . S
C1323 C1322 1.491 . S
C1323 C1324 1.392 . S
C1323 C1328 1.356 . S
C1324 C1323 1.392 . S
C1324 C1325 1.368 . S
C1324 H1352 0.929 . S
C1325 C1324 1.368 . S
C1325 C1326 1.386 . S
C1325 H1353 0.929 . S
C1326 C1325 1.386 . S
C1326 C1327 1.373 . S
C1327 C1326 1.373 . S
C1327 C1328 1.409 . S
C1327 H1354 0.931 . S
C1328 C1323 1.356 . S
C1328 C1327 1.409 . S
C1328 H1355 0.930 . S
C1329 O1342 1.270 . S
C1329 O1343 1.248 . S
C1330 O1344 1.267 . S
C1330 O1345 1.278 . S
C1331 Pr1321 2.880 . S
C1331 C1332 1.491 . S
C1331 O1346 1.254 . S
C1331 O1347 1.225 . S
C1332 C1331 1.491 . S
C1332 C1333 1.392 . S
C1332 C1337 1.356 . S
C1333 C1332 1.392 . S
C1333 C1334 1.368 . S
C1333 H1356 0.929 . S
C1334 C1333 1.368 . S
C1334 C1335 1.386 . S
C1334 H1357 0.929 . S
C1335 C1334 1.386 . S
C1335 C1336 1.373 1_455 S
C1336 C1335 1.373 1_655 S
C1336 C1337 1.409 1_655 S
C1336 H1358 0.931 . S
C1337 C1332 1.356 . S
C1337 C1336 1.409 1_455 S
C1337 H1359 0.930 1_455 S
C1338 O1348 1.270 . S
C1338 O1349 1.248 . S
C1339 O1350 1.267 . S
C1339 O1351 1.278 . S
O1340 Pr1320 2.562 . S
O1340 C1322 1.254 . S
O1341 Pr1320 2.490 . S
O1341 C1322 1.225 . S
O1342 Pr1320 2.695 . S
O1342 Pr1321 2.436 . S
O1342 C1329 1.270 . S
O1343 Pr1320 2.512 . S
O1343 C1329 1.248 . S
O1344 Pr1321 2.438 . S
O1344 C1330 1.267 . S
O1345 Pr1320 2.437 . S
O1345 C1330 1.278 . S
O1346 Pr1321 2.562 . S
O1346 C1331 1.254 . S
O1347 Pr1321 2.490 . S
O1347 C1331 1.225 . S
O1348 Pr1320 2.436 . S
O1348 Pr1321 2.695 . S
O1348 C1338 1.270 . S
O1349 Pr1321 2.512 . S
O1349 C1338 1.248 . S
O1350 Pr1320 2.438 . S
O1350 C1339 1.267 . S
O1351 Pr1321 2.437 . S
O1351 C1339 1.278 . S
H1352 C1324 0.929 . S
H1353 C1325 0.929 . S
H1354 C1327 0.931 . S
H1355 C1328 0.930 . S
H1356 C1333 0.929 . S
H1357 C1334 0.929 . S
H1358 C1336 0.931 . S
H1359 C1337 0.930 1_655 S
Pr1360 C1362 2.880 . S
Pr1360 O1380 2.562 . S
Pr1360 O1381 2.490 . S
Pr1360 O1382 2.695 . S
Pr1360 O1383 2.512 . S
Pr1360 O1385 2.437 . S
Pr1360 O1388 2.436 . S
Pr1360 O1390 2.438 . S
Pr1361 C1371 2.880 . S
Pr1361 O1382 2.436 . S
Pr1361 O1384 2.438 . S
Pr1361 O1386 2.562 . S
Pr1361 O1387 2.490 . S
Pr1361 O1388 2.695 . S
Pr1361 O1389 2.512 . S
Pr1361 O1391 2.437 . S
C1362 Pr1360 2.880 . S
C1362 C1363 1.491 . S
C1362 O1380 1.254 . S
C1362 O1381 1.225 . S
C1363 C1362 1.491 . S
C1363 C1364 1.392 . S
C1363 C1368 1.356 . S
C1364 C1363 1.392 . S
C1364 C1365 1.368 . S
C1364 H1392 0.929 . S
C1365 C1364 1.368 . S
C1365 C1366 1.386 . S
C1365 H1393 0.929 . S
C1366 C1365 1.386 . S
C1366 C1367 1.373 . S
C1367 C1366 1.373 . S
C1367 C1368 1.409 . S
C1367 H1394 0.931 . S
C1368 C1363 1.356 . S
C1368 C1367 1.409 . S
C1368 H1395 0.930 . S
C1369 O1382 1.270 . S
C1369 O1383 1.248 . S
C1370 O1384 1.267 . S
C1370 O1385 1.278 . S
C1371 Pr1361 2.880 . S
C1371 C1372 1.491 . S
C1371 O1386 1.254 . S
C1371 O1387 1.225 . S
C1372 C1371 1.491 . S
C1372 C1373 1.392 . S
C1372 C1377 1.356 . S
C1373 C1372 1.392 . S
C1373 C1374 1.368 . S
C1373 H1396 0.929 . S
C1374 C1373 1.368 . S
C1374 C1375 1.386 . S
C1374 H1397 0.929 . S
C1375 C1374 1.386 . S
C1375 C1376 1.373 . S
C1376 C1375 1.373 . S
C1376 C1377 1.409 . S
C1376 H1398 0.931 . S
C1377 C1372 1.356 . S
C1377 C1376 1.409 . S
C1377 H1399 0.930 . S
C1378 O1388 1.270 . S
C1378 O1389 1.248 . S
C1379 O1390 1.267 . S
C1379 O1391 1.278 . S
O1380 Pr1360 2.562 . S
O1380 C1362 1.254 . S
O1381 Pr1360 2.490 . S
O1381 C1362 1.225 . S
O1382 Pr1360 2.695 . S
O1382 Pr1361 2.436 . S
O1382 C1369 1.270 . S
O1383 Pr1360 2.512 . S
O1383 C1369 1.248 . S
O1384 Pr1361 2.438 . S
O1384 C1370 1.267 . S
O1385 Pr1360 2.437 . S
O1385 C1370 1.278 . S
O1386 Pr1361 2.562 . S
O1386 C1371 1.254 . S
O1387 Pr1361 2.490 . S
O1387 C1371 1.225 . S
O1388 Pr1360 2.436 . S
O1388 Pr1361 2.695 . S
O1388 C1378 1.270 . S
O1389 Pr1361 2.512 . S
O1389 C1378 1.248 . S
O1390 Pr1360 2.438 . S
O1390 C1379 1.267 . S
O1391 Pr1361 2.437 . S
O1391 C1379 1.278 . S
H1392 C1364 0.929 . S
H1393 C1365 0.929 . S
H1394 C1367 0.931 . S
H1395 C1368 0.930 . S
H1396 C1373 0.929 . S
H1397 C1374 0.929 . S
H1398 C1376 0.931 . S
H1399 C1377 0.930 . S
Pr1400 C1402 2.880 . S
Pr1400 O1420 2.562 . S
Pr1400 O1421 2.490 . S
Pr1400 O1422 2.695 . S
Pr1400 O1423 2.512 . S
Pr1400 O1425 2.437 . S
Pr1400 O1428 2.436 . S
Pr1400 O1430 2.438 . S
Pr1401 C1411 2.880 . S
Pr1401 O1422 2.436 . S
Pr1401 O1424 2.438 . S
Pr1401 O1426 2.562 . S
Pr1401 O1427 2.490 . S
Pr1401 O1428 2.695 . S
Pr1401 O1429 2.512 . S
Pr1401 O1431 2.437 . S
C1402 Pr1400 2.880 . S
C1402 C1403 1.491 . S
C1402 O1420 1.254 . S
C1402 O1421 1.225 . S
C1403 C1402 1.491 . S
C1403 C1404 1.392 . S
C1403 C1408 1.356 . S
C1404 C1403 1.392 . S
C1404 C1405 1.368 . S
C1404 H1432 0.929 . S
C1405 C1404 1.368 . S
C1405 C1406 1.386 . S
C1405 H1433 0.929 . S
C1406 C1405 1.386 . S
C1406 C1407 1.373 . S
C1407 C1406 1.373 . S
C1407 C1408 1.409 . S
C1407 H1434 0.931 . S
C1408 C1403 1.356 . S
C1408 C1407 1.409 . S
C1408 H1435 0.930 . S
C1409 O1422 1.270 . S
C1409 O1423 1.248 . S
C1410 O1424 1.267 . S
C1410 O1425 1.278 . S
C1411 Pr1401 2.880 . S
C1411 C1412 1.491 . S
C1411 O1426 1.254 . S
C1411 O1427 1.225 . S
C1412 C1411 1.491 . S
C1412 C1413 1.392 . S
C1412 C1417 1.356 . S
C1413 C1412 1.392 . S
C1413 C1414 1.368 . S
C1413 H1436 0.929 . S
C1414 C1413 1.368 . S
C1414 C1415 1.386 . S
C1414 H1437 0.929 . S
C1415 C1414 1.386 . S
C1415 C1416 1.373 1_565 S
C1416 C1415 1.373 1_545 S
C1416 C1417 1.409 1_545 S
C1416 H1438 0.931 . S
C1417 C1412 1.356 . S
C1417 C1416 1.409 1_565 S
C1417 H1439 0.930 1_565 S
C1418 O1428 1.270 . S
C1418 O1429 1.248 . S
C1419 O1430 1.267 . S
C1419 O1431 1.278 . S
O1420 Pr1400 2.562 . S
O1420 C1402 1.254 . S
O1421 Pr1400 2.490 . S
O1421 C1402 1.225 . S
O1422 Pr1400 2.695 . S
O1422 Pr1401 2.436 . S
O1422 C1409 1.270 . S
O1423 Pr1400 2.512 . S
O1423 C1409 1.248 . S
O1424 Pr1401 2.438 . S
O1424 C1410 1.267 . S
O1425 Pr1400 2.437 . S
O1425 C1410 1.278 . S
O1426 Pr1401 2.562 . S
O1426 C1411 1.254 . S
O1427 Pr1401 2.490 . S
O1427 C1411 1.225 . S
O1428 Pr1400 2.436 . S
O1428 Pr1401 2.695 . S
O1428 C1418 1.270 . S
O1429 Pr1401 2.512 . S
O1429 C1418 1.248 . S
O1430 Pr1400 2.438 . S
O1430 C1419 1.267 . S
O1431 Pr1401 2.437 . S
O1431 C1419 1.278 . S
H1432 C1404 0.929 . S
H1433 C1405 0.929 . S
H1434 C1407 0.931 . S
H1435 C1408 0.930 . S
H1436 C1413 0.929 . S
H1437 C1414 0.929 . S
H1438 C1416 0.931 . S
H1439 C1417 0.930 1_545 S
H1440 C1446 0.930 . S
H1441 C1450 0.930 . S
H1442 C1455 0.929 . S
H1443 C1453 0.929 . S
H1444 C1448 0.929 . S
H1445 C1454 0.929 . S
C1446 H1440 0.930 . S
C1446 C1447 1.367 . S
C1446 C1454 1.378 . S
C1447 C1446 1.367 . S
C1447 C1455 1.433 . S
C1448 H1444 0.929 . S
C1448 C1450 1.378 . S
C1448 C1452 1.350 . S
C1449 C1452 1.463 . S
C1449 C1454 1.350 . S
C1449 N1457 1.427 . S
C1450 H1441 0.930 . S
C1450 C1448 1.378 . S
C1450 C1451 1.367 1_545 S
C1451 C1450 1.367 1_565 S
C1451 C1453 1.433 . S
C1452 C1448 1.350 . S
C1452 C1449 1.463 . S
C1452 N1456 1.427 . S
C1453 H1443 0.929 . S
C1453 C1451 1.433 . S
C1453 N1456 1.384 1_565 S
C1454 H1445 0.929 . S
C1454 C1446 1.378 . S
C1454 C1449 1.350 . S
C1455 H1442 0.929 . S
C1455 C1447 1.433 . S
C1455 N1457 1.384 . S
N1456 C1452 1.427 . S
N1456 C1453 1.384 1_545 S
N1457 C1449 1.427 . S
N1457 C1455 1.384 . S
H1458 C1464 0.930 . S
H1459 C1468 0.930 . S
H1460 C1473 0.929 1_455 S
H1461 C1471 0.930 1_565 S
H1462 C1466 0.929 . S
H1463 C1472 0.929 . S
C1464 H1458 0.930 . S
C1464 C1465 1.367 . S
C1464 C1472 1.378 1_455 S
C1465 C1464 1.367 . S
C1465 C1473 1.433 1_455 S
C1466 H1462 0.929 . S
C1466 C1468 1.378 . S
C1466 C1470 1.350 . S
C1467 C1470 1.463 . S
C1467 C1472 1.350 . S
C1467 N1475 1.427 . S
C1468 H1459 0.930 . S
C1468 C1466 1.378 . S
C1468 C1469 1.367 . S
C1469 C1468 1.367 . S
C1469 C1471 1.433 . S
C1470 C1466 1.350 . S
C1470 C1467 1.463 . S
C1470 N1474 1.427 . S
C1471 H1461 0.930 1_545 S
C1471 C1469 1.433 . S
C1471 N1474 1.383 . S
C1472 H1463 0.929 . S
C1472 C1464 1.378 1_655 S
C1472 C1467 1.350 . S
C1473 H1460 0.929 1_655 S
C1473 C1465 1.433 1_655 S
C1473 N1475 1.384 . S
N1474 C1470 1.427 . S
N1474 C1471 1.383 . S
N1475 C1467 1.427 . S
N1475 C1473 1.384 . S
H1476 C1482 0.930 1_455 S
H1477 C1486 0.930 . S
H1478 C1491 0.929 . S
H1479 C1489 0.929 . S
H1480 C1484 0.929 . S
H1481 C1490 0.929 . S
C1482 H1476 0.930 1_655 S
C1482 C1483 1.367 . S
C1482 C1490 1.378 . S
C1483 C1482 1.367 . S
C1483 C1491 1.433 . S
C1484 H1480 0.929 . S
C1484 C1486 1.378 . S
C1484 C1488 1.350 . S
C1485 C1488 1.463 . S
C1485 C1490 1.350 . S
C1485 N1493 1.427 . S
C1486 H1477 0.930 . S
C1486 C1484 1.378 . S
C1486 C1487 1.367 . S
C1487 C1486 1.367 . S
C1487 C1489 1.433 . S
C1488 C1484 1.350 . S
C1488 C1485 1.463 . S
C1488 N1492 1.427 . S
C1489 H1479 0.929 . S
C1489 C1487 1.433 . S
C1489 N1492 1.384 . S
C1490 H1481 0.929 . S
C1490 C1482 1.378 . S
C1490 C1485 1.350 . S
C1491 H1478 0.929 . S
C1491 C1483 1.433 . S
C1491 N1493 1.384 . S
N1492 C1488 1.427 . S
N1492 C1489 1.384 . S
N1493 C1485 1.427 . S
N1493 C1491 1.384 . S
H1494 C1500 0.930 . S
H1495 C1504 0.930 . S
H1496 C1509 0.929 . S
H1497 C1507 0.929 . S
H1498 C1502 0.929 . S
H1499 C1508 0.929 . S
C1500 H1494 0.930 . S
C1500 C1501 1.367 . S
C1500 C1508 1.378 . S
C1501 C1500 1.367 . S
C1501 C1509 1.433 . S
C1502 H1498 0.929 . S
C1502 C1504 1.378 . S
C1502 C1506 1.350 . S
C1503 C1506 1.463 . S
C1503 C1508 1.350 . S
C1503 N1511 1.427 . S
C1504 H1495 0.930 . S
C1504 C1502 1.378 . S
C1504 C1505 1.367 1_455 S
C1505 C1504 1.367 1_655 S
C1505 C1507 1.433 . S
C1506 C1502 1.350 . S
C1506 C1503 1.463 . S
C1506 N1510 1.427 . S
C1507 H1497 0.929 . S
C1507 C1505 1.433 . S
C1507 N1510 1.384 1_655 S
C1508 H1499 0.929 . S
C1508 C1500 1.378 . S
C1508 C1503 1.350 . S
C1509 H1496 0.929 . S
C1509 C1501 1.433 . S
C1509 N1511 1.384 . S
N1510 C1506 1.427 . S
N1510 C1507 1.384 1_455 S
N1511 C1503 1.427 . S
N1511 C1509 1.384 . S
H1512 C1518 0.930 . S
H1513 C1522 0.930 . S
H1514 C1527 0.929 . S
H1515 C1525 0.929 1_545 S
H1516 C1520 0.929 . S
H1517 C1526 0.929 . S
C1518 H1512 0.930 . S
C1518 C1519 1.367 . S
C1518 C1526 1.378 . S
C1519 C1518 1.367 . S
C1519 C1527 1.433 . S
C1520 H1516 0.929 . S
C1520 C1522 1.378 . S
C1520 C1524 1.350 . S
C1521 C1524 1.463 . S
C1521 C1526 1.350 . S
C1521 N1529 1.427 . S
C1522 H1513 0.930 . S
C1522 C1520 1.378 . S
C1522 C1523 1.367 . S
C1523 C1522 1.367 . S
C1523 C1525 1.433 . S
C1524 C1520 1.350 . S
C1524 C1521 1.463 . S
C1524 N1528 1.427 . S
C1525 H1515 0.929 1_565 S
C1525 C1523 1.433 . S
C1525 N1528 1.384 . S
C1526 H1517 0.929 . S
C1526 C1518 1.378 . S
C1526 C1521 1.350 . S
C1527 H1514 0.929 . S
C1527 C1519 1.433 . S
C1527 N1529 1.384 . S
N1528 C1524 1.427 . S
N1528 C1525 1.384 . S
N1529 C1521 1.427 . S
N1529 C1527 1.384 . S
H1530 C1536 0.930 1_655 S
H1531 C1540 0.930 . S
H1532 C1545 0.929 . S
H1533 C1543 0.929 . S
H1534 C1538 0.929 . S
H1535 C1544 0.929 . S
C1536 H1530 0.930 1_455 S
C1536 C1537 1.367 . S
C1536 C1544 1.378 . S
C1537 C1536 1.367 . S
C1537 C1545 1.433 . S
C1538 H1534 0.929 . S
C1538 C1540 1.378 1_565 S
C1538 C1542 1.350 . S
C1539 C1542 1.463 . S
C1539 C1544 1.350 . S
C1539 N1547 1.427 . S
C1540 H1531 0.930 . S
C1540 C1538 1.378 1_545 S
C1540 C1541 1.367 . S
C1541 C1540 1.367 . S
C1541 C1543 1.433 . S
C1542 C1538 1.350 . S
C1542 C1539 1.463 . S
C1542 N1546 1.427 . S
C1543 H1533 0.929 . S
C1543 C1541 1.433 . S
C1543 N1546 1.384 1_545 S
C1544 H1535 0.929 . S
C1544 C1536 1.378 . S
C1544 C1539 1.350 . S
C1545 H1532 0.929 . S
C1545 C1537 1.433 . S
C1545 N1547 1.384 . S
N1546 C1542 1.427 . S
N1546 C1543 1.384 1_565 S
N1547 C1539 1.427 . S
N1547 C1545 1.384 . S
H1548 C1554 0.930 . S
H1549 C1558 0.930 1_545 S
H1550 C1563 0.929 . S
H1551 C1561 0.929 . S
H1552 C1556 0.929 . S
H1553 C1562 0.929 . S
C1554 H1548 0.930 . S
C1554 C1555 1.367 . S
C1554 C1562 1.378 . S
C1555 C1554 1.367 . S
C1555 C1563 1.433 . S
C1556 H1552 0.929 . S
C1556 C1558 1.378 . S
C1556 C1560 1.350 . S
C1557 C1560 1.463 . S
C1557 C1562 1.350 . S
C1557 N1565 1.427 . S
C1558 H1549 0.930 1_565 S
C1558 C1556 1.378 . S
C1558 C1559 1.367 1_565 S
C1559 C1558 1.367 1_545 S
C1559 C1561 1.433 . S
C1560 C1556 1.350 . S
C1560 C1557 1.463 . S
C1560 N1564 1.427 . S
C1561 H1551 0.929 . S
C1561 C1559 1.433 . S
C1561 N1564 1.384 1_545 S
C1562 H1553 0.929 . S
C1562 C1554 1.378 . S
C1562 C1557 1.350 . S
C1563 H1550 0.929 . S
C1563 C1555 1.433 . S
C1563 N1565 1.384 . S
N1564 C1560 1.427 . S
N1564 C1561 1.384 1_565 S
N1565 C1557 1.427 . S
N1565 C1563 1.384 . S
H1566 C1572 0.930 . S
H1567 C1576 0.930 . S
H1568 C1581 0.929 1_545 S
H1569 C1579 0.929 . S
H1570 C1574 0.929 . S
H1571 C1580 0.929 . S
C1572 H1566 0.930 . S
C1572 C1573 1.367 . S
C1572 C1580 1.378 . S
C1573 C1572 1.367 . S
C1573 C1581 1.433 . S
C1574 H1570 0.929 . S
C1574 C1576 1.378 1_455 S
C1574 C1578 1.350 . S
C1575 C1578 1.463 . S
C1575 C1580 1.350 . S
C1575 N1583 1.427 . S
C1576 H1567 0.930 . S
C1576 C1574 1.378 1_655 S
C1576 C1577 1.367 . S
C1577 C1576 1.367 . S
C1577 C1579 1.432 . S
C1578 C1574 1.350 . S
C1578 C1575 1.463 . S
C1578 N1582 1.427 . S
C1579 H1569 0.929 . S
C1579 C1577 1.432 . S
C1579 N1582 1.385 1_655 S
C1580 H1571 0.929 . S
C1580 C1572 1.378 . S
C1580 C1575 1.350 . S
C1581 H1568 0.929 1_565 S
C1581 C1573 1.433 . S
C1581 N1583 1.384 . S
N1582 C1578 1.427 . S
N1582 C1579 1.385 1_455 S
N1583 C1575 1.427 . S
N1583 C1581 1.384 . S
H1584 C1590 0.930 . S
H1585 C1594 0.930 . S
H1586 C1599 0.929 . S
H1587 C1597 0.929 . S
H1588 C1592 0.929 . S
H1589 C1598 0.929 . S
C1590 H1584 0.930 . S
C1590 C1591 1.367 . S
C1590 C1598 1.378 . S
C1591 C1590 1.367 . S
C1591 C1599 1.433 . S
C1592 H1588 0.929 . S
C1592 C1594 1.378 . S
C1592 C1596 1.350 . S
C1593 C1596 1.463 . S
C1593 C1598 1.350 . S
C1593 N1601 1.427 . S
C1594 H1585 0.930 . S
C1594 C1592 1.378 . S
C1594 C1595 1.367 . S
C1595 C1594 1.367 . S
C1595 C1597 1.433 . S
C1596 C1592 1.350 . S
C1596 C1593 1.463 . S
C1596 N1600 1.427 . S
C1597 H1587 0.929 . S
C1597 C1595 1.433 . S
C1597 N1600 1.384 . S
C1598 H1589 0.929 . S
C1598 C1590 1.378 . S
C1598 C1593 1.350 . S
C1599 H1586 0.929 . S
C1599 C1591 1.433 . S
C1599 N1601 1.384 . S
N1600 C1596 1.427 . S
N1600 C1597 1.384 . S
N1601 C1593 1.427 . S
N1601 C1599 1.384 . S
H1602 C1608 0.930 . S
H1603 C1612 0.930 . S
H1604 C1617 0.929 . S
H1605 C1615 0.929 . S
H1606 C1610 0.929 . S
H1607 C1616 0.929 . S
C1608 H1602 0.930 . S
C1608 C1609 1.367 . S
C1608 C1616 1.378 . S
C1609 C1608 1.367 . S
C1609 C1617 1.433 . S
C1610 H1606 0.929 . S
C1610 C1612 1.378 . S
C1610 C1614 1.350 . S
C1611 C1614 1.463 . S
C1611 C1616 1.350 . S
C1611 N1619 1.427 . S
C1612 H1603 0.930 . S
C1612 C1610 1.378 . S
C1612 C1613 1.367 1_655 S
C1613 C1612 1.367 1_455 S
C1613 C1615 1.433 . S
C1614 C1610 1.350 . S
C1614 C1611 1.463 . S
C1614 N1618 1.427 . S
C1615 H1605 0.929 . S
C1615 C1613 1.433 . S
C1615 N1618 1.384 1_455 S
C1616 H1607 0.929 . S
C1616 C1608 1.378 . S
C1616 C1611 1.350 . S
C1617 H1604 0.929 . S
C1617 C1609 1.433 . S
C1617 N1619 1.384 . S
N1618 C1614 1.427 . S
N1618 C1615 1.384 1_655 S
N1619 C1611 1.427 . S
N1619 C1617 1.384 . S
H1620 C1626 0.930 . S
H1621 C1630 0.930 . S
H1622 C1635 0.929 . S
H1623 C1633 0.929 . S
H1624 C1628 0.929 . S
H1625 C1634 0.929 . S
C1626 H1620 0.930 . S
C1626 C1627 1.367 . S
C1626 C1634 1.378 . S
C1627 C1626 1.367 . S
C1627 C1635 1.433 . S
C1628 H1624 0.929 . S
C1628 C1630 1.378 . S
C1628 C1632 1.350 . S
C1629 C1632 1.463 . S
C1629 C1634 1.350 . S
C1629 N1637 1.427 . S
C1630 H1621 0.930 . S
C1630 C1628 1.378 . S
C1630 C1631 1.367 . S
C1631 C1630 1.367 . S
C1631 C1633 1.433 . S
C1632 C1628 1.350 . S
C1632 C1629 1.463 . S
C1632 N1636 1.427 . S
C1633 H1623 0.929 . S
C1633 C1631 1.433 . S
C1633 N1636 1.384 . S
C1634 H1625 0.929 . S
C1634 C1626 1.378 . S
C1634 C1629 1.350 . S
C1635 H1622 0.929 . S
C1635 C1627 1.433 . S
C1635 N1637 1.384 . S
N1636 C1632 1.427 . S
N1636 C1633 1.384 . S
N1637 C1629 1.427 . S
N1637 C1635 1.384 . S
H1638 C1644 0.930 1_565 S
H1639 C1648 0.930 1_455 S
H1640 C1653 0.929 . S
H1641 C1651 0.929 . S
H1642 C1646 0.929 . S
H1643 C1652 0.929 . S
C1644 H1638 0.930 1_545 S
C1644 C1645 1.367 1_545 S
C1644 C1652 1.378 . S
C1645 C1644 1.367 1_565 S
C1645 C1653 1.433 . S
C1646 H1642 0.929 . S
C1646 C1648 1.378 . S
C1646 C1650 1.350 . S
C1647 C1650 1.463 . S
C1647 C1652 1.350 . S
C1647 N1655 1.427 . S
C1648 H1639 0.930 1_655 S
C1648 C1646 1.378 . S
C1648 C1649 1.367 . S
C1649 C1648 1.367 . S
C1649 C1651 1.433 . S
C1650 C1646 1.350 . S
C1650 C1647 1.463 . S
C1650 N1654 1.427 . S
C1651 H1641 0.929 . S
C1651 C1649 1.433 . S
C1651 N1654 1.384 . S
C1652 H1643 0.929 . S
C1652 C1644 1.378 . S
C1652 C1647 1.350 . S
C1653 H1640 0.929 . S
C1653 C1645 1.433 . S
C1653 N1655 1.384 1_565 S
N1654 C1650 1.427 . S
N1654 C1651 1.384 . S
N1655 C1647 1.427 . S
N1655 C1653 1.384 1_545 S
H1656 C1662 0.930 . S
H1657 C1666 0.930 . S
H1658 C1671 0.929 . S
H1659 C1669 0.929 . S
H1660 C1664 0.929 . S
H1661 C1670 0.929 . S
C1662 H1656 0.930 . S
C1662 C1663 1.367 . S
C1662 C1670 1.378 . S
C1663 C1662 1.367 . S
C1663 C1671 1.433 . S
C1664 H1660 0.929 . S
C1664 C1666 1.378 . S
C1664 C1668 1.350 . S
C1665 C1668 1.463 . S
C1665 C1670 1.350 . S
C1665 N1673 1.427 . S
C1666 H1657 0.930 . S
C1666 C1664 1.378 . S
C1666 C1667 1.367 . S
C1667 C1666 1.367 . S
C1667 C1669 1.433 . S
C1668 C1664 1.350 . S
C1668 C1665 1.463 . S
C1668 N1672 1.427 . S
C1669 H1659 0.929 . S
C1669 C1667 1.433 . S
C1669 N1672 1.384 . S
C1670 H1661 0.929 . S
C1670 C1662 1.378 . S
C1670 C1665 1.350 . S
C1671 H1658 0.929 . S
C1671 C1663 1.433 . S
C1671 N1673 1.384 . S
N1672 C1668 1.427 . S
N1672 C1669 1.384 . S
N1673 C1665 1.427 . S
N1673 C1671 1.384 . S
H1674 C1680 0.930 . S
H1675 C1684 0.930 . S
H1676 C1689 0.929 . S
H1677 C1687 0.929 . S
H1678 C1682 0.929 . S
H1679 C1688 0.929 . S
C1680 H1674 0.930 . S
C1680 C1681 1.367 . S
C1680 C1688 1.378 . S
C1681 C1680 1.367 . S
C1681 C1689 1.433 . S
C1682 H1678 0.929 . S
C1682 C1684 1.378 . S
C1682 C1686 1.350 . S
C1683 C1686 1.463 . S
C1683 C1688 1.350 . S
C1683 N1691 1.427 . S
C1684 H1675 0.930 . S
C1684 C1682 1.378 . S
C1684 C1685 1.367 . S
C1685 C1684 1.367 . S
C1685 C1687 1.433 . S
C1686 C1682 1.350 . S
C1686 C1683 1.463 . S
C1686 N1690 1.427 . S
C1687 H1677 0.929 . S
C1687 C1685 1.433 . S
C1687 N1690 1.384 . S
C1688 H1679 0.929 . S
C1688 C1680 1.378 . S
C1688 C1683 1.350 . S
C1689 H1676 0.929 . S
C1689 C1681 1.433 . S
C1689 N1691 1.384 . S
N1690 C1686 1.427 . S
N1690 C1687 1.384 . S
N1691 C1683 1.427 . S
N1691 C1689 1.384 . S
H1692 C1698 0.930 . S
H1693 C1702 0.930 . S
H1694 C1707 0.929 . S
H1695 C1705 0.929 . S
H1696 C1700 0.929 . S
H1697 C1706 0.929 . S
C1698 H1692 0.930 . S
C1698 C1699 1.367 . S
C1698 C1706 1.378 . S
C1699 C1698 1.367 . S
C1699 C1707 1.433 . S
C1700 H1696 0.929 . S
C1700 C1702 1.378 . S
C1700 C1704 1.350 . S
C1701 C1704 1.463 . S
C1701 C1706 1.350 . S
C1701 N1709 1.427 . S
C1702 H1693 0.930 . S
C1702 C1700 1.378 . S
C1702 C1703 1.367 . S
C1703 C1702 1.367 . S
C1703 C1705 1.433 . S
C1704 C1700 1.350 . S
C1704 C1701 1.463 . S
C1704 N1708 1.427 . S
C1705 H1695 0.929 . S
C1705 C1703 1.433 . S
C1705 N1708 1.384 . S
C1706 H1697 0.929 . S
C1706 C1698 1.378 . S
C1706 C1701 1.350 . S
C1707 H1694 0.929 . S
C1707 C1699 1.433 . S
C1707 N1709 1.384 . S
N1708 C1704 1.427 . S
N1708 C1705 1.384 . S
N1709 C1701 1.427 . S
N1709 C1707 1.384 . S
H1710 C1716 0.930 . S
H1711 C1720 0.930 . S
H1712 C1725 0.929 . S
H1713 C1723 0.929 . S
H1714 C1718 0.929 . S
H1715 C1724 0.929 . S
C1716 H1710 0.930 . S
C1716 C1717 1.367 . S
C1716 C1724 1.378 . S
C1717 C1716 1.367 . S
C1717 C1725 1.433 . S
C1718 H1714 0.929 . S
C1718 C1720 1.378 . S
C1718 C1722 1.350 . S
C1719 C1722 1.463 . S
C1719 C1724 1.350 . S
C1719 N1727 1.427 . S
C1720 H1711 0.930 . S
C1720 C1718 1.378 . S
C1720 C1721 1.367 . S
C1721 C1720 1.367 . S
C1721 C1723 1.433 . S
C1722 C1718 1.350 . S
C1722 C1719 1.463 . S
C1722 N1726 1.427 . S
C1723 H1713 0.929 . S
C1723 C1721 1.433 . S
C1723 N1726 1.384 . S
C1724 H1715 0.929 . S
C1724 C1716 1.378 . S
C1724 C1719 1.350 . S
C1725 H1712 0.929 . S
C1725 C1717 1.433 . S
C1725 N1727 1.384 . S
N1726 C1722 1.427 . S
N1726 C1723 1.384 . S
N1727 C1719 1.427 . S
N1727 C1725 1.384 . S
H1728 C1734 0.930 . S
H1729 C1738 0.930 . S
H1730 C1743 0.929 . S
H1731 C1741 0.929 . S
H1732 C1736 0.929 . S
H1733 C1742 0.929 . S
C1734 H1728 0.930 . S
C1734 C1735 1.367 . S
C1734 C1742 1.378 . S
C1735 C1734 1.367 . S
C1735 C1743 1.433 . S
C1736 H1732 0.929 . S
C1736 C1738 1.378 . S
C1736 C1740 1.350 . S
C1737 C1740 1.463 . S
C1737 C1742 1.350 . S
C1737 N1745 1.427 . S
C1738 H1729 0.930 . S
C1738 C1736 1.378 . S
C1738 C1739 1.367 . S
C1739 C1738 1.367 . S
C1739 C1741 1.433 . S
C1740 C1736 1.350 . S
C1740 C1737 1.463 . S
C1740 N1744 1.427 . S
C1741 H1731 0.929 . S
C1741 C1739 1.433 . S
C1741 N1744 1.384 . S
C1742 H1733 0.929 . S
C1742 C1734 1.378 . S
C1742 C1737 1.350 . S
C1743 H1730 0.929 . S
C1743 C1735 1.433 . S
C1743 N1745 1.384 . S
N1744 C1740 1.427 . S
N1744 C1741 1.384 . S
N1745 C1737 1.427 . S
N1745 C1743 1.384 . S
H1746 C1752 0.930 . S
H1747 C1756 0.930 . S
H1748 C1761 0.929 . S
H1749 C1759 0.929 . S
H1750 C1754 0.929 . S
H1751 C1760 0.929 . S
C1752 H1746 0.930 . S
C1752 C1753 1.367 . S
C1752 C1760 1.378 . S
C1753 C1752 1.367 . S
C1753 C1761 1.433 . S
C1754 H1750 0.929 . S
C1754 C1756 1.378 . S
C1754 C1758 1.350 . S
C1755 C1758 1.463 . S
C1755 C1760 1.350 . S
C1755 N1763 1.427 . S
C1756 H1747 0.930 . S
C1756 C1754 1.378 . S
C1756 C1757 1.367 . S
C1757 C1756 1.367 . S
C1757 C1759 1.433 . S
C1758 C1754 1.350 . S
C1758 C1755 1.463 . S
C1758 N1762 1.427 . S
C1759 H1749 0.929 . S
C1759 C1757 1.433 . S
C1759 N1762 1.384 . S
C1760 H1751 0.929 . S
C1760 C1752 1.378 . S
C1760 C1755 1.350 . S
C1761 H1748 0.929 . S
C1761 C1753 1.433 . S
C1761 N1763 1.384 . S
N1762 C1758 1.427 . S
N1762 C1759 1.384 . S
N1763 C1755 1.427 . S
N1763 C1761 1.384 . S
H1764 C1770 0.930 . S
H1765 C1774 0.930 . S
H1766 C1779 0.929 . S
H1767 C1777 0.929 . S
H1768 C1772 0.929 . S
H1769 C1778 0.929 . S
C1770 H1764 0.930 . S
C1770 C1771 1.367 . S
C1770 C1778 1.378 . S
C1771 C1770 1.367 . S
C1771 C1779 1.433 . S
C1772 H1768 0.929 . S
C1772 C1774 1.378 . S
C1772 C1776 1.350 . S
C1773 C1776 1.463 . S
C1773 C1778 1.350 . S
C1773 N1781 1.427 . S
C1774 H1765 0.930 . S
C1774 C1772 1.378 . S
C1774 C1775 1.367 . S
C1775 C1774 1.367 . S
C1775 C1777 1.433 . S
C1776 C1772 1.350 . S
C1776 C1773 1.463 . S
C1776 N1780 1.427 . S
C1777 H1767 0.929 . S
C1777 C1775 1.433 . S
C1777 N1780 1.384 . S
C1778 H1769 0.929 . S
C1778 C1770 1.378 . S
C1778 C1773 1.350 . S
C1779 H1766 0.929 . S
C1779 C1771 1.433 . S
C1779 N1781 1.384 . S
N1780 C1776 1.427 . S
N1780 C1777 1.384 . S
N1781 C1773 1.427 . S
N1781 C1779 1.384 . S
H1782 C1788 0.930 . S
H1783 C1792 0.930 . S
H1784 C1797 0.929 . S
H1785 C1795 0.929 . S
H1786 C1790 0.929 . S
H1787 C1796 0.929 . S
C1788 H1782 0.930 . S
C1788 C1789 1.367 . S
C1788 C1796 1.378 . S
C1789 C1788 1.367 . S
C1789 C1797 1.433 . S
C1790 H1786 0.929 . S
C1790 C1792 1.378 . S
C1790 C1794 1.350 . S
C1791 C1794 1.463 . S
C1791 C1796 1.350 . S
C1791 N1799 1.427 . S
C1792 H1783 0.930 . S
C1792 C1790 1.378 . S
C1792 C1793 1.367 . S
C1793 C1792 1.367 . S
C1793 C1795 1.433 . S
C1794 C1790 1.350 . S
C1794 C1791 1.463 . S
C1794 N1798 1.427 . S
C1795 H1785 0.929 . S
C1795 C1793 1.433 . S
C1795 N1798 1.384 . S
C1796 H1787 0.929 . S
C1796 C1788 1.378 . S
C1796 C1791 1.350 . S
C1797 H1784 0.929 . S
C1797 C1789 1.433 . S
C1797 N1799 1.384 . S
N1798 C1794 1.427 . S
N1798 C1795 1.384 . S
N1799 C1791 1.427 . S
N1799 C1797 1.384 . S
H1800 C1806 0.930 . S
H1801 C1810 0.930 . S
H1802 C1815 0.929 . S
H1803 C1813 0.929 . S
H1804 C1808 0.929 . S
H1805 C1814 0.929 . S
C1806 H1800 0.930 . S
C1806 C1807 1.367 . S
C1806 C1814 1.378 . S
C1807 C1806 1.367 . S
C1807 C1815 1.433 . S
C1808 H1804 0.929 . S
C1808 C1810 1.378 . S
C1808 C1812 1.350 . S
C1809 C1812 1.463 . S
C1809 C1814 1.350 . S
C1809 N1817 1.427 . S
C1810 H1801 0.930 . S
C1810 C1808 1.378 . S
C1810 C1811 1.367 . S
C1811 C1810 1.367 . S
C1811 C1813 1.433 . S
C1812 C1808 1.350 . S
C1812 C1809 1.463 . S
C1812 N1816 1.427 . S
C1813 H1803 0.929 . S
C1813 C1811 1.433 . S
C1813 N1816 1.384 . S
C1814 H1805 0.929 . S
C1814 C1806 1.378 . S
C1814 C1809 1.350 . S
C1815 H1802 0.929 . S
C1815 C1807 1.433 . S
C1815 N1817 1.384 . S
N1816 C1812 1.427 . S
N1816 C1813 1.384 . S
N1817 C1809 1.427 . S
N1817 C1815 1.384 . S
H1818 C1824 0.930 . S
H1819 C1828 0.930 . S
H1820 C1833 0.929 . S
H1821 C1831 0.929 . S
H1822 C1826 0.929 . S
H1823 C1832 0.929 . S
C1824 H1818 0.930 . S
C1824 C1825 1.367 1_556 S
C1824 C1832 1.378 . S
C1825 C1824 1.367 1_554 S
C1825 C1833 1.433 . S
C1826 H1822 0.929 . S
C1826 C1828 1.378 . S
C1826 C1830 1.350 . S
C1827 C1830 1.463 . S
C1827 C1832 1.350 1_554 S
C1827 N1835 1.427 . S
C1828 H1819 0.930 . S
C1828 C1826 1.378 . S
C1828 C1829 1.479 . S
C1829 C1828 1.479 . S
C1829 C1831 1.332 1_554 S
C1830 C1826 1.350 . S
C1830 C1827 1.463 . S
C1830 N1834 1.427 1_554 S
C1831 H1821 0.929 . S
C1831 C1829 1.332 1_556 S
C1831 N1834 1.384 . S
C1832 H1823 0.929 . S
C1832 C1824 1.378 . S
C1832 C1827 1.350 1_556 S
C1833 H1820 0.929 . S
C1833 C1825 1.433 . S
C1833 N1835 1.384 . S
N1834 C1830 1.427 1_556 S
N1834 C1831 1.384 . S
N1835 C1827 1.427 . S
N1835 C1833 1.384 . S
H1836 C1842 0.934 . S
H1837 C1846 0.930 . S
H1838 C1851 0.929 . S
H1839 C1849 0.929 . S
H1840 C1844 0.929 . S
H1841 C1850 0.923 1_556 S
C1842 H1836 0.934 . S
C1842 C1843 1.358 1_556 S
C1842 C1850 1.376 1_556 S
C1843 C1842 1.358 1_554 S
C1843 C1851 1.455 . S
C1844 H1840 0.929 . S
C1844 C1846 1.378 . S
C1844 C1848 1.350 . S
C1845 C1848 1.463 . S
C1845 C1850 1.357 . S
C1845 N1853 1.427 . S
C1846 H1837 0.930 . S
C1846 C1844 1.378 . S
C1846 C1847 1.367 . S
C1847 C1846 1.367 . S
C1847 C1849 1.433 . S
C1848 C1844 1.350 . S
C1848 C1845 1.463 . S
C1848 N1852 1.427 . S
C1849 H1839 0.929 . S
C1849 C1847 1.433 . S
C1849 N1852 1.384 . S
C1850 H1841 0.923 1_554 S
C1850 C1842 1.376 1_554 S
C1850 C1845 1.357 . S
C1851 H1838 0.929 . S
C1851 C1843 1.455 . S
C1851 N1853 1.384 . S
N1852 C1848 1.427 . S
N1852 C1849 1.384 . S
N1853 C1845 1.427 . S
N1853 C1851 1.384 . S
H1854 C1860 0.930 . S
H1855 C1864 0.930 . S
H1856 C1869 0.929 . S
H1857 C1867 0.929 . S
H1858 C1862 0.929 . S
H1859 C1868 0.929 . S
C1860 H1854 0.930 . S
C1860 C1861 1.367 1_556 S
C1860 C1868 1.378 . S
C1861 C1860 1.367 1_554 S
C1861 C1869 1.433 . S
C1862 H1858 0.929 . S
C1862 C1864 1.378 . S
C1862 C1866 1.350 . S
C1863 C1866 1.463 . S
C1863 C1868 1.350 1_554 S
C1863 N1871 1.427 . S
C1864 H1855 0.930 . S
C1864 C1862 1.378 . S
C1864 C1865 1.485 . S
C1865 C1864 1.485 . S
C1865 C1867 1.325 1_554 S
C1866 C1862 1.350 . S
C1866 C1863 1.463 . S
C1866 N1870 1.427 1_554 S
C1867 H1857 0.929 . S
C1867 C1865 1.325 1_556 S
C1867 N1870 1.384 . S
C1868 H1859 0.929 . S
C1868 C1860 1.378 . S
C1868 C1863 1.350 1_556 S
C1869 H1856 0.929 . S
C1869 C1861 1.433 . S
C1869 N1871 1.384 . S
N1870 C1866 1.427 1_556 S
N1870 C1867 1.384 . S
N1871 C1863 1.427 . S
N1871 C1869 1.384 . S
H1872 C1878 0.930 . S
H1873 C1882 0.930 . S
H1874 C1887 0.929 . S
H1875 C1885 0.929 . S
H1876 C1880 0.929 . S
H1877 C1886 0.929 . S
C1878 H1872 0.930 . S
C1878 C1879 1.367 . S
C1878 C1886 1.378 . S
C1879 C1878 1.367 . S
C1879 C1887 1.433 . S
C1880 H1876 0.929 . S
C1880 C1882 1.378 . S
C1880 C1884 1.350 . S
C1881 C1884 1.463 . S
C1881 C1886 1.350 . S
C1881 N1889 1.427 . S
C1882 H1873 0.930 . S
C1882 C1880 1.378 . S
C1882 C1883 1.367 . S
C1883 C1882 1.367 . S
C1883 C1885 1.433 . S
C1884 C1880 1.350 . S
C1884 C1881 1.463 . S
C1884 N1888 1.427 . S
C1885 H1875 0.929 . S
C1885 C1883 1.433 . S
C1885 N1888 1.384 . S
C1886 H1877 0.929 . S
C1886 C1878 1.378 . S
C1886 C1881 1.350 . S
C1887 H1874 0.929 . S
C1887 C1879 1.433 . S
C1887 N1889 1.384 . S
N1888 C1884 1.427 . S
N1888 C1885 1.384 . S
N1889 C1881 1.427 . S
N1889 C1887 1.384 . S
H1890 C1896 0.930 . S
H1891 C1900 0.930 . S
H1892 C1905 0.929 . S
H1893 C1903 0.929 . S
H1894 C1898 0.929 . S
H1895 C1904 0.929 . S
C1896 H1890 0.930 . S
C1896 C1897 1.367 . S
C1896 C1904 1.378 . S
C1897 C1896 1.367 . S
C1897 C1905 1.433 . S
C1898 H1894 0.929 . S
C1898 C1900 1.378 . S
C1898 C1902 1.350 . S
C1899 C1902 1.463 . S
C1899 C1904 1.350 . S
C1899 N1907 1.427 . S
C1900 H1891 0.930 . S
C1900 C1898 1.378 . S
C1900 C1901 1.367 . S
C1901 C1900 1.367 . S
C1901 C1903 1.433 . S
C1902 C1898 1.350 . S
C1902 C1899 1.463 . S
C1902 N1906 1.427 . S
C1903 H1893 0.929 . S
C1903 C1901 1.433 . S
C1903 N1906 1.384 . S
C1904 H1895 0.929 . S
C1904 C1896 1.378 . S
C1904 C1899 1.350 . S
C1905 H1892 0.929 . S
C1905 C1897 1.433 . S
C1905 N1907 1.384 . S
N1906 C1902 1.427 . S
N1906 C1903 1.384 . S
N1907 C1899 1.427 . S
N1907 C1905 1.384 . S
H1908 C1914 0.930 . S
H1909 C1918 0.930 . S
H1910 C1923 0.929 . S
H1911 C1921 0.929 . S
H1912 C1916 0.929 . S
H1913 C1922 0.929 . S
C1914 H1908 0.930 . S
C1914 C1915 1.367 . S
C1914 C1922 1.378 . S
C1915 C1914 1.367 . S
C1915 C1923 1.433 . S
C1916 H1912 0.929 . S
C1916 C1918 1.378 . S
C1916 C1920 1.350 . S
C1917 C1920 1.463 . S
C1917 C1922 1.350 . S
C1917 N1925 1.427 . S
C1918 H1909 0.930 . S
C1918 C1916 1.378 . S
C1918 C1919 1.367 . S
C1919 C1918 1.367 . S
C1919 C1921 1.433 . S
C1920 C1916 1.350 . S
C1920 C1917 1.463 . S
C1920 N1924 1.427 . S
C1921 H1911 0.929 . S
C1921 C1919 1.433 . S
C1921 N1924 1.384 . S
C1922 H1913 0.929 . S
C1922 C1914 1.378 . S
C1922 C1917 1.350 . S
C1923 H1910 0.929 . S
C1923 C1915 1.433 . S
C1923 N1925 1.384 . S
N1924 C1920 1.427 . S
N1924 C1921 1.384 . S
N1925 C1917 1.427 . S
N1925 C1923 1.384 . S
H1926 C1932 0.930 . S
H1927 C1936 0.930 . S
H1928 C1941 0.929 . S
H1929 C1939 0.929 . S
H1930 C1934 0.929 . S
H1931 C1940 0.929 . S
C1932 H1926 0.930 . S
C1932 C1933 1.454 . S
C1932 C1940 1.378 . S
C1933 C1932 1.454 . S
C1933 C1941 1.360 1_556 S
C1934 H1930 0.929 . S
C1934 C1936 1.378 . S
C1934 C1938 1.350 1_554 S
C1935 C1938 1.463 . S
C1935 C1940 1.350 . S
C1935 N1943 1.427 1_556 S
C1936 H1927 0.930 . S
C1936 C1934 1.378 . S
C1936 C1937 1.367 1_554 S
C1937 C1936 1.367 1_556 S
C1937 C1939 1.433 . S
C1938 C1934 1.350 1_556 S
C1938 C1935 1.463 . S
C1938 N1942 1.427 . S
C1939 H1929 0.929 . S
C1939 C1937 1.433 . S
C1939 N1942 1.384 . S
C1940 H1931 0.929 . S
C1940 C1932 1.378 . S
C1940 C1935 1.350 . S
C1941 H1928 0.929 . S
C1941 C1933 1.360 1_554 S
C1941 N1943 1.384 . S
N1942 C1938 1.427 . S
N1942 C1939 1.384 . S
N1943 C1935 1.427 1_554 S
N1943 C1941 1.384 . S
H1944 C1950 0.930 . S
H1945 C1954 0.930 . S
H1946 C1959 0.929 . S
H1947 C1957 0.929 . S
H1948 C1952 0.929 . S
H1949 C1958 0.929 . S
C1950 H1944 0.930 . S
C1950 C1951 1.481 . S
C1950 C1958 1.378 . S
C1951 C1950 1.481 . S
C1951 C1959 1.330 1_556 S
C1952 H1948 0.929 . S
C1952 C1954 1.378 . S
C1952 C1956 1.350 1_554 S
C1953 C1956 1.463 . S
C1953 C1958 1.350 . S
C1953 N1961 1.427 1_556 S
C1954 H1945 0.930 . S
C1954 C1952 1.378 . S
C1954 C1955 1.367 1_554 S
C1955 C1954 1.367 1_556 S
C1955 C1957 1.433 . S
C1956 C1952 1.350 1_556 S
C1956 C1953 1.463 . S
C1956 N1960 1.427 . S
C1957 H1947 0.929 . S
C1957 C1955 1.433 . S
C1957 N1960 1.384 . S
C1958 H1949 0.929 . S
C1958 C1950 1.378 . S
C1958 C1953 1.350 . S
C1959 H1946 0.929 . S
C1959 C1951 1.330 1_554 S
C1959 N1961 1.384 . S
N1960 C1956 1.427 . S
N1960 C1957 1.384 . S
N1961 C1953 1.427 1_554 S
N1961 C1959 1.384 . S
H1962 C1968 0.930 . S
H1963 C1972 0.930 . S
H1964 C1977 0.929 . S
H1965 C1975 0.929 . S
H1966 C1970 0.929 . S
H1967 C1976 0.929 . S
C1968 H1962 0.930 . S
C1968 C1969 1.303 1_554 S
C1968 C1976 1.378 . S
C1969 C1968 1.303 1_556 S
C1969 C1977 1.505 . S
C1970 H1966 0.929 . S
C1970 C1972 1.378 . S
C1970 C1974 1.350 . S
C1971 C1974 1.463 . S
C1971 C1976 1.350 1_556 S
C1971 N1979 1.427 . S
C1972 H1963 0.930 . S
C1972 C1970 1.378 . S
C1972 C1973 1.367 . S
C1973 C1972 1.367 . S
C1973 C1975 1.433 1_556 S
C1974 C1970 1.350 . S
C1974 C1971 1.463 . S
C1974 N1978 1.427 1_556 S
C1975 H1965 0.929 . S
C1975 C1973 1.433 1_554 S
C1975 N1978 1.384 . S
C1976 H1967 0.929 . S
C1976 C1968 1.378 . S
C1976 C1971 1.350 1_554 S
C1977 H1964 0.929 . S
C1977 C1969 1.505 . S
C1977 N1979 1.384 . S
N1978 C1974 1.427 1_554 S
N1978 C1975 1.384 . S
N1979 C1971 1.427 . S
N1979 C1977 1.384 . S
H1980 C1986 0.930 . S
H1981 C1990 0.930 . S
H1982 C1995 0.929 . S
H1983 C1993 0.929 . S
H1984 C1988 0.929 . S
H1985 C1994 0.929 . S
C1986 H1980 0.930 . S
C1986 C1987 1.367 . S
C1986 C1994 1.378 . S
C1987 C1986 1.367 . S
C1987 C1995 1.433 . S
C1988 H1984 0.929 . S
C1988 C1990 1.378 . S
C1988 C1992 1.350 . S
C1989 C1992 1.463 . S
C1989 C1994 1.350 . S
C1989 N1997 1.427 . S
C1990 H1981 0.930 . S
C1990 C1988 1.378 . S
C1990 C1991 1.367 . S
C1991 C1990 1.367 . S
C1991 C1993 1.433 . S
C1992 C1988 1.350 . S
C1992 C1989 1.463 . S
C1992 N1996 1.427 . S
C1993 H1983 0.929 . S
C1993 C1991 1.433 . S
C1993 N1996 1.384 . S
C1994 H1985 0.929 . S
C1994 C1986 1.378 . S
C1994 C1989 1.350 . S
C1995 H1982 0.929 . S
C1995 C1987 1.433 . S
C1995 N1997 1.384 . S
N1996 C1992 1.427 . S
N1996 C1993 1.384 . S
N1997 C1989 1.427 . S
N1997 C1995 1.384 . S
H1998 C2004 0.930 . S
H1999 C2008 0.930 . S
H2000 C2013 0.929 . S
H2001 C2011 0.929 . S
H2002 C2006 0.929 . S
H2003 C2012 0.929 . S
C2004 H1998 0.930 . S
C2004 C2005 1.367 . S
C2004 C2012 1.378 . S
C2005 C2004 1.367 . S
C2005 C2013 1.433 . S
C2006 H2002 0.929 . S
C2006 C2008 1.378 . S
C2006 C2010 1.350 . S
C2007 C2010 1.463 . S
C2007 C2012 1.350 . S
C2007 N2015 1.427 . S
C2008 H1999 0.930 . S
C2008 C2006 1.378 . S
C2008 C2009 1.367 . S
C2009 C2008 1.367 . S
C2009 C2011 1.433 . S
C2010 C2006 1.350 . S
C2010 C2007 1.463 . S
C2010 N2014 1.427 . S
C2011 H2001 0.929 . S
C2011 C2009 1.433 . S
C2011 N2014 1.384 . S
C2012 H2003 0.929 . S
C2012 C2004 1.378 . S
C2012 C2007 1.350 . S
C2013 H2000 0.929 . S
C2013 C2005 1.433 . S
C2013 N2015 1.384 . S
N2014 C2010 1.427 . S
N2014 C2011 1.384 . S
N2015 C2007 1.427 . S
N2015 C2013 1.384 . S
H2016 C2022 0.930 . S
H2017 C2026 0.930 . S
H2018 C2031 0.929 . S
H2019 C2029 0.929 . S
H2020 C2024 0.929 . S
H2021 C2030 0.929 . S
C2022 H2016 0.930 . S
C2022 C2023 1.367 . S
C2022 C2030 1.378 . S
C2023 C2022 1.367 . S
C2023 C2031 1.433 . S
C2024 H2020 0.929 . S
C2024 C2026 1.378 . S
C2024 C2028 1.350 . S
C2025 C2028 1.463 . S
C2025 C2030 1.350 . S
C2025 N2033 1.427 . S
C2026 H2017 0.930 . S
C2026 C2024 1.378 . S
C2026 C2027 1.367 . S
C2027 C2026 1.367 . S
C2027 C2029 1.433 . S
C2028 C2024 1.350 . S
C2028 C2025 1.463 . S
C2028 N2032 1.427 . S
C2029 H2019 0.929 . S
C2029 C2027 1.433 . S
C2029 N2032 1.384 . S
C2030 H2021 0.929 . S
C2030 C2022 1.378 . S
C2030 C2025 1.350 . S
C2031 H2018 0.929 . S
C2031 C2023 1.433 . S
C2031 N2033 1.384 . S
N2032 C2028 1.427 . S
N2032 C2029 1.384 . S
N2033 C2025 1.427 . S
N2033 C2031 1.384 . S
H2034 C2040 0.930 . S
H2035 C2044 0.930 . S
H2036 C2049 0.929 . S
H2037 C2047 0.929 . S
H2038 C2042 0.929 . S
H2039 C2048 0.929 . S
C2040 H2034 0.930 . S
C2040 C2041 1.367 . S
C2040 C2048 1.378 . S
C2041 C2040 1.367 . S
C2041 C2049 1.433 . S
C2042 H2038 0.929 . S
C2042 C2044 1.378 . S
C2042 C2046 1.350 . S
C2043 C2046 1.463 . S
C2043 C2048 1.350 . S
C2043 N2051 1.427 . S
C2044 H2035 0.930 . S
C2044 C2042 1.378 . S
C2044 C2045 1.367 . S
C2045 C2044 1.367 . S
C2045 C2047 1.433 . S
C2046 C2042 1.350 . S
C2046 C2043 1.463 . S
C2046 N2050 1.427 . S
C2047 H2037 0.929 . S
C2047 C2045 1.433 . S
C2047 N2050 1.384 . S
C2048 H2039 0.929 . S
C2048 C2040 1.378 . S
C2048 C2043 1.350 . S
C2049 H2036 0.929 . S
C2049 C2041 1.433 . S
C2049 N2051 1.384 . S
N2050 C2046 1.427 . S
N2050 C2047 1.384 . S
N2051 C2043 1.427 . S
N2051 C2049 1.384 . S
H2052 C2058 0.930 . S
H2053 C2062 0.930 . S
H2054 C2067 0.929 . S
H2055 C2065 0.929 . S
H2056 C2060 0.929 . S
H2057 C2066 0.929 . S
C2058 H2052 0.930 . S
C2058 C2059 1.367 . S
C2058 C2066 1.378 . S
C2059 C2058 1.367 . S
C2059 C2067 1.433 . S
C2060 H2056 0.929 . S
C2060 C2062 1.378 . S
C2060 C2064 1.350 . S
C2061 C2064 1.463 . S
C2061 C2066 1.350 . S
C2061 N2069 1.427 . S
C2062 H2053 0.930 . S
C2062 C2060 1.378 . S
C2062 C2063 1.367 . S
C2063 C2062 1.367 . S
C2063 C2065 1.433 . S
C2064 C2060 1.350 . S
C2064 C2061 1.463 . S
C2064 N2068 1.427 . S
C2065 H2055 0.929 . S
C2065 C2063 1.433 . S
C2065 N2068 1.384 . S
C2066 H2057 0.929 . S
C2066 C2058 1.378 . S
C2066 C2061 1.350 . S
C2067 H2054 0.929 . S
C2067 C2059 1.433 . S
C2067 N2069 1.384 . S
N2068 C2064 1.427 . S
N2068 C2065 1.384 . S
N2069 C2061 1.427 . S
N2069 C2067 1.384 . S
H2070 C2076 0.930 . S
H2071 C2080 0.930 . S
H2072 C2085 0.929 . S
H2073 C2083 0.929 . S
H2074 C2078 0.929 . S
H2075 C2084 0.929 . S
C2076 H2070 0.930 . S
C2076 C2077 1.367 . S
C2076 C2084 1.378 . S
C2077 C2076 1.367 . S
C2077 C2085 1.433 . S
C2078 H2074 0.929 . S
C2078 C2080 1.378 . S
C2078 C2082 1.350 . S
C2079 C2082 1.463 . S
C2079 C2084 1.350 . S
C2079 N2087 1.427 . S
C2080 H2071 0.930 . S
C2080 C2078 1.378 . S
C2080 C2081 1.367 . S
C2081 C2080 1.367 . S
C2081 C2083 1.433 . S
C2082 C2078 1.350 . S
C2082 C2079 1.463 . S
C2082 N2086 1.427 . S
C2083 H2073 0.929 . S
C2083 C2081 1.433 . S
C2083 N2086 1.384 . S
C2084 H2075 0.929 . S
C2084 C2076 1.378 . S
C2084 C2079 1.350 . S
C2085 H2072 0.929 . S
C2085 C2077 1.433 . S
C2085 N2087 1.384 . S
N2086 C2082 1.427 . S
N2086 C2083 1.384 . S
N2087 C2079 1.427 . S
N2087 C2085 1.384 . S
H2088 C2094 0.930 . S
H2089 C2098 0.930 . S
H2090 C2103 0.929 . S
H2091 C2101 0.929 . S
H2092 C2096 0.929 . S
H2093 C2102 0.929 . S
C2094 H2088 0.930 . S
C2094 C2095 1.367 . S
C2094 C2102 1.378 . S
C2095 C2094 1.367 . S
C2095 C2103 1.433 . S
C2096 H2092 0.929 . S
C2096 C2098 1.378 . S
C2096 C2100 1.350 . S
C2097 C2100 1.463 . S
C2097 C2102 1.350 . S
C2097 N2105 1.427 . S
C2098 H2089 0.930 . S
C2098 C2096 1.378 . S
C2098 C2099 1.367 . S
C2099 C2098 1.367 . S
C2099 C2101 1.433 . S
C2100 C2096 1.350 . S
C2100 C2097 1.463 . S
C2100 N2104 1.427 . S
C2101 H2091 0.929 . S
C2101 C2099 1.433 . S
C2101 N2104 1.384 . S
C2102 H2093 0.929 . S
C2102 C2094 1.378 . S
C2102 C2097 1.350 . S
C2103 H2090 0.929 . S
C2103 C2095 1.433 . S
C2103 N2105 1.384 . S
N2104 C2100 1.427 . S
N2104 C2101 1.384 . S
N2105 C2097 1.427 . S
N2105 C2103 1.384 . S
H2106 C2112 0.930 . S
H2107 C2116 0.930 . S
H2108 C2121 0.929 . S
H2109 C2119 0.929 . S
H2110 C2114 0.940 . S
H2111 C2120 0.929 . S
C2112 H2106 0.930 . S
C2112 C2113 1.367 1_565 S
C2112 C2120 1.378 . S
C2113 C2112 1.367 1_545 S
C2113 C2121 1.433 . S
C2114 H2110 0.940 . S
C2114 C2116 1.378 . S
C2114 C2118 1.350 . S
C2115 C2118 1.463 . S
C2115 C2120 1.350 . S
C2115 N2123 1.427 1_565 S
C2116 H2107 0.930 . S
C2116 C2114 1.378 . S
C2116 C2117 1.367 . S
C2117 C2116 1.367 . S
C2117 C2119 1.433 . S
C2118 C2114 1.350 . S
C2118 C2115 1.463 . S
C2118 N2122 1.427 . S
C2119 H2109 0.929 . S
C2119 C2117 1.433 . S
C2119 N2122 1.384 . S
C2120 H2111 0.929 . S
C2120 C2112 1.378 . S
C2120 C2115 1.350 . S
C2121 H2108 0.929 . S
C2121 C2113 1.433 . S
C2121 N2123 1.384 . S
N2122 C2118 1.427 . S
N2122 C2119 1.384 . S
N2123 C2115 1.427 1_545 S
N2123 C2121 1.384 . S
H2124 C2130 0.930 . S
H2125 C2134 0.930 . S
H2126 C2139 0.929 . S
H2127 C2137 0.929 . S
H2128 C2132 0.929 . S
H2129 C2138 0.929 . S
C2130 H2124 0.930 . S
C2130 C2131 1.367 . S
C2130 C2138 1.378 . S
C2131 C2130 1.367 . S
C2131 C2139 1.433 . S
C2132 H2128 0.929 . S
C2132 C2134 1.378 . S
C2132 C2136 1.350 . S
C2133 C2136 1.463 . S
C2133 C2138 1.350 . S
C2133 N2141 1.427 . S
C2134 H2125 0.930 . S
C2134 C2132 1.378 . S
C2134 C2135 1.367 1_455 S
C2135 C2134 1.367 1_655 S
C2135 C2137 1.433 . S
C2136 C2132 1.350 . S
C2136 C2133 1.463 . S
C2136 N2140 1.427 1_455 S
C2137 H2127 0.929 . S
C2137 C2135 1.433 . S
C2137 N2140 1.384 . S
C2138 H2129 0.929 . S
C2138 C2130 1.378 . S
C2138 C2133 1.350 . S
C2139 H2126 0.929 . S
C2139 C2131 1.433 . S
C2139 N2141 1.384 . S
N2140 C2136 1.427 1_655 S
N2140 C2137 1.384 . S
N2141 C2133 1.427 . S
N2141 C2139 1.384 . S
H2142 C2148 0.930 . S
H2143 C2152 0.930 . S
H2144 C2157 0.929 . S
H2145 C2155 0.929 . S
H2146 C2150 0.929 . S
H2147 C2156 0.929 . S
C2148 H2142 0.930 . S
C2148 C2149 1.367 . S
C2148 C2156 1.378 . S
C2149 C2148 1.367 . S
C2149 C2157 1.433 . S
C2150 H2146 0.929 . S
C2150 C2152 1.378 . S
C2150 C2154 1.350 . S
C2151 C2154 1.463 . S
C2151 C2156 1.350 . S
C2151 N2159 1.427 . S
C2152 H2143 0.930 . S
C2152 C2150 1.378 . S
C2152 C2153 1.367 . S
C2153 C2152 1.367 . S
C2153 C2155 1.433 . S
C2154 C2150 1.350 . S
C2154 C2151 1.463 . S
C2154 N2158 1.427 . S
C2155 H2145 0.929 . S
C2155 C2153 1.433 . S
C2155 N2158 1.384 . S
C2156 H2147 0.929 . S
C2156 C2148 1.378 . S
C2156 C2151 1.350 . S
C2157 H2144 0.929 . S
C2157 C2149 1.433 . S
C2157 N2159 1.384 . S
N2158 C2154 1.427 . S
N2158 C2155 1.384 . S
N2159 C2151 1.427 . S
N2159 C2157 1.384 . S
H2160 C2166 0.930 . S
H2161 C2170 0.930 . S
H2162 C2175 0.929 . S
H2163 C2173 0.929 . S
H2164 C2168 0.929 1_565 S
H2165 C2174 0.929 . S
C2166 H2160 0.930 . S
C2166 C2167 1.367 1_545 S
C2166 C2174 1.378 . S
C2167 C2166 1.367 1_565 S
C2167 C2175 1.433 . S
C2168 H2164 0.929 1_545 S
C2168 C2170 1.378 . S
C2168 C2172 1.350 . S
C2169 C2172 1.463 . S
C2169 C2174 1.350 . S
C2169 N2177 1.427 1_545 S
C2170 H2161 0.930 . S
C2170 C2168 1.378 . S
C2170 C2171 1.367 . S
C2171 C2170 1.367 . S
C2171 C2173 1.433 . S
C2172 C2168 1.350 . S
C2172 C2169 1.463 . S
C2172 N2176 1.427 . S
C2173 H2163 0.929 . S
C2173 C2171 1.433 . S
C2173 N2176 1.384 . S
C2174 H2165 0.929 . S
C2174 C2166 1.378 . S
C2174 C2169 1.350 . S
C2175 H2162 0.929 . S
C2175 C2167 1.433 . S
C2175 N2177 1.384 . S
N2176 C2172 1.427 . S
N2176 C2173 1.384 . S
N2177 C2169 1.427 1_565 S
N2177 C2175 1.384 . S
H2178 C2184 0.930 . S
H2179 C2188 0.930 . S
H2180 C2193 0.929 . S
H2181 C2191 0.929 . S
H2182 C2186 0.929 . S
H2183 C2192 0.929 . S
C2184 H2178 0.930 . S
C2184 C2185 1.367 . S
C2184 C2192 1.378 . S
C2185 C2184 1.367 . S
C2185 C2193 1.433 . S
C2186 H2182 0.929 . S
C2186 C2188 1.378 1_655 S
C2186 C2190 1.350 . S
C2187 C2190 1.463 . S
C2187 C2192 1.350 . S
C2187 N2195 1.427 . S
C2188 H2179 0.930 . S
C2188 C2186 1.378 1_455 S
C2188 C2189 1.367 . S
C2189 C2188 1.367 . S
C2189 C2191 1.433 1_455 S
C2190 C2186 1.350 . S
C2190 C2187 1.463 . S
C2190 N2194 1.427 . S
C2191 H2181 0.929 . S
C2191 C2189 1.433 1_655 S
C2191 N2194 1.384 . S
C2192 H2183 0.929 . S
C2192 C2184 1.378 . S
C2192 C2187 1.350 . S
C2193 H2180 0.929 . S
C2193 C2185 1.433 . S
C2193 N2195 1.384 . S
N2194 C2190 1.427 . S
N2194 C2191 1.384 . S
N2195 C2187 1.427 . S
N2195 C2193 1.384 . S
H2196 C2202 0.930 . S
H2197 C2206 0.930 . S
H2198 C2211 0.929 . S
H2199 C2209 0.929 . S
H2200 C2204 0.929 . S
H2201 C2210 0.929 . S
C2202 H2196 0.930 . S
C2202 C2203 1.367 . S
C2202 C2210 1.378 . S
C2203 C2202 1.367 . S
C2203 C2211 1.433 . S
C2204 H2200 0.929 . S
C2204 C2206 1.378 . S
C2204 C2208 1.350 . S
C2205 C2208 1.463 . S
C2205 C2210 1.350 . S
C2205 N2213 1.427 . S
C2206 H2197 0.930 . S
C2206 C2204 1.378 . S
C2206 C2207 1.367 . S
C2207 C2206 1.367 . S
C2207 C2209 1.433 . S
C2208 C2204 1.350 . S
C2208 C2205 1.463 . S
C2208 N2212 1.427 . S
C2209 H2199 0.929 . S
C2209 C2207 1.433 . S
C2209 N2212 1.384 . S
C2210 H2201 0.929 . S
C2210 C2202 1.378 . S
C2210 C2205 1.350 . S
C2211 H2198 0.929 . S
C2211 C2203 1.433 . S
C2211 N2213 1.384 . S
N2212 C2208 1.427 . S
N2212 C2209 1.384 . S
N2213 C2205 1.427 . S
N2213 C2211 1.384 . S
H2214 C2220 0.930 . S
H2215 C2224 0.930 . S
H2216 C2229 0.929 . S
H2217 C2227 0.929 . S
H2218 C2222 0.929 . S
H2219 C2228 0.929 . S
C2220 H2214 0.930 . S
C2220 C2221 1.367 . S
C2220 C2228 1.378 . S
C2221 C2220 1.367 . S
C2221 C2229 1.433 . S
C2222 H2218 0.929 . S
C2222 C2224 1.378 . S
C2222 C2226 1.350 1_565 S
C2223 C2226 1.463 . S
C2223 C2228 1.350 . S
C2223 N2231 1.427 . S
C2224 H2215 0.930 . S
C2224 C2222 1.378 . S
C2224 C2225 1.367 . S
C2225 C2224 1.367 . S
C2225 C2227 1.433 1_565 S
C2226 C2222 1.350 1_545 S
C2226 C2223 1.463 . S
C2226 N2230 1.427 . S
C2227 H2217 0.929 . S
C2227 C2225 1.433 1_545 S
C2227 N2230 1.384 . S
C2228 H2219 0.929 . S
C2228 C2220 1.378 . S
C2228 C2223 1.350 . S
C2229 H2216 0.929 . S
C2229 C2221 1.433 . S
C2229 N2231 1.384 . S
N2230 C2226 1.427 . S
N2230 C2227 1.384 . S
N2231 C2223 1.427 . S
N2231 C2229 1.384 . S
H2232 C2238 0.930 . S
H2233 C2242 0.930 . S
H2234 C2247 0.929 . S
H2235 C2245 0.929 . S
H2236 C2240 0.929 . S
H2237 C2246 0.929 . S
C2238 H2232 0.930 . S
C2238 C2239 1.367 . S
C2238 C2246 1.378 . S
C2239 C2238 1.367 . S
C2239 C2247 1.433 . S
C2240 H2236 0.929 . S
C2240 C2242 1.378 . S
C2240 C2244 1.350 . S
C2241 C2244 1.463 . S
C2241 C2246 1.350 . S
C2241 N2249 1.427 . S
C2242 H2233 0.930 . S
C2242 C2240 1.378 . S
C2242 C2243 1.367 1_655 S
C2243 C2242 1.367 1_455 S
C2243 C2245 1.433 . S
C2244 C2240 1.350 . S
C2244 C2241 1.463 . S
C2244 N2248 1.427 . S
C2245 H2235 0.929 . S
C2245 C2243 1.433 . S
C2245 N2248 1.384 1_455 S
C2246 H2237 0.929 . S
C2246 C2238 1.378 . S
C2246 C2241 1.350 . S
C2247 H2234 0.929 . S
C2247 C2239 1.433 . S
C2247 N2249 1.384 . S
N2248 C2244 1.427 . S
N2248 C2245 1.384 1_655 S
N2249 C2241 1.427 . S
N2249 C2247 1.384 . S
H2250 C2256 0.930 . S
H2251 C2260 0.930 . S
H2252 C2265 0.929 . S
H2253 C2263 0.929 . S
H2254 C2258 0.929 . S
H2255 C2264 0.929 . S
C2256 H2250 0.930 . S
C2256 C2257 1.367 . S
C2256 C2264 1.378 . S
C2257 C2256 1.367 . S
C2257 C2265 1.433 . S
C2258 H2254 0.929 . S
C2258 C2260 1.378 . S
C2258 C2262 1.350 . S
C2259 C2262 1.463 . S
C2259 C2264 1.350 . S
C2259 N2267 1.427 . S
C2260 H2251 0.930 . S
C2260 C2258 1.378 . S
C2260 C2261 1.367 . S
C2261 C2260 1.367 . S
C2261 C2263 1.433 . S
C2262 C2258 1.350 . S
C2262 C2259 1.463 . S
C2262 N2266 1.427 . S
C2263 H2253 0.929 . S
C2263 C2261 1.433 . S
C2263 N2266 1.384 . S
C2264 H2255 0.929 . S
C2264 C2256 1.378 . S
C2264 C2259 1.350 . S
C2265 H2252 0.929 . S
C2265 C2257 1.433 . S
C2265 N2267 1.384 . S
N2266 C2262 1.427 . S
N2266 C2263 1.384 . S
N2267 C2259 1.427 . S
N2267 C2265 1.384 . S
H2268 C2274 0.930 . S
H2269 C2278 0.930 . S
H2270 C2283 0.929 . S
H2271 C2281 0.929 . S
H2272 C2276 0.929 1_545 S
H2273 C2282 0.929 . S
C2274 H2268 0.930 . S
C2274 C2275 1.367 1_565 S
C2274 C2282 1.378 . S
C2275 C2274 1.367 1_545 S
C2275 C2283 1.433 . S
C2276 H2272 0.929 1_565 S
C2276 C2278 1.378 . S
C2276 C2280 1.350 . S
C2277 C2280 1.463 . S
C2277 C2282 1.350 . S
C2277 N2285 1.427 1_565 S
C2278 H2269 0.930 . S
C2278 C2276 1.378 . S
C2278 C2279 1.367 . S
C2279 C2278 1.367 . S
C2279 C2281 1.433 . S
C2280 C2276 1.350 . S
C2280 C2277 1.463 . S
C2280 N2284 1.427 . S
C2281 H2271 0.929 . S
C2281 C2279 1.433 . S
C2281 N2284 1.384 . S
C2282 H2273 0.929 . S
C2282 C2274 1.378 . S
C2282 C2277 1.350 . S
C2283 H2270 0.929 . S
C2283 C2275 1.433 . S
C2283 N2285 1.384 . S
N2284 C2280 1.427 . S
N2284 C2281 1.384 . S
N2285 C2277 1.427 1_545 S
N2285 C2283 1.384 . S
H2286 C2292 0.930 . S
H2287 C2296 0.930 . S
H2288 C2301 0.929 . S
H2289 C2299 0.929 . S
H2290 C2294 0.929 . S
H2291 C2300 0.929 . S
C2292 H2286 0.930 . S
C2292 C2293 1.367 1_455 S
C2292 C2300 1.378 . S
C2293 C2292 1.367 1_655 S
C2293 C2301 1.433 . S
C2294 H2290 0.929 . S
C2294 C2296 1.378 . S
C2294 C2298 1.350 . S
C2295 C2298 1.463 . S
C2295 C2300 1.350 . S
C2295 N2303 1.427 1_455 S
C2296 H2287 0.930 . S
C2296 C2294 1.378 . S
C2296 C2297 1.367 . S
C2297 C2296 1.367 . S
C2297 C2299 1.433 . S
C2298 C2294 1.350 . S
C2298 C2295 1.463 . S
C2298 N2302 1.427 . S
C2299 H2289 0.929 . S
C2299 C2297 1.433 . S
C2299 N2302 1.384 . S
C2300 H2291 0.929 . S
C2300 C2292 1.378 . S
C2300 C2295 1.350 . S
C2301 H2288 0.929 . S
C2301 C2293 1.433 . S
C2301 N2303 1.384 . S
N2302 C2298 1.427 . S
N2302 C2299 1.384 . S
N2303 C2295 1.427 1_655 S
N2303 C2301 1.384 . S
H2304 C2310 0.930 . S
H2305 C2314 0.930 . S
H2306 C2319 0.929 . S
H2307 C2317 0.929 . S
H2308 C2312 0.929 . S
H2309 C2318 0.929 . S
C2310 H2304 0.930 . S
C2310 C2311 1.367 . S
C2310 C2318 1.378 . S
C2311 C2310 1.367 . S
C2311 C2319 1.433 . S
C2312 H2308 0.929 . S
C2312 C2314 1.378 . S
C2312 C2316 1.350 . S
C2313 C2316 1.463 . S
C2313 C2318 1.350 1_455 S
C2313 N2321 1.427 1_455 S
C2314 H2305 0.930 . S
C2314 C2312 1.378 . S
C2314 C2315 1.367 . S
C2315 C2314 1.367 . S
C2315 C2317 1.433 . S
C2316 C2312 1.350 . S
C2316 C2313 1.463 . S
C2316 N2320 1.427 . S
C2317 H2307 0.929 . S
C2317 C2315 1.433 . S
C2317 N2320 1.384 . S
C2318 H2309 0.929 . S
C2318 C2310 1.378 . S
C2318 C2313 1.350 1_655 S
C2319 H2306 0.929 . S
C2319 C2311 1.433 . S
C2319 N2321 1.384 . S
N2320 C2316 1.427 . S
N2320 C2317 1.384 . S
N2321 C2313 1.427 1_655 S
N2321 C2319 1.384 . S
H2322 C2328 0.930 . S
H2323 C2332 0.930 . S
H2324 C2337 0.929 . S
H2325 C2335 0.929 . S
H2326 C2330 0.929 . S
H2327 C2336 0.929 . S
C2328 H2322 0.930 . S
C2328 C2329 1.367 . S
C2328 C2336 1.378 . S
C2329 C2328 1.367 . S
C2329 C2337 1.433 . S
C2330 H2326 0.929 . S
C2330 C2332 1.378 . S
C2330 C2334 1.350 . S
C2331 C2334 1.463 . S
C2331 C2336 1.350 . S
C2331 N2339 1.427 . S
C2332 H2323 0.930 . S
C2332 C2330 1.378 . S
C2332 C2333 1.367 . S
C2333 C2332 1.367 . S
C2333 C2335 1.433 . S
C2334 C2330 1.350 . S
C2334 C2331 1.463 . S
C2334 N2338 1.427 . S
C2335 H2325 0.929 . S
C2335 C2333 1.433 . S
C2335 N2338 1.384 . S
C2336 H2327 0.929 . S
C2336 C2328 1.378 . S
C2336 C2331 1.350 . S
C2337 H2324 0.929 . S
C2337 C2329 1.433 . S
C2337 N2339 1.384 . S
N2338 C2334 1.427 . S
N2338 C2335 1.384 . S
N2339 C2331 1.427 . S
N2339 C2337 1.384 . S
H2340 C2346 0.930 . S
H2341 C2350 0.930 . S
H2342 C2355 0.929 . S
H2343 C2353 0.929 . S
H2344 C2348 0.929 1_565 S
H2345 C2354 0.929 . S
C2346 H2340 0.930 . S
C2346 C2347 1.367 . S
C2346 C2354 1.378 . S
C2347 C2346 1.367 . S
C2347 C2355 1.433 . S
C2348 H2344 0.929 1_545 S
C2348 C2350 1.378 . S
C2348 C2352 1.350 1_545 S
C2349 C2352 1.463 . S
C2349 C2354 1.350 . S
C2349 N2357 1.427 . S
C2350 H2341 0.930 . S
C2350 C2348 1.378 . S
C2350 C2351 1.367 . S
C2351 C2350 1.367 . S
C2351 C2353 1.433 . S
C2352 C2348 1.350 1_565 S
C2352 C2349 1.463 . S
C2352 N2356 1.427 1_565 S
C2353 H2343 0.929 . S
C2353 C2351 1.433 . S
C2353 N2356 1.384 . S
C2354 H2345 0.929 . S
C2354 C2346 1.378 . S
C2354 C2349 1.350 . S
C2355 H2342 0.929 . S
C2355 C2347 1.433 . S
C2355 N2357 1.384 . S
N2356 C2352 1.427 1_545 S
N2356 C2353 1.384 . S
N2357 C2349 1.427 . S
N2357 C2355 1.384 . S
H2358 C2364 0.930 . S
H2359 C2368 0.930 . S
H2360 C2373 0.929 . S
H2361 C2371 0.929 . S
H2362 C2366 0.929 . S
H2363 C2372 0.929 . S
C2364 H2358 0.930 . S
C2364 C2365 1.367 . S
C2364 C2372 1.378 . S
C2365 C2364 1.367 . S
C2365 C2373 1.433 . S
C2366 H2362 0.929 . S
C2366 C2368 1.378 . S
C2366 C2370 1.350 . S
C2367 C2370 1.463 . S
C2367 C2372 1.350 . S
C2367 N2375 1.427 . S
C2368 H2359 0.930 . S
C2368 C2366 1.378 . S
C2368 C2369 1.360 1_455 S
C2369 C2368 1.360 1_655 S
C2369 C2371 1.439 . S
C2370 C2366 1.350 . S
C2370 C2367 1.463 . S
C2370 N2374 1.427 . S
C2371 H2361 0.929 . S
C2371 C2369 1.439 . S
C2371 N2374 1.384 1_655 S
C2372 H2363 0.929 . S
C2372 C2364 1.378 . S
C2372 C2367 1.350 . S
C2373 H2360 0.929 . S
C2373 C2365 1.433 . S
C2373 N2375 1.384 . S
N2374 C2370 1.427 . S
N2374 C2371 1.384 1_455 S
N2375 C2367 1.427 . S
N2375 C2373 1.384 . S
H2376 C2382 0.930 . S
H2377 C2386 0.930 . S
H2378 C2391 0.929 . S
H2379 C2389 0.929 . S
H2380 C2384 0.929 . S
H2381 C2390 0.929 . S
C2382 H2376 0.930 . S
C2382 C2383 1.367 . S
C2382 C2390 1.378 . S
C2383 C2382 1.367 . S
C2383 C2391 1.433 . S
C2384 H2380 0.929 . S
C2384 C2386 1.378 . S
C2384 C2388 1.350 . S
C2385 C2388 1.463 . S
C2385 C2390 1.350 . S
C2385 N2393 1.427 . S
C2386 H2377 0.930 . S
C2386 C2384 1.378 . S
C2386 C2387 1.367 . S
C2387 C2386 1.367 . S
C2387 C2389 1.433 . S
C2388 C2384 1.350 . S
C2388 C2385 1.463 . S
C2388 N2392 1.427 . S
C2389 H2379 0.929 . S
C2389 C2387 1.433 . S
C2389 N2392 1.384 . S
C2390 H2381 0.929 . S
C2390 C2382 1.378 . S
C2390 C2385 1.350 . S
C2391 H2378 0.929 . S
C2391 C2383 1.433 . S
C2391 N2393 1.384 . S
N2392 C2388 1.427 . S
N2392 C2389 1.384 . S
N2393 C2385 1.427 . S
N2393 C2391 1.384 . S
H2394 C2400 0.930 . S
H2395 C2404 0.930 1_545 S
H2396 C2409 0.929 . S
H2397 C2407 0.929 . S
H2398 C2402 0.929 . S
H2399 C2408 0.929 . S
C2400 H2394 0.930 . S
C2400 C2401 1.367 . S
C2400 C2408 1.378 . S
C2401 C2400 1.367 . S
C2401 C2409 1.433 . S
C2402 H2398 0.929 . S
C2402 C2404 1.378 . S
C2402 C2406 1.350 . S
C2403 C2406 1.463 . S
C2403 C2408 1.350 . S
C2403 N2411 1.427 . S
C2404 H2395 0.930 1_565 S
C2404 C2402 1.378 . S
C2404 C2405 1.367 1_565 S
C2405 C2404 1.367 1_545 S
C2405 C2407 1.433 1_545 S
C2406 C2402 1.350 . S
C2406 C2403 1.463 . S
C2406 N2410 1.427 . S
C2407 H2397 0.929 . S
C2407 C2405 1.433 1_565 S
C2407 N2410 1.384 . S
C2408 H2399 0.929 . S
C2408 C2400 1.378 . S
C2408 C2403 1.350 . S
C2409 H2396 0.929 . S
C2409 C2401 1.433 . S
C2409 N2411 1.384 . S
N2410 C2406 1.427 . S
N2410 C2407 1.384 . S
N2411 C2403 1.427 . S
N2411 C2409 1.384 . S
H2412 C2418 0.930 . S
H2413 C2422 0.930 . S
H2414 C2427 0.929 . S
H2415 C2425 0.929 . S
H2416 C2420 0.929 . S
H2417 C2426 0.929 . S
C2418 H2412 0.930 . S
C2418 C2419 1.367 . S
C2418 C2426 1.378 . S
C2419 C2418 1.367 . S
C2419 C2427 1.433 . S
C2420 H2416 0.929 . S
C2420 C2422 1.378 1_565 S
C2420 C2424 1.350 . S
C2421 C2424 1.463 . S
C2421 C2426 1.350 . S
C2421 N2429 1.427 . S
C2422 H2413 0.930 . S
C2422 C2420 1.378 1_545 S
C2422 C2423 1.367 . S
C2423 C2422 1.367 . S
C2423 C2425 1.433 1_545 S
C2424 C2420 1.350 . S
C2424 C2421 1.463 . S
C2424 N2428 1.427 . S
C2425 H2415 0.929 . S
C2425 C2423 1.433 1_565 S
C2425 N2428 1.384 . S
C2426 H2417 0.929 . S
C2426 C2418 1.378 . S
C2426 C2421 1.350 . S
C2427 H2414 0.929 . S
C2427 C2419 1.433 . S
C2427 N2429 1.384 . S
N2428 C2424 1.427 . S
N2428 C2425 1.384 . S
N2429 C2421 1.427 . S
N2429 C2427 1.384 . S
H2430 C2436 0.930 . S
H2431 C2440 0.930 . S
H2432 C2445 0.929 . S
H2433 C2443 0.929 . S
H2434 C2438 0.929 . S
H2435 C2444 0.929 1_655 S
C2436 H2430 0.930 . S
C2436 C2437 1.367 . S
C2436 C2444 1.378 1_655 S
C2437 C2436 1.367 . S
C2437 C2445 1.433 1_655 S
C2438 H2434 0.929 . S
C2438 C2440 1.378 . S
C2438 C2442 1.350 . S
C2439 C2442 1.463 . S
C2439 C2444 1.350 . S
C2439 N2447 1.427 . S
C2440 H2431 0.930 . S
C2440 C2438 1.378 . S
C2440 C2441 1.367 . S
C2441 C2440 1.367 . S
C2441 C2443 1.433 . S
C2442 C2438 1.350 . S
C2442 C2439 1.463 . S
C2442 N2446 1.427 . S
C2443 H2433 0.929 . S
C2443 C2441 1.433 . S
C2443 N2446 1.384 . S
C2444 H2435 0.929 1_455 S
C2444 C2436 1.378 1_455 S
C2444 C2439 1.350 . S
C2445 H2432 0.929 . S
C2445 C2437 1.433 1_455 S
C2445 N2447 1.384 . S
N2446 C2442 1.427 . S
N2446 C2443 1.384 . S
N2447 C2439 1.427 . S
N2447 C2445 1.384 . S
H2448 C2454 0.930 . S
H2449 C2458 0.930 . S
H2450 C2463 0.929 . S
H2451 C2461 0.929 . S
H2452 C2456 0.929 . S
H2453 C2462 0.929 . S
C2454 H2448 0.930 . S
C2454 C2455 1.367 . S
C2454 C2462 1.378 . S
C2455 C2454 1.367 . S
C2455 C2463 1.433 . S
C2456 H2452 0.929 . S
C2456 C2458 1.378 . S
C2456 C2460 1.350 . S
C2457 C2460 1.463 . S
C2457 C2462 1.350 . S
C2457 N2465 1.427 . S
C2458 H2449 0.930 . S
C2458 C2456 1.378 . S
C2458 C2459 1.367 . S
C2459 C2458 1.367 . S
C2459 C2461 1.433 . S
C2460 C2456 1.350 . S
C2460 C2457 1.463 . S
C2460 N2464 1.427 . S
C2461 H2451 0.929 . S
C2461 C2459 1.433 . S
C2461 N2464 1.384 . S
C2462 H2453 0.929 . S
C2462 C2454 1.378 . S
C2462 C2457 1.350 . S
C2463 H2450 0.929 . S
C2463 C2455 1.433 . S
C2463 N2465 1.384 . S
N2464 C2460 1.427 . S
N2464 C2461 1.384 . S
N2465 C2457 1.427 . S
N2465 C2463 1.384 . S
H2466 C2472 0.930 . S
H2467 C2476 0.930 . S
H2468 C2481 0.929 . S
H2469 C2479 0.929 . S
H2470 C2474 0.929 . S
H2471 C2480 0.929 . S
C2472 H2466 0.930 . S
C2472 C2473 1.363 . S
C2472 C2480 1.378 . S
C2473 C2472 1.363 . S
C2473 C2481 1.436 1_556 S
C2474 H2470 0.929 . S
C2474 C2476 1.378 . S
C2474 C2478 1.350 1_554 S
C2475 C2478 1.463 1_565 S
C2475 C2480 1.350 . S
C2475 N2483 1.427 1_556 S
C2476 H2467 0.930 . S
C2476 C2474 1.378 . S
C2476 C2477 1.367 1_554 S
C2477 C2476 1.367 1_556 S
C2477 C2479 1.433 . S
C2478 C2474 1.350 1_556 S
C2478 C2475 1.463 1_545 S
C2478 N2482 1.427 . S
C2479 H2469 0.929 . S
C2479 C2477 1.433 . S
C2479 N2482 1.384 . S
C2480 H2471 0.929 . S
C2480 C2472 1.378 . S
C2480 C2475 1.350 . S
C2481 H2468 0.929 . S
C2481 C2473 1.436 1_554 S
C2481 N2483 1.384 . S
N2482 C2478 1.427 . S
N2482 C2479 1.384 . S
N2483 C2475 1.427 1_554 S
N2483 C2481 1.384 . S
H2484 C2490 0.930 . S
H2485 C2494 0.930 . S
H2486 C2499 0.929 . S
H2487 C2497 0.929 . S
H2488 C2492 0.929 . S
H2489 C2498 0.929 . S
C2490 H2484 0.930 . S
C2490 C2491 1.363 . S
C2490 C2498 1.378 . S
C2491 C2490 1.363 . S
C2491 C2499 1.436 1_556 S
C2492 H2488 0.929 . S
C2492 C2494 1.378 . S
C2492 C2496 1.350 1_554 S
C2493 C2496 1.463 1_455 S
C2493 C2498 1.350 . S
C2493 N2501 1.427 1_556 S
C2494 H2485 0.930 . S
C2494 C2492 1.378 . S
C2494 C2495 1.367 1_554 S
C2495 C2494 1.367 1_556 S
C2495 C2497 1.433 . S
C2496 C2492 1.350 1_556 S
C2496 C2493 1.463 1_655 S
C2496 N2500 1.427 . S
C2497 H2487 0.929 . S
C2497 C2495 1.433 . S
C2497 N2500 1.384 . S
C2498 H2489 0.929 . S
C2498 C2490 1.378 . S
C2498 C2493 1.350 . S
C2499 H2486 0.929 . S
C2499 C2491 1.436 1_554 S
C2499 N2501 1.384 . S
N2500 C2496 1.427 . S
N2500 C2497 1.384 . S
N2501 C2493 1.427 1_554 S
N2501 C2499 1.384 . S
H2502 C2508 0.930 . S
H2503 C2512 0.930 . S
H2504 C2517 0.929 . S
H2505 C2515 0.929 . S
H2506 C2510 0.929 . S
H2507 C2516 0.929 . S
C2508 H2502 0.930 . S
C2508 C2509 1.367 . S
C2508 C2516 1.378 . S
C2509 C2508 1.367 . S
C2509 C2517 1.433 1_556 S
C2510 H2506 0.929 . S
C2510 C2512 1.378 . S
C2510 C2514 1.350 1_554 S
C2511 C2514 1.463 . S
C2511 C2516 1.350 . S
C2511 N2519 1.427 1_556 S
C2512 H2503 0.930 . S
C2512 C2510 1.378 . S
C2512 C2513 1.358 . S
C2513 C2512 1.358 . S
C2513 C2515 1.444 1_554 S
C2514 C2510 1.350 1_556 S
C2514 C2511 1.463 . S
C2514 N2518 1.427 . S
C2515 H2505 0.929 . S
C2515 C2513 1.444 1_556 S
C2515 N2518 1.384 . S
C2516 H2507 0.929 . S
C2516 C2508 1.378 . S
C2516 C2511 1.350 . S
C2517 H2504 0.929 . S
C2517 C2509 1.433 1_554 S
C2517 N2519 1.384 . S
N2518 C2514 1.427 . S
N2518 C2515 1.384 . S
N2519 C2511 1.427 1_554 S
N2519 C2517 1.384 . S
H2520 C2526 0.930 . S
H2521 C2530 0.930 . S
H2522 C2535 0.929 . S
H2523 C2533 0.929 . S
H2524 C2528 0.929 . S
H2525 C2534 0.929 . S
C2526 H2520 0.930 . S
C2526 C2527 1.367 . S
C2526 C2534 1.378 . S
C2527 C2526 1.367 . S
C2527 C2535 1.433 . S
C2528 H2524 0.929 . S
C2528 C2530 1.378 1_545 S
C2528 C2532 1.350 . S
C2529 C2532 1.463 . S
C2529 C2534 1.350 . S
C2529 N2537 1.427 . S
C2530 H2521 0.930 . S
C2530 C2528 1.378 1_565 S
C2530 C2531 1.367 . S
C2531 C2530 1.367 . S
C2531 C2533 1.433 1_565 S
C2532 C2528 1.350 . S
C2532 C2529 1.463 . S
C2532 N2536 1.427 . S
C2533 H2523 0.929 . S
C2533 C2531 1.433 1_545 S
C2533 N2536 1.384 . S
C2534 H2525 0.929 . S
C2534 C2526 1.378 . S
C2534 C2529 1.350 . S
C2535 H2522 0.929 . S
C2535 C2527 1.433 . S
C2535 N2537 1.384 . S
N2536 C2532 1.427 . S
N2536 C2533 1.384 . S
N2537 C2529 1.427 . S
N2537 C2535 1.384 . S
H2538 C2544 0.930 . S
H2539 C2548 0.930 . S
H2540 C2553 0.929 . S
H2541 C2551 0.929 . S
H2542 C2546 0.929 . S
H2543 C2552 0.929 . S
C2544 H2538 0.930 . S
C2544 C2545 1.367 . S
C2544 C2552 1.378 . S
C2545 C2544 1.367 . S
C2545 C2553 1.433 . S
C2546 H2542 0.929 . S
C2546 C2548 1.378 . S
C2546 C2550 1.350 . S
C2547 C2550 1.463 . S
C2547 C2552 1.350 . S
C2547 N2555 1.427 . S
C2548 H2539 0.930 . S
C2548 C2546 1.378 . S
C2548 C2549 1.367 1_655 S
C2549 C2548 1.367 1_455 S
C2549 C2551 1.433 . S
C2550 C2546 1.350 . S
C2550 C2547 1.463 . S
C2550 N2554 1.427 . S
C2551 H2541 0.929 . S
C2551 C2549 1.433 . S
C2551 N2554 1.384 1_455 S
C2552 H2543 0.929 . S
C2552 C2544 1.378 . S
C2552 C2547 1.350 . S
C2553 H2540 0.929 . S
C2553 C2545 1.433 . S
C2553 N2555 1.384 . S
N2554 C2550 1.427 . S
N2554 C2551 1.384 1_655 S
N2555 C2547 1.427 . S
N2555 C2553 1.384 . S
H2556 C2562 0.930 . S
H2557 C2566 0.930 . S
H2558 C2571 0.929 . S
H2559 C2569 0.929 . S
H2560 C2564 0.929 . S
H2561 C2570 0.929 . S
C2562 H2556 0.930 . S
C2562 C2563 1.367 . S
C2562 C2570 1.378 . S
C2563 C2562 1.367 . S
C2563 C2571 1.433 . S
C2564 H2560 0.929 . S
C2564 C2566 1.378 . S
C2564 C2568 1.350 . S
C2565 C2568 1.463 . S
C2565 C2570 1.350 . S
C2565 N2573 1.427 . S
C2566 H2557 0.930 . S
C2566 C2564 1.378 . S
C2566 C2567 1.367 . S
C2567 C2566 1.367 . S
C2567 C2569 1.433 . S
C2568 C2564 1.350 . S
C2568 C2565 1.463 . S
C2568 N2572 1.427 . S
C2569 H2559 0.929 . S
C2569 C2567 1.433 . S
C2569 N2572 1.384 . S
C2570 H2561 0.929 . S
C2570 C2562 1.378 . S
C2570 C2565 1.350 . S
C2571 H2558 0.929 . S
C2571 C2563 1.433 . S
C2571 N2573 1.384 . S
N2572 C2568 1.427 . S
N2572 C2569 1.384 . S
N2573 C2565 1.427 . S
N2573 C2571 1.384 . S
H2574 C2580 0.930 . S
H2575 C2584 0.930 . S
H2576 C2589 0.929 . S
H2577 C2587 0.929 . S
H2578 C2582 0.929 . S
H2579 C2588 0.929 . S
C2580 H2574 0.930 . S
C2580 C2581 1.367 1_556 S
C2580 C2588 1.378 . S
C2581 C2580 1.367 1_554 S
C2581 C2589 1.433 . S
C2582 H2578 0.929 . S
C2582 C2584 1.378 . S
C2582 C2586 1.350 . S
C2583 C2586 1.463 1_565 S
C2583 C2588 1.350 1_554 S
C2583 N2591 1.427 . S
C2584 H2575 0.930 . S
C2584 C2582 1.378 . S
C2584 C2585 1.377 . S
C2585 C2584 1.377 . S
C2585 C2587 1.424 1_554 S
C2586 C2582 1.350 . S
C2586 C2583 1.463 1_545 S
C2586 N2590 1.427 1_554 S
C2587 H2577 0.929 . S
C2587 C2585 1.424 1_556 S
C2587 N2590 1.384 . S
C2588 H2579 0.929 . S
C2588 C2580 1.378 . S
C2588 C2583 1.350 1_556 S
C2589 H2576 0.929 . S
C2589 C2581 1.433 . S
C2589 N2591 1.384 . S
N2590 C2586 1.427 1_556 S
N2590 C2587 1.384 . S
N2591 C2583 1.427 . S
N2591 C2589 1.384 . S
H2592 C2598 0.930 . S
H2593 C2602 0.930 . S
H2594 C2607 0.929 . S
H2595 C2605 0.929 . S
H2596 C2600 0.929 . S
H2597 C2606 0.929 . S
C2598 H2592 0.930 . S
C2598 C2599 1.383 . S
C2598 C2606 1.378 . S
C2599 C2598 1.383 . S
C2599 C2607 1.415 1_556 S
C2600 H2596 0.929 . S
C2600 C2602 1.378 . S
C2600 C2604 1.350 . S
C2601 C2604 1.463 1_655 S
C2601 C2606 1.350 1_554 S
C2601 N2609 1.427 . S
C2602 H2593 0.930 . S
C2602 C2600 1.378 . S
C2602 C2603 1.367 . S
C2603 C2602 1.367 . S
C2603 C2605 1.433 1_554 S
C2604 C2600 1.350 . S
C2604 C2601 1.463 1_455 S
C2604 N2608 1.427 1_554 S
C2605 H2595 0.929 . S
C2605 C2603 1.433 1_556 S
C2605 N2608 1.384 . S
C2606 H2597 0.929 . S
C2606 C2598 1.378 . S
C2606 C2601 1.350 1_556 S
C2607 H2594 0.929 . S
C2607 C2599 1.415 1_554 S
C2607 N2609 1.384 . S
N2608 C2604 1.427 1_556 S
N2608 C2605 1.384 . S
N2609 C2601 1.427 . S
N2609 C2607 1.384 . S
H2610 C2616 0.930 . S
H2611 C2620 0.930 . S
H2612 C2625 0.929 . S
H2613 C2623 0.938 . S
H2614 C2618 0.929 . S
H2615 C2624 0.952 . S
C2616 H2610 0.930 . S
C2616 C2617 1.367 . S
C2616 C2624 1.378 . S
C2617 C2616 1.367 . S
C2617 C2625 1.433 . S
C2618 H2614 0.929 . S
C2618 C2620 1.378 . S
C2618 C2622 1.350 . S
C2619 C2622 1.463 . S
C2619 C2624 1.350 . S
C2619 N2627 1.427 . S
C2620 H2611 0.930 . S
C2620 C2618 1.378 . S
C2620 C2621 1.368 . S
C2621 C2620 1.368 . S
C2621 C2623 1.431 1_554 S
C2622 C2618 1.350 . S
C2622 C2619 1.463 . S
C2622 N2626 1.431 . S
C2623 H2613 0.938 . S
C2623 C2621 1.431 1_556 S
C2623 N2626 1.380 1_556 S
C2624 H2615 0.952 . S
C2624 C2616 1.378 . S
C2624 C2619 1.350 . S
C2625 H2612 0.929 . S
C2625 C2617 1.433 . S
C2625 N2627 1.384 . S
N2626 C2622 1.431 . S
N2626 C2623 1.380 1_554 S
N2627 C2619 1.427 . S
N2627 C2625 1.384 . S
H2628 C2634 0.930 . S
H2629 C2638 0.930 . S
H2630 C2643 0.929 . S
H2631 C2641 0.929 . S
H2632 C2636 0.929 . S
H2633 C2642 0.929 . S
C2634 H2628 0.930 . S
C2634 C2635 1.367 . S
C2634 C2642 1.378 . S
C2635 C2634 1.367 . S
C2635 C2643 1.433 . S
C2636 H2632 0.929 . S
C2636 C2638 1.378 . S
C2636 C2640 1.350 . S
C2637 C2640 1.463 . S
C2637 C2642 1.350 1_655 S
C2637 N2645 1.427 1_655 S
C2638 H2629 0.930 . S
C2638 C2636 1.378 . S
C2638 C2639 1.367 . S
C2639 C2638 1.367 . S
C2639 C2641 1.433 . S
C2640 C2636 1.350 . S
C2640 C2637 1.463 . S
C2640 N2644 1.427 . S
C2641 H2631 0.929 . S
C2641 C2639 1.433 . S
C2641 N2644 1.384 . S
C2642 H2633 0.929 . S
C2642 C2634 1.378 . S
C2642 C2637 1.350 1_455 S
C2643 H2630 0.929 . S
C2643 C2635 1.433 . S
C2643 N2645 1.384 . S
N2644 C2640 1.427 . S
N2644 C2641 1.384 . S
N2645 C2637 1.427 1_455 S
N2645 C2643 1.384 . S
H2646 C2652 0.930 . S
H2647 C2656 0.930 . S
H2648 C2661 0.929 . S
H2649 C2659 0.929 . S
H2650 C2654 0.929 . S
H2651 C2660 0.929 . S
C2652 H2646 0.930 . S
C2652 C2653 1.367 . S
C2652 C2660 1.378 . S
C2653 C2652 1.367 . S
C2653 C2661 1.433 . S
C2654 H2650 0.929 . S
C2654 C2656 1.378 . S
C2654 C2658 1.350 . S
C2655 C2658 1.463 . S
C2655 C2660 1.350 . S
C2655 N2663 1.427 . S
C2656 H2647 0.930 . S
C2656 C2654 1.378 . S
C2656 C2657 1.367 . S
C2657 C2656 1.367 . S
C2657 C2659 1.433 . S
C2658 C2654 1.350 . S
C2658 C2655 1.463 . S
C2658 N2662 1.427 . S
C2659 H2649 0.929 . S
C2659 C2657 1.433 . S
C2659 N2662 1.384 . S
C2660 H2651 0.929 . S
C2660 C2652 1.378 . S
C2660 C2655 1.350 . S
C2661 H2648 0.929 . S
C2661 C2653 1.433 . S
C2661 N2663 1.384 . S
N2662 C2658 1.427 . S
N2662 C2659 1.384 . S
N2663 C2655 1.427 . S
N2663 C2661 1.384 . S
H2664 C2670 0.930 . S
H2665 C2674 0.930 . S
H2666 C2679 0.929 . S
H2667 C2677 0.929 . S
H2668 C2672 0.929 . S
H2669 C2678 0.929 1_545 S
C2670 H2664 0.930 . S
C2670 C2671 1.367 . S
C2670 C2678 1.378 . S
C2671 C2670 1.367 . S
C2671 C2679 1.433 . S
C2672 H2668 0.929 . S
C2672 C2674 1.378 . S
C2672 C2676 1.350 . S
C2673 C2676 1.463 . S
C2673 C2678 1.350 1_545 S
C2673 N2681 1.427 1_545 S
C2674 H2665 0.930 . S
C2674 C2672 1.378 . S
C2674 C2675 1.367 . S
C2675 C2674 1.367 . S
C2675 C2677 1.433 . S
C2676 C2672 1.350 . S
C2676 C2673 1.463 . S
C2676 N2680 1.427 . S
C2677 H2667 0.929 . S
C2677 C2675 1.433 . S
C2677 N2680 1.384 . S
C2678 H2669 0.929 1_565 S
C2678 C2670 1.378 . S
C2678 C2673 1.350 1_565 S
C2679 H2666 0.929 . S
C2679 C2671 1.433 . S
C2679 N2681 1.384 . S
N2680 C2676 1.427 . S
N2680 C2677 1.384 . S
N2681 C2673 1.427 1_565 S
N2681 C2679 1.384 . S
H2682 C2688 0.930 1_455 S
H2683 C2692 0.930 . S
H2684 C2697 0.929 . S
H2685 C2695 0.929 . S
H2686 C2690 0.929 . S
H2687 C2696 0.929 . S
C2688 H2682 0.930 1_655 S
C2688 C2689 1.367 1_655 S
C2688 C2696 1.378 . S
C2689 C2688 1.367 1_455 S
C2689 C2697 1.433 1_455 S
C2690 H2686 0.929 . S
C2690 C2692 1.378 . S
C2690 C2694 1.350 . S
C2691 C2694 1.463 . S
C2691 C2696 1.350 . S
C2691 N2699 1.427 . S
C2692 H2683 0.930 . S
C2692 C2690 1.378 . S
C2692 C2693 1.367 . S
C2693 C2692 1.367 . S
C2693 C2695 1.433 . S
C2694 C2690 1.350 . S
C2694 C2691 1.463 . S
C2694 N2698 1.427 . S
C2695 H2685 0.929 . S
C2695 C2693 1.433 . S
C2695 N2698 1.384 . S
C2696 H2687 0.929 . S
C2696 C2688 1.378 . S
C2696 C2691 1.350 . S
C2697 H2684 0.929 . S
C2697 C2689 1.433 1_655 S
C2697 N2699 1.384 . S
N2698 C2694 1.427 . S
N2698 C2695 1.384 . S
N2699 C2691 1.427 . S
N2699 C2697 1.384 . S
H2700 C2706 0.930 . S
H2701 C2710 0.930 . S
H2702 C2715 0.929 . S
H2703 C2713 0.929 . S
H2704 C2708 0.929 . S
H2705 C2714 0.929 . S
C2706 H2700 0.930 . S
C2706 C2707 1.367 . S
C2706 C2714 1.378 . S
C2707 C2706 1.367 . S
C2707 C2715 1.433 . S
C2708 H2704 0.929 . S
C2708 C2710 1.378 . S
C2708 C2712 1.350 . S
C2709 C2712 1.463 . S
C2709 C2714 1.350 . S
C2709 N2717 1.427 . S
C2710 H2701 0.930 . S
C2710 C2708 1.378 . S
C2710 C2711 1.367 . S
C2711 C2710 1.367 . S
C2711 C2713 1.433 . S
C2712 C2708 1.350 . S
C2712 C2709 1.463 . S
C2712 N2716 1.427 . S
C2713 H2703 0.929 . S
C2713 C2711 1.433 . S
C2713 N2716 1.384 . S
C2714 H2705 0.929 . S
C2714 C2706 1.378 . S
C2714 C2709 1.350 . S
C2715 H2702 0.929 . S
C2715 C2707 1.433 . S
C2715 N2717 1.384 . S
N2716 C2712 1.427 . S
N2716 C2713 1.384 . S
N2717 C2709 1.427 . S
N2717 C2715 1.384 . S
H2718 C2724 0.930 . S
H2719 C2728 0.930 . S
H2720 C2733 0.929 . S
H2721 C2731 0.929 . S
H2722 C2726 0.929 . S
H2723 C2732 0.929 . S
C2724 H2718 0.930 . S
C2724 C2725 1.367 . S
C2724 C2732 1.378 . S
C2725 C2724 1.367 . S
C2725 C2733 1.433 . S
C2726 H2722 0.929 . S
C2726 C2728 1.378 . S
C2726 C2730 1.350 . S
C2727 C2730 1.463 . S
C2727 C2732 1.350 . S
C2727 N2735 1.427 . S
C2728 H2719 0.930 . S
C2728 C2726 1.378 . S
C2728 C2729 1.355 1_545 S
C2729 C2728 1.355 1_565 S
C2729 C2731 1.433 . S
C2730 C2726 1.350 . S
C2730 C2727 1.463 . S
C2730 N2734 1.427 . S
C2731 H2721 0.929 . S
C2731 C2729 1.433 . S
C2731 N2734 1.384 1_565 S
C2732 H2723 0.929 . S
C2732 C2724 1.378 . S
C2732 C2727 1.350 . S
C2733 H2720 0.929 . S
C2733 C2725 1.433 . S
C2733 N2735 1.384 . S
N2734 C2730 1.427 . S
N2734 C2731 1.384 1_545 S
N2735 C2727 1.427 . S
N2735 C2733 1.384 . S
H2736 C2742 0.930 . S
H2737 C2746 0.930 . S
H2738 C2751 0.929 . S
H2739 C2749 0.929 . S
H2740 C2744 0.929 . S
H2741 C2750 0.929 . S
C2742 H2736 0.930 . S
C2742 C2743 1.367 . S
C2742 C2750 1.378 . S
C2743 C2742 1.367 . S
C2743 C2751 1.433 . S
C2744 H2740 0.929 . S
C2744 C2746 1.378 . S
C2744 C2748 1.350 . S
C2745 C2748 1.463 . S
C2745 C2750 1.350 . S
C2745 N2753 1.427 . S
C2746 H2737 0.930 . S
C2746 C2744 1.378 . S
C2746 C2747 1.367 . S
C2747 C2746 1.367 . S
C2747 C2749 1.433 . S
C2748 C2744 1.350 . S
C2748 C2745 1.463 . S
C2748 N2752 1.427 . S
C2749 H2739 0.929 . S
C2749 C2747 1.433 . S
C2749 N2752 1.384 . S
C2750 H2741 0.929 . S
C2750 C2742 1.378 . S
C2750 C2745 1.350 . S
C2751 H2738 0.929 . S
C2751 C2743 1.433 . S
C2751 N2753 1.384 . S
N2752 C2748 1.427 . S
N2752 C2749 1.384 . S
N2753 C2745 1.427 . S
N2753 C2751 1.384 . S
H2754 C2760 0.930 . S
H2755 C2764 0.930 . S
H2756 C2769 0.929 . S
H2757 C2767 0.929 . S
H2758 C2762 0.929 . S
H2759 C2768 0.929 . S
C2760 H2754 0.930 . S
C2760 C2761 1.367 . S
C2760 C2768 1.378 . S
C2761 C2760 1.367 . S
C2761 C2769 1.433 . S
C2762 H2758 0.929 . S
C2762 C2764 1.378 . S
C2762 C2766 1.350 . S
C2763 C2766 1.463 . S
C2763 C2768 1.350 . S
C2763 N2771 1.427 . S
C2764 H2755 0.930 . S
C2764 C2762 1.378 . S
C2764 C2765 1.367 . S
C2765 C2764 1.367 . S
C2765 C2767 1.433 . S
C2766 C2762 1.350 . S
C2766 C2763 1.463 . S
C2766 N2770 1.427 . S
C2767 H2757 0.929 . S
C2767 C2765 1.433 . S
C2767 N2770 1.384 . S
C2768 H2759 0.929 . S
C2768 C2760 1.378 . S
C2768 C2763 1.350 . S
C2769 H2756 0.929 . S
C2769 C2761 1.433 . S
C2769 N2771 1.384 . S
N2770 C2766 1.427 . S
N2770 C2767 1.384 . S
N2771 C2763 1.427 . S
N2771 C2769 1.384 . S
H2772 C2778 0.930 . S
H2773 C2782 0.930 . S
H2774 C2787 0.929 . S
H2775 C2785 0.929 . S
H2776 C2780 0.929 . S
H2777 C2786 0.929 . S
C2778 H2772 0.930 . S
C2778 C2779 1.367 . S
C2778 C2786 1.378 . S
C2779 C2778 1.367 . S
C2779 C2787 1.433 . S
C2780 H2776 0.929 . S
C2780 C2782 1.378 . S
C2780 C2784 1.350 . S
C2781 C2784 1.463 . S
C2781 C2786 1.350 . S
C2781 N2789 1.427 . S
C2782 H2773 0.930 . S
C2782 C2780 1.378 . S
C2782 C2783 1.367 . S
C2783 C2782 1.367 . S
C2783 C2785 1.433 . S
C2784 C2780 1.350 . S
C2784 C2781 1.463 . S
C2784 N2788 1.427 . S
C2785 H2775 0.929 . S
C2785 C2783 1.433 . S
C2785 N2788 1.384 . S
C2786 H2777 0.929 . S
C2786 C2778 1.378 . S
C2786 C2781 1.350 . S
C2787 H2774 0.929 . S
C2787 C2779 1.433 . S
C2787 N2789 1.384 . S
N2788 C2784 1.427 . S
N2788 C2785 1.384 . S
N2789 C2781 1.427 . S
N2789 C2787 1.384 . S
H2790 C2796 0.930 . S
H2791 C2800 0.930 . S
H2792 C2805 0.929 . S
H2793 C2803 0.929 . S
H2794 C2798 0.929 . S
H2795 C2804 0.929 . S
C2796 H2790 0.930 . S
C2796 C2797 1.367 . S
C2796 C2804 1.378 . S
C2797 C2796 1.367 . S
C2797 C2805 1.433 . S
C2798 H2794 0.929 . S
C2798 C2800 1.378 . S
C2798 C2802 1.350 . S
C2799 C2802 1.463 . S
C2799 C2804 1.350 . S
C2799 N2807 1.427 . S
C2800 H2791 0.930 . S
C2800 C2798 1.378 . S
C2800 C2801 1.367 . S
C2801 C2800 1.367 . S
C2801 C2803 1.433 . S
C2802 C2798 1.350 . S
C2802 C2799 1.463 . S
C2802 N2806 1.427 . S
C2803 H2793 0.929 . S
C2803 C2801 1.433 . S
C2803 N2806 1.384 . S
C2804 H2795 0.929 . S
C2804 C2796 1.378 . S
C2804 C2799 1.350 . S
C2805 H2792 0.929 . S
C2805 C2797 1.433 . S
C2805 N2807 1.384 . S
N2806 C2802 1.427 . S
N2806 C2803 1.384 . S
N2807 C2799 1.427 . S
N2807 C2805 1.384 . S
H2808 C2814 0.930 . S
H2809 C2818 0.930 . S
H2810 C2823 0.929 . S
H2811 C2821 0.929 . S
H2812 C2816 0.929 . S
H2813 C2822 0.929 . S
C2814 H2808 0.930 . S
C2814 C2815 1.367 . S
C2814 C2822 1.378 . S
C2815 C2814 1.367 . S
C2815 C2823 1.433 . S
C2816 H2812 0.929 . S
C2816 C2818 1.378 . S
C2816 C2820 1.350 . S
C2817 C2820 1.463 . S
C2817 C2822 1.350 . S
C2817 N2825 1.427 . S
C2818 H2809 0.930 . S
C2818 C2816 1.378 . S
C2818 C2819 1.367 . S
C2819 C2818 1.367 . S
C2819 C2821 1.433 . S
C2820 C2816 1.350 . S
C2820 C2817 1.463 . S
C2820 N2824 1.427 . S
C2821 H2811 0.929 . S
C2821 C2819 1.433 . S
C2821 N2824 1.384 . S
C2822 H2813 0.929 . S
C2822 C2814 1.378 . S
C2822 C2817 1.350 . S
C2823 H2810 0.929 . S
C2823 C2815 1.433 . S
C2823 N2825 1.384 . S
N2824 C2820 1.427 . S
N2824 C2821 1.384 . S
N2825 C2817 1.427 . S
N2825 C2823 1.384 . S
H2826 C2832 0.930 . S
H2827 C2836 0.930 . S
H2828 C2841 0.929 . S
H2829 C2839 0.929 . S
H2830 C2834 0.929 . S
H2831 C2840 0.929 . S
C2832 H2826 0.930 . S
C2832 C2833 1.367 . S
C2832 C2840 1.378 . S
C2833 C2832 1.367 . S
C2833 C2841 1.433 . S
C2834 H2830 0.929 . S
C2834 C2836 1.378 . S
C2834 C2838 1.350 . S
C2835 C2838 1.463 . S
C2835 C2840 1.350 . S
C2835 N2843 1.427 . S
C2836 H2827 0.930 . S
C2836 C2834 1.378 . S
C2836 C2837 1.367 . S
C2837 C2836 1.367 . S
C2837 C2839 1.433 . S
C2838 C2834 1.350 . S
C2838 C2835 1.463 . S
C2838 N2842 1.427 . S
C2839 H2829 0.929 . S
C2839 C2837 1.433 . S
C2839 N2842 1.384 . S
C2840 H2831 0.929 . S
C2840 C2832 1.378 . S
C2840 C2835 1.350 . S
C2841 H2828 0.929 . S
C2841 C2833 1.433 . S
C2841 N2843 1.384 . S
N2842 C2838 1.427 . S
N2842 C2839 1.384 . S
N2843 C2835 1.427 . S
N2843 C2841 1.384 . S
H2844 C2850 0.930 . S
H2845 C2854 0.930 . S
H2846 C2859 0.929 . S
H2847 C2857 0.929 . S
H2848 C2852 0.929 . S
H2849 C2858 0.929 . S
C2850 H2844 0.930 . S
C2850 C2851 1.367 . S
C2850 C2858 1.378 . S
C2851 C2850 1.367 . S
C2851 C2859 1.433 . S
C2852 H2848 0.929 . S
C2852 C2854 1.378 . S
C2852 C2856 1.350 . S
C2853 C2856 1.463 . S
C2853 C2858 1.350 . S
C2853 N2861 1.427 . S
C2854 H2845 0.930 . S
C2854 C2852 1.378 . S
C2854 C2855 1.367 . S
C2855 C2854 1.367 . S
C2855 C2857 1.433 . S
C2856 C2852 1.350 . S
C2856 C2853 1.463 . S
C2856 N2860 1.427 . S
C2857 H2847 0.929 . S
C2857 C2855 1.433 . S
C2857 N2860 1.384 . S
C2858 H2849 0.929 . S
C2858 C2850 1.378 . S
C2858 C2853 1.350 . S
C2859 H2846 0.929 . S
C2859 C2851 1.433 . S
C2859 N2861 1.384 . S
N2860 C2856 1.427 . S
N2860 C2857 1.384 . S
N2861 C2853 1.427 . S
N2861 C2859 1.384 . S
H2862 C2868 0.930 . S
H2863 C2872 0.930 . S
H2864 C2877 0.929 . S
H2865 C2875 0.929 . S
H2866 C2870 0.929 . S
H2867 C2876 0.929 . S
C2868 H2862 0.930 . S
C2868 C2869 1.367 . S
C2868 C2876 1.378 . S
C2869 C2868 1.367 . S
C2869 C2877 1.433 . S
C2870 H2866 0.929 . S
C2870 C2872 1.378 . S
C2870 C2874 1.350 . S
C2871 C2874 1.463 . S
C2871 C2876 1.350 . S
C2871 N2879 1.427 . S
C2872 H2863 0.930 . S
C2872 C2870 1.378 . S
C2872 C2873 1.367 . S
C2873 C2872 1.367 . S
C2873 C2875 1.433 . S
C2874 C2870 1.350 . S
C2874 C2871 1.463 . S
C2874 N2878 1.427 . S
C2875 H2865 0.929 . S
C2875 C2873 1.433 . S
C2875 N2878 1.384 . S
C2876 H2867 0.929 . S
C2876 C2868 1.378 . S
C2876 C2871 1.350 . S
C2877 H2864 0.929 . S
C2877 C2869 1.433 . S
C2877 N2879 1.384 . S
N2878 C2874 1.427 . S
N2878 C2875 1.384 . S
N2879 C2871 1.427 . S
N2879 C2877 1.384 . S
H2880 C2886 0.930 . S
H2881 C2890 0.930 . S
H2882 C2895 0.929 . S
H2883 C2893 0.929 . S
H2884 C2888 0.929 . S
H2885 C2894 0.929 . S
C2886 H2880 0.930 . S
C2886 C2887 1.367 . S
C2886 C2894 1.378 . S
C2887 C2886 1.367 . S
C2887 C2895 1.433 . S
C2888 H2884 0.929 . S
C2888 C2890 1.378 . S
C2888 C2892 1.350 . S
C2889 C2892 1.463 . S
C2889 C2894 1.350 . S
C2889 N2897 1.427 . S
C2890 H2881 0.930 . S
C2890 C2888 1.378 . S
C2890 C2891 1.367 . S
C2891 C2890 1.367 . S
C2891 C2893 1.433 . S
C2892 C2888 1.350 . S
C2892 C2889 1.463 . S
C2892 N2896 1.427 . S
C2893 H2883 0.929 . S
C2893 C2891 1.433 . S
C2893 N2896 1.384 . S
C2894 H2885 0.929 . S
C2894 C2886 1.378 . S
C2894 C2889 1.350 . S
C2895 H2882 0.929 . S
C2895 C2887 1.433 . S
C2895 N2897 1.384 . S
N2896 C2892 1.427 . S
N2896 C2893 1.384 . S
N2897 C2889 1.427 . S
N2897 C2895 1.384 . S
H2898 C2904 0.930 . S
H2899 C2908 0.930 . S
H2900 C2913 0.929 . S
H2901 C2911 0.929 . S
H2902 C2906 0.929 . S
H2903 C2912 0.929 . S
C2904 H2898 0.930 . S
C2904 C2905 1.367 . S
C2904 C2912 1.378 . S
C2905 C2904 1.367 . S
C2905 C2913 1.433 . S
C2906 H2902 0.929 . S
C2906 C2908 1.378 . S
C2906 C2910 1.350 . S
C2907 C2910 1.463 . S
C2907 C2912 1.350 . S
C2907 N2915 1.427 . S
C2908 H2899 0.930 . S
C2908 C2906 1.378 . S
C2908 C2909 1.367 . S
C2909 C2908 1.367 . S
C2909 C2911 1.433 . S
C2910 C2906 1.350 . S
C2910 C2907 1.463 . S
C2910 N2914 1.427 . S
C2911 H2901 0.929 . S
C2911 C2909 1.433 . S
C2911 N2914 1.384 . S
C2912 H2903 0.929 . S
C2912 C2904 1.378 . S
C2912 C2907 1.350 . S
C2913 H2900 0.929 . S
C2913 C2905 1.433 . S
C2913 N2915 1.384 . S
N2914 C2910 1.427 . S
N2914 C2911 1.384 . S
N2915 C2907 1.427 . S
N2915 C2913 1.384 . S
H2916 C2922 0.930 . S
H2917 C2926 0.930 . S
H2918 C2931 0.929 . S
H2919 C2929 0.929 . S
H2920 C2924 0.929 . S
H2921 C2930 0.929 . S
C2922 H2916 0.930 . S
C2922 C2923 1.367 . S
C2922 C2930 1.378 . S
C2923 C2922 1.367 . S
C2923 C2931 1.433 . S
C2924 H2920 0.929 . S
C2924 C2926 1.378 . S
C2924 C2928 1.350 . S
C2925 C2928 1.463 . S
C2925 C2930 1.350 . S
C2925 N2933 1.427 . S
C2926 H2917 0.930 . S
C2926 C2924 1.378 . S
C2926 C2927 1.367 . S
C2927 C2926 1.367 . S
C2927 C2929 1.433 . S
C2928 C2924 1.350 . S
C2928 C2925 1.463 . S
C2928 N2932 1.427 . S
C2929 H2919 0.929 . S
C2929 C2927 1.433 . S
C2929 N2932 1.384 . S
C2930 H2921 0.929 . S
C2930 C2922 1.378 . S
C2930 C2925 1.350 . S
C2931 H2918 0.929 . S
C2931 C2923 1.433 . S
C2931 N2933 1.384 . S
N2932 C2928 1.427 . S
N2932 C2929 1.384 . S
N2933 C2925 1.427 . S
N2933 C2931 1.384 . S
H2934 C2940 0.930 . S
H2935 C2944 0.930 . S
H2936 C2949 0.929 . S
H2937 C2947 0.929 . S
H2938 C2942 0.929 . S
H2939 C2948 0.929 . S
C2940 H2934 0.930 . S
C2940 C2941 1.367 . S
C2940 C2948 1.378 . S
C2941 C2940 1.367 . S
C2941 C2949 1.433 . S
C2942 H2938 0.929 . S
C2942 C2944 1.378 . S
C2942 C2946 1.350 . S
C2943 C2946 1.463 . S
C2943 C2948 1.350 . S
C2943 N2951 1.427 . S
C2944 H2935 0.930 . S
C2944 C2942 1.378 . S
C2944 C2945 1.367 . S
C2945 C2944 1.367 . S
C2945 C2947 1.433 . S
C2946 C2942 1.350 . S
C2946 C2943 1.463 . S
C2946 N2950 1.427 . S
C2947 H2937 0.929 . S
C2947 C2945 1.433 . S
C2947 N2950 1.384 . S
C2948 H2939 0.929 . S
C2948 C2940 1.378 . S
C2948 C2943 1.350 . S
C2949 H2936 0.929 . S
C2949 C2941 1.433 . S
C2949 N2951 1.384 . S
N2950 C2946 1.427 . S
N2950 C2947 1.384 . S
N2951 C2943 1.427 . S
N2951 C2949 1.384 . S
H2952 C2958 0.930 . S
H2953 C2962 0.930 . S
H2954 C2967 0.929 . S
H2955 C2965 0.929 . S
H2956 C2960 0.923 . S
H2957 C2966 0.929 . S
C2958 H2952 0.930 . S
C2958 C2959 1.367 1_455 S
C2958 C2966 1.378 . S
C2959 C2958 1.367 1_655 S
C2959 C2967 1.433 . S
C2960 H2956 0.923 . S
C2960 C2962 1.378 . S
C2960 C2964 1.350 . S
C2961 C2964 1.463 . S
C2961 C2966 1.350 . S
C2961 N2969 1.427 1_455 S
C2962 H2953 0.930 . S
C2962 C2960 1.378 . S
C2962 C2963 1.367 . S
C2963 C2962 1.367 . S
C2963 C2965 1.433 . S
C2964 C2960 1.350 . S
C2964 C2961 1.463 . S
C2964 N2968 1.427 . S
C2965 H2955 0.929 . S
C2965 C2963 1.433 . S
C2965 N2968 1.384 . S
C2966 H2957 0.929 . S
C2966 C2958 1.378 . S
C2966 C2961 1.350 . S
C2967 H2954 0.929 . S
C2967 C2959 1.433 . S
C2967 N2969 1.384 . S
N2968 C2964 1.427 . S
N2968 C2965 1.384 . S
N2969 C2961 1.427 1_655 S
N2969 C2967 1.384 . S
H2970 C2976 0.930 . S
H2971 C2980 0.930 . S
H2972 C2985 0.929 . S
H2973 C2983 0.929 . S
H2974 C2978 0.929 . S
H2975 C2984 0.929 . S
C2976 H2970 0.930 . S
C2976 C2977 1.367 . S
C2976 C2984 1.378 . S
C2977 C2976 1.367 . S
C2977 C2985 1.433 . S
C2978 H2974 0.929 . S
C2978 C2980 1.378 . S
C2978 C2982 1.350 . S
C2979 C2982 1.463 . S
C2979 C2984 1.350 . S
C2979 N2987 1.427 . S
C2980 H2971 0.930 . S
C2980 C2978 1.378 . S
C2980 C2981 1.367 . S
C2981 C2980 1.367 . S
C2981 C2983 1.433 . S
C2982 C2978 1.350 . S
C2982 C2979 1.463 . S
C2982 N2986 1.427 . S
C2983 H2973 0.929 . S
C2983 C2981 1.433 . S
C2983 N2986 1.384 . S
C2984 H2975 0.929 . S
C2984 C2976 1.378 . S
C2984 C2979 1.350 . S
C2985 H2972 0.929 . S
C2985 C2977 1.433 . S
C2985 N2987 1.384 . S
N2986 C2982 1.427 . S
N2986 C2983 1.384 . S
N2987 C2979 1.427 . S
N2987 C2985 1.384 . S
H2988 C2994 0.930 . S
H2989 C2998 0.930 . S
H2990 C3003 0.929 . S
H2991 C3001 0.929 . S
H2992 C2996 0.929 . S
H2993 C3002 0.929 . S
C2994 H2988 0.930 . S
C2994 C2995 1.367 . S
C2994 C3002 1.378 . S
C2995 C2994 1.367 . S
C2995 C3003 1.433 1_545 S
C2996 H2992 0.929 . S
C2996 C2998 1.378 . S
C2996 C3000 1.350 . S
C2997 C3000 1.467 . S
C2997 C3002 1.316 1_565 S
C2997 N3005 1.460 . S
C2998 H2989 0.930 . S
C2998 C2996 1.378 . S
C2998 C2999 1.367 . S
C2999 C2998 1.367 . S
C2999 C3001 1.433 1_565 S
C3000 C2996 1.350 . S
C3000 C2997 1.467 . S
C3000 N3004 1.427 1_565 S
C3001 H2991 0.929 . S
C3001 C2999 1.433 1_545 S
C3001 N3004 1.384 . S
C3002 H2993 0.929 . S
C3002 C2994 1.378 . S
C3002 C2997 1.316 1_545 S
C3003 H2990 0.929 . S
C3003 C2995 1.433 1_565 S
C3003 N3005 1.384 . S
N3004 C3000 1.427 1_545 S
N3004 C3001 1.384 . S
N3005 C2997 1.460 . S
N3005 C3003 1.384 . S
H3006 C3012 0.930 . S
H3007 C3016 0.930 . S
H3008 C3021 0.929 . S
H3009 C3019 0.929 . S
H3010 C3014 0.929 . S
H3011 C3020 0.929 . S
C3012 H3006 0.930 . S
C3012 C3013 1.367 . S
C3012 C3020 1.378 . S
C3013 C3012 1.367 . S
C3013 C3021 1.433 1_545 S
C3014 H3010 0.929 . S
C3014 C3016 1.378 . S
C3014 C3018 1.350 1_565 S
C3015 C3018 1.463 . S
C3015 C3020 1.350 . S
C3015 N3023 1.427 1_545 S
C3016 H3007 0.930 . S
C3016 C3014 1.378 . S
C3016 C3017 1.367 . S
C3017 C3016 1.367 . S
C3017 C3019 1.433 1_565 S
C3018 C3014 1.350 1_545 S
C3018 C3015 1.463 . S
C3018 N3022 1.427 . S
C3019 H3009 0.929 . S
C3019 C3017 1.433 1_545 S
C3019 N3022 1.384 . S
C3020 H3011 0.929 . S
C3020 C3012 1.378 . S
C3020 C3015 1.350 . S
C3021 H3008 0.929 . S
C3021 C3013 1.433 1_565 S
C3021 N3023 1.384 . S
N3022 C3018 1.427 . S
N3022 C3019 1.384 . S
N3023 C3015 1.427 1_565 S
N3023 C3021 1.384 . S
H3024 C3030 0.930 . S
H3025 C3034 0.930 . S
H3026 C3039 0.929 . S
H3027 C3037 0.929 . S
H3028 C3032 0.929 . S
H3029 C3038 0.929 . S
C3030 H3024 0.930 . S
C3030 C3031 1.367 1_655 S
C3030 C3038 1.378 . S
C3031 C3030 1.367 1_455 S
C3031 C3039 1.433 . S
C3032 H3028 0.929 . S
C3032 C3034 1.378 . S
C3032 C3036 1.350 1_455 S
C3033 C3036 1.463 . S
C3033 C3038 1.350 . S
C3033 N3041 1.427 1_655 S
C3034 H3025 0.930 . S
C3034 C3032 1.378 . S
C3034 C3035 1.367 1_455 S
C3035 C3034 1.367 1_655 S
C3035 C3037 1.433 . S
C3036 C3032 1.350 1_655 S
C3036 C3033 1.463 . S
C3036 N3040 1.427 . S
C3037 H3027 0.929 . S
C3037 C3035 1.433 . S
C3037 N3040 1.384 . S
C3038 H3029 0.929 . S
C3038 C3030 1.378 . S
C3038 C3033 1.350 . S
C3039 H3026 0.929 . S
C3039 C3031 1.433 . S
C3039 N3041 1.384 . S
N3040 C3036 1.427 . S
N3040 C3037 1.384 . S
N3041 C3033 1.427 1_455 S
N3041 C3039 1.384 . S
H3042 C3048 0.930 . S
H3043 C3052 0.930 . S
H3044 C3057 0.929 . S
H3045 C3055 0.929 . S
H3046 C3050 0.929 . S
H3047 C3056 0.929 . S
C3048 H3042 0.930 . S
C3048 C3049 1.367 . S
C3048 C3056 1.378 . S
C3049 C3048 1.367 . S
C3049 C3057 1.433 . S
C3050 H3046 0.929 . S
C3050 C3052 1.378 . S
C3050 C3054 1.350 . S
C3051 C3054 1.463 . S
C3051 C3056 1.350 . S
C3051 N3059 1.427 . S
C3052 H3043 0.930 . S
C3052 C3050 1.378 . S
C3052 C3053 1.367 . S
C3053 C3052 1.367 . S
C3053 C3055 1.433 . S
C3054 C3050 1.350 . S
C3054 C3051 1.463 . S
C3054 N3058 1.427 . S
C3055 H3045 0.929 . S
C3055 C3053 1.433 . S
C3055 N3058 1.384 . S
C3056 H3047 0.929 . S
C3056 C3048 1.378 . S
C3056 C3051 1.350 . S
C3057 H3044 0.929 . S
C3057 C3049 1.433 . S
C3057 N3059 1.384 . S
N3058 C3054 1.427 . S
N3058 C3055 1.384 . S
N3059 C3051 1.427 . S
N3059 C3057 1.384 . S
H3060 C3066 0.930 . S
H3061 C3070 0.930 . S
H3062 C3075 0.929 . S
H3063 C3073 0.929 . S
H3064 C3068 0.929 . S
H3065 C3074 0.929 . S
C3066 H3060 0.930 . S
C3066 C3067 1.367 . S
C3066 C3074 1.378 1_655 S
C3067 C3066 1.367 . S
C3067 C3075 1.433 . S
C3068 H3064 0.929 . S
C3068 C3070 1.378 1_655 S
C3068 C3072 1.350 1_655 S
C3069 C3072 1.463 1_655 S
C3069 C3074 1.350 1_655 S
C3069 N3077 1.427 . S
C3070 H3061 0.930 . S
C3070 C3068 1.378 1_455 S
C3070 C3071 1.367 . S
C3071 C3070 1.367 . S
C3071 C3073 1.433 . S
C3072 C3068 1.350 1_455 S
C3072 C3069 1.463 1_455 S
C3072 N3076 1.427 . S
C3073 H3063 0.929 . S
C3073 C3071 1.433 . S
C3073 N3076 1.384 . S
C3074 H3065 0.929 . S
C3074 C3066 1.378 1_455 S
C3074 C3069 1.350 1_455 S
C3075 H3062 0.929 . S
C3075 C3067 1.433 . S
C3075 N3077 1.384 . S
N3076 C3072 1.427 . S
N3076 C3073 1.384 . S
N3077 C3069 1.427 . S
N3077 C3075 1.384 . S
H3078 C3084 0.930 . S
H3079 C3088 0.930 . S
H3080 C3093 0.929 . S
H3081 C3091 0.929 . S
H3082 C3086 0.929 . S
H3083 C3092 0.929 . S
C3084 H3078 0.930 . S
C3084 C3085 1.367 . S
C3084 C3092 1.378 . S
C3085 C3084 1.367 . S
C3085 C3093 1.433 . S
C3086 H3082 0.929 . S
C3086 C3088 1.378 . S
C3086 C3090 1.350 . S
C3087 C3090 1.463 . S
C3087 C3092 1.350 . S
C3087 N3095 1.427 . S
C3088 H3079 0.930 . S
C3088 C3086 1.378 . S
C3088 C3089 1.367 . S
C3089 C3088 1.367 . S
C3089 C3091 1.433 . S
C3090 C3086 1.350 . S
C3090 C3087 1.463 . S
C3090 N3094 1.427 . S
C3091 H3081 0.929 . S
C3091 C3089 1.433 . S
C3091 N3094 1.384 . S
C3092 H3083 0.929 . S
C3092 C3084 1.378 . S
C3092 C3087 1.350 . S
C3093 H3080 0.929 . S
C3093 C3085 1.433 . S
C3093 N3095 1.384 . S
N3094 C3090 1.427 . S
N3094 C3091 1.384 . S
N3095 C3087 1.427 . S
N3095 C3093 1.384 . S
H3096 C3102 0.930 . S
H3097 C3106 0.930 . S
H3098 C3111 0.929 . S
H3099 C3109 0.929 . S
H3100 C3104 0.929 . S
H3101 C3110 0.929 . S
C3102 H3096 0.930 . S
C3102 C3103 1.367 . S
C3102 C3110 1.378 . S
C3103 C3102 1.367 . S
C3103 C3111 1.433 . S
C3104 H3100 0.929 . S
C3104 C3106 1.378 . S
C3104 C3108 1.350 . S
C3105 C3108 1.463 1_545 S
C3105 C3110 1.350 . S
C3105 N3113 1.427 . S
C3106 H3097 0.930 . S
C3106 C3104 1.378 . S
C3106 C3107 1.367 . S
C3107 C3106 1.367 . S
C3107 C3109 1.433 . S
C3108 C3104 1.350 . S
C3108 C3105 1.463 1_565 S
C3108 N3112 1.427 . S
C3109 H3099 0.929 . S
C3109 C3107 1.433 . S
C3109 N3112 1.384 . S
C3110 H3101 0.929 . S
C3110 C3102 1.378 . S
C3110 C3105 1.350 . S
C3111 H3098 0.929 . S
C3111 C3103 1.433 . S
C3111 N3113 1.384 . S
N3112 C3108 1.427 . S
N3112 C3109 1.384 . S
N3113 C3105 1.427 . S
N3113 C3111 1.384 . S
H3114 C3120 0.930 . S
H3115 C3124 0.930 . S
H3116 C3129 0.929 . S
H3117 C3127 0.929 . S
H3118 C3122 0.929 . S
H3119 C3128 0.929 . S
C3120 H3114 0.930 . S
C3120 C3121 1.367 . S
C3120 C3128 1.378 . S
C3121 C3120 1.367 . S
C3121 C3129 1.433 . S
C3122 H3118 0.929 . S
C3122 C3124 1.378 . S
C3122 C3126 1.350 . S
C3123 C3126 1.463 1_655 S
C3123 C3128 1.350 . S
C3123 N3131 1.427 1_655 S
C3124 H3115 0.930 . S
C3124 C3122 1.378 . S
C3124 C3125 1.367 . S
C3125 C3124 1.367 . S
C3125 C3127 1.433 . S
C3126 C3122 1.350 . S
C3126 C3123 1.463 1_455 S
C3126 N3130 1.427 1_455 S
C3127 H3117 0.929 . S
C3127 C3125 1.433 . S
C3127 N3130 1.384 1_455 S
C3128 H3119 0.929 . S
C3128 C3120 1.378 . S
C3128 C3123 1.350 . S
C3129 H3116 0.929 . S
C3129 C3121 1.433 . S
C3129 N3131 1.384 1_655 S
N3130 C3126 1.427 1_655 S
N3130 C3127 1.384 1_655 S
N3131 C3123 1.427 1_455 S
N3131 C3129 1.384 1_455 S
H3132 C3138 0.930 . S
H3133 C3142 0.930 . S
H3134 C3147 0.929 . S
H3135 C3145 0.929 . S
H3136 C3140 0.929 . S
H3137 C3146 0.929 . S
C3138 H3132 0.930 . S
C3138 C3139 1.367 . S
C3138 C3146 1.378 . S
C3139 C3138 1.367 . S
C3139 C3147 1.433 . S
C3140 H3136 0.929 . S
C3140 C3142 1.378 . S
C3140 C3144 1.350 . S
C3141 C3144 1.463 . S
C3141 C3146 1.350 . S
C3141 N3149 1.427 . S
C3142 H3133 0.930 . S
C3142 C3140 1.378 . S
C3142 C3143 1.367 . S
C3143 C3142 1.367 . S
C3143 C3145 1.433 . S
C3144 C3140 1.350 . S
C3144 C3141 1.463 . S
C3144 N3148 1.427 . S
C3145 H3135 0.929 . S
C3145 C3143 1.433 . S
C3145 N3148 1.384 . S
C3146 H3137 0.929 . S
C3146 C3138 1.378 . S
C3146 C3141 1.350 . S
C3147 H3134 0.929 . S
C3147 C3139 1.433 . S
C3147 N3149 1.384 . S
N3148 C3144 1.427 . S
N3148 C3145 1.384 . S
N3149 C3141 1.427 . S
N3149 C3147 1.384 . S
H3150 C3156 0.930 . S
H3151 C3160 0.930 . S
H3152 C3165 0.927 . S
H3153 C3163 0.930 1_545 S
H3154 C3158 0.929 . S
H3155 C3164 0.929 . S
C3156 H3150 0.930 . S
C3156 C3157 1.367 . S
C3156 C3164 1.378 . S
C3157 C3156 1.367 . S
C3157 C3165 1.437 1_545 S
C3158 H3154 0.929 . S
C3158 C3160 1.378 . S
C3158 C3162 1.350 . S
C3159 C3162 1.463 1_545 S
C3159 C3164 1.350 . S
C3159 N3167 1.427 1_545 S
C3160 H3151 0.930 . S
C3160 C3158 1.378 . S
C3160 C3161 1.367 . S
C3161 C3160 1.367 . S
C3161 C3163 1.432 . S
C3162 C3158 1.350 . S
C3162 C3159 1.463 1_565 S
C3162 N3166 1.427 1_565 S
C3163 H3153 0.930 1_565 S
C3163 C3161 1.432 . S
C3163 N3166 1.384 1_565 S
C3164 H3155 0.929 . S
C3164 C3156 1.378 . S
C3164 C3159 1.350 . S
C3165 H3152 0.927 . S
C3165 C3157 1.437 1_565 S
C3165 N3167 1.382 . S
N3166 C3162 1.427 1_545 S
N3166 C3163 1.384 1_545 S
N3167 C3159 1.427 1_565 S
N3167 C3165 1.382 . S
H3168 C3174 0.930 . S
H3169 C3178 0.930 . S
H3170 C3183 0.929 . S
H3171 C3181 0.929 . S
H3172 C3176 0.929 . S
H3173 C3182 0.929 . S
C3174 H3168 0.930 . S
C3174 C3175 1.367 . S
C3174 C3182 1.378 . S
C3175 C3174 1.367 . S
C3175 C3183 1.433 . S
C3176 H3172 0.929 . S
C3176 C3178 1.378 . S
C3176 C3180 1.350 . S
C3177 C3180 1.463 . S
C3177 C3182 1.350 . S
C3177 N3185 1.427 . S
C3178 H3169 0.930 . S
C3178 C3176 1.378 . S
C3178 C3179 1.367 . S
C3179 C3178 1.367 . S
C3179 C3181 1.433 . S
C3180 C3176 1.350 . S
C3180 C3177 1.463 . S
C3180 N3184 1.427 . S
C3181 H3171 0.929 . S
C3181 C3179 1.433 . S
C3181 N3184 1.384 . S
C3182 H3173 0.929 . S
C3182 C3174 1.378 . S
C3182 C3177 1.350 . S
C3183 H3170 0.929 . S
C3183 C3175 1.433 . S
C3183 N3185 1.384 . S
N3184 C3180 1.427 . S
N3184 C3181 1.384 . S
N3185 C3177 1.427 . S
N3185 C3183 1.384 . S
H3186 C3192 0.930 . S
H3187 C3196 0.930 . S
H3188 C3201 0.929 . S
H3189 C3199 0.929 . S
H3190 C3194 0.929 . S
H3191 C3200 0.929 . S
C3192 H3186 0.930 . S
C3192 C3193 1.367 . S
C3192 C3200 1.378 . S
C3193 C3192 1.367 . S
C3193 C3201 1.433 . S
C3194 H3190 0.929 . S
C3194 C3196 1.378 . S
C3194 C3198 1.350 . S
C3195 C3198 1.463 . S
C3195 C3200 1.350 . S
C3195 N3203 1.427 . S
C3196 H3187 0.930 . S
C3196 C3194 1.378 . S
C3196 C3197 1.367 . S
C3197 C3196 1.367 . S
C3197 C3199 1.433 . S
C3198 C3194 1.350 . S
C3198 C3195 1.463 . S
C3198 N3202 1.427 . S
C3199 H3189 0.929 . S
C3199 C3197 1.433 . S
C3199 N3202 1.384 . S
C3200 H3191 0.929 . S
C3200 C3192 1.378 . S
C3200 C3195 1.350 . S
C3201 H3188 0.929 . S
C3201 C3193 1.433 . S
C3201 N3203 1.384 . S
N3202 C3198 1.427 . S
N3202 C3199 1.384 . S
N3203 C3195 1.427 . S
N3203 C3201 1.384 . S
H3204 C3210 0.930 . S
H3205 C3214 0.930 . S
H3206 C3219 0.929 . S
H3207 C3217 0.929 . S
H3208 C3212 0.929 . S
H3209 C3218 0.929 . S
C3210 H3204 0.930 . S
C3210 C3211 1.367 . S
C3210 C3218 1.378 . S
C3211 C3210 1.367 . S
C3211 C3219 1.433 . S
C3212 H3208 0.929 . S
C3212 C3214 1.378 . S
C3212 C3216 1.350 . S
C3213 C3216 1.463 . S
C3213 C3218 1.350 . S
C3213 N3221 1.427 . S
C3214 H3205 0.930 . S
C3214 C3212 1.378 . S
C3214 C3215 1.367 . S
C3215 C3214 1.367 . S
C3215 C3217 1.433 . S
C3216 C3212 1.350 . S
C3216 C3213 1.463 . S
C3216 N3220 1.427 . S
C3217 H3207 0.929 . S
C3217 C3215 1.433 . S
C3217 N3220 1.384 . S
C3218 H3209 0.929 . S
C3218 C3210 1.378 . S
C3218 C3213 1.350 . S
C3219 H3206 0.929 . S
C3219 C3211 1.433 . S
C3219 N3221 1.384 . S
N3220 C3216 1.427 . S
N3220 C3217 1.384 . S
N3221 C3213 1.427 . S
N3221 C3219 1.384 . S
H3222 C3228 0.930 . S
H3223 C3232 0.930 . S
H3224 C3237 0.929 . S
H3225 C3235 0.929 . S
H3226 C3230 0.929 . S
H3227 C3236 0.929 . S
C3228 H3222 0.930 . S
C3228 C3229 1.367 . S
C3228 C3236 1.378 . S
C3229 C3228 1.367 . S
C3229 C3237 1.433 . S
C3230 H3226 0.929 . S
C3230 C3232 1.378 . S
C3230 C3234 1.350 . S
C3231 C3234 1.463 . S
C3231 C3236 1.350 . S
C3231 N3239 1.427 . S
C3232 H3223 0.930 . S
C3232 C3230 1.378 . S
C3232 C3233 1.367 . S
C3233 C3232 1.367 . S
C3233 C3235 1.433 . S
C3234 C3230 1.350 . S
C3234 C3231 1.463 . S
C3234 N3238 1.427 . S
C3235 H3225 0.929 . S
C3235 C3233 1.433 . S
C3235 N3238 1.384 . S
C3236 H3227 0.929 . S
C3236 C3228 1.378 . S
C3236 C3231 1.350 . S
C3237 H3224 0.929 . S
C3237 C3229 1.433 . S
C3237 N3239 1.384 . S
N3238 C3234 1.427 . S
N3238 C3235 1.384 . S
N3239 C3231 1.427 . S
N3239 C3237 1.384 . S
H3240 C3246 0.930 . S
H3241 C3250 0.930 . S
H3242 C3255 0.929 . S
H3243 C3253 0.929 . S
H3244 C3248 0.929 . S
H3245 C3254 0.929 . S
C3246 H3240 0.930 . S
C3246 C3247 1.367 . S
C3246 C3254 1.378 . S
C3247 C3246 1.367 . S
C3247 C3255 1.433 . S
C3248 H3244 0.929 . S
C3248 C3250 1.378 . S
C3248 C3252 1.350 . S
C3249 C3252 1.463 . S
C3249 C3254 1.350 . S
C3249 N3257 1.427 . S
C3250 H3241 0.930 . S
C3250 C3248 1.378 . S
C3250 C3251 1.367 . S
C3251 C3250 1.367 . S
C3251 C3253 1.433 . S
C3252 C3248 1.350 . S
C3252 C3249 1.463 . S
C3252 N3256 1.427 . S
C3253 H3243 0.929 . S
C3253 C3251 1.433 . S
C3253 N3256 1.384 . S
C3254 H3245 0.929 . S
C3254 C3246 1.378 . S
C3254 C3249 1.350 . S
C3255 H3242 0.929 . S
C3255 C3247 1.433 . S
C3255 N3257 1.384 . S
N3256 C3252 1.427 . S
N3256 C3253 1.384 . S
N3257 C3249 1.427 . S
N3257 C3255 1.384 . S
H3258 C3264 0.930 . S
H3259 C3268 0.930 . S
H3260 C3273 0.929 . S
H3261 C3271 0.929 . S
H3262 C3266 0.929 . S
H3263 C3272 0.929 . S
C3264 H3258 0.930 . S
C3264 C3265 1.367 . S
C3264 C3272 1.378 . S
C3265 C3264 1.367 . S
C3265 C3273 1.433 . S
C3266 H3262 0.929 . S
C3266 C3268 1.378 . S
C3266 C3270 1.350 . S
C3267 C3270 1.463 . S
C3267 C3272 1.350 . S
C3267 N3275 1.427 . S
C3268 H3259 0.930 . S
C3268 C3266 1.378 . S
C3268 C3269 1.367 . S
C3269 C3268 1.367 . S
C3269 C3271 1.433 . S
C3270 C3266 1.350 . S
C3270 C3267 1.463 . S
C3270 N3274 1.427 . S
C3271 H3261 0.929 . S
C3271 C3269 1.433 . S
C3271 N3274 1.384 . S
C3272 H3263 0.929 . S
C3272 C3264 1.378 . S
C3272 C3267 1.350 . S
C3273 H3260 0.929 . S
C3273 C3265 1.433 . S
C3273 N3275 1.384 . S
N3274 C3270 1.427 . S
N3274 C3271 1.384 . S
N3275 C3267 1.427 . S
N3275 C3273 1.384 . S
H3276 C3282 0.930 . S
H3277 C3286 0.930 . S
H3278 C3291 0.929 . S
H3279 C3289 0.929 . S
H3280 C3284 0.929 . S
H3281 C3290 0.929 . S
C3282 H3276 0.930 . S
C3282 C3283 1.367 . S
C3282 C3290 1.378 . S
C3283 C3282 1.367 . S
C3283 C3291 1.433 . S
C3284 H3280 0.929 . S
C3284 C3286 1.378 . S
C3284 C3288 1.350 . S
C3285 C3288 1.463 . S
C3285 C3290 1.350 . S
C3285 N3293 1.427 . S
C3286 H3277 0.930 . S
C3286 C3284 1.378 . S
C3286 C3287 1.367 . S
C3287 C3286 1.367 . S
C3287 C3289 1.433 . S
C3288 C3284 1.350 . S
C3288 C3285 1.463 . S
C3288 N3292 1.427 . S
C3289 H3279 0.929 . S
C3289 C3287 1.433 . S
C3289 N3292 1.384 . S
C3290 H3281 0.929 . S
C3290 C3282 1.378 . S
C3290 C3285 1.350 . S
C3291 H3278 0.929 . S
C3291 C3283 1.433 . S
C3291 N3293 1.384 . S
N3292 C3288 1.427 . S
N3292 C3289 1.384 . S
N3293 C3285 1.427 . S
N3293 C3291 1.384 . S
H3294 C3300 0.930 . S
H3295 C3304 0.930 . S
H3296 C3309 0.929 . S
H3297 C3307 0.929 . S
H3298 C3302 0.929 . S
H3299 C3308 0.929 . S
C3300 H3294 0.930 . S
C3300 C3301 1.367 . S
C3300 C3308 1.378 . S
C3301 C3300 1.367 . S
C3301 C3309 1.433 . S
C3302 H3298 0.929 . S
C3302 C3304 1.378 . S
C3302 C3306 1.350 . S
C3303 C3306 1.463 . S
C3303 C3308 1.350 . S
C3303 N3311 1.427 . S
C3304 H3295 0.930 . S
C3304 C3302 1.378 . S
C3304 C3305 1.367 . S
C3305 C3304 1.367 . S
C3305 C3307 1.433 . S
C3306 C3302 1.350 . S
C3306 C3303 1.463 . S
C3306 N3310 1.427 . S
C3307 H3297 0.929 . S
C3307 C3305 1.433 . S
C3307 N3310 1.384 . S
C3308 H3299 0.929 . S
C3308 C3300 1.378 . S
C3308 C3303 1.350 . S
C3309 H3296 0.929 . S
C3309 C3301 1.433 . S
C3309 N3311 1.384 . S
N3310 C3306 1.427 . S
N3310 C3307 1.384 . S
N3311 C3303 1.427 . S
N3311 C3309 1.384 . S
H3312 C3318 0.930 . S
H3313 C3322 0.930 . S
H3314 C3327 0.929 . S
H3315 C3325 0.929 . S
H3316 C3320 0.929 . S
H3317 C3326 0.929 . S
C3318 H3312 0.930 . S
C3318 C3319 1.367 . S
C3318 C3326 1.378 . S
C3319 C3318 1.367 . S
C3319 C3327 1.433 . S
C3320 H3316 0.929 . S
C3320 C3322 1.378 . S
C3320 C3324 1.350 . S
C3321 C3324 1.463 . S
C3321 C3326 1.350 . S
C3321 N3329 1.427 . S
C3322 H3313 0.930 . S
C3322 C3320 1.378 . S
C3322 C3323 1.367 . S
C3323 C3322 1.367 . S
C3323 C3325 1.433 . S
C3324 C3320 1.350 . S
C3324 C3321 1.463 . S
C3324 N3328 1.427 . S
C3325 H3315 0.929 . S
C3325 C3323 1.433 . S
C3325 N3328 1.384 . S
C3326 H3317 0.929 . S
C3326 C3318 1.378 . S
C3326 C3321 1.350 . S
C3327 H3314 0.929 . S
C3327 C3319 1.433 . S
C3327 N3329 1.384 . S
N3328 C3324 1.427 . S
N3328 C3325 1.384 . S
N3329 C3321 1.427 . S
N3329 C3327 1.384 . S
H3330 C3336 0.930 . S
H3331 C3340 0.930 . S
H3332 C3345 0.929 . S
H3333 C3343 0.929 . S
H3334 C3338 0.929 . S
H3335 C3344 0.929 . S
C3336 H3330 0.930 . S
C3336 C3337 1.367 . S
C3336 C3344 1.378 . S
C3337 C3336 1.367 . S
C3337 C3345 1.433 . S
C3338 H3334 0.929 . S
C3338 C3340 1.378 . S
C3338 C3342 1.350 . S
C3339 C3342 1.463 . S
C3339 C3344 1.350 . S
C3339 N3347 1.427 . S
C3340 H3331 0.930 . S
C3340 C3338 1.378 . S
C3340 C3341 1.367 . S
C3341 C3340 1.367 . S
C3341 C3343 1.433 . S
C3342 C3338 1.350 . S
C3342 C3339 1.463 . S
C3342 N3346 1.427 . S
C3343 H3333 0.929 . S
C3343 C3341 1.433 . S
C3343 N3346 1.384 . S
C3344 H3335 0.929 . S
C3344 C3336 1.378 . S
C3344 C3339 1.350 . S
C3345 H3332 0.929 . S
C3345 C3337 1.433 . S
C3345 N3347 1.384 . S
N3346 C3342 1.427 . S
N3346 C3343 1.384 . S
N3347 C3339 1.427 . S
N3347 C3345 1.384 . S
H3348 C3354 0.930 . S
H3349 C3358 0.930 . S
H3350 C3363 0.929 . S
H3351 C3361 0.929 . S
H3352 C3356 0.929 . S
H3353 C3362 0.929 . S
C3354 H3348 0.930 . S
C3354 C3355 1.367 . S
C3354 C3362 1.378 . S
C3355 C3354 1.367 . S
C3355 C3363 1.433 . S
C3356 H3352 0.929 . S
C3356 C3358 1.378 . S
C3356 C3360 1.350 . S
C3357 C3360 1.463 . S
C3357 C3362 1.350 . S
C3357 N3365 1.427 . S
C3358 H3349 0.930 . S
C3358 C3356 1.378 . S
C3358 C3359 1.367 . S
C3359 C3358 1.367 . S
C3359 C3361 1.433 . S
C3360 C3356 1.350 . S
C3360 C3357 1.463 . S
C3360 N3364 1.427 . S
C3361 H3351 0.929 . S
C3361 C3359 1.433 . S
C3361 N3364 1.384 . S
C3362 H3353 0.929 . S
C3362 C3354 1.378 . S
C3362 C3357 1.350 . S
C3363 H3350 0.929 . S
C3363 C3355 1.433 . S
C3363 N3365 1.384 . S
N3364 C3360 1.427 . S
N3364 C3361 1.384 . S
N3365 C3357 1.427 . S
N3365 C3363 1.384 . S
H3366 C3372 0.930 . S
H3367 C3376 0.930 . S
H3368 C3381 0.929 . S
H3369 C3379 0.929 . S
H3370 C3374 0.929 . S
H3371 C3380 0.929 . S
C3372 H3366 0.930 . S
C3372 C3373 1.367 . S
C3372 C3380 1.378 . S
C3373 C3372 1.367 . S
C3373 C3381 1.433 . S
C3374 H3370 0.929 . S
C3374 C3376 1.378 . S
C3374 C3378 1.350 . S
C3375 C3378 1.463 . S
C3375 C3380 1.350 . S
C3375 N3383 1.427 . S
C3376 H3367 0.930 . S
C3376 C3374 1.378 . S
C3376 C3377 1.367 . S
C3377 C3376 1.367 . S
C3377 C3379 1.433 . S
C3378 C3374 1.350 . S
C3378 C3375 1.463 . S
C3378 N3382 1.427 . S
C3379 H3369 0.929 . S
C3379 C3377 1.433 . S
C3379 N3382 1.384 . S
C3380 H3371 0.929 . S
C3380 C3372 1.378 . S
C3380 C3375 1.350 . S
C3381 H3368 0.929 . S
C3381 C3373 1.433 . S
C3381 N3383 1.384 . S
N3382 C3378 1.427 . S
N3382 C3379 1.384 . S
N3383 C3375 1.427 . S
N3383 C3381 1.384 . S
C1447 C9 1.711 . S
C1451 C99 1.786 . S
C1465 C19 1.789 . S
C1469 C49 1.717 1_545 S
C1483 C89 1.708 1_655 S
C1487 C59 1.789 . S
C1501 C129 1.785 . S
C1505 C179 1.862 . S
C1519 C219 1.861 . S
C1523 C169 1.798 1_565 S
C1537 C209 1.793 1_455 S
C1541 C139 1.857 . S
C1555 C258 1.708 . S
C1559 C330 1.790 . S
C1573 C298 1.714 1_565 S
C1577 C250 1.790 . S
C1591 C338 1.709 1_455 S
C1595 C290 1.791 . S
C1609 C378 1.786 . S
C1613 C410 1.861 . S
C1627 C450 1.857 . S
C1631 C418 1.796 1_545 S
C1645 C370 1.863 . S
C1649 C458 1.783 1_655 S
C1663 C579 1.848 . S
C1667 C489 1.787 . S
C1681 C529 1.776 . S
C1685 C499 1.856 . S
C1699 C539 1.851 . S
C1703 C569 1.786 . S
C1717 C609 1.815 . S
C1721 C659 1.882 . S
C1735 C699 1.877 . S
C1739 C649 1.816 . S
C1753 C619 1.880 . S
C1757 C689 1.803 . S
C1771 C738 1.757 . S
C1775 C810 1.817 . S
C1789 C778 1.741 . S
C1793 C730 1.823 . S
C1807 C770 1.823 . S
C1811 C818 1.752 . S
C1825 C890 1.709 . S
C1829 C858 1.625 1_554 S
C1843 C898 1.624 1_554 S
C1847 C930 1.712 . S
C1861 C850 1.709 . S
C1865 C938 1.625 1_554 S
C1879 C969 1.755 . S
C1883 C1059 1.816 . S
C1897 C1009 1.751 . S
C1901 C979 1.815 . S
C1915 C1049 1.749 . S
C1919 C1019 1.816 . S
C1933 C1089 1.624 1_556 S
C1937 C1139 1.710 . S
C1951 C1129 1.625 1_556 S
C1955 C1179 1.708 . S
C1969 C1169 1.632 1_556 S
C1973 C1099 1.717 . S
C1987 C1218 1.772 . S
C1991 C1290 1.854 . S
C2005 C1258 1.775 . S
C2009 C1210 1.856 . S
C2023 C1250 1.848 . S
C2027 C1298 1.787 . S
C2041 C1338 1.818 . S
C2045 C1370 1.879 . S
C2059 C1378 1.804 . S
C2063 C1410 1.884 . S
C2077 C1330 1.876 . S
C2081 C1418 1.816 . S
C2095 C10 1.784 . S
C2099 C809 1.779 . S
C2113 C729 1.776 . S
C2117 C50 1.784 . S
C2131 C90 1.787 . S
C2135 C769 1.782 . S
C2149 C130 1.691 . S
C2153 C1369 1.666 . S
C2167 C1409 1.675 . S
C2171 C170 1.684 . S
C2185 C210 1.687 . S
C2189 C1329 1.665 . S
C2203 C1058 1.782 . S
C2207 C259 1.793 . S
C2221 C299 1.789 . S
C2225 C978 1.772 . S
C2239 C339 1.788 . S
C2243 C1018 1.782 . S
C2257 C658 1.675 . S
C2261 C379 1.693 . S
C2275 C698 1.672 . S
C2279 C419 1.682 . S
C2293 C618 1.669 . S
C2297 C459 1.683 . S
C2311 C490 1.742 . S
C2315 C1289 1.729 . S
C2329 C530 1.740 . S
C2333 C1209 1.730 . S
C2347 C1249 1.718 . S
C2351 C570 1.736 . S
C2365 C409 1.708 . S
C2369 C610 1.734 . S
C2383 C449 1.718 . S
C2387 C650 1.727 . S
C2401 C369 1.707 . S
C2405 C690 1.724 . S
C2419 C98 1.779 . S
C2423 C739 1.784 . S
C2437 C779 1.777 . S
C2441 C18 1.775 . S
C2455 C819 1.784 . S
C2459 C58 1.778 . S
C2473 C1138 1.726 . S
C2477 C859 1.748 . S
C2491 C1178 1.725 . S
C2495 C899 1.747 . S
C2509 C939 1.755 . S
C2513 C1098 1.734 1_554 S
C2527 C329 1.779 . S
C2531 C970 1.784 . S
C2545 C249 1.768 . S
C2549 C1010 1.784 . S
C2563 C289 1.778 . S
C2567 C1050 1.781 . S
C2581 C1090 1.758 . S
C2585 C889 1.722 . S
C2599 C929 1.731 1_556 S
C2603 C1130 1.758 . S
C2617 C1170 1.750 . S
C2621 C849 1.728 . S
C2635 C1219 1.739 . S
C2639 C578 1.718 . S
C2653 C1259 1.740 . S
C2657 C498 1.718 . S
C2671 C1299 1.733 . S
C2675 C538 1.726 . S
C2689 C1339 1.724 . S
C2693 C178 1.708 . S
C2707 C218 1.711 . S
C2711 C1379 1.733 . S
C2725 C138 1.710 . S
C2729 C1419 1.746 . S
C2743 C1166 2.285 . S
C2747 C6 2.276 . S
C2761 C1086 2.291 . S
C2765 C46 2.273 . S
C2779 C86 2.291 . S
C2783 C1126 2.269 . S
C2797 C526 2.524 . S
C2801 C126 2.521 . S
C2815 C166 2.524 . S
C2819 C566 2.529 . S
C2833 C206 2.520 . S
C2837 C486 2.524 . S
C2851 C255 2.292 . S
C2855 C935 2.269 . S
C2869 C295 2.293 . S
C2873 C855 2.277 . S
C2887 C335 2.295 . S
C2891 C895 2.275 . S
C2905 C1255 2.529 . S
C2909 C375 2.527 . S
C2923 C1295 2.522 . S
C2927 C415 2.523 . S
C2941 C1215 2.526 . S
C2945 C455 2.528 . S
C2959 C606 2.581 . S
C2963 C1006 2.579 . S
C2977 C646 2.579 . S
C2981 C1046 2.584 . S
C2995 C686 2.575 . S
C2999 C966 2.580 . S
C3013 C735 2.580 . S
C3017 C1415 2.575 . S
C3031 C1335 2.581 . S
C3035 C775 2.584 . S
C3049 C815 2.578 . S
C3053 C1375 2.576 . S
C3067 C175 1.153 . S
C3071 C15 1.158 . S
C3085 C215 1.154 . S
C3089 C55 1.157 . S
C3103 C135 1.152 . S
C3107 C95 1.159 . S
C3121 C246 1.158 . S
C3125 C406 1.152 . S
C3139 C446 1.152 . S
C3143 C286 1.158 . S
C3157 C326 1.156 . S
C3161 C366 1.155 . S
C3175 C655 1.240 . S
C3179 C495 1.238 . S
C3193 C695 1.239 . S
C3197 C535 1.242 . S
C3211 C615 1.238 . S
C3215 C575 1.242 . S
C3229 C886 1.496 . S
C3233 C726 1.527 . S
C3247 C766 1.513 . S
C3251 C926 1.514 . S
C3265 C806 1.510 . S
C3269 C846 1.518 . S
C3283 C975 1.509 . S
C3287 C1135 1.518 . S
C3301 C1175 1.496 . S
C3305 C1015 1.526 . S
C3319 C1055 1.512 . S
C3323 C1095 1.515 . S
C3337 C1206 1.242 . S
C3341 C1366 1.238 . S
C3355 C1406 1.237 . S
C3359 C1246 1.243 . S
C3373 C1286 1.242 . S
C3377 C1326 1.237 . S
