# Generated by pormake.
# Topology wjv, (5)-cn, num edge types: 1
# Building blocks:
#     Node 0, Type 0, BuildingBlock: XOMCOT_clean_sbu_0, # of connection points: 5
#     Node 1, Type 0, BuildingBlock: XOMCOT_clean_sbu_0, # of connection points: 5
#     Node 2, Type 0, BuildingBlock: XOMCOT_clean_sbu_0, # of connection points: 5
#     Node 3, Type 0, BuildingBlock: XOMCOT_clean_sbu_0, # of connection points: 5
#     Node 4, Type 0, BuildingBlock: XOMCOT_clean_sbu_0, # of connection points: 5
#     Node 5, Type 0, BuildingBlock: XOMCOT_clean_sbu_0, # of connection points: 5
#     Node 6, Type 0, BuildingBlock: XOMCOT_clean_sbu_0, # of connection points: 5
#     Node 7, Type 0, BuildingBlock: XOMCOT_clean_sbu_0, # of connection points: 5
#     Node 8, Type 0, BuildingBlock: XOMCOT_clean_sbu_0, # of connection points: 5
#     Node 9, Type 0, BuildingBlock: XOMCOT_clean_sbu_0, # of connection points: 5
#     Node 10, Type 0, BuildingBlock: XOMCOT_clean_sbu_0, # of connection points: 5
#     Node 11, Type 0, BuildingBlock: XOMCOT_clean_sbu_0, # of connection points: 5
#     Edge 12, Type (0, 0), BuildingBlock: KIFKEQ_clean_linker_1, # of connection points: 2
#     Edge 13, Type (0, 0), BuildingBlock: KIFKEQ_clean_linker_1, # of connection points: 2
#     Edge 14, Type (0, 0), BuildingBlock: KIFKEQ_clean_linker_1, # of connection points: 2
#     Edge 15, Type (0, 0), BuildingBlock: KIFKEQ_clean_linker_1, # of connection points: 2
#     Edge 16, Type (0, 0), BuildingBlock: KIFKEQ_clean_linker_1, # of connection points: 2
#     Edge 17, Type (0, 0), BuildingBlock: KIFKEQ_clean_linker_1, # of connection points: 2
#     Edge 18, Type (0, 0), BuildingBlock: KIFKEQ_clean_linker_1, # of connection points: 2
#     Edge 19, Type (0, 0), BuildingBlock: KIFKEQ_clean_linker_1, # of connection points: 2
#     Edge 20, Type (0, 0), BuildingBlock: KIFKEQ_clean_linker_1, # of connection points: 2
#     Edge 21, Type (0, 0), BuildingBlock: KIFKEQ_clean_linker_1, # of connection points: 2
#     Edge 22, Type (0, 0), BuildingBlock: KIFKEQ_clean_linker_1, # of connection points: 2
#     Edge 23, Type (0, 0), BuildingBlock: KIFKEQ_clean_linker_1, # of connection points: 2
#     Edge 24, Type (0, 0), BuildingBlock: KIFKEQ_clean_linker_1, # of connection points: 2
#     Edge 25, Type (0, 0), BuildingBlock: KIFKEQ_clean_linker_1, # of connection points: 2
#     Edge 26, Type (0, 0), BuildingBlock: KIFKEQ_clean_linker_1, # of connection points: 2
#     Edge 27, Type (0, 0), BuildingBlock: KIFKEQ_clean_linker_1, # of connection points: 2
#     Edge 28, Type (0, 0), BuildingBlock: KIFKEQ_clean_linker_1, # of connection points: 2
#     Edge 29, Type (0, 0), BuildingBlock: KIFKEQ_clean_linker_1, # of connection points: 2
#     Edge 30, Type (0, 0), BuildingBlock: KIFKEQ_clean_linker_1, # of connection points: 2
#     Edge 31, Type (0, 0), BuildingBlock: KIFKEQ_clean_linker_1, # of connection points: 2
#     Edge 32, Type (0, 0), BuildingBlock: KIFKEQ_clean_linker_1, # of connection points: 2
#     Edge 33, Type (0, 0), BuildingBlock: KIFKEQ_clean_linker_1, # of connection points: 2
#     Edge 34, Type (0, 0), BuildingBlock: KIFKEQ_clean_linker_1, # of connection points: 2
#     Edge 35, Type (0, 0), BuildingBlock: KIFKEQ_clean_linker_1, # of connection points: 2
#     Edge 36, Type (0, 0), BuildingBlock: KIFKEQ_clean_linker_1, # of connection points: 2
#     Edge 37, Type (0, 0), BuildingBlock: KIFKEQ_clean_linker_1, # of connection points: 2
#     Edge 38, Type (0, 0), BuildingBlock: KIFKEQ_clean_linker_1, # of connection points: 2
#     Edge 39, Type (0, 0), BuildingBlock: KIFKEQ_clean_linker_1, # of connection points: 2
#     Edge 40, Type (0, 0), BuildingBlock: KIFKEQ_clean_linker_1, # of connection points: 2
#     Edge 41, Type (0, 0), BuildingBlock: KIFKEQ_clean_linker_1, # of connection points: 2
# Relax obj value: 0.158
# Max RMSD: 0.187
# Mean RMSD: 0.187
data_MOF--net-wjv--node1-XOMCOT_clean_sbu_0--edge1-KIFKEQ_clean_linker_1
_symmetry_space_group_name_H-M    P1
_symmetry_Int_Tables_number       1
_symmetry_cell_setting            triclinic
loop_
_symmetry_equiv_pos_as_xyz
'x, y, z'
_cell_length_a     37.73176
_cell_length_b     37.759651
_cell_length_c     51.154537
_cell_angle_alpha  89.869398
_cell_angle_beta   89.9656
_cell_angle_gamma 120.03898
loop_
_atom_site_label
_atom_site_type_symbol
_atom_site_fract_x
_atom_site_fract_y
_atom_site_fract_z
_atom_type_partial_charge
Co0 Co 0.20952 0.29399 0.18912 0.0
C1 C 0.18975 0.29052 0.13248 0.0
C2 C 0.17566 0.23211 0.14836 0.0
C3 C 0.16313 0.22677 0.12278 0.0
N4 N 0.19238 0.27195 0.15443 0.0
N5 N 0.17178 0.26337 0.11283 0.0
H6 H 0.19912 0.32266 0.13128 0.0
H7 H 0.17152 0.20829 0.16188 0.0
C8 C 0.26521 0.26073 0.20265 0.0
O9 O 0.29328 0.29677 0.21126 0.0
N10 N 0.22511 0.3143 0.22479 0.0
C11 C 0.22905 0.34872 0.23548 0.0
C12 C 0.23756 0.3494 0.26172 0.0
C13 C 0.22862 0.29345 0.24523 0.0
N14 N 0.23758 0.31464 0.26788 0.0
C15 C 0.27701 0.37613 0.18004 0.0
C16 C 0.32571 0.35198 0.15416 0.0
C17 C 0.34349 0.39245 0.163 0.0
C18 C 0.31787 0.40494 0.1747 0.0
C19 C 0.28466 0.32434 0.15979 0.0
N20 N 0.26211 0.33573 0.17485 0.0
H21 H 0.25777 0.38626 0.18884 0.0
H22 H 0.27189 0.29295 0.15359 0.0
H23 H 0.2243 0.37117 0.22546 0.0
H24 H 0.22311 0.26259 0.24378 0.0
O25 O 0.17786 0.32141 0.18565 0.0
O26 O 0.15465 0.25874 0.20145 0.0
O27 O 0.23089 0.25515 0.19427 0.0
C28 C 0.14729 0.28774 0.19495 0.0
H29 H 0.14814 0.19797 0.1124 0.0
H30 H 0.24296 0.37368 0.27514 0.0
H31 H 0.3438 0.34092 0.14447 0.0
H32 H 0.32958 0.43646 0.18045 0.0
Co33 Co 0.91168 0.20964 0.52226 0.0
C34 C 0.89609 0.19655 0.46499 0.0
C35 C 0.94078 0.18146 0.47878 0.0
C36 C 0.93705 0.17578 0.45224 0.0
N37 N 0.91568 0.19506 0.4867 0.0
N38 N 0.90907 0.18528 0.44362 0.0
H39 H 0.87361 0.20637 0.46475 0.0
H40 H 0.96049 0.17604 0.49147 0.0
C41 C 0.00139 0.26667 0.53404 0.0
O42 O 0.99364 0.29303 0.54571 0.0
N43 N 0.90814 0.22269 0.55872 0.0
C44 C 0.87751 0.22475 0.57091 0.0
C45 C 0.88643 0.23171 0.59715 0.0
C46 C 0.93377 0.22574 0.57817 0.0
N47 N 0.9221 0.23261 0.60173 0.0
C48 C 0.8949 0.27655 0.5171 0.0
C49 C 0.96597 0.32746 0.48991 0.0
C50 C 0.94312 0.3441 0.50034 0.0
C51 C 0.90591 0.31743 0.51286 0.0
C52 C 0.95363 0.28644 0.49449 0.0
N53 N 0.92056 0.26258 0.51002 0.0
H54 H 0.86617 0.25652 0.52648 0.0
H55 H 0.97234 0.27462 0.48683 0.0
H56 H 0.84954 0.21971 0.56188 0.0
H57 H 0.95968 0.22139 0.57531 0.0
O58 O 0.85246 0.17666 0.51996 0.0
O59 O 0.89411 0.15442 0.53291 0.0
O60 O 0.97247 0.23264 0.52547 0.0
C61 C 0.85705 0.14629 0.52777 0.0
H62 H 0.9532 0.16491 0.44017 0.0
H63 H 0.8677 0.23544 0.61165 0.0
H64 H 0.99446 0.34632 0.47962 0.0
H65 H 0.88594 0.32823 0.51991 0.0
Co66 Co 0.6979 0.91354 0.85673 0.0
C67 C 0.70139 0.8951 0.80049 0.0
C68 C 0.75992 0.93945 0.8161 0.0
C69 C 0.76537 0.93134 0.79078 0.0
N70 N 0.71994 0.91691 0.82218 0.0
N71 N 0.72871 0.90334 0.78099 0.0
H72 H 0.66912 0.87266 0.79937 0.0
H73 H 0.78373 0.9594 0.82947 0.0
C74 C 0.73261 0.00329 0.86848 0.0
O75 O 0.69676 0.99639 0.87688 0.0
N76 N 0.67786 0.91047 0.8923 0.0
C77 C 0.64349 0.88064 0.90364 0.0
C78 C 0.64373 0.88942 0.9298 0.0
C79 C 0.69954 0.93536 0.91224 0.0
N80 N 0.67902 0.92412 0.93519 0.0
C81 C 0.61603 0.90046 0.84767 0.0
C82 C 0.64186 0.9717 0.81936 0.0
C83 C 0.60124 0.95024 0.82815 0.0
C84 C 0.58786 0.91301 0.84133 0.0
C85 C 0.66878 0.95787 0.82596 0.0
N86 N 0.6566 0.92465 0.84194 0.0
H87 H 0.60522 0.87178 0.85763 0.0
H88 H 0.70022 0.97547 0.8195 0.0
H89 H 0.62057 0.85317 0.89414 0.0
H90 H 0.73065 0.96019 0.91025 0.0
O91 O 0.66997 0.85422 0.85434 0.0
O92 O 0.73275 0.89399 0.86974 0.0
O93 O 0.73744 0.97378 0.86085 0.0
C94 C 0.70361 0.85748 0.86377 0.0
H95 H 0.79428 0.94473 0.78043 0.0
H96 H 0.61984 0.87117 0.94372 0.0
H97 H 0.65312 -0.00032 0.80814 0.0
H98 H 0.55639 0.89467 0.84776 0.0
Co99 Co 0.77622 0.69753 0.18948 0.0
C100 C 0.7921 0.69378 0.1323 0.0
C101 C 0.78111 0.74275 0.1413 0.0
C102 C 0.78931 0.74426 0.11507 0.0
N103 N 0.78082 0.70991 0.15209 0.0
N104 N 0.79615 0.71343 0.1094 0.0
H105 H 0.79914 0.66952 0.13465 0.0
H106 H 0.77792 0.76571 0.15188 0.0
C107 C 0.713 0.72236 0.18177 0.0
O108 O 0.69703 0.69526 0.16291 0.0
N109 N 0.77354 0.68731 0.22669 0.0
C110 C 0.77128 0.65444 0.23859 0.0
C111 C 0.76552 0.65694 0.26498 0.0
C112 C 0.7698 0.70966 0.24589 0.0
N113 N 0.76437 0.69161 0.2696 0.0
C114 C 0.72003 0.61742 0.16631 0.0
C115 C 0.65521 0.60284 0.19855 0.0
C116 C 0.64825 0.57593 0.17793 0.0
C117 C 0.68134 0.58301 0.16189 0.0
C118 C 0.69373 0.63701 0.20185 0.0
N119 N 0.72533 0.64522 0.18518 0.0
H120 H 0.74528 0.6215 0.15446 0.0
H121 H 0.6975 0.65803 0.21731 0.0
H122 H 0.77201 0.62958 0.22862 0.0
H123 H 0.77019 0.73808 0.24238 0.0
O124 O 0.81767 0.68127 0.18612 0.0
O125 O 0.82955 0.74402 0.19401 0.0
O126 O 0.74397 0.7264 0.19451 0.0
C127 C 0.84419 0.71973 0.19054 0.0
H128 H 0.79233 0.76763 0.10147 0.0
H129 H 0.76077 0.63393 0.27936 0.0
H130 H 0.63055 0.59856 0.21143 0.0
H131 H 0.67733 0.5622 0.14615 0.0
Co132 Co 0.07739 0.78058 0.52126 0.0
C133 C 0.09699 0.7917 0.46386 0.0
C134 C 0.03731 0.78217 0.47226 0.0
C135 C 0.04441 0.7894 0.44597 0.0
N136 N 0.06944 0.78168 0.48354 0.0
N137 N 0.08193 0.79538 0.44065 0.0
H138 H 0.12816 0.79848 0.46657 0.0
H139 H 0.01144 0.78034 0.48253 0.0
C140 C 0.98887 0.71801 0.51482 0.0
O141 O -0.00042 0.70006 0.49702 0.0
N142 N 0.08503 0.78155 0.55879 0.0
C143 C 0.11826 0.78606 0.57156 0.0
C144 C 0.11044 0.78297 0.59808 0.0
C145 C 0.05756 0.77594 0.57762 0.0
N146 N 0.07216 0.77627 0.60176 0.0
C147 C 0.09856 0.72094 0.50107 0.0
C148 C 0.04771 0.65949 0.53527 0.0
C149 C 0.06598 0.64992 0.51479 0.0
C150 C 0.09251 0.68139 0.49786 0.0
C151 C 0.05382 0.69888 0.53738 0.0
N152 N 0.07732 0.72871 0.51964 0.0
H153 H 0.11981 0.74482 0.48836 0.0
H154 H 0.03739 0.70454 0.55252 0.0
H155 H 0.14582 0.79019 0.56224 0.0
H156 H 0.02722 0.77097 0.57382 0.0
O157 O 0.13543 0.82009 0.5169 0.0
O158 O 0.08626 0.83517 0.52284 0.0
O159 O 0.01615 0.75004 0.52651 0.0
C160 C 0.12493 0.84805 0.51913 0.0
H161 H 0.0246 0.79283 0.43215 0.0
H162 H 0.13067 0.78389 0.61339 0.0
H163 H 0.02701 0.63616 0.54881 0.0
H164 H 0.10814 0.6754 0.48222 0.0
Co165 Co 0.29934 0.08306 0.85607 0.0
C166 C 0.29444 0.1004 0.79965 0.0
C167 C 0.23833 0.05056 0.81478 0.0
C168 C 0.23207 0.05738 0.7893 0.0
N169 N 0.27732 0.07739 0.82127 0.0
N170 N 0.26718 0.08877 0.7798 0.0
H171 H 0.3255 0.12587 0.79877 0.0
H172 H 0.21562 0.02826 0.82791 0.0
C173 C 0.27367 0.99441 0.86711 0.0
O174 O 0.31093 0.00339 0.87357 0.0
N175 N 0.31919 0.08808 0.89185 0.0
C176 C 0.34955 0.12124 0.90385 0.0
C177 C 0.34893 0.11306 0.93021 0.0
C178 C 0.29945 0.06121 0.91145 0.0
N179 N 0.31742 0.07512 0.93489 0.0
C180 C 0.38459 0.10605 0.84874 0.0
C181 C 0.36824 0.03837 0.81913 0.0
C182 C 0.40803 0.06296 0.82886 0.0
C183 C 0.41638 0.09844 0.84271 0.0
C184 C 0.3376 0.04743 0.82537 0.0
N185 N 0.34523 0.0789 0.84186 0.0
H186 H 0.39164 0.13332 0.85937 0.0
H187 H 0.30689 0.02715 0.81844 0.0
H188 H 0.36947 0.15033 0.8946 0.0
H189 H 0.27076 0.03309 0.9091 0.0
O190 O 0.32054 0.14193 0.85402 0.0
O191 O 0.25915 0.09561 0.86866 0.0
O192 O 0.26542 0.02203 0.86031 0.0
C193 C 0.28497 0.13369 0.86337 0.0
H194 H 0.20364 0.04072 0.77862 0.0
H195 H 0.36956 0.1338 0.94482 0.0
H196 H 0.35996 0.01094 0.80806 0.0
H197 H 0.44703 0.11976 0.8494 0.0
Co198 Co 0.69712 0.78394 0.51996 0.0
C199 C 0.70004 0.80432 0.57649 0.0
C200 C 0.75802 0.81596 0.5612 0.0
C201 C 0.76347 0.82894 0.58663 0.0
N202 N 0.71839 0.80047 0.55483 0.0
N203 N 0.72719 0.82192 0.59621 0.0
H204 H 0.66818 0.79618 0.5774 0.0
H205 H 0.78174 0.81912 0.54795 0.0
C206 C 0.73124 0.72889 0.50604 0.0
O207 O 0.69576 0.70094 0.4966 0.0
N208 N 0.67801 0.7689 0.48413 0.0
C209 C 0.64259 0.76157 0.47296 0.0
C210 C 0.64399 0.75456 0.44664 0.0
C211 C 0.70115 0.76864 0.46404 0.0
N212 N 0.68086 0.75873 0.44104 0.0
C213 C 0.61408 0.71881 0.52997 0.0
C214 C 0.63574 0.66677 0.554 0.0
C215 C 0.59465 0.6513 0.54691 0.0
C216 C 0.58375 0.67868 0.53593 0.0
C217 C 0.66487 0.7072 0.5479 0.0
N218 N 0.65443 0.73141 0.53381 0.0
H219 H 0.60507 0.73958 0.52214 0.0
H220 H 0.6963 0.71837 0.55352 0.0
H221 H 0.6179 0.76284 0.48266 0.0
H222 H 0.73283 0.77686 0.46613 0.0
O223 O 0.67027 0.81627 0.52286 0.0
O224 O 0.7333 0.83879 0.50794 0.0
O225 O 0.7358 0.76233 0.51526 0.0
C226 C 0.70446 0.84662 0.51395 0.0
H227 H 0.79218 0.84314 0.59716 0.0
H228 H 0.61961 0.74712 0.4328 0.0
H229 H 0.64589 0.64751 0.56313 0.0
H230 H 0.55212 0.66913 0.53165 0.0
Co231 Co 0.91537 0.70702 0.85377 0.0
C232 C 0.89672 0.70303 0.91045 0.0
C233 C 0.94775 0.7612 0.89926 0.0
C234 C 0.94132 0.76177 0.92567 0.0
N235 N 0.92009 0.72427 0.88979 0.0
N236 N 0.90927 0.72527 0.93267 0.0
H237 H 0.87127 0.67202 0.90925 0.0
H238 H 0.97075 0.78623 0.88775 0.0
C239 C 0.00531 0.74065 0.84192 0.0
O240 O -0.00152 0.70501 0.83331 0.0
N241 N 0.91064 0.6913 0.81696 0.0
C242 C 0.87712 0.66202 0.80455 0.0
C243 C 0.88485 0.66429 0.77807 0.0
C244 C 0.93753 0.71193 0.79748 0.0
N245 N 0.923 0.69555 0.77376 0.0
C246 C 0.9013 0.62408 0.85547 0.0
C247 C 0.96877 0.64253 0.88607 0.0
C248 C 0.94772 0.60395 0.87423 0.0
C249 C 0.91239 0.59429 0.85974 0.0
C250 C 0.95647 0.67122 0.88141 0.0
N251 N 0.92498 0.66288 0.86467 0.0
H252 H 0.87419 0.61604 0.84428 0.0
H253 H 0.97434 0.70131 0.88984 0.0
H254 H 0.84831 0.64118 0.81384 0.0
H255 H 0.96628 0.7399 0.80009 0.0
O256 O 0.85616 0.68012 0.85713 0.0
O257 O 0.89688 0.74448 0.84454 0.0
O258 O 0.97582 0.74568 0.84943 0.0
C259 C 0.86011 0.71509 0.84994 0.0
H260 H 0.95817 0.78751 0.93862 0.0
H261 H 0.86395 0.64471 0.76314 0.0
H262 H 0.99601 0.65156 0.89761 0.0
H263 H 0.89395 0.56425 0.85123 0.0
Co264 Co 0.21975 0.91902 0.18637 0.0
C265 C 0.20423 0.89939 0.24356 0.0
C266 C 0.2136 0.95874 0.23432 0.0
C267 C 0.20495 0.95171 0.26051 0.0
N268 N 0.21508 0.92677 0.22372 0.0
N269 N 0.19914 0.9144 0.26636 0.0
H270 H 0.19796 0.86837 0.24124 0.0
H271 H 0.21623 0.98462 0.22359 0.0
C272 C 0.28252 0.00701 0.19434 0.0
O273 O 0.29823 0.9957 0.21331 0.0
N274 N 0.22246 0.9113 0.14917 0.0
C275 C 0.22078 0.87858 0.13754 0.0
C276 C 0.22705 0.88622 0.11111 0.0
C277 C 0.22929 0.93824 0.12972 0.0
N278 N 0.23275 0.92393 0.10619 0.0
C279 C 0.2758 0.89467 0.20944 0.0
C280 C 0.34078 0.94558 0.17745 0.0
C281 C 0.34763 0.92525 0.19794 0.0
C282 C 0.31448 0.89891 0.21386 0.0
C283 C 0.30229 0.94129 0.17417 0.0
N284 N 0.27062 0.9176 0.19074 0.0
H285 H 0.25048 0.87313 0.2211 0.0
H286 H 0.29863 0.95883 0.15882 0.0
H287 H 0.21642 0.85151 0.14767 0.0
H288 H 0.23343 0.96836 0.13292 0.0
O289 O 0.17821 0.86131 0.18993 0.0
O290 O 0.16643 0.9122 0.18173 0.0
O291 O 0.25195 0.98018 0.1813 0.0
C292 C 0.15173 0.87327 0.18537 0.0
H293 H 0.20084 0.97155 0.27388 0.0
H294 H 0.22781 0.86563 0.09676 0.0
H295 H 0.36551 0.96619 0.16466 0.0
H296 H 0.31843 0.88179 0.22949 0.0
Co297 Co 0.2979 0.21499 0.51936 0.0
C298 C 0.29339 0.19037 0.57531 0.0
C299 C 0.23561 0.17895 0.55988 0.0
C300 C 0.22965 0.16469 0.5851 0.0
N301 N 0.27543 0.19504 0.55373 0.0
N302 N 0.26584 0.17169 0.59479 0.0
H303 H 0.32542 0.19919 0.57643 0.0
H304 H 0.21226 0.17683 0.54666 0.0
C305 C 0.26669 0.27417 0.51045 0.0
O306 O 0.30309 0.30426 0.50384 0.0
N307 N 0.31827 0.23339 0.48396 0.0
C308 C 0.35081 0.23468 0.47205 0.0
C309 C 0.35078 0.24403 0.44601 0.0
C310 C 0.29779 0.23969 0.46447 0.0
N311 N 0.31734 0.24725 0.44118 0.0
C312 C 0.38154 0.28087 0.52811 0.0
C313 C 0.35944 0.32677 0.55891 0.0
C314 C 0.39943 0.34532 0.54899 0.0
C315 C 0.41098 0.32111 0.53457 0.0
C316 C 0.33117 0.28655 0.55203 0.0
N317 N 0.34147 0.26537 0.53491 0.0
H318 H 0.3909 0.26283 0.51701 0.0
H319 H 0.30007 0.27349 0.55902 0.0
H320 H 0.37194 0.22694 0.48104 0.0
H321 H 0.26778 0.23617 0.4669 0.0
O322 O 0.322 0.17968 0.51997 0.0
O323 O 0.26016 0.16257 0.50525 0.0
O324 O 0.26115 0.23896 0.51652 0.0
C325 C 0.28724 0.15183 0.50999 0.0
H326 H 0.20076 0.15004 0.59551 0.0
H327 H 0.37329 0.24708 0.43174 0.0
H328 H 0.34957 0.34371 0.57104 0.0
H329 H 0.44188 0.33369 0.52717 0.0
Co330 Co 0.07939 0.30008 0.85264 0.0
C331 C 0.09748 0.30103 0.90996 0.0
C332 C 0.03974 0.25009 0.8988 0.0
C333 C 0.04706 0.24468 0.92428 0.0
N334 N 0.07062 0.28604 0.88977 0.0
N335 N 0.08334 0.2766 0.93129 0.0
H336 H 0.12827 0.32674 0.90848 0.0
H337 H 0.01506 0.22728 0.88711 0.0
C338 C 0.9908 0.27196 0.86013 0.0
O339 O 0.00139 0.29835 0.87938 0.0
N340 N 0.08778 0.31143 0.81557 0.0
C341 C 0.11754 0.34531 0.80396 0.0
C342 C 0.10965 0.34278 0.77751 0.0
C343 C 0.06269 0.28847 0.79614 0.0
N344 N 0.07494 0.30706 0.77255 0.0
C345 C 0.09886 0.3782 0.87704 0.0
C346 C 0.0496 0.39222 0.84354 0.0
C347 C 0.06793 0.41872 0.86457 0.0
C348 C 0.09326 0.41183 0.88136 0.0
C349 C 0.05511 0.35877 0.84036 0.0
N350 N 0.07835 0.35103 0.85743 0.0
H351 H 0.11937 0.37414 0.88957 0.0
H352 H 0.03902 0.33798 0.82455 0.0
H353 H 0.14219 0.37079 0.81415 0.0
H354 H 0.03551 0.25919 0.79949 0.0
O355 O 0.13751 0.31854 0.85671 0.0
O356 O 0.08872 0.25516 0.84789 0.0
O357 O 0.01829 0.26941 0.84698 0.0
C358 C 0.12722 0.28051 0.85229 0.0
H359 H 0.02828 0.2181 0.93631 0.0
H360 H 0.12738 0.36643 0.76334 0.0
H361 H 0.02969 0.39635 0.83016 0.0
H362 H 0.10861 0.43225 0.89756 0.0
Co363 Co 0.78627 0.08223 0.18587 0.0
C364 C 0.80732 0.10083 0.24198 0.0
C365 C 0.8179 0.05336 0.22782 0.0
C366 C 0.83063 0.06144 0.25333 0.0
N367 N 0.80321 0.0779 0.22074 0.0
N368 N 0.82423 0.09142 0.2622 0.0
H369 H 0.79981 0.12499 0.24223 0.0
H370 H 0.82055 0.03205 0.21504 0.0
C371 C 0.73019 0.99312 0.17312 0.0
O372 O 0.70222 0.00116 0.16434 0.0
N373 N 0.77083 0.08642 0.15006 0.0
C374 C 0.76706 0.11678 0.1389 0.0
C375 C 0.75847 0.10839 0.11272 0.0
C376 C 0.76717 0.06158 0.12998 0.0
N377 N 0.75824 0.07337 0.10712 0.0
C378 C 0.71878 0.09711 0.19422 0.0
C379 C 0.67032 0.025 0.2211 0.0
C380 C 0.65247 0.04745 0.21185 0.0
C381 C 0.67797 0.08522 0.1996 0.0
C382 C 0.71129 0.03824 0.2154 0.0
N383 N 0.73373 0.07178 0.1999 0.0
H384 H 0.73792 0.12623 0.18502 0.0
H385 H 0.72408 0.01976 0.22194 0.0
H386 H 0.77195 0.14423 0.14856 0.0
H387 H 0.77256 0.03617 0.13181 0.0
O388 O 0.81808 0.14138 0.18875 0.0
O389 O 0.84115 0.10148 0.17372 0.0
O390 O 0.76463 0.02187 0.18132 0.0
C391 C 0.84861 0.138 0.17975 0.0
H392 H 0.84425 0.04679 0.26436 0.0
H393 H 0.75312 0.12699 0.09896 0.0
H394 H 0.65234 0.99612 0.23118 0.0
H395 H 0.66621 0.10485 0.19349 0.0
H396 H 0.25951 0.26929 0.43277 0.0
H397 H 0.34538 0.2443 0.39243 0.0
H398 H 0.23753 0.28262 0.39121 0.0
H399 H 0.32521 0.26023 0.35113 0.0
H400 H 0.25653 0.25504 0.27794 0.0
H401 H 0.27284 0.23667 0.3198 0.0
H402 H 0.25815 0.33103 0.35719 0.0
H403 H 0.2392 0.34769 0.31561 0.0
C404 C 0.27378 0.26649 0.41517 0.0
C405 C 0.30428 0.2554 0.41631 0.0
C406 C 0.26147 0.27477 0.3912 0.0
C407 C 0.27954 0.27266 0.36763 0.0
C408 C 0.31003 0.26161 0.36874 0.0
C409 C 0.32208 0.25296 0.39267 0.0
C410 C 0.25596 0.27151 0.29504 0.0
C411 C 0.24632 0.30296 0.29305 0.0
C412 C 0.26601 0.2613 0.31916 0.0
C413 C 0.26718 0.28247 0.34204 0.0
C414 C 0.25715 0.31362 0.34014 0.0
C415 C 0.24673 0.32359 0.31606 0.0
H416 H 0.002 0.25419 0.60913 0.0
H417 H 0.892 0.22898 0.6508 0.0
H418 H 0.03861 0.26852 0.65019 0.0
H419 H 0.9294 0.24596 0.69165 0.0
H420 H 0.99641 0.24526 0.76419 0.0
H421 H 0.96023 0.22442 0.72303 0.0
H422 H 0.06697 0.31852 0.68303 0.0
H423 H 0.10418 0.33778 0.72391 0.0
C424 C 0.98538 0.25145 0.62695 0.0
C425 C 0.94371 0.2402 0.62635 0.0
C426 C 0.00671 0.26034 0.65061 0.0
C427 C 0.98719 0.25868 0.6744 0.0
C428 C 0.94547 0.24709 0.67385 0.0
C429 C 0.92402 0.23783 0.65022 0.0
C430 C 0.01267 0.26128 0.74671 0.0
C431 C 0.05357 0.29355 0.74779 0.0
C432 C 0.99151 0.24955 0.72297 0.0
C433 C 0.01039 0.2699 0.69956 0.0
C434 C 0.0514 0.30172 0.70053 0.0
C435 C 0.07271 0.31321 0.72422 0.0
H436 H 0.64872 0.89381 0.98371 0.0
H437 H 0.73926 0.00283 0.94361 0.0
H438 H 0.66867 0.93023 0.02495 0.0
H439 H 0.76088 0.03831 0.98502 0.0
H440 H 0.75869 0.10433 0.05881 0.0
H441 H 0.73978 0.06782 1.01761 0.0
H442 H 0.72043 0.95819 0.05703 0.0
H443 H 0.73677 0.9939 0.09848 0.0
C444 C 0.67301 0.9254 0.98356 0.0
C445 C 0.69219 0.94511 0.96004 0.0
C446 C 0.68488 0.94625 1.0074 0.0
C447 C 0.71648 0.98735 1.00847 0.0
C448 C 0.73603 0.0069 0.98502 0.0
C449 C 0.72395 0.98619 0.96117 0.0
C450 C 0.75013 0.07239 0.05886 0.0
C451 C 0.74932 0.05232 0.08226 0.0
C452 C 0.73973 0.05147 0.03504 0.0
C453 C 0.72851 0.00991 0.03384 0.0
C454 C 0.7283 0.98998 0.05715 0.0
C455 C 0.73836 0.01079 0.08101 0.0
H456 H 0.73869 0.74685 0.27724 0.0
H457 H 0.76942 0.66575 0.31846 0.0
H458 H 0.72165 0.76643 0.31844 0.0
H459 H 0.74988 0.68339 0.35939 0.0
H460 H 0.74551 0.74694 0.43229 0.0
H461 H 0.76863 0.73489 0.39088 0.0
H462 H 0.67069 0.7411 0.35137 0.0
H463 H 0.64905 0.75585 0.39265 0.0
C464 C 0.74202 0.73318 0.29497 0.0
C465 C 0.75547 0.70447 0.29423 0.0
C466 C 0.73162 0.74407 0.31871 0.0
C467 C 0.73408 0.7264 0.34238 0.0
C468 C 0.74801 0.69812 0.34168 0.0
C469 C 0.75874 0.6875 0.318 0.0
C470 C 0.72921 0.74659 0.41483 0.0
C471 C 0.69526 0.75256 0.41612 0.0
C472 C 0.74222 0.739 0.39097 0.0
C473 C 0.72145 0.73666 0.36765 0.0
C474 C 0.68783 0.74311 0.36882 0.0
C475 C 0.67501 0.75108 0.39268 0.0
H476 H 0.99237 0.721 0.60995 0.0
H477 H 0.10227 0.81047 0.64878 0.0
H478 H 0.95606 0.70215 0.65157 0.0
H479 H 0.06576 0.79355 0.69041 0.0
H480 H 0.00335 0.72465 0.76487 0.0
H481 H 0.03912 0.74505 0.72312 0.0
H482 H 0.92623 0.71901 0.68506 0.0
H483 H 0.89041 0.69657 0.72682 0.0
C484 C 0.0085 0.73719 0.62741 0.0
C485 C 0.05014 0.76714 0.62617 0.0
C486 C 0.98767 0.72655 0.65135 0.0
C487 C 0.00776 0.74615 0.67466 0.0
C488 C 0.04929 0.77694 0.67316 0.0
C489 C 0.07028 0.78695 0.64927 0.0
C490 C 0.98636 0.7235 0.74754 0.0
C491 C 0.94412 0.70895 0.74907 0.0
C492 C 0.00687 0.73544 0.72353 0.0
C493 C 0.98582 0.73391 0.70042 0.0
C494 C 0.94352 0.7199 0.70216 0.0
C495 C 0.92289 0.7072 0.72613 0.0
H496 H 0.27624 0.99316 0.9426 0.0
H497 H 0.32909 0.10848 0.98343 0.0
H498 H 0.25407 0.95674 0.98407 0.0
H499 H 0.30782 0.0719 0.02512 0.0
H500 H 0.22504 0.98946 0.09216 0.0
H501 H 0.24525 0.02674 0.0508 0.0
H502 H 0.28559 0.94511 0.02247 0.0
H503 H 0.26603 0.90823 0.06368 0.0
C504 C 0.28299 0.01079 0.96041 0.0
C505 C 0.30445 0.05381 0.95962 0.0
C506 C 0.27063 0.98987 0.98423 0.0
C507 C 0.27928 0.01138 1.00794 0.0
C508 C 0.3004 0.0544 1.0072 0.0
C509 C 0.31299 0.07539 0.98332 0.0
C510 C 0.23845 0.97955 0.07723 0.0
C511 C 0.24368 0.94556 0.08144 0.0
C512 C 0.25005 0.00099 0.05348 0.0
C513 C 0.26694 0.98885 0.03329 0.0
C514 C 0.27205 0.95488 0.03744 0.0
C515 C 0.26067 0.9336 0.06117 0.0
H516 H 0.08972 0.21673 0.95508 0.0
H517 H 0.12341 0.34345 0.96214 0.0
H518 H 0.11499 0.21779 0.99897 0.0
H519 H 0.14809 0.3446 1.00689 0.0
H520 H 0.21424 0.33015 0.08164 0.0
H521 H 0.19789 0.33775 0.03611 0.0
H522 H 0.08754 0.21981 0.04119 0.0
H523 H 0.1041 0.21228 0.08591 0.0
C524 C 0.10283 0.24493 0.96612 0.0
C525 C 0.1041 0.27981 0.9555 0.0
C526 C 0.11711 0.24556 0.9913 0.0
C527 C 0.13255 0.28098 1.00674 0.0
C528 C 0.13625 0.3168 0.99554 0.0
C529 C 0.12221 0.31623 0.97001 0.0
C530 C 0.18638 0.30618 0.07294 0.0
C531 C 0.16085 0.27026 0.0871 0.0
C532 C 0.17703 0.31047 0.04694 0.0
C533 C 0.14192 0.27894 0.0348 0.0
C534 C 0.11553 0.2441 0.04958 0.0
C535 C 0.12494 0.23978 0.07527 0.0
H536 H 0.78812 0.12596 0.29025 0.0
H537 H 0.88851 0.10185 0.29101 0.0
H538 H 0.80834 0.15698 0.33384 0.0
H539 H 0.90779 0.13128 0.33422 0.0
H540 H 0.95785 0.21202 0.40153 0.0
H541 H 0.93696 0.19646 0.35598 0.0
H542 H 0.80999 0.13489 0.37983 0.0
H543 H 0.83145 0.15191 0.42562 0.0
C544 C 0.81456 0.12752 0.29964 0.0
C545 C 0.83653 0.11117 0.28729 0.0
C546 C 0.82595 0.14496 0.32461 0.0
C547 C 0.85983 0.14684 0.33745 0.0
C548 C 0.88197 0.13102 0.32479 0.0
C549 C 0.87054 0.11353 0.3001 0.0
C550 C 0.92551 0.19591 0.3969 0.0
C551 C 0.89622 0.18266 0.41693 0.0
C552 C 0.91349 0.18681 0.37089 0.0
C553 C 0.87181 0.16357 0.36433 0.0
C554 C 0.84233 0.15288 0.38424 0.0
C555 C 0.8545 0.16253 0.41039 0.0
H556 H 0.78014 0.88711 0.75408 0.0
H557 H 0.66177 0.87832 0.74997 0.0
H558 H 0.77395 0.86558 0.70882 0.0
H559 H 0.65533 0.85621 0.70406 0.0
H560 H 0.65982 0.78195 0.6273 0.0
H561 H 0.65415 0.79824 0.67324 0.0
H562 H 0.77468 0.90494 0.66814 0.0
H563 H 0.78012 0.88898 0.62288 0.0
C564 C 0.7527 0.88047 0.74347 0.0
C565 C 0.72187 0.88532 0.75537 0.0
C566 C 0.7491 0.86805 0.71755 0.0
C567 C 0.71456 0.86008 0.70278 0.0
C568 C 0.68236 0.86233 0.71503 0.0
C569 C 0.68601 0.87491 0.74121 0.0
C570 C 0.68465 0.8092 0.636 0.0
C571 C 0.7208 0.8337 0.62177 0.0
C572 C 0.68144 0.81847 0.6622 0.0
C573 C 0.71438 0.85232 0.67435 0.0
C574 C 0.74925 0.87807 0.65948 0.0
C575 C 0.7524 0.86889 0.63357 0.0
H576 H 0.82877 0.67858 0.94454 0.0
H577 H 0.94887 0.74744 0.97883 0.0
H578 H 0.79782 0.66707 0.98813 0.0
H579 H 0.91817 0.73627 0.02227 0.0
H580 H 0.85107 0.6887 0.09945 0.0
H581 H 0.87634 0.68305 0.05633 0.0
H582 H 0.79382 0.71602 1.01961 0.0
H583 H 0.7687 0.72144 0.06252 0.0
C584 C 0.84852 0.69054 0.96144 0.0
C585 C 0.89117 0.71419 0.95833 0.0
C586 C 0.83086 0.68422 0.98634 0.0
C587 C 0.85558 0.70092 1.00861 0.0
C588 C 0.89832 0.72273 1.00554 0.0
C589 C 0.91589 0.72948 0.98067 0.0
C590 C 0.8379 0.69395 0.0821 0.0
C591 C 0.80817 0.7058 0.08427 0.0
C592 C 0.85249 0.69098 0.05747 0.0
C593 C 0.83709 0.69916 0.03459 0.0
C594 C 0.80602 0.70915 0.03682 0.0
C595 C 0.79192 0.71265 0.06137 0.0
H596 H 0.04685 0.77249 0.39319 0.0
H597 H 0.16313 0.84596 0.43142 0.0
H598 H 0.07906 0.79859 0.35084 0.0
H599 H 0.19583 0.87148 0.38886 0.0
H600 H 0.21872 0.95037 0.31378 0.0
H601 H 0.19356 0.91784 0.35616 0.0
H602 H 0.12755 0.79997 0.31856 0.0
H603 H 0.15191 0.83284 0.27597 0.0
C604 C 0.07944 0.79393 0.39248 0.0
C605 C 0.10234 0.80748 0.41566 0.0
C606 C 0.09801 0.80856 0.36818 0.0
C607 C 0.14001 0.83726 0.36644 0.0
C608 C 0.16331 0.84968 0.38956 0.0
C609 C 0.14469 0.8348 0.41393 0.0
C610 C 0.19887 0.91751 0.31456 0.0
C611 C 0.18696 0.89428 0.29146 0.0
C612 C 0.18487 0.89877 0.3389 0.0
C613 C 0.15845 0.85629 0.34078 0.0
C614 C 0.14757 0.83282 0.31776 0.0
C615 C 0.16179 0.8516 0.29336 0.0
H616 H 0.33527 0.12093 0.74905 0.0
H617 H 0.21097 0.09708 0.75246 0.0
H618 H 0.34008 0.14293 0.70317 0.0
H619 H 0.21564 0.11893 0.7073 0.0
H620 H 0.21347 0.1036 0.62106 0.0
H621 H 0.21865 0.08671 0.66621 0.0
H622 H 0.33742 0.19563 0.67231 0.0
H623 H 0.33213 0.21248 0.62644 0.0
C624 C 0.3093 0.121 0.74012 0.0
C625 C 0.27246 0.1065 0.75411 0.0
C626 C 0.312 0.13351 0.71393 0.0
C627 C 0.2779 0.13172 0.70145 0.0
C628 C 0.24206 0.11951 0.71607 0.0
C629 C 0.23936 0.10701 0.74197 0.0
C630 C 0.24074 0.12394 0.63197 0.0
C631 C 0.27202 0.15976 0.62041 0.0
C632 C 0.24373 0.11431 0.65786 0.0
C633 C 0.27801 0.14035 0.67304 0.0
C634 C 0.31056 0.17507 0.66112 0.0
C635 C 0.30758 0.18469 0.63493 0.0
H636 H 0.60565 0.55676 0.13199 0.0
H637 H 0.59514 0.52037 0.21293 0.0
H638 H 0.53183 0.51114 0.12639 0.0
H639 H 0.52187 0.4744 0.20735 0.0
H640 H 0.39143 0.44622 0.20054 0.0
H641 H 0.46547 0.48702 0.20196 0.0
H642 H 0.47321 0.4404 0.12644 0.0
H643 H 0.39841 0.40051 0.12445 0.0
C644 C 0.58772 0.5381 0.14835 0.0
C645 C 0.60594 0.54231 0.17295 0.0
C646 C 0.54546 0.51209 0.14518 0.0
C647 C 0.52081 0.48982 0.16658 0.0
C648 C 0.53975 0.49199 0.19066 0.0
C649 C 0.58176 0.51803 0.19383 0.0
C650 C 0.40869 0.44519 0.18392 0.0
C651 C 0.38876 0.42004 0.16235 0.0
C652 C 0.45131 0.46809 0.18496 0.0
C653 C 0.47536 0.46642 0.16453 0.0
C654 C 0.45558 0.4423 0.14253 0.0
C655 C 0.41273 0.41925 0.14148 0.0
H656 H 0.98765 0.39995 0.46162 0.0
H657 H 0.9371 0.39092 0.53882 0.0
H658 H 0.02169 0.47437 0.46408 0.0
H659 H 0.96901 0.4648 0.5406 0.0
H660 H 0.06448 0.59597 0.55086 0.0
H661 H 0.03575 0.52247 0.54583 0.0
H662 H 0.01114 0.53223 0.46441 0.0
H663 H 0.04104 0.60616 0.46944 0.0
C664 C 0.98347 0.41372 0.47902 0.0
C665 C 0.95971 0.38921 0.50008 0.0
C666 C 0.00273 0.45645 0.48033 0.0
C667 C -0.00137 0.47572 0.50269 0.0
C668 C 0.97369 0.45114 0.5233 0.0
C669 C 0.95466 0.40856 0.52207 0.0
C670 C 0.05344 0.58242 0.53181 0.0
C671 C 0.05482 0.6067 0.51058 0.0
C672 C 0.03661 0.54025 0.52895 0.0
C673 C 0.02028 0.52119 0.50483 0.0
C674 C 0.02353 0.54583 0.48324 0.0
C675 C 0.04075 0.5882 0.48607 0.0
H676 H 0.41968 0.02205 0.78796 0.0
H677 H 0.46748 0.07367 0.86402 0.0
H678 H 0.46657 0.9952 0.78616 0.0
H679 H 0.51512 0.04817 0.86156 0.0
H680 H 0.62072 0.029 0.83713 0.0
H681 H 0.576 0.05831 0.83515 0.0
H682 H 0.47544 0.94136 0.81137 0.0
H683 H 0.5204 0.91192 0.81319 0.0
C684 C 0.44013 0.02786 0.80427 0.0
C685 C 0.43949 0.05011 0.82618 0.0
C686 C 0.46707 0.0125 0.80316 0.0
C687 C 0.49447 0.01952 0.82372 0.0
C688 C 0.4947 0.04266 0.84525 0.0
C689 C 0.46746 0.05755 0.84655 0.0
C690 C 0.58923 0.00964 0.83109 0.0
C691 C 0.57414 0.96813 0.82523 0.0
C692 C 0.56354 0.02637 0.83019 0.0
C693 C 0.5222 0.00214 0.82316 0.0
C694 C 0.50725 0.96086 0.81667 0.0
C695 C 0.53288 0.94394 0.81789 0.0
H696 H 0.38057 0.40576 0.54332 0.0
H697 H 0.48186 0.38662 0.56037 0.0
H698 H 0.42642 0.47951 0.54501 0.0
H699 H 0.52804 0.46084 0.5617 0.0
H700 H 0.58915 0.59747 0.58559 0.0
H701 H 0.54221 0.52372 0.58772 0.0
H702 H 0.48344 0.53022 0.51699 0.0
H703 H 0.53084 0.60342 0.51428 0.0
C704 C 0.41256 0.41728 0.5478 0.0
C705 C 0.4275 0.39022 0.55182 0.0
C706 C 0.43891 0.4596 0.54848 0.0
C707 C 0.48088 0.47605 0.55338 0.0
C708 C 0.49578 0.44909 0.55805 0.0
C709 C 0.46942 0.40661 0.5571 0.0
C710 C 0.56643 0.58325 0.57037 0.0
C711 C 0.564 0.60676 0.54974 0.0
C712 C 0.53947 0.54093 0.57166 0.0
C713 C 0.50911 0.52112 0.55254 0.0
C714 C 0.50613 0.54463 0.53224 0.0
C715 C 0.53327 0.58678 0.53079 0.0
H716 H 0.94796 0.55477 0.8352 0.0
H717 H 0.98645 0.5894 0.91517 0.0
H718 H 0.97987 0.51277 0.83503 0.0
H719 H 0.0205 0.54888 0.91448 0.0
H720 H 0.03816 0.43468 0.90899 0.0
H721 H 0.00928 0.47985 0.91302 0.0
H722 H 0.04719 0.52211 0.83382 0.0
H723 H 0.07475 0.47621 0.82973 0.0
C724 C 0.96288 0.55317 0.85288 0.0
C725 C 0.96451 0.57561 0.87519 0.0
C726 C 0.98193 0.52961 0.85262 0.0
C727 C 0.0035 0.52798 0.87458 0.0
C728 C 0.00421 0.54943 0.8972 0.0
C729 C 0.98495 0.57296 0.89751 0.0
C730 C 0.04106 0.45439 0.89272 0.0
C731 C 0.05842 0.45186 0.86901 0.0
C732 C 0.02443 0.48017 0.89496 0.0
C733 C 0.02509 0.50401 0.87355 0.0
C734 C 0.045 0.50331 0.85045 0.0
C735 C 0.06122 0.47738 0.84816 0.0
H736 H 0.60403 0.05232 0.17416 0.0
H737 H 0.59808 0.00158 0.25095 0.0
H738 H 0.52996 0.01883 0.17305 0.0
H739 H 0.52327 0.96635 0.24927 0.0
H740 H 0.39054 0.94927 0.24371 0.0
H741 H 0.46445 0.97785 0.24909 0.0
H742 H 0.47368 0.94977 0.1684 0.0
H743 H 0.40033 0.9222 0.16303 0.0
C744 C 0.58699 0.03441 0.19099 0.0
C745 C 0.60722 0.02979 0.21267 0.0
C746 C 0.54435 0.01453 0.19013 0.0
C747 C 0.52059 0.98923 0.21085 0.0
C748 C 0.54067 0.98553 0.23295 0.0
C749 C 0.58353 0.00552 0.23383 0.0
C750 C 0.40834 0.94833 0.22738 0.0
C751 C 0.3899 0.93388 0.2029 0.0
C752 C 0.45065 0.96481 0.23041 0.0
C753 C 0.47512 0.96694 0.209 0.0
C754 C 0.45595 0.94969 0.18508 0.0
C755 C 0.4139 0.93353 0.18204 0.0
H756 H 0.08814 0.24447 0.23084 0.0
H757 H 0.11069 0.31132 0.15844 0.0
H758 H 0.01472 0.21921 0.22646 0.0
H759 H 0.03682 0.28471 0.15355 0.0
H760 H 0.88515 0.19913 0.21553 0.0
H761 H 0.95901 0.24665 0.22026 0.0
H762 H 0.98129 0.20132 0.14841 0.0
H763 H 0.90789 0.15292 0.14421 0.0
C764 C 0.07741 0.25458 0.21436 0.0
C765 C 0.10492 0.27996 0.19505 0.0
C766 C 0.0355 0.24024 0.21188 0.0
C767 C 0.02027 0.25011 0.18969 0.0
C768 C 0.04795 0.27695 0.17091 0.0
C769 C 0.09009 0.29228 0.17378 0.0
C770 C 0.90579 0.20029 0.20038 0.0
C771 C 0.89101 0.17255 0.17947 0.0
C772 C 0.94792 0.22727 0.20315 0.0
C773 C 0.97564 0.22766 0.18463 0.0
C774 C 0.96047 0.20192 0.16277 0.0
C775 C 0.91858 0.17421 0.1604 0.0
H776 H 0.6829 0.88451 0.5507 0.0
H777 H 0.74762 0.90506 0.47764 0.0
H778 H 0.71105 0.95864 0.55533 0.0
H779 H 0.77432 0.97875 0.48175 0.0
H780 H 0.79398 0.10923 0.49318 0.0
H781 H 0.74639 0.03531 0.48887 0.0
H782 H 0.79656 0.01344 0.55876 0.0
H783 H 0.84505 0.08688 0.56249 0.0
C784 C 0.70177 0.90474 0.53516 0.0
C785 C 0.713 0.88924 0.51374 0.0
C786 C 0.71799 0.94703 0.53788 0.0
C787 C 0.74462 0.97421 0.51882 0.0
C788 C 0.75347 0.95837 0.49654 0.0
C789 C 0.73827 0.9163 0.49421 0.0
C790 C 0.79396 0.08865 0.50799 0.0
C791 C 0.823 0.10359 0.52821 0.0
C792 C 0.76694 0.04649 0.50546 0.0
C793 C 0.76777 0.01889 0.52358 0.0
C794 C 0.79502 0.03417 0.54473 0.0
C795 C 0.82277 0.07609 0.54682 0.0
H796 H 0.68335 0.79865 0.82683 0.0
H797 H 0.74448 0.84097 0.90097 0.0
H798 H 0.71225 0.75332 0.82244 0.0
H799 H 0.772 0.79466 0.89707 0.0
H800 H 0.7975 0.68818 0.88517 0.0
H801 H 0.74832 0.71255 0.88966 0.0
H802 H 0.7963 0.78432 0.8193 0.0
H803 H 0.84628 0.76132 0.81539 0.0
C804 C 0.70148 0.79691 0.84267 0.0
C805 C 0.71158 0.82304 0.86431 0.0
C806 C 0.71817 0.77123 0.84009 0.0
C807 C 0.7442 0.77049 0.85947 0.0
C808 C 0.75165 0.79433 0.88202 0.0
C809 C 0.73596 0.8208 0.88424 0.0
C810 C 0.7967 0.7083 0.87033 0.0
C811 C 0.82551 0.7229 0.84991 0.0
C812 C 0.76875 0.7223 0.87296 0.0
C813 C 0.76845 0.75007 0.85473 0.0
C814 C 0.79559 0.76254 0.83342 0.0
C815 C 0.82423 0.74952 0.83124 0.0
H816 H 0.88904 0.68367 0.17479 0.0
H817 H 0.90089 0.79375 0.20874 0.0
H818 H 0.96432 0.71632 0.17317 0.0
H819 H 0.97472 0.82554 0.20733 0.0
H820 H 0.10673 0.79246 0.20153 0.0
H821 H 0.03144 0.74994 0.20318 0.0
H822 H 0.02131 0.84866 0.16825 0.0
H823 H 0.09516 0.89059 0.16682 0.0
C824 C 0.90759 0.71448 0.18217 0.0
C825 C 0.88903 0.73636 0.1915 0.0
C826 C 0.95055 0.73306 0.18131 0.0
C827 C 0.97534 0.77372 0.18972 0.0
C828 C 0.9565 0.79452 0.20019 0.0
C829 C 0.91406 0.77619 0.20101 0.0
C830 C 0.08824 0.80471 0.19399 0.0
C831 C 0.10688 0.84509 0.18444 0.0
C832 C 0.04527 0.7804 0.19486 0.0
C833 C 0.02056 0.79628 0.18625 0.0
C834 C 0.03948 0.83585 0.17555 0.0
C835 C 0.08192 0.8599 0.17472 0.0
H836 H 0.10716 0.90898 0.51529 0.0
H837 H 0.20948 0.88772 0.51743 0.0
H838 H 0.15385 0.9818 0.51037 0.0
H839 H 0.25689 0.96185 0.51258 0.0
H840 H 0.3113 0.10579 0.53878 0.0
H841 H 0.27698 0.03054 0.53937 0.0
H842 H 0.20222 0.02569 0.47412 0.0
H843 H 0.23587 0.09999 0.47371 0.0
C844 C 0.13972 0.91984 0.51475 0.0
C845 C 0.15456 0.89245 0.51666 0.0
C846 C 0.16651 0.96167 0.51176 0.0
C847 C 0.20902 0.97751 0.51076 0.0
C848 C 0.22424 0.95041 0.51322 0.0
C849 C 0.19715 0.9081 0.51592 0.0
C850 C 0.28856 0.08855 0.52403 0.0
C851 C 0.27591 0.1086 0.50636 0.0
C852 C 0.26885 0.04556 0.52441 0.0
C853 C 0.23638 0.02231 0.50711 0.0
C854 C 0.22659 0.04276 0.488 0.0
C855 C 0.24599 0.08533 0.4877 0.0
H856 H 0.1101 0.20267 0.84472 0.0
H857 H 0.2105 0.32336 0.86247 0.0
H858 H 0.15506 0.17457 0.84954 0.0
H859 H 0.25621 0.29454 0.86713 0.0
H860 H 0.31542 0.2082 0.83833 0.0
H861 H 0.28257 0.25049 0.83645 0.0
H862 H 0.19171 0.1698 0.89203 0.0
H863 H 0.22398 0.12801 0.89392 0.0
C864 C 0.14191 0.22338 0.8495 0.0
C865 C 0.15659 0.26527 0.85343 0.0
C866 C 0.16765 0.20714 0.85233 0.0
C867 C 0.20894 0.23228 0.85903 0.0
C868 C 0.22441 0.27454 0.862 0.0
C869 C 0.1983 0.29093 0.85938 0.0
C870 C 0.28915 0.20032 0.85067 0.0
C871 C 0.2719 0.16451 0.86599 0.0
C872 C 0.2704 0.22447 0.84959 0.0
C873 C 0.23428 0.21296 0.8638 0.0
C874 C 0.21918 0.17901 0.8806 0.0
C875 C 0.23771 0.1551 0.88167 0.0
H876 H 0.21384 0.18376 0.18512 0.0
H877 H 0.33565 0.26029 0.21599 0.0
H878 H 0.22725 0.12784 0.18047 0.0
H879 H 0.34923 0.20356 0.21107 0.0
H880 H 0.32235 0.06832 0.22998 0.0
H881 H 0.32471 0.1341 0.23045 0.0
H882 H 0.26933 0.10907 0.15386 0.0
H883 H 0.26612 0.04304 0.15361 0.0
C884 C 0.24364 0.18879 0.19083 0.0
C885 C 0.27372 0.22661 0.20087 0.0
C886 C 0.25146 0.15673 0.18791 0.0
C887 C 0.28956 0.16151 0.19497 0.0
C888 C 0.31962 0.1991 0.20539 0.0
C889 C 0.31182 0.23148 0.20822 0.0
C890 C 0.31169 0.07735 0.21295 0.0
C891 C 0.29328 0.05022 0.19197 0.0
C892 C 0.31311 0.11507 0.21322 0.0
C893 C 0.29634 0.12626 0.19246 0.0
C894 C 0.28153 0.10075 0.17044 0.0
C895 C 0.27987 0.06303 0.17024 0.0
H896 H 0.26419 0.34532 0.51696 0.0
H897 H 0.18784 0.21502 0.5054 0.0
H898 H 0.20228 0.35134 0.52091 0.0
H899 H 0.12716 0.22099 0.50936 0.0
H900 H 0.02707 0.24375 0.49153 0.0
H901 H 0.09461 0.25335 0.48306 0.0
H902 H 0.13965 0.32355 0.55406 0.0
H903 H 0.07123 0.31431 0.56247 0.0
C904 C 0.23435 0.31821 0.51496 0.0
C905 C 0.23074 0.27974 0.51086 0.0
C906 C 0.1991 0.3216 0.51742 0.0
C907 C 0.16007 0.28666 0.51528 0.0
C908 C 0.15683 0.24853 0.51074 0.0
C909 C 0.19165 0.2451 0.50861 0.0
C910 C 0.05134 0.26141 0.50532 0.0
C911 C 0.04375 0.27729 0.52806 0.0
C912 C 0.09006 0.26714 0.50035 0.0
C913 C 0.12207 0.28857 0.51813 0.0
C914 C 0.1154 0.30696 0.54004 0.0
C915 C 0.07636 0.30147 0.54493 0.0
H916 H 0.80988 0.0264 0.85245 0.0
H917 H 0.73472 0.07563 0.87951 0.0
H918 H 0.86741 0.09489 0.84747 0.0
H919 H 0.79307 0.14509 0.87422 0.0
H920 H 0.92769 0.25187 0.89428 0.0
H921 H 0.86135 0.18909 0.89444 0.0
H922 H 0.88998 0.15545 0.82003 0.0
H923 H 0.95665 0.21769 0.82011 0.0
C924 C 0.80548 0.05186 0.85721 0.0
C925 C 0.76758 0.04547 0.86633 0.0
C926 C 0.83849 0.09126 0.8541 0.0
C927 C 0.83461 0.12544 0.86003 0.0
C928 C 0.79689 0.11927 0.86945 0.0
C929 C 0.76357 0.07957 0.87249 0.0
C930 C 0.91945 0.23155 0.87766 0.0
C931 C 0.9477 0.23927 0.85743 0.0
C932 C 0.88136 0.19562 0.87773 0.0
C933 C 0.87086 0.16697 0.85752 0.0
C934 C 0.8977 0.17653 0.8362 0.0
C935 C 0.93579 0.21225 0.83619 0.0
H936 H 0.65935 0.92226 0.16044 0.0
H937 H 0.78166 0.96742 0.19043 0.0
H938 H 0.64562 0.85189 0.1656 0.0
H939 H 0.76806 0.89803 0.19538 0.0
H940 H 0.72955 0.7745 0.22252 0.0
H941 H 0.72614 0.83723 0.22235 0.0
H942 H 0.66993 0.80694 0.14601 0.0
H943 H 0.67252 0.74364 0.14638 0.0
C944 C 0.68325 0.91725 0.16809 0.0
C945 C 0.72154 0.95046 0.17512 0.0
C946 C 0.67535 0.87703 0.17107 0.0
C947 C 0.70552 0.86947 0.18132 0.0
C948 C 0.74378 0.90277 0.18809 0.0
C949 C 0.7517 0.94267 0.18501 0.0
C950 C 0.71557 0.78074 0.20597 0.0
C951 C 0.70203 0.7546 0.18425 0.0
C952 C 0.71378 0.81672 0.20582 0.0
C953 C 0.69869 0.82742 0.18388 0.0
C954 C 0.68174 0.7995 0.16317 0.0
C955 C 0.68329 0.76327 0.16339 0.0
H956 H 0.80869 0.78269 0.52155 0.0
H957 H 0.73292 0.65851 0.49443 0.0
H958 H 0.86582 0.77124 0.52644 0.0
H959 H 0.79101 0.64692 0.49956 0.0
H960 H 0.9537 0.73726 0.5546 0.0
H961 H 0.88691 0.73249 0.55432 0.0
H962 H 0.86007 0.67113 0.47969 0.0
H963 H 0.9266 0.67496 0.48028 0.0
C964 C 0.80406 0.75275 0.51678 0.0
C965 C 0.76606 0.72141 0.50776 0.0
C966 C 0.83687 0.7461 0.5198 0.0
C967 C 0.83272 0.70793 0.51388 0.0
C968 C 0.79499 0.67661 0.50438 0.0
C969 C 0.76183 0.68327 0.50141 0.0
C970 C 0.9332 0.72195 0.53842 0.0
C971 C 0.94564 0.70718 0.51725 0.0
C972 C 0.89503 0.71936 0.53819 0.0
C973 C 0.86871 0.70233 0.51667 0.0
C974 C 0.8797 0.68442 0.49653 0.0
C975 C 0.91786 0.68671 0.49686 0.0
H976 H 0.26612 0.92764 0.84157 0.0
H977 H 0.20414 0.96755 0.89444 0.0
H978 H 0.20209 0.86248 0.83538 0.0
H979 H 0.14109 0.90245 0.88938 0.0
H980 H 0.02811 0.82079 0.84439 0.0
H981 H 0.09572 0.87835 0.85254 0.0
H982 H 0.14573 0.79739 0.85371 0.0
H983 H 0.07731 0.73919 0.84473 0.0
C984 C 0.23913 0.92171 0.85257 0.0
C985 C 0.23959 0.95226 0.86835 0.0
C986 C 0.20255 0.88461 0.84901 0.0
C987 C 0.16632 0.8778 0.86138 0.0
C988 C 0.16815 0.90725 0.87894 0.0
C989 C 0.20427 0.94431 0.8821 0.0
C990 C 0.05348 0.81517 0.84623 0.0
C991 C 0.04738 0.77546 0.84417 0.0
C992 C 0.09224 0.84814 0.85114 0.0
C993 C 0.12593 0.84229 0.85448 0.0
C994 C 0.1203 0.80279 0.85135 0.0
C995 C 0.08124 0.76957 0.84618 0.0
loop_
_geom_bond_atom_site_label_1
_geom_bond_atom_site_label_2
_geom_bond_distance
_geom_bond_site_symmetry_2
_ccdc_geom_bond_type
Co0 N4 2.148 . S
Co0 N10 2.128 . S
Co0 N20 2.194 . S
Co0 O25 2.351 . S
Co0 O26 2.155 . S
Co0 O27 2.096 . S
C1 N4 1.301 . S
C1 N5 1.328 . S
C1 H6 0.930 . S
C2 C3 1.333 . S
C2 N4 1.317 . S
C2 H7 0.930 . S
C3 C2 1.333 . S
C3 N5 1.350 . S
C3 H29 0.931 . S
N4 Co0 2.148 . S
N4 C1 1.301 . S
N4 C2 1.317 . S
N5 C1 1.328 . S
N5 C3 1.350 . S
H6 C1 0.930 . S
H7 C2 0.930 . S
C8 O9 1.224 . S
C8 O27 1.247 . S
O9 C8 1.224 . S
N10 Co0 2.128 . S
N10 C11 1.355 . S
N10 C13 1.311 . S
C11 N10 1.355 . S
C11 C12 1.363 . S
C11 H23 0.929 . S
C12 C11 1.363 . S
C12 N14 1.375 . S
C12 H30 0.931 . S
C13 N10 1.311 . S
C13 N14 1.347 . S
C13 H24 0.929 . S
N14 C12 1.375 . S
N14 C13 1.347 . S
C15 C18 1.365 . S
C15 N20 1.328 . S
C15 H21 0.929 . S
C16 C17 1.362 . S
C16 C19 1.378 . S
C16 H31 0.929 . S
C17 C16 1.362 . S
C17 C18 1.366 . S
C18 C15 1.365 . S
C18 C17 1.366 . S
C18 H32 0.930 . S
C19 C16 1.378 . S
C19 N20 1.315 . S
C19 H22 0.930 . S
N20 Co0 2.194 . S
N20 C15 1.328 . S
N20 C19 1.315 . S
H21 C15 0.929 . S
H22 C19 0.930 . S
H23 C11 0.929 . S
H24 C13 0.929 . S
O25 Co0 2.351 . S
O25 C28 1.244 . S
O26 Co0 2.155 . S
O26 C28 1.240 . S
O27 Co0 2.096 . S
O27 C8 1.247 . S
C28 O25 1.244 . S
C28 O26 1.240 . S
H29 C3 0.931 . S
H30 C12 0.931 . S
H31 C16 0.929 . S
H32 C18 0.930 . S
Co33 N37 2.148 . S
Co33 N43 2.128 . S
Co33 N53 2.194 . S
Co33 O58 2.351 . S
Co33 O59 2.155 . S
Co33 O60 2.096 . S
C34 N37 1.301 . S
C34 N38 1.328 . S
C34 H39 0.930 . S
C35 C36 1.333 . S
C35 N37 1.317 . S
C35 H40 0.930 . S
C36 C35 1.333 . S
C36 N38 1.350 . S
C36 H62 0.931 . S
N37 Co33 2.148 . S
N37 C34 1.301 . S
N37 C35 1.317 . S
N38 C34 1.328 . S
N38 C36 1.350 . S
H39 C34 0.930 . S
H40 C35 0.930 . S
C41 O42 1.224 . S
C41 O60 1.247 1_455 S
O42 C41 1.224 . S
N43 Co33 2.128 . S
N43 C44 1.355 . S
N43 C46 1.311 . S
C44 N43 1.355 . S
C44 C45 1.363 . S
C44 H56 0.929 . S
C45 C44 1.363 . S
C45 N47 1.375 . S
C45 H63 0.931 . S
C46 N43 1.311 . S
C46 N47 1.347 . S
C46 H57 0.929 . S
N47 C45 1.375 . S
N47 C46 1.347 . S
C48 C51 1.365 . S
C48 N53 1.328 . S
C48 H54 0.929 . S
C49 C50 1.362 . S
C49 C52 1.378 . S
C49 H64 0.929 . S
C50 C49 1.362 . S
C50 C51 1.366 . S
C51 C48 1.365 . S
C51 C50 1.366 . S
C51 H65 0.930 . S
C52 C49 1.378 . S
C52 N53 1.315 . S
C52 H55 0.930 . S
N53 Co33 2.194 . S
N53 C48 1.328 . S
N53 C52 1.315 . S
H54 C48 0.929 . S
H55 C52 0.930 . S
H56 C44 0.929 . S
H57 C46 0.929 . S
O58 Co33 2.351 . S
O58 C61 1.244 . S
O59 Co33 2.155 . S
O59 C61 1.240 . S
O60 Co33 2.096 . S
O60 C41 1.247 1_655 S
C61 O58 1.244 . S
C61 O59 1.240 . S
H62 C36 0.931 . S
H63 C45 0.931 . S
H64 C49 0.929 . S
H65 C51 0.930 . S
Co66 N70 2.148 . S
Co66 N76 2.128 . S
Co66 N86 2.194 . S
Co66 O91 2.351 . S
Co66 O92 2.155 . S
Co66 O93 2.096 . S
C67 N70 1.301 . S
C67 N71 1.328 . S
C67 H72 0.930 . S
C68 C69 1.333 . S
C68 N70 1.317 . S
C68 H73 0.930 . S
C69 C68 1.333 . S
C69 N71 1.350 . S
C69 H95 0.931 . S
N70 Co66 2.148 . S
N70 C67 1.301 . S
N70 C68 1.317 . S
N71 C67 1.328 . S
N71 C69 1.350 . S
H72 C67 0.930 . S
H73 C68 0.930 . S
C74 O75 1.224 . S
C74 O93 1.247 1_545 S
O75 C74 1.224 . S
N76 Co66 2.128 . S
N76 C77 1.355 . S
N76 C79 1.311 . S
C77 N76 1.355 . S
C77 C78 1.363 . S
C77 H89 0.929 . S
C78 C77 1.363 . S
C78 N80 1.375 . S
C78 H96 0.931 . S
C79 N76 1.311 . S
C79 N80 1.347 . S
C79 H90 0.929 . S
N80 C78 1.375 . S
N80 C79 1.347 . S
C81 C84 1.365 . S
C81 N86 1.328 . S
C81 H87 0.929 . S
C82 C83 1.362 . S
C82 C85 1.378 . S
C82 H97 0.929 . S
C83 C82 1.362 . S
C83 C84 1.366 . S
C84 C81 1.365 . S
C84 C83 1.366 . S
C84 H98 0.930 . S
C85 C82 1.378 . S
C85 N86 1.315 . S
C85 H88 0.930 . S
N86 Co66 2.194 . S
N86 C81 1.328 . S
N86 C85 1.315 . S
H87 C81 0.929 . S
H88 C85 0.930 . S
H89 C77 0.929 . S
H90 C79 0.929 . S
O91 Co66 2.351 . S
O91 C94 1.244 . S
O92 Co66 2.155 . S
O92 C94 1.240 . S
O93 Co66 2.096 . S
O93 C74 1.247 1_565 S
C94 O91 1.244 . S
C94 O92 1.240 . S
H95 C69 0.931 . S
H96 C78 0.931 . S
H97 C82 0.929 . S
H98 C84 0.930 . S
Co99 N103 2.148 . S
Co99 N109 2.128 . S
Co99 N119 2.194 . S
Co99 O124 2.351 . S
Co99 O125 2.155 . S
Co99 O126 2.096 . S
C100 N103 1.301 . S
C100 N104 1.328 . S
C100 H105 0.930 . S
C101 C102 1.333 . S
C101 N103 1.317 . S
C101 H106 0.930 . S
C102 C101 1.333 . S
C102 N104 1.350 . S
C102 H128 0.931 . S
N103 Co99 2.148 . S
N103 C100 1.301 . S
N103 C101 1.317 . S
N104 C100 1.328 . S
N104 C102 1.350 . S
H105 C100 0.930 . S
H106 C101 0.930 . S
C107 O108 1.224 . S
C107 O126 1.247 . S
O108 C107 1.224 . S
N109 Co99 2.128 . S
N109 C110 1.355 . S
N109 C112 1.311 . S
C110 N109 1.355 . S
C110 C111 1.363 . S
C110 H122 0.929 . S
C111 C110 1.363 . S
C111 N113 1.375 . S
C111 H129 0.931 . S
C112 N109 1.311 . S
C112 N113 1.347 . S
C112 H123 0.929 . S
N113 C111 1.375 . S
N113 C112 1.347 . S
C114 C117 1.365 . S
C114 N119 1.328 . S
C114 H120 0.929 . S
C115 C116 1.362 . S
C115 C118 1.378 . S
C115 H130 0.929 . S
C116 C115 1.362 . S
C116 C117 1.366 . S
C117 C114 1.365 . S
C117 C116 1.366 . S
C117 H131 0.930 . S
C118 C115 1.378 . S
C118 N119 1.315 . S
C118 H121 0.930 . S
N119 Co99 2.194 . S
N119 C114 1.328 . S
N119 C118 1.315 . S
H120 C114 0.929 . S
H121 C118 0.930 . S
H122 C110 0.929 . S
H123 C112 0.929 . S
O124 Co99 2.351 . S
O124 C127 1.244 . S
O125 Co99 2.155 . S
O125 C127 1.240 . S
O126 Co99 2.096 . S
O126 C107 1.247 . S
C127 O124 1.244 . S
C127 O125 1.240 . S
H128 C102 0.931 . S
H129 C111 0.931 . S
H130 C115 0.929 . S
H131 C117 0.930 . S
Co132 N136 2.148 . S
Co132 N142 2.128 . S
Co132 N152 2.194 . S
Co132 O157 2.351 . S
Co132 O158 2.155 . S
Co132 O159 2.096 . S
C133 N136 1.301 . S
C133 N137 1.328 . S
C133 H138 0.930 . S
C134 C135 1.333 . S
C134 N136 1.317 . S
C134 H139 0.930 . S
C135 C134 1.333 . S
C135 N137 1.350 . S
C135 H161 0.931 . S
N136 Co132 2.148 . S
N136 C133 1.301 . S
N136 C134 1.317 . S
N137 C133 1.328 . S
N137 C135 1.350 . S
H138 C133 0.930 . S
H139 C134 0.930 . S
C140 O141 1.224 . S
C140 O159 1.247 1_655 S
O141 C140 1.224 . S
N142 Co132 2.128 . S
N142 C143 1.355 . S
N142 C145 1.311 . S
C143 N142 1.355 . S
C143 C144 1.363 . S
C143 H155 0.929 . S
C144 C143 1.363 . S
C144 N146 1.375 . S
C144 H162 0.931 . S
C145 N142 1.311 . S
C145 N146 1.347 . S
C145 H156 0.929 . S
N146 C144 1.375 . S
N146 C145 1.347 . S
C147 C150 1.365 . S
C147 N152 1.328 . S
C147 H153 0.929 . S
C148 C149 1.362 . S
C148 C151 1.378 . S
C148 H163 0.929 . S
C149 C148 1.362 . S
C149 C150 1.366 . S
C150 C147 1.365 . S
C150 C149 1.366 . S
C150 H164 0.930 . S
C151 C148 1.378 . S
C151 N152 1.315 . S
C151 H154 0.930 . S
N152 Co132 2.194 . S
N152 C147 1.328 . S
N152 C151 1.315 . S
H153 C147 0.929 . S
H154 C151 0.930 . S
H155 C143 0.929 . S
H156 C145 0.929 . S
O157 Co132 2.351 . S
O157 C160 1.244 . S
O158 Co132 2.155 . S
O158 C160 1.240 . S
O159 Co132 2.096 . S
O159 C140 1.247 1_455 S
C160 O157 1.244 . S
C160 O158 1.240 . S
H161 C135 0.931 . S
H162 C144 0.931 . S
H163 C148 0.929 . S
H164 C150 0.930 . S
Co165 N169 2.148 . S
Co165 N175 2.128 . S
Co165 N185 2.194 . S
Co165 O190 2.351 . S
Co165 O191 2.155 . S
Co165 O192 2.096 . S
C166 N169 1.301 . S
C166 N170 1.328 . S
C166 H171 0.930 . S
C167 C168 1.333 . S
C167 N169 1.317 . S
C167 H172 0.930 . S
C168 C167 1.333 . S
C168 N170 1.350 . S
C168 H194 0.931 . S
N169 Co165 2.148 . S
N169 C166 1.301 . S
N169 C167 1.317 . S
N170 C166 1.328 . S
N170 C168 1.350 . S
H171 C166 0.930 . S
H172 C167 0.930 . S
C173 O174 1.224 . S
C173 O192 1.247 1_565 S
O174 C173 1.224 . S
N175 Co165 2.128 . S
N175 C176 1.355 . S
N175 C178 1.311 . S
C176 N175 1.355 . S
C176 C177 1.363 . S
C176 H188 0.929 . S
C177 C176 1.363 . S
C177 N179 1.375 . S
C177 H195 0.931 . S
C178 N175 1.311 . S
C178 N179 1.347 . S
C178 H189 0.929 . S
N179 C177 1.375 . S
N179 C178 1.347 . S
C180 C183 1.365 . S
C180 N185 1.328 . S
C180 H186 0.929 . S
C181 C182 1.362 . S
C181 C184 1.378 . S
C181 H196 0.929 . S
C182 C181 1.362 . S
C182 C183 1.366 . S
C183 C180 1.365 . S
C183 C182 1.366 . S
C183 H197 0.930 . S
C184 C181 1.378 . S
C184 N185 1.315 . S
C184 H187 0.930 . S
N185 Co165 2.194 . S
N185 C180 1.328 . S
N185 C184 1.315 . S
H186 C180 0.929 . S
H187 C184 0.930 . S
H188 C176 0.929 . S
H189 C178 0.929 . S
O190 Co165 2.351 . S
O190 C193 1.244 . S
O191 Co165 2.155 . S
O191 C193 1.240 . S
O192 Co165 2.096 . S
O192 C173 1.247 1_545 S
C193 O190 1.244 . S
C193 O191 1.240 . S
H194 C168 0.931 . S
H195 C177 0.931 . S
H196 C181 0.929 . S
H197 C183 0.930 . S
Co198 N202 2.148 . S
Co198 N208 2.128 . S
Co198 N218 2.194 . S
Co198 O223 2.351 . S
Co198 O224 2.155 . S
Co198 O225 2.096 . S
C199 N202 1.301 . S
C199 N203 1.328 . S
C199 H204 0.930 . S
C200 C201 1.333 . S
C200 N202 1.317 . S
C200 H205 0.930 . S
C201 C200 1.333 . S
C201 N203 1.350 . S
C201 H227 0.931 . S
N202 Co198 2.148 . S
N202 C199 1.301 . S
N202 C200 1.317 . S
N203 C199 1.328 . S
N203 C201 1.350 . S
H204 C199 0.930 . S
H205 C200 0.930 . S
C206 O207 1.224 . S
C206 O225 1.247 . S
O207 C206 1.224 . S
N208 Co198 2.128 . S
N208 C209 1.355 . S
N208 C211 1.311 . S
C209 N208 1.355 . S
C209 C210 1.363 . S
C209 H221 0.929 . S
C210 C209 1.363 . S
C210 N212 1.375 . S
C210 H228 0.931 . S
C211 N208 1.311 . S
C211 N212 1.347 . S
C211 H222 0.929 . S
N212 C210 1.375 . S
N212 C211 1.347 . S
C213 C216 1.365 . S
C213 N218 1.328 . S
C213 H219 0.929 . S
C214 C215 1.362 . S
C214 C217 1.378 . S
C214 H229 0.929 . S
C215 C214 1.362 . S
C215 C216 1.366 . S
C216 C213 1.365 . S
C216 C215 1.366 . S
C216 H230 0.930 . S
C217 C214 1.378 . S
C217 N218 1.315 . S
C217 H220 0.930 . S
N218 Co198 2.194 . S
N218 C213 1.328 . S
N218 C217 1.315 . S
H219 C213 0.929 . S
H220 C217 0.930 . S
H221 C209 0.929 . S
H222 C211 0.929 . S
O223 Co198 2.351 . S
O223 C226 1.244 . S
O224 Co198 2.155 . S
O224 C226 1.240 . S
O225 Co198 2.096 . S
O225 C206 1.247 . S
C226 O223 1.244 . S
C226 O224 1.240 . S
H227 C201 0.931 . S
H228 C210 0.931 . S
H229 C214 0.929 . S
H230 C216 0.930 . S
Co231 N235 2.148 . S
Co231 N241 2.128 . S
Co231 N251 2.194 . S
Co231 O256 2.351 . S
Co231 O257 2.155 . S
Co231 O258 2.096 . S
C232 N235 1.301 . S
C232 N236 1.328 . S
C232 H237 0.930 . S
C233 C234 1.333 . S
C233 N235 1.317 . S
C233 H238 0.930 . S
C234 C233 1.333 . S
C234 N236 1.350 . S
C234 H260 0.931 . S
N235 Co231 2.148 . S
N235 C232 1.301 . S
N235 C233 1.317 . S
N236 C232 1.328 . S
N236 C234 1.350 . S
H237 C232 0.930 . S
H238 C233 0.930 . S
C239 O240 1.224 . S
C239 O258 1.247 1_455 S
O240 C239 1.224 . S
N241 Co231 2.128 . S
N241 C242 1.355 . S
N241 C244 1.311 . S
C242 N241 1.355 . S
C242 C243 1.363 . S
C242 H254 0.929 . S
C243 C242 1.363 . S
C243 N245 1.375 . S
C243 H261 0.931 . S
C244 N241 1.311 . S
C244 N245 1.347 . S
C244 H255 0.929 . S
N245 C243 1.375 . S
N245 C244 1.347 . S
C246 C249 1.365 . S
C246 N251 1.328 . S
C246 H252 0.929 . S
C247 C248 1.362 . S
C247 C250 1.378 . S
C247 H262 0.929 . S
C248 C247 1.362 . S
C248 C249 1.366 . S
C249 C246 1.365 . S
C249 C248 1.366 . S
C249 H263 0.930 . S
C250 C247 1.378 . S
C250 N251 1.315 . S
C250 H253 0.930 . S
N251 Co231 2.194 . S
N251 C246 1.328 . S
N251 C250 1.315 . S
H252 C246 0.929 . S
H253 C250 0.930 . S
H254 C242 0.929 . S
H255 C244 0.929 . S
O256 Co231 2.351 . S
O256 C259 1.244 . S
O257 Co231 2.155 . S
O257 C259 1.240 . S
O258 Co231 2.096 . S
O258 C239 1.247 1_655 S
C259 O256 1.244 . S
C259 O257 1.240 . S
H260 C234 0.931 . S
H261 C243 0.931 . S
H262 C247 0.929 . S
H263 C249 0.930 . S
Co264 N268 2.148 . S
Co264 N274 2.128 . S
Co264 N284 2.194 . S
Co264 O289 2.351 . S
Co264 O290 2.155 . S
Co264 O291 2.096 . S
C265 N268 1.301 . S
C265 N269 1.328 . S
C265 H270 0.930 . S
C266 C267 1.333 . S
C266 N268 1.317 . S
C266 H271 0.930 . S
C267 C266 1.333 . S
C267 N269 1.350 . S
C267 H293 0.931 . S
N268 Co264 2.148 . S
N268 C265 1.301 . S
N268 C266 1.317 . S
N269 C265 1.328 . S
N269 C267 1.350 . S
H270 C265 0.930 . S
H271 C266 0.930 . S
C272 O273 1.224 . S
C272 O291 1.247 1_545 S
O273 C272 1.224 . S
N274 Co264 2.128 . S
N274 C275 1.355 . S
N274 C277 1.311 . S
C275 N274 1.355 . S
C275 C276 1.363 . S
C275 H287 0.929 . S
C276 C275 1.363 . S
C276 N278 1.375 . S
C276 H294 0.931 . S
C277 N274 1.311 . S
C277 N278 1.347 . S
C277 H288 0.929 . S
N278 C276 1.375 . S
N278 C277 1.347 . S
C279 C282 1.365 . S
C279 N284 1.328 . S
C279 H285 0.929 . S
C280 C281 1.362 . S
C280 C283 1.378 . S
C280 H295 0.929 . S
C281 C280 1.362 . S
C281 C282 1.366 . S
C282 C279 1.365 . S
C282 C281 1.366 . S
C282 H296 0.930 . S
C283 C280 1.378 . S
C283 N284 1.315 . S
C283 H286 0.930 . S
N284 Co264 2.194 . S
N284 C279 1.328 . S
N284 C283 1.315 . S
H285 C279 0.929 . S
H286 C283 0.930 . S
H287 C275 0.929 . S
H288 C277 0.929 . S
O289 Co264 2.351 . S
O289 C292 1.244 . S
O290 Co264 2.155 . S
O290 C292 1.240 . S
O291 Co264 2.096 . S
O291 C272 1.247 1_565 S
C292 O289 1.244 . S
C292 O290 1.240 . S
H293 C267 0.931 . S
H294 C276 0.931 . S
H295 C280 0.929 . S
H296 C282 0.930 . S
Co297 N301 2.148 . S
Co297 N307 2.128 . S
Co297 N317 2.194 . S
Co297 O322 2.351 . S
Co297 O323 2.155 . S
Co297 O324 2.096 . S
C298 N301 1.301 . S
C298 N302 1.328 . S
C298 H303 0.930 . S
C299 C300 1.333 . S
C299 N301 1.317 . S
C299 H304 0.930 . S
C300 C299 1.333 . S
C300 N302 1.350 . S
C300 H326 0.931 . S
N301 Co297 2.148 . S
N301 C298 1.301 . S
N301 C299 1.317 . S
N302 C298 1.328 . S
N302 C300 1.350 . S
H303 C298 0.930 . S
H304 C299 0.930 . S
C305 O306 1.224 . S
C305 O324 1.247 . S
O306 C305 1.224 . S
N307 Co297 2.128 . S
N307 C308 1.355 . S
N307 C310 1.311 . S
C308 N307 1.355 . S
C308 C309 1.363 . S
C308 H320 0.929 . S
C309 C308 1.363 . S
C309 N311 1.375 . S
C309 H327 0.931 . S
C310 N307 1.311 . S
C310 N311 1.347 . S
C310 H321 0.929 . S
N311 C309 1.375 . S
N311 C310 1.347 . S
C312 C315 1.365 . S
C312 N317 1.328 . S
C312 H318 0.929 . S
C313 C314 1.362 . S
C313 C316 1.378 . S
C313 H328 0.929 . S
C314 C313 1.362 . S
C314 C315 1.366 . S
C315 C312 1.365 . S
C315 C314 1.366 . S
C315 H329 0.930 . S
C316 C313 1.378 . S
C316 N317 1.315 . S
C316 H319 0.930 . S
N317 Co297 2.194 . S
N317 C312 1.328 . S
N317 C316 1.315 . S
H318 C312 0.929 . S
H319 C316 0.930 . S
H320 C308 0.929 . S
H321 C310 0.929 . S
O322 Co297 2.351 . S
O322 C325 1.244 . S
O323 Co297 2.155 . S
O323 C325 1.240 . S
O324 Co297 2.096 . S
O324 C305 1.247 . S
C325 O322 1.244 . S
C325 O323 1.240 . S
H326 C300 0.931 . S
H327 C309 0.931 . S
H328 C313 0.929 . S
H329 C315 0.930 . S
Co330 N334 2.148 . S
Co330 N340 2.128 . S
Co330 N350 2.194 . S
Co330 O355 2.351 . S
Co330 O356 2.155 . S
Co330 O357 2.096 . S
C331 N334 1.301 . S
C331 N335 1.328 . S
C331 H336 0.930 . S
C332 C333 1.333 . S
C332 N334 1.317 . S
C332 H337 0.930 . S
C333 C332 1.333 . S
C333 N335 1.350 . S
C333 H359 0.931 . S
N334 Co330 2.148 . S
N334 C331 1.301 . S
N334 C332 1.317 . S
N335 C331 1.328 . S
N335 C333 1.350 . S
H336 C331 0.930 . S
H337 C332 0.930 . S
C338 O339 1.224 . S
C338 O357 1.247 1_655 S
O339 C338 1.224 . S
N340 Co330 2.128 . S
N340 C341 1.355 . S
N340 C343 1.311 . S
C341 N340 1.355 . S
C341 C342 1.363 . S
C341 H353 0.929 . S
C342 C341 1.363 . S
C342 N344 1.375 . S
C342 H360 0.931 . S
C343 N340 1.311 . S
C343 N344 1.347 . S
C343 H354 0.929 . S
N344 C342 1.375 . S
N344 C343 1.347 . S
C345 C348 1.365 . S
C345 N350 1.328 . S
C345 H351 0.929 . S
C346 C347 1.362 . S
C346 C349 1.378 . S
C346 H361 0.929 . S
C347 C346 1.362 . S
C347 C348 1.366 . S
C348 C345 1.365 . S
C348 C347 1.366 . S
C348 H362 0.930 . S
C349 C346 1.378 . S
C349 N350 1.315 . S
C349 H352 0.930 . S
N350 Co330 2.194 . S
N350 C345 1.328 . S
N350 C349 1.315 . S
H351 C345 0.929 . S
H352 C349 0.930 . S
H353 C341 0.929 . S
H354 C343 0.929 . S
O355 Co330 2.351 . S
O355 C358 1.244 . S
O356 Co330 2.155 . S
O356 C358 1.240 . S
O357 Co330 2.096 . S
O357 C338 1.247 1_455 S
C358 O355 1.244 . S
C358 O356 1.240 . S
H359 C333 0.931 . S
H360 C342 0.931 . S
H361 C346 0.929 . S
H362 C348 0.930 . S
Co363 N367 2.148 . S
Co363 N373 2.128 . S
Co363 N383 2.194 . S
Co363 O388 2.351 . S
Co363 O389 2.155 . S
Co363 O390 2.096 . S
C364 N367 1.301 . S
C364 N368 1.328 . S
C364 H369 0.930 . S
C365 C366 1.333 . S
C365 N367 1.317 . S
C365 H370 0.930 . S
C366 C365 1.333 . S
C366 N368 1.350 . S
C366 H392 0.931 . S
N367 Co363 2.148 . S
N367 C364 1.301 . S
N367 C365 1.317 . S
N368 C364 1.328 . S
N368 C366 1.350 . S
H369 C364 0.930 . S
H370 C365 0.930 . S
C371 O372 1.224 . S
C371 O390 1.247 1_565 S
O372 C371 1.224 . S
N373 Co363 2.128 . S
N373 C374 1.355 . S
N373 C376 1.311 . S
C374 N373 1.355 . S
C374 C375 1.363 . S
C374 H386 0.929 . S
C375 C374 1.363 . S
C375 N377 1.375 . S
C375 H393 0.931 . S
C376 N373 1.311 . S
C376 N377 1.347 . S
C376 H387 0.929 . S
N377 C375 1.375 . S
N377 C376 1.347 . S
C378 C381 1.365 . S
C378 N383 1.328 . S
C378 H384 0.929 . S
C379 C380 1.362 . S
C379 C382 1.378 . S
C379 H394 0.929 . S
C380 C379 1.362 . S
C380 C381 1.366 . S
C381 C378 1.365 . S
C381 C380 1.366 . S
C381 H395 0.930 . S
C382 C379 1.378 . S
C382 N383 1.315 . S
C382 H385 0.930 . S
N383 Co363 2.194 . S
N383 C378 1.328 . S
N383 C382 1.315 . S
H384 C378 0.929 . S
H385 C382 0.930 . S
H386 C374 0.929 . S
H387 C376 0.929 . S
O388 Co363 2.351 . S
O388 C391 1.244 . S
O389 Co363 2.155 . S
O389 C391 1.240 . S
O390 Co363 2.096 . S
O390 C371 1.247 1_545 S
C391 O388 1.244 . S
C391 O389 1.240 . S
H392 C366 0.931 . S
H393 C375 0.931 . S
H394 C379 0.929 . S
H395 C381 0.930 . S
H396 C404 0.950 . S
H397 C409 0.950 . S
H398 C406 0.950 . S
H399 C408 0.950 . S
H400 C410 0.950 . S
H401 C412 0.950 . S
H402 C414 0.950 . S
H403 C415 0.950 . S
C404 H396 0.950 . S
C404 C405 1.386 . S
C404 C406 1.391 . S
C405 C404 1.386 . S
C405 C409 1.393 . S
C406 H398 0.950 . S
C406 C404 1.391 . S
C406 C407 1.400 . S
C407 C406 1.400 . S
C407 C408 1.398 . S
C407 C413 1.491 . S
C408 H399 0.950 . S
C408 C407 1.398 . S
C408 C409 1.391 . S
C409 H397 0.950 . S
C409 C405 1.393 . S
C409 C408 1.391 . S
C410 H400 0.950 . S
C410 C411 1.386 . S
C410 C412 1.391 . S
C411 C410 1.386 . S
C411 C415 1.393 . S
C412 H401 0.950 . S
C412 C410 1.391 . S
C412 C413 1.400 . S
C413 C407 1.491 . S
C413 C412 1.400 . S
C413 C414 1.398 . S
C414 H402 0.950 . S
C414 C413 1.398 . S
C414 C415 1.391 . S
C415 H403 0.950 . S
C415 C411 1.393 . S
C415 C414 1.391 . S
H416 C424 0.950 . S
H417 C429 0.950 . S
H418 C426 0.950 . S
H419 C428 0.950 . S
H420 C430 0.950 . S
H421 C432 0.950 . S
H422 C434 0.950 . S
H423 C435 0.950 . S
C424 H416 0.950 . S
C424 C425 1.386 1_455 S
C424 C426 1.391 . S
C425 C424 1.386 1_655 S
C425 C429 1.393 . S
C426 H418 0.950 . S
C426 C424 1.391 . S
C426 C427 1.400 1_455 S
C427 C426 1.400 1_655 S
C427 C428 1.398 . S
C427 C433 1.491 1_655 S
C428 H419 0.950 . S
C428 C427 1.398 . S
C428 C429 1.391 . S
C429 H417 0.950 . S
C429 C425 1.393 . S
C429 C428 1.391 . S
C430 H420 0.950 . S
C430 C431 1.386 1_655 S
C430 C432 1.391 . S
C431 C430 1.386 1_455 S
C431 C435 1.393 . S
C432 H421 0.950 . S
C432 C430 1.391 . S
C432 C433 1.400 1_655 S
C433 C427 1.491 1_455 S
C433 C432 1.400 1_455 S
C433 C434 1.398 . S
C434 H422 0.950 . S
C434 C433 1.398 . S
C434 C435 1.391 . S
C435 H423 0.950 . S
C435 C431 1.393 . S
C435 C434 1.391 . S
H436 C444 0.950 . S
H437 C449 0.950 1_545 S
H438 C446 0.950 . S
H439 C448 0.950 . S
H440 C450 0.950 . S
H441 C452 0.950 . S
H442 C454 0.950 . S
H443 C455 0.950 1_565 S
C444 H436 0.950 . S
C444 C445 1.386 . S
C444 C446 1.391 . S
C445 C444 1.386 . S
C445 C449 1.393 . S
C446 H438 0.950 . S
C446 C444 1.391 . S
C446 C447 1.400 . S
C447 C446 1.400 . S
C447 C448 1.398 1_565 S
C447 C453 1.491 1_566 S
C448 H439 0.950 . S
C448 C447 1.398 1_545 S
C448 C449 1.391 1_545 S
C449 H437 0.950 1_565 S
C449 C445 1.393 . S
C449 C448 1.391 1_565 S
C450 H440 0.950 . S
C450 C451 1.386 . S
C450 C452 1.391 . S
C451 C450 1.386 . S
C451 C455 1.393 . S
C452 H441 0.950 . S
C452 C450 1.391 . S
C452 C453 1.400 . S
C453 C447 1.491 1_544 S
C453 C452 1.400 . S
C453 C454 1.398 1_545 S
C454 H442 0.950 . S
C454 C453 1.398 1_565 S
C454 C455 1.391 1_565 S
C455 H443 0.950 1_545 S
C455 C451 1.393 . S
C455 C454 1.391 1_545 S
H456 C464 0.950 . S
H457 C469 0.950 . S
H458 C466 0.950 . S
H459 C468 0.950 . S
H460 C470 0.950 . S
H461 C472 0.950 . S
H462 C474 0.950 . S
H463 C475 0.950 . S
C464 H456 0.950 . S
C464 C465 1.386 . S
C464 C466 1.391 . S
C465 C464 1.386 . S
C465 C469 1.393 . S
C466 H458 0.950 . S
C466 C464 1.391 . S
C466 C467 1.400 . S
C467 C466 1.400 . S
C467 C468 1.398 . S
C467 C473 1.491 . S
C468 H459 0.950 . S
C468 C467 1.398 . S
C468 C469 1.391 . S
C469 H457 0.950 . S
C469 C465 1.393 . S
C469 C468 1.391 . S
C470 H460 0.950 . S
C470 C471 1.386 . S
C470 C472 1.391 . S
C471 C470 1.386 . S
C471 C475 1.393 . S
C472 H461 0.950 . S
C472 C470 1.391 . S
C472 C473 1.400 . S
C473 C467 1.491 . S
C473 C472 1.400 . S
C473 C474 1.398 . S
C474 H462 0.950 . S
C474 C473 1.398 . S
C474 C475 1.391 . S
C475 H463 0.950 . S
C475 C471 1.393 . S
C475 C474 1.391 . S
H476 C484 0.950 . S
H477 C489 0.950 . S
H478 C486 0.950 . S
H479 C488 0.950 . S
H480 C490 0.950 . S
H481 C492 0.950 . S
H482 C494 0.950 . S
H483 C495 0.950 . S
C484 H476 0.950 . S
C484 C485 1.386 1_655 S
C484 C486 1.391 . S
C485 C484 1.386 1_455 S
C485 C489 1.393 . S
C486 H478 0.950 . S
C486 C484 1.391 . S
C486 C487 1.400 1_655 S
C487 C486 1.400 1_455 S
C487 C488 1.398 . S
C487 C493 1.491 1_455 S
C488 H479 0.950 . S
C488 C487 1.398 . S
C488 C489 1.391 . S
C489 H477 0.950 . S
C489 C485 1.393 . S
C489 C488 1.391 . S
C490 H480 0.950 . S
C490 C491 1.386 1_455 S
C490 C492 1.391 . S
C491 C490 1.386 1_655 S
C491 C495 1.393 . S
C492 H481 0.950 . S
C492 C490 1.391 . S
C492 C493 1.400 1_455 S
C493 C487 1.491 1_655 S
C493 C492 1.400 1_655 S
C493 C494 1.398 . S
C494 H482 0.950 . S
C494 C493 1.398 . S
C494 C495 1.391 . S
C495 H483 0.950 . S
C495 C491 1.393 . S
C495 C494 1.391 . S
H496 C504 0.950 . S
H497 C509 0.950 . S
H498 C506 0.950 . S
H499 C508 0.950 . S
H500 C510 0.950 . S
H501 C512 0.950 . S
H502 C514 0.950 . S
H503 C515 0.950 . S
C504 H496 0.950 . S
C504 C505 1.386 . S
C504 C506 1.391 1_545 S
C505 C504 1.386 . S
C505 C509 1.393 . S
C506 H498 0.950 . S
C506 C504 1.391 1_565 S
C506 C507 1.400 1_565 S
C507 C506 1.400 1_545 S
C507 C508 1.398 . S
C507 C513 1.491 1_546 S
C508 H499 0.950 . S
C508 C507 1.398 . S
C508 C509 1.391 . S
C509 H497 0.950 . S
C509 C505 1.393 . S
C509 C508 1.391 . S
C510 H500 0.950 . S
C510 C511 1.386 . S
C510 C512 1.391 1_565 S
C511 C510 1.386 . S
C511 C515 1.393 . S
C512 H501 0.950 . S
C512 C510 1.391 1_545 S
C512 C513 1.400 1_545 S
C513 C507 1.491 1_564 S
C513 C512 1.400 1_565 S
C513 C514 1.398 . S
C514 H502 0.950 . S
C514 C513 1.398 . S
C514 C515 1.391 . S
C515 H503 0.950 . S
C515 C511 1.393 . S
C515 C514 1.391 . S
H516 C524 0.950 . S
H517 C529 0.950 . S
H518 C526 0.950 . S
H519 C528 0.950 . S
H520 C530 0.950 . S
H521 C532 0.950 . S
H522 C534 0.950 . S
H523 C535 0.950 . S
C524 H516 0.950 . S
C524 C525 1.386 . S
C524 C526 1.391 . S
C525 C524 1.386 . S
C525 C529 1.393 . S
C526 H518 0.950 . S
C526 C524 1.391 . S
C526 C527 1.400 . S
C527 C526 1.400 . S
C527 C528 1.398 . S
C527 C533 1.491 1_556 S
C528 H519 0.950 . S
C528 C527 1.398 . S
C528 C529 1.391 . S
C529 H517 0.950 . S
C529 C525 1.393 . S
C529 C528 1.391 . S
C530 H520 0.950 . S
C530 C531 1.386 . S
C530 C532 1.391 . S
C531 C530 1.386 . S
C531 C535 1.393 . S
C532 H521 0.950 . S
C532 C530 1.391 . S
C532 C533 1.400 . S
C533 C527 1.491 1_554 S
C533 C532 1.400 . S
C533 C534 1.398 . S
C534 H522 0.950 . S
C534 C533 1.398 . S
C534 C535 1.391 . S
C535 H523 0.950 . S
C535 C531 1.393 . S
C535 C534 1.391 . S
H536 C544 0.950 . S
H537 C549 0.950 . S
H538 C546 0.950 . S
H539 C548 0.950 . S
H540 C550 0.950 . S
H541 C552 0.950 . S
H542 C554 0.950 . S
H543 C555 0.950 . S
C544 H536 0.950 . S
C544 C545 1.386 . S
C544 C546 1.391 . S
C545 C544 1.386 . S
C545 C549 1.393 . S
C546 H538 0.950 . S
C546 C544 1.391 . S
C546 C547 1.400 . S
C547 C546 1.400 . S
C547 C548 1.398 . S
C547 C553 1.491 . S
C548 H539 0.950 . S
C548 C547 1.398 . S
C548 C549 1.391 . S
C549 H537 0.950 . S
C549 C545 1.393 . S
C549 C548 1.391 . S
C550 H540 0.950 . S
C550 C551 1.386 . S
C550 C552 1.391 . S
C551 C550 1.386 . S
C551 C555 1.393 . S
C552 H541 0.950 . S
C552 C550 1.391 . S
C552 C553 1.400 . S
C553 C547 1.491 . S
C553 C552 1.400 . S
C553 C554 1.398 . S
C554 H542 0.950 . S
C554 C553 1.398 . S
C554 C555 1.391 . S
C555 H543 0.950 . S
C555 C551 1.393 . S
C555 C554 1.391 . S
H556 C564 0.950 . S
H557 C569 0.950 . S
H558 C566 0.950 . S
H559 C568 0.950 . S
H560 C570 0.950 . S
H561 C572 0.950 . S
H562 C574 0.950 . S
H563 C575 0.950 . S
C564 H556 0.950 . S
C564 C565 1.386 . S
C564 C566 1.391 . S
C565 C564 1.386 . S
C565 C569 1.393 . S
C566 H558 0.950 . S
C566 C564 1.391 . S
C566 C567 1.400 . S
C567 C566 1.400 . S
C567 C568 1.398 . S
C567 C573 1.491 . S
C568 H559 0.950 . S
C568 C567 1.398 . S
C568 C569 1.391 . S
C569 H557 0.950 . S
C569 C565 1.393 . S
C569 C568 1.391 . S
C570 H560 0.950 . S
C570 C571 1.386 . S
C570 C572 1.391 . S
C571 C570 1.386 . S
C571 C575 1.393 . S
C572 H561 0.950 . S
C572 C570 1.391 . S
C572 C573 1.400 . S
C573 C567 1.491 . S
C573 C572 1.400 . S
C573 C574 1.398 . S
C574 H562 0.950 . S
C574 C573 1.398 . S
C574 C575 1.391 . S
C575 H563 0.950 . S
C575 C571 1.393 . S
C575 C574 1.391 . S
H576 C584 0.950 . S
H577 C589 0.950 . S
H578 C586 0.950 . S
H579 C588 0.950 . S
H580 C590 0.950 . S
H581 C592 0.950 . S
H582 C594 0.950 . S
H583 C595 0.950 . S
C584 H576 0.950 . S
C584 C585 1.386 . S
C584 C586 1.391 . S
C585 C584 1.386 . S
C585 C589 1.393 . S
C586 H578 0.950 . S
C586 C584 1.391 . S
C586 C587 1.400 . S
C587 C586 1.400 . S
C587 C588 1.398 . S
C587 C593 1.491 1_556 S
C588 H579 0.950 . S
C588 C587 1.398 . S
C588 C589 1.391 . S
C589 H577 0.950 . S
C589 C585 1.393 . S
C589 C588 1.391 . S
C590 H580 0.950 . S
C590 C591 1.386 . S
C590 C592 1.391 . S
C591 C590 1.386 . S
C591 C595 1.393 . S
C592 H581 0.950 . S
C592 C590 1.391 . S
C592 C593 1.400 . S
C593 C587 1.491 1_554 S
C593 C592 1.400 . S
C593 C594 1.398 . S
C594 H582 0.950 . S
C594 C593 1.398 . S
C594 C595 1.391 . S
C595 H583 0.950 . S
C595 C591 1.393 . S
C595 C594 1.391 . S
H596 C604 0.950 . S
H597 C609 0.950 . S
H598 C606 0.950 . S
H599 C608 0.950 . S
H600 C610 0.950 . S
H601 C612 0.950 . S
H602 C614 0.950 . S
H603 C615 0.950 . S
C604 H596 0.950 . S
C604 C605 1.386 . S
C604 C606 1.391 . S
C605 C604 1.386 . S
C605 C609 1.393 . S
C606 H598 0.950 . S
C606 C604 1.391 . S
C606 C607 1.400 . S
C607 C606 1.400 . S
C607 C608 1.398 . S
C607 C613 1.491 . S
C608 H599 0.950 . S
C608 C607 1.398 . S
C608 C609 1.391 . S
C609 H597 0.950 . S
C609 C605 1.393 . S
C609 C608 1.391 . S
C610 H600 0.950 . S
C610 C611 1.386 . S
C610 C612 1.391 . S
C611 C610 1.386 . S
C611 C615 1.393 . S
C612 H601 0.950 . S
C612 C610 1.391 . S
C612 C613 1.400 . S
C613 C607 1.491 . S
C613 C612 1.400 . S
C613 C614 1.398 . S
C614 H602 0.950 . S
C614 C613 1.398 . S
C614 C615 1.391 . S
C615 H603 0.950 . S
C615 C611 1.393 . S
C615 C614 1.391 . S
H616 C624 0.950 . S
H617 C629 0.950 . S
H618 C626 0.950 . S
H619 C628 0.950 . S
H620 C630 0.950 . S
H621 C632 0.950 . S
H622 C634 0.950 . S
H623 C635 0.950 . S
C624 H616 0.950 . S
C624 C625 1.386 . S
C624 C626 1.391 . S
C625 C624 1.386 . S
C625 C629 1.393 . S
C626 H618 0.950 . S
C626 C624 1.391 . S
C626 C627 1.400 . S
C627 C626 1.400 . S
C627 C628 1.398 . S
C627 C633 1.491 . S
C628 H619 0.950 . S
C628 C627 1.398 . S
C628 C629 1.391 . S
C629 H617 0.950 . S
C629 C625 1.393 . S
C629 C628 1.391 . S
C630 H620 0.950 . S
C630 C631 1.386 . S
C630 C632 1.391 . S
C631 C630 1.386 . S
C631 C635 1.393 . S
C632 H621 0.950 . S
C632 C630 1.391 . S
C632 C633 1.400 . S
C633 C627 1.491 . S
C633 C632 1.400 . S
C633 C634 1.398 . S
C634 H622 0.950 . S
C634 C633 1.398 . S
C634 C635 1.391 . S
C635 H623 0.950 . S
C635 C631 1.393 . S
C635 C634 1.391 . S
H636 C644 0.950 . S
H637 C649 0.950 . S
H638 C646 0.950 . S
H639 C648 0.950 . S
H640 C650 0.950 . S
H641 C652 0.950 . S
H642 C654 0.950 . S
H643 C655 0.950 . S
C644 H636 0.950 . S
C644 C645 1.386 . S
C644 C646 1.391 . S
C645 C644 1.386 . S
C645 C649 1.393 . S
C646 H638 0.950 . S
C646 C644 1.391 . S
C646 C647 1.400 . S
C647 C646 1.400 . S
C647 C648 1.398 . S
C647 C653 1.491 . S
C648 H639 0.950 . S
C648 C647 1.398 . S
C648 C649 1.391 . S
C649 H637 0.950 . S
C649 C645 1.393 . S
C649 C648 1.391 . S
C650 H640 0.950 . S
C650 C651 1.386 . S
C650 C652 1.391 . S
C651 C650 1.386 . S
C651 C655 1.393 . S
C652 H641 0.950 . S
C652 C650 1.391 . S
C652 C653 1.400 . S
C653 C647 1.491 . S
C653 C652 1.400 . S
C653 C654 1.398 . S
C654 H642 0.950 . S
C654 C653 1.398 . S
C654 C655 1.391 . S
C655 H643 0.950 . S
C655 C651 1.393 . S
C655 C654 1.391 . S
H656 C664 0.950 . S
H657 C669 0.950 . S
H658 C666 0.950 . S
H659 C668 0.950 . S
H660 C670 0.950 . S
H661 C672 0.950 . S
H662 C674 0.950 . S
H663 C675 0.950 . S
C664 H656 0.950 . S
C664 C665 1.386 . S
C664 C666 1.391 1_655 S
C665 C664 1.386 . S
C665 C669 1.393 . S
C666 H658 0.950 . S
C666 C664 1.391 1_455 S
C666 C667 1.400 1_455 S
C667 C666 1.400 1_655 S
C667 C668 1.398 . S
C667 C673 1.491 1_655 S
C668 H659 0.950 . S
C668 C667 1.398 . S
C668 C669 1.391 . S
C669 H657 0.950 . S
C669 C665 1.393 . S
C669 C668 1.391 . S
C670 H660 0.950 . S
C670 C671 1.386 . S
C670 C672 1.391 1_455 S
C671 C670 1.386 . S
C671 C675 1.393 . S
C672 H661 0.950 . S
C672 C670 1.391 1_655 S
C672 C673 1.400 1_655 S
C673 C667 1.491 1_455 S
C673 C672 1.400 1_455 S
C673 C674 1.398 . S
C674 H662 0.950 . S
C674 C673 1.398 . S
C674 C675 1.391 . S
C675 H663 0.950 . S
C675 C671 1.393 . S
C675 C674 1.391 . S
H676 C684 0.950 . S
H677 C689 0.950 . S
H678 C686 0.950 1_565 S
H679 C688 0.950 . S
H680 C690 0.950 . S
H681 C692 0.950 1_545 S
H682 C694 0.950 . S
H683 C695 0.950 . S
C684 H676 0.950 . S
C684 C685 1.386 . S
C684 C686 1.391 . S
C685 C684 1.386 . S
C685 C689 1.393 . S
C686 H678 0.950 1_545 S
C686 C684 1.391 . S
C686 C687 1.400 . S
C687 C686 1.400 . S
C687 C688 1.398 . S
C687 C693 1.491 1_545 S
C688 H679 0.950 . S
C688 C687 1.398 . S
C688 C689 1.391 . S
C689 H677 0.950 . S
C689 C685 1.393 . S
C689 C688 1.391 . S
C690 H680 0.950 . S
C690 C691 1.386 . S
C690 C692 1.391 . S
C691 C690 1.386 . S
C691 C695 1.393 . S
C692 H681 0.950 1_565 S
C692 C690 1.391 . S
C692 C693 1.400 . S
C693 C687 1.491 1_565 S
C693 C692 1.400 . S
C693 C694 1.398 . S
C694 H682 0.950 . S
C694 C693 1.398 . S
C694 C695 1.391 . S
C695 H683 0.950 . S
C695 C691 1.393 . S
C695 C694 1.391 . S
H696 C704 0.950 . S
H697 C709 0.950 . S
H698 C706 0.950 . S
H699 C708 0.950 . S
H700 C710 0.950 . S
H701 C712 0.950 . S
H702 C714 0.950 . S
H703 C715 0.950 . S
C704 H696 0.950 . S
C704 C705 1.386 . S
C704 C706 1.391 . S
C705 C704 1.386 . S
C705 C709 1.393 . S
C706 H698 0.950 . S
C706 C704 1.391 . S
C706 C707 1.400 . S
C707 C706 1.400 . S
C707 C708 1.398 . S
C707 C713 1.491 . S
C708 H699 0.950 . S
C708 C707 1.398 . S
C708 C709 1.391 . S
C709 H697 0.950 . S
C709 C705 1.393 . S
C709 C708 1.391 . S
C710 H700 0.950 . S
C710 C711 1.386 . S
C710 C712 1.391 . S
C711 C710 1.386 . S
C711 C715 1.393 . S
C712 H701 0.950 . S
C712 C710 1.391 . S
C712 C713 1.400 . S
C713 C707 1.491 . S
C713 C712 1.400 . S
C713 C714 1.398 . S
C714 H702 0.950 . S
C714 C713 1.398 . S
C714 C715 1.391 . S
C715 H703 0.950 . S
C715 C711 1.393 . S
C715 C714 1.391 . S
H716 C724 0.950 . S
H717 C729 0.950 . S
H718 C726 0.950 . S
H719 C728 0.950 . S
H720 C730 0.950 . S
H721 C732 0.950 . S
H722 C734 0.950 . S
H723 C735 0.950 . S
C724 H716 0.950 . S
C724 C725 1.386 . S
C724 C726 1.391 . S
C725 C724 1.386 . S
C725 C729 1.393 . S
C726 H718 0.950 . S
C726 C724 1.391 . S
C726 C727 1.400 . S
C727 C726 1.400 . S
C727 C728 1.398 1_655 S
C727 C733 1.491 1_655 S
C728 H719 0.950 . S
C728 C727 1.398 1_455 S
C728 C729 1.391 1_455 S
C729 H717 0.950 . S
C729 C725 1.393 . S
C729 C728 1.391 1_655 S
C730 H720 0.950 . S
C730 C731 1.386 . S
C730 C732 1.391 . S
C731 C730 1.386 . S
C731 C735 1.393 . S
C732 H721 0.950 . S
C732 C730 1.391 . S
C732 C733 1.400 . S
C733 C727 1.491 1_455 S
C733 C732 1.400 . S
C733 C734 1.398 1_455 S
C734 H722 0.950 . S
C734 C733 1.398 1_655 S
C734 C735 1.391 1_655 S
C735 H723 0.950 . S
C735 C731 1.393 . S
C735 C734 1.391 1_455 S
H736 C744 0.950 . S
H737 C749 0.950 . S
H738 C746 0.950 . S
H739 C748 0.950 . S
H740 C750 0.950 . S
H741 C752 0.950 . S
H742 C754 0.950 . S
H743 C755 0.950 . S
C744 H736 0.950 . S
C744 C745 1.386 . S
C744 C746 1.391 . S
C745 C744 1.386 . S
C745 C749 1.393 . S
C746 H738 0.950 . S
C746 C744 1.391 . S
C746 C747 1.400 . S
C747 C746 1.400 . S
C747 C748 1.398 . S
C747 C753 1.491 1_545 S
C748 H739 0.950 . S
C748 C747 1.398 . S
C748 C749 1.391 . S
C749 H737 0.950 . S
C749 C745 1.393 . S
C749 C748 1.391 . S
C750 H740 0.950 . S
C750 C751 1.386 . S
C750 C752 1.391 . S
C751 C750 1.386 . S
C751 C755 1.393 . S
C752 H741 0.950 . S
C752 C750 1.391 . S
C752 C753 1.400 . S
C753 C747 1.491 1_565 S
C753 C752 1.400 . S
C753 C754 1.398 . S
C754 H742 0.950 . S
C754 C753 1.398 . S
C754 C755 1.391 . S
C755 H743 0.950 . S
C755 C751 1.393 . S
C755 C754 1.391 . S
H756 C764 0.950 . S
H757 C769 0.950 . S
H758 C766 0.950 . S
H759 C768 0.950 . S
H760 C770 0.950 . S
H761 C772 0.950 . S
H762 C774 0.950 . S
H763 C775 0.950 . S
C764 H756 0.950 . S
C764 C765 1.386 . S
C764 C766 1.391 . S
C765 C764 1.386 . S
C765 C769 1.393 . S
C766 H758 0.950 . S
C766 C764 1.391 . S
C766 C767 1.400 . S
C767 C766 1.400 . S
C767 C768 1.398 . S
C767 C773 1.491 1_455 S
C768 H759 0.950 . S
C768 C767 1.398 . S
C768 C769 1.391 . S
C769 H757 0.950 . S
C769 C765 1.393 . S
C769 C768 1.391 . S
C770 H760 0.950 . S
C770 C771 1.386 . S
C770 C772 1.391 . S
C771 C770 1.386 . S
C771 C775 1.393 . S
C772 H761 0.950 . S
C772 C770 1.391 . S
C772 C773 1.400 . S
C773 C767 1.491 1_655 S
C773 C772 1.400 . S
C773 C774 1.398 . S
C774 H762 0.950 . S
C774 C773 1.398 . S
C774 C775 1.391 . S
C775 H763 0.950 . S
C775 C771 1.393 . S
C775 C774 1.391 . S
H776 C784 0.950 . S
H777 C789 0.950 . S
H778 C786 0.950 . S
H779 C788 0.950 . S
H780 C790 0.950 . S
H781 C792 0.950 . S
H782 C794 0.950 . S
H783 C795 0.950 . S
C784 H776 0.950 . S
C784 C785 1.386 . S
C784 C786 1.391 . S
C785 C784 1.386 . S
C785 C789 1.393 . S
C786 H778 0.950 . S
C786 C784 1.391 . S
C786 C787 1.400 . S
C787 C786 1.400 . S
C787 C788 1.398 . S
C787 C793 1.491 1_565 S
C788 H779 0.950 . S
C788 C787 1.398 . S
C788 C789 1.391 . S
C789 H777 0.950 . S
C789 C785 1.393 . S
C789 C788 1.391 . S
C790 H780 0.950 . S
C790 C791 1.386 . S
C790 C792 1.391 . S
C791 C790 1.386 . S
C791 C795 1.393 . S
C792 H781 0.950 . S
C792 C790 1.391 . S
C792 C793 1.400 . S
C793 C787 1.491 1_545 S
C793 C792 1.400 . S
C793 C794 1.398 . S
C794 H782 0.950 . S
C794 C793 1.398 . S
C794 C795 1.391 . S
C795 H783 0.950 . S
C795 C791 1.393 . S
C795 C794 1.391 . S
H796 C804 0.950 . S
H797 C809 0.950 . S
H798 C806 0.950 . S
H799 C808 0.950 . S
H800 C810 0.950 . S
H801 C812 0.950 . S
H802 C814 0.950 . S
H803 C815 0.950 . S
C804 H796 0.950 . S
C804 C805 1.386 . S
C804 C806 1.391 . S
C805 C804 1.386 . S
C805 C809 1.393 . S
C806 H798 0.950 . S
C806 C804 1.391 . S
C806 C807 1.400 . S
C807 C806 1.400 . S
C807 C808 1.398 . S
C807 C813 1.491 . S
C808 H799 0.950 . S
C808 C807 1.398 . S
C808 C809 1.391 . S
C809 H797 0.950 . S
C809 C805 1.393 . S
C809 C808 1.391 . S
C810 H800 0.950 . S
C810 C811 1.386 . S
C810 C812 1.391 . S
C811 C810 1.386 . S
C811 C815 1.393 . S
C812 H801 0.950 . S
C812 C810 1.391 . S
C812 C813 1.400 . S
C813 C807 1.491 . S
C813 C812 1.400 . S
C813 C814 1.398 . S
C814 H802 0.950 . S
C814 C813 1.398 . S
C814 C815 1.391 . S
C815 H803 0.950 . S
C815 C811 1.393 . S
C815 C814 1.391 . S
H816 C824 0.950 . S
H817 C829 0.950 . S
H818 C826 0.950 . S
H819 C828 0.950 . S
H820 C830 0.950 . S
H821 C832 0.950 . S
H822 C834 0.950 . S
H823 C835 0.950 . S
C824 H816 0.950 . S
C824 C825 1.386 . S
C824 C826 1.391 . S
C825 C824 1.386 . S
C825 C829 1.393 . S
C826 H818 0.950 . S
C826 C824 1.391 . S
C826 C827 1.400 . S
C827 C826 1.400 . S
C827 C828 1.398 . S
C827 C833 1.491 1_655 S
C828 H819 0.950 . S
C828 C827 1.398 . S
C828 C829 1.391 . S
C829 H817 0.950 . S
C829 C825 1.393 . S
C829 C828 1.391 . S
C830 H820 0.950 . S
C830 C831 1.386 . S
C830 C832 1.391 . S
C831 C830 1.386 . S
C831 C835 1.393 . S
C832 H821 0.950 . S
C832 C830 1.391 . S
C832 C833 1.400 . S
C833 C827 1.491 1_455 S
C833 C832 1.400 . S
C833 C834 1.398 . S
C834 H822 0.950 . S
C834 C833 1.398 . S
C834 C835 1.391 . S
C835 H823 0.950 . S
C835 C831 1.393 . S
C835 C834 1.391 . S
H836 C844 0.950 . S
H837 C849 0.950 . S
H838 C846 0.950 . S
H839 C848 0.950 . S
H840 C850 0.950 . S
H841 C852 0.950 . S
H842 C854 0.950 . S
H843 C855 0.950 . S
C844 H836 0.950 . S
C844 C845 1.386 . S
C844 C846 1.391 . S
C845 C844 1.386 . S
C845 C849 1.393 . S
C846 H838 0.950 . S
C846 C844 1.391 . S
C846 C847 1.400 . S
C847 C846 1.400 . S
C847 C848 1.398 . S
C847 C853 1.491 1_565 S
C848 H839 0.950 . S
C848 C847 1.398 . S
C848 C849 1.391 . S
C849 H837 0.950 . S
C849 C845 1.393 . S
C849 C848 1.391 . S
C850 H840 0.950 . S
C850 C851 1.386 . S
C850 C852 1.391 . S
C851 C850 1.386 . S
C851 C855 1.393 . S
C852 H841 0.950 . S
C852 C850 1.391 . S
C852 C853 1.400 . S
C853 C847 1.491 1_545 S
C853 C852 1.400 . S
C853 C854 1.398 . S
C854 H842 0.950 . S
C854 C853 1.398 . S
C854 C855 1.391 . S
C855 H843 0.950 . S
C855 C851 1.393 . S
C855 C854 1.391 . S
H856 C864 0.950 . S
H857 C869 0.950 . S
H858 C866 0.950 . S
H859 C868 0.950 . S
H860 C870 0.950 . S
H861 C872 0.950 . S
H862 C874 0.950 . S
H863 C875 0.950 . S
C864 H856 0.950 . S
C864 C865 1.386 . S
C864 C866 1.391 . S
C865 C864 1.386 . S
C865 C869 1.393 . S
C866 H858 0.950 . S
C866 C864 1.391 . S
C866 C867 1.400 . S
C867 C866 1.400 . S
C867 C868 1.398 . S
C867 C873 1.491 . S
C868 H859 0.950 . S
C868 C867 1.398 . S
C868 C869 1.391 . S
C869 H857 0.950 . S
C869 C865 1.393 . S
C869 C868 1.391 . S
C870 H860 0.950 . S
C870 C871 1.386 . S
C870 C872 1.391 . S
C871 C870 1.386 . S
C871 C875 1.393 . S
C872 H861 0.950 . S
C872 C870 1.391 . S
C872 C873 1.400 . S
C873 C867 1.491 . S
C873 C872 1.400 . S
C873 C874 1.398 . S
C874 H862 0.950 . S
C874 C873 1.398 . S
C874 C875 1.391 . S
C875 H863 0.950 . S
C875 C871 1.393 . S
C875 C874 1.391 . S
H876 C884 0.950 . S
H877 C889 0.950 . S
H878 C886 0.950 . S
H879 C888 0.950 . S
H880 C890 0.950 . S
H881 C892 0.950 . S
H882 C894 0.950 . S
H883 C895 0.949 . S
C884 H876 0.950 . S
C884 C885 1.386 . S
C884 C886 1.391 . S
C885 C884 1.386 . S
C885 C889 1.393 . S
C886 H878 0.950 . S
C886 C884 1.391 . S
C886 C887 1.400 . S
C887 C886 1.400 . S
C887 C888 1.398 . S
C887 C893 1.491 . S
C888 H879 0.950 . S
C888 C887 1.398 . S
C888 C889 1.391 . S
C889 H877 0.950 . S
C889 C885 1.393 . S
C889 C888 1.391 . S
C890 H880 0.950 . S
C890 C891 1.386 . S
C890 C892 1.391 . S
C891 C890 1.386 . S
C891 C895 1.393 . S
C892 H881 0.950 . S
C892 C890 1.391 . S
C892 C893 1.400 . S
C893 C887 1.491 . S
C893 C892 1.400 . S
C893 C894 1.398 . S
C894 H882 0.950 . S
C894 C893 1.398 . S
C894 C895 1.391 . S
C895 H883 0.949 . S
C895 C891 1.393 . S
C895 C894 1.391 . S
H896 C904 0.950 . S
H897 C909 0.950 . S
H898 C906 0.950 . S
H899 C908 0.950 . S
H900 C910 0.950 . S
H901 C912 0.950 . S
H902 C914 0.950 . S
H903 C915 0.950 . S
C904 H896 0.950 . S
C904 C905 1.386 . S
C904 C906 1.391 . S
C905 C904 1.386 . S
C905 C909 1.393 . S
C906 H898 0.950 . S
C906 C904 1.391 . S
C906 C907 1.400 . S
C907 C906 1.400 . S
C907 C908 1.398 . S
C907 C913 1.491 . S
C908 H899 0.950 . S
C908 C907 1.398 . S
C908 C909 1.391 . S
C909 H897 0.950 . S
C909 C905 1.393 . S
C909 C908 1.391 . S
C910 H900 0.950 . S
C910 C911 1.386 . S
C910 C912 1.391 . S
C911 C910 1.386 . S
C911 C915 1.393 . S
C912 H901 0.950 . S
C912 C910 1.391 . S
C912 C913 1.400 . S
C913 C907 1.491 . S
C913 C912 1.400 . S
C913 C914 1.398 . S
C914 H902 0.950 . S
C914 C913 1.398 . S
C914 C915 1.391 . S
C915 H903 0.950 . S
C915 C911 1.393 . S
C915 C914 1.391 . S
H916 C924 0.950 . S
H917 C929 0.950 . S
H918 C926 0.950 . S
H919 C928 0.950 . S
H920 C930 0.950 . S
H921 C932 0.950 . S
H922 C934 0.950 . S
H923 C935 0.950 . S
C924 H916 0.950 . S
C924 C925 1.386 . S
C924 C926 1.391 . S
C925 C924 1.386 . S
C925 C929 1.393 . S
C926 H918 0.950 . S
C926 C924 1.391 . S
C926 C927 1.400 . S
C927 C926 1.400 . S
C927 C928 1.398 . S
C927 C933 1.491 . S
C928 H919 0.950 . S
C928 C927 1.398 . S
C928 C929 1.391 . S
C929 H917 0.950 . S
C929 C925 1.393 . S
C929 C928 1.391 . S
C930 H920 0.950 . S
C930 C931 1.386 . S
C930 C932 1.391 . S
C931 C930 1.386 . S
C931 C935 1.393 . S
C932 H921 0.950 . S
C932 C930 1.391 . S
C932 C933 1.400 . S
C933 C927 1.491 . S
C933 C932 1.400 . S
C933 C934 1.398 . S
C934 H922 0.950 . S
C934 C933 1.398 . S
C934 C935 1.391 . S
C935 H923 0.950 . S
C935 C931 1.393 . S
C935 C934 1.391 . S
H936 C944 0.950 . S
H937 C949 0.950 . S
H938 C946 0.950 . S
H939 C948 0.950 . S
H940 C950 0.950 . S
H941 C952 0.950 . S
H942 C954 0.950 . S
H943 C955 0.950 . S
C944 H936 0.950 . S
C944 C945 1.386 . S
C944 C946 1.391 . S
C945 C944 1.386 . S
C945 C949 1.393 . S
C946 H938 0.950 . S
C946 C944 1.391 . S
C946 C947 1.400 . S
C947 C946 1.400 . S
C947 C948 1.398 . S
C947 C953 1.491 . S
C948 H939 0.950 . S
C948 C947 1.398 . S
C948 C949 1.391 . S
C949 H937 0.950 . S
C949 C945 1.393 . S
C949 C948 1.391 . S
C950 H940 0.950 . S
C950 C951 1.386 . S
C950 C952 1.391 . S
C951 C950 1.386 . S
C951 C955 1.393 . S
C952 H941 0.950 . S
C952 C950 1.391 . S
C952 C953 1.400 . S
C953 C947 1.491 . S
C953 C952 1.400 . S
C953 C954 1.398 . S
C954 H942 0.950 . S
C954 C953 1.398 . S
C954 C955 1.391 . S
C955 H943 0.950 . S
C955 C951 1.393 . S
C955 C954 1.391 . S
H956 C964 0.950 . S
H957 C969 0.950 . S
H958 C966 0.950 . S
H959 C968 0.950 . S
H960 C970 0.950 . S
H961 C972 0.950 . S
H962 C974 0.950 . S
H963 C975 0.950 . S
C964 H956 0.950 . S
C964 C965 1.386 . S
C964 C966 1.391 . S
C965 C964 1.386 . S
C965 C969 1.393 . S
C966 H958 0.950 . S
C966 C964 1.391 . S
C966 C967 1.400 . S
C967 C966 1.400 . S
C967 C968 1.398 . S
C967 C973 1.491 . S
C968 H959 0.950 . S
C968 C967 1.398 . S
C968 C969 1.391 . S
C969 H957 0.950 . S
C969 C965 1.393 . S
C969 C968 1.391 . S
C970 H960 0.950 . S
C970 C971 1.386 . S
C970 C972 1.391 . S
C971 C970 1.386 . S
C971 C975 1.393 . S
C972 H961 0.950 . S
C972 C970 1.391 . S
C972 C973 1.400 . S
C973 C967 1.491 . S
C973 C972 1.400 . S
C973 C974 1.398 . S
C974 H962 0.950 . S
C974 C973 1.398 . S
C974 C975 1.391 . S
C975 H963 0.950 . S
C975 C971 1.393 . S
C975 C974 1.391 . S
H976 C984 0.950 . S
H977 C989 0.950 1_545 S
H978 C986 0.950 . S
H979 C988 0.950 . S
H980 C990 0.950 1_655 S
H981 C992 0.950 . S
H982 C994 0.950 . S
H983 C995 0.950 . S
C984 H976 0.950 . S
C984 C985 1.386 . S
C984 C986 1.391 . S
C985 C984 1.386 . S
C985 C989 1.393 . S
C986 H978 0.950 . S
C986 C984 1.391 . S
C986 C987 1.400 . S
C987 C986 1.400 . S
C987 C988 1.398 . S
C987 C993 1.491 . S
C988 H979 0.950 . S
C988 C987 1.398 . S
C988 C989 1.391 . S
C989 H977 0.950 1_565 S
C989 C985 1.393 . S
C989 C988 1.391 . S
C990 H980 0.950 1_455 S
C990 C991 1.386 . S
C990 C992 1.391 . S
C991 C990 1.386 . S
C991 C995 1.393 . S
C992 H981 0.950 . S
C992 C990 1.391 . S
C992 C993 1.400 . S
C993 C987 1.491 . S
C993 C992 1.400 . S
C993 C994 1.398 . S
C994 H982 0.950 . S
C994 C993 1.398 . S
C994 C995 1.391 . S
C995 H983 0.950 . S
C995 C991 1.393 . S
C995 C994 1.391 . S
C405 N311 1.531 . S
C411 N14 1.538 . S
C425 N47 1.532 . S
C431 N344 1.540 . S
C445 N80 1.536 . S
C451 N377 1.530 . S
C465 N113 1.541 . S
C471 N212 1.547 . S
C485 N146 1.537 . S
C491 N245 1.545 . S
C505 N179 1.530 . S
C511 N278 1.532 . S
C525 N335 1.391 . S
C531 N5 1.383 . S
C545 N368 1.373 . S
C551 N38 1.392 . S
C565 N71 1.391 . S
C571 N203 1.383 . S
C585 N236 1.393 . S
C591 N104 1.373 . S
C605 N137 1.381 . S
C611 N269 1.392 . S
C625 N170 1.377 . S
C631 N302 1.385 . S
C645 C116 1.699 . S
C651 C17 1.696 . S
C665 C50 1.698 . S
C671 C149 1.701 . S
C685 C182 1.709 . S
C691 C83 1.710 . S
C705 C314 1.690 . S
C711 C215 1.692 . S
C725 C248 1.695 . S
C731 C347 1.692 . S
C745 C380 1.683 . S
C751 C281 1.684 . S
C765 C28 1.228 . S
C771 C391 1.238 . S
C785 C226 1.217 . S
C791 C61 1.247 . S
C805 C94 1.220 . S
C811 C259 1.243 . S
C825 C127 1.218 . S
C831 C292 1.247 . S
C845 C160 1.223 . S
C851 C325 1.243 . S
C865 C358 1.246 . S
C871 C193 1.219 . S
C885 C8 0.707 . S
C891 C272 0.708 . S
C905 C305 0.707 . S
C911 C41 0.704 . S
C925 C74 0.705 . S
C931 C338 0.703 . S
C945 C371 0.706 . S
C951 C107 0.708 . S
C965 C206 0.706 . S
C971 C140 0.708 . S
C985 C173 0.703 . S
C991 C239 0.703 . S
