# Generated by pormake.
# Topology ict, (4)-cn, num edge types: 1
# Building blocks:
#     Node 0, Type 0, BuildingBlock: QUQFOY_clean_sbu_1, # of connection points: 4
#     Node 1, Type 0, BuildingBlock: QUQFOY_clean_sbu_1, # of connection points: 4
#     Node 2, Type 0, BuildingBlock: QUQFOY_clean_sbu_1, # of connection points: 4
#     Node 3, Type 0, BuildingBlock: QUQFOY_clean_sbu_1, # of connection points: 4
#     Node 4, Type 0, BuildingBlock: QUQFOY_clean_sbu_1, # of connection points: 4
#     Node 5, Type 0, BuildingBlock: QUQFOY_clean_sbu_1, # of connection points: 4
#     Node 6, Type 0, BuildingBlock: QUQFOY_clean_sbu_1, # of connection points: 4
#     Node 7, Type 0, BuildingBlock: QUQFOY_clean_sbu_1, # of connection points: 4
#     Node 8, Type 0, BuildingBlock: QUQFOY_clean_sbu_1, # of connection points: 4
#     Node 9, Type 0, BuildingBlock: QUQFOY_clean_sbu_1, # of connection points: 4
#     Node 10, Type 0, BuildingBlock: QUQFOY_clean_sbu_1, # of connection points: 4
#     Node 11, Type 0, BuildingBlock: QUQFOY_clean_sbu_1, # of connection points: 4
#     Node 12, Type 0, BuildingBlock: QUQFOY_clean_sbu_1, # of connection points: 4
#     Node 13, Type 0, BuildingBlock: QUQFOY_clean_sbu_1, # of connection points: 4
#     Node 14, Type 0, BuildingBlock: QUQFOY_clean_sbu_1, # of connection points: 4
#     Node 15, Type 0, BuildingBlock: QUQFOY_clean_sbu_1, # of connection points: 4
#     Node 16, Type 0, BuildingBlock: QUQFOY_clean_sbu_1, # of connection points: 4
#     Node 17, Type 0, BuildingBlock: QUQFOY_clean_sbu_1, # of connection points: 4
#     Node 18, Type 0, BuildingBlock: QUQFOY_clean_sbu_1, # of connection points: 4
#     Node 19, Type 0, BuildingBlock: QUQFOY_clean_sbu_1, # of connection points: 4
#     Node 20, Type 0, BuildingBlock: QUQFOY_clean_sbu_1, # of connection points: 4
#     Node 21, Type 0, BuildingBlock: QUQFOY_clean_sbu_1, # of connection points: 4
#     Node 22, Type 0, BuildingBlock: QUQFOY_clean_sbu_1, # of connection points: 4
#     Node 23, Type 0, BuildingBlock: QUQFOY_clean_sbu_1, # of connection points: 4
#     Node 24, Type 0, BuildingBlock: QUQFOY_clean_sbu_1, # of connection points: 4
#     Node 25, Type 0, BuildingBlock: QUQFOY_clean_sbu_1, # of connection points: 4
#     Node 26, Type 0, BuildingBlock: QUQFOY_clean_sbu_1, # of connection points: 4
#     Node 27, Type 0, BuildingBlock: QUQFOY_clean_sbu_1, # of connection points: 4
#     Node 28, Type 0, BuildingBlock: QUQFOY_clean_sbu_1, # of connection points: 4
#     Node 29, Type 0, BuildingBlock: QUQFOY_clean_sbu_1, # of connection points: 4
#     Node 30, Type 0, BuildingBlock: QUQFOY_clean_sbu_1, # of connection points: 4
#     Node 31, Type 0, BuildingBlock: QUQFOY_clean_sbu_1, # of connection points: 4
#     Node 32, Type 0, BuildingBlock: QUQFOY_clean_sbu_1, # of connection points: 4
#     Node 33, Type 0, BuildingBlock: QUQFOY_clean_sbu_1, # of connection points: 4
#     Node 34, Type 0, BuildingBlock: QUQFOY_clean_sbu_1, # of connection points: 4
#     Node 35, Type 0, BuildingBlock: QUQFOY_clean_sbu_1, # of connection points: 4
#     Edge 36, Type (0, 0), BuildingBlock: KIFKEQ_clean_linker_1, # of connection points: 2
#     Edge 37, Type (0, 0), BuildingBlock: KIFKEQ_clean_linker_1, # of connection points: 2
#     Edge 38, Type (0, 0), BuildingBlock: KIFKEQ_clean_linker_1, # of connection points: 2
#     Edge 39, Type (0, 0), BuildingBlock: KIFKEQ_clean_linker_1, # of connection points: 2
#     Edge 40, Type (0, 0), BuildingBlock: KIFKEQ_clean_linker_1, # of connection points: 2
#     Edge 41, Type (0, 0), BuildingBlock: KIFKEQ_clean_linker_1, # of connection points: 2
#     Edge 42, Type (0, 0), BuildingBlock: KIFKEQ_clean_linker_1, # of connection points: 2
#     Edge 43, Type (0, 0), BuildingBlock: KIFKEQ_clean_linker_1, # of connection points: 2
#     Edge 44, Type (0, 0), BuildingBlock: KIFKEQ_clean_linker_1, # of connection points: 2
#     Edge 45, Type (0, 0), BuildingBlock: KIFKEQ_clean_linker_1, # of connection points: 2
#     Edge 46, Type (0, 0), BuildingBlock: KIFKEQ_clean_linker_1, # of connection points: 2
#     Edge 47, Type (0, 0), BuildingBlock: KIFKEQ_clean_linker_1, # of connection points: 2
#     Edge 48, Type (0, 0), BuildingBlock: KIFKEQ_clean_linker_1, # of connection points: 2
#     Edge 49, Type (0, 0), BuildingBlock: KIFKEQ_clean_linker_1, # of connection points: 2
#     Edge 50, Type (0, 0), BuildingBlock: KIFKEQ_clean_linker_1, # of connection points: 2
#     Edge 51, Type (0, 0), BuildingBlock: KIFKEQ_clean_linker_1, # of connection points: 2
#     Edge 52, Type (0, 0), BuildingBlock: KIFKEQ_clean_linker_1, # of connection points: 2
#     Edge 53, Type (0, 0), BuildingBlock: KIFKEQ_clean_linker_1, # of connection points: 2
#     Edge 54, Type (0, 0), BuildingBlock: KIFKEQ_clean_linker_1, # of connection points: 2
#     Edge 55, Type (0, 0), BuildingBlock: KIFKEQ_clean_linker_1, # of connection points: 2
#     Edge 56, Type (0, 0), BuildingBlock: KIFKEQ_clean_linker_1, # of connection points: 2
#     Edge 57, Type (0, 0), BuildingBlock: KIFKEQ_clean_linker_1, # of connection points: 2
#     Edge 58, Type (0, 0), BuildingBlock: KIFKEQ_clean_linker_1, # of connection points: 2
#     Edge 59, Type (0, 0), BuildingBlock: KIFKEQ_clean_linker_1, # of connection points: 2
#     Edge 60, Type (0, 0), BuildingBlock: KIFKEQ_clean_linker_1, # of connection points: 2
#     Edge 61, Type (0, 0), BuildingBlock: KIFKEQ_clean_linker_1, # of connection points: 2
#     Edge 62, Type (0, 0), BuildingBlock: KIFKEQ_clean_linker_1, # of connection points: 2
#     Edge 63, Type (0, 0), BuildingBlock: KIFKEQ_clean_linker_1, # of connection points: 2
#     Edge 64, Type (0, 0), BuildingBlock: KIFKEQ_clean_linker_1, # of connection points: 2
#     Edge 65, Type (0, 0), BuildingBlock: KIFKEQ_clean_linker_1, # of connection points: 2
#     Edge 66, Type (0, 0), BuildingBlock: KIFKEQ_clean_linker_1, # of connection points: 2
#     Edge 67, Type (0, 0), BuildingBlock: KIFKEQ_clean_linker_1, # of connection points: 2
#     Edge 68, Type (0, 0), BuildingBlock: KIFKEQ_clean_linker_1, # of connection points: 2
#     Edge 69, Type (0, 0), BuildingBlock: KIFKEQ_clean_linker_1, # of connection points: 2
#     Edge 70, Type (0, 0), BuildingBlock: KIFKEQ_clean_linker_1, # of connection points: 2
#     Edge 71, Type (0, 0), BuildingBlock: KIFKEQ_clean_linker_1, # of connection points: 2
#     Edge 72, Type (0, 0), BuildingBlock: KIFKEQ_clean_linker_1, # of connection points: 2
#     Edge 73, Type (0, 0), BuildingBlock: KIFKEQ_clean_linker_1, # of connection points: 2
#     Edge 74, Type (0, 0), BuildingBlock: KIFKEQ_clean_linker_1, # of connection points: 2
#     Edge 75, Type (0, 0), BuildingBlock: KIFKEQ_clean_linker_1, # of connection points: 2
#     Edge 76, Type (0, 0), BuildingBlock: KIFKEQ_clean_linker_1, # of connection points: 2
#     Edge 77, Type (0, 0), BuildingBlock: KIFKEQ_clean_linker_1, # of connection points: 2
#     Edge 78, Type (0, 0), BuildingBlock: KIFKEQ_clean_linker_1, # of connection points: 2
#     Edge 79, Type (0, 0), BuildingBlock: KIFKEQ_clean_linker_1, # of connection points: 2
#     Edge 80, Type (0, 0), BuildingBlock: KIFKEQ_clean_linker_1, # of connection points: 2
#     Edge 81, Type (0, 0), BuildingBlock: KIFKEQ_clean_linker_1, # of connection points: 2
#     Edge 82, Type (0, 0), BuildingBlock: KIFKEQ_clean_linker_1, # of connection points: 2
#     Edge 83, Type (0, 0), BuildingBlock: KIFKEQ_clean_linker_1, # of connection points: 2
#     Edge 84, Type (0, 0), BuildingBlock: KIFKEQ_clean_linker_1, # of connection points: 2
#     Edge 85, Type (0, 0), BuildingBlock: KIFKEQ_clean_linker_1, # of connection points: 2
#     Edge 86, Type (0, 0), BuildingBlock: KIFKEQ_clean_linker_1, # of connection points: 2
#     Edge 87, Type (0, 0), BuildingBlock: KIFKEQ_clean_linker_1, # of connection points: 2
#     Edge 88, Type (0, 0), BuildingBlock: KIFKEQ_clean_linker_1, # of connection points: 2
#     Edge 89, Type (0, 0), BuildingBlock: KIFKEQ_clean_linker_1, # of connection points: 2
#     Edge 90, Type (0, 0), BuildingBlock: KIFKEQ_clean_linker_1, # of connection points: 2
#     Edge 91, Type (0, 0), BuildingBlock: KIFKEQ_clean_linker_1, # of connection points: 2
#     Edge 92, Type (0, 0), BuildingBlock: KIFKEQ_clean_linker_1, # of connection points: 2
#     Edge 93, Type (0, 0), BuildingBlock: KIFKEQ_clean_linker_1, # of connection points: 2
#     Edge 94, Type (0, 0), BuildingBlock: KIFKEQ_clean_linker_1, # of connection points: 2
#     Edge 95, Type (0, 0), BuildingBlock: KIFKEQ_clean_linker_1, # of connection points: 2
#     Edge 96, Type (0, 0), BuildingBlock: KIFKEQ_clean_linker_1, # of connection points: 2
#     Edge 97, Type (0, 0), BuildingBlock: KIFKEQ_clean_linker_1, # of connection points: 2
#     Edge 98, Type (0, 0), BuildingBlock: KIFKEQ_clean_linker_1, # of connection points: 2
#     Edge 99, Type (0, 0), BuildingBlock: KIFKEQ_clean_linker_1, # of connection points: 2
#     Edge 100, Type (0, 0), BuildingBlock: KIFKEQ_clean_linker_1, # of connection points: 2
#     Edge 101, Type (0, 0), BuildingBlock: KIFKEQ_clean_linker_1, # of connection points: 2
#     Edge 102, Type (0, 0), BuildingBlock: KIFKEQ_clean_linker_1, # of connection points: 2
#     Edge 103, Type (0, 0), BuildingBlock: KIFKEQ_clean_linker_1, # of connection points: 2
#     Edge 104, Type (0, 0), BuildingBlock: KIFKEQ_clean_linker_1, # of connection points: 2
#     Edge 105, Type (0, 0), BuildingBlock: KIFKEQ_clean_linker_1, # of connection points: 2
#     Edge 106, Type (0, 0), BuildingBlock: KIFKEQ_clean_linker_1, # of connection points: 2
#     Edge 107, Type (0, 0), BuildingBlock: KIFKEQ_clean_linker_1, # of connection points: 2
# Relax obj value: 0.126
# Max RMSD: 0.188
# Mean RMSD: 0.188
data_MOF--net-ict--node1-QUQFOY_clean_sbu_1--edge1-KIFKEQ_clean_linker_1
_symmetry_space_group_name_H-M    P1
_symmetry_Int_Tables_number       1
_symmetry_cell_setting            triclinic
loop_
_symmetry_equiv_pos_as_xyz
'x, y, z'
_cell_length_a     71.891028
_cell_length_b     71.905051
_cell_length_c     37.175847
_cell_angle_alpha  89.941843
_cell_angle_beta   90.006742
_cell_angle_gamma 120.01046
loop_
_atom_site_label
_atom_site_type_symbol
_atom_site_fract_x
_atom_site_fract_y
_atom_site_fract_z
_atom_type_partial_charge
O0 O 0.24378 0.17266 0.043 0.0
Cd1 Cd 0.25269 0.20466 0.04918 0.0
Cd2 Cd 0.20965 0.1894 0.0408 0.0
O3 O 0.21019 0.16179 0.02808 0.0
O4 O 0.28354 0.22169 0.03589 0.0
O5 O 0.25756 0.22207 0.00438 0.0
C6 C 0.27774 0.22836 0.00814 0.0
C7 C 0.1853 0.19656 0.01075 0.0
C8 C 0.22541 0.15787 0.03277 0.0
C9 C 0.23024 0.20946 0.1122 0.0
O10 O 0.21329 0.19845 0.09386 0.0
O11 O 0.24855 0.21505 0.09875 0.0
O12 O 0.17899 0.18045 0.03216 0.0
O13 O 0.20568 0.20843 0.00508 0.0
O14 O 0.82548 0.07794 0.05309 0.0
Cd15 Cd 0.79349 0.05479 0.05881 0.0
Cd16 Cd 0.80843 0.02713 0.04635 0.0
O17 O 0.8352 0.05559 0.03113 0.0
O18 O 0.77577 0.06769 0.04445 0.0
O19 O 0.77662 0.04166 0.01384 0.0
C20 C 0.76966 0.05506 0.01691 0.0
C21 C 0.80263 0.99539 0.01851 0.0
C22 C 0.83961 0.07459 0.03882 0.0
C23 C 0.78965 0.0273 0.11995 0.0
O24 O 0.80055 0.02191 0.10012 0.0
O25 O 0.78336 0.03976 0.10795 0.0
O26 O 0.81859 0.00625 0.0397 0.0
O27 O 0.7902 0.00307 0.01145 0.0
O28 O 0.92742 0.75639 0.04282 0.0
Cd29 Cd 0.95031 0.74721 0.0483 0.0
Cd30 Cd 0.97837 0.78987 0.03822 0.0
O31 O 0.95025 0.78869 0.02225 0.0
O32 O 0.9363 0.71626 0.03579 0.0
O33 O 0.96245 0.74194 0.00343 0.0
C34 C 0.9486 0.72179 0.00786 0.0
C35 C 0.01009 0.81393 0.0083 0.0
C36 C 0.9311 0.77411 0.02916 0.0
C37 C 0.97747 0.77006 0.11078 0.0
O38 O 0.98312 0.78692 0.09225 0.0
O39 O 0.96521 0.75166 0.09733 0.0
O40 O 0.99999 0.82046 0.02851 0.0
O41 O 0.00188 0.79349 0.00399 0.0
O42 O 0.16737 0.24173 0.44182 0.0
Cd43 Cd 0.19956 0.25151 0.43507 0.0
Cd44 Cd 0.18492 0.20799 0.44162 0.0
O45 O 0.15668 0.20767 0.45278 0.0
O46 O 0.21614 0.28221 0.44929 0.0
O47 O 0.21732 0.25619 0.47936 0.0
C48 C 0.22328 0.27633 0.47629 0.0
C49 C 0.1909 0.1823 0.46993 0.0
C50 C 0.15258 0.22288 0.44993 0.0
C51 C 0.20598 0.23061 0.3714 0.0
O52 O 0.19575 0.21341 0.38949 0.0
O53 O 0.21021 0.24851 0.38496 0.0
O54 O 0.17609 0.17711 0.44622 0.0
O55 O 0.20203 0.20227 0.47897 0.0
O56 O 0.75013 0.9214 0.44184 0.0
Cd57 Cd 0.7415 0.94468 0.43618 0.0
Cd58 Cd 0.78388 0.97229 0.4483 0.0
O59 O 0.78212 0.94386 0.46387 0.0
O60 O 0.71066 0.93145 0.44911 0.0
O61 O 0.73693 0.95719 0.48115 0.0
C62 C 0.71664 0.94376 0.47704 0.0
C63 C 0.80771 0.00354 0.47938 0.0
C64 C 0.76756 0.92481 0.45635 0.0
C65 C 0.76538 0.97275 0.37515 0.0
O66 O 0.78189 0.97797 0.39438 0.0
O67 O 0.74674 0.96025 0.38758 0.0
O68 O 0.81437 0.99351 0.4593 0.0
O69 O 0.78723 0.99547 0.48298 0.0
O70 O 0.07113 0.82556 0.44142 0.0
Cd71 Cd 0.0482 0.7936 0.43456 0.0
Cd72 Cd 0.02017 0.8082 0.44387 0.0
O73 O 0.04812 0.83586 0.45729 0.0
O74 O 0.06183 0.7764 0.44797 0.0
O75 O 0.03531 0.77596 0.47905 0.0
C76 C 0.04921 0.76967 0.47554 0.0
C77 C 0.98858 0.80039 0.47439 0.0
C78 C 0.06733 0.84009 0.45229 0.0
C79 C 0.02139 0.78966 0.37136 0.0
O80 O 0.0151 0.80014 0.39034 0.0
O81 O 0.03406 0.78392 0.38453 0.0
O82 O 0.99826 0.81674 0.45342 0.0
O83 O 0.9972 0.78856 0.47921 0.0
O84 O 0.75503 0.83145 0.94562 0.0
Cd85 Cd 0.74741 0.79955 0.94114 0.0
Cd86 Cd 0.79044 0.8169 0.94468 0.0
O87 O 0.78896 0.84351 0.9599 0.0
O88 O 0.7169 0.78097 0.95601 0.0
O89 O 0.74449 0.78409 0.98764 0.0
C90 C 0.72399 0.77611 0.9843 0.0
C91 C 0.81488 0.80918 0.97291 0.0
C92 C 0.77327 0.84673 0.95548 0.0
C93 C 0.76903 0.79646 0.87524 0.0
O94 O 0.78635 0.80963 0.89095 0.0
O95 O 0.75118 0.78837 0.89174 0.0
O96 O 0.82116 0.82586 0.95282 0.0
O97 O 0.7945 0.797 0.97812 0.0
O98 O 0.17481 0.92685 0.9365 0.0
Cd99 Cd 0.20701 0.94958 0.93184 0.0
Cd100 Cd 0.1922 0.97815 0.94033 0.0
O101 O 0.16481 0.94983 0.95418 0.0
O102 O 0.22378 0.93582 0.94683 0.0
O103 O 0.22371 0.96237 0.97705 0.0
C104 C 0.23017 0.94856 0.97421 0.0
C105 C 0.19707 0.00978 0.96724 0.0
C106 C 0.16045 0.93064 0.94834 0.0
C107 C 0.21337 0.97725 0.86944 0.0
O108 O 0.20237 0.98333 0.88751 0.0
O109 O 0.21842 0.96416 0.88289 0.0
O110 O 0.1821 0.99926 0.94418 0.0
O111 O 0.20906 0.00191 0.97642 0.0
O112 O 0.07224 0.24877 0.94213 0.0
Cd113 Cd 0.04923 0.25781 0.93725 0.0
Cd114 Cd 0.02162 0.2156 0.95089 0.0
O115 O 0.05005 0.21736 0.96646 0.0
O116 O 0.06326 0.28891 0.94873 0.0
O117 O 0.03781 0.26352 0.98256 0.0
C118 C 0.05152 0.28363 0.97734 0.0
C119 C 0.99017 0.19167 0.98164 0.0
C120 C 0.06897 0.23159 0.95749 0.0
C121 C 0.0211 0.23338 0.87702 0.0
O122 O 0.01614 0.21712 0.89678 0.0
O123 O 0.03329 0.2522 0.889 0.0
O124 O 1.00044 0.18509 0.96199 0.0
O125 O 0.99815 0.21213 0.98514 0.0
O126 O 0.82454 0.74976 0.55162 0.0
Cd127 Cd 0.79268 0.74189 0.55671 0.0
Cd128 Cd 0.8089 0.78386 0.54641 0.0
O129 O 0.8342 0.78112 0.52681 0.0
O130 O 0.77457 0.71132 0.54247 0.0
O131 O 0.77639 0.73844 0.51114 0.0
C132 C 0.76906 0.71803 0.51441 0.0
C133 C 0.80066 0.80787 0.51786 0.0
C134 C 0.83847 0.76654 0.53531 0.0
C135 C 0.79129 0.76563 0.61957 0.0
O136 O 0.80416 0.78204 0.60134 0.0
O137 O 0.78231 0.74708 0.60544 0.0
O138 O 0.81814 0.8144 0.5358 0.0
O139 O 0.78783 0.78741 0.51513 0.0
O140 O 0.24654 0.07276 0.54196 0.0
Cd141 Cd 0.25754 0.05128 0.5478 0.0
Cd142 Cd 0.21354 0.02091 0.5407 0.0
O143 O 0.21273 0.04869 0.53058 0.0
O144 O 0.28847 0.06694 0.53454 0.0
O145 O 0.26364 0.03965 0.50303 0.0
C146 C 0.28349 0.05448 0.50692 0.0
C147 C 0.18649 0.98915 0.51444 0.0
C148 C 0.22751 0.06815 0.53397 0.0
C149 C 0.23698 0.0229 0.61057 0.0
O150 O 0.21984 0.01552 0.59225 0.0
O151 O 0.25475 0.03723 0.5975 0.0
O152 O 0.18242 0.9992 0.53894 0.0
O153 O 0.20609 0.9976 0.50338 0.0
O154 O 0.92107 0.16787 0.55148 0.0
Cd155 Cd 0.94412 0.19989 0.55683 0.0
Cd156 Cd 0.97214 0.18488 0.54765 0.0
O157 O 0.94383 0.1577 0.53335 0.0
O158 O 0.93112 0.21735 0.54156 0.0
O159 O 0.95757 0.21673 0.51192 0.0
C160 C 0.94406 0.22359 0.51442 0.0
C161 C 0.00377 0.19072 0.51934 0.0
C162 C 0.92469 0.15347 0.53929 0.0
C163 C 0.97125 0.20494 0.61948 0.0
O164 O 0.97725 0.19405 0.60093 0.0
O165 O 0.95848 0.2105 0.6062 0.0
O166 O 0.99352 0.17526 0.54177 0.0
O167 O 0.99563 0.20268 0.51165 0.0
O168 O 0.91415 0.50531 0.37797 0.0
Cd169 Cd 0.92416 0.53723 0.38645 0.0
Cd170 Cd 0.88072 0.52353 0.38155 0.0
O171 O 0.88004 0.49511 0.36898 0.0
O172 O 0.95491 0.55367 0.37237 0.0
O173 O 0.92922 0.55598 0.3433 0.0
C174 C 0.94927 0.56152 0.34608 0.0
C175 C 0.85637 0.53094 0.35211 0.0
C176 C 0.89515 0.49077 0.37024 0.0
C177 C 0.90408 0.54375 0.45147 0.0
O178 O 0.88662 0.53459 0.43382 0.0
O179 O 0.92149 0.54678 0.43743 0.0
O180 O 0.85014 0.51548 0.37493 0.0
O181 O 0.87664 0.54204 0.3449 0.0
O182 O 0.49823 0.41542 0.38692 0.0
Cd183 Cd 0.46609 0.39242 0.39095 0.0
Cd184 Cd 0.48071 0.36427 0.37928 0.0
O185 O 0.50793 0.39282 0.36609 0.0
O186 O 0.44882 0.40549 0.37509 0.0
O187 O 0.45031 0.37963 0.34504 0.0
C188 C 0.44333 0.39305 0.34735 0.0
C189 C 0.47579 0.33314 0.35041 0.0
C190 C 0.51244 0.41187 0.3736 0.0
C191 C 0.45995 0.36362 0.45139 0.0
O192 O 0.47098 0.35809 0.43221 0.0
O193 O 0.45465 0.37683 0.4393 0.0
O194 O 0.49099 0.34343 0.37319 0.0
O195 O 0.4636 0.341 0.34258 0.0
O196 O 0.5984 0.09406 0.37658 0.0
Cd197 Cd 0.62074 0.08409 0.382 0.0
Cd198 Cd 0.64991 0.1276 0.37523 0.0
O199 O 0.62192 0.12817 0.36634 0.0
O200 O 0.60612 0.05328 0.36804 0.0
O201 O 0.63295 0.07901 0.33693 0.0
C202 C 0.61866 0.05893 0.34042 0.0
C203 C 0.68068 0.15289 0.34425 0.0
C204 C 0.60258 0.11305 0.36938 0.0
C205 C 0.64913 0.10497 0.44495 0.0
O206 O 0.6563 0.12219 0.42683 0.0
O207 O 0.63496 0.08718 0.43168 0.0
O208 O 0.672 0.1584 0.36919 0.0
O209 O 0.67151 0.1328 0.33589 0.0
O210 O 0.83974 0.57586 0.77588 0.0
Cd211 Cd 0.8721 0.58688 0.77121 0.0
Cd212 Cd 0.8593 0.54319 0.77822 0.0
O213 O 0.83058 0.5424 0.78909 0.0
O214 O 0.88732 0.61768 0.78498 0.0
O215 O 0.88962 0.59261 0.81614 0.0
C216 C 0.89475 0.61251 0.81247 0.0
C217 C 0.86478 0.51723 0.80696 0.0
C218 C 0.82561 0.55695 0.78495 0.0
C219 C 0.88124 0.56721 0.70881 0.0
O220 O 0.87198 0.54984 0.72675 0.0
O221 O 0.88347 0.58452 0.72185 0.0
O222 O 0.85062 0.51227 0.78211 0.0
O223 O 0.87562 0.53712 0.81662 0.0
O224 O 0.41606 0.25496 0.77018 0.0
Cd225 Cd 0.40721 0.27814 0.76526 0.0
Cd226 Cd 0.45025 0.30607 0.77748 0.0
O227 O 0.44855 0.27735 0.79066 0.0
O228 O 0.37657 0.26509 0.77942 0.0
O229 O 0.40334 0.29093 0.81051 0.0
C230 C 0.38298 0.2776 0.80711 0.0
C231 C 0.4768 0.33708 0.80621 0.0
C232 C 0.4338 0.25834 0.78338 0.0
C233 C 0.43055 0.30681 0.7049 0.0
O234 O 0.44697 0.31234 0.72448 0.0
O235 O 0.41193 0.29362 0.71665 0.0
O236 O 0.48146 0.32656 0.78352 0.0
O237 O 0.4568 0.32951 0.81408 0.0
O238 O 0.73914 0.16106 0.77771 0.0
Cd239 Cd 0.71606 0.12909 0.77103 0.0
Cd240 Cd 0.68841 0.14433 0.77755 0.0
O241 O 0.71629 0.1719 0.79171 0.0
O242 O 0.72958 0.11195 0.78549 0.0
O243 O 0.7028 0.11161 0.81556 0.0
C244 C 0.71672 0.10529 0.81272 0.0
C245 C 0.65656 0.13649 0.80714 0.0
C246 C 0.73549 0.17582 0.78779 0.0
C247 C 0.69015 0.12483 0.70634 0.0
O248 O 0.68397 0.13585 0.72409 0.0
O249 O 0.70239 0.11894 0.72079 0.0
O250 O 0.66629 0.15274 0.78596 0.0
O251 O 0.66523 0.12477 0.81261 0.0
O252 O 0.42675 0.16967 0.27673 0.0
Cd253 Cd 0.41737 0.1376 0.26999 0.0
Cd254 Cd 0.46105 0.15288 0.2757 0.0
O255 O 0.46102 0.18092 0.28684 0.0
O256 O 0.38656 0.12079 0.28373 0.0
O257 O 0.41245 0.11962 0.31417 0.0
C258 C 0.3923 0.11355 0.31076 0.0
C259 C 0.48686 0.14713 0.30411 0.0
C260 C 0.44558 0.1847 0.28433 0.0
C261 C 0.43845 0.13189 0.2057 0.0
O262 O 0.45573 0.14229 0.22348 0.0
O263 O 0.42053 0.12726 0.21972 0.0
O264 O 0.49198 0.16196 0.28042 0.0
O265 O 0.46687 0.13581 0.313 0.0
O266 O 0.84415 0.2617 0.26848 0.0
Cd267 Cd 0.87665 0.28294 0.26483 0.0
Cd268 Cd 0.86324 0.31376 0.26391 0.0
O269 O 0.83385 0.28591 0.27003 0.0
O270 O 0.89106 0.26708 0.28164 0.0
O271 O 0.89328 0.29503 0.31056 0.0
C272 C 0.89807 0.27995 0.30878 0.0
C273 C 0.86709 0.3447 0.29184 0.0
C274 C 0.82935 0.26641 0.27076 0.0
C275 C 0.88883 0.31127 0.20038 0.0
O276 O 0.87937 0.32007 0.21559 0.0
O277 O 0.88954 0.29574 0.21529 0.0
O278 O 0.85493 0.33633 0.26423 0.0
O279 O 0.87688 0.33517 0.30448 0.0
O280 O 0.74502 0.58391 0.27378 0.0
Cd281 Cd 0.72177 0.59252 0.26727 0.0
Cd282 Cd 0.69416 0.5509 0.28162 0.0
O283 O 0.72244 0.55271 0.29833 0.0
O284 O 0.73413 0.62311 0.28132 0.0
O285 O 0.70822 0.596 0.31186 0.0
C286 C 0.72137 0.61642 0.30873 0.0
C287 C 0.66275 0.5277 0.31308 0.0
C288 C 0.7415 0.56684 0.28985 0.0
C289 C 0.69415 0.56789 0.20678 0.0
O290 O 0.68881 0.55181 0.22721 0.0
O291 O 0.70653 0.58679 0.21828 0.0
O292 O 0.67281 0.52065 0.29395 0.0
O293 O 0.67084 0.54823 0.31545 0.0
O294 O 0.49221 0.08466 0.884 0.0
Cd295 Cd 0.46038 0.07654 0.88876 0.0
Cd296 Cd 0.47496 0.11819 0.8738 0.0
O297 O 0.50115 0.1156 0.85806 0.0
O298 O 0.44138 0.046 0.87518 0.0
O299 O 0.44505 0.07354 0.84249 0.0
C300 C 0.43673 0.05302 0.84654 0.0
C301 C 0.4673 0.14159 0.8417 0.0
C302 C 0.5059 0.10148 0.86751 0.0
C303 C 0.45693 0.10164 0.94802 0.0
O304 O 0.4684 0.11768 0.92793 0.0
O305 O 0.45013 0.08271 0.93654 0.0
O306 O 0.4844 0.14849 0.86085 0.0
O307 O 0.45465 0.12109 0.83948 0.0
O308 O 0.91856 0.40645 0.87703 0.0
Cd309 Cd 0.92896 0.38449 0.88047 0.0
Cd310 Cd 0.88456 0.3542 0.88099 0.0
O311 O 0.88396 0.38252 0.87401 0.0
O312 O 0.95921 0.39854 0.86342 0.0
O313 O 0.93202 0.37195 0.83413 0.0
C314 C 0.95231 0.38579 0.83612 0.0
C315 C 0.85662 0.32303 0.85483 0.0
C316 C 0.89914 0.40197 0.87393 0.0
C317 C 0.91212 0.35623 0.94495 0.0
O318 O 0.8939 0.34785 0.92969 0.0
O319 O 0.9286 0.37141 0.92996 0.0
O320 O 0.85343 0.33234 0.88171 0.0
O321 O 0.87578 0.33186 0.84159 0.0
O322 O 0.59377 0.49997 0.87981 0.0
Cd323 Cd 0.61722 0.53191 0.88553 0.0
Cd324 Cd 0.64456 0.51576 0.87874 0.0
O325 O 0.6161 0.48819 0.86745 0.0
O326 O 0.60354 0.54915 0.87243 0.0
O327 O 0.62963 0.5493 0.84054 0.0
C328 C 0.61589 0.55576 0.84455 0.0
C329 C 0.6754 0.52232 0.84719 0.0
C330 C 0.59706 0.48475 0.8712 0.0
C331 C 0.64458 0.53686 0.94911 0.0
O332 O 0.6505 0.52562 0.93138 0.0
O333 O 0.63189 0.54234 0.93515 0.0
O334 O 0.66603 0.50656 0.86941 0.0
O335 O 0.66691 0.53422 0.84181 0.0
O336 O 0.57743 0.83645 0.71607 0.0
Cd337 Cd 0.58616 0.8685 0.71955 0.0
Cd338 Cd 0.54291 0.85274 0.71077 0.0
O339 O 0.54427 0.82543 0.69816 0.0
O340 O 0.61686 0.8855 0.70544 0.0
O341 O 0.59045 0.88483 0.67363 0.0
C342 C 0.61072 0.89152 0.6773 0.0
C343 C 0.51759 0.85844 0.68047 0.0
C344 C 0.55944 0.82163 0.70451 0.0
C345 C 0.56411 0.87466 0.78135 0.0
O346 O 0.54708 0.86304 0.76352 0.0
O347 O 0.58236 0.8801 0.76789 0.0
O348 O 0.51199 0.84323 0.70359 0.0
O349 O 0.5378 0.87019 0.67333 0.0
O350 O 0.16103 0.74177 0.71112 0.0
Cd351 Cd 0.12879 0.71969 0.71858 0.0
Cd352 Cd 0.14277 0.69027 0.71217 0.0
O353 O 0.17101 0.71791 0.69985 0.0
O354 O 0.11223 0.73374 0.70358 0.0
O355 O 0.11077 0.70609 0.67472 0.0
C356 C 0.10492 0.72038 0.67708 0.0
C357 C 0.13716 0.65836 0.68526 0.0
C358 C 0.1755 0.73734 0.70257 0.0
C359 C 0.12289 0.6931 0.78301 0.0
O360 O 0.13262 0.68567 0.76471 0.0
O361 O 0.11861 0.70671 0.76927 0.0
O362 O 0.15187 0.66839 0.70895 0.0
O363 O 0.12577 0.66682 0.67561 0.0
O364 O 0.26049 0.41876 0.71316 0.0
Cd365 Cd 0.28205 0.40798 0.71759 0.0
Cd366 Cd 0.31265 0.45105 0.70787 0.0
O367 O 0.28465 0.45146 0.6959 0.0
O368 O 0.26697 0.37724 0.70348 0.0
O369 O 0.29389 0.40285 0.67224 0.0
C370 C 0.27942 0.38283 0.67572 0.0
C371 C 0.34404 0.47615 0.67819 0.0
C372 C 0.26519 0.43727 0.70184 0.0
C373 C 0.31152 0.4288 0.77868 0.0
O374 O 0.31899 0.44589 0.76005 0.0
O375 O 0.29665 0.41111 0.76639 0.0
O376 O 0.33451 0.48189 0.70116 0.0
O377 O 0.33538 0.45596 0.67083 0.0
O378 O 0.50797 0.91533 0.11059 0.0
Cd379 Cd 0.54014 0.92546 0.10259 0.0
Cd380 Cd 0.52633 0.88224 0.11229 0.0
O381 O 0.49832 0.88196 0.12529 0.0
O382 O 0.55664 0.95642 0.1155 0.0
O383 O 0.55852 0.93103 0.14638 0.0
C384 C 0.56415 0.95106 0.14266 0.0
C385 C 0.53269 0.85671 0.14043 0.0
C386 C 0.49371 0.89675 0.12108 0.0
C387 C 0.54513 0.90314 0.03974 0.0
O388 O 0.53549 0.88646 0.05924 0.0
O389 O 0.54982 0.92141 0.05224 0.0
O390 O 0.51739 0.85138 0.11767 0.0
O391 O 0.54421 0.87678 0.14858 0.0
O392 O 0.08978 0.59701 0.10719 0.0
Cd393 Cd 0.08019 0.61969 0.10389 0.0
Cd394 Cd 0.12354 0.64841 0.11352 0.0
O395 O 0.12271 0.61992 0.1252 0.0
O396 O 0.04948 0.60546 0.11817 0.0
O397 O 0.0757 0.63143 0.14991 0.0
C398 C 0.05549 0.61758 0.14632 0.0
C399 C 0.14974 0.6792 0.14327 0.0
C400 C 0.10799 0.60078 0.11869 0.0
C401 C 0.10195 0.64876 0.04282 0.0
O402 O 0.11894 0.65481 0.06115 0.0
O403 O 0.08378 0.63516 0.05563 0.0
O404 O 0.15467 0.66955 0.11924 0.0
O405 O 0.1297 0.67099 0.15151 0.0
O406 O 0.41565 0.49917 0.09848 0.0
Cd407 Cd 0.39435 0.46682 0.09373 0.0
Cd408 Cd 0.3631 0.4791 0.10072 0.0
O409 O 0.39101 0.50779 0.11206 0.0
O410 O 0.40875 0.45107 0.11103 0.0
O411 O 0.38092 0.45006 0.13871 0.0
C412 C 0.39536 0.44434 0.13758 0.0
C413 C 0.33135 0.47443 0.12691 0.0
C414 C 0.41061 0.51304 0.10797 0.0
C415 C 0.36554 0.45688 0.03162 0.0
O416 O 0.35727 0.46591 0.04972 0.0
O417 O 0.38099 0.45514 0.04427 0.0
O418 O 0.34122 0.4883 0.10191 0.0
O419 O 0.33994 0.46349 0.13838 0.0
O420 O 0.09217 0.4967 0.60313 0.0
Cd421 Cd 0.08459 0.46505 0.5974 0.0
Cd422 Cd 0.1274 0.48108 0.60718 0.0
O423 O 0.12565 0.50808 0.61959 0.0
O424 O 0.054 0.446 0.61108 0.0
O425 O 0.08145 0.44912 0.64324 0.0
C426 C 0.06095 0.44098 0.63938 0.0
C427 C 0.15107 0.47397 0.63955 0.0
C428 C 0.11026 0.51166 0.61414 0.0
C429 C 0.10842 0.46127 0.53523 0.0
O430 O 0.12511 0.47259 0.55398 0.0
O431 O 0.08989 0.45511 0.54824 0.0
O432 O 0.15788 0.49034 0.61857 0.0
O433 O 0.13057 0.46181 0.64337 0.0
O434 O 0.50883 0.59109 0.60959 0.0
Cd435 Cd 0.5409 0.61428 0.6053 0.0
Cd436 Cd 0.52553 0.64178 0.61686 0.0
O437 O 0.49899 0.61317 0.63228 0.0
O438 O 0.55795 0.60034 0.61787 0.0
O439 O 0.55766 0.6258 0.65099 0.0
C440 C 0.56414 0.61211 0.64644 0.0
C441 C 0.53175 0.67305 0.64679 0.0
C442 C 0.49464 0.59426 0.62403 0.0
C443 C 0.54491 0.64206 0.54395 0.0
O444 O 0.53333 0.64704 0.56291 0.0
O445 O 0.55153 0.63005 0.55682 0.0
O446 O 0.51532 0.66246 0.62634 0.0
O447 O 0.5446 0.66559 0.65136 0.0
O448 O 0.40789 0.91329 0.60871 0.0
Cd449 Cd 0.3857 0.92334 0.60466 0.0
Cd450 Cd 0.35583 0.87977 0.60467 0.0
O451 O 0.38391 0.87871 0.61151 0.0
O452 O 0.39885 0.95329 0.62251 0.0
O453 O 0.37208 0.92542 0.65041 0.0
C454 C 0.38557 0.94582 0.64911 0.0
C455 C 0.32464 0.85315 0.63278 0.0
C456 C 0.40338 0.89386 0.61176 0.0
C457 C 0.35778 0.90669 0.54012 0.0
O458 O 0.34929 0.88852 0.55561 0.0
O459 O 0.37302 0.92314 0.55497 0.0
O460 O 0.33336 0.8489 0.6062 0.0
O461 O 0.33414 0.87263 0.64466 0.0
O462 O 0.16833 0.42721 0.20301 0.0
Cd463 Cd 0.13647 0.41843 0.21096 0.0
Cd464 Cd 0.1516 0.46139 0.20335 0.0
O465 O 0.17913 0.46097 0.18944 0.0
O466 O 0.11905 0.38751 0.1984 0.0
O467 O 0.118 0.41332 0.16744 0.0
C468 C 0.11166 0.39314 0.17143 0.0
C469 C 0.14369 0.48512 0.17303 0.0
C470 C 0.18306 0.44569 0.19303 0.0
C471 C 0.13267 0.44083 0.27518 0.0
O472 O 0.14326 0.45788 0.25683 0.0
O473 O 0.12707 0.42262 0.26137 0.0
O474 O 0.16009 0.49185 0.19388 0.0
O475 O 0.13187 0.46467 0.16826 0.0
O476 O 0.58272 0.74318 0.21887 0.0
Cd477 Cd 0.59092 0.71947 0.22354 0.0
Cd478 Cd 0.54799 0.69201 0.21427 0.0
O479 O 0.54907 0.72066 0.20385 0.0
O480 O 0.62162 0.73173 0.20961 0.0
O481 O 0.59442 0.70742 0.17708 0.0
C482 C 0.61487 0.72007 0.18098 0.0
C483 C 0.52447 0.66183 0.18054 0.0
C484 C 0.56431 0.73973 0.20907 0.0
C485 C 0.5676 0.6908 0.28544 0.0
O486 O 0.55074 0.68507 0.26692 0.0
O487 O 0.58597 0.7038 0.27243 0.0
O488 O 0.51756 0.67071 0.20275 0.0
O489 O 0.54498 0.67044 0.17648 0.0
O490 O 0.26225 0.84235 0.21597 0.0
Cd491 Cd 0.28391 0.87465 0.22085 0.0
Cd492 Cd 0.31405 0.86075 0.22032 0.0
O493 O 0.28607 0.83157 0.213 0.0
O494 O 0.2689 0.88994 0.20438 0.0
O495 O 0.29692 0.89189 0.176 0.0
C496 C 0.2822 0.89718 0.17779 0.0
C497 C 0.34538 0.86527 0.19283 0.0
C498 C 0.26665 0.82739 0.21265 0.0
C499 C 0.31167 0.88539 0.28534 0.0
O500 O 0.32024 0.87593 0.26946 0.0
O501 O 0.29637 0.88666 0.2708 0.0
O502 O 0.33654 0.85237 0.21948 0.0
O503 O 0.33596 0.87527 0.18059 0.0
H504 H 0.33943 0.25195 0.80593 0.0
H505 H 0.39141 0.29842 0.87192 0.0
H506 H 0.31433 0.24474 0.8549 0.0
H507 H 0.36608 0.29147 0.92093 0.0
H508 H 0.32108 0.24477 0.01017 0.0
H509 H 0.34653 0.26106 0.96109 0.0
H510 H 0.29609 0.25783 0.89352 0.0
H511 H 0.2704 0.24105 0.94266 0.0
C512 C 0.34545 0.26093 0.83069 0.0
C513 C 0.36747 0.27557 0.83517 0.0
C514 C 0.33099 0.25691 0.85872 0.0
C515 C 0.3382 0.26743 0.89195 0.0
C516 C 0.36007 0.28289 0.89582 0.0
C517 C 0.37456 0.28694 0.8677 0.0
C518 C 0.31545 0.24783 0.98506 0.0
C519 C 0.29365 0.24135 0.98018 0.0
C520 C 0.33011 0.25734 0.95694 0.0
C521 C 0.32332 0.2606 0.92324 0.0
C522 C 0.30175 0.25524 0.919 0.0
C523 C 0.28706 0.24573 0.94721 0.0
H524 H 0.74334 0.08851 0.81231 0.0
H525 H 0.69595 0.09283 0.87766 0.0
H526 H 0.75165 0.07199 0.86214 0.0
H527 H 0.70401 0.07584 0.92756 0.0
H528 H 0.75199 0.08093 0.01716 0.0
H529 H 0.73483 0.08847 0.9674 0.0
H530 H 0.73991 0.04146 0.90231 0.0
H531 H 0.75754 0.03417 0.95211 0.0
C532 C 0.73437 0.08554 0.83711 0.0
C533 C 0.71917 0.09223 0.84115 0.0
C534 C 0.73903 0.0759 0.86566 0.0
C535 C 0.72861 0.07272 0.89897 0.0
C536 C 0.71254 0.07834 0.90239 0.0
C537 C 0.70784 0.08797 0.87375 0.0
C538 C 0.74917 0.07194 0.99245 0.0
C539 C 0.75638 0.05714 0.98847 0.0
C540 C 0.73916 0.07615 0.96394 0.0
C541 C 0.73612 0.06568 0.93074 0.0
C542 C 0.74229 0.05002 0.92738 0.0
C543 C 0.7523 0.04577 0.95597 0.0
H544 H 0.92254 0.67837 0.0121 0.0
H545 H 0.9679 0.72849 0.94184 0.0
H546 H 0.91378 0.65213 0.96447 0.0
H547 H 0.95933 0.70204 0.89416 0.0
H548 H 0.91022 0.65565 0.80907 0.0
H549 H 0.92743 0.68195 0.85668 0.0
H550 H 0.92596 0.63284 0.92568 0.0
H551 H 0.90835 0.60631 0.87797 0.0
C552 C 0.93094 0.68374 0.98667 0.0
C553 C 0.94573 0.70557 0.98061 0.0
C554 C 0.92603 0.66863 0.95942 0.0
C555 C 0.93575 0.675 0.92542 0.0
C556 C 0.95137 0.69668 0.91993 0.0
C557 C 0.95635 0.71181 0.94729 0.0
C558 C 0.91381 0.65047 0.83421 0.0
C559 C 0.9077 0.62883 0.83988 0.0
C560 C 0.92386 0.66562 0.86144 0.0
C561 C 0.92799 0.65948 0.89506 0.0
C562 C 0.92277 0.63802 0.9002 0.0
C563 C 0.91277 0.62284 0.87283 0.0
H564 H 0.29894 0.38995 0.60982 0.0
H565 H 0.25214 0.33956 0.67806 0.0
H566 H 0.28986 0.36406 0.56101 0.0
H567 H 0.24289 0.3139 0.62933 0.0
H568 H 0.24034 0.31975 0.47428 0.0
H569 H 0.25806 0.34527 0.52277 0.0
H570 H 0.25447 0.29443 0.58973 0.0
H571 H 0.23635 0.26869 0.54116 0.0
C572 C 0.28695 0.37331 0.61458 0.0
C573 C 0.2761 0.36685 0.64768 0.0
C574 C 0.28168 0.35851 0.58658 0.0
C575 C 0.26554 0.33695 0.59119 0.0
C576 C 0.25554 0.33031 0.62494 0.0
C577 C 0.26074 0.34509 0.65284 0.0
C578 C 0.24359 0.31403 0.49914 0.0
C579 C 0.23671 0.29214 0.50402 0.0
C580 C 0.25392 0.32872 0.52689 0.0
C581 C 0.25757 0.32187 0.56022 0.0
C582 C 0.25164 0.30015 0.5645 0.0
C583 C 0.24136 0.28544 0.53663 0.0
H584 H 0.65416 0.90871 0.67914 0.0
H585 H 0.60286 0.90349 0.61155 0.0
H586 H 0.67952 0.92563 0.63015 0.0
H587 H 0.62847 0.92092 0.56249 0.0
H588 H 0.67321 0.91733 0.47494 0.0
H589 H 0.64769 0.90912 0.5236 0.0
H590 H 0.6984 0.95639 0.59063 0.0
H591 H 0.72415 0.96432 0.54196 0.0
C592 C 0.64835 0.91154 0.654 0.0
C593 C 0.62644 0.90451 0.6491 0.0
C594 C 0.66297 0.92143 0.62595 0.0
C595 C 0.65602 0.92453 0.59229 0.0
C596 C 0.63427 0.91849 0.58795 0.0
C597 C 0.61962 0.9086 0.6161 0.0
C598 C 0.6789 0.92623 0.49985 0.0
C599 C 0.70077 0.94128 0.50474 0.0
C600 C 0.6642 0.92163 0.52771 0.0
C601 C 0.67102 0.93198 0.56114 0.0
C602 C 0.6927 0.9479 0.56537 0.0
C603 C 0.70743 0.95252 0.53743 0.0
H604 H 0.07555 0.75256 0.47354 0.0
H605 H 0.02951 0.75767 0.54136 0.0
H606 H 0.0846 0.73629 0.52287 0.0
H607 H 0.03836 0.741 0.59075 0.0
H608 H 0.08808 0.74694 0.67766 0.0
H609 H 0.07023 0.75421 0.62866 0.0
H610 H 0.07322 0.70592 0.5639 0.0
H611 H 0.09148 0.69883 0.61299 0.0
C612 C 0.06703 0.74981 0.49878 0.0
C613 C 0.052 0.75666 0.50365 0.0
C614 C 0.07212 0.74032 0.52704 0.0
C615 C 0.06234 0.7375 0.56088 0.0
C616 C 0.04641 0.74324 0.56515 0.0
C617 C 0.04125 0.75268 0.53679 0.0
C618 C 0.08467 0.73763 0.65319 0.0
C619 C 0.09143 0.72248 0.64909 0.0
C620 C 0.07426 0.74168 0.62514 0.0
C621 C 0.07039 0.73073 0.59226 0.0
C622 C 0.07621 0.71481 0.58876 0.0
C623 C 0.08657 0.71069 0.61694 0.0
H624 H 0.60814 0.71794 0.10887 0.0
H625 H 0.65612 0.72864 0.18842 0.0
H626 H 0.63477 0.72837 0.06159 0.0
H627 H 0.68261 0.73726 0.14108 0.0
H628 H 0.73079 0.78102 0.05638 0.0
H629 H 0.70431 0.76416 0.1038 0.0
H630 H 0.65703 0.72398 0.02454 0.0
H631 H 0.68327 0.74248 0.97711 0.0
C632 C 0.62431 0.72187 0.11605 0.0
C633 C 0.63014 0.72266 0.15223 0.0
C634 C 0.6397 0.72776 0.08885 0.0
C635 C 0.66121 0.734 0.0971 0.0
C636 C 0.66654 0.73332 0.1334 0.0
C637 C 0.65129 0.72811 0.16066 0.0
C638 C 0.71478 0.76838 0.04931 0.0
C639 C 0.70899 0.76316 0.01317 0.0
C640 C 0.69949 0.75851 0.07657 0.0
C641 C 0.67816 0.74269 0.06841 0.0
C642 C 0.67294 0.73653 0.03215 0.0
C643 C 0.68805 0.74693 0.00484 0.0
H644 H 0.25502 0.91325 0.17771 0.0
H645 H 0.30335 0.91004 0.11322 0.0
H646 H 0.24705 0.93013 0.12806 0.0
H647 H 0.29555 0.92735 0.06344 0.0
H648 H 0.24763 0.92254 0.9735 0.0
H649 H 0.26463 0.91467 0.02312 0.0
H650 H 0.25962 0.96147 0.08892 0.0
H651 H 0.24219 0.96913 0.03924 0.0
C652 C 0.26422 0.9165 0.15311 0.0
C653 C 0.27963 0.91006 0.14924 0.0
C654 C 0.25977 0.92636 0.12471 0.0
C655 C 0.27059 0.92999 0.09171 0.0
C656 C 0.28677 0.92453 0.08841 0.0
C657 C 0.2913 0.91471 0.11696 0.0
C658 C 0.25043 0.93141 -0.00165 0.0
C659 C 0.24329 0.94625 0.0026 0.0
C660 C 0.26036 0.92701 0.02674 0.0
C661 C 0.26335 0.93734 0.06007 0.0
C662 C 0.25727 0.95305 0.0637 0.0
C663 C 0.24738 0.9575 0.03521 0.0
H664 H 0.09727 0.39996 0.10718 0.0
H665 H 0.09429 0.34972 0.17505 0.0
H666 H 0.07791 0.37354 0.06005 0.0
H667 H 0.07538 0.32353 0.12797 0.0
H668 H 0.03316 0.27754 0.04409 0.0
H669 H 0.04303 0.30421 0.09178 0.0
H670 H 0.08818 0.35341 0.02 0.0
H671 H 0.07808 0.32696 0.97236 0.0
C672 C 0.09223 0.38326 0.11225 0.0
C673 C 0.09752 0.37698 0.1447 0.0
C674 C 0.08123 0.36815 0.08519 0.0
C675 C 0.07523 0.34645 0.09013 0.0
C676 C 0.07954 0.34005 0.12336 0.0
C677 C 0.09055 0.35512 0.1503 0.0
C678 C 0.04489 0.29413 0.03832 0.0
C679 C 0.05502 0.30008 0.00457 0.0
C680 C 0.05062 0.30939 0.06569 0.0
C681 C 0.06654 0.33091 0.05982 0.0
C682 C 0.07572 0.33704 0.02539 0.0
C683 C 0.07004 0.3218 -0.00189 0.0
H684 H 0.74751 0.65993 0.30938 0.0
H685 H 0.69926 0.60738 0.37237 0.0
H686 H 0.75436 0.68432 0.35929 0.0
H687 H 0.7058 0.63198 0.42227 0.0
H688 H 0.75128 0.67449 0.51447 0.0
H689 H 0.73535 0.65012 0.46401 0.0
H690 H 0.74163 0.70256 0.39828 0.0
H691 H 0.75809 0.72715 0.44881 0.0
C692 C 0.73804 0.65365 0.33365 0.0
C693 C 0.72303 0.63165 0.33706 0.0
C694 C 0.74186 0.6677 0.36223 0.0
C695 C 0.73075 0.66009 0.39493 0.0
C696 C 0.71487 0.63829 0.39763 0.0
C697 C 0.71104 0.62421 0.36898 0.0
C698 C 0.74896 0.6808 0.48946 0.0
C699 C 0.75622 0.70282 0.48553 0.0
C700 C 0.73966 0.66676 0.46053 0.0
C701 C 0.73736 0.6744 0.42696 0.0
C702 C 0.74348 0.69622 0.42363 0.0
C703 C 0.7528 0.71029 0.45264 0.0
H704 H 0.32661 0.08231 0.51068 0.0
H705 H 0.27754 0.0354 0.44087 0.0
H706 H 0.35295 0.09236 0.46277 0.0
H707 H 0.3041 0.0453 0.39287 0.0
H708 H 0.34882 0.0959 0.30759 0.0
H709 H 0.32285 0.0775 0.35531 0.0
H710 H 0.37336 0.08158 0.42367 0.0
H711 H 0.39954 0.10036 0.37586 0.0
C712 C 0.32151 0.07386 0.48528 0.0
C713 C 0.29992 0.05823 0.47945 0.0
C714 C 0.33668 0.07952 0.45786 0.0
C715 C 0.33061 0.06973 0.4239 0.0
C716 C 0.30922 0.05332 0.41861 0.0
C717 C 0.29403 0.04759 0.44616 0.0
C718 C 0.35438 0.09263 0.3326 0.0
C719 C 0.3763 0.09982 0.33808 0.0
C720 C 0.33943 0.0819 0.3599 0.0
C721 C 0.34604 0.07817 0.39339 0.0
C722 C 0.36781 0.08445 0.3983 0.0
C723 C 0.38279 0.09511 0.37087 0.0
H724 H 0.91296 0.25178 0.30927 0.0
H725 H 0.91002 0.30002 0.37431 0.0
H726 H 0.92829 0.24243 0.35957 0.0
H727 H 0.92576 0.29082 0.42476 0.0
H728 H 0.91859 0.2417 0.51416 0.0
H729 H 0.91184 0.25942 0.46429 0.0
H730 H 0.95884 0.25377 0.40006 0.0
H731 H 0.96538 0.23564 0.44997 0.0
C732 C 0.91593 0.26066 0.33415 0.0
C733 C 0.91005 0.27648 0.33791 0.0
C734 C 0.9249 0.2554 0.36295 0.0
C735 C 0.92816 0.2658 0.39626 0.0
C736 C 0.92321 0.28234 0.39955 0.0
C737 C 0.91429 0.28768 0.37061 0.0
C738 C 0.92773 0.2445 0.4896 0.0
C739 C 0.94234 0.23702 0.48588 0.0
C740 C 0.92397 0.25483 0.46106 0.0
C741 C 0.93469 0.25789 0.42809 0.0
C742 C 0.95012 0.25139 0.42498 0.0
C743 C 0.95393 0.24109 0.45362 0.0
H744 H 0.06329 0.6365 0.21278 0.0
H745 H 0.01202 0.59151 0.14403 0.0
H746 H 0.03763 0.62769 0.26194 0.0
H747 H 0.98657 0.5825 0.1931 0.0
H748 H 0.94205 0.57601 0.28229 0.0
H749 H 0.96789 0.59436 0.23386 0.0
H750 H 0.01818 0.59565 0.29932 0.0
H751 H 0.99258 0.57772 0.34769 0.0
C752 C 0.04652 0.62497 0.20799 0.0
C753 C 0.03973 0.61453 0.17464 0.0
C754 C 0.03184 0.61986 0.23619 0.0
C755 C 0.01008 0.60428 0.23153 0.0
C756 C 0.00315 0.59473 0.19754 0.0
C757 C 0.0178 0.59978 0.16945 0.0
C758 C 0.95871 0.58058 0.28655 0.0
C759 C 0.96522 0.5752 0.31867 0.0
C760 C 0.97348 0.59099 0.25875 0.0
C761 C 0.99506 0.59631 0.26262 0.0
C762 C 0.00175 0.59199 0.29554 0.0
C763 C 0.987 0.58154 0.32321 0.0
H764 H 0.43292 0.37274 0.28201 0.0
H765 H 0.42565 0.41889 0.34586 0.0
H766 H 0.4167 0.38055 0.23068 0.0
H767 H 0.40987 0.42694 0.29459 0.0
H768 H 0.37315 0.43165 0.20121 0.0
H769 H 0.38008 0.41452 0.25225 0.0
H770 H 0.42982 0.41174 0.19135 0.0
H771 H 0.42269 0.42844 0.14039 0.0
C772 C 0.42758 0.38431 0.28526 0.0
C773 C 0.43079 0.39537 0.31788 0.0
C774 C 0.41839 0.38886 0.25581 0.0
C775 C 0.41217 0.40451 0.25843 0.0
C776 C 0.41428 0.41465 0.29169 0.0
C777 C 0.4235 0.41014 0.32106 0.0
C778 C 0.38531 0.42704 0.19855 0.0
C779 C 0.39752 0.43161 0.16689 0.0
C780 C 0.38934 0.41732 0.22783 0.0
C781 C 0.4056 0.41189 0.22597 0.0
C782 C 0.41702 0.41548 0.19361 0.0
C783 C 0.41304 0.42524 0.16445 0.0
H784 H 0.58033 0.99436 0.13965 0.0
H785 H 0.57784 0.94443 0.20773 0.0
H786 H 0.59765 0.02037 0.18767 0.0
H787 H 0.59554 0.97065 0.2558 0.0
H788 H 0.59212 0.01554 0.34327 0.0
H789 H 0.5833 0.98973 0.2949 0.0
H790 H 0.62937 0.04011 0.22585 0.0
H791 H 0.63803 0.06613 0.27434 0.0
C792 C 0.58384 0.989 0.16466 0.0
C793 C 0.57748 0.96726 0.17 0.0
C794 C 0.59393 0.00398 0.19215 0.0
C795 C 0.59786 0.99757 0.22569 0.0
C796 C 0.59248 0.97603 0.23042 0.0
C797 C 0.58245 0.96103 0.20282 0.0
C798 C 0.60062 0.0211 0.31796 0.0
C799 C 0.61562 0.04294 0.31254 0.0
C800 C 0.59566 0.00624 0.29027 0.0
C801 C 0.60554 0.01286 0.25641 0.0
C802 C 0.62129 0.03455 0.2515 0.0
C803 C 0.62633 0.04943 0.27932 0.0
H804 H 0.3915 0.98599 0.64236 0.0
H805 H 0.38301 0.93827 0.72097 0.0
H806 H 0.39815 0.01168 0.69016 0.0
H807 H 0.39165 0.96429 0.76887 0.0
H808 H 0.40378 0.01189 0.85383 0.0
H809 H 0.38581 0.98562 0.80623 0.0
H810 H 0.42491 0.03379 0.72718 0.0
H811 H 0.44119 0.06016 0.77464 0.0
C812 C 0.39104 0.98106 0.67005 0.0
C813 C 0.38686 0.96028 0.67815 0.0
C814 C 0.39512 0.99584 0.69755 0.0
C815 C 0.39599 0.99044 0.73373 0.0
C816 C 0.39087 0.9692 0.74166 0.0
C817 C 0.38604 0.95421 0.71417 0.0
C818 C 0.40806 0.01684 0.8261 0.0
C819 C 0.42386 0.03797 0.81781 0.0
C820 C 0.39797 0.00174 0.79873 0.0
C821 C 0.40404 0.00724 0.7625 0.0
C822 C 0.41934 0.02876 0.7544 0.0
C823 C 0.42888 0.04399 0.7817 0.0
H824 H 0.06773 0.44512 0.71141 0.0
H825 H 0.01996 0.40784 0.63162 0.0
H826 H 0.04119 0.42831 0.75862 0.0
H827 H 0.99357 0.38933 0.67889 0.0
H828 H 0.94522 0.38401 0.76415 0.0
H829 H 0.97165 0.39402 0.71649 0.0
H830 H 0.01926 0.40131 0.79531 0.0
H831 H 0.99308 0.39327 0.84293 0.0
C832 C 0.05164 0.43273 0.70416 0.0
C833 C 0.04582 0.42787 0.66796 0.0
C834 C 0.03631 0.42289 0.73131 0.0
C835 C 0.01488 0.40743 0.72298 0.0
C836 C 0.00958 0.40159 0.68663 0.0
C837 C 0.02477 0.41198 0.65942 0.0
C838 C 0.96131 0.38753 0.77103 0.0
C839 C 0.96724 0.3881 0.80707 0.0
C840 C 0.97655 0.39316 0.74365 0.0
C841 C 0.99796 0.39885 0.75166 0.0
C842 C 0.00329 0.39784 0.78784 0.0
C843 C 0.98823 0.39296 0.81524 0.0
H844 H 0.58935 0.57262 0.84729 0.0
H845 H 0.63596 0.56875 0.7791 0.0
H846 H 0.58102 0.59017 0.79915 0.0
H847 H 0.62787 0.58677 0.73091 0.0
H848 H 0.58071 0.58532 0.64312 0.0
H849 H 0.59718 0.57579 0.69145 0.0
H850 H 0.59318 0.62168 0.76123 0.0
H851 H 0.57624 0.63096 0.71286 0.0
C852 C 0.59812 0.57587 0.82222 0.0
C853 C 0.61316 0.56907 0.81692 0.0
C854 C 0.59344 0.5861 0.79464 0.0
C855 C 0.60368 0.58979 0.76104 0.0
C856 C 0.61948 0.58391 0.75631 0.0
C857 C 0.6242 0.57369 0.78399 0.0
C858 C 0.58361 0.59363 0.66859 0.0
C859 C 0.57694 0.60874 0.67424 0.0
C860 C 0.59322 0.58826 0.69628 0.0
C861 C 0.59638 0.59786 0.73035 0.0
C862 C 0.59069 0.61377 0.73546 0.0
C863 C 0.58109 0.61917 0.70768 0.0
H864 H 0.1758 0.03053 0.94783 0.0
H865 H 0.22703 0.03667 0.01659 0.0
H866 H 0.18303 0.06586 0.9658 0.0
H867 H 0.23388 0.07213 0.03577 0.0
H868 H 0.25502 0.14458 0.02615 0.0
H869 H 0.24808 0.10833 0.01336 0.0
H870 H 0.1798 0.08504 0.01453 0.0
H871 H 0.18674 0.1212 0.02589 0.0
C872 C 0.18844 0.03931 0.96726 0.0
C873 C 0.20082 0.03074 0.98082 0.0
C874 C 0.19252 0.0596 0.97777 0.0
C875 C 0.20897 0.07188 0.00243 0.0
C876 C 0.22122 0.06321 0.01644 0.0
C877 C 0.2172 0.04283 0.00569 0.0
C878 C 0.23854 0.13168 0.02372 0.0
C879 C 0.22144 0.13583 0.02658 0.0
C880 C 0.23455 0.11087 0.01666 0.0
C881 C 0.21338 0.09375 0.0126 0.0
C882 C 0.19632 0.09788 0.01664 0.0
C883 C 0.2003 0.11864 0.0233 0.0
H884 H 0.97612 0.14993 -0.00228 0.0
H885 H 0.95665 0.19779 -0.00049 0.0
H886 H 0.94003 0.12245 0.01468 0.0
H887 H 0.92002 0.17004 0.01488 0.0
H888 H 0.85856 0.11551 0.0661 0.0
H889 H 0.89548 0.14452 0.05705 0.0
H890 H 0.90669 0.10369 0.98566 0.0
H891 H 0.87031 0.07465 -0.00411 0.0
C892 C 0.96408 0.15458 0.00196 0.0
C893 C 0.96913 0.17595 -0.00293 0.0
C894 C 0.9433 0.13878 0.01132 0.0
C895 C 0.92689 0.14387 0.01533 0.0
C896 C 0.93222 0.16551 0.01215 0.0
C897 C 0.9532 0.18143 0.00332 0.0
C898 C 0.86895 0.1128 0.04845 0.0
C899 C 0.86154 0.09272 0.0319 0.0
C900 C 0.89011 0.12945 0.04317 0.0
C901 C 0.90424 0.12643 0.02097 0.0
C902 C 0.89654 0.10648 0.00377 0.0
C903 C 0.87556 0.08982 0.00937 0.0
H904 H 0.85715 0.83657 0.98571 0.0
H905 H 0.80853 0.76958 0.99169 0.0
H906 H 0.8845 0.82767 0.00209 0.0
H907 H 0.83609 0.76037 0.00633 0.0
H908 H 0.8903 0.75296 0.05695 0.0
H909 H 0.86167 0.76136 0.04759 0.0
H910 H 0.90277 0.81237 0.97452 0.0
H911 H 0.93149 0.80461 0.98522 0.0
C912 C 0.85232 0.8199 0.99065 0.0
C913 C 0.83075 0.80376 0.98724 0.0
C914 C 0.86804 0.81474 -0.00032 0.0
C915 C 0.86266 0.79322 0.00478 0.0
C916 C 0.84087 0.77712 0.00281 0.0
C917 C 0.82505 0.78237 -0.00564 0.0
C918 C 0.89314 0.76594 0.03886 0.0
C919 C 0.9132 0.77821 0.02201 0.0
C920 C 0.8767 0.77073 0.03339 0.0
C921 C 0.8799 0.78773 0.0106 0.0
C922 C 0.89984 0.79957 0.99308 0.0
C923 C 0.91631 0.795 -0.00105 0.0
H924 H 0.13869 0.25176 0.46035 0.0
H925 H 0.1161 0.18378 0.45312 0.0
H926 H 0.10219 0.2439 0.47373 0.0
H927 H 0.07969 0.17596 0.46512 0.0
H928 H 0.02475 0.16906 0.53467 0.0
H929 H 0.06018 0.17719 0.51535 0.0
H930 H 0.06601 0.23007 0.45134 0.0
H931 H 0.03044 0.22226 0.47185 0.0
C932 C 0.12591 0.23516 0.46121 0.0
C933 C 0.13035 0.2184 0.45613 0.0
C934 C 0.10495 0.23065 0.46863 0.0
C935 C 0.08798 0.20928 0.47083 0.0
C936 C 0.0924 0.19259 0.46446 0.0
C937 C 0.11331 0.19708 0.45744 0.0
C938 C 0.03345 0.18235 0.51625 0.0
C939 C 0.02473 0.19501 0.50479 0.0
C940 C 0.0538 0.18694 0.50495 0.0
C941 C 0.06598 0.20423 0.4816 0.0
C942 C 0.05715 0.21676 0.46962 0.0
C943 C 0.03672 0.2122 0.48113 0.0
H944 H 0.82831 0.84959 0.50151 0.0
H945 H 0.76088 0.80187 0.50113 0.0
H946 H 0.81974 0.87696 0.48384 0.0
H947 H 0.75207 0.82956 0.48497 0.0
H948 H 0.74543 0.88355 0.4305 0.0
H949 H 0.75313 0.85453 0.44131 0.0
H950 H 0.80533 0.8962 0.51181 0.0
H951 H 0.7982 0.92521 0.49987 0.0
C952 C 0.81162 0.84495 0.49754 0.0
C953 C 0.79526 0.82364 0.50295 0.0
C954 C 0.80666 0.8607 0.48772 0.0
C955 C 0.78517 0.85563 0.48372 0.0
C956 C 0.76881 0.83407 0.48765 0.0
C957 C 0.77382 0.81819 0.49698 0.0
C958 C 0.75853 0.88644 0.44832 0.0
C959 C 0.77131 0.90674 0.46411 0.0
C960 C 0.76291 0.86979 0.45462 0.0
C961 C 0.78004 0.87304 0.4771 0.0
C962 C 0.7924 0.89322 0.49353 0.0
C963 C 0.7882 0.90986 0.48692 0.0
H964 H 0.06462 0.87623 0.4615 0.0
H965 H 0.11051 0.85416 0.45649 0.0
H966 H 0.09358 0.91261 0.47213 0.0
H967 H 0.13961 0.89066 0.4685 0.0
H968 H 0.18896 0.96274 0.4634 0.0
H969 H 0.16038 0.92697 0.44534 0.0
H970 H 0.11699 0.93205 0.51986 0.0
H971 H 0.14501 0.96765 0.53679 0.0
C972 C 0.08091 0.87911 0.46292 0.0
C973 C 0.08522 0.86223 0.45849 0.0
C974 C 0.09755 0.90001 0.46914 0.0
C975 C 0.11895 0.90459 0.47155 0.0
C976 C 0.12335 0.88777 0.46645 0.0
C977 C 0.10665 0.86682 0.45985 0.0
C978 C 0.17322 0.95624 0.47553 0.0
C979 C 0.16924 0.96807 0.5014 0.0
C980 C 0.1569 0.9357 0.46543 0.0
C981 C 0.13634 0.92661 0.48107 0.0
C982 C 0.13245 0.93863 0.50668 0.0
C983 C 0.14862 0.95908 0.51658 0.0
H984 H 0.7702 0.96739 0.97349 0.0
H985 H 0.82502 0.97524 0.03392 0.0
H986 H 0.76254 0.93153 0.95481 0.0
H987 H 0.81704 0.93962 0.01658 0.0
H988 H 0.81147 0.88398 0.95628 0.0
H989 H 0.81815 0.92007 0.96671 0.0
H990 H 0.74995 0.89555 0.9783 0.0
H991 H 0.74318 0.85918 0.96627 0.0
C992 C 0.78064 0.96153 0.98263 0.0
C993 C 0.79829 0.97423 0.00499 0.0
C994 C 0.77616 0.94093 0.9722 0.0
C995 C 0.78923 0.93269 0.98401 0.0
C996 C 0.80688 0.94554 0.00625 0.0
C997 C 0.81141 0.96602 0.0164 0.0
C998 C 0.79784 0.88622 0.96099 0.0
C999 C 0.7768 0.86866 0.96094 0.0
C1000 C 0.80169 0.90697 0.9671 0.0
C1001 C 0.78463 0.91074 0.97394 0.0
C1002 C 0.76347 0.89325 0.9729 0.0
C1003 C 0.75958 0.8724 0.96628 0.0
H1004 H 0.1296 0.93144 0.9896 0.0
H1005 H 0.14143 0.88938 0.92264 0.0
H1006 H 0.09328 0.90256 0.00068 0.0
H1007 H 0.10451 0.86053 0.93229 0.0
H1008 H 0.04371 0.80793 0.99072 0.0
H1009 H 0.08017 0.83566 0.97454 0.0
H1010 H 0.05978 0.88297 0.97358 0.0
H1011 H 0.0239 0.85553 0.99161 0.0
C1012 C 0.12435 0.91604 0.97692 0.0
C1013 C 0.13839 0.91274 0.95517 0.0
C1014 C 0.10338 0.89946 0.983 0.0
C1015 C 0.09571 0.87918 0.96698 0.0
C1016 C 0.10984 0.87583 0.94535 0.0
C1017 C 0.131 0.8924 0.93969 0.0
C1018 C 0.04705 0.82423 0.98654 0.0
C1019 C 0.03108 0.82966 0.99276 0.0
C1020 C 0.06793 0.84015 0.97721 0.0
C1021 C 0.07313 0.86173 0.97338 0.0
C1022 C 0.05665 0.86673 0.97744 0.0
C1023 C 0.03598 0.85095 0.98741 0.0
H1024 H 0.14297 0.16916 -0.00122 0.0
H1025 H 0.19185 0.23593 0.98989 0.0
H1026 H 0.1156 0.17811 0.98283 0.0
H1027 H 0.16427 0.2452 0.97556 0.0
H1028 H 0.1091 0.25204 0.92696 0.0
H1029 H 0.13781 0.2436 0.93505 0.0
H1030 H 0.09839 0.19428 0.01189 0.0
H1031 H 0.06959 0.20209 0.00263 0.0
C1032 C 0.14786 0.18578 0.99318 0.0
C1033 C 0.1695 0.20187 -0.00421 0.0
C1034 C 0.13214 0.19097 0.98441 0.0
C1035 C 0.13759 0.21246 0.97874 0.0
C1036 C 0.15945 0.22847 0.97962 0.0
C1037 C 0.17528 0.22319 0.98784 0.0
C1038 C 0.10665 0.23943 0.94563 0.0
C1039 C 0.08702 0.22763 0.96397 0.0
C1040 C 0.12312 0.23463 0.95034 0.0
C1041 C 0.12038 0.21805 0.97377 0.0
C1042 C 0.10092 0.20672 0.99281 0.0
C1043 C 0.08442 0.21133 0.98777 0.0
H1044 H 0.95601 0.76088 0.49563 0.0
H1045 H 0.97366 0.82762 0.48774 0.0
H1046 H 0.91929 0.75152 0.51166 0.0
H1047 H 0.93754 0.81857 0.50518 0.0
H1048 H 0.86763 0.79483 0.4878 0.0
H1049 H 0.90385 0.80206 0.47643 0.0
H1050 H 0.89499 0.75348 0.55407 0.0
H1051 H 0.85815 0.74565 0.56445 0.0
C1052 C 0.95216 0.77358 0.49819 0.0
C1053 C 0.96758 0.79493 0.49005 0.0
C1054 C 0.93114 0.76825 0.50738 0.0
C1055 C 0.92529 0.78423 0.50895 0.0
C1056 C 0.94122 0.80574 0.50308 0.0
C1057 C 0.96202 0.81098 0.49341 0.0
C1058 C 0.87334 0.78561 0.50238 0.0
C1059 C 0.86005 0.76977 0.5272 0.0
C1060 C 0.89423 0.78988 0.49611 0.0
C1061 C 0.90257 0.77867 0.51486 0.0
C1062 C 0.8891 0.7624 0.53907 0.0
C1063 C 0.868 0.75793 0.54508 0.0
H1064 H 0.17034 0.13987 0.4533 0.0
H1065 H 0.22221 0.18746 0.51811 0.0
H1066 H 0.17944 0.11309 0.47159 0.0
H1067 H 0.23101 0.1602 0.53755 0.0
H1068 H 0.25531 0.11136 0.52526 0.0
H1069 H 0.24619 0.1393 0.5136 0.0
H1070 H 0.17871 0.09194 0.521 0.0
H1071 H 0.18777 0.06406 0.53131 0.0
C1072 C 0.18352 0.14456 0.47195 0.0
C1073 C 0.19556 0.16583 0.48423 0.0
C1074 C 0.18868 0.12911 0.48266 0.0
C1075 C 0.20592 0.13442 0.50618 0.0
C1076 C 0.21776 0.15562 0.51909 0.0
C1077 C 0.21263 0.1712 0.50821 0.0
C1078 C 0.23853 0.10696 0.52449 0.0
C1079 C 0.22227 0.08544 0.52872 0.0
C1080 C 0.2333 0.12301 0.51808 0.0
C1081 C 0.2117 0.11786 0.51604 0.0
C1082 C 0.1955 0.09643 0.52157 0.0
C1083 C 0.20071 0.08042 0.5276 0.0
H1084 H 0.92527 0.1225 0.49814 0.0
H1085 H 0.8834 0.13476 0.56486 0.0
H1086 H 0.89625 0.08621 0.48738 0.0
H1087 H 0.85439 0.0979 0.55545 0.0
H1088 H 0.80176 0.0372 0.49666 0.0
H1089 H 0.82953 0.07359 0.51296 0.0
H1090 H 0.87655 0.05284 0.51531 0.0
H1091 H 0.84907 0.01701 0.49723 0.0
C1092 C 0.90988 0.11736 0.51081 0.0
C1093 C 0.90667 0.13151 0.53243 0.0
C1094 C 0.89322 0.09642 0.50491 0.0
C1095 C 0.87296 0.08889 0.52097 0.0
C1096 C 0.86969 0.10314 0.54241 0.0
C1097 C 0.88633 0.12426 0.54791 0.0
C1098 C 0.81799 0.04043 0.50122 0.0
C1099 C 0.82334 0.02439 0.49534 0.0
C1100 C 0.83393 0.06128 0.5106 0.0
C1101 C 0.85545 0.06635 0.51478 0.0
C1102 C 0.86035 0.04979 0.51117 0.0
C1103 C 0.84456 0.02915 0.50117 0.0
H1104 H 0.85611 0.45513 0.35745 0.0
H1105 H 0.92381 0.47629 0.3652 0.0
H1106 H 0.84864 0.41908 0.34263 0.0
H1107 H 0.91636 0.44029 0.34948 0.0
H1108 H 0.89345 0.36844 0.34749 0.0
H1109 H 0.89964 0.40309 0.36984 0.0
H1110 H 0.85432 0.40173 0.29204 0.0
H1111 H 0.84782 0.36717 0.27045 0.0
C1112 C 0.86942 0.45212 0.35597 0.0
C1113 C 0.89058 0.46867 0.36228 0.0
C1114 C 0.86514 0.43144 0.34733 0.0
C1115 C 0.88191 0.4268 0.34464 0.0
C1116 C 0.90303 0.44324 0.35172 0.0
C1117 C 0.90732 0.46393 0.36047 0.0
C1118 C 0.88468 0.37548 0.33547 0.0
C1119 C 0.87016 0.36505 0.3072 0.0
C1120 C 0.88833 0.39539 0.34809 0.0
C1121 C 0.87748 0.40521 0.33274 0.0
C1122 C 0.86271 0.39452 0.3049 0.0
C1123 C 0.85909 0.37472 0.29233 0.0
H1124 H 0.64901 0.48652 0.33254 0.0
H1125 H 0.62928 0.53418 0.32965 0.0
H1126 H 0.61308 0.45943 0.35102 0.0
H1127 H 0.5928 0.50676 0.34654 0.0
H1128 H 0.53138 0.45315 0.39948 0.0
H1129 H 0.56836 0.48204 0.39005 0.0
H1130 H 0.57979 0.44004 0.32198 0.0
H1131 H 0.54341 0.4112 0.33255 0.0
C1132 C 0.63695 0.49121 0.33608 0.0
C1133 C 0.64186 0.51239 0.32939 0.0
C1134 C 0.61627 0.47563 0.34634 0.0
C1135 C 0.59983 0.48073 0.34944 0.0
C1136 C 0.60504 0.50223 0.34454 0.0
C1137 C 0.62593 0.51796 0.33482 0.0
C1138 C 0.54186 0.45016 0.38254 0.0
C1139 C 0.5345 0.42983 0.36697 0.0
C1140 C 0.56303 0.46673 0.37703 0.0
C1141 C 0.57722 0.46336 0.35561 0.0
C1142 C 0.5696 0.44312 0.3395 0.0
C1143 C 0.54861 0.42657 0.34531 0.0
H1144 H 0.52946 0.16844 0.28846 0.0
H1145 H 0.48182 0.11566 0.35189 0.0
H1146 H 0.55654 0.15989 0.30733 0.0
H1147 H 0.50937 0.10739 0.37186 0.0
H1148 H 0.55957 0.08461 0.35989 0.0
H1149 H 0.53115 0.09304 0.34806 0.0
H1150 H 0.57733 0.16074 0.3575 0.0
H1151 H 0.60569 0.15238 0.36802 0.0
C1152 C 0.52481 0.15516 0.30692 0.0
C1153 C 0.50345 0.14272 0.31866 0.0
C1154 C 0.54043 0.15033 0.31796 0.0
C1155 C 0.5352 0.13299 0.34126 0.0
C1156 C 0.51389 0.12073 0.35361 0.0
C1157 C 0.49815 0.12556 0.34241 0.0
C1158 C 0.56359 0.10128 0.35957 0.0
C1159 C 0.58494 0.11783 0.3644 0.0
C1160 C 0.54728 0.10611 0.35305 0.0
C1161 C 0.55197 0.12759 0.35148 0.0
C1162 C 0.5732 0.14404 0.3577 0.0
C1163 C 0.58948 0.13924 0.36386 0.0
H1164 H 0.8058 0.57824 0.75895 0.0
H1165 H 0.79475 0.524 0.82439 0.0
H1166 H 0.7687 0.56941 0.7683 0.0
H1167 H 0.75817 0.51584 0.83557 0.0
H1168 H 0.68873 0.49409 0.83088 0.0
H1169 H 0.72427 0.50214 0.81137 0.0
H1170 H 0.74481 0.56991 0.81004 0.0
H1171 H 0.70869 0.56149 0.82735 0.0
C1172 C 0.79546 0.56452 0.7756 0.0
C1173 C 0.80317 0.55178 0.79087 0.0
C1174 C 0.77419 0.5595 0.78114 0.0
C1175 C 0.76022 0.54183 0.80262 0.0
C1176 C 0.76813 0.52923 0.81808 0.0
C1177 C 0.78923 0.53401 0.81196 0.0
C1178 C 0.70078 0.51067 0.82576 0.0
C1179 C 0.69603 0.52718 0.83072 0.0
C1180 C 0.72127 0.51535 0.81498 0.0
C1181 C 0.73772 0.53675 0.80982 0.0
C1182 C 0.73262 0.55322 0.81339 0.0
C1183 C 0.71191 0.54844 0.82341 0.0
H1184 H 0.49498 0.18279 0.82245 0.0
H1185 H 0.42747 0.13543 0.82526 0.0
H1186 H 0.48636 0.21013 0.80459 0.0
H1187 H 0.41863 0.16308 0.80901 0.0
H1188 H 0.4111 0.21712 0.75734 0.0
H1189 H 0.41897 0.18805 0.76614 0.0
H1190 H 0.4727 0.22958 0.8341 0.0
H1191 H 0.46537 0.25862 0.82415 0.0
C1192 C 0.47826 0.17822 0.81899 0.0
C1193 C 0.46189 0.15705 0.82549 0.0
C1194 C 0.47328 0.19394 0.80911 0.0
C1195 C 0.45176 0.18899 0.8062 0.0
C1196 C 0.43538 0.1675 0.81087 0.0
C1197 C 0.44041 0.15164 0.82021 0.0
C1198 C 0.42458 0.21998 0.77415 0.0
C1199 C 0.43769 0.24023 0.78985 0.0
C1200 C 0.42906 0.2033 0.77928 0.0
C1201 C 0.44665 0.20649 0.80046 0.0
C1202 C 0.4594 0.22665 0.81675 0.0
C1203 C 0.45508 0.24331 0.81131 0.0
H1204 H 0.77863 0.18953 0.79024 0.0
H1205 H 0.73325 0.21201 0.80062 0.0
H1206 H 0.80804 0.22564 0.80354 0.0
H1207 H 0.76256 0.24804 0.8128 0.0
H1208 H 0.81547 0.30138 0.87914 0.0
H1209 H 0.78681 0.2663 0.86093 0.0
H1210 H 0.82861 0.26242 0.78146 0.0
H1211 H 0.85774 0.29763 0.80055 0.0
C1212 C 0.77494 0.20219 0.79507 0.0
C1213 C 0.75355 0.19781 0.79473 0.0
C1214 C 0.79182 0.22293 0.80242 0.0
C1215 C 0.78768 0.23975 0.80944 0.0
C1216 C 0.76632 0.23541 0.80821 0.0
C1217 C 0.74949 0.21472 0.80109 0.0
C1218 C 0.81858 0.29318 0.85758 0.0
C1219 C 0.83892 0.30234 0.84129 0.0
C1220 C 0.80205 0.27304 0.84698 0.0
C1221 C 0.80534 0.26151 0.81963 0.0
C1222 C 0.82561 0.27078 0.80288 0.0
C1223 C 0.84224 0.29101 0.8136 0.0
H1224 H 0.48443 0.22152 0.28588 0.0
H1225 H 0.41634 0.19809 0.29517 0.0
H1226 H 0.49183 0.25789 0.29669 0.0
H1227 H 0.4238 0.23457 0.30738 0.0
H1228 H 0.44423 0.3059 0.30354 0.0
H1229 H 0.43691 0.27039 0.28367 0.0
H1230 H 0.49079 0.27776 0.34648 0.0
H1231 H 0.49843 0.31311 0.36514 0.0
C1232 C 0.47102 0.22412 0.29043 0.0
C1233 C 0.4498 0.20686 0.29004 0.0
C1234 C 0.47527 0.245 0.29675 0.0
C1235 C 0.45844 0.24918 0.30332 0.0
C1236 C 0.43715 0.23198 0.30207 0.0
C1237 C 0.43287 0.21104 0.29535 0.0
C1238 C 0.45464 0.29999 0.31265 0.0
C1239 C 0.47193 0.31235 0.33584 0.0
C1240 C 0.45035 0.27959 0.30152 0.0
C1241 C 0.46327 0.27119 0.31343 0.0
C1242 C 0.48072 0.2838 0.33618 0.0
C1243 C 0.48504 0.3041 0.34709 0.0
H1244 H 0.81416 0.22358 0.28272 0.0
H1245 H 0.79329 0.27007 0.26952 0.0
H1246 H 0.7773 0.19581 0.29548 0.0
H1247 H 0.7564 0.24219 0.28129 0.0
H1248 H 0.70185 0.19598 0.35575 0.0
H1249 H 0.73688 0.22268 0.33351 0.0
H1250 H 0.74101 0.17381 0.27227 0.0
H1251 H 0.70584 0.14674 0.29544 0.0
C1252 C 0.80168 0.22782 0.28204 0.0
C1253 C 0.80674 0.24912 0.27553 0.0
C1254 C 0.7805 0.21184 0.28911 0.0
C1255 C 0.76389 0.21679 0.28968 0.0
C1256 C 0.76886 0.23791 0.28173 0.0
C1257 C 0.79002 0.25389 0.27486 0.0
C1258 C 0.71008 0.19088 0.33728 0.0
C1259 C 0.70108 0.16919 0.32749 0.0
C1260 C 0.73017 0.20627 0.32428 0.0
C1261 C 0.7418 0.20043 0.30105 0.0
C1262 C 0.73256 0.1788 0.29044 0.0
C1263 C 0.71236 0.16333 0.3035 0.0
H1264 H 0.86352 0.56991 0.32751 0.0
H1265 H 0.81367 0.50404 0.34296 0.0
H1266 H 0.83638 0.57948 0.31139 0.0
H1267 H 0.78672 0.51318 0.32518 0.0
H1268 H 0.7417 0.53875 0.33863 0.0
H1269 H 0.77013 0.53078 0.35073 0.0
H1270 H 0.81 0.57719 0.27032 0.0
H1271 H 0.78166 0.58588 0.25944 0.0
C1272 C 0.84681 0.5574 0.32661 0.0
C1273 C 0.84066 0.53629 0.33683 0.0
C1274 C 0.83122 0.56285 0.31733 0.0
C1275 C 0.80924 0.5472 0.31763 0.0
C1276 C 0.80337 0.52583 0.32579 0.0
C1277 C 0.81885 0.52051 0.33563 0.0
C1278 C 0.75655 0.54732 0.3236 0.0
C1279 C 0.75938 0.56287 0.29797 0.0
C1280 C 0.77285 0.54261 0.33028 0.0
C1281 C 0.79232 0.55304 0.31107 0.0
C1282 C 0.79531 0.56892 0.28581 0.0
C1283 C 0.77904 0.57386 0.27948 0.0
H1284 H 0.64125 0.16359 0.81876 0.0
H1285 H 0.62419 0.09713 0.82944 0.0
H1286 H 0.60512 0.15448 0.83625 0.0
H1287 H 0.58747 0.08768 0.84547 0.0
H1288 H 0.52628 0.08157 0.89779 0.0
H1289 H 0.56326 0.08984 0.88749 0.0
H1290 H 0.57123 0.13745 0.80849 0.0
H1291 H 0.53488 0.12983 0.81979 0.0
C1292 C 0.62973 0.14699 0.82501 0.0
C1293 C 0.63547 0.13104 0.82247 0.0
C1294 C 0.60893 0.14171 0.83472 0.0
C1295 C 0.59315 0.12025 0.84145 0.0
C1296 C 0.59918 0.10438 0.84057 0.0
C1297 C 0.62021 0.10976 0.83136 0.0
C1298 C 0.53598 0.09376 0.87818 0.0
C1299 C 0.52772 0.10518 0.85985 0.0
C1300 C 0.55716 0.09847 0.8722 0.0
C1301 C 0.57041 0.11456 0.84756 0.0
C1302 C 0.56179 0.12543 0.82848 0.0
C1303 C 0.54082 0.12092 0.83473 0.0
H1304 H 0.89599 0.52233 0.85524 0.0
H1305 H 0.84314 0.47447 0.79241 0.0
H1306 H 0.90407 0.4948 0.87606 0.0
H1307 H 0.85143 0.44734 0.81234 0.0
H1308 H 0.92716 0.44493 0.86334 0.0
H1309 H 0.91841 0.47307 0.85155 0.0
H1310 H 0.8509 0.42678 0.86339 0.0
H1311 H 0.85956 0.3986 0.87419 0.0
C1312 C 0.88602 0.50595 0.8461 0.0
C1313 C 0.86894 0.50061 0.82215 0.0
C1314 C 0.89073 0.49021 0.85781 0.0
C1315 C 0.87841 0.46884 0.84587 0.0
C1316 C 0.86106 0.46352 0.82257 0.0
C1317 C 0.85638 0.47917 0.81092 0.0
C1318 C 0.91046 0.44079 0.86365 0.0
C1319 C 0.89406 0.41944 0.8693 0.0
C1320 C 0.90545 0.45697 0.85714 0.0
C1321 C 0.88394 0.45217 0.85625 0.0
C1322 C 0.86761 0.43097 0.86319 0.0
C1323 C 0.8726 0.4148 0.86952 0.0
H1324 H 0.59825 0.44753 0.86933 0.0
H1325 H 0.55449 0.47211 0.86144 0.0
H1326 H 0.56877 0.41139 0.85885 0.0
H1327 H 0.52492 0.43583 0.84948 0.0
H1328 H 0.47314 0.36465 0.85324 0.0
H1329 H 0.50178 0.40001 0.87291 0.0
H1330 H 0.5475 0.39183 0.8093 0.0
H1331 H 0.51937 0.35663 0.79089 0.0
C1332 C 0.58232 0.44523 0.86515 0.0
C1333 C 0.57877 0.46274 0.86581 0.0
C1334 C 0.56539 0.42447 0.85901 0.0
C1335 C 0.54447 0.42067 0.85285 0.0
C1336 C 0.54078 0.43812 0.85444 0.0
C1337 C 0.55775 0.45894 0.86102 0.0
C1338 C 0.48939 0.37036 0.84392 0.0
C1339 C 0.49398 0.3578 0.8206 0.0
C1340 C 0.50576 0.39068 0.85493 0.0
C1341 C 0.52699 0.39879 0.84277 0.0
C1342 C 0.53148 0.38601 0.81984 0.0
C1343 C 0.51525 0.36579 0.80906 0.0
H1344 H 0.57063 0.70773 0.66451 0.0
H1345 H 0.5026 0.68518 0.6631 0.0
H1346 H 0.57779 0.7437 0.68038 0.0
H1347 H 0.50948 0.72057 0.68086 0.0
H1348 H 0.52816 0.78978 0.66412 0.0
H1349 H 0.52207 0.75387 0.65376 0.0
H1350 H 0.57612 0.76752 0.72212 0.0
H1351 H 0.58281 0.80401 0.73101 0.0
C1352 C 0.55719 0.71036 0.66852 0.0
C1353 C 0.53608 0.69376 0.66224 0.0
C1354 C 0.56126 0.73097 0.67769 0.0
C1355 C 0.54424 0.73526 0.68129 0.0
C1356 C 0.52306 0.71816 0.67718 0.0
C1357 C 0.51906 0.69776 0.66736 0.0
C1358 C 0.53875 0.78514 0.67697 0.0
C1359 C 0.55594 0.79975 0.69843 0.0
C1360 C 0.53515 0.76441 0.6713 0.0
C1361 C 0.54841 0.75754 0.68747 0.0
C1362 C 0.56568 0.77223 0.70893 0.0
C1363 C 0.56948 0.79314 0.71416 0.0
H1364 H 0.21106 0.73346 0.69392 0.0
H1365 H 0.19063 0.78068 0.6966 0.0
H1366 H 0.24764 0.7616 0.6816 0.0
H1367 H 0.22733 0.80891 0.68315 0.0
H1368 H 0.29982 0.85685 0.68547 0.0
H1369 H 0.26415 0.8291 0.70573 0.0
H1370 H 0.26655 0.78404 0.63171 0.0
H1371 H 0.30205 0.81132 0.61235 0.0
C1372 C 0.21434 0.74986 0.69174 0.0
C1373 C 0.19784 0.75477 0.69591 0.0
C1374 C 0.23535 0.76601 0.68456 0.0
C1375 C 0.24042 0.78751 0.68104 0.0
C1376 C 0.22403 0.79254 0.68603 0.0
C1377 C 0.20296 0.77634 0.69346 0.0
C1378 C 0.29278 0.84092 0.67392 0.0
C1379 C 0.30379 0.83629 0.64737 0.0
C1380 C 0.2723 0.82509 0.68529 0.0
C1381 C 0.26248 0.80432 0.67037 0.0
C1382 C 0.27372 0.79971 0.64425 0.0
C1383 C 0.29409 0.81545 0.63298 0.0
H1384 H 0.22407 0.41641 0.72812 0.0
H1385 H 0.26737 0.46993 0.66139 0.0
H1386 H 0.19605 0.42561 0.71862 0.0
H1387 H 0.23923 0.47849 0.65035 0.0
H1388 H 0.19269 0.50162 0.65663 0.0
H1389 H 0.21974 0.49288 0.67589 0.0
H1390 H 0.17172 0.42537 0.67624 0.0
H1391 H 0.14445 0.43443 0.65893 0.0
C1392 C 0.22753 0.43004 0.71117 0.0
C1393 C 0.24796 0.44248 0.6956 0.0
C1394 C 0.21143 0.43527 0.70558 0.0
C1395 C 0.2153 0.45291 0.68387 0.0
C1396 C 0.23572 0.46515 0.66802 0.0
C1397 C 0.25187 0.46013 0.67408 0.0
C1398 C 0.18788 0.48495 0.66146 0.0
C1399 C 0.16652 0.46869 0.65613 0.0
C1400 C 0.20343 0.47988 0.67212 0.0
C1401 C 0.19812 0.45835 0.6769 0.0
C1402 C 0.17647 0.44214 0.6731 0.0
C1403 C 0.16079 0.44729 0.66311 0.0
H1404 H 0.3698 0.89269 0.13855 0.0
H1405 H 0.3683 0.84673 0.21519 0.0
H1406 H 0.40524 0.90008 0.11803 0.0
H1407 H 0.4036 0.85448 0.1956 0.0
H1408 H 0.4583 0.85763 0.13329 0.0
H1409 H 0.42193 0.84963 0.14639 0.0
H1410 H 0.44228 0.91714 0.13902 0.0
H1411 H 0.47872 0.92513 0.12476 0.0
C1412 C 0.37697 0.8841 0.15087 0.0
C1413 C 0.36621 0.86909 0.17842 0.0
C1414 C 0.39733 0.88845 0.13933 0.0
C1415 C 0.40728 0.87785 0.15512 0.0
C1416 C 0.39632 0.86267 0.18235 0.0
C1417 C 0.37606 0.85831 0.19376 0.0
C1418 C 0.45506 0.87081 0.13436 0.0
C1419 C 0.4715 0.89206 0.12829 0.0
C1420 C 0.43418 0.86621 0.142 0.0
C1421 C 0.42918 0.88275 0.14411 0.0
C1422 C 0.44551 0.90398 0.13727 0.0
C1423 C 0.46644 0.90858 0.12936 0.0
H1424 H 0.13989 0.60142 0.15889 0.0
H1425 H 0.08604 0.55985 0.09142 0.0
H1426 H 0.14784 0.57274 0.16799 0.0
H1427 H 0.0946 0.53119 0.09914 0.0
H1428 H 0.10384 0.47852 0.15566 0.0
H1429 H 0.09457 0.50597 0.14036 0.0
H1430 H 0.16208 0.55395 0.13899 0.0
H1431 H 0.17106 0.52677 0.15616 0.0
C1432 C 0.12986 0.58617 0.14567 0.0
C1433 C 0.11238 0.58295 0.12435 0.0
C1434 C 0.13453 0.56972 0.15061 0.0
C1435 C 0.12209 0.54965 0.13385 0.0
C1436 C 0.10445 0.54634 0.11269 0.0
C1437 C 0.09958 0.56279 0.10815 0.0
C1438 C 0.11664 0.4949 0.15152 0.0
C1439 C 0.13814 0.5006 0.15746 0.0
C1440 C 0.11136 0.51066 0.1427 0.0
C1441 C 0.12754 0.53234 0.13915 0.0
C1442 C 0.14912 0.53761 0.1427 0.0
C1443 C 0.15432 0.52199 0.15217 0.0
H1444 H 0.48331 0.64888 0.16184 0.0
H1445 H 0.53088 0.62908 0.15947 0.0
H1446 H 0.45633 0.61387 0.13952 0.0
H1447 H 0.50363 0.59342 0.13929 0.0
H1448 H 0.45216 0.53356 0.08378 0.0
H1449 H 0.48015 0.57049 0.09551 0.0
H1450 H 0.4357 0.57945 0.16155 0.0
H1451 H 0.40762 0.54311 0.14808 0.0
C1452 C 0.48797 0.63698 0.15638 0.0
C1453 C 0.50912 0.64162 0.16251 0.0
C1454 C 0.47246 0.61678 0.14396 0.0
C1455 C 0.47756 0.60049 0.13827 0.0
C1456 C 0.49903 0.6055 0.14301 0.0
C1457 C 0.5147 0.62594 0.15468 0.0
C1458 C 0.44841 0.54353 0.10063 0.0
C1459 C 0.42767 0.53545 0.11493 0.0
C1460 C 0.4645 0.5647 0.10754 0.0
C1461 C 0.46031 0.57817 0.12943 0.0
C1462 C 0.43952 0.5699 0.14381 0.0
C1463 C 0.42338 0.54892 0.13635 0.0
H1464 H 0.15752 0.63679 0.70496 0.0
H1465 H 0.10763 0.63236 0.63454 0.0
H1466 H 0.15039 0.60177 0.68538 0.0
H1467 H 0.10085 0.59713 0.61385 0.0
H1468 H 0.08005 0.52425 0.62047 0.0
H1469 H 0.08637 0.56018 0.63468 0.0
H1470 H 0.15481 0.58434 0.63472 0.0
H1471 H 0.14851 0.54858 0.62189 0.0
C1472 C 0.14517 0.62844 0.68489 0.0
C1473 C 0.13319 0.63743 0.67122 0.0
C1474 C 0.14116 0.60833 0.67346 0.0
C1475 C 0.12517 0.59666 0.64777 0.0
C1476 C 0.11318 0.60564 0.63387 0.0
C1477 C 0.11716 0.62586 0.64551 0.0
C1478 C 0.09643 0.53729 0.62342 0.0
C1479 C 0.11376 0.5335 0.62058 0.0
C1480 C 0.10006 0.5579 0.63132 0.0
C1481 C 0.12109 0.57512 0.63627 0.0
C1482 C 0.13838 0.57138 0.63198 0.0
C1483 C 0.13476 0.55084 0.62449 0.0
H1484 H 0.37704 0.47038 0.65555 0.0
H1485 H 0.35842 0.51851 0.66797 0.0
H1486 H 0.41366 0.49844 0.64103 0.0
H1487 H 0.39446 0.54639 0.65165 0.0
H1488 H 0.46445 0.59314 0.66953 0.0
H1489 H 0.42804 0.56401 0.67913 0.0
H1490 H 0.43821 0.52527 0.60136 0.0
H1491 H 0.4752 0.55428 0.59311 0.0
C1492 C 0.38067 0.48692 0.65422 0.0
C1493 C 0.36499 0.49233 0.6632 0.0
C1494 C 0.40165 0.50303 0.64587 0.0
C1495 C 0.40724 0.52482 0.64585 0.0
C1496 C 0.39104 0.52992 0.65258 0.0
C1497 C 0.37027 0.51391 0.66155 0.0
C1498 C 0.45896 0.57839 0.65454 0.0
C1499 C 0.4727 0.57606 0.6305 0.0
C1500 C 0.43795 0.56169 0.65976 0.0
C1501 C 0.42993 0.54229 0.64059 0.0
C1502 C 0.44381 0.53986 0.61681 0.0
C1503 C 0.46501 0.55652 0.61199 0.0
H1504 H 0.44606 0.92166 0.62508 0.0
H1505 H 0.40017 0.85441 0.60894 0.0
H1506 H 0.47403 0.91272 0.63712 0.0
H1507 H 0.42822 0.84557 0.61982 0.0
H1508 H 0.47443 0.83586 0.69131 0.0
H1509 H 0.44763 0.84449 0.67088 0.0
H1510 H 0.49653 0.89943 0.61304 0.0
H1511 H 0.52369 0.89103 0.63452 0.0
C1512 C 0.442 0.905 0.62363 0.0
C1513 C 0.42081 0.88873 0.61647 0.0
C1514 C 0.45809 0.89989 0.63028 0.0
C1515 C 0.45337 0.87839 0.62972 0.0
C1516 C 0.43234 0.86224 0.6212 0.0
C1517 C 0.41625 0.86733 0.61483 0.0
C1518 C 0.47951 0.84969 0.67396 0.0
C1519 C 0.50124 0.8628 0.66465 0.0
C1520 C 0.46406 0.85457 0.66201 0.0
C1521 C 0.46986 0.87266 0.64025 0.0
C1522 C 0.49154 0.88551 0.63011 0.0
C1523 C 0.50708 0.88062 0.64218 0.0
H1524 H 0.21938 0.48438 0.18309 0.0
H1525 H 0.19672 0.41629 0.18784 0.0
H1526 H 0.25554 0.49145 0.17117 0.0
H1527 H 0.233 0.42336 0.17467 0.0
H1528 H 0.30514 0.44577 0.17848 0.0
H1529 H 0.26955 0.43881 0.19728 0.0
H1530 H 0.27435 0.48708 0.12249 0.0
H1531 H 0.30978 0.4944 0.10471 0.0
C1532 C 0.22208 0.47087 0.18137 0.0
C1533 C 0.20509 0.44974 0.1861 0.0
C1534 C 0.24285 0.47494 0.17441 0.0
C1535 C 0.24719 0.45797 0.1716 0.0
C1536 C 0.23028 0.43683 0.17699 0.0
C1537 C 0.20945 0.43276 0.18427 0.0
C1538 C 0.29863 0.45501 0.16641 0.0
C1539 C 0.31033 0.47069 0.14022 0.0
C1540 C 0.27818 0.45091 0.17695 0.0
C1541 C 0.26908 0.46242 0.16147 0.0
C1542 C 0.28096 0.47818 0.13552 0.0
C1543 C 0.3013 0.4823 0.12515 0.0
H1544 H 0.51174 0.81424 0.12434 0.0
H1545 H 0.56415 0.86178 0.18834 0.0
H1546 H 0.52004 0.78712 0.14376 0.0
H1547 H 0.57215 0.83412 0.20897 0.0
H1548 H 0.59372 0.7826 0.20012 0.0
H1549 H 0.58624 0.8116 0.18703 0.0
H1550 H 0.51814 0.76652 0.19474 0.0
H1551 H 0.52556 0.73767 0.20637 0.0
C1552 C 0.5249 0.81887 0.14302 0.0
C1553 C 0.53725 0.8402 0.15486 0.0
C1554 C 0.52959 0.80321 0.15438 0.0
C1555 C 0.54667 0.80834 0.1782 0.0
C1556 C 0.55898 0.82966 0.1904 0.0
C1557 C 0.55431 0.84546 0.17882 0.0
C1558 C 0.57718 0.77898 0.19915 0.0
C1559 C 0.56023 0.75779 0.2037 0.0
C1560 C 0.57289 0.79561 0.19189 0.0
C1561 C 0.55157 0.79136 0.18936 0.0
C1562 C 0.53474 0.77031 0.19555 0.0
C1563 C 0.539 0.75374 0.20235 0.0
H1564 H 0.19266 0.69919 0.13018 0.0
H1565 H 0.14509 0.70559 0.19145 0.0
H1566 H 0.2203 0.7342 0.15079 0.0
H1567 H 0.1731 0.74069 0.21307 0.0
H1568 H 0.22395 0.81308 0.20132 0.0
H1569 H 0.1955 0.77648 0.18911 0.0
H1570 H 0.2409 0.75417 0.20151 0.0
H1571 H 0.26947 0.79084 0.21263 0.0
C1572 C 0.18813 0.70795 0.14853 0.0
C1573 C 0.16663 0.69962 0.15905 0.0
C1574 C 0.20407 0.72802 0.16059 0.0
C1575 C 0.19898 0.74032 0.18363 0.0
C1576 C 0.17754 0.73175 0.19498 0.0
C1577 C 0.16151 0.71158 0.18282 0.0
C1578 C 0.22785 0.80035 0.20165 0.0
C1579 C 0.24906 0.80495 0.20757 0.0
C1580 C 0.21148 0.77931 0.19492 0.0
C1581 C 0.21591 0.76236 0.19412 0.0
C1582 C 0.23699 0.76688 0.20126 0.0
C1583 C 0.25337 0.78792 0.20777 0.0
H1584 H 0.19342 0.19519 0.15064 0.0
H1585 H 0.26233 0.23619 0.15882 0.0
H1586 H 0.18958 0.20218 0.21326 0.0
H1587 H 0.25824 0.24327 0.22212 0.0
H1588 H 0.23076 0.2636 0.32454 0.0
H1589 H 0.23849 0.26032 0.26121 0.0
H1590 H 0.20248 0.19127 0.27069 0.0
H1591 H 0.19488 0.19432 0.33328 0.0
C1592 C 0.20777 0.20583 0.16569 0.0
C1593 C 0.22822 0.21498 0.14977 0.0
C1594 C 0.20553 0.20977 0.2016 0.0
C1595 C 0.22363 0.2231 0.22244 0.0
C1596 C 0.24406 0.23295 0.20645 0.0
C1597 C 0.24637 0.22881 0.17038 0.0
C1598 C 0.22465 0.24774 0.31311 0.0
C1599 C 0.21204 0.22923 0.33388 0.0
C1600 C 0.22916 0.2459 0.27702 0.0
C1601 C 0.22088 0.22555 0.2612 0.0
C1602 C 0.20883 0.20714 0.28222 0.0
C1603 C 0.20453 0.20894 0.31813 0.0
H1604 H 0.76356 0.03156 0.16949 0.0
H1605 H 0.80489 0.00446 0.15505 0.0
H1606 H 0.7568 0.01852 0.23176 0.0
H1607 H 0.7981 0.99157 0.21666 0.0
H1608 H 0.80288 0.9959 0.33834 0.0
H1609 H 0.80776 0.00939 0.27706 0.0
H1610 H 0.73925 0.98261 0.26637 0.0
H1611 H 0.73422 0.96903 0.32814 0.0
C1612 C 0.77115 0.02282 0.1795 0.0
C1613 C 0.78485 0.01915 0.15734 0.0
C1614 C 0.76719 0.01528 0.21503 0.0
C1615 C 0.77707 0.00419 0.22903 0.0
C1616 C 0.79052 1.00034 0.20672 0.0
C1617 C 0.79431 0.00766 0.17133 0.0
C1618 C 0.78881 0.99289 0.32307 0.0
C1619 C 0.76814 0.98125 0.33808 0.0
C1620 C 0.79162 1.00057 0.28791 0.0
C1621 C 0.77387 0.99692 0.26694 0.0
C1622 C 0.75321 0.98572 0.28207 0.0
C1623 C 0.75035 0.97785 0.31729 0.0
H1624 H 0.02833 0.76487 0.32283 0.0
H1625 H 0.99868 0.80415 0.33379 0.0
H1626 H 0.01804 0.75917 0.25916 0.0
H1627 H 0.98858 0.79845 0.27075 0.0
H1628 H 0.99912 0.80676 0.15009 0.0
H1629 H 0.00988 0.81028 0.21286 0.0
H1630 H 0.98344 0.74167 0.22004 0.0
H1631 H 0.97255 0.73801 0.15682 0.0
C1632 C 0.01957 0.77219 0.31178 0.0
C1633 C 0.01444 0.78506 0.33336 0.0
C1634 C 0.01363 0.76885 0.27544 0.0
C1635 C 0.00272 0.77855 0.26007 0.0
C1636 C 0.99727 0.79105 0.2818 0.0
C1637 C 0.00298 0.79421 0.31801 0.0
C1638 C 0.99566 0.79239 0.16487 0.0
C1639 C 0.98483 0.77207 0.14849 0.0
C1640 C 0.00176 0.79442 0.20088 0.0
C1641 C 0.99733 0.77623 0.2213 0.0
C1642 C 0.98709 0.75595 0.20479 0.0
C1643 C 0.98078 0.75387 0.16872 0.0
H1644 H 0.7939 0.82378 0.82334 0.0
H1645 H 0.74651 0.7574 0.84198 0.0
H1646 H 0.79772 0.81563 0.76147 0.0
H1647 H 0.75142 0.74861 0.78041 0.0
H1648 H 0.75379 0.74334 0.65743 0.0
H1649 H 0.74674 0.7504 0.7188 0.0
H1650 H 0.81331 0.80035 0.7286 0.0
H1651 H 0.81965 0.79426 0.66685 0.0
C1652 C 0.78442 0.80735 0.81409 0.0
C1653 C 0.77003 0.79119 0.83732 0.0
C1654 C 0.78676 0.80256 0.77868 0.0
C1655 C 0.77529 0.78131 0.76586 0.0
C1656 C 0.76044 0.76517 0.78906 0.0
C1657 C 0.75765 0.77014 0.82439 0.0
C1658 C 0.76682 0.7558 0.67294 0.0
C1659 C 0.78718 0.76844 0.65743 0.0
C1660 C 0.76285 0.75981 0.70817 0.0
C1661 C 0.77934 0.77622 0.72877 0.0
C1662 C 0.79994 0.78813 0.7134 0.0
C1663 C 0.8037 0.78452 0.67804 0.0
H1664 H 0.20067 0.99602 0.64742 0.0
H1665 H 0.26982 0.03251 0.65862 0.0
H1666 H 0.19728 0.98557 0.71016 0.0
H1667 H 0.26618 0.02162 0.72213 0.0
H1668 H 0.24108 0.97246 0.82443 0.0
H1669 H 0.24906 0.98381 0.76128 0.0
H1670 H 0.20729 0.0107 0.76734 0.0
H1671 H 0.19944 0.99972 0.82991 0.0
C1672 C 0.2152 0.00168 0.66312 0.0
C1673 C 0.23554 0.01531 0.64803 0.0
C1674 C 0.2132 0.9957 0.69911 0.0
C1675 C 0.23145 0.00298 0.72086 0.0
C1676 C 0.2519 0.01583 0.70571 0.0
C1677 C 0.25393 0.02209 0.66952 0.0
C1678 C 0.23375 0.98095 0.81231 0.0
C1679 C 0.21947 0.98502 0.83209 0.0
C1680 C 0.23843 0.98751 0.77635 0.0
C1681 C 0.22864 0.99794 0.75964 0.0
C1682 C 0.21487 0.0025 0.77965 0.0
C1683 C 0.21042 0.99622 0.8155 0.0
H1684 H 0.96551 0.23131 0.66612 0.0
H1685 H 0.99441 0.19124 0.65774 0.0
H1686 H 0.97737 0.23918 0.72887 0.0
H1687 H 0.00613 0.19913 0.71992 0.0
H1688 H 0.9988 0.1954 0.84135 0.0
H1689 H 0.98663 0.18966 0.77926 0.0
H1690 H 0.01269 0.25788 0.76547 0.0
H1691 H 0.02498 0.26379 0.82808 0.0
C1692 C 0.97442 0.22425 0.67756 0.0
C1693 C 0.9789 0.21055 0.65699 0.0
C1694 C 0.98127 0.22885 0.71336 0.0
C1695 C 0.99249 0.21961 0.72923 0.0
C1696 C 0.99724 0.20622 0.70849 0.0
C1697 C 0.99059 0.20179 0.67279 0.0
C1698 C 0.0019 0.20923 0.82526 0.0
C1699 C 0.013 0.23009 0.83964 0.0
C1700 C 0.995 0.20592 0.78963 0.0
C1701 C 0.99888 0.22334 0.76755 0.0
C1702 C 0.00944 0.24417 0.78203 0.0
C1703 C 0.01655 0.24754 0.81775 0.0
H1704 H 0.93224 0.54956 0.50563 0.0
H1705 H 0.87524 0.55305 0.48165 0.0
H1706 H 0.92986 0.55802 0.56876 0.0
H1707 H 0.87319 0.56187 0.54438 0.0
H1708 H 0.88795 0.59534 0.65416 0.0
H1709 H 0.89644 0.59246 0.59134 0.0
H1710 H 0.89964 0.53561 0.61733 0.0
H1711 H 0.8908 0.53819 0.67992 0.0
C1712 C 0.91942 0.55244 0.51373 0.0
C1713 C 0.90384 0.55052 0.48884 0.0
C1714 C 0.91805 0.55721 0.54976 0.0
C1715 C 0.90138 0.56062 0.56122 0.0
C1716 C 0.8863 0.55949 0.53608 0.0
C1717 C 0.8874 0.5543 0.50029 0.0
C1718 C 0.89075 0.5824 0.64655 0.0
C1719 C 0.88856 0.56689 0.67183 0.0
C1720 C 0.89554 0.58074 0.61066 0.0
C1721 C 0.89866 0.56382 0.59968 0.0
C1722 C 0.89746 0.54889 0.62526 0.0
C1723 C 0.89226 0.5503 0.66096 0.0
H1724 H 0.47321 0.33933 0.48715 0.0
H1725 H 0.43287 0.36775 0.49895 0.0
H1726 H 0.46465 0.32567 0.54822 0.0
H1727 H 0.42427 0.35385 0.56068 0.0
H1728 H 0.39971 0.30274 0.65654 0.0
H1729 H 0.4055 0.31664 0.59477 0.0
H1730 H 0.47395 0.34468 0.60872 0.0
H1731 H 0.46839 0.33103 0.66984 0.0
C1732 C 0.46244 0.34262 0.5027 0.0
C1733 C 0.45385 0.35479 0.48822 0.0
C1734 C 0.4576 0.33483 0.53775 0.0
C1735 C 0.44395 0.33887 0.55917 0.0
C1736 C 0.43481 0.35049 0.54458 0.0
C1737 C 0.43983 0.35852 0.50941 0.0
C1738 C 0.41598 0.31194 0.6464 0.0
C1739 C 0.43357 0.31563 0.66803 0.0
C1740 C 0.41927 0.31997 0.6112 0.0
C1741 C 0.44015 0.33156 0.59703 0.0
C1742 C 0.45767 0.33556 0.61888 0.0
C1743 C 0.45444 0.32777 0.65396 0.0
H1744 H 0.69489 0.09707 0.66137 0.0
H1745 H 0.67057 0.14122 0.66499 0.0
H1746 H 0.68533 0.09051 0.59735 0.0
H1747 H 0.66135 0.13478 0.60162 0.0
H1748 H 0.67604 0.14107 0.48235 0.0
H1749 H 0.68597 0.14406 0.54536 0.0
H1750 H 0.64951 0.0751 0.55629 0.0
H1751 H 0.63923 0.0719 0.49262 0.0
C1752 C 0.68746 0.10528 0.64863 0.0
C1753 C 0.68362 0.11977 0.66822 0.0
C1754 C 0.68193 0.10145 0.61214 0.0
C1755 C 0.6728 0.1123 0.59467 0.0
C1756 C 0.6686 0.1264 0.61443 0.0
C1757 C 0.67383 0.13001 0.65078 0.0
C1758 C 0.67021 0.12645 0.4979 0.0
C1759 C 0.65663 0.10623 0.48246 0.0
C1760 C 0.67589 0.12822 0.53405 0.0
C1761 C 0.66831 0.10983 0.55563 0.0
C1762 C 0.65555 0.0895 0.54007 0.0
C1763 C 0.64963 0.08771 0.50376 0.0
H1764 H 0.47458 0.14431 0.16612 0.0
H1765 H 0.40531 0.1061 0.16003 0.0
H1766 H 0.47728 0.13609 0.10373 0.0
H1767 H 0.4082 0.09783 0.09694 0.0
H1768 H 0.43012 0.0717 -0.00272 0.0
H1769 H 0.42403 0.07809 0.05977 0.0
H1770 H 0.46674 0.14612 0.04487 0.0
H1771 H 0.47288 0.13991 0.98284 0.0
C1772 C 0.45989 0.13408 0.15154 0.0
C1773 C 0.4397 0.12595 0.16805 0.0
C1774 C 0.46148 0.12948 0.1157 0.0
C1775 C 0.44295 0.11651 0.09551 0.0
C1776 C 0.42272 0.10786 0.11205 0.0
C1777 C 0.42109 0.11266 0.14803 0.0
C1778 C 0.43811 0.08802 0.00732 0.0
C1779 C 0.45214 0.10528 0.98519 0.0
C1780 C 0.43451 0.09166 0.04296 0.0
C1781 C 0.44506 0.11256 0.0571 0.0
C1782 C 0.45863 0.12981 0.03472 0.0
C1783 C 0.46207 0.12623 -0.00085 0.0
H1784 H 0.89615 0.28868 0.14857 0.0
H1785 H 0.90185 0.35036 0.17022 0.0
H1786 H 0.90644 0.29938 0.08585 0.0
H1787 H 0.91236 0.36105 0.1079 0.0
H1788 H 0.94209 0.3784 -0.00308 0.0
H1789 H 0.94126 0.36764 0.05974 0.0
H1790 H 0.88469 0.3066 0.03752 0.0
H1791 H 0.88529 0.31737 0.97513 0.0
C1792 C 0.90005 0.30466 0.14015 0.0
C1793 C 0.89797 0.31861 0.16412 0.0
C1794 C 0.90588 0.31073 0.10432 0.0
C1795 C 0.91015 0.33101 0.09215 0.0
C1796 C 0.90934 0.34541 0.11668 0.0
C1797 C 0.90316 0.33921 0.15225 0.0
C1798 C 0.92974 0.36254 0.00535 0.0
C1799 C 0.91362 0.3488 0.9813 0.0
C1800 C 0.92925 0.35643 0.04123 0.0
C1801 C 0.9129 0.33632 0.05337 0.0
C1802 C 0.89758 0.32211 0.02877 0.0
C1803 C 0.89783 0.32835 0.99316 0.0
H1804 H 0.69846 0.59791 0.15658 0.0
H1805 H 0.67168 0.52959 0.17208 0.0
H1806 H 0.68623 0.59143 0.09393 0.0
H1807 H 0.65959 0.52329 0.10994 0.0
H1808 H 0.66754 0.52345 0.98866 0.0
H1809 H 0.6792 0.53201 0.05073 0.0
H1810 H 0.65088 0.57254 0.0571 0.0
H1811 H 0.63904 0.56397 -0.0056 0.0
C1812 C 0.68992 0.58155 0.14673 0.0
C1813 C 0.68618 0.56428 0.16927 0.0
C1814 C 0.68284 0.57786 0.11097 0.0
C1815 C 0.67212 0.55689 0.0971 0.0
C1816 C 0.66807 0.53965 0.11982 0.0
C1817 C 0.67494 0.54329 0.15548 0.0
C1818 C 0.6638 0.53425 0.00309 0.0
C1819 C 0.65223 0.54293 0.98657 0.0
C1820 C 0.67042 0.53906 0.03875 0.0
C1821 C 0.66578 0.55278 0.05876 0.0
C1822 C 0.6547 0.56195 0.04217 0.0
C1823 C 0.64786 0.55696 0.00639 0.0
H1824 H 0.56906 0.9347 0.99007 0.0
H1825 H 0.53181 0.86577 0.0036 0.0
H1826 H 0.5749 0.9296 0.92657 0.0
H1827 H 0.53755 0.86089 0.94086 0.0
H1828 H 0.52764 0.86121 0.82067 0.0
H1829 H 0.52449 0.86997 0.88268 0.0
H1830 H 0.59321 0.91166 0.88841 0.0
H1831 H 0.59655 0.90285 0.82588 0.0
C1832 C 0.56222 0.91854 0.97963 0.0
C1833 C 0.54987 0.90066 0.00186 0.0
C1834 C 0.56563 0.91564 0.94342 0.0
C1835 C 0.55647 0.89487 0.9289 0.0
C1836 C 0.54453 0.87709 0.9513 0.0
C1837 C 0.54134 0.87993 0.98733 0.0
C1838 C 0.54212 0.87235 0.83492 0.0
C1839 C 0.56238 0.88117 0.81839 0.0
C1840 C 0.54029 0.87731 0.87048 0.0
C1841 C 0.55863 0.89134 0.8903 0.0
C1842 C 0.57884 0.90084 0.87357 0.0
C1843 C 0.58073 0.89569 0.83793 0.0
H1844 H 0.06947 0.64256 -0.00348 0.0
H1845 H 0.13865 0.67368 0.00509 0.0
H1846 H 0.07311 0.65412 0.93352 0.0
H1847 H 0.14207 0.68492 0.94262 0.0
H1848 H 0.13633 0.67017 0.82228 0.0
H1849 H 0.12996 0.66061 0.88547 0.0
H1850 H 0.09129 0.69088 0.89389 0.0
H1851 H 0.09783 0.70084 0.82993 0.0
C1852 C 0.0854 0.65198 0.98514 0.0
C1853 C 0.10376 0.657 0.00573 0.0
C1854 C 0.08745 0.65867 0.94923 0.0
C1855 C 0.10785 0.67022 0.93334 0.0
C1856 C 0.12615 0.67583 0.95424 0.0
C1857 C 0.12415 0.6694 0.99004 0.0
C1858 C 0.12636 0.67477 0.83734 0.0
C1859 C 0.11769 0.68641 0.82105 0.0
C1860 C 0.12281 0.66934 0.87361 0.0
C1861 C 0.11032 0.67519 0.89447 0.0
C1862 C 0.10099 0.68621 0.87821 0.0
C1863 C 0.10479 0.69194 0.84176 0.0
H1864 H 0.38661 0.45098 0.97541 0.0
H1865 H 0.32583 0.4451 0.00553 0.0
H1866 H 0.37373 0.44124 0.91342 0.0
H1867 H 0.31296 0.43505 0.94394 0.0
H1868 H 0.29191 0.4011 0.83471 0.0
H1869 H 0.30508 0.40477 0.89656 0.0
H1870 H 0.36354 0.46234 0.86662 0.0
H1871 H 0.35035 0.45896 0.8051 0.0
C1872 C 0.37042 0.44727 0.96893 0.0
C1873 C 0.35727 0.44895 -0.00484 0.0
C1874 C 0.36311 0.44177 0.93354 0.0
C1875 C 0.34239 0.43741 0.92409 0.0
C1876 C 0.32893 0.43817 0.95067 0.0
C1877 C 0.33636 0.44406 0.9858 0.0
C1878 C 0.30767 0.41439 0.84128 0.0
C1879 C 0.32004 0.42984 0.8152 0.0
C1880 C 0.31515 0.41649 0.87659 0.0
C1881 C 0.33531 0.43381 0.88617 0.0
C1882 C 0.34803 0.44875 0.85978 0.0
C1883 C 0.3404 0.44689 0.8247 0.0
H1884 H 0.14575 0.47562 0.49804 0.0
H1885 H 0.0769 0.43528 0.48731 0.0
H1886 H 0.15029 0.46922 0.43539 0.0
H1887 H 0.08163 0.42889 0.42407 0.0
H1888 H 0.10654 0.40833 0.32157 0.0
H1889 H 0.09948 0.41176 0.38506 0.0
H1890 H 0.14004 0.48058 0.37755 0.0
H1891 H 0.14709 0.47732 0.31466 0.0
C1892 C 0.13156 0.46528 0.48241 0.0
C1893 C 0.11093 0.4561 0.49765 0.0
C1894 C 0.13419 0.4617 0.44646 0.0
C1895 C 0.1163 0.44874 0.42489 0.0
C1896 C 0.09568 0.43891 0.44023 0.0
C1897 C 0.093 0.44266 0.47632 0.0
C1898 C 0.11387 0.42418 0.33349 0.0
C1899 C 0.12749 0.44254 0.31311 0.0
C1900 C 0.10974 0.42612 0.3697 0.0
C1901 C 0.11938 0.44641 0.38616 0.0
C1902 C 0.13265 0.46472 0.36562 0.0
C1903 C 0.13659 0.46283 0.32952 0.0
H1904 H 0.53055 0.66652 0.32275 0.0
H1905 H 0.59959 0.69694 0.33287 0.0
H1906 H 0.52647 0.65494 0.38504 0.0
H1907 H 0.59534 0.68518 0.39577 0.0
H1908 H 0.57223 0.63834 0.49652 0.0
H1909 H 0.57896 0.65006 0.43357 0.0
H1910 H 0.53577 0.67511 0.44385 0.0
H1911 H 0.52902 0.66355 0.50626 0.0
C1912 C 0.54489 0.67067 0.33817 0.0
C1913 C 0.56543 0.68281 0.32283 0.0
C1914 C 0.54252 0.66409 0.37395 0.0
C1915 C 0.56059 0.66935 0.39529 0.0
C1916 C 0.58114 0.68089 0.37982 0.0
C1917 C 0.58356 0.68768 0.34392 0.0
C1918 C 0.56425 0.64643 0.48535 0.0
C1919 C 0.54997 0.64987 0.50637 0.0
C1920 C 0.5682 0.65321 0.44942 0.0
C1921 C 0.55773 0.66331 0.43383 0.0
C1922 C 0.54382 0.6671 0.45505 0.0
C1923 C 0.54004 0.66054 0.49089 0.0
H1924 H 0.35077 0.89778 0.31467 0.0
H1925 H 0.28935 0.89228 0.33823 0.0
H1926 H 0.36177 0.9077 0.377 0.0
H1927 H 0.30036 0.90197 0.40099 0.0
H1928 H 0.31888 0.87981 0.5102 0.0
H1929 H 0.3078 0.87961 0.44815 0.0
H1930 H 0.36866 0.93643 0.42582 0.0
H1931 H 0.37975 0.93686 0.48829 0.0
C1932 C 0.33974 0.89899 0.33308 0.0
C1933 C 0.31913 0.89405 0.32175 0.0
C1934 C 0.34612 0.90485 0.36864 0.0
C1935 C 0.33188 0.90555 0.39368 0.0
C1936 C 0.31159 0.90149 0.3821 0.0
C1937 C 0.30533 0.896 0.34627 0.0
C1938 C 0.32977 0.89247 0.49222 0.0
C1939 C 0.35026 0.90823 0.50392 0.0
C1940 C 0.32334 0.89245 0.45683 0.0
C1941 C 0.3374 0.90799 0.43232 0.0
C1942 C 0.35757 0.92427 0.4443 0.0
C1943 C 0.36387 0.92452 0.47996 0.0
loop_
_geom_bond_atom_site_label_1
_geom_bond_atom_site_label_2
_geom_bond_distance
_geom_bond_site_symmetry_2
_ccdc_geom_bond_type
O0 Cd1 2.223 . S
O0 C8 1.315 . S
Cd1 O0 2.223 . S
Cd1 O4 2.297 . S
Cd1 O5 2.439 1_554 S
Cd1 O11 2.240 . S
Cd2 O3 2.240 . S
Cd2 O10 2.223 . S
Cd2 O12 2.297 . S
Cd2 O13 2.439 . S
O3 Cd2 2.240 . S
O3 C8 1.279 . S
O4 Cd1 2.297 . S
O4 C6 1.247 1_554 S
O5 Cd1 2.439 1_556 S
O5 C6 1.208 . S
C6 O4 1.247 1_556 S
C6 O5 1.208 . S
C7 O12 1.247 . S
C7 O13 1.208 . S
C8 O0 1.315 . S
C8 O3 1.279 . S
C9 O10 1.315 . S
C9 O11 1.279 . S
O10 Cd2 2.223 . S
O10 C9 1.315 . S
O11 Cd1 2.240 . S
O11 C9 1.279 . S
O12 Cd2 2.297 . S
O12 C7 1.247 . S
O13 Cd2 2.439 . S
O13 C7 1.208 . S
O14 Cd15 2.223 . S
O14 C22 1.315 . S
Cd15 O14 2.223 . S
Cd15 O18 2.297 . S
Cd15 O19 2.439 1_554 S
Cd15 O25 2.215 1_545 S
Cd16 O17 2.240 1_565 S
Cd16 O24 2.223 1_565 S
Cd16 O26 2.297 . S
Cd16 O27 2.439 . S
O17 Cd16 2.240 1_545 S
O17 C22 1.279 . S
O18 Cd15 2.297 . S
O18 C20 1.247 1_554 S
O19 Cd15 2.439 1_556 S
O19 C20 1.208 . S
C20 O18 1.247 1_556 S
C20 O19 1.208 . S
C21 O26 1.247 . S
C21 O27 1.208 . S
C22 O14 1.315 . S
C22 O17 1.279 . S
C23 O24 1.315 . S
C23 O25 1.286 1_545 S
O24 Cd16 2.223 1_545 S
O24 C23 1.315 . S
O25 Cd15 2.215 1_565 S
O25 C23 1.286 1_565 S
O26 Cd16 2.297 . S
O26 C21 1.247 . S
O27 Cd16 2.439 . S
O27 C21 1.208 . S
O28 Cd29 2.223 . S
O28 C36 1.315 . S
Cd29 O28 2.223 . S
Cd29 O32 2.297 . S
Cd29 O33 2.439 1_554 S
Cd29 O39 2.232 1_655 S
Cd30 O31 2.240 1_455 S
Cd30 O38 2.223 1_455 S
Cd30 O40 2.297 . S
Cd30 O41 2.439 . S
O31 Cd30 2.240 1_655 S
O31 C36 1.279 . S
O32 Cd29 2.297 . S
O32 C34 1.247 1_554 S
O33 Cd29 2.439 1_556 S
O33 C34 1.208 . S
C34 O32 1.247 1_556 S
C34 O33 1.208 . S
C35 O40 1.247 . S
C35 O41 1.208 . S
C36 O28 1.315 . S
C36 O31 1.279 . S
C37 O38 1.315 . S
C37 O39 1.263 1_655 S
O38 Cd30 2.223 1_655 S
O38 C37 1.315 . S
O39 Cd29 2.232 1_455 S
O39 C37 1.263 1_455 S
O40 Cd30 2.297 . S
O40 C35 1.247 . S
O41 Cd30 2.439 . S
O41 C35 1.208 . S
O42 Cd43 2.223 . S
O42 C50 1.315 . S
Cd43 O42 2.223 . S
Cd43 O46 2.297 . S
Cd43 O47 2.439 . S
Cd43 O53 2.240 . S
Cd44 O45 2.240 . S
Cd44 O52 2.223 . S
Cd44 O54 2.297 . S
Cd44 O55 2.439 . S
O45 Cd44 2.240 . S
O45 C50 1.279 . S
O46 Cd43 2.297 . S
O46 C48 1.247 . S
O47 Cd43 2.439 . S
O47 C48 1.208 . S
C48 O46 1.247 . S
C48 O47 1.208 . S
C49 O54 1.247 . S
C49 O55 1.208 . S
C50 O42 1.315 . S
C50 O45 1.279 . S
C51 O52 1.315 . S
C51 O53 1.279 . S
O52 Cd44 2.223 . S
O52 C51 1.315 . S
O53 Cd43 2.240 . S
O53 C51 1.279 . S
O54 Cd44 2.297 . S
O54 C49 1.247 . S
O55 Cd44 2.439 . S
O55 C49 1.208 . S
O56 Cd57 2.223 . S
O56 C64 1.315 . S
Cd57 O56 2.223 . S
Cd57 O60 2.297 . S
Cd57 O61 2.439 . S
Cd57 O67 2.232 1_565 S
Cd58 O59 2.240 1_545 S
Cd58 O66 2.223 1_545 S
Cd58 O68 2.297 . S
Cd58 O69 2.439 . S
O59 Cd58 2.240 1_565 S
O59 C64 1.279 . S
O60 Cd57 2.297 . S
O60 C62 1.247 . S
O61 Cd57 2.439 . S
O61 C62 1.208 . S
C62 O60 1.247 . S
C62 O61 1.208 . S
C63 O68 1.247 . S
C63 O69 1.208 . S
C64 O56 1.315 . S
C64 O59 1.279 . S
C65 O66 1.315 . S
C65 O67 1.263 1_565 S
O66 Cd58 2.223 1_565 S
O66 C65 1.315 . S
O67 Cd57 2.232 1_545 S
O67 C65 1.263 1_545 S
O68 Cd58 2.297 . S
O68 C63 1.247 . S
O69 Cd58 2.439 . S
O69 C63 1.208 . S
O70 Cd71 2.223 . S
O70 C78 1.315 . S
Cd71 O70 2.223 . S
Cd71 O74 2.297 . S
Cd71 O75 2.439 . S
Cd71 O81 2.215 1_455 S
Cd72 O73 2.240 1_655 S
Cd72 O80 2.223 1_655 S
Cd72 O82 2.297 . S
Cd72 O83 2.439 . S
O73 Cd72 2.240 1_455 S
O73 C78 1.279 . S
O74 Cd71 2.297 . S
O74 C76 1.247 . S
O75 Cd71 2.439 . S
O75 C76 1.208 . S
C76 O74 1.247 . S
C76 O75 1.208 . S
C77 O82 1.247 . S
C77 O83 1.208 . S
C78 O70 1.315 . S
C78 O73 1.279 . S
C79 O80 1.315 . S
C79 O81 1.286 1_455 S
O80 Cd72 2.223 1_455 S
O80 C79 1.315 . S
O81 Cd71 2.215 1_655 S
O81 C79 1.286 1_655 S
O82 Cd72 2.297 . S
O82 C77 1.247 . S
O83 Cd72 2.439 . S
O83 C77 1.208 . S
O84 Cd85 2.223 . S
O84 C92 1.315 . S
Cd85 O84 2.223 . S
Cd85 O88 2.297 . S
Cd85 O89 2.439 1_556 S
Cd85 O95 2.240 . S
Cd86 O87 2.240 . S
Cd86 O94 2.223 . S
Cd86 O96 2.297 . S
Cd86 O97 2.439 . S
O87 Cd86 2.240 . S
O87 C92 1.279 . S
O88 Cd85 2.297 . S
O88 C90 1.247 1_556 S
O89 Cd85 2.439 1_554 S
O89 C90 1.208 . S
C90 O88 1.247 1_554 S
C90 O89 1.208 . S
C91 O96 1.247 . S
C91 O97 1.208 . S
C92 O84 1.315 . S
C92 O87 1.279 . S
C93 O94 1.315 . S
C93 O95 1.279 . S
O94 Cd86 2.223 . S
O94 C93 1.315 . S
O95 Cd85 2.240 . S
O95 C93 1.279 . S
O96 Cd86 2.297 . S
O96 C91 1.247 . S
O97 Cd86 2.439 . S
O97 C91 1.208 . S
O98 Cd99 2.223 . S
O98 C106 1.315 . S
Cd99 O98 2.223 . S
Cd99 O102 2.297 . S
Cd99 O103 2.439 1_556 S
Cd99 O109 2.215 1_565 S
Cd100 O101 2.240 1_545 S
Cd100 O108 2.223 1_545 S
Cd100 O110 2.297 . S
Cd100 O111 2.439 . S
O101 Cd100 2.240 1_565 S
O101 C106 1.279 . S
O102 Cd99 2.297 . S
O102 C104 1.247 1_556 S
O103 Cd99 2.439 1_554 S
O103 C104 1.208 . S
C104 O102 1.247 1_554 S
C104 O103 1.208 . S
C105 O110 1.247 . S
C105 O111 1.208 . S
C106 O98 1.315 . S
C106 O101 1.279 . S
C107 O108 1.315 . S
C107 O109 1.286 1_565 S
O108 Cd100 2.223 1_565 S
O108 C107 1.315 . S
O109 Cd99 2.215 1_545 S
O109 C107 1.286 1_545 S
O110 Cd100 2.297 . S
O110 C105 1.247 . S
O111 Cd100 2.439 . S
O111 C105 1.208 . S
O112 Cd113 2.223 . S
O112 C120 1.315 . S
Cd113 O112 2.223 . S
Cd113 O116 2.297 . S
Cd113 O117 2.439 1_556 S
Cd113 O123 2.232 1_455 S
Cd114 O115 2.240 1_655 S
Cd114 O122 2.223 1_655 S
Cd114 O124 2.297 . S
Cd114 O125 2.439 . S
O115 Cd114 2.240 1_455 S
O115 C120 1.279 . S
O116 Cd113 2.297 . S
O116 C118 1.247 1_556 S
O117 Cd113 2.439 1_554 S
O117 C118 1.208 . S
C118 O116 1.247 1_554 S
C118 O117 1.208 . S
C119 O124 1.247 . S
C119 O125 1.208 . S
C120 O112 1.315 . S
C120 O115 1.279 . S
C121 O122 1.315 . S
C121 O123 1.263 1_455 S
O122 Cd114 2.223 1_455 S
O122 C121 1.315 . S
O123 Cd113 2.232 1_655 S
O123 C121 1.263 1_655 S
O124 Cd114 2.297 . S
O124 C119 1.247 . S
O125 Cd114 2.439 . S
O125 C119 1.208 . S
O126 Cd127 2.223 . S
O126 C134 1.315 . S
Cd127 O126 2.223 . S
Cd127 O130 2.297 . S
Cd127 O131 2.439 . S
Cd127 O137 2.240 . S
Cd128 O129 2.240 . S
Cd128 O136 2.223 . S
Cd128 O138 2.297 . S
Cd128 O139 2.439 . S
O129 Cd128 2.240 . S
O129 C134 1.279 . S
O130 Cd127 2.297 . S
O130 C132 1.247 . S
O131 Cd127 2.439 . S
O131 C132 1.208 . S
C132 O130 1.247 . S
C132 O131 1.208 . S
C133 O138 1.247 . S
C133 O139 1.208 . S
C134 O126 1.315 . S
C134 O129 1.279 . S
C135 O136 1.315 . S
C135 O137 1.279 . S
O136 Cd128 2.223 . S
O136 C135 1.315 . S
O137 Cd127 2.240 . S
O137 C135 1.279 . S
O138 Cd128 2.297 . S
O138 C133 1.247 . S
O139 Cd128 2.439 . S
O139 C133 1.208 . S
O140 Cd141 2.223 . S
O140 C148 1.315 . S
Cd141 O140 2.223 . S
Cd141 O144 2.297 . S
Cd141 O145 2.439 . S
Cd141 O151 2.232 1_545 S
Cd142 O143 2.240 1_565 S
Cd142 O150 2.223 1_565 S
Cd142 O152 2.297 . S
Cd142 O153 2.439 . S
O143 Cd142 2.240 1_545 S
O143 C148 1.279 . S
O144 Cd141 2.297 . S
O144 C146 1.247 . S
O145 Cd141 2.439 . S
O145 C146 1.208 . S
C146 O144 1.247 . S
C146 O145 1.208 . S
C147 O152 1.247 . S
C147 O153 1.208 . S
C148 O140 1.315 . S
C148 O143 1.279 . S
C149 O150 1.315 . S
C149 O151 1.263 1_545 S
O150 Cd142 2.223 1_545 S
O150 C149 1.315 . S
O151 Cd141 2.232 1_565 S
O151 C149 1.263 1_565 S
O152 Cd142 2.297 . S
O152 C147 1.247 . S
O153 Cd142 2.439 . S
O153 C147 1.208 . S
O154 Cd155 2.223 . S
O154 C162 1.315 . S
Cd155 O154 2.223 . S
Cd155 O158 2.297 . S
Cd155 O159 2.439 . S
Cd155 O165 2.215 1_655 S
Cd156 O157 2.240 1_455 S
Cd156 O164 2.223 1_455 S
Cd156 O166 2.297 . S
Cd156 O167 2.439 . S
O157 Cd156 2.240 1_655 S
O157 C162 1.279 . S
O158 Cd155 2.297 . S
O158 C160 1.247 . S
O159 Cd155 2.439 . S
O159 C160 1.208 . S
C160 O158 1.247 . S
C160 O159 1.208 . S
C161 O166 1.247 . S
C161 O167 1.208 . S
C162 O154 1.315 . S
C162 O157 1.279 . S
C163 O164 1.315 . S
C163 O165 1.286 1_655 S
O164 Cd156 2.223 1_655 S
O164 C163 1.315 . S
O165 Cd155 2.215 1_455 S
O165 C163 1.286 1_455 S
O166 Cd156 2.297 . S
O166 C161 1.247 . S
O167 Cd156 2.439 . S
O167 C161 1.208 . S
O168 Cd169 2.223 . S
O168 C176 1.315 . S
Cd169 O168 2.223 . S
Cd169 O172 2.297 . S
Cd169 O173 2.439 . S
Cd169 O179 2.240 . S
Cd170 O171 2.240 . S
Cd170 O178 2.223 . S
Cd170 O180 2.297 . S
Cd170 O181 2.439 . S
O171 Cd170 2.240 . S
O171 C176 1.279 . S
O172 Cd169 2.297 . S
O172 C174 1.247 . S
O173 Cd169 2.439 . S
O173 C174 1.208 . S
C174 O172 1.247 . S
C174 O173 1.208 . S
C175 O180 1.247 . S
C175 O181 1.208 . S
C176 O168 1.315 . S
C176 O171 1.279 . S
C177 O178 1.315 . S
C177 O179 1.279 . S
O178 Cd170 2.223 . S
O178 C177 1.315 . S
O179 Cd169 2.240 . S
O179 C177 1.279 . S
O180 Cd170 2.297 . S
O180 C175 1.247 . S
O181 Cd170 2.439 . S
O181 C175 1.208 . S
O182 Cd183 2.223 . S
O182 C190 1.315 . S
Cd183 O182 2.223 . S
Cd183 O186 2.297 . S
Cd183 O187 2.439 . S
Cd183 O193 2.240 . S
Cd184 O185 2.240 . S
Cd184 O192 2.223 . S
Cd184 O194 2.297 . S
Cd184 O195 2.439 . S
O185 Cd184 2.240 . S
O185 C190 1.279 . S
O186 Cd183 2.297 . S
O186 C188 1.247 . S
O187 Cd183 2.439 . S
O187 C188 1.208 . S
C188 O186 1.247 . S
C188 O187 1.208 . S
C189 O194 1.247 . S
C189 O195 1.208 . S
C190 O182 1.315 . S
C190 O185 1.279 . S
C191 O192 1.315 . S
C191 O193 1.279 . S
O192 Cd184 2.223 . S
O192 C191 1.315 . S
O193 Cd183 2.240 . S
O193 C191 1.279 . S
O194 Cd184 2.297 . S
O194 C189 1.247 . S
O195 Cd184 2.439 . S
O195 C189 1.208 . S
O196 Cd197 2.223 . S
O196 C204 1.315 . S
Cd197 O196 2.223 . S
Cd197 O200 2.297 . S
Cd197 O201 2.439 . S
Cd197 O207 2.240 . S
Cd198 O199 2.240 . S
Cd198 O206 2.223 . S
Cd198 O208 2.297 . S
Cd198 O209 2.439 . S
O199 Cd198 2.240 . S
O199 C204 1.279 . S
O200 Cd197 2.297 . S
O200 C202 1.247 . S
O201 Cd197 2.439 . S
O201 C202 1.208 . S
C202 O200 1.247 . S
C202 O201 1.208 . S
C203 O208 1.247 . S
C203 O209 1.208 . S
C204 O196 1.315 . S
C204 O199 1.279 . S
C205 O206 1.315 . S
C205 O207 1.279 . S
O206 Cd198 2.223 . S
O206 C205 1.315 . S
O207 Cd197 2.240 . S
O207 C205 1.279 . S
O208 Cd198 2.297 . S
O208 C203 1.247 . S
O209 Cd198 2.439 . S
O209 C203 1.208 . S
O210 Cd211 2.223 . S
O210 C218 1.315 . S
Cd211 O210 2.223 . S
Cd211 O214 2.297 . S
Cd211 O215 2.439 . S
Cd211 O221 2.240 . S
Cd212 O213 2.240 . S
Cd212 O220 2.223 . S
Cd212 O222 2.297 . S
Cd212 O223 2.439 . S
O213 Cd212 2.240 . S
O213 C218 1.279 . S
O214 Cd211 2.297 . S
O214 C216 1.247 . S
O215 Cd211 2.439 . S
O215 C216 1.208 . S
C216 O214 1.247 . S
C216 O215 1.208 . S
C217 O222 1.247 . S
C217 O223 1.208 . S
C218 O210 1.315 . S
C218 O213 1.279 . S
C219 O220 1.315 . S
C219 O221 1.279 . S
O220 Cd212 2.223 . S
O220 C219 1.315 . S
O221 Cd211 2.240 . S
O221 C219 1.279 . S
O222 Cd212 2.297 . S
O222 C217 1.247 . S
O223 Cd212 2.439 . S
O223 C217 1.208 . S
O224 Cd225 2.223 . S
O224 C232 1.315 . S
Cd225 O224 2.223 . S
Cd225 O228 2.297 . S
Cd225 O229 2.439 . S
Cd225 O235 2.240 . S
Cd226 O227 2.240 . S
Cd226 O234 2.223 . S
Cd226 O236 2.297 . S
Cd226 O237 2.439 . S
O227 Cd226 2.240 . S
O227 C232 1.279 . S
O228 Cd225 2.297 . S
O228 C230 1.247 . S
O229 Cd225 2.439 . S
O229 C230 1.208 . S
C230 O228 1.247 . S
C230 O229 1.208 . S
C231 O236 1.247 . S
C231 O237 1.208 . S
C232 O224 1.315 . S
C232 O227 1.279 . S
C233 O234 1.315 . S
C233 O235 1.279 . S
O234 Cd226 2.223 . S
O234 C233 1.315 . S
O235 Cd225 2.240 . S
O235 C233 1.279 . S
O236 Cd226 2.297 . S
O236 C231 1.247 . S
O237 Cd226 2.439 . S
O237 C231 1.208 . S
O238 Cd239 2.223 . S
O238 C246 1.315 . S
Cd239 O238 2.223 . S
Cd239 O242 2.297 . S
Cd239 O243 2.439 . S
Cd239 O249 2.240 . S
Cd240 O241 2.240 . S
Cd240 O248 2.223 . S
Cd240 O250 2.297 . S
Cd240 O251 2.439 . S
O241 Cd240 2.240 . S
O241 C246 1.279 . S
O242 Cd239 2.297 . S
O242 C244 1.247 . S
O243 Cd239 2.439 . S
O243 C244 1.208 . S
C244 O242 1.247 . S
C244 O243 1.208 . S
C245 O250 1.247 . S
C245 O251 1.208 . S
C246 O238 1.315 . S
C246 O241 1.279 . S
C247 O248 1.315 . S
C247 O249 1.279 . S
O248 Cd240 2.223 . S
O248 C247 1.315 . S
O249 Cd239 2.240 . S
O249 C247 1.279 . S
O250 Cd240 2.297 . S
O250 C245 1.247 . S
O251 Cd240 2.439 . S
O251 C245 1.208 . S
O252 Cd253 2.223 . S
O252 C260 1.315 . S
Cd253 O252 2.223 . S
Cd253 O256 2.297 . S
Cd253 O257 2.439 . S
Cd253 O263 2.240 . S
Cd254 O255 2.240 . S
Cd254 O262 2.223 . S
Cd254 O264 2.297 . S
Cd254 O265 2.439 . S
O255 Cd254 2.240 . S
O255 C260 1.279 . S
O256 Cd253 2.297 . S
O256 C258 1.247 . S
O257 Cd253 2.439 . S
O257 C258 1.208 . S
C258 O256 1.247 . S
C258 O257 1.208 . S
C259 O264 1.247 . S
C259 O265 1.208 . S
C260 O252 1.315 . S
C260 O255 1.279 . S
C261 O262 1.315 . S
C261 O263 1.279 . S
O262 Cd254 2.223 . S
O262 C261 1.315 . S
O263 Cd253 2.240 . S
O263 C261 1.279 . S
O264 Cd254 2.297 . S
O264 C259 1.247 . S
O265 Cd254 2.439 . S
O265 C259 1.208 . S
O266 Cd267 2.223 . S
O266 C274 1.315 . S
Cd267 O266 2.223 . S
Cd267 O270 2.297 . S
Cd267 O271 2.439 . S
Cd267 O277 2.240 . S
Cd268 O269 2.240 . S
Cd268 O276 2.223 . S
Cd268 O278 2.297 . S
Cd268 O279 2.439 . S
O269 Cd268 2.240 . S
O269 C274 1.279 . S
O270 Cd267 2.297 . S
O270 C272 1.247 . S
O271 Cd267 2.439 . S
O271 C272 1.208 . S
C272 O270 1.247 . S
C272 O271 1.208 . S
C273 O278 1.247 . S
C273 O279 1.208 . S
C274 O266 1.315 . S
C274 O269 1.279 . S
C275 O276 1.315 . S
C275 O277 1.279 . S
O276 Cd268 2.223 . S
O276 C275 1.315 . S
O277 Cd267 2.240 . S
O277 C275 1.279 . S
O278 Cd268 2.297 . S
O278 C273 1.247 . S
O279 Cd268 2.439 . S
O279 C273 1.208 . S
O280 Cd281 2.223 . S
O280 C288 1.315 . S
Cd281 O280 2.223 . S
Cd281 O284 2.297 . S
Cd281 O285 2.439 . S
Cd281 O291 2.240 . S
Cd282 O283 2.240 . S
Cd282 O290 2.223 . S
Cd282 O292 2.297 . S
Cd282 O293 2.439 . S
O283 Cd282 2.240 . S
O283 C288 1.279 . S
O284 Cd281 2.297 . S
O284 C286 1.247 . S
O285 Cd281 2.439 . S
O285 C286 1.208 . S
C286 O284 1.247 . S
C286 O285 1.208 . S
C287 O292 1.247 . S
C287 O293 1.208 . S
C288 O280 1.315 . S
C288 O283 1.279 . S
C289 O290 1.315 . S
C289 O291 1.279 . S
O290 Cd282 2.223 . S
O290 C289 1.315 . S
O291 Cd281 2.240 . S
O291 C289 1.279 . S
O292 Cd282 2.297 . S
O292 C287 1.247 . S
O293 Cd282 2.439 . S
O293 C287 1.208 . S
O294 Cd295 2.223 . S
O294 C302 1.315 . S
Cd295 O294 2.223 . S
Cd295 O298 2.297 . S
Cd295 O299 2.439 . S
Cd295 O305 2.240 . S
Cd296 O297 2.240 . S
Cd296 O304 2.223 . S
Cd296 O306 2.297 . S
Cd296 O307 2.439 . S
O297 Cd296 2.240 . S
O297 C302 1.279 . S
O298 Cd295 2.297 . S
O298 C300 1.247 . S
O299 Cd295 2.439 . S
O299 C300 1.208 . S
C300 O298 1.247 . S
C300 O299 1.208 . S
C301 O306 1.247 . S
C301 O307 1.208 . S
C302 O294 1.315 . S
C302 O297 1.279 . S
C303 O304 1.315 . S
C303 O305 1.279 . S
O304 Cd296 2.223 . S
O304 C303 1.315 . S
O305 Cd295 2.240 . S
O305 C303 1.279 . S
O306 Cd296 2.297 . S
O306 C301 1.247 . S
O307 Cd296 2.439 . S
O307 C301 1.208 . S
O308 Cd309 2.223 . S
O308 C316 1.315 . S
Cd309 O308 2.223 . S
Cd309 O312 2.297 . S
Cd309 O313 2.439 . S
Cd309 O319 2.240 . S
Cd310 O311 2.240 . S
Cd310 O318 2.223 . S
Cd310 O320 2.297 . S
Cd310 O321 2.439 . S
O311 Cd310 2.240 . S
O311 C316 1.279 . S
O312 Cd309 2.297 . S
O312 C314 1.247 . S
O313 Cd309 2.439 . S
O313 C314 1.208 . S
C314 O312 1.247 . S
C314 O313 1.208 . S
C315 O320 1.247 . S
C315 O321 1.208 . S
C316 O308 1.315 . S
C316 O311 1.279 . S
C317 O318 1.315 . S
C317 O319 1.279 . S
O318 Cd310 2.223 . S
O318 C317 1.315 . S
O319 Cd309 2.240 . S
O319 C317 1.279 . S
O320 Cd310 2.297 . S
O320 C315 1.247 . S
O321 Cd310 2.439 . S
O321 C315 1.208 . S
O322 Cd323 2.223 . S
O322 C330 1.315 . S
Cd323 O322 2.223 . S
Cd323 O326 2.297 . S
Cd323 O327 2.439 . S
Cd323 O333 2.240 . S
Cd324 O325 2.240 . S
Cd324 O332 2.223 . S
Cd324 O334 2.297 . S
Cd324 O335 2.439 . S
O325 Cd324 2.240 . S
O325 C330 1.279 . S
O326 Cd323 2.297 . S
O326 C328 1.247 . S
O327 Cd323 2.439 . S
O327 C328 1.208 . S
C328 O326 1.247 . S
C328 O327 1.208 . S
C329 O334 1.247 . S
C329 O335 1.208 . S
C330 O322 1.315 . S
C330 O325 1.279 . S
C331 O332 1.315 . S
C331 O333 1.279 . S
O332 Cd324 2.223 . S
O332 C331 1.315 . S
O333 Cd323 2.240 . S
O333 C331 1.279 . S
O334 Cd324 2.297 . S
O334 C329 1.247 . S
O335 Cd324 2.439 . S
O335 C329 1.208 . S
O336 Cd337 2.223 . S
O336 C344 1.315 . S
Cd337 O336 2.223 . S
Cd337 O340 2.297 . S
Cd337 O341 2.439 . S
Cd337 O347 2.240 . S
Cd338 O339 2.240 . S
Cd338 O346 2.223 . S
Cd338 O348 2.297 . S
Cd338 O349 2.439 . S
O339 Cd338 2.240 . S
O339 C344 1.279 . S
O340 Cd337 2.297 . S
O340 C342 1.247 . S
O341 Cd337 2.439 . S
O341 C342 1.208 . S
C342 O340 1.247 . S
C342 O341 1.208 . S
C343 O348 1.247 . S
C343 O349 1.208 . S
C344 O336 1.315 . S
C344 O339 1.279 . S
C345 O346 1.315 . S
C345 O347 1.279 . S
O346 Cd338 2.223 . S
O346 C345 1.315 . S
O347 Cd337 2.240 . S
O347 C345 1.279 . S
O348 Cd338 2.297 . S
O348 C343 1.247 . S
O349 Cd338 2.439 . S
O349 C343 1.208 . S
O350 Cd351 2.223 . S
O350 C358 1.315 . S
Cd351 O350 2.223 . S
Cd351 O354 2.297 . S
Cd351 O355 2.439 . S
Cd351 O361 2.240 . S
Cd352 O353 2.240 . S
Cd352 O360 2.223 . S
Cd352 O362 2.297 . S
Cd352 O363 2.439 . S
O353 Cd352 2.240 . S
O353 C358 1.279 . S
O354 Cd351 2.297 . S
O354 C356 1.247 . S
O355 Cd351 2.439 . S
O355 C356 1.208 . S
C356 O354 1.247 . S
C356 O355 1.208 . S
C357 O362 1.247 . S
C357 O363 1.208 . S
C358 O350 1.315 . S
C358 O353 1.279 . S
C359 O360 1.315 . S
C359 O361 1.279 . S
O360 Cd352 2.223 . S
O360 C359 1.315 . S
O361 Cd351 2.240 . S
O361 C359 1.279 . S
O362 Cd352 2.297 . S
O362 C357 1.247 . S
O363 Cd352 2.439 . S
O363 C357 1.208 . S
O364 Cd365 2.223 . S
O364 C372 1.315 . S
Cd365 O364 2.223 . S
Cd365 O368 2.297 . S
Cd365 O369 2.439 . S
Cd365 O375 2.240 . S
Cd366 O367 2.240 . S
Cd366 O374 2.223 . S
Cd366 O376 2.297 . S
Cd366 O377 2.439 . S
O367 Cd366 2.240 . S
O367 C372 1.279 . S
O368 Cd365 2.297 . S
O368 C370 1.247 . S
O369 Cd365 2.439 . S
O369 C370 1.208 . S
C370 O368 1.247 . S
C370 O369 1.208 . S
C371 O376 1.247 . S
C371 O377 1.208 . S
C372 O364 1.315 . S
C372 O367 1.279 . S
C373 O374 1.315 . S
C373 O375 1.279 . S
O374 Cd366 2.223 . S
O374 C373 1.315 . S
O375 Cd365 2.240 . S
O375 C373 1.279 . S
O376 Cd366 2.297 . S
O376 C371 1.247 . S
O377 Cd366 2.439 . S
O377 C371 1.208 . S
O378 Cd379 2.223 . S
O378 C386 1.315 . S
Cd379 O378 2.223 . S
Cd379 O382 2.297 . S
Cd379 O383 2.439 . S
Cd379 O389 2.240 . S
Cd380 O381 2.240 . S
Cd380 O388 2.223 . S
Cd380 O390 2.297 . S
Cd380 O391 2.439 . S
O381 Cd380 2.240 . S
O381 C386 1.279 . S
O382 Cd379 2.297 . S
O382 C384 1.247 . S
O383 Cd379 2.439 . S
O383 C384 1.208 . S
C384 O382 1.247 . S
C384 O383 1.208 . S
C385 O390 1.247 . S
C385 O391 1.208 . S
C386 O378 1.315 . S
C386 O381 1.279 . S
C387 O388 1.315 . S
C387 O389 1.279 . S
O388 Cd380 2.223 . S
O388 C387 1.315 . S
O389 Cd379 2.240 . S
O389 C387 1.279 . S
O390 Cd380 2.297 . S
O390 C385 1.247 . S
O391 Cd380 2.439 . S
O391 C385 1.208 . S
O392 Cd393 2.223 . S
O392 C400 1.315 . S
Cd393 O392 2.223 . S
Cd393 O396 2.297 . S
Cd393 O397 2.439 . S
Cd393 O403 2.240 . S
Cd394 O395 2.240 . S
Cd394 O402 2.223 . S
Cd394 O404 2.297 . S
Cd394 O405 2.439 . S
O395 Cd394 2.240 . S
O395 C400 1.279 . S
O396 Cd393 2.297 . S
O396 C398 1.247 . S
O397 Cd393 2.439 . S
O397 C398 1.208 . S
C398 O396 1.247 . S
C398 O397 1.208 . S
C399 O404 1.247 . S
C399 O405 1.208 . S
C400 O392 1.315 . S
C400 O395 1.279 . S
C401 O402 1.315 . S
C401 O403 1.279 . S
O402 Cd394 2.223 . S
O402 C401 1.315 . S
O403 Cd393 2.240 . S
O403 C401 1.279 . S
O404 Cd394 2.297 . S
O404 C399 1.247 . S
O405 Cd394 2.439 . S
O405 C399 1.208 . S
O406 Cd407 2.223 . S
O406 C414 1.315 . S
Cd407 O406 2.223 . S
Cd407 O410 2.297 . S
Cd407 O411 2.439 . S
Cd407 O417 2.240 . S
Cd408 O409 2.240 . S
Cd408 O416 2.223 . S
Cd408 O418 2.297 . S
Cd408 O419 2.439 . S
O409 Cd408 2.240 . S
O409 C414 1.279 . S
O410 Cd407 2.297 . S
O410 C412 1.247 . S
O411 Cd407 2.439 . S
O411 C412 1.208 . S
C412 O410 1.247 . S
C412 O411 1.208 . S
C413 O418 1.247 . S
C413 O419 1.208 . S
C414 O406 1.315 . S
C414 O409 1.279 . S
C415 O416 1.315 . S
C415 O417 1.279 . S
O416 Cd408 2.223 . S
O416 C415 1.315 . S
O417 Cd407 2.240 . S
O417 C415 1.279 . S
O418 Cd408 2.297 . S
O418 C413 1.247 . S
O419 Cd408 2.439 . S
O419 C413 1.208 . S
O420 Cd421 2.223 . S
O420 C428 1.315 . S
Cd421 O420 2.223 . S
Cd421 O424 2.297 . S
Cd421 O425 2.439 . S
Cd421 O431 2.240 . S
Cd422 O423 2.240 . S
Cd422 O430 2.223 . S
Cd422 O432 2.297 . S
Cd422 O433 2.439 . S
O423 Cd422 2.240 . S
O423 C428 1.279 . S
O424 Cd421 2.297 . S
O424 C426 1.247 . S
O425 Cd421 2.439 . S
O425 C426 1.208 . S
C426 O424 1.247 . S
C426 O425 1.208 . S
C427 O432 1.247 . S
C427 O433 1.208 . S
C428 O420 1.315 . S
C428 O423 1.279 . S
C429 O430 1.315 . S
C429 O431 1.279 . S
O430 Cd422 2.223 . S
O430 C429 1.315 . S
O431 Cd421 2.240 . S
O431 C429 1.279 . S
O432 Cd422 2.297 . S
O432 C427 1.247 . S
O433 Cd422 2.439 . S
O433 C427 1.208 . S
O434 Cd435 2.223 . S
O434 C442 1.315 . S
Cd435 O434 2.223 . S
Cd435 O438 2.297 . S
Cd435 O439 2.439 . S
Cd435 O445 2.240 . S
Cd436 O437 2.240 . S
Cd436 O444 2.223 . S
Cd436 O446 2.297 . S
Cd436 O447 2.439 . S
O437 Cd436 2.240 . S
O437 C442 1.279 . S
O438 Cd435 2.297 . S
O438 C440 1.247 . S
O439 Cd435 2.439 . S
O439 C440 1.208 . S
C440 O438 1.247 . S
C440 O439 1.208 . S
C441 O446 1.247 . S
C441 O447 1.208 . S
C442 O434 1.315 . S
C442 O437 1.279 . S
C443 O444 1.315 . S
C443 O445 1.279 . S
O444 Cd436 2.223 . S
O444 C443 1.315 . S
O445 Cd435 2.240 . S
O445 C443 1.279 . S
O446 Cd436 2.297 . S
O446 C441 1.247 . S
O447 Cd436 2.439 . S
O447 C441 1.208 . S
O448 Cd449 2.223 . S
O448 C456 1.315 . S
Cd449 O448 2.223 . S
Cd449 O452 2.297 . S
Cd449 O453 2.439 . S
Cd449 O459 2.240 . S
Cd450 O451 2.240 . S
Cd450 O458 2.223 . S
Cd450 O460 2.297 . S
Cd450 O461 2.439 . S
O451 Cd450 2.240 . S
O451 C456 1.279 . S
O452 Cd449 2.297 . S
O452 C454 1.247 . S
O453 Cd449 2.439 . S
O453 C454 1.208 . S
C454 O452 1.247 . S
C454 O453 1.208 . S
C455 O460 1.247 . S
C455 O461 1.208 . S
C456 O448 1.315 . S
C456 O451 1.279 . S
C457 O458 1.315 . S
C457 O459 1.279 . S
O458 Cd450 2.223 . S
O458 C457 1.315 . S
O459 Cd449 2.240 . S
O459 C457 1.279 . S
O460 Cd450 2.297 . S
O460 C455 1.247 . S
O461 Cd450 2.439 . S
O461 C455 1.208 . S
O462 Cd463 2.223 . S
O462 C470 1.315 . S
Cd463 O462 2.223 . S
Cd463 O466 2.297 . S
Cd463 O467 2.439 . S
Cd463 O473 2.240 . S
Cd464 O465 2.240 . S
Cd464 O472 2.223 . S
Cd464 O474 2.297 . S
Cd464 O475 2.439 . S
O465 Cd464 2.240 . S
O465 C470 1.279 . S
O466 Cd463 2.297 . S
O466 C468 1.247 . S
O467 Cd463 2.439 . S
O467 C468 1.208 . S
C468 O466 1.247 . S
C468 O467 1.208 . S
C469 O474 1.247 . S
C469 O475 1.208 . S
C470 O462 1.315 . S
C470 O465 1.279 . S
C471 O472 1.315 . S
C471 O473 1.279 . S
O472 Cd464 2.223 . S
O472 C471 1.315 . S
O473 Cd463 2.240 . S
O473 C471 1.279 . S
O474 Cd464 2.297 . S
O474 C469 1.247 . S
O475 Cd464 2.439 . S
O475 C469 1.208 . S
O476 Cd477 2.223 . S
O476 C484 1.315 . S
Cd477 O476 2.223 . S
Cd477 O480 2.297 . S
Cd477 O481 2.439 . S
Cd477 O487 2.240 . S
Cd478 O479 2.240 . S
Cd478 O486 2.223 . S
Cd478 O488 2.297 . S
Cd478 O489 2.439 . S
O479 Cd478 2.240 . S
O479 C484 1.279 . S
O480 Cd477 2.297 . S
O480 C482 1.247 . S
O481 Cd477 2.439 . S
O481 C482 1.208 . S
C482 O480 1.247 . S
C482 O481 1.208 . S
C483 O488 1.247 . S
C483 O489 1.208 . S
C484 O476 1.315 . S
C484 O479 1.279 . S
C485 O486 1.315 . S
C485 O487 1.279 . S
O486 Cd478 2.223 . S
O486 C485 1.315 . S
O487 Cd477 2.240 . S
O487 C485 1.279 . S
O488 Cd478 2.297 . S
O488 C483 1.247 . S
O489 Cd478 2.439 . S
O489 C483 1.208 . S
O490 Cd491 2.223 . S
O490 C498 1.315 . S
Cd491 O490 2.223 . S
Cd491 O494 2.297 . S
Cd491 O495 2.439 . S
Cd491 O501 2.240 . S
Cd492 O493 2.240 . S
Cd492 O500 2.223 . S
Cd492 O502 2.297 . S
Cd492 O503 2.439 . S
O493 Cd492 2.240 . S
O493 C498 1.279 . S
O494 Cd491 2.297 . S
O494 C496 1.247 . S
O495 Cd491 2.439 . S
O495 C496 1.208 . S
C496 O494 1.247 . S
C496 O495 1.208 . S
C497 O502 1.247 . S
C497 O503 1.208 . S
C498 O490 1.315 . S
C498 O493 1.279 . S
C499 O500 1.315 . S
C499 O501 1.279 . S
O500 Cd492 2.223 . S
O500 C499 1.315 . S
O501 Cd491 2.240 . S
O501 C499 1.279 . S
O502 Cd492 2.297 . S
O502 C497 1.247 . S
O503 Cd492 2.439 . S
O503 C497 1.208 . S
H504 C512 0.950 . S
H505 C517 0.950 . S
H506 C514 0.950 . S
H507 C516 0.950 . S
H508 C518 0.950 . S
H509 C520 0.950 . S
H510 C522 0.950 . S
H511 C523 0.950 . S
C512 H504 0.950 . S
C512 C513 1.386 . S
C512 C514 1.391 . S
C513 C512 1.386 . S
C513 C517 1.393 . S
C514 H506 0.950 . S
C514 C512 1.391 . S
C514 C515 1.400 . S
C515 C514 1.400 . S
C515 C516 1.398 . S
C515 C521 1.491 . S
C516 H507 0.950 . S
C516 C515 1.398 . S
C516 C517 1.391 . S
C517 H505 0.950 . S
C517 C513 1.393 . S
C517 C516 1.391 . S
C518 H508 0.950 . S
C518 C519 1.386 . S
C518 C520 1.391 . S
C519 C518 1.386 . S
C519 C523 1.393 . S
C520 H509 0.950 . S
C520 C518 1.391 . S
C520 C521 1.400 . S
C521 C515 1.491 . S
C521 C520 1.400 . S
C521 C522 1.398 . S
C522 H510 0.950 . S
C522 C521 1.398 . S
C522 C523 1.391 . S
C523 H511 0.950 . S
C523 C519 1.393 . S
C523 C522 1.391 . S
H524 C532 0.950 . S
H525 C537 0.950 . S
H526 C534 0.950 . S
H527 C536 0.950 . S
H528 C538 0.950 . S
H529 C540 0.950 . S
H530 C542 0.950 . S
H531 C543 0.950 . S
C532 H524 0.950 . S
C532 C533 1.386 . S
C532 C534 1.391 . S
C533 C532 1.386 . S
C533 C537 1.393 . S
C534 H526 0.950 . S
C534 C532 1.391 . S
C534 C535 1.400 . S
C535 C534 1.400 . S
C535 C536 1.398 . S
C535 C541 1.491 . S
C536 H527 0.950 . S
C536 C535 1.398 . S
C536 C537 1.391 . S
C537 H525 0.950 . S
C537 C533 1.393 . S
C537 C536 1.391 . S
C538 H528 0.950 . S
C538 C539 1.386 . S
C538 C540 1.391 . S
C539 C538 1.386 . S
C539 C543 1.393 . S
C540 H529 0.950 . S
C540 C538 1.391 . S
C540 C541 1.400 . S
C541 C535 1.491 . S
C541 C540 1.400 . S
C541 C542 1.398 . S
C542 H530 0.950 . S
C542 C541 1.398 . S
C542 C543 1.391 . S
C543 H531 0.950 . S
C543 C539 1.393 . S
C543 C542 1.391 . S
H544 C552 0.950 . S
H545 C557 0.950 . S
H546 C554 0.950 . S
H547 C556 0.950 . S
H548 C558 0.950 . S
H549 C560 0.950 . S
H550 C562 0.950 . S
H551 C563 0.950 . S
C552 H544 0.950 . S
C552 C553 1.386 . S
C552 C554 1.391 . S
C553 C552 1.386 . S
C553 C557 1.393 . S
C554 H546 0.950 . S
C554 C552 1.391 . S
C554 C555 1.400 . S
C555 C554 1.400 . S
C555 C556 1.398 . S
C555 C561 1.491 . S
C556 H547 0.950 . S
C556 C555 1.398 . S
C556 C557 1.391 . S
C557 H545 0.950 . S
C557 C553 1.393 . S
C557 C556 1.391 . S
C558 H548 0.950 . S
C558 C559 1.386 . S
C558 C560 1.391 . S
C559 C558 1.386 . S
C559 C563 1.393 . S
C560 H549 0.950 . S
C560 C558 1.391 . S
C560 C561 1.400 . S
C561 C555 1.491 . S
C561 C560 1.400 . S
C561 C562 1.398 . S
C562 H550 0.950 . S
C562 C561 1.398 . S
C562 C563 1.391 . S
C563 H551 0.950 . S
C563 C559 1.393 . S
C563 C562 1.391 . S
H564 C572 0.950 . S
H565 C577 0.950 . S
H566 C574 0.950 . S
H567 C576 0.950 . S
H568 C578 0.950 . S
H569 C580 0.950 . S
H570 C582 0.950 . S
H571 C583 0.950 . S
C572 H564 0.950 . S
C572 C573 1.386 . S
C572 C574 1.391 . S
C573 C572 1.386 . S
C573 C577 1.393 . S
C574 H566 0.950 . S
C574 C572 1.391 . S
C574 C575 1.400 . S
C575 C574 1.400 . S
C575 C576 1.398 . S
C575 C581 1.491 . S
C576 H567 0.950 . S
C576 C575 1.398 . S
C576 C577 1.391 . S
C577 H565 0.950 . S
C577 C573 1.393 . S
C577 C576 1.391 . S
C578 H568 0.950 . S
C578 C579 1.386 . S
C578 C580 1.391 . S
C579 C578 1.386 . S
C579 C583 1.393 . S
C580 H569 0.950 . S
C580 C578 1.391 . S
C580 C581 1.400 . S
C581 C575 1.491 . S
C581 C580 1.400 . S
C581 C582 1.398 . S
C582 H570 0.950 . S
C582 C581 1.398 . S
C582 C583 1.391 . S
C583 H571 0.950 . S
C583 C579 1.393 . S
C583 C582 1.391 . S
H584 C592 0.950 . S
H585 C597 0.950 . S
H586 C594 0.950 . S
H587 C596 0.950 . S
H588 C598 0.950 . S
H589 C600 0.950 . S
H590 C602 0.950 . S
H591 C603 0.950 . S
C592 H584 0.950 . S
C592 C593 1.386 . S
C592 C594 1.391 . S
C593 C592 1.386 . S
C593 C597 1.393 . S
C594 H586 0.950 . S
C594 C592 1.391 . S
C594 C595 1.400 . S
C595 C594 1.400 . S
C595 C596 1.398 . S
C595 C601 1.491 . S
C596 H587 0.950 . S
C596 C595 1.398 . S
C596 C597 1.391 . S
C597 H585 0.950 . S
C597 C593 1.393 . S
C597 C596 1.391 . S
C598 H588 0.950 . S
C598 C599 1.386 . S
C598 C600 1.391 . S
C599 C598 1.386 . S
C599 C603 1.393 . S
C600 H589 0.950 . S
C600 C598 1.391 . S
C600 C601 1.400 . S
C601 C595 1.491 . S
C601 C600 1.400 . S
C601 C602 1.398 . S
C602 H590 0.950 . S
C602 C601 1.398 . S
C602 C603 1.391 . S
C603 H591 0.950 . S
C603 C599 1.393 . S
C603 C602 1.391 . S
H604 C612 0.950 . S
H605 C617 0.950 . S
H606 C614 0.950 . S
H607 C616 0.950 . S
H608 C618 0.950 . S
H609 C620 0.950 . S
H610 C622 0.950 . S
H611 C623 0.950 . S
C612 H604 0.950 . S
C612 C613 1.386 . S
C612 C614 1.391 . S
C613 C612 1.386 . S
C613 C617 1.393 . S
C614 H606 0.950 . S
C614 C612 1.391 . S
C614 C615 1.400 . S
C615 C614 1.400 . S
C615 C616 1.398 . S
C615 C621 1.491 . S
C616 H607 0.950 . S
C616 C615 1.398 . S
C616 C617 1.391 . S
C617 H605 0.950 . S
C617 C613 1.393 . S
C617 C616 1.391 . S
C618 H608 0.950 . S
C618 C619 1.386 . S
C618 C620 1.391 . S
C619 C618 1.386 . S
C619 C623 1.393 . S
C620 H609 0.950 . S
C620 C618 1.391 . S
C620 C621 1.400 . S
C621 C615 1.491 . S
C621 C620 1.400 . S
C621 C622 1.398 . S
C622 H610 0.950 . S
C622 C621 1.398 . S
C622 C623 1.391 . S
C623 H611 0.950 . S
C623 C619 1.393 . S
C623 C622 1.391 . S
H624 C632 0.950 . S
H625 C637 0.950 . S
H626 C634 0.950 . S
H627 C636 0.950 . S
H628 C638 0.950 . S
H629 C640 0.950 . S
H630 C642 0.950 . S
H631 C643 0.950 1_556 S
C632 H624 0.950 . S
C632 C633 1.386 . S
C632 C634 1.391 . S
C633 C632 1.386 . S
C633 C637 1.393 . S
C634 H626 0.950 . S
C634 C632 1.391 . S
C634 C635 1.400 . S
C635 C634 1.400 . S
C635 C636 1.398 . S
C635 C641 1.491 . S
C636 H627 0.950 . S
C636 C635 1.398 . S
C636 C637 1.391 . S
C637 H625 0.950 . S
C637 C633 1.393 . S
C637 C636 1.391 . S
C638 H628 0.950 . S
C638 C639 1.386 . S
C638 C640 1.391 . S
C639 C638 1.386 . S
C639 C643 1.393 . S
C640 H629 0.950 . S
C640 C638 1.391 . S
C640 C641 1.400 . S
C641 C635 1.491 . S
C641 C640 1.400 . S
C641 C642 1.398 . S
C642 H630 0.950 . S
C642 C641 1.398 . S
C642 C643 1.391 . S
C643 H631 0.950 1_554 S
C643 C639 1.393 . S
C643 C642 1.391 . S
H644 C652 0.950 . S
H645 C657 0.950 . S
H646 C654 0.950 . S
H647 C656 0.950 . S
H648 C658 0.950 . S
H649 C660 0.950 . S
H650 C662 0.950 . S
H651 C663 0.950 . S
C652 H644 0.950 . S
C652 C653 1.386 . S
C652 C654 1.391 . S
C653 C652 1.386 . S
C653 C657 1.393 . S
C654 H646 0.950 . S
C654 C652 1.391 . S
C654 C655 1.400 . S
C655 C654 1.400 . S
C655 C656 1.398 . S
C655 C661 1.491 . S
C656 H647 0.950 . S
C656 C655 1.398 . S
C656 C657 1.391 . S
C657 H645 0.950 . S
C657 C653 1.393 . S
C657 C656 1.391 . S
C658 H648 0.950 . S
C658 C659 1.386 . S
C658 C660 1.391 . S
C659 C658 1.386 . S
C659 C663 1.393 . S
C660 H649 0.950 . S
C660 C658 1.391 . S
C660 C661 1.400 . S
C661 C655 1.491 . S
C661 C660 1.400 . S
C661 C662 1.398 . S
C662 H650 0.950 . S
C662 C661 1.398 . S
C662 C663 1.391 . S
C663 H651 0.950 . S
C663 C659 1.393 . S
C663 C662 1.391 . S
H664 C672 0.950 . S
H665 C677 0.950 . S
H666 C674 0.950 . S
H667 C676 0.950 . S
H668 C678 0.950 . S
H669 C680 0.950 . S
H670 C682 0.950 . S
H671 C683 0.950 . S
C672 H664 0.950 . S
C672 C673 1.386 . S
C672 C674 1.391 . S
C673 C672 1.386 . S
C673 C677 1.393 . S
C674 H666 0.950 . S
C674 C672 1.391 . S
C674 C675 1.400 . S
C675 C674 1.400 . S
C675 C676 1.398 . S
C675 C681 1.491 . S
C676 H667 0.950 . S
C676 C675 1.398 . S
C676 C677 1.391 . S
C677 H665 0.950 . S
C677 C673 1.393 . S
C677 C676 1.391 . S
C678 H668 0.950 . S
C678 C679 1.386 . S
C678 C680 1.391 . S
C679 C678 1.386 . S
C679 C683 1.393 . S
C680 H669 0.950 . S
C680 C678 1.391 . S
C680 C681 1.400 . S
C681 C675 1.491 . S
C681 C680 1.400 . S
C681 C682 1.398 . S
C682 H670 0.950 . S
C682 C681 1.398 . S
C682 C683 1.391 . S
C683 H671 0.950 . S
C683 C679 1.393 . S
C683 C682 1.391 . S
H684 C692 0.950 . S
H685 C697 0.950 . S
H686 C694 0.950 . S
H687 C696 0.950 . S
H688 C698 0.950 . S
H689 C700 0.950 . S
H690 C702 0.950 . S
H691 C703 0.950 . S
C692 H684 0.950 . S
C692 C693 1.386 . S
C692 C694 1.391 . S
C693 C692 1.386 . S
C693 C697 1.393 . S
C694 H686 0.950 . S
C694 C692 1.391 . S
C694 C695 1.400 . S
C695 C694 1.400 . S
C695 C696 1.398 . S
C695 C701 1.491 . S
C696 H687 0.950 . S
C696 C695 1.398 . S
C696 C697 1.391 . S
C697 H685 0.950 . S
C697 C693 1.393 . S
C697 C696 1.391 . S
C698 H688 0.950 . S
C698 C699 1.386 . S
C698 C700 1.391 . S
C699 C698 1.386 . S
C699 C703 1.393 . S
C700 H689 0.950 . S
C700 C698 1.391 . S
C700 C701 1.400 . S
C701 C695 1.491 . S
C701 C700 1.400 . S
C701 C702 1.398 . S
C702 H690 0.950 . S
C702 C701 1.398 . S
C702 C703 1.391 . S
C703 H691 0.950 . S
C703 C699 1.393 . S
C703 C702 1.391 . S
H704 C712 0.950 . S
H705 C717 0.950 . S
H706 C714 0.950 . S
H707 C716 0.950 . S
H708 C718 0.950 . S
H709 C720 0.950 . S
H710 C722 0.950 . S
H711 C723 0.950 . S
C712 H704 0.950 . S
C712 C713 1.386 . S
C712 C714 1.391 . S
C713 C712 1.386 . S
C713 C717 1.393 . S
C714 H706 0.950 . S
C714 C712 1.391 . S
C714 C715 1.400 . S
C715 C714 1.400 . S
C715 C716 1.398 . S
C715 C721 1.491 . S
C716 H707 0.950 . S
C716 C715 1.398 . S
C716 C717 1.391 . S
C717 H705 0.950 . S
C717 C713 1.393 . S
C717 C716 1.391 . S
C718 H708 0.950 . S
C718 C719 1.386 . S
C718 C720 1.391 . S
C719 C718 1.386 . S
C719 C723 1.393 . S
C720 H709 0.950 . S
C720 C718 1.391 . S
C720 C721 1.400 . S
C721 C715 1.491 . S
C721 C720 1.400 . S
C721 C722 1.398 . S
C722 H710 0.950 . S
C722 C721 1.398 . S
C722 C723 1.391 . S
C723 H711 0.950 . S
C723 C719 1.393 . S
C723 C722 1.391 . S
H724 C732 0.950 . S
H725 C737 0.950 . S
H726 C734 0.950 . S
H727 C736 0.950 . S
H728 C738 0.950 . S
H729 C740 0.950 . S
H730 C742 0.950 . S
H731 C743 0.950 . S
C732 H724 0.950 . S
C732 C733 1.386 . S
C732 C734 1.391 . S
C733 C732 1.386 . S
C733 C737 1.393 . S
C734 H726 0.950 . S
C734 C732 1.391 . S
C734 C735 1.400 . S
C735 C734 1.400 . S
C735 C736 1.398 . S
C735 C741 1.491 . S
C736 H727 0.950 . S
C736 C735 1.398 . S
C736 C737 1.391 . S
C737 H725 0.950 . S
C737 C733 1.393 . S
C737 C736 1.391 . S
C738 H728 0.950 . S
C738 C739 1.386 . S
C738 C740 1.391 . S
C739 C738 1.386 . S
C739 C743 1.393 . S
C740 H729 0.950 . S
C740 C738 1.391 . S
C740 C741 1.400 . S
C741 C735 1.491 . S
C741 C740 1.400 . S
C741 C742 1.398 . S
C742 H730 0.950 . S
C742 C741 1.398 . S
C742 C743 1.391 . S
C743 H731 0.950 . S
C743 C739 1.393 . S
C743 C742 1.391 . S
H744 C752 0.950 . S
H745 C757 0.950 . S
H746 C754 0.950 . S
H747 C756 0.950 . S
H748 C758 0.950 . S
H749 C760 0.950 . S
H750 C762 0.950 . S
H751 C763 0.950 . S
C752 H744 0.950 . S
C752 C753 1.386 . S
C752 C754 1.391 . S
C753 C752 1.386 . S
C753 C757 1.393 . S
C754 H746 0.950 . S
C754 C752 1.391 . S
C754 C755 1.400 . S
C755 C754 1.400 . S
C755 C756 1.398 . S
C755 C761 1.491 1_455 S
C756 H747 0.950 . S
C756 C755 1.398 . S
C756 C757 1.391 . S
C757 H745 0.950 . S
C757 C753 1.393 . S
C757 C756 1.391 . S
C758 H748 0.950 . S
C758 C759 1.386 . S
C758 C760 1.391 . S
C759 C758 1.386 . S
C759 C763 1.393 . S
C760 H749 0.950 . S
C760 C758 1.391 . S
C760 C761 1.400 . S
C761 C755 1.491 1_655 S
C761 C760 1.400 . S
C761 C762 1.398 . S
C762 H750 0.950 . S
C762 C761 1.398 . S
C762 C763 1.391 . S
C763 H751 0.950 . S
C763 C759 1.393 . S
C763 C762 1.391 . S
H764 C772 0.950 . S
H765 C777 0.950 . S
H766 C774 0.950 . S
H767 C776 0.950 . S
H768 C778 0.950 . S
H769 C780 0.950 . S
H770 C782 0.950 . S
H771 C783 0.950 . S
C772 H764 0.950 . S
C772 C773 1.386 . S
C772 C774 1.391 . S
C773 C772 1.386 . S
C773 C777 1.393 . S
C774 H766 0.950 . S
C774 C772 1.391 . S
C774 C775 1.400 . S
C775 C774 1.400 . S
C775 C776 1.398 . S
C775 C781 1.491 . S
C776 H767 0.950 . S
C776 C775 1.398 . S
C776 C777 1.391 . S
C777 H765 0.950 . S
C777 C773 1.393 . S
C777 C776 1.391 . S
C778 H768 0.950 . S
C778 C779 1.386 . S
C778 C780 1.391 . S
C779 C778 1.386 . S
C779 C783 1.393 . S
C780 H769 0.950 . S
C780 C778 1.391 . S
C780 C781 1.400 . S
C781 C775 1.491 . S
C781 C780 1.400 . S
C781 C782 1.398 . S
C782 H770 0.950 . S
C782 C781 1.398 . S
C782 C783 1.391 . S
C783 H771 0.950 . S
C783 C779 1.393 . S
C783 C782 1.391 . S
H784 C792 0.950 . S
H785 C797 0.950 . S
H786 C794 0.950 . S
H787 C796 0.950 . S
H788 C798 0.950 . S
H789 C800 0.950 . S
H790 C802 0.950 . S
H791 C803 0.950 . S
C792 H784 0.950 . S
C792 C793 1.386 . S
C792 C794 1.391 . S
C793 C792 1.386 . S
C793 C797 1.393 . S
C794 H786 0.950 . S
C794 C792 1.391 . S
C794 C795 1.400 . S
C795 C794 1.400 . S
C795 C796 1.398 . S
C795 C801 1.491 1_565 S
C796 H787 0.950 . S
C796 C795 1.398 . S
C796 C797 1.391 . S
C797 H785 0.950 . S
C797 C793 1.393 . S
C797 C796 1.391 . S
C798 H788 0.950 . S
C798 C799 1.386 . S
C798 C800 1.391 . S
C799 C798 1.386 . S
C799 C803 1.393 . S
C800 H789 0.950 . S
C800 C798 1.391 . S
C800 C801 1.400 . S
C801 C795 1.491 1_545 S
C801 C800 1.400 . S
C801 C802 1.398 . S
C802 H790 0.950 . S
C802 C801 1.398 . S
C802 C803 1.391 . S
C803 H791 0.950 . S
C803 C799 1.393 . S
C803 C802 1.391 . S
H804 C812 0.950 . S
H805 C817 0.950 . S
H806 C814 0.987 . S
H807 C816 0.950 . S
H808 C818 0.950 . S
H809 C820 0.988 . S
H810 C822 0.950 . S
H811 C823 0.950 . S
C812 H804 0.950 . S
C812 C813 1.386 . S
C812 C814 1.391 . S
C813 C812 1.386 . S
C813 C817 1.393 . S
C814 H806 0.987 . S
C814 C812 1.391 . S
C814 C815 1.400 . S
C815 C814 1.400 . S
C815 C816 1.398 . S
C815 C821 1.491 1_565 S
C816 H807 0.950 . S
C816 C815 1.398 . S
C816 C817 1.391 . S
C817 H805 0.950 . S
C817 C813 1.393 . S
C817 C816 1.391 . S
C818 H808 0.950 . S
C818 C819 1.386 . S
C818 C820 1.391 . S
C819 C818 1.386 . S
C819 C823 1.393 . S
C820 H809 0.988 . S
C820 C818 1.391 . S
C820 C821 1.400 . S
C821 C815 1.491 1_545 S
C821 C820 1.400 . S
C821 C822 1.398 . S
C822 H810 0.950 . S
C822 C821 1.398 . S
C822 C823 1.391 . S
C823 H811 0.950 . S
C823 C819 1.393 . S
C823 C822 1.391 . S
H824 C832 0.950 . S
H825 C837 0.950 . S
H826 C834 0.950 . S
H827 C836 0.949 1_655 S
H828 C838 0.950 . S
H829 C840 0.950 . S
H830 C842 0.948 1_455 S
H831 C843 0.950 . S
C832 H824 0.950 . S
C832 C833 1.386 . S
C832 C834 1.391 . S
C833 C832 1.386 . S
C833 C837 1.393 . S
C834 H826 0.950 . S
C834 C832 1.391 . S
C834 C835 1.400 . S
C835 C834 1.400 . S
C835 C836 1.398 . S
C835 C841 1.491 1_455 S
C836 H827 0.949 1_455 S
C836 C835 1.398 . S
C836 C837 1.391 . S
C837 H825 0.950 . S
C837 C833 1.393 . S
C837 C836 1.391 . S
C838 H828 0.950 . S
C838 C839 1.386 . S
C838 C840 1.391 . S
C839 C838 1.386 . S
C839 C843 1.393 . S
C840 H829 0.950 . S
C840 C838 1.391 . S
C840 C841 1.400 . S
C841 C835 1.491 1_655 S
C841 C840 1.400 . S
C841 C842 1.398 . S
C842 H830 0.948 1_655 S
C842 C841 1.398 . S
C842 C843 1.391 . S
C843 H831 0.950 . S
C843 C839 1.393 . S
C843 C842 1.391 . S
H844 C852 0.950 . S
H845 C857 0.950 . S
H846 C854 0.950 . S
H847 C856 0.950 . S
H848 C858 0.950 . S
H849 C860 0.950 . S
H850 C862 0.950 . S
H851 C863 0.950 . S
C852 H844 0.950 . S
C852 C853 1.386 . S
C852 C854 1.391 . S
C853 C852 1.386 . S
C853 C857 1.393 . S
C854 H846 0.950 . S
C854 C852 1.391 . S
C854 C855 1.400 . S
C855 C854 1.400 . S
C855 C856 1.398 . S
C855 C861 1.491 . S
C856 H847 0.950 . S
C856 C855 1.398 . S
C856 C857 1.391 . S
C857 H845 0.950 . S
C857 C853 1.393 . S
C857 C856 1.391 . S
C858 H848 0.950 . S
C858 C859 1.386 . S
C858 C860 1.391 . S
C859 C858 1.386 . S
C859 C863 1.393 . S
C860 H849 0.950 . S
C860 C858 1.391 . S
C860 C861 1.400 . S
C861 C855 1.491 . S
C861 C860 1.400 . S
C861 C862 1.398 . S
C862 H850 0.950 . S
C862 C861 1.398 . S
C862 C863 1.391 . S
C863 H851 0.950 . S
C863 C859 1.393 . S
C863 C862 1.391 . S
H864 C872 0.950 . S
H865 C877 0.950 . S
H866 C874 0.950 . S
H867 C876 0.950 . S
H868 C878 0.950 . S
H869 C880 0.950 . S
H870 C882 0.950 . S
H871 C883 0.950 . S
C872 H864 0.950 . S
C872 C873 1.386 . S
C872 C874 1.391 . S
C873 C872 1.386 . S
C873 C877 1.393 1_556 S
C874 H866 0.950 . S
C874 C872 1.391 . S
C874 C875 1.400 1_556 S
C875 C874 1.400 1_554 S
C875 C876 1.398 . S
C875 C881 1.491 . S
C876 H867 0.950 . S
C876 C875 1.398 . S
C876 C877 1.391 . S
C877 H865 0.950 . S
C877 C873 1.393 1_554 S
C877 C876 1.391 . S
C878 H868 0.950 . S
C878 C879 1.386 . S
C878 C880 1.391 . S
C879 C878 1.386 . S
C879 C883 1.393 1_554 S
C880 H869 0.950 . S
C880 C878 1.391 . S
C880 C881 1.400 . S
C881 C875 1.491 . S
C881 C880 1.400 . S
C881 C882 1.398 1_554 S
C882 H870 0.950 . S
C882 C881 1.398 1_556 S
C882 C883 1.391 . S
C883 H871 0.950 . S
C883 C879 1.393 1_556 S
C883 C882 1.391 . S
H884 C892 0.950 . S
H885 C897 0.950 . S
H886 C894 0.950 . S
H887 C896 0.950 . S
H888 C898 0.950 1_556 S
H889 C900 0.950 . S
H890 C902 0.950 . S
H891 C903 0.950 . S
C892 H884 0.950 . S
C892 C893 1.386 1_554 S
C892 C894 1.391 . S
C893 C892 1.386 1_556 S
C893 C897 1.393 . S
C894 H886 0.950 . S
C894 C892 1.391 . S
C894 C895 1.400 . S
C895 C894 1.400 . S
C895 C896 1.398 1_554 S
C895 C901 1.491 . S
C896 H887 0.950 . S
C896 C895 1.398 1_556 S
C896 C897 1.391 . S
C897 H885 0.950 . S
C897 C893 1.393 . S
C897 C896 1.391 . S
C898 H888 0.950 1_554 S
C898 C899 1.386 . S
C898 C900 1.391 1_554 S
C899 C898 1.386 . S
C899 C903 1.393 . S
C900 H889 0.950 . S
C900 C898 1.391 1_556 S
C900 C901 1.400 1_556 S
C901 C895 1.491 . S
C901 C900 1.400 1_554 S
C901 C902 1.398 . S
C902 H890 0.950 . S
C902 C901 1.398 . S
C902 C903 1.391 . S
C903 H891 0.950 . S
C903 C899 1.393 . S
C903 C902 1.391 . S
H904 C912 0.950 . S
H905 C917 0.950 . S
H906 C914 0.950 . S
H907 C916 0.950 . S
H908 C918 0.950 1_556 S
H909 C920 0.950 . S
H910 C922 0.950 . S
H911 C923 0.950 . S
C912 H904 0.950 . S
C912 C913 1.386 1_554 S
C912 C914 1.391 . S
C913 C912 1.386 1_556 S
C913 C917 1.393 . S
C914 H906 0.950 . S
C914 C912 1.391 . S
C914 C915 1.400 . S
C915 C914 1.400 . S
C915 C916 1.398 1_554 S
C915 C921 1.491 . S
C916 H907 0.950 . S
C916 C915 1.398 1_556 S
C916 C917 1.391 . S
C917 H905 0.950 . S
C917 C913 1.393 . S
C917 C916 1.391 . S
C918 H908 0.950 1_554 S
C918 C919 1.386 . S
C918 C920 1.391 1_554 S
C919 C918 1.386 . S
C919 C923 1.393 . S
C920 H909 0.950 . S
C920 C918 1.391 1_556 S
C920 C921 1.400 1_556 S
C921 C915 1.491 . S
C921 C920 1.400 1_554 S
C921 C922 1.398 . S
C922 H910 0.950 . S
C922 C921 1.398 . S
C922 C923 1.391 . S
C923 H911 0.950 . S
C923 C919 1.393 . S
C923 C922 1.391 . S
H924 C932 0.950 . S
H925 C937 0.950 . S
H926 C934 0.950 . S
H927 C936 0.950 . S
H928 C938 0.950 . S
H929 C940 0.950 . S
H930 C942 0.950 . S
H931 C943 0.950 . S
C932 H924 0.950 . S
C932 C933 1.386 . S
C932 C934 1.391 . S
C933 C932 1.386 . S
C933 C937 1.393 . S
C934 H926 0.950 . S
C934 C932 1.391 . S
C934 C935 1.400 . S
C935 C934 1.400 . S
C935 C936 1.398 . S
C935 C941 1.491 . S
C936 H927 0.950 . S
C936 C935 1.398 . S
C936 C937 1.391 . S
C937 H925 0.950 . S
C937 C933 1.393 . S
C937 C936 1.391 . S
C938 H928 0.950 . S
C938 C939 1.386 . S
C938 C940 1.391 . S
C939 C938 1.386 . S
C939 C943 1.393 . S
C940 H929 0.950 . S
C940 C938 1.391 . S
C940 C941 1.400 . S
C941 C935 1.491 . S
C941 C940 1.400 . S
C941 C942 1.398 . S
C942 H930 0.950 . S
C942 C941 1.398 . S
C942 C943 1.391 . S
C943 H931 0.950 . S
C943 C939 1.393 . S
C943 C942 1.391 . S
H944 C952 0.950 . S
H945 C957 0.950 . S
H946 C954 0.950 . S
H947 C956 0.950 . S
H948 C958 0.950 . S
H949 C960 0.950 . S
H950 C962 0.950 . S
H951 C963 0.950 . S
C952 H944 0.950 . S
C952 C953 1.386 . S
C952 C954 1.391 . S
C953 C952 1.386 . S
C953 C957 1.393 . S
C954 H946 0.950 . S
C954 C952 1.391 . S
C954 C955 1.400 . S
C955 C954 1.400 . S
C955 C956 1.398 . S
C955 C961 1.491 . S
C956 H947 0.950 . S
C956 C955 1.398 . S
C956 C957 1.391 . S
C957 H945 0.950 . S
C957 C953 1.393 . S
C957 C956 1.391 . S
C958 H948 0.950 . S
C958 C959 1.386 . S
C958 C960 1.391 . S
C959 C958 1.386 . S
C959 C963 1.393 . S
C960 H949 0.950 . S
C960 C958 1.391 . S
C960 C961 1.400 . S
C961 C955 1.491 . S
C961 C960 1.400 . S
C961 C962 1.398 . S
C962 H950 0.950 . S
C962 C961 1.398 . S
C962 C963 1.391 . S
C963 H951 0.950 . S
C963 C959 1.393 . S
C963 C962 1.391 . S
H964 C972 0.950 . S
H965 C977 0.950 . S
H966 C974 0.950 . S
H967 C976 0.950 . S
H968 C978 0.950 . S
H969 C980 0.950 . S
H970 C982 0.950 . S
H971 C983 0.950 . S
C972 H964 0.950 . S
C972 C973 1.386 . S
C972 C974 1.391 . S
C973 C972 1.386 . S
C973 C977 1.393 . S
C974 H966 0.950 . S
C974 C972 1.391 . S
C974 C975 1.400 . S
C975 C974 1.400 . S
C975 C976 1.398 . S
C975 C981 1.491 . S
C976 H967 0.950 . S
C976 C975 1.398 . S
C976 C977 1.391 . S
C977 H965 0.950 . S
C977 C973 1.393 . S
C977 C976 1.391 . S
C978 H968 0.950 . S
C978 C979 1.386 . S
C978 C980 1.391 . S
C979 C978 1.386 . S
C979 C983 1.393 . S
C980 H969 0.950 . S
C980 C978 1.391 . S
C980 C981 1.400 . S
C981 C975 1.491 . S
C981 C980 1.400 . S
C981 C982 1.398 . S
C982 H970 0.950 . S
C982 C981 1.398 . S
C982 C983 1.391 . S
C983 H971 0.950 . S
C983 C979 1.393 . S
C983 C982 1.391 . S
H984 C992 0.950 . S
H985 C997 0.950 . S
H986 C994 0.950 . S
H987 C996 0.950 . S
H988 C998 0.942 1_554 S
H989 C1000 0.950 . S
H990 C1002 0.950 . S
H991 C1003 0.950 . S
C992 H984 0.950 . S
C992 C993 1.386 1_556 S
C992 C994 1.391 . S
C993 C992 1.386 1_554 S
C993 C997 1.393 . S
C994 H986 0.950 . S
C994 C992 1.391 . S
C994 C995 1.400 . S
C995 C994 1.400 . S
C995 C996 1.398 1_556 S
C995 C1001 1.491 . S
C996 H987 0.950 . S
C996 C995 1.398 1_554 S
C996 C997 1.391 . S
C997 H985 0.950 . S
C997 C993 1.393 . S
C997 C996 1.391 . S
C998 H988 0.942 1_556 S
C998 C999 1.397 . S
C998 C1000 1.388 1_556 S
C999 C998 1.397 . S
C999 C1003 1.393 . S
C1000 H989 0.950 . S
C1000 C998 1.388 1_554 S
C1000 C1001 1.400 1_554 S
C1001 C995 1.491 . S
C1001 C1000 1.400 1_556 S
C1001 C1002 1.398 . S
C1002 H990 0.950 . S
C1002 C1001 1.398 . S
C1002 C1003 1.391 . S
C1003 H991 0.950 . S
C1003 C999 1.393 . S
C1003 C1002 1.391 . S
H1004 C1012 0.950 . S
H1005 C1017 0.950 . S
H1006 C1014 0.950 . S
H1007 C1016 0.950 1_554 S
H1008 C1018 0.950 . S
H1009 C1020 0.950 . S
H1010 C1022 0.950 . S
H1011 C1023 0.950 . S
C1012 H1004 0.950 . S
C1012 C1013 1.386 . S
C1012 C1014 1.391 . S
C1013 C1012 1.386 . S
C1013 C1017 1.393 . S
C1014 H1006 0.950 . S
C1014 C1012 1.391 . S
C1014 C1015 1.400 . S
C1015 C1014 1.400 . S
C1015 C1016 1.398 . S
C1015 C1021 1.491 . S
C1016 H1007 0.950 1_556 S
C1016 C1015 1.398 . S
C1016 C1017 1.391 . S
C1017 H1005 0.950 . S
C1017 C1013 1.393 . S
C1017 C1016 1.391 . S
C1018 H1008 0.950 . S
C1018 C1019 1.386 . S
C1018 C1020 1.391 . S
C1019 C1018 1.386 . S
C1019 C1023 1.393 1_554 S
C1020 H1009 0.950 . S
C1020 C1018 1.391 . S
C1020 C1021 1.400 1_554 S
C1021 C1015 1.491 . S
C1021 C1020 1.400 1_556 S
C1021 C1022 1.398 . S
C1022 H1010 0.950 . S
C1022 C1021 1.398 . S
C1022 C1023 1.391 . S
C1023 H1011 0.950 . S
C1023 C1019 1.393 1_556 S
C1023 C1022 1.391 . S
H1024 C1032 0.950 . S
H1025 C1037 0.950 . S
H1026 C1034 0.950 . S
H1027 C1036 0.950 . S
H1028 C1038 0.950 . S
H1029 C1040 0.950 1_554 S
H1030 C1042 0.950 . S
H1031 C1043 0.950 . S
C1032 H1024 0.950 . S
C1032 C1033 1.386 1_556 S
C1032 C1034 1.391 . S
C1033 C1032 1.386 1_554 S
C1033 C1037 1.393 . S
C1034 H1026 0.950 . S
C1034 C1032 1.391 . S
C1034 C1035 1.400 . S
C1035 C1034 1.400 . S
C1035 C1036 1.398 1_556 S
C1035 C1041 1.491 . S
C1036 H1027 0.950 . S
C1036 C1035 1.398 1_554 S
C1036 C1037 1.391 . S
C1037 H1025 0.950 . S
C1037 C1033 1.393 . S
C1037 C1036 1.391 . S
C1038 H1028 0.950 . S
C1038 C1039 1.386 . S
C1038 C1040 1.391 . S
C1039 C1038 1.386 . S
C1039 C1043 1.393 . S
C1040 H1029 0.950 1_556 S
C1040 C1038 1.391 . S
C1040 C1041 1.400 . S
C1041 C1035 1.491 . S
C1041 C1040 1.400 . S
C1041 C1042 1.398 . S
C1042 H1030 0.950 . S
C1042 C1041 1.398 . S
C1042 C1043 1.391 . S
C1043 H1031 0.950 . S
C1043 C1039 1.393 . S
C1043 C1042 1.391 . S
H1044 C1052 0.950 . S
H1045 C1057 0.950 . S
H1046 C1054 0.950 . S
H1047 C1056 0.950 . S
H1048 C1058 0.950 . S
H1049 C1060 0.950 . S
H1050 C1062 0.950 . S
H1051 C1063 0.950 . S
C1052 H1044 0.950 . S
C1052 C1053 1.386 . S
C1052 C1054 1.391 . S
C1053 C1052 1.386 . S
C1053 C1057 1.393 . S
C1054 H1046 0.950 . S
C1054 C1052 1.391 . S
C1054 C1055 1.400 . S
C1055 C1054 1.400 . S
C1055 C1056 1.398 . S
C1055 C1061 1.491 . S
C1056 H1047 0.950 . S
C1056 C1055 1.398 . S
C1056 C1057 1.391 . S
C1057 H1045 0.950 . S
C1057 C1053 1.393 . S
C1057 C1056 1.391 . S
C1058 H1048 0.950 . S
C1058 C1059 1.386 . S
C1058 C1060 1.391 . S
C1059 C1058 1.386 . S
C1059 C1063 1.393 . S
C1060 H1049 0.950 . S
C1060 C1058 1.391 . S
C1060 C1061 1.400 . S
C1061 C1055 1.491 . S
C1061 C1060 1.400 . S
C1061 C1062 1.398 . S
C1062 H1050 0.950 . S
C1062 C1061 1.398 . S
C1062 C1063 1.391 . S
C1063 H1051 0.950 . S
C1063 C1059 1.393 . S
C1063 C1062 1.391 . S
H1064 C1072 0.950 . S
H1065 C1077 0.950 . S
H1066 C1074 0.950 . S
H1067 C1076 0.950 . S
H1068 C1078 0.950 . S
H1069 C1080 0.950 . S
H1070 C1082 0.950 . S
H1071 C1083 0.950 . S
C1072 H1064 0.950 . S
C1072 C1073 1.386 . S
C1072 C1074 1.391 . S
C1073 C1072 1.386 . S
C1073 C1077 1.393 . S
C1074 H1066 0.950 . S
C1074 C1072 1.391 . S
C1074 C1075 1.400 . S
C1075 C1074 1.400 . S
C1075 C1076 1.398 . S
C1075 C1081 1.491 . S
C1076 H1067 0.950 . S
C1076 C1075 1.398 . S
C1076 C1077 1.391 . S
C1077 H1065 0.950 . S
C1077 C1073 1.393 . S
C1077 C1076 1.391 . S
C1078 H1068 0.950 . S
C1078 C1079 1.386 . S
C1078 C1080 1.391 . S
C1079 C1078 1.386 . S
C1079 C1083 1.393 . S
C1080 H1069 0.950 . S
C1080 C1078 1.391 . S
C1080 C1081 1.400 . S
C1081 C1075 1.491 . S
C1081 C1080 1.400 . S
C1081 C1082 1.398 . S
C1082 H1070 0.950 . S
C1082 C1081 1.398 . S
C1082 C1083 1.391 . S
C1083 H1071 0.950 . S
C1083 C1079 1.393 . S
C1083 C1082 1.391 . S
H1084 C1092 0.950 . S
H1085 C1097 0.950 . S
H1086 C1094 0.950 . S
H1087 C1096 0.950 . S
H1088 C1098 0.950 . S
H1089 C1100 0.950 . S
H1090 C1102 0.950 . S
H1091 C1103 0.950 . S
C1092 H1084 0.950 . S
C1092 C1093 1.386 . S
C1092 C1094 1.391 . S
C1093 C1092 1.386 . S
C1093 C1097 1.393 . S
C1094 H1086 0.950 . S
C1094 C1092 1.391 . S
C1094 C1095 1.400 . S
C1095 C1094 1.400 . S
C1095 C1096 1.398 . S
C1095 C1101 1.491 . S
C1096 H1087 0.950 . S
C1096 C1095 1.398 . S
C1096 C1097 1.391 . S
C1097 H1085 0.950 . S
C1097 C1093 1.393 . S
C1097 C1096 1.391 . S
C1098 H1088 0.950 . S
C1098 C1099 1.386 . S
C1098 C1100 1.391 . S
C1099 C1098 1.386 . S
C1099 C1103 1.393 . S
C1100 H1089 0.950 . S
C1100 C1098 1.391 . S
C1100 C1101 1.400 . S
C1101 C1095 1.491 . S
C1101 C1100 1.400 . S
C1101 C1102 1.398 . S
C1102 H1090 0.950 . S
C1102 C1101 1.398 . S
C1102 C1103 1.391 . S
C1103 H1091 0.950 . S
C1103 C1099 1.393 . S
C1103 C1102 1.391 . S
H1104 C1112 0.950 . S
H1105 C1117 0.950 . S
H1106 C1114 0.950 . S
H1107 C1116 0.950 . S
H1108 C1118 0.950 . S
H1109 C1120 0.950 . S
H1110 C1122 0.950 . S
H1111 C1123 0.950 . S
C1112 H1104 0.950 . S
C1112 C1113 1.386 . S
C1112 C1114 1.391 . S
C1113 C1112 1.386 . S
C1113 C1117 1.393 . S
C1114 H1106 0.950 . S
C1114 C1112 1.391 . S
C1114 C1115 1.400 . S
C1115 C1114 1.400 . S
C1115 C1116 1.398 . S
C1115 C1121 1.491 . S
C1116 H1107 0.950 . S
C1116 C1115 1.398 . S
C1116 C1117 1.391 . S
C1117 H1105 0.950 . S
C1117 C1113 1.393 . S
C1117 C1116 1.391 . S
C1118 H1108 0.950 . S
C1118 C1119 1.386 . S
C1118 C1120 1.391 . S
C1119 C1118 1.386 . S
C1119 C1123 1.393 . S
C1120 H1109 0.950 . S
C1120 C1118 1.391 . S
C1120 C1121 1.400 . S
C1121 C1115 1.491 . S
C1121 C1120 1.400 . S
C1121 C1122 1.398 . S
C1122 H1110 0.950 . S
C1122 C1121 1.398 . S
C1122 C1123 1.391 . S
C1123 H1111 0.950 . S
C1123 C1119 1.393 . S
C1123 C1122 1.391 . S
H1124 C1132 0.950 . S
H1125 C1137 0.950 . S
H1126 C1134 0.950 . S
H1127 C1136 0.950 . S
H1128 C1138 0.950 . S
H1129 C1140 0.950 . S
H1130 C1142 0.950 . S
H1131 C1143 0.950 . S
C1132 H1124 0.950 . S
C1132 C1133 1.386 . S
C1132 C1134 1.391 . S
C1133 C1132 1.386 . S
C1133 C1137 1.393 . S
C1134 H1126 0.950 . S
C1134 C1132 1.391 . S
C1134 C1135 1.400 . S
C1135 C1134 1.400 . S
C1135 C1136 1.398 . S
C1135 C1141 1.491 . S
C1136 H1127 0.950 . S
C1136 C1135 1.398 . S
C1136 C1137 1.391 . S
C1137 H1125 0.950 . S
C1137 C1133 1.393 . S
C1137 C1136 1.391 . S
C1138 H1128 0.950 . S
C1138 C1139 1.386 . S
C1138 C1140 1.391 . S
C1139 C1138 1.386 . S
C1139 C1143 1.393 . S
C1140 H1129 0.950 . S
C1140 C1138 1.391 . S
C1140 C1141 1.400 . S
C1141 C1135 1.491 . S
C1141 C1140 1.400 . S
C1141 C1142 1.398 . S
C1142 H1130 0.950 . S
C1142 C1141 1.398 . S
C1142 C1143 1.391 . S
C1143 H1131 0.950 . S
C1143 C1139 1.393 . S
C1143 C1142 1.391 . S
H1144 C1152 0.950 . S
H1145 C1157 0.950 . S
H1146 C1154 0.950 . S
H1147 C1156 0.950 . S
H1148 C1158 0.950 . S
H1149 C1160 0.950 . S
H1150 C1162 0.950 . S
H1151 C1163 0.950 . S
C1152 H1144 0.950 . S
C1152 C1153 1.386 . S
C1152 C1154 1.391 . S
C1153 C1152 1.386 . S
C1153 C1157 1.393 . S
C1154 H1146 0.950 . S
C1154 C1152 1.391 . S
C1154 C1155 1.400 . S
C1155 C1154 1.400 . S
C1155 C1156 1.398 . S
C1155 C1161 1.491 . S
C1156 H1147 0.950 . S
C1156 C1155 1.398 . S
C1156 C1157 1.391 . S
C1157 H1145 0.950 . S
C1157 C1153 1.393 . S
C1157 C1156 1.391 . S
C1158 H1148 0.950 . S
C1158 C1159 1.386 . S
C1158 C1160 1.391 . S
C1159 C1158 1.386 . S
C1159 C1163 1.393 . S
C1160 H1149 0.950 . S
C1160 C1158 1.391 . S
C1160 C1161 1.400 . S
C1161 C1155 1.491 . S
C1161 C1160 1.400 . S
C1161 C1162 1.398 . S
C1162 H1150 0.950 . S
C1162 C1161 1.398 . S
C1162 C1163 1.391 . S
C1163 H1151 0.950 . S
C1163 C1159 1.393 . S
C1163 C1162 1.391 . S
H1164 C1172 0.950 . S
H1165 C1177 0.950 . S
H1166 C1174 0.950 . S
H1167 C1176 0.950 . S
H1168 C1178 0.950 . S
H1169 C1180 0.950 . S
H1170 C1182 0.950 . S
H1171 C1183 0.950 . S
C1172 H1164 0.950 . S
C1172 C1173 1.386 . S
C1172 C1174 1.391 . S
C1173 C1172 1.386 . S
C1173 C1177 1.393 . S
C1174 H1166 0.950 . S
C1174 C1172 1.391 . S
C1174 C1175 1.400 . S
C1175 C1174 1.400 . S
C1175 C1176 1.398 . S
C1175 C1181 1.491 . S
C1176 H1167 0.950 . S
C1176 C1175 1.398 . S
C1176 C1177 1.391 . S
C1177 H1165 0.950 . S
C1177 C1173 1.393 . S
C1177 C1176 1.391 . S
C1178 H1168 0.950 . S
C1178 C1179 1.386 . S
C1178 C1180 1.391 . S
C1179 C1178 1.386 . S
C1179 C1183 1.393 . S
C1180 H1169 0.950 . S
C1180 C1178 1.391 . S
C1180 C1181 1.400 . S
C1181 C1175 1.491 . S
C1181 C1180 1.400 . S
C1181 C1182 1.398 . S
C1182 H1170 0.950 . S
C1182 C1181 1.398 . S
C1182 C1183 1.391 . S
C1183 H1171 0.950 . S
C1183 C1179 1.393 . S
C1183 C1182 1.391 . S
H1184 C1192 0.950 . S
H1185 C1197 0.950 . S
H1186 C1194 0.950 . S
H1187 C1196 0.950 . S
H1188 C1198 0.950 . S
H1189 C1200 0.950 . S
H1190 C1202 0.950 . S
H1191 C1203 0.950 . S
C1192 H1184 0.950 . S
C1192 C1193 1.386 . S
C1192 C1194 1.391 . S
C1193 C1192 1.386 . S
C1193 C1197 1.393 . S
C1194 H1186 0.950 . S
C1194 C1192 1.391 . S
C1194 C1195 1.400 . S
C1195 C1194 1.400 . S
C1195 C1196 1.398 . S
C1195 C1201 1.491 . S
C1196 H1187 0.950 . S
C1196 C1195 1.398 . S
C1196 C1197 1.391 . S
C1197 H1185 0.950 . S
C1197 C1193 1.393 . S
C1197 C1196 1.391 . S
C1198 H1188 0.950 . S
C1198 C1199 1.386 . S
C1198 C1200 1.391 . S
C1199 C1198 1.386 . S
C1199 C1203 1.393 . S
C1200 H1189 0.950 . S
C1200 C1198 1.391 . S
C1200 C1201 1.400 . S
C1201 C1195 1.491 . S
C1201 C1200 1.400 . S
C1201 C1202 1.398 . S
C1202 H1190 0.950 . S
C1202 C1201 1.398 . S
C1202 C1203 1.391 . S
C1203 H1191 0.950 . S
C1203 C1199 1.393 . S
C1203 C1202 1.391 . S
H1204 C1212 0.950 . S
H1205 C1217 0.950 . S
H1206 C1214 0.950 . S
H1207 C1216 0.950 . S
H1208 C1218 0.950 . S
H1209 C1220 0.950 . S
H1210 C1222 0.950 . S
H1211 C1223 0.950 . S
C1212 H1204 0.950 . S
C1212 C1213 1.386 . S
C1212 C1214 1.391 . S
C1213 C1212 1.386 . S
C1213 C1217 1.393 . S
C1214 H1206 0.950 . S
C1214 C1212 1.391 . S
C1214 C1215 1.400 . S
C1215 C1214 1.400 . S
C1215 C1216 1.398 . S
C1215 C1221 1.491 . S
C1216 H1207 0.950 . S
C1216 C1215 1.398 . S
C1216 C1217 1.391 . S
C1217 H1205 0.950 . S
C1217 C1213 1.393 . S
C1217 C1216 1.391 . S
C1218 H1208 0.950 . S
C1218 C1219 1.386 . S
C1218 C1220 1.391 . S
C1219 C1218 1.386 . S
C1219 C1223 1.393 . S
C1220 H1209 0.950 . S
C1220 C1218 1.391 . S
C1220 C1221 1.400 . S
C1221 C1215 1.491 . S
C1221 C1220 1.400 . S
C1221 C1222 1.398 . S
C1222 H1210 0.950 . S
C1222 C1221 1.398 . S
C1222 C1223 1.391 . S
C1223 H1211 0.950 . S
C1223 C1219 1.393 . S
C1223 C1222 1.391 . S
H1224 C1232 0.950 . S
H1225 C1237 0.950 . S
H1226 C1234 0.950 . S
H1227 C1236 0.950 . S
H1228 C1238 0.950 . S
H1229 C1240 0.950 . S
H1230 C1242 0.950 . S
H1231 C1243 0.950 . S
C1232 H1224 0.950 . S
C1232 C1233 1.386 . S
C1232 C1234 1.391 . S
C1233 C1232 1.386 . S
C1233 C1237 1.393 . S
C1234 H1226 0.950 . S
C1234 C1232 1.391 . S
C1234 C1235 1.400 . S
C1235 C1234 1.400 . S
C1235 C1236 1.398 . S
C1235 C1241 1.491 . S
C1236 H1227 0.950 . S
C1236 C1235 1.398 . S
C1236 C1237 1.391 . S
C1237 H1225 0.950 . S
C1237 C1233 1.393 . S
C1237 C1236 1.391 . S
C1238 H1228 0.950 . S
C1238 C1239 1.386 . S
C1238 C1240 1.391 . S
C1239 C1238 1.386 . S
C1239 C1243 1.393 . S
C1240 H1229 0.950 . S
C1240 C1238 1.391 . S
C1240 C1241 1.400 . S
C1241 C1235 1.491 . S
C1241 C1240 1.400 . S
C1241 C1242 1.398 . S
C1242 H1230 0.950 . S
C1242 C1241 1.398 . S
C1242 C1243 1.391 . S
C1243 H1231 0.950 . S
C1243 C1239 1.393 . S
C1243 C1242 1.391 . S
H1244 C1252 0.950 . S
H1245 C1257 0.950 . S
H1246 C1254 0.950 . S
H1247 C1256 0.950 . S
H1248 C1258 0.950 . S
H1249 C1260 0.950 . S
H1250 C1262 0.950 . S
H1251 C1263 0.950 . S
C1252 H1244 0.950 . S
C1252 C1253 1.386 . S
C1252 C1254 1.391 . S
C1253 C1252 1.386 . S
C1253 C1257 1.393 . S
C1254 H1246 0.950 . S
C1254 C1252 1.391 . S
C1254 C1255 1.400 . S
C1255 C1254 1.400 . S
C1255 C1256 1.398 . S
C1255 C1261 1.491 . S
C1256 H1247 0.950 . S
C1256 C1255 1.398 . S
C1256 C1257 1.391 . S
C1257 H1245 0.950 . S
C1257 C1253 1.393 . S
C1257 C1256 1.391 . S
C1258 H1248 0.950 . S
C1258 C1259 1.386 . S
C1258 C1260 1.391 . S
C1259 C1258 1.386 . S
C1259 C1263 1.393 . S
C1260 H1249 0.950 . S
C1260 C1258 1.391 . S
C1260 C1261 1.400 . S
C1261 C1255 1.491 . S
C1261 C1260 1.400 . S
C1261 C1262 1.398 . S
C1262 H1250 0.950 . S
C1262 C1261 1.398 . S
C1262 C1263 1.391 . S
C1263 H1251 0.950 . S
C1263 C1259 1.393 . S
C1263 C1262 1.391 . S
H1264 C1272 0.950 . S
H1265 C1277 0.950 . S
H1266 C1274 0.950 . S
H1267 C1276 0.950 . S
H1268 C1278 0.950 . S
H1269 C1280 0.950 . S
H1270 C1282 0.950 . S
H1271 C1283 0.950 . S
C1272 H1264 0.950 . S
C1272 C1273 1.386 . S
C1272 C1274 1.391 . S
C1273 C1272 1.386 . S
C1273 C1277 1.393 . S
C1274 H1266 0.950 . S
C1274 C1272 1.391 . S
C1274 C1275 1.400 . S
C1275 C1274 1.400 . S
C1275 C1276 1.398 . S
C1275 C1281 1.491 . S
C1276 H1267 0.950 . S
C1276 C1275 1.398 . S
C1276 C1277 1.391 . S
C1277 H1265 0.950 . S
C1277 C1273 1.393 . S
C1277 C1276 1.391 . S
C1278 H1268 0.950 . S
C1278 C1279 1.386 . S
C1278 C1280 1.391 . S
C1279 C1278 1.386 . S
C1279 C1283 1.393 . S
C1280 H1269 0.950 . S
C1280 C1278 1.391 . S
C1280 C1281 1.400 . S
C1281 C1275 1.491 . S
C1281 C1280 1.400 . S
C1281 C1282 1.398 . S
C1282 H1270 0.950 . S
C1282 C1281 1.398 . S
C1282 C1283 1.391 . S
C1283 H1271 0.950 . S
C1283 C1279 1.393 . S
C1283 C1282 1.391 . S
H1284 C1292 0.950 . S
H1285 C1297 0.950 . S
H1286 C1294 0.950 . S
H1287 C1296 0.950 . S
H1288 C1298 0.950 . S
H1289 C1300 0.950 . S
H1290 C1302 0.950 . S
H1291 C1303 0.950 . S
C1292 H1284 0.950 . S
C1292 C1293 1.386 . S
C1292 C1294 1.391 . S
C1293 C1292 1.386 . S
C1293 C1297 1.393 . S
C1294 H1286 0.950 . S
C1294 C1292 1.391 . S
C1294 C1295 1.400 . S
C1295 C1294 1.400 . S
C1295 C1296 1.398 . S
C1295 C1301 1.491 . S
C1296 H1287 0.950 . S
C1296 C1295 1.398 . S
C1296 C1297 1.391 . S
C1297 H1285 0.950 . S
C1297 C1293 1.393 . S
C1297 C1296 1.391 . S
C1298 H1288 0.950 . S
C1298 C1299 1.386 . S
C1298 C1300 1.391 . S
C1299 C1298 1.386 . S
C1299 C1303 1.393 . S
C1300 H1289 0.950 . S
C1300 C1298 1.391 . S
C1300 C1301 1.400 . S
C1301 C1295 1.491 . S
C1301 C1300 1.400 . S
C1301 C1302 1.398 . S
C1302 H1290 0.950 . S
C1302 C1301 1.398 . S
C1302 C1303 1.391 . S
C1303 H1291 0.950 . S
C1303 C1299 1.393 . S
C1303 C1302 1.391 . S
H1304 C1312 0.950 . S
H1305 C1317 0.950 . S
H1306 C1314 0.950 . S
H1307 C1316 0.950 . S
H1308 C1318 0.950 . S
H1309 C1320 0.950 . S
H1310 C1322 0.950 . S
H1311 C1323 0.950 . S
C1312 H1304 0.950 . S
C1312 C1313 1.386 . S
C1312 C1314 1.391 . S
C1313 C1312 1.386 . S
C1313 C1317 1.393 . S
C1314 H1306 0.950 . S
C1314 C1312 1.391 . S
C1314 C1315 1.400 . S
C1315 C1314 1.400 . S
C1315 C1316 1.398 . S
C1315 C1321 1.491 . S
C1316 H1307 0.950 . S
C1316 C1315 1.398 . S
C1316 C1317 1.391 . S
C1317 H1305 0.950 . S
C1317 C1313 1.393 . S
C1317 C1316 1.391 . S
C1318 H1308 0.950 . S
C1318 C1319 1.386 . S
C1318 C1320 1.391 . S
C1319 C1318 1.386 . S
C1319 C1323 1.393 . S
C1320 H1309 0.950 . S
C1320 C1318 1.391 . S
C1320 C1321 1.400 . S
C1321 C1315 1.491 . S
C1321 C1320 1.400 . S
C1321 C1322 1.398 . S
C1322 H1310 0.950 . S
C1322 C1321 1.398 . S
C1322 C1323 1.391 . S
C1323 H1311 0.950 . S
C1323 C1319 1.393 . S
C1323 C1322 1.391 . S
H1324 C1332 0.950 . S
H1325 C1337 0.950 . S
H1326 C1334 0.950 . S
H1327 C1336 0.950 . S
H1328 C1338 0.950 . S
H1329 C1340 0.950 . S
H1330 C1342 0.950 . S
H1331 C1343 0.950 . S
C1332 H1324 0.950 . S
C1332 C1333 1.386 . S
C1332 C1334 1.391 . S
C1333 C1332 1.386 . S
C1333 C1337 1.393 . S
C1334 H1326 0.950 . S
C1334 C1332 1.391 . S
C1334 C1335 1.400 . S
C1335 C1334 1.400 . S
C1335 C1336 1.398 . S
C1335 C1341 1.491 . S
C1336 H1327 0.950 . S
C1336 C1335 1.398 . S
C1336 C1337 1.391 . S
C1337 H1325 0.950 . S
C1337 C1333 1.393 . S
C1337 C1336 1.391 . S
C1338 H1328 0.950 . S
C1338 C1339 1.386 . S
C1338 C1340 1.391 . S
C1339 C1338 1.386 . S
C1339 C1343 1.393 . S
C1340 H1329 0.950 . S
C1340 C1338 1.391 . S
C1340 C1341 1.400 . S
C1341 C1335 1.491 . S
C1341 C1340 1.400 . S
C1341 C1342 1.398 . S
C1342 H1330 0.950 . S
C1342 C1341 1.398 . S
C1342 C1343 1.391 . S
C1343 H1331 0.950 . S
C1343 C1339 1.393 . S
C1343 C1342 1.391 . S
H1344 C1352 0.950 . S
H1345 C1357 0.950 . S
H1346 C1354 0.950 . S
H1347 C1356 0.950 . S
H1348 C1358 0.950 . S
H1349 C1360 0.950 . S
H1350 C1362 0.950 . S
H1351 C1363 0.950 . S
C1352 H1344 0.950 . S
C1352 C1353 1.386 . S
C1352 C1354 1.391 . S
C1353 C1352 1.386 . S
C1353 C1357 1.393 . S
C1354 H1346 0.950 . S
C1354 C1352 1.391 . S
C1354 C1355 1.400 . S
C1355 C1354 1.400 . S
C1355 C1356 1.398 . S
C1355 C1361 1.491 . S
C1356 H1347 0.950 . S
C1356 C1355 1.398 . S
C1356 C1357 1.391 . S
C1357 H1345 0.950 . S
C1357 C1353 1.393 . S
C1357 C1356 1.391 . S
C1358 H1348 0.950 . S
C1358 C1359 1.386 . S
C1358 C1360 1.391 . S
C1359 C1358 1.386 . S
C1359 C1363 1.393 . S
C1360 H1349 0.950 . S
C1360 C1358 1.391 . S
C1360 C1361 1.400 . S
C1361 C1355 1.491 . S
C1361 C1360 1.400 . S
C1361 C1362 1.398 . S
C1362 H1350 0.950 . S
C1362 C1361 1.398 . S
C1362 C1363 1.391 . S
C1363 H1351 0.950 . S
C1363 C1359 1.393 . S
C1363 C1362 1.391 . S
H1364 C1372 0.950 . S
H1365 C1377 0.950 . S
H1366 C1374 0.950 . S
H1367 C1376 0.950 . S
H1368 C1378 0.950 . S
H1369 C1380 0.950 . S
H1370 C1382 0.950 . S
H1371 C1383 0.950 . S
C1372 H1364 0.950 . S
C1372 C1373 1.386 . S
C1372 C1374 1.391 . S
C1373 C1372 1.386 . S
C1373 C1377 1.393 . S
C1374 H1366 0.950 . S
C1374 C1372 1.391 . S
C1374 C1375 1.400 . S
C1375 C1374 1.400 . S
C1375 C1376 1.398 . S
C1375 C1381 1.491 . S
C1376 H1367 0.950 . S
C1376 C1375 1.398 . S
C1376 C1377 1.391 . S
C1377 H1365 0.950 . S
C1377 C1373 1.393 . S
C1377 C1376 1.391 . S
C1378 H1368 0.950 . S
C1378 C1379 1.386 . S
C1378 C1380 1.391 . S
C1379 C1378 1.386 . S
C1379 C1383 1.393 . S
C1380 H1369 0.950 . S
C1380 C1378 1.391 . S
C1380 C1381 1.400 . S
C1381 C1375 1.491 . S
C1381 C1380 1.400 . S
C1381 C1382 1.398 . S
C1382 H1370 0.950 . S
C1382 C1381 1.398 . S
C1382 C1383 1.391 . S
C1383 H1371 0.950 . S
C1383 C1379 1.393 . S
C1383 C1382 1.391 . S
H1384 C1392 0.950 . S
H1385 C1397 0.950 . S
H1386 C1394 0.950 . S
H1387 C1396 0.950 . S
H1388 C1398 0.950 . S
H1389 C1400 0.950 . S
H1390 C1402 0.950 . S
H1391 C1403 0.950 . S
C1392 H1384 0.950 . S
C1392 C1393 1.386 . S
C1392 C1394 1.391 . S
C1393 C1392 1.386 . S
C1393 C1397 1.393 . S
C1394 H1386 0.950 . S
C1394 C1392 1.391 . S
C1394 C1395 1.400 . S
C1395 C1394 1.400 . S
C1395 C1396 1.398 . S
C1395 C1401 1.491 . S
C1396 H1387 0.950 . S
C1396 C1395 1.398 . S
C1396 C1397 1.391 . S
C1397 H1385 0.950 . S
C1397 C1393 1.393 . S
C1397 C1396 1.391 . S
C1398 H1388 0.950 . S
C1398 C1399 1.386 . S
C1398 C1400 1.391 . S
C1399 C1398 1.386 . S
C1399 C1403 1.393 . S
C1400 H1389 0.950 . S
C1400 C1398 1.391 . S
C1400 C1401 1.400 . S
C1401 C1395 1.491 . S
C1401 C1400 1.400 . S
C1401 C1402 1.398 . S
C1402 H1390 0.950 . S
C1402 C1401 1.398 . S
C1402 C1403 1.391 . S
C1403 H1391 0.950 . S
C1403 C1399 1.393 . S
C1403 C1402 1.391 . S
H1404 C1412 0.950 . S
H1405 C1417 0.950 . S
H1406 C1414 0.950 . S
H1407 C1416 0.950 . S
H1408 C1418 0.950 . S
H1409 C1420 0.950 . S
H1410 C1422 0.950 . S
H1411 C1423 0.950 . S
C1412 H1404 0.950 . S
C1412 C1413 1.386 . S
C1412 C1414 1.391 . S
C1413 C1412 1.386 . S
C1413 C1417 1.393 . S
C1414 H1406 0.950 . S
C1414 C1412 1.391 . S
C1414 C1415 1.400 . S
C1415 C1414 1.400 . S
C1415 C1416 1.398 . S
C1415 C1421 1.491 . S
C1416 H1407 0.950 . S
C1416 C1415 1.398 . S
C1416 C1417 1.391 . S
C1417 H1405 0.950 . S
C1417 C1413 1.393 . S
C1417 C1416 1.391 . S
C1418 H1408 0.950 . S
C1418 C1419 1.386 . S
C1418 C1420 1.391 . S
C1419 C1418 1.386 . S
C1419 C1423 1.393 . S
C1420 H1409 0.950 . S
C1420 C1418 1.391 . S
C1420 C1421 1.400 . S
C1421 C1415 1.491 . S
C1421 C1420 1.400 . S
C1421 C1422 1.398 . S
C1422 H1410 0.950 . S
C1422 C1421 1.398 . S
C1422 C1423 1.391 . S
C1423 H1411 0.950 . S
C1423 C1419 1.393 . S
C1423 C1422 1.391 . S
H1424 C1432 0.950 . S
H1425 C1437 0.950 . S
H1426 C1434 0.950 . S
H1427 C1436 0.950 . S
H1428 C1438 0.950 . S
H1429 C1440 0.950 . S
H1430 C1442 0.950 . S
H1431 C1443 0.950 . S
C1432 H1424 0.950 . S
C1432 C1433 1.386 . S
C1432 C1434 1.391 . S
C1433 C1432 1.386 . S
C1433 C1437 1.393 . S
C1434 H1426 0.950 . S
C1434 C1432 1.391 . S
C1434 C1435 1.400 . S
C1435 C1434 1.400 . S
C1435 C1436 1.398 . S
C1435 C1441 1.491 . S
C1436 H1427 0.950 . S
C1436 C1435 1.398 . S
C1436 C1437 1.391 . S
C1437 H1425 0.950 . S
C1437 C1433 1.393 . S
C1437 C1436 1.391 . S
C1438 H1428 0.950 . S
C1438 C1439 1.386 . S
C1438 C1440 1.391 . S
C1439 C1438 1.386 . S
C1439 C1443 1.393 . S
C1440 H1429 0.950 . S
C1440 C1438 1.391 . S
C1440 C1441 1.400 . S
C1441 C1435 1.491 . S
C1441 C1440 1.400 . S
C1441 C1442 1.398 . S
C1442 H1430 0.950 . S
C1442 C1441 1.398 . S
C1442 C1443 1.391 . S
C1443 H1431 0.950 . S
C1443 C1439 1.393 . S
C1443 C1442 1.391 . S
H1444 C1452 0.950 . S
H1445 C1457 0.950 . S
H1446 C1454 0.950 . S
H1447 C1456 0.950 . S
H1448 C1458 0.950 . S
H1449 C1460 0.950 . S
H1450 C1462 0.950 . S
H1451 C1463 0.950 . S
C1452 H1444 0.950 . S
C1452 C1453 1.386 . S
C1452 C1454 1.391 . S
C1453 C1452 1.386 . S
C1453 C1457 1.393 . S
C1454 H1446 0.950 . S
C1454 C1452 1.391 . S
C1454 C1455 1.400 . S
C1455 C1454 1.400 . S
C1455 C1456 1.398 . S
C1455 C1461 1.491 . S
C1456 H1447 0.950 . S
C1456 C1455 1.398 . S
C1456 C1457 1.391 . S
C1457 H1445 0.950 . S
C1457 C1453 1.393 . S
C1457 C1456 1.391 . S
C1458 H1448 0.950 . S
C1458 C1459 1.386 . S
C1458 C1460 1.391 . S
C1459 C1458 1.386 . S
C1459 C1463 1.393 . S
C1460 H1449 0.950 . S
C1460 C1458 1.391 . S
C1460 C1461 1.400 . S
C1461 C1455 1.491 . S
C1461 C1460 1.400 . S
C1461 C1462 1.398 . S
C1462 H1450 0.950 . S
C1462 C1461 1.398 . S
C1462 C1463 1.391 . S
C1463 H1451 0.950 . S
C1463 C1459 1.393 . S
C1463 C1462 1.391 . S
H1464 C1472 0.950 . S
H1465 C1477 0.950 . S
H1466 C1474 0.950 . S
H1467 C1476 0.950 . S
H1468 C1478 0.950 . S
H1469 C1480 0.950 . S
H1470 C1482 0.950 . S
H1471 C1483 0.950 . S
C1472 H1464 0.950 . S
C1472 C1473 1.386 . S
C1472 C1474 1.391 . S
C1473 C1472 1.386 . S
C1473 C1477 1.393 . S
C1474 H1466 0.950 . S
C1474 C1472 1.391 . S
C1474 C1475 1.400 . S
C1475 C1474 1.400 . S
C1475 C1476 1.398 . S
C1475 C1481 1.491 . S
C1476 H1467 0.950 . S
C1476 C1475 1.398 . S
C1476 C1477 1.391 . S
C1477 H1465 0.950 . S
C1477 C1473 1.393 . S
C1477 C1476 1.391 . S
C1478 H1468 0.950 . S
C1478 C1479 1.386 . S
C1478 C1480 1.391 . S
C1479 C1478 1.386 . S
C1479 C1483 1.393 . S
C1480 H1469 0.950 . S
C1480 C1478 1.391 . S
C1480 C1481 1.400 . S
C1481 C1475 1.491 . S
C1481 C1480 1.400 . S
C1481 C1482 1.398 . S
C1482 H1470 0.950 . S
C1482 C1481 1.398 . S
C1482 C1483 1.391 . S
C1483 H1471 0.950 . S
C1483 C1479 1.393 . S
C1483 C1482 1.391 . S
H1484 C1492 0.950 . S
H1485 C1497 0.950 . S
H1486 C1494 0.950 . S
H1487 C1496 0.950 . S
H1488 C1498 0.950 . S
H1489 C1500 0.950 . S
H1490 C1502 0.950 . S
H1491 C1503 0.950 . S
C1492 H1484 0.950 . S
C1492 C1493 1.386 . S
C1492 C1494 1.391 . S
C1493 C1492 1.386 . S
C1493 C1497 1.393 . S
C1494 H1486 0.950 . S
C1494 C1492 1.391 . S
C1494 C1495 1.400 . S
C1495 C1494 1.400 . S
C1495 C1496 1.398 . S
C1495 C1501 1.491 . S
C1496 H1487 0.950 . S
C1496 C1495 1.398 . S
C1496 C1497 1.391 . S
C1497 H1485 0.950 . S
C1497 C1493 1.393 . S
C1497 C1496 1.391 . S
C1498 H1488 0.950 . S
C1498 C1499 1.386 . S
C1498 C1500 1.391 . S
C1499 C1498 1.386 . S
C1499 C1503 1.393 . S
C1500 H1489 0.950 . S
C1500 C1498 1.391 . S
C1500 C1501 1.400 . S
C1501 C1495 1.491 . S
C1501 C1500 1.400 . S
C1501 C1502 1.398 . S
C1502 H1490 0.950 . S
C1502 C1501 1.398 . S
C1502 C1503 1.391 . S
C1503 H1491 0.950 . S
C1503 C1499 1.393 . S
C1503 C1502 1.391 . S
H1504 C1512 0.950 . S
H1505 C1517 0.950 . S
H1506 C1514 0.950 . S
H1507 C1516 0.950 . S
H1508 C1518 0.950 . S
H1509 C1520 0.950 . S
H1510 C1522 0.950 . S
H1511 C1523 0.950 . S
C1512 H1504 0.950 . S
C1512 C1513 1.386 . S
C1512 C1514 1.391 . S
C1513 C1512 1.386 . S
C1513 C1517 1.393 . S
C1514 H1506 0.950 . S
C1514 C1512 1.391 . S
C1514 C1515 1.400 . S
C1515 C1514 1.400 . S
C1515 C1516 1.398 . S
C1515 C1521 1.491 . S
C1516 H1507 0.950 . S
C1516 C1515 1.398 . S
C1516 C1517 1.391 . S
C1517 H1505 0.950 . S
C1517 C1513 1.393 . S
C1517 C1516 1.391 . S
C1518 H1508 0.950 . S
C1518 C1519 1.386 . S
C1518 C1520 1.391 . S
C1519 C1518 1.386 . S
C1519 C1523 1.393 . S
C1520 H1509 0.950 . S
C1520 C1518 1.391 . S
C1520 C1521 1.400 . S
C1521 C1515 1.491 . S
C1521 C1520 1.400 . S
C1521 C1522 1.398 . S
C1522 H1510 0.950 . S
C1522 C1521 1.398 . S
C1522 C1523 1.391 . S
C1523 H1511 0.950 . S
C1523 C1519 1.393 . S
C1523 C1522 1.391 . S
H1524 C1532 0.950 . S
H1525 C1537 0.950 . S
H1526 C1534 0.950 . S
H1527 C1536 0.950 . S
H1528 C1538 0.950 . S
H1529 C1540 0.950 . S
H1530 C1542 0.950 . S
H1531 C1543 0.950 . S
C1532 H1524 0.950 . S
C1532 C1533 1.386 . S
C1532 C1534 1.391 . S
C1533 C1532 1.386 . S
C1533 C1537 1.393 . S
C1534 H1526 0.950 . S
C1534 C1532 1.391 . S
C1534 C1535 1.400 . S
C1535 C1534 1.400 . S
C1535 C1536 1.398 . S
C1535 C1541 1.491 . S
C1536 H1527 0.950 . S
C1536 C1535 1.398 . S
C1536 C1537 1.391 . S
C1537 H1525 0.950 . S
C1537 C1533 1.393 . S
C1537 C1536 1.391 . S
C1538 H1528 0.950 . S
C1538 C1539 1.386 . S
C1538 C1540 1.391 . S
C1539 C1538 1.386 . S
C1539 C1543 1.393 . S
C1540 H1529 0.950 . S
C1540 C1538 1.391 . S
C1540 C1541 1.400 . S
C1541 C1535 1.491 . S
C1541 C1540 1.400 . S
C1541 C1542 1.398 . S
C1542 H1530 0.950 . S
C1542 C1541 1.398 . S
C1542 C1543 1.391 . S
C1543 H1531 0.950 . S
C1543 C1539 1.393 . S
C1543 C1542 1.391 . S
H1544 C1552 0.950 . S
H1545 C1557 0.950 . S
H1546 C1554 0.950 . S
H1547 C1556 0.950 . S
H1548 C1558 0.950 . S
H1549 C1560 0.950 . S
H1550 C1562 0.950 . S
H1551 C1563 0.950 . S
C1552 H1544 0.950 . S
C1552 C1553 1.386 . S
C1552 C1554 1.391 . S
C1553 C1552 1.386 . S
C1553 C1557 1.393 . S
C1554 H1546 0.950 . S
C1554 C1552 1.391 . S
C1554 C1555 1.400 . S
C1555 C1554 1.400 . S
C1555 C1556 1.398 . S
C1555 C1561 1.491 . S
C1556 H1547 0.950 . S
C1556 C1555 1.398 . S
C1556 C1557 1.391 . S
C1557 H1545 0.950 . S
C1557 C1553 1.393 . S
C1557 C1556 1.391 . S
C1558 H1548 0.950 . S
C1558 C1559 1.386 . S
C1558 C1560 1.391 . S
C1559 C1558 1.386 . S
C1559 C1563 1.393 . S
C1560 H1549 0.950 . S
C1560 C1558 1.391 . S
C1560 C1561 1.400 . S
C1561 C1555 1.491 . S
C1561 C1560 1.400 . S
C1561 C1562 1.398 . S
C1562 H1550 0.950 . S
C1562 C1561 1.398 . S
C1562 C1563 1.391 . S
C1563 H1551 0.950 . S
C1563 C1559 1.393 . S
C1563 C1562 1.391 . S
H1564 C1572 0.950 . S
H1565 C1577 0.950 . S
H1566 C1574 0.950 . S
H1567 C1576 0.950 . S
H1568 C1578 0.950 . S
H1569 C1580 0.950 . S
H1570 C1582 0.950 . S
H1571 C1583 0.950 . S
C1572 H1564 0.950 . S
C1572 C1573 1.386 . S
C1572 C1574 1.391 . S
C1573 C1572 1.386 . S
C1573 C1577 1.393 . S
C1574 H1566 0.950 . S
C1574 C1572 1.391 . S
C1574 C1575 1.400 . S
C1575 C1574 1.400 . S
C1575 C1576 1.398 . S
C1575 C1581 1.491 . S
C1576 H1567 0.950 . S
C1576 C1575 1.398 . S
C1576 C1577 1.391 . S
C1577 H1565 0.950 . S
C1577 C1573 1.393 . S
C1577 C1576 1.391 . S
C1578 H1568 0.950 . S
C1578 C1579 1.386 . S
C1578 C1580 1.391 . S
C1579 C1578 1.386 . S
C1579 C1583 1.393 . S
C1580 H1569 0.950 . S
C1580 C1578 1.391 . S
C1580 C1581 1.400 . S
C1581 C1575 1.491 . S
C1581 C1580 1.400 . S
C1581 C1582 1.398 . S
C1582 H1570 0.950 . S
C1582 C1581 1.398 . S
C1582 C1583 1.391 . S
C1583 H1571 0.950 . S
C1583 C1579 1.393 . S
C1583 C1582 1.391 . S
H1584 C1592 0.950 . S
H1585 C1597 0.950 . S
H1586 C1594 0.950 . S
H1587 C1596 0.950 . S
H1588 C1598 0.950 . S
H1589 C1600 0.950 . S
H1590 C1602 0.950 . S
H1591 C1603 0.950 . S
C1592 H1584 0.950 . S
C1592 C1593 1.386 . S
C1592 C1594 1.391 . S
C1593 C1592 1.386 . S
C1593 C1597 1.393 . S
C1594 H1586 0.950 . S
C1594 C1592 1.391 . S
C1594 C1595 1.400 . S
C1595 C1594 1.400 . S
C1595 C1596 1.398 . S
C1595 C1601 1.491 . S
C1596 H1587 0.950 . S
C1596 C1595 1.398 . S
C1596 C1597 1.391 . S
C1597 H1585 0.950 . S
C1597 C1593 1.393 . S
C1597 C1596 1.391 . S
C1598 H1588 0.950 . S
C1598 C1599 1.386 . S
C1598 C1600 1.391 . S
C1599 C1598 1.386 . S
C1599 C1603 1.393 . S
C1600 H1589 0.950 . S
C1600 C1598 1.391 . S
C1600 C1601 1.400 . S
C1601 C1595 1.491 . S
C1601 C1600 1.400 . S
C1601 C1602 1.398 . S
C1602 H1590 0.950 . S
C1602 C1601 1.398 . S
C1602 C1603 1.391 . S
C1603 H1591 0.950 . S
C1603 C1599 1.393 . S
C1603 C1602 1.391 . S
H1604 C1612 0.950 . S
H1605 C1617 0.950 . S
H1606 C1614 0.950 . S
H1607 C1616 0.950 . S
H1608 C1618 0.950 . S
H1609 C1620 0.950 . S
H1610 C1622 0.950 . S
H1611 C1623 0.950 . S
C1612 H1604 0.950 . S
C1612 C1613 1.386 1_565 S
C1612 C1614 1.391 . S
C1613 C1612 1.386 1_545 S
C1613 C1617 1.393 . S
C1614 H1606 0.950 . S
C1614 C1612 1.391 . S
C1614 C1615 1.402 1_565 S
C1615 C1614 1.402 1_545 S
C1615 C1616 1.398 . S
C1615 C1621 1.490 1_545 S
C1616 H1607 0.950 . S
C1616 C1615 1.398 . S
C1616 C1617 1.391 . S
C1617 H1605 0.950 . S
C1617 C1613 1.393 . S
C1617 C1616 1.391 . S
C1618 H1608 0.950 . S
C1618 C1619 1.386 1_545 S
C1618 C1620 1.391 . S
C1619 C1618 1.386 1_565 S
C1619 C1623 1.393 . S
C1620 H1609 0.950 . S
C1620 C1618 1.391 . S
C1620 C1621 1.402 1_545 S
C1621 C1615 1.490 1_565 S
C1621 C1620 1.402 1_565 S
C1621 C1622 1.398 . S
C1622 H1610 0.950 . S
C1622 C1621 1.398 . S
C1622 C1623 1.391 . S
C1623 H1611 0.950 . S
C1623 C1619 1.393 . S
C1623 C1622 1.391 . S
H1624 C1632 0.950 . S
H1625 C1637 0.950 . S
H1626 C1634 0.950 . S
H1627 C1636 0.950 . S
H1628 C1638 0.950 . S
H1629 C1640 0.950 . S
H1630 C1642 0.950 . S
H1631 C1643 0.950 . S
C1632 H1624 0.950 . S
C1632 C1633 1.386 . S
C1632 C1634 1.391 . S
C1633 C1632 1.386 . S
C1633 C1637 1.393 1_455 S
C1634 H1626 0.950 . S
C1634 C1632 1.391 . S
C1634 C1635 1.428 . S
C1635 C1634 1.428 . S
C1635 C1636 1.372 1_455 S
C1635 C1641 1.489 1_455 S
C1636 H1627 0.950 . S
C1636 C1635 1.372 1_655 S
C1636 C1637 1.391 . S
C1637 H1625 0.950 . S
C1637 C1633 1.393 1_655 S
C1637 C1636 1.391 . S
C1638 H1628 0.950 . S
C1638 C1639 1.386 . S
C1638 C1640 1.391 . S
C1639 C1638 1.386 . S
C1639 C1643 1.393 1_655 S
C1640 H1629 0.950 . S
C1640 C1638 1.391 . S
C1640 C1641 1.427 . S
C1641 C1635 1.489 1_655 S
C1641 C1640 1.427 . S
C1641 C1642 1.373 1_655 S
C1642 H1630 0.950 . S
C1642 C1641 1.373 1_455 S
C1642 C1643 1.391 . S
C1643 H1631 0.950 . S
C1643 C1639 1.393 1_455 S
C1643 C1642 1.391 . S
H1644 C1652 0.950 . S
H1645 C1657 0.950 . S
H1646 C1654 0.950 . S
H1647 C1656 0.950 . S
H1648 C1658 0.950 . S
H1649 C1660 0.950 . S
H1650 C1662 0.950 . S
H1651 C1663 0.950 . S
C1652 H1644 0.950 . S
C1652 C1653 1.386 . S
C1652 C1654 1.391 . S
C1653 C1652 1.386 . S
C1653 C1657 1.393 . S
C1654 H1646 0.950 . S
C1654 C1652 1.391 . S
C1654 C1655 1.400 . S
C1655 C1654 1.400 . S
C1655 C1656 1.398 . S
C1655 C1661 1.491 . S
C1656 H1647 0.950 . S
C1656 C1655 1.398 . S
C1656 C1657 1.391 . S
C1657 H1645 0.950 . S
C1657 C1653 1.393 . S
C1657 C1656 1.391 . S
C1658 H1648 0.950 . S
C1658 C1659 1.386 . S
C1658 C1660 1.391 . S
C1659 C1658 1.386 . S
C1659 C1663 1.393 . S
C1660 H1649 0.950 . S
C1660 C1658 1.391 . S
C1660 C1661 1.400 . S
C1661 C1655 1.491 . S
C1661 C1660 1.400 . S
C1661 C1662 1.398 . S
C1662 H1650 0.950 . S
C1662 C1661 1.398 . S
C1662 C1663 1.391 . S
C1663 H1651 0.950 . S
C1663 C1659 1.393 . S
C1663 C1662 1.391 . S
H1664 C1672 0.950 . S
H1665 C1677 0.950 . S
H1666 C1674 0.950 . S
H1667 C1676 0.950 . S
H1668 C1678 0.950 . S
H1669 C1680 0.950 . S
H1670 C1682 0.950 . S
H1671 C1683 0.950 . S
C1672 H1664 0.950 . S
C1672 C1673 1.386 . S
C1672 C1674 1.391 . S
C1673 C1672 1.386 . S
C1673 C1677 1.393 1_545 S
C1674 H1666 0.950 . S
C1674 C1672 1.391 . S
C1674 C1675 1.414 . S
C1675 C1674 1.414 . S
C1675 C1676 1.386 1_545 S
C1675 C1681 1.490 1_545 S
C1676 H1667 0.950 . S
C1676 C1675 1.386 1_565 S
C1676 C1677 1.391 . S
C1677 H1665 0.950 . S
C1677 C1673 1.393 1_565 S
C1677 C1676 1.391 . S
C1678 H1668 0.950 . S
C1678 C1679 1.386 . S
C1678 C1680 1.391 . S
C1679 C1678 1.386 . S
C1679 C1683 1.393 1_565 S
C1680 H1669 0.950 . S
C1680 C1678 1.391 . S
C1680 C1681 1.415 . S
C1681 C1675 1.490 1_565 S
C1681 C1680 1.415 . S
C1681 C1682 1.385 1_565 S
C1682 H1670 0.950 . S
C1682 C1681 1.385 1_545 S
C1682 C1683 1.391 . S
C1683 H1671 0.950 . S
C1683 C1679 1.393 1_545 S
C1683 C1682 1.391 . S
H1684 C1692 0.950 . S
H1685 C1697 0.950 . S
H1686 C1694 0.950 . S
H1687 C1696 0.950 . S
H1688 C1698 0.950 . S
H1689 C1700 0.950 . S
H1690 C1702 0.950 . S
H1691 C1703 0.950 . S
C1692 H1684 0.950 . S
C1692 C1693 1.386 . S
C1692 C1694 1.391 . S
C1693 C1692 1.386 . S
C1693 C1697 1.393 1_655 S
C1694 H1686 0.950 . S
C1694 C1692 1.391 . S
C1694 C1695 1.400 . S
C1695 C1694 1.400 . S
C1695 C1696 1.398 1_655 S
C1695 C1701 1.488 1_655 S
C1696 H1687 0.950 . S
C1696 C1695 1.398 1_455 S
C1696 C1697 1.391 . S
C1697 H1685 0.950 . S
C1697 C1693 1.393 1_455 S
C1697 C1696 1.391 . S
C1698 H1688 0.950 . S
C1698 C1699 1.386 . S
C1698 C1700 1.391 . S
C1699 C1698 1.386 . S
C1699 C1703 1.393 1_455 S
C1700 H1689 0.950 . S
C1700 C1698 1.391 . S
C1700 C1701 1.458 . S
C1701 C1695 1.488 1_455 S
C1701 C1700 1.458 . S
C1701 C1702 1.346 1_455 S
C1702 H1690 0.950 . S
C1702 C1701 1.346 1_655 S
C1702 C1703 1.391 . S
C1703 H1691 0.950 . S
C1703 C1699 1.393 1_655 S
C1703 C1702 1.391 . S
H1704 C1712 0.950 . S
H1705 C1717 0.950 . S
H1706 C1714 0.950 . S
H1707 C1716 0.950 . S
H1708 C1718 0.950 . S
H1709 C1720 0.950 . S
H1710 C1722 0.950 . S
H1711 C1723 0.950 . S
C1712 H1704 0.950 . S
C1712 C1713 1.386 . S
C1712 C1714 1.391 . S
C1713 C1712 1.386 . S
C1713 C1717 1.393 . S
C1714 H1706 0.950 . S
C1714 C1712 1.391 . S
C1714 C1715 1.400 . S
C1715 C1714 1.400 . S
C1715 C1716 1.398 . S
C1715 C1721 1.491 . S
C1716 H1707 0.950 . S
C1716 C1715 1.398 . S
C1716 C1717 1.391 . S
C1717 H1705 0.950 . S
C1717 C1713 1.393 . S
C1717 C1716 1.391 . S
C1718 H1708 0.950 . S
C1718 C1719 1.386 . S
C1718 C1720 1.391 . S
C1719 C1718 1.386 . S
C1719 C1723 1.393 . S
C1720 H1709 0.950 . S
C1720 C1718 1.391 . S
C1720 C1721 1.400 . S
C1721 C1715 1.491 . S
C1721 C1720 1.400 . S
C1721 C1722 1.398 . S
C1722 H1710 0.950 . S
C1722 C1721 1.398 . S
C1722 C1723 1.391 . S
C1723 H1711 0.950 . S
C1723 C1719 1.393 . S
C1723 C1722 1.391 . S
H1724 C1732 0.950 . S
H1725 C1737 0.950 . S
H1726 C1734 0.950 . S
H1727 C1736 0.950 . S
H1728 C1738 0.950 . S
H1729 C1740 0.950 . S
H1730 C1742 0.950 . S
H1731 C1743 0.950 . S
C1732 H1724 0.950 . S
C1732 C1733 1.386 . S
C1732 C1734 1.391 . S
C1733 C1732 1.386 . S
C1733 C1737 1.393 . S
C1734 H1726 0.950 . S
C1734 C1732 1.391 . S
C1734 C1735 1.400 . S
C1735 C1734 1.400 . S
C1735 C1736 1.398 . S
C1735 C1741 1.491 . S
C1736 H1727 0.950 . S
C1736 C1735 1.398 . S
C1736 C1737 1.391 . S
C1737 H1725 0.950 . S
C1737 C1733 1.393 . S
C1737 C1736 1.391 . S
C1738 H1728 0.950 . S
C1738 C1739 1.386 . S
C1738 C1740 1.391 . S
C1739 C1738 1.386 . S
C1739 C1743 1.393 . S
C1740 H1729 0.950 . S
C1740 C1738 1.391 . S
C1740 C1741 1.400 . S
C1741 C1735 1.491 . S
C1741 C1740 1.400 . S
C1741 C1742 1.398 . S
C1742 H1730 0.950 . S
C1742 C1741 1.398 . S
C1742 C1743 1.391 . S
C1743 H1731 0.950 . S
C1743 C1739 1.393 . S
C1743 C1742 1.391 . S
H1744 C1752 0.950 . S
H1745 C1757 0.950 . S
H1746 C1754 0.950 . S
H1747 C1756 0.950 . S
H1748 C1758 0.950 . S
H1749 C1760 0.950 . S
H1750 C1762 0.950 . S
H1751 C1763 0.950 . S
C1752 H1744 0.950 . S
C1752 C1753 1.386 . S
C1752 C1754 1.391 . S
C1753 C1752 1.386 . S
C1753 C1757 1.393 . S
C1754 H1746 0.950 . S
C1754 C1752 1.391 . S
C1754 C1755 1.400 . S
C1755 C1754 1.400 . S
C1755 C1756 1.398 . S
C1755 C1761 1.491 . S
C1756 H1747 0.950 . S
C1756 C1755 1.398 . S
C1756 C1757 1.391 . S
C1757 H1745 0.950 . S
C1757 C1753 1.393 . S
C1757 C1756 1.391 . S
C1758 H1748 0.950 . S
C1758 C1759 1.386 . S
C1758 C1760 1.391 . S
C1759 C1758 1.386 . S
C1759 C1763 1.393 . S
C1760 H1749 0.950 . S
C1760 C1758 1.391 . S
C1760 C1761 1.400 . S
C1761 C1755 1.491 . S
C1761 C1760 1.400 . S
C1761 C1762 1.398 . S
C1762 H1750 0.950 . S
C1762 C1761 1.398 . S
C1762 C1763 1.391 . S
C1763 H1751 0.950 . S
C1763 C1759 1.393 . S
C1763 C1762 1.391 . S
H1764 C1772 0.950 . S
H1765 C1777 0.950 . S
H1766 C1774 0.950 . S
H1767 C1776 0.950 . S
H1768 C1778 0.950 1_556 S
H1769 C1780 0.950 . S
H1770 C1782 0.950 . S
H1771 C1783 0.950 1_556 S
C1772 H1764 0.950 . S
C1772 C1773 1.386 . S
C1772 C1774 1.391 . S
C1773 C1772 1.386 . S
C1773 C1777 1.393 . S
C1774 H1766 0.950 . S
C1774 C1772 1.391 . S
C1774 C1775 1.400 . S
C1775 C1774 1.400 . S
C1775 C1776 1.398 . S
C1775 C1781 1.491 . S
C1776 H1767 0.950 . S
C1776 C1775 1.398 . S
C1776 C1777 1.391 . S
C1777 H1765 0.950 . S
C1777 C1773 1.393 . S
C1777 C1776 1.391 . S
C1778 H1768 0.950 1_554 S
C1778 C1779 1.386 1_554 S
C1778 C1780 1.391 . S
C1779 C1778 1.386 1_556 S
C1779 C1783 1.393 1_556 S
C1780 H1769 0.950 . S
C1780 C1778 1.391 . S
C1780 C1781 1.400 . S
C1781 C1775 1.491 . S
C1781 C1780 1.400 . S
C1781 C1782 1.398 . S
C1782 H1770 0.950 . S
C1782 C1781 1.398 . S
C1782 C1783 1.391 . S
C1783 H1771 0.950 1_554 S
C1783 C1779 1.393 1_554 S
C1783 C1782 1.391 . S
H1784 C1792 0.950 . S
H1785 C1797 0.950 . S
H1786 C1794 0.950 . S
H1787 C1796 0.950 . S
H1788 C1798 0.950 1_556 S
H1789 C1800 0.950 . S
H1790 C1802 0.950 . S
H1791 C1803 0.950 1_556 S
C1792 H1784 0.950 . S
C1792 C1793 1.386 . S
C1792 C1794 1.391 . S
C1793 C1792 1.386 . S
C1793 C1797 1.393 . S
C1794 H1786 0.950 . S
C1794 C1792 1.391 . S
C1794 C1795 1.400 . S
C1795 C1794 1.400 . S
C1795 C1796 1.398 . S
C1795 C1801 1.491 . S
C1796 H1787 0.950 . S
C1796 C1795 1.398 . S
C1796 C1797 1.391 . S
C1797 H1785 0.950 . S
C1797 C1793 1.393 . S
C1797 C1796 1.391 . S
C1798 H1788 0.950 1_554 S
C1798 C1799 1.386 1_554 S
C1798 C1800 1.391 . S
C1799 C1798 1.386 1_556 S
C1799 C1803 1.393 1_556 S
C1800 H1789 0.950 . S
C1800 C1798 1.391 . S
C1800 C1801 1.400 . S
C1801 C1795 1.491 . S
C1801 C1800 1.400 . S
C1801 C1802 1.398 . S
C1802 H1790 0.950 . S
C1802 C1801 1.398 . S
C1802 C1803 1.391 . S
C1803 H1791 0.950 1_554 S
C1803 C1799 1.393 1_554 S
C1803 C1802 1.391 . S
H1804 C1812 0.950 . S
H1805 C1817 0.950 . S
H1806 C1814 0.950 . S
H1807 C1816 0.950 . S
H1808 C1818 0.950 1_556 S
H1809 C1820 0.950 . S
H1810 C1822 0.950 . S
H1811 C1823 0.950 1_556 S
C1812 H1804 0.950 . S
C1812 C1813 1.386 . S
C1812 C1814 1.391 . S
C1813 C1812 1.386 . S
C1813 C1817 1.393 . S
C1814 H1806 0.950 . S
C1814 C1812 1.391 . S
C1814 C1815 1.400 . S
C1815 C1814 1.400 . S
C1815 C1816 1.398 . S
C1815 C1821 1.491 . S
C1816 H1807 0.950 . S
C1816 C1815 1.398 . S
C1816 C1817 1.391 . S
C1817 H1805 0.950 . S
C1817 C1813 1.393 . S
C1817 C1816 1.391 . S
C1818 H1808 0.950 1_554 S
C1818 C1819 1.386 1_554 S
C1818 C1820 1.391 . S
C1819 C1818 1.386 1_556 S
C1819 C1823 1.393 1_556 S
C1820 H1809 0.950 . S
C1820 C1818 1.391 . S
C1820 C1821 1.400 . S
C1821 C1815 1.491 . S
C1821 C1820 1.400 . S
C1821 C1822 1.398 . S
C1822 H1810 0.950 . S
C1822 C1821 1.398 . S
C1822 C1823 1.391 . S
C1823 H1811 0.950 1_554 S
C1823 C1819 1.393 1_554 S
C1823 C1822 1.391 . S
H1824 C1832 0.950 1_554 S
H1825 C1837 0.950 1_554 S
H1826 C1834 0.950 . S
H1827 C1836 0.950 . S
H1828 C1838 0.950 . S
H1829 C1840 0.950 . S
H1830 C1842 0.950 . S
H1831 C1843 0.950 . S
C1832 H1824 0.950 1_556 S
C1832 C1833 1.386 1_556 S
C1832 C1834 1.391 . S
C1833 C1832 1.386 1_554 S
C1833 C1837 1.393 1_554 S
C1834 H1826 0.950 . S
C1834 C1832 1.391 . S
C1834 C1835 1.400 . S
C1835 C1834 1.400 . S
C1835 C1836 1.398 . S
C1835 C1841 1.491 . S
C1836 H1827 0.950 . S
C1836 C1835 1.398 . S
C1836 C1837 1.391 . S
C1837 H1825 0.950 1_556 S
C1837 C1833 1.393 1_556 S
C1837 C1836 1.391 . S
C1838 H1828 0.950 . S
C1838 C1839 1.386 . S
C1838 C1840 1.391 . S
C1839 C1838 1.386 . S
C1839 C1843 1.393 . S
C1840 H1829 0.950 . S
C1840 C1838 1.391 . S
C1840 C1841 1.400 . S
C1841 C1835 1.491 . S
C1841 C1840 1.400 . S
C1841 C1842 1.398 . S
C1842 H1830 0.950 . S
C1842 C1841 1.398 . S
C1842 C1843 1.391 . S
C1843 H1831 0.950 . S
C1843 C1839 1.393 . S
C1843 C1842 1.391 . S
H1844 C1852 0.950 1_554 S
H1845 C1857 0.950 1_554 S
H1846 C1854 0.950 . S
H1847 C1856 0.950 . S
H1848 C1858 0.950 . S
H1849 C1860 0.950 . S
H1850 C1862 0.950 . S
H1851 C1863 0.950 . S
C1852 H1844 0.950 1_556 S
C1852 C1853 1.386 1_556 S
C1852 C1854 1.391 . S
C1853 C1852 1.386 1_554 S
C1853 C1857 1.393 1_554 S
C1854 H1846 0.950 . S
C1854 C1852 1.391 . S
C1854 C1855 1.400 . S
C1855 C1854 1.400 . S
C1855 C1856 1.398 . S
C1855 C1861 1.491 . S
C1856 H1847 0.950 . S
C1856 C1855 1.398 . S
C1856 C1857 1.391 . S
C1857 H1845 0.950 1_556 S
C1857 C1853 1.393 1_556 S
C1857 C1856 1.391 . S
C1858 H1848 0.950 . S
C1858 C1859 1.386 . S
C1858 C1860 1.391 . S
C1859 C1858 1.386 . S
C1859 C1863 1.393 . S
C1860 H1849 0.950 . S
C1860 C1858 1.391 . S
C1860 C1861 1.400 . S
C1861 C1855 1.491 . S
C1861 C1860 1.400 . S
C1861 C1862 1.398 . S
C1862 H1850 0.950 . S
C1862 C1861 1.398 . S
C1862 C1863 1.391 . S
C1863 H1851 0.950 . S
C1863 C1859 1.393 . S
C1863 C1862 1.391 . S
H1864 C1872 0.950 1_554 S
H1865 C1877 0.950 1_554 S
H1866 C1874 0.950 . S
H1867 C1876 0.950 . S
H1868 C1878 0.950 . S
H1869 C1880 0.950 . S
H1870 C1882 0.950 . S
H1871 C1883 0.950 . S
C1872 H1864 0.950 1_556 S
C1872 C1873 1.386 1_556 S
C1872 C1874 1.391 . S
C1873 C1872 1.386 1_554 S
C1873 C1877 1.393 1_554 S
C1874 H1866 0.950 . S
C1874 C1872 1.391 . S
C1874 C1875 1.400 . S
C1875 C1874 1.400 . S
C1875 C1876 1.398 . S
C1875 C1881 1.491 . S
C1876 H1867 0.950 . S
C1876 C1875 1.398 . S
C1876 C1877 1.391 . S
C1877 H1865 0.950 1_556 S
C1877 C1873 1.393 1_556 S
C1877 C1876 1.391 . S
C1878 H1868 0.950 . S
C1878 C1879 1.386 . S
C1878 C1880 1.391 . S
C1879 C1878 1.386 . S
C1879 C1883 1.393 . S
C1880 H1869 0.950 . S
C1880 C1878 1.391 . S
C1880 C1881 1.400 . S
C1881 C1875 1.491 . S
C1881 C1880 1.400 . S
C1881 C1882 1.398 . S
C1882 H1870 0.950 . S
C1882 C1881 1.398 . S
C1882 C1883 1.391 . S
C1883 H1871 0.950 . S
C1883 C1879 1.393 . S
C1883 C1882 1.391 . S
H1884 C1892 0.950 . S
H1885 C1897 0.950 . S
H1886 C1894 0.950 . S
H1887 C1896 0.950 . S
H1888 C1898 0.950 . S
H1889 C1900 0.950 . S
H1890 C1902 0.950 . S
H1891 C1903 0.950 . S
C1892 H1884 0.950 . S
C1892 C1893 1.386 . S
C1892 C1894 1.391 . S
C1893 C1892 1.386 . S
C1893 C1897 1.393 . S
C1894 H1886 0.950 . S
C1894 C1892 1.391 . S
C1894 C1895 1.400 . S
C1895 C1894 1.400 . S
C1895 C1896 1.398 . S
C1895 C1901 1.491 . S
C1896 H1887 0.950 . S
C1896 C1895 1.398 . S
C1896 C1897 1.391 . S
C1897 H1885 0.950 . S
C1897 C1893 1.393 . S
C1897 C1896 1.391 . S
C1898 H1888 0.950 . S
C1898 C1899 1.386 . S
C1898 C1900 1.391 . S
C1899 C1898 1.386 . S
C1899 C1903 1.393 . S
C1900 H1889 0.950 . S
C1900 C1898 1.391 . S
C1900 C1901 1.400 . S
C1901 C1895 1.491 . S
C1901 C1900 1.400 . S
C1901 C1902 1.398 . S
C1902 H1890 0.950 . S
C1902 C1901 1.398 . S
C1902 C1903 1.391 . S
C1903 H1891 0.950 . S
C1903 C1899 1.393 . S
C1903 C1902 1.391 . S
H1904 C1912 0.950 . S
H1905 C1917 0.950 . S
H1906 C1914 0.950 . S
H1907 C1916 0.950 . S
H1908 C1918 0.950 . S
H1909 C1920 0.950 . S
H1910 C1922 0.950 . S
H1911 C1923 0.950 . S
C1912 H1904 0.950 . S
C1912 C1913 1.386 . S
C1912 C1914 1.391 . S
C1913 C1912 1.386 . S
C1913 C1917 1.393 . S
C1914 H1906 0.950 . S
C1914 C1912 1.391 . S
C1914 C1915 1.400 . S
C1915 C1914 1.400 . S
C1915 C1916 1.398 . S
C1915 C1921 1.491 . S
C1916 H1907 0.950 . S
C1916 C1915 1.398 . S
C1916 C1917 1.391 . S
C1917 H1905 0.950 . S
C1917 C1913 1.393 . S
C1917 C1916 1.391 . S
C1918 H1908 0.950 . S
C1918 C1919 1.386 . S
C1918 C1920 1.391 . S
C1919 C1918 1.386 . S
C1919 C1923 1.393 . S
C1920 H1909 0.950 . S
C1920 C1918 1.391 . S
C1920 C1921 1.400 . S
C1921 C1915 1.491 . S
C1921 C1920 1.400 . S
C1921 C1922 1.398 . S
C1922 H1910 0.950 . S
C1922 C1921 1.398 . S
C1922 C1923 1.391 . S
C1923 H1911 0.950 . S
C1923 C1919 1.393 . S
C1923 C1922 1.391 . S
H1924 C1932 0.950 . S
H1925 C1937 0.950 . S
H1926 C1934 0.950 . S
H1927 C1936 0.950 . S
H1928 C1938 0.950 . S
H1929 C1940 0.950 . S
H1930 C1942 0.950 . S
H1931 C1943 0.950 . S
C1932 H1924 0.950 . S
C1932 C1933 1.386 . S
C1932 C1934 1.391 . S
C1933 C1932 1.386 . S
C1933 C1937 1.393 . S
C1934 H1926 0.950 . S
C1934 C1932 1.391 . S
C1934 C1935 1.400 . S
C1935 C1934 1.400 . S
C1935 C1936 1.398 . S
C1935 C1941 1.491 . S
C1936 H1927 0.950 . S
C1936 C1935 1.398 . S
C1936 C1937 1.391 . S
C1937 H1925 0.950 . S
C1937 C1933 1.393 . S
C1937 C1936 1.391 . S
C1938 H1928 0.950 . S
C1938 C1939 1.386 . S
C1938 C1940 1.391 . S
C1939 C1938 1.386 . S
C1939 C1943 1.393 . S
C1940 H1929 0.950 . S
C1940 C1938 1.391 . S
C1940 C1941 1.400 . S
C1941 C1935 1.491 . S
C1941 C1940 1.400 . S
C1941 C1942 1.398 . S
C1942 H1930 0.950 . S
C1942 C1941 1.398 . S
C1942 C1943 1.391 . S
C1943 H1931 0.950 . S
C1943 C1939 1.393 . S
C1943 C1942 1.391 . S
C513 C230 1.105 . S
C519 C6 1.115 . S
C533 C244 1.129 . S
C539 C20 1.139 . S
C553 C34 1.129 . S
C559 C216 1.139 . S
C573 C370 1.103 . S
C579 C48 1.107 . S
C593 C342 1.103 . S
C599 C62 1.107 . S
C613 C76 1.103 . S
C619 C356 1.110 . S
C633 C482 1.112 . S
C639 C90 1.125 . S
C653 C496 1.139 . S
C659 C104 1.130 . S
C673 C468 1.104 . S
C679 C118 1.104 . S
C693 C286 1.140 . S
C699 C132 1.131 . S
C713 C146 1.118 . S
C719 C258 1.107 . S
C733 C272 1.111 . S
C739 C160 1.103 . S
C753 C398 1.140 . S
C759 C174 1.131 . S
C773 C188 1.111 . S
C779 C412 1.103 . S
C793 C384 1.132 . S
C799 C202 1.141 . S
C813 C454 1.136 . S
C819 C300 1.124 . S
C833 C426 1.113 . S
C839 C314 1.126 . S
C853 C328 1.141 . S
C859 C440 1.135 . S
C873 C105 1.603 . S
C879 C8 1.657 . S
C893 C119 1.627 . S
C899 C22 1.669 . S
C913 C91 1.628 . S
C919 C36 1.670 . S
C933 C50 1.673 . S
C939 C161 1.621 . S
C953 C133 1.625 . S
C959 C64 1.667 . S
C973 C78 1.657 . S
C979 C147 1.604 . S
C993 C21 1.603 . S
C999 C92 1.657 . S
C1013 C106 1.665 . S
C1019 C35 1.607 . S
C1033 C7 1.610 . S
C1039 C120 1.667 . S
C1053 C77 1.620 . S
C1059 C134 1.663 . S
C1073 C49 1.629 . S
C1079 C148 1.673 . S
C1093 C162 1.669 . S
C1099 C63 1.612 . S
C1113 C176 1.657 . S
C1119 C273 1.608 . S
C1133 C287 1.625 . S
C1139 C190 1.667 . S
C1153 C259 1.609 . S
C1159 C204 1.658 . S
C1173 C218 1.666 . S
C1179 C329 1.608 . S
C1193 C301 1.620 . S
C1199 C232 1.663 . S
C1213 C246 1.674 . S
C1219 C315 1.623 . S
C1233 C260 1.674 . S
C1239 C189 1.629 . S
C1253 C274 1.658 . S
C1259 C203 1.603 . S
C1273 C175 1.624 . S
C1279 C288 1.666 . S
C1293 C245 1.607 . S
C1299 C302 1.665 . S
C1313 C217 1.606 . S
C1319 C316 1.664 . S
C1333 C330 1.671 . S
C1339 C231 1.616 . S
C1353 C441 1.608 . S
C1359 C344 1.666 . S
C1373 C358 1.658 . S
C1379 C455 1.608 . S
C1393 C372 1.665 . S
C1399 C427 1.607 . S
C1413 C497 1.620 . S
C1419 C386 1.673 . S
C1433 C400 1.664 . S
C1439 C469 1.622 . S
C1453 C483 1.620 . S
C1459 C414 1.663 . S
C1473 C357 1.622 . S
C1479 C428 1.674 . S
C1493 C371 1.620 . S
C1499 C442 1.663 . S
C1513 C456 1.657 . S
C1519 C343 1.604 . S
C1533 C470 1.675 . S
C1539 C413 1.629 . S
C1553 C385 1.627 . S
C1559 C484 1.675 . S
C1573 C399 1.627 . S
C1579 C498 1.675 . S
C1593 C9 1.799 . S
C1599 C51 1.804 . S
C1613 C23 1.792 . S
C1619 C65 1.797 . S
C1633 C79 1.797 . S
C1639 C37 1.792 . S
C1653 C93 1.792 . S
C1659 C135 1.799 . S
C1673 C149 1.793 . S
C1679 C107 1.794 . S
C1693 C163 1.796 . S
C1699 C121 1.803 . S
C1713 C177 1.799 . S
C1719 C219 1.792 . S
C1733 C191 1.804 . S
C1739 C233 1.797 . S
C1753 C247 1.792 . S
C1759 C205 1.795 . S
C1773 C261 1.798 . S
C1779 C303 1.792 . S
C1793 C275 1.795 . S
C1799 C317 1.803 . S
C1813 C289 1.804 . S
C1819 C331 1.797 . S
C1833 C387 1.793 . S
C1839 C345 1.795 . S
C1853 C401 1.793 . S
C1859 C359 1.794 . S
C1873 C415 1.802 . S
C1879 C373 1.794 . S
C1893 C429 1.799 . S
C1899 C471 1.792 . S
C1913 C485 1.793 . S
C1919 C443 1.794 . S
C1933 C499 1.802 . S
C1939 C457 1.794 . S
