# Generated by pormake.
# Topology bcu, (8)-cn, num edge types: 1
# Building blocks:
#     Node 0, Type 0, BuildingBlock: GIZVER_clean_sbu_0, # of connection points: 8
#     Node 1, Type 0, BuildingBlock: GIZVER_clean_sbu_0, # of connection points: 8
#     Edge 2, Type (0, 0), BuildingBlock: MIFKUJ_clean_linker_0, # of connection points: 2
#     Edge 3, Type (0, 0), BuildingBlock: MIFKUJ_clean_linker_0, # of connection points: 2
#     Edge 4, Type (0, 0), BuildingBlock: MIFKUJ_clean_linker_0, # of connection points: 2
#     Edge 5, Type (0, 0), BuildingBlock: MIFKUJ_clean_linker_0, # of connection points: 2
#     Edge 6, Type (0, 0), BuildingBlock: MIFKUJ_clean_linker_0, # of connection points: 2
#     Edge 7, Type (0, 0), BuildingBlock: MIFKUJ_clean_linker_0, # of connection points: 2
#     Edge 8, Type (0, 0), BuildingBlock: MIFKUJ_clean_linker_0, # of connection points: 2
#     Edge 9, Type (0, 0), BuildingBlock: MIFKUJ_clean_linker_0, # of connection points: 2
# Relax obj value: 0.006
# Max RMSD: 0.052
# Mean RMSD: 0.052
data_MOF--net-bcu--node1-GIZVER_clean_sbu_0--edge1-MIFKUJ_clean_linker_0
_symmetry_space_group_name_H-M    P1
_symmetry_Int_Tables_number       1
_symmetry_cell_setting            triclinic
loop_
_symmetry_equiv_pos_as_xyz
'x, y, z'
_cell_length_a     26.950774
_cell_length_b     31.492963
_cell_length_c     16.137468
_cell_angle_alpha  87.73451
_cell_angle_beta   92.15047
_cell_angle_gamma 105.71202
loop_
_atom_site_label
_atom_site_type_symbol
_atom_site_fract_x
_atom_site_fract_y
_atom_site_fract_z
_atom_type_partial_charge
Co0 Co 0.06997 0.93471 0.98727 0.0
Co1 Co 0.07685 0.97114 0.13163 0.0
Co2 Co 0.01352 0.01846 0.00676 0.0
O3 O 0.07425 0.99335 0.02305 0.0
H4 H 0.1065 1.01442 0.00954 0.0
O5 O 0.95278 0.04343 0.99099 0.0
Co6 Co 0.95675 0.10173 0.0279 0.0
Co7 Co 0.94939 0.06573 0.88287 0.0
H8 H 0.9206 0.02225 1.0045 0.0
O9 O 0.1387 0.96633 0.17796 0.0
O10 O 0.08071 0.91583 0.10341 0.0
O11 O 0.01589 0.95932 0.1967 0.0
O12 O 0.96917 0.97761 0.09195 0.0
O13 O 0.04541 0.06336 0.09108 0.0
O14 O 0.95586 0.15397 0.06297 0.0
O15 O 0.88845 0.09405 0.04922 0.0
O16 O 0.02831 0.11782 0.01508 0.0
O17 O 0.0578 0.05947 0.92131 0.0
O18 O 1.01028 0.07821 0.81796 0.0
O19 O 0.9454 0.1208 0.91233 0.0
O20 O 0.88716 0.0707 0.83763 0.0
C21 C 0.11926 0.90059 0.94507 0.0
C22 C 0.97219 0.93253 0.94168 0.0
C23 C 0.97254 0.95838 0.16242 0.0
C24 C 0.12355 0.92727 0.14727 0.0
C25 C 0.90696 0.13521 0.07038 0.0
C26 C 0.0556 0.10432 0.07066 0.0
C27 C 0.05387 0.07916 0.85143 0.0
C28 C 0.90224 0.10949 0.8694 0.0
O29 O 0.07029 0.88225 0.95276 0.0
O30 O 0.1383 0.94162 0.9668 0.0
O31 O 0.98164 0.97359 0.92233 0.0
O32 O 0.99849 0.91937 0.99921 0.0
Co33 Co 0.57035 0.43536 0.48427 0.0
Co34 Co 0.57772 0.47136 0.6293 0.0
Co35 Co 0.51358 0.51863 0.50542 0.0
O36 O 0.57432 0.49367 0.52119 0.0
H37 H 0.6065 0.51485 0.50768 0.0
O38 O 0.45285 0.54375 0.48913 0.0
Co39 Co 0.45714 0.60239 0.5249 0.0
Co40 Co 0.45025 0.56595 0.38056 0.0
H41 H 0.4206 0.52267 0.50265 0.0
O42 O 0.63995 0.4664 0.67455 0.0
O43 O 0.58171 0.41629 0.59984 0.0
O44 O 0.51682 0.45888 0.69421 0.0
O45 O 0.46931 0.47763 0.59087 0.0
O46 O 0.54547 0.5635 0.58986 0.0
O47 O 0.45682 0.65484 0.55941 0.0
O48 O 0.38881 0.59548 0.54538 0.0
O49 O 0.52862 0.61772 0.51297 0.0
O50 O 0.55793 0.55948 0.42023 0.0
O51 O 0.51121 0.57776 0.31547 0.0
O52 O 0.4464 0.62127 0.40876 0.0
O53 O 0.3884 0.57076 0.33422 0.0
C54 C 0.62016 0.40189 0.44179 0.0
C55 C 0.47151 0.43277 0.44152 0.0
C56 C 0.47324 0.45793 0.66075 0.0
C57 C 0.62487 0.4276 0.64277 0.0
C58 C 0.40785 0.63651 0.56711 0.0
C59 C 0.55492 0.60456 0.57051 0.0
C60 C 0.55457 0.57871 0.34975 0.0
C61 C 0.40356 0.60982 0.3649 0.0
O62 O 0.57125 0.38313 0.4492 0.0
O63 O 0.63866 0.44306 0.46295 0.0
O64 O 0.48169 0.47374 0.4211 0.0
O65 O 0.4988 0.41927 0.4971 0.0
H66 H 0.11506 0.0927 0.20702 0.0
H67 H 0.18651 0.14856 0.27076 0.0
H68 H 0.16827 0.24407 0.08104 0.0
H69 H 0.09782 0.18879 0.0168 0.0
H70 H 0.26766 0.24834 0.10997 0.0
H71 H 0.11945 0.2429 0.27156 0.0
H72 H 0.04529 0.20811 0.35873 0.0
H73 H 0.14653 0.17069 0.54204 0.0
H74 H 0.22124 0.20469 0.45539 0.0
H75 H 0.41205 0.44439 0.30515 0.0
H76 H 0.3406 0.38853 0.24142 0.0
H77 H 0.35884 0.29302 0.43114 0.0
H78 H 0.42929 0.34831 0.49538 0.0
H79 H 0.25946 0.28875 0.40221 0.0
H80 H 0.40766 0.29418 0.24063 0.0
H81 H 0.48182 0.32898 0.15346 0.0
H82 H 0.38059 0.36639 0.97013 0.0
H83 H 0.30588 0.3324 0.05679 0.0
C84 C 0.12658 0.12553 0.17876 0.0
C85 C 0.10052 0.13648 0.1075 0.0
C86 C 0.16713 0.15741 0.21538 0.0
C87 C 0.18207 0.20056 0.18116 0.0
C88 C 0.15715 0.21104 0.1086 0.0
C89 C 0.11671 0.17939 0.07224 0.0
C90 C 0.22328 0.23525 0.22094 0.0
C91 C 0.26565 0.25754 0.17361 0.0
C92 C 0.22089 0.24659 0.30438 0.0
C93 C 0.1759 0.22589 0.35642 0.0
C94 C 0.12586 0.2269 0.33009 0.0
C95 C 0.08373 0.20744 0.37956 0.0
C96 C 0.09118 0.18722 0.45592 0.0
C97 C 0.1408 0.18641 0.48296 0.0
C98 C 0.18306 0.20576 0.43365 0.0
C99 C 0.40053 0.41156 0.33342 0.0
C100 C 0.42659 0.40061 0.40467 0.0
C101 C 0.35998 0.37968 0.2968 0.0
C102 C 0.34504 0.33653 0.33102 0.0
C103 C 0.36996 0.32605 0.40358 0.0
C104 C 0.4104 0.3577 0.43994 0.0
C105 C 0.30383 0.30184 0.29124 0.0
C106 C 0.26146 0.27955 0.33857 0.0
C107 C 0.30623 0.2905 0.2078 0.0
C108 C 0.35121 0.3112 0.15576 0.0
C109 C 0.40125 0.31019 0.1821 0.0
C110 C 0.44339 0.32965 0.13262 0.0
C111 C 0.43594 0.34987 0.05626 0.0
C112 C 0.38632 0.35067 0.02922 0.0
C113 C 0.34406 0.33133 0.07853 0.0
H114 H 0.4686 0.36486 0.018 0.0
H115 H 0.05852 0.17222 0.49418 0.0
H116 H 0.93246 0.2242 0.08565 0.0
H117 H 0.88334 0.26869 0.14715 0.0
H118 H 0.75759 0.15239 0.18795 0.0
H119 H 0.80682 0.10715 0.1249 0.0
H120 H 0.72372 0.22426 0.13507 0.0
H121 H 0.84396 0.19353 0.33684 0.0
H122 H 0.92875 0.19131 0.39636 0.0
H123 H 0.97991 0.33282 0.38426 0.0
H124 H 0.89587 0.33592 0.32247 0.0
H125 H 0.59466 0.3129 0.42651 0.0
H126 H 0.64378 0.26842 0.36501 0.0
H127 H 0.76953 0.38472 0.32422 0.0
H128 H 0.72029 0.42995 0.38727 0.0
H129 H 0.8034 0.31285 0.37709 0.0
H130 H 0.68317 0.34358 0.17532 0.0
H131 H 0.59838 0.3458 0.1158 0.0
H132 H 0.54721 0.2043 0.12788 0.0
H133 H 0.63125 0.20119 0.18968 0.0
C134 C 0.89427 0.20783 0.10735 0.0
C135 C 0.87394 0.16182 0.10151 0.0
C136 C 0.86621 0.23349 0.14265 0.0
C137 C 0.8172 0.21389 0.17397 0.0
C138 C 0.79556 0.16824 0.16481 0.0
C139 C 0.82371 0.14239 0.12889 0.0
C140 C 0.7897 0.24106 0.21849 0.0
C141 C 0.74078 0.2431 0.18876 0.0
C142 C 0.81269 0.26672 0.28729 0.0
C143 C 0.86353 0.26491 0.32425 0.0
C144 C 0.87341 0.2242 0.34596 0.0
C145 C 0.9214 0.22277 0.3801 0.0
C146 C 0.95971 0.26189 0.39405 0.0
C147 C 0.95018 0.30252 0.37346 0.0
C148 C 0.90237 0.30411 0.33873 0.0
C149 C 0.63285 0.32927 0.40481 0.0
C150 C 0.65317 0.37528 0.41066 0.0
C151 C 0.66091 0.30361 0.36951 0.0
C152 C 0.70992 0.32322 0.33819 0.0
C153 C 0.73156 0.36886 0.34735 0.0
C154 C 0.7034 0.39472 0.38328 0.0
C155 C 0.73741 0.29605 0.29367 0.0
C156 C 0.78634 0.29401 0.3234 0.0
C157 C 0.71442 0.27039 0.22487 0.0
C158 C 0.66359 0.2722 0.18791 0.0
C159 C 0.65372 0.31291 0.1662 0.0
C160 C 0.60572 0.31434 0.13205 0.0
C161 C 0.56742 0.27522 0.1181 0.0
C162 C 0.57694 0.23459 0.13869 0.0
C163 C 0.62475 0.233 0.17342 0.0
H164 H 0.5304 0.27637 0.09116 0.0
H165 H 0.99672 0.26075 0.42098 0.0
H166 H 0.96409 0.90405 0.30202 0.0
H167 H 0.89255 0.8398 0.3351 0.0
H168 H 0.8038 0.87311 0.12693 0.0
H169 H 0.87467 0.9376 0.09376 0.0
H170 H 0.74284 0.84063 0.25742 0.0
H171 H 0.87461 0.80029 0.10973 0.0
H172 H 0.96296 0.79557 0.08682 0.0
H173 H 0.96064 0.72022 0.31479 0.0
H174 H 0.87308 0.72566 0.34058 0.0
H175 H 0.56301 0.63304 0.21016 0.0
H176 H 0.63455 0.69729 0.17707 0.0
H177 H 0.7233 0.66398 0.38526 0.0
H178 H 0.65244 0.59949 0.41842 0.0
H179 H 0.78427 0.69646 0.25477 0.0
H180 H 0.6525 0.7368 0.40246 0.0
H181 H 0.56414 0.74152 0.42536 0.0
H182 H 0.56647 0.81687 0.19739 0.0
H183 H 0.65402 0.81143 0.17161 0.0
C184 C 0.92893 0.89844 0.26437 0.0
C185 C 0.92556 0.92602 0.19466 0.0
C186 C 0.88814 0.86141 0.28307 0.0
C187 C 0.84321 0.85101 0.23238 0.0
C188 C 0.83817 0.88024 0.16666 0.0
C189 C 0.87886 0.91729 0.14793 0.0
C190 C 0.80293 0.8084 0.24422 0.0
C191 C 0.75182 0.80911 0.25601 0.0
C192 C 0.8147 0.76717 0.24349 0.0
C193 C 0.86744 0.76384 0.22763 0.0
C194 C 0.89316 0.78315 0.15549 0.0
C195 C 0.94316 0.7804 0.14202 0.0
C196 C 0.96758 0.75792 0.1996 0.0
C197 C 0.94196 0.73798 0.2706 0.0
C198 C 0.89215 0.74092 0.28474 0.0
C199 C 0.59817 0.63864 0.24781 0.0
C200 C 0.60155 0.61107 0.31751 0.0
C201 C 0.63896 0.67568 0.22911 0.0
C202 C 0.6839 0.68607 0.2798 0.0
C203 C 0.68893 0.65685 0.34552 0.0
C204 C 0.64825 0.6198 0.36426 0.0
C205 C 0.72418 0.72868 0.26796 0.0
C206 C 0.77529 0.72798 0.25617 0.0
C207 C 0.71241 0.76991 0.26869 0.0
C208 C 0.65967 0.77324 0.28455 0.0
C209 C 0.63395 0.75393 0.35669 0.0
C210 C 0.58395 0.75668 0.37016 0.0
C211 C 0.55953 0.77916 0.31258 0.0
C212 C 0.58515 0.7991 0.24158 0.0
C213 C 0.63495 0.79617 0.22744 0.0
H214 H 0.52085 0.7813 0.32315 0.0
H215 H 1.00626 0.75579 0.18904 0.0
H216 H 0.09647 0.83935 0.11406 0.0
H217 H 0.14478 0.78575 0.15194 0.0
H218 H 0.26628 0.8885 0.26174 0.0
H219 H 0.21844 0.94246 0.2238 0.0
H220 H 0.303 0.83342 0.16507 0.0
H221 H 0.18706 0.82017 0.38973 0.0
H222 H 0.1024 0.81133 0.45164 0.0
H223 H 0.0438 0.68642 0.33606 0.0
H224 H 0.12805 0.69478 0.27275 0.0
H225 H 0.43065 0.69775 0.3981 0.0
H226 H 0.38235 0.75136 0.36023 0.0
H227 H 0.26084 0.64861 0.25044 0.0
H228 H 0.30868 0.59465 0.28838 0.0
H229 H 0.22412 0.70368 0.3471 0.0
H230 H 0.34007 0.71694 0.12245 0.0
H231 H 0.42472 0.72578 0.06052 0.0
H232 H 0.48333 0.85069 0.17609 0.0
H233 H 0.39908 0.84233 0.23942 0.0
C234 C 0.13357 0.85062 0.14589 0.0
C235 C 0.15349 0.89507 0.16651 0.0
C236 C 0.16102 0.81993 0.16772 0.0
C237 C 0.20875 0.83321 0.21047 0.0
C238 C 0.22939 0.87771 0.22903 0.0
C239 C 0.2019 0.90839 0.20755 0.0
C240 C 0.23689 0.80052 0.23665 0.0
C241 C 0.28615 0.80542 0.20588 0.0
C242 C 0.21424 0.76351 0.28817 0.0
C243 C 0.16366 0.75822 0.3262 0.0
C244 C 0.15599 0.79096 0.37714 0.0
C245 C 0.10814 0.78601 0.41255 0.0
C246 C 0.06776 0.74834 0.39779 0.0
C247 C 0.07514 0.71555 0.34753 0.0
C248 C 0.12295 0.72033 0.31197 0.0
C249 C 0.39355 0.68648 0.36627 0.0
C250 C 0.37363 0.64203 0.34566 0.0
C251 C 0.36611 0.71718 0.34444 0.0
C252 C 0.31838 0.7039 0.30171 0.0
C253 C 0.29773 0.6594 0.28314 0.0
C254 C 0.32521 0.62872 0.30462 0.0
C255 C 0.29023 0.73658 0.27552 0.0
C256 C 0.24098 0.73169 0.30629 0.0
C257 C 0.31289 0.7736 0.22401 0.0
C258 C 0.36347 0.77889 0.18597 0.0
C259 C 0.37114 0.74615 0.13503 0.0
C260 C 0.41898 0.7511 0.09961 0.0
C261 C 0.45936 0.78877 0.11436 0.0
C262 C 0.45198 0.82156 0.16463 0.0
C263 C 0.40418 0.81678 0.2002 0.0
H264 H 0.49632 0.79256 0.08666 0.0
H265 H 0.0308 0.74455 0.42549 0.0
H266 H 0.08678 0.81607 0.89372 0.0
H267 H 0.13623 0.77204 0.83286 0.0
H268 H 0.27486 0.8784 0.8612 0.0
H269 H 0.22466 0.92377 0.92105 0.0
H270 H 0.26973 0.8461 0.71194 0.0
H271 H 0.25333 0.7772 0.98601 0.0
H272 H 0.20843 0.74063 0.11071 0.0
H273 H 0.11147 0.63935 0.96219 0.0
H274 H 0.15606 0.67481 0.83639 0.0
H275 H 0.44034 0.72103 0.61845 0.0
H276 H 0.39089 0.76507 0.6793 0.0
H277 H 0.25226 0.65871 0.65098 0.0
H278 H 0.30246 0.61334 0.59113 0.0
H279 H 0.25739 0.69101 0.80024 0.0
H280 H 0.27379 0.75991 0.52617 0.0
H281 H 0.3187 0.79648 0.40146 0.0
H282 H 0.41565 0.89777 0.54998 0.0
H283 H 0.37106 0.8623 0.67578 0.0
C284 C 0.12788 0.83032 0.88782 0.0
C285 C 0.15162 0.87377 0.91226 0.0
C286 C 0.15632 0.80469 0.85344 0.0
C287 C 0.20962 0.82133 0.84343 0.0
C288 C 0.23379 0.8646 0.86852 0.0
C289 C 0.20511 0.89055 0.90282 0.0
C290 C 0.2389 0.79432 0.80208 0.0
C291 C 0.26773 0.81245 0.7323 0.0
C292 C 0.2351 0.74979 0.82637 0.0
C293 C 0.2077 0.72889 0.90172 0.0
C294 C 0.22218 0.74731 0.97983 0.0
C295 C 0.19691 0.72674 0.05074 0.0
C296 C 0.15694 0.688 0.04442 0.0
C297 C 0.14236 0.66944 0.96706 0.0
C298 C 0.16777 0.68962 0.89595 0.0
C299 C 0.39924 0.70679 0.62435 0.0
C300 C 0.37549 0.66334 0.59991 0.0
C301 C 0.3708 0.73242 0.65873 0.0
C302 C 0.3175 0.71577 0.66874 0.0
C303 C 0.29333 0.6725 0.64365 0.0
C304 C 0.32201 0.64655 0.60936 0.0
C305 C 0.28822 0.74279 0.7101 0.0
C306 C 0.25939 0.72466 0.77988 0.0
C307 C 0.29203 0.78732 0.68581 0.0
C308 C 0.31943 0.80822 0.61046 0.0
C309 C 0.30495 0.78979 0.53235 0.0
C310 C 0.33022 0.81036 0.46143 0.0
C311 C 0.37019 0.84911 0.46775 0.0
C312 C 0.38476 0.86767 0.54512 0.0
C313 C 0.35936 0.84749 0.61622 0.0
H314 H 0.38969 0.86483 0.41264 0.0
H315 H 0.13743 0.67228 0.09953 0.0
H316 H 0.37386 0.43909 0.59785 0.0
H317 H 0.30268 0.37495 0.63217 0.0
H318 H 0.39603 0.33604 0.82799 0.0
H319 H 0.46751 0.40014 0.79444 0.0
H320 H 0.35303 0.26818 0.72622 0.0
H321 H 0.29395 0.37267 0.87564 0.0
H322 H 0.27058 0.44206 0.89482 0.0
H323 H 0.15309 0.40785 0.70308 0.0
H324 H 0.17622 0.33847 0.68202 0.0
H325 H 0.15324 0.09799 0.91434 0.0
H326 H 0.22442 0.16213 0.88002 0.0
H327 H 0.13108 0.20105 0.6842 0.0
H328 H 0.0596 0.13695 0.71774 0.0
H329 H 0.17408 0.2689 0.78597 0.0
H330 H 0.23316 0.16441 0.63656 0.0
H331 H 0.25654 0.09503 0.61737 0.0
H332 H 0.37402 0.12924 0.80912 0.0
H333 H 0.3509 0.19861 0.83018 0.0
C334 C 0.37897 0.41767 0.64978 0.0
C335 C 0.4267 0.42508 0.69332 0.0
C336 C 0.33813 0.3808 0.66916 0.0
C337 C 0.34394 0.35053 0.73264 0.0
C338 C 0.39065 0.35884 0.77863 0.0
C339 C 0.43142 0.39582 0.75967 0.0
C340 C 0.30249 0.30896 0.7476 0.0
C341 C 0.31409 0.26837 0.74056 0.0
C342 C 0.2513 0.30903 0.76403 0.0
C343 C 0.23715 0.3506 0.7767 0.0
C344 C 0.26341 0.38012 0.8371 0.0
C345 C 0.25015 0.4194 0.84841 0.0
C346 C 0.21047 0.42941 0.80004 0.0
C347 C 0.18386 0.40008 0.74043 0.0
C348 C 0.19698 0.36074 0.72884 0.0
C349 C 0.14814 0.11942 0.86241 0.0
C350 C 0.10041 0.11201 0.81886 0.0
C351 C 0.18898 0.15628 0.84303 0.0
C352 C 0.18317 0.18655 0.77955 0.0
C353 C 0.13647 0.17825 0.73355 0.0
C354 C 0.09569 0.14127 0.75251 0.0
C355 C 0.22462 0.22813 0.76459 0.0
C356 C 0.21303 0.26872 0.77163 0.0
C357 C 0.27582 0.22805 0.74817 0.0
C358 C 0.28996 0.18648 0.7355 0.0
C359 C 0.2637 0.15697 0.67509 0.0
C360 C 0.27697 0.11768 0.66378 0.0
C361 C 0.31665 0.10767 0.71216 0.0
C362 C 0.34326 0.13701 0.77177 0.0
C363 C 0.33013 0.17634 0.78336 0.0
H364 H 0.32685 0.07723 0.70333 0.0
H365 H 0.20026 0.45985 0.80887 0.0
H366 H 0.80663 0.09447 0.79552 0.0
H367 H 0.75875 0.14852 0.75953 0.0
H368 H 0.88109 0.25099 0.86832 0.0
H369 H 0.92898 0.19699 0.90579 0.0
H370 H 0.7873 0.25945 0.9046 0.0
H371 H 0.87288 0.23533 0.66175 0.0
H372 H 0.89494 0.18824 0.5586 0.0
H373 H 0.73615 0.14531 0.47768 0.0
H374 H 0.71283 0.19116 0.58216 0.0
H375 H 0.72049 0.44264 0.71664 0.0
H376 H 0.76838 0.38859 0.75262 0.0
H377 H 0.64605 0.28612 0.64383 0.0
H378 H 0.59815 0.3401 0.60637 0.0
H379 H 0.73984 0.27767 0.60755 0.0
H380 H 0.65426 0.30178 0.85041 0.0
H381 H 0.63219 0.34886 0.95356 0.0
H382 H 0.79098 0.3918 0.03447 0.0
H383 H 0.81431 0.34595 0.92999 0.0
C384 C 0.82329 0.12846 0.81215 0.0
C385 C 0.8719 0.1416 0.85246 0.0
C386 C 0.79589 0.15928 0.79147 0.0
C387 C 0.81691 0.20384 0.80978 0.0
C388 C 0.86441 0.21676 0.85317 0.0
C389 C 0.89176 0.1859 0.87426 0.0
C390 C 0.79029 0.23724 0.78082 0.0
C391 C 0.77743 0.26382 0.83959 0.0
C392 C 0.77669 0.24226 0.69604 0.0
C393 C 0.791 0.21619 0.6307 0.0
C394 C 0.84258 0.21561 0.6224 0.0
C395 C 0.85529 0.18906 0.56381 0.0
C396 C 0.81688 0.16348 0.51217 0.0
C397 C 0.76578 0.16489 0.5182 0.0
C398 C 0.75279 0.19111 0.57718 0.0
C399 C 0.70383 0.40865 0.7 0.0
C400 C 0.65522 0.3955 0.6597 0.0
C401 C 0.73124 0.37783 0.72068 0.0
C402 C 0.71022 0.33327 0.70237 0.0
C403 C 0.66272 0.32034 0.65899 0.0
C404 C 0.63536 0.35121 0.6379 0.0
C405 C 0.73685 0.29987 0.73133 0.0
C406 C 0.74971 0.27329 0.67256 0.0
C407 C 0.75045 0.29485 0.81611 0.0
C408 C 0.73614 0.32092 0.88145 0.0
C409 C 0.68455 0.3215 0.88976 0.0
C410 C 0.67184 0.34805 0.94834 0.0
C411 C 0.71025 0.37363 0.99998 0.0
C412 C 0.76135 0.37223 0.99396 0.0
C413 C 0.77435 0.346 0.93497 0.0
H414 H 0.70036 0.39435 0.04501 0.0
H415 H 0.82677 0.14275 0.46715 0.0
H416 H 0.62262 0.59058 0.69373 0.0
H417 H 0.69346 0.64646 0.75887 0.0
H418 H 0.65396 0.74806 0.60408 0.0
H419 H 0.58413 0.69296 0.53869 0.0
H420 H 0.75414 0.75695 0.60466 0.0
H421 H 0.6228 0.73186 0.80823 0.0
H422 H 0.5603 0.69035 0.90978 0.0
H423 H 0.68216 0.655 0.05093 0.0
H424 H 0.7453 0.69551 0.94927 0.0
H425 H 0.90449 0.94651 0.81845 0.0
H426 H 0.83365 0.89063 0.75331 0.0
H427 H 0.87315 0.78903 0.90811 0.0
H428 H 0.94297 0.84413 0.9735 0.0
H429 H 0.77298 0.78014 0.90753 0.0
H430 H 0.90431 0.80522 0.70396 0.0
H431 H 0.96682 0.84672 0.60241 0.0
H432 H 0.84496 0.88209 0.46125 0.0
H433 H 0.78182 0.84158 0.5629 0.0
C434 C 0.62907 0.62484 0.67383 0.0
C435 C 0.59778 0.63734 0.61109 0.0
C436 C 0.66932 0.65671 0.71131 0.0
C437 C 0.67859 0.70142 0.68674 0.0
C438 C 0.64747 0.71377 0.62401 0.0
C439 C 0.60749 0.68214 0.58671 0.0
C440 C 0.72157 0.73558 0.72408 0.0
C441 C 0.75797 0.76243 0.67085 0.0
C442 C 0.72703 0.74188 0.8106 0.0
C443 C 0.68872 0.71621 0.87028 0.0
C444 C 0.6362 0.71468 0.86017 0.0
C445 C 0.60066 0.69143 0.91794 0.0
C446 C 0.61721 0.66988 0.98655 0.0
C447 C 0.66935 0.67153 0.99755 0.0
C448 C 0.70502 0.6946 0.93982 0.0
C449 C 0.89804 0.91225 0.83835 0.0
C450 C 0.92933 0.89975 0.9011 0.0
C451 C 0.85779 0.88038 0.80087 0.0
C452 C 0.84852 0.83567 0.82545 0.0
C453 C 0.87964 0.82332 0.88818 0.0
C454 C 0.91962 0.85495 0.92547 0.0
C455 C 0.80554 0.80151 0.7881 0.0
C456 C 0.76914 0.77466 0.84134 0.0
C457 C 0.80008 0.79521 0.70158 0.0
C458 C 0.83839 0.82087 0.6419 0.0
C459 C 0.89091 0.8224 0.65202 0.0
C460 C 0.92645 0.84565 0.59425 0.0
C461 C 0.90991 0.8672 0.52563 0.0
C462 C 0.85777 0.86555 0.51463 0.0
C463 C 0.8221 0.84249 0.57236 0.0
H464 H 0.93745 0.88502 0.4808 0.0
H465 H 0.58967 0.65206 0.03138 0.0
loop_
_geom_bond_atom_site_label_1
_geom_bond_atom_site_label_2
_geom_bond_distance
_geom_bond_site_symmetry_2
_ccdc_geom_bond_type
Co0 O3 2.042 1_556 S
Co0 O10 2.264 1_556 S
Co0 O29 2.286 . S
Co0 O30 2.069 . S
Co0 O32 2.015 1_455 S
Co1 O3 2.122 . S
Co1 O9 2.073 . S
Co1 O10 2.327 . S
Co1 O11 1.976 1_455 S
Co2 O3 2.087 1_545 S
Co2 O5 2.087 1_454 S
Co2 O12 2.111 1_445 S
Co2 O13 2.143 . S
Co2 O17 2.111 1_554 S
Co2 O31 2.143 1_444 S
O3 Co0 2.042 1_554 S
O3 Co1 2.122 . S
O3 Co2 2.087 1_565 S
O3 H4 0.980 . S
H4 O3 0.980 . S
O5 Co2 2.087 1_656 S
O5 Co6 2.042 1_556 S
O5 Co7 2.122 . S
O5 H8 0.980 . S
Co6 O5 2.042 1_554 S
Co6 O14 2.286 . S
Co6 O15 2.069 . S
Co6 O16 2.015 1_655 S
Co6 O19 2.264 1_554 S
Co7 O5 2.122 . S
Co7 O18 1.976 1_655 S
Co7 O19 2.327 . S
Co7 O20 2.073 . S
H8 O5 0.980 . S
O9 Co1 2.073 . S
O9 C24 1.245 . S
O10 Co0 2.264 1_554 S
O10 Co1 2.327 . S
O10 C24 1.257 . S
O11 Co1 1.976 1_655 S
O11 C23 1.251 . S
O12 Co2 2.111 1_665 S
O12 C23 1.274 . S
O13 Co2 2.143 . S
O13 C26 1.246 . S
O14 Co6 2.286 . S
O14 C25 1.259 . S
O15 Co6 2.069 . S
O15 C25 1.289 . S
O16 Co6 2.015 1_455 S
O16 C26 1.257 . S
O17 Co2 2.111 1_556 S
O17 C27 1.274 . S
O18 Co7 1.976 1_455 S
O18 C27 1.251 . S
O19 Co6 2.264 1_556 S
O19 Co7 2.327 . S
O19 C28 1.257 . S
O20 Co7 2.073 . S
O20 C28 1.245 . S
C21 O29 1.259 . S
C21 O30 1.289 . S
C22 O31 1.246 . S
C22 O32 1.257 . S
C23 O11 1.251 . S
C23 O12 1.274 . S
C24 O9 1.245 . S
C24 O10 1.257 . S
C25 O14 1.259 . S
C25 O15 1.289 . S
C26 O13 1.246 . S
C26 O16 1.257 . S
C27 O17 1.274 . S
C27 O18 1.251 . S
C28 O19 1.257 . S
C28 O20 1.245 . S
O29 Co0 2.286 . S
O29 C21 1.259 . S
O30 Co0 2.069 . S
O30 C21 1.289 . S
O31 Co2 2.143 1_666 S
O31 C22 1.246 . S
O32 Co0 2.015 1_655 S
O32 C22 1.257 . S
Co33 O36 2.042 . S
Co33 O43 2.264 . S
Co33 O62 2.286 . S
Co33 O63 2.069 . S
Co33 O65 2.015 . S
Co34 O36 2.122 . S
Co34 O42 2.073 . S
Co34 O43 2.327 . S
Co34 O44 1.976 . S
Co35 O36 2.087 . S
Co35 O38 2.087 . S
Co35 O45 2.111 . S
Co35 O46 2.143 . S
Co35 O50 2.111 . S
Co35 O64 2.143 . S
O36 Co33 2.042 . S
O36 Co34 2.122 . S
O36 Co35 2.087 . S
O36 H37 0.980 . S
H37 O36 0.980 . S
O38 Co35 2.087 . S
O38 Co39 2.042 . S
O38 Co40 2.122 . S
O38 H41 0.980 . S
Co39 O38 2.042 . S
Co39 O47 2.286 . S
Co39 O48 2.069 . S
Co39 O49 2.015 . S
Co39 O52 2.264 . S
Co40 O38 2.122 . S
Co40 O51 1.976 . S
Co40 O52 2.327 . S
Co40 O53 2.073 . S
H41 O38 0.980 . S
O42 Co34 2.073 . S
O42 C57 1.245 . S
O43 Co33 2.264 . S
O43 Co34 2.327 . S
O43 C57 1.257 . S
O44 Co34 1.976 . S
O44 C56 1.251 . S
O45 Co35 2.111 . S
O45 C56 1.274 . S
O46 Co35 2.143 . S
O46 C59 1.246 . S
O47 Co39 2.286 . S
O47 C58 1.259 . S
O48 Co39 2.069 . S
O48 C58 1.289 . S
O49 Co39 2.015 . S
O49 C59 1.257 . S
O50 Co35 2.111 . S
O50 C60 1.274 . S
O51 Co40 1.976 . S
O51 C60 1.251 . S
O52 Co39 2.264 . S
O52 Co40 2.327 . S
O52 C61 1.257 . S
O53 Co40 2.073 . S
O53 C61 1.245 . S
C54 O62 1.259 . S
C54 O63 1.289 . S
C55 O64 1.246 . S
C55 O65 1.257 . S
C56 O44 1.251 . S
C56 O45 1.274 . S
C57 O42 1.245 . S
C57 O43 1.257 . S
C58 O47 1.259 . S
C58 O48 1.289 . S
C59 O46 1.246 . S
C59 O49 1.257 . S
C60 O50 1.274 . S
C60 O51 1.251 . S
C61 O52 1.257 . S
C61 O53 1.245 . S
O62 Co33 2.286 . S
O62 C54 1.259 . S
O63 Co33 2.069 . S
O63 C54 1.289 . S
O64 Co35 2.143 . S
O64 C55 1.246 . S
O65 Co33 2.015 . S
O65 C55 1.257 . S
H66 C84 0.951 . S
H67 C86 0.951 . S
H68 C88 0.950 . S
H69 C89 0.950 . S
H70 C91 0.950 . S
H71 C94 0.950 . S
H72 C95 0.950 . S
H73 C97 0.950 . S
H74 C98 0.950 . S
H75 C99 0.951 . S
H76 C101 0.951 . S
H77 C103 0.950 . S
H78 C104 0.950 . S
H79 C106 0.950 . S
H80 C109 0.950 . S
H81 C110 0.950 . S
H82 C112 0.950 . S
H83 C113 0.950 . S
C84 H66 0.951 . S
C84 C85 1.366 . S
C84 C86 1.388 . S
C85 C84 1.366 . S
C85 C89 1.385 . S
C86 H67 0.951 . S
C86 C84 1.388 . S
C86 C87 1.366 . S
C87 C86 1.366 . S
C87 C88 1.414 . S
C87 C90 1.499 . S
C88 H68 0.950 . S
C88 C87 1.414 . S
C88 C89 1.374 . S
C89 H69 0.950 . S
C89 C85 1.385 . S
C89 C88 1.374 . S
C90 C87 1.499 . S
C90 C91 1.373 . S
C90 C92 1.389 . S
C91 H70 0.950 . S
C91 C90 1.373 . S
C91 C107 1.377 . S
C92 C90 1.389 . S
C92 C93 1.524 . S
C92 C106 1.377 . S
C93 C92 1.524 . S
C93 C94 1.397 . S
C93 C98 1.363 . S
C94 H71 0.950 . S
C94 C93 1.397 . S
C94 C95 1.334 . S
C95 H72 0.950 . S
C95 C94 1.334 . S
C95 C96 1.287 . S
C96 C95 1.287 . S
C96 C97 1.524 . S
C96 H115 0.913 . S
C97 H73 0.950 . S
C97 C96 1.524 . S
C97 C98 1.415 . S
C98 H74 0.950 . S
C98 C93 1.363 . S
C98 C97 1.415 . S
C99 H75 0.951 . S
C99 C100 1.366 . S
C99 C101 1.388 . S
C100 C99 1.366 . S
C100 C104 1.385 . S
C101 H76 0.951 . S
C101 C99 1.388 . S
C101 C102 1.366 . S
C102 C101 1.366 . S
C102 C103 1.414 . S
C102 C105 1.499 . S
C103 H77 0.950 . S
C103 C102 1.414 . S
C103 C104 1.374 . S
C104 H78 0.950 . S
C104 C100 1.385 . S
C104 C103 1.374 . S
C105 C102 1.499 . S
C105 C106 1.373 . S
C105 C107 1.389 . S
C106 H79 0.950 . S
C106 C92 1.377 . S
C106 C105 1.373 . S
C107 C91 1.377 . S
C107 C105 1.389 . S
C107 C108 1.524 . S
C108 C107 1.524 . S
C108 C109 1.397 . S
C108 C113 1.363 . S
C109 H80 0.950 . S
C109 C108 1.397 . S
C109 C110 1.334 . S
C110 H81 0.950 . S
C110 C109 1.334 . S
C110 C111 1.287 . S
C111 C110 1.287 . S
C111 C112 1.524 . S
C111 H114 0.999 . S
C112 H82 0.950 . S
C112 C111 1.524 . S
C112 C113 1.415 . S
C113 H83 0.950 . S
C113 C108 1.363 . S
C113 C112 1.415 . S
H114 C111 0.999 . S
H115 C96 0.913 . S
H116 C134 0.951 . S
H117 C136 0.951 . S
H118 C138 0.950 . S
H119 C139 0.950 . S
H120 C141 0.950 . S
H121 C144 0.950 . S
H122 C145 0.950 . S
H123 C147 0.950 . S
H124 C148 0.950 . S
H125 C149 0.951 . S
H126 C151 0.951 . S
H127 C153 0.950 . S
H128 C154 0.950 . S
H129 C156 0.950 . S
H130 C159 0.950 . S
H131 C160 0.950 . S
H132 C162 0.950 1_556 S
H133 C163 0.950 . S
C134 H116 0.951 . S
C134 C135 1.366 . S
C134 C136 1.388 . S
C135 C134 1.366 . S
C135 C139 1.385 . S
C136 H117 0.951 . S
C136 C134 1.388 . S
C136 C137 1.366 . S
C137 C136 1.366 . S
C137 C138 1.414 . S
C137 C140 1.499 . S
C138 H118 0.950 . S
C138 C137 1.414 . S
C138 C139 1.374 . S
C139 H119 0.950 . S
C139 C135 1.385 . S
C139 C138 1.374 . S
C140 C137 1.499 . S
C140 C141 1.373 . S
C140 C142 1.389 . S
C141 H120 0.950 . S
C141 C140 1.373 . S
C141 C157 1.377 . S
C142 C140 1.389 . S
C142 C143 1.524 . S
C142 C156 1.377 . S
C143 C142 1.524 . S
C143 C144 1.397 . S
C143 C148 1.363 . S
C144 H121 0.950 . S
C144 C143 1.397 . S
C144 C145 1.334 . S
C145 H122 0.950 . S
C145 C144 1.334 . S
C145 C146 1.287 . S
C146 C145 1.287 . S
C146 C147 1.524 . S
C146 H165 0.913 . S
C147 H123 0.950 . S
C147 C146 1.524 . S
C147 C148 1.415 . S
C148 H124 0.950 . S
C148 C143 1.363 . S
C148 C147 1.415 . S
C149 H125 0.951 . S
C149 C150 1.366 . S
C149 C151 1.388 . S
C150 C149 1.366 . S
C150 C154 1.385 . S
C151 H126 0.951 . S
C151 C149 1.388 . S
C151 C152 1.366 . S
C152 C151 1.366 . S
C152 C153 1.414 . S
C152 C155 1.499 . S
C153 H127 0.950 . S
C153 C152 1.414 . S
C153 C154 1.374 . S
C154 H128 0.950 . S
C154 C150 1.385 . S
C154 C153 1.374 . S
C155 C152 1.499 . S
C155 C156 1.373 . S
C155 C157 1.389 . S
C156 H129 0.950 . S
C156 C142 1.377 . S
C156 C155 1.373 . S
C157 C141 1.377 . S
C157 C155 1.389 . S
C157 C158 1.524 . S
C158 C157 1.524 . S
C158 C159 1.397 . S
C158 C163 1.363 . S
C159 H130 0.950 . S
C159 C158 1.397 . S
C159 C160 1.334 . S
C160 H131 0.950 . S
C160 C159 1.334 . S
C160 C161 1.287 . S
C161 C160 1.287 . S
C161 C162 1.524 . S
C161 H164 0.999 1_554 S
C162 H132 0.950 1_554 S
C162 C161 1.524 . S
C162 C163 1.415 . S
C163 H133 0.950 . S
C163 C158 1.363 . S
C163 C162 1.415 . S
H164 C161 0.999 1_556 S
H165 C146 0.913 . S
H166 C184 0.951 . S
H167 C186 0.951 . S
H168 C188 0.950 . S
H169 C189 0.950 . S
H170 C191 0.950 . S
H171 C194 0.950 . S
H172 C195 0.950 . S
H173 C197 0.950 . S
H174 C198 0.950 . S
H175 C199 0.951 . S
H176 C201 0.951 . S
H177 C203 0.950 . S
H178 C204 0.950 . S
H179 C206 0.950 . S
H180 C209 0.950 . S
H181 C210 0.950 . S
H182 C212 0.950 . S
H183 C213 0.950 . S
C184 H166 0.951 . S
C184 C185 1.366 . S
C184 C186 1.388 . S
C185 C184 1.366 . S
C185 C189 1.385 . S
C186 H167 0.951 . S
C186 C184 1.388 . S
C186 C187 1.366 . S
C187 C186 1.366 . S
C187 C188 1.414 . S
C187 C190 1.499 . S
C188 H168 0.950 . S
C188 C187 1.414 . S
C188 C189 1.374 . S
C189 H169 0.950 . S
C189 C185 1.385 . S
C189 C188 1.374 . S
C190 C187 1.499 . S
C190 C191 1.373 . S
C190 C192 1.389 . S
C191 H170 0.950 . S
C191 C190 1.373 . S
C191 C207 1.377 . S
C192 C190 1.389 . S
C192 C193 1.524 . S
C192 C206 1.377 . S
C193 C192 1.524 . S
C193 C194 1.397 . S
C193 C198 1.363 . S
C194 H171 0.950 . S
C194 C193 1.397 . S
C194 C195 1.334 . S
C195 H172 0.950 . S
C195 C194 1.334 . S
C195 C196 1.287 . S
C196 C195 1.287 . S
C196 C197 1.524 . S
C196 H215 0.913 . S
C197 H173 0.950 . S
C197 C196 1.524 . S
C197 C198 1.415 . S
C198 H174 0.950 . S
C198 C193 1.363 . S
C198 C197 1.415 . S
C199 H175 0.951 . S
C199 C200 1.366 . S
C199 C201 1.388 . S
C200 C199 1.366 . S
C200 C204 1.385 . S
C201 H176 0.951 . S
C201 C199 1.388 . S
C201 C202 1.366 . S
C202 C201 1.366 . S
C202 C203 1.414 . S
C202 C205 1.499 . S
C203 H177 0.950 . S
C203 C202 1.414 . S
C203 C204 1.374 . S
C204 H178 0.950 . S
C204 C200 1.385 . S
C204 C203 1.374 . S
C205 C202 1.499 . S
C205 C206 1.373 . S
C205 C207 1.389 . S
C206 H179 0.950 . S
C206 C192 1.377 . S
C206 C205 1.373 . S
C207 C191 1.377 . S
C207 C205 1.389 . S
C207 C208 1.524 . S
C208 C207 1.524 . S
C208 C209 1.397 . S
C208 C213 1.363 . S
C209 H180 0.950 . S
C209 C208 1.397 . S
C209 C210 1.334 . S
C210 H181 0.950 . S
C210 C209 1.334 . S
C210 C211 1.287 . S
C211 C210 1.287 . S
C211 C212 1.524 . S
C211 H214 0.999 . S
C212 H182 0.950 . S
C212 C211 1.524 . S
C212 C213 1.415 . S
C213 H183 0.950 . S
C213 C208 1.363 . S
C213 C212 1.415 . S
H214 C211 0.999 . S
H215 C196 0.913 . S
H216 C234 0.951 . S
H217 C236 0.951 . S
H218 C238 0.950 . S
H219 C239 0.950 . S
H220 C241 0.950 . S
H221 C244 0.950 . S
H222 C245 0.950 . S
H223 C247 0.950 . S
H224 C248 0.950 . S
H225 C249 0.951 . S
H226 C251 0.951 . S
H227 C253 0.950 . S
H228 C254 0.950 . S
H229 C256 0.950 . S
H230 C259 0.950 . S
H231 C260 0.950 . S
H232 C262 0.950 . S
H233 C263 0.950 . S
C234 H216 0.951 . S
C234 C235 1.366 . S
C234 C236 1.388 . S
C235 C234 1.366 . S
C235 C239 1.385 . S
C236 H217 0.951 . S
C236 C234 1.388 . S
C236 C237 1.366 . S
C237 C236 1.366 . S
C237 C238 1.414 . S
C237 C240 1.499 . S
C238 H218 0.950 . S
C238 C237 1.414 . S
C238 C239 1.374 . S
C239 H219 0.950 . S
C239 C235 1.385 . S
C239 C238 1.374 . S
C240 C237 1.499 . S
C240 C241 1.373 . S
C240 C242 1.389 . S
C241 H220 0.950 . S
C241 C240 1.373 . S
C241 C257 1.377 . S
C242 C240 1.389 . S
C242 C243 1.524 . S
C242 C256 1.377 . S
C243 C242 1.524 . S
C243 C244 1.397 . S
C243 C248 1.363 . S
C244 H221 0.950 . S
C244 C243 1.397 . S
C244 C245 1.334 . S
C245 H222 0.950 . S
C245 C244 1.334 . S
C245 C246 1.287 . S
C246 C245 1.287 . S
C246 C247 1.524 . S
C246 H265 0.913 . S
C247 H223 0.950 . S
C247 C246 1.524 . S
C247 C248 1.415 . S
C248 H224 0.950 . S
C248 C243 1.363 . S
C248 C247 1.415 . S
C249 H225 0.951 . S
C249 C250 1.366 . S
C249 C251 1.388 . S
C250 C249 1.366 . S
C250 C254 1.385 . S
C251 H226 0.951 . S
C251 C249 1.388 . S
C251 C252 1.366 . S
C252 C251 1.366 . S
C252 C253 1.414 . S
C252 C255 1.499 . S
C253 H227 0.950 . S
C253 C252 1.414 . S
C253 C254 1.374 . S
C254 H228 0.950 . S
C254 C250 1.385 . S
C254 C253 1.374 . S
C255 C252 1.499 . S
C255 C256 1.373 . S
C255 C257 1.389 . S
C256 H229 0.950 . S
C256 C242 1.377 . S
C256 C255 1.373 . S
C257 C241 1.377 . S
C257 C255 1.389 . S
C257 C258 1.524 . S
C258 C257 1.524 . S
C258 C259 1.397 . S
C258 C263 1.363 . S
C259 H230 0.950 . S
C259 C258 1.397 . S
C259 C260 1.334 . S
C260 H231 0.950 . S
C260 C259 1.334 . S
C260 C261 1.287 . S
C261 C260 1.287 . S
C261 C262 1.524 . S
C261 H264 0.999 . S
C262 H232 0.950 . S
C262 C261 1.524 . S
C262 C263 1.415 . S
C263 H233 0.950 . S
C263 C258 1.363 . S
C263 C262 1.415 . S
H264 C261 0.999 . S
H265 C246 0.913 . S
H266 C284 0.951 . S
H267 C286 0.951 . S
H268 C288 0.950 . S
H269 C289 0.950 . S
H270 C291 0.950 . S
H271 C294 0.950 . S
H272 C295 0.950 . S
H273 C297 0.950 . S
H274 C298 0.950 . S
H275 C299 0.951 . S
H276 C301 0.951 . S
H277 C303 0.950 . S
H278 C304 0.950 . S
H279 C306 0.950 . S
H280 C309 0.950 . S
H281 C310 0.950 . S
H282 C312 0.950 . S
H283 C313 0.950 . S
C284 H266 0.951 . S
C284 C285 1.366 . S
C284 C286 1.388 . S
C285 C284 1.366 . S
C285 C289 1.385 . S
C286 H267 0.951 . S
C286 C284 1.388 . S
C286 C287 1.366 . S
C287 C286 1.366 . S
C287 C288 1.414 . S
C287 C290 1.499 . S
C288 H268 0.950 . S
C288 C287 1.414 . S
C288 C289 1.374 . S
C289 H269 0.950 . S
C289 C285 1.385 . S
C289 C288 1.374 . S
C290 C287 1.499 . S
C290 C291 1.373 . S
C290 C292 1.389 . S
C291 H270 0.950 . S
C291 C290 1.373 . S
C291 C307 1.377 . S
C292 C290 1.389 . S
C292 C293 1.524 . S
C292 C306 1.377 . S
C293 C292 1.524 . S
C293 C294 1.397 . S
C293 C298 1.363 . S
C294 H271 0.950 . S
C294 C293 1.397 . S
C294 C295 1.334 1_556 S
C295 H272 0.950 . S
C295 C294 1.334 1_554 S
C295 C296 1.287 . S
C296 C295 1.287 . S
C296 C297 1.524 . S
C296 H315 0.913 . S
C297 H273 0.950 . S
C297 C296 1.524 . S
C297 C298 1.415 1_554 S
C298 H274 0.950 . S
C298 C293 1.363 . S
C298 C297 1.415 1_556 S
C299 H275 0.951 . S
C299 C300 1.366 . S
C299 C301 1.388 . S
C300 C299 1.366 . S
C300 C304 1.385 . S
C301 H276 0.951 . S
C301 C299 1.388 . S
C301 C302 1.366 . S
C302 C301 1.366 . S
C302 C303 1.414 . S
C302 C305 1.499 . S
C303 H277 0.950 . S
C303 C302 1.414 . S
C303 C304 1.374 . S
C304 H278 0.950 . S
C304 C300 1.385 . S
C304 C303 1.374 . S
C305 C302 1.499 . S
C305 C306 1.373 . S
C305 C307 1.389 . S
C306 H279 0.950 . S
C306 C292 1.377 . S
C306 C305 1.373 . S
C307 C291 1.377 . S
C307 C305 1.389 . S
C307 C308 1.524 . S
C308 C307 1.524 . S
C308 C309 1.397 . S
C308 C313 1.363 . S
C309 H280 0.950 . S
C309 C308 1.397 . S
C309 C310 1.334 . S
C310 H281 0.950 . S
C310 C309 1.334 . S
C310 C311 1.287 . S
C311 C310 1.287 . S
C311 C312 1.524 . S
C311 H314 0.999 . S
C312 H282 0.950 . S
C312 C311 1.524 . S
C312 C313 1.415 . S
C313 H283 0.950 . S
C313 C308 1.363 . S
C313 C312 1.415 . S
H314 C311 0.999 . S
H315 C296 0.913 . S
H316 C334 0.951 . S
H317 C336 0.951 . S
H318 C338 0.950 . S
H319 C339 0.950 . S
H320 C341 0.950 . S
H321 C344 0.950 . S
H322 C345 0.950 . S
H323 C347 0.950 . S
H324 C348 0.950 . S
H325 C349 0.951 . S
H326 C351 0.951 . S
H327 C353 0.950 . S
H328 C354 0.950 . S
H329 C356 0.950 . S
H330 C359 0.950 . S
H331 C360 0.950 . S
H332 C362 0.950 . S
H333 C363 0.950 . S
C334 H316 0.951 . S
C334 C335 1.366 . S
C334 C336 1.388 . S
C335 C334 1.366 . S
C335 C339 1.385 . S
C336 H317 0.951 . S
C336 C334 1.388 . S
C336 C337 1.366 . S
C337 C336 1.366 . S
C337 C338 1.414 . S
C337 C340 1.499 . S
C338 H318 0.950 . S
C338 C337 1.414 . S
C338 C339 1.374 . S
C339 H319 0.950 . S
C339 C335 1.385 . S
C339 C338 1.374 . S
C340 C337 1.499 . S
C340 C341 1.373 . S
C340 C342 1.389 . S
C341 H320 0.950 . S
C341 C340 1.373 . S
C341 C357 1.377 . S
C342 C340 1.389 . S
C342 C343 1.524 . S
C342 C356 1.377 . S
C343 C342 1.524 . S
C343 C344 1.397 . S
C343 C348 1.363 . S
C344 H321 0.950 . S
C344 C343 1.397 . S
C344 C345 1.334 . S
C345 H322 0.950 . S
C345 C344 1.334 . S
C345 C346 1.287 . S
C346 C345 1.287 . S
C346 C347 1.524 . S
C346 H365 0.913 . S
C347 H323 0.950 . S
C347 C346 1.524 . S
C347 C348 1.415 . S
C348 H324 0.950 . S
C348 C343 1.363 . S
C348 C347 1.415 . S
C349 H325 0.951 . S
C349 C350 1.366 . S
C349 C351 1.388 . S
C350 C349 1.366 . S
C350 C354 1.385 . S
C351 H326 0.951 . S
C351 C349 1.388 . S
C351 C352 1.366 . S
C352 C351 1.366 . S
C352 C353 1.414 . S
C352 C355 1.499 . S
C353 H327 0.950 . S
C353 C352 1.414 . S
C353 C354 1.374 . S
C354 H328 0.950 . S
C354 C350 1.385 . S
C354 C353 1.374 . S
C355 C352 1.499 . S
C355 C356 1.373 . S
C355 C357 1.389 . S
C356 H329 0.950 . S
C356 C342 1.377 . S
C356 C355 1.373 . S
C357 C341 1.377 . S
C357 C355 1.389 . S
C357 C358 1.524 . S
C358 C357 1.524 . S
C358 C359 1.397 . S
C358 C363 1.363 . S
C359 H330 0.950 . S
C359 C358 1.397 . S
C359 C360 1.334 . S
C360 H331 0.950 . S
C360 C359 1.334 . S
C360 C361 1.287 . S
C361 C360 1.287 . S
C361 C362 1.524 . S
C361 H364 0.999 . S
C362 H332 0.950 . S
C362 C361 1.524 . S
C362 C363 1.415 . S
C363 H333 0.950 . S
C363 C358 1.363 . S
C363 C362 1.415 . S
H364 C361 0.999 . S
H365 C346 0.913 . S
H366 C384 0.951 . S
H367 C386 0.951 . S
H368 C388 0.950 . S
H369 C389 0.950 . S
H370 C391 0.950 . S
H371 C394 0.950 . S
H372 C395 0.950 . S
H373 C397 0.950 . S
H374 C398 0.950 . S
H375 C399 0.951 . S
H376 C401 0.951 . S
H377 C403 0.950 . S
H378 C404 0.950 . S
H379 C406 0.950 . S
H380 C409 0.950 . S
H381 C410 0.950 . S
H382 C412 0.950 . S
H383 C413 0.950 . S
C384 H366 0.951 . S
C384 C385 1.366 . S
C384 C386 1.388 . S
C385 C384 1.366 . S
C385 C389 1.385 . S
C386 H367 0.951 . S
C386 C384 1.388 . S
C386 C387 1.366 . S
C387 C386 1.366 . S
C387 C388 1.414 . S
C387 C390 1.499 . S
C388 H368 0.950 . S
C388 C387 1.414 . S
C388 C389 1.374 . S
C389 H369 0.950 . S
C389 C385 1.385 . S
C389 C388 1.374 . S
C390 C387 1.499 . S
C390 C391 1.373 . S
C390 C392 1.389 . S
C391 H370 0.950 . S
C391 C390 1.373 . S
C391 C407 1.377 . S
C392 C390 1.389 . S
C392 C393 1.524 . S
C392 C406 1.377 . S
C393 C392 1.524 . S
C393 C394 1.397 . S
C393 C398 1.363 . S
C394 H371 0.950 . S
C394 C393 1.397 . S
C394 C395 1.334 . S
C395 H372 0.950 . S
C395 C394 1.334 . S
C395 C396 1.287 . S
C396 C395 1.287 . S
C396 C397 1.524 . S
C396 H415 0.913 . S
C397 H373 0.950 . S
C397 C396 1.524 . S
C397 C398 1.415 . S
C398 H374 0.950 . S
C398 C393 1.363 . S
C398 C397 1.415 . S
C399 H375 0.951 . S
C399 C400 1.366 . S
C399 C401 1.388 . S
C400 C399 1.366 . S
C400 C404 1.385 . S
C401 H376 0.951 . S
C401 C399 1.388 . S
C401 C402 1.366 . S
C402 C401 1.366 . S
C402 C403 1.414 . S
C402 C405 1.499 . S
C403 H377 0.950 . S
C403 C402 1.414 . S
C403 C404 1.374 . S
C404 H378 0.950 . S
C404 C400 1.385 . S
C404 C403 1.374 . S
C405 C402 1.499 . S
C405 C406 1.373 . S
C405 C407 1.389 . S
C406 H379 0.950 . S
C406 C392 1.377 . S
C406 C405 1.373 . S
C407 C391 1.377 . S
C407 C405 1.389 . S
C407 C408 1.524 . S
C408 C407 1.524 . S
C408 C409 1.397 . S
C408 C413 1.363 . S
C409 H380 0.950 . S
C409 C408 1.397 . S
C409 C410 1.334 . S
C410 H381 0.950 . S
C410 C409 1.334 . S
C410 C411 1.287 . S
C411 C410 1.287 . S
C411 C412 1.524 . S
C411 H414 0.999 . S
C412 H382 0.950 . S
C412 C411 1.524 . S
C412 C413 1.415 . S
C413 H383 0.950 . S
C413 C408 1.363 . S
C413 C412 1.415 . S
H414 C411 0.999 . S
H415 C396 0.913 . S
H416 C434 0.951 . S
H417 C436 0.951 . S
H418 C438 0.950 . S
H419 C439 0.950 . S
H420 C441 0.950 . S
H421 C444 0.950 . S
H422 C445 0.950 . S
H423 C447 0.950 . S
H424 C448 0.950 . S
H425 C449 0.951 . S
H426 C451 0.951 . S
H427 C453 0.950 . S
H428 C454 0.950 . S
H429 C456 0.950 . S
H430 C459 0.950 . S
H431 C460 0.950 . S
H432 C462 0.950 . S
H433 C463 0.950 . S
C434 H416 0.951 . S
C434 C435 1.366 . S
C434 C436 1.388 . S
C435 C434 1.366 . S
C435 C439 1.385 . S
C436 H417 0.951 . S
C436 C434 1.388 . S
C436 C437 1.366 . S
C437 C436 1.366 . S
C437 C438 1.414 . S
C437 C440 1.499 . S
C438 H418 0.950 . S
C438 C437 1.414 . S
C438 C439 1.374 . S
C439 H419 0.950 . S
C439 C435 1.385 . S
C439 C438 1.374 . S
C440 C437 1.499 . S
C440 C441 1.373 . S
C440 C442 1.389 . S
C441 H420 0.950 . S
C441 C440 1.373 . S
C441 C457 1.377 . S
C442 C440 1.389 . S
C442 C443 1.524 . S
C442 C456 1.377 . S
C443 C442 1.524 . S
C443 C444 1.397 . S
C443 C448 1.363 . S
C444 H421 0.950 . S
C444 C443 1.397 . S
C444 C445 1.334 . S
C445 H422 0.950 . S
C445 C444 1.334 . S
C445 C446 1.287 . S
C446 C445 1.287 . S
C446 C447 1.524 . S
C446 H465 0.913 . S
C447 H423 0.950 . S
C447 C446 1.524 . S
C447 C448 1.415 . S
C448 H424 0.950 . S
C448 C443 1.363 . S
C448 C447 1.415 . S
C449 H425 0.951 . S
C449 C450 1.366 . S
C449 C451 1.388 . S
C450 C449 1.366 . S
C450 C454 1.385 . S
C451 H426 0.951 . S
C451 C449 1.388 . S
C451 C452 1.366 . S
C452 C451 1.366 . S
C452 C453 1.414 . S
C452 C455 1.499 . S
C453 H427 0.950 . S
C453 C452 1.414 . S
C453 C454 1.374 . S
C454 H428 0.950 . S
C454 C450 1.385 . S
C454 C453 1.374 . S
C455 C452 1.499 . S
C455 C456 1.373 . S
C455 C457 1.389 . S
C456 H429 0.950 . S
C456 C442 1.377 . S
C456 C455 1.373 . S
C457 C441 1.377 . S
C457 C455 1.389 . S
C457 C458 1.524 . S
C458 C457 1.524 . S
C458 C459 1.397 . S
C458 C463 1.363 . S
C459 H430 0.950 . S
C459 C458 1.397 . S
C459 C460 1.334 . S
C460 H431 0.950 . S
C460 C459 1.334 . S
C460 C461 1.287 . S
C461 C460 1.287 . S
C461 C462 1.524 . S
C461 H464 0.999 . S
C462 H432 0.950 . S
C462 C461 1.524 . S
C462 C463 1.415 . S
C463 H433 0.950 . S
C463 C458 1.363 . S
C463 C462 1.415 . S
H464 C461 0.999 . S
H465 C446 0.913 . S
C85 C26 1.276 . S
C100 C55 1.272 . S
C135 C25 1.835 . S
C150 C54 1.834 . S
C185 C23 1.217 . S
C200 C60 1.220 . S
C235 C24 1.373 . S
C250 C61 1.373 . S
C285 C21 1.835 . S
C300 C58 1.836 . S
C335 C56 1.216 . S
C350 C27 1.213 . S
C385 C28 1.372 . S
C400 C57 1.372 . S
C435 C59 1.275 . S
C450 C22 1.279 . S
