# Generated by pormake.
# Topology wgq, (5)-cn, num edge types: 1
# Building blocks:
#     Node 0, Type 0, BuildingBlock: XOMCOT_clean_sbu_0, # of connection points: 5
#     Node 1, Type 0, BuildingBlock: XOMCOT_clean_sbu_0, # of connection points: 5
#     Node 2, Type 0, BuildingBlock: XOMCOT_clean_sbu_0, # of connection points: 5
#     Node 3, Type 0, BuildingBlock: XOMCOT_clean_sbu_0, # of connection points: 5
#     Node 4, Type 0, BuildingBlock: XOMCOT_clean_sbu_0, # of connection points: 5
#     Node 5, Type 0, BuildingBlock: XOMCOT_clean_sbu_0, # of connection points: 5
#     Node 6, Type 0, BuildingBlock: XOMCOT_clean_sbu_0, # of connection points: 5
#     Node 7, Type 0, BuildingBlock: XOMCOT_clean_sbu_0, # of connection points: 5
#     Node 8, Type 0, BuildingBlock: XOMCOT_clean_sbu_0, # of connection points: 5
#     Node 9, Type 0, BuildingBlock: XOMCOT_clean_sbu_0, # of connection points: 5
#     Node 10, Type 0, BuildingBlock: XOMCOT_clean_sbu_0, # of connection points: 5
#     Node 11, Type 0, BuildingBlock: XOMCOT_clean_sbu_0, # of connection points: 5
#     Node 12, Type 0, BuildingBlock: XOMCOT_clean_sbu_0, # of connection points: 5
#     Node 13, Type 0, BuildingBlock: XOMCOT_clean_sbu_0, # of connection points: 5
#     Node 14, Type 0, BuildingBlock: XOMCOT_clean_sbu_0, # of connection points: 5
#     Node 15, Type 0, BuildingBlock: XOMCOT_clean_sbu_0, # of connection points: 5
#     Node 16, Type 0, BuildingBlock: XOMCOT_clean_sbu_0, # of connection points: 5
#     Node 17, Type 0, BuildingBlock: XOMCOT_clean_sbu_0, # of connection points: 5
#     Node 18, Type 0, BuildingBlock: XOMCOT_clean_sbu_0, # of connection points: 5
#     Node 19, Type 0, BuildingBlock: XOMCOT_clean_sbu_0, # of connection points: 5
#     Node 20, Type 0, BuildingBlock: XOMCOT_clean_sbu_0, # of connection points: 5
#     Node 21, Type 0, BuildingBlock: XOMCOT_clean_sbu_0, # of connection points: 5
#     Node 22, Type 0, BuildingBlock: XOMCOT_clean_sbu_0, # of connection points: 5
#     Node 23, Type 0, BuildingBlock: XOMCOT_clean_sbu_0, # of connection points: 5
#     Node 24, Type 0, BuildingBlock: XOMCOT_clean_sbu_0, # of connection points: 5
#     Node 25, Type 0, BuildingBlock: XOMCOT_clean_sbu_0, # of connection points: 5
#     Node 26, Type 0, BuildingBlock: XOMCOT_clean_sbu_0, # of connection points: 5
#     Node 27, Type 0, BuildingBlock: XOMCOT_clean_sbu_0, # of connection points: 5
#     Node 28, Type 0, BuildingBlock: XOMCOT_clean_sbu_0, # of connection points: 5
#     Node 29, Type 0, BuildingBlock: XOMCOT_clean_sbu_0, # of connection points: 5
#     Node 30, Type 0, BuildingBlock: XOMCOT_clean_sbu_0, # of connection points: 5
#     Node 31, Type 0, BuildingBlock: XOMCOT_clean_sbu_0, # of connection points: 5
#     Edge 32, Type (0, 0), BuildingBlock: XIVTED_clean_linker_0, # of connection points: 2
#     Edge 33, Type (0, 0), BuildingBlock: XIVTED_clean_linker_0, # of connection points: 2
#     Edge 34, Type (0, 0), BuildingBlock: XIVTED_clean_linker_0, # of connection points: 2
#     Edge 35, Type (0, 0), BuildingBlock: XIVTED_clean_linker_0, # of connection points: 2
#     Edge 36, Type (0, 0), BuildingBlock: XIVTED_clean_linker_0, # of connection points: 2
#     Edge 37, Type (0, 0), BuildingBlock: XIVTED_clean_linker_0, # of connection points: 2
#     Edge 38, Type (0, 0), BuildingBlock: XIVTED_clean_linker_0, # of connection points: 2
#     Edge 39, Type (0, 0), BuildingBlock: XIVTED_clean_linker_0, # of connection points: 2
#     Edge 40, Type (0, 0), BuildingBlock: XIVTED_clean_linker_0, # of connection points: 2
#     Edge 41, Type (0, 0), BuildingBlock: XIVTED_clean_linker_0, # of connection points: 2
#     Edge 42, Type (0, 0), BuildingBlock: XIVTED_clean_linker_0, # of connection points: 2
#     Edge 43, Type (0, 0), BuildingBlock: XIVTED_clean_linker_0, # of connection points: 2
#     Edge 44, Type (0, 0), BuildingBlock: XIVTED_clean_linker_0, # of connection points: 2
#     Edge 45, Type (0, 0), BuildingBlock: XIVTED_clean_linker_0, # of connection points: 2
#     Edge 46, Type (0, 0), BuildingBlock: XIVTED_clean_linker_0, # of connection points: 2
#     Edge 47, Type (0, 0), BuildingBlock: XIVTED_clean_linker_0, # of connection points: 2
#     Edge 48, Type (0, 0), BuildingBlock: XIVTED_clean_linker_0, # of connection points: 2
#     Edge 49, Type (0, 0), BuildingBlock: XIVTED_clean_linker_0, # of connection points: 2
#     Edge 50, Type (0, 0), BuildingBlock: XIVTED_clean_linker_0, # of connection points: 2
#     Edge 51, Type (0, 0), BuildingBlock: XIVTED_clean_linker_0, # of connection points: 2
#     Edge 52, Type (0, 0), BuildingBlock: XIVTED_clean_linker_0, # of connection points: 2
#     Edge 53, Type (0, 0), BuildingBlock: XIVTED_clean_linker_0, # of connection points: 2
#     Edge 54, Type (0, 0), BuildingBlock: XIVTED_clean_linker_0, # of connection points: 2
#     Edge 55, Type (0, 0), BuildingBlock: XIVTED_clean_linker_0, # of connection points: 2
#     Edge 56, Type (0, 0), BuildingBlock: XIVTED_clean_linker_0, # of connection points: 2
#     Edge 57, Type (0, 0), BuildingBlock: XIVTED_clean_linker_0, # of connection points: 2
#     Edge 58, Type (0, 0), BuildingBlock: XIVTED_clean_linker_0, # of connection points: 2
#     Edge 59, Type (0, 0), BuildingBlock: XIVTED_clean_linker_0, # of connection points: 2
#     Edge 60, Type (0, 0), BuildingBlock: XIVTED_clean_linker_0, # of connection points: 2
#     Edge 61, Type (0, 0), BuildingBlock: XIVTED_clean_linker_0, # of connection points: 2
#     Edge 62, Type (0, 0), BuildingBlock: XIVTED_clean_linker_0, # of connection points: 2
#     Edge 63, Type (0, 0), BuildingBlock: XIVTED_clean_linker_0, # of connection points: 2
#     Edge 64, Type (0, 0), BuildingBlock: XIVTED_clean_linker_0, # of connection points: 2
#     Edge 65, Type (0, 0), BuildingBlock: XIVTED_clean_linker_0, # of connection points: 2
#     Edge 66, Type (0, 0), BuildingBlock: XIVTED_clean_linker_0, # of connection points: 2
#     Edge 67, Type (0, 0), BuildingBlock: XIVTED_clean_linker_0, # of connection points: 2
#     Edge 68, Type (0, 0), BuildingBlock: XIVTED_clean_linker_0, # of connection points: 2
#     Edge 69, Type (0, 0), BuildingBlock: XIVTED_clean_linker_0, # of connection points: 2
#     Edge 70, Type (0, 0), BuildingBlock: XIVTED_clean_linker_0, # of connection points: 2
#     Edge 71, Type (0, 0), BuildingBlock: XIVTED_clean_linker_0, # of connection points: 2
#     Edge 72, Type (0, 0), BuildingBlock: XIVTED_clean_linker_0, # of connection points: 2
#     Edge 73, Type (0, 0), BuildingBlock: XIVTED_clean_linker_0, # of connection points: 2
#     Edge 74, Type (0, 0), BuildingBlock: XIVTED_clean_linker_0, # of connection points: 2
#     Edge 75, Type (0, 0), BuildingBlock: XIVTED_clean_linker_0, # of connection points: 2
#     Edge 76, Type (0, 0), BuildingBlock: XIVTED_clean_linker_0, # of connection points: 2
#     Edge 77, Type (0, 0), BuildingBlock: XIVTED_clean_linker_0, # of connection points: 2
#     Edge 78, Type (0, 0), BuildingBlock: XIVTED_clean_linker_0, # of connection points: 2
#     Edge 79, Type (0, 0), BuildingBlock: XIVTED_clean_linker_0, # of connection points: 2
#     Edge 80, Type (0, 0), BuildingBlock: XIVTED_clean_linker_0, # of connection points: 2
#     Edge 81, Type (0, 0), BuildingBlock: XIVTED_clean_linker_0, # of connection points: 2
#     Edge 82, Type (0, 0), BuildingBlock: XIVTED_clean_linker_0, # of connection points: 2
#     Edge 83, Type (0, 0), BuildingBlock: XIVTED_clean_linker_0, # of connection points: 2
#     Edge 84, Type (0, 0), BuildingBlock: XIVTED_clean_linker_0, # of connection points: 2
#     Edge 85, Type (0, 0), BuildingBlock: XIVTED_clean_linker_0, # of connection points: 2
#     Edge 86, Type (0, 0), BuildingBlock: XIVTED_clean_linker_0, # of connection points: 2
#     Edge 87, Type (0, 0), BuildingBlock: XIVTED_clean_linker_0, # of connection points: 2
#     Edge 88, Type (0, 0), BuildingBlock: XIVTED_clean_linker_0, # of connection points: 2
#     Edge 89, Type (0, 0), BuildingBlock: XIVTED_clean_linker_0, # of connection points: 2
#     Edge 90, Type (0, 0), BuildingBlock: XIVTED_clean_linker_0, # of connection points: 2
#     Edge 91, Type (0, 0), BuildingBlock: XIVTED_clean_linker_0, # of connection points: 2
#     Edge 92, Type (0, 0), BuildingBlock: XIVTED_clean_linker_0, # of connection points: 2
#     Edge 93, Type (0, 0), BuildingBlock: XIVTED_clean_linker_0, # of connection points: 2
#     Edge 94, Type (0, 0), BuildingBlock: XIVTED_clean_linker_0, # of connection points: 2
#     Edge 95, Type (0, 0), BuildingBlock: XIVTED_clean_linker_0, # of connection points: 2
#     Edge 96, Type (0, 0), BuildingBlock: XIVTED_clean_linker_0, # of connection points: 2
#     Edge 97, Type (0, 0), BuildingBlock: XIVTED_clean_linker_0, # of connection points: 2
#     Edge 98, Type (0, 0), BuildingBlock: XIVTED_clean_linker_0, # of connection points: 2
#     Edge 99, Type (0, 0), BuildingBlock: XIVTED_clean_linker_0, # of connection points: 2
#     Edge 100, Type (0, 0), BuildingBlock: XIVTED_clean_linker_0, # of connection points: 2
#     Edge 101, Type (0, 0), BuildingBlock: XIVTED_clean_linker_0, # of connection points: 2
#     Edge 102, Type (0, 0), BuildingBlock: XIVTED_clean_linker_0, # of connection points: 2
#     Edge 103, Type (0, 0), BuildingBlock: XIVTED_clean_linker_0, # of connection points: 2
#     Edge 104, Type (0, 0), BuildingBlock: XIVTED_clean_linker_0, # of connection points: 2
#     Edge 105, Type (0, 0), BuildingBlock: XIVTED_clean_linker_0, # of connection points: 2
#     Edge 106, Type (0, 0), BuildingBlock: XIVTED_clean_linker_0, # of connection points: 2
#     Edge 107, Type (0, 0), BuildingBlock: XIVTED_clean_linker_0, # of connection points: 2
#     Edge 108, Type (0, 0), BuildingBlock: XIVTED_clean_linker_0, # of connection points: 2
#     Edge 109, Type (0, 0), BuildingBlock: XIVTED_clean_linker_0, # of connection points: 2
#     Edge 110, Type (0, 0), BuildingBlock: XIVTED_clean_linker_0, # of connection points: 2
#     Edge 111, Type (0, 0), BuildingBlock: XIVTED_clean_linker_0, # of connection points: 2
# Relax obj value: 0.340
# Max RMSD: 0.243
# Mean RMSD: 0.243
data_MOF--net-wgq--node1-XOMCOT_clean_sbu_0--edge1-XIVTED_clean_linker_0
_symmetry_space_group_name_H-M    P1
_symmetry_Int_Tables_number       1
_symmetry_cell_setting            triclinic
loop_
_symmetry_equiv_pos_as_xyz
'x, y, z'
_cell_length_a     29.857804
_cell_length_b     29.959801
_cell_length_c     141.45909
_cell_angle_alpha  90.151365
_cell_angle_beta   89.981071
_cell_angle_gamma 89.979931
loop_
_atom_site_label
_atom_site_type_symbol
_atom_site_fract_x
_atom_site_fract_y
_atom_site_fract_z
_atom_type_partial_charge
Co0 Co 0.25108 0.06382 0.19296 0.0
C1 C 0.25836 0.04988 0.17172 0.0
C2 C 0.19117 0.05895 0.17673 0.0
C3 C 0.19 0.05636 0.1671 0.0
N4 N 0.2338 0.05449 0.17976 0.0
N5 N 0.23211 0.05116 0.16387 0.0
H6 H 0.29453 0.04799 0.17155 0.0
H7 H 0.1627 0.06611 0.1812 0.0
C8 C 0.17258 0.9984 0.19374 0.0
O9 O 0.19286 0.97226 0.18761 0.0
N10 N 0.26719 0.07386 0.20603 0.0
C11 C 0.28701 0.11078 0.20949 0.0
C12 C 0.29115 0.10641 0.21912 0.0
C13 C 0.25981 0.04728 0.21357 0.0
N14 N 0.27393 0.06658 0.2217 0.0
C15 C 0.22192 0.14898 0.18599 0.0
C16 C 0.15381 0.1591 0.19909 0.0
C17 C 0.15556 0.18813 0.19134 0.0
C18 C 0.19126 0.18388 0.18493 0.0
C19 C 0.18504 0.12495 0.19989 0.0
N20 N 0.21675 0.11863 0.19308 0.0
H21 H 0.24813 0.14454 0.1808 0.0
H22 H 0.1823 0.10216 0.20576 0.0
H23 H 0.29713 0.13918 0.2053 0.0
H24 H 0.24342 0.01513 0.21313 0.0
O25 O 0.30857 0.08787 0.18917 0.0
O26 O 0.29752 0.01687 0.19244 0.0
O27 O 0.19386 0.03169 0.19723 0.0
C28 C 0.32593 0.0486 0.19031 0.0
H29 H 0.16022 0.05925 0.16278 0.0
H30 H 0.30586 0.13075 0.22386 0.0
H31 H 0.12704 0.16089 0.20425 0.0
H32 H 0.1946 0.20629 0.17898 0.0
Co33 Co 0.22511 1.00211 0.44248 0.0
C34 C 0.2314 1.00514 0.4209 0.0
C35 C 0.29419 1.00225 0.42819 0.0
C36 C 0.30263 1.00271 0.41866 0.0
N37 N 0.24956 1.00271 0.42968 0.0
N38 N 0.26319 1.00434 0.41407 0.0
H39 H 0.19623 1.00725 0.41938 0.0
H40 H 0.31908 1.0011 0.43374 0.0
C41 C 0.26853 0.91311 0.43981 0.0
O42 O 0.25132 0.91552 0.43129 0.0
N43 N 0.20434 1.00347 0.4554 0.0
C44 C 0.16291 1.0129 0.45858 0.0
C45 C 0.16384 1.01314 0.46833 0.0
C46 C 0.22994 0.99858 0.46317 0.0
N47 N 0.20607 1.00424 0.47121 0.0
C48 C 0.1444 0.96934 0.43281 0.0
C49 C 0.13985 0.89205 0.44337 0.0
C50 C 0.1095 0.89778 0.43597 0.0
C51 C 0.11136 0.93736 0.43069 0.0
C52 C 0.17187 0.92431 0.44515 0.0
N53 N 0.17639 0.96082 0.43947 0.0
H54 H 0.14325 1.00125 0.42932 0.0
H55 H 0.19325 0.91983 0.4512 0.0
H56 H 0.13433 0.01984 0.45412 0.0
H57 H 0.26541 0.99133 0.4629 0.0
O58 O 0.19454 0.05801 0.44009 0.0
O59 O 0.26372 0.05373 0.44542 0.0
O60 O 0.26454 0.94686 0.44549 0.0
C61 C 0.23009 0.07903 0.44291 0.0
H62 H 0.33536 1.00239 0.41537 0.0
H63 H 0.13579 0.02064 0.47291 0.0
H64 H 0.13913 0.86257 0.44779 0.0
H65 H 0.08693 0.944 0.42522 0.0
Co66 Co 0.30277 0.98171 0.6913 0.0
C67 C 0.28308 0.9972 0.67065 0.0
C68 C 0.33305 0.04162 0.67608 0.0
C69 C 0.32681 0.05088 0.66669 0.0
N70 N 0.3065 1.00718 0.6786 0.0
N71 N 0.29554 0.0229 0.66322 0.0
H72 H 0.25728 0.97192 0.6703 0.0
H73 H 0.35547 0.05971 0.68067 0.0
C74 C 0.39054 0.01564 0.70122 0.0
O75 O 0.3779 1.00228 0.70962 0.0
N76 N 0.29728 0.95833 0.70406 0.0
C77 C 0.29368 0.91542 0.70679 0.0
C78 C 0.28721 0.91424 0.71645 0.0
C79 C 0.2901 0.98254 0.71199 0.0
N80 N 0.28537 0.95657 0.71974 0.0
C81 C 0.33227 0.90848 0.67921 0.0
C82 C 0.40468 0.88516 0.69028 0.0
C83 C 0.39878 0.86398 0.68159 0.0
C84 C 0.36186 0.87532 0.67602 0.0
C85 C 0.37495 0.91814 0.69311 0.0
N86 N 0.34012 0.931 0.68748 0.0
H87 H 0.30299 0.91551 0.67506 0.0
H88 H 0.3796 0.9322 0.70001 0.0
H89 H 0.29559 0.88688 0.70211 0.0
H90 H 0.28902 0.01863 0.71205 0.0
O91 O 0.24429 0.95648 0.68859 0.0
O92 O 0.25355 0.02412 0.69427 0.0
O93 O 0.36243 1.01498 0.6943 0.0
C94 C 0.22561 0.99289 0.69158 0.0
H95 H 0.34486 0.07587 0.66271 0.0
H96 H 0.28483 0.88436 0.72069 0.0
H97 H 0.43222 0.8762 0.69489 0.0
H98 H 0.35559 0.85832 0.66938 0.0
Co99 Co 0.29875 0.04269 0.94235 0.0
C100 C 0.28666 0.03578 0.92148 0.0
C101 C 0.22725 0.05804 0.92866 0.0
C102 C 0.219 0.05773 0.91909 0.0
N103 N 0.26969 0.04473 0.93014 0.0
N104 N 0.25637 0.04392 0.91457 0.0
H105 H 0.32082 0.02511 0.92026 0.0
H106 H 0.20409 0.06789 0.93416 0.0
C107 C 0.28866 0.13456 0.95032 0.0
O108 O 0.32916 0.12712 0.95359 0.0
N109 N 0.325 0.03867 0.95498 0.0
C110 C 0.36111 0.01513 0.95786 0.0
C111 C 0.36078 1.01216 0.96757 0.0
C112 C 0.3021 0.0473 0.96306 0.0
N113 N 0.32353 0.03231 0.97085 0.0
C114 C 0.39134 0.06762 0.93841 0.0
C115 C 0.36962 0.1474 0.92975 0.0
C116 C 0.41418 0.13931 0.93221 0.0
C117 C 0.42531 0.09791 0.93618 0.0
C118 C 0.33689 0.11651 0.9322 0.0
N119 N 0.34747 0.07888 0.9372 0.0
H120 H 0.40047 0.03574 0.94124 0.0
H121 H 0.30243 0.12456 0.93062 0.0
H122 H 0.38371 0.99689 0.95333 0.0
H123 H 0.26926 0.06253 0.96316 0.0
O124 O 0.32236 0.98394 0.93947 0.0
O125 O 0.25688 0.99518 0.94628 0.0
O126 O 0.26765 0.10228 0.94611 0.0
C127 C 0.28689 0.96667 0.94326 0.0
H128 H 0.18778 0.06687 0.91573 0.0
H129 H 0.3843 0.99337 0.97181 0.0
H130 H 0.35954 0.1787 0.92657 0.0
H131 H 0.45977 0.08968 0.93783 0.0
Co132 Co 0.2515 0.97888 0.31624 0.0
C133 C 0.25438 0.99279 0.33706 0.0
C134 C 0.23354 0.05149 0.32956 0.0
C135 C 0.23168 0.06028 0.3391 0.0
N136 N 0.24727 1.00912 0.3283 0.0
N137 N 0.24455 0.02333 0.34382 0.0
H138 H 0.26464 0.95877 0.33844 0.0
H139 H 0.22468 0.07414 0.32392 0.0
C140 C 0.16064 0.98758 0.30784 0.0
O141 O 0.16805 0.94688 0.30472 0.0
N142 N 0.25773 0.95143 0.30376 0.0
C143 C 0.28325 0.91633 0.30108 0.0
C144 C 0.28689 0.91591 0.29136 0.0
C145 C 0.2487 0.97309 0.2956 0.0
N146 N 0.26523 0.95181 0.28792 0.0
C147 C 0.22594 0.88637 0.32005 0.0
C148 C 0.14595 0.90871 0.3287 0.0
C149 C 0.15369 0.86409 0.32629 0.0
C150 C 0.19524 0.85269 0.3223 0.0
C151 C 0.17705 0.94106 0.32622 0.0
N152 N 0.21514 0.93021 0.32134 0.0
H153 H 0.2577 0.87699 0.31712 0.0
H154 H 0.16897 0.97546 0.32776 0.0
H155 H 0.30212 0.89509 0.30577 0.0
H156 H 0.23212 1.00515 0.29536 0.0
O157 O 0.31063 0.95755 0.31961 0.0
O158 O 0.29762 0.02134 0.31231 0.0
O159 O 0.19251 1.00875 0.31209 0.0
C160 C 0.32692 0.99327 0.31573 0.0
H161 H 0.22153 0.09152 0.34231 0.0
H162 H 0.30707 0.89302 0.28724 0.0
H163 H 0.11532 0.91897 0.33219 0.0
H164 H 0.2033 0.81841 0.32055 0.0
Co165 Co 0.28518 0.99124 0.56655 0.0
C166 C 0.27025 0.99908 0.58724 0.0
C167 C 0.21267 0.97302 0.57999 0.0
C168 C 0.20382 0.97349 0.58954 0.0
N169 N 0.25445 0.98852 0.57858 0.0
N170 N 0.24004 0.9898 0.59409 0.0
H171 H 0.30373 1.01156 0.58852 0.0
H172 H 0.19052 0.96136 0.57446 0.0
C173 C 0.27668 0.90007 0.55833 0.0
O174 O 0.31775 0.90741 0.55538 0.0
N175 N 0.313 0.99628 0.55411 0.0
C176 C 0.34788 0.02199 0.5514 0.0
C177 C 0.34799 0.02548 0.54168 0.0
C178 C 0.29117 0.98691 0.54596 0.0
N179 N 0.3121 1.00348 0.53826 0.0
C180 C 0.37756 0.96261 0.57016 0.0
C181 C 0.35248 0.88592 0.5796 0.0
C182 C 0.3971 0.89059 0.57679 0.0
C183 C 0.41007 0.93059 0.57241 0.0
C184 C 0.32127 0.91798 0.57705 0.0
N185 N 0.33329 0.95449 0.57184 0.0
H186 H 0.38811 0.99293 0.56683 0.0
H187 H 0.28662 0.91149 0.57873 0.0
H188 H 0.36913 0.04103 0.55608 0.0
H189 H 0.25911 0.9702 0.54575 0.0
O190 O 0.30745 0.05004 0.56983 0.0
O191 O 0.24352 0.03805 0.56243 0.0
O192 O 0.25501 0.93202 0.56247 0.0
C193 C 0.27215 0.0669 0.56586 0.0
H194 H 0.1731 0.96264 0.59289 0.0
H195 H 0.37066 0.04576 0.53755 0.0
H196 H 0.34112 0.8566 0.58337 0.0
H197 H 0.44447 0.93627 0.57032 0.0
Co198 Co 0.27467 0.03968 0.81587 0.0
C199 C 0.2721 0.03632 0.83745 0.0
C200 C 0.27315 0.97246 0.83061 0.0
C201 C 0.27284 0.96581 0.84022 0.0
N202 N 0.27363 0.01665 0.8288 0.0
N203 N 0.27231 1.00595 0.84452 0.0
H204 H 0.27126 0.07166 0.83871 0.0
H205 H 0.27359 0.94667 0.82525 0.0
C206 C 0.36328 0.99548 0.81868 0.0
O207 O 0.36117 1.01345 0.82714 0.0
N208 N 0.27383 0.05986 0.8029 0.0
C209 C 0.26556 0.10155 0.79983 0.0
C210 C 0.26623 0.10139 0.7901 0.0
C211 C 0.27883 0.03475 0.79503 0.0
N212 N 0.27451 0.05937 0.78707 0.0
C213 C 0.30539 0.12177 0.82506 0.0
C214 C 0.3844 0.12571 0.81494 0.0
C215 C 0.37645 0.15769 0.82193 0.0
C216 C 0.33615 0.15606 0.82699 0.0
C217 C 0.3533 0.09232 0.81335 0.0
N218 N 0.31582 0.08843 0.81882 0.0
H219 H 0.27274 0.12303 0.8283 0.0
H220 H 0.35899 0.06999 0.8075 0.0
H221 H 0.25906 0.12995 0.80437 0.0
H222 H 0.28548 0.99926 0.79516 0.0
O223 O 0.2188 0.07046 0.81814 0.0
O224 O 0.223 1.00106 0.81299 0.0
O225 O 0.32969 0.99975 0.81298 0.0
C226 C 0.19773 0.03486 0.81542 0.0
H227 H 0.27252 0.93382 0.84375 0.0
H228 H 0.25997 0.12988 0.7856 0.0
H229 H 0.41443 0.12666 0.81063 0.0
H230 H 0.32792 0.18174 0.83211 0.0
Co231 Co 0.24766 0.02999 0.06669 0.0
C232 C 0.25913 0.02619 0.0876 0.0
C233 C 0.32148 0.03569 0.08031 0.0
C234 C 0.32978 0.03485 0.0899 0.0
N235 N 0.27723 0.03058 0.07889 0.0
N236 N 0.29053 0.02916 0.09448 0.0
H237 H 0.22367 0.02161 0.08885 0.0
H238 H 0.34592 0.04036 0.07476 0.0
C239 C 0.2633 0.11967 0.05844 0.0
O240 O 0.22212 0.11466 0.05534 0.0
N241 N 0.22094 0.02671 0.05408 0.0
C242 C 0.18352 1.00537 0.05117 0.0
C243 C 0.18331 1.00331 0.04142 0.0
C244 C 0.24407 0.03448 0.04601 0.0
N245 N 0.22154 0.02165 0.03818 0.0
C246 C 0.15721 0.06386 0.07031 0.0
C247 C 0.18621 0.14034 0.07942 0.0
C248 C 0.14108 0.13701 0.07689 0.0
C249 C 0.12622 0.09724 0.07264 0.0
C250 C 0.21587 0.10675 0.07684 0.0
N251 N 0.2019 0.07034 0.07177 0.0
H252 H 0.14516 0.0335 0.06719 0.0
H253 H 0.25088 0.11145 0.07849 0.0
H254 H 0.15988 0.98852 0.05569 0.0
H255 H 0.27761 0.04806 0.04593 0.0
O256 O 0.22042 0.97353 0.06986 0.0
O257 O 0.28589 0.97963 0.06276 0.0
O258 O 0.28254 0.08673 0.06274 0.0
C259 C 0.25457 0.9535 0.0661 0.0
H260 H 0.36203 0.03961 0.09324 0.0
H261 H 0.15838 0.98675 0.03711 0.0
H262 H 0.19902 0.16942 0.08309 0.0
H263 H 0.09137 0.09255 0.07077 0.0
Co264 Co 0.77467 0.97371 0.8164 0.0
C265 C 0.77234 0.98293 0.83788 0.0
C266 C 0.7687 0.04464 0.8303 0.0
C267 C 0.76942 0.05413 0.8398 0.0
N268 N 0.77133 1.00006 0.82902 0.0
N269 N 0.77186 0.01536 0.84455 0.0
H270 H 0.77474 0.94811 0.83959 0.0
H271 H 0.76761 0.0688 0.82464 0.0
C272 C 0.86264 0.01939 0.81935 0.0
O273 O 0.859 1.00493 0.82807 0.0
N274 N 0.77646 0.95066 0.80366 0.0
C275 C 0.77188 0.90818 0.80068 0.0
C276 C 0.77305 0.9078 0.79091 0.0
C277 C 0.77972 0.97549 0.79578 0.0
N278 N 0.77773 0.95022 0.78787 0.0
C279 C 0.80223 0.89377 0.82657 0.0
C280 C 0.88449 0.88746 0.81773 0.0
C281 C 0.87386 0.85709 0.82483 0.0
C282 C 0.83192 0.85966 0.82921 0.0
C283 C 0.85422 0.92065 0.81539 0.0
N284 N 0.81498 0.92576 0.82025 0.0
H285 H 0.76873 0.89383 0.82945 0.0
H286 H 0.86192 0.94155 0.80943 0.0
H287 H 0.76734 0.87968 0.80525 0.0
H288 H 0.7831 1.01146 0.79586 0.0
O289 O 0.71822 0.94361 0.81849 0.0
O290 O 0.72364 1.01161 0.8127 0.0
O291 O 0.83007 1.01284 0.81349 0.0
C292 C 0.69778 0.97855 0.81525 0.0
H293 H 0.76834 0.08704 0.84297 0.0
H294 H 0.76926 0.87877 0.78641 0.0
H295 H 0.91573 0.88495 0.81385 0.0
H296 H 0.82179 0.83495 0.83436 0.0
Co297 Co 0.78818 0.03536 0.56646 0.0
C298 C 0.78289 0.02903 0.58797 0.0
C299 C 0.71992 0.0376 0.58098 0.0
C300 C 0.7121 0.03467 0.59051 0.0
N301 N 0.76433 0.03496 0.57932 0.0
N302 N 0.75167 0.02942 0.59494 0.0
H303 H 0.818 0.02437 0.58928 0.0
H304 H 0.69473 0.04135 0.57554 0.0
C305 C 0.74993 0.12623 0.56953 0.0
O306 O 0.76789 0.12251 0.57797 0.0
N307 N 0.8085 0.03393 0.5535 0.0
C308 C 0.84943 0.02272 0.5503 0.0
C309 C 0.84831 0.02221 0.54055 0.0
C310 C 0.78295 0.0396 0.54575 0.0
N311 N 0.80642 0.03269 0.53769 0.0
C312 C 0.87186 0.06074 0.57587 0.0
C313 C 0.88174 0.13856 0.56563 0.0
C314 C 0.91308 0.1287 0.57264 0.0
C315 C 0.90833 0.08902 0.57778 0.0
C316 C 0.84616 0.10995 0.56407 0.0
N317 N 0.83956 0.07304 0.56954 0.0
H318 H 0.87071 0.02842 0.57917 0.0
H319 H 0.82418 0.11721 0.55823 0.0
H320 H 0.87775 1.0145 0.55473 0.0
H321 H 0.74774 0.04802 0.54604 0.0
O322 O 0.81518 0.97734 0.56854 0.0
O323 O 0.74619 0.98708 0.56336 0.0
O324 O 0.7519 0.09284 0.56373 0.0
C325 C 0.77813 0.9593 0.56565 0.0
H326 H 0.67958 0.03552 0.59388 0.0
H327 H 0.87589 1.01322 0.53596 0.0
H328 H 0.88467 0.1683 0.56133 0.0
H329 H 0.93319 0.07933 0.58295 0.0
Co330 Co 0.75253 0.04456 0.31714 0.0
C331 C 0.75659 0.03264 0.33796 0.0
C332 C 0.73531 0.97319 0.33073 0.0
C333 C 0.73446 0.96527 0.3403 0.0
N334 N 0.74872 0.01548 0.32929 0.0
N335 N 0.7476 1.00271 0.34486 0.0
H336 H 0.7669 0.0668 0.33919 0.0
H337 H 0.72613 0.94998 0.32519 0.0
C338 C 0.66085 0.03662 0.30905 0.0
O339 O 0.66843 0.07725 0.30597 0.0
N340 N 0.75832 0.07093 0.30458 0.0
C341 C 0.78491 0.10488 0.30175 0.0
C342 C 0.78732 0.10498 0.29202 0.0
C343 C 0.74744 0.04945 0.29647 0.0
N344 N 0.76375 0.06996 0.2887 0.0
C345 C 0.7288 0.13769 0.32052 0.0
C346 C 0.64827 0.11811 0.32924 0.0
C347 C 0.65635 0.16174 0.32623 0.0
C348 C 0.69807 0.17197 0.32225 0.0
C349 C 0.67941 0.08496 0.32721 0.0
N350 N 0.7175 0.09433 0.3222 0.0
H351 H 0.76071 0.14607 0.31755 0.0
H352 H 0.67086 0.05096 0.32898 0.0
H353 H 0.80512 0.12553 0.30633 0.0
H354 H 0.72956 0.0181 0.29632 0.0
O355 O 0.81206 0.06531 0.32028 0.0
O356 O 0.79781 1.00112 0.31317 0.0
O357 O 0.69274 0.01524 0.31324 0.0
C358 C 0.82766 0.02915 0.31643 0.0
H359 H 0.72485 0.93425 0.34364 0.0
H360 H 0.80777 0.12707 0.28779 0.0
H361 H 0.61657 0.10883 0.3324 0.0
H362 H 0.70603 0.20577 0.32013 0.0
Co363 Co 0.74155 0.98506 0.06672 0.0
C364 C 0.75539 0.99065 0.08741 0.0
C365 C 0.81406 0.96732 0.08011 0.0
C366 C 0.82264 0.96725 0.08967 0.0
N367 N 0.77184 0.98157 0.07873 0.0
N368 N 0.78569 0.98176 0.09425 0.0
H369 H 0.72146 1.00191 0.08867 0.0
H370 H 0.83677 0.95711 0.07455 0.0
C371 C 0.74958 0.89357 0.05856 0.0
O372 O 0.70864 0.90101 0.05554 0.0
N373 N 0.71391 0.99046 0.05427 0.0
C374 C 0.67899 0.01614 0.05157 0.0
C375 C 0.67853 0.01916 0.04185 0.0
C376 C 0.73542 0.98059 0.0461 0.0
N377 N 0.71422 0.99685 0.03841 0.0
C378 C 0.6488 0.96136 0.07082 0.0
C379 C 0.66984 0.88141 0.0795 0.0
C380 C 0.62526 0.89012 0.07715 0.0
C381 C 0.61451 0.93156 0.07315 0.0
C382 C 0.70289 0.91175 0.07693 0.0
N383 N 0.69257 0.94962 0.07199 0.0
H384 H 0.63997 0.99316 0.0679 0.0
H385 H 0.73732 0.90305 0.07838 0.0
H386 H 0.65793 0.03551 0.05623 0.0
H387 H 0.76735 0.96361 0.04587 0.0
O388 O 0.7202 0.04416 0.06999 0.0
O389 O 0.78409 0.03121 0.06264 0.0
O390 O 0.77119 0.92559 0.06267 0.0
C391 C 0.75587 0.06049 0.06608 0.0
H392 H 0.85375 0.95735 0.09299 0.0
H393 H 0.65574 0.0393 0.03771 0.0
H394 H 0.67966 0.84997 0.08264 0.0
H395 H 0.58011 0.94014 0.07154 0.0
Co396 Co 0.80169 0.05333 0.69255 0.0
C397 C 0.79212 0.02966 0.67184 0.0
C398 C 0.8592 0.04665 0.6759 0.0
C399 C 0.85905 0.03763 0.66642 0.0
N400 N 0.81753 0.04103 0.67941 0.0
N401 N 0.81702 0.02699 0.66383 0.0
H402 H 0.75635 0.02411 0.67209 0.0
H403 H 0.88778 0.05813 0.67992 0.0
C404 C 0.88349 0.99218 0.69355 0.0
O405 O 0.86303 0.96337 0.68802 0.0
N406 N 0.78682 0.06606 0.70556 0.0
C407 C 0.76831 0.10395 0.70885 0.0
C408 C 0.76257 0.10001 0.71846 0.0
C409 C 0.79177 0.03933 0.71315 0.0
N410 N 0.77718 0.0593 0.7212 0.0
C411 C 0.82448 0.13803 0.6844 0.0
C412 C 0.8916 0.15723 0.69726 0.0
C413 C 0.88611 0.18492 0.68937 0.0
C414 C 0.85129 0.17569 0.683 0.0
C415 C 0.86443 0.12005 0.69834 0.0
N416 N 0.83277 0.10979 0.69174 0.0
H417 H 0.79846 0.13021 0.67934 0.0
H418 H 0.86983 0.09864 0.70436 0.0
H419 H 0.75988 0.13256 0.70456 0.0
H420 H 0.80526 1.00588 0.71272 0.0
O421 O 0.74227 0.0732 0.68887 0.0
O422 O 0.75782 1.00401 0.69293 0.0
O423 O 0.86146 0.02564 0.69678 0.0
C424 C 0.72733 0.03347 0.69061 0.0
H425 H 0.88741 0.04068 0.66169 0.0
H426 H 0.74917 0.12567 0.72304 0.0
H427 H 0.91815 0.16284 0.70234 0.0
H428 H 0.84555 0.19668 0.6769 0.0
Co429 Co 0.72606 0.04166 0.4423 0.0
C430 C 0.73974 0.03692 0.42149 0.0
C431 C 0.79906 0.05697 0.42897 0.0
C432 C 0.80834 0.05659 0.41945 0.0
N433 N 0.75606 0.04503 0.43023 0.0
N434 N 0.77104 0.04414 0.41474 0.0
H435 H 0.70547 0.02708 0.42012 0.0
H436 H 0.82203 0.0655 0.43461 0.0
C437 C 0.73787 0.13187 0.45078 0.0
O438 O 0.6969 0.12548 0.45388 0.0
N439 N 0.699 0.03627 0.45482 0.0
C440 C 0.66311 1.01216 0.4576 0.0
C441 C 0.66322 1.00882 0.46732 0.0
C442 C 0.72156 0.04474 0.46292 0.0
N443 N 0.70017 0.02929 0.47067 0.0
C444 C 0.63423 0.0688 0.43848 0.0
C445 C 0.65712 0.14902 0.43012 0.0
C446 C 0.61234 0.14118 0.43247 0.0
C447 C 0.60067 0.09965 0.4363 0.0
C448 C 0.68946 0.1175 0.43249 0.0
N449 N 0.67826 0.07947 0.4373 0.0
H450 H 0.62467 0.03692 0.44125 0.0
H451 H 0.72409 0.12523 0.431 0.0
H452 H 0.64071 0.99415 0.45298 0.0
H453 H 0.75419 0.06032 0.46307 0.0
O454 O 0.70182 0.98426 0.43882 0.0
O455 O 0.76665 0.99288 0.44606 0.0
O456 O 0.75823 0.09951 0.4465 0.0
C457 C 0.73672 0.96557 0.44255 0.0
H458 H 0.84032 0.06445 0.41626 0.0
H459 H 0.63969 0.98982 0.47151 0.0
H460 H 0.6676 0.18044 0.42707 0.0
H461 H 0.56608 0.09166 0.43787 0.0
Co462 Co 0.75376 0.98323 0.19269 0.0
C463 C 0.75934 0.98592 0.17117 0.0
C464 C 0.75163 0.04954 0.17793 0.0
C465 C 0.75329 0.05621 0.16835 0.0
N466 N 0.7543 1.00545 0.17976 0.0
N467 N 0.75794 0.01624 0.16409 0.0
H468 H 0.76394 0.95081 0.16996 0.0
H469 H 0.74835 0.07523 0.18327 0.0
C470 C 0.66276 0.02219 0.18936 0.0
O471 O 0.6666 1.00263 0.18108 0.0
N472 N 0.75521 0.9643 0.20571 0.0
C473 C 0.76566 0.92343 0.20896 0.0
C474 C 0.76578 0.92477 0.21869 0.0
C475 C 0.74963 0.99011 0.21345 0.0
N476 N 0.75579 0.96674 0.22152 0.0
C477 C 0.72459 0.89995 0.18358 0.0
C478 C 0.64668 0.89416 0.19406 0.0
C479 C 0.65413 0.86281 0.18691 0.0
C480 C 0.69406 0.86533 0.18169 0.0
C481 C 0.67754 0.9278 0.19561 0.0
N482 N 0.71432 0.93271 0.18996 0.0
H483 H 0.75681 0.89945 0.18016 0.0
H484 H 0.67167 0.95019 0.20146 0.0
H485 H 0.77343 0.8949 0.20455 0.0
H486 H 0.74162 0.02529 0.21313 0.0
O487 O 0.81118 0.9544 0.19061 0.0
O488 O 0.80443 0.02395 0.1954 0.0
O489 O 0.69625 0.02098 0.19521 0.0
C490 C 0.83111 0.99092 0.19316 0.0
H491 H 0.75181 0.08814 0.16481 0.0
H492 H 0.77405 0.89723 0.22331 0.0
H493 H 0.61681 0.89319 0.1984 0.0
H494 H 0.70203 0.84034 0.17641 0.0
Co495 Co 0.80415 0.99521 0.94297 0.0
C496 C 0.79663 0.9988 0.92137 0.0
C497 C 0.73438 0.9961 0.92889 0.0
C498 C 0.72519 0.99593 0.9194 0.0
N499 N 0.77914 0.99677 0.93022 0.0
N500 N 0.76427 0.99745 0.91468 0.0
H501 H 0.83167 1.0004 0.91968 0.0
H502 H 0.70994 0.99471 0.93453 0.0
C503 C 0.76447 0.90517 0.93986 0.0
O504 O 0.77923 0.91071 0.93121 0.0
N505 N 0.82532 0.99583 0.95586 0.0
C506 C 0.86665 1.00597 0.95898 0.0
C507 C 0.86613 1.00568 0.96873 0.0
C508 C 0.80013 0.99003 0.96367 0.0
N509 N 0.82423 0.99578 0.97167 0.0
C510 C 0.88502 0.96542 0.93301 0.0
C511 C 0.89299 0.88779 0.94335 0.0
C512 C 0.92167 0.89422 0.93566 0.0
C513 C 0.91837 0.93432 0.93058 0.0
C514 C 0.86011 0.91895 0.94535 0.0
N515 N 0.85382 0.95549 0.93975 0.0
H516 H 0.88494 0.9976 0.92963 0.0
H517 H 0.83884 0.9129 0.95139 0.0
H518 H 0.89488 1.01384 0.95449 0.0
H519 H 0.76478 0.9822 0.96344 0.0
O520 O 0.83364 0.05145 0.94075 0.0
O521 O 0.76465 0.04597 0.94616 0.0
O522 O 0.7664 0.93845 0.94572 0.0
C523 C 0.79788 0.07179 0.94363 0.0
H524 H 0.69228 0.99481 0.9162 0.0
H525 H 0.89417 1.01362 0.97328 0.0
H526 H 0.89436 0.85787 0.94762 0.0
H527 H 0.94159 0.9418 0.92492 0.0
Co528 Co 0.759 0.55047 0.69226 0.0
C529 C 0.76139 0.54499 0.67066 0.0
C530 C 0.76117 0.48202 0.6778 0.0
C531 C 0.76071 0.47407 0.66824 0.0
N532 N 0.76082 0.52644 0.6794 0.0
N533 N 0.76065 0.51362 0.66375 0.0
H534 H 0.76121 0.58014 0.6692 0.0
H535 H 0.76074 0.45692 0.68328 0.0
C536 C 0.66933 0.50993 0.68891 0.0
O537 O 0.67334 0.52722 0.68044 0.0
N538 N 0.75881 0.57106 0.70522 0.0
C539 C 0.76915 0.61204 0.70846 0.0
C540 C 0.7683 0.61118 0.7182 0.0
C541 C 0.75223 0.54577 0.71297 0.0
N542 N 0.75777 0.56943 0.72105 0.0
C543 C 0.73347 0.63316 0.68267 0.0
C544 C 0.65243 0.64043 0.69197 0.0
C545 C 0.66237 0.67102 0.68483 0.0
C546 C 0.7039 0.66777 0.68022 0.0
C547 C 0.68251 0.6068 0.69409 0.0
N548 N 0.72084 0.60104 0.68897 0.0
H549 H 0.76661 0.63261 0.67962 0.0
H550 H 0.67481 0.58524 0.69995 0.0
H551 H 0.77765 0.64023 0.70405 0.0
H552 H 0.74409 0.51063 0.71265 0.0
O553 O 0.81712 0.57788 0.69036 0.0
O554 O 0.80725 0.50914 0.69556 0.0
O555 O 0.70202 0.51346 0.69484 0.0
C556 C 0.83511 0.54099 0.6933 0.0
H557 H 0.76051 0.44162 0.66486 0.0
H558 H 0.77635 0.63892 0.72281 0.0
H559 H 0.62128 0.64204 0.69589 0.0
H560 H 0.7137 0.69213 0.67497 0.0
Co561 Co 0.74052 0.49515 0.9434 0.0
C562 C 0.74418 0.49514 0.92175 0.0
C563 C 0.80758 0.50192 0.92867 0.0
C564 C 0.81481 0.50126 0.91909 0.0
N565 N 0.76338 0.49778 0.93044 0.0
N566 N 0.77501 0.49674 0.91471 0.0
H567 H 0.70903 0.49059 0.92046 0.0
H568 H 0.83318 0.5044 0.93405 0.0
C569 C 0.78223 0.40601 0.93979 0.0
O570 O 0.7654 0.41025 0.93127 0.0
N571 N 0.72081 0.49416 0.95639 0.0
C572 C 0.67957 0.50344 0.9597 0.0
C573 C 0.68076 0.50228 0.96943 0.0
C574 C 0.74664 0.48798 0.9641 0.0
N575 N 0.72299 0.49268 0.9722 0.0
C576 C 0.65632 0.47078 0.9343 0.0
C577 C 0.64891 0.39014 0.9436 0.0
C578 C 0.61616 0.40174 0.937 0.0
C579 C 0.61971 0.44282 0.93233 0.0
C580 C 0.68456 0.41857 0.94523 0.0
N581 N 0.6898 0.45702 0.94019 0.0
H582 H 0.65736 0.50371 0.93121 0.0
H583 H 0.7074 0.41008 0.95083 0.0
H584 H 0.65092 0.51142 0.95534 0.0
H585 H 0.78209 0.48071 0.96374 0.0
O586 O 0.71199 0.55287 0.94187 0.0
O587 O 0.78171 0.54384 0.94667 0.0
O588 O 0.77845 0.43854 0.94574 0.0
C589 C 0.74891 0.57123 0.94475 0.0
H590 H 0.84703 0.50404 0.91564 0.0
H591 H 0.65294 0.50952 0.97409 0.0
H592 H 0.64699 0.35922 0.94754 0.0
H593 H 0.59398 0.45364 0.92745 0.0
Co594 Co 0.78447 0.49223 0.19224 0.0
C595 C 0.78083 0.50164 0.17135 0.0
C596 C 0.80191 0.56193 0.1783 0.0
C597 C 0.80249 0.5689 0.16869 0.0
N598 N 0.78874 0.51974 0.17994 0.0
N599 N 0.78944 0.53094 0.16431 0.0
H600 H 0.77046 0.46738 0.17029 0.0
H601 H 0.81087 0.58581 0.18372 0.0
C602 C 0.87573 0.50205 0.20048 0.0
O603 O 0.8682 0.46198 0.20388 0.0
N604 N 0.77821 0.46744 0.20495 0.0
C605 C 0.75247 0.43303 0.20787 0.0
C606 C 0.7498 0.43366 0.21759 0.0
C607 C 0.78819 0.48997 0.21299 0.0
N608 N 0.77225 0.4696 0.22081 0.0
C609 C 0.8081 0.39891 0.1892 0.0
C610 C 0.88956 0.41738 0.18077 0.0
C611 C 0.88065 0.37385 0.18375 0.0
C612 C 0.83848 0.36422 0.18759 0.0
C613 C 0.85862 0.45094 0.18265 0.0
N614 N 0.82007 0.44211 0.18754 0.0
H615 H 0.77571 0.39093 0.19199 0.0
H616 H 0.86745 0.48477 0.1808 0.0
H617 H 0.73297 0.41142 0.20336 0.0
H618 H 0.80535 0.52175 0.21306 0.0
O619 O 0.72541 0.47046 0.18906 0.0
O620 O 0.73837 0.53569 0.19584 0.0
O621 O 0.84382 0.52256 0.19611 0.0
C622 C 0.7091 0.50691 0.19264 0.0
H623 H 0.81167 0.59969 0.16521 0.0
H624 H 0.72997 0.4113 0.22189 0.0
H625 H 0.92156 0.42621 0.17769 0.0
H626 H 0.82976 0.3305 0.18964 0.0
Co627 Co 0.79187 0.54 0.4422 0.0
C628 C 0.78539 0.53385 0.42073 0.0
C629 C 0.72287 0.54377 0.42786 0.0
C630 C 0.71474 0.54211 0.41832 0.0
N631 N 0.76725 0.53964 0.42943 0.0
N632 N 0.75404 0.53601 0.41383 0.0
H633 H 0.82027 0.52828 0.4193 0.0
H634 H 0.698 0.54811 0.43335 0.0
C635 C 0.75488 0.63136 0.4392 0.0
O636 O 0.77259 0.62743 0.43074 0.0
N637 N 0.81295 0.53877 0.45509 0.0
C638 C 0.85397 0.5275 0.45822 0.0
C639 C 0.85289 0.52601 0.46796 0.0
C640 C 0.78742 0.54354 0.46289 0.0
N641 N 0.81094 0.5359 0.47089 0.0
C642 C 0.87511 0.56285 0.43241 0.0
C643 C 0.88682 0.64225 0.44207 0.0
C644 C 0.91647 0.63137 0.4348 0.0
C645 C 0.91111 0.59079 0.43 0.0
C646 C 0.85152 0.61392 0.44412 0.0
N647 N 0.84381 0.57634 0.43887 0.0
H648 H 0.87334 0.52997 0.42933 0.0
H649 H 0.83049 0.62212 0.45007 0.0
H650 H 0.88221 0.51957 0.45373 0.0
H651 H 0.7521 0.55149 0.46264 0.0
O652 O 0.8173 0.48117 0.44013 0.0
O653 O 0.74889 0.49306 0.44548 0.0
O654 O 0.7569 0.59817 0.445 0.0
C655 C 0.77993 0.4643 0.44314 0.0
H656 H 0.68228 0.54458 0.41496 0.0
H657 H 0.88048 0.51654 0.47249 0.0
H658 H 0.89106 0.67248 0.4462 0.0
H659 H 0.9351 0.58028 0.4247 0.0
Co660 Co 0.73893 0.47304 0.81621 0.0
C661 C 0.74566 0.48147 0.83754 0.0
C662 C 0.70062 0.5287 0.83138 0.0
C663 C 0.6997 0.53424 0.84098 0.0
N664 N 0.72832 0.4947 0.82912 0.0
N665 N 0.7275 0.50427 0.84491 0.0
H666 H 0.77068 0.45565 0.83833 0.0
H667 H 0.68234 0.54917 0.82651 0.0
C668 C 0.65943 0.5352 0.80935 0.0
O669 O 0.68299 0.57162 0.80797 0.0
N670 N 0.74972 0.45393 0.80333 0.0
C671 C 0.76754 0.41506 0.80038 0.0
C672 C 0.77134 0.41622 0.79067 0.0
C673 C 0.74339 0.47835 0.79545 0.0
N674 N 0.75616 0.45609 0.78755 0.0
C675 C 0.71005 0.39308 0.82638 0.0
C676 C 0.64367 0.37229 0.8135 0.0
C677 C 0.64616 0.34798 0.8219 0.0
C678 C 0.68035 0.35804 0.82835 0.0
C679 C 0.67321 0.4071 0.81192 0.0
N680 N 0.70453 0.41882 0.8185 0.0
H681 H 0.73713 0.39932 0.8312 0.0
H682 H 0.66982 0.42559 0.80541 0.0
H683 H 0.77751 0.38804 0.80498 0.0
H684 H 0.72983 0.51179 0.79553 0.0
O685 O 0.79777 0.45185 0.81968 0.0
O686 O 0.78515 0.51962 0.81435 0.0
O687 O 0.67865 0.49963 0.81224 0.0
C688 C 0.81439 0.48985 0.81715 0.0
H689 H 0.68024 0.55896 0.84477 0.0
H690 H 0.78526 0.39001 0.78629 0.0
H691 H 0.61788 0.36566 0.8083 0.0
H692 H 0.68408 0.33904 0.83481 0.0
Co693 Co 0.80719 0.4853 0.06709 0.0
C694 C 0.79246 0.4924 0.08781 0.0
C695 C 0.73419 0.46877 0.08043 0.0
C696 C 0.7248 0.47002 0.08995 0.0
N697 N 0.77664 0.4824 0.07911 0.0
N698 N 0.76148 0.4847 0.0946 0.0
H699 H 0.8263 0.50374 0.08912 0.0
H700 H 0.71175 0.45838 0.07484 0.0
C701 C 0.8002 0.39345 0.05909 0.0
O702 O 0.84127 0.40108 0.05618 0.0
N703 N 0.83497 0.49024 0.05464 0.0
C704 C 0.86952 0.51628 0.05189 0.0
C705 C 0.86998 0.51884 0.04216 0.0
C706 C 0.81364 0.4797 0.0465 0.0
N707 N 0.83463 0.49589 0.03877 0.0
C708 C 0.90017 0.46163 0.07114 0.0
C709 C 0.87892 0.38282 0.08021 0.0
C710 C 0.92359 0.39084 0.07777 0.0
C711 C 0.9344 0.43186 0.07357 0.0
C712 C 0.84598 0.41302 0.07754 0.0
N713 N 0.85635 0.45041 0.07246 0.0
H714 H 0.90911 0.49298 0.06802 0.0
H715 H 0.81155 0.4047 0.07909 0.0
H716 H 0.89024 0.53617 0.05651 0.0
H717 H 0.78192 0.46236 0.0463 0.0
O718 O 0.82792 0.54486 0.07021 0.0
O719 O 0.76429 0.53071 0.06286 0.0
O720 O 0.77816 0.42533 0.06316 0.0
C721 C 0.79214 0.56052 0.06621 0.0
H722 H 0.6932 0.46107 0.09318 0.0
H723 H 0.89247 0.53913 0.03798 0.0
H724 H 0.86909 0.3526 0.08385 0.0
H725 H 0.96865 0.44015 0.07178 0.0
Co726 Co 0.78855 0.54455 0.3165 0.0
C727 C 0.78149 0.53155 0.33724 0.0
C728 C 0.80149 0.47175 0.32996 0.0
C729 C 0.80088 0.46326 0.33951 0.0
N730 N 0.78986 0.51462 0.32857 0.0
N731 N 0.7885 0.5009 0.34409 0.0
H732 H 0.77225 0.56599 0.33851 0.0
H733 H 0.81048 0.44852 0.3244 0.0
C734 C 0.88041 0.53209 0.30856 0.0
O735 O 0.87384 0.57243 0.30521 0.0
N736 N 0.78472 0.57163 0.30399 0.0
C737 C 0.76093 0.60771 0.30123 0.0
C738 C 0.75803 0.60802 0.29151 0.0
C739 C 0.7933 0.54928 0.29586 0.0
N740 N 0.77832 0.57109 0.28813 0.0
C741 C 0.82163 0.63541 0.3199 0.0
C742 C 0.89756 0.60759 0.32939 0.0
C743 C 0.89486 0.65199 0.32645 0.0
C744 C 0.85527 0.66642 0.32205 0.0
C745 C 0.86379 0.57787 0.32698 0.0
N746 N 0.82773 0.59109 0.32169 0.0
H747 H 0.79164 0.64714 0.31657 0.0
H748 H 0.86862 0.54323 0.32879 0.0
H749 H 0.74279 0.62996 0.30587 0.0
H750 H 0.80851 0.51652 0.29567 0.0
O751 O 0.7308 0.56998 0.31974 0.0
O752 O 0.73849 0.50526 0.31255 0.0
O753 O 0.84723 0.51173 0.31261 0.0
C754 C 0.71135 0.53559 0.31598 0.0
H755 H 0.80893 0.43175 0.34283 0.0
H756 H 0.73929 0.63172 0.28731 0.0
H757 H 0.92652 0.59522 0.33318 0.0
H758 H 0.85107 0.70079 0.31988 0.0
Co759 Co 0.72845 0.53717 0.56611 0.0
C760 C 0.7421 0.53473 0.58697 0.0
C761 C 0.80147 0.55353 0.57936 0.0
C762 C 0.81055 0.55531 0.58889 0.0
N763 N 0.75854 0.54113 0.57817 0.0
N764 N 0.77323 0.54368 0.59367 0.0
H765 H 0.70778 0.52534 0.58842 0.0
H766 H 0.82439 0.56138 0.57369 0.0
C767 C 0.74067 0.62675 0.55746 0.0
O768 O 0.6997 0.62022 0.55436 0.0
N769 N 0.70153 0.53122 0.5536 0.0
C770 C 0.66538 0.50755 0.55078 0.0
C771 C 0.66575 0.50402 0.54104 0.0
C772 C 0.72447 0.53914 0.54553 0.0
N773 N 0.70312 0.52389 0.53775 0.0
C774 C 0.63689 0.56574 0.56989 0.0
C775 C 0.66104 0.64534 0.57842 0.0
C776 C 0.61592 0.63793 0.57628 0.0
C777 C 0.6037 0.5967 0.5723 0.0
C778 C 0.69292 0.6138 0.57582 0.0
N779 N 0.68108 0.57585 0.57103 0.0
H780 H 0.62688 0.53411 0.56703 0.0
H781 H 0.72765 0.62111 0.57729 0.0
H782 H 0.6425 0.49012 0.55537 0.0
H783 H 0.75727 0.55436 0.54543 0.0
O784 O 0.70355 0.48027 0.5697 0.0
O785 O 0.76847 0.48755 0.56245 0.0
O786 O 0.76099 0.59464 0.5618 0.0
C787 C 0.73817 0.46085 0.56601 0.0
H788 H 0.8423 0.56436 0.59205 0.0
H789 H 0.64201 0.48545 0.5368 0.0
H790 H 0.67192 0.6758 0.58186 0.0
H791 H 0.56907 0.58897 0.57074 0.0
Co792 Co 0.28909 0.4702 0.31507 0.0
C793 C 0.28171 0.49042 0.33605 0.0
C794 C 0.34772 0.47145 0.33159 0.0
C795 C 0.34876 0.47924 0.34112 0.0
N796 N 0.30595 0.47885 0.3283 0.0
N797 N 0.30743 0.49123 0.34396 0.0
H798 H 0.24629 0.49797 0.33595 0.0
H799 H 0.37572 0.46023 0.32735 0.0
C800 C 0.36985 0.53242 0.31473 0.0
O801 O 0.34985 0.55867 0.32088 0.0
N802 N 0.27331 0.46115 0.30195 0.0
C803 C 0.25281 0.42489 0.29836 0.0
C804 C 0.24832 0.43034 0.28875 0.0
C805 C 0.28072 0.48844 0.29452 0.0
N806 N 0.26595 0.47022 0.28633 0.0
C807 C 0.31478 0.38384 0.32201 0.0
C808 C 0.38299 0.37163 0.30901 0.0
C809 C 0.38008 0.34272 0.31676 0.0
C810 C 0.34434 0.34802 0.32312 0.0
C811 C 0.35299 0.40684 0.3082 0.0
N812 N 0.32126 0.41411 0.31496 0.0
H813 H 0.28858 0.38914 0.32718 0.0
H814 H 0.35682 0.42968 0.30236 0.0
H815 H 0.24223 0.39631 0.30244 0.0
H816 H 0.29735 0.52042 0.29509 0.0
O817 O 0.23033 0.44839 0.3187 0.0
O818 O 0.24474 0.5189 0.31553 0.0
O819 O 0.34778 0.5002 0.31101 0.0
C820 C 0.2148 0.48841 0.31753 0.0
H821 H 0.37758 0.47498 0.34567 0.0
H822 H 0.23292 0.40678 0.28394 0.0
H823 H 0.40989 0.36899 0.3039 0.0
H824 H 0.34026 0.32579 0.32908 0.0
Co825 Co 0.30505 0.52913 0.06561 0.0
C826 C 0.29917 0.52801 0.08721 0.0
C827 C 0.23623 0.52996 0.07995 0.0
C828 C 0.22796 0.53072 0.08948 0.0
N829 N 0.28083 0.52905 0.07844 0.0
N830 N 0.26747 0.52968 0.09406 0.0
H831 H 0.33441 0.52688 0.08872 0.0
H832 H 0.21125 0.53078 0.07442 0.0
C833 C 0.26542 0.61954 0.06854 0.0
O834 O 0.28327 0.6164 0.07699 0.0
N835 N 0.32567 0.52759 0.05268 0.0
C836 C 0.36684 0.51715 0.04949 0.0
C837 C 0.36605 0.51753 0.03974 0.0
C838 C 0.3003 0.53362 0.0449 0.0
N839 N 0.32413 0.52777 0.03686 0.0
C840 C 0.3882 0.55526 0.07507 0.0
C841 C 0.39712 0.6336 0.06498 0.0
C842 C 0.42821 0.62418 0.07207 0.0
C843 C 0.42401 0.58413 0.07711 0.0
C844 C 0.36224 0.60434 0.06327 0.0
N845 N 0.35596 0.56729 0.06871 0.0
H846 H 0.38714 0.5229 0.07838 0.0
H847 H 0.34042 0.61133 0.0574 0.0
H848 H 0.39519 0.50918 0.05393 0.0
H849 H 0.26505 0.5419 0.04516 0.0
O850 O 0.33254 0.47143 0.06781 0.0
O851 O 0.26362 0.4804 0.06253 0.0
O852 O 0.26819 0.5861 0.06277 0.0
C853 C 0.29571 0.45297 0.06492 0.0
H854 H 0.19528 0.53166 0.0928 0.0
H855 H 0.39393 0.50961 0.03514 0.0
H856 H 0.39951 0.66362 0.06075 0.0
H857 H 0.44865 0.57478 0.08236 0.0
Co858 Co 0.24211 0.55041 0.81487 0.0
C859 C 0.24686 0.54575 0.83641 0.0
C860 C 0.24111 0.48269 0.82935 0.0
C861 C 0.24188 0.47512 0.83891 0.0
N862 N 0.24323 0.52699 0.82772 0.0
N863 N 0.24531 0.51476 0.84335 0.0
H864 H 0.25022 0.58083 0.83781 0.0
H865 H 0.23853 0.45748 0.82389 0.0
C866 C 0.15118 0.51149 0.81818 0.0
O867 O 0.15525 0.53007 0.82655 0.0
N868 N 0.24284 0.57031 0.80192 0.0
C869 C 0.25287 0.6114 0.79873 0.0
C870 C 0.25475 0.60997 0.78901 0.0
C871 C 0.23924 0.54435 0.79416 0.0
N872 N 0.24635 0.56774 0.78613 0.0
C873 C 0.21426 0.63285 0.82444 0.0
C874 C 0.13522 0.63983 0.81442 0.0
C875 C 0.14326 0.66996 0.82177 0.0
C876 C 0.18378 0.66696 0.82675 0.0
C877 C 0.16602 0.60658 0.81248 0.0
N878 N 0.20327 0.60089 0.81794 0.0
H879 H 0.2469 0.63294 0.82769 0.0
H880 H 0.15968 0.58503 0.80651 0.0
H881 H 0.25973 0.63999 0.80319 0.0
H882 H 0.23254 0.5089 0.79445 0.0
O883 O 0.29973 0.57884 0.81681 0.0
O884 O 0.29212 0.50962 0.81182 0.0
O885 O 0.1845 0.51319 0.8123 0.0
C886 C 0.31913 0.54251 0.81396 0.0
H887 H 0.24047 0.44285 0.84232 0.0
H888 H 0.26354 0.63758 0.78446 0.0
H889 H 0.10492 0.64145 0.81021 0.0
H890 H 0.19216 0.69118 0.83216 0.0
Co891 Co 0.22469 0.49102 0.56594 0.0
C892 C 0.2412 0.49724 0.58662 0.0
C893 C 0.29912 0.47518 0.57889 0.0
C894 C 0.30947 0.47586 0.58837 0.0
N895 N 0.25629 0.48813 0.57783 0.0
N896 N 0.27302 0.48955 0.59323 0.0
H897 H 0.2073 0.50786 0.58815 0.0
H898 H 0.32115 0.46556 0.57317 0.0
C899 C 0.2327 0.39965 0.55778 0.0
O900 O 0.19145 0.40687 0.55493 0.0
N901 N 0.19609 0.496 0.55356 0.0
C902 C 0.16102 0.52163 0.55092 0.0
C903 C 0.16017 0.52468 0.54119 0.0
C904 C 0.21728 0.48622 0.54534 0.0
N905 N 0.19577 0.50246 0.53768 0.0
C906 C 0.13256 0.46499 0.57013 0.0
C907 C 0.15606 0.38667 0.5792 0.0
C908 C 0.11125 0.39378 0.57682 0.0
C909 C 0.09922 0.43431 0.57258 0.0
C910 C 0.18817 0.41768 0.57647 0.0
N911 N 0.17669 0.45486 0.5714 0.0
H912 H 0.12272 0.49604 0.56701 0.0
H913 H 0.22286 0.40997 0.57788 0.0
H914 H 0.14012 0.54092 0.55563 0.0
H915 H 0.24927 0.4694 0.54506 0.0
O916 O 0.20277 0.5498 0.56929 0.0
O917 O 0.26618 0.53782 0.56169 0.0
O918 O 0.25455 0.43175 0.56181 0.0
C919 C 0.23784 0.56666 0.56524 0.0
H920 H 0.34153 0.46718 0.59142 0.0
H921 H 0.13717 0.54479 0.53711 0.0
H922 H 0.16678 0.35587 0.5825 0.0
H923 H 0.06459 0.4415 0.57089 0.0
Co924 Co 0.28485 0.55835 0.19171 0.0
C925 C 0.28203 0.54359 0.17089 0.0
C926 C 0.30289 0.48534 0.17855 0.0
C927 C 0.3049 0.47602 0.16903 0.0
N928 N 0.28907 0.52775 0.1797 0.0
N929 N 0.29204 0.51269 0.16422 0.0
H930 H 0.27172 0.5775 0.16941 0.0
H931 H 0.31173 0.46303 0.18425 0.0
C932 C 0.37591 0.55102 0.20007 0.0
O933 O 0.36807 0.59189 0.20304 0.0
N934 N 0.27879 0.58586 0.20419 0.0
C935 C 0.25312 0.62067 0.20697 0.0
C936 C 0.24961 0.62051 0.2167 0.0
C937 C 0.2881 0.56385 0.21229 0.0
N938 N 0.27152 0.58452 0.22003 0.0
C939 C 0.30921 0.65097 0.18781 0.0
C940 C 0.38952 0.62959 0.17914 0.0
C941 C 0.38122 0.674 0.18161 0.0
C942 C 0.33964 0.68494 0.18562 0.0
C943 C 0.35866 0.59687 0.18158 0.0
N944 N 0.3205 0.60728 0.18649 0.0
H945 H 0.27736 0.65994 0.19076 0.0
H946 H 0.36726 0.56253 0.1801 0.0
H947 H 0.23404 0.64205 0.20235 0.0
H948 H 0.30482 0.53185 0.21244 0.0
O949 O 0.22542 0.57906 0.1884 0.0
O950 O 0.23913 0.51561 0.19577 0.0
O951 O 0.34436 0.52927 0.19584 0.0
C952 C 0.20949 0.5434 0.19236 0.0
H953 H 0.31516 0.44463 0.16591 0.0
H954 H 0.22934 0.643 0.22091 0.0
H955 H 0.42108 0.61959 0.176 0.0
H956 H 0.33142 0.71923 0.18735 0.0
Co957 Co 0.2338 0.54507 0.94164 0.0
C958 C 0.24056 0.53615 0.92032 0.0
C959 C 0.30161 0.55498 0.92723 0.0
C960 C 0.30905 0.55453 0.91766 0.0
N961 N 0.25857 0.54419 0.92895 0.0
N962 N 0.27064 0.54296 0.91331 0.0
H963 H 0.20643 0.52622 0.91907 0.0
H964 H 0.32594 0.56329 0.93261 0.0
C965 C 0.2857 0.62889 0.94948 0.0
O966 O 0.29833 0.61081 0.95748 0.0
N967 N 0.21159 0.54596 0.95454 0.0
C968 C 0.16892 0.54883 0.95761 0.0
C969 C 0.16871 0.54657 0.96735 0.0
C970 C 0.23639 0.54041 0.96243 0.0
N971 N 0.21128 0.54148 0.97038 0.0
C972 C 0.15021 0.5607 0.93165 0.0
C973 C 0.1407 0.648 0.93766 0.0
C974 C 0.11089 0.6311 0.93098 0.0
C975 C 0.11466 0.58648 0.92815 0.0
C976 C 0.17493 0.62116 0.94103 0.0
N977 N 0.18154 0.5791 0.93753 0.0
H978 H 0.15235 0.52594 0.92968 0.0
H979 H 0.19518 0.63422 0.94669 0.0
H980 H 0.13978 0.55199 0.95313 0.0
H981 H 0.27209 0.53446 0.96232 0.0
O982 O 0.21018 0.48515 0.94011 0.0
O983 O 0.27818 0.49923 0.94528 0.0
O984 O 0.26561 0.6054 0.9432 0.0
C985 C 0.24787 0.46934 0.94313 0.0
H986 H 0.34041 0.56211 0.91417 0.0
H987 H 0.13942 0.54892 0.97183 0.0
H988 H 0.13693 0.68157 0.94043 0.0
H989 H 0.09045 0.57181 0.92336 0.0
Co990 Co 0.25836 0.48668 0.69088 0.0
C991 C 0.26155 0.4986 0.67005 0.0
C992 C 0.2445 0.55911 0.6774 0.0
C993 C 0.24356 0.56731 0.66784 0.0
N994 N 0.25533 0.51603 0.67876 0.0
N995 N 0.25407 0.52922 0.66321 0.0
H996 H 0.26972 0.46391 0.66877 0.0
H997 H 0.23723 0.58275 0.68299 0.0
C998 C 0.16856 0.50043 0.69944 0.0
O999 O 0.1742 0.45935 0.70244 0.0
N1000 N 0.26353 0.46017 0.70344 0.0
C1001 C 0.28688 0.42402 0.70632 0.0
C1002 C 0.28933 0.4242 0.71606 0.0
C1003 C 0.25489 0.48299 0.71149 0.0
N1004 N 0.26915 0.46147 0.7193 0.0
C1005 C 0.22875 0.3957 0.68737 0.0
C1006 C 0.14888 0.42016 0.67893 0.0
C1007 C 0.15533 0.37574 0.68156 0.0
C1008 C 0.1966 0.36309 0.68543 0.0
C1009 C 0.18149 0.4516 0.68114 0.0
N1010 N 0.21935 0.43973 0.68598 0.0
H1011 H 0.26045 0.38549 0.69019 0.0
H1012 H 0.17464 0.48618 0.67954 0.0
H1013 H 0.30472 0.40114 0.70177 0.0
H1014 H 0.23971 0.51573 0.71157 0.0
O1015 O 0.31506 0.46101 0.68739 0.0
O1016 O 0.30815 0.52617 0.69457 0.0
O1017 O 0.20114 0.52009 0.69509 0.0
C1018 C 0.33466 0.49547 0.69107 0.0
H1019 H 0.2358 0.59896 0.66456 0.0
H1020 H 0.30728 0.40031 0.72036 0.0
H1021 H 0.11755 0.43119 0.67586 0.0
H1022 H 0.20321 0.32863 0.68727 0.0
Co1023 Co 0.28607 0.50191 0.44197 0.0
C1024 C 0.28195 0.50524 0.42038 0.0
C1025 C 0.21834 0.50681 0.42736 0.0
C1026 C 0.21107 0.50855 0.41779 0.0
N1027 N 0.2627 0.50412 0.42907 0.0
N1028 N 0.25102 0.50742 0.41337 0.0
H1029 H 0.31735 0.50396 0.41906 0.0
H1030 H 0.1928 0.50724 0.43279 0.0
C1031 C 0.24177 0.41362 0.43879 0.0
O1032 O 0.2588 0.41689 0.43027 0.0
N1033 N 0.30622 0.50162 0.45495 0.0
C1034 C 0.34779 0.51007 0.45816 0.0
C1035 C 0.34695 0.50934 0.4679 0.0
C1036 C 0.28057 0.49635 0.46272 0.0
N1037 N 0.30463 0.5008 0.47078 0.0
C1038 C 0.36884 0.47269 0.43281 0.0
C1039 C 0.37371 0.39341 0.44268 0.0
C1040 C 0.40677 0.40274 0.43599 0.0
C1041 C 0.40444 0.44314 0.43102 0.0
C1042 C 0.33923 0.42348 0.44418 0.0
N1043 N 0.33511 0.46124 0.43887 0.0
H1044 H 0.36942 0.50532 0.4296 0.0
H1045 H 0.31648 0.41692 0.44991 0.0
H1046 H 0.37647 0.51704 0.45373 0.0
H1047 H 0.24498 0.48973 0.46244 0.0
O1048 O 0.31701 0.55779 0.43995 0.0
O1049 O 0.24751 0.55354 0.44508 0.0
O1050 O 0.24617 0.44666 0.44463 0.0
C1051 C 0.28147 0.57882 0.44276 0.0
H1052 H 0.17876 0.51105 0.41437 0.0
H1053 H 0.37516 0.51598 0.47249 0.0
H1054 H 0.37459 0.36314 0.44686 0.0
H1055 H 0.43055 0.45244 0.42609 0.0
H1056 H 0.272 0.90148 0.27194 0.0
H1057 H 0.26719 0.11472 0.2379 0.0
H1058 H 0.25745 0.03736 0.28166 0.0
H1059 H 0.27206 0.97961 0.22733 0.0
H1060 H 0.26386 0.08613 0.25397 0.0
H1061 H 0.27254 0.92847 0.2556 0.0
C1062 C 0.26897 0.93694 0.27066 0.0
C1063 C 0.2646 0.96709 0.27823 0.0
C1064 C 0.2656 0.0626 0.24816 0.0
C1065 C 0.265 0.99824 0.25952 0.0
C1066 C 0.2678 0.07897 0.23895 0.0
C1067 C 0.27031 0.04957 0.23122 0.0
C1068 C 0.26607 0.01634 0.24973 0.0
C1069 C 0.26994 1.00349 0.23306 0.0
C1070 C 0.26905 0.95231 0.26132 0.0
C1071 C 0.26025 1.01268 0.27611 0.0
N1072 N 0.26811 0.98829 0.24213 0.0
N1073 N 0.26072 0.02676 0.26698 0.0
H1074 H 0.29178 0.01689 0.47734 0.0
H1075 H 0.22658 0.99094 0.53196 0.0
H1076 H 0.158 0.9886 0.48722 0.0
H1077 H 0.36176 1.01369 0.52227 0.0
H1078 H 0.20128 0.98954 0.51562 0.0
H1079 H 0.31826 0.01534 0.49366 0.0
C1080 C 0.26794 1.01003 0.4829 0.0
C1081 C 0.22244 1.00288 0.48084 0.0
C1082 C 0.23652 0.99476 0.51705 0.0
C1083 C 0.25267 1.0016 0.49964 0.0
C1084 C 0.25115 0.99528 0.52642 0.0
C1085 C 0.29658 1.00232 0.52857 0.0
C1086 C 0.26739 1.00137 0.50969 0.0
C1087 C 0.32641 1.00863 0.521 0.0
C1088 C 0.28311 1.00941 0.49225 0.0
C1089 C 0.19319 0.99489 0.48843 0.0
N1090 N 0.31131 1.00801 0.51192 0.0
N1091 N 0.20878 0.99449 0.49746 0.0
H1092 H 0.25508 0.90882 0.73488 0.0
H1093 H 0.29772 0.10818 0.77168 0.0
H1094 H 0.30901 0.03736 0.72714 0.0
H1095 H 0.25695 0.9761 0.78017 0.0
H1096 H 0.29942 0.08317 0.75526 0.0
H1097 H 0.25315 0.93307 0.75138 0.0
C1098 C 0.26657 0.94209 0.7366 0.0
C1099 C 0.28219 0.97098 0.72951 0.0
C1100 C 0.29014 0.05957 0.76071 0.0
C1101 C 0.27969 0.99914 0.74849 0.0
C1102 C 0.28893 0.07393 0.7701 0.0
C1103 C 0.27699 0.04431 0.77736 0.0
C1104 C 0.27913 0.0152 0.75847 0.0
C1105 C 0.26672 1.00004 0.77485 0.0
C1106 C 0.26532 0.95596 0.74606 0.0
C1107 C 0.29606 1.01397 0.73226 0.0
N1108 N 0.26786 0.9869 0.76562 0.0
N1109 N 0.29448 0.02663 0.74149 0.0
H1110 H 0.23716 0.03699 0.97714 0.0
H1111 H 0.30762 0.02465 0.03177 0.0
H1112 H 0.37396 0.02879 0.9868 0.0
H1113 H 0.17027 0.024 0.02229 0.0
H1114 H 0.33223 0.02921 0.01537 0.0
H1115 H 0.2119 0.03565 0.99358 0.0
C1116 C 0.26198 0.03529 0.9827 0.0
C1117 C 0.30788 0.03293 0.98053 0.0
C1118 C 0.29668 0.0281 0.01686 0.0
C1119 C 0.27899 0.03092 0.99944 0.0
C1120 C 0.28252 0.02577 0.02626 0.0
C1121 C 0.23666 0.02403 0.02847 0.0
C1122 C 0.26487 0.02885 0.00955 0.0
C1123 C 0.20592 0.02479 0.02095 0.0
C1124 C 0.24746 0.0342 0.9921 0.0
C1125 C 0.33828 0.03009 0.98809 0.0
N1126 N 0.22055 0.02722 0.01184 0.0
N1127 N 0.32333 0.02918 0.99718 0.0
H1128 H 0.74694 0.02952 0.78136 0.0
H1129 H 0.82324 0.98698 0.72794 0.0
H1130 H 0.80843 0.90636 0.7723 0.0
H1131 H 0.73078 0.09056 0.73646 0.0
H1132 H 0.82332 0.95913 0.74417 0.0
H1133 H 0.74699 0.05535 0.76502 0.0
C1134 C 0.76076 1.00801 0.77594 0.0
C1135 C 0.77783 0.96574 0.77822 0.0
C1136 C 0.80302 0.98794 0.74244 0.0
C1137 C 0.77774 0.99504 0.75942 0.0
C1138 C 0.80279 1.00387 0.73314 0.0
C1139 C 0.77715 0.04156 0.73072 0.0
C1140 C 0.77776 1.01 0.74941 0.0
C1141 C 0.75177 0.06204 0.73791 0.0
C1142 C 0.76046 0.02263 0.76659 0.0
C1143 C 0.79463 0.93901 0.77085 0.0
N1144 N 0.75291 0.04614 0.74689 0.0
N1145 N 0.79436 0.95417 0.76178 0.0
H1146 H 0.78608 0.03923 0.47691 0.0
H1147 H 0.72021 0.02235 0.53167 0.0
H1148 H 0.65019 0.02233 0.4867 0.0
H1149 H 0.8547 0.04538 0.52161 0.0
H1150 H 0.69366 0.02271 0.51534 0.0
H1151 H 0.8114 0.04178 0.49325 0.0
C1152 C 0.76138 0.03639 0.48247 0.0
C1153 C 0.71573 0.0307 0.48035 0.0
C1154 C 0.72898 0.02776 0.51671 0.0
C1155 C 0.74491 0.03301 0.49922 0.0
C1156 C 0.7442 0.02783 0.52606 0.0
C1157 C 0.78992 0.03379 0.52808 0.0
C1158 C 0.75962 0.03368 0.50928 0.0
C1159 C 0.81933 0.04003 0.52044 0.0
C1160 C 0.776 0.03758 0.49184 0.0
C1161 C 0.68569 0.0263 0.48795 0.0
N1162 N 0.80371 0.03977 0.51141 0.0
N1163 N 0.70079 0.02756 0.49703 0.0
H1164 H 0.74757 0.98554 0.28228 0.0
H1165 H 0.76845 0.05219 0.22765 0.0
H1166 H 0.77278 0.12005 0.27279 0.0
H1167 H 0.73983 0.91894 0.23747 0.0
H1168 H 0.76835 0.07831 0.24404 0.0
H1169 H 0.74303 0.96125 0.26588 0.0
C1170 C 0.7518 1.01016 0.27677 0.0
C1171 C 0.76055 0.05508 0.27899 0.0
C1172 C 0.762 0.04336 0.2426 0.0
C1173 C 0.75593 0.02709 0.26006 0.0
C1174 C 0.76178 0.02843 0.23322 0.0
C1175 C 0.75432 0.98316 0.23113 0.0
C1176 C 0.75466 1.01287 0.24997 0.0
C1177 C 0.74646 0.95394 0.23871 0.0
C1178 C 0.74946 0.99612 0.26737 0.0
C1179 C 0.76652 0.08505 0.27146 0.0
N1180 N 0.74692 0.96926 0.24776 0.0
N1181 N 0.76414 0.07053 0.26235 0.0
H1182 H 0.87318 0.97983 0.98752 0.0
H1183 H 0.66359 1.00596 0.02255 0.0
H1184 H 0.73871 1.00748 0.978 0.0
H1185 H 0.79937 0.98394 0.03192 0.0
H1186 H 0.68984 1.00457 0.00617 0.0
H1187 H 0.84615 0.97904 1.0038 0.0
C1188 C 0.838 0.9859 0.98883 0.0
C1189 C 0.80831 0.9939 0.98132 0.0
C1190 C 0.71385 0.99995 0.01182 0.0
C1191 C 0.7769 0.99262 1.00003 0.0
C1192 C 0.6989 1.00095 0.02119 0.0
C1193 C 0.72919 0.99509 0.02869 0.0
C1194 C 0.75951 0.99308 0.00989 0.0
C1195 C 0.77453 0.98804 0.02644 0.0
C1196 C 0.82251 0.98522 0.99815 0.0
C1197 C 0.76285 1.00072 0.9835 0.0
N1198 N 0.78824 0.98733 0.01727 0.0
N1199 N 0.74861 1.00005 0.99264 0.0
H1200 H 0.74466 0.61821 0.73711 0.0
H1201 H 0.75772 0.40614 0.77141 0.0
H1202 H 0.76543 0.48338 0.72719 0.0
H1203 H 0.75159 0.54231 0.7814 0.0
H1204 H 0.75699 0.43343 0.75518 0.0
H1205 H 0.74335 0.59065 0.75332 0.0
C1206 C 0.74912 0.58284 0.7383 0.0
C1207 C 0.75539 0.55324 0.73068 0.0
C1208 C 0.75578 0.45734 0.76092 0.0
C1209 C 0.7534 0.52125 0.74935 0.0
C1210 C 0.75643 0.44177 0.77023 0.0
C1211 C 0.75489 0.47183 0.77788 0.0
C1212 C 0.75346 0.50341 0.75918 0.0
C1213 C 0.75237 0.51767 0.77581 0.0
C1214 C 0.74815 0.56707 0.74759 0.0
C1215 C 0.76007 0.50757 0.73275 0.0
N1216 N 0.7518 0.53198 0.76668 0.0
N1217 N 0.75907 0.49306 0.74186 0.0
H1218 H 0.67525 0.47451 0.98809 0.0
H1219 H 0.88497 0.50539 0.02286 0.0
H1220 H 0.80858 0.50573 0.97835 0.0
H1221 H 0.7497 0.48122 0.03234 0.0
H1222 H 0.85856 0.50302 0.0065 0.0
H1223 H 0.70287 0.47394 0.00431 0.0
C1224 C 0.71032 0.48139 0.98934 0.0
C1225 C 0.73948 0.49042 0.98179 0.0
C1226 C 0.83472 0.49813 0.01217 0.0
C1227 C 0.7716 0.48942 1.00044 0.0
C1228 C 0.84974 0.49969 0.02153 0.0
C1229 C 0.81964 0.49354 0.02906 0.0
C1230 C 0.78918 0.49037 0.01028 0.0
C1231 C 0.77443 0.48558 0.02684 0.0
C1232 C 0.72615 0.48085 0.99863 0.0
C1233 C 0.78485 0.49821 0.9839 0.0
N1234 N 0.76065 0.48434 0.01769 0.0
N1235 N 0.79944 0.49769 0.99301 0.0
H1236 H 0.78164 0.48527 0.28174 0.0
H1237 H 0.78127 0.55523 0.22709 0.0
H1238 H 0.77687 0.62195 0.27227 0.0
H1239 H 0.76921 0.41924 0.23671 0.0
H1240 H 0.78457 0.58019 0.24354 0.0
H1241 H 0.78201 0.4605 0.26529 0.0
C1242 C 0.78106 0.51016 0.27622 0.0
C1243 C 0.77927 0.55587 0.27843 0.0
C1244 C 0.78124 0.54488 0.24206 0.0
C1245 C 0.77926 0.52756 0.2595 0.0
C1246 C 0.77966 0.53053 0.23265 0.0
C1247 C 0.77494 0.48497 0.23049 0.0
C1248 C 0.77836 0.51348 0.24939 0.0
C1249 C 0.77233 0.45468 0.23803 0.0
C1250 C 0.78094 0.49593 0.2668 0.0
C1251 C 0.77778 0.58642 0.27092 0.0
N1252 N 0.77413 0.46944 0.24713 0.0
N1253 N 0.77788 0.57174 0.2618 0.0
H1254 H 0.78931 0.53271 0.53164 0.0
H1255 H 0.72468 0.52392 0.47675 0.0
H1256 H 0.65345 0.51855 0.52164 0.0
H1257 H 0.85882 0.54624 0.48711 0.0
H1258 H 0.69779 0.52152 0.49304 0.0
H1259 H 0.81503 0.53695 0.51536 0.0
C1260 C 0.7647 0.5308 0.52605 0.0
C1261 C 0.71892 0.52552 0.52809 0.0
C1262 C 0.7331 0.52701 0.49175 0.0
C1263 C 0.74858 0.52977 0.50927 0.0
C1264 C 0.74852 0.52868 0.48242 0.0
C1265 C 0.79425 0.53531 0.48049 0.0
C1266 C 0.76353 0.53195 0.49924 0.0
C1267 C 0.82346 0.54048 0.4882 0.0
C1268 C 0.77956 0.53297 0.51671 0.0
C1269 C 0.68902 0.52224 0.52045 0.0
N1270 N 0.80763 0.53866 0.49721 0.0
N1271 N 0.70435 0.52447 0.51139 0.0
H1272 H 0.26838 0.55785 0.28117 0.0
H1273 H 0.27923 0.49841 0.2259 0.0
H1274 H 0.2707 0.42403 0.26985 0.0
H1275 H 0.265 0.63329 0.23625 0.0
H1276 H 0.28017 0.47164 0.2421 0.0
H1277 H 0.27122 0.58712 0.26498 0.0
C1278 C 0.26974 0.53464 0.2753 0.0
C1279 C 0.26897 0.48836 0.27689 0.0
C1280 C 0.27692 0.50715 0.24087 0.0
C1281 C 0.27204 0.52159 0.25836 0.0
C1282 C 0.27672 0.52257 0.23157 0.0
C1283 C 0.27225 0.56834 0.22966 0.0
C1284 C 0.2727 0.53755 0.24839 0.0
C1285 C 0.26814 0.59773 0.23738 0.0
C1286 C 0.2711 0.55136 0.26606 0.0
C1287 C 0.27042 0.45988 0.26899 0.0
N1288 N 0.26853 0.58187 0.2464 0.0
N1289 N 0.27189 0.47692 0.26011 0.0
H1290 H 0.37249 0.54644 0.02107 0.0
H1291 H 0.16345 0.51787 0.98603 0.0
H1292 H 0.23888 0.51481 0.03056 0.0
H1293 H 0.29512 0.55927 0.97699 0.0
H1294 H 0.19053 0.51506 1.00231 0.0
H1295 H 0.34503 0.54924 0.00483 0.0
C1296 C 0.33741 0.53989 0.01975 0.0
C1297 C 0.30804 0.53032 0.02724 0.0
C1298 C 0.21349 0.52472 0.99675 0.0
C1299 C 0.27615 0.53377 0.00858 0.0
C1300 C 0.19798 0.52651 0.98743 0.0
C1301 C 0.22695 0.53877 0.98005 0.0
C1302 C 0.25837 0.53522 0.99875 0.0
C1303 C 0.2716 0.54899 0.98236 0.0
C1304 C 0.32166 0.54173 0.01046 0.0
C1305 C 0.26271 0.52283 0.02506 0.0
N1306 N 0.28585 0.54699 0.99148 0.0
N1307 N 0.24822 0.52459 0.01595 0.0
H1308 H 0.259 0.5471 0.72551 0.0
H1309 H 0.26141 0.48204 0.78033 0.0
H1310 H 0.27231 0.41142 0.73534 0.0
H1311 H 0.23518 0.61478 0.76989 0.0
H1312 H 0.26635 0.45525 0.76403 0.0
H1313 H 0.25173 0.57213 0.74179 0.0
C1314 C 0.26009 0.52237 0.73106 0.0
C1315 C 0.26601 0.47686 0.72898 0.0
C1316 C 0.25943 0.49023 0.76532 0.0
C1317 C 0.25827 0.50574 0.74779 0.0
C1318 C 0.25632 0.50557 0.77465 0.0
C1319 C 0.24796 0.55091 0.77655 0.0
C1320 C 0.25425 0.52038 0.75782 0.0
C1321 C 0.24235 0.57976 0.76882 0.0
C1322 C 0.25616 0.53684 0.7404 0.0
C1323 C 0.26819 0.44681 0.73658 0.0
N1324 N 0.24568 0.56404 0.75983 0.0
N1325 N 0.26429 0.46176 0.74564 0.0
H1326 H 0.14482 0.51283 0.52186 0.0
H1327 H 0.35301 0.4825 0.4866 0.0
H1328 H 0.28051 0.48829 0.53102 0.0
H1329 H 0.21938 0.51445 0.47715 0.0
H1330 H 0.32612 0.48194 0.50287 0.0
H1331 H 0.17056 0.51124 0.50545 0.0
C1332 C 0.18 0.50723 0.52046 0.0
C1333 C 0.21039 0.50071 0.52792 0.0
C1334 C 0.30261 0.48903 0.49724 0.0
C1335 C 0.2401 0.49843 0.50906 0.0
C1336 C 0.31803 0.48958 0.48792 0.0
C1337 C 0.28858 0.49879 0.48043 0.0
C1338 C 0.25727 0.49774 0.49916 0.0
C1339 C 0.24334 0.50681 0.48264 0.0
C1340 C 0.19465 0.50611 0.51106 0.0
C1341 C 0.25554 0.49291 0.52559 0.0
N1342 N 0.22915 0.50623 0.49179 0.0
N1343 N 0.26893 0.49209 0.5164 0.0
H1344 H 0.11711 0.21062 0.17437 0.0
H1345 H 0.90485 0.3222 0.19861 0.0
H1346 H 0.1075 0.23647 0.20437 0.0
H1347 H 0.94117 0.3526 0.16981 0.0
H1348 H 0.97312 0.27793 0.20015 0.0
H1349 H 0.04864 0.25405 0.17196 0.0
C1350 C 0.10115 0.22599 0.18043 0.0
C1351 C 0.11801 0.21953 0.18961 0.0
C1352 C 0.96595 0.294 0.19347 0.0
C1353 C 0.03897 0.26769 0.1869 0.0
C1354 C 0.92673 0.31867 0.19254 0.0
C1355 C 0.91742 0.34092 0.18407 0.0
C1356 C 0.99586 0.2912 0.18584 0.0
C1357 C 0.94734 0.33599 0.17648 0.0
C1358 C 0.06184 0.25034 0.17905 0.0
C1359 C 0.0953 0.23965 0.1972 0.0
N1360 N 0.9854 0.3116 0.17754 0.0
N1361 N 0.0567 0.26238 0.19568 0.0
H1362 H 0.08666 0.85763 0.41907 0.0
H1363 H 0.98415 0.65217 0.44659 0.0
H1364 H 0.05731 0.85629 0.44893 0.0
H1365 H 0.93066 0.68265 0.41907 0.0
H1366 H 0.03152 0.71844 0.44567 0.0
H1367 H 0.04314 0.7879 0.41726 0.0
C1368 C 0.07037 0.8432 0.42518 0.0
C1369 C 0.07609 0.86223 0.43419 0.0
C1370 C 1.01003 0.71021 0.43975 0.0
C1371 C 0.0284 0.78267 0.43223 0.0
C1372 C 0.98355 0.67221 0.44022 0.0
C1373 C 0.95368 0.66228 0.4329 0.0
C1374 C 1.00657 0.73855 0.4319 0.0
C1375 C 0.95366 0.68935 0.42481 0.0
C1376 C 0.04607 0.80339 0.42416 0.0
C1377 C 0.05456 0.8422 0.4419 0.0
N1378 N 0.97945 0.72688 0.42455 0.0
N1379 N 0.03236 0.80321 0.44076 0.0
H1380 H 0.40948 0.78397 0.68988 0.0
H1381 H 0.63226 0.69772 0.66729 0.0
H1382 H 0.46264 0.86685 0.6677 0.0
H1383 H 0.61524 0.72238 0.69715 0.0
H1384 H 0.56449 0.74296 0.6642 0.0
H1385 H 0.47652 0.73719 0.68896 0.0
C1386 C 0.43466 0.79123 0.68458 0.0
C1387 C 0.43092 0.82904 0.67886 0.0
C1388 C 0.57625 0.73865 0.67139 0.0
C1389 C 0.50756 0.77664 0.67792 0.0
C1390 C 0.6149 0.71335 0.67315 0.0
C1391 C 0.62876 0.70565 0.6825 0.0
C1392 C 0.55149 0.75521 0.67906 0.0
C1393 C 0.60507 0.72648 0.68985 0.0
C1394 C 0.47291 0.76495 0.68412 0.0
C1395 C 0.46454 0.83762 0.67217 0.0
N1396 N 0.56715 0.7495 0.68799 0.0
N1397 N 0.50217 0.81184 0.67195 0.0
H1398 H 0.47164 0.16434 0.94606 0.0
H1399 H 0.58409 0.36939 0.92011 0.0
H1400 H 0.42975 0.19926 0.91783 0.0
H1401 H 0.5643 0.36199 0.95027 0.0
H1402 H 0.5339 0.30467 0.91815 0.0
H1403 H 0.51703 0.2318 0.94667 0.0
C1404 C 0.47276 0.18577 0.93991 0.0
C1405 C 0.44704 0.17618 0.93188 0.0
C1406 C 0.54018 0.3178 0.92516 0.0
C1407 C 0.49811 0.25402 0.93261 0.0
C1408 C 0.56835 0.35482 0.92628 0.0
C1409 C 0.57872 0.37044 0.93538 0.0
C1410 C 0.52308 0.29642 0.93322 0.0
C1411 C 0.5578 0.35035 0.94315 0.0
C1412 C 0.49809 0.22462 0.94031 0.0
C1413 C 0.44904 0.20567 0.92417 0.0
N1414 N 0.53158 0.31398 0.94191 0.0
N1415 N 0.47425 0.24344 0.92471 0.0
H1416 H 0.15993 0.77599 0.33173 0.0
H1417 H 0.98282 0.62958 0.32399 0.0
H1418 H 0.06418 0.87623 0.32319 0.0
H1419 H 0.89767 0.74198 0.33064 0.0
H1420 H 0.04781 0.67801 0.32494 0.0
H1421 H 0.09892 0.72178 0.33276 0.0
C1422 C 0.12621 0.78654 0.33002 0.0
C1423 C 0.11729 0.83074 0.32735 0.0
C1424 C 1.01512 0.69196 0.32642 0.0
C1425 C 0.04741 0.76887 0.32841 0.0
C1426 C 0.97779 0.66429 0.32587 0.0
C1427 C 0.93455 0.68154 0.32738 0.0
C1428 C 1.00934 0.73744 0.32843 0.0
C1429 C 0.93023 0.72722 0.32939 0.0
C1430 C 0.09138 0.75554 0.33058 0.0
C1431 C 0.07269 0.84275 0.32542 0.0
N1432 N 0.96718 0.75366 0.3298 0.0
N1433 N 0.03948 0.81202 0.32599 0.0
H1434 H 0.52882 0.63098 0.58247 0.0
H1435 H 0.37823 0.80223 0.57428 0.0
H1436 H 0.62708 0.72744 0.57331 0.0
H1437 H 0.48743 0.89127 0.58108 0.0
H1438 H 0.429 0.73935 0.57538 0.0
H1439 H 0.47372 0.69099 0.58375 0.0
C1440 C 0.53875 0.66468 0.58068 0.0
C1441 C 0.58256 0.67404 0.5777 0.0
C1442 C 0.44174 0.77243 0.57688 0.0
C1443 C 0.5196 0.74279 0.57904 0.0
C1444 C 0.41271 0.80857 0.57624 0.0
C1445 C 0.42832 0.85228 0.57776 0.0
C1446 C 0.487 0.77982 0.57898 0.0
C1447 C 0.4739 0.85827 0.57984 0.0
C1448 C 0.50724 0.69892 0.58138 0.0
C1449 C 0.59384 0.71862 0.57571 0.0
N1450 N 0.50175 0.8224 0.58033 0.0
N1451 N 0.56253 0.75131 0.5764 0.0
H1452 H 0.41025 0.21257 0.80861 0.0
H1453 H 0.59599 0.33646 0.83803 0.0
H1454 H 0.42007 0.18167 0.8383 0.0
H1455 H 0.61643 0.28337 0.80998 0.0
H1456 H 0.52668 0.29197 0.83928 0.0
H1457 H 0.47827 0.25713 0.80984 0.0
C1458 C 0.42638 0.216 0.81544 0.0
C1459 C 0.41011 0.19309 0.82334 0.0
C1460 C 0.54694 0.28973 0.83294 0.0
C1461 C 0.48808 0.24343 0.82476 0.0
C1462 C 0.58652 0.31463 0.83225 0.0
C1463 C 0.61144 0.31401 0.82382 0.0
C1464 C 0.53239 0.26499 0.82509 0.0
C1465 C 0.59767 0.2855 0.81651 0.0
C1466 C 0.46532 0.24099 0.81611 0.0
C1467 C 0.43185 0.19892 0.83206 0.0
N1468 N 0.55868 0.26279 0.81725 0.0
N1469 N 0.4703 0.22337 0.83255 0.0
H1470 H 0.16144 0.22523 0.07447 0.0
H1471 H 1.0122 0.39888 0.08302 0.0
H1472 H 0.05166 0.13809 0.08184 0.0
H1473 H 0.91256 0.30109 0.07514 0.0
H1474 H 0.06784 0.33915 0.08396 0.0
H1475 H 0.11174 0.28901 0.07588 0.0
C1476 C 0.12709 0.21949 0.0766 0.0
C1477 C 0.11092 0.17603 0.07815 0.0
C1478 C 0.03387 0.33087 0.08195 0.0
C1479 C 0.05353 0.24945 0.07974 0.0
C1480 C 1.00205 0.36497 0.08145 0.0
C1481 C 0.95762 0.35514 0.07896 0.0
C1482 C 0.02115 0.2867 0.07991 0.0
C1483 C 0.9462 0.31033 0.07721 0.0
C1484 C 0.09868 0.25614 0.07742 0.0
C1485 C 0.06558 0.17083 0.08052 0.0
N1486 N 0.97774 0.27786 0.07771 0.0
N1487 N 0.03838 0.20711 0.08118 0.0
H1488 H 0.1065 0.69198 0.83902 0.0
H1489 H 0.89298 0.78751 0.81351 0.0
H1490 H 0.10035 0.72365 0.80932 0.0
H1491 H 0.92969 0.84811 0.84005 0.0
H1492 H 0.96117 0.74245 0.81404 0.0
H1493 H 0.03664 0.73484 0.84147 0.0
C1494 C 0.09107 0.70878 0.83308 0.0
C1495 C 0.10865 0.7038 0.82393 0.0
C1496 C 0.95382 0.76492 0.81986 0.0
C1497 C 0.02898 0.7506 0.82661 0.0
C1498 C 0.91477 0.79003 0.81961 0.0
C1499 C 0.90601 0.82115 0.82676 0.0
C1500 C 0.98426 0.77101 0.8273 0.0
C1501 C 0.93545 0.82397 0.83447 0.0
C1502 C 0.0512 0.73267 0.83447 0.0
C1503 C 0.08737 0.7259 0.81645 0.0
N1504 N 0.97388 0.79941 0.83451 0.0
N1505 N 0.04825 0.74759 0.81793 0.0
H1506 H 0.96854 0.16305 0.55935 0.0
H1507 H 0.09536 0.33802 0.59189 0.0
H1508 H 0.94136 0.16691 0.58928 0.0
H1509 H 0.05641 0.36312 0.56303 0.0
H1510 H 0.05091 0.26873 0.59161 0.0
H1511 H 0.01721 0.22787 0.5611 0.0
C1512 C 0.97352 0.1772 0.56633 0.0
C1513 C 0.95045 0.16021 0.57416 0.0
C1514 C 0.05184 0.28982 0.5854 0.0
C1515 C 1.00573 0.23449 0.5762 0.0
C1516 C 0.07691 0.32925 0.58556 0.0
C1517 C 0.07917 0.35637 0.57749 0.0
C1518 C 0.03009 0.27716 0.57703 0.0
C1519 C 0.05501 0.34353 0.56944 0.0
C1520 C 1.00095 0.21432 0.5673 0.0
C1521 C 0.95857 0.17923 0.58308 0.0
N1522 N 0.03194 0.30459 0.56938 0.0
N1523 N 0.98536 0.21588 0.58386 0.0
H1524 H 0.42619 0.29178 0.3039 0.0
H1525 H 0.59662 0.18337 0.34028 0.0
H1526 H 0.41866 0.32139 0.33376 0.0
H1527 H 0.62938 0.21028 0.31115 0.0
H1528 H 0.52662 0.22557 0.33834 0.0
H1529 H 0.49511 0.25014 0.3067 0.0
C1530 C 0.43882 0.28928 0.31106 0.0
C1531 C 0.41689 0.31066 0.31859 0.0
C1532 C 0.54952 0.22265 0.33243 0.0
C1533 C 0.49558 0.2628 0.32182 0.0
C1534 C 0.58939 0.19886 0.33354 0.0
C1535 C 0.6188 0.19373 0.32588 0.0
C1536 C 0.53879 0.24037 0.32354 0.0
C1537 C 0.60791 0.21405 0.31727 0.0
C1538 C 0.4782 0.26562 0.31264 0.0
C1539 C 0.43426 0.30525 0.32775 0.0
N1540 N 0.56848 0.23602 0.3163 0.0
N1541 N 0.47279 0.28197 0.32912 0.0
H1542 H 0.56726 0.86515 0.06339 0.0
H1543 H 0.45596 0.65903 0.08909 0.0
H1544 H 0.60941 0.83088 0.09164 0.0
H1545 H 0.48165 0.66435 0.0591 0.0
H1546 H 0.504 0.72525 0.09123 0.0
H1547 H 0.52229 0.79735 0.06283 0.0
C1548 C 0.56622 0.84385 0.06957 0.0
C1549 C 0.59201 0.85361 0.07758 0.0
C1550 C 0.49942 0.71136 0.08422 0.0
C1551 C 0.54143 0.77546 0.0769 0.0
C1552 C 0.47249 0.6735 0.08301 0.0
C1553 C 0.46438 0.65678 0.07389 0.0
C1554 C 0.5175 0.73251 0.07624 0.0
C1555 C 0.4863 0.6768 0.06623 0.0
C1556 C 0.54113 0.80482 0.06919 0.0
C1557 C 0.59007 0.8243 0.08531 0.0
N1558 N 0.51122 0.71401 0.06755 0.0
N1559 N 0.56516 0.78633 0.08479 0.0
H1560 H 0.92353 0.24255 0.70212 0.0
H1561 H 0.0963 0.35735 0.66718 0.0
H1562 H 0.92503 0.20766 0.67248 0.0
H1563 H 0.12573 0.32677 0.6963 0.0
H1564 H 0.02609 0.31468 0.66853 0.0
H1565 H 0.98916 0.28952 0.69962 0.0
C1566 C 0.93738 0.24515 0.69507 0.0
C1567 C 0.91935 0.22048 0.68754 0.0
C1568 C 0.04829 0.31708 0.67457 0.0
C1569 C 0.99411 0.27431 0.68464 0.0
C1570 C 0.08821 0.3411 0.67379 0.0
C1571 C 0.11684 0.345 0.68162 0.0
C1572 C 0.03673 0.29813 0.68329 0.0
C1573 C 0.10489 0.32386 0.69007 0.0
C1574 C 0.97483 0.27182 0.69366 0.0
C1575 C 0.9379 0.22611 0.67849 0.0
N1576 N 0.06547 0.30172 0.69071 0.0
N1577 N 0.97467 0.25225 0.67729 0.0
H1578 H 0.44145 0.36959 0.41935 0.0
H1579 H 0.55329 0.16582 0.44608 0.0
H1580 H 0.45537 0.36154 0.44965 0.0
H1581 H 0.59812 0.20156 0.4181 0.0
H1582 H 0.50643 0.23234 0.44642 0.0
H1583 H 0.49246 0.30525 0.41776 0.0
C1584 C 0.45587 0.35485 0.42563 0.0
C1585 C 0.44364 0.37028 0.43465 0.0
C1586 C 0.52636 0.22557 0.44018 0.0
C1587 C 0.50042 0.29671 0.4329 0.0
C1588 C 0.5526 0.18727 0.43993 0.0
C1589 C 0.57949 0.17812 0.43204 0.0
C1590 C 0.52658 0.25491 0.43246 0.0
C1591 C 0.57794 0.20763 0.42433 0.0
C1592 C 0.48458 0.31807 0.42473 0.0
C1593 C 0.46307 0.34999 0.44258 0.0
N1594 N 0.5518 0.24484 0.42472 0.0
N1595 N 0.48992 0.31392 0.44152 0.0
H1596 H 0.61848 0.83552 0.16991 0.0
H1597 H 0.40707 0.73085 0.19552 0.0
H1598 H 0.61028 0.81267 0.19997 0.0
H1599 H 0.44097 0.68966 0.16715 0.0
H1600 H 0.47602 0.7743 0.1962 0.0
H1601 H 0.55029 0.79024 0.16778 0.0
C1602 C 0.6029 0.82025 0.17602 0.0
C1603 C 0.61953 0.82837 0.18514 0.0
C1604 C 0.46821 0.75604 0.18979 0.0
C1605 C 0.54149 0.77832 0.18279 0.0
C1606 C 0.42853 0.73182 0.18935 0.0
C1607 C 0.41832 0.70669 0.18127 0.0
C1608 C 0.49779 0.75551 0.18208 0.0
C1609 C 0.44785 0.70848 0.17353 0.0
C1610 C 0.5639 0.79489 0.1748 0.0
C1611 C 0.59799 0.80808 0.19283 0.0
N1612 N 0.48645 0.73249 0.17412 0.0
N1613 N 0.55975 0.78463 0.19149 0.0
H1614 H 0.94452 0.86373 0.91787 0.0
H1615 H 0.02791 0.63532 0.93842 0.0
H1616 H 0.97059 0.84159 0.94752 0.0
H1617 H 0.11324 0.69544 0.91746 0.0
H1618 H 0.97909 0.70109 0.9378 0.0
H1619 H 0.98587 0.79439 0.9142 0.0
C1620 C 0.95937 0.8448 0.92358 0.0
C1621 C 0.95331 0.85803 0.93304 0.0
C1622 C 1.00762 0.69901 0.93308 0.0
C1623 C 0.9981 0.77864 0.92891 0.0
C1624 C 0.03501 0.66143 0.93335 0.0
C1625 C 0.07413 0.66018 0.92793 0.0
C1626 C 0.01952 0.73517 0.92733 0.0
C1627 C 0.08288 0.69534 0.92165 0.0
C1628 C 0.98233 0.80518 0.92147 0.0
C1629 C 0.9731 0.83207 0.94016 0.0
N1630 N 0.056 0.73202 0.9216 0.0
N1631 N 0.99384 0.79325 0.93796 0.0
H1632 H 0.38638 0.10008 0.18091 0.0
H1633 H 0.60835 0.99426 0.20418 0.0
H1634 H 0.38023 0.98669 0.19953 0.0
H1635 H 0.60915 0.07839 0.17955 0.0
H1636 H 0.52594 0.99887 0.20451 0.0
H1637 H 0.46805 0.09856 0.18187 0.0
C1638 C 0.40221 0.07444 0.18513 0.0
C1639 C 0.37598 0.04313 0.19004 0.0
C1640 C 0.54424 0.01702 0.19914 0.0
C1641 C 0.47075 0.04197 0.19141 0.0
C1642 C 0.59153 1.01504 0.19905 0.0
C1643 C 0.61623 0.03664 0.19191 0.0
C1644 C 0.52126 0.04117 0.19211 0.0
C1645 C 0.59187 0.06193 0.1853 0.0
C1646 C 0.44908 0.07375 0.18572 0.0
C1647 C 0.39887 1.01105 0.19548 0.0
N1648 N 0.5462 0.06342 0.18556 0.0
N1649 N 0.44477 1.01148 0.19608 0.0
H1650 H 0.18858 0.35699 0.42899 0.0
H1651 H 0.28889 0.13638 0.45223 0.0
H1652 H 0.26626 0.36379 0.4546 0.0
H1653 H 0.17174 0.13637 0.43443 0.0
H1654 H 0.28569 0.21881 0.45275 0.0
H1655 H 0.18397 0.27601 0.43069 0.0
C1656 C 0.20367 0.34158 0.43514 0.0
C1657 C 0.22761 0.3677 0.44167 0.0
C1658 C 0.26063 0.20063 0.44877 0.0
C1659 C 0.22453 0.27373 0.44342 0.0
C1660 C 0.26265 0.15357 0.44841 0.0
C1661 C 0.23065 0.12911 0.44325 0.0
C1662 C 0.2268 0.22355 0.4438 0.0
C1663 C 0.19721 0.15347 0.4385 0.0
C1664 C 0.2015 0.2951 0.43605 0.0
C1665 C 0.24733 0.34539 0.44938 0.0
N1666 N 0.19643 0.19893 0.43883 0.0
N1667 N 0.2461 0.29972 0.44995 0.0
H1668 H 0.94177 0.9272 0.68729 0.0
H1669 H 0.17087 0.06034 0.69909 0.0
H1670 H 0.94167 0.05515 0.70131 0.0
H1671 H 0.16434 0.93171 0.68544 0.0
H1672 H 0.08816 0.06039 0.70021 0.0
H1673 H 0.02357 0.92884 0.68702 0.0
C1674 C 0.95878 0.95555 0.69041 0.0
C1675 C 0.93402 0.99097 0.69436 0.0
C1676 C 0.10492 0.03221 0.69696 0.0
C1677 C 0.0293 0.99344 0.69394 0.0
C1678 C 0.15227 0.03225 0.69629 0.0
C1679 C 0.17516 0.99603 0.69214 0.0
C1680 C 0.08 0.99566 0.69346 0.0
C1681 C 0.14874 0.96052 0.6887 0.0
C1682 C 1.00585 0.95657 0.69021 0.0
C1683 C 0.95881 0.02683 0.69822 0.0
N1684 N 0.10318 0.96128 0.68943 0.0
N1685 N 1.00474 0.02722 0.69788 0.0
H1686 H 0.24545 0.68097 0.93578 0.0
H1687 H 0.35278 0.91324 0.95002 0.0
H1688 H 0.33074 0.69182 0.96029 0.0
H1689 H 0.21695 0.90735 0.93986 0.0
H1690 H 0.35291 0.83173 0.9517 0.0
H1691 H 0.24258 0.76259 0.93486 0.0
C1692 C 0.2638 0.70027 0.94097 0.0
C1693 C 0.28803 0.67882 0.94822 0.0
C1694 C 0.32297 0.8482 0.94916 0.0
C1695 C 0.28561 0.77321 0.94699 0.0
C1696 C 0.32282 0.89477 0.94818 0.0
C1697 C 0.28466 0.91735 0.94486 0.0
C1698 C 0.28518 0.82334 0.94649 0.0
C1699 C 0.24692 0.89147 0.94255 0.0
C1700 C 0.26191 0.74707 0.94044 0.0
C1701 C 0.31148 0.70639 0.9546 0.0
N1702 N 0.24834 0.84586 0.94327 0.0
N1703 N 0.31 0.75188 0.95379 0.0
H1704 H 0.37287 0.05625 0.3054 0.0
H1705 H 0.61921 0.97395 0.32061 0.0
H1706 H 0.39405 0.9437 0.3238 0.0
H1707 H 0.5928 0.06716 0.2981 0.0
H1708 H 0.53779 0.96213 0.32226 0.0
H1709 H 0.45414 0.06254 0.30333 0.0
C1710 C 0.39457 0.03304 0.30906 0.0
C1711 C 0.37639 0.99947 0.3148 0.0
C1712 C 0.54997 0.98478 0.31689 0.0
C1713 C 0.47 1.00625 0.31243 0.0
C1714 C 0.59651 0.99116 0.31589 0.0
C1715 C 0.61313 0.02155 0.30919 0.0
C1716 C 0.51986 1.00921 0.31122 0.0
C1717 C 0.58181 0.04352 0.30339 0.0
C1718 C 0.44108 0.03643 0.30784 0.0
C1719 C 0.40644 0.97015 0.31931 0.0
N1720 N 0.53706 0.03723 0.30459 0.0
N1721 N 0.45158 0.97425 0.31805 0.0
H1722 H 0.32132 0.1326 0.57451 0.0
H1723 H 0.20496 0.33308 0.54614 0.0
H1724 H 0.21298 0.11457 0.55473 0.0
H1725 H 0.29215 0.35652 0.56993 0.0
H1726 H 0.21507 0.25296 0.54809 0.0
H1727 H 0.31676 0.21351 0.57215 0.0
C1728 C 0.29636 0.14559 0.56969 0.0
C1729 C 0.26732 0.11641 0.56484 0.0
C1730 C 0.23244 0.27542 0.55285 0.0
C1731 C 0.26248 0.20966 0.56199 0.0
C1732 C 0.22701 0.32143 0.5517 0.0
C1733 C 0.2478 0.35199 0.55786 0.0
C1734 C 0.25901 0.25905 0.56024 0.0
C1735 C 0.27587 0.33446 0.56493 0.0
C1736 C 0.29389 0.19194 0.56835 0.0
C1737 C 0.23586 0.13553 0.55868 0.0
N1738 N 0.28042 0.2892 0.56596 0.0
N1739 N 0.23445 0.18071 0.55741 0.0
H1740 H 0.14102 0.09348 0.82394 0.0
H1741 H 0.91101 0.99424 0.80336 0.0
H1742 H 0.13966 0.97634 0.80617 0.0
H1743 H 0.92069 0.07193 0.82896 0.0
H1744 H 0.99318 0.99804 0.80173 0.0
H1745 H 0.05948 0.09555 0.82344 0.0
C1746 C 0.12361 0.06808 0.81991 0.0
C1747 C 0.14759 0.03446 0.81514 0.0
C1748 C 0.97711 1.01483 0.80761 0.0
C1749 C 0.05309 0.03714 0.81443 0.0
C1750 C 0.93008 1.01316 0.80849 0.0
C1751 C 0.90868 0.03273 0.81634 0.0
C1752 C 1.00279 0.03711 0.81451 0.0
C1753 C 0.93554 0.05651 0.82277 0.0
C1754 C 0.07683 0.06935 0.81962 0.0
C1755 C 0.1227 1.00262 0.81002 0.0
N1756 N 0.98085 0.05792 0.82173 0.0
N1757 N 0.07685 1.00479 0.80978 0.0
H1758 H 0.2087 0.67437 0.07785 0.0
H1759 H 0.3113 0.89773 0.05578 0.0
H1760 H 0.29433 0.67059 0.05336 0.0
H1761 H 0.19868 0.895 0.07486 0.0
H1762 H 0.30798 0.81542 0.05477 0.0
H1763 H 0.2043 0.75544 0.0765 0.0
C1764 C 0.22546 0.69052 0.07198 0.0
C1765 C 0.25142 0.66528 0.06565 0.0
C1766 C 0.28395 0.83299 0.05914 0.0
C1767 C 0.24866 0.75926 0.06434 0.0
C1768 C 0.28607 0.87997 0.05978 0.0
C1769 C 0.25541 0.90358 0.06546 0.0
C1770 C 0.25121 0.80939 0.06429 0.0
C1771 C 0.22316 0.87857 0.0704 0.0
C1772 C 0.22348 0.73704 0.07128 0.0
C1773 C 0.27349 0.6884 0.05835 0.0
N1774 N 0.22212 0.83326 0.06974 0.0
N1775 N 0.27226 0.73407 0.05799 0.0
H1776 H 0.41786 0.93881 0.82803 0.0
H1777 H 0.64187 0.03796 0.80579 0.0
H1778 H 0.41392 0.02078 0.80308 0.0
H1779 H 0.639 0.92005 0.82319 0.0
H1780 H 0.55922 0.0357 0.80497 0.0
H1781 H 0.49903 0.93241 0.82635 0.0
C1782 C 0.43393 0.95438 0.82201 0.0
C1783 C 0.40863 0.98003 0.81566 0.0
C1784 C 0.57684 1.01023 0.80892 0.0
C1785 C 0.50275 0.97496 0.81396 0.0
C1786 C 0.62401 1.0117 0.80944 0.0
C1787 C 0.64768 0.97927 0.8146 0.0
C1788 C 0.55307 0.97648 0.8137 0.0
C1789 C 0.62251 0.94586 0.81914 0.0
C1790 C 0.48051 0.95121 0.82112 0.0
C1791 C 0.43172 1.00043 0.80813 0.0
N1792 N 0.57696 0.94558 0.81864 0.0
N1793 N 0.47748 0.9982 0.80759 0.0
H1794 H 0.71548 0.69299 0.54558 0.0
H1795 H 0.83214 0.89494 0.57338 0.0
H1796 H 0.79909 0.66973 0.56992 0.0
H1797 H 0.71601 0.91023 0.55558 0.0
H1798 H 0.82838 0.81377 0.57107 0.0
H1799 H 0.72531 0.77308 0.54765 0.0
C1800 C 0.73674 0.70466 0.55128 0.0
C1801 C 0.75647 0.67415 0.55759 0.0
C1802 C 0.80365 0.83484 0.56769 0.0
C1803 C 0.76743 0.76705 0.56007 0.0
C1804 C 0.8057 0.88127 0.569 0.0
C1805 C 0.77421 0.90971 0.56469 0.0
C1806 C 0.77034 0.81641 0.56187 0.0
C1807 C 0.74083 0.88984 0.5591 0.0
C1808 C 0.74195 0.75064 0.5525 0.0
C1809 C 0.78361 0.69174 0.56482 0.0
N1810 N 0.74 0.84464 0.55781 0.0
N1811 N 0.78809 0.73701 0.5659 0.0
H1812 H 0.8724 0.96612 0.30577 0.0
H1813 H 0.11998 0.04994 0.31966 0.0
H1814 H 0.89556 0.07847 0.32425 0.0
H1815 H 0.09161 0.95681 0.29714 0.0
H1816 H 0.03876 0.06104 0.32179 0.0
H1817 H 0.95345 0.96021 0.30321 0.0
C1818 C 0.89449 0.98931 0.30935 0.0
C1819 C 0.87695 0.02274 0.31525 0.0
C1820 C 0.05045 0.03857 0.31631 0.0
C1821 C 0.9702 0.01647 0.3123 0.0
C1822 C 0.09687 0.03262 0.31503 0.0
C1823 C 0.11289 1.00245 0.3082 0.0
C1824 C 0.01985 1.01393 0.31078 0.0
C1825 C 0.08107 0.98031 0.30253 0.0
C1826 C 0.94085 0.98617 0.30784 0.0
C1827 C 0.90744 0.05212 0.31964 0.0
N1828 N 0.03643 0.98616 0.304 0.0
N1829 N 0.95239 0.04826 0.3181 0.0
H1830 H 0.70724 0.12646 0.07476 0.0
H1831 H 0.82954 0.32702 0.04757 0.0
H1832 H 0.81673 0.10785 0.05527 0.0
H1833 H 0.73928 0.35003 0.07088 0.0
H1834 H 0.81847 0.24692 0.04926 0.0
H1835 H 0.71341 0.20739 0.07269 0.0
C1836 C 0.73278 0.13933 0.07006 0.0
C1837 C 0.76165 0.10996 0.0652 0.0
C1838 C 0.80068 0.26928 0.05397 0.0
C1839 C 0.76841 0.20331 0.0627 0.0
C1840 C 0.80669 0.31529 0.05297 0.0
C1841 C 0.78527 0.34574 0.05908 0.0
C1842 C 0.77286 0.25277 0.06114 0.0
C1843 C 0.75613 0.32808 0.06593 0.0
C1844 C 0.73618 0.1857 0.06888 0.0
C1845 C 0.79392 0.12894 0.05921 0.0
N1846 N 0.75099 0.28282 0.06681 0.0
N1847 N 0.79626 0.1742 0.0581 0.0
H1848 H 0.66182 0.07467 0.68026 0.0
H1849 H 0.46003 0.99439 0.71311 0.0
H1850 H 0.67895 0.9759 0.70202 0.0
H1851 H 0.43581 0.04537 0.68508 0.0
H1852 H 0.54035 0.99468 0.7099 0.0
H1853 H 0.58026 0.07016 0.68238 0.0
C1854 C 0.64844 0.05147 0.6854 0.0
C1855 C 0.67765 0.02524 0.69089 0.0
C1856 C 0.51759 1.00595 0.70444 0.0
C1857 C 0.58354 0.0211 0.6936 0.0
C1858 C 0.47137 1.00624 0.70629 0.0
C1859 C 0.44026 0.02026 0.6994 0.0
C1860 C 0.53384 0.0205 0.69566 0.0
C1861 C 0.45798 0.03458 0.69067 0.0
C1862 C 0.60173 0.04905 0.68662 0.0
C1863 C 0.65801 0.99624 0.69751 0.0
N1864 N 0.50334 0.03465 0.68909 0.0
N1865 N 0.61248 0.99542 0.69876 0.0
H1866 H 0.69839 0.68594 0.42985 0.0
H1867 H 0.79449 0.91107 0.4529 0.0
H1868 H 0.78417 0.68293 0.4543 0.0
H1869 H 0.68446 0.90583 0.43319 0.0
H1870 H 0.79378 0.82858 0.45357 0.0
H1871 H 0.69292 0.7669 0.43134 0.0
C1872 C 0.71501 0.70226 0.43573 0.0
C1873 C 0.74114 0.6773 0.44204 0.0
C1874 C 0.76977 0.84566 0.44913 0.0
C1875 C 0.73708 0.77118 0.44353 0.0
C1876 C 0.77042 0.89274 0.44869 0.0
C1877 C 0.73965 0.91569 0.44294 0.0
C1878 C 0.73839 0.82136 0.44373 0.0
C1879 C 0.70894 0.88996 0.43772 0.0
C1880 C 0.71238 0.74872 0.43651 0.0
C1881 C 0.76303 0.70059 0.44936 0.0
N1882 N 0.70926 0.84463 0.43821 0.0
N1883 N 0.76109 0.74623 0.44982 0.0
H1884 H 0.89068 0.92794 0.18704 0.0
H1885 H 0.11502 0.05656 0.20306 0.0
H1886 H 0.88738 0.05802 0.20012 0.0
H1887 H 0.11424 0.93492 0.18671 0.0
H1888 H 0.03286 0.05604 0.2031 0.0
H1889 H 0.97225 0.92886 0.18777 0.0
C1890 C 0.90702 0.95689 0.19008 0.0
C1891 C 0.88152 0.99303 0.19351 0.0
C1892 C 0.05063 0.02931 0.19955 0.0
C1893 C 0.97651 0.99411 0.19442 0.0
C1894 C 0.09784 0.0294 0.19956 0.0
C1895 C 0.12234 0.99567 0.19488 0.0
C1896 C 0.02712 0.99507 0.19487 0.0
C1897 C 0.09738 0.96164 0.19045 0.0
C1898 C 0.95394 0.95734 0.19048 0.0
C1899 C 0.9053 0.02944 0.19735 0.0
N1900 N 0.05159 0.96228 0.19055 0.0
N1901 N 0.95124 0.029 0.19772 0.0
H1902 H 0.75995 0.35804 0.95595 0.0
H1903 H 0.85388 0.12829 0.93447 0.0
H1904 H 0.8312 0.34732 0.92955 0.0
H1905 H 0.74058 0.12965 0.95338 0.0
H1906 H 0.85569 0.20945 0.93489 0.0
H1907 H 0.76336 0.2761 0.95754 0.0
C1908 C 0.77741 0.33876 0.95062 0.0
C1909 C 0.79536 0.35981 0.94258 0.0
C1910 C 0.83037 0.19222 0.93897 0.0
C1911 C 0.7992 0.26601 0.94435 0.0
C1912 C 0.82924 0.14564 0.93874 0.0
C1913 C 0.79681 0.12174 0.94385 0.0
C1914 C 0.79921 0.21591 0.94446 0.0
C1915 C 0.76591 0.14656 0.94925 0.0
C1916 C 0.77881 0.29189 0.95148 0.0
C1917 C 0.81715 0.33273 0.93589 0.0
N1918 N 0.76794 0.19229 0.94945 0.0
N1919 N 0.81838 0.2876 0.93691 0.0
H1920 H 0.12702 0.56105 0.68736 0.0
H1921 H 0.88309 0.477 0.70285 0.0
H1922 H 0.10198 0.47619 0.71137 0.0
H1923 H 0.90043 0.5955 0.68601 0.0
H1924 H 0.96453 0.47273 0.70484 0.0
H1925 H 0.04546 0.57323 0.6859 0.0
C1926 C 0.10464 0.54596 0.69246 0.0
C1927 C 0.12158 0.51757 0.6995 0.0
C1928 C 0.95057 0.49974 0.70071 0.0
C1929 C 0.02831 0.52999 0.69766 0.0
C1930 C 0.904 0.50199 0.69952 0.0
C1931 C 0.88472 0.53665 0.69426 0.0
C1932 C 0.97846 0.53202 0.6965 0.0
C1933 C 0.91374 0.56823 0.69015 0.0
C1934 C 0.05805 0.55248 0.69156 0.0
C1935 C 0.09067 0.49818 0.70579 0.0
N1936 N 0.95904 0.56506 0.69131 0.0
N1937 N 0.04589 0.50426 0.70465 0.0
H1938 H 0.82481 0.62337 0.94548 0.0
H1939 H 0.70049 0.86072 0.95097 0.0
H1940 H 0.68077 0.63217 0.94647 0.0
H1941 H 0.82284 0.84011 0.93537 0.0
H1942 H 0.69646 0.77882 0.9536 0.0
H1943 H 0.82877 0.70527 0.94614 0.0
C1944 C 0.79406 0.64244 0.94594 0.0
C1945 C 0.75243 0.62076 0.9458 0.0
C1946 C 0.72454 0.79271 0.94976 0.0
C1947 C 0.75667 0.71471 0.94674 0.0
C1948 C 0.72699 0.83939 0.94833 0.0
C1949 C 0.76239 0.85763 0.94306 0.0
C1950 C 0.75833 0.76456 0.94608 0.0
C1951 C 0.79533 0.82803 0.93962 0.0
C1952 C 0.79629 0.6892 0.94631 0.0
C1953 C 0.71361 0.64745 0.94643 0.0
N1954 N 0.79263 0.78347 0.94123 0.0
N1955 N 0.71662 0.69291 0.94687 0.0
H1956 H 0.44258 0.58064 0.21151 0.0
H1957 H 0.64304 0.45752 0.18423 0.0
H1958 H 0.41909 0.48998 0.18831 0.0
H1959 H 0.66192 0.56889 0.20317 0.0
H1960 H 0.56191 0.46366 0.18644 0.0
H1961 H 0.52291 0.56965 0.20969 0.0
C1962 C 0.45426 0.55773 0.20611 0.0
C1963 C 0.42368 0.5362 0.20006 0.0
C1964 C 0.58371 0.48686 0.19009 0.0
C1965 C 0.51674 0.52389 0.19784 0.0
C1966 C 0.63016 0.48348 0.18883 0.0
C1967 C 0.6596 0.51288 0.1935 0.0
C1968 C 0.56619 0.51957 0.19617 0.0
C1969 C 0.64071 0.54569 0.19938 0.0
C1970 C 0.50037 0.55177 0.20503 0.0
C1971 C 0.4412 0.50694 0.1932 0.0
N1972 N 0.59537 0.54797 0.20058 0.0
N1973 N 0.48655 0.50186 0.19224 0.0
H1974 H 0.80044 0.17233 0.43891 0.0
H1975 H 0.71443 0.41817 0.45275 0.0
H1976 H 0.70936 0.20037 0.46184 0.0
H1977 H 0.83369 0.39759 0.4361 0.0
H1978 H 0.70901 0.33724 0.45505 0.0
H1979 H 0.81235 0.25342 0.43702 0.0
C1980 C 0.78379 0.19529 0.44368 0.0
C1981 C 0.75387 0.17921 0.45055 0.0
C1982 C 0.73641 0.35037 0.45089 0.0
C1983 C 0.76613 0.27207 0.44823 0.0
C1984 C 0.73931 0.39666 0.44952 0.0
C1985 C 0.77453 0.41493 0.44422 0.0
C1986 C 0.76864 0.32169 0.44684 0.0
C1987 C 0.80596 0.38512 0.44026 0.0
C1988 C 0.79019 0.24163 0.44254 0.0
C1989 C 0.73259 0.21089 0.45641 0.0
N1990 N 0.8022 0.34015 0.44161 0.0
N1991 N 0.73872 0.2554 0.45505 0.0
H1992 H 0.86699 0.55022 0.80695 0.0
H1993 H 0.09845 0.45325 0.82756 0.0
H1994 H 0.87654 0.44075 0.82655 0.0
H1995 H 0.09604 0.54224 0.80373 0.0
H1996 H 0.01687 0.44846 0.82696 0.0
H1997 H 0.94973 0.55092 0.80578 0.0
C1998 C 0.88632 0.52678 0.8111 0.0
C1999 C 0.86442 0.49556 0.81691 0.0
C2000 C 0.03396 0.4685 0.82172 0.0
C2001 C 0.95926 0.49569 0.8155 0.0
C2002 C 0.08083 0.47065 0.82197 0.0
C2003 C 0.10467 0.49743 0.81558 0.0
C2004 C 1.00982 0.49427 0.81516 0.0
C2005 C 0.07951 0.5205 0.80871 0.0
C2006 C 0.93359 0.52684 0.81035 0.0
C2007 C 0.89154 0.46553 0.82199 0.0
N2008 N 0.03358 0.5189 0.80876 0.0
N2009 N 0.937 0.46646 0.82118 0.0
H2010 H 0.81255 0.85235 0.07019 0.0
H2011 H 0.72928 0.60567 0.05555 0.0
H2012 H 0.71831 0.82499 0.04782 0.0
H2013 H 0.84135 0.62817 0.07417 0.0
H2014 H 0.72311 0.68662 0.05324 0.0
H2015 H 0.82395 0.77124 0.07205 0.0
C2016 C 0.79503 0.82951 0.06553 0.0
C2017 C 0.7645 0.84583 0.05881 0.0
C2018 C 0.74908 0.6739 0.05784 0.0
C2019 C 0.77635 0.7528 0.06109 0.0
C2020 C 0.7524 0.62757 0.05921 0.0
C2021 C 0.7858 0.60982 0.06508 0.0
C2022 C 0.77917 0.70309 0.06243 0.0
C2023 C 0.81501 0.64016 0.06958 0.0
C2024 C 0.80115 0.78313 0.06667 0.0
C2025 C 0.74211 0.81427 0.05312 0.0
N2026 N 0.81098 0.68506 0.06818 0.0
N2027 N 0.74817 0.76969 0.05443 0.0
H2028 H 0.42663 0.47457 0.30506 0.0
H2029 H 0.65163 0.59446 0.32359 0.0
H2030 H 0.42903 0.59333 0.32234 0.0
H2031 H 0.65519 0.47285 0.30724 0.0
H2032 H 0.57026 0.59437 0.32268 0.0
H2033 H 0.50893 0.47383 0.30511 0.0
C2034 C 0.44422 0.50084 0.30878 0.0
C2035 C 0.42016 0.53418 0.31369 0.0
C2036 C 0.58853 0.56755 0.31928 0.0
C2037 C 0.51537 0.5332 0.31382 0.0
C2038 C 0.63539 0.56749 0.3198 0.0
C2039 C 0.66094 0.53351 0.31551 0.0
C2040 C 0.56599 0.53341 0.31439 0.0
C2041 C 0.63722 0.49969 0.3107 0.0
C2042 C 0.49146 0.50021 0.30884 0.0
C2043 C 0.44553 0.56698 0.31842 0.0
N2044 N 0.59127 0.50051 0.31027 0.0
N2045 N 0.49128 0.56556 0.31837 0.0
H2046 H 0.79392 0.40469 0.55546 0.0
H2047 H 0.6958 0.18243 0.57915 0.0
H2048 H 0.68595 0.40251 0.5757 0.0
H2049 H 0.77774 0.17661 0.55412 0.0
H2050 H 0.692 0.26343 0.57766 0.0
H2051 H 0.79139 0.32218 0.55485 0.0
C2052 C 0.76995 0.38702 0.55981 0.0
C2053 C 0.74027 0.41087 0.56568 0.0
C2054 C 0.71028 0.24463 0.57237 0.0
C2055 C 0.73692 0.31648 0.56496 0.0
C2056 C 0.71192 0.19813 0.57316 0.0
C2057 C 0.7366 0.17231 0.5667 0.0
C2058 C 0.73448 0.2663 0.56519 0.0
C2059 C 0.75785 0.19489 0.55921 0.0
C2060 C 0.76825 0.33993 0.5594 0.0
C2061 C 0.70961 0.38595 0.57107 0.0
N2062 N 0.75692 0.24057 0.55874 0.0
N2063 N 0.70892 0.34059 0.57061 0.0
H2064 H 0.14845 0.43669 0.32531 0.0
H2065 H 0.95013 0.56082 0.29788 0.0
H2066 H 0.16706 0.55654 0.30901 0.0
H2067 H 0.92198 0.47301 0.32124 0.0
H2068 H 0.02994 0.55184 0.30072 0.0
H2069 H 0.06703 0.44362 0.32321 0.0
C2070 C 0.13547 0.46485 0.32138 0.0
C2071 C 0.16506 0.49628 0.31739 0.0
C2072 C 1.00655 0.53416 0.30521 0.0
C2073 C 0.07119 0.50363 0.31473 0.0
C2074 C 0.96062 0.53889 0.30354 0.0
C2075 C 0.92859 0.51758 0.3093 0.0
C2076 C 0.02169 0.50738 0.31267 0.0
C2077 C 0.94504 0.4897 0.31652 0.0
C2078 C 0.08883 0.46864 0.32017 0.0
C2079 C 0.14589 0.53176 0.31232 0.0
N2080 N 0.99033 0.48547 0.318 0.0
N2081 N 0.1005 0.53414 0.31106 0.0
H2082 H 0.31962 0.16215 0.07138 0.0
H2083 H 0.23388 0.40332 0.05498 0.0
H2084 H 0.2428 0.18519 0.04606 0.0
H2085 H 0.34982 0.38919 0.07288 0.0
H2086 H 0.23193 0.32193 0.05301 0.0
H2087 H 0.32935 0.24374 0.07307 0.0
C2088 C 0.30595 0.1841 0.06604 0.0
C2089 C 0.28047 0.16655 0.05855 0.0
C2090 C 0.25783 0.33661 0.05738 0.0
C2091 C 0.28982 0.25988 0.06065 0.0
C2092 C 0.25872 0.38314 0.05855 0.0
C2093 C 0.29206 0.40333 0.06409 0.0
C2094 C 0.2901 0.30966 0.06188 0.0
C2095 C 0.32355 0.37518 0.06851 0.0
C2096 C 0.31097 0.23072 0.06707 0.0
C2097 C 0.26261 0.19697 0.05197 0.0
N2098 N 0.3217 0.32994 0.06736 0.0
N2099 N 0.26708 0.24176 0.05324 0.0
H2100 H 0.37852 0.61168 0.81528 0.0
H2101 H 0.60083 0.46412 0.80958 0.0
H2102 H 0.37466 0.46985 0.81013 0.0
H2103 H 0.60162 0.60788 0.80862 0.0
H2104 H 0.51924 0.46513 0.81029 0.0
H2105 H 0.4599 0.61034 0.81352 0.0
C2106 C 0.39471 0.58007 0.8138 0.0
C2107 C 0.36921 0.54073 0.81289 0.0
C2108 C 0.53711 0.49651 0.80986 0.0
C2109 C 0.46365 0.53907 0.81086 0.0
C2110 C 0.58408 0.49603 0.80945 0.0
C2111 C 0.60893 0.53598 0.80902 0.0
C2112 C 0.51399 0.53733 0.80996 0.0
C2113 C 0.5844 0.57614 0.8089 0.0
C2114 C 0.44143 0.57945 0.81275 0.0
C2115 C 0.39262 0.50102 0.8109 0.0
N2116 N 0.5386 0.57576 0.80944 0.0
N2117 N 0.43834 0.50118 0.81002 0.0
H2118 H 0.30329 0.83462 0.5463 0.0
H2119 H 0.18981 0.63169 0.57436 0.0
H2120 H 0.21858 0.85582 0.57059 0.0
H2121 H 0.29616 0.61517 0.55403 0.0
H2122 H 0.19432 0.71275 0.57233 0.0
H2123 H 0.29359 0.75432 0.54798 0.0
C2124 C 0.28185 0.82244 0.55191 0.0
C2125 C 0.26161 0.85243 0.55829 0.0
C2126 C 0.21676 0.69149 0.56833 0.0
C2127 C 0.25089 0.75927 0.56036 0.0
C2128 C 0.21432 0.64505 0.56949 0.0
C2129 C 0.24279 0.61623 0.56438 0.0
C2130 C 0.24759 0.70972 0.56191 0.0
C2131 C 0.27372 0.63583 0.55817 0.0
C2132 C 0.27667 0.77632 0.55291 0.0
C2133 C 0.23436 0.83423 0.56542 0.0
N2134 N 0.2751 0.68114 0.55708 0.0
N2135 N 0.23002 0.78888 0.56629 0.0
H2136 H 0.16419 0.48138 0.2031 0.0
H2137 H 0.9168 0.56292 0.1884 0.0
H2138 H 0.14177 0.59205 0.18427 0.0
H2139 H 0.94465 0.47255 0.21134 0.0
H2140 H 0.99812 0.57402 0.18636 0.0
H2141 H 0.08302 0.4755 0.20548 0.0
C2142 C 0.14224 0.50423 0.19941 0.0
C2143 C 0.16006 0.53717 0.19346 0.0
C2144 C 0.98629 0.55215 0.19191 0.0
C2145 C 0.06657 0.53088 0.19619 0.0
C2146 C 0.9398 0.54619 0.19314 0.0
C2147 C 0.92357 0.51681 0.20007 0.0
C2148 C 1.01678 0.52829 0.1976 0.0
C2149 C 0.9553 0.49542 0.20587 0.0
C2150 C 0.0958 0.50109 0.20081 0.0
C2151 C 0.12969 0.56608 0.18892 0.0
N2152 N 0.99999 0.50126 0.20446 0.0
N2153 N 0.08464 0.56222 0.19035 0.0
H2154 H 0.3141 0.42287 0.95273 0.0
H2155 H 0.22616 0.17686 0.93858 0.0
H2156 H 0.1953 0.40228 0.93597 0.0
H2157 H 0.32035 0.20313 0.96102 0.0
H2158 H 0.21552 0.25825 0.93678 0.0
H2159 H 0.32009 0.34157 0.95481 0.0
C2160 C 0.28945 0.40136 0.94943 0.0
C2161 C 0.25416 0.4198 0.94417 0.0
C2162 C 0.23818 0.24603 0.94216 0.0
C2163 C 0.26072 0.32607 0.94652 0.0
C2164 C 0.24387 0.19946 0.94325 0.0
C2165 C 0.2741 0.18264 0.94999 0.0
C2166 C 0.26324 0.27612 0.94776 0.0
C2167 C 0.29675 0.21407 0.9557 0.0
C2168 C 0.29269 0.35482 0.95066 0.0
C2169 C 0.22307 0.38984 0.94012 0.0
N2170 N 0.2912 0.25877 0.9544 0.0
N2171 N 0.22714 0.34478 0.94134 0.0
H2172 H 0.61966 0.53426 0.70471 0.0
H2173 H 0.39247 0.44404 0.68108 0.0
H2174 H 0.6127 0.45815 0.67887 0.0
H2175 H 0.39119 0.54883 0.70204 0.0
H2176 H 0.47358 0.44124 0.68203 0.0
H2177 H 0.53731 0.53085 0.7059 0.0
C2178 C 0.60108 0.51562 0.69946 0.0
C2179 C 0.62326 0.4963 0.69168 0.0
C2180 C 0.45585 0.465 0.68644 0.0
C2181 C 0.52906 0.49283 0.69293 0.0
C2182 C 0.40925 0.46672 0.68589 0.0
C2183 C 0.38464 0.49697 0.69144 0.0
C2184 C 0.47885 0.49351 0.69265 0.0
C2185 C 0.40872 0.52532 0.69755 0.0
C2186 C 0.55398 0.51425 0.70007 0.0
C2187 C 0.59716 0.4732 0.68502 0.0
N2188 N 0.45452 0.52286 0.69801 0.0
N2189 N 0.55177 0.4723 0.68578 0.0
H2190 H 0.24213 0.86445 0.45562 0.0
H2191 H 0.34085 0.63545 0.43451 0.0
H2192 H 0.32274 0.85585 0.43042 0.0
H2193 H 0.22302 0.63686 0.45214 0.0
H2194 H 0.34374 0.71663 0.43531 0.0
H2195 H 0.24512 0.78249 0.45698 0.0
C2196 C 0.26164 0.84568 0.45054 0.0
C2197 C 0.28236 0.86743 0.44288 0.0
C2198 C 0.3172 0.69939 0.43902 0.0
C2199 C 0.28563 0.77332 0.44439 0.0
C2200 C 0.31545 0.65278 0.43857 0.0
C2201 C 0.28142 0.62887 0.44321 0.0
C2202 C 0.28504 0.7231 0.44427 0.0
C2203 C 0.24963 0.65372 0.44837 0.0
C2204 C 0.26281 0.79872 0.45126 0.0
C2205 C 0.30666 0.8408 0.43649 0.0
N2206 N 0.25227 0.69941 0.44879 0.0
N2207 N 0.30751 0.79553 0.43737 0.0
H2208 H 0.34863 1.00331 0.10827 0.0
H2209 H 0.1899 0.09378 0.14958 0.0
H2210 H 0.21687 0.05846 0.10388 0.0
H2211 H 0.30298 1.00866 0.15545 0.0
H2212 H 0.20504 0.08721 0.1328 0.0
H2213 H 0.33746 1.00973 0.12542 0.0
C2214 C 0.31735 0.01672 0.1109 0.0
C2215 C 0.28359 0.03034 0.1046 0.0
C2216 C 0.22663 0.06981 0.13771 0.0
C2217 C 0.27079 0.03803 0.12422 0.0
C2218 C 0.21793 0.07344 0.14735 0.0
C2219 C 0.24463 0.05093 0.15398 0.0
C2220 C 0.26265 0.04372 0.13455 0.0
C2221 C 0.28147 0.02643 0.1506 0.0
C2222 C 0.31098 0.02022 0.12069 0.0
C2223 C 0.2436 0.04705 0.10843 0.0
N2224 N 0.2893 0.02325 0.14109 0.0
N2225 N 0.23848 0.05065 0.11795 0.0
H2226 H 0.29822 0.9679 0.35394 0.0
H2227 H 0.19626 0.0436 0.40401 0.0
H2228 H 0.19272 0.06533 0.35689 0.0
H2229 H 0.31645 0.965 0.40097 0.0
H2230 H 0.18931 0.04583 0.38673 0.0
H2231 H 0.30043 0.96033 0.37117 0.0
C2232 C 0.27535 0.98749 0.3582 0.0
C2233 C 0.24551 0.01755 0.35395 0.0
C2234 C 0.21716 0.02804 0.38986 0.0
C2235 C 0.24784 1.00917 0.37369 0.0
C2236 C 0.22096 0.02655 0.39972 0.0
C2237 C 0.25719 1.00442 0.40394 0.0
C2238 C 0.2496 1.00687 0.38419 0.0
C2239 C 0.28843 0.98313 0.39802 0.0
C2240 C 0.27676 0.98335 0.36804 0.0
C2241 C 0.21683 0.04234 0.35985 0.0
N2242 N 0.28394 0.9849 0.38847 0.0
N2243 N 0.2187 0.03761 0.3694 0.0
H2244 H 0.20479 0.93723 0.6078 0.0
H2245 H 0.30046 0.08772 0.64984 0.0
H2246 H 0.28817 0.05278 0.6034 0.0
H2247 H 0.25894 0.95121 0.65407 0.0
H2248 H 0.28556 0.07971 0.63301 0.0
H2249 H 0.2145 0.9459 0.62492 0.0
C2250 C 0.22491 0.96459 0.61045 0.0
C2251 C 0.24569 0.99441 0.60417 0.0
C2252 C 0.27963 0.05151 0.63762 0.0
C2253 C 0.25676 1.00457 0.62373 0.0
C2254 C 0.28825 0.05597 0.64726 0.0
C2255 C 0.28172 0.01983 0.65344 0.0
C2256 C 0.26381 1.01077 0.63405 0.0
C2257 C 0.26443 0.98001 0.64963 0.0
C2258 C 0.23063 0.96934 0.62021 0.0
C2259 C 0.2719 0.02888 0.60798 0.0
N2260 N 0.25623 0.97648 0.64018 0.0
N2261 N 0.27648 0.03315 0.61751 0.0
H2262 H 0.31094 0.98663 0.90503 0.0
H2263 H 0.23583 0.07634 0.85398 0.0
H2264 H 0.21547 0.09288 0.90095 0.0
H2265 H 0.30957 0.95416 0.85813 0.0
H2266 H 0.23477 0.08778 0.87114 0.0
H2267 H 0.3177 0.97906 0.88782 0.0
C2268 C 0.29166 1.00855 0.90052 0.0
C2269 C 0.26232 0.04016 0.90446 0.0
C2270 C 0.25124 0.05848 0.86829 0.0
C2271 C 0.26978 0.03171 0.88475 0.0
C2272 C 0.25206 0.0521 0.85849 0.0
C2273 C 0.27255 1.01408 0.8546 0.0
C2274 C 0.27142 0.02686 0.87427 0.0
C2275 C 0.29275 0.98355 0.86081 0.0
C2276 C 0.29531 1.00407 0.8907 0.0
C2277 C 0.2379 0.06752 0.89825 0.0
N2278 N 0.2917 0.99061 0.87032 0.0
N2279 N 0.24218 0.06268 0.88874 0.0
H2280 H 0.71467 0.9498 0.90231 0.0
H2281 H 0.81368 0.07047 0.85692 0.0
H2282 H 0.82534 0.04175 0.904 0.0
H2283 H 0.73742 0.94857 0.85524 0.0
H2284 H 0.81586 0.06325 0.87415 0.0
H2285 H 0.71993 0.95122 0.88506 0.0
C2286 C 0.74014 0.97028 0.89902 0.0
C2287 C 0.76941 0.99598 0.90456 0.0
C2288 C 0.7989 0.03792 0.87002 0.0
C2289 C 0.77556 0.99794 0.88482 0.0
C2290 C 0.79734 0.0422 0.86019 0.0
C2291 C 0.77502 1.01022 0.85466 0.0
C2292 C 0.77738 1.00174 0.87436 0.0
C2293 C 0.75509 0.97384 0.85925 0.0
C2294 C 0.74331 0.97086 0.88919 0.0
C2295 C 0.80226 0.02139 0.89996 0.0
N2296 N 0.75632 0.97083 0.86884 0.0
N2297 N 0.80413 0.02217 0.89034 0.0
H2298 H 0.69736 0.06008 0.60899 0.0
H2299 H 0.86354 0.98407 0.65022 0.0
H2300 H 0.82159 0.98999 0.60411 0.0
H2301 H 0.739 0.05251 0.65546 0.0
H2302 H 0.84554 0.98088 0.63341 0.0
H2303 H 0.70924 0.05345 0.62598 0.0
C2304 C 0.72699 0.04293 0.61146 0.0
C2305 C 0.75851 0.02555 0.60503 0.0
C2306 C 0.82187 0.99629 0.63821 0.0
C2307 C 0.77253 0.01826 0.6246 0.0
C2308 C 0.83213 0.99809 0.64782 0.0
C2309 C 0.80291 0.01897 0.65423 0.0
C2310 C 0.7821 0.0158 0.63492 0.0
C2311 C 0.76236 0.03599 0.65076 0.0
C2312 C 0.73381 0.03934 0.6212 0.0
C2313 C 0.79663 1.00442 0.60874 0.0
N2314 N 0.75336 0.03449 0.64132 0.0
N2315 N 0.80256 1.00146 0.61825 0.0
H2316 H 0.8178 0.0884 0.40122 0.0
H2317 H 0.69953 0.95948 0.35836 0.0
H2318 H 0.71303 0.99095 0.40503 0.0
H2319 H 0.79949 0.06186 0.35455 0.0
H2320 H 0.70392 0.97052 0.37542 0.0
H2321 H 0.81131 0.07928 0.38414 0.0
C2322 C 0.79352 0.0649 0.39848 0.0
C2323 C 0.76614 0.04014 0.40461 0.0
C2324 C 0.72488 0.99064 0.37086 0.0
C2325 C 0.75825 0.02981 0.38497 0.0
C2326 C 0.72264 0.98413 0.36109 0.0
C2327 C 0.74943 1.00957 0.35497 0.0
C2328 C 0.75424 0.02275 0.37458 0.0
C2329 C 0.778 0.04169 0.35897 0.0
C2330 C 0.78965 0.05992 0.3887 0.0
C2331 C 0.73463 1.01092 0.4006 0.0
N2332 N 0.77977 0.04723 0.36851 0.0
N2333 N 0.7317 1.00641 0.39104 0.0
H2334 H 0.80194 0.94939 0.1549 0.0
H2335 H 0.72979 0.03796 0.10365 0.0
H2336 H 0.7187 0.065 0.1503 0.0
H2337 H 0.82743 0.93379 0.10795 0.0
H2338 H 0.7207 0.04423 0.12078 0.0
H2339 H 0.80705 0.93884 0.13774 0.0
C2340 C 0.78452 0.97234 0.15029 0.0
C2341 C 0.76016 1.00833 0.15404 0.0
C2342 C 0.74413 0.01997 0.11797 0.0
C2343 C 0.76595 0.99665 0.13442 0.0
C2344 C 0.74913 0.01623 0.10819 0.0
C2345 C 0.77958 0.98547 0.10434 0.0
C2346 C 0.76955 0.99257 0.12398 0.0
C2347 C 0.80411 0.95846 0.11059 0.0
C2348 C 0.78764 0.96649 0.1405 0.0
C2349 C 0.73851 0.03729 0.14773 0.0
N2350 N 0.79855 0.96263 0.12009 0.0
N2351 N 0.74193 0.03084 0.13825 0.0
H2352 H 0.81591 0.59534 0.6066 0.0
H2353 H 0.7201 0.46047 0.6508 0.0
H2354 H 0.71883 0.48953 0.60394 0.0
H2355 H 0.7965 0.58188 0.65361 0.0
H2356 H 0.7201 0.46985 0.63365 0.0
H2357 H 0.81012 0.59036 0.62378 0.0
C2358 C 0.79341 0.57096 0.60963 0.0
C2359 C 0.7681 0.5425 0.60381 0.0
C2360 C 0.7367 0.49459 0.63801 0.0
C2361 C 0.76115 0.53673 0.62354 0.0
C2362 C 0.73699 0.48909 0.6478 0.0
C2363 C 0.7587 0.52025 0.65366 0.0
C2364 C 0.75865 0.53133 0.63398 0.0
C2365 C 0.77924 0.55718 0.64938 0.0
C2366 C 0.78989 0.56835 0.61946 0.0
C2367 C 0.73881 0.51219 0.60815 0.0
N2368 N 0.77904 0.5615 0.6398 0.0
N2369 N 0.73643 0.50984 0.61775 0.0
H2370 H 0.83443 0.46913 0.90127 0.0
H2371 H 0.6657 0.5175 0.85859 0.0
H2372 H 0.69896 0.51648 0.90492 0.0
H2373 H 0.80233 0.47559 0.85423 0.0
H2374 H 0.6766 0.51246 0.87558 0.0
H2375 H 0.82275 0.46709 0.8842 0.0
C2376 C 0.80223 0.47929 0.89851 0.0
C2377 C 0.76774 0.49345 0.90461 0.0
C2378 C 0.7043 0.50425 0.87095 0.0
C2379 C 0.75403 0.49053 0.88496 0.0
C2380 C 0.69818 0.50735 0.86122 0.0
C2381 C 0.73341 0.49768 0.85495 0.0
C2382 C 0.74608 0.49138 0.87456 0.0
C2383 C 0.77431 0.48342 0.85879 0.0
C2384 C 0.79555 0.4778 0.88873 0.0
C2385 C 0.72647 0.50511 0.90056 0.0
N2386 N 0.77966 0.48103 0.86836 0.0
N2387 N 0.72089 0.50358 0.89101 0.0
H2388 H 0.71593 0.44084 0.10839 0.0
H2389 H 0.8361 0.57355 0.15051 0.0
H2390 H 0.81845 0.54014 0.10401 0.0
H2391 H 0.73719 0.47076 0.15497 0.0
H2392 H 0.83016 0.56165 0.13351 0.0
H2393 H 0.72333 0.45119 0.12542 0.0
C2394 C 0.73987 0.46503 0.11099 0.0
C2395 C 0.76642 0.48987 0.10471 0.0
C2396 C 0.80975 0.54163 0.13819 0.0
C2397 C 0.77539 0.50158 0.12431 0.0
C2398 C 0.8129 0.54862 0.14793 0.0
C2399 C 0.78686 0.52334 0.15423 0.0
C2400 C 0.78024 0.50917 0.13466 0.0
C2401 C 0.75813 0.49083 0.15042 0.0
C2402 C 0.74427 0.47071 0.12075 0.0
C2403 C 0.79751 0.52003 0.10855 0.0
N2404 N 0.75547 0.48481 0.14089 0.0
N2405 N 0.801 0.52514 0.11809 0.0
H2406 H 0.83531 0.45734 0.35769 0.0
H2407 H 0.70462 0.57603 0.40021 0.0
H2408 H 0.7349 0.55901 0.3536 0.0
H2409 H 0.81839 0.48955 0.40437 0.0
H2410 H 0.71411 0.56885 0.38314 0.0
H2411 H 0.82848 0.46718 0.37477 0.0
C2412 C 0.81164 0.48161 0.36038 0.0
C2413 C 0.7854 0.5072 0.35418 0.0
C2414 C 0.73712 0.55152 0.38777 0.0
C2415 C 0.77765 0.51889 0.37378 0.0
C2416 C 0.73154 0.55537 0.39753 0.0
C2417 C 0.76058 0.53311 0.40374 0.0
C2418 C 0.77185 0.52492 0.38415 0.0
C2419 C 0.79542 0.50751 0.39985 0.0
C2420 C 0.808 0.48743 0.37014 0.0
C2421 C 0.75596 0.53878 0.3581 0.0
N2422 N 0.79991 0.50388 0.3903 0.0
N2423 N 0.7527 0.54354 0.36764 0.0
H2424 H 0.22787 0.47313 0.35263 0.0
H2425 H 0.32537 0.53561 0.40393 0.0
H2426 H 0.35878 0.52926 0.35749 0.0
H2427 H 0.19351 0.48039 0.39955 0.0
H2428 H 0.33675 0.53605 0.38683 0.0
H2429 H 0.2121 0.47987 0.36964 0.0
C2430 C 0.25297 0.48745 0.35724 0.0
C2431 C 0.29486 0.50017 0.35365 0.0
C2432 C 0.30523 0.52396 0.3896 0.0
C2433 C 0.27747 0.50746 0.3731 0.0
C2434 C 0.29885 0.52341 0.3994 0.0
C2435 C 0.25842 0.50794 0.40325 0.0
C2436 C 0.27103 0.50875 0.38355 0.0
C2437 C 0.22502 0.49317 0.39695 0.0
C2438 C 0.24417 0.49097 0.36696 0.0
C2439 C 0.32636 0.51823 0.35997 0.0
N2440 N 0.23211 0.49382 0.38744 0.0
N2441 N 0.31715 0.52106 0.36936 0.0
H2442 H 0.34468 0.47037 0.15136 0.0
H2443 H 0.21464 0.57121 0.10693 0.0
H2444 H 0.23809 0.56688 0.15385 0.0
H2445 H 0.33424 0.4914 0.10433 0.0
H2446 H 0.22251 0.56967 0.12409 0.0
H2447 H 0.34114 0.47707 0.13418 0.0
C2448 C 0.32038 0.49288 0.14829 0.0
C2449 C 0.29132 0.51782 0.15407 0.0
C2450 C 0.2472 0.55264 0.11979 0.0
C2451 C 0.28732 0.5259 0.13434 0.0
C2452 C 0.24257 0.55326 0.10997 0.0
C2453 C 0.27362 0.53103 0.10417 0.0
C2454 C 0.28298 0.52928 0.12389 0.0
C2455 C 0.30966 0.50911 0.10852 0.0
C2456 C 0.31862 0.49693 0.13847 0.0
C2457 C 0.26121 0.54717 0.14968 0.0
N2458 N 0.31314 0.50847 0.11812 0.0
N2459 N 0.25977 0.55015 0.14009 0.0
H2460 H 0.28698 0.5816 0.85296 0.0
H2461 H 0.21247 0.48934 0.9038 0.0
H2462 H 0.20551 0.46419 0.85681 0.0
H2463 H 0.31212 0.59174 0.89979 0.0
H2464 H 0.2031 0.48462 0.88661 0.0
H2465 H 0.29022 0.59096 0.87015 0.0
C2466 C 0.26951 0.558 0.85741 0.0
C2467 C 0.24626 0.52187 0.85344 0.0
C2468 C 0.22699 0.50815 0.8895 0.0
C2469 C 0.2499 0.53219 0.87312 0.0
C2470 C 0.23214 0.51099 0.89931 0.0
C2471 C 0.26342 0.54065 0.90324 0.0
C2472 C 0.25301 0.53547 0.88358 0.0
C2473 C 0.28825 0.56779 0.89707 0.0
C2474 C 0.27157 0.56317 0.86723 0.0
C2475 C 0.2245 0.49206 0.85957 0.0
N2476 N 0.28254 0.56454 0.88757 0.0
N2477 N 0.22687 0.49786 0.86909 0.0
H2478 H 0.20775 0.57529 0.64988 0.0
H2479 H 0.31959 0.44389 0.60657 0.0
H2480 H 0.30264 0.46793 0.65335 0.0
H2481 H 0.2173 0.5443 0.60315 0.0
H2482 H 0.31419 0.45262 0.62368 0.0
H2483 H 0.21121 0.56488 0.63279 0.0
C2484 C 0.22953 0.54965 0.64706 0.0
C2485 C 0.25519 0.52263 0.6531 0.0
C2486 C 0.29285 0.47273 0.6192 0.0
C2487 C 0.25897 0.51023 0.63345 0.0
C2488 C 0.29612 0.46797 0.6094 0.0
C2489 C 0.26907 0.49364 0.60337 0.0
C2490 C 0.26242 0.50353 0.62305 0.0
C2491 C 0.2386 0.52362 0.6075 0.0
C2492 C 0.23124 0.54353 0.63728 0.0
C2493 C 0.28207 0.48933 0.64899 0.0
N2494 N 0.23625 0.52788 0.61707 0.0
N2495 N 0.2834 0.48422 0.63944 0.0
loop_
_geom_bond_atom_site_label_1
_geom_bond_atom_site_label_2
_geom_bond_distance
_geom_bond_site_symmetry_2
_ccdc_geom_bond_type
Co0 N4 2.148 . S
Co0 N10 2.128 . S
Co0 N20 2.194 . S
Co0 O25 2.351 . S
Co0 O26 2.155 1_545 S
Co0 O27 2.096 1_545 S
C1 N4 1.301 . S
C1 N5 1.328 . S
C1 H6 0.930 . S
C2 C3 1.333 . S
C2 N4 1.317 . S
C2 H7 0.930 1_545 S
C3 C2 1.333 . S
C3 N5 1.350 . S
C3 H29 0.929 1_545 S
N4 Co0 2.148 . S
N4 C1 1.301 . S
N4 C2 1.317 . S
N5 C1 1.328 . S
N5 C3 1.350 . S
H6 C1 0.930 . S
H7 C2 0.930 1_565 S
C8 O9 1.224 1_465 S
C8 O27 1.247 . S
O9 C8 1.224 1_645 S
N10 Co0 2.128 . S
N10 C11 1.355 . S
N10 C13 1.296 1_545 S
C11 N10 1.355 . S
C11 C12 1.363 . S
C11 H23 0.929 . S
C12 C11 1.363 . S
C12 N14 1.375 . S
C12 H30 0.931 . S
C13 N10 1.296 1_565 S
C13 N14 1.340 1_565 S
C13 H24 0.949 . S
N14 C12 1.375 . S
N14 C13 1.340 1_545 S
C15 C18 1.365 . S
C15 N20 1.328 . S
C15 H21 0.929 . S
C16 C17 1.362 . S
C16 C19 1.378 . S
C16 H31 0.929 1_455 S
C17 C16 1.362 . S
C17 C18 1.366 . S
C18 C15 1.365 . S
C18 C17 1.366 . S
C18 H32 0.930 . S
C19 C16 1.378 . S
C19 N20 1.315 . S
C19 H22 0.930 . S
N20 Co0 2.194 . S
N20 C15 1.328 . S
N20 C19 1.315 . S
H21 C15 0.929 . S
H22 C19 0.930 . S
H23 C11 0.929 . S
H24 C13 0.949 . S
O25 Co0 2.351 . S
O25 C28 1.244 . S
O26 Co0 2.155 1_565 S
O26 C28 1.240 1_565 S
O27 Co0 2.096 1_565 S
O27 C8 1.247 . S
C28 O25 1.244 . S
C28 O26 1.240 1_545 S
H29 C3 0.929 1_565 S
H30 C12 0.931 . S
H31 C16 0.929 1_655 S
H32 C18 0.930 . S
Co33 N37 2.148 . S
Co33 N43 2.128 . S
Co33 N53 2.194 . S
Co33 O58 2.351 . S
Co33 O59 2.155 . S
Co33 O60 2.096 . S
C34 N37 1.301 . S
C34 N38 1.328 . S
C34 H39 0.930 . S
C35 C36 1.333 . S
C35 N37 1.317 . S
C35 H40 0.930 . S
C36 C35 1.333 . S
C36 N38 1.350 . S
C36 H62 0.931 . S
N37 Co33 2.148 . S
N37 C34 1.301 . S
N37 C35 1.317 . S
N38 C34 1.328 . S
N38 C36 1.350 . S
H39 C34 0.930 . S
H40 C35 0.930 . S
C41 O42 1.224 . S
C41 O60 1.247 . S
O42 C41 1.224 . S
N43 Co33 2.128 . S
N43 C44 1.355 . S
N43 C46 1.311 . S
C44 N43 1.355 . S
C44 C45 1.363 . S
C44 H56 0.929 . S
C45 C44 1.363 . S
C45 N47 1.375 . S
C45 H63 0.931 . S
C46 N43 1.311 . S
C46 N47 1.347 . S
C46 H57 0.929 . S
N47 C45 1.375 . S
N47 C46 1.347 . S
C48 C51 1.365 . S
C48 N53 1.328 . S
C48 H54 0.929 . S
C49 C50 1.362 . S
C49 C52 1.378 . S
C49 H64 0.929 . S
C50 C49 1.362 . S
C50 C51 1.366 . S
C51 C48 1.365 . S
C51 C50 1.366 . S
C51 H65 0.930 . S
C52 C49 1.378 . S
C52 N53 1.315 . S
C52 H55 0.930 . S
N53 Co33 2.194 . S
N53 C48 1.328 . S
N53 C52 1.315 . S
H54 C48 0.929 . S
H55 C52 0.930 . S
H56 C44 0.929 . S
H57 C46 0.929 . S
O58 Co33 2.351 . S
O58 C61 1.244 . S
O59 Co33 2.155 . S
O59 C61 1.240 . S
O60 Co33 2.096 . S
O60 C41 1.247 . S
C61 O58 1.244 . S
C61 O59 1.240 . S
H62 C36 0.931 . S
H63 C45 0.931 . S
H64 C49 0.929 . S
H65 C51 0.930 . S
Co66 N70 2.148 . S
Co66 N76 2.128 . S
Co66 N86 2.194 . S
Co66 O91 2.351 . S
Co66 O92 2.155 1_565 S
Co66 O93 2.096 1_565 S
C67 N70 1.301 . S
C67 N71 1.328 . S
C67 H72 0.930 . S
C68 C69 1.333 . S
C68 N70 1.317 . S
C68 H73 0.930 1_565 S
C69 C68 1.333 . S
C69 N71 1.350 . S
C69 H95 0.929 1_565 S
N70 Co66 2.148 . S
N70 C67 1.301 . S
N70 C68 1.317 . S
N71 C67 1.328 . S
N71 C69 1.350 . S
H72 C67 0.930 . S
H73 C68 0.930 1_545 S
C74 O75 1.224 1_545 S
C74 O93 1.247 . S
O75 C74 1.224 1_565 S
N76 Co66 2.128 . S
N76 C77 1.355 . S
N76 C79 1.297 1_565 S
C77 N76 1.355 . S
C77 C78 1.363 . S
C77 H89 0.929 . S
C78 C77 1.363 . S
C78 N80 1.375 . S
C78 H96 0.931 . S
C79 N76 1.297 1_545 S
C79 N80 1.340 1_545 S
C79 H90 0.949 . S
N80 C78 1.375 . S
N80 C79 1.340 1_565 S
C81 C84 1.365 . S
C81 N86 1.328 . S
C81 H87 0.929 . S
C82 C83 1.362 . S
C82 C85 1.378 . S
C82 H97 0.929 . S
C83 C82 1.362 . S
C83 C84 1.366 . S
C84 C81 1.365 . S
C84 C83 1.366 . S
C84 H98 0.930 . S
C85 C82 1.378 . S
C85 N86 1.315 . S
C85 H88 0.930 . S
N86 Co66 2.194 . S
N86 C81 1.328 . S
N86 C85 1.315 . S
H87 C81 0.929 . S
H88 C85 0.930 . S
H89 C77 0.929 . S
H90 C79 0.949 . S
O91 Co66 2.351 . S
O91 C94 1.244 . S
O92 Co66 2.155 1_545 S
O92 C94 1.240 1_545 S
O93 Co66 2.096 1_545 S
O93 C74 1.247 . S
C94 O91 1.244 . S
C94 O92 1.240 1_565 S
H95 C69 0.929 1_545 S
H96 C78 0.931 . S
H97 C82 0.929 . S
H98 C84 0.930 . S
Co99 N103 2.148 . S
Co99 N109 2.128 . S
Co99 N119 2.194 . S
Co99 O124 2.351 . S
Co99 O125 2.155 . S
Co99 O126 2.096 . S
C100 N103 1.301 . S
C100 N104 1.328 . S
C100 H105 0.930 . S
C101 C102 1.333 . S
C101 N103 1.317 . S
C101 H106 0.930 . S
C102 C101 1.333 . S
C102 N104 1.350 . S
C102 H128 0.931 . S
N103 Co99 2.148 . S
N103 C100 1.301 . S
N103 C101 1.317 . S
N104 C100 1.328 . S
N104 C102 1.350 . S
H105 C100 0.930 . S
H106 C101 0.930 . S
C107 O108 1.224 . S
C107 O126 1.247 . S
O108 C107 1.224 . S
N109 Co99 2.128 . S
N109 C110 1.355 . S
N109 C112 1.311 . S
C110 N109 1.355 . S
C110 C111 1.363 . S
C110 H122 0.929 . S
C111 C110 1.363 . S
C111 N113 1.375 . S
C111 H129 0.931 . S
C112 N109 1.311 . S
C112 N113 1.347 . S
C112 H123 0.929 . S
N113 C111 1.375 . S
N113 C112 1.347 . S
C114 C117 1.365 . S
C114 N119 1.328 . S
C114 H120 0.929 . S
C115 C116 1.362 . S
C115 C118 1.378 . S
C115 H130 0.929 . S
C116 C115 1.362 . S
C116 C117 1.366 . S
C117 C114 1.365 . S
C117 C116 1.366 . S
C117 H131 0.930 . S
C118 C115 1.378 . S
C118 N119 1.315 . S
C118 H121 0.930 . S
N119 Co99 2.194 . S
N119 C114 1.328 . S
N119 C118 1.315 . S
H120 C114 0.929 . S
H121 C118 0.930 . S
H122 C110 0.929 . S
H123 C112 0.929 . S
O124 Co99 2.351 . S
O124 C127 1.244 . S
O125 Co99 2.155 . S
O125 C127 1.240 . S
O126 Co99 2.096 . S
O126 C107 1.247 . S
C127 O124 1.244 . S
C127 O125 1.240 . S
H128 C102 0.931 . S
H129 C111 0.931 . S
H130 C115 0.929 . S
H131 C117 0.930 . S
Co132 N136 2.148 . S
Co132 N142 2.128 . S
Co132 N152 2.194 . S
Co132 O157 2.351 . S
Co132 O158 2.155 1_565 S
Co132 O159 2.096 1_565 S
C133 N136 1.301 . S
C133 N137 1.328 . S
C133 H138 0.930 . S
C134 C135 1.333 . S
C134 N136 1.317 . S
C134 H139 0.930 1_565 S
C135 C134 1.333 . S
C135 N137 1.350 . S
C135 H161 0.929 1_565 S
N136 Co132 2.148 . S
N136 C133 1.301 . S
N136 C134 1.317 . S
N137 C133 1.328 . S
N137 C135 1.350 . S
H138 C133 0.930 . S
H139 C134 0.930 1_545 S
C140 O141 1.224 1_445 S
C140 O159 1.247 . S
O141 C140 1.224 1_665 S
N142 Co132 2.128 . S
N142 C143 1.355 . S
N142 C145 1.297 1_565 S
C143 N142 1.355 . S
C143 C144 1.363 . S
C143 H155 0.929 . S
C144 C143 1.363 . S
C144 N146 1.375 . S
C144 H162 0.931 . S
C145 N142 1.297 1_545 S
C145 N146 1.340 1_545 S
C145 H156 0.949 . S
N146 C144 1.375 . S
N146 C145 1.340 1_565 S
C147 C150 1.365 . S
C147 N152 1.328 . S
C147 H153 0.929 . S
C148 C149 1.362 . S
C148 C151 1.378 . S
C148 H163 0.929 1_455 S
C149 C148 1.362 . S
C149 C150 1.366 . S
C150 C147 1.365 . S
C150 C149 1.366 . S
C150 H164 0.930 . S
C151 C148 1.378 . S
C151 N152 1.315 . S
C151 H154 0.930 . S
N152 Co132 2.194 . S
N152 C147 1.328 . S
N152 C151 1.315 . S
H153 C147 0.929 . S
H154 C151 0.930 . S
H155 C143 0.929 . S
H156 C145 0.949 . S
O157 Co132 2.351 . S
O157 C160 1.244 . S
O158 Co132 2.155 1_545 S
O158 C160 1.240 1_545 S
O159 Co132 2.096 1_545 S
O159 C140 1.247 . S
C160 O157 1.244 . S
C160 O158 1.240 1_565 S
H161 C135 0.929 1_545 S
H162 C144 0.931 . S
H163 C148 0.929 1_655 S
H164 C150 0.930 . S
Co165 N169 2.148 . S
Co165 N175 2.128 . S
Co165 N185 2.194 . S
Co165 O190 2.351 . S
Co165 O191 2.155 . S
Co165 O192 2.096 . S
C166 N169 1.301 . S
C166 N170 1.328 . S
C166 H171 0.930 . S
C167 C168 1.333 . S
C167 N169 1.317 . S
C167 H172 0.930 . S
C168 C167 1.333 . S
C168 N170 1.350 . S
C168 H194 0.931 . S
N169 Co165 2.148 . S
N169 C166 1.301 . S
N169 C167 1.317 . S
N170 C166 1.328 . S
N170 C168 1.350 . S
H171 C166 0.930 . S
H172 C167 0.930 . S
C173 O174 1.224 . S
C173 O192 1.247 . S
O174 C173 1.224 . S
N175 Co165 2.128 . S
N175 C176 1.355 . S
N175 C178 1.311 . S
C176 N175 1.355 . S
C176 C177 1.363 . S
C176 H188 0.929 . S
C177 C176 1.363 . S
C177 N179 1.375 . S
C177 H195 0.931 . S
C178 N175 1.311 . S
C178 N179 1.347 . S
C178 H189 0.929 . S
N179 C177 1.375 . S
N179 C178 1.347 . S
C180 C183 1.365 . S
C180 N185 1.328 . S
C180 H186 0.929 . S
C181 C182 1.362 . S
C181 C184 1.378 . S
C181 H196 0.929 . S
C182 C181 1.362 . S
C182 C183 1.366 . S
C183 C180 1.365 . S
C183 C182 1.366 . S
C183 H197 0.930 . S
C184 C181 1.378 . S
C184 N185 1.315 . S
C184 H187 0.930 . S
N185 Co165 2.194 . S
N185 C180 1.328 . S
N185 C184 1.315 . S
H186 C180 0.929 . S
H187 C184 0.930 . S
H188 C176 0.929 . S
H189 C178 0.929 . S
O190 Co165 2.351 . S
O190 C193 1.244 . S
O191 Co165 2.155 . S
O191 C193 1.240 . S
O192 Co165 2.096 . S
O192 C173 1.247 . S
C193 O190 1.244 . S
C193 O191 1.240 . S
H194 C168 0.931 . S
H195 C177 0.931 . S
H196 C181 0.929 . S
H197 C183 0.930 . S
Co198 N202 2.148 . S
Co198 N208 2.128 . S
Co198 N218 2.194 . S
Co198 O223 2.351 . S
Co198 O224 2.155 1_545 S
Co198 O225 2.096 1_545 S
C199 N202 1.301 . S
C199 N203 1.328 . S
C199 H204 0.930 . S
C200 C201 1.333 . S
C200 N202 1.317 . S
C200 H205 0.930 1_545 S
C201 C200 1.333 . S
C201 N203 1.350 . S
C201 H227 0.929 1_545 S
N202 Co198 2.148 . S
N202 C199 1.301 . S
N202 C200 1.317 . S
N203 C199 1.328 . S
N203 C201 1.350 . S
H204 C199 0.930 . S
H205 C200 0.930 1_565 S
C206 O207 1.224 1_565 S
C206 O225 1.247 . S
O207 C206 1.224 1_545 S
N208 Co198 2.128 . S
N208 C209 1.355 . S
N208 C211 1.297 1_545 S
C209 N208 1.355 . S
C209 C210 1.363 . S
C209 H221 0.929 . S
C210 C209 1.363 . S
C210 N212 1.375 . S
C210 H228 0.931 . S
C211 N208 1.297 1_565 S
C211 N212 1.340 1_565 S
C211 H222 0.949 . S
N212 C210 1.375 . S
N212 C211 1.340 1_545 S
C213 C216 1.365 . S
C213 N218 1.328 . S
C213 H219 0.929 . S
C214 C215 1.362 . S
C214 C217 1.378 . S
C214 H229 0.929 . S
C215 C214 1.362 . S
C215 C216 1.366 . S
C216 C213 1.365 . S
C216 C215 1.366 . S
C216 H230 0.930 . S
C217 C214 1.378 . S
C217 N218 1.315 . S
C217 H220 0.930 . S
N218 Co198 2.194 . S
N218 C213 1.328 . S
N218 C217 1.315 . S
H219 C213 0.929 . S
H220 C217 0.930 . S
H221 C209 0.929 . S
H222 C211 0.949 . S
O223 Co198 2.351 . S
O223 C226 1.244 . S
O224 Co198 2.155 1_565 S
O224 C226 1.240 1_565 S
O225 Co198 2.096 1_565 S
O225 C206 1.247 . S
C226 O223 1.244 . S
C226 O224 1.240 1_545 S
H227 C201 0.929 1_565 S
H228 C210 0.931 . S
H229 C214 0.929 . S
H230 C216 0.930 . S
Co231 N235 2.148 . S
Co231 N241 2.128 . S
Co231 N251 2.194 . S
Co231 O256 2.351 . S
Co231 O257 2.155 . S
Co231 O258 2.096 . S
C232 N235 1.301 . S
C232 N236 1.328 . S
C232 H237 0.930 . S
C233 C234 1.333 . S
C233 N235 1.317 . S
C233 H238 0.930 . S
C234 C233 1.333 . S
C234 N236 1.350 . S
C234 H260 0.931 . S
N235 Co231 2.148 . S
N235 C232 1.301 . S
N235 C233 1.317 . S
N236 C232 1.328 . S
N236 C234 1.350 . S
H237 C232 0.930 . S
H238 C233 0.930 . S
C239 O240 1.224 . S
C239 O258 1.247 . S
O240 C239 1.224 . S
N241 Co231 2.128 . S
N241 C242 1.355 . S
N241 C244 1.311 . S
C242 N241 1.355 . S
C242 C243 1.363 . S
C242 H254 0.929 . S
C243 C242 1.363 . S
C243 N245 1.375 . S
C243 H261 0.931 . S
C244 N241 1.311 . S
C244 N245 1.347 . S
C244 H255 0.929 . S
N245 C243 1.375 . S
N245 C244 1.347 . S
C246 C249 1.365 . S
C246 N251 1.328 . S
C246 H252 0.929 . S
C247 C248 1.362 . S
C247 C250 1.378 . S
C247 H262 0.929 . S
C248 C247 1.362 . S
C248 C249 1.366 . S
C249 C246 1.365 . S
C249 C248 1.366 . S
C249 H263 0.930 . S
C250 C247 1.378 . S
C250 N251 1.315 . S
C250 H253 0.930 . S
N251 Co231 2.194 . S
N251 C246 1.328 . S
N251 C250 1.315 . S
H252 C246 0.929 . S
H253 C250 0.930 . S
H254 C242 0.929 . S
H255 C244 0.929 . S
O256 Co231 2.351 . S
O256 C259 1.244 . S
O257 Co231 2.155 . S
O257 C259 1.240 . S
O258 Co231 2.096 . S
O258 C239 1.247 . S
C259 O256 1.244 . S
C259 O257 1.240 . S
H260 C234 0.931 . S
H261 C243 0.931 . S
H262 C247 0.929 . S
H263 C249 0.930 . S
Co264 N268 2.148 . S
Co264 N274 2.128 . S
Co264 N284 2.194 . S
Co264 O289 2.351 . S
Co264 O290 2.155 1_565 S
Co264 O291 2.096 1_565 S
C265 N268 1.301 . S
C265 N269 1.328 . S
C265 H270 0.930 . S
C266 C267 1.333 . S
C266 N268 1.317 . S
C266 H271 0.930 1_565 S
C267 C266 1.333 . S
C267 N269 1.350 . S
C267 H293 0.929 1_565 S
N268 Co264 2.148 . S
N268 C265 1.301 . S
N268 C266 1.317 . S
N269 C265 1.328 . S
N269 C267 1.350 . S
H270 C265 0.930 . S
H271 C266 0.930 1_545 S
C272 O273 1.224 1_645 S
C272 O291 1.247 . S
O273 C272 1.224 1_465 S
N274 Co264 2.128 . S
N274 C275 1.355 . S
N274 C277 1.296 1_565 S
C275 N274 1.355 . S
C275 C276 1.363 . S
C275 H287 0.929 . S
C276 C275 1.363 . S
C276 N278 1.375 . S
C276 H294 0.931 . S
C277 N274 1.296 1_545 S
C277 N278 1.340 1_545 S
C277 H288 0.949 . S
N278 C276 1.375 . S
N278 C277 1.340 1_565 S
C279 C282 1.365 . S
C279 N284 1.328 . S
C279 H285 0.929 . S
C280 C281 1.362 . S
C280 C283 1.378 . S
C280 H295 0.929 1_655 S
C281 C280 1.362 . S
C281 C282 1.366 . S
C282 C279 1.365 . S
C282 C281 1.366 . S
C282 H296 0.930 . S
C283 C280 1.378 . S
C283 N284 1.315 . S
C283 H286 0.930 . S
N284 Co264 2.194 . S
N284 C279 1.328 . S
N284 C283 1.315 . S
H285 C279 0.929 . S
H286 C283 0.930 . S
H287 C275 0.929 . S
H288 C277 0.949 . S
O289 Co264 2.351 . S
O289 C292 1.244 . S
O290 Co264 2.155 1_545 S
O290 C292 1.240 1_545 S
O291 Co264 2.096 1_545 S
O291 C272 1.247 . S
C292 O289 1.244 . S
C292 O290 1.240 1_565 S
H293 C267 0.929 1_545 S
H294 C276 0.931 . S
H295 C280 0.929 1_455 S
H296 C282 0.930 . S
Co297 N301 2.148 . S
Co297 N307 2.128 . S
Co297 N317 2.194 . S
Co297 O322 2.351 . S
Co297 O323 2.155 . S
Co297 O324 2.096 . S
C298 N301 1.301 . S
C298 N302 1.328 . S
C298 H303 0.930 . S
C299 C300 1.333 . S
C299 N301 1.317 . S
C299 H304 0.930 . S
C300 C299 1.333 . S
C300 N302 1.350 . S
C300 H326 0.931 . S
N301 Co297 2.148 . S
N301 C298 1.301 . S
N301 C299 1.317 . S
N302 C298 1.328 . S
N302 C300 1.350 . S
H303 C298 0.930 . S
H304 C299 0.930 . S
C305 O306 1.224 . S
C305 O324 1.247 . S
O306 C305 1.224 . S
N307 Co297 2.128 . S
N307 C308 1.355 . S
N307 C310 1.311 . S
C308 N307 1.355 . S
C308 C309 1.363 . S
C308 H320 0.929 . S
C309 C308 1.363 . S
C309 N311 1.375 . S
C309 H327 0.931 . S
C310 N307 1.311 . S
C310 N311 1.347 . S
C310 H321 0.929 . S
N311 C309 1.375 . S
N311 C310 1.347 . S
C312 C315 1.365 . S
C312 N317 1.328 . S
C312 H318 0.929 . S
C313 C314 1.362 . S
C313 C316 1.378 . S
C313 H328 0.929 . S
C314 C313 1.362 . S
C314 C315 1.366 . S
C315 C312 1.365 . S
C315 C314 1.366 . S
C315 H329 0.930 . S
C316 C313 1.378 . S
C316 N317 1.315 . S
C316 H319 0.930 . S
N317 Co297 2.194 . S
N317 C312 1.328 . S
N317 C316 1.315 . S
H318 C312 0.929 . S
H319 C316 0.930 . S
H320 C308 0.929 . S
H321 C310 0.929 . S
O322 Co297 2.351 . S
O322 C325 1.244 . S
O323 Co297 2.155 . S
O323 C325 1.240 . S
O324 Co297 2.096 . S
O324 C305 1.247 . S
C325 O322 1.244 . S
C325 O323 1.240 . S
H326 C300 0.931 . S
H327 C309 0.931 . S
H328 C313 0.929 . S
H329 C315 0.930 . S
Co330 N334 2.148 . S
Co330 N340 2.128 . S
Co330 N350 2.194 . S
Co330 O355 2.351 . S
Co330 O356 2.155 1_545 S
Co330 O357 2.096 1_545 S
C331 N334 1.301 . S
C331 N335 1.328 . S
C331 H336 0.930 . S
C332 C333 1.333 . S
C332 N334 1.317 . S
C332 H337 0.930 1_545 S
C333 C332 1.333 . S
C333 N335 1.350 . S
C333 H359 0.929 1_545 S
N334 Co330 2.148 . S
N334 C331 1.301 . S
N334 C332 1.317 . S
N335 C331 1.328 . S
N335 C333 1.350 . S
H336 C331 0.930 . S
H337 C332 0.930 1_565 S
C338 O339 1.224 1_565 S
C338 O357 1.247 . S
O339 C338 1.224 1_545 S
N340 Co330 2.128 . S
N340 C341 1.355 . S
N340 C343 1.297 1_545 S
C341 N340 1.355 . S
C341 C342 1.363 . S
C341 H353 0.929 . S
C342 C341 1.363 . S
C342 N344 1.375 . S
C342 H360 0.931 . S
C343 N340 1.297 1_565 S
C343 N344 1.340 1_565 S
C343 H354 0.949 . S
N344 C342 1.375 . S
N344 C343 1.340 1_545 S
C345 C348 1.365 . S
C345 N350 1.328 . S
C345 H351 0.929 . S
C346 C347 1.362 . S
C346 C349 1.378 . S
C346 H361 0.929 . S
C347 C346 1.362 . S
C347 C348 1.366 . S
C348 C345 1.365 . S
C348 C347 1.366 . S
C348 H362 0.930 . S
C349 C346 1.378 . S
C349 N350 1.315 . S
C349 H352 0.930 . S
N350 Co330 2.194 . S
N350 C345 1.328 . S
N350 C349 1.315 . S
H351 C345 0.929 . S
H352 C349 0.930 . S
H353 C341 0.929 . S
H354 C343 0.949 . S
O355 Co330 2.351 . S
O355 C358 1.244 . S
O356 Co330 2.155 1_565 S
O356 C358 1.240 1_565 S
O357 Co330 2.096 1_565 S
O357 C338 1.247 . S
C358 O355 1.244 . S
C358 O356 1.240 1_545 S
H359 C333 0.929 1_565 S
H360 C342 0.931 . S
H361 C346 0.929 . S
H362 C348 0.930 . S
Co363 N367 2.148 . S
Co363 N373 2.128 . S
Co363 N383 2.194 . S
Co363 O388 2.351 . S
Co363 O389 2.155 . S
Co363 O390 2.096 . S
C364 N367 1.301 . S
C364 N368 1.328 . S
C364 H369 0.930 . S
C365 C366 1.333 . S
C365 N367 1.317 . S
C365 H370 0.930 . S
C366 C365 1.333 . S
C366 N368 1.350 . S
C366 H392 0.931 . S
N367 Co363 2.148 . S
N367 C364 1.301 . S
N367 C365 1.317 . S
N368 C364 1.328 . S
N368 C366 1.350 . S
H369 C364 0.930 . S
H370 C365 0.930 . S
C371 O372 1.224 . S
C371 O390 1.247 . S
O372 C371 1.224 . S
N373 Co363 2.128 . S
N373 C374 1.355 . S
N373 C376 1.311 . S
C374 N373 1.355 . S
C374 C375 1.363 . S
C374 H386 0.929 . S
C375 C374 1.363 . S
C375 N377 1.375 . S
C375 H393 0.931 . S
C376 N373 1.311 . S
C376 N377 1.347 . S
C376 H387 0.929 . S
N377 C375 1.375 . S
N377 C376 1.347 . S
C378 C381 1.365 . S
C378 N383 1.328 . S
C378 H384 0.929 . S
C379 C380 1.362 . S
C379 C382 1.378 . S
C379 H394 0.929 . S
C380 C379 1.362 . S
C380 C381 1.366 . S
C381 C378 1.365 . S
C381 C380 1.366 . S
C381 H395 0.930 . S
C382 C379 1.378 . S
C382 N383 1.315 . S
C382 H385 0.930 . S
N383 Co363 2.194 . S
N383 C378 1.328 . S
N383 C382 1.315 . S
H384 C378 0.929 . S
H385 C382 0.930 . S
H386 C374 0.929 . S
H387 C376 0.929 . S
O388 Co363 2.351 . S
O388 C391 1.244 . S
O389 Co363 2.155 . S
O389 C391 1.240 . S
O390 Co363 2.096 . S
O390 C371 1.247 . S
C391 O388 1.244 . S
C391 O389 1.240 . S
H392 C366 0.931 . S
H393 C375 0.931 . S
H394 C379 0.929 . S
H395 C381 0.930 . S
Co396 N400 2.148 . S
Co396 N406 2.128 . S
Co396 N416 2.194 . S
Co396 O421 2.351 . S
Co396 O422 2.155 1_545 S
Co396 O423 2.096 1_545 S
C397 N400 1.301 . S
C397 N401 1.328 . S
C397 H402 0.930 . S
C398 C399 1.333 . S
C398 N400 1.317 . S
C398 H403 0.930 1_545 S
C399 C398 1.333 . S
C399 N401 1.350 . S
C399 H425 0.929 1_545 S
N400 Co396 2.148 . S
N400 C397 1.301 . S
N400 C398 1.317 . S
N401 C397 1.328 . S
N401 C399 1.350 . S
H402 C397 0.930 . S
H403 C398 0.930 1_565 S
C404 O405 1.224 1_665 S
C404 O423 1.247 . S
O405 C404 1.224 1_445 S
N406 Co396 2.128 . S
N406 C407 1.355 . S
N406 C409 1.297 1_545 S
C407 N406 1.355 . S
C407 C408 1.363 . S
C407 H419 0.929 . S
C408 C407 1.363 . S
C408 N410 1.375 . S
C408 H426 0.931 . S
C409 N406 1.297 1_565 S
C409 N410 1.340 1_565 S
C409 H420 0.949 . S
N410 C408 1.375 . S
N410 C409 1.340 1_545 S
C411 C414 1.365 . S
C411 N416 1.328 . S
C411 H417 0.929 . S
C412 C413 1.362 . S
C412 C415 1.378 . S
C412 H427 0.929 1_655 S
C413 C412 1.362 . S
C413 C414 1.366 . S
C414 C411 1.365 . S
C414 C413 1.366 . S
C414 H428 0.930 . S
C415 C412 1.378 . S
C415 N416 1.315 . S
C415 H418 0.930 . S
N416 Co396 2.194 . S
N416 C411 1.328 . S
N416 C415 1.315 . S
H417 C411 0.929 . S
H418 C415 0.930 . S
H419 C407 0.929 . S
H420 C409 0.949 . S
O421 Co396 2.351 . S
O421 C424 1.244 . S
O422 Co396 2.155 1_565 S
O422 C424 1.240 1_565 S
O423 Co396 2.096 1_565 S
O423 C404 1.247 . S
C424 O421 1.244 . S
C424 O422 1.240 1_545 S
H425 C399 0.929 1_565 S
H426 C408 0.931 . S
H427 C412 0.929 1_455 S
H428 C414 0.930 . S
Co429 N433 2.148 . S
Co429 N439 2.128 . S
Co429 N449 2.194 . S
Co429 O454 2.351 . S
Co429 O455 2.155 . S
Co429 O456 2.096 . S
C430 N433 1.301 . S
C430 N434 1.328 . S
C430 H435 0.930 . S
C431 C432 1.333 . S
C431 N433 1.317 . S
C431 H436 0.930 . S
C432 C431 1.333 . S
C432 N434 1.350 . S
C432 H458 0.931 . S
N433 Co429 2.148 . S
N433 C430 1.301 . S
N433 C431 1.317 . S
N434 C430 1.328 . S
N434 C432 1.350 . S
H435 C430 0.930 . S
H436 C431 0.930 . S
C437 O438 1.224 . S
C437 O456 1.247 . S
O438 C437 1.224 . S
N439 Co429 2.128 . S
N439 C440 1.355 . S
N439 C442 1.311 . S
C440 N439 1.355 . S
C440 C441 1.363 . S
C440 H452 0.929 . S
C441 C440 1.363 . S
C441 N443 1.375 . S
C441 H459 0.931 . S
C442 N439 1.311 . S
C442 N443 1.347 . S
C442 H453 0.929 . S
N443 C441 1.375 . S
N443 C442 1.347 . S
C444 C447 1.365 . S
C444 N449 1.328 . S
C444 H450 0.929 . S
C445 C446 1.362 . S
C445 C448 1.378 . S
C445 H460 0.929 . S
C446 C445 1.362 . S
C446 C447 1.366 . S
C447 C444 1.365 . S
C447 C446 1.366 . S
C447 H461 0.930 . S
C448 C445 1.378 . S
C448 N449 1.315 . S
C448 H451 0.930 . S
N449 Co429 2.194 . S
N449 C444 1.328 . S
N449 C448 1.315 . S
H450 C444 0.929 . S
H451 C448 0.930 . S
H452 C440 0.929 . S
H453 C442 0.929 . S
O454 Co429 2.351 . S
O454 C457 1.244 . S
O455 Co429 2.155 . S
O455 C457 1.240 . S
O456 Co429 2.096 . S
O456 C437 1.247 . S
C457 O454 1.244 . S
C457 O455 1.240 . S
H458 C432 0.931 . S
H459 C441 0.931 . S
H460 C445 0.929 . S
H461 C447 0.930 . S
Co462 N466 2.148 . S
Co462 N472 2.128 . S
Co462 N482 2.194 . S
Co462 O487 2.351 . S
Co462 O488 2.155 1_565 S
Co462 O489 2.096 1_565 S
C463 N466 1.301 . S
C463 N467 1.328 . S
C463 H468 0.930 . S
C464 C465 1.333 . S
C464 N466 1.317 . S
C464 H469 0.930 1_565 S
C465 C464 1.333 . S
C465 N467 1.350 . S
C465 H491 0.929 1_565 S
N466 Co462 2.148 . S
N466 C463 1.301 . S
N466 C464 1.317 . S
N467 C463 1.328 . S
N467 C465 1.350 . S
H468 C463 0.930 . S
H469 C464 0.930 1_545 S
C470 O471 1.224 1_545 S
C470 O489 1.247 . S
O471 C470 1.224 1_565 S
N472 Co462 2.128 . S
N472 C473 1.355 . S
N472 C475 1.297 1_565 S
C473 N472 1.355 . S
C473 C474 1.363 . S
C473 H485 0.929 . S
C474 C473 1.363 . S
C474 N476 1.375 . S
C474 H492 0.931 . S
C475 N472 1.297 1_545 S
C475 N476 1.340 1_545 S
C475 H486 0.949 . S
N476 C474 1.375 . S
N476 C475 1.340 1_565 S
C477 C480 1.365 . S
C477 N482 1.328 . S
C477 H483 0.929 . S
C478 C479 1.362 . S
C478 C481 1.378 . S
C478 H493 0.929 . S
C479 C478 1.362 . S
C479 C480 1.366 . S
C480 C477 1.365 . S
C480 C479 1.366 . S
C480 H494 0.930 . S
C481 C478 1.378 . S
C481 N482 1.315 . S
C481 H484 0.930 . S
N482 Co462 2.194 . S
N482 C477 1.328 . S
N482 C481 1.315 . S
H483 C477 0.929 . S
H484 C481 0.930 . S
H485 C473 0.929 . S
H486 C475 0.949 . S
O487 Co462 2.351 . S
O487 C490 1.244 . S
O488 Co462 2.155 1_545 S
O488 C490 1.240 1_545 S
O489 Co462 2.096 1_545 S
O489 C470 1.247 . S
C490 O487 1.244 . S
C490 O488 1.240 1_565 S
H491 C465 0.929 1_545 S
H492 C474 0.931 . S
H493 C478 0.929 . S
H494 C480 0.930 . S
Co495 N499 2.148 . S
Co495 N505 2.128 . S
Co495 N515 2.194 . S
Co495 O520 2.351 . S
Co495 O521 2.155 . S
Co495 O522 2.096 . S
C496 N499 1.301 . S
C496 N500 1.328 . S
C496 H501 0.930 . S
C497 C498 1.333 . S
C497 N499 1.317 . S
C497 H502 0.930 . S
C498 C497 1.333 . S
C498 N500 1.350 . S
C498 H524 0.931 . S
N499 Co495 2.148 . S
N499 C496 1.301 . S
N499 C497 1.317 . S
N500 C496 1.328 . S
N500 C498 1.350 . S
H501 C496 0.930 . S
H502 C497 0.930 . S
C503 O504 1.224 . S
C503 O522 1.247 . S
O504 C503 1.224 . S
N505 Co495 2.128 . S
N505 C506 1.355 . S
N505 C508 1.311 . S
C506 N505 1.355 . S
C506 C507 1.363 . S
C506 H518 0.929 . S
C507 C506 1.363 . S
C507 N509 1.375 . S
C507 H525 0.931 . S
C508 N505 1.311 . S
C508 N509 1.347 . S
C508 H519 0.929 . S
N509 C507 1.375 . S
N509 C508 1.347 . S
C510 C513 1.365 . S
C510 N515 1.328 . S
C510 H516 0.929 . S
C511 C512 1.362 . S
C511 C514 1.378 . S
C511 H526 0.929 . S
C512 C511 1.362 . S
C512 C513 1.366 . S
C513 C510 1.365 . S
C513 C512 1.366 . S
C513 H527 0.930 . S
C514 C511 1.378 . S
C514 N515 1.315 . S
C514 H517 0.930 . S
N515 Co495 2.194 . S
N515 C510 1.328 . S
N515 C514 1.315 . S
H516 C510 0.929 . S
H517 C514 0.930 . S
H518 C506 0.929 . S
H519 C508 0.929 . S
O520 Co495 2.351 . S
O520 C523 1.244 . S
O521 Co495 2.155 . S
O521 C523 1.240 . S
O522 Co495 2.096 . S
O522 C503 1.247 . S
C523 O520 1.244 . S
C523 O521 1.240 . S
H524 C498 0.931 . S
H525 C507 0.931 . S
H526 C511 0.929 . S
H527 C513 0.930 . S
Co528 N532 2.148 . S
Co528 N538 2.128 . S
Co528 N548 2.194 . S
Co528 O553 2.351 . S
Co528 O554 2.155 . S
Co528 O555 2.096 . S
C529 N532 1.301 . S
C529 N533 1.328 . S
C529 H534 0.930 . S
C530 C531 1.333 . S
C530 N532 1.317 . S
C530 H535 0.930 . S
C531 C530 1.333 . S
C531 N533 1.350 . S
C531 H557 0.931 . S
N532 Co528 2.148 . S
N532 C529 1.301 . S
N532 C530 1.317 . S
N533 C529 1.328 . S
N533 C531 1.350 . S
H534 C529 0.930 . S
H535 C530 0.930 . S
C536 O537 1.224 . S
C536 O555 1.247 . S
O537 C536 1.224 . S
N538 Co528 2.128 . S
N538 C539 1.355 . S
N538 C541 1.311 . S
C539 N538 1.355 . S
C539 C540 1.363 . S
C539 H551 0.929 . S
C540 C539 1.363 . S
C540 N542 1.375 . S
C540 H558 0.931 . S
C541 N538 1.311 . S
C541 N542 1.347 . S
C541 H552 0.929 . S
N542 C540 1.375 . S
N542 C541 1.347 . S
C543 C546 1.365 . S
C543 N548 1.328 . S
C543 H549 0.929 . S
C544 C545 1.362 . S
C544 C547 1.378 . S
C544 H559 0.929 . S
C545 C544 1.362 . S
C545 C546 1.366 . S
C546 C543 1.365 . S
C546 C545 1.366 . S
C546 H560 0.930 . S
C547 C544 1.378 . S
C547 N548 1.315 . S
C547 H550 0.930 . S
N548 Co528 2.194 . S
N548 C543 1.328 . S
N548 C547 1.315 . S
H549 C543 0.929 . S
H550 C547 0.930 . S
H551 C539 0.929 . S
H552 C541 0.929 . S
O553 Co528 2.351 . S
O553 C556 1.244 . S
O554 Co528 2.155 . S
O554 C556 1.240 . S
O555 Co528 2.096 . S
O555 C536 1.247 . S
C556 O553 1.244 . S
C556 O554 1.240 . S
H557 C531 0.931 . S
H558 C540 0.931 . S
H559 C544 0.929 . S
H560 C546 0.930 . S
Co561 N565 2.148 . S
Co561 N571 2.128 . S
Co561 N581 2.194 . S
Co561 O586 2.351 . S
Co561 O587 2.155 . S
Co561 O588 2.096 . S
C562 N565 1.301 . S
C562 N566 1.328 . S
C562 H567 0.930 . S
C563 C564 1.333 . S
C563 N565 1.317 . S
C563 H568 0.930 . S
C564 C563 1.333 . S
C564 N566 1.350 . S
C564 H590 0.931 . S
N565 Co561 2.148 . S
N565 C562 1.301 . S
N565 C563 1.317 . S
N566 C562 1.328 . S
N566 C564 1.350 . S
H567 C562 0.930 . S
H568 C563 0.930 . S
C569 O570 1.224 . S
C569 O588 1.247 . S
O570 C569 1.224 . S
N571 Co561 2.128 . S
N571 C572 1.355 . S
N571 C574 1.311 . S
C572 N571 1.355 . S
C572 C573 1.363 . S
C572 H584 0.929 . S
C573 C572 1.363 . S
C573 N575 1.375 . S
C573 H591 0.931 . S
C574 N571 1.311 . S
C574 N575 1.347 . S
C574 H585 0.929 . S
N575 C573 1.375 . S
N575 C574 1.347 . S
C576 C579 1.365 . S
C576 N581 1.328 . S
C576 H582 0.929 . S
C577 C578 1.362 . S
C577 C580 1.378 . S
C577 H592 0.929 . S
C578 C577 1.362 . S
C578 C579 1.366 . S
C579 C576 1.365 . S
C579 C578 1.366 . S
C579 H593 0.930 . S
C580 C577 1.378 . S
C580 N581 1.315 . S
C580 H583 0.930 . S
N581 Co561 2.194 . S
N581 C576 1.328 . S
N581 C580 1.315 . S
H582 C576 0.929 . S
H583 C580 0.930 . S
H584 C572 0.929 . S
H585 C574 0.929 . S
O586 Co561 2.351 . S
O586 C589 1.244 . S
O587 Co561 2.155 . S
O587 C589 1.240 . S
O588 Co561 2.096 . S
O588 C569 1.247 . S
C589 O586 1.244 . S
C589 O587 1.240 . S
H590 C564 0.931 . S
H591 C573 0.931 . S
H592 C577 0.929 . S
H593 C579 0.930 . S
Co594 N598 2.148 . S
Co594 N604 2.128 . S
Co594 N614 2.194 . S
Co594 O619 2.351 . S
Co594 O620 2.155 . S
Co594 O621 2.096 . S
C595 N598 1.301 . S
C595 N599 1.328 . S
C595 H600 0.930 . S
C596 C597 1.333 . S
C596 N598 1.317 . S
C596 H601 0.930 . S
C597 C596 1.333 . S
C597 N599 1.350 . S
C597 H623 0.931 . S
N598 Co594 2.148 . S
N598 C595 1.301 . S
N598 C596 1.317 . S
N599 C595 1.328 . S
N599 C597 1.350 . S
H600 C595 0.930 . S
H601 C596 0.930 . S
C602 O603 1.224 1_655 S
C602 O621 1.247 . S
O603 C602 1.224 1_455 S
N604 Co594 2.128 . S
N604 C605 1.355 . S
N604 C607 1.311 . S
C605 N604 1.355 . S
C605 C606 1.363 . S
C605 H617 0.929 . S
C606 C605 1.363 . S
C606 N608 1.375 . S
C606 H624 0.931 . S
C607 N604 1.311 . S
C607 N608 1.347 . S
C607 H618 0.929 . S
N608 C606 1.375 . S
N608 C607 1.347 . S
C609 C612 1.365 . S
C609 N614 1.328 . S
C609 H615 0.929 . S
C610 C611 1.362 . S
C610 C613 1.378 . S
C610 H625 0.929 1_655 S
C611 C610 1.362 . S
C611 C612 1.366 . S
C612 C609 1.365 . S
C612 C611 1.366 . S
C612 H626 0.930 . S
C613 C610 1.378 . S
C613 N614 1.315 . S
C613 H616 0.930 . S
N614 Co594 2.194 . S
N614 C609 1.328 . S
N614 C613 1.315 . S
H615 C609 0.929 . S
H616 C613 0.930 . S
H617 C605 0.929 . S
H618 C607 0.929 . S
O619 Co594 2.351 . S
O619 C622 1.244 . S
O620 Co594 2.155 . S
O620 C622 1.240 . S
O621 Co594 2.096 . S
O621 C602 1.247 . S
C622 O619 1.244 . S
C622 O620 1.240 . S
H623 C597 0.931 . S
H624 C606 0.931 . S
H625 C610 0.929 1_455 S
H626 C612 0.930 . S
Co627 N631 2.148 . S
Co627 N637 2.128 . S
Co627 N647 2.194 . S
Co627 O652 2.351 . S
Co627 O653 2.155 . S
Co627 O654 2.096 . S
C628 N631 1.301 . S
C628 N632 1.328 . S
C628 H633 0.930 . S
C629 C630 1.333 . S
C629 N631 1.317 . S
C629 H634 0.930 . S
C630 C629 1.333 . S
C630 N632 1.350 . S
C630 H656 0.931 . S
N631 Co627 2.148 . S
N631 C628 1.301 . S
N631 C629 1.317 . S
N632 C628 1.328 . S
N632 C630 1.350 . S
H633 C628 0.930 . S
H634 C629 0.930 . S
C635 O636 1.224 . S
C635 O654 1.247 . S
O636 C635 1.224 . S
N637 Co627 2.128 . S
N637 C638 1.355 . S
N637 C640 1.311 . S
C638 N637 1.355 . S
C638 C639 1.363 . S
C638 H650 0.929 . S
C639 C638 1.363 . S
C639 N641 1.375 . S
C639 H657 0.931 . S
C640 N637 1.311 . S
C640 N641 1.347 . S
C640 H651 0.929 . S
N641 C639 1.375 . S
N641 C640 1.347 . S
C642 C645 1.365 . S
C642 N647 1.328 . S
C642 H648 0.929 . S
C643 C644 1.362 . S
C643 C646 1.378 . S
C643 H658 0.929 . S
C644 C643 1.362 . S
C644 C645 1.366 . S
C645 C642 1.365 . S
C645 C644 1.366 . S
C645 H659 0.930 . S
C646 C643 1.378 . S
C646 N647 1.315 . S
C646 H649 0.930 . S
N647 Co627 2.194 . S
N647 C642 1.328 . S
N647 C646 1.315 . S
H648 C642 0.929 . S
H649 C646 0.930 . S
H650 C638 0.929 . S
H651 C640 0.929 . S
O652 Co627 2.351 . S
O652 C655 1.244 . S
O653 Co627 2.155 . S
O653 C655 1.240 . S
O654 Co627 2.096 . S
O654 C635 1.247 . S
C655 O652 1.244 . S
C655 O653 1.240 . S
H656 C630 0.931 . S
H657 C639 0.931 . S
H658 C643 0.929 . S
H659 C645 0.930 . S
Co660 N664 2.148 . S
Co660 N670 2.128 . S
Co660 N680 2.194 . S
Co660 O685 2.351 . S
Co660 O686 2.155 . S
Co660 O687 2.096 . S
C661 N664 1.301 . S
C661 N665 1.328 . S
C661 H666 0.930 . S
C662 C663 1.333 . S
C662 N664 1.317 . S
C662 H667 0.930 . S
C663 C662 1.333 . S
C663 N665 1.350 . S
C663 H689 0.931 . S
N664 Co660 2.148 . S
N664 C661 1.301 . S
N664 C662 1.317 . S
N665 C661 1.328 . S
N665 C663 1.350 . S
H666 C661 0.930 . S
H667 C662 0.930 . S
C668 O669 1.224 . S
C668 O687 1.247 . S
O669 C668 1.224 . S
N670 Co660 2.128 . S
N670 C671 1.355 . S
N670 C673 1.311 . S
C671 N670 1.355 . S
C671 C672 1.363 . S
C671 H683 0.929 . S
C672 C671 1.363 . S
C672 N674 1.375 . S
C672 H690 0.931 . S
C673 N670 1.311 . S
C673 N674 1.347 . S
C673 H684 0.929 . S
N674 C672 1.375 . S
N674 C673 1.347 . S
C675 C678 1.365 . S
C675 N680 1.328 . S
C675 H681 0.929 . S
C676 C677 1.362 . S
C676 C679 1.378 . S
C676 H691 0.929 . S
C677 C676 1.362 . S
C677 C678 1.366 . S
C678 C675 1.365 . S
C678 C677 1.366 . S
C678 H692 0.930 . S
C679 C676 1.378 . S
C679 N680 1.315 . S
C679 H682 0.930 . S
N680 Co660 2.194 . S
N680 C675 1.328 . S
N680 C679 1.315 . S
H681 C675 0.929 . S
H682 C679 0.930 . S
H683 C671 0.929 . S
H684 C673 0.929 . S
O685 Co660 2.351 . S
O685 C688 1.244 . S
O686 Co660 2.155 . S
O686 C688 1.240 . S
O687 Co660 2.096 . S
O687 C668 1.247 . S
C688 O685 1.244 . S
C688 O686 1.240 . S
H689 C663 0.931 . S
H690 C672 0.931 . S
H691 C676 0.929 . S
H692 C678 0.930 . S
Co693 N697 2.148 . S
Co693 N703 2.128 . S
Co693 N713 2.194 . S
Co693 O718 2.351 . S
Co693 O719 2.155 . S
Co693 O720 2.096 . S
C694 N697 1.301 . S
C694 N698 1.328 . S
C694 H699 0.930 . S
C695 C696 1.333 . S
C695 N697 1.317 . S
C695 H700 0.930 . S
C696 C695 1.333 . S
C696 N698 1.350 . S
C696 H722 0.931 . S
N697 Co693 2.148 . S
N697 C694 1.301 . S
N697 C695 1.317 . S
N698 C694 1.328 . S
N698 C696 1.350 . S
H699 C694 0.930 . S
H700 C695 0.930 . S
C701 O702 1.224 . S
C701 O720 1.247 . S
O702 C701 1.224 . S
N703 Co693 2.128 . S
N703 C704 1.355 . S
N703 C706 1.311 . S
C704 N703 1.355 . S
C704 C705 1.363 . S
C704 H716 0.929 . S
C705 C704 1.363 . S
C705 N707 1.375 . S
C705 H723 0.931 . S
C706 N703 1.311 . S
C706 N707 1.347 . S
C706 H717 0.929 . S
N707 C705 1.375 . S
N707 C706 1.347 . S
C708 C711 1.365 . S
C708 N713 1.328 . S
C708 H714 0.929 . S
C709 C710 1.362 . S
C709 C712 1.378 . S
C709 H724 0.929 . S
C710 C709 1.362 . S
C710 C711 1.366 . S
C711 C708 1.365 . S
C711 C710 1.366 . S
C711 H725 0.930 . S
C712 C709 1.378 . S
C712 N713 1.315 . S
C712 H715 0.930 . S
N713 Co693 2.194 . S
N713 C708 1.328 . S
N713 C712 1.315 . S
H714 C708 0.929 . S
H715 C712 0.930 . S
H716 C704 0.929 . S
H717 C706 0.929 . S
O718 Co693 2.351 . S
O718 C721 1.244 . S
O719 Co693 2.155 . S
O719 C721 1.240 . S
O720 Co693 2.096 . S
O720 C701 1.247 . S
C721 O718 1.244 . S
C721 O719 1.240 . S
H722 C696 0.931 . S
H723 C705 0.931 . S
H724 C709 0.929 . S
H725 C711 0.930 . S
Co726 N730 2.148 . S
Co726 N736 2.128 . S
Co726 N746 2.194 . S
Co726 O751 2.351 . S
Co726 O752 2.155 . S
Co726 O753 2.096 . S
C727 N730 1.301 . S
C727 N731 1.328 . S
C727 H732 0.930 . S
C728 C729 1.333 . S
C728 N730 1.317 . S
C728 H733 0.930 . S
C729 C728 1.333 . S
C729 N731 1.350 . S
C729 H755 0.931 . S
N730 Co726 2.148 . S
N730 C727 1.301 . S
N730 C728 1.317 . S
N731 C727 1.328 . S
N731 C729 1.350 . S
H732 C727 0.930 . S
H733 C728 0.930 . S
C734 O735 1.224 1_655 S
C734 O753 1.247 . S
O735 C734 1.224 1_455 S
N736 Co726 2.128 . S
N736 C737 1.355 . S
N736 C739 1.311 . S
C737 N736 1.355 . S
C737 C738 1.363 . S
C737 H749 0.929 . S
C738 C737 1.363 . S
C738 N740 1.375 . S
C738 H756 0.931 . S
C739 N736 1.311 . S
C739 N740 1.347 . S
C739 H750 0.929 . S
N740 C738 1.375 . S
N740 C739 1.347 . S
C741 C744 1.365 . S
C741 N746 1.328 . S
C741 H747 0.929 . S
C742 C743 1.362 . S
C742 C745 1.378 . S
C742 H757 0.929 1_655 S
C743 C742 1.362 . S
C743 C744 1.366 . S
C744 C741 1.365 . S
C744 C743 1.366 . S
C744 H758 0.930 . S
C745 C742 1.378 . S
C745 N746 1.315 . S
C745 H748 0.930 . S
N746 Co726 2.194 . S
N746 C741 1.328 . S
N746 C745 1.315 . S
H747 C741 0.929 . S
H748 C745 0.930 . S
H749 C737 0.929 . S
H750 C739 0.929 . S
O751 Co726 2.351 . S
O751 C754 1.244 . S
O752 Co726 2.155 . S
O752 C754 1.240 . S
O753 Co726 2.096 . S
O753 C734 1.247 . S
C754 O751 1.244 . S
C754 O752 1.240 . S
H755 C729 0.931 . S
H756 C738 0.931 . S
H757 C742 0.929 1_455 S
H758 C744 0.930 . S
Co759 N763 2.148 . S
Co759 N769 2.128 . S
Co759 N779 2.194 . S
Co759 O784 2.351 . S
Co759 O785 2.155 . S
Co759 O786 2.096 . S
C760 N763 1.301 . S
C760 N764 1.328 . S
C760 H765 0.930 . S
C761 C762 1.333 . S
C761 N763 1.317 . S
C761 H766 0.930 . S
C762 C761 1.333 . S
C762 N764 1.350 . S
C762 H788 0.931 . S
N763 Co759 2.148 . S
N763 C760 1.301 . S
N763 C761 1.317 . S
N764 C760 1.328 . S
N764 C762 1.350 . S
H765 C760 0.930 . S
H766 C761 0.930 . S
C767 O768 1.224 . S
C767 O786 1.247 . S
O768 C767 1.224 . S
N769 Co759 2.128 . S
N769 C770 1.355 . S
N769 C772 1.311 . S
C770 N769 1.355 . S
C770 C771 1.363 . S
C770 H782 0.929 . S
C771 C770 1.363 . S
C771 N773 1.375 . S
C771 H789 0.931 . S
C772 N769 1.311 . S
C772 N773 1.347 . S
C772 H783 0.929 . S
N773 C771 1.375 . S
N773 C772 1.347 . S
C774 C777 1.365 . S
C774 N779 1.328 . S
C774 H780 0.929 . S
C775 C776 1.362 . S
C775 C778 1.378 . S
C775 H790 0.929 . S
C776 C775 1.362 . S
C776 C777 1.366 . S
C777 C774 1.365 . S
C777 C776 1.366 . S
C777 H791 0.930 . S
C778 C775 1.378 . S
C778 N779 1.315 . S
C778 H781 0.930 . S
N779 Co759 2.194 . S
N779 C774 1.328 . S
N779 C778 1.315 . S
H780 C774 0.929 . S
H781 C778 0.930 . S
H782 C770 0.929 . S
H783 C772 0.929 . S
O784 Co759 2.351 . S
O784 C787 1.244 . S
O785 Co759 2.155 . S
O785 C787 1.240 . S
O786 Co759 2.096 . S
O786 C767 1.247 . S
C787 O784 1.244 . S
C787 O785 1.240 . S
H788 C762 0.931 . S
H789 C771 0.931 . S
H790 C775 0.929 . S
H791 C777 0.930 . S
Co792 N796 2.148 . S
Co792 N802 2.128 . S
Co792 N812 2.194 . S
Co792 O817 2.351 . S
Co792 O818 2.155 . S
Co792 O819 2.096 . S
C793 N796 1.301 . S
C793 N797 1.328 . S
C793 H798 0.930 . S
C794 C795 1.333 . S
C794 N796 1.317 . S
C794 H799 0.930 . S
C795 C794 1.333 . S
C795 N797 1.350 . S
C795 H821 0.931 . S
N796 Co792 2.148 . S
N796 C793 1.301 . S
N796 C794 1.317 . S
N797 C793 1.328 . S
N797 C795 1.350 . S
H798 C793 0.930 . S
H799 C794 0.930 . S
C800 O801 1.224 . S
C800 O819 1.247 . S
O801 C800 1.224 . S
N802 Co792 2.128 . S
N802 C803 1.355 . S
N802 C805 1.311 . S
C803 N802 1.355 . S
C803 C804 1.363 . S
C803 H815 0.929 . S
C804 C803 1.363 . S
C804 N806 1.375 . S
C804 H822 0.931 . S
C805 N802 1.311 . S
C805 N806 1.347 . S
C805 H816 0.929 . S
N806 C804 1.375 . S
N806 C805 1.347 . S
C807 C810 1.365 . S
C807 N812 1.328 . S
C807 H813 0.929 . S
C808 C809 1.362 . S
C808 C811 1.378 . S
C808 H823 0.929 . S
C809 C808 1.362 . S
C809 C810 1.366 . S
C810 C807 1.365 . S
C810 C809 1.366 . S
C810 H824 0.930 . S
C811 C808 1.378 . S
C811 N812 1.315 . S
C811 H814 0.930 . S
N812 Co792 2.194 . S
N812 C807 1.328 . S
N812 C811 1.315 . S
H813 C807 0.929 . S
H814 C811 0.930 . S
H815 C803 0.929 . S
H816 C805 0.929 . S
O817 Co792 2.351 . S
O817 C820 1.244 . S
O818 Co792 2.155 . S
O818 C820 1.240 . S
O819 Co792 2.096 . S
O819 C800 1.247 . S
C820 O817 1.244 . S
C820 O818 1.240 . S
H821 C795 0.931 . S
H822 C804 0.931 . S
H823 C808 0.929 . S
H824 C810 0.930 . S
Co825 N829 2.148 . S
Co825 N835 2.128 . S
Co825 N845 2.194 . S
Co825 O850 2.351 . S
Co825 O851 2.155 . S
Co825 O852 2.096 . S
C826 N829 1.301 . S
C826 N830 1.328 . S
C826 H831 0.930 . S
C827 C828 1.333 . S
C827 N829 1.317 . S
C827 H832 0.930 . S
C828 C827 1.333 . S
C828 N830 1.350 . S
C828 H854 0.931 . S
N829 Co825 2.148 . S
N829 C826 1.301 . S
N829 C827 1.317 . S
N830 C826 1.328 . S
N830 C828 1.350 . S
H831 C826 0.930 . S
H832 C827 0.930 . S
C833 O834 1.224 . S
C833 O852 1.247 . S
O834 C833 1.224 . S
N835 Co825 2.128 . S
N835 C836 1.355 . S
N835 C838 1.311 . S
C836 N835 1.355 . S
C836 C837 1.363 . S
C836 H848 0.929 . S
C837 C836 1.363 . S
C837 N839 1.375 . S
C837 H855 0.931 . S
C838 N835 1.311 . S
C838 N839 1.347 . S
C838 H849 0.929 . S
N839 C837 1.375 . S
N839 C838 1.347 . S
C840 C843 1.365 . S
C840 N845 1.328 . S
C840 H846 0.929 . S
C841 C842 1.362 . S
C841 C844 1.378 . S
C841 H856 0.929 . S
C842 C841 1.362 . S
C842 C843 1.366 . S
C843 C840 1.365 . S
C843 C842 1.366 . S
C843 H857 0.930 . S
C844 C841 1.378 . S
C844 N845 1.315 . S
C844 H847 0.930 . S
N845 Co825 2.194 . S
N845 C840 1.328 . S
N845 C844 1.315 . S
H846 C840 0.929 . S
H847 C844 0.930 . S
H848 C836 0.929 . S
H849 C838 0.929 . S
O850 Co825 2.351 . S
O850 C853 1.244 . S
O851 Co825 2.155 . S
O851 C853 1.240 . S
O852 Co825 2.096 . S
O852 C833 1.247 . S
C853 O850 1.244 . S
C853 O851 1.240 . S
H854 C828 0.931 . S
H855 C837 0.931 . S
H856 C841 0.929 . S
H857 C843 0.930 . S
Co858 N862 2.148 . S
Co858 N868 2.128 . S
Co858 N878 2.194 . S
Co858 O883 2.351 . S
Co858 O884 2.155 . S
Co858 O885 2.096 . S
C859 N862 1.301 . S
C859 N863 1.328 . S
C859 H864 0.930 . S
C860 C861 1.333 . S
C860 N862 1.317 . S
C860 H865 0.930 . S
C861 C860 1.333 . S
C861 N863 1.350 . S
C861 H887 0.931 . S
N862 Co858 2.148 . S
N862 C859 1.301 . S
N862 C860 1.317 . S
N863 C859 1.328 . S
N863 C861 1.350 . S
H864 C859 0.930 . S
H865 C860 0.930 . S
C866 O867 1.224 1_455 S
C866 O885 1.247 . S
O867 C866 1.224 1_655 S
N868 Co858 2.128 . S
N868 C869 1.355 . S
N868 C871 1.311 . S
C869 N868 1.355 . S
C869 C870 1.363 . S
C869 H881 0.929 . S
C870 C869 1.363 . S
C870 N872 1.375 . S
C870 H888 0.931 . S
C871 N868 1.311 . S
C871 N872 1.347 . S
C871 H882 0.929 . S
N872 C870 1.375 . S
N872 C871 1.347 . S
C873 C876 1.365 . S
C873 N878 1.328 . S
C873 H879 0.929 . S
C874 C875 1.362 . S
C874 C877 1.378 . S
C874 H889 0.929 1_455 S
C875 C874 1.362 . S
C875 C876 1.366 . S
C876 C873 1.365 . S
C876 C875 1.366 . S
C876 H890 0.930 . S
C877 C874 1.378 . S
C877 N878 1.315 . S
C877 H880 0.930 . S
N878 Co858 2.194 . S
N878 C873 1.328 . S
N878 C877 1.315 . S
H879 C873 0.929 . S
H880 C877 0.930 . S
H881 C869 0.929 . S
H882 C871 0.929 . S
O883 Co858 2.351 . S
O883 C886 1.244 . S
O884 Co858 2.155 . S
O884 C886 1.240 . S
O885 Co858 2.096 . S
O885 C866 1.247 . S
C886 O883 1.244 . S
C886 O884 1.240 . S
H887 C861 0.931 . S
H888 C870 0.931 . S
H889 C874 0.929 1_655 S
H890 C876 0.930 . S
Co891 N895 2.148 . S
Co891 N901 2.128 . S
Co891 N911 2.194 . S
Co891 O916 2.351 . S
Co891 O917 2.155 . S
Co891 O918 2.096 . S
C892 N895 1.301 . S
C892 N896 1.328 . S
C892 H897 0.930 . S
C893 C894 1.333 . S
C893 N895 1.317 . S
C893 H898 0.930 . S
C894 C893 1.333 . S
C894 N896 1.350 . S
C894 H920 0.931 . S
N895 Co891 2.148 . S
N895 C892 1.301 . S
N895 C893 1.317 . S
N896 C892 1.328 . S
N896 C894 1.350 . S
H897 C892 0.930 . S
H898 C893 0.930 . S
C899 O900 1.224 . S
C899 O918 1.247 . S
O900 C899 1.224 . S
N901 Co891 2.128 . S
N901 C902 1.355 . S
N901 C904 1.311 . S
C902 N901 1.355 . S
C902 C903 1.363 . S
C902 H914 0.929 . S
C903 C902 1.363 . S
C903 N905 1.375 . S
C903 H921 0.931 . S
C904 N901 1.311 . S
C904 N905 1.347 . S
C904 H915 0.929 . S
N905 C903 1.375 . S
N905 C904 1.347 . S
C906 C909 1.365 . S
C906 N911 1.328 . S
C906 H912 0.929 . S
C907 C908 1.362 . S
C907 C910 1.378 . S
C907 H922 0.929 . S
C908 C907 1.362 . S
C908 C909 1.366 . S
C909 C906 1.365 . S
C909 C908 1.366 . S
C909 H923 0.930 . S
C910 C907 1.378 . S
C910 N911 1.315 . S
C910 H913 0.930 . S
N911 Co891 2.194 . S
N911 C906 1.328 . S
N911 C910 1.315 . S
H912 C906 0.929 . S
H913 C910 0.930 . S
H914 C902 0.929 . S
H915 C904 0.929 . S
O916 Co891 2.351 . S
O916 C919 1.244 . S
O917 Co891 2.155 . S
O917 C919 1.240 . S
O918 Co891 2.096 . S
O918 C899 1.247 . S
C919 O916 1.244 . S
C919 O917 1.240 . S
H920 C894 0.931 . S
H921 C903 0.931 . S
H922 C907 0.929 . S
H923 C909 0.930 . S
Co924 N928 2.148 . S
Co924 N934 2.128 . S
Co924 N944 2.194 . S
Co924 O949 2.351 . S
Co924 O950 2.155 . S
Co924 O951 2.096 . S
C925 N928 1.301 . S
C925 N929 1.328 . S
C925 H930 0.930 . S
C926 C927 1.333 . S
C926 N928 1.317 . S
C926 H931 0.930 . S
C927 C926 1.333 . S
C927 N929 1.350 . S
C927 H953 0.931 . S
N928 Co924 2.148 . S
N928 C925 1.301 . S
N928 C926 1.317 . S
N929 C925 1.328 . S
N929 C927 1.350 . S
H930 C925 0.930 . S
H931 C926 0.930 . S
C932 O933 1.224 . S
C932 O951 1.247 . S
O933 C932 1.224 . S
N934 Co924 2.128 . S
N934 C935 1.355 . S
N934 C937 1.311 . S
C935 N934 1.355 . S
C935 C936 1.363 . S
C935 H947 0.929 . S
C936 C935 1.363 . S
C936 N938 1.375 . S
C936 H954 0.931 . S
C937 N934 1.311 . S
C937 N938 1.347 . S
C937 H948 0.929 . S
N938 C936 1.375 . S
N938 C937 1.347 . S
C939 C942 1.365 . S
C939 N944 1.328 . S
C939 H945 0.929 . S
C940 C941 1.362 . S
C940 C943 1.378 . S
C940 H955 0.929 . S
C941 C940 1.362 . S
C941 C942 1.366 . S
C942 C939 1.365 . S
C942 C941 1.366 . S
C942 H956 0.930 . S
C943 C940 1.378 . S
C943 N944 1.315 . S
C943 H946 0.930 . S
N944 Co924 2.194 . S
N944 C939 1.328 . S
N944 C943 1.315 . S
H945 C939 0.929 . S
H946 C943 0.930 . S
H947 C935 0.929 . S
H948 C937 0.929 . S
O949 Co924 2.351 . S
O949 C952 1.244 . S
O950 Co924 2.155 . S
O950 C952 1.240 . S
O951 Co924 2.096 . S
O951 C932 1.247 . S
C952 O949 1.244 . S
C952 O950 1.240 . S
H953 C927 0.931 . S
H954 C936 0.931 . S
H955 C940 0.929 . S
H956 C942 0.930 . S
Co957 N961 2.148 . S
Co957 N967 2.128 . S
Co957 N977 2.194 . S
Co957 O982 2.351 . S
Co957 O983 2.155 . S
Co957 O984 2.096 . S
C958 N961 1.301 . S
C958 N962 1.328 . S
C958 H963 0.930 . S
C959 C960 1.333 . S
C959 N961 1.317 . S
C959 H964 0.930 . S
C960 C959 1.333 . S
C960 N962 1.350 . S
C960 H986 0.931 . S
N961 Co957 2.148 . S
N961 C958 1.301 . S
N961 C959 1.317 . S
N962 C958 1.328 . S
N962 C960 1.350 . S
H963 C958 0.930 . S
H964 C959 0.930 . S
C965 O966 1.224 . S
C965 O984 1.247 . S
O966 C965 1.224 . S
N967 Co957 2.128 . S
N967 C968 1.355 . S
N967 C970 1.311 . S
C968 N967 1.355 . S
C968 C969 1.363 . S
C968 H980 0.929 . S
C969 C968 1.363 . S
C969 N971 1.375 . S
C969 H987 0.931 . S
C970 N967 1.311 . S
C970 N971 1.347 . S
C970 H981 0.929 . S
N971 C969 1.375 . S
N971 C970 1.347 . S
C972 C975 1.365 . S
C972 N977 1.328 . S
C972 H978 0.929 . S
C973 C974 1.362 . S
C973 C976 1.378 . S
C973 H988 0.929 . S
C974 C973 1.362 . S
C974 C975 1.366 . S
C975 C972 1.365 . S
C975 C974 1.366 . S
C975 H989 0.930 . S
C976 C973 1.378 . S
C976 N977 1.315 . S
C976 H979 0.930 . S
N977 Co957 2.194 . S
N977 C972 1.328 . S
N977 C976 1.315 . S
H978 C972 0.929 . S
H979 C976 0.930 . S
H980 C968 0.929 . S
H981 C970 0.929 . S
O982 Co957 2.351 . S
O982 C985 1.244 . S
O983 Co957 2.155 . S
O983 C985 1.240 . S
O984 Co957 2.096 . S
O984 C965 1.247 . S
C985 O982 1.244 . S
C985 O983 1.240 . S
H986 C960 0.931 . S
H987 C969 0.931 . S
H988 C973 0.929 . S
H989 C975 0.930 . S
Co990 N994 2.148 . S
Co990 N1000 2.128 . S
Co990 N1010 2.194 . S
Co990 O1015 2.351 . S
Co990 O1016 2.155 . S
Co990 O1017 2.096 . S
C991 N994 1.301 . S
C991 N995 1.328 . S
C991 H996 0.930 . S
C992 C993 1.333 . S
C992 N994 1.317 . S
C992 H997 0.930 . S
C993 C992 1.333 . S
C993 N995 1.350 . S
C993 H1019 0.931 . S
N994 Co990 2.148 . S
N994 C991 1.301 . S
N994 C992 1.317 . S
N995 C991 1.328 . S
N995 C993 1.350 . S
H996 C991 0.930 . S
H997 C992 0.930 . S
C998 O999 1.224 1_455 S
C998 O1017 1.247 . S
O999 C998 1.224 1_655 S
N1000 Co990 2.128 . S
N1000 C1001 1.355 . S
N1000 C1003 1.311 . S
C1001 N1000 1.355 . S
C1001 C1002 1.363 . S
C1001 H1013 0.929 . S
C1002 C1001 1.363 . S
C1002 N1004 1.375 . S
C1002 H1020 0.931 . S
C1003 N1000 1.311 . S
C1003 N1004 1.347 . S
C1003 H1014 0.929 . S
N1004 C1002 1.375 . S
N1004 C1003 1.347 . S
C1005 C1008 1.365 . S
C1005 N1010 1.328 . S
C1005 H1011 0.929 . S
C1006 C1007 1.362 . S
C1006 C1009 1.378 . S
C1006 H1021 0.929 1_455 S
C1007 C1006 1.362 . S
C1007 C1008 1.366 . S
C1008 C1005 1.365 . S
C1008 C1007 1.366 . S
C1008 H1022 0.930 . S
C1009 C1006 1.378 . S
C1009 N1010 1.315 . S
C1009 H1012 0.930 . S
N1010 Co990 2.194 . S
N1010 C1005 1.328 . S
N1010 C1009 1.315 . S
H1011 C1005 0.929 . S
H1012 C1009 0.930 . S
H1013 C1001 0.929 . S
H1014 C1003 0.929 . S
O1015 Co990 2.351 . S
O1015 C1018 1.244 . S
O1016 Co990 2.155 . S
O1016 C1018 1.240 . S
O1017 Co990 2.096 . S
O1017 C998 1.247 . S
C1018 O1015 1.244 . S
C1018 O1016 1.240 . S
H1019 C993 0.931 . S
H1020 C1002 0.931 . S
H1021 C1006 0.929 1_655 S
H1022 C1008 0.930 . S
Co1023 N1027 2.148 . S
Co1023 N1033 2.128 . S
Co1023 N1043 2.194 . S
Co1023 O1048 2.351 . S
Co1023 O1049 2.155 . S
Co1023 O1050 2.096 . S
C1024 N1027 1.301 . S
C1024 N1028 1.328 . S
C1024 H1029 0.930 . S
C1025 C1026 1.333 . S
C1025 N1027 1.317 . S
C1025 H1030 0.930 . S
C1026 C1025 1.333 . S
C1026 N1028 1.350 . S
C1026 H1052 0.931 . S
N1027 Co1023 2.148 . S
N1027 C1024 1.301 . S
N1027 C1025 1.317 . S
N1028 C1024 1.328 . S
N1028 C1026 1.350 . S
H1029 C1024 0.930 . S
H1030 C1025 0.930 . S
C1031 O1032 1.224 . S
C1031 O1050 1.247 . S
O1032 C1031 1.224 . S
N1033 Co1023 2.128 . S
N1033 C1034 1.355 . S
N1033 C1036 1.311 . S
C1034 N1033 1.355 . S
C1034 C1035 1.363 . S
C1034 H1046 0.929 . S
C1035 C1034 1.363 . S
C1035 N1037 1.375 . S
C1035 H1053 0.931 . S
C1036 N1033 1.311 . S
C1036 N1037 1.347 . S
C1036 H1047 0.929 . S
N1037 C1035 1.375 . S
N1037 C1036 1.347 . S
C1038 C1041 1.365 . S
C1038 N1043 1.328 . S
C1038 H1044 0.929 . S
C1039 C1040 1.362 . S
C1039 C1042 1.378 . S
C1039 H1054 0.929 . S
C1040 C1039 1.362 . S
C1040 C1041 1.366 . S
C1041 C1038 1.365 . S
C1041 C1040 1.366 . S
C1041 H1055 0.930 . S
C1042 C1039 1.378 . S
C1042 N1043 1.315 . S
C1042 H1045 0.930 . S
N1043 Co1023 2.194 . S
N1043 C1038 1.328 . S
N1043 C1042 1.315 . S
H1044 C1038 0.929 . S
H1045 C1042 0.930 . S
H1046 C1034 0.929 . S
H1047 C1036 0.929 . S
O1048 Co1023 2.351 . S
O1048 C1051 1.244 . S
O1049 Co1023 2.155 . S
O1049 C1051 1.240 . S
O1050 Co1023 2.096 . S
O1050 C1031 1.247 . S
C1051 O1048 1.244 . S
C1051 O1049 1.240 . S
H1052 C1026 0.931 . S
H1053 C1035 0.931 . S
H1054 C1039 0.929 . S
H1055 C1041 0.930 . S
H1056 C1062 0.930 . S
H1057 C1066 0.930 . S
H1058 C1071 0.929 . S
H1059 C1069 0.929 . S
H1060 C1064 0.929 . S
H1061 C1070 0.929 . S
C1062 H1056 0.930 . S
C1062 C1063 1.367 . S
C1062 C1070 1.378 . S
C1063 C1062 1.367 . S
C1063 C1071 1.433 1_565 S
C1064 H1060 0.929 . S
C1064 C1066 1.378 . S
C1064 C1068 1.350 . S
C1065 C1068 1.463 1_565 S
C1065 C1070 1.350 . S
C1065 N1073 1.427 1_565 S
C1066 H1057 0.930 . S
C1066 C1064 1.378 . S
C1066 C1067 1.367 . S
C1067 C1066 1.367 . S
C1067 C1069 1.433 1_545 S
C1068 C1064 1.350 . S
C1068 C1065 1.463 1_545 S
C1068 N1072 1.427 1_545 S
C1069 H1059 0.929 . S
C1069 C1067 1.433 1_565 S
C1069 N1072 1.384 . S
C1070 H1061 0.929 . S
C1070 C1062 1.378 . S
C1070 C1065 1.350 . S
C1071 H1058 0.929 . S
C1071 C1063 1.433 1_545 S
C1071 N1073 1.384 . S
N1072 C1068 1.427 1_565 S
N1072 C1069 1.384 . S
N1073 C1065 1.427 1_545 S
N1073 C1071 1.384 . S
H1074 C1080 0.930 . S
H1075 C1084 0.930 . S
H1076 C1089 0.929 . S
H1077 C1087 0.929 . S
H1078 C1082 0.929 . S
H1079 C1088 0.929 . S
C1080 H1074 0.930 . S
C1080 C1081 1.367 . S
C1080 C1088 1.378 . S
C1081 C1080 1.367 . S
C1081 C1089 1.433 . S
C1082 H1078 0.929 . S
C1082 C1084 1.378 . S
C1082 C1086 1.350 . S
C1083 C1086 1.463 . S
C1083 C1088 1.350 . S
C1083 N1091 1.427 . S
C1084 H1075 0.930 . S
C1084 C1082 1.378 . S
C1084 C1085 1.367 . S
C1085 C1084 1.367 . S
C1085 C1087 1.433 . S
C1086 C1082 1.350 . S
C1086 C1083 1.463 . S
C1086 N1090 1.427 . S
C1087 H1077 0.929 . S
C1087 C1085 1.433 . S
C1087 N1090 1.384 . S
C1088 H1079 0.929 . S
C1088 C1080 1.378 . S
C1088 C1083 1.350 . S
C1089 H1076 0.929 . S
C1089 C1081 1.433 . S
C1089 N1091 1.384 . S
N1090 C1086 1.427 . S
N1090 C1087 1.384 . S
N1091 C1083 1.427 . S
N1091 C1089 1.384 . S
H1092 C1098 0.930 . S
H1093 C1102 0.930 . S
H1094 C1107 0.929 . S
H1095 C1105 0.929 . S
H1096 C1100 0.929 . S
H1097 C1106 0.929 . S
C1098 H1092 0.930 . S
C1098 C1099 1.367 . S
C1098 C1106 1.378 . S
C1099 C1098 1.367 . S
C1099 C1107 1.433 1_565 S
C1100 H1096 0.929 . S
C1100 C1102 1.378 . S
C1100 C1104 1.356 . S
C1101 C1104 1.462 1_565 S
C1101 C1106 1.356 . S
C1101 N1109 1.422 1_565 S
C1102 H1093 0.930 . S
C1102 C1100 1.378 . S
C1102 C1103 1.367 . S
C1103 C1102 1.367 . S
C1103 C1105 1.433 1_545 S
C1104 C1100 1.356 . S
C1104 C1101 1.462 1_545 S
C1104 N1108 1.422 1_545 S
C1105 H1095 0.929 . S
C1105 C1103 1.433 1_565 S
C1105 N1108 1.384 . S
C1106 H1097 0.929 . S
C1106 C1098 1.378 . S
C1106 C1101 1.356 . S
C1107 H1094 0.929 . S
C1107 C1099 1.433 1_545 S
C1107 N1109 1.384 . S
N1108 C1104 1.422 1_565 S
N1108 C1105 1.384 . S
N1109 C1101 1.422 1_545 S
N1109 C1107 1.384 . S
H1110 C1116 0.930 . S
H1111 C1120 0.930 . S
H1112 C1125 0.929 . S
H1113 C1123 0.929 . S
H1114 C1118 0.929 . S
H1115 C1124 0.929 . S
C1116 H1110 0.930 . S
C1116 C1117 1.367 . S
C1116 C1124 1.378 . S
C1117 C1116 1.367 . S
C1117 C1125 1.433 . S
C1118 H1114 0.929 . S
C1118 C1120 1.378 . S
C1118 C1122 1.350 . S
C1119 C1122 1.463 1_556 S
C1119 C1124 1.350 . S
C1119 N1127 1.427 . S
C1120 H1111 0.930 . S
C1120 C1118 1.378 . S
C1120 C1121 1.367 . S
C1121 C1120 1.367 . S
C1121 C1123 1.433 . S
C1122 C1118 1.350 . S
C1122 C1119 1.463 1_554 S
C1122 N1126 1.427 . S
C1123 H1113 0.929 . S
C1123 C1121 1.433 . S
C1123 N1126 1.384 . S
C1124 H1115 0.929 . S
C1124 C1116 1.378 . S
C1124 C1119 1.350 . S
C1125 H1112 0.929 . S
C1125 C1117 1.433 . S
C1125 N1127 1.384 . S
N1126 C1122 1.427 . S
N1126 C1123 1.384 . S
N1127 C1119 1.427 . S
N1127 C1125 1.384 . S
H1128 C1134 0.930 . S
H1129 C1138 0.930 1_455 S
H1130 C1143 0.929 1_455 S
H1131 C1141 0.929 . S
H1132 C1136 0.929 1_455 S
H1133 C1142 0.929 . S
C1134 H1128 0.930 . S
C1134 C1135 1.367 . S
C1134 C1142 1.378 . S
C1135 C1134 1.367 . S
C1135 C1143 1.433 1_565 S
C1136 H1132 0.929 1_655 S
C1136 C1138 1.378 . S
C1136 C1140 1.351 . S
C1137 C1140 1.462 1_565 S
C1137 C1142 1.351 . S
C1137 N1145 1.427 1_565 S
C1138 H1129 0.930 1_655 S
C1138 C1136 1.378 . S
C1138 C1139 1.367 . S
C1139 C1138 1.367 . S
C1139 C1141 1.433 1_545 S
C1140 C1136 1.351 . S
C1140 C1137 1.462 1_545 S
C1140 N1144 1.427 1_545 S
C1141 H1131 0.929 . S
C1141 C1139 1.433 1_565 S
C1141 N1144 1.384 . S
C1142 H1133 0.929 . S
C1142 C1134 1.378 . S
C1142 C1137 1.351 . S
C1143 H1130 0.929 1_655 S
C1143 C1135 1.433 1_545 S
C1143 N1145 1.384 . S
N1144 C1140 1.427 1_565 S
N1144 C1141 1.384 . S
N1145 C1137 1.427 1_545 S
N1145 C1143 1.384 . S
H1146 C1152 0.930 . S
H1147 C1156 0.930 . S
H1148 C1161 0.929 . S
H1149 C1159 0.929 . S
H1150 C1154 0.929 . S
H1151 C1160 0.929 . S
C1152 H1146 0.930 . S
C1152 C1153 1.367 . S
C1152 C1160 1.378 . S
C1153 C1152 1.367 . S
C1153 C1161 1.433 . S
C1154 H1150 0.929 . S
C1154 C1156 1.378 . S
C1154 C1158 1.350 . S
C1155 C1158 1.463 . S
C1155 C1160 1.350 . S
C1155 N1163 1.427 . S
C1156 H1147 0.930 . S
C1156 C1154 1.378 . S
C1156 C1157 1.367 . S
C1157 C1156 1.367 . S
C1157 C1159 1.433 . S
C1158 C1154 1.350 . S
C1158 C1155 1.463 . S
C1158 N1162 1.427 . S
C1159 H1149 0.929 . S
C1159 C1157 1.433 . S
C1159 N1162 1.384 . S
C1160 H1151 0.929 . S
C1160 C1152 1.378 . S
C1160 C1155 1.350 . S
C1161 H1148 0.929 . S
C1161 C1153 1.433 . S
C1161 N1163 1.384 . S
N1162 C1158 1.427 . S
N1162 C1159 1.384 . S
N1163 C1155 1.427 . S
N1163 C1161 1.384 . S
H1164 C1170 0.930 . S
H1165 C1174 0.930 . S
H1166 C1179 0.929 . S
H1167 C1177 0.929 . S
H1168 C1172 0.929 . S
H1169 C1178 0.929 . S
C1170 H1164 0.930 . S
C1170 C1171 1.367 1_565 S
C1170 C1178 1.378 . S
C1171 C1170 1.367 1_545 S
C1171 C1179 1.433 . S
C1172 H1168 0.929 . S
C1172 C1174 1.378 . S
C1172 C1176 1.349 1_545 S
C1173 C1176 1.462 1_545 S
C1173 C1178 1.349 1_545 S
C1173 N1181 1.428 . S
C1174 H1165 0.930 . S
C1174 C1172 1.378 . S
C1174 C1175 1.367 1_545 S
C1175 C1174 1.367 1_565 S
C1175 C1177 1.433 . S
C1176 C1172 1.349 1_565 S
C1176 C1173 1.462 1_565 S
C1176 N1180 1.428 . S
C1177 H1167 0.929 . S
C1177 C1175 1.433 . S
C1177 N1180 1.384 . S
C1178 H1169 0.929 . S
C1178 C1170 1.378 . S
C1178 C1173 1.349 1_565 S
C1179 H1166 0.929 . S
C1179 C1171 1.433 . S
C1179 N1181 1.384 . S
N1180 C1176 1.428 . S
N1180 C1177 1.384 . S
N1181 C1173 1.428 . S
N1181 C1179 1.384 . S
H1182 C1188 0.930 . S
H1183 C1192 0.930 . S
H1184 C1197 0.929 . S
H1185 C1195 0.929 . S
H1186 C1190 0.929 . S
H1187 C1196 0.929 . S
C1188 H1182 0.930 . S
C1188 C1189 1.367 . S
C1188 C1196 1.378 . S
C1189 C1188 1.367 . S
C1189 C1197 1.433 . S
C1190 H1186 0.929 . S
C1190 C1192 1.378 . S
C1190 C1194 1.350 . S
C1191 C1194 1.463 1_556 S
C1191 C1196 1.350 . S
C1191 N1199 1.427 . S
C1192 H1183 0.930 . S
C1192 C1190 1.378 . S
C1192 C1193 1.367 . S
C1193 C1192 1.367 . S
C1193 C1195 1.433 . S
C1194 C1190 1.350 . S
C1194 C1191 1.463 1_554 S
C1194 N1198 1.427 . S
C1195 H1185 0.929 . S
C1195 C1193 1.433 . S
C1195 N1198 1.384 . S
C1196 H1187 0.929 . S
C1196 C1188 1.378 . S
C1196 C1191 1.350 . S
C1197 H1184 0.929 . S
C1197 C1189 1.433 . S
C1197 N1199 1.384 . S
N1198 C1194 1.427 . S
N1198 C1195 1.384 . S
N1199 C1191 1.427 . S
N1199 C1197 1.384 . S
H1200 C1206 0.930 . S
H1201 C1210 0.930 . S
H1202 C1215 0.929 . S
H1203 C1213 0.929 . S
H1204 C1208 0.929 . S
H1205 C1214 0.929 . S
C1206 H1200 0.930 . S
C1206 C1207 1.367 . S
C1206 C1214 1.378 . S
C1207 C1206 1.367 . S
C1207 C1215 1.433 . S
C1208 H1204 0.929 . S
C1208 C1210 1.378 . S
C1208 C1212 1.350 . S
C1209 C1212 1.463 . S
C1209 C1214 1.350 . S
C1209 N1217 1.427 . S
C1210 H1201 0.930 . S
C1210 C1208 1.378 . S
C1210 C1211 1.367 . S
C1211 C1210 1.367 . S
C1211 C1213 1.433 . S
C1212 C1208 1.350 . S
C1212 C1209 1.463 . S
C1212 N1216 1.427 . S
C1213 H1203 0.929 . S
C1213 C1211 1.433 . S
C1213 N1216 1.384 . S
C1214 H1205 0.929 . S
C1214 C1206 1.378 . S
C1214 C1209 1.350 . S
C1215 H1202 0.929 . S
C1215 C1207 1.433 . S
C1215 N1217 1.384 . S
N1216 C1212 1.427 . S
N1216 C1213 1.384 . S
N1217 C1209 1.427 . S
N1217 C1215 1.384 . S
H1218 C1224 0.930 . S
H1219 C1228 0.930 . S
H1220 C1233 0.929 . S
H1221 C1231 0.929 . S
H1222 C1226 0.929 . S
H1223 C1232 0.929 . S
C1224 H1218 0.930 . S
C1224 C1225 1.367 . S
C1224 C1232 1.378 . S
C1225 C1224 1.367 . S
C1225 C1233 1.433 . S
C1226 H1222 0.929 . S
C1226 C1228 1.378 . S
C1226 C1230 1.350 . S
C1227 C1230 1.463 1_556 S
C1227 C1232 1.350 . S
C1227 N1235 1.427 . S
C1228 H1219 0.930 . S
C1228 C1226 1.378 . S
C1228 C1229 1.367 . S
C1229 C1228 1.367 . S
C1229 C1231 1.433 . S
C1230 C1226 1.350 . S
C1230 C1227 1.463 1_554 S
C1230 N1234 1.427 . S
C1231 H1221 0.929 . S
C1231 C1229 1.433 . S
C1231 N1234 1.384 . S
C1232 H1223 0.929 . S
C1232 C1224 1.378 . S
C1232 C1227 1.350 . S
C1233 H1220 0.929 . S
C1233 C1225 1.433 . S
C1233 N1235 1.384 . S
N1234 C1230 1.427 . S
N1234 C1231 1.384 . S
N1235 C1227 1.427 . S
N1235 C1233 1.384 . S
H1236 C1242 0.930 . S
H1237 C1246 0.930 . S
H1238 C1251 0.929 . S
H1239 C1249 0.929 . S
H1240 C1244 0.929 . S
H1241 C1250 0.929 . S
C1242 H1236 0.930 . S
C1242 C1243 1.367 . S
C1242 C1250 1.378 . S
C1243 C1242 1.367 . S
C1243 C1251 1.433 . S
C1244 H1240 0.929 . S
C1244 C1246 1.378 . S
C1244 C1248 1.350 . S
C1245 C1248 1.463 . S
C1245 C1250 1.350 . S
C1245 N1253 1.427 . S
C1246 H1237 0.930 . S
C1246 C1244 1.378 . S
C1246 C1247 1.367 . S
C1247 C1246 1.367 . S
C1247 C1249 1.433 . S
C1248 C1244 1.350 . S
C1248 C1245 1.463 . S
C1248 N1252 1.427 . S
C1249 H1239 0.929 . S
C1249 C1247 1.433 . S
C1249 N1252 1.384 . S
C1250 H1241 0.929 . S
C1250 C1242 1.378 . S
C1250 C1245 1.350 . S
C1251 H1238 0.929 . S
C1251 C1243 1.433 . S
C1251 N1253 1.384 . S
N1252 C1248 1.427 . S
N1252 C1249 1.384 . S
N1253 C1245 1.427 . S
N1253 C1251 1.384 . S
H1254 C1260 0.930 . S
H1255 C1264 0.930 . S
H1256 C1269 0.929 . S
H1257 C1267 0.929 . S
H1258 C1262 0.929 . S
H1259 C1268 0.929 . S
C1260 H1254 0.930 . S
C1260 C1261 1.367 . S
C1260 C1268 1.378 . S
C1261 C1260 1.367 . S
C1261 C1269 1.433 . S
C1262 H1258 0.929 . S
C1262 C1264 1.378 . S
C1262 C1266 1.350 . S
C1263 C1266 1.463 . S
C1263 C1268 1.350 . S
C1263 N1271 1.427 . S
C1264 H1255 0.930 . S
C1264 C1262 1.378 . S
C1264 C1265 1.367 . S
C1265 C1264 1.367 . S
C1265 C1267 1.433 . S
C1266 C1262 1.350 . S
C1266 C1263 1.463 . S
C1266 N1270 1.427 . S
C1267 H1257 0.929 . S
C1267 C1265 1.433 . S
C1267 N1270 1.384 . S
C1268 H1259 0.929 . S
C1268 C1260 1.378 . S
C1268 C1263 1.350 . S
C1269 H1256 0.929 . S
C1269 C1261 1.433 . S
C1269 N1271 1.384 . S
N1270 C1266 1.427 . S
N1270 C1267 1.384 . S
N1271 C1263 1.427 . S
N1271 C1269 1.384 . S
H1272 C1278 0.930 . S
H1273 C1282 0.930 . S
H1274 C1287 0.929 . S
H1275 C1285 0.929 . S
H1276 C1280 0.929 . S
H1277 C1286 0.929 . S
C1278 H1272 0.930 . S
C1278 C1279 1.367 . S
C1278 C1286 1.378 . S
C1279 C1278 1.367 . S
C1279 C1287 1.433 . S
C1280 H1276 0.929 . S
C1280 C1282 1.378 . S
C1280 C1284 1.350 . S
C1281 C1284 1.463 . S
C1281 C1286 1.350 . S
C1281 N1289 1.427 . S
C1282 H1273 0.930 . S
C1282 C1280 1.378 . S
C1282 C1283 1.367 . S
C1283 C1282 1.367 . S
C1283 C1285 1.433 . S
C1284 C1280 1.350 . S
C1284 C1281 1.463 . S
C1284 N1288 1.427 . S
C1285 H1275 0.929 . S
C1285 C1283 1.433 . S
C1285 N1288 1.384 . S
C1286 H1277 0.929 . S
C1286 C1278 1.378 . S
C1286 C1281 1.350 . S
C1287 H1274 0.929 . S
C1287 C1279 1.433 . S
C1287 N1289 1.384 . S
N1288 C1284 1.427 . S
N1288 C1285 1.384 . S
N1289 C1281 1.427 . S
N1289 C1287 1.384 . S
H1290 C1296 0.930 . S
H1291 C1300 0.930 . S
H1292 C1305 0.929 . S
H1293 C1303 0.929 . S
H1294 C1298 0.929 . S
H1295 C1304 0.929 . S
C1296 H1290 0.930 . S
C1296 C1297 1.367 . S
C1296 C1304 1.378 . S
C1297 C1296 1.367 . S
C1297 C1305 1.433 . S
C1298 H1294 0.929 . S
C1298 C1300 1.378 . S
C1298 C1302 1.350 . S
C1299 C1302 1.463 1_554 S
C1299 C1304 1.350 . S
C1299 N1307 1.427 . S
C1300 H1291 0.930 . S
C1300 C1298 1.378 . S
C1300 C1301 1.367 . S
C1301 C1300 1.367 . S
C1301 C1303 1.433 . S
C1302 C1298 1.350 . S
C1302 C1299 1.463 1_556 S
C1302 N1306 1.427 . S
C1303 H1293 0.929 . S
C1303 C1301 1.433 . S
C1303 N1306 1.384 . S
C1304 H1295 0.929 . S
C1304 C1296 1.378 . S
C1304 C1299 1.350 . S
C1305 H1292 0.929 . S
C1305 C1297 1.433 . S
C1305 N1307 1.384 . S
N1306 C1302 1.427 . S
N1306 C1303 1.384 . S
N1307 C1299 1.427 . S
N1307 C1305 1.384 . S
H1308 C1314 0.930 . S
H1309 C1318 0.930 . S
H1310 C1323 0.929 . S
H1311 C1321 0.929 . S
H1312 C1316 0.929 . S
H1313 C1322 0.929 . S
C1314 H1308 0.930 . S
C1314 C1315 1.367 . S
C1314 C1322 1.378 . S
C1315 C1314 1.367 . S
C1315 C1323 1.433 . S
C1316 H1312 0.929 . S
C1316 C1318 1.378 . S
C1316 C1320 1.350 . S
C1317 C1320 1.463 . S
C1317 C1322 1.350 . S
C1317 N1325 1.427 . S
C1318 H1309 0.930 . S
C1318 C1316 1.378 . S
C1318 C1319 1.367 . S
C1319 C1318 1.367 . S
C1319 C1321 1.433 . S
C1320 C1316 1.350 . S
C1320 C1317 1.463 . S
C1320 N1324 1.427 . S
C1321 H1311 0.929 . S
C1321 C1319 1.433 . S
C1321 N1324 1.384 . S
C1322 H1313 0.929 . S
C1322 C1314 1.378 . S
C1322 C1317 1.350 . S
C1323 H1310 0.929 . S
C1323 C1315 1.433 . S
C1323 N1325 1.384 . S
N1324 C1320 1.427 . S
N1324 C1321 1.384 . S
N1325 C1317 1.427 . S
N1325 C1323 1.384 . S
H1326 C1332 0.930 . S
H1327 C1336 0.930 . S
H1328 C1341 0.929 . S
H1329 C1339 0.929 . S
H1330 C1334 0.929 . S
H1331 C1340 0.929 . S
C1332 H1326 0.930 . S
C1332 C1333 1.367 . S
C1332 C1340 1.378 . S
C1333 C1332 1.367 . S
C1333 C1341 1.433 . S
C1334 H1330 0.929 . S
C1334 C1336 1.378 . S
C1334 C1338 1.350 . S
C1335 C1338 1.463 . S
C1335 C1340 1.350 . S
C1335 N1343 1.427 . S
C1336 H1327 0.930 . S
C1336 C1334 1.378 . S
C1336 C1337 1.367 . S
C1337 C1336 1.367 . S
C1337 C1339 1.433 . S
C1338 C1334 1.350 . S
C1338 C1335 1.463 . S
C1338 N1342 1.427 . S
C1339 H1329 0.929 . S
C1339 C1337 1.433 . S
C1339 N1342 1.384 . S
C1340 H1331 0.929 . S
C1340 C1332 1.378 . S
C1340 C1335 1.350 . S
C1341 H1328 0.929 . S
C1341 C1333 1.433 . S
C1341 N1343 1.384 . S
N1342 C1338 1.427 . S
N1342 C1339 1.384 . S
N1343 C1335 1.427 . S
N1343 C1341 1.384 . S
H1344 C1350 0.930 . S
H1345 C1354 0.930 . S
H1346 C1359 0.929 . S
H1347 C1357 0.929 . S
H1348 C1352 0.929 . S
H1349 C1358 0.929 . S
C1350 H1344 0.930 . S
C1350 C1351 1.367 . S
C1350 C1358 1.378 . S
C1351 C1350 1.367 . S
C1351 C1359 1.433 . S
C1352 H1348 0.929 . S
C1352 C1354 1.378 . S
C1352 C1356 1.350 . S
C1353 C1356 1.463 1_455 S
C1353 C1358 1.350 . S
C1353 N1361 1.427 . S
C1354 H1345 0.930 . S
C1354 C1352 1.378 . S
C1354 C1355 1.367 . S
C1355 C1354 1.367 . S
C1355 C1357 1.433 . S
C1356 C1352 1.350 . S
C1356 C1353 1.463 1_655 S
C1356 N1360 1.427 . S
C1357 H1347 0.929 . S
C1357 C1355 1.433 . S
C1357 N1360 1.384 . S
C1358 H1349 0.929 . S
C1358 C1350 1.378 . S
C1358 C1353 1.350 . S
C1359 H1346 0.929 . S
C1359 C1351 1.433 . S
C1359 N1361 1.384 . S
N1360 C1356 1.427 . S
N1360 C1357 1.384 . S
N1361 C1353 1.427 . S
N1361 C1359 1.384 . S
H1362 C1368 0.930 . S
H1363 C1372 0.930 . S
H1364 C1377 0.929 . S
H1365 C1375 0.929 . S
H1366 C1370 0.929 . S
H1367 C1376 0.929 . S
C1368 H1362 0.930 . S
C1368 C1369 1.367 . S
C1368 C1376 1.378 . S
C1369 C1368 1.367 . S
C1369 C1377 1.433 . S
C1370 H1366 0.929 . S
C1370 C1372 1.378 . S
C1370 C1374 1.350 . S
C1371 C1374 1.463 1_455 S
C1371 C1376 1.350 . S
C1371 N1379 1.427 . S
C1372 H1363 0.930 . S
C1372 C1370 1.378 . S
C1372 C1373 1.367 . S
C1373 C1372 1.367 . S
C1373 C1375 1.433 . S
C1374 C1370 1.350 . S
C1374 C1371 1.463 1_655 S
C1374 N1378 1.427 . S
C1375 H1365 0.929 . S
C1375 C1373 1.433 . S
C1375 N1378 1.384 . S
C1376 H1367 0.929 . S
C1376 C1368 1.378 . S
C1376 C1371 1.350 . S
C1377 H1364 0.929 . S
C1377 C1369 1.433 . S
C1377 N1379 1.384 . S
N1378 C1374 1.427 . S
N1378 C1375 1.384 . S
N1379 C1371 1.427 . S
N1379 C1377 1.384 . S
H1380 C1386 0.930 . S
H1381 C1390 0.930 . S
H1382 C1395 0.929 . S
H1383 C1393 0.929 . S
H1384 C1388 0.929 . S
H1385 C1394 0.929 . S
C1386 H1380 0.930 . S
C1386 C1387 1.367 . S
C1386 C1394 1.378 . S
C1387 C1386 1.367 . S
C1387 C1395 1.433 . S
C1388 H1384 0.929 . S
C1388 C1390 1.378 . S
C1388 C1392 1.350 . S
C1389 C1392 1.463 . S
C1389 C1394 1.350 . S
C1389 N1397 1.427 . S
C1390 H1381 0.930 . S
C1390 C1388 1.378 . S
C1390 C1391 1.367 . S
C1391 C1390 1.367 . S
C1391 C1393 1.433 . S
C1392 C1388 1.350 . S
C1392 C1389 1.463 . S
C1392 N1396 1.427 . S
C1393 H1383 0.929 . S
C1393 C1391 1.433 . S
C1393 N1396 1.384 . S
C1394 H1385 0.929 . S
C1394 C1386 1.378 . S
C1394 C1389 1.350 . S
C1395 H1382 0.929 . S
C1395 C1387 1.433 . S
C1395 N1397 1.384 . S
N1396 C1392 1.427 . S
N1396 C1393 1.384 . S
N1397 C1389 1.427 . S
N1397 C1395 1.384 . S
H1398 C1404 0.930 . S
H1399 C1408 0.930 . S
H1400 C1413 0.929 . S
H1401 C1411 0.929 . S
H1402 C1406 0.929 . S
H1403 C1412 0.929 . S
C1404 H1398 0.930 . S
C1404 C1405 1.367 . S
C1404 C1412 1.378 . S
C1405 C1404 1.367 . S
C1405 C1413 1.433 . S
C1406 H1402 0.929 . S
C1406 C1408 1.378 . S
C1406 C1410 1.350 . S
C1407 C1410 1.463 . S
C1407 C1412 1.350 . S
C1407 N1415 1.427 . S
C1408 H1399 0.930 . S
C1408 C1406 1.378 . S
C1408 C1409 1.367 . S
C1409 C1408 1.367 . S
C1409 C1411 1.433 . S
C1410 C1406 1.350 . S
C1410 C1407 1.463 . S
C1410 N1414 1.427 . S
C1411 H1401 0.929 . S
C1411 C1409 1.433 . S
C1411 N1414 1.384 . S
C1412 H1403 0.929 . S
C1412 C1404 1.378 . S
C1412 C1407 1.350 . S
C1413 H1400 0.929 . S
C1413 C1405 1.433 . S
C1413 N1415 1.384 . S
N1414 C1410 1.427 . S
N1414 C1411 1.384 . S
N1415 C1407 1.427 . S
N1415 C1413 1.384 . S
H1416 C1422 0.930 . S
H1417 C1426 0.930 . S
H1418 C1431 0.929 . S
H1419 C1429 0.929 . S
H1420 C1424 0.929 . S
H1421 C1430 0.929 . S
C1422 H1416 0.930 . S
C1422 C1423 1.367 . S
C1422 C1430 1.378 . S
C1423 C1422 1.367 . S
C1423 C1431 1.433 . S
C1424 H1420 0.929 . S
C1424 C1426 1.378 . S
C1424 C1428 1.350 . S
C1425 C1428 1.463 1_455 S
C1425 C1430 1.350 . S
C1425 N1433 1.427 . S
C1426 H1417 0.930 . S
C1426 C1424 1.378 . S
C1426 C1427 1.367 . S
C1427 C1426 1.367 . S
C1427 C1429 1.433 . S
C1428 C1424 1.350 . S
C1428 C1425 1.463 1_655 S
C1428 N1432 1.427 . S
C1429 H1419 0.929 . S
C1429 C1427 1.433 . S
C1429 N1432 1.384 . S
C1430 H1421 0.929 . S
C1430 C1422 1.378 . S
C1430 C1425 1.350 . S
C1431 H1418 0.929 . S
C1431 C1423 1.433 . S
C1431 N1433 1.384 . S
N1432 C1428 1.427 . S
N1432 C1429 1.384 . S
N1433 C1425 1.427 . S
N1433 C1431 1.384 . S
H1434 C1440 0.930 . S
H1435 C1444 0.930 . S
H1436 C1449 0.929 . S
H1437 C1447 0.929 . S
H1438 C1442 0.929 . S
H1439 C1448 0.929 . S
C1440 H1434 0.930 . S
C1440 C1441 1.367 . S
C1440 C1448 1.378 . S
C1441 C1440 1.367 . S
C1441 C1449 1.433 . S
C1442 H1438 0.929 . S
C1442 C1444 1.378 . S
C1442 C1446 1.350 . S
C1443 C1446 1.463 . S
C1443 C1448 1.350 . S
C1443 N1451 1.427 . S
C1444 H1435 0.930 . S
C1444 C1442 1.378 . S
C1444 C1445 1.367 . S
C1445 C1444 1.367 . S
C1445 C1447 1.433 . S
C1446 C1442 1.350 . S
C1446 C1443 1.463 . S
C1446 N1450 1.427 . S
C1447 H1437 0.929 . S
C1447 C1445 1.433 . S
C1447 N1450 1.384 . S
C1448 H1439 0.929 . S
C1448 C1440 1.378 . S
C1448 C1443 1.350 . S
C1449 H1436 0.929 . S
C1449 C1441 1.433 . S
C1449 N1451 1.384 . S
N1450 C1446 1.427 . S
N1450 C1447 1.384 . S
N1451 C1443 1.427 . S
N1451 C1449 1.384 . S
H1452 C1458 0.930 . S
H1453 C1462 0.930 . S
H1454 C1467 0.929 . S
H1455 C1465 0.929 . S
H1456 C1460 0.929 . S
H1457 C1466 0.929 . S
C1458 H1452 0.930 . S
C1458 C1459 1.367 . S
C1458 C1466 1.378 . S
C1459 C1458 1.367 . S
C1459 C1467 1.433 . S
C1460 H1456 0.929 . S
C1460 C1462 1.378 . S
C1460 C1464 1.350 . S
C1461 C1464 1.463 . S
C1461 C1466 1.350 . S
C1461 N1469 1.427 . S
C1462 H1453 0.930 . S
C1462 C1460 1.378 . S
C1462 C1463 1.367 . S
C1463 C1462 1.367 . S
C1463 C1465 1.433 . S
C1464 C1460 1.350 . S
C1464 C1461 1.463 . S
C1464 N1468 1.427 . S
C1465 H1455 0.929 . S
C1465 C1463 1.433 . S
C1465 N1468 1.384 . S
C1466 H1457 0.929 . S
C1466 C1458 1.378 . S
C1466 C1461 1.350 . S
C1467 H1454 0.929 . S
C1467 C1459 1.433 . S
C1467 N1469 1.384 . S
N1468 C1464 1.427 . S
N1468 C1465 1.384 . S
N1469 C1461 1.427 . S
N1469 C1467 1.384 . S
H1470 C1476 0.930 . S
H1471 C1480 0.930 . S
H1472 C1485 0.929 . S
H1473 C1483 0.929 . S
H1474 C1478 0.929 . S
H1475 C1484 0.929 . S
C1476 H1470 0.930 . S
C1476 C1477 1.367 . S
C1476 C1484 1.378 . S
C1477 C1476 1.367 . S
C1477 C1485 1.433 . S
C1478 H1474 0.929 . S
C1478 C1480 1.378 . S
C1478 C1482 1.350 . S
C1479 C1482 1.463 1_455 S
C1479 C1484 1.350 . S
C1479 N1487 1.427 . S
C1480 H1471 0.930 . S
C1480 C1478 1.378 . S
C1480 C1481 1.367 . S
C1481 C1480 1.367 . S
C1481 C1483 1.433 . S
C1482 C1478 1.350 . S
C1482 C1479 1.463 1_655 S
C1482 N1486 1.427 . S
C1483 H1473 0.929 . S
C1483 C1481 1.433 . S
C1483 N1486 1.384 . S
C1484 H1475 0.929 . S
C1484 C1476 1.378 . S
C1484 C1479 1.350 . S
C1485 H1472 0.929 . S
C1485 C1477 1.433 . S
C1485 N1487 1.384 . S
N1486 C1482 1.427 . S
N1486 C1483 1.384 . S
N1487 C1479 1.427 . S
N1487 C1485 1.384 . S
H1488 C1494 0.930 . S
H1489 C1498 0.930 . S
H1490 C1503 0.929 . S
H1491 C1501 0.929 . S
H1492 C1496 0.929 . S
H1493 C1502 0.929 . S
C1494 H1488 0.930 . S
C1494 C1495 1.367 . S
C1494 C1502 1.378 . S
C1495 C1494 1.367 . S
C1495 C1503 1.433 . S
C1496 H1492 0.929 . S
C1496 C1498 1.378 . S
C1496 C1500 1.350 . S
C1497 C1500 1.463 1_455 S
C1497 C1502 1.350 . S
C1497 N1505 1.427 . S
C1498 H1489 0.930 . S
C1498 C1496 1.378 . S
C1498 C1499 1.367 . S
C1499 C1498 1.367 . S
C1499 C1501 1.433 . S
C1500 C1496 1.350 . S
C1500 C1497 1.463 1_655 S
C1500 N1504 1.427 . S
C1501 H1491 0.929 . S
C1501 C1499 1.433 . S
C1501 N1504 1.384 . S
C1502 H1493 0.929 . S
C1502 C1494 1.378 . S
C1502 C1497 1.350 . S
C1503 H1490 0.929 . S
C1503 C1495 1.433 . S
C1503 N1505 1.384 . S
N1504 C1500 1.427 . S
N1504 C1501 1.384 . S
N1505 C1497 1.427 . S
N1505 C1503 1.384 . S
H1506 C1512 0.930 . S
H1507 C1516 0.930 . S
H1508 C1521 0.929 . S
H1509 C1519 0.929 . S
H1510 C1514 0.929 . S
H1511 C1520 0.929 . S
C1512 H1506 0.930 . S
C1512 C1513 1.367 . S
C1512 C1520 1.378 . S
C1513 C1512 1.367 . S
C1513 C1521 1.433 . S
C1514 H1510 0.929 . S
C1514 C1516 1.378 . S
C1514 C1518 1.350 . S
C1515 C1518 1.463 1_655 S
C1515 C1520 1.350 . S
C1515 N1523 1.427 . S
C1516 H1507 0.930 . S
C1516 C1514 1.378 . S
C1516 C1517 1.367 . S
C1517 C1516 1.367 . S
C1517 C1519 1.433 . S
C1518 C1514 1.350 . S
C1518 C1515 1.463 1_455 S
C1518 N1522 1.427 . S
C1519 H1509 0.929 . S
C1519 C1517 1.433 . S
C1519 N1522 1.384 . S
C1520 H1511 0.929 . S
C1520 C1512 1.378 . S
C1520 C1515 1.350 . S
C1521 H1508 0.929 . S
C1521 C1513 1.433 . S
C1521 N1523 1.384 . S
N1522 C1518 1.427 . S
N1522 C1519 1.384 . S
N1523 C1515 1.427 . S
N1523 C1521 1.384 . S
H1524 C1530 0.930 . S
H1525 C1534 0.930 . S
H1526 C1539 0.929 . S
H1527 C1537 0.929 . S
H1528 C1532 0.929 . S
H1529 C1538 0.929 . S
C1530 H1524 0.930 . S
C1530 C1531 1.367 . S
C1530 C1538 1.378 . S
C1531 C1530 1.367 . S
C1531 C1539 1.433 . S
C1532 H1528 0.929 . S
C1532 C1534 1.378 . S
C1532 C1536 1.350 . S
C1533 C1536 1.463 . S
C1533 C1538 1.350 . S
C1533 N1541 1.427 . S
C1534 H1525 0.930 . S
C1534 C1532 1.378 . S
C1534 C1535 1.367 . S
C1535 C1534 1.367 . S
C1535 C1537 1.433 . S
C1536 C1532 1.350 . S
C1536 C1533 1.463 . S
C1536 N1540 1.427 . S
C1537 H1527 0.929 . S
C1537 C1535 1.433 . S
C1537 N1540 1.384 . S
C1538 H1529 0.929 . S
C1538 C1530 1.378 . S
C1538 C1533 1.350 . S
C1539 H1526 0.929 . S
C1539 C1531 1.433 . S
C1539 N1541 1.384 . S
N1540 C1536 1.427 . S
N1540 C1537 1.384 . S
N1541 C1533 1.427 . S
N1541 C1539 1.384 . S
H1542 C1548 0.930 . S
H1543 C1552 0.930 . S
H1544 C1557 0.929 . S
H1545 C1555 0.929 . S
H1546 C1550 0.929 . S
H1547 C1556 0.929 . S
C1548 H1542 0.930 . S
C1548 C1549 1.367 . S
C1548 C1556 1.378 . S
C1549 C1548 1.367 . S
C1549 C1557 1.433 . S
C1550 H1546 0.929 . S
C1550 C1552 1.378 . S
C1550 C1554 1.350 . S
C1551 C1554 1.463 . S
C1551 C1556 1.350 . S
C1551 N1559 1.427 . S
C1552 H1543 0.930 . S
C1552 C1550 1.378 . S
C1552 C1553 1.367 . S
C1553 C1552 1.367 . S
C1553 C1555 1.433 . S
C1554 C1550 1.350 . S
C1554 C1551 1.463 . S
C1554 N1558 1.427 . S
C1555 H1545 0.929 . S
C1555 C1553 1.433 . S
C1555 N1558 1.384 . S
C1556 H1547 0.929 . S
C1556 C1548 1.378 . S
C1556 C1551 1.350 . S
C1557 H1544 0.929 . S
C1557 C1549 1.433 . S
C1557 N1559 1.384 . S
N1558 C1554 1.427 . S
N1558 C1555 1.384 . S
N1559 C1551 1.427 . S
N1559 C1557 1.384 . S
H1560 C1566 0.930 . S
H1561 C1570 0.930 . S
H1562 C1575 0.929 . S
H1563 C1573 0.929 . S
H1564 C1568 0.929 . S
H1565 C1574 0.929 . S
C1566 H1560 0.930 . S
C1566 C1567 1.367 . S
C1566 C1574 1.378 . S
C1567 C1566 1.367 . S
C1567 C1575 1.433 . S
C1568 H1564 0.929 . S
C1568 C1570 1.378 . S
C1568 C1572 1.350 . S
C1569 C1572 1.463 1_655 S
C1569 C1574 1.350 . S
C1569 N1577 1.427 . S
C1570 H1561 0.930 . S
C1570 C1568 1.378 . S
C1570 C1571 1.367 . S
C1571 C1570 1.367 . S
C1571 C1573 1.433 . S
C1572 C1568 1.350 . S
C1572 C1569 1.463 1_455 S
C1572 N1576 1.427 . S
C1573 H1563 0.929 . S
C1573 C1571 1.433 . S
C1573 N1576 1.384 . S
C1574 H1565 0.929 . S
C1574 C1566 1.378 . S
C1574 C1569 1.350 . S
C1575 H1562 0.929 . S
C1575 C1567 1.433 . S
C1575 N1577 1.384 . S
N1576 C1572 1.427 . S
N1576 C1573 1.384 . S
N1577 C1569 1.427 . S
N1577 C1575 1.384 . S
H1578 C1584 0.930 . S
H1579 C1588 0.930 . S
H1580 C1593 0.929 . S
H1581 C1591 0.929 . S
H1582 C1586 0.929 . S
H1583 C1592 0.929 . S
C1584 H1578 0.930 . S
C1584 C1585 1.367 . S
C1584 C1592 1.378 . S
C1585 C1584 1.367 . S
C1585 C1593 1.433 . S
C1586 H1582 0.929 . S
C1586 C1588 1.378 . S
C1586 C1590 1.350 . S
C1587 C1590 1.463 . S
C1587 C1592 1.350 . S
C1587 N1595 1.427 . S
C1588 H1579 0.930 . S
C1588 C1586 1.378 . S
C1588 C1589 1.367 . S
C1589 C1588 1.367 . S
C1589 C1591 1.433 . S
C1590 C1586 1.350 . S
C1590 C1587 1.463 . S
C1590 N1594 1.427 . S
C1591 H1581 0.929 . S
C1591 C1589 1.433 . S
C1591 N1594 1.384 . S
C1592 H1583 0.929 . S
C1592 C1584 1.378 . S
C1592 C1587 1.350 . S
C1593 H1580 0.929 . S
C1593 C1585 1.433 . S
C1593 N1595 1.384 . S
N1594 C1590 1.427 . S
N1594 C1591 1.384 . S
N1595 C1587 1.427 . S
N1595 C1593 1.384 . S
H1596 C1602 0.930 . S
H1597 C1606 0.930 . S
H1598 C1611 0.929 . S
H1599 C1609 0.929 . S
H1600 C1604 0.929 . S
H1601 C1610 0.929 . S
C1602 H1596 0.930 . S
C1602 C1603 1.367 . S
C1602 C1610 1.378 . S
C1603 C1602 1.367 . S
C1603 C1611 1.433 . S
C1604 H1600 0.929 . S
C1604 C1606 1.378 . S
C1604 C1608 1.350 . S
C1605 C1608 1.463 . S
C1605 C1610 1.350 . S
C1605 N1613 1.427 . S
C1606 H1597 0.930 . S
C1606 C1604 1.378 . S
C1606 C1607 1.367 . S
C1607 C1606 1.367 . S
C1607 C1609 1.433 . S
C1608 C1604 1.350 . S
C1608 C1605 1.463 . S
C1608 N1612 1.427 . S
C1609 H1599 0.929 . S
C1609 C1607 1.433 . S
C1609 N1612 1.384 . S
C1610 H1601 0.929 . S
C1610 C1602 1.378 . S
C1610 C1605 1.350 . S
C1611 H1598 0.929 . S
C1611 C1603 1.433 . S
C1611 N1613 1.384 . S
N1612 C1608 1.427 . S
N1612 C1609 1.384 . S
N1613 C1605 1.427 . S
N1613 C1611 1.384 . S
H1614 C1620 0.930 . S
H1615 C1624 0.930 . S
H1616 C1629 0.929 . S
H1617 C1627 0.929 . S
H1618 C1622 0.929 1_655 S
H1619 C1628 0.929 1_455 S
C1620 H1614 0.930 . S
C1620 C1621 1.367 . S
C1620 C1628 1.378 . S
C1621 C1620 1.367 . S
C1621 C1629 1.433 . S
C1622 H1618 0.929 1_455 S
C1622 C1624 1.378 . S
C1622 C1626 1.350 . S
C1623 C1626 1.463 1_655 S
C1623 C1628 1.350 . S
C1623 N1631 1.427 . S
C1624 H1615 0.930 . S
C1624 C1622 1.378 . S
C1624 C1625 1.367 . S
C1625 C1624 1.367 . S
C1625 C1627 1.433 . S
C1626 C1622 1.350 . S
C1626 C1623 1.463 1_455 S
C1626 N1630 1.427 . S
C1627 H1617 0.929 . S
C1627 C1625 1.433 . S
C1627 N1630 1.384 . S
C1628 H1619 0.929 1_655 S
C1628 C1620 1.378 . S
C1628 C1623 1.350 . S
C1629 H1616 0.929 . S
C1629 C1621 1.433 . S
C1629 N1631 1.384 . S
N1630 C1626 1.427 . S
N1630 C1627 1.384 . S
N1631 C1623 1.427 . S
N1631 C1629 1.384 . S
H1632 C1638 0.930 . S
H1633 C1642 0.930 . S
H1634 C1647 0.929 . S
H1635 C1645 0.929 . S
H1636 C1640 0.929 . S
H1637 C1646 0.929 . S
C1638 H1632 0.930 . S
C1638 C1639 1.369 . S
C1638 C1646 1.378 . S
C1639 C1638 1.369 . S
C1639 C1647 1.431 1_545 S
C1640 H1636 0.929 . S
C1640 C1642 1.378 . S
C1640 C1644 1.350 1_565 S
C1641 C1644 1.463 . S
C1641 C1646 1.350 . S
C1641 N1649 1.427 1_545 S
C1642 H1633 0.930 . S
C1642 C1640 1.378 . S
C1642 C1643 1.367 1_565 S
C1643 C1642 1.367 1_545 S
C1643 C1645 1.433 . S
C1644 C1640 1.350 1_545 S
C1644 C1641 1.463 . S
C1644 N1648 1.427 . S
C1645 H1635 0.929 . S
C1645 C1643 1.433 . S
C1645 N1648 1.384 . S
C1646 H1637 0.929 . S
C1646 C1638 1.378 . S
C1646 C1641 1.350 . S
C1647 H1634 0.929 . S
C1647 C1639 1.431 1_565 S
C1647 N1649 1.384 . S
N1648 C1644 1.427 . S
N1648 C1645 1.384 . S
N1649 C1641 1.427 1_565 S
N1649 C1647 1.384 . S
H1650 C1656 0.930 . S
H1651 C1660 0.930 1_565 S
H1652 C1665 0.929 . S
H1653 C1663 0.929 . S
H1654 C1658 0.929 . S
H1655 C1664 0.929 . S
C1656 H1650 0.930 . S
C1656 C1657 1.367 . S
C1656 C1664 1.378 . S
C1657 C1656 1.367 . S
C1657 C1665 1.433 . S
C1658 H1654 0.929 . S
C1658 C1660 1.378 . S
C1658 C1662 1.350 . S
C1659 C1662 1.463 . S
C1659 C1664 1.350 . S
C1659 N1667 1.427 . S
C1660 H1651 0.930 1_545 S
C1660 C1658 1.378 . S
C1660 C1661 1.367 1_545 S
C1661 C1660 1.367 1_565 S
C1661 C1663 1.433 . S
C1662 C1658 1.350 . S
C1662 C1659 1.463 . S
C1662 N1666 1.427 . S
C1663 H1653 0.929 . S
C1663 C1661 1.433 . S
C1663 N1666 1.384 1_565 S
C1664 H1655 0.929 . S
C1664 C1656 1.378 . S
C1664 C1659 1.350 . S
C1665 H1652 0.929 . S
C1665 C1657 1.433 . S
C1665 N1667 1.384 . S
N1666 C1662 1.427 . S
N1666 C1663 1.384 1_545 S
N1667 C1659 1.427 . S
N1667 C1665 1.384 . S
H1668 C1674 0.930 . S
H1669 C1678 0.930 . S
H1670 C1683 0.929 . S
H1671 C1681 0.929 . S
H1672 C1676 0.929 . S
H1673 C1682 0.929 . S
C1674 H1668 0.930 . S
C1674 C1675 1.367 . S
C1674 C1682 1.378 . S
C1675 C1674 1.367 . S
C1675 C1683 1.433 1_565 S
C1676 H1672 0.929 . S
C1676 C1678 1.378 . S
C1676 C1680 1.350 1_545 S
C1677 C1680 1.463 . S
C1677 C1682 1.350 . S
C1677 N1685 1.427 1_565 S
C1678 H1669 0.930 . S
C1678 C1676 1.378 . S
C1678 C1679 1.367 . S
C1679 C1678 1.367 . S
C1679 C1681 1.433 1_545 S
C1680 C1676 1.350 1_565 S
C1680 C1677 1.463 . S
C1680 N1684 1.427 . S
C1681 H1671 0.929 . S
C1681 C1679 1.433 1_565 S
C1681 N1684 1.384 . S
C1682 H1673 0.929 . S
C1682 C1674 1.378 . S
C1682 C1677 1.350 . S
C1683 H1670 0.929 . S
C1683 C1675 1.433 1_545 S
C1683 N1685 1.384 . S
N1684 C1680 1.427 . S
N1684 C1681 1.384 . S
N1685 C1677 1.427 1_545 S
N1685 C1683 1.384 . S
H1686 C1692 0.930 . S
H1687 C1696 0.930 . S
H1688 C1701 0.929 . S
H1689 C1699 0.929 1_545 S
H1690 C1694 0.929 . S
H1691 C1700 0.929 . S
C1692 H1686 0.930 . S
C1692 C1693 1.367 . S
C1692 C1700 1.378 . S
C1693 C1692 1.367 . S
C1693 C1701 1.433 . S
C1694 H1690 0.929 . S
C1694 C1696 1.378 1_565 S
C1694 C1698 1.350 . S
C1695 C1698 1.463 . S
C1695 C1700 1.350 . S
C1695 N1703 1.427 . S
C1696 H1687 0.930 . S
C1696 C1694 1.378 1_545 S
C1696 C1697 1.367 . S
C1697 C1696 1.367 . S
C1697 C1699 1.433 1_545 S
C1698 C1694 1.350 . S
C1698 C1695 1.463 . S
C1698 N1702 1.427 . S
C1699 H1689 0.929 1_565 S
C1699 C1697 1.433 1_565 S
C1699 N1702 1.384 . S
C1700 H1691 0.929 . S
C1700 C1692 1.378 . S
C1700 C1695 1.350 . S
C1701 H1688 0.929 . S
C1701 C1693 1.433 . S
C1701 N1703 1.384 . S
N1702 C1698 1.427 . S
N1702 C1699 1.384 . S
N1703 C1695 1.427 . S
N1703 C1701 1.384 . S
H1704 C1710 0.930 . S
H1705 C1714 0.930 . S
H1706 C1719 0.929 . S
H1707 C1717 0.929 . S
H1708 C1712 0.929 . S
H1709 C1718 0.927 1_545 S
C1710 H1704 0.930 . S
C1710 C1711 1.368 . S
C1710 C1718 1.378 1_545 S
C1711 C1710 1.368 . S
C1711 C1719 1.430 1_545 S
C1712 H1708 0.929 . S
C1712 C1714 1.378 . S
C1712 C1716 1.350 . S
C1713 C1716 1.463 . S
C1713 C1718 1.350 . S
C1713 N1721 1.427 . S
C1714 H1705 0.930 . S
C1714 C1712 1.378 . S
C1714 C1715 1.367 . S
C1715 C1714 1.367 . S
C1715 C1717 1.433 . S
C1716 C1712 1.350 . S
C1716 C1713 1.463 . S
C1716 N1720 1.427 . S
C1717 H1707 0.929 . S
C1717 C1715 1.433 . S
C1717 N1720 1.384 . S
C1718 H1709 0.927 1_565 S
C1718 C1710 1.378 1_565 S
C1718 C1713 1.350 . S
C1719 H1706 0.929 . S
C1719 C1711 1.430 1_565 S
C1719 N1721 1.384 . S
N1720 C1716 1.427 . S
N1720 C1717 1.384 . S
N1721 C1713 1.427 . S
N1721 C1719 1.384 . S
H1722 C1728 0.930 . S
H1723 C1732 0.930 . S
H1724 C1737 0.929 . S
H1725 C1735 0.929 . S
H1726 C1730 0.929 . S
H1727 C1736 0.929 . S
C1728 H1722 0.930 . S
C1728 C1729 1.367 . S
C1728 C1736 1.378 1_565 S
C1729 C1728 1.367 . S
C1729 C1737 1.433 . S
C1730 H1726 0.929 . S
C1730 C1732 1.378 . S
C1730 C1734 1.350 . S
C1731 C1734 1.463 . S
C1731 C1736 1.350 . S
C1731 N1739 1.427 . S
C1732 H1723 0.930 . S
C1732 C1730 1.378 . S
C1732 C1733 1.367 . S
C1733 C1732 1.367 . S
C1733 C1735 1.433 . S
C1734 C1730 1.350 . S
C1734 C1731 1.463 . S
C1734 N1738 1.427 . S
C1735 H1725 0.929 . S
C1735 C1733 1.433 . S
C1735 N1738 1.384 . S
C1736 H1727 0.929 . S
C1736 C1728 1.378 1_545 S
C1736 C1731 1.350 . S
C1737 H1724 0.929 . S
C1737 C1729 1.433 . S
C1737 N1739 1.384 1_565 S
N1738 C1734 1.427 . S
N1738 C1735 1.384 . S
N1739 C1731 1.427 . S
N1739 C1737 1.384 1_545 S
H1740 C1746 0.930 . S
H1741 C1750 0.930 1_565 S
H1742 C1755 0.929 . S
H1743 C1753 0.929 . S
H1744 C1748 0.929 . S
H1745 C1754 0.929 . S
C1746 H1740 0.930 . S
C1746 C1747 1.367 . S
C1746 C1754 1.378 . S
C1747 C1746 1.367 . S
C1747 C1755 1.433 1_545 S
C1748 H1744 0.929 . S
C1748 C1750 1.378 1_565 S
C1748 C1752 1.350 1_565 S
C1749 C1752 1.463 . S
C1749 C1754 1.350 . S
C1749 N1757 1.427 1_545 S
C1750 H1741 0.930 1_545 S
C1750 C1748 1.378 1_545 S
C1750 C1751 1.367 . S
C1751 C1750 1.367 . S
C1751 C1753 1.433 . S
C1752 C1748 1.350 1_545 S
C1752 C1749 1.463 . S
C1752 N1756 1.427 . S
C1753 H1743 0.929 . S
C1753 C1751 1.433 . S
C1753 N1756 1.384 . S
C1754 H1745 0.929 . S
C1754 C1746 1.378 . S
C1754 C1749 1.350 . S
C1755 H1742 0.929 . S
C1755 C1747 1.433 1_565 S
C1755 N1757 1.384 . S
N1756 C1752 1.427 . S
N1756 C1753 1.384 . S
N1757 C1749 1.427 1_565 S
N1757 C1755 1.384 . S
H1758 C1764 0.930 . S
H1759 C1768 0.932 . S
H1760 C1773 0.929 . S
H1761 C1771 0.929 . S
H1762 C1766 0.929 . S
H1763 C1772 0.929 . S
C1764 H1758 0.930 . S
C1764 C1765 1.367 . S
C1764 C1772 1.378 . S
C1765 C1764 1.367 . S
C1765 C1773 1.433 . S
C1766 H1762 0.929 . S
C1766 C1768 1.374 1_565 S
C1766 C1770 1.350 . S
C1767 C1770 1.463 . S
C1767 C1772 1.350 . S
C1767 N1775 1.427 . S
C1768 H1759 0.932 . S
C1768 C1766 1.374 1_545 S
C1768 C1769 1.369 . S
C1769 C1768 1.369 . S
C1769 C1771 1.433 . S
C1770 C1766 1.350 . S
C1770 C1767 1.463 . S
C1770 N1774 1.427 . S
C1771 H1761 0.929 . S
C1771 C1769 1.433 . S
C1771 N1774 1.384 1_545 S
C1772 H1763 0.929 . S
C1772 C1764 1.378 . S
C1772 C1767 1.350 . S
C1773 H1760 0.929 . S
C1773 C1765 1.433 . S
C1773 N1775 1.384 . S
N1774 C1770 1.427 . S
N1774 C1771 1.384 1_565 S
N1775 C1767 1.427 . S
N1775 C1773 1.384 . S
H1776 C1782 0.930 . S
H1777 C1786 0.930 . S
H1778 C1791 0.939 . S
H1779 C1789 0.929 . S
H1780 C1784 0.929 . S
H1781 C1790 0.929 . S
C1782 H1776 0.930 . S
C1782 C1783 1.367 . S
C1782 C1790 1.378 . S
C1783 C1782 1.367 . S
C1783 C1791 1.421 1_565 S
C1784 H1780 0.929 . S
C1784 C1786 1.378 . S
C1784 C1788 1.350 1_545 S
C1785 C1788 1.463 . S
C1785 C1790 1.350 . S
C1785 N1793 1.427 1_565 S
C1786 H1777 0.930 . S
C1786 C1784 1.378 . S
C1786 C1787 1.367 . S
C1787 C1786 1.367 . S
C1787 C1789 1.433 1_545 S
C1788 C1784 1.350 1_565 S
C1788 C1785 1.463 . S
C1788 N1792 1.427 . S
C1789 H1779 0.929 . S
C1789 C1787 1.433 1_565 S
C1789 N1792 1.384 . S
C1790 H1781 0.929 . S
C1790 C1782 1.378 . S
C1790 C1785 1.350 . S
C1791 H1778 0.939 . S
C1791 C1783 1.421 1_545 S
C1791 N1793 1.386 . S
N1792 C1788 1.427 . S
N1792 C1789 1.384 . S
N1793 C1785 1.427 1_545 S
N1793 C1791 1.386 . S
H1794 C1800 0.930 . S
H1795 C1804 0.930 . S
H1796 C1809 0.929 . S
H1797 C1807 0.929 . S
H1798 C1802 0.929 . S
H1799 C1808 0.929 . S
C1800 H1794 0.930 . S
C1800 C1801 1.367 . S
C1800 C1808 1.378 . S
C1801 C1800 1.367 . S
C1801 C1809 1.433 . S
C1802 H1798 0.929 . S
C1802 C1804 1.378 1_565 S
C1802 C1806 1.350 . S
C1803 C1806 1.463 . S
C1803 C1808 1.350 . S
C1803 N1811 1.427 . S
C1804 H1795 0.930 . S
C1804 C1802 1.378 1_545 S
C1804 C1805 1.367 . S
C1805 C1804 1.367 . S
C1805 C1807 1.433 . S
C1806 C1802 1.350 . S
C1806 C1803 1.463 . S
C1806 N1810 1.427 . S
C1807 H1797 0.929 . S
C1807 C1805 1.433 . S
C1807 N1810 1.384 1_545 S
C1808 H1799 0.929 . S
C1808 C1800 1.378 . S
C1808 C1803 1.350 . S
C1809 H1796 0.929 . S
C1809 C1801 1.433 . S
C1809 N1811 1.384 . S
N1810 C1806 1.427 . S
N1810 C1807 1.384 1_565 S
N1811 C1803 1.427 . S
N1811 C1809 1.384 . S
H1812 C1818 0.930 . S
H1813 C1822 0.930 . S
H1814 C1827 0.929 . S
H1815 C1825 0.929 . S
H1816 C1820 0.929 . S
H1817 C1826 0.929 . S
C1818 H1812 0.930 . S
C1818 C1819 1.370 . S
C1818 C1826 1.378 . S
C1819 C1818 1.370 . S
C1819 C1827 1.427 1_565 S
C1820 H1816 0.929 . S
C1820 C1822 1.378 . S
C1820 C1824 1.350 . S
C1821 C1824 1.463 . S
C1821 C1826 1.350 1_545 S
C1821 N1829 1.427 . S
C1822 H1813 0.930 . S
C1822 C1820 1.378 . S
C1822 C1823 1.367 . S
C1823 C1822 1.367 . S
C1823 C1825 1.433 . S
C1824 C1820 1.350 . S
C1824 C1821 1.463 . S
C1824 N1828 1.427 . S
C1825 H1815 0.929 . S
C1825 C1823 1.433 . S
C1825 N1828 1.384 . S
C1826 H1817 0.929 . S
C1826 C1818 1.378 . S
C1826 C1821 1.350 1_565 S
C1827 H1814 0.929 . S
C1827 C1819 1.427 1_545 S
C1827 N1829 1.384 . S
N1828 C1824 1.427 . S
N1828 C1825 1.384 . S
N1829 C1821 1.427 . S
N1829 C1827 1.384 . S
H1830 C1836 0.930 1_565 S
H1831 C1840 0.930 . S
H1832 C1845 0.929 . S
H1833 C1843 0.929 . S
H1834 C1838 0.929 . S
H1835 C1844 0.929 . S
C1836 H1830 0.930 1_545 S
C1836 C1837 1.367 1_545 S
C1836 C1844 1.378 . S
C1837 C1836 1.367 1_565 S
C1837 C1845 1.433 . S
C1838 H1834 0.929 . S
C1838 C1840 1.378 . S
C1838 C1842 1.350 . S
C1839 C1842 1.463 . S
C1839 C1844 1.350 . S
C1839 N1847 1.427 . S
C1840 H1831 0.930 . S
C1840 C1838 1.378 . S
C1840 C1841 1.367 . S
C1841 C1840 1.367 . S
C1841 C1843 1.433 . S
C1842 C1838 1.350 . S
C1842 C1839 1.463 . S
C1842 N1846 1.427 . S
C1843 H1833 0.929 . S
C1843 C1841 1.433 . S
C1843 N1846 1.384 . S
C1844 H1835 0.929 . S
C1844 C1836 1.378 . S
C1844 C1839 1.350 . S
C1845 H1832 0.929 . S
C1845 C1837 1.433 . S
C1845 N1847 1.384 1_565 S
N1846 C1842 1.427 . S
N1846 C1843 1.384 . S
N1847 C1839 1.427 . S
N1847 C1845 1.384 1_545 S
H1848 C1854 0.930 . S
H1849 C1858 0.930 . S
H1850 C1863 0.929 . S
H1851 C1861 0.929 1_565 S
H1852 C1856 0.929 . S
H1853 C1862 0.929 . S
C1854 H1848 0.930 . S
C1854 C1855 1.376 . S
C1854 C1862 1.378 . S
C1855 C1854 1.376 . S
C1855 C1863 1.421 1_565 S
C1856 H1852 0.929 . S
C1856 C1858 1.378 . S
C1856 C1860 1.350 . S
C1857 C1860 1.463 . S
C1857 C1862 1.350 1_545 S
C1857 N1865 1.427 . S
C1858 H1849 0.930 . S
C1858 C1856 1.378 . S
C1858 C1859 1.367 . S
C1859 C1858 1.367 . S
C1859 C1861 1.433 . S
C1860 C1856 1.350 . S
C1860 C1857 1.463 . S
C1860 N1864 1.427 . S
C1861 H1851 0.929 1_545 S
C1861 C1859 1.433 . S
C1861 N1864 1.384 . S
C1862 H1853 0.929 . S
C1862 C1854 1.378 . S
C1862 C1857 1.350 1_565 S
C1863 H1850 0.929 . S
C1863 C1855 1.421 1_545 S
C1863 N1865 1.384 . S
N1864 C1860 1.427 . S
N1864 C1861 1.384 . S
N1865 C1857 1.427 . S
N1865 C1863 1.384 . S
H1866 C1872 0.930 . S
H1867 C1876 0.935 . S
H1868 C1881 0.929 . S
H1869 C1879 0.929 . S
H1870 C1874 0.929 . S
H1871 C1880 0.929 . S
C1872 H1866 0.930 . S
C1872 C1873 1.367 . S
C1872 C1880 1.378 . S
C1873 C1872 1.367 . S
C1873 C1881 1.433 . S
C1874 H1870 0.929 . S
C1874 C1876 1.367 1_565 S
C1874 C1878 1.350 . S
C1875 C1878 1.463 . S
C1875 C1880 1.350 . S
C1875 N1883 1.427 . S
C1876 H1867 0.935 . S
C1876 C1874 1.367 1_545 S
C1876 C1877 1.372 . S
C1877 C1876 1.372 . S
C1877 C1879 1.433 . S
C1878 C1874 1.350 . S
C1878 C1875 1.463 . S
C1878 N1882 1.427 . S
C1879 H1869 0.929 . S
C1879 C1877 1.433 . S
C1879 N1882 1.384 1_545 S
C1880 H1871 0.929 . S
C1880 C1872 1.378 . S
C1880 C1875 1.350 . S
C1881 H1868 0.929 . S
C1881 C1873 1.433 . S
C1881 N1883 1.384 . S
N1882 C1878 1.427 . S
N1882 C1879 1.384 1_565 S
N1883 C1875 1.427 . S
N1883 C1881 1.384 . S
H1884 C1890 0.930 . S
H1885 C1894 0.930 . S
H1886 C1899 0.929 . S
H1887 C1897 0.929 . S
H1888 C1892 0.929 . S
H1889 C1898 0.929 . S
C1890 H1884 0.930 . S
C1890 C1891 1.377 . S
C1890 C1898 1.378 . S
C1891 C1890 1.377 . S
C1891 C1899 1.424 1_565 S
C1892 H1888 0.929 . S
C1892 C1894 1.378 . S
C1892 C1896 1.350 1_545 S
C1893 C1896 1.463 . S
C1893 C1898 1.350 . S
C1893 N1901 1.427 1_565 S
C1894 H1885 0.930 . S
C1894 C1892 1.378 . S
C1894 C1895 1.367 1_545 S
C1895 C1894 1.367 1_565 S
C1895 C1897 1.433 . S
C1896 C1892 1.350 1_565 S
C1896 C1893 1.463 . S
C1896 N1900 1.427 . S
C1897 H1887 0.929 . S
C1897 C1895 1.433 . S
C1897 N1900 1.384 . S
C1898 H1889 0.929 . S
C1898 C1890 1.378 . S
C1898 C1893 1.350 . S
C1899 H1886 0.929 . S
C1899 C1891 1.424 1_545 S
C1899 N1901 1.384 . S
N1900 C1896 1.427 . S
N1900 C1897 1.384 . S
N1901 C1893 1.427 1_545 S
N1901 C1899 1.384 . S
H1902 C1908 0.930 . S
H1903 C1912 0.930 . S
H1904 C1917 0.929 . S
H1905 C1915 0.939 . S
H1906 C1910 0.929 . S
H1907 C1916 0.929 . S
C1908 H1902 0.930 . S
C1908 C1909 1.367 . S
C1908 C1916 1.378 . S
C1909 C1908 1.367 . S
C1909 C1917 1.433 . S
C1910 H1906 0.929 . S
C1910 C1912 1.378 1_545 S
C1910 C1914 1.350 . S
C1911 C1914 1.463 . S
C1911 C1916 1.350 . S
C1911 N1919 1.427 . S
C1912 H1903 0.930 . S
C1912 C1910 1.378 1_565 S
C1912 C1913 1.367 . S
C1913 C1912 1.367 . S
C1913 C1915 1.444 . S
C1914 C1910 1.350 . S
C1914 C1911 1.463 . S
C1914 N1918 1.427 . S
C1915 H1905 0.939 . S
C1915 C1913 1.444 . S
C1915 N1918 1.363 1_565 S
C1916 H1907 0.929 . S
C1916 C1908 1.378 . S
C1916 C1911 1.350 . S
C1917 H1904 0.929 . S
C1917 C1909 1.433 . S
C1917 N1919 1.384 . S
N1918 C1914 1.427 . S
N1918 C1915 1.363 1_545 S
N1919 C1911 1.427 . S
N1919 C1917 1.384 . S
H1920 C1926 0.930 . S
H1921 C1930 0.930 . S
H1922 C1935 0.929 . S
H1923 C1933 0.929 . S
H1924 C1928 0.929 . S
H1925 C1934 0.929 . S
C1926 H1920 0.930 . S
C1926 C1927 1.367 . S
C1926 C1934 1.378 . S
C1927 C1926 1.367 . S
C1927 C1935 1.433 . S
C1928 H1924 0.929 . S
C1928 C1930 1.378 . S
C1928 C1932 1.350 . S
C1929 C1932 1.463 . S
C1929 C1934 1.350 . S
C1929 N1937 1.427 . S
C1930 H1921 0.930 . S
C1930 C1928 1.378 . S
C1930 C1931 1.367 . S
C1931 C1930 1.367 . S
C1931 C1933 1.433 . S
C1932 C1928 1.350 . S
C1932 C1929 1.463 . S
C1932 N1936 1.427 . S
C1933 H1923 0.929 . S
C1933 C1931 1.433 . S
C1933 N1936 1.384 . S
C1934 H1925 0.929 . S
C1934 C1926 1.378 . S
C1934 C1929 1.350 . S
C1935 H1922 0.929 . S
C1935 C1927 1.433 . S
C1935 N1937 1.384 . S
N1936 C1932 1.427 . S
N1936 C1933 1.384 . S
N1937 C1929 1.427 . S
N1937 C1935 1.384 . S
H1938 C1944 0.930 . S
H1939 C1948 0.930 . S
H1940 C1953 0.929 . S
H1941 C1951 0.929 . S
H1942 C1946 0.929 . S
H1943 C1952 0.929 . S
C1944 H1938 0.930 . S
C1944 C1945 1.367 . S
C1944 C1952 1.378 . S
C1945 C1944 1.367 . S
C1945 C1953 1.433 . S
C1946 H1942 0.929 . S
C1946 C1948 1.378 . S
C1946 C1950 1.350 . S
C1947 C1950 1.463 . S
C1947 C1952 1.350 . S
C1947 N1955 1.427 . S
C1948 H1939 0.930 . S
C1948 C1946 1.378 . S
C1948 C1949 1.367 . S
C1949 C1948 1.367 . S
C1949 C1951 1.433 . S
C1950 C1946 1.350 . S
C1950 C1947 1.463 . S
C1950 N1954 1.427 . S
C1951 H1941 0.929 . S
C1951 C1949 1.433 . S
C1951 N1954 1.384 . S
C1952 H1943 0.929 . S
C1952 C1944 1.378 . S
C1952 C1947 1.350 . S
C1953 H1940 0.929 . S
C1953 C1945 1.433 . S
C1953 N1955 1.384 . S
N1954 C1950 1.427 . S
N1954 C1951 1.384 . S
N1955 C1947 1.427 . S
N1955 C1953 1.384 . S
H1956 C1962 0.930 . S
H1957 C1966 0.930 . S
H1958 C1971 0.929 . S
H1959 C1969 0.929 . S
H1960 C1964 0.929 . S
H1961 C1970 0.929 . S
C1962 H1956 0.930 . S
C1962 C1963 1.367 . S
C1962 C1970 1.378 . S
C1963 C1962 1.367 . S
C1963 C1971 1.433 . S
C1964 H1960 0.929 . S
C1964 C1966 1.378 . S
C1964 C1968 1.350 . S
C1965 C1968 1.463 . S
C1965 C1970 1.350 . S
C1965 N1973 1.427 . S
C1966 H1957 0.930 . S
C1966 C1964 1.378 . S
C1966 C1967 1.367 . S
C1967 C1966 1.367 . S
C1967 C1969 1.433 . S
C1968 C1964 1.350 . S
C1968 C1965 1.463 . S
C1968 N1972 1.427 . S
C1969 H1959 0.929 . S
C1969 C1967 1.433 . S
C1969 N1972 1.384 . S
C1970 H1961 0.929 . S
C1970 C1962 1.378 . S
C1970 C1965 1.350 . S
C1971 H1958 0.929 . S
C1971 C1963 1.433 . S
C1971 N1973 1.384 . S
N1972 C1968 1.427 . S
N1972 C1969 1.384 . S
N1973 C1965 1.427 . S
N1973 C1971 1.384 . S
H1974 C1980 0.930 . S
H1975 C1984 0.930 . S
H1976 C1989 0.929 . S
H1977 C1987 0.929 . S
H1978 C1982 0.929 . S
H1979 C1988 0.929 . S
C1980 H1974 0.930 . S
C1980 C1981 1.367 . S
C1980 C1988 1.378 . S
C1981 C1980 1.367 . S
C1981 C1989 1.433 . S
C1982 H1978 0.929 . S
C1982 C1984 1.378 . S
C1982 C1986 1.350 . S
C1983 C1986 1.463 . S
C1983 C1988 1.350 . S
C1983 N1991 1.427 . S
C1984 H1975 0.930 . S
C1984 C1982 1.378 . S
C1984 C1985 1.367 . S
C1985 C1984 1.367 . S
C1985 C1987 1.433 . S
C1986 C1982 1.350 . S
C1986 C1983 1.463 . S
C1986 N1990 1.427 . S
C1987 H1977 0.929 . S
C1987 C1985 1.433 . S
C1987 N1990 1.384 . S
C1988 H1979 0.929 . S
C1988 C1980 1.378 . S
C1988 C1983 1.350 . S
C1989 H1976 0.929 . S
C1989 C1981 1.433 . S
C1989 N1991 1.384 . S
N1990 C1986 1.427 . S
N1990 C1987 1.384 . S
N1991 C1983 1.427 . S
N1991 C1989 1.384 . S
H1992 C1998 0.930 . S
H1993 C2002 0.930 . S
H1994 C2007 0.929 . S
H1995 C2005 0.929 . S
H1996 C2000 0.929 . S
H1997 C2006 0.929 . S
C1998 H1992 0.930 . S
C1998 C1999 1.367 . S
C1998 C2006 1.378 . S
C1999 C1998 1.367 . S
C1999 C2007 1.433 . S
C2000 H1996 0.929 . S
C2000 C2002 1.378 . S
C2000 C2004 1.350 . S
C2001 C2004 1.463 . S
C2001 C2006 1.350 . S
C2001 N2009 1.427 . S
C2002 H1993 0.930 . S
C2002 C2000 1.378 . S
C2002 C2003 1.367 . S
C2003 C2002 1.367 . S
C2003 C2005 1.433 . S
C2004 C2000 1.350 . S
C2004 C2001 1.463 . S
C2004 N2008 1.427 . S
C2005 H1995 0.929 . S
C2005 C2003 1.433 . S
C2005 N2008 1.384 . S
C2006 H1997 0.929 . S
C2006 C1998 1.378 . S
C2006 C2001 1.350 . S
C2007 H1994 0.929 . S
C2007 C1999 1.433 . S
C2007 N2009 1.384 . S
N2008 C2004 1.427 . S
N2008 C2005 1.384 . S
N2009 C2001 1.427 . S
N2009 C2007 1.384 . S
H2010 C2016 0.930 . S
H2011 C2020 0.930 . S
H2012 C2025 0.929 . S
H2013 C2023 0.929 . S
H2014 C2018 0.929 . S
H2015 C2024 0.929 . S
C2016 H2010 0.930 . S
C2016 C2017 1.367 . S
C2016 C2024 1.378 . S
C2017 C2016 1.367 . S
C2017 C2025 1.433 . S
C2018 H2014 0.929 . S
C2018 C2020 1.378 . S
C2018 C2022 1.350 . S
C2019 C2022 1.463 . S
C2019 C2024 1.350 . S
C2019 N2027 1.427 . S
C2020 H2011 0.930 . S
C2020 C2018 1.378 . S
C2020 C2021 1.367 . S
C2021 C2020 1.367 . S
C2021 C2023 1.433 . S
C2022 C2018 1.350 . S
C2022 C2019 1.463 . S
C2022 N2026 1.427 . S
C2023 H2013 0.929 . S
C2023 C2021 1.433 . S
C2023 N2026 1.384 . S
C2024 H2015 0.929 . S
C2024 C2016 1.378 . S
C2024 C2019 1.350 . S
C2025 H2012 0.929 . S
C2025 C2017 1.433 . S
C2025 N2027 1.384 . S
N2026 C2022 1.427 . S
N2026 C2023 1.384 . S
N2027 C2019 1.427 . S
N2027 C2025 1.384 . S
H2028 C2034 0.930 . S
H2029 C2038 0.930 . S
H2030 C2043 0.929 . S
H2031 C2041 0.929 . S
H2032 C2036 0.929 . S
H2033 C2042 0.929 . S
C2034 H2028 0.930 . S
C2034 C2035 1.367 . S
C2034 C2042 1.378 . S
C2035 C2034 1.367 . S
C2035 C2043 1.433 . S
C2036 H2032 0.929 . S
C2036 C2038 1.378 . S
C2036 C2040 1.350 . S
C2037 C2040 1.463 . S
C2037 C2042 1.350 . S
C2037 N2045 1.427 . S
C2038 H2029 0.930 . S
C2038 C2036 1.378 . S
C2038 C2039 1.367 . S
C2039 C2038 1.367 . S
C2039 C2041 1.433 . S
C2040 C2036 1.350 . S
C2040 C2037 1.463 . S
C2040 N2044 1.427 . S
C2041 H2031 0.929 . S
C2041 C2039 1.433 . S
C2041 N2044 1.384 . S
C2042 H2033 0.929 . S
C2042 C2034 1.378 . S
C2042 C2037 1.350 . S
C2043 H2030 0.929 . S
C2043 C2035 1.433 . S
C2043 N2045 1.384 . S
N2044 C2040 1.427 . S
N2044 C2041 1.384 . S
N2045 C2037 1.427 . S
N2045 C2043 1.384 . S
H2046 C2052 0.930 . S
H2047 C2056 0.930 . S
H2048 C2061 0.929 . S
H2049 C2059 0.929 . S
H2050 C2054 0.929 . S
H2051 C2060 0.929 . S
C2052 H2046 0.930 . S
C2052 C2053 1.367 . S
C2052 C2060 1.378 . S
C2053 C2052 1.367 . S
C2053 C2061 1.433 . S
C2054 H2050 0.929 . S
C2054 C2056 1.378 . S
C2054 C2058 1.350 . S
C2055 C2058 1.463 . S
C2055 C2060 1.350 . S
C2055 N2063 1.427 . S
C2056 H2047 0.930 . S
C2056 C2054 1.378 . S
C2056 C2057 1.367 . S
C2057 C2056 1.367 . S
C2057 C2059 1.433 . S
C2058 C2054 1.350 . S
C2058 C2055 1.463 . S
C2058 N2062 1.427 . S
C2059 H2049 0.929 . S
C2059 C2057 1.433 . S
C2059 N2062 1.384 . S
C2060 H2051 0.929 . S
C2060 C2052 1.378 . S
C2060 C2055 1.350 . S
C2061 H2048 0.929 . S
C2061 C2053 1.433 . S
C2061 N2063 1.384 . S
N2062 C2058 1.427 . S
N2062 C2059 1.384 . S
N2063 C2055 1.427 . S
N2063 C2061 1.384 . S
H2064 C2070 0.930 . S
H2065 C2074 0.930 . S
H2066 C2079 0.929 . S
H2067 C2077 0.929 . S
H2068 C2072 0.929 . S
H2069 C2078 0.929 . S
C2070 H2064 0.930 . S
C2070 C2071 1.367 . S
C2070 C2078 1.378 . S
C2071 C2070 1.367 . S
C2071 C2079 1.433 . S
C2072 H2068 0.929 . S
C2072 C2074 1.378 . S
C2072 C2076 1.350 . S
C2073 C2076 1.463 . S
C2073 C2078 1.350 . S
C2073 N2081 1.427 . S
C2074 H2065 0.930 . S
C2074 C2072 1.378 . S
C2074 C2075 1.367 . S
C2075 C2074 1.367 . S
C2075 C2077 1.433 . S
C2076 C2072 1.350 . S
C2076 C2073 1.463 . S
C2076 N2080 1.427 . S
C2077 H2067 0.929 . S
C2077 C2075 1.433 . S
C2077 N2080 1.384 . S
C2078 H2069 0.929 . S
C2078 C2070 1.378 . S
C2078 C2073 1.350 . S
C2079 H2066 0.929 . S
C2079 C2071 1.433 . S
C2079 N2081 1.384 . S
N2080 C2076 1.427 . S
N2080 C2077 1.384 . S
N2081 C2073 1.427 . S
N2081 C2079 1.384 . S
H2082 C2088 0.930 . S
H2083 C2092 0.930 . S
H2084 C2097 0.929 . S
H2085 C2095 0.929 . S
H2086 C2090 0.929 . S
H2087 C2096 0.929 . S
C2088 H2082 0.930 . S
C2088 C2089 1.367 . S
C2088 C2096 1.378 . S
C2089 C2088 1.367 . S
C2089 C2097 1.433 . S
C2090 H2086 0.929 . S
C2090 C2092 1.378 . S
C2090 C2094 1.350 . S
C2091 C2094 1.463 . S
C2091 C2096 1.350 . S
C2091 N2099 1.427 . S
C2092 H2083 0.930 . S
C2092 C2090 1.378 . S
C2092 C2093 1.367 . S
C2093 C2092 1.367 . S
C2093 C2095 1.433 . S
C2094 C2090 1.350 . S
C2094 C2091 1.463 . S
C2094 N2098 1.427 . S
C2095 H2085 0.929 . S
C2095 C2093 1.433 . S
C2095 N2098 1.384 . S
C2096 H2087 0.929 . S
C2096 C2088 1.378 . S
C2096 C2091 1.350 . S
C2097 H2084 0.929 . S
C2097 C2089 1.433 . S
C2097 N2099 1.384 . S
N2098 C2094 1.427 . S
N2098 C2095 1.384 . S
N2099 C2091 1.427 . S
N2099 C2097 1.384 . S
H2100 C2106 0.930 . S
H2101 C2110 0.930 . S
H2102 C2115 0.929 . S
H2103 C2113 0.929 . S
H2104 C2108 0.929 . S
H2105 C2114 0.929 . S
C2106 H2100 0.930 . S
C2106 C2107 1.367 . S
C2106 C2114 1.378 . S
C2107 C2106 1.367 . S
C2107 C2115 1.433 . S
C2108 H2104 0.929 . S
C2108 C2110 1.378 . S
C2108 C2112 1.350 . S
C2109 C2112 1.463 . S
C2109 C2114 1.350 . S
C2109 N2117 1.427 . S
C2110 H2101 0.930 . S
C2110 C2108 1.378 . S
C2110 C2111 1.367 . S
C2111 C2110 1.367 . S
C2111 C2113 1.433 . S
C2112 C2108 1.350 . S
C2112 C2109 1.463 . S
C2112 N2116 1.427 . S
C2113 H2103 0.929 . S
C2113 C2111 1.433 . S
C2113 N2116 1.384 . S
C2114 H2105 0.929 . S
C2114 C2106 1.378 . S
C2114 C2109 1.350 . S
C2115 H2102 0.929 . S
C2115 C2107 1.433 . S
C2115 N2117 1.384 . S
N2116 C2112 1.427 . S
N2116 C2113 1.384 . S
N2117 C2109 1.427 . S
N2117 C2115 1.384 . S
H2118 C2124 0.930 . S
H2119 C2128 0.930 . S
H2120 C2133 0.929 . S
H2121 C2131 0.929 . S
H2122 C2126 0.929 . S
H2123 C2132 0.929 . S
C2124 H2118 0.930 . S
C2124 C2125 1.367 . S
C2124 C2132 1.378 . S
C2125 C2124 1.367 . S
C2125 C2133 1.433 . S
C2126 H2122 0.929 . S
C2126 C2128 1.378 . S
C2126 C2130 1.350 . S
C2127 C2130 1.463 . S
C2127 C2132 1.350 . S
C2127 N2135 1.427 . S
C2128 H2119 0.930 . S
C2128 C2126 1.378 . S
C2128 C2129 1.367 . S
C2129 C2128 1.367 . S
C2129 C2131 1.433 . S
C2130 C2126 1.350 . S
C2130 C2127 1.463 . S
C2130 N2134 1.427 . S
C2131 H2121 0.929 . S
C2131 C2129 1.433 . S
C2131 N2134 1.384 . S
C2132 H2123 0.929 . S
C2132 C2124 1.378 . S
C2132 C2127 1.350 . S
C2133 H2120 0.929 . S
C2133 C2125 1.433 . S
C2133 N2135 1.384 . S
N2134 C2130 1.427 . S
N2134 C2131 1.384 . S
N2135 C2127 1.427 . S
N2135 C2133 1.384 . S
H2136 C2142 0.930 . S
H2137 C2146 0.930 . S
H2138 C2151 0.929 . S
H2139 C2149 0.929 . S
H2140 C2144 0.929 . S
H2141 C2150 0.929 . S
C2142 H2136 0.930 . S
C2142 C2143 1.367 . S
C2142 C2150 1.378 . S
C2143 C2142 1.367 . S
C2143 C2151 1.433 . S
C2144 H2140 0.929 . S
C2144 C2146 1.378 . S
C2144 C2148 1.350 . S
C2145 C2148 1.463 . S
C2145 C2150 1.350 . S
C2145 N2153 1.427 . S
C2146 H2137 0.930 . S
C2146 C2144 1.378 . S
C2146 C2147 1.367 . S
C2147 C2146 1.367 . S
C2147 C2149 1.433 . S
C2148 C2144 1.350 . S
C2148 C2145 1.463 . S
C2148 N2152 1.427 . S
C2149 H2139 0.929 . S
C2149 C2147 1.433 . S
C2149 N2152 1.384 . S
C2150 H2141 0.929 . S
C2150 C2142 1.378 . S
C2150 C2145 1.350 . S
C2151 H2138 0.929 . S
C2151 C2143 1.433 . S
C2151 N2153 1.384 . S
N2152 C2148 1.427 . S
N2152 C2149 1.384 . S
N2153 C2145 1.427 . S
N2153 C2151 1.384 . S
H2154 C2160 0.930 . S
H2155 C2164 0.930 . S
H2156 C2169 0.929 . S
H2157 C2167 0.929 . S
H2158 C2162 0.929 . S
H2159 C2168 0.929 . S
C2160 H2154 0.930 . S
C2160 C2161 1.367 . S
C2160 C2168 1.378 . S
C2161 C2160 1.367 . S
C2161 C2169 1.433 . S
C2162 H2158 0.929 . S
C2162 C2164 1.378 . S
C2162 C2166 1.350 . S
C2163 C2166 1.463 . S
C2163 C2168 1.350 . S
C2163 N2171 1.427 . S
C2164 H2155 0.930 . S
C2164 C2162 1.378 . S
C2164 C2165 1.367 . S
C2165 C2164 1.367 . S
C2165 C2167 1.433 . S
C2166 C2162 1.350 . S
C2166 C2163 1.463 . S
C2166 N2170 1.427 . S
C2167 H2157 0.929 . S
C2167 C2165 1.433 . S
C2167 N2170 1.384 . S
C2168 H2159 0.929 . S
C2168 C2160 1.378 . S
C2168 C2163 1.350 . S
C2169 H2156 0.929 . S
C2169 C2161 1.433 . S
C2169 N2171 1.384 . S
N2170 C2166 1.427 . S
N2170 C2167 1.384 . S
N2171 C2163 1.427 . S
N2171 C2169 1.384 . S
H2172 C2178 0.930 . S
H2173 C2182 0.930 . S
H2174 C2187 0.929 . S
H2175 C2185 0.929 . S
H2176 C2180 0.929 . S
H2177 C2186 0.929 . S
C2178 H2172 0.930 . S
C2178 C2179 1.367 . S
C2178 C2186 1.378 . S
C2179 C2178 1.367 . S
C2179 C2187 1.433 . S
C2180 H2176 0.929 . S
C2180 C2182 1.378 . S
C2180 C2184 1.350 . S
C2181 C2184 1.463 . S
C2181 C2186 1.350 . S
C2181 N2189 1.427 . S
C2182 H2173 0.930 . S
C2182 C2180 1.378 . S
C2182 C2183 1.367 . S
C2183 C2182 1.367 . S
C2183 C2185 1.433 . S
C2184 C2180 1.350 . S
C2184 C2181 1.463 . S
C2184 N2188 1.427 . S
C2185 H2175 0.929 . S
C2185 C2183 1.433 . S
C2185 N2188 1.384 . S
C2186 H2177 0.929 . S
C2186 C2178 1.378 . S
C2186 C2181 1.350 . S
C2187 H2174 0.929 . S
C2187 C2179 1.433 . S
C2187 N2189 1.384 . S
N2188 C2184 1.427 . S
N2188 C2185 1.384 . S
N2189 C2181 1.427 . S
N2189 C2187 1.384 . S
H2190 C2196 0.930 . S
H2191 C2200 0.930 . S
H2192 C2205 0.929 . S
H2193 C2203 0.929 . S
H2194 C2198 0.929 . S
H2195 C2204 0.929 . S
C2196 H2190 0.930 . S
C2196 C2197 1.367 . S
C2196 C2204 1.378 . S
C2197 C2196 1.367 . S
C2197 C2205 1.433 . S
C2198 H2194 0.929 . S
C2198 C2200 1.378 . S
C2198 C2202 1.350 . S
C2199 C2202 1.463 . S
C2199 C2204 1.350 . S
C2199 N2207 1.427 . S
C2200 H2191 0.930 . S
C2200 C2198 1.378 . S
C2200 C2201 1.367 . S
C2201 C2200 1.367 . S
C2201 C2203 1.433 . S
C2202 C2198 1.350 . S
C2202 C2199 1.463 . S
C2202 N2206 1.427 . S
C2203 H2193 0.929 . S
C2203 C2201 1.433 . S
C2203 N2206 1.384 . S
C2204 H2195 0.929 . S
C2204 C2196 1.378 . S
C2204 C2199 1.350 . S
C2205 H2192 0.929 . S
C2205 C2197 1.433 . S
C2205 N2207 1.384 . S
N2206 C2202 1.427 . S
N2206 C2203 1.384 . S
N2207 C2199 1.427 . S
N2207 C2205 1.384 . S
H2208 C2214 0.930 . S
H2209 C2218 0.930 . S
H2210 C2223 0.929 . S
H2211 C2221 0.929 . S
H2212 C2216 0.929 . S
H2213 C2222 0.929 . S
C2214 H2208 0.930 . S
C2214 C2215 1.367 . S
C2214 C2222 1.378 . S
C2215 C2214 1.367 . S
C2215 C2223 1.433 . S
C2216 H2212 0.929 . S
C2216 C2218 1.378 . S
C2216 C2220 1.350 . S
C2217 C2220 1.463 . S
C2217 C2222 1.350 . S
C2217 N2225 1.427 . S
C2218 H2209 0.930 . S
C2218 C2216 1.378 . S
C2218 C2219 1.367 . S
C2219 C2218 1.367 . S
C2219 C2221 1.433 . S
C2220 C2216 1.350 . S
C2220 C2217 1.463 . S
C2220 N2224 1.427 . S
C2221 H2211 0.929 . S
C2221 C2219 1.433 . S
C2221 N2224 1.384 . S
C2222 H2213 0.929 . S
C2222 C2214 1.378 . S
C2222 C2217 1.350 . S
C2223 H2210 0.929 . S
C2223 C2215 1.433 . S
C2223 N2225 1.384 . S
N2224 C2220 1.427 . S
N2224 C2221 1.384 . S
N2225 C2217 1.427 . S
N2225 C2223 1.384 . S
H2226 C2232 0.930 . S
H2227 C2236 0.930 . S
H2228 C2241 0.929 . S
H2229 C2239 0.929 . S
H2230 C2234 0.929 . S
H2231 C2240 0.929 . S
C2232 H2226 0.930 . S
C2232 C2233 1.367 . S
C2232 C2240 1.378 . S
C2233 C2232 1.367 . S
C2233 C2241 1.433 . S
C2234 H2230 0.929 . S
C2234 C2236 1.378 . S
C2234 C2238 1.350 . S
C2235 C2238 1.463 . S
C2235 C2240 1.350 . S
C2235 N2243 1.427 . S
C2236 H2227 0.930 . S
C2236 C2234 1.378 . S
C2236 C2237 1.367 . S
C2237 C2236 1.367 . S
C2237 C2239 1.433 . S
C2238 C2234 1.350 . S
C2238 C2235 1.463 . S
C2238 N2242 1.427 . S
C2239 H2229 0.929 . S
C2239 C2237 1.433 . S
C2239 N2242 1.384 . S
C2240 H2231 0.929 . S
C2240 C2232 1.378 . S
C2240 C2235 1.350 . S
C2241 H2228 0.929 . S
C2241 C2233 1.433 . S
C2241 N2243 1.384 . S
N2242 C2238 1.427 . S
N2242 C2239 1.384 . S
N2243 C2235 1.427 . S
N2243 C2241 1.384 . S
H2244 C2250 0.930 . S
H2245 C2254 0.930 . S
H2246 C2259 0.929 . S
H2247 C2257 0.929 . S
H2248 C2252 0.929 . S
H2249 C2258 0.929 . S
C2250 H2244 0.930 . S
C2250 C2251 1.367 . S
C2250 C2258 1.378 . S
C2251 C2250 1.367 . S
C2251 C2259 1.433 . S
C2252 H2248 0.929 . S
C2252 C2254 1.378 . S
C2252 C2256 1.350 . S
C2253 C2256 1.463 . S
C2253 C2258 1.350 . S
C2253 N2261 1.427 . S
C2254 H2245 0.930 . S
C2254 C2252 1.378 . S
C2254 C2255 1.367 . S
C2255 C2254 1.367 . S
C2255 C2257 1.433 . S
C2256 C2252 1.350 . S
C2256 C2253 1.463 . S
C2256 N2260 1.427 . S
C2257 H2247 0.929 . S
C2257 C2255 1.433 . S
C2257 N2260 1.384 . S
C2258 H2249 0.929 . S
C2258 C2250 1.378 . S
C2258 C2253 1.350 . S
C2259 H2246 0.929 . S
C2259 C2251 1.433 . S
C2259 N2261 1.384 . S
N2260 C2256 1.427 . S
N2260 C2257 1.384 . S
N2261 C2253 1.427 . S
N2261 C2259 1.384 . S
H2262 C2268 0.930 . S
H2263 C2272 0.930 . S
H2264 C2277 0.929 . S
H2265 C2275 0.929 1_565 S
H2266 C2270 0.929 . S
H2267 C2276 0.929 . S
C2268 H2262 0.930 . S
C2268 C2269 1.367 . S
C2268 C2276 1.378 . S
C2269 C2268 1.367 . S
C2269 C2277 1.433 . S
C2270 H2266 0.929 . S
C2270 C2272 1.378 . S
C2270 C2274 1.350 . S
C2271 C2274 1.463 . S
C2271 C2276 1.350 . S
C2271 N2279 1.427 . S
C2272 H2263 0.930 . S
C2272 C2270 1.378 . S
C2272 C2273 1.367 . S
C2273 C2272 1.367 . S
C2273 C2275 1.433 . S
C2274 C2270 1.350 . S
C2274 C2271 1.463 . S
C2274 N2278 1.427 . S
C2275 H2265 0.929 1_545 S
C2275 C2273 1.433 . S
C2275 N2278 1.384 . S
C2276 H2267 0.929 . S
C2276 C2268 1.378 . S
C2276 C2271 1.350 . S
C2277 H2264 0.929 . S
C2277 C2269 1.433 . S
C2277 N2279 1.384 . S
N2278 C2274 1.427 . S
N2278 C2275 1.384 . S
N2279 C2271 1.427 . S
N2279 C2277 1.384 . S
H2280 C2286 0.930 . S
H2281 C2290 0.930 . S
H2282 C2295 0.929 . S
H2283 C2293 0.929 . S
H2284 C2288 0.929 . S
H2285 C2294 0.929 . S
C2286 H2280 0.930 . S
C2286 C2287 1.367 . S
C2286 C2294 1.378 . S
C2287 C2286 1.367 . S
C2287 C2295 1.433 . S
C2288 H2284 0.929 . S
C2288 C2290 1.378 . S
C2288 C2292 1.350 . S
C2289 C2292 1.463 . S
C2289 C2294 1.350 . S
C2289 N2297 1.427 . S
C2290 H2281 0.930 . S
C2290 C2288 1.378 . S
C2290 C2291 1.367 . S
C2291 C2290 1.367 . S
C2291 C2293 1.433 . S
C2292 C2288 1.350 . S
C2292 C2289 1.463 . S
C2292 N2296 1.427 . S
C2293 H2283 0.929 . S
C2293 C2291 1.433 . S
C2293 N2296 1.384 . S
C2294 H2285 0.929 . S
C2294 C2286 1.378 . S
C2294 C2289 1.350 . S
C2295 H2282 0.929 . S
C2295 C2287 1.433 . S
C2295 N2297 1.384 . S
N2296 C2292 1.427 . S
N2296 C2293 1.384 . S
N2297 C2289 1.427 . S
N2297 C2295 1.384 . S
H2298 C2304 0.930 . S
H2299 C2308 0.930 . S
H2300 C2313 0.929 . S
H2301 C2311 0.929 . S
H2302 C2306 0.929 . S
H2303 C2312 0.929 . S
C2304 H2298 0.930 . S
C2304 C2305 1.367 . S
C2304 C2312 1.378 . S
C2305 C2304 1.367 . S
C2305 C2313 1.433 . S
C2306 H2302 0.929 . S
C2306 C2308 1.378 . S
C2306 C2310 1.350 . S
C2307 C2310 1.463 . S
C2307 C2312 1.350 . S
C2307 N2315 1.427 . S
C2308 H2299 0.930 . S
C2308 C2306 1.378 . S
C2308 C2309 1.367 . S
C2309 C2308 1.367 . S
C2309 C2311 1.433 . S
C2310 C2306 1.350 . S
C2310 C2307 1.463 . S
C2310 N2314 1.427 . S
C2311 H2301 0.929 . S
C2311 C2309 1.433 . S
C2311 N2314 1.384 . S
C2312 H2303 0.929 . S
C2312 C2304 1.378 . S
C2312 C2307 1.350 . S
C2313 H2300 0.929 . S
C2313 C2305 1.433 . S
C2313 N2315 1.384 . S
N2314 C2310 1.427 . S
N2314 C2311 1.384 . S
N2315 C2307 1.427 . S
N2315 C2313 1.384 . S
H2316 C2322 0.930 . S
H2317 C2326 0.930 . S
H2318 C2331 0.929 . S
H2319 C2329 0.929 . S
H2320 C2324 0.929 . S
H2321 C2330 0.929 . S
C2322 H2316 0.930 . S
C2322 C2323 1.367 . S
C2322 C2330 1.378 . S
C2323 C2322 1.367 . S
C2323 C2331 1.433 . S
C2324 H2320 0.929 . S
C2324 C2326 1.378 . S
C2324 C2328 1.350 . S
C2325 C2328 1.463 . S
C2325 C2330 1.350 . S
C2325 N2333 1.427 . S
C2326 H2317 0.930 . S
C2326 C2324 1.378 . S
C2326 C2327 1.367 . S
C2327 C2326 1.367 . S
C2327 C2329 1.433 . S
C2328 C2324 1.350 . S
C2328 C2325 1.463 . S
C2328 N2332 1.427 . S
C2329 H2319 0.929 . S
C2329 C2327 1.433 . S
C2329 N2332 1.384 . S
C2330 H2321 0.929 . S
C2330 C2322 1.378 . S
C2330 C2325 1.350 . S
C2331 H2318 0.929 . S
C2331 C2323 1.433 . S
C2331 N2333 1.384 . S
N2332 C2328 1.427 . S
N2332 C2329 1.384 . S
N2333 C2325 1.427 . S
N2333 C2331 1.384 . S
H2334 C2340 0.930 . S
H2335 C2344 0.930 . S
H2336 C2349 0.929 . S
H2337 C2347 0.929 . S
H2338 C2342 0.929 . S
H2339 C2348 0.929 . S
C2340 H2334 0.930 . S
C2340 C2341 1.367 . S
C2340 C2348 1.378 . S
C2341 C2340 1.367 . S
C2341 C2349 1.433 . S
C2342 H2338 0.929 . S
C2342 C2344 1.378 . S
C2342 C2346 1.350 . S
C2343 C2346 1.463 . S
C2343 C2348 1.350 . S
C2343 N2351 1.427 . S
C2344 H2335 0.930 . S
C2344 C2342 1.378 . S
C2344 C2345 1.367 . S
C2345 C2344 1.367 . S
C2345 C2347 1.433 . S
C2346 C2342 1.350 . S
C2346 C2343 1.463 . S
C2346 N2350 1.427 . S
C2347 H2337 0.929 . S
C2347 C2345 1.433 . S
C2347 N2350 1.384 . S
C2348 H2339 0.929 . S
C2348 C2340 1.378 . S
C2348 C2343 1.350 . S
C2349 H2336 0.929 . S
C2349 C2341 1.433 . S
C2349 N2351 1.384 . S
N2350 C2346 1.427 . S
N2350 C2347 1.384 . S
N2351 C2343 1.427 . S
N2351 C2349 1.384 . S
H2352 C2358 0.930 . S
H2353 C2362 0.930 . S
H2354 C2367 0.929 . S
H2355 C2365 0.929 . S
H2356 C2360 0.929 . S
H2357 C2366 0.929 . S
C2358 H2352 0.930 . S
C2358 C2359 1.367 . S
C2358 C2366 1.378 . S
C2359 C2358 1.367 . S
C2359 C2367 1.433 . S
C2360 H2356 0.929 . S
C2360 C2362 1.378 . S
C2360 C2364 1.350 . S
C2361 C2364 1.463 . S
C2361 C2366 1.350 . S
C2361 N2369 1.427 . S
C2362 H2353 0.930 . S
C2362 C2360 1.378 . S
C2362 C2363 1.367 . S
C2363 C2362 1.367 . S
C2363 C2365 1.433 . S
C2364 C2360 1.350 . S
C2364 C2361 1.463 . S
C2364 N2368 1.427 . S
C2365 H2355 0.929 . S
C2365 C2363 1.433 . S
C2365 N2368 1.384 . S
C2366 H2357 0.929 . S
C2366 C2358 1.378 . S
C2366 C2361 1.350 . S
C2367 H2354 0.929 . S
C2367 C2359 1.433 . S
C2367 N2369 1.384 . S
N2368 C2364 1.427 . S
N2368 C2365 1.384 . S
N2369 C2361 1.427 . S
N2369 C2367 1.384 . S
H2370 C2376 0.930 . S
H2371 C2380 0.930 . S
H2372 C2385 0.929 . S
H2373 C2383 0.929 . S
H2374 C2378 0.929 . S
H2375 C2384 0.929 . S
C2376 H2370 0.930 . S
C2376 C2377 1.367 . S
C2376 C2384 1.378 . S
C2377 C2376 1.367 . S
C2377 C2385 1.433 . S
C2378 H2374 0.929 . S
C2378 C2380 1.378 . S
C2378 C2382 1.350 . S
C2379 C2382 1.463 . S
C2379 C2384 1.350 . S
C2379 N2387 1.427 . S
C2380 H2371 0.930 . S
C2380 C2378 1.378 . S
C2380 C2381 1.367 . S
C2381 C2380 1.367 . S
C2381 C2383 1.433 . S
C2382 C2378 1.350 . S
C2382 C2379 1.463 . S
C2382 N2386 1.427 . S
C2383 H2373 0.929 . S
C2383 C2381 1.433 . S
C2383 N2386 1.384 . S
C2384 H2375 0.929 . S
C2384 C2376 1.378 . S
C2384 C2379 1.350 . S
C2385 H2372 0.929 . S
C2385 C2377 1.433 . S
C2385 N2387 1.384 . S
N2386 C2382 1.427 . S
N2386 C2383 1.384 . S
N2387 C2379 1.427 . S
N2387 C2385 1.384 . S
H2388 C2394 0.930 . S
H2389 C2398 0.930 . S
H2390 C2403 0.929 . S
H2391 C2401 0.929 . S
H2392 C2396 0.929 . S
H2393 C2402 0.929 . S
C2394 H2388 0.930 . S
C2394 C2395 1.367 . S
C2394 C2402 1.378 . S
C2395 C2394 1.367 . S
C2395 C2403 1.433 . S
C2396 H2392 0.929 . S
C2396 C2398 1.378 . S
C2396 C2400 1.350 . S
C2397 C2400 1.463 . S
C2397 C2402 1.350 . S
C2397 N2405 1.427 . S
C2398 H2389 0.930 . S
C2398 C2396 1.378 . S
C2398 C2399 1.367 . S
C2399 C2398 1.367 . S
C2399 C2401 1.433 . S
C2400 C2396 1.350 . S
C2400 C2397 1.463 . S
C2400 N2404 1.427 . S
C2401 H2391 0.929 . S
C2401 C2399 1.433 . S
C2401 N2404 1.384 . S
C2402 H2393 0.929 . S
C2402 C2394 1.378 . S
C2402 C2397 1.350 . S
C2403 H2390 0.929 . S
C2403 C2395 1.433 . S
C2403 N2405 1.384 . S
N2404 C2400 1.427 . S
N2404 C2401 1.384 . S
N2405 C2397 1.427 . S
N2405 C2403 1.384 . S
H2406 C2412 0.930 . S
H2407 C2416 0.930 . S
H2408 C2421 0.929 . S
H2409 C2419 0.929 . S
H2410 C2414 0.929 . S
H2411 C2420 0.929 . S
C2412 H2406 0.930 . S
C2412 C2413 1.367 . S
C2412 C2420 1.378 . S
C2413 C2412 1.367 . S
C2413 C2421 1.433 . S
C2414 H2410 0.929 . S
C2414 C2416 1.378 . S
C2414 C2418 1.350 . S
C2415 C2418 1.463 . S
C2415 C2420 1.350 . S
C2415 N2423 1.427 . S
C2416 H2407 0.930 . S
C2416 C2414 1.378 . S
C2416 C2417 1.367 . S
C2417 C2416 1.367 . S
C2417 C2419 1.433 . S
C2418 C2414 1.350 . S
C2418 C2415 1.463 . S
C2418 N2422 1.427 . S
C2419 H2409 0.929 . S
C2419 C2417 1.433 . S
C2419 N2422 1.384 . S
C2420 H2411 0.929 . S
C2420 C2412 1.378 . S
C2420 C2415 1.350 . S
C2421 H2408 0.929 . S
C2421 C2413 1.433 . S
C2421 N2423 1.384 . S
N2422 C2418 1.427 . S
N2422 C2419 1.384 . S
N2423 C2415 1.427 . S
N2423 C2421 1.384 . S
H2424 C2430 0.930 . S
H2425 C2434 0.930 . S
H2426 C2439 0.929 . S
H2427 C2437 0.929 . S
H2428 C2432 0.929 . S
H2429 C2438 0.929 . S
C2430 H2424 0.930 . S
C2430 C2431 1.367 . S
C2430 C2438 1.378 . S
C2431 C2430 1.367 . S
C2431 C2439 1.433 . S
C2432 H2428 0.929 . S
C2432 C2434 1.378 . S
C2432 C2436 1.350 . S
C2433 C2436 1.463 . S
C2433 C2438 1.350 . S
C2433 N2441 1.427 . S
C2434 H2425 0.930 . S
C2434 C2432 1.378 . S
C2434 C2435 1.367 . S
C2435 C2434 1.367 . S
C2435 C2437 1.433 . S
C2436 C2432 1.350 . S
C2436 C2433 1.463 . S
C2436 N2440 1.427 . S
C2437 H2427 0.929 . S
C2437 C2435 1.433 . S
C2437 N2440 1.384 . S
C2438 H2429 0.929 . S
C2438 C2430 1.378 . S
C2438 C2433 1.350 . S
C2439 H2426 0.929 . S
C2439 C2431 1.433 . S
C2439 N2441 1.384 . S
N2440 C2436 1.427 . S
N2440 C2437 1.384 . S
N2441 C2433 1.427 . S
N2441 C2439 1.384 . S
H2442 C2448 0.930 . S
H2443 C2452 0.930 . S
H2444 C2457 0.929 . S
H2445 C2455 0.929 . S
H2446 C2450 0.929 . S
H2447 C2456 0.929 . S
C2448 H2442 0.930 . S
C2448 C2449 1.367 . S
C2448 C2456 1.378 . S
C2449 C2448 1.367 . S
C2449 C2457 1.433 . S
C2450 H2446 0.929 . S
C2450 C2452 1.378 . S
C2450 C2454 1.350 . S
C2451 C2454 1.463 . S
C2451 C2456 1.350 . S
C2451 N2459 1.427 . S
C2452 H2443 0.930 . S
C2452 C2450 1.378 . S
C2452 C2453 1.367 . S
C2453 C2452 1.367 . S
C2453 C2455 1.433 . S
C2454 C2450 1.350 . S
C2454 C2451 1.463 . S
C2454 N2458 1.427 . S
C2455 H2445 0.929 . S
C2455 C2453 1.433 . S
C2455 N2458 1.384 . S
C2456 H2447 0.929 . S
C2456 C2448 1.378 . S
C2456 C2451 1.350 . S
C2457 H2444 0.929 . S
C2457 C2449 1.433 . S
C2457 N2459 1.384 . S
N2458 C2454 1.427 . S
N2458 C2455 1.384 . S
N2459 C2451 1.427 . S
N2459 C2457 1.384 . S
H2460 C2466 0.930 . S
H2461 C2470 0.930 . S
H2462 C2475 0.929 . S
H2463 C2473 0.929 . S
H2464 C2468 0.929 . S
H2465 C2474 0.929 . S
C2466 H2460 0.930 . S
C2466 C2467 1.367 . S
C2466 C2474 1.378 . S
C2467 C2466 1.367 . S
C2467 C2475 1.433 . S
C2468 H2464 0.929 . S
C2468 C2470 1.378 . S
C2468 C2472 1.350 . S
C2469 C2472 1.463 . S
C2469 C2474 1.350 . S
C2469 N2477 1.427 . S
C2470 H2461 0.930 . S
C2470 C2468 1.378 . S
C2470 C2471 1.367 . S
C2471 C2470 1.367 . S
C2471 C2473 1.433 . S
C2472 C2468 1.350 . S
C2472 C2469 1.463 . S
C2472 N2476 1.427 . S
C2473 H2463 0.929 . S
C2473 C2471 1.433 . S
C2473 N2476 1.384 . S
C2474 H2465 0.929 . S
C2474 C2466 1.378 . S
C2474 C2469 1.350 . S
C2475 H2462 0.929 . S
C2475 C2467 1.433 . S
C2475 N2477 1.384 . S
N2476 C2472 1.427 . S
N2476 C2473 1.384 . S
N2477 C2469 1.427 . S
N2477 C2475 1.384 . S
H2478 C2484 0.930 . S
H2479 C2488 0.930 . S
H2480 C2493 0.929 . S
H2481 C2491 0.929 . S
H2482 C2486 0.929 . S
H2483 C2492 0.929 . S
C2484 H2478 0.930 . S
C2484 C2485 1.367 . S
C2484 C2492 1.378 . S
C2485 C2484 1.367 . S
C2485 C2493 1.433 . S
C2486 H2482 0.929 . S
C2486 C2488 1.378 . S
C2486 C2490 1.350 . S
C2487 C2490 1.463 . S
C2487 C2492 1.350 . S
C2487 N2495 1.427 . S
C2488 H2479 0.930 . S
C2488 C2486 1.378 . S
C2488 C2489 1.367 . S
C2489 C2488 1.367 . S
C2489 C2491 1.433 . S
C2490 C2486 1.350 . S
C2490 C2487 1.463 . S
C2490 N2494 1.427 . S
C2491 H2481 0.929 . S
C2491 C2489 1.433 . S
C2491 N2494 1.384 . S
C2492 H2483 0.929 . S
C2492 C2484 1.378 . S
C2492 C2487 1.350 . S
C2493 H2480 0.929 . S
C2493 C2485 1.433 . S
C2493 N2495 1.384 . S
N2494 C2490 1.427 . S
N2494 C2491 1.384 . S
N2495 C2487 1.427 . S
N2495 C2493 1.384 . S
C1063 N146 1.539 . S
C1067 N14 1.533 . S
C1081 N47 1.548 . S
C1085 N179 1.542 . S
C1099 N80 1.533 . S
C1103 N212 1.545 . S
C1117 N113 1.548 . S
C1121 N245 1.541 . S
C1135 N278 1.534 . S
C1139 N410 1.547 . S
C1153 N443 1.539 . S
C1157 N311 1.549 . S
C1171 N344 1.548 . S
C1175 N476 1.536 . S
C1189 N509 1.542 . S
C1193 N377 1.533 . S
C1207 N542 1.537 . S
C1211 N674 1.535 . S
C1225 N575 1.532 . S
C1229 N707 1.541 . S
C1243 N740 1.547 . S
C1247 N608 1.544 . S
C1261 N773 1.548 . S
C1265 N641 1.536 . S
C1279 N806 1.547 . S
C1283 N938 1.543 . S
C1297 N839 1.542 . S
C1301 N971 1.532 . S
C1315 N1004 1.548 . S
C1319 N872 1.540 . S
C1333 N905 1.544 . S
C1337 N1037 1.532 . S
C1351 C17 0.866 . S
C1355 C611 0.875 . S
C1369 C50 0.865 . S
C1373 C644 0.874 . S
C1387 C83 0.877 . S
C1391 C545 0.868 . S
C1405 C116 0.884 . S
C1409 C578 0.879 . S
C1423 C149 0.867 . S
C1427 C743 0.876 . S
C1441 C776 0.855 . S
C1445 C182 0.857 . S
C1459 C215 0.873 . S
C1463 C677 0.864 . S
C1477 C248 0.877 . S
C1481 C710 0.868 . S
C1495 C875 0.866 . S
C1499 C281 0.875 . S
C1513 C314 0.873 . S
C1517 C908 0.864 . S
C1531 C809 0.878 . S
C1535 C347 0.869 . S
C1549 C380 0.874 . S
C1553 C842 0.865 . S
C1567 C413 0.870 . S
C1571 C1007 0.862 . S
C1585 C1040 0.867 . S
C1589 C446 0.876 . S
C1603 C479 0.875 . S
C1607 C941 0.882 . S
C1621 C512 0.878 . S
C1625 C974 0.884 . S
C1639 C28 1.878 . S
C1643 C470 1.759 . S
C1657 C1031 1.773 . S
C1661 C61 1.884 . S
C1675 C404 1.773 1_455 S
C1679 C94 1.885 1_545 S
C1693 C965 1.756 . S
C1697 C127 1.875 . S
C1711 C160 1.879 1_545 S
C1715 C338 1.767 . S
C1729 C193 1.880 . S
C1733 C899 1.763 . S
C1747 C226 1.879 . S
C1751 C272 1.760 1_455 S
C1765 C833 1.771 . S
C1769 C259 1.882 . S
C1783 C206 1.772 . S
C1787 C292 1.882 1_545 S
C1801 C767 1.765 . S
C1805 C325 1.882 . S
C1819 C358 1.880 1_565 S
C1823 C140 1.769 1_655 S
C1837 C391 1.884 . S
C1841 C701 1.771 . S
C1855 C424 1.883 1_565 S
C1859 C74 1.770 . S
C1873 C635 1.771 . S
C1877 C457 1.881 . S
C1891 C490 1.876 . S
C1895 C8 1.757 1_655 S
C1909 C569 1.760 . S
C1913 C523 1.878 . S
C1927 C998 1.767 1_655 S
C1931 C556 1.880 . S
C1945 C589 1.884 . S
C1949 C503 1.774 . S
C1963 C932 1.766 . S
C1967 C622 1.882 . S
C1981 C437 1.774 . S
C1985 C655 1.885 . S
C1999 C688 1.884 . S
C2003 C866 1.774 1_655 S
C2017 C371 1.761 . S
C2021 C721 1.876 . S
C2035 C800 1.757 . S
C2039 C754 1.875 . S
C2053 C787 1.883 . S
C2057 C305 1.773 . S
C2071 C820 1.884 . S
C2075 C734 1.770 1_455 S
C2089 C239 1.768 . S
C2093 C853 1.880 . S
C2107 C886 1.875 . S
C2111 C668 1.757 . S
C2125 C173 1.756 . S
C2129 C919 1.875 . S
C2143 C952 1.878 . S
C2147 C602 1.765 1_455 S
C2161 C985 1.878 . S
C2165 C107 1.765 . S
C2179 C536 1.757 . S
C2183 C1018 1.876 . S
C2197 C41 1.760 . S
C2201 C1051 1.879 . S
C2215 N236 1.691 . S
C2219 N5 1.689 . S
C2233 N137 1.691 . S
C2237 N38 1.689 . S
C2251 N170 1.689 . S
C2255 N71 1.691 . S
C2269 N104 1.692 . S
C2273 N203 1.690 . S
C2287 N500 1.691 . S
C2291 N269 1.689 . S
C2305 N302 1.689 . S
C2309 N401 1.691 . S
C2323 N434 1.689 . S
C2327 N335 1.690 . S
C2341 N467 1.689 . S
C2345 N368 1.691 . S
C2359 N764 1.689 . S
C2363 N533 1.689 . S
C2377 N566 1.691 . S
C2381 N665 1.689 . S
C2395 N698 1.690 . S
C2399 N599 1.688 . S
C2413 N731 1.689 . S
C2417 N632 1.691 . S
C2431 N797 1.689 . S
C2435 N1028 1.691 . S
C2449 N929 1.691 . S
C2453 N830 1.689 . S
C2467 N863 1.690 . S
C2471 N962 1.691 . S
C2485 N995 1.691 . S
C2489 N896 1.689 . S
