# Generated by pormake.
# Topology umc, (4)-cn, num edge types: 1
# Building blocks:
#     Node 0, Type 0, BuildingBlock: ESEHIV_clean_sbu_0, # of connection points: 4
#     Node 1, Type 0, BuildingBlock: ESEHIV_clean_sbu_0, # of connection points: 4
#     Node 2, Type 0, BuildingBlock: ESEHIV_clean_sbu_0, # of connection points: 4
#     Node 3, Type 0, BuildingBlock: ESEHIV_clean_sbu_0, # of connection points: 4
#     Node 4, Type 0, BuildingBlock: ESEHIV_clean_sbu_0, # of connection points: 4
#     Node 5, Type 0, BuildingBlock: ESEHIV_clean_sbu_0, # of connection points: 4
#     Node 6, Type 0, BuildingBlock: ESEHIV_clean_sbu_0, # of connection points: 4
#     Node 7, Type 0, BuildingBlock: ESEHIV_clean_sbu_0, # of connection points: 4
#     Node 8, Type 0, BuildingBlock: ESEHIV_clean_sbu_0, # of connection points: 4
#     Node 9, Type 0, BuildingBlock: ESEHIV_clean_sbu_0, # of connection points: 4
#     Node 10, Type 0, BuildingBlock: ESEHIV_clean_sbu_0, # of connection points: 4
#     Node 11, Type 0, BuildingBlock: ESEHIV_clean_sbu_0, # of connection points: 4
#     Node 12, Type 0, BuildingBlock: ESEHIV_clean_sbu_0, # of connection points: 4
#     Node 13, Type 0, BuildingBlock: ESEHIV_clean_sbu_0, # of connection points: 4
#     Node 14, Type 0, BuildingBlock: ESEHIV_clean_sbu_0, # of connection points: 4
#     Node 15, Type 0, BuildingBlock: ESEHIV_clean_sbu_0, # of connection points: 4
#     Edge 16, Type (0, 0), BuildingBlock: KIFKEQ_clean_linker_1, # of connection points: 2
#     Edge 17, Type (0, 0), BuildingBlock: KIFKEQ_clean_linker_1, # of connection points: 2
#     Edge 18, Type (0, 0), BuildingBlock: KIFKEQ_clean_linker_1, # of connection points: 2
#     Edge 19, Type (0, 0), BuildingBlock: KIFKEQ_clean_linker_1, # of connection points: 2
#     Edge 20, Type (0, 0), BuildingBlock: KIFKEQ_clean_linker_1, # of connection points: 2
#     Edge 21, Type (0, 0), BuildingBlock: KIFKEQ_clean_linker_1, # of connection points: 2
#     Edge 22, Type (0, 0), BuildingBlock: KIFKEQ_clean_linker_1, # of connection points: 2
#     Edge 23, Type (0, 0), BuildingBlock: KIFKEQ_clean_linker_1, # of connection points: 2
#     Edge 24, Type (0, 0), BuildingBlock: KIFKEQ_clean_linker_1, # of connection points: 2
#     Edge 25, Type (0, 0), BuildingBlock: KIFKEQ_clean_linker_1, # of connection points: 2
#     Edge 26, Type (0, 0), BuildingBlock: KIFKEQ_clean_linker_1, # of connection points: 2
#     Edge 27, Type (0, 0), BuildingBlock: KIFKEQ_clean_linker_1, # of connection points: 2
#     Edge 28, Type (0, 0), BuildingBlock: KIFKEQ_clean_linker_1, # of connection points: 2
#     Edge 29, Type (0, 0), BuildingBlock: KIFKEQ_clean_linker_1, # of connection points: 2
#     Edge 30, Type (0, 0), BuildingBlock: KIFKEQ_clean_linker_1, # of connection points: 2
#     Edge 31, Type (0, 0), BuildingBlock: KIFKEQ_clean_linker_1, # of connection points: 2
#     Edge 32, Type (0, 0), BuildingBlock: KIFKEQ_clean_linker_1, # of connection points: 2
#     Edge 33, Type (0, 0), BuildingBlock: KIFKEQ_clean_linker_1, # of connection points: 2
#     Edge 34, Type (0, 0), BuildingBlock: KIFKEQ_clean_linker_1, # of connection points: 2
#     Edge 35, Type (0, 0), BuildingBlock: KIFKEQ_clean_linker_1, # of connection points: 2
#     Edge 36, Type (0, 0), BuildingBlock: KIFKEQ_clean_linker_1, # of connection points: 2
#     Edge 37, Type (0, 0), BuildingBlock: KIFKEQ_clean_linker_1, # of connection points: 2
#     Edge 38, Type (0, 0), BuildingBlock: KIFKEQ_clean_linker_1, # of connection points: 2
#     Edge 39, Type (0, 0), BuildingBlock: KIFKEQ_clean_linker_1, # of connection points: 2
#     Edge 40, Type (0, 0), BuildingBlock: KIFKEQ_clean_linker_1, # of connection points: 2
#     Edge 41, Type (0, 0), BuildingBlock: KIFKEQ_clean_linker_1, # of connection points: 2
#     Edge 42, Type (0, 0), BuildingBlock: KIFKEQ_clean_linker_1, # of connection points: 2
#     Edge 43, Type (0, 0), BuildingBlock: KIFKEQ_clean_linker_1, # of connection points: 2
#     Edge 44, Type (0, 0), BuildingBlock: KIFKEQ_clean_linker_1, # of connection points: 2
#     Edge 45, Type (0, 0), BuildingBlock: KIFKEQ_clean_linker_1, # of connection points: 2
#     Edge 46, Type (0, 0), BuildingBlock: KIFKEQ_clean_linker_1, # of connection points: 2
#     Edge 47, Type (0, 0), BuildingBlock: KIFKEQ_clean_linker_1, # of connection points: 2
# Relax obj value: 0.039
# Max RMSD: 0.093
# Mean RMSD: 0.093
data_MOF--net-umc--node1-ESEHIV_clean_sbu_0--edge1-KIFKEQ_clean_linker_1
_symmetry_space_group_name_H-M    P1
_symmetry_Int_Tables_number       1
_symmetry_cell_setting            triclinic
loop_
_symmetry_equiv_pos_as_xyz
'x, y, z'
_cell_length_a     59.93684
_cell_length_b     35.199548
_cell_length_c     56.817432
_cell_angle_alpha  90.066782
_cell_angle_beta   90.175196
_cell_angle_gamma 89.964156
loop_
_atom_site_label
_atom_site_type_symbol
_atom_site_fract_x
_atom_site_fract_y
_atom_site_fract_z
_atom_type_partial_charge
Cu0 Cu 0.389 0.09966 0.39012 0.0
N1 N 0.42004 0.10419 0.38752 0.0
N2 N 0.45618 0.08815 0.38722 0.0
C3 C 0.43501 0.07585 0.39007 0.0
C4 C 0.45445 0.12562 0.38257 0.0
C5 C 0.43215 0.13536 0.3826 0.0
O6 O 0.37856 0.07243 0.36236 0.0
C7 C 0.3645 0.07588 0.43028 0.0
O8 O 0.34781 0.09346 0.41995 0.0
H9 H 0.43044 0.04685 0.39414 0.0
H10 H 0.42529 0.16316 0.37899 0.0
N11 N 0.37535 0.14764 0.39176 0.0
N12 N 0.34914 0.19302 0.39093 0.0
C13 C 0.35446 0.15693 0.38495 0.0
C14 C 0.38345 0.17886 0.40247 0.0
C15 C 0.36743 0.20693 0.40181 0.0
C16 C 0.38016 0.08914 0.34255 0.0
O17 O 0.38771 0.12418 0.34205 0.0
H18 H 0.34319 0.13724 0.37637 0.0
H19 H 0.39955 0.18059 0.41104 0.0
O20 O 0.38306 0.07315 0.41955 0.0
H21 H 0.46828 0.14445 0.37892 0.0
H22 H 0.36876 0.2348 0.40978 0.0
Cu23 Cu 0.66567 0.92469 0.39008 0.0
N24 N 0.6346 0.92077 0.38666 0.0
N25 N 0.59836 0.93626 0.38651 0.0
C26 C 0.61922 0.94703 0.39268 0.0
C27 C 0.6007 0.90181 0.37639 0.0
C28 C 0.62305 0.89247 0.37636 0.0
O29 O 0.67746 0.95002 0.36226 0.0
C30 C 0.69042 0.94885 0.4303 0.0
O31 O 0.70732 0.93237 0.41976 0.0
H32 H 0.62329 0.97377 0.40108 0.0
H33 H 0.63042 0.86725 0.36877 0.0
N34 N 0.67842 0.87614 0.3916 0.0
N35 N 0.70357 0.8293 0.38983 0.0
C36 C 0.69961 0.86663 0.38628 0.0
C37 C 0.6687 0.84371 0.3988 0.0
C38 C 0.68414 0.8147 0.39755 0.0
C39 C 0.66779 0.97879 0.35328 0.0
O40 O 0.65112 0.99455 0.36462 0.0
H41 H 0.7119 0.88668 0.37997 0.0
H42 H 0.65167 0.84141 0.40486 0.0
O43 O 0.67171 0.95084 0.41967 0.0
H44 H 0.58731 0.88527 0.36869 0.0
H45 H 0.68147 0.78537 0.40252 0.0
Cu46 Cu 0.38883 0.9174 0.14736 0.0
N47 N 0.41977 0.91163 0.14973 0.0
N48 N 0.45592 0.9278 0.15171 0.0
C49 C 0.43453 0.93988 0.15347 0.0
C50 C 0.45436 0.89033 0.14668 0.0
C51 C 0.43214 0.8806 0.14526 0.0
O52 O 0.38026 0.95283 0.17233 0.0
C53 C 0.36624 0.94651 0.10533 0.0
O54 O 0.34717 0.94469 0.11659 0.0
H55 H 0.42952 0.96904 0.15632 0.0
H56 H 0.42553 0.8531 0.14042 0.0
N57 N 0.37468 0.87011 0.15113 0.0
N58 N 0.34844 0.82486 0.15312 0.0
C59 C 0.35369 0.85993 0.14511 0.0
C60 C 0.38292 0.84042 0.16327 0.0
C61 C 0.36692 0.81252 0.16441 0.0
C62 C 0.36812 0.94351 0.1898 0.0
O63 O 0.35877 0.90982 0.19015 0.0
H64 H 0.34207 0.87865 0.1363 0.0
H65 H 0.39911 0.83973 0.17169 0.0
O66 O 0.38423 0.93716 0.11577 0.0
H67 H 0.4682 0.8712 0.14374 0.0
H68 H 0.36862 0.7856 0.17342 0.0
Cu69 Cu 0.66221 0.09601 0.14729 0.0
N70 N 0.63135 0.10252 0.14918 0.0
N71 N 0.59517 0.08707 0.15168 0.0
C72 C 0.61643 0.07413 0.15107 0.0
C73 C 0.59696 0.12527 0.15006 0.0
C74 C 0.61926 0.13467 0.14845 0.0
O75 O 0.66935 0.05885 0.17151 0.0
C76 C 0.68622 0.06805 0.1063 0.0
O77 O 0.70381 0.06355 0.11987 0.0
H78 H 0.62121 0.04451 0.15148 0.0
H79 H 0.62613 0.16293 0.14673 0.0
N80 N 0.6768 0.14173 0.15419 0.0
N81 N 0.7035 0.18584 0.15769 0.0
C82 C 0.69685 0.15384 0.14648 0.0
C83 C 0.67053 0.16702 0.17066 0.0
C84 C 0.68688 0.19426 0.17281 0.0
C85 C 0.68654 0.06022 0.18471 0.0
O86 O 0.70273 0.08391 0.17957 0.0
H87 H 0.7069 0.13833 0.13394 0.0
H88 H 0.6555 0.16492 0.18106 0.0
O89 O 0.66807 0.08015 0.11513 0.0
H90 H 0.58322 0.14521 0.15011 0.0
H91 H 0.68673 0.21795 0.18496 0.0
Cu92 Cu 0.66242 0.9187 0.6466 0.0
N93 N 0.6316 0.91143 0.64674 0.0
N94 N 0.59526 0.92597 0.6472 0.0
C95 C 0.61628 0.93866 0.65075 0.0
C96 C 0.59752 0.88922 0.64074 0.0
C97 C 0.61996 0.88036 0.64044 0.0
O98 O 0.66846 0.95387 0.67227 0.0
C99 C 0.68723 0.94956 0.60674 0.0
O100 O 0.70497 0.95222 0.62027 0.0
H101 H 0.62058 0.96767 0.65517 0.0
H102 H 0.62731 0.85352 0.63535 0.0
N103 N 0.67697 0.87253 0.65237 0.0
N104 N 0.70333 0.82766 0.65496 0.0
C105 C 0.69729 0.86107 0.64506 0.0
C106 C 0.66988 0.84537 0.66719 0.0
C107 C 0.68606 0.8177 0.66883 0.0
C108 C 0.68598 0.95363 0.685 0.0
O109 O 0.70296 0.93224 0.67885 0.0
H110 H 0.70789 0.87774 0.63367 0.0
H111 H 0.6543 0.84627 0.67673 0.0
O112 O 0.66899 0.93741 0.61526 0.0
H113 H 0.58398 0.87019 0.63628 0.0
H114 H 0.68531 0.7925 0.6797 0.0
Cu115 Cu 0.38838 0.09525 0.6473 0.0
N116 N 0.41907 0.09922 0.65262 0.0
N117 N 0.45505 0.08249 0.65469 0.0
C118 C 0.43456 0.07333 0.64649 0.0
C119 C 0.45232 0.11575 0.6662 0.0
C120 C 0.4301 0.12591 0.66497 0.0
O121 O 0.37563 0.06803 0.67382 0.0
C122 C 0.36571 0.06748 0.60652 0.0
O123 O 0.3474 0.07711 0.6177 0.0
H124 H 0.43073 0.04789 0.63656 0.0
H125 H 0.4224 0.15038 0.67312 0.0
N126 N 0.37542 0.14344 0.64575 0.0
N127 N 0.34977 0.18972 0.64665 0.0
C128 C 0.3543 0.15283 0.65138 0.0
C129 C 0.38464 0.17531 0.63716 0.0
C130 C 0.36892 0.2039 0.63774 0.0
C131 C 0.38404 0.03692 0.68099 0.0
O132 O 0.39965 0.02054 0.66836 0.0
H133 H 0.34249 0.13276 0.65859 0.0
H134 H 0.40145 0.17734 0.63043 0.0
O135 O 0.38443 0.07082 0.61692 0.0
H136 H 0.46525 0.13089 0.67567 0.0
H137 H 0.37127 0.23255 0.63133 0.0
Cu138 Cu 0.66822 0.09819 0.88839 0.0
N139 N 0.63725 0.10244 0.88452 0.0
N140 N 0.60096 0.08704 0.88363 0.0
C141 C 0.62168 0.07666 0.89067 0.0
C142 C 0.60371 0.12094 0.87286 0.0
C143 C 0.62605 0.13027 0.87342 0.0
O144 O 0.68006 0.07224 0.86081 0.0
C145 C 0.69184 0.07574 0.92959 0.0
O146 O 0.70861 0.0938 0.91986 0.0
H147 H 0.62566 0.05015 0.89934 0.0
H148 H 0.63368 0.15524 0.86583 0.0
N149 N 0.68109 0.14656 0.89024 0.0
N150 N 0.70663 0.19305 0.8894 0.0
C151 C 0.70167 0.15686 0.88318 0.0
C152 C 0.67263 0.1772 0.90117 0.0
C153 C 0.68826 0.20589 0.90064 0.0
C154 C 0.67126 0.04171 0.85319 0.0
O155 O 0.65567 0.02524 0.86576 0.0
H156 H 0.71292 0.13774 0.87417 0.0
H157 H 0.6565 0.17814 0.90965 0.0
O158 O 0.67368 0.07215 0.91811 0.0
H159 H 0.59058 0.13781 0.86497 0.0
H160 H 0.68651 0.2335 0.90882 0.0
Cu161 Cu 0.39245 0.92156 0.8904 0.0
N162 N 0.42317 0.91846 0.89621 0.0
N163 N 0.4592 0.93526 0.89803 0.0
C164 C 0.43873 0.94384 0.88946 0.0
C165 C 0.45631 0.90304 0.91057 0.0
C166 C 0.4341 0.89288 0.90949 0.0
O167 O 0.38859 0.95175 0.86204 0.0
C168 C 0.38698 0.96793 0.93098 0.0
O169 O 0.40481 0.9855 0.92318 0.0
H170 H 0.43493 0.96844 0.87877 0.0
H171 H 0.42633 0.8691 0.91829 0.0
N172 N 0.38034 0.87327 0.88527 0.0
N173 N 0.35507 0.82673 0.88232 0.0
C174 C 0.35856 0.86403 0.88652 0.0
C175 C 0.39103 0.84069 0.88011 0.0
C176 C 0.37549 0.81187 0.87838 0.0
C177 C 0.37047 0.95538 0.85053 0.0
O178 O 0.35193 0.94134 0.85918 0.0
H179 H 0.34555 0.88419 0.89083 0.0
H180 H 0.40887 0.83807 0.87778 0.0
O181 O 0.37819 0.94195 0.91842 0.0
H182 H 0.46914 0.88852 0.92055 0.0
H183 H 0.37889 0.78243 0.87419 0.0
Cu184 Cu 0.88686 0.59779 0.37971 0.0
N185 N 0.91809 0.60264 0.37961 0.0
N186 N 0.9543 0.58739 0.38272 0.0
C187 C 0.93309 0.57708 0.38759 0.0
C188 C 0.95258 0.62132 0.37181 0.0
C189 C 0.93029 0.63062 0.36994 0.0
O190 O 0.87721 0.56211 0.35525 0.0
C191 C 0.8798 0.55317 0.42137 0.0
O192 O 0.88755 0.52445 0.40907 0.0
H193 H 0.92846 0.55078 0.3961 0.0
H194 H 0.92348 0.6555 0.36141 0.0
N195 N 0.87347 0.64376 0.37125 0.0
N196 N 0.8473 0.68871 0.36779 0.0
C197 C 0.85571 0.66064 0.38139 0.0
C198 C 0.87635 0.66182 0.35062 0.0
C199 C 0.86027 0.68958 0.34845 0.0
C200 C 0.88966 0.53709 0.34577 0.0
O201 O 0.90932 0.53001 0.35497 0.0
H202 H 0.84806 0.65063 0.39748 0.0
H203 H 0.88836 0.65367 0.33737 0.0
O204 O 0.87742 0.58535 0.41151 0.0
H205 H 0.96634 0.63743 0.36465 0.0
H206 H 0.85771 0.70787 0.33338 0.0
Cu207 Cu 0.16159 0.42144 0.38971 0.0
N208 N 0.13068 0.41515 0.39012 0.0
N209 N 0.09445 0.43062 0.39049 0.0
C210 C 0.11558 0.44328 0.38785 0.0
C211 C 0.09642 0.39295 0.39455 0.0
C212 C 0.11879 0.38351 0.39432 0.0
O213 O 0.16732 0.45673 0.36413 0.0
C214 C 0.18845 0.44802 0.42931 0.0
O215 O 0.20614 0.44598 0.41577 0.0
H216 H 0.12013 0.47268 0.38508 0.0
H217 H 0.1259 0.3557 0.3974 0.0
N218 N 0.17557 0.37493 0.38304 0.0
N219 N 0.20158 0.32927 0.37993 0.0
C220 C 0.19514 0.36132 0.3913 0.0
C221 C 0.16928 0.35058 0.36605 0.0
C222 C 0.18517 0.32249 0.3641 0.0
C223 C 0.18397 0.4546 0.35032 0.0
O224 O 0.20038 0.43119 0.35532 0.0
H225 H 0.2047 0.37525 0.40492 0.0
H226 H 0.15462 0.35403 0.3551 0.0
O227 O 0.16931 0.44009 0.42092 0.0
H228 H 0.08272 0.37355 0.39751 0.0
H229 H 0.18503 0.29992 0.35117 0.0
Cu230 Cu 0.88784 0.41411 0.13859 0.0
N231 N 0.91874 0.4108 0.13489 0.0
N232 N 0.95465 0.42825 0.13382 0.0
C233 C 0.9335 0.43896 0.13881 0.0
C234 C 0.95299 0.3918 0.12651 0.0
C235 C 0.93084 0.38117 0.12716 0.0
O236 O 0.88281 0.44777 0.16528 0.0
C237 C 0.88079 0.46265 0.09929 0.0
O238 O 0.89314 0.48685 0.11118 0.0
H239 H 0.92866 0.467 0.14471 0.0
H240 H 0.92401 0.35386 0.12223 0.0
N241 N 0.87602 0.36629 0.1455 0.0
N242 N 0.85138 0.31915 0.15009 0.0
C243 C 0.85535 0.35355 0.1404 0.0
C244 C 0.88554 0.33897 0.15867 0.0
C245 C 0.87041 0.30987 0.16152 0.0
C246 C 0.86633 0.4451 0.17927 0.0
O247 O 0.84985 0.42196 0.17406 0.0
H248 H 0.84312 0.37011 0.13082 0.0
H249 H 0.90209 0.34065 0.16624 0.0
O250 O 0.87545 0.43126 0.10881 0.0
H251 H 0.96675 0.37388 0.12119 0.0
H252 H 0.87312 0.28417 0.17156 0.0
Cu253 Cu 0.15982 0.60445 0.14966 0.0
N254 N 0.12846 0.6072 0.15088 0.0
N255 N 0.0926 0.58942 0.14795 0.0
C256 C 0.11412 0.57981 0.14396 0.0
C257 C 0.09347 0.62469 0.15726 0.0
C258 C 0.11549 0.63559 0.15893 0.0
O259 O 0.1708 0.5725 0.17529 0.0
C260 C 0.18637 0.57873 0.11012 0.0
O261 O 0.20393 0.58116 0.12393 0.0
H262 H 0.11944 0.55327 0.13617 0.0
H263 H 0.12144 0.6624 0.16566 0.0
N264 N 0.17261 0.65237 0.15517 0.0
N265 N 0.19834 0.69845 0.15799 0.0
C266 C 0.19157 0.66709 0.14613 0.0
C267 C 0.16734 0.67522 0.17332 0.0
C268 C 0.1829 0.70375 0.17492 0.0
C269 C 0.16061 0.54376 0.18354 0.0
O270 O 0.14285 0.53089 0.1726 0.0
H271 H 0.20112 0.65354 0.13237 0.0
H272 H 0.15413 0.66986 0.18577 0.0
O273 O 0.16712 0.58619 0.11828 0.0
H274 H 0.07928 0.6412 0.16307 0.0
H275 H 0.18338 0.72556 0.18835 0.0
Cu276 Cu 0.16362 0.41947 0.6483 0.0
N277 N 0.13283 0.41478 0.64383 0.0
N278 N 0.09682 0.43147 0.6416 0.0
C279 C 0.1177 0.44244 0.64757 0.0
C280 C 0.09899 0.39539 0.63379 0.0
C281 C 0.12122 0.38525 0.63508 0.0
O282 O 0.16766 0.45123 0.67593 0.0
C283 C 0.17913 0.41701 0.60225 0.0
O284 O 0.17465 0.38085 0.60538 0.0
H285 H 0.12204 0.47016 0.65444 0.0
H286 H 0.12847 0.35856 0.62955 0.0
N287 N 0.1769 0.37244 0.65484 0.0
N288 N 0.20299 0.32716 0.65829 0.0
C289 C 0.19856 0.36338 0.65185 0.0
C290 C 0.16727 0.34109 0.66368 0.0
C291 C 0.18327 0.31311 0.66577 0.0
C292 C 0.18631 0.45978 0.68526 0.0
O293 O 0.20491 0.45051 0.6745 0.0
H294 H 0.21079 0.38322 0.64521 0.0
H295 H 0.14983 0.33873 0.66827 0.0
O296 O 0.17595 0.44014 0.61921 0.0
H297 H 0.08563 0.37791 0.62692 0.0
H298 H 0.18044 0.2845 0.67201 0.0
Cu299 Cu 0.88873 0.59986 0.63961 0.0
N300 N 0.91998 0.60346 0.63793 0.0
N301 N 0.95634 0.58814 0.63772 0.0
C302 C 0.93545 0.57705 0.64355 0.0
C303 C 0.95383 0.62313 0.62833 0.0
C304 C 0.9315 0.63236 0.62841 0.0
O305 O 0.87991 0.57193 0.66766 0.0
C306 C 0.888 0.55473 0.59796 0.0
O307 O 0.90578 0.53872 0.60718 0.0
H308 H 0.93138 0.54955 0.65073 0.0
H309 H 0.92407 0.65798 0.6214 0.0
N310 N 0.87663 0.64844 0.64348 0.0
N311 N 0.8514 0.69501 0.64684 0.0
C312 C 0.85549 0.65946 0.6389 0.0
C313 C 0.88621 0.67799 0.65463 0.0
C314 C 0.87073 0.70675 0.65669 0.0
C315 C 0.8843 0.53758 0.67282 0.0
O316 O 0.89455 0.51589 0.65745 0.0
H317 H 0.84305 0.64101 0.63111 0.0
H318 H 0.903 0.67802 0.66164 0.0
O319 O 0.87744 0.57955 0.60989 0.0
H320 H 0.96711 0.64076 0.62154 0.0
H321 H 0.87335 0.73385 0.66528 0.0
Cu322 Cu 0.16706 0.60069 0.88977 0.0
N323 N 0.1362 0.60603 0.89338 0.0
N324 N 0.10012 0.58982 0.89457 0.0
C325 C 0.12119 0.57788 0.89057 0.0
C326 C 0.10197 0.62696 0.9002 0.0
C327 C 0.12427 0.6368 0.89963 0.0
O328 O 0.171 0.56738 0.86284 0.0
C329 C 0.18169 0.60489 0.93617 0.0
O330 O 0.1778 0.64104 0.9322 0.0
H331 H 0.12567 0.54921 0.88553 0.0
H332 H 0.13127 0.66431 0.90379 0.0
N333 N 0.18084 0.64714 0.88268 0.0
N334 N 0.20719 0.69175 0.87902 0.0
C335 C 0.20262 0.6557 0.88555 0.0
C336 C 0.1714 0.67869 0.87372 0.0
C337 C 0.18757 0.70634 0.87161 0.0
C338 C 0.18936 0.56059 0.85246 0.0
O339 O 0.20813 0.57281 0.86173 0.0
H340 H 0.21477 0.63608 0.89271 0.0
H341 H 0.15401 0.68139 0.86892 0.0
O342 O 0.17864 0.58106 0.91955 0.0
H343 H 0.08825 0.64545 0.90492 0.0
H344 H 0.18516 0.73476 0.86481 0.0
Cu345 Cu 0.89235 0.42399 0.88307 0.0
N346 N 0.92317 0.41872 0.8876 0.0
N347 N 0.95932 0.43427 0.88995 0.0
C348 C 0.93852 0.44624 0.88453 0.0
C349 C 0.957 0.39762 0.89647 0.0
C350 C 0.93466 0.38816 0.8951 0.0
O351 O 0.88859 0.45509 0.85507 0.0
C352 C 0.88854 0.47143 0.92354 0.0
O353 O 0.90556 0.48958 0.91439 0.0
H354 H 0.93447 0.47458 0.87851 0.0
H355 H 0.92729 0.36111 0.89962 0.0
N356 N 0.87909 0.3767 0.87747 0.0
N357 N 0.85314 0.33098 0.87518 0.0
C358 C 0.85802 0.36648 0.8828 0.0
C359 C 0.88792 0.34675 0.86613 0.0
C360 C 0.87203 0.31851 0.86475 0.0
C361 C 0.87093 0.45621 0.8426 0.0
O362 O 0.85277 0.43945 0.85023 0.0
H363 H 0.84635 0.38531 0.89144 0.0
H364 H 0.90465 0.34573 0.85908 0.0
O365 O 0.87948 0.44462 0.91188 0.0
H366 H 0.97038 0.37933 0.90246 0.0
H367 H 0.87431 0.29096 0.85665 0.0
H368 H 0.3313 0.09385 0.46112 0.0
H369 H 0.39412 0.03415 0.45662 0.0
H370 H 0.33106 0.0849 0.50343 0.0
H371 H 0.39343 0.02352 0.49903 0.0
H372 H 0.40074 0.0636 0.57594 0.0
H373 H 0.39931 0.05888 0.53337 0.0
H374 H 0.32766 0.04561 0.53637 0.0
H375 H 0.32908 0.05218 0.57909 0.0
C376 C 0.34483 0.07797 0.4691 0.0
C377 C 0.36284 0.06505 0.45546 0.0
C378 C 0.34463 0.07259 0.49347 0.0
C379 C 0.36232 0.0537 0.5049 0.0
C380 C 0.37975 0.03895 0.49102 0.0
C381 C 0.38007 0.04476 0.46663 0.0
C382 C 0.38469 0.05916 0.56758 0.0
C383 C 0.36499 0.05867 0.58096 0.0
C384 C 0.38386 0.05619 0.54305 0.0
C385 C 0.36333 0.05216 0.5312 0.0
C386 C 0.34374 0.04956 0.54475 0.0
C387 C 0.34455 0.05302 0.5693 0.0
H388 H 0.72374 0.97121 0.58064 0.0
H389 H 0.65345 0.94563 0.57459 0.0
H390 H 0.72575 0.97928 0.53794 0.0
H391 H 0.65558 0.95247 0.53227 0.0
H392 H 0.65963 0.98625 0.45736 0.0
H393 H 0.65997 0.99422 0.49998 0.0
H394 H 0.7247 0.94031 0.5034 0.0
H395 H 0.72468 0.93362 0.46079 0.0
C396 C 0.7087 0.96755 0.57027 0.0
C397 C 0.68848 0.95758 0.58109 0.0
C398 C 0.70987 0.97196 0.54575 0.0
C399 C 0.69084 0.96648 0.53153 0.0
C400 C 0.67052 0.95759 0.54254 0.0
C401 C 0.66935 0.95331 0.56693 0.0
C402 C 0.67411 0.97672 0.46717 0.0
C403 C 0.69201 0.95893 0.45564 0.0
C404 C 0.67425 0.98104 0.49166 0.0
C405 C 0.6922 0.96735 0.50528 0.0
C406 C 0.71065 0.95148 0.49358 0.0
C407 C 0.71059 0.94745 0.46906 0.0
H408 H 0.33132 0.95421 0.07412 0.0
H409 H 0.40313 0.96172 0.07906 0.0
H410 H 0.33352 0.96596 0.0317 0.0
H411 H 0.40531 0.97292 0.03699 0.0
H412 H 0.40413 0.017 0.96373 0.0
H413 H 0.39677 0.01808 1.00588 0.0
H414 H 0.34684 0.93083 0.99689 0.0
H415 H 0.35391 0.93014 0.95465 0.0
C416 C 0.34753 0.95875 0.06624 0.0
C417 C 0.36705 0.95685 0.08001 0.0
C418 C 0.3488 0.96528 0.04192 0.0
C419 C 0.36959 0.97041 0.03091 0.0
C420 C 0.38899 0.96966 0.04487 0.0
C421 C 0.38774 0.96291 0.06904 0.0
C422 C 0.39128 0.99852 0.97064 0.0
C423 C 0.37981 0.97317 0.95579 0.0
C424 C 0.38716 0.99899 0.99486 0.0
C425 C 0.37145 0.97414 1.00485 0.0
C426 C 0.35897 0.95048 0.9898 0.0
C427 C 0.36311 0.94999 0.96555 0.0
H428 H 0.72555 0.0899 0.96098 0.0
H429 H 0.66015 0.03897 0.95579 0.0
H430 H 0.72477 0.08227 1.00352 0.0
H431 H 0.65965 0.03027 0.99835 0.0
H432 H 0.65286 0.07595 0.07387 0.0
H433 H 0.65535 0.07142 0.03137 0.0
H434 H 0.72501 0.04107 0.03722 0.0
H435 H 0.72264 0.04664 0.08004 0.0
C436 C 0.71118 0.07631 0.96884 0.0
C437 C 0.6928 0.06545 0.95493 0.0
C438 C 0.71079 0.07176 0.99331 0.0
C439 C 0.69203 0.05605 1.0045 0.0
C440 C 0.67418 0.04323 0.99042 0.0
C441 C 0.67453 0.04796 0.96596 0.0
C442 C 0.66871 0.068 0.06619 0.0
C443 C 0.68759 0.0619 0.08045 0.0
C444 C 0.67009 0.06508 0.04171 0.0
C445 C 0.69038 0.05584 0.03073 0.0
C446 C 0.70917 0.04869 0.04502 0.0
C447 C 0.70779 0.05168 0.0696 0.0
H448 H 0.85396 0.58616 0.57197 0.0
H449 H 0.90998 0.5094 0.56658 0.0
H450 H 0.84824 0.58186 0.5295 0.0
H451 H 0.90473 0.506 0.52423 0.0
H452 H 0.88443 0.48955 0.44885 0.0
H453 H 0.88261 0.4855 0.49167 0.0
H454 H 0.86658 0.60508 0.49519 0.0
H455 H 0.86774 0.60882 0.45251 0.0
C456 C 0.86491 0.56805 0.56179 0.0
C457 C 0.88253 0.54834 0.57273 0.0
C458 C 0.86175 0.56581 0.53738 0.0
C459 C 0.87615 0.54389 0.52328 0.0
C460 C 0.89312 0.52285 0.53443 0.0
C461 C 0.89623 0.52498 0.5588 0.0
C462 C 0.8802 0.51485 0.45875 0.0
C463 C 0.87638 0.54956 0.44719 0.0
C464 C 0.8793 0.51259 0.48335 0.0
C465 C 0.87462 0.54502 0.49702 0.0
C466 C 0.86996 0.57937 0.48534 0.0
C467 C 0.87078 0.58158 0.46078 0.0
H468 H 0.20223 0.37707 0.56965 0.0
H469 H 0.17051 0.48562 0.5811 0.0
H470 H 0.20803 0.39307 0.52841 0.0
H471 H 0.17607 0.50156 0.53944 0.0
H472 H 0.15624 0.47127 0.4599 0.0
H473 H 0.15801 0.47172 0.5028 0.0
H474 H 0.22726 0.43836 0.50001 0.0
H475 H 0.22558 0.43821 0.45694 0.0
C476 C 0.19687 0.4047 0.56341 0.0
C477 C 0.18582 0.43003 0.57854 0.0
C478 C 0.20032 0.41396 0.53981 0.0
C479 C 0.19245 0.44852 0.53065 0.0
C480 C 0.18225 0.47466 0.54602 0.0
C481 C 0.17918 0.46565 0.56985 0.0
C482 C 0.17198 0.4648 0.46841 0.0
C483 C 0.19072 0.45438 0.45502 0.0
C484 C 0.17303 0.46532 0.493 0.0
C485 C 0.19274 0.45491 0.50478 0.0
C486 C 0.21181 0.44634 0.49139 0.0
C487 C 0.21086 0.4464 0.46674 0.0
H488 H 0.85344 0.44114 0.94814 0.0
H489 H 0.91067 0.51461 0.95602 0.0
H490 H 0.8471 0.44407 0.9905 0.0
H491 H 0.905 0.51627 0.99825 0.0
H492 H 0.88692 0.52781 0.07377 0.0
H493 H 0.8844 0.5354 0.0312 0.0
H494 H 0.86337 0.41839 0.0246 0.0
H495 H 0.86496 0.41146 0.06708 0.0
C496 C 0.86455 0.45822 0.95887 0.0
C497 C 0.88265 0.47742 0.94865 0.0
C498 C 0.86103 0.45966 0.98323 0.0
C499 C 0.87568 0.48002 0.99802 0.0
C500 C 0.89315 0.50065 0.98757 0.0
C501 C 0.89651 0.49953 0.96323 0.0
C502 C 0.88137 0.50393 0.06324 0.0
C503 C 0.87631 0.46895 0.07386 0.0
C504 C 0.88009 0.50817 0.03876 0.0
C505 C 0.87397 0.47739 0.02424 0.0
C506 C 0.8679 0.44295 0.03505 0.0
C507 C 0.86893 0.43886 0.05952 0.0
H508 H 0.22399 0.58727 0.08337 0.0
H509 H 0.15437 0.55648 0.07873 0.0
H510 H 0.2265 0.5862 0.04038 0.0
H511 H 0.15698 0.55511 0.03588 0.0
H512 H 0.17158 0.5376 0.95809 0.0
H513 H 0.17563 0.5233 1.00021 0.0
H514 H 0.20843 0.63116 1.01081 0.0
H515 H 0.20412 0.64555 0.9691 0.0
C516 C 0.20937 0.57945 0.07323 0.0
C517 C 0.18893 0.5723 0.08446 0.0
C518 C 0.21079 0.57898 0.04862 0.0
C519 C 0.19192 0.57069 0.03476 0.0
C520 C 0.17185 0.56126 0.04606 0.0
C521 C 0.17034 0.56232 0.07061 0.0
C522 C 0.18009 0.55777 0.96937 0.0
C523 C 0.18744 0.59275 0.96037 0.0
C524 C 0.18229 0.54972 0.99346 0.0
C525 C 0.19231 0.57616 1.00881 0.0
C526 C 0.20083 0.61006 0.99944 0.0
C527 C 0.19825 0.61839 0.97556 0.0
H528 H 0.59391 0.01237 0.38191 0.0
H529 H 0.55687 0.90964 0.39493 0.0
H530 H 0.55941 0.04897 0.38253 0.0
H531 H 0.52231 0.94615 0.39668 0.0
H532 H 0.46179 0.01518 0.37343 0.0
H533 H 0.49627 0.97845 0.37391 0.0
H534 H 0.53078 0.07401 0.40515 0.0
H535 H 0.49641 0.11097 0.40356 0.0
C536 C 0.57837 0.99774 0.38535 0.0
C537 C 0.57808 0.95815 0.38835 0.0
C538 C 0.55852 0.01872 0.38579 0.0
C539 C 0.53784 1.00072 0.38964 0.0
C540 C 0.53772 0.96109 0.39314 0.0
C541 C 0.55755 0.94008 0.3923 0.0
C542 C 0.47675 0.02815 0.3805 0.0
C543 C 0.47642 0.06597 0.38838 0.0
C544 C 0.49658 1.00706 0.3809 0.0
C545 C 0.51654 0.02305 0.38957 0.0
C546 C 0.51599 0.0608 0.39785 0.0
C547 C 0.49625 0.08204 0.39706 0.0
H548 H 0.49759 0.90887 0.13636 0.0
H549 H 0.46045 0.99913 0.17005 0.0
H550 H 0.53101 0.94762 0.13774 0.0
H551 H 0.49399 0.03811 0.17087 0.0
H552 H 0.55281 0.10912 0.14048 0.0
H553 H 0.51908 0.07073 0.1419 0.0
H554 H 0.55747 0.97527 0.16712 0.0
H555 H 0.59116 0.01363 0.16625 0.0
C556 C 0.49644 0.93673 0.14427 0.0
C557 C 0.47603 0.9506 0.15305 0.0
C558 C 0.51572 0.95903 0.14501 0.0
C559 C 0.51516 0.99596 0.15438 0.0
C560 C 0.49489 0.00991 0.16327 0.0
C561 C 0.47561 0.98747 0.16274 0.0
C562 C 0.55415 0.08016 0.14664 0.0
C563 C 0.57496 0.06465 0.1531 0.0
C564 C 0.53473 0.05811 0.14743 0.0
C565 C 0.53561 0.01991 0.15452 0.0
C566 C 0.55629 1.00446 0.16123 0.0
C567 C 0.57567 0.02655 0.16065 0.0
H568 H 0.55699 0.91457 0.62255 0.0
H569 H 0.58734 0.98742 0.67474 0.0
H570 H 0.52308 0.95269 0.62395 0.0
H571 H 0.55334 0.02535 0.67641 0.0
H572 H 0.49777 0.10788 0.65574 0.0
H573 H 0.53173 0.06983 0.65384 0.0
H574 H 0.49198 0.96779 0.64864 0.0
H575 H 0.45813 1.00586 0.65031 0.0
C576 C 0.55634 0.93845 0.63454 0.0
C577 C 0.57492 0.94791 0.64852 0.0
C578 C 0.53687 0.96036 0.63535 0.0
C579 C 0.53542 0.99223 0.65026 0.0
C580 C 0.55396 1.00148 0.66439 0.0
C581 C 0.57347 0.97966 0.66349 0.0
C582 C 0.49629 0.07733 0.65428 0.0
C583 C 0.47518 0.06001 0.65311 0.0
C584 C 0.51578 0.05545 0.65324 0.0
C585 C 0.51466 0.01564 0.65111 0.0
C586 C 0.49353 0.99838 0.64988 0.0
C587 C 0.47406 0.02026 0.65083 0.0
H588 H 0.5635 0.09296 0.85668 0.0
H589 H 0.59166 0.0317 0.91555 0.0
H590 H 0.52931 0.05623 0.86004 0.0
H591 H 0.55741 0.99485 0.91885 0.0
H592 H 0.50181 0.90939 0.90177 0.0
H593 H 0.53608 0.94617 0.89841 0.0
H594 H 0.49734 0.04752 0.88543 0.0
H595 H 0.4631 0.01081 0.88881 0.0
C596 C 0.56239 0.07198 0.87052 0.0
C597 C 0.58049 0.06549 0.88586 0.0
C598 C 0.54271 0.05082 0.87243 0.0
C599 C 0.54054 0.0225 0.88971 0.0
C600 C 0.55859 0.01601 0.90508 0.0
C601 C 0.57828 0.03722 0.9032 0.0
C602 C 0.50055 0.93954 0.89835 0.0
C603 C 0.47957 0.95698 0.89556 0.0
C604 C 0.52025 0.96069 0.89645 0.0
C605 C 0.51954 0.99989 0.89167 0.0
C606 C 0.49857 0.0173 0.88877 0.0
C607 C 0.47888 0.99617 0.89068 0.0
H608 H 0.99671 0.61313 0.38765 0.0
H609 H 0.95748 0.51044 0.38423 0.0
H610 H 0.03069 0.57523 0.39035 0.0
H611 H 0.99137 0.47255 0.3867 0.0
H612 H 0.05537 0.41554 0.41268 0.0
H613 H 1.02145 0.45375 0.41215 0.0
H614 H 0.05354 0.53477 0.36633 0.0
H615 H 0.08747 0.49671 0.36706 0.0
C616 C 0.99532 0.58248 0.38743 0.0
C617 C 0.97431 0.56493 0.38573 0.0
C618 C 1.01483 0.56069 0.38891 0.0
C619 C 1.01385 0.52074 0.38863 0.0
C620 C 0.9928 0.5032 0.38732 0.0
C621 C 0.97329 0.52499 0.38592 0.0
C622 C 0.05515 0.44134 0.40235 0.0
C623 C 0.07422 0.453 0.38993 0.0
C624 C 0.03566 0.46331 0.40204 0.0
C625 C 0.0347 0.49748 0.38924 0.0
C626 C 0.05376 0.50904 0.37676 0.0
C627 C 0.07325 0.48714 0.37713 0.0
H628 H 0.04975 0.61344 0.14279 0.0
H629 H 0.09052 0.51226 0.1455 0.0
H630 H 1.01646 0.57427 0.13906 0.0
H631 H 0.05721 0.47316 0.14155 0.0
H632 H 0.99397 0.41749 0.11088 0.0
H633 H 1.02748 0.45639 0.11356 0.0
H634 H 0.99447 0.53039 0.16312 0.0
H635 H 0.96104 0.49141 0.16066 0.0
C636 C 0.05167 0.58289 0.14268 0.0
C637 C 0.07294 0.56617 0.14454 0.0
C638 C 0.03254 0.56039 0.14055 0.0
C639 C 0.03413 0.52054 0.14011 0.0
C640 C 0.05539 0.50378 0.14155 0.0
C641 C 0.07454 0.52628 0.14377 0.0
C642 C 0.99386 0.44179 0.12254 0.0
C643 C 0.97464 0.45118 0.13551 0.0
C644 C 1.01312 0.46417 0.12405 0.0
C645 C 1.01366 0.49661 0.1385 0.0
C646 C 0.99451 0.50598 0.1515 0.0
C647 C 0.97529 0.48355 0.15007 0.0
H648 H 0.96488 0.5281 0.66663 0.0
H649 H 0.99432 0.59751 0.61227 0.0
H650 H 0.9989 0.49012 0.66844 0.0
H651 H 0.0282 0.55983 0.61426 0.0
H652 H 0.09358 0.50841 0.63957 0.0
H653 H 0.05968 0.54652 0.64005 0.0
H654 H 1.0201 0.44436 0.64476 0.0
H655 H 0.05411 0.40621 0.64505 0.0
C656 C 0.97849 0.53526 0.65499 0.0
C657 C 0.9767 0.56609 0.63933 0.0
C658 C 0.99804 0.51342 0.65604 0.0
C659 C 1.01634 0.52192 0.64153 0.0
C660 C 1.0146 0.55283 0.62599 0.0
C661 C 0.99508 0.57455 0.62488 0.0
C662 C 0.07771 0.494 0.64102 0.0
C663 C 0.07667 0.45412 0.64227 0.0
C664 C 0.05821 0.51589 0.64102 0.0
C665 C 0.03711 0.49855 0.64234 0.0
C666 C 0.03605 0.45871 0.64392 0.0
C667 C 0.05557 0.43678 0.64382 0.0
H668 H 0.09554 0.51541 0.9055 0.0
H669 H 0.05902 0.61348 0.88125 0.0
H670 H 0.06146 0.47776 0.9044 0.0
H671 H 1.02499 0.57572 0.87916 0.0
H672 H 0.96329 0.509 0.90029 0.0
H673 H 0.99738 0.54652 0.90151 0.0
H674 H 0.03529 0.44773 0.88028 0.0
H675 H 1.00113 0.41008 0.88005 0.0
C676 C 0.08023 0.52878 0.89963 0.0
C677 C 0.07997 0.56743 0.8935 0.0
C678 C 0.06064 0.50715 0.89889 0.0
C679 C 0.04027 0.52347 0.89166 0.0
C680 C 0.04015 0.56217 0.8853 0.0
C681 C 0.05969 0.58389 0.88638 0.0
C682 C 0.97891 0.49543 0.89574 0.0
C683 C 0.97952 0.45659 0.89005 0.0
C684 C 0.99852 0.51697 0.89635 0.0
C685 C 1.01929 0.50039 0.89094 0.0
C686 C 1.01978 0.4615 0.88502 0.0
C687 C 1.00018 0.43984 0.88476 0.0
H688 H 0.23975 0.3528 0.40202 0.0
H689 H 0.21139 0.25835 0.36349 0.0
H690 H 0.27489 0.31902 0.40496 0.0
H691 H 0.24696 0.22569 0.3652 0.0
H692 H 0.30809 0.16062 0.39167 0.0
H693 H 0.27213 0.19294 0.38983 0.0
H694 H 0.30599 0.30064 0.38236 0.0
H695 H 0.34185 0.26821 0.38488 0.0
C696 C 0.24084 0.32489 0.39416 0.0
C697 C 0.22244 0.30866 0.3824 0.0
C698 C 0.26125 0.30562 0.39557 0.0
C699 C 0.26399 0.26963 0.38513 0.0
C700 C 0.24554 0.25316 0.37366 0.0
C701 C 0.22508 0.27227 0.37242 0.0
C702 C 0.30782 0.19114 0.3894 0.0
C703 C 0.32784 0.21185 0.38845 0.0
C704 C 0.28717 0.20977 0.38833 0.0
C705 C 0.286 0.24958 0.38605 0.0
C706 C 0.30611 0.27011 0.38466 0.0
C707 C 0.32672 0.25152 0.38597 0.0
H708 H 0.74489 0.85487 0.4006 0.0
H709 H 0.70918 0.75857 0.37249 0.0
H710 H 0.78025 0.82035 0.39604 0.0
H711 H 0.74452 0.72438 0.36744 0.0
H712 H 0.81606 0.70486 0.33501 0.0
H713 H 0.78096 0.73914 0.34086 0.0
H714 H 0.79709 0.75399 0.41435 0.0
H715 H 0.83214 0.71876 0.40854 0.0
C716 C 0.74467 0.82644 0.39331 0.0
C717 C 0.72436 0.80935 0.38684 0.0
C718 C 0.76481 0.80665 0.39088 0.0
C719 C 0.76504 0.76977 0.38141 0.0
C720 C 0.74477 0.75283 0.37474 0.0
C721 C 0.7246 0.77226 0.37769 0.0
C722 C 0.81214 0.71559 0.35237 0.0
C723 C 0.82681 0.70934 0.37133 0.0
C724 C 0.79203 0.73495 0.35574 0.0
C725 C 0.78639 0.74918 0.37803 0.0
C726 C 0.80114 0.74339 0.39697 0.0
C727 C 0.82106 0.72318 0.3937 0.0
H728 H 0.22118 0.7342 0.1928 0.0
H729 H 0.22378 0.7069 0.11872 0.0
H730 H 0.2571 0.76544 0.19008 0.0
H731 H 0.26041 0.73778 0.11613 0.0
H732 H 0.31586 0.8329 0.12001 0.0
H733 H 0.27898 0.80268 0.11984 0.0
H734 H 0.29574 0.74401 0.1842 0.0
H735 H 0.33203 0.77455 0.18468 0.0
C736 C 0.22927 0.73516 0.17582 0.0
C737 C 0.21945 0.71806 0.15594 0.0
C738 C 0.25007 0.75275 0.17434 0.0
C739 C 0.26172 0.75385 0.15294 0.0
C740 C 0.2518 0.73751 0.13286 0.0
C741 C 0.23093 0.71957 0.13438 0.0
C742 C 0.3116 0.81362 0.13412 0.0
C743 C 0.32696 0.80622 0.15235 0.0
C744 C 0.29057 0.79607 0.13391 0.0
C745 C 0.28439 0.77112 0.15208 0.0
C746 C 0.29986 0.76343 0.17008 0.0
C747 C 0.32082 0.78067 0.17021 0.0
H748 H 0.73025 0.18997 0.11927 0.0
H749 H 0.72525 0.22458 0.19198 0.0
H750 H 0.76663 0.22136 0.11656 0.0
H751 H 0.76118 0.25634 0.18917 0.0
H752 H 0.83632 0.27151 0.18394 0.0
H753 H 0.80075 0.23818 0.18482 0.0
H754 H 0.78308 0.28707 0.11764 0.0
H755 H 0.81902 0.31998 0.11654 0.0
C756 C 0.7369 0.20423 0.13464 0.0
C757 C 0.72479 0.20482 0.15581 0.0
C758 C 0.75764 0.22246 0.13305 0.0
C759 C 0.76683 0.24125 0.15268 0.0
C760 C 0.75469 0.2418 0.1738 0.0
C761 C 0.73394 0.22393 0.17533 0.0
C762 C 0.82502 0.27483 0.1692 0.0
C763 C 0.83056 0.29848 0.15016 0.0
C764 C 0.8045 0.25601 0.16982 0.0
C765 C 0.78902 0.26013 0.15137 0.0
C766 C 0.79469 0.28315 0.13208 0.0
C767 C 0.81519 0.30227 0.13154 0.0
H768 H 0.72422 0.78656 0.68865 0.0
H769 H 0.7306 0.8252 0.61693 0.0
H770 H 0.76014 0.75438 0.68577 0.0
H771 H 0.76681 0.79293 0.61405 0.0
H772 H 0.81856 0.6917 0.61395 0.0
H773 H 0.78237 0.72434 0.61504 0.0
H774 H 0.80031 0.77534 0.68157 0.0
H775 H 0.83625 0.74284 0.68049 0.0
C776 C 0.73322 0.78794 0.6722 0.0
C777 C 0.72452 0.80838 0.653 0.0
C778 C 0.7539 0.76978 0.67061 0.0
C779 C 0.76632 0.77121 0.6497 0.0
C780 C 0.75755 0.79119 0.63035 0.0
C781 C 0.73693 0.80987 0.63205 0.0
C782 C 0.81471 0.70989 0.62877 0.0
C783 C 0.83027 0.71474 0.64711 0.0
C784 C 0.7941 0.72876 0.62931 0.0
C785 C 0.7885 0.75232 0.64842 0.0
C786 C 0.80409 0.75717 0.66669 0.0
C787 C 0.82476 0.73881 0.66598 0.0
H788 H 0.23875 0.34496 0.63101 0.0
H789 H 0.21573 0.26441 0.68288 0.0
H790 H 0.27433 0.31184 0.62901 0.0
H791 H 0.25127 0.23107 0.6806 0.0
H792 H 0.30826 0.15854 0.64931 0.0
H793 H 0.27285 0.19195 0.65275 0.0
H794 H 0.30767 0.29927 0.65318 0.0
H795 H 0.34314 0.26597 0.65003 0.0
C796 C 0.24126 0.32045 0.64217 0.0
C797 C 0.22421 0.30754 0.65714 0.0
C798 C 0.26172 0.30139 0.64098 0.0
C799 C 0.26567 0.26878 0.65465 0.0
C800 C 0.24867 0.2558 0.6696 0.0
C801 C 0.22824 0.27496 0.67088 0.0
C802 C 0.30849 0.18921 0.65044 0.0
C803 C 0.32872 0.20942 0.64932 0.0
C804 C 0.28811 0.2084 0.65239 0.0
C805 C 0.28739 0.24831 0.65316 0.0
C806 C 0.30758 0.26853 0.65224 0.0
C807 C 0.32796 0.24937 0.65041 0.0
H808 H 0.71356 0.26944 0.89037 0.0
H809 H 0.74771 0.16217 0.88174 0.0
H810 H 0.74897 0.30277 0.88691 0.0
H811 H 0.78303 0.19564 0.87802 0.0
H812 H 0.83848 0.27182 0.84835 0.0
H813 H 0.80306 0.23854 0.8514 0.0
H814 H 0.78395 0.31159 0.909 0.0
H815 H 0.81949 0.34474 0.90617 0.0
C816 C 0.72856 0.25284 0.88785 0.0
C817 C 0.7276 0.21293 0.88641 0.0
C818 C 0.74892 0.27205 0.88587 0.0
C819 C 0.76889 0.25192 0.88225 0.0
C820 C 0.76794 0.21209 0.8805 0.0
C821 C 0.7476 0.19285 0.8826 0.0
C822 C 0.82691 0.28065 0.86186 0.0
C823 C 0.83205 0.31112 0.87703 0.0
C824 C 0.80652 0.26151 0.86357 0.0
C825 C 0.79062 0.27236 0.88043 0.0
C826 C 0.79567 0.30283 0.89557 0.0
C827 C 0.81611 0.32189 0.89393 0.0
H828 H 0.21473 0.76599 0.88822 0.0
H829 H 0.24788 0.66062 0.87167 0.0
H830 H 0.25059 0.79842 0.88965 0.0
H831 H 0.28382 0.69308 0.87207 0.0
H832 H 0.34699 0.75425 0.89569 0.0
H833 H 0.31119 0.72135 0.89557 0.0
H834 H 0.27964 0.82168 0.86678 0.0
H835 H 0.31531 0.85471 0.86791 0.0
C836 C 0.22973 0.74988 0.88462 0.0
C837 C 0.22849 0.71079 0.87983 0.0
C838 C 0.25034 0.76847 0.88532 0.0
C839 C 0.2703 0.74858 0.88087 0.0
C840 C 0.26897 0.70936 0.87603 0.0
C841 C 0.24835 0.69068 0.87569 0.0
C842 C 0.33237 0.76913 0.88931 0.0
C843 C 0.33394 0.8071 0.88191 0.0
C844 C 0.3118 0.75025 0.88912 0.0
C845 C 0.29231 0.7687 0.88118 0.0
C846 C 0.29405 0.80665 0.87353 0.0
C847 C 0.31455 0.82565 0.87407 0.0
H848 H 0.37797 0.11956 0.29847 0.0
H849 H 0.37157 0.01328 0.33575 0.0
H850 H 0.37264 0.08661 0.26121 0.0
H851 H 0.36684 0.98002 0.29835 0.0
H852 H 0.34212 0.93357 0.22875 0.0
H853 H 0.3427 0.96992 0.26524 0.0
H854 H 0.3926 0.04453 0.23589 0.0
H855 H 0.39158 0.00873 0.19917 0.0
C856 C 0.37539 0.08911 0.29873 0.0
C857 C 0.37529 0.06904 0.32013 0.0
C858 C 0.37247 0.07015 0.2773 0.0
C859 C 0.36948 0.03055 0.27665 0.0
C860 C 0.36883 0.01058 0.29813 0.0
C861 C 0.37165 0.02962 0.31961 0.0
C862 C 0.35304 0.95801 0.22996 0.0
C863 C 0.36684 0.96816 0.211 0.0
C864 C 0.3535 0.9787 0.251 0.0
C865 C 0.36783 0.01003 0.25368 0.0
C866 C 0.38115 0.02085 0.23443 0.0
C867 C 0.38062 1.00024 0.21334 0.0
H868 H 0.65147 0.0238 0.20544 0.0
H869 H 0.72031 0.05514 0.21733 0.0
H870 H 0.64858 1.00293 0.24619 0.0
H871 H 0.71734 0.03379 0.25821 0.0
H872 H 0.70326 0.95765 0.32553 0.0
H873 H 0.70938 0.97364 0.28402 0.0
H874 H 0.64967 0.04218 0.2843 0.0
H875 H 0.64365 0.0268 0.32555 0.0
C876 C 0.66613 0.02559 0.21658 0.0
C877 C 0.68609 0.04146 0.20811 0.0
C878 C 0.6644 0.01388 0.23999 0.0
C879 C 0.68264 0.01725 0.25544 0.0
C880 C 0.70301 0.0309 0.24668 0.0
C881 C 0.70468 0.04313 0.22328 0.0
C882 C 0.69158 0.97644 0.31678 0.0
C883 C 0.67295 0.9909 0.32888 0.0
C884 C 0.6951 0.98555 0.29304 0.0
C885 C 0.67984 0.00873 0.28088 0.0
C886 C 0.66152 0.02376 0.29312 0.0
C887 C 0.65819 0.01517 0.31684 0.0
H888 H 0.64947 0.98605 0.82889 0.0
H889 H 0.70352 0.06657 0.82247 0.0
H890 H 0.65431 0.96777 0.78788 0.0
H891 H 0.70846 0.04773 0.78123 0.0
H892 H 0.72098 0.96535 0.71547 0.0
H893 H 0.71905 0.98748 0.75635 0.0
H894 H 0.648 1.00356 0.74902 0.0
H895 H 0.64984 0.98204 0.7083 0.0
C896 C 0.66256 0.99959 0.81884 0.0
C897 C 0.67604 0.02793 0.829 0.0
C898 C 0.66521 0.98927 0.79526 0.0
C899 C 0.68158 1.00666 0.78129 0.0
C900 C 0.6957 0.03389 0.79161 0.0
C901 C 0.69286 0.04464 0.8152 0.0
C902 C 0.70501 0.97418 0.72248 0.0
C903 C 0.68556 0.97178 0.70861 0.0
C904 C 0.70393 0.98686 0.74586 0.0
C905 C 0.68334 0.99675 0.75592 0.0
C906 C 0.66406 0.99562 0.74181 0.0
C907 C 0.66517 0.98355 0.71841 0.0
H908 H 0.33515 0.96923 0.8208 0.0
H909 H 0.40707 0.97573 0.82496 0.0
H910 H 0.33669 0.98837 0.77941 0.0
H911 H 0.40849 0.99463 0.78379 0.0
H912 H 0.40481 0.97929 0.70451 0.0
H913 H 0.40028 0.96114 0.74555 0.0
H914 H 0.34802 0.04456 0.75343 0.0
H915 H 0.35255 0.06301 0.71217 0.0
C916 C 0.35125 0.97508 0.813 0.0
C917 C 0.37099 0.97075 0.82621 0.0
C918 C 0.3521 0.98608 0.7893 0.0
C919 C 0.37272 0.99251 0.77829 0.0
C920 C 0.39237 0.98923 0.79168 0.0
C921 C 0.39152 0.97867 0.81536 0.0
C922 C 0.39215 0.99354 0.71484 0.0
C923 C 0.37913 0.02278 0.70503 0.0
C924 C 0.38969 0.98331 0.73844 0.0
C925 C 0.37401 1.00178 0.7528 0.0
C926 C 0.36024 0.02982 0.74278 0.0
C927 C 0.36286 0.04038 0.71916 0.0
H928 H 0.90144 0.48355 0.19882 0.0
H929 H 0.83429 0.44609 0.21368 0.0
H930 H 0.90544 0.5051 0.23937 0.0
H931 H 0.8384 0.4678 0.25439 0.0
H932 H 0.85121 0.54741 0.31995 0.0
H933 H 0.84413 0.52715 0.27935 0.0
H934 H 0.90811 0.47086 0.27795 0.0
H935 H 0.91521 0.49083 0.31828 0.0
C936 C 0.88741 0.48033 0.21062 0.0
C937 C 0.86757 0.46285 0.20298 0.0
C938 C 0.88979 0.49242 0.23394 0.0
C939 C 0.87235 0.48765 0.25017 0.0
C940 C 0.85212 0.47186 0.2423 0.0
C941 C 0.8498 0.4594 0.21897 0.0
C942 C 0.86363 0.53027 0.31108 0.0
C943 C 0.88383 0.52092 0.32239 0.0
C944 C 0.85957 0.51871 0.28783 0.0
C945 C 0.87572 0.49793 0.27534 0.0
C946 C 0.89553 0.48749 0.28694 0.0
C947 C 0.8995 0.49869 0.31017 0.0
H948 H 0.21663 0.45866 0.31664 0.0
H949 H 0.14825 0.49068 0.33034 0.0
H950 H 0.21257 0.48036 0.2759 0.0
H951 H 0.14428 0.51194 0.28976 0.0
H952 H 0.13679 0.49412 0.21039 0.0
H953 H 0.14391 0.47534 0.25097 0.0
H954 H 0.20468 0.54103 0.2513 0.0
H955 H 0.19751 0.56029 0.21053 0.0
C956 C 0.20086 0.4708 0.3111 0.0
C957 C 0.18274 0.47273 0.32676 0.0
C958 C 0.19856 0.48321 0.28778 0.0
C959 C 0.17802 0.49731 0.27959 0.0
C960 C 0.16021 0.50063 0.29549 0.0
C961 C 0.16257 0.48871 0.31881 0.0
C962 C 0.15181 0.50431 0.21895 0.0
C963 C 0.16653 0.52886 0.20719 0.0
C964 C 0.15578 0.49378 0.24229 0.0
C965 C 0.17469 0.50713 0.25439 0.0
C966 C 0.18995 0.53036 0.24239 0.0
C967 C 0.18583 0.54136 0.21907 0.0
H968 H 0.15395 0.5551 0.82253 0.0
H969 H 0.22415 0.52892 0.82797 0.0
H970 H 0.15361 0.53277 0.7822 0.0
H971 H 0.22364 0.5042 0.7878 0.0
H972 H 0.22095 0.49596 0.70766 0.0
H973 H 0.22187 0.52001 0.74798 0.0
H974 H 0.15427 0.48046 0.7582 0.0
H975 H 0.15303 0.45878 0.71774 0.0
C976 C 0.16926 0.5438 0.81524 0.0
C977 C 0.18907 0.54366 0.82853 0.0
C978 C 0.16907 0.53075 0.79201 0.0
C979 C 0.18858 0.51637 0.78149 0.0
C980 C 0.20834 0.51564 0.79501 0.0
C981 C 0.20862 0.52944 0.81817 0.0
C982 C 0.20625 0.49283 0.71852 0.0
C983 C 0.18686 0.4758 0.70941 0.0
C984 C 0.20682 0.50625 0.74177 0.0
C985 C 0.18814 0.50233 0.7566 0.0
C986 C 0.16884 0.48498 0.74735 0.0
C987 C 0.16814 0.4723 0.72406 0.0
H988 H 0.90356 0.47701 0.69516 0.0
H989 H 0.85601 0.56771 0.70562 0.0
H990 H 0.89956 0.45857 0.73641 0.0
H991 H 0.85185 0.54885 0.74681 0.0
H992 H 0.83605 0.47226 0.81285 0.0
H993 H 0.83803 0.4913 0.77144 0.0
H994 H 0.90992 0.49165 0.77556 0.0
H995 H 0.90805 0.47321 0.81689 0.0
C996 C 0.89203 0.49267 0.70615 0.0
C997 C 0.88014 0.52387 0.6971 0.0
C998 C 0.88988 0.48229 0.72981 0.0
C999 C 0.87551 0.50246 0.74485 0.0
C1000 C 0.86299 0.53275 0.73561 0.0
C1001 C 0.86543 0.54356 0.71205 0.0
C1002 C 0.85226 0.47681 0.80499 0.0
C1003 C 0.87188 0.47123 0.81821 0.0
C1004 C 0.85338 0.4877 0.78129 0.0
C1005 C 0.87413 0.49255 0.77023 0.0
C1006 C 0.89371 0.48762 0.78355 0.0
C1007 C 0.8926 0.47738 0.80729 0.0
loop_
_geom_bond_atom_site_label_1
_geom_bond_atom_site_label_2
_geom_bond_distance
_geom_bond_site_symmetry_2
_ccdc_geom_bond_type
Cu0 N1 1.999 . S
Cu0 O6 1.974 . S
Cu0 N11 1.985 . S
Cu0 O20 1.959 . S
N1 Cu0 1.999 . S
N1 C3 1.263 . S
N1 C5 1.389 . S
N2 C3 1.358 . S
N2 C4 1.400 . S
C3 N1 1.263 . S
C3 N2 1.358 . S
C3 H9 0.930 . S
C4 N2 1.400 . S
C4 C5 1.351 . S
C4 H21 0.930 . S
C5 N1 1.389 . S
C5 C4 1.351 . S
C5 H10 0.930 . S
O6 Cu0 1.974 . S
O6 C16 1.282 . S
C7 O8 1.261 . S
C7 O20 1.251 . S
O8 C7 1.261 . S
H9 C3 0.930 . S
H10 C5 0.930 . S
N11 Cu0 1.985 . S
N11 C13 1.335 . S
N11 C14 1.390 . S
N12 C13 1.345 . S
N12 C15 1.336 . S
C13 N11 1.335 . S
C13 N12 1.345 . S
C13 H18 0.930 . S
C14 N11 1.390 . S
C14 C15 1.346 . S
C14 H19 0.930 . S
C15 N12 1.336 . S
C15 C14 1.346 . S
C15 H22 0.929 . S
C16 O6 1.282 . S
C16 O17 1.216 . S
O17 C16 1.216 . S
H18 C13 0.930 . S
H19 C14 0.930 . S
O20 Cu0 1.959 . S
O20 C7 1.251 . S
H21 C4 0.930 . S
H22 C15 0.929 . S
Cu23 N24 1.999 . S
Cu23 O29 1.974 . S
Cu23 N34 1.985 . S
Cu23 O43 1.959 . S
N24 Cu23 1.999 . S
N24 C26 1.263 . S
N24 C28 1.389 . S
N25 C26 1.358 . S
N25 C27 1.400 . S
C26 N24 1.263 . S
C26 N25 1.358 . S
C26 H32 0.930 . S
C27 N25 1.400 . S
C27 C28 1.351 . S
C27 H44 0.930 . S
C28 N24 1.389 . S
C28 C27 1.351 . S
C28 H33 0.930 . S
O29 Cu23 1.974 . S
O29 C39 1.282 . S
C30 O31 1.261 . S
C30 O43 1.251 . S
O31 C30 1.261 . S
H32 C26 0.930 . S
H33 C28 0.930 . S
N34 Cu23 1.985 . S
N34 C36 1.335 . S
N34 C37 1.390 . S
N35 C36 1.345 . S
N35 C38 1.336 . S
C36 N34 1.335 . S
C36 N35 1.345 . S
C36 H41 0.930 . S
C37 N34 1.390 . S
C37 C38 1.346 . S
C37 H42 0.930 . S
C38 N35 1.336 . S
C38 C37 1.346 . S
C38 H45 0.929 . S
C39 O29 1.282 . S
C39 O40 1.216 . S
O40 C39 1.216 . S
H41 C36 0.930 . S
H42 C37 0.930 . S
O43 Cu23 1.959 . S
O43 C30 1.251 . S
H44 C27 0.930 . S
H45 C38 0.929 . S
Cu46 N47 1.999 . S
Cu46 O52 1.974 . S
Cu46 N57 1.985 . S
Cu46 O66 1.959 . S
N47 Cu46 1.999 . S
N47 C49 1.263 . S
N47 C51 1.389 . S
N48 C49 1.358 . S
N48 C50 1.400 . S
C49 N47 1.263 . S
C49 N48 1.358 . S
C49 H55 0.930 . S
C50 N48 1.400 . S
C50 C51 1.351 . S
C50 H67 0.930 . S
C51 N47 1.389 . S
C51 C50 1.351 . S
C51 H56 0.930 . S
O52 Cu46 1.974 . S
O52 C62 1.282 . S
C53 O54 1.261 . S
C53 O66 1.251 . S
O54 C53 1.261 . S
H55 C49 0.930 . S
H56 C51 0.930 . S
N57 Cu46 1.985 . S
N57 C59 1.335 . S
N57 C60 1.390 . S
N58 C59 1.345 . S
N58 C61 1.336 . S
C59 N57 1.335 . S
C59 N58 1.345 . S
C59 H64 0.930 . S
C60 N57 1.390 . S
C60 C61 1.346 . S
C60 H65 0.930 . S
C61 N58 1.336 . S
C61 C60 1.346 . S
C61 H68 0.929 . S
C62 O52 1.282 . S
C62 O63 1.216 . S
O63 C62 1.216 . S
H64 C59 0.930 . S
H65 C60 0.930 . S
O66 Cu46 1.959 . S
O66 C53 1.251 . S
H67 C50 0.930 . S
H68 C61 0.929 . S
Cu69 N70 1.999 . S
Cu69 O75 1.974 . S
Cu69 N80 1.985 . S
Cu69 O89 1.959 . S
N70 Cu69 1.999 . S
N70 C72 1.263 . S
N70 C74 1.389 . S
N71 C72 1.358 . S
N71 C73 1.400 . S
C72 N70 1.263 . S
C72 N71 1.358 . S
C72 H78 0.930 . S
C73 N71 1.400 . S
C73 C74 1.351 . S
C73 H90 0.930 . S
C74 N70 1.389 . S
C74 C73 1.351 . S
C74 H79 0.930 . S
O75 Cu69 1.974 . S
O75 C85 1.282 . S
C76 O77 1.261 . S
C76 O89 1.251 . S
O77 C76 1.261 . S
H78 C72 0.930 . S
H79 C74 0.930 . S
N80 Cu69 1.985 . S
N80 C82 1.335 . S
N80 C83 1.390 . S
N81 C82 1.345 . S
N81 C84 1.336 . S
C82 N80 1.335 . S
C82 N81 1.345 . S
C82 H87 0.930 . S
C83 N80 1.390 . S
C83 C84 1.346 . S
C83 H88 0.930 . S
C84 N81 1.336 . S
C84 C83 1.346 . S
C84 H91 0.929 . S
C85 O75 1.282 . S
C85 O86 1.216 . S
O86 C85 1.216 . S
H87 C82 0.930 . S
H88 C83 0.930 . S
O89 Cu69 1.959 . S
O89 C76 1.251 . S
H90 C73 0.930 . S
H91 C84 0.929 . S
Cu92 N93 1.999 . S
Cu92 O98 1.974 . S
Cu92 N103 1.985 . S
Cu92 O112 1.959 . S
N93 Cu92 1.999 . S
N93 C95 1.263 . S
N93 C97 1.389 . S
N94 C95 1.358 . S
N94 C96 1.400 . S
C95 N93 1.263 . S
C95 N94 1.358 . S
C95 H101 0.930 . S
C96 N94 1.400 . S
C96 C97 1.351 . S
C96 H113 0.930 . S
C97 N93 1.389 . S
C97 C96 1.351 . S
C97 H102 0.930 . S
O98 Cu92 1.974 . S
O98 C108 1.282 . S
C99 O100 1.261 . S
C99 O112 1.251 . S
O100 C99 1.261 . S
H101 C95 0.930 . S
H102 C97 0.930 . S
N103 Cu92 1.985 . S
N103 C105 1.335 . S
N103 C106 1.390 . S
N104 C105 1.345 . S
N104 C107 1.336 . S
C105 N103 1.335 . S
C105 N104 1.345 . S
C105 H110 0.930 . S
C106 N103 1.390 . S
C106 C107 1.346 . S
C106 H111 0.930 . S
C107 N104 1.336 . S
C107 C106 1.346 . S
C107 H114 0.929 . S
C108 O98 1.282 . S
C108 O109 1.216 . S
O109 C108 1.216 . S
H110 C105 0.930 . S
H111 C106 0.930 . S
O112 Cu92 1.959 . S
O112 C99 1.251 . S
H113 C96 0.930 . S
H114 C107 0.929 . S
Cu115 N116 1.999 . S
Cu115 O121 1.974 . S
Cu115 N126 1.985 . S
Cu115 O135 1.959 . S
N116 Cu115 1.999 . S
N116 C118 1.263 . S
N116 C120 1.389 . S
N117 C118 1.358 . S
N117 C119 1.400 . S
C118 N116 1.263 . S
C118 N117 1.358 . S
C118 H124 0.930 . S
C119 N117 1.400 . S
C119 C120 1.351 . S
C119 H136 0.930 . S
C120 N116 1.389 . S
C120 C119 1.351 . S
C120 H125 0.930 . S
O121 Cu115 1.974 . S
O121 C131 1.282 . S
C122 O123 1.261 . S
C122 O135 1.251 . S
O123 C122 1.261 . S
H124 C118 0.930 . S
H125 C120 0.930 . S
N126 Cu115 1.985 . S
N126 C128 1.335 . S
N126 C129 1.390 . S
N127 C128 1.345 . S
N127 C130 1.336 . S
C128 N126 1.335 . S
C128 N127 1.345 . S
C128 H133 0.930 . S
C129 N126 1.390 . S
C129 C130 1.346 . S
C129 H134 0.930 . S
C130 N127 1.336 . S
C130 C129 1.346 . S
C130 H137 0.929 . S
C131 O121 1.282 . S
C131 O132 1.216 . S
O132 C131 1.216 . S
H133 C128 0.930 . S
H134 C129 0.930 . S
O135 Cu115 1.959 . S
O135 C122 1.251 . S
H136 C119 0.930 . S
H137 C130 0.929 . S
Cu138 N139 1.999 . S
Cu138 O144 1.974 . S
Cu138 N149 1.985 . S
Cu138 O158 1.959 . S
N139 Cu138 1.999 . S
N139 C141 1.263 . S
N139 C143 1.389 . S
N140 C141 1.358 . S
N140 C142 1.400 . S
C141 N139 1.263 . S
C141 N140 1.358 . S
C141 H147 0.930 . S
C142 N140 1.400 . S
C142 C143 1.351 . S
C142 H159 0.930 . S
C143 N139 1.389 . S
C143 C142 1.351 . S
C143 H148 0.930 . S
O144 Cu138 1.974 . S
O144 C154 1.282 . S
C145 O146 1.261 . S
C145 O158 1.251 . S
O146 C145 1.261 . S
H147 C141 0.930 . S
H148 C143 0.930 . S
N149 Cu138 1.985 . S
N149 C151 1.335 . S
N149 C152 1.390 . S
N150 C151 1.345 . S
N150 C153 1.336 . S
C151 N149 1.335 . S
C151 N150 1.345 . S
C151 H156 0.930 . S
C152 N149 1.390 . S
C152 C153 1.346 . S
C152 H157 0.930 . S
C153 N150 1.336 . S
C153 C152 1.346 . S
C153 H160 0.929 . S
C154 O144 1.282 . S
C154 O155 1.216 . S
O155 C154 1.216 . S
H156 C151 0.930 . S
H157 C152 0.930 . S
O158 Cu138 1.959 . S
O158 C145 1.251 . S
H159 C142 0.930 . S
H160 C153 0.929 . S
Cu161 N162 1.999 . S
Cu161 O167 1.974 . S
Cu161 N172 1.985 . S
Cu161 O181 1.959 . S
N162 Cu161 1.999 . S
N162 C164 1.263 . S
N162 C166 1.389 . S
N163 C164 1.358 . S
N163 C165 1.400 . S
C164 N162 1.263 . S
C164 N163 1.358 . S
C164 H170 0.930 . S
C165 N163 1.400 . S
C165 C166 1.351 . S
C165 H182 0.930 . S
C166 N162 1.389 . S
C166 C165 1.351 . S
C166 H171 0.930 . S
O167 Cu161 1.974 . S
O167 C177 1.282 . S
C168 O169 1.261 . S
C168 O181 1.251 . S
O169 C168 1.261 . S
H170 C164 0.930 . S
H171 C166 0.930 . S
N172 Cu161 1.985 . S
N172 C174 1.335 . S
N172 C175 1.390 . S
N173 C174 1.345 . S
N173 C176 1.336 . S
C174 N172 1.335 . S
C174 N173 1.345 . S
C174 H179 0.930 . S
C175 N172 1.390 . S
C175 C176 1.346 . S
C175 H180 0.930 . S
C176 N173 1.336 . S
C176 C175 1.346 . S
C176 H183 0.929 . S
C177 O167 1.282 . S
C177 O178 1.216 . S
O178 C177 1.216 . S
H179 C174 0.930 . S
H180 C175 0.930 . S
O181 Cu161 1.959 . S
O181 C168 1.251 . S
H182 C165 0.930 . S
H183 C176 0.929 . S
Cu184 N185 1.999 . S
Cu184 O190 1.974 . S
Cu184 N195 1.985 . S
Cu184 O204 1.959 . S
N185 Cu184 1.999 . S
N185 C187 1.263 . S
N185 C189 1.389 . S
N186 C187 1.358 . S
N186 C188 1.400 . S
C187 N185 1.263 . S
C187 N186 1.358 . S
C187 H193 0.930 . S
C188 N186 1.400 . S
C188 C189 1.351 . S
C188 H205 0.930 . S
C189 N185 1.389 . S
C189 C188 1.351 . S
C189 H194 0.930 . S
O190 Cu184 1.974 . S
O190 C200 1.282 . S
C191 O192 1.261 . S
C191 O204 1.251 . S
O192 C191 1.261 . S
H193 C187 0.930 . S
H194 C189 0.930 . S
N195 Cu184 1.985 . S
N195 C197 1.335 . S
N195 C198 1.390 . S
N196 C197 1.345 . S
N196 C199 1.336 . S
C197 N195 1.335 . S
C197 N196 1.345 . S
C197 H202 0.930 . S
C198 N195 1.390 . S
C198 C199 1.346 . S
C198 H203 0.930 . S
C199 N196 1.336 . S
C199 C198 1.346 . S
C199 H206 0.929 . S
C200 O190 1.282 . S
C200 O201 1.216 . S
O201 C200 1.216 . S
H202 C197 0.930 . S
H203 C198 0.930 . S
O204 Cu184 1.959 . S
O204 C191 1.251 . S
H205 C188 0.930 . S
H206 C199 0.929 . S
Cu207 N208 1.999 . S
Cu207 O213 1.974 . S
Cu207 N218 1.985 . S
Cu207 O227 1.959 . S
N208 Cu207 1.999 . S
N208 C210 1.263 . S
N208 C212 1.389 . S
N209 C210 1.358 . S
N209 C211 1.400 . S
C210 N208 1.263 . S
C210 N209 1.358 . S
C210 H216 0.930 . S
C211 N209 1.400 . S
C211 C212 1.351 . S
C211 H228 0.930 . S
C212 N208 1.389 . S
C212 C211 1.351 . S
C212 H217 0.930 . S
O213 Cu207 1.974 . S
O213 C223 1.282 . S
C214 O215 1.261 . S
C214 O227 1.251 . S
O215 C214 1.261 . S
H216 C210 0.930 . S
H217 C212 0.930 . S
N218 Cu207 1.985 . S
N218 C220 1.335 . S
N218 C221 1.390 . S
N219 C220 1.345 . S
N219 C222 1.336 . S
C220 N218 1.335 . S
C220 N219 1.345 . S
C220 H225 0.930 . S
C221 N218 1.390 . S
C221 C222 1.346 . S
C221 H226 0.930 . S
C222 N219 1.336 . S
C222 C221 1.346 . S
C222 H229 0.929 . S
C223 O213 1.282 . S
C223 O224 1.216 . S
O224 C223 1.216 . S
H225 C220 0.930 . S
H226 C221 0.930 . S
O227 Cu207 1.959 . S
O227 C214 1.251 . S
H228 C211 0.930 . S
H229 C222 0.929 . S
Cu230 N231 1.999 . S
Cu230 O236 1.974 . S
Cu230 N241 1.985 . S
Cu230 O250 1.959 . S
N231 Cu230 1.999 . S
N231 C233 1.263 . S
N231 C235 1.389 . S
N232 C233 1.358 . S
N232 C234 1.400 . S
C233 N231 1.263 . S
C233 N232 1.358 . S
C233 H239 0.930 . S
C234 N232 1.400 . S
C234 C235 1.351 . S
C234 H251 0.930 . S
C235 N231 1.389 . S
C235 C234 1.351 . S
C235 H240 0.930 . S
O236 Cu230 1.974 . S
O236 C246 1.282 . S
C237 O238 1.261 . S
C237 O250 1.251 . S
O238 C237 1.261 . S
H239 C233 0.930 . S
H240 C235 0.930 . S
N241 Cu230 1.985 . S
N241 C243 1.335 . S
N241 C244 1.390 . S
N242 C243 1.345 . S
N242 C245 1.336 . S
C243 N241 1.335 . S
C243 N242 1.345 . S
C243 H248 0.930 . S
C244 N241 1.390 . S
C244 C245 1.346 . S
C244 H249 0.930 . S
C245 N242 1.336 . S
C245 C244 1.346 . S
C245 H252 0.929 . S
C246 O236 1.282 . S
C246 O247 1.216 . S
O247 C246 1.216 . S
H248 C243 0.930 . S
H249 C244 0.930 . S
O250 Cu230 1.959 . S
O250 C237 1.251 . S
H251 C234 0.930 . S
H252 C245 0.929 . S
Cu253 N254 1.999 . S
Cu253 O259 1.974 . S
Cu253 N264 1.985 . S
Cu253 O273 1.959 . S
N254 Cu253 1.999 . S
N254 C256 1.263 . S
N254 C258 1.389 . S
N255 C256 1.358 . S
N255 C257 1.400 . S
C256 N254 1.263 . S
C256 N255 1.358 . S
C256 H262 0.930 . S
C257 N255 1.400 . S
C257 C258 1.351 . S
C257 H274 0.930 . S
C258 N254 1.389 . S
C258 C257 1.351 . S
C258 H263 0.930 . S
O259 Cu253 1.974 . S
O259 C269 1.282 . S
C260 O261 1.261 . S
C260 O273 1.251 . S
O261 C260 1.261 . S
H262 C256 0.930 . S
H263 C258 0.930 . S
N264 Cu253 1.985 . S
N264 C266 1.335 . S
N264 C267 1.390 . S
N265 C266 1.345 . S
N265 C268 1.336 . S
C266 N264 1.335 . S
C266 N265 1.345 . S
C266 H271 0.930 . S
C267 N264 1.390 . S
C267 C268 1.346 . S
C267 H272 0.930 . S
C268 N265 1.336 . S
C268 C267 1.346 . S
C268 H275 0.929 . S
C269 O259 1.282 . S
C269 O270 1.216 . S
O270 C269 1.216 . S
H271 C266 0.930 . S
H272 C267 0.930 . S
O273 Cu253 1.959 . S
O273 C260 1.251 . S
H274 C257 0.930 . S
H275 C268 0.929 . S
Cu276 N277 1.999 . S
Cu276 O282 1.974 . S
Cu276 N287 1.985 . S
Cu276 O296 1.959 . S
N277 Cu276 1.999 . S
N277 C279 1.263 . S
N277 C281 1.389 . S
N278 C279 1.358 . S
N278 C280 1.400 . S
C279 N277 1.263 . S
C279 N278 1.358 . S
C279 H285 0.930 . S
C280 N278 1.400 . S
C280 C281 1.351 . S
C280 H297 0.930 . S
C281 N277 1.389 . S
C281 C280 1.351 . S
C281 H286 0.930 . S
O282 Cu276 1.974 . S
O282 C292 1.282 . S
C283 O284 1.261 . S
C283 O296 1.251 . S
O284 C283 1.261 . S
H285 C279 0.930 . S
H286 C281 0.930 . S
N287 Cu276 1.985 . S
N287 C289 1.335 . S
N287 C290 1.390 . S
N288 C289 1.345 . S
N288 C291 1.336 . S
C289 N287 1.335 . S
C289 N288 1.345 . S
C289 H294 0.930 . S
C290 N287 1.390 . S
C290 C291 1.346 . S
C290 H295 0.930 . S
C291 N288 1.336 . S
C291 C290 1.346 . S
C291 H298 0.929 . S
C292 O282 1.282 . S
C292 O293 1.216 . S
O293 C292 1.216 . S
H294 C289 0.930 . S
H295 C290 0.930 . S
O296 Cu276 1.959 . S
O296 C283 1.251 . S
H297 C280 0.930 . S
H298 C291 0.929 . S
Cu299 N300 1.999 . S
Cu299 O305 1.974 . S
Cu299 N310 1.985 . S
Cu299 O319 1.959 . S
N300 Cu299 1.999 . S
N300 C302 1.263 . S
N300 C304 1.389 . S
N301 C302 1.358 . S
N301 C303 1.400 . S
C302 N300 1.263 . S
C302 N301 1.358 . S
C302 H308 0.930 . S
C303 N301 1.400 . S
C303 C304 1.351 . S
C303 H320 0.930 . S
C304 N300 1.389 . S
C304 C303 1.351 . S
C304 H309 0.930 . S
O305 Cu299 1.974 . S
O305 C315 1.282 . S
C306 O307 1.261 . S
C306 O319 1.251 . S
O307 C306 1.261 . S
H308 C302 0.930 . S
H309 C304 0.930 . S
N310 Cu299 1.985 . S
N310 C312 1.335 . S
N310 C313 1.390 . S
N311 C312 1.345 . S
N311 C314 1.336 . S
C312 N310 1.335 . S
C312 N311 1.345 . S
C312 H317 0.930 . S
C313 N310 1.390 . S
C313 C314 1.346 . S
C313 H318 0.930 . S
C314 N311 1.336 . S
C314 C313 1.346 . S
C314 H321 0.929 . S
C315 O305 1.282 . S
C315 O316 1.216 . S
O316 C315 1.216 . S
H317 C312 0.930 . S
H318 C313 0.930 . S
O319 Cu299 1.959 . S
O319 C306 1.251 . S
H320 C303 0.930 . S
H321 C314 0.929 . S
Cu322 N323 1.999 . S
Cu322 O328 1.974 . S
Cu322 N333 1.985 . S
Cu322 O342 1.959 . S
N323 Cu322 1.999 . S
N323 C325 1.263 . S
N323 C327 1.389 . S
N324 C325 1.358 . S
N324 C326 1.400 . S
C325 N323 1.263 . S
C325 N324 1.358 . S
C325 H331 0.930 . S
C326 N324 1.400 . S
C326 C327 1.351 . S
C326 H343 0.930 . S
C327 N323 1.389 . S
C327 C326 1.351 . S
C327 H332 0.930 . S
O328 Cu322 1.974 . S
O328 C338 1.282 . S
C329 O330 1.261 . S
C329 O342 1.251 . S
O330 C329 1.261 . S
H331 C325 0.930 . S
H332 C327 0.930 . S
N333 Cu322 1.985 . S
N333 C335 1.335 . S
N333 C336 1.390 . S
N334 C335 1.345 . S
N334 C337 1.336 . S
C335 N333 1.335 . S
C335 N334 1.345 . S
C335 H340 0.930 . S
C336 N333 1.390 . S
C336 C337 1.346 . S
C336 H341 0.930 . S
C337 N334 1.336 . S
C337 C336 1.346 . S
C337 H344 0.929 . S
C338 O328 1.282 . S
C338 O339 1.216 . S
O339 C338 1.216 . S
H340 C335 0.930 . S
H341 C336 0.930 . S
O342 Cu322 1.959 . S
O342 C329 1.251 . S
H343 C326 0.930 . S
H344 C337 0.929 . S
Cu345 N346 1.999 . S
Cu345 O351 1.974 . S
Cu345 N356 1.985 . S
Cu345 O365 1.959 . S
N346 Cu345 1.999 . S
N346 C348 1.263 . S
N346 C350 1.389 . S
N347 C348 1.358 . S
N347 C349 1.400 . S
C348 N346 1.263 . S
C348 N347 1.358 . S
C348 H354 0.930 . S
C349 N347 1.400 . S
C349 C350 1.351 . S
C349 H366 0.930 . S
C350 N346 1.389 . S
C350 C349 1.351 . S
C350 H355 0.930 . S
O351 Cu345 1.974 . S
O351 C361 1.282 . S
C352 O353 1.261 . S
C352 O365 1.251 . S
O353 C352 1.261 . S
H354 C348 0.930 . S
H355 C350 0.930 . S
N356 Cu345 1.985 . S
N356 C358 1.335 . S
N356 C359 1.390 . S
N357 C358 1.345 . S
N357 C360 1.336 . S
C358 N356 1.335 . S
C358 N357 1.345 . S
C358 H363 0.930 . S
C359 N356 1.390 . S
C359 C360 1.346 . S
C359 H364 0.930 . S
C360 N357 1.336 . S
C360 C359 1.346 . S
C360 H367 0.929 . S
C361 O351 1.282 . S
C361 O362 1.216 . S
O362 C361 1.216 . S
H363 C358 0.930 . S
H364 C359 0.930 . S
O365 Cu345 1.959 . S
O365 C352 1.251 . S
H366 C349 0.930 . S
H367 C360 0.929 . S
H368 C376 0.950 . S
H369 C381 0.950 . S
H370 C378 0.950 . S
H371 C380 0.950 . S
H372 C382 0.950 . S
H373 C384 0.950 . S
H374 C386 0.950 . S
H375 C387 0.950 . S
C376 H368 0.950 . S
C376 C377 1.386 . S
C376 C378 1.391 . S
C377 C376 1.386 . S
C377 C381 1.393 . S
C378 H370 0.950 . S
C378 C376 1.391 . S
C378 C379 1.400 . S
C379 C378 1.400 . S
C379 C380 1.398 . S
C379 C385 1.491 . S
C380 H371 0.950 . S
C380 C379 1.398 . S
C380 C381 1.391 . S
C381 H369 0.950 . S
C381 C377 1.393 . S
C381 C380 1.391 . S
C382 H372 0.950 . S
C382 C383 1.386 . S
C382 C384 1.391 . S
C383 C382 1.386 . S
C383 C387 1.393 . S
C384 H373 0.950 . S
C384 C382 1.391 . S
C384 C385 1.400 . S
C385 C379 1.491 . S
C385 C384 1.400 . S
C385 C386 1.398 . S
C386 H374 0.950 . S
C386 C385 1.398 . S
C386 C387 1.391 . S
C387 H375 0.950 . S
C387 C383 1.393 . S
C387 C386 1.391 . S
H388 C396 0.950 . S
H389 C401 0.950 . S
H390 C398 0.950 . S
H391 C400 0.950 . S
H392 C402 0.950 . S
H393 C404 0.950 . S
H394 C406 0.950 . S
H395 C407 0.950 . S
C396 H388 0.950 . S
C396 C397 1.386 . S
C396 C398 1.391 . S
C397 C396 1.386 . S
C397 C401 1.393 . S
C398 H390 0.950 . S
C398 C396 1.391 . S
C398 C399 1.400 . S
C399 C398 1.400 . S
C399 C400 1.398 . S
C399 C405 1.491 . S
C400 H391 0.950 . S
C400 C399 1.398 . S
C400 C401 1.391 . S
C401 H389 0.950 . S
C401 C397 1.393 . S
C401 C400 1.391 . S
C402 H392 0.950 . S
C402 C403 1.386 . S
C402 C404 1.391 . S
C403 C402 1.386 . S
C403 C407 1.393 . S
C404 H393 0.950 . S
C404 C402 1.391 . S
C404 C405 1.400 . S
C405 C399 1.491 . S
C405 C404 1.400 . S
C405 C406 1.398 . S
C406 H394 0.950 . S
C406 C405 1.398 . S
C406 C407 1.391 . S
C407 H395 0.950 . S
C407 C403 1.393 . S
C407 C406 1.391 . S
H408 C416 0.950 . S
H409 C421 0.950 . S
H410 C418 0.950 . S
H411 C420 0.950 . S
H412 C422 0.950 . S
H413 C424 0.950 . S
H414 C426 0.950 . S
H415 C427 0.950 . S
C416 H408 0.950 . S
C416 C417 1.386 . S
C416 C418 1.391 . S
C417 C416 1.386 . S
C417 C421 1.393 . S
C418 H410 0.950 . S
C418 C416 1.391 . S
C418 C419 1.400 . S
C419 C418 1.400 . S
C419 C420 1.398 . S
C419 C425 1.491 1_554 S
C420 H411 0.950 . S
C420 C419 1.398 . S
C420 C421 1.391 . S
C421 H409 0.950 . S
C421 C417 1.393 . S
C421 C420 1.391 . S
C422 H412 0.950 . S
C422 C423 1.386 . S
C422 C424 1.391 . S
C423 C422 1.386 . S
C423 C427 1.393 . S
C424 H413 0.950 . S
C424 C422 1.391 . S
C424 C425 1.400 . S
C425 C419 1.491 1_556 S
C425 C424 1.400 . S
C425 C426 1.398 . S
C426 H414 0.950 . S
C426 C425 1.398 . S
C426 C427 1.391 . S
C427 H415 0.950 . S
C427 C423 1.393 . S
C427 C426 1.391 . S
H428 C436 0.950 . S
H429 C441 0.950 . S
H430 C438 0.950 . S
H431 C440 0.950 . S
H432 C442 0.950 . S
H433 C444 0.950 . S
H434 C446 0.950 . S
H435 C447 0.950 . S
C436 H428 0.950 . S
C436 C437 1.386 . S
C436 C438 1.391 . S
C437 C436 1.386 . S
C437 C441 1.393 . S
C438 H430 0.950 . S
C438 C436 1.391 . S
C438 C439 1.400 . S
C439 C438 1.400 . S
C439 C440 1.398 . S
C439 C445 1.491 1_556 S
C440 H431 0.950 . S
C440 C439 1.398 . S
C440 C441 1.391 . S
C441 H429 0.950 . S
C441 C437 1.393 . S
C441 C440 1.391 . S
C442 H432 0.950 . S
C442 C443 1.386 . S
C442 C444 1.391 . S
C443 C442 1.386 . S
C443 C447 1.393 . S
C444 H433 0.950 . S
C444 C442 1.391 . S
C444 C445 1.400 . S
C445 C439 1.491 1_554 S
C445 C444 1.400 . S
C445 C446 1.398 . S
C446 H434 0.950 . S
C446 C445 1.398 . S
C446 C447 1.391 . S
C447 H435 0.950 . S
C447 C443 1.393 . S
C447 C446 1.391 . S
H448 C456 0.950 . S
H449 C461 0.950 . S
H450 C458 0.950 . S
H451 C460 0.950 . S
H452 C462 0.950 . S
H453 C464 0.950 . S
H454 C466 0.950 . S
H455 C467 0.950 . S
C456 H448 0.950 . S
C456 C457 1.386 . S
C456 C458 1.391 . S
C457 C456 1.386 . S
C457 C461 1.393 . S
C458 H450 0.950 . S
C458 C456 1.391 . S
C458 C459 1.400 . S
C459 C458 1.400 . S
C459 C460 1.398 . S
C459 C465 1.491 . S
C460 H451 0.950 . S
C460 C459 1.398 . S
C460 C461 1.391 . S
C461 H449 0.950 . S
C461 C457 1.393 . S
C461 C460 1.391 . S
C462 H452 0.950 . S
C462 C463 1.386 . S
C462 C464 1.391 . S
C463 C462 1.386 . S
C463 C467 1.393 . S
C464 H453 0.950 . S
C464 C462 1.391 . S
C464 C465 1.400 . S
C465 C459 1.491 . S
C465 C464 1.400 . S
C465 C466 1.398 . S
C466 H454 0.950 . S
C466 C465 1.398 . S
C466 C467 1.391 . S
C467 H455 0.950 . S
C467 C463 1.393 . S
C467 C466 1.391 . S
H468 C476 0.950 . S
H469 C481 0.950 . S
H470 C478 0.950 . S
H471 C480 0.950 . S
H472 C482 0.950 . S
H473 C484 0.950 . S
H474 C486 0.950 . S
H475 C487 0.950 . S
C476 H468 0.950 . S
C476 C477 1.386 . S
C476 C478 1.391 . S
C477 C476 1.386 . S
C477 C481 1.393 . S
C478 H470 0.950 . S
C478 C476 1.391 . S
C478 C479 1.400 . S
C479 C478 1.400 . S
C479 C480 1.398 . S
C479 C485 1.491 . S
C480 H471 0.950 . S
C480 C479 1.398 . S
C480 C481 1.391 . S
C481 H469 0.950 . S
C481 C477 1.393 . S
C481 C480 1.391 . S
C482 H472 0.950 . S
C482 C483 1.386 . S
C482 C484 1.391 . S
C483 C482 1.386 . S
C483 C487 1.393 . S
C484 H473 0.950 . S
C484 C482 1.391 . S
C484 C485 1.400 . S
C485 C479 1.491 . S
C485 C484 1.400 . S
C485 C486 1.398 . S
C486 H474 0.950 . S
C486 C485 1.398 . S
C486 C487 1.391 . S
C487 H475 0.950 . S
C487 C483 1.393 . S
C487 C486 1.391 . S
H488 C496 0.950 . S
H489 C501 0.950 . S
H490 C498 0.950 . S
H491 C500 0.950 . S
H492 C502 0.950 . S
H493 C504 0.950 . S
H494 C506 0.950 . S
H495 C507 0.950 . S
C496 H488 0.950 . S
C496 C497 1.386 . S
C496 C498 1.391 . S
C497 C496 1.386 . S
C497 C501 1.393 . S
C498 H490 0.950 . S
C498 C496 1.391 . S
C498 C499 1.400 . S
C499 C498 1.400 . S
C499 C500 1.398 . S
C499 C505 1.491 1_556 S
C500 H491 0.950 . S
C500 C499 1.398 . S
C500 C501 1.391 . S
C501 H489 0.950 . S
C501 C497 1.393 . S
C501 C500 1.391 . S
C502 H492 0.950 . S
C502 C503 1.386 . S
C502 C504 1.391 . S
C503 C502 1.386 . S
C503 C507 1.393 . S
C504 H493 0.950 . S
C504 C502 1.391 . S
C504 C505 1.400 . S
C505 C499 1.491 1_554 S
C505 C504 1.400 . S
C505 C506 1.398 . S
C506 H494 0.950 . S
C506 C505 1.398 . S
C506 C507 1.391 . S
C507 H495 0.950 . S
C507 C503 1.393 . S
C507 C506 1.391 . S
H508 C516 0.950 . S
H509 C521 0.950 . S
H510 C518 0.950 . S
H511 C520 0.950 . S
H512 C522 0.950 . S
H513 C524 0.950 . S
H514 C526 0.950 . S
H515 C527 0.950 . S
C516 H508 0.950 . S
C516 C517 1.386 . S
C516 C518 1.391 . S
C517 C516 1.386 . S
C517 C521 1.393 . S
C518 H510 0.950 . S
C518 C516 1.391 . S
C518 C519 1.400 . S
C519 C518 1.400 . S
C519 C520 1.398 . S
C519 C525 1.491 1_554 S
C520 H511 0.950 . S
C520 C519 1.398 . S
C520 C521 1.391 . S
C521 H509 0.950 . S
C521 C517 1.393 . S
C521 C520 1.391 . S
C522 H512 0.950 . S
C522 C523 1.386 . S
C522 C524 1.391 . S
C523 C522 1.386 . S
C523 C527 1.393 . S
C524 H513 0.950 . S
C524 C522 1.391 . S
C524 C525 1.400 . S
C525 C519 1.491 1_556 S
C525 C524 1.400 . S
C525 C526 1.398 . S
C526 H514 0.950 . S
C526 C525 1.398 . S
C526 C527 1.391 . S
C527 H515 0.950 . S
C527 C523 1.393 . S
C527 C526 1.391 . S
H528 C536 0.950 . S
H529 C541 0.950 . S
H530 C538 0.950 . S
H531 C540 0.950 . S
H532 C542 0.950 . S
H533 C544 0.950 . S
H534 C546 0.950 . S
H535 C547 0.950 . S
C536 H528 0.950 . S
C536 C537 1.386 . S
C536 C538 1.391 1_565 S
C537 C536 1.386 . S
C537 C541 1.393 . S
C538 H530 0.950 . S
C538 C536 1.391 1_545 S
C538 C539 1.400 1_545 S
C539 C538 1.400 1_565 S
C539 C540 1.398 . S
C539 C545 1.491 1_565 S
C540 H531 0.950 . S
C540 C539 1.398 . S
C540 C541 1.391 . S
C541 H529 0.950 . S
C541 C537 1.393 . S
C541 C540 1.391 . S
C542 H532 0.950 . S
C542 C543 1.386 . S
C542 C544 1.391 1_545 S
C543 C542 1.386 . S
C543 C547 1.393 . S
C544 H533 0.950 . S
C544 C542 1.391 1_565 S
C544 C545 1.400 1_565 S
C545 C539 1.491 1_545 S
C545 C544 1.400 1_545 S
C545 C546 1.398 . S
C546 H534 0.950 . S
C546 C545 1.398 . S
C546 C547 1.391 . S
C547 H535 0.950 . S
C547 C543 1.393 . S
C547 C546 1.391 . S
H548 C556 0.950 . S
H549 C561 0.950 . S
H550 C558 0.950 . S
H551 C560 0.950 . S
H552 C562 0.950 . S
H553 C564 0.950 . S
H554 C566 0.950 . S
H555 C567 0.950 . S
C556 H548 0.950 . S
C556 C557 1.386 . S
C556 C558 1.391 . S
C557 C556 1.386 . S
C557 C561 1.393 . S
C558 H550 0.950 . S
C558 C556 1.391 . S
C558 C559 1.400 . S
C559 C558 1.400 . S
C559 C560 1.398 1_565 S
C559 C565 1.491 1_565 S
C560 H551 0.950 . S
C560 C559 1.398 1_545 S
C560 C561 1.391 1_545 S
C561 H549 0.950 . S
C561 C557 1.393 . S
C561 C560 1.391 1_565 S
C562 H552 0.950 . S
C562 C563 1.386 . S
C562 C564 1.391 . S
C563 C562 1.386 . S
C563 C567 1.393 . S
C564 H553 0.950 . S
C564 C562 1.391 . S
C564 C565 1.400 . S
C565 C559 1.491 1_545 S
C565 C564 1.400 . S
C565 C566 1.398 1_545 S
C566 H554 0.950 . S
C566 C565 1.398 1_565 S
C566 C567 1.391 1_565 S
C567 H555 0.950 . S
C567 C563 1.393 . S
C567 C566 1.391 1_545 S
H568 C576 0.950 . S
H569 C581 0.950 . S
H570 C578 0.950 . S
H571 C580 0.950 1_545 S
H572 C582 0.950 . S
H573 C584 0.950 . S
H574 C586 0.950 1_565 S
H575 C587 0.950 . S
C576 H568 0.950 . S
C576 C577 1.386 . S
C576 C578 1.391 . S
C577 C576 1.386 . S
C577 C581 1.393 . S
C578 H570 0.950 . S
C578 C576 1.391 . S
C578 C579 1.400 . S
C579 C578 1.400 . S
C579 C580 1.398 . S
C579 C585 1.491 1_565 S
C580 H571 0.950 1_565 S
C580 C579 1.398 . S
C580 C581 1.391 . S
C581 H569 0.950 . S
C581 C577 1.393 . S
C581 C580 1.391 . S
C582 H572 0.950 . S
C582 C583 1.386 . S
C582 C584 1.391 . S
C583 C582 1.386 . S
C583 C587 1.393 . S
C584 H573 0.950 . S
C584 C582 1.391 . S
C584 C585 1.400 . S
C585 C579 1.491 1_545 S
C585 C584 1.400 . S
C585 C586 1.398 . S
C586 H574 0.950 1_545 S
C586 C585 1.398 . S
C586 C587 1.391 . S
C587 H575 0.950 . S
C587 C583 1.393 . S
C587 C586 1.391 . S
H588 C596 0.950 . S
H589 C601 0.950 1_565 S
H590 C598 0.950 . S
H591 C600 0.950 . S
H592 C602 0.950 . S
H593 C604 0.950 . S
H594 C606 0.950 . S
H595 C607 0.950 1_545 S
C596 H588 0.950 . S
C596 C597 1.386 . S
C596 C598 1.391 . S
C597 C596 1.386 . S
C597 C601 1.393 . S
C598 H590 0.950 . S
C598 C596 1.391 . S
C598 C599 1.400 . S
C599 C598 1.400 . S
C599 C600 1.398 1_545 S
C599 C605 1.491 1_545 S
C600 H591 0.950 . S
C600 C599 1.398 1_565 S
C600 C601 1.391 1_565 S
C601 H589 0.950 1_545 S
C601 C597 1.393 . S
C601 C600 1.391 1_545 S
C602 H592 0.950 . S
C602 C603 1.386 . S
C602 C604 1.391 . S
C603 C602 1.386 . S
C603 C607 1.393 . S
C604 H593 0.950 . S
C604 C602 1.391 . S
C604 C605 1.400 . S
C605 C599 1.491 1_565 S
C605 C604 1.400 . S
C605 C606 1.398 1_565 S
C606 H594 0.950 . S
C606 C605 1.398 1_545 S
C606 C607 1.391 1_545 S
C607 H595 0.950 1_565 S
C607 C603 1.393 . S
C607 C606 1.391 1_565 S
H608 C616 0.950 . S
H609 C621 0.950 . S
H610 C618 0.950 . S
H611 C620 0.950 . S
H612 C622 0.950 . S
H613 C624 0.950 . S
H614 C626 0.950 . S
H615 C627 0.950 . S
C616 H608 0.950 . S
C616 C617 1.386 . S
C616 C618 1.391 . S
C617 C616 1.386 . S
C617 C621 1.393 . S
C618 H610 0.950 . S
C618 C616 1.391 . S
C618 C619 1.400 . S
C619 C618 1.400 . S
C619 C620 1.398 . S
C619 C625 1.491 1_655 S
C620 H611 0.950 . S
C620 C619 1.398 . S
C620 C621 1.391 . S
C621 H609 0.950 . S
C621 C617 1.393 . S
C621 C620 1.391 . S
C622 H612 0.950 . S
C622 C623 1.386 . S
C622 C624 1.391 . S
C623 C622 1.386 . S
C623 C627 1.393 . S
C624 H613 0.950 . S
C624 C622 1.391 . S
C624 C625 1.400 . S
C625 C619 1.491 1_455 S
C625 C624 1.400 . S
C625 C626 1.398 . S
C626 H614 0.950 . S
C626 C625 1.398 . S
C626 C627 1.391 . S
C627 H615 0.950 . S
C627 C623 1.393 . S
C627 C626 1.391 . S
H628 C636 0.950 . S
H629 C641 0.950 . S
H630 C638 0.950 . S
H631 C640 0.950 . S
H632 C642 0.950 . S
H633 C644 0.950 . S
H634 C646 0.950 . S
H635 C647 0.950 . S
C636 H628 0.950 . S
C636 C637 1.386 . S
C636 C638 1.391 . S
C637 C636 1.386 . S
C637 C641 1.393 . S
C638 H630 0.950 . S
C638 C636 1.391 . S
C638 C639 1.400 . S
C639 C638 1.400 . S
C639 C640 1.398 . S
C639 C645 1.491 1_455 S
C640 H631 0.950 . S
C640 C639 1.398 . S
C640 C641 1.391 . S
C641 H629 0.950 . S
C641 C637 1.393 . S
C641 C640 1.391 . S
C642 H632 0.950 . S
C642 C643 1.386 . S
C642 C644 1.391 . S
C643 C642 1.386 . S
C643 C647 1.393 . S
C644 H633 0.950 . S
C644 C642 1.391 . S
C644 C645 1.400 . S
C645 C639 1.491 1_655 S
C645 C644 1.400 . S
C645 C646 1.398 . S
C646 H634 0.950 . S
C646 C645 1.398 . S
C646 C647 1.391 . S
C647 H635 0.950 . S
C647 C643 1.393 . S
C647 C646 1.391 . S
H648 C656 0.950 . S
H649 C661 0.950 . S
H650 C658 0.950 . S
H651 C660 0.950 . S
H652 C662 0.950 . S
H653 C664 0.950 . S
H654 C666 0.950 . S
H655 C667 0.950 . S
C656 H648 0.950 . S
C656 C657 1.386 . S
C656 C658 1.391 . S
C657 C656 1.386 . S
C657 C661 1.393 . S
C658 H650 0.950 . S
C658 C656 1.391 . S
C658 C659 1.400 . S
C659 C658 1.400 . S
C659 C660 1.398 . S
C659 C665 1.491 1_655 S
C660 H651 0.950 . S
C660 C659 1.398 . S
C660 C661 1.391 . S
C661 H649 0.950 . S
C661 C657 1.393 . S
C661 C660 1.391 . S
C662 H652 0.950 . S
C662 C663 1.386 . S
C662 C664 1.391 . S
C663 C662 1.386 . S
C663 C667 1.393 . S
C664 H653 0.950 . S
C664 C662 1.391 . S
C664 C665 1.400 . S
C665 C659 1.491 1_455 S
C665 C664 1.400 . S
C665 C666 1.398 . S
C666 H654 0.950 . S
C666 C665 1.398 . S
C666 C667 1.391 . S
C667 H655 0.950 . S
C667 C663 1.393 . S
C667 C666 1.391 . S
H668 C676 0.950 . S
H669 C681 0.950 . S
H670 C678 0.950 . S
H671 C680 0.950 . S
H672 C682 0.950 . S
H673 C684 0.950 . S
H674 C686 0.950 . S
H675 C687 0.950 . S
C676 H668 0.950 . S
C676 C677 1.386 . S
C676 C678 1.391 . S
C677 C676 1.386 . S
C677 C681 1.393 . S
C678 H670 0.950 . S
C678 C676 1.391 . S
C678 C679 1.400 . S
C679 C678 1.400 . S
C679 C680 1.398 . S
C679 C685 1.491 1_455 S
C680 H671 0.950 . S
C680 C679 1.398 . S
C680 C681 1.391 . S
C681 H669 0.950 . S
C681 C677 1.393 . S
C681 C680 1.391 . S
C682 H672 0.950 . S
C682 C683 1.386 . S
C682 C684 1.391 . S
C683 C682 1.386 . S
C683 C687 1.393 . S
C684 H673 0.950 . S
C684 C682 1.391 . S
C684 C685 1.400 . S
C685 C679 1.491 1_655 S
C685 C684 1.400 . S
C685 C686 1.398 . S
C686 H674 0.950 . S
C686 C685 1.398 . S
C686 C687 1.391 . S
C687 H675 0.950 . S
C687 C683 1.393 . S
C687 C686 1.391 . S
H688 C696 0.950 . S
H689 C701 0.950 . S
H690 C698 0.950 . S
H691 C700 0.950 . S
H692 C702 0.950 . S
H693 C704 0.950 . S
H694 C706 0.950 . S
H695 C707 0.950 . S
C696 H688 0.950 . S
C696 C697 1.386 . S
C696 C698 1.391 . S
C697 C696 1.386 . S
C697 C701 1.393 . S
C698 H690 0.950 . S
C698 C696 1.391 . S
C698 C699 1.400 . S
C699 C698 1.400 . S
C699 C700 1.398 . S
C699 C705 1.491 . S
C700 H691 0.950 . S
C700 C699 1.398 . S
C700 C701 1.391 . S
C701 H689 0.950 . S
C701 C697 1.393 . S
C701 C700 1.391 . S
C702 H692 0.950 . S
C702 C703 1.386 . S
C702 C704 1.391 . S
C703 C702 1.386 . S
C703 C707 1.393 . S
C704 H693 0.950 . S
C704 C702 1.391 . S
C704 C705 1.400 . S
C705 C699 1.491 . S
C705 C704 1.400 . S
C705 C706 1.398 . S
C706 H694 0.950 . S
C706 C705 1.398 . S
C706 C707 1.391 . S
C707 H695 0.950 . S
C707 C703 1.393 . S
C707 C706 1.391 . S
H708 C716 0.950 . S
H709 C721 0.950 . S
H710 C718 0.950 . S
H711 C720 0.950 . S
H712 C722 0.950 . S
H713 C724 0.950 . S
H714 C726 0.950 . S
H715 C727 0.950 . S
C716 H708 0.950 . S
C716 C717 1.386 . S
C716 C718 1.391 . S
C717 C716 1.386 . S
C717 C721 1.393 . S
C718 H710 0.950 . S
C718 C716 1.391 . S
C718 C719 1.400 . S
C719 C718 1.400 . S
C719 C720 1.398 . S
C719 C725 1.491 . S
C720 H711 0.950 . S
C720 C719 1.398 . S
C720 C721 1.391 . S
C721 H709 0.950 . S
C721 C717 1.393 . S
C721 C720 1.391 . S
C722 H712 0.950 . S
C722 C723 1.386 . S
C722 C724 1.391 . S
C723 C722 1.386 . S
C723 C727 1.393 . S
C724 H713 0.950 . S
C724 C722 1.391 . S
C724 C725 1.400 . S
C725 C719 1.491 . S
C725 C724 1.400 . S
C725 C726 1.398 . S
C726 H714 0.950 . S
C726 C725 1.398 . S
C726 C727 1.391 . S
C727 H715 0.950 . S
C727 C723 1.393 . S
C727 C726 1.391 . S
H728 C736 0.950 . S
H729 C741 0.950 . S
H730 C738 0.950 . S
H731 C740 0.950 . S
H732 C742 0.950 . S
H733 C744 0.950 . S
H734 C746 0.950 . S
H735 C747 0.950 . S
C736 H728 0.950 . S
C736 C737 1.386 . S
C736 C738 1.391 . S
C737 C736 1.386 . S
C737 C741 1.393 . S
C738 H730 0.950 . S
C738 C736 1.391 . S
C738 C739 1.400 . S
C739 C738 1.400 . S
C739 C740 1.398 . S
C739 C745 1.491 . S
C740 H731 0.950 . S
C740 C739 1.398 . S
C740 C741 1.391 . S
C741 H729 0.950 . S
C741 C737 1.393 . S
C741 C740 1.391 . S
C742 H732 0.950 . S
C742 C743 1.386 . S
C742 C744 1.391 . S
C743 C742 1.386 . S
C743 C747 1.393 . S
C744 H733 0.950 . S
C744 C742 1.391 . S
C744 C745 1.400 . S
C745 C739 1.491 . S
C745 C744 1.400 . S
C745 C746 1.398 . S
C746 H734 0.950 . S
C746 C745 1.398 . S
C746 C747 1.391 . S
C747 H735 0.950 . S
C747 C743 1.393 . S
C747 C746 1.391 . S
H748 C756 0.950 . S
H749 C761 0.950 . S
H750 C758 0.950 . S
H751 C760 0.950 . S
H752 C762 0.950 . S
H753 C764 0.950 . S
H754 C766 0.950 . S
H755 C767 0.950 . S
C756 H748 0.950 . S
C756 C757 1.386 . S
C756 C758 1.391 . S
C757 C756 1.386 . S
C757 C761 1.393 . S
C758 H750 0.950 . S
C758 C756 1.391 . S
C758 C759 1.400 . S
C759 C758 1.400 . S
C759 C760 1.398 . S
C759 C765 1.491 . S
C760 H751 0.950 . S
C760 C759 1.398 . S
C760 C761 1.391 . S
C761 H749 0.950 . S
C761 C757 1.393 . S
C761 C760 1.391 . S
C762 H752 0.950 . S
C762 C763 1.386 . S
C762 C764 1.391 . S
C763 C762 1.386 . S
C763 C767 1.393 . S
C764 H753 0.950 . S
C764 C762 1.391 . S
C764 C765 1.400 . S
C765 C759 1.491 . S
C765 C764 1.400 . S
C765 C766 1.398 . S
C766 H754 0.950 . S
C766 C765 1.398 . S
C766 C767 1.391 . S
C767 H755 0.950 . S
C767 C763 1.393 . S
C767 C766 1.391 . S
H768 C776 0.950 . S
H769 C781 0.950 . S
H770 C778 0.950 . S
H771 C780 0.950 . S
H772 C782 0.950 . S
H773 C784 0.950 . S
H774 C786 0.950 . S
H775 C787 0.950 . S
C776 H768 0.950 . S
C776 C777 1.386 . S
C776 C778 1.391 . S
C777 C776 1.386 . S
C777 C781 1.393 . S
C778 H770 0.950 . S
C778 C776 1.391 . S
C778 C779 1.400 . S
C779 C778 1.400 . S
C779 C780 1.398 . S
C779 C785 1.491 . S
C780 H771 0.950 . S
C780 C779 1.398 . S
C780 C781 1.391 . S
C781 H769 0.950 . S
C781 C777 1.393 . S
C781 C780 1.391 . S
C782 H772 0.950 . S
C782 C783 1.386 . S
C782 C784 1.391 . S
C783 C782 1.386 . S
C783 C787 1.393 . S
C784 H773 0.950 . S
C784 C782 1.391 . S
C784 C785 1.400 . S
C785 C779 1.491 . S
C785 C784 1.400 . S
C785 C786 1.398 . S
C786 H774 0.950 . S
C786 C785 1.398 . S
C786 C787 1.391 . S
C787 H775 0.950 . S
C787 C783 1.393 . S
C787 C786 1.391 . S
H788 C796 0.950 . S
H789 C801 0.950 . S
H790 C798 0.950 . S
H791 C800 0.950 . S
H792 C802 0.950 . S
H793 C804 0.950 . S
H794 C806 0.950 . S
H795 C807 0.950 . S
C796 H788 0.950 . S
C796 C797 1.386 . S
C796 C798 1.391 . S
C797 C796 1.386 . S
C797 C801 1.393 . S
C798 H790 0.950 . S
C798 C796 1.391 . S
C798 C799 1.400 . S
C799 C798 1.400 . S
C799 C800 1.398 . S
C799 C805 1.491 . S
C800 H791 0.950 . S
C800 C799 1.398 . S
C800 C801 1.391 . S
C801 H789 0.950 . S
C801 C797 1.393 . S
C801 C800 1.391 . S
C802 H792 0.950 . S
C802 C803 1.386 . S
C802 C804 1.391 . S
C803 C802 1.386 . S
C803 C807 1.393 . S
C804 H793 0.950 . S
C804 C802 1.391 . S
C804 C805 1.400 . S
C805 C799 1.491 . S
C805 C804 1.400 . S
C805 C806 1.398 . S
C806 H794 0.950 . S
C806 C805 1.398 . S
C806 C807 1.391 . S
C807 H795 0.950 . S
C807 C803 1.393 . S
C807 C806 1.391 . S
H808 C816 0.950 . S
H809 C821 0.950 . S
H810 C818 0.950 . S
H811 C820 0.950 . S
H812 C822 0.950 . S
H813 C824 0.950 . S
H814 C826 0.950 . S
H815 C827 0.950 . S
C816 H808 0.950 . S
C816 C817 1.386 . S
C816 C818 1.391 . S
C817 C816 1.386 . S
C817 C821 1.393 . S
C818 H810 0.950 . S
C818 C816 1.391 . S
C818 C819 1.400 . S
C819 C818 1.400 . S
C819 C820 1.398 . S
C819 C825 1.491 . S
C820 H811 0.950 . S
C820 C819 1.398 . S
C820 C821 1.391 . S
C821 H809 0.950 . S
C821 C817 1.393 . S
C821 C820 1.391 . S
C822 H812 0.950 . S
C822 C823 1.386 . S
C822 C824 1.391 . S
C823 C822 1.386 . S
C823 C827 1.393 . S
C824 H813 0.950 . S
C824 C822 1.391 . S
C824 C825 1.400 . S
C825 C819 1.491 . S
C825 C824 1.400 . S
C825 C826 1.398 . S
C826 H814 0.950 . S
C826 C825 1.398 . S
C826 C827 1.391 . S
C827 H815 0.950 . S
C827 C823 1.393 . S
C827 C826 1.391 . S
H828 C836 0.950 . S
H829 C841 0.950 . S
H830 C838 0.950 . S
H831 C840 0.950 . S
H832 C842 0.950 . S
H833 C844 0.950 . S
H834 C846 0.950 . S
H835 C847 0.950 . S
C836 H828 0.950 . S
C836 C837 1.386 . S
C836 C838 1.391 . S
C837 C836 1.386 . S
C837 C841 1.393 . S
C838 H830 0.950 . S
C838 C836 1.391 . S
C838 C839 1.400 . S
C839 C838 1.400 . S
C839 C840 1.398 . S
C839 C845 1.491 . S
C840 H831 0.950 . S
C840 C839 1.398 . S
C840 C841 1.391 . S
C841 H829 0.950 . S
C841 C837 1.393 . S
C841 C840 1.391 . S
C842 H832 0.950 . S
C842 C843 1.386 . S
C842 C844 1.391 . S
C843 C842 1.386 . S
C843 C847 1.393 . S
C844 H833 0.950 . S
C844 C842 1.391 . S
C844 C845 1.400 . S
C845 C839 1.491 . S
C845 C844 1.400 . S
C845 C846 1.398 . S
C846 H834 0.950 . S
C846 C845 1.398 . S
C846 C847 1.391 . S
C847 H835 0.950 . S
C847 C843 1.393 . S
C847 C846 1.391 . S
H848 C856 0.950 . S
H849 C861 0.950 . S
H850 C858 0.950 1_565 S
H851 C860 0.950 . S
H852 C862 0.950 . S
H853 C864 0.950 1_545 S
H854 C866 0.950 . S
H855 C867 0.950 . S
C856 H848 0.950 . S
C856 C857 1.386 . S
C856 C858 1.391 . S
C857 C856 1.386 . S
C857 C861 1.393 . S
C858 H850 0.950 1_545 S
C858 C856 1.391 . S
C858 C859 1.400 . S
C859 C858 1.400 . S
C859 C860 1.398 . S
C859 C865 1.491 1_545 S
C860 H851 0.950 . S
C860 C859 1.398 . S
C860 C861 1.391 . S
C861 H849 0.950 . S
C861 C857 1.393 . S
C861 C860 1.391 . S
C862 H852 0.950 . S
C862 C863 1.386 . S
C862 C864 1.391 . S
C863 C862 1.386 . S
C863 C867 1.393 . S
C864 H853 0.950 1_565 S
C864 C862 1.391 . S
C864 C865 1.400 . S
C865 C859 1.491 1_565 S
C865 C864 1.400 . S
C865 C866 1.398 . S
C866 H854 0.950 . S
C866 C865 1.398 . S
C866 C867 1.391 . S
C867 H855 0.950 . S
C867 C863 1.393 . S
C867 C866 1.391 . S
H868 C876 0.950 . S
H869 C881 0.950 . S
H870 C878 0.950 . S
H871 C880 0.950 1_565 S
H872 C882 0.950 . S
H873 C884 0.950 . S
H874 C886 0.950 1_545 S
H875 C887 0.950 . S
C876 H868 0.950 . S
C876 C877 1.386 . S
C876 C878 1.391 . S
C877 C876 1.386 . S
C877 C881 1.393 . S
C878 H870 0.950 . S
C878 C876 1.391 . S
C878 C879 1.400 . S
C879 C878 1.400 . S
C879 C880 1.398 . S
C879 C885 1.491 1_545 S
C880 H871 0.950 1_545 S
C880 C879 1.398 . S
C880 C881 1.391 . S
C881 H869 0.950 . S
C881 C877 1.393 . S
C881 C880 1.391 . S
C882 H872 0.950 . S
C882 C883 1.386 . S
C882 C884 1.391 . S
C883 C882 1.386 . S
C883 C887 1.393 . S
C884 H873 0.950 . S
C884 C882 1.391 . S
C884 C885 1.400 . S
C885 C879 1.491 1_565 S
C885 C884 1.400 . S
C885 C886 1.398 . S
C886 H874 0.950 1_565 S
C886 C885 1.398 . S
C886 C887 1.391 . S
C887 H875 0.950 . S
C887 C883 1.393 . S
C887 C886 1.391 . S
H888 C896 0.950 . S
H889 C901 0.950 . S
H890 C898 0.950 . S
H891 C900 0.950 . S
H892 C902 0.950 . S
H893 C904 0.950 . S
H894 C906 0.950 . S
H895 C907 0.950 . S
C896 H888 0.950 . S
C896 C897 1.386 . S
C896 C898 1.391 1_545 S
C897 C896 1.386 . S
C897 C901 1.393 . S
C898 H890 0.950 . S
C898 C896 1.391 1_565 S
C898 C899 1.400 1_565 S
C899 C898 1.400 1_545 S
C899 C900 1.398 . S
C899 C905 1.491 1_545 S
C900 H891 0.950 . S
C900 C899 1.398 . S
C900 C901 1.391 . S
C901 H889 0.950 . S
C901 C897 1.393 . S
C901 C900 1.391 . S
C902 H892 0.950 . S
C902 C903 1.386 . S
C902 C904 1.391 1_565 S
C903 C902 1.386 . S
C903 C907 1.393 . S
C904 H893 0.950 . S
C904 C902 1.391 1_545 S
C904 C905 1.400 1_545 S
C905 C899 1.491 1_565 S
C905 C904 1.400 1_565 S
C905 C906 1.398 . S
C906 H894 0.950 . S
C906 C905 1.398 . S
C906 C907 1.391 . S
C907 H895 0.950 . S
C907 C903 1.393 . S
C907 C906 1.391 . S
H908 C916 0.950 . S
H909 C921 0.950 . S
H910 C918 0.950 1_545 S
H911 C920 0.950 . S
H912 C922 0.950 . S
H913 C924 0.950 1_565 S
H914 C926 0.950 . S
H915 C927 0.950 . S
C916 H908 0.950 . S
C916 C917 1.386 . S
C916 C918 1.391 . S
C917 C916 1.386 . S
C917 C921 1.393 . S
C918 H910 0.950 1_565 S
C918 C916 1.391 . S
C918 C919 1.400 . S
C919 C918 1.400 . S
C919 C920 1.398 . S
C919 C925 1.491 1_565 S
C920 H911 0.950 . S
C920 C919 1.398 . S
C920 C921 1.391 . S
C921 H909 0.950 . S
C921 C917 1.393 . S
C921 C920 1.391 . S
C922 H912 0.950 . S
C922 C923 1.386 . S
C922 C924 1.391 . S
C923 C922 1.386 . S
C923 C927 1.393 . S
C924 H913 0.950 1_545 S
C924 C922 1.391 . S
C924 C925 1.400 . S
C925 C919 1.491 1_545 S
C925 C924 1.400 . S
C925 C926 1.398 . S
C926 H914 0.950 . S
C926 C925 1.398 . S
C926 C927 1.391 . S
C927 H915 0.950 . S
C927 C923 1.393 . S
C927 C926 1.391 . S
H928 C936 0.950 . S
H929 C941 0.950 . S
H930 C938 0.950 . S
H931 C940 0.950 . S
H932 C942 0.950 . S
H933 C944 0.950 . S
H934 C946 0.950 . S
H935 C947 0.950 . S
C936 H928 0.950 . S
C936 C937 1.386 . S
C936 C938 1.391 . S
C937 C936 1.386 . S
C937 C941 1.393 . S
C938 H930 0.950 . S
C938 C936 1.391 . S
C938 C939 1.400 . S
C939 C938 1.400 . S
C939 C940 1.398 . S
C939 C945 1.491 . S
C940 H931 0.950 . S
C940 C939 1.398 . S
C940 C941 1.391 . S
C941 H929 0.950 . S
C941 C937 1.393 . S
C941 C940 1.391 . S
C942 H932 0.950 . S
C942 C943 1.386 . S
C942 C944 1.391 . S
C943 C942 1.386 . S
C943 C947 1.393 . S
C944 H933 0.950 . S
C944 C942 1.391 . S
C944 C945 1.400 . S
C945 C939 1.491 . S
C945 C944 1.400 . S
C945 C946 1.398 . S
C946 H934 0.950 . S
C946 C945 1.398 . S
C946 C947 1.391 . S
C947 H935 0.950 . S
C947 C943 1.393 . S
C947 C946 1.391 . S
H948 C956 0.950 . S
H949 C961 0.950 . S
H950 C958 0.950 . S
H951 C960 0.950 . S
H952 C962 0.950 . S
H953 C964 0.950 . S
H954 C966 0.950 . S
H955 C967 0.950 . S
C956 H948 0.950 . S
C956 C957 1.386 . S
C956 C958 1.391 . S
C957 C956 1.386 . S
C957 C961 1.393 . S
C958 H950 0.950 . S
C958 C956 1.391 . S
C958 C959 1.400 . S
C959 C958 1.400 . S
C959 C960 1.398 . S
C959 C965 1.491 . S
C960 H951 0.950 . S
C960 C959 1.398 . S
C960 C961 1.391 . S
C961 H949 0.950 . S
C961 C957 1.393 . S
C961 C960 1.391 . S
C962 H952 0.950 . S
C962 C963 1.386 . S
C962 C964 1.391 . S
C963 C962 1.386 . S
C963 C967 1.393 . S
C964 H953 0.950 . S
C964 C962 1.391 . S
C964 C965 1.400 . S
C965 C959 1.491 . S
C965 C964 1.400 . S
C965 C966 1.398 . S
C966 H954 0.950 . S
C966 C965 1.398 . S
C966 C967 1.391 . S
C967 H955 0.950 . S
C967 C963 1.393 . S
C967 C966 1.391 . S
H968 C976 0.950 . S
H969 C981 0.950 . S
H970 C978 0.950 . S
H971 C980 0.950 . S
H972 C982 0.950 . S
H973 C984 0.950 . S
H974 C986 0.950 . S
H975 C987 0.950 . S
C976 H968 0.950 . S
C976 C977 1.386 . S
C976 C978 1.391 . S
C977 C976 1.386 . S
C977 C981 1.393 . S
C978 H970 0.950 . S
C978 C976 1.391 . S
C978 C979 1.400 . S
C979 C978 1.400 . S
C979 C980 1.398 . S
C979 C985 1.491 . S
C980 H971 0.950 . S
C980 C979 1.398 . S
C980 C981 1.391 . S
C981 H969 0.950 . S
C981 C977 1.393 . S
C981 C980 1.391 . S
C982 H972 0.950 . S
C982 C983 1.386 . S
C982 C984 1.391 . S
C983 C982 1.386 . S
C983 C987 1.393 . S
C984 H973 0.950 . S
C984 C982 1.391 . S
C984 C985 1.400 . S
C985 C979 1.491 . S
C985 C984 1.400 . S
C985 C986 1.398 . S
C986 H974 0.950 . S
C986 C985 1.398 . S
C986 C987 1.391 . S
C987 H975 0.950 . S
C987 C983 1.393 . S
C987 C986 1.391 . S
H988 C996 0.950 . S
H989 C1001 0.950 . S
H990 C998 0.950 . S
H991 C1000 0.950 . S
H992 C1002 0.950 . S
H993 C1004 0.950 . S
H994 C1006 0.950 . S
H995 C1007 0.950 . S
C996 H988 0.950 . S
C996 C997 1.386 . S
C996 C998 1.391 . S
C997 C996 1.386 . S
C997 C1001 1.393 . S
C998 H990 0.950 . S
C998 C996 1.391 . S
C998 C999 1.400 . S
C999 C998 1.400 . S
C999 C1000 1.398 . S
C999 C1005 1.491 . S
C1000 H991 0.950 . S
C1000 C999 1.398 . S
C1000 C1001 1.391 . S
C1001 H989 0.950 . S
C1001 C997 1.393 . S
C1001 C1000 1.391 . S
C1002 H992 0.950 . S
C1002 C1003 1.386 . S
C1002 C1004 1.391 . S
C1003 C1002 1.386 . S
C1003 C1007 1.393 . S
C1004 H993 0.950 . S
C1004 C1002 1.391 . S
C1004 C1005 1.400 . S
C1005 C999 1.491 . S
C1005 C1004 1.400 . S
C1005 C1006 1.398 . S
C1006 H994 0.950 . S
C1006 C1005 1.398 . S
C1006 C1007 1.391 . S
C1007 H995 0.950 . S
C1007 C1003 1.393 . S
C1007 C1006 1.391 . S
C377 C7 1.669 . S
C383 C122 1.672 . S
C397 C99 1.678 . S
C403 C30 1.663 . S
C417 C53 1.666 . S
C423 C168 1.675 . S
C437 C145 1.677 . S
C443 C76 1.663 . S
C457 C306 1.668 . S
C463 C191 1.673 . S
C477 C283 1.678 . S
C483 C214 1.663 . S
C497 C352 1.664 . S
C503 C237 1.677 . S
C517 C260 1.663 . S
C523 C329 1.677 . S
C537 N25 1.449 . S
C543 N2 1.442 . S
C557 N48 1.461 . S
C563 N71 1.468 . S
C577 N94 1.468 . S
C583 N117 1.463 . S
C597 N140 1.461 . S
C603 N163 1.447 . S
C617 N186 1.462 . S
C623 N209 1.468 . S
C637 N255 1.465 . S
C643 N232 1.467 . S
C657 N301 1.463 . S
C663 N278 1.468 . S
C677 N324 1.442 . S
C683 N347 1.453 . S
C697 N219 1.479 . S
C703 N12 1.463 . S
C717 N35 1.476 . S
C723 N196 1.467 . S
C737 N265 1.461 . S
C743 N58 1.468 . S
C757 N81 1.468 . S
C763 N242 1.475 . S
C777 N104 1.476 . S
C783 N311 1.468 . S
C797 N288 1.464 . S
C803 N127 1.478 . S
C817 N150 1.474 . S
C823 N357 1.457 . S
C837 N334 1.479 . S
C843 N173 1.458 . S
C857 C16 1.635 . S
C863 C62 1.641 . S
C877 C85 1.641 . S
C883 C39 1.636 . S
C897 C154 1.652 . S
C903 C108 1.641 . S
C917 C177 1.645 . S
C923 C131 1.636 . S
C937 C246 1.644 . S
C943 C200 1.636 . S
C957 C223 1.653 . S
C963 C269 1.656 . S
C977 C338 1.655 . S
C983 C292 1.655 . S
C997 C315 1.655 . S
C1003 C361 1.647 . S
