# Generated by pormake.
# Topology snx, (6)-cn, num edge types: 1
# Building blocks:
#     Node 0, Type 0, BuildingBlock: OJICUG_clean_sbu_0, # of connection points: 6
#     Node 1, Type 0, BuildingBlock: OJICUG_clean_sbu_0, # of connection points: 6
#     Node 2, Type 0, BuildingBlock: OJICUG_clean_sbu_0, # of connection points: 6
#     Node 3, Type 0, BuildingBlock: OJICUG_clean_sbu_0, # of connection points: 6
#     Node 4, Type 0, BuildingBlock: OJICUG_clean_sbu_0, # of connection points: 6
#     Node 5, Type 0, BuildingBlock: OJICUG_clean_sbu_0, # of connection points: 6
#     Edge 6, Type (0, 0), BuildingBlock: XIVTED_clean_linker_0, # of connection points: 2
#     Edge 7, Type (0, 0), BuildingBlock: XIVTED_clean_linker_0, # of connection points: 2
#     Edge 8, Type (0, 0), BuildingBlock: XIVTED_clean_linker_0, # of connection points: 2
#     Edge 9, Type (0, 0), BuildingBlock: XIVTED_clean_linker_0, # of connection points: 2
#     Edge 10, Type (0, 0), BuildingBlock: XIVTED_clean_linker_0, # of connection points: 2
#     Edge 11, Type (0, 0), BuildingBlock: XIVTED_clean_linker_0, # of connection points: 2
#     Edge 12, Type (0, 0), BuildingBlock: XIVTED_clean_linker_0, # of connection points: 2
#     Edge 13, Type (0, 0), BuildingBlock: XIVTED_clean_linker_0, # of connection points: 2
#     Edge 14, Type (0, 0), BuildingBlock: XIVTED_clean_linker_0, # of connection points: 2
#     Edge 15, Type (0, 0), BuildingBlock: XIVTED_clean_linker_0, # of connection points: 2
#     Edge 16, Type (0, 0), BuildingBlock: XIVTED_clean_linker_0, # of connection points: 2
#     Edge 17, Type (0, 0), BuildingBlock: XIVTED_clean_linker_0, # of connection points: 2
#     Edge 18, Type (0, 0), BuildingBlock: XIVTED_clean_linker_0, # of connection points: 2
#     Edge 19, Type (0, 0), BuildingBlock: XIVTED_clean_linker_0, # of connection points: 2
#     Edge 20, Type (0, 0), BuildingBlock: XIVTED_clean_linker_0, # of connection points: 2
#     Edge 21, Type (0, 0), BuildingBlock: XIVTED_clean_linker_0, # of connection points: 2
#     Edge 22, Type (0, 0), BuildingBlock: XIVTED_clean_linker_0, # of connection points: 2
#     Edge 23, Type (0, 0), BuildingBlock: XIVTED_clean_linker_0, # of connection points: 2
# Relax obj value: 0.060
# Max RMSD: 0.112
# Mean RMSD: 0.112
data_MOF--net-snx--node1-OJICUG_clean_sbu_0--edge1-XIVTED_clean_linker_0
_symmetry_space_group_name_H-M    P1
_symmetry_Int_Tables_number       1
_symmetry_cell_setting            triclinic
loop_
_symmetry_equiv_pos_as_xyz
'x, y, z'
_cell_length_a     38.966981
_cell_length_b     38.963418
_cell_length_c     21.585018
_cell_angle_alpha  90.092174
_cell_angle_beta   90.181253
_cell_angle_gamma 119.83116
loop_
_atom_site_label
_atom_site_type_symbol
_atom_site_fract_x
_atom_site_fract_y
_atom_site_fract_z
_atom_type_partial_charge
Sc0 Sc 0.18764 0.39927 0.16249 0.0
Sc1 Sc 0.18869 0.39963 0.32614 0.0
Sc2 Sc 0.14869 0.30947 0.2441 0.0
O3 O 0.17498 0.3695 0.24426 0.0
C4 C 0.10243 0.32527 0.13511 0.0
C5 C 0.16146 0.45041 0.24498 0.0
C6 C 0.10424 0.32547 0.35544 0.0
C7 C 0.26501 0.45314 0.24366 0.0
C8 C 0.20801 0.33123 0.13085 0.0
C9 C 0.20978 0.33183 0.35555 0.0
O10 O 0.12924 0.36091 0.12589 0.0
O11 O 0.16769 0.43868 0.29647 0.0
O12 O 0.1071 0.30323 0.315 0.0
O13 O 0.24712 0.44062 0.192 0.0
O14 O 0.18758 0.30868 0.17461 0.0
O15 O 0.21165 0.36468 0.36747 0.0
O16 O 0.21017 0.36429 0.11996 0.0
O17 O 0.24789 0.44104 0.29571 0.0
O18 O 0.18911 0.30925 0.3116 0.0
O19 O 0.1671 0.4385 0.19323 0.0
O20 O 0.1056 0.30311 0.17527 0.0
O21 O 0.13076 0.36137 0.36391 0.0
Sc22 Sc 0.82273 0.1469 0.74175 0.0
Sc23 Sc 0.78095 0.19519 0.65926 0.0
Sc24 Sc 0.78076 0.19543 0.82276 0.0
O25 O 0.79489 0.1793 0.74122 0.0
C26 C 0.76089 0.1067 0.85051 0.0
C27 C 0.7634 0.10817 0.62745 0.0
C28 C 0.70391 0.17183 0.74051 0.0
C29 C 0.86755 0.2081 0.63322 0.0
C30 C 0.86515 0.20656 0.85523 0.0
C31 C 0.80684 0.27276 0.74049 0.0
O32 O 0.78102 0.10478 0.80583 0.0
O33 O 0.75691 0.13675 0.61964 0.0
O34 O 0.72102 0.17595 0.79255 0.0
O35 O 0.86657 0.18549 0.67648 0.0
O36 O 0.83904 0.2168 0.86123 0.0
O37 O 0.80245 0.25535 0.68879 0.0
O38 O 0.86223 0.18089 0.81595 0.0
O39 O 0.83885 0.21395 0.62108 0.0
O40 O 0.79981 0.25482 0.79206 0.0
O41 O 0.78707 0.10853 0.66827 0.0
O42 O 0.75964 0.13787 0.86386 0.0
O43 O 0.72193 0.17834 0.68907 0.0
Sc44 Sc 0.66227 0.83026 0.2351 0.0
Sc45 Sc 0.57136 0.78183 0.15547 0.0
Sc46 Sc 0.57337 0.78427 0.31909 0.0
O47 O 0.60225 0.79868 0.23661 0.0
C48 C 0.64658 0.7702 0.34505 0.0
C49 C 0.64355 0.76925 0.1232 0.0
C50 C 0.52067 0.70584 0.24045 0.0
C51 C 0.64035 0.86998 0.12558 0.0
C52 C 0.64365 0.87092 0.34876 0.0
C53 C 0.5192 0.8071 0.23661 0.0
O54 O 0.66753 0.79159 0.30045 0.0
O55 O 0.60717 0.75888 0.11798 0.0
O56 O 0.53448 0.72382 0.29156 0.0
O57 O 0.66232 0.87219 0.17078 0.0
O58 O 0.60831 0.84325 0.35678 0.0
O59 O 0.53196 0.80257 0.18479 0.0
O60 O 0.66631 0.86927 0.30828 0.0
O61 O 0.60801 0.83876 0.11236 0.0
O62 O 0.53096 0.80096 0.28835 0.0
O63 O 0.66675 0.79561 0.16121 0.0
O64 O 0.61269 0.76559 0.35818 0.0
O65 O 0.53088 0.72311 0.18831 0.0
Sc66 Sc 0.8233 0.66708 0.73714 0.0
Sc67 Sc 0.77552 0.57675 0.65588 0.0
Sc68 Sc 0.77708 0.57741 0.81935 0.0
O69 O 0.79188 0.60701 0.73751 0.0
C70 C 0.86349 0.64759 0.85082 0.0
C71 C 0.86356 0.64631 0.62741 0.0
C72 C 0.80102 0.52443 0.73625 0.0
C73 C 0.76247 0.64881 0.62477 0.0
C74 C 0.76237 0.65007 0.84609 0.0
C75 C 0.69921 0.52511 0.73953 0.0
O76 O 0.86211 0.67074 0.81089 0.0
O77 O 0.83243 0.61409 0.6135 0.0
O78 O 0.79429 0.53555 0.78807 0.0
O79 O 0.78882 0.67197 0.66288 0.0
O80 O 0.75789 0.61616 0.85878 0.0
O81 O 0.71678 0.5357 0.6877 0.0
O82 O 0.78407 0.67151 0.80213 0.0
O83 O 0.75229 0.6125 0.61924 0.0
O84 O 0.71685 0.53859 0.79095 0.0
O85 O 0.86565 0.66783 0.67316 0.0
O86 O 0.83576 0.61217 0.85785 0.0
O87 O 0.79669 0.53754 0.68457 0.0
Sc88 Sc 0.14192 0.82758 0.2439 0.0
Sc89 Sc 0.18791 0.78278 0.32494 0.0
Sc90 Sc 0.18693 0.78269 0.16107 0.0
O91 O 0.17233 0.79771 0.24329 0.0
C92 C 0.09992 0.76727 0.13203 0.0
C93 C 0.10087 0.76607 0.35417 0.0
C94 C 0.163 0.70561 0.24219 0.0
C95 C 0.20274 0.86923 0.35567 0.0
C96 C 0.20181 0.86947 0.1324 0.0
C97 C 0.26471 0.80784 0.24252 0.0
O98 O 0.10071 0.79029 0.17441 0.0
O99 O 0.13012 0.76095 0.36455 0.0
O100 O 0.16774 0.72306 0.19055 0.0
O101 O 0.18011 0.86901 0.31298 0.0
O102 O 0.20815 0.84092 0.12224 0.0
O103 O 0.24751 0.80277 0.29445 0.0
O104 O 0.17882 0.86872 0.17462 0.0
O105 O 0.20831 0.84026 0.36601 0.0
O106 O 0.24667 0.80181 0.19094 0.0
O107 O 0.10092 0.78906 0.31243 0.0
O108 O 0.12859 0.7612 0.12173 0.0
O109 O 0.16923 0.72339 0.29399 0.0
Sc110 Sc 0.305 0.15052 0.74505 0.0
Sc111 Sc 0.3952 0.19155 0.82653 0.0
Sc112 Sc 0.39475 0.19226 0.66288 0.0
O113 O 0.36503 0.17809 0.74476 0.0
C114 C 0.32144 0.10636 0.63435 0.0
C115 C 0.32268 0.1065 0.85539 0.0
C116 C 0.4465 0.16594 0.74295 0.0
C117 C 0.3261 0.21082 0.85676 0.0
C118 C 0.32601 0.21135 0.63319 0.0
C119 C 0.448 0.26881 0.74656 0.0
O120 O 0.30002 0.10702 0.6782 0.0
O121 O 0.35879 0.13275 0.86238 0.0
O122 O 0.43321 0.17021 0.69142 0.0
O123 O 0.30419 0.19126 0.81141 0.0
O124 O 0.36035 0.21632 0.624 0.0
O125 O 0.43487 0.25158 0.79823 0.0
O126 O 0.30276 0.18817 0.67418 0.0
O127 O 0.35857 0.21201 0.86945 0.0
O128 O 0.43679 0.25095 0.6947 0.0
O129 O 0.29974 0.10988 0.81697 0.0
O130 O 0.35565 0.13516 0.62237 0.0
O131 O 0.43582 0.17311 0.79467 0.0
H132 H 0.14854 0.48579 0.34542 0.0
H133 H 0.149 0.65685 0.14185 0.0
H134 H 0.14985 0.48721 0.14529 0.0
H135 H 0.15292 0.65789 0.34194 0.0
H136 H 0.13929 0.58999 0.14242 0.0
H137 H 0.1399 0.54364 0.34492 0.0
C138 C 0.14657 0.49792 0.30131 0.0
C139 C 0.15058 0.48186 0.2453 0.0
C140 C 0.14191 0.60471 0.18621 0.0
C141 C 0.14092 0.54841 0.24452 0.0
C142 C 0.14745 0.64296 0.18597 0.0
C143 C 0.1524 0.6634 0.24193 0.0
C144 C 0.14142 0.58672 0.24278 0.0
C145 C 0.14971 0.64357 0.29759 0.0
C146 C 0.14168 0.53105 0.3011 0.0
C147 C 0.14738 0.49876 0.18966 0.0
N148 N 0.14481 0.60653 0.29655 0.0
N149 N 0.14319 0.53136 0.19072 0.0
H150 H 0.65616 0.15995 0.63959 0.0
H151 H 0.48183 0.15234 0.84276 0.0
H152 H 0.6552 0.1595 0.83975 0.0
H153 H 0.48441 0.15659 0.64274 0.0
H154 H 0.5405 0.14515 0.84197 0.0
H155 H 0.58898 0.14933 0.63959 0.0
C156 C 0.64178 0.1573 0.6836 0.0
C157 C 0.66172 0.16121 0.7398 0.0
C158 C 0.528 0.14725 0.79822 0.0
C159 C 0.58464 0.14912 0.73999 0.0
C160 C 0.49441 0.15132 0.79858 0.0
C161 C 0.4784 0.15572 0.74273 0.0
C162 C 0.54592 0.14774 0.74165 0.0
C163 C 0.49586 0.15371 0.687 0.0
C164 C 0.60334 0.1512 0.68351 0.0
C165 C 0.64126 0.15709 0.79526 0.0
N166 N 0.52893 0.15034 0.68792 0.0
N167 N 0.60402 0.15166 0.79393 0.0
H168 H 0.31283 0.48694 0.14287 0.0
H169 H 0.48622 0.659 0.34219 0.0
H170 H 0.31324 0.49232 0.34283 0.0
H171 H 0.48202 0.65673 0.14211 0.0
H172 H 0.42796 0.59306 0.3435 0.0
H173 H 0.37944 0.54401 0.14226 0.0
C174 C 0.32698 0.49985 0.18674 0.0
C175 C 0.30702 0.48501 0.24299 0.0
C176 C 0.44003 0.60684 0.29931 0.0
C177 C 0.3835 0.55066 0.24247 0.0
C178 C 0.4734 0.64453 0.29848 0.0
C179 C 0.48883 0.66383 0.24193 0.0
C180 C 0.42184 0.58826 0.24325 0.0
C181 C 0.471 0.64331 0.18686 0.0
C182 C 0.3651 0.53251 0.18631 0.0
C183 C 0.32721 0.50288 0.29829 0.0
N184 N 0.43826 0.60685 0.18894 0.0
N185 N 0.36416 0.53497 0.29659 0.0
H186 H 0.81467 0.48938 0.63598 0.0
H187 H 0.81918 0.32117 0.84059 0.0
H188 H 0.81214 0.48742 0.83607 0.0
H189 H 0.81747 0.32051 0.64045 0.0
H190 H 0.8265 0.38706 0.83963 0.0
H191 H 0.82527 0.4327 0.63679 0.0
C192 C 0.81672 0.47734 0.68014 0.0
C193 C 0.81192 0.49297 0.73604 0.0
C194 C 0.82492 0.37267 0.7959 0.0
C195 C 0.82394 0.42784 0.73718 0.0
C196 C 0.82079 0.33499 0.79638 0.0
C197 C 0.81707 0.31486 0.7405 0.0
C198 C 0.82519 0.39041 0.73918 0.0
C199 C 0.81979 0.33461 0.68472 0.0
C200 C 0.82276 0.44491 0.68053 0.0
C201 C 0.8152 0.4762 0.79176 0.0
N202 N 0.82322 0.37106 0.68551 0.0
N203 N 0.82062 0.44435 0.79087 0.0
H204 H 0.48303 0.81958 0.13659 0.0
H205 H 0.3139 0.8214 0.34218 0.0
H206 H 0.48198 0.81753 0.33672 0.0
H207 H 0.31176 0.81741 0.14209 0.0
H208 H 0.38021 0.82976 0.34077 0.0
H209 H 0.42531 0.82845 0.13775 0.0
C210 C 0.47098 0.82139 0.18084 0.0
C211 C 0.48719 0.81723 0.23665 0.0
C212 C 0.36538 0.82743 0.29715 0.0
C213 C 0.42083 0.82723 0.23817 0.0
C214 C 0.32746 0.82269 0.29788 0.0
C215 C 0.30683 0.8181 0.24217 0.0
C216 C 0.38289 0.82748 0.24036 0.0
C217 C 0.32624 0.8204 0.18626 0.0
C218 C 0.43793 0.82642 0.18141 0.0
C219 C 0.47034 0.82015 0.29247 0.0
N220 N 0.36298 0.82451 0.18683 0.0
N221 N 0.43789 0.82459 0.29177 0.0
H222 H 0.65009 0.48883 0.64021 0.0
H223 H 0.48394 0.31736 0.84681 0.0
H224 H 0.65246 0.48839 0.84033 0.0
H225 H 0.48404 0.3166 0.64663 0.0
H226 H 0.54054 0.3844 0.84556 0.0
H227 H 0.58426 0.43058 0.64214 0.0
C228 C 0.63666 0.4768 0.68462 0.0
C229 C 0.65723 0.49327 0.74019 0.0
C230 C 0.52793 0.36968 0.80192 0.0
C231 C 0.58178 0.42625 0.74263 0.0
C232 C 0.49556 0.33135 0.80256 0.0
C233 C 0.47946 0.31096 0.74673 0.0
C234 C 0.54443 0.38778 0.74508 0.0
C235 C 0.49567 0.33087 0.69088 0.0
C236 C 0.59902 0.44345 0.68566 0.0
C237 C 0.638 0.47653 0.79628 0.0
N238 N 0.52746 0.36798 0.69153 0.0
N239 N 0.60156 0.44368 0.79602 0.0
H240 H 0.34336 0.2296 0.97933 0.0
H241 H 0.22748 0.34919 0.0088 0.0
H242 H 0.27847 0.24124 0.82609 0.0
H243 H 0.23734 0.28271 0.16079 0.0
H244 H 0.25966 0.323 0.9411 0.0
H245 H 0.3179 0.26253 0.04671 0.0
C246 C 0.32407 0.23941 0.95978 0.0
C247 C 0.31275 0.23246 0.89719 0.0
C248 C 0.25489 0.3144 0.98938 0.0
C249 C 0.28411 0.27043 0.97359 0.0
C250 C 0.23677 0.32943 0.02801 0.0
C251 C 0.22953 0.31784 0.0903 0.0
C252 C 0.26659 0.28839 0.01365 0.0
C253 C 0.24202 0.29205 0.11285 0.0
C254 C 0.30947 0.25798 -0.00176 0.0
C255 C 0.28758 0.24567 0.87425 0.0
N256 N 0.2601 0.27828 0.07458 0.0
N257 N 0.27419 0.26418 0.91242 0.0
H258 H 0.89532 0.27632 0.56562 0.0
H259 H 0.05697 0.24793 0.38659 0.0
H260 H 0.92048 0.18309 0.61041 0.0
H261 H 0.0713 0.36398 0.41592 0.0
H262 H -0.00032 0.22013 0.45538 0.0
H263 H 0.95345 0.30592 0.4978 0.0
C264 C 0.91306 0.26212 0.56121 0.0
C265 C 0.90312 0.22723 0.59374 0.0
C266 C 0.01541 0.25167 0.4467 0.0
C267 C 0.96892 0.26048 0.51581 0.0
C268 C 0.04792 0.26753 0.4072 0.0
C269 C 0.06895 0.30834 0.39561 0.0
C270 C 0.00333 0.27665 0.47384 0.0
C271 C 0.05604 0.33238 0.42392 0.0
C272 C 0.9462 0.27908 0.52278 0.0
C273 C 0.9272 0.21013 0.58653 0.0
N274 N 0.02382 0.31613 0.46146 0.0
N275 N 0.95876 0.22671 0.54786 0.0
H276 H 0.73173 0.02929 0.81765 0.0
H277 H 0.68654 0.94741 0.15882 0.0
H278 H 0.73975 0.10357 0.97199 0.0
H279 H 0.62489 0.87256 0.00237 0.0
H280 H 0.71196 0.00528 0.09126 0.0
H281 H 0.69791 0.9712 0.88455 0.0
C282 C 0.72629 0.03335 0.86557 0.0
C283 C 0.73869 0.07128 0.88946 0.0
C284 C 0.69259 0.9762 0.07191 0.0
C285 C 0.70055 0.00518 0.96605 0.0
C286 C 0.67826 0.9432 0.11027 0.0
C287 C 0.65371 0.90517 0.086 0.0
C288 C 0.68306 0.97105 0.00861 0.0
C289 C 0.64366 0.90139 0.02289 0.0
C290 C 0.70682 0.00021 0.9035 0.0
C291 C 0.73061 0.07484 0.95172 0.0
N292 N 0.65884 0.93393 0.98607 0.0
N293 N 0.71249 0.04222 0.98815 0.0
H294 H 0.72437 0.79298 0.36281 0.0
H295 H 0.68939 0.60993 0.56894 0.0
H296 H 0.60682 0.7041 0.41764 0.0
H297 H 0.79334 0.72529 0.58717 0.0
H298 H 0.66002 0.63858 0.49994 0.0
H299 H 0.75188 0.76261 0.43092 0.0
C300 C 0.70432 0.76691 0.38887 0.0
C301 C 0.66322 0.75109 0.38468 0.0
C302 C 0.68919 0.65749 0.51931 0.0
C303 C 0.69459 0.71612 0.46228 0.0
C304 C 0.70602 0.64121 0.55837 0.0
C305 C 0.74381 0.66533 0.58389 0.0
C306 C 0.71076 0.69787 0.50466 0.0
C307 C 0.76402 0.70569 0.56888 0.0
C308 C 0.72007 0.74978 0.42796 0.0
C309 C 0.63868 0.71738 0.41984 0.0
N310 N 0.74739 0.72062 0.52982 0.0
N311 N 0.65475 0.70081 0.45699 0.0
H312 H 0.89386 0.60671 0.91225 0.0
H313 H 0.04742 0.7925 0.10865 0.0
H314 H 0.91257 0.72441 0.88338 0.0
H315 H 0.07183 0.69876 0.0635 0.0
H316 H -0.0102 0.7621 0.04034 0.0
H317 H 0.952 0.63466 0.98131 0.0
C318 C 0.91012 0.63833 0.9205 0.0
C319 C 0.89845 0.66332 0.89203 0.0
C320 C 0.00778 0.74819 0.04542 0.0
C321 C 0.9641 0.69507 0.97112 0.0
C322 C 0.04053 0.76536 0.08464 0.0
C323 C 0.06453 0.74817 0.09165 0.0
C324 C -0.0016 0.71315 0.01371 0.0
C325 C 0.05423 0.71309 0.05903 0.0
C326 C 0.94327 0.65419 0.95953 0.0
C327 C 0.92063 0.70409 0.90403 0.0
N328 N 0.02168 0.69651 0.02163 0.0
N329 N 0.95215 0.71863 0.94307 0.0
H330 H 0.26969 0.02967 0.66608 0.0
H331 H 0.22792 0.94598 0.32459 0.0
H332 H 0.33682 0.10235 0.5121 0.0
H333 H 0.22256 0.87265 0.47805 0.0
H334 H 0.25892 0.00401 0.39303 0.0
H335 H 0.24272 0.97132 0.59806 0.0
C336 C 0.2787 0.03331 0.61799 0.0
C337 C 0.30551 0.07081 0.59457 0.0
C338 C 0.2511 0.9752 0.41148 0.0
C339 C 0.27443 0.00464 0.51685 0.0
C340 C 0.23331 0.94214 0.37267 0.0
C341 C 0.22276 0.90456 0.39581 0.0
C342 C 0.25738 0.97043 0.47413 0.0
C343 C 0.23051 0.90119 0.45839 0.0
C344 C 0.2635 8e-05 0.57946 0.0
C345 C 0.31639 0.07392 0.53202 0.0
N346 N 0.24695 0.93369 0.49569 0.0
N347 N 0.30043 0.0413 0.49506 0.0
H348 H 0.72003 0.80088 0.08602 0.0
H349 H 0.69595 0.60927 0.91758 0.0
H350 H 0.60528 0.69619 0.06696 0.0
H351 H 0.78418 0.72752 0.86452 0.0
H352 H 0.66536 0.63754 0.98459 0.0
H353 H 0.7477 0.77111 0.01731 0.0
C354 C 0.70068 0.77152 0.0676 0.0
C355 C 0.66028 0.75095 0.08217 0.0
C356 C 0.6913 0.65713 0.95793 0.0
C357 C 0.69189 0.71669 0.00392 0.0
C358 C 0.70885 0.64111 0.92001 0.0
C359 C 0.74266 0.66611 0.88546 0.0
C360 C 0.70826 0.69836 0.96224 0.0
C361 C 0.75806 0.70714 0.89007 0.0
C362 C 0.71646 0.75469 0.02813 0.0
C363 C 0.63654 0.7131 0.05658 0.0
N364 N 0.74097 0.72198 0.92821 0.0
N365 N 0.65279 0.69697 0.01896 0.0
H366 H 0.94098 0.69077 0.66179 0.0
H367 H 0.02442 0.74272 0.32258 0.0
H368 H 0.86607 0.63342 0.50338 0.0
H369 H 0.09645 0.74115 0.47366 0.0
H370 H 0.96599 0.70949 0.38893 0.0
H371 H -0.001 0.71654 0.59443 0.0
C372 C 0.9368 0.68354 0.61285 0.0
C373 C 0.89876 0.66005 0.58794 0.0
C374 C -0.00541 0.71621 0.40726 0.0
C375 C 0.96469 0.68982 0.51094 0.0
C376 C 0.0279 0.73534 0.36969 0.0
C377 C 0.06527 0.74477 0.39285 0.0
C378 C -0.0011 0.70736 0.46875 0.0
C379 C 0.06813 0.73429 0.45403 0.0
C380 C 0.96985 0.69805 0.57464 0.0
C381 C 0.89494 0.65132 0.52436 0.0
N382 N 0.0354 0.71657 0.49023 0.0
N383 N 0.92753 0.66669 0.48775 0.0
H384 H 0.17629 0.92176 0.10882 0.0
H385 H 0.3621 0.07353 0.91349 0.0
H386 H 0.26984 0.89716 0.06384 0.0
H387 H 0.24552 0.05857 0.88741 0.0
H388 H 0.3334 0.01504 0.98075 0.0
H389 H 0.20635 0.97904 0.04045 0.0
C390 C 0.20331 0.92853 0.08482 0.0
C391 C 0.2206 0.90462 0.09198 0.0
C392 C 0.31424 0.02461 0.95996 0.0
C393 C 0.25519 0.9703 0.01395 0.0
C394 C 0.33054 0.05798 0.92192 0.0
C395 C 0.30613 0.07089 0.89486 0.0
C396 C 0.27349 0.0047 0.97198 0.0
C397 C 0.2654 0.04956 0.90704 0.0
C398 C 0.22027 0.96107 0.04554 0.0
C399 C 0.25547 0.91471 0.05934 0.0
N400 N 0.25043 0.01774 0.94516 0.0
N401 N 0.27185 0.94705 0.02194 0.0
H402 H 0.27347 0.23575 0.66326 0.0
H403 H 0.24207 0.28641 0.32278 0.0
H404 H 0.34694 0.23601 0.51384 0.0
H405 H 0.22648 0.34643 0.4791 0.0
H406 H 0.27423 0.26068 0.39125 0.0
H407 H 0.24896 0.26951 0.59579 0.0
C408 C 0.28444 0.24296 0.61629 0.0
C409 C 0.31215 0.23301 0.59391 0.0
C410 C 0.26406 0.27976 0.41033 0.0
C411 C 0.28396 0.27099 0.51673 0.0
C412 C 0.24559 0.29427 0.37148 0.0
C413 C 0.23158 0.31847 0.3955 0.0
C414 C 0.26758 0.28869 0.47381 0.0
C415 C 0.23705 0.32798 0.45882 0.0
C416 C 0.27066 0.26239 0.57808 0.0
C417 C 0.32566 0.24328 0.53287 0.0
N418 N 0.25414 0.31256 0.4961 0.0
N419 N 0.31101 0.26127 0.49603 0.0
H420 H 0.91224 0.17599 0.88761 0.0
H421 H 0.07163 0.36498 0.07237 0.0
H422 H 0.89729 0.27735 0.91777 0.0
H423 H 0.05135 0.2474 0.1087 0.0
H424 H 0.01301 0.33636 0.00507 0.0
H425 H 0.96921 0.20497 0.95764 0.0
C426 C 0.92106 0.20444 0.90874 0.0
C427 C 0.9 0.22432 0.89682 0.0
C428 C 0.02138 0.31692 0.02809 0.0
C429 C 0.96527 0.25764 0.97669 0.0
C430 C 0.05485 0.33318 0.06624 0.0
C431 C 0.06639 0.30851 0.09613 0.0
C432 C -0.00016 0.27583 0.01885 0.0
C433 C 0.04344 0.26749 0.0868 0.0
C434 C 0.9534 0.22081 0.94898 0.0
C435 C 0.9126 0.26097 0.9259 0.0
N436 N 0.01147 0.25246 0.0485 0.0
N437 N 0.94466 0.27665 0.96421 0.0
H438 H 0.72106 0.92045 0.37654 0.0
H439 H 0.69347 0.08039 0.56287 0.0
H440 H 0.60408 0.90167 0.41319 0.0
H441 H 0.78864 0.05645 0.59859 0.0
H442 H 0.66229 0.02187 0.4947 0.0
H443 H 0.74886 0.9783 0.44409 0.0
C444 C 0.70119 0.92861 0.3986 0.0
C445 C 0.66015 0.90616 0.38935 0.0
C446 C 0.68992 0.02955 0.5178 0.0
C447 C 0.69197 0.97259 0.46648 0.0
C448 C 0.70779 0.06293 0.55629 0.0
C449 C 0.74367 0.07323 0.5864 0.0
C450 C 0.70863 0.00713 0.5085 0.0
C451 C 0.7609 0.0495 0.5766 0.0
C452 C 0.7171 0.96151 0.43738 0.0
C453 C 0.63586 0.91806 0.41947 0.0
N454 N 0.7434 0.0178 0.53811 0.0
N455 N 0.65218 0.95075 0.45656 0.0
loop_
_geom_bond_atom_site_label_1
_geom_bond_atom_site_label_2
_geom_bond_distance
_geom_bond_site_symmetry_2
_ccdc_geom_bond_type
Sc0 O3 2.025 . S
Sc0 O10 2.105 . S
Sc0 O13 2.105 . S
Sc0 O16 2.105 . S
Sc0 O19 2.105 . S
Sc1 O3 2.025 . S
Sc1 O11 2.105 . S
Sc1 O15 2.105 . S
Sc1 O17 2.105 . S
Sc1 O21 2.105 . S
Sc2 O3 2.025 . S
Sc2 O12 2.105 . S
Sc2 O14 2.105 . S
Sc2 O18 2.105 . S
Sc2 O20 2.105 . S
O3 Sc0 2.025 . S
O3 Sc1 2.025 . S
O3 Sc2 2.025 . S
C4 O10 1.268 . S
C4 O20 1.268 . S
C5 O11 1.268 . S
C5 O19 1.268 . S
C6 O12 1.268 . S
C6 O21 1.268 . S
C7 O13 1.268 . S
C7 O17 1.268 . S
C8 O14 1.268 . S
C8 O16 1.268 . S
C9 O15 1.268 . S
C9 O18 1.268 . S
O10 Sc0 2.105 . S
O10 C4 1.268 . S
O11 Sc1 2.105 . S
O11 C5 1.268 . S
O12 Sc2 2.105 . S
O12 C6 1.268 . S
O13 Sc0 2.105 . S
O13 C7 1.268 . S
O14 Sc2 2.105 . S
O14 C8 1.268 . S
O15 Sc1 2.105 . S
O15 C9 1.268 . S
O16 Sc0 2.105 . S
O16 C8 1.268 . S
O17 Sc1 2.105 . S
O17 C7 1.268 . S
O18 Sc2 2.105 . S
O18 C9 1.268 . S
O19 Sc0 2.105 . S
O19 C5 1.268 . S
O20 Sc2 2.105 . S
O20 C4 1.268 . S
O21 Sc1 2.105 . S
O21 C6 1.268 . S
Sc22 O25 2.025 . S
Sc22 O32 2.105 . S
Sc22 O35 2.105 . S
Sc22 O38 2.105 . S
Sc22 O41 2.105 . S
Sc23 O25 2.025 . S
Sc23 O33 2.105 . S
Sc23 O37 2.105 . S
Sc23 O39 2.105 . S
Sc23 O43 2.105 . S
Sc24 O25 2.025 . S
Sc24 O34 2.105 . S
Sc24 O36 2.105 . S
Sc24 O40 2.105 . S
Sc24 O42 2.105 . S
O25 Sc22 2.025 . S
O25 Sc23 2.025 . S
O25 Sc24 2.025 . S
C26 O32 1.268 . S
C26 O42 1.268 . S
C27 O33 1.268 . S
C27 O41 1.268 . S
C28 O34 1.268 . S
C28 O43 1.268 . S
C29 O35 1.268 . S
C29 O39 1.268 . S
C30 O36 1.268 . S
C30 O38 1.268 . S
C31 O37 1.268 . S
C31 O40 1.268 . S
O32 Sc22 2.105 . S
O32 C26 1.268 . S
O33 Sc23 2.105 . S
O33 C27 1.268 . S
O34 Sc24 2.105 . S
O34 C28 1.268 . S
O35 Sc22 2.105 . S
O35 C29 1.268 . S
O36 Sc24 2.105 . S
O36 C30 1.268 . S
O37 Sc23 2.105 . S
O37 C31 1.268 . S
O38 Sc22 2.105 . S
O38 C30 1.268 . S
O39 Sc23 2.105 . S
O39 C29 1.268 . S
O40 Sc24 2.105 . S
O40 C31 1.268 . S
O41 Sc22 2.105 . S
O41 C27 1.268 . S
O42 Sc24 2.105 . S
O42 C26 1.268 . S
O43 Sc23 2.105 . S
O43 C28 1.268 . S
Sc44 O47 2.025 . S
Sc44 O54 2.105 . S
Sc44 O57 2.105 . S
Sc44 O60 2.105 . S
Sc44 O63 2.105 . S
Sc45 O47 2.025 . S
Sc45 O55 2.105 . S
Sc45 O59 2.105 . S
Sc45 O61 2.105 . S
Sc45 O65 2.105 . S
Sc46 O47 2.025 . S
Sc46 O56 2.105 . S
Sc46 O58 2.105 . S
Sc46 O62 2.105 . S
Sc46 O64 2.105 . S
O47 Sc44 2.025 . S
O47 Sc45 2.025 . S
O47 Sc46 2.025 . S
C48 O54 1.268 . S
C48 O64 1.268 . S
C49 O55 1.268 . S
C49 O63 1.268 . S
C50 O56 1.268 . S
C50 O65 1.268 . S
C51 O57 1.268 . S
C51 O61 1.268 . S
C52 O58 1.268 . S
C52 O60 1.268 . S
C53 O59 1.268 . S
C53 O62 1.268 . S
O54 Sc44 2.105 . S
O54 C48 1.268 . S
O55 Sc45 2.105 . S
O55 C49 1.268 . S
O56 Sc46 2.105 . S
O56 C50 1.268 . S
O57 Sc44 2.105 . S
O57 C51 1.268 . S
O58 Sc46 2.105 . S
O58 C52 1.268 . S
O59 Sc45 2.105 . S
O59 C53 1.268 . S
O60 Sc44 2.105 . S
O60 C52 1.268 . S
O61 Sc45 2.105 . S
O61 C51 1.268 . S
O62 Sc46 2.105 . S
O62 C53 1.268 . S
O63 Sc44 2.105 . S
O63 C49 1.268 . S
O64 Sc46 2.105 . S
O64 C48 1.268 . S
O65 Sc45 2.105 . S
O65 C50 1.268 . S
Sc66 O69 2.025 . S
Sc66 O76 2.105 . S
Sc66 O79 2.105 . S
Sc66 O82 2.105 . S
Sc66 O85 2.105 . S
Sc67 O69 2.025 . S
Sc67 O77 2.105 . S
Sc67 O81 2.105 . S
Sc67 O83 2.105 . S
Sc67 O87 2.105 . S
Sc68 O69 2.025 . S
Sc68 O78 2.105 . S
Sc68 O80 2.105 . S
Sc68 O84 2.105 . S
Sc68 O86 2.105 . S
O69 Sc66 2.025 . S
O69 Sc67 2.025 . S
O69 Sc68 2.025 . S
C70 O76 1.268 . S
C70 O86 1.268 . S
C71 O77 1.268 . S
C71 O85 1.268 . S
C72 O78 1.268 . S
C72 O87 1.268 . S
C73 O79 1.268 . S
C73 O83 1.268 . S
C74 O80 1.268 . S
C74 O82 1.268 . S
C75 O81 1.268 . S
C75 O84 1.268 . S
O76 Sc66 2.105 . S
O76 C70 1.268 . S
O77 Sc67 2.105 . S
O77 C71 1.268 . S
O78 Sc68 2.105 . S
O78 C72 1.268 . S
O79 Sc66 2.105 . S
O79 C73 1.268 . S
O80 Sc68 2.105 . S
O80 C74 1.268 . S
O81 Sc67 2.105 . S
O81 C75 1.268 . S
O82 Sc66 2.105 . S
O82 C74 1.268 . S
O83 Sc67 2.105 . S
O83 C73 1.268 . S
O84 Sc68 2.105 . S
O84 C75 1.268 . S
O85 Sc66 2.105 . S
O85 C71 1.268 . S
O86 Sc68 2.105 . S
O86 C70 1.268 . S
O87 Sc67 2.105 . S
O87 C72 1.268 . S
Sc88 O91 2.025 . S
Sc88 O98 2.105 . S
Sc88 O101 2.105 . S
Sc88 O104 2.105 . S
Sc88 O107 2.105 . S
Sc89 O91 2.025 . S
Sc89 O99 2.105 . S
Sc89 O103 2.105 . S
Sc89 O105 2.105 . S
Sc89 O109 2.105 . S
Sc90 O91 2.025 . S
Sc90 O100 2.105 . S
Sc90 O102 2.105 . S
Sc90 O106 2.105 . S
Sc90 O108 2.105 . S
O91 Sc88 2.025 . S
O91 Sc89 2.025 . S
O91 Sc90 2.025 . S
C92 O98 1.268 . S
C92 O108 1.268 . S
C93 O99 1.268 . S
C93 O107 1.268 . S
C94 O100 1.268 . S
C94 O109 1.268 . S
C95 O101 1.268 . S
C95 O105 1.268 . S
C96 O102 1.268 . S
C96 O104 1.268 . S
C97 O103 1.268 . S
C97 O106 1.268 . S
O98 Sc88 2.105 . S
O98 C92 1.268 . S
O99 Sc89 2.105 . S
O99 C93 1.268 . S
O100 Sc90 2.105 . S
O100 C94 1.268 . S
O101 Sc88 2.105 . S
O101 C95 1.268 . S
O102 Sc90 2.105 . S
O102 C96 1.268 . S
O103 Sc89 2.105 . S
O103 C97 1.268 . S
O104 Sc88 2.105 . S
O104 C96 1.268 . S
O105 Sc89 2.105 . S
O105 C95 1.268 . S
O106 Sc90 2.105 . S
O106 C97 1.268 . S
O107 Sc88 2.105 . S
O107 C93 1.268 . S
O108 Sc90 2.105 . S
O108 C92 1.268 . S
O109 Sc89 2.105 . S
O109 C94 1.268 . S
Sc110 O113 2.025 . S
Sc110 O120 2.105 . S
Sc110 O123 2.105 . S
Sc110 O126 2.105 . S
Sc110 O129 2.105 . S
Sc111 O113 2.025 . S
Sc111 O121 2.105 . S
Sc111 O125 2.105 . S
Sc111 O127 2.105 . S
Sc111 O131 2.105 . S
Sc112 O113 2.025 . S
Sc112 O122 2.105 . S
Sc112 O124 2.105 . S
Sc112 O128 2.105 . S
Sc112 O130 2.105 . S
O113 Sc110 2.025 . S
O113 Sc111 2.025 . S
O113 Sc112 2.025 . S
C114 O120 1.268 . S
C114 O130 1.268 . S
C115 O121 1.268 . S
C115 O129 1.268 . S
C116 O122 1.268 . S
C116 O131 1.268 . S
C117 O123 1.268 . S
C117 O127 1.268 . S
C118 O124 1.268 . S
C118 O126 1.268 . S
C119 O125 1.268 . S
C119 O128 1.268 . S
O120 Sc110 2.105 . S
O120 C114 1.268 . S
O121 Sc111 2.105 . S
O121 C115 1.268 . S
O122 Sc112 2.105 . S
O122 C116 1.268 . S
O123 Sc110 2.105 . S
O123 C117 1.268 . S
O124 Sc112 2.105 . S
O124 C118 1.268 . S
O125 Sc111 2.105 . S
O125 C119 1.268 . S
O126 Sc110 2.105 . S
O126 C118 1.268 . S
O127 Sc111 2.105 . S
O127 C117 1.268 . S
O128 Sc112 2.105 . S
O128 C119 1.268 . S
O129 Sc110 2.105 . S
O129 C115 1.268 . S
O130 Sc112 2.105 . S
O130 C114 1.268 . S
O131 Sc111 2.105 . S
O131 C116 1.268 . S
H132 C138 0.930 . S
H133 C142 0.930 . S
H134 C147 0.929 . S
H135 C145 0.929 . S
H136 C140 0.929 . S
H137 C146 0.929 . S
C138 H132 0.930 . S
C138 C139 1.367 . S
C138 C146 1.378 . S
C139 C138 1.367 . S
C139 C147 1.433 . S
C140 H136 0.929 . S
C140 C142 1.378 . S
C140 C144 1.350 . S
C141 C144 1.463 . S
C141 C146 1.350 . S
C141 N149 1.427 . S
C142 H133 0.930 . S
C142 C140 1.378 . S
C142 C143 1.367 . S
C143 C142 1.367 . S
C143 C145 1.433 . S
C144 C140 1.350 . S
C144 C141 1.463 . S
C144 N148 1.427 . S
C145 H135 0.929 . S
C145 C143 1.433 . S
C145 N148 1.384 . S
C146 H137 0.929 . S
C146 C138 1.378 . S
C146 C141 1.350 . S
C147 H134 0.929 . S
C147 C139 1.433 . S
C147 N149 1.384 . S
N148 C144 1.427 . S
N148 C145 1.384 . S
N149 C141 1.427 . S
N149 C147 1.384 . S
H150 C156 0.930 . S
H151 C160 0.930 . S
H152 C165 0.929 . S
H153 C163 0.929 . S
H154 C158 0.929 . S
H155 C164 0.929 . S
C156 H150 0.930 . S
C156 C157 1.367 . S
C156 C164 1.378 . S
C157 C156 1.367 . S
C157 C165 1.433 . S
C158 H154 0.929 . S
C158 C160 1.378 . S
C158 C162 1.350 . S
C159 C162 1.463 . S
C159 C164 1.350 . S
C159 N167 1.427 . S
C160 H151 0.930 . S
C160 C158 1.378 . S
C160 C161 1.367 . S
C161 C160 1.367 . S
C161 C163 1.433 . S
C162 C158 1.350 . S
C162 C159 1.463 . S
C162 N166 1.427 . S
C163 H153 0.929 . S
C163 C161 1.433 . S
C163 N166 1.384 . S
C164 H155 0.929 . S
C164 C156 1.378 . S
C164 C159 1.350 . S
C165 H152 0.929 . S
C165 C157 1.433 . S
C165 N167 1.384 . S
N166 C162 1.427 . S
N166 C163 1.384 . S
N167 C159 1.427 . S
N167 C165 1.384 . S
H168 C174 0.930 . S
H169 C178 0.930 . S
H170 C183 0.929 . S
H171 C181 0.929 . S
H172 C176 0.929 . S
H173 C182 0.929 . S
C174 H168 0.930 . S
C174 C175 1.367 . S
C174 C182 1.378 . S
C175 C174 1.367 . S
C175 C183 1.433 . S
C176 H172 0.929 . S
C176 C178 1.378 . S
C176 C180 1.350 . S
C177 C180 1.463 . S
C177 C182 1.350 . S
C177 N185 1.427 . S
C178 H169 0.930 . S
C178 C176 1.378 . S
C178 C179 1.367 . S
C179 C178 1.367 . S
C179 C181 1.433 . S
C180 C176 1.350 . S
C180 C177 1.463 . S
C180 N184 1.427 . S
C181 H171 0.929 . S
C181 C179 1.433 . S
C181 N184 1.384 . S
C182 H173 0.929 . S
C182 C174 1.378 . S
C182 C177 1.350 . S
C183 H170 0.929 . S
C183 C175 1.433 . S
C183 N185 1.384 . S
N184 C180 1.427 . S
N184 C181 1.384 . S
N185 C177 1.427 . S
N185 C183 1.384 . S
H186 C192 0.930 . S
H187 C196 0.930 . S
H188 C201 0.929 . S
H189 C199 0.929 . S
H190 C194 0.929 . S
H191 C200 0.929 . S
C192 H186 0.930 . S
C192 C193 1.367 . S
C192 C200 1.378 . S
C193 C192 1.367 . S
C193 C201 1.433 . S
C194 H190 0.929 . S
C194 C196 1.378 . S
C194 C198 1.350 . S
C195 C198 1.463 . S
C195 C200 1.350 . S
C195 N203 1.427 . S
C196 H187 0.930 . S
C196 C194 1.378 . S
C196 C197 1.367 . S
C197 C196 1.367 . S
C197 C199 1.433 . S
C198 C194 1.350 . S
C198 C195 1.463 . S
C198 N202 1.427 . S
C199 H189 0.929 . S
C199 C197 1.433 . S
C199 N202 1.384 . S
C200 H191 0.929 . S
C200 C192 1.378 . S
C200 C195 1.350 . S
C201 H188 0.929 . S
C201 C193 1.433 . S
C201 N203 1.384 . S
N202 C198 1.427 . S
N202 C199 1.384 . S
N203 C195 1.427 . S
N203 C201 1.384 . S
H204 C210 0.930 . S
H205 C214 0.930 . S
H206 C219 0.929 . S
H207 C217 0.929 . S
H208 C212 0.929 . S
H209 C218 0.929 . S
C210 H204 0.930 . S
C210 C211 1.367 . S
C210 C218 1.378 . S
C211 C210 1.367 . S
C211 C219 1.433 . S
C212 H208 0.929 . S
C212 C214 1.378 . S
C212 C216 1.350 . S
C213 C216 1.463 . S
C213 C218 1.350 . S
C213 N221 1.427 . S
C214 H205 0.930 . S
C214 C212 1.378 . S
C214 C215 1.367 . S
C215 C214 1.367 . S
C215 C217 1.433 . S
C216 C212 1.350 . S
C216 C213 1.463 . S
C216 N220 1.427 . S
C217 H207 0.929 . S
C217 C215 1.433 . S
C217 N220 1.384 . S
C218 H209 0.929 . S
C218 C210 1.378 . S
C218 C213 1.350 . S
C219 H206 0.929 . S
C219 C211 1.433 . S
C219 N221 1.384 . S
N220 C216 1.427 . S
N220 C217 1.384 . S
N221 C213 1.427 . S
N221 C219 1.384 . S
H222 C228 0.930 . S
H223 C232 0.930 . S
H224 C237 0.929 . S
H225 C235 0.929 . S
H226 C230 0.929 . S
H227 C236 0.929 . S
C228 H222 0.930 . S
C228 C229 1.367 . S
C228 C236 1.378 . S
C229 C228 1.367 . S
C229 C237 1.433 . S
C230 H226 0.929 . S
C230 C232 1.378 . S
C230 C234 1.350 . S
C231 C234 1.463 . S
C231 C236 1.350 . S
C231 N239 1.427 . S
C232 H223 0.930 . S
C232 C230 1.378 . S
C232 C233 1.367 . S
C233 C232 1.367 . S
C233 C235 1.433 . S
C234 C230 1.350 . S
C234 C231 1.463 . S
C234 N238 1.427 . S
C235 H225 0.929 . S
C235 C233 1.433 . S
C235 N238 1.384 . S
C236 H227 0.929 . S
C236 C228 1.378 . S
C236 C231 1.350 . S
C237 H224 0.929 . S
C237 C229 1.433 . S
C237 N239 1.384 . S
N238 C234 1.427 . S
N238 C235 1.384 . S
N239 C231 1.427 . S
N239 C237 1.384 . S
H240 C246 0.930 . S
H241 C250 0.930 . S
H242 C255 0.929 . S
H243 C253 0.929 . S
H244 C248 0.929 . S
H245 C254 0.929 . S
C246 H240 0.930 . S
C246 C247 1.367 . S
C246 C254 1.378 1_556 S
C247 C246 1.367 . S
C247 C255 1.433 . S
C248 H244 0.929 . S
C248 C250 1.378 1_556 S
C248 C252 1.350 1_556 S
C249 C252 1.463 1_556 S
C249 C254 1.350 1_556 S
C249 N257 1.427 . S
C250 H241 0.930 . S
C250 C248 1.378 1_554 S
C250 C251 1.367 . S
C251 C250 1.367 . S
C251 C253 1.433 . S
C252 C248 1.350 1_554 S
C252 C249 1.463 1_554 S
C252 N256 1.427 . S
C253 H243 0.929 . S
C253 C251 1.433 . S
C253 N256 1.384 . S
C254 H245 0.929 . S
C254 C246 1.378 1_554 S
C254 C249 1.350 1_554 S
C255 H242 0.929 . S
C255 C247 1.433 . S
C255 N257 1.384 . S
N256 C252 1.427 . S
N256 C253 1.384 . S
N257 C249 1.427 . S
N257 C255 1.384 . S
H258 C264 0.930 . S
H259 C268 0.930 . S
H260 C273 0.929 . S
H261 C271 0.929 . S
H262 C266 0.929 . S
H263 C272 0.929 . S
C264 H258 0.930 . S
C264 C265 1.367 . S
C264 C272 1.378 . S
C265 C264 1.367 . S
C265 C273 1.433 . S
C266 H262 0.929 . S
C266 C268 1.378 . S
C266 C270 1.350 . S
C267 C270 1.463 1_655 S
C267 C272 1.350 . S
C267 N275 1.427 . S
C268 H259 0.930 . S
C268 C266 1.378 . S
C268 C269 1.367 . S
C269 C268 1.367 . S
C269 C271 1.433 . S
C270 C266 1.350 . S
C270 C267 1.463 1_455 S
C270 N274 1.427 . S
C271 H261 0.929 . S
C271 C269 1.433 . S
C271 N274 1.384 . S
C272 H263 0.929 . S
C272 C264 1.378 . S
C272 C267 1.350 . S
C273 H260 0.929 . S
C273 C265 1.433 . S
C273 N275 1.384 . S
N274 C270 1.427 . S
N274 C271 1.384 . S
N275 C267 1.427 . S
N275 C273 1.384 . S
H276 C282 0.930 . S
H277 C286 0.930 . S
H278 C291 0.929 . S
H279 C289 0.929 . S
H280 C284 0.929 1_545 S
H281 C290 0.929 1_565 S
C282 H276 0.930 . S
C282 C283 1.367 . S
C282 C290 1.378 . S
C283 C282 1.367 . S
C283 C291 1.433 . S
C284 H280 0.929 1_565 S
C284 C286 1.378 . S
C284 C288 1.350 . S
C285 C288 1.463 1_546 S
C285 C290 1.350 . S
C285 N293 1.428 1_556 S
C286 H277 0.930 . S
C286 C284 1.378 . S
C286 C287 1.367 . S
C287 C286 1.367 . S
C287 C289 1.433 . S
C288 C284 1.350 . S
C288 C285 1.463 1_564 S
C288 N292 1.428 1_554 S
C289 H279 0.929 . S
C289 C287 1.433 . S
C289 N292 1.384 1_554 S
C290 H281 0.929 1_545 S
C290 C282 1.378 . S
C290 C285 1.350 . S
C291 H278 0.929 . S
C291 C283 1.433 . S
C291 N293 1.384 1_556 S
N292 C288 1.428 1_556 S
N292 C289 1.384 1_556 S
N293 C285 1.428 1_554 S
N293 C291 1.384 1_554 S
H294 C300 0.930 . S
H295 C304 0.930 . S
H296 C309 0.929 . S
H297 C307 0.929 . S
H298 C302 0.929 . S
H299 C308 0.929 . S
C300 H294 0.930 . S
C300 C301 1.367 . S
C300 C308 1.378 . S
C301 C300 1.367 . S
C301 C309 1.433 . S
C302 H298 0.929 . S
C302 C304 1.378 . S
C302 C306 1.350 . S
C303 C306 1.463 . S
C303 C308 1.350 . S
C303 N311 1.427 . S
C304 H295 0.930 . S
C304 C302 1.378 . S
C304 C305 1.367 . S
C305 C304 1.367 . S
C305 C307 1.433 . S
C306 C302 1.350 . S
C306 C303 1.463 . S
C306 N310 1.427 . S
C307 H297 0.929 . S
C307 C305 1.433 . S
C307 N310 1.384 . S
C308 H299 0.929 . S
C308 C300 1.378 . S
C308 C303 1.350 . S
C309 H296 0.929 . S
C309 C301 1.433 . S
C309 N311 1.384 . S
N310 C306 1.427 . S
N310 C307 1.384 . S
N311 C303 1.427 . S
N311 C309 1.384 . S
H312 C318 0.930 . S
H313 C322 0.930 . S
H314 C327 0.929 . S
H315 C325 0.929 . S
H316 C320 0.929 . S
H317 C326 0.929 . S
C318 H312 0.930 . S
C318 C319 1.367 . S
C318 C326 1.378 . S
C319 C318 1.367 . S
C319 C327 1.433 . S
C320 H316 0.929 . S
C320 C322 1.378 . S
C320 C324 1.350 . S
C321 C324 1.463 1_656 S
C321 C326 1.350 . S
C321 N329 1.427 . S
C322 H313 0.930 . S
C322 C320 1.378 . S
C322 C323 1.367 . S
C323 C322 1.367 . S
C323 C325 1.433 . S
C324 C320 1.350 . S
C324 C321 1.463 1_454 S
C324 N328 1.427 . S
C325 H315 0.929 . S
C325 C323 1.433 . S
C325 N328 1.384 . S
C326 H317 0.929 . S
C326 C318 1.378 . S
C326 C321 1.350 . S
C327 H314 0.929 . S
C327 C319 1.433 . S
C327 N329 1.384 . S
N328 C324 1.427 . S
N328 C325 1.384 . S
N329 C321 1.427 . S
N329 C327 1.384 . S
H330 C336 0.930 . S
H331 C340 0.930 . S
H332 C345 0.929 . S
H333 C343 0.929 . S
H334 C338 0.929 1_545 S
H335 C344 0.929 1_565 S
C336 H330 0.930 . S
C336 C337 1.367 . S
C336 C344 1.378 . S
C337 C336 1.367 . S
C337 C345 1.433 . S
C338 H334 0.929 1_565 S
C338 C340 1.378 . S
C338 C342 1.350 . S
C339 C342 1.463 1_545 S
C339 C344 1.350 . S
C339 N347 1.427 . S
C340 H331 0.930 . S
C340 C338 1.378 . S
C340 C341 1.367 . S
C341 C340 1.367 . S
C341 C343 1.433 . S
C342 C338 1.350 . S
C342 C339 1.463 1_565 S
C342 N346 1.427 . S
C343 H333 0.929 . S
C343 C341 1.433 . S
C343 N346 1.384 . S
C344 H335 0.929 1_545 S
C344 C336 1.378 . S
C344 C339 1.350 . S
C345 H332 0.929 . S
C345 C337 1.433 . S
C345 N347 1.384 . S
N346 C342 1.427 . S
N346 C343 1.384 . S
N347 C339 1.427 . S
N347 C345 1.384 . S
H348 C354 0.930 . S
H349 C358 0.930 . S
H350 C363 0.929 . S
H351 C361 0.929 . S
H352 C356 0.929 1_554 S
H353 C362 0.929 1_556 S
C354 H348 0.930 . S
C354 C355 1.367 . S
C354 C362 1.378 . S
C355 C354 1.367 . S
C355 C363 1.433 . S
C356 H352 0.929 1_556 S
C356 C358 1.378 . S
C356 C360 1.350 . S
C357 C360 1.463 1_554 S
C357 C362 1.350 . S
C357 N365 1.427 . S
C358 H349 0.930 . S
C358 C356 1.378 . S
C358 C359 1.367 . S
C359 C358 1.367 . S
C359 C361 1.433 . S
C360 C356 1.350 . S
C360 C357 1.463 1_556 S
C360 N364 1.427 . S
C361 H351 0.929 . S
C361 C359 1.433 . S
C361 N364 1.384 . S
C362 H353 0.929 1_554 S
C362 C354 1.378 . S
C362 C357 1.350 . S
C363 H350 0.929 . S
C363 C355 1.433 . S
C363 N365 1.384 . S
N364 C360 1.427 . S
N364 C361 1.384 . S
N365 C357 1.427 . S
N365 C363 1.384 . S
H366 C372 0.930 . S
H367 C376 0.930 . S
H368 C381 0.929 . S
H369 C379 0.929 . S
H370 C374 0.929 1_655 S
H371 C380 0.929 1_455 S
C372 H366 0.930 . S
C372 C373 1.367 . S
C372 C380 1.378 . S
C373 C372 1.367 . S
C373 C381 1.433 . S
C374 H370 0.929 1_455 S
C374 C376 1.378 . S
C374 C378 1.350 . S
C375 C378 1.463 1_655 S
C375 C380 1.350 . S
C375 N383 1.427 . S
C376 H367 0.930 . S
C376 C374 1.378 . S
C376 C377 1.367 . S
C377 C376 1.367 . S
C377 C379 1.433 . S
C378 C374 1.350 . S
C378 C375 1.463 1_455 S
C378 N382 1.427 . S
C379 H369 0.929 . S
C379 C377 1.433 . S
C379 N382 1.384 . S
C380 H371 0.929 1_655 S
C380 C372 1.378 . S
C380 C375 1.350 . S
C381 H368 0.929 . S
C381 C373 1.433 . S
C381 N383 1.384 . S
N382 C378 1.427 . S
N382 C379 1.384 . S
N383 C375 1.427 . S
N383 C381 1.384 . S
H384 C390 0.930 . S
H385 C394 0.930 . S
H386 C399 0.929 . S
H387 C397 0.929 . S
H388 C392 0.929 . S
H389 C398 0.929 . S
C390 H384 0.930 . S
C390 C391 1.367 . S
C390 C398 1.378 . S
C391 C390 1.367 . S
C391 C399 1.433 . S
C392 H388 0.929 . S
C392 C394 1.378 . S
C392 C396 1.350 . S
C393 C396 1.463 1_564 S
C393 C398 1.350 . S
C393 N401 1.427 . S
C394 H385 0.930 . S
C394 C392 1.378 . S
C394 C395 1.367 . S
C395 C394 1.367 . S
C395 C397 1.433 . S
C396 C392 1.350 . S
C396 C393 1.463 1_546 S
C396 N400 1.427 . S
C397 H387 0.929 . S
C397 C395 1.433 . S
C397 N400 1.384 . S
C398 H389 0.929 . S
C398 C390 1.378 . S
C398 C393 1.350 . S
C399 H386 0.929 . S
C399 C391 1.433 . S
C399 N401 1.384 . S
N400 C396 1.427 . S
N400 C397 1.384 . S
N401 C393 1.427 . S
N401 C399 1.384 . S
H402 C408 0.930 . S
H403 C412 0.930 . S
H404 C417 0.929 . S
H405 C415 0.929 . S
H406 C410 0.929 . S
H407 C416 0.929 . S
C408 H402 0.930 . S
C408 C409 1.367 . S
C408 C416 1.378 . S
C409 C408 1.367 . S
C409 C417 1.433 . S
C410 H406 0.929 . S
C410 C412 1.378 . S
C410 C414 1.350 . S
C411 C414 1.463 . S
C411 C416 1.350 . S
C411 N419 1.427 . S
C412 H403 0.930 . S
C412 C410 1.378 . S
C412 C413 1.367 . S
C413 C412 1.367 . S
C413 C415 1.433 . S
C414 C410 1.350 . S
C414 C411 1.463 . S
C414 N418 1.427 . S
C415 H405 0.929 . S
C415 C413 1.433 . S
C415 N418 1.384 . S
C416 H407 0.929 . S
C416 C408 1.378 . S
C416 C411 1.350 . S
C417 H404 0.929 . S
C417 C409 1.433 . S
C417 N419 1.384 . S
N418 C414 1.427 . S
N418 C415 1.384 . S
N419 C411 1.427 . S
N419 C417 1.384 . S
H420 C426 0.930 . S
H421 C430 0.930 . S
H422 C435 0.929 . S
H423 C433 0.929 . S
H424 C428 0.929 . S
H425 C434 0.929 . S
C426 H420 0.930 . S
C426 C427 1.367 . S
C426 C434 1.378 . S
C427 C426 1.367 . S
C427 C435 1.433 . S
C428 H424 0.929 . S
C428 C430 1.378 . S
C428 C432 1.350 . S
C429 C432 1.463 1_656 S
C429 C434 1.350 . S
C429 N437 1.427 . S
C430 H421 0.930 . S
C430 C428 1.378 . S
C430 C431 1.367 . S
C431 C430 1.367 . S
C431 C433 1.433 . S
C432 C428 1.350 . S
C432 C429 1.463 1_454 S
C432 N436 1.427 . S
C433 H423 0.929 . S
C433 C431 1.433 . S
C433 N436 1.384 . S
C434 H425 0.929 . S
C434 C426 1.378 . S
C434 C429 1.350 . S
C435 H422 0.929 . S
C435 C427 1.433 . S
C435 N437 1.384 . S
N436 C432 1.427 . S
N436 C433 1.384 . S
N437 C429 1.427 . S
N437 C435 1.384 . S
H438 C444 0.930 . S
H439 C448 0.930 . S
H440 C453 0.929 . S
H441 C451 0.929 . S
H442 C446 0.929 . S
H443 C452 0.929 . S
C444 H438 0.930 . S
C444 C445 1.367 . S
C444 C452 1.378 . S
C445 C444 1.367 . S
C445 C453 1.433 . S
C446 H442 0.929 . S
C446 C448 1.378 . S
C446 C450 1.350 . S
C447 C450 1.463 1_565 S
C447 C452 1.350 . S
C447 N455 1.427 . S
C448 H439 0.930 . S
C448 C446 1.378 . S
C448 C449 1.367 . S
C449 C448 1.367 . S
C449 C451 1.433 . S
C450 C446 1.350 . S
C450 C447 1.463 1_545 S
C450 N454 1.427 . S
C451 H441 0.929 . S
C451 C449 1.433 . S
C451 N454 1.384 . S
C452 H443 0.929 . S
C452 C444 1.378 . S
C452 C447 1.350 . S
C453 H440 0.929 . S
C453 C445 1.433 . S
C453 N455 1.384 . S
N454 C450 1.427 . S
N454 C451 1.384 . S
N455 C447 1.427 . S
N455 C453 1.384 . S
C139 C5 1.339 . S
C143 C94 1.347 . S
C157 C28 1.337 . S
C161 C116 1.349 . S
C175 C7 1.336 . S
C179 C50 1.351 . S
C193 C72 1.344 . S
C197 C31 1.343 . S
C211 C53 1.350 . S
C215 C97 1.337 . S
C229 C75 1.349 . S
C233 C119 1.337 . S
C247 C117 1.554 . S
C251 C8 1.555 . S
C265 C29 1.561 . S
C269 C6 1.556 . S
C283 C26 1.559 . S
C287 C51 1.561 . S
C301 C48 1.554 . S
C305 C73 1.560 . S
C319 C70 1.559 . S
C323 C92 1.554 . S
C337 C114 1.559 . S
C341 C95 1.561 . S
C355 C49 1.553 . S
C359 C74 1.557 . S
C373 C71 1.560 . S
C377 C93 1.561 . S
C391 C96 1.554 . S
C395 C115 1.560 . S
C409 C118 1.559 . S
C413 C9 1.561 . S
C427 C30 1.556 . S
C431 C4 1.561 . S
C445 C52 1.556 . S
C449 C27 1.561 . S
