# Generated by pormake.
# Topology twf-e, (6)-cn, num edge types: 1
# Building blocks:
#     Node 0, Type 0, BuildingBlock: BETDEL_clean_sbu_0, # of connection points: 6
#     Node 1, Type 0, BuildingBlock: BETDEL_clean_sbu_0, # of connection points: 6
#     Node 2, Type 0, BuildingBlock: BETDEL_clean_sbu_0, # of connection points: 6
#     Node 3, Type 0, BuildingBlock: BETDEL_clean_sbu_0, # of connection points: 6
#     Node 4, Type 0, BuildingBlock: BETDEL_clean_sbu_0, # of connection points: 6
#     Node 5, Type 0, BuildingBlock: BETDEL_clean_sbu_0, # of connection points: 6
#     Node 6, Type 0, BuildingBlock: BETDEL_clean_sbu_0, # of connection points: 6
#     Node 7, Type 0, BuildingBlock: BETDEL_clean_sbu_0, # of connection points: 6
#     Node 8, Type 0, BuildingBlock: BETDEL_clean_sbu_0, # of connection points: 6
#     Node 9, Type 0, BuildingBlock: BETDEL_clean_sbu_0, # of connection points: 6
#     Node 10, Type 0, BuildingBlock: BETDEL_clean_sbu_0, # of connection points: 6
#     Node 11, Type 0, BuildingBlock: BETDEL_clean_sbu_0, # of connection points: 6
#     Node 12, Type 0, BuildingBlock: BETDEL_clean_sbu_0, # of connection points: 6
#     Node 13, Type 0, BuildingBlock: BETDEL_clean_sbu_0, # of connection points: 6
#     Node 14, Type 0, BuildingBlock: BETDEL_clean_sbu_0, # of connection points: 6
#     Node 15, Type 0, BuildingBlock: BETDEL_clean_sbu_0, # of connection points: 6
#     Node 16, Type 0, BuildingBlock: BETDEL_clean_sbu_0, # of connection points: 6
#     Node 17, Type 0, BuildingBlock: BETDEL_clean_sbu_0, # of connection points: 6
#     Node 18, Type 0, BuildingBlock: BETDEL_clean_sbu_0, # of connection points: 6
#     Node 19, Type 0, BuildingBlock: BETDEL_clean_sbu_0, # of connection points: 6
#     Node 20, Type 0, BuildingBlock: BETDEL_clean_sbu_0, # of connection points: 6
#     Node 21, Type 0, BuildingBlock: BETDEL_clean_sbu_0, # of connection points: 6
#     Node 22, Type 0, BuildingBlock: BETDEL_clean_sbu_0, # of connection points: 6
#     Node 23, Type 0, BuildingBlock: BETDEL_clean_sbu_0, # of connection points: 6
#     Node 24, Type 0, BuildingBlock: BETDEL_clean_sbu_0, # of connection points: 6
#     Node 25, Type 0, BuildingBlock: BETDEL_clean_sbu_0, # of connection points: 6
#     Node 26, Type 0, BuildingBlock: BETDEL_clean_sbu_0, # of connection points: 6
#     Node 27, Type 0, BuildingBlock: BETDEL_clean_sbu_0, # of connection points: 6
#     Node 28, Type 0, BuildingBlock: BETDEL_clean_sbu_0, # of connection points: 6
#     Node 29, Type 0, BuildingBlock: BETDEL_clean_sbu_0, # of connection points: 6
#     Node 30, Type 0, BuildingBlock: BETDEL_clean_sbu_0, # of connection points: 6
#     Node 31, Type 0, BuildingBlock: BETDEL_clean_sbu_0, # of connection points: 6
#     Node 32, Type 0, BuildingBlock: BETDEL_clean_sbu_0, # of connection points: 6
#     Node 33, Type 0, BuildingBlock: BETDEL_clean_sbu_0, # of connection points: 6
#     Node 34, Type 0, BuildingBlock: BETDEL_clean_sbu_0, # of connection points: 6
#     Node 35, Type 0, BuildingBlock: BETDEL_clean_sbu_0, # of connection points: 6
#     Node 36, Type 0, BuildingBlock: BETDEL_clean_sbu_0, # of connection points: 6
#     Node 37, Type 0, BuildingBlock: BETDEL_clean_sbu_0, # of connection points: 6
#     Node 38, Type 0, BuildingBlock: BETDEL_clean_sbu_0, # of connection points: 6
#     Node 39, Type 0, BuildingBlock: BETDEL_clean_sbu_0, # of connection points: 6
#     Node 40, Type 0, BuildingBlock: BETDEL_clean_sbu_0, # of connection points: 6
#     Node 41, Type 0, BuildingBlock: BETDEL_clean_sbu_0, # of connection points: 6
#     Node 42, Type 0, BuildingBlock: BETDEL_clean_sbu_0, # of connection points: 6
#     Node 43, Type 0, BuildingBlock: BETDEL_clean_sbu_0, # of connection points: 6
#     Node 44, Type 0, BuildingBlock: BETDEL_clean_sbu_0, # of connection points: 6
#     Node 45, Type 0, BuildingBlock: BETDEL_clean_sbu_0, # of connection points: 6
#     Node 46, Type 0, BuildingBlock: BETDEL_clean_sbu_0, # of connection points: 6
#     Node 47, Type 0, BuildingBlock: BETDEL_clean_sbu_0, # of connection points: 6
#     Edge 48, Type (0, 0), BuildingBlock: XIVTED_clean_linker_0, # of connection points: 2
#     Edge 49, Type (0, 0), BuildingBlock: XIVTED_clean_linker_0, # of connection points: 2
#     Edge 50, Type (0, 0), BuildingBlock: XIVTED_clean_linker_0, # of connection points: 2
#     Edge 51, Type (0, 0), BuildingBlock: XIVTED_clean_linker_0, # of connection points: 2
#     Edge 52, Type (0, 0), BuildingBlock: XIVTED_clean_linker_0, # of connection points: 2
#     Edge 53, Type (0, 0), BuildingBlock: XIVTED_clean_linker_0, # of connection points: 2
#     Edge 54, Type (0, 0), BuildingBlock: XIVTED_clean_linker_0, # of connection points: 2
#     Edge 55, Type (0, 0), BuildingBlock: XIVTED_clean_linker_0, # of connection points: 2
#     Edge 56, Type (0, 0), BuildingBlock: XIVTED_clean_linker_0, # of connection points: 2
#     Edge 57, Type (0, 0), BuildingBlock: XIVTED_clean_linker_0, # of connection points: 2
#     Edge 58, Type (0, 0), BuildingBlock: XIVTED_clean_linker_0, # of connection points: 2
#     Edge 59, Type (0, 0), BuildingBlock: XIVTED_clean_linker_0, # of connection points: 2
#     Edge 60, Type (0, 0), BuildingBlock: XIVTED_clean_linker_0, # of connection points: 2
#     Edge 61, Type (0, 0), BuildingBlock: XIVTED_clean_linker_0, # of connection points: 2
#     Edge 62, Type (0, 0), BuildingBlock: XIVTED_clean_linker_0, # of connection points: 2
#     Edge 63, Type (0, 0), BuildingBlock: XIVTED_clean_linker_0, # of connection points: 2
#     Edge 64, Type (0, 0), BuildingBlock: XIVTED_clean_linker_0, # of connection points: 2
#     Edge 65, Type (0, 0), BuildingBlock: XIVTED_clean_linker_0, # of connection points: 2
#     Edge 66, Type (0, 0), BuildingBlock: XIVTED_clean_linker_0, # of connection points: 2
#     Edge 67, Type (0, 0), BuildingBlock: XIVTED_clean_linker_0, # of connection points: 2
#     Edge 68, Type (0, 0), BuildingBlock: XIVTED_clean_linker_0, # of connection points: 2
#     Edge 69, Type (0, 0), BuildingBlock: XIVTED_clean_linker_0, # of connection points: 2
#     Edge 70, Type (0, 0), BuildingBlock: XIVTED_clean_linker_0, # of connection points: 2
#     Edge 71, Type (0, 0), BuildingBlock: XIVTED_clean_linker_0, # of connection points: 2
#     Edge 72, Type (0, 0), BuildingBlock: XIVTED_clean_linker_0, # of connection points: 2
#     Edge 73, Type (0, 0), BuildingBlock: XIVTED_clean_linker_0, # of connection points: 2
#     Edge 74, Type (0, 0), BuildingBlock: XIVTED_clean_linker_0, # of connection points: 2
#     Edge 75, Type (0, 0), BuildingBlock: XIVTED_clean_linker_0, # of connection points: 2
#     Edge 76, Type (0, 0), BuildingBlock: XIVTED_clean_linker_0, # of connection points: 2
#     Edge 77, Type (0, 0), BuildingBlock: XIVTED_clean_linker_0, # of connection points: 2
#     Edge 78, Type (0, 0), BuildingBlock: XIVTED_clean_linker_0, # of connection points: 2
#     Edge 79, Type (0, 0), BuildingBlock: XIVTED_clean_linker_0, # of connection points: 2
#     Edge 80, Type (0, 0), BuildingBlock: XIVTED_clean_linker_0, # of connection points: 2
#     Edge 81, Type (0, 0), BuildingBlock: XIVTED_clean_linker_0, # of connection points: 2
#     Edge 82, Type (0, 0), BuildingBlock: XIVTED_clean_linker_0, # of connection points: 2
#     Edge 83, Type (0, 0), BuildingBlock: XIVTED_clean_linker_0, # of connection points: 2
#     Edge 84, Type (0, 0), BuildingBlock: XIVTED_clean_linker_0, # of connection points: 2
#     Edge 85, Type (0, 0), BuildingBlock: XIVTED_clean_linker_0, # of connection points: 2
#     Edge 86, Type (0, 0), BuildingBlock: XIVTED_clean_linker_0, # of connection points: 2
#     Edge 87, Type (0, 0), BuildingBlock: XIVTED_clean_linker_0, # of connection points: 2
#     Edge 88, Type (0, 0), BuildingBlock: XIVTED_clean_linker_0, # of connection points: 2
#     Edge 89, Type (0, 0), BuildingBlock: XIVTED_clean_linker_0, # of connection points: 2
#     Edge 90, Type (0, 0), BuildingBlock: XIVTED_clean_linker_0, # of connection points: 2
#     Edge 91, Type (0, 0), BuildingBlock: XIVTED_clean_linker_0, # of connection points: 2
#     Edge 92, Type (0, 0), BuildingBlock: XIVTED_clean_linker_0, # of connection points: 2
#     Edge 93, Type (0, 0), BuildingBlock: XIVTED_clean_linker_0, # of connection points: 2
#     Edge 94, Type (0, 0), BuildingBlock: XIVTED_clean_linker_0, # of connection points: 2
#     Edge 95, Type (0, 0), BuildingBlock: XIVTED_clean_linker_0, # of connection points: 2
#     Edge 96, Type (0, 0), BuildingBlock: XIVTED_clean_linker_0, # of connection points: 2
#     Edge 97, Type (0, 0), BuildingBlock: XIVTED_clean_linker_0, # of connection points: 2
#     Edge 98, Type (0, 0), BuildingBlock: XIVTED_clean_linker_0, # of connection points: 2
#     Edge 99, Type (0, 0), BuildingBlock: XIVTED_clean_linker_0, # of connection points: 2
#     Edge 100, Type (0, 0), BuildingBlock: XIVTED_clean_linker_0, # of connection points: 2
#     Edge 101, Type (0, 0), BuildingBlock: XIVTED_clean_linker_0, # of connection points: 2
#     Edge 102, Type (0, 0), BuildingBlock: XIVTED_clean_linker_0, # of connection points: 2
#     Edge 103, Type (0, 0), BuildingBlock: XIVTED_clean_linker_0, # of connection points: 2
#     Edge 104, Type (0, 0), BuildingBlock: XIVTED_clean_linker_0, # of connection points: 2
#     Edge 105, Type (0, 0), BuildingBlock: XIVTED_clean_linker_0, # of connection points: 2
#     Edge 106, Type (0, 0), BuildingBlock: XIVTED_clean_linker_0, # of connection points: 2
#     Edge 107, Type (0, 0), BuildingBlock: XIVTED_clean_linker_0, # of connection points: 2
#     Edge 108, Type (0, 0), BuildingBlock: XIVTED_clean_linker_0, # of connection points: 2
#     Edge 109, Type (0, 0), BuildingBlock: XIVTED_clean_linker_0, # of connection points: 2
#     Edge 110, Type (0, 0), BuildingBlock: XIVTED_clean_linker_0, # of connection points: 2
#     Edge 111, Type (0, 0), BuildingBlock: XIVTED_clean_linker_0, # of connection points: 2
#     Edge 112, Type (0, 0), BuildingBlock: XIVTED_clean_linker_0, # of connection points: 2
#     Edge 113, Type (0, 0), BuildingBlock: XIVTED_clean_linker_0, # of connection points: 2
#     Edge 114, Type (0, 0), BuildingBlock: XIVTED_clean_linker_0, # of connection points: 2
#     Edge 115, Type (0, 0), BuildingBlock: XIVTED_clean_linker_0, # of connection points: 2
#     Edge 116, Type (0, 0), BuildingBlock: XIVTED_clean_linker_0, # of connection points: 2
#     Edge 117, Type (0, 0), BuildingBlock: XIVTED_clean_linker_0, # of connection points: 2
#     Edge 118, Type (0, 0), BuildingBlock: XIVTED_clean_linker_0, # of connection points: 2
#     Edge 119, Type (0, 0), BuildingBlock: XIVTED_clean_linker_0, # of connection points: 2
#     Edge 120, Type (0, 0), BuildingBlock: XIVTED_clean_linker_0, # of connection points: 2
#     Edge 121, Type (0, 0), BuildingBlock: XIVTED_clean_linker_0, # of connection points: 2
#     Edge 122, Type (0, 0), BuildingBlock: XIVTED_clean_linker_0, # of connection points: 2
#     Edge 123, Type (0, 0), BuildingBlock: XIVTED_clean_linker_0, # of connection points: 2
#     Edge 124, Type (0, 0), BuildingBlock: XIVTED_clean_linker_0, # of connection points: 2
#     Edge 125, Type (0, 0), BuildingBlock: XIVTED_clean_linker_0, # of connection points: 2
#     Edge 126, Type (0, 0), BuildingBlock: XIVTED_clean_linker_0, # of connection points: 2
#     Edge 127, Type (0, 0), BuildingBlock: XIVTED_clean_linker_0, # of connection points: 2
#     Edge 128, Type (0, 0), BuildingBlock: XIVTED_clean_linker_0, # of connection points: 2
#     Edge 129, Type (0, 0), BuildingBlock: XIVTED_clean_linker_0, # of connection points: 2
#     Edge 130, Type (0, 0), BuildingBlock: XIVTED_clean_linker_0, # of connection points: 2
#     Edge 131, Type (0, 0), BuildingBlock: XIVTED_clean_linker_0, # of connection points: 2
#     Edge 132, Type (0, 0), BuildingBlock: XIVTED_clean_linker_0, # of connection points: 2
#     Edge 133, Type (0, 0), BuildingBlock: XIVTED_clean_linker_0, # of connection points: 2
#     Edge 134, Type (0, 0), BuildingBlock: XIVTED_clean_linker_0, # of connection points: 2
#     Edge 135, Type (0, 0), BuildingBlock: XIVTED_clean_linker_0, # of connection points: 2
#     Edge 136, Type (0, 0), BuildingBlock: XIVTED_clean_linker_0, # of connection points: 2
#     Edge 137, Type (0, 0), BuildingBlock: XIVTED_clean_linker_0, # of connection points: 2
#     Edge 138, Type (0, 0), BuildingBlock: XIVTED_clean_linker_0, # of connection points: 2
#     Edge 139, Type (0, 0), BuildingBlock: XIVTED_clean_linker_0, # of connection points: 2
#     Edge 140, Type (0, 0), BuildingBlock: XIVTED_clean_linker_0, # of connection points: 2
#     Edge 141, Type (0, 0), BuildingBlock: XIVTED_clean_linker_0, # of connection points: 2
#     Edge 142, Type (0, 0), BuildingBlock: XIVTED_clean_linker_0, # of connection points: 2
#     Edge 143, Type (0, 0), BuildingBlock: XIVTED_clean_linker_0, # of connection points: 2
#     Edge 144, Type (0, 0), BuildingBlock: XIVTED_clean_linker_0, # of connection points: 2
#     Edge 145, Type (0, 0), BuildingBlock: XIVTED_clean_linker_0, # of connection points: 2
#     Edge 146, Type (0, 0), BuildingBlock: XIVTED_clean_linker_0, # of connection points: 2
#     Edge 147, Type (0, 0), BuildingBlock: XIVTED_clean_linker_0, # of connection points: 2
#     Edge 148, Type (0, 0), BuildingBlock: XIVTED_clean_linker_0, # of connection points: 2
#     Edge 149, Type (0, 0), BuildingBlock: XIVTED_clean_linker_0, # of connection points: 2
#     Edge 150, Type (0, 0), BuildingBlock: XIVTED_clean_linker_0, # of connection points: 2
#     Edge 151, Type (0, 0), BuildingBlock: XIVTED_clean_linker_0, # of connection points: 2
#     Edge 152, Type (0, 0), BuildingBlock: XIVTED_clean_linker_0, # of connection points: 2
#     Edge 153, Type (0, 0), BuildingBlock: XIVTED_clean_linker_0, # of connection points: 2
#     Edge 154, Type (0, 0), BuildingBlock: XIVTED_clean_linker_0, # of connection points: 2
#     Edge 155, Type (0, 0), BuildingBlock: XIVTED_clean_linker_0, # of connection points: 2
#     Edge 156, Type (0, 0), BuildingBlock: XIVTED_clean_linker_0, # of connection points: 2
#     Edge 157, Type (0, 0), BuildingBlock: XIVTED_clean_linker_0, # of connection points: 2
#     Edge 158, Type (0, 0), BuildingBlock: XIVTED_clean_linker_0, # of connection points: 2
#     Edge 159, Type (0, 0), BuildingBlock: XIVTED_clean_linker_0, # of connection points: 2
#     Edge 160, Type (0, 0), BuildingBlock: XIVTED_clean_linker_0, # of connection points: 2
#     Edge 161, Type (0, 0), BuildingBlock: XIVTED_clean_linker_0, # of connection points: 2
#     Edge 162, Type (0, 0), BuildingBlock: XIVTED_clean_linker_0, # of connection points: 2
#     Edge 163, Type (0, 0), BuildingBlock: XIVTED_clean_linker_0, # of connection points: 2
#     Edge 164, Type (0, 0), BuildingBlock: XIVTED_clean_linker_0, # of connection points: 2
#     Edge 165, Type (0, 0), BuildingBlock: XIVTED_clean_linker_0, # of connection points: 2
#     Edge 166, Type (0, 0), BuildingBlock: XIVTED_clean_linker_0, # of connection points: 2
#     Edge 167, Type (0, 0), BuildingBlock: XIVTED_clean_linker_0, # of connection points: 2
#     Edge 168, Type (0, 0), BuildingBlock: XIVTED_clean_linker_0, # of connection points: 2
#     Edge 169, Type (0, 0), BuildingBlock: XIVTED_clean_linker_0, # of connection points: 2
#     Edge 170, Type (0, 0), BuildingBlock: XIVTED_clean_linker_0, # of connection points: 2
#     Edge 171, Type (0, 0), BuildingBlock: XIVTED_clean_linker_0, # of connection points: 2
#     Edge 172, Type (0, 0), BuildingBlock: XIVTED_clean_linker_0, # of connection points: 2
#     Edge 173, Type (0, 0), BuildingBlock: XIVTED_clean_linker_0, # of connection points: 2
#     Edge 174, Type (0, 0), BuildingBlock: XIVTED_clean_linker_0, # of connection points: 2
#     Edge 175, Type (0, 0), BuildingBlock: XIVTED_clean_linker_0, # of connection points: 2
#     Edge 176, Type (0, 0), BuildingBlock: XIVTED_clean_linker_0, # of connection points: 2
#     Edge 177, Type (0, 0), BuildingBlock: XIVTED_clean_linker_0, # of connection points: 2
#     Edge 178, Type (0, 0), BuildingBlock: XIVTED_clean_linker_0, # of connection points: 2
#     Edge 179, Type (0, 0), BuildingBlock: XIVTED_clean_linker_0, # of connection points: 2
#     Edge 180, Type (0, 0), BuildingBlock: XIVTED_clean_linker_0, # of connection points: 2
#     Edge 181, Type (0, 0), BuildingBlock: XIVTED_clean_linker_0, # of connection points: 2
#     Edge 182, Type (0, 0), BuildingBlock: XIVTED_clean_linker_0, # of connection points: 2
#     Edge 183, Type (0, 0), BuildingBlock: XIVTED_clean_linker_0, # of connection points: 2
#     Edge 184, Type (0, 0), BuildingBlock: XIVTED_clean_linker_0, # of connection points: 2
#     Edge 185, Type (0, 0), BuildingBlock: XIVTED_clean_linker_0, # of connection points: 2
#     Edge 186, Type (0, 0), BuildingBlock: XIVTED_clean_linker_0, # of connection points: 2
#     Edge 187, Type (0, 0), BuildingBlock: XIVTED_clean_linker_0, # of connection points: 2
#     Edge 188, Type (0, 0), BuildingBlock: XIVTED_clean_linker_0, # of connection points: 2
#     Edge 189, Type (0, 0), BuildingBlock: XIVTED_clean_linker_0, # of connection points: 2
#     Edge 190, Type (0, 0), BuildingBlock: XIVTED_clean_linker_0, # of connection points: 2
#     Edge 191, Type (0, 0), BuildingBlock: XIVTED_clean_linker_0, # of connection points: 2
# Relax obj value: 0.613
# Max RMSD: 0.222
# Mean RMSD: 0.211
data_MOF--net-twf-e--node1-BETDEL_clean_sbu_0--edge1-XIVTED_clean_linker_0
_symmetry_space_group_name_H-M    P1
_symmetry_Int_Tables_number       1
_symmetry_cell_setting            triclinic
loop_
_symmetry_equiv_pos_as_xyz
'x, y, z'
_cell_length_a     59.978274
_cell_length_b     59.968424
_cell_length_c     59.97043
_cell_angle_alpha  89.100221
_cell_angle_beta   89.983311
_cell_angle_gamma 90.332295
loop_
_atom_site_label
_atom_site_type_symbol
_atom_site_fract_x
_atom_site_fract_y
_atom_site_fract_z
_atom_type_partial_charge
Dy0 Dy 0.98491 0.24043 0.36614 0.0
C1 C 0.04436 0.30321 0.38224 0.0
C2 C 0.95416 0.20653 0.36099 0.0
Dy3 Dy 0.01529 0.27056 0.36907 0.0
O4 O 0.95072 0.22535 0.37052 0.0
O5 O 0.97448 0.20624 0.35357 0.0
O6 O 0.97218 0.24646 0.40094 0.0
O7 O 1.00643 0.24683 0.39661 0.0
C8 C 0.99094 0.2489 0.41108 0.0
C9 C 1.00753 0.2683 0.32433 0.0
O10 O 0.03783 0.24133 0.37441 0.0
O11 O 0.0137 0.21824 0.35722 0.0
O12 O 0.04697 0.29023 0.36545 0.0
O13 O 0.02502 0.299 0.391 0.0
O14 O 0.0269 0.26909 0.3337 0.0
O15 O 0.9927 0.26631 0.33952 0.0
O16 O 0.9636 0.26886 0.35533 0.0
O17 O 0.98531 0.29153 0.37569 0.0
C18 C 0.03376 0.22199 0.36522 0.0
C19 C 0.96601 0.28768 0.36601 0.0
Dy20 Dy 0.8286 0.03022 0.38886 0.0
C21 C 0.76283 0.08906 0.38217 0.0
C22 C 0.86326 0.99994 0.38543 0.0
Dy23 Dy 0.79811 0.06024 0.38675 0.0
O24 O 0.86106 0.01791 0.37328 0.0
O25 O 0.84659 0.99866 0.39906 0.0
O26 O 0.82224 0.0221 0.42506 0.0
O27 O 0.82085 0.05566 0.41582 0.0
C28 C 0.81875 0.04195 0.43222 0.0
C29 C 0.80438 0.04655 0.34433 0.0
O30 O 0.82603 0.08386 0.39329 0.0
O31 O 0.84981 0.0595 0.37769 0.0
O32 O 0.78208 0.09115 0.37284 0.0
O33 O 0.76333 0.07173 0.39542 0.0
O34 O 0.80757 0.06649 0.35118 0.0
O35 O 0.80297 0.03385 0.36151 0.0
O36 O 0.79996 1.00739 0.38382 0.0
O37 O 0.77889 0.03178 0.40246 0.0
C38 C 0.84551 0.0799 0.38419 0.0
C39 C 0.78246 1.01114 0.39627 0.0
Dy40 Dy 0.03372 0.86243 0.39043 0.0
C41 C 0.96919 0.80441 0.39134 0.0
C42 C 0.06566 0.89398 0.37947 0.0
Dy43 Dy 1.00194 0.83599 0.39158 0.0
O44 O 0.0674 0.87856 0.39461 0.0
O45 O 0.0465 0.89199 0.36971 0.0
O46 O 0.0438 0.86221 0.42613 0.0
O47 O 1.00947 0.85936 0.41954 0.0
C48 C 0.02437 0.85922 0.43493 0.0
C49 C 0.01696 0.83518 0.34859 0.0
O50 O 0.9798 0.86498 0.39608 0.0
O51 O 1.00626 0.88694 0.38064 0.0
O52 O 0.96613 0.82559 0.38915 0.0
O53 O 0.99004 0.80055 0.39534 0.0
O54 O 0.99721 0.84078 0.35465 0.0
O55 O 0.02909 0.83491 0.36598 0.0
O56 O 0.05374 0.83133 0.3952 0.0
O57 O 0.02438 0.81576 0.41317 0.0
C58 C 0.98548 0.88428 0.38736 0.0
C59 C 0.04589 0.81615 0.40925 0.0
Dy60 Dy 0.18805 0.07469 0.38021 0.0
C61 C 0.24917 0.01565 0.41074 0.0
C62 C 0.15502 0.10532 0.36952 0.0
Dy63 Dy 0.21889 0.04266 0.39009 0.0
O64 O 0.17426 0.10968 0.37819 0.0
O65 O 0.15386 0.084 0.36604 0.0
O66 O 0.19363 0.08969 0.41433 0.0
O67 O 0.19308 0.05543 0.41233 0.0
C68 C 0.19559 0.0714 0.42571 0.0
C69 C 0.21768 0.0443 0.34498 0.0
O70 O 0.18853 0.02173 0.39421 0.0
O71 O 0.16723 0.04442 0.37222 0.0
O72 O 0.24061 1.01232 0.39129 0.0
O73 O 0.24161 0.03408 0.41874 0.0
O74 O 0.21796 0.02626 0.35715 0.0
O75 O 0.21493 0.0611 0.35761 0.0
O76 O 0.21758 0.09402 0.36796 0.0
O77 O 0.2412 0.07286 0.3893 0.0
C78 C 0.1704 0.025 0.38234 0.0
C79 C 0.23734 0.09086 0.37695 0.0
Dy80 Dy 1.00515 0.87666 0.64984 0.0
C81 C 0.07336 0.82068 0.64756 0.0
C82 C 0.97079 0.90573 0.65643 0.0
Dy83 Dy 0.0379 0.84831 0.64945 0.0
O84 O 0.9711 0.88995 0.64204 0.0
O85 O 0.98952 0.90602 0.66724 0.0
O86 O 0.99318 0.86797 0.61554 0.0
O87 O 0.02753 0.86945 0.62054 0.0
C88 C 1.01236 0.86549 0.60618 0.0
C89 C 0.02736 0.85187 0.69325 0.0
O90 O 0.05977 0.87842 0.64879 0.0
O91 O 0.03176 0.9023 0.6566 0.0
O92 O 0.07038 0.83803 0.6349 0.0
O93 O 0.05554 0.81676 0.65908 0.0
O94 O 0.04713 0.85447 0.68505 0.0
O95 O 0.01359 0.85236 0.67717 0.0
O96 O 0.98752 0.84601 0.66074 0.0
O97 O 1.01055 0.82431 0.64062 0.0
C98 C 0.05313 0.89853 0.65364 0.0
C99 C 0.99145 0.8269 0.65114 0.0
Dy100 Dy 0.19375 0.05771 0.64281 0.0
C101 C 0.20388 0.1399 0.62412 0.0
C102 C 0.16917 0.02047 0.65572 0.0
Dy103 Dy 0.20912 0.09661 0.63813 0.0
O104 O 0.18707 0.02037 0.64364 0.0
O105 O 0.16531 0.04077 0.66149 0.0
O106 O 0.20176 0.04569 0.60838 0.0
O107 O 0.19081 0.07853 0.6115 0.0
C108 C 0.19764 0.06408 0.59767 0.0
C109 C 0.22994 0.08419 0.67564 0.0
O110 O 0.18144 0.10461 0.6608 0.0
O111 O 0.1621 0.07765 0.64447 0.0
O112 O 0.22197 0.13171 0.63291 0.0
O113 O 0.18938 0.12411 0.62199 0.0
O114 O 0.23786 0.09785 0.6605 0.0
O115 O 0.20992 0.07731 0.67079 0.0
O116 O 0.22972 0.05015 0.64555 0.0
O117 O 0.23649 0.07844 0.62101 0.0
C118 C 0.16212 0.09614 0.65579 0.0
C119 C 0.24316 0.06006 0.63117 0.0
Dy120 Dy 1.00795 0.23777 0.62784 0.0
C121 C 0.93449 0.29006 0.63169 0.0
C122 C 0.0409 0.20737 0.63612 0.0
Dy123 Dy 0.9722 0.26369 0.62921 0.0
O124 O 0.04393 0.22676 0.62665 0.0
O125 O 0.02007 0.20472 0.64109 0.0
O126 O 0.01775 0.24563 0.59288 0.0
O127 O 0.98334 0.24363 0.59943 0.0
C128 C 0.99814 0.24777 0.58421 0.0
C129 C 0.9874 0.25797 0.67201 0.0
O130 O 0.95344 0.2312 0.63156 0.0
O131 O 0.98453 0.21087 0.63876 0.0
O132 O 0.95131 0.29035 0.64512 0.0
O133 O 0.94015 0.27745 0.61526 0.0
O134 O 0.96707 0.25493 0.66565 0.0
O135 O 0.99909 0.26094 0.65467 0.0
O136 O 0.0222 0.27002 0.63851 0.0
O137 O 0.99825 0.28784 0.61576 0.0
C138 C 0.96286 0.21221 0.6373 0.0
C139 C 0.01779 0.28747 0.62583 0.0
Dy140 Dy 0.81262 0.08653 0.64957 0.0
C141 C 0.84607 0.01383 0.66097 0.0
C142 C 0.8275 0.1295 0.6464 0.0
Dy143 Dy 0.82334 0.05149 0.64809 0.0
O144 O 0.83603 0.11269 0.63651 0.0
O145 O 0.80869 0.12365 0.65564 0.0
O146 O 0.78287 0.0891 0.6706 0.0
O147 O 0.80749 0.06434 0.67971 0.0
C148 C 0.78855 0.07334 0.68469 0.0
C149 C 0.81882 0.05753 0.6035 0.0
O150 O 0.78702 0.04468 0.64933 0.0
O151 O 0.78307 0.07611 0.62932 0.0
O152 O 0.83051 0.0146 0.64602 0.0
O153 O 0.84881 0.03344 0.66916 0.0
O154 O 0.81478 0.03915 0.61448 0.0
O155 O 0.82538 0.07292 0.61683 0.0
O156 O 0.84192 0.08739 0.67264 0.0
O157 O 0.8567 0.06895 0.64585 0.0
C158 C 0.77457 0.05696 0.63613 0.0
C159 C 0.86013 0.08246 0.66225 0.0
Dy160 Dy 0.38515 0.03304 0.20194 0.0
C161 C 0.38299 0.10115 0.25494 0.0
C162 C 0.37723 1.00244 0.16895 0.0
Dy163 Dy 0.3853 0.0646 0.22871 0.0
O164 O 0.36485 0.01955 0.17302 0.0
O165 O 0.39341 1.00188 0.18316 0.0
O166 O 0.42142 0.02464 0.20546 0.0
O167 O 0.41324 0.05843 0.20531 0.0
C168 C 0.42927 0.04462 0.20722 0.0
C169 C 0.34231 0.04926 0.22797 0.0
O170 O 0.39274 0.08535 0.19858 0.0
O171 O 0.3739 0.0607 0.17818 0.0
O172 O 0.37396 0.09902 0.23568 0.0
O173 O 0.39407 0.08318 0.26003 0.0
O174 O 0.34871 0.06908 0.22253 0.0
O175 O 0.35969 0.03723 0.2291 0.0
O176 O 0.38557 1.01164 0.23262 0.0
O177 O 0.40268 0.03966 0.25097 0.0
C178 C 0.38217 0.08092 0.18011 0.0
C179 C 0.398 0.01821 0.24938 0.0
Dy180 Dy 1.01074 0.42273 0.17153 0.0
C181 C 0.938 0.41238 0.21668 0.0
C182 C 0.04488 0.41779 0.1417 0.0
Dy183 Dy 0.97726 0.4197 0.19565 0.0
O184 O 0.04539 0.43013 0.15915 0.0
O185 O 0.02568 0.40792 0.14043 0.0
O186 O 0.02323 0.45575 0.18253 0.0
O187 O 0.98852 0.45207 0.17963 0.0
C188 C 1.00431 0.46555 0.18485 0.0
C189 C 0.99102 0.37644 0.1914 0.0
O190 O 0.96005 0.43412 0.16598 0.0
O191 O 0.98523 0.41798 0.1442 0.0
O192 O 0.94075 0.41268 0.19542 0.0
O193 O 0.95635 0.41801 0.2268 0.0
O194 O 0.97148 0.38374 0.18648 0.0
O195 O 1.00354 0.39331 0.19314 0.0
O196 O 0.02623 0.41185 0.20354 0.0
O197 O 0.99946 0.42803 0.2243 0.0
C198 C 0.96566 0.42731 0.14621 0.0
C199 C 0.01953 0.41941 0.22293 0.0
Dy200 Dy 0.64501 0.07417 0.19363 0.0
C201 C 0.61878 0.04749 0.26752 0.0
C202 C 0.64591 0.10361 0.1582 0.0
Dy203 Dy 0.63879 0.05486 0.22709 0.0
O204 O 0.63885 0.10739 0.17805 0.0
O205 O 0.65274 0.08302 0.15713 0.0
O206 O 0.61033 0.08856 0.20171 0.0
O207 O 0.61341 0.05476 0.20142 0.0
C208 C 0.59927 0.07005 0.20237 0.0
C209 C 0.6824 0.04894 0.22707 0.0
O210 O 0.63631 0.02491 0.20425 0.0
O211 O 0.65481 0.04354 0.17676 0.0
O212 O 0.61039 0.05901 0.25124 0.0
O213 O 0.63746 0.03901 0.2611 0.0
O214 O 0.66789 0.03362 0.23225 0.0
O215 O 0.67291 0.06671 0.21923 0.0
O216 O 0.66537 0.09966 0.20953 0.0
O217 O 0.64152 0.09151 0.23686 0.0
C218 C 0.64692 0.02472 0.18486 0.0
C219 C 0.65629 0.1054 0.22803 0.0
Dy220 Dy 1.0031 0.6828 0.19435 0.0
C221 C 0.05917 0.64165 0.25124 0.0
C222 C 0.97674 0.70192 0.1618 0.0
Dy223 Dy 0.0337 0.6679 0.22418 0.0
O224 O 0.97453 0.70482 0.18306 0.0
O225 O 0.9936 0.68906 0.15837 0.0
O226 O 0.98701 0.64881 0.19183 0.0
O227 O 0.02151 0.65023 0.19483 0.0
C228 C 1.00484 0.63701 0.194 0.0
C229 C 0.02944 0.71247 0.23146 0.0
O230 O 0.05494 0.66861 0.19368 0.0
O231 O 0.03437 0.69629 0.17815 0.0
O232 O 0.06575 0.66025 0.24212 0.0
O233 O 0.03856 0.63783 0.24616 0.0
O234 O 0.04792 0.70143 0.2314 0.0
O235 O 0.01345 0.69924 0.22638 0.0
O236 O 0.97799 0.67707 0.22085 0.0
O237 O 1.00299 0.65835 0.24314 0.0
C238 C 0.05282 0.68452 0.17854 0.0
C239 C 0.98252 0.66481 0.23858 0.0
Dy240 Dy 0.38148 0.07935 0.83441 0.0
C241 C 0.39834 0.02496 0.76733 0.0
C242 C 0.37715 0.10927 0.86877 0.0
Dy243 Dy 0.38387 0.05096 0.80126 0.0
O244 O 0.38988 0.1115 0.85149 0.0
O245 O 0.3664 0.09043 0.86745 0.0
O246 O 0.41882 0.08618 0.83154 0.0
O247 O 0.40832 0.05374 0.82832 0.0
C248 C 0.42554 0.06607 0.82831 0.0
C249 C 0.34009 0.06076 0.80307 0.0
O250 O 0.38342 0.02604 0.82939 0.0
O251 O 0.36764 0.05013 0.85361 0.0
O252 O 0.37898 0.02363 0.77679 0.0
O253 O 0.40937 0.04134 0.77594 0.0
O254 O 0.34821 0.04092 0.80138 0.0
O255 O 0.35601 0.07465 0.80669 0.0
O256 O 0.37446 0.10431 0.80773 0.0
O257 O 0.39148 0.08278 0.78215 0.0
C258 C 0.37328 0.02967 0.84847 0.0
C259 C 0.38333 0.10222 0.78791 0.0
Dy260 Dy 0.99304 0.42095 0.80303 0.0
C261 C 0.06175 0.4128 0.74467 0.0
C262 C 0.95951 0.41891 0.83444 0.0
Dy263 Dy 0.02755 0.41775 0.77505 0.0
O264 O 0.96264 0.43463 0.8198 0.0
O265 O 0.9748 0.40393 0.83202 0.0
O266 O 0.98346 0.45447 0.79014 0.0
O267 O 0.01756 0.44829 0.79438 0.0
C268 C 1.00311 0.46343 0.78986 0.0
C269 C 0.01481 0.37558 0.78755 0.0
O270 O 0.04887 0.42217 0.80489 0.0
O271 O 0.01994 0.41576 0.82887 0.0
O272 O 0.04517 0.39941 0.74796 0.0
O273 O 0.05853 0.43013 0.75703 0.0
O274 O 0.03482 0.38361 0.78908 0.0
O275 O 1.00194 0.39173 0.78304 0.0
O276 O 0.97563 0.40979 0.77203 0.0
O277 O 1.00226 0.42294 0.74818 0.0
C278 C 0.04145 0.41873 0.82527 0.0
C279 C 0.98227 0.4145 0.7514 0.0
Dy280 Dy 0.641 0.01464 0.82195 0.0
C281 C 0.6412 0.09835 0.84842 0.0
C282 C 0.64682 0.9707 0.81309 0.0
Dy283 Dy 0.63406 0.0564 0.83166 0.0
O284 O 0.65243 0.98025 0.83141 0.0
O285 O 0.63749 0.98502 0.79964 0.0
O286 O 0.67856 0.02029 0.82332 0.0
O287 O 0.65939 0.04456 0.80846 0.0
C288 C 0.67923 0.0388 0.81202 0.0
C289 C 0.59243 0.03884 0.83122 0.0
O290 O 0.63054 0.05772 0.79401 0.0
O291 O 0.62177 0.02077 0.7917 0.0
O292 O 0.62309 0.09164 0.8387 0.0
O293 O 0.65573 0.08245 0.84802 0.0
O294 O 0.59793 0.05899 0.82528 0.0
O295 O 0.60986 0.02845 0.83872 0.0
O296 O 0.63531 1.00734 0.85755 0.0
O297 O 0.64471 0.04266 0.86581 0.0
C298 C 0.62199 0.04078 0.78262 0.0
C299 C 0.64103 0.02191 0.87233 0.0
Dy300 Dy 0.02201 0.67642 0.82855 0.0
C301 C 0.96 0.66958 0.76482 0.0
C302 C 0.05407 0.68444 0.86048 0.0
Dy303 Dy 0.9908 0.67517 0.79829 0.0
O304 O 0.03545 0.69526 0.8586 0.0
O305 O 0.05495 0.66971 0.84506 0.0
O306 O 0.03234 0.64078 0.82636 0.0
O307 O 0.99839 0.64731 0.822 0.0
C308 C 1.01336 0.63212 0.82115 0.0
C309 C 1.00477 0.71867 0.79992 0.0
O310 O 0.96787 0.67072 0.82775 0.0
O311 O 0.99329 0.68566 0.8511 0.0
O312 O 0.95636 0.67812 0.78409 0.0
O313 O 0.98086 0.6641 0.76392 0.0
O314 O 0.98444 0.71177 0.80096 0.0
O315 O 0.01734 0.70162 0.80076 0.0
O316 O 0.0436 0.67815 0.79848 0.0
O317 O 0.0182 0.65768 0.78021 0.0
C318 C 0.97261 0.6792 0.84731 0.0
C319 C 0.03922 0.66338 0.78313 0.0
Dy320 Dy 0.18833 0.42343 0.98001 0.0
C321 C 0.246 0.43795 0.04671 0.0
C322 C 0.15682 0.41747 0.94714 0.0
Dy323 Dy 0.21689 0.42689 0.01391 0.0
O324 O 0.17703 0.42454 0.94413 0.0
O325 O 0.15377 0.41328 0.96821 0.0
O326 O 0.19865 0.45805 0.96741 0.0
O327 O 0.19483 0.45316 1.00128 0.0
C328 C 0.19986 0.46759 0.98652 0.0
C329 C 0.21064 0.38271 1.01109 0.0
O330 O 0.18606 0.42944 0.03413 0.0
O331 O 0.16383 0.41512 1.00705 0.0
O332 O 0.24456 0.41869 0.03754 0.0
O333 O 0.23264 0.45168 0.03666 0.0
O334 O 0.20887 0.39394 0.02926 0.0
O335 O 0.2107 0.39626 0.99432 0.0
O336 O 0.21734 0.40847 0.96343 0.0
O337 O 0.24101 0.42812 0.98521 0.0
C338 C 0.16673 0.42139 0.02776 0.0
C339 C 0.23765 0.41539 0.96775 0.0
Dy340 Dy 0.19813 0.68119 0.02314 0.0
C341 C 0.25432 0.66031 0.95704 0.0
C342 C 0.16916 0.6903 0.05766 0.0
Dy343 Dy 0.22572 0.67686 0.98822 0.0
O344 O 0.18405 0.67484 0.05746 0.0
O345 O 0.17018 0.70139 0.03889 0.0
O346 O 0.1992 0.64455 0.03229 0.0
O347 O 0.19959 0.65304 0.99864 0.0
C348 C 0.20099 0.63678 1.01243 0.0
C349 C 0.22812 0.72051 0.99939 0.0
O350 O 0.19453 0.67763 0.96843 0.0
O351 O 0.17392 0.69239 0.99635 0.0
O352 O 0.23413 0.66686 0.95345 0.0
O353 O 0.25939 0.66539 0.97734 0.0
O354 O 0.2265 0.71291 0.97942 0.0
O355 O 0.22665 0.7042 1.01335 0.0
O356 O 0.23003 0.68029 0.04201 0.0
O357 O 0.24431 0.6586 0.01504 0.0
C358 C 0.17603 0.68689 0.97525 0.0
C359 C 0.24468 0.66541 0.03577 0.0
Dy360 Dy 0.37973 0.24281 0.03795 0.0
C361 C 0.38623 0.30846 0.97729 0.0
C362 C 0.37286 0.20869 0.06895 0.0
Dy363 Dy 0.38224 0.27344 1.00745 0.0
O364 O 0.38524 0.22616 0.07143 0.0
O365 O 0.36352 0.20992 0.04943 0.0
O366 O 0.41566 0.24584 0.04835 0.0
O367 O 0.40909 0.24891 0.01438 0.0
C368 C 0.42448 0.24964 0.02907 0.0
C369 C 0.3382 0.27002 0.0179 0.0
O370 O 0.38876 0.24471 0.98506 0.0
O371 O 0.36971 0.22186 1.00864 0.0
O372 O 0.37392 0.29092 0.97521 0.0
O373 O 0.39669 0.3066 0.99617 0.0
O374 O 0.34668 0.26755 0.99843 0.0
O375 O 0.3542 0.27006 0.032 0.0
O376 O 0.37582 0.27197 0.05971 0.0
O377 O 0.39793 0.29116 0.03623 0.0
C378 C 0.37846 0.22559 0.98878 0.0
C379 C 0.39119 0.28735 0.05682 0.0
Dy380 Dy 0.79176 0.43607 0.02682 0.0
C381 C 0.84038 0.42554 0.95167 0.0
C382 C 0.7754 0.44102 0.06876 0.0
Dy383 Dy 0.81362 0.43484 0.98761 0.0
O384 O 0.7758 0.42264 0.05789 0.0
O385 O 0.78019 0.45717 0.05488 0.0
O386 O 0.80274 0.4011 0.03499 0.0
O387 O 0.79284 0.40809 1.00259 0.0
C388 C 0.79786 0.39236 0.01599 0.0
C389 C 0.80461 0.47842 0.99615 0.0
O390 O 0.77855 0.42512 0.97771 0.0
O391 O 0.76054 0.44048 1.00735 0.0
O392 O 0.82557 0.44118 0.95229 0.0
O393 O 0.84023 0.41466 0.97051 0.0
O394 O 0.8033 0.46914 0.97684 0.0
O395 O 0.81103 0.4638 1.01048 0.0
O396 O 0.82508 0.44217 0.04119 0.0
O397 O 0.84333 0.4298 1.0107 0.0
C398 C 0.75979 0.43144 0.98758 0.0
C399 C 0.84362 0.43602 0.03169 0.0
Dy400 Dy 0.64198 0.87858 0.0357 0.0
C401 C 0.64294 0.84111 0.95619 0.0
C402 C 0.64954 0.9023 0.07395 0.0
Dy403 Dy 0.64199 0.85967 0.99708 0.0
O404 O 0.66218 0.90274 0.0564 0.0
O405 O 0.63314 0.88865 0.07071 0.0
O406 O 0.60652 0.87027 0.04435 0.0
O407 O 0.61346 0.87849 1.011 0.0
C408 C 0.59817 0.87216 0.02456 0.0
C409 C 0.68507 0.85847 1.01205 0.0
O410 O 0.63343 0.89353 0.98457 0.0
O411 O 0.65052 0.9089 0.01403 0.0
O412 O 0.64296 0.86218 0.95981 0.0
O413 O 0.64081 0.82993 0.97476 0.0
O414 O 0.67864 0.86725 0.9934 0.0
O415 O 0.66774 0.85485 0.02367 0.0
O416 O 0.64552 0.84323 0.04696 0.0
O417 O 0.6262 0.83177 0.0166 0.0
C418 C 0.64214 0.91109 0.99387 0.0
C419 C 0.63354 0.82783 0.03699 0.0
Dy420 Dy 0.79949 0.6905 0.97967 0.0
C421 C 0.85903 0.70441 0.04543 0.0
C422 C 0.76885 0.67976 0.94754 0.0
Dy423 Dy 0.8287 0.69327 1.01299 0.0
O424 O 0.78744 0.69034 0.94431 0.0
O425 O 0.7666 0.67642 0.96884 0.0
O426 O 0.80011 0.7275 0.97284 0.0
O427 O 0.80064 0.71681 1.0058 0.0
C428 C 0.79913 0.73398 0.99323 0.0
C429 C 0.82134 0.64899 1.00556 0.0
O430 O 0.79727 0.69459 0.03263 0.0
O431 O 0.7797 0.6738 1.00681 0.0
O432 O 0.84417 0.68879 0.04693 0.0
O433 O 0.85749 0.71422 0.02604 0.0
O434 O 0.82534 0.65781 0.02466 0.0
O435 O 0.82334 0.66405 0.99028 0.0
O436 O 0.82997 0.68576 0.95858 0.0
O437 O 0.85316 0.70002 0.98462 0.0
C438 C 0.78142 0.68026 0.02762 0.0
C439 C 0.84989 0.69309 0.96407 0.0
Dy440 Dy 0.38357 0.87416 0.99444 0.0
C441 C 0.38849 0.81721 0.06237 0.0
C442 C 0.37395 0.90518 0.96158 0.0
Dy443 Dy 0.3857 0.84665 0.02777 0.0
O444 O 0.38862 0.88959 0.96037 0.0
O445 O 0.36418 0.9039 0.98084 0.0
O446 O 0.41948 0.87141 0.98433 0.0
O447 O 0.41261 0.87057 0.01842 0.0
C448 C 0.42805 0.86895 1.00393 0.0
C449 C 0.34215 0.84658 0.01476 0.0
O450 O 0.39237 0.87704 0.04715 0.0
O451 O 0.37315 0.89742 0.02195 0.0
O452 O 0.38192 0.83752 0.06376 0.0
O453 O 0.39465 0.81298 0.04216 0.0
O454 O 0.34925 0.85066 0.03454 0.0
O455 O 0.35891 0.84679 1.0018 0.0
O456 O 0.3822 0.84306 0.9749 0.0
O457 O 0.40098 0.82477 1.00246 0.0
C458 C 0.38172 0.89539 0.04207 0.0
C459 C 0.39428 0.82605 0.98163 0.0
Dy460 Dy 0.63794 0.24936 0.99656 0.0
C461 C 0.6407 0.31119 0.06215 0.0
C462 C 0.64179 0.21738 0.96415 0.0
Dy463 Dy 0.63866 0.27915 0.02964 0.0
O464 O 0.625 0.23039 0.9671 0.0
O465 O 0.65679 0.22172 0.97907 0.0
O466 O 0.60309 0.25892 0.98684 0.0
O467 O 0.61027 0.25683 0.02083 0.0
C468 C 0.59471 0.26012 1.00667 0.0
C469 C 0.6816 0.2697 0.01978 0.0
O470 O 0.63622 0.24861 0.0516 0.0
O471 O 0.64539 0.22487 0.0237 0.0
O472 O 0.65393 0.30935 0.04535 0.0
O473 O 0.62492 0.29648 0.05977 0.0
O474 O 0.67269 0.26771 0.03934 0.0
O475 O 0.66593 0.27232 1.00567 0.0
O476 O 0.64846 0.2794 0.97752 0.0
O477 O 0.63158 0.30328 1.00116 0.0
C478 C 0.64163 0.22849 0.04488 0.0
C479 C 0.6413 0.29956 0.98186 0.0
Dy480 Dy 0.51389 0.67824 0.90544 0.0
C481 C 0.57532 0.74006 0.89794 0.0
C482 C 0.48097 0.6462 0.90313 0.0
Dy483 Dy 0.54422 0.70748 0.9033 0.0
O484 O 0.49709 0.6486 0.88878 0.0
O485 O 0.4832 0.6609 0.9184 0.0
O486 O 0.50329 0.68629 0.94013 0.0
O487 O 0.53753 0.68659 0.93373 0.0
C488 C 0.52273 0.68928 0.94877 0.0
C489 C 0.53047 0.70276 0.86036 0.0
O490 O 0.56701 0.68003 0.91314 0.0
O491 O 0.54299 0.65516 0.8986 0.0
O492 O 0.55537 0.74327 0.9055 0.0
O493 O 0.57877 0.71911 0.89529 0.0
O494 O 0.55042 0.69933 0.86742 0.0
O495 O 0.5179 0.70313 0.87738 0.0
O496 O 0.49243 0.70758 0.89897 0.0
O497 O 0.5175 0.72968 0.91625 0.0
C498 C 0.56319 0.65987 0.90593 0.0
C499 C 0.49705 0.72626 0.90914 0.0
Dy500 Dy 0.35782 0.47557 0.91828 0.0
C501 C 0.28499 0.50846 0.9483 0.0
C502 C 0.3919 0.44606 0.91161 0.0
Dy503 Dy 0.32388 0.49564 0.92817 0.0
O504 O 0.37335 0.44199 0.92174 0.0
O505 O 0.39227 0.46682 0.90476 0.0
O506 O 0.3571 0.46209 0.95447 0.0
O507 O 0.35255 0.49554 0.94979 0.0
C508 C 0.35452 0.48068 0.96461 0.0
C509 C 0.32127 0.49916 0.88384 0.0
O510 O 0.3473 0.52564 0.92481 0.0
O511 O 0.3731 0.50634 0.90524 0.0
O512 O 0.28679 0.50064 0.92846 0.0
O513 O 0.30467 0.50917 0.95709 0.0
O514 O 0.31869 0.5155 0.89745 0.0
O515 O 0.32825 0.48164 0.89445 0.0
O516 O 0.33524 0.45164 0.90297 0.0
O517 O 0.31822 0.45836 0.93474 0.0
C518 C 0.36577 0.52535 0.91261 0.0
C519 C 0.32243 0.44422 0.9187 0.0
Dy520 Dy 0.56139 0.3172 0.90906 0.0
C521 C 0.5072 0.25002 0.92539 0.0
C522 C 0.58734 0.3549 0.90795 0.0
Dy523 Dy 0.53581 0.28336 0.91213 0.0
O524 O 0.57286 0.34992 0.89274 0.0
O525 O 0.58756 0.33941 0.923 0.0
O526 O 0.57447 0.30779 0.94343 0.0
O527 O 0.54029 0.30769 0.9389 0.0
C528 C 0.55551 0.30585 0.95353 0.0
C529 C 0.53889 0.29066 0.86781 0.0
O530 O 0.50969 0.31036 0.91561 0.0
O531 O 0.53186 0.33671 0.89966 0.0
O532 O 0.51098 0.25645 0.90508 0.0
O533 O 0.52366 0.25784 0.93701 0.0
O534 O 0.52042 0.28767 0.87859 0.0
O535 O 0.55485 0.29267 0.88169 0.0
O536 O 0.58568 0.29443 0.89458 0.0
O537 O 0.56988 0.26593 0.91402 0.0
C538 C 0.51219 0.3305 0.90667 0.0
C539 C 0.58697 0.27396 0.90232 0.0
Dy540 Dy 0.72541 0.52132 0.9189 0.0
C541 C 0.78073 0.44824 0.91837 0.0
C542 C 0.69285 0.55305 0.91152 0.0
Dy543 Dy 0.75338 0.4853 0.91995 0.0
O544 O 0.69195 0.53246 0.9054 0.0
O545 O 0.71184 0.55653 0.92131 0.0
O546 O 0.73472 0.53161 0.95353 0.0
O547 O 0.73219 0.49748 0.94779 0.0
C548 C 0.73692 0.51199 0.96247 0.0
C549 C 0.74395 0.49597 0.87681 0.0
O550 O 0.72119 0.46707 0.92437 0.0
O551 O 0.70045 0.49537 0.90979 0.0
O552 O 0.77889 0.46372 0.90331 0.0
O553 O 0.76983 0.45518 0.93567 0.0
O554 O 0.74092 0.47659 0.886 0.0
O555 O 0.74803 0.5097 0.89218 0.0
O556 O 0.75705 0.536 0.90642 0.0
O557 O 0.77696 0.513 0.92914 0.0
C558 C 0.70223 0.47458 0.91643 0.0
C559 C 0.77547 0.53183 0.91762 0.0
Dy560 Dy 0.53437 0.31138 0.17028 0.0
C561 C 0.6007 0.25116 0.15901 0.0
C562 C 0.50248 0.34177 0.18214 0.0
Dy563 Dy 0.56707 0.2818 0.1655 0.0
O564 O 0.50038 0.32677 0.16702 0.0
O565 O 0.52215 0.34028 0.19103 0.0
O566 O 0.52331 0.3098 0.13454 0.0
O567 O 0.55752 0.30803 0.14065 0.0
C568 C 0.5426 0.30722 0.12538 0.0
C569 C 0.55617 0.28317 0.20975 0.0
O570 O 0.58955 0.31204 0.16544 0.0
O571 O 0.56262 0.33407 0.18002 0.0
O572 O 0.58995 0.25439 0.17729 0.0
O573 O 0.59093 0.26315 0.14374 0.0
O574 O 0.57595 0.28595 0.20159 0.0
O575 O 0.54243 0.28296 0.19353 0.0
O576 O 0.51531 0.27998 0.17501 0.0
O577 O 0.53781 0.2636 0.15036 0.0
C578 C 0.58358 0.33112 0.17423 0.0
C579 C 0.51772 0.26553 0.15905 0.0
Dy580 Dy 0.72601 0.49194 0.17902 0.0
C581 C 0.77061 0.56269 0.14417 0.0
C582 C 0.6952 0.45787 0.18696 0.0
Dy583 Dy 0.7529 0.52899 0.16959 0.0
O584 O 0.71651 0.45672 0.19057 0.0
O585 O 0.69072 0.4779 0.17994 0.0
O586 O 0.73583 0.47817 0.14513 0.0
O587 O 0.73 0.51178 0.14741 0.0
C588 C 0.73547 0.49673 0.13397 0.0
C589 C 0.76267 0.51843 0.21194 0.0
O590 O 0.72197 0.54798 0.17672 0.0
O591 O 0.70042 0.51781 0.18729 0.0
O592 O 0.76196 0.56509 0.16385 0.0
O593 O 0.77064 0.54175 0.13906 0.0
O594 O 0.7759 0.52854 0.19786 0.0
O595 O 0.74289 0.5156 0.20348 0.0
O596 O 0.75752 0.47721 0.19094 0.0
O597 O 0.77669 0.50026 0.16691 0.0
C598 C 0.70294 0.53951 0.18393 0.0
C599 C 0.77608 0.4827 0.18063 0.0
Dy600 Dy 0.54538 0.6793 0.16414 0.0
C601 C 0.47293 0.72945 0.15446 0.0
C602 C 0.57777 0.64914 0.17667 0.0
Dy603 Dy 0.51038 0.70497 0.15985 0.0
O604 O 0.57749 0.67001 0.18213 0.0
O605 O 0.56043 0.6449 0.16465 0.0
O606 O 0.55639 0.68029 0.12853 0.0
O607 O 0.52189 0.68064 0.13476 0.0
C608 C 0.53687 0.68221 0.11956 0.0
C609 C 0.52468 0.70937 0.20288 0.0
O610 O 0.4928 0.67286 0.15652 0.0
O611 O 0.51809 0.65694 0.17913 0.0
O612 O 0.47343 0.70859 0.1598 0.0
O613 O 0.49296 0.73707 0.15113 0.0
O614 O 0.50471 0.70437 0.19683 0.0
O615 O 0.5371 0.70828 0.18574 0.0
O616 O 0.564 0.71038 0.15375 0.0
O617 O 0.53251 0.72663 0.13957 0.0
C618 C 0.49817 0.65639 0.16986 0.0
C619 C 0.55433 0.72616 0.14158 0.0
Dy620 Dy 0.32691 0.5255 0.17067 0.0
C621 C 0.38413 0.4573 0.1933 0.0
C622 C 0.30048 0.55478 0.14753 0.0
Dy623 Dy 0.35504 0.49055 0.18074 0.0
O624 O 0.31011 0.55886 0.16638 0.0
O625 O 0.30463 0.53449 0.1418 0.0
O626 O 0.32312 0.53766 0.20572 0.0
O627 O 0.32708 0.50354 0.20132 0.0
C628 C 0.3237 0.51838 0.21583 0.0
C629 C 0.34981 0.49483 0.1354 0.0
O630 O 0.32326 0.47219 0.18763 0.0
O631 O 0.30347 0.49679 0.16591 0.0
O632 O 0.36689 0.45514 0.18063 0.0
O633 O 0.38552 0.47785 0.1997 0.0
O634 O 0.35092 0.47639 0.14663 0.0
O635 O 0.35259 0.51085 0.14892 0.0
O636 O 0.3589 0.54464 0.16949 0.0
O637 O 0.37911 0.51846 0.18852 0.0
C638 C 0.30507 0.47734 0.17643 0.0
C639 C 0.37728 0.53877 0.17995 0.0
Dy640 Dy 0.90032 0.47392 0.73008 0.0
C641 C 0.9201 0.52906 0.79609 0.0
C642 C 0.89565 0.44308 0.69675 0.0
Dy643 Dy 0.9055 0.50044 0.76414 0.0
O644 O 0.90162 0.43905 0.71708 0.0
O645 O 0.89169 0.46431 0.69441 0.0
O646 O 0.93599 0.46233 0.73673 0.0
O647 O 0.9299 0.49585 0.73786 0.0
C648 C 0.94518 0.48163 0.73921 0.0
C649 C 0.86123 0.49947 0.75745 0.0
O650 O 0.90726 0.52595 0.73609 0.0
O651 O 0.88971 0.50388 0.7109 0.0
O652 O 0.89972 0.52254 0.79326 0.0
O653 O 0.93246 0.51574 0.78468 0.0
O654 O 0.87302 0.51732 0.76023 0.0
O655 O 0.87415 0.4827 0.75562 0.0
O656 O 0.88377 0.45342 0.75619 0.0
O657 O 0.90908 0.46584 0.78043 0.0
C658 C 0.89713 0.52359 0.71668 0.0
C659 C 0.89492 0.44995 0.77462 0.0
Dy660 Dy 0.53745 0.871 0.71681 0.0
C661 C 0.48133 0.89071 0.78057 0.0
C662 C 0.56889 0.86507 0.68373 0.0
Dy663 Dy 0.50772 0.87496 0.74722 0.0
O664 O 0.5716 0.87589 0.70197 0.0
O665 O 0.54872 0.85705 0.68337 0.0
O666 O 0.55041 0.9059 0.72362 0.0
O667 O 0.5163 0.90161 0.72286 0.0
C668 C 0.53164 0.91608 0.72539 0.0
C669 C 0.51308 0.83012 0.74587 0.0
O670 O 0.48495 0.88026 0.71795 0.0
O671 O 0.50841 0.86261 0.69467 0.0
O672 O 0.47586 0.87532 0.7667 0.0
O673 O 0.50182 0.89649 0.77674 0.0
O674 O 0.49423 0.84036 0.74699 0.0
O675 O 0.52871 0.84448 0.74284 0.0
O676 O 0.55898 0.85935 0.74462 0.0
O677 O 0.53857 0.88007 0.76804 0.0
C678 C 0.48857 0.8709 0.69859 0.0
C679 C 0.55712 0.86929 0.76383 0.0
Dy680 Dy 0.15848 0.52199 0.73793 0.0
C681 C 0.15147 0.45554 0.80048 0.0
C682 C 0.16595 0.555 0.70599 0.0
Dy683 Dy 0.15494 0.4888 0.76815 0.0
O684 O 0.15339 0.55647 0.7234 0.0
O685 O 0.17512 0.53543 0.70611 0.0
O686 O 0.12221 0.531 0.74056 0.0
O687 O 0.13006 0.49727 0.74213 0.0
C688 C 0.11413 0.51119 0.7433 0.0
C689 C 0.1987 0.5001 0.76518 0.0
O690 O 0.15528 0.46683 0.73815 0.0
O691 O 0.17009 0.49425 0.71588 0.0
O692 O 0.16812 0.46893 0.79745 0.0
O693 O 0.13582 0.46217 0.787 0.0
O694 O 0.19052 0.48052 0.76153 0.0
O695 O 0.18253 0.5139 0.76579 0.0
O696 O 0.16198 0.54164 0.76865 0.0
O697 O 0.13876 0.51734 0.78592 0.0
C698 C 0.16453 0.47312 0.71908 0.0
C699 C 0.14637 0.53794 0.78358 0.0
Dy700 Dy 0.52846 0.13477 0.71507 0.0
C701 C 0.52082 0.11061 0.78641 0.0
C702 C 0.51258 0.13379 0.67265 0.0
Dy703 Dy 0.5362 0.1302 0.74791 0.0
O704 O 0.50198 0.12748 0.69037 0.0
O705 O 0.53231 0.14122 0.67777 0.0
O706 O 0.50848 0.10203 0.72171 0.0
O707 O 0.54199 0.10142 0.72672 0.0
C708 C 0.52528 0.08885 0.72483 0.0
C709 C 0.54761 0.17187 0.75267 0.0
O710 O 0.57172 0.12417 0.7351 0.0
O711 O 0.56218 0.14171 0.70335 0.0
O712 O 0.54049 0.11982 0.78371 0.0
O713 O 0.51033 0.11156 0.7676 0.0
O714 O 0.55686 0.15545 0.76351 0.0
O715 O 0.53346 0.1654 0.73779 0.0
O716 O 0.5017 0.15908 0.71753 0.0
O717 O 0.49966 0.14101 0.74968 0.0
C718 C 0.57779 0.13343 0.71586 0.0
C719 C 0.49065 0.15517 0.73549 0.0
Dy720 Dy 0.90834 0.52769 0.3698 0.0
C721 C 0.90009 0.46431 0.31228 0.0
C722 C 0.90215 0.55776 0.40338 0.0
Dy723 Dy 0.9069 0.49778 0.34124 0.0
O724 O 0.91605 0.55994 0.38701 0.0
O725 O 0.89144 0.53905 0.40151 0.0
O726 O 0.94364 0.53827 0.36283 0.0
O727 O 0.9369 0.50414 0.3621 0.0
C728 C 0.95215 0.51885 0.35962 0.0
C729 C 0.86374 0.51062 0.34636 0.0
O730 O 0.91733 0.47594 0.36943 0.0
O731 O 0.89969 0.49878 0.39272 0.0
O732 O 0.89925 0.46242 0.33363 0.0
O733 O 0.90698 0.48413 0.30644 0.0
O734 O 0.87115 0.49094 0.35053 0.0
O735 O 0.88055 0.52348 0.34528 0.0
O736 O 0.9012 0.54893 0.34024 0.0
O737 O 0.91977 0.52496 0.31836 0.0
C738 C 0.90831 0.47916 0.38894 0.0
C739 C 0.91181 0.5451 0.32155 0.0
Dy740 Dy 0.52009 0.87457 0.34639 0.0
C741 C 0.57694 0.90395 0.28485 0.0
C742 C 0.49282 0.85893 0.38011 0.0
Dy743 Dy 0.55073 0.88293 0.31596 0.0
O744 O 0.48977 0.85531 0.35906 0.0
O745 O 0.51073 0.87072 0.38257 0.0
O746 O 0.50952 0.91055 0.34961 0.0
O747 O 0.54322 0.90427 0.34439 0.0
C748 C 0.52881 0.91967 0.34599 0.0
C749 C 0.54128 0.83881 0.31183 0.0
O750 O 0.57392 0.88169 0.34512 0.0
O751 O 0.54978 0.85955 0.36427 0.0
O752 O 0.58385 0.89433 0.30302 0.0
O753 O 0.55612 0.89876 0.28244 0.0
O754 O 0.5609 0.84776 0.31155 0.0
O755 O 0.52684 0.85395 0.3158 0.0
O756 O 0.49516 0.8855 0.32085 0.0
O757 O 0.52274 0.90287 0.30112 0.0
C758 C 0.56986 0.86839 0.36228 0.0
C759 C 0.50136 0.89961 0.30499 0.0
Dy760 Dy 0.15939 0.47809 0.34116 0.0
C761 C 0.18182 0.55162 0.38973 0.0
C762 C 0.13624 0.44361 0.32368 0.0
Dy763 Dy 0.1682 0.51548 0.36567 0.0
O764 O 0.13525 0.44996 0.34409 0.0
O765 O 0.15014 0.45615 0.31242 0.0
O766 O 0.19521 0.46873 0.33575 0.0
O767 O 0.18753 0.50263 0.33693 0.0
C768 C 0.20333 0.48884 0.33423 0.0
C769 C 0.12322 0.50897 0.36349 0.0
O770 O 0.16917 0.5302 0.33131 0.0
O771 O 0.14465 0.50412 0.31884 0.0
O772 O 0.19063 0.53193 0.3913 0.0
O773 O 0.16611 0.55138 0.37503 0.0
O774 O 0.13324 0.52804 0.36381 0.0
O775 O 0.13778 0.4937 0.36639 0.0
O776 O 0.16919 0.45941 0.37168 0.0
O777 O 0.17753 0.49 0.3924 0.0
C778 C 0.1539 0.524 0.31681 0.0
C779 C 0.17589 0.46814 0.39045 0.0
Dy780 Dy 0.56136 0.1317 0.36653 0.0
C781 C 0.49657 0.14915 0.31065 0.0
C782 C 0.59164 0.13264 0.40094 0.0
Dy783 Dy 0.53015 0.13761 0.33849 0.0
O784 O 0.57295 0.14335 0.40041 0.0
O785 O 0.59377 0.12157 0.38272 0.0
O786 O 0.57085 0.09787 0.35428 0.0
O787 O 0.53685 0.10502 0.35566 0.0
C788 C 0.55106 0.09007 0.35078 0.0
C789 C 0.54367 0.1796 0.34721 0.0
O790 O 0.50841 0.12534 0.3663 0.0
O791 O 0.53369 0.13774 0.39094 0.0
O792 O 0.51216 0.13514 0.30526 0.0
O793 O 0.4986 0.15475 0.33112 0.0
O794 O 0.52393 0.17202 0.35109 0.0
O795 O 0.55638 0.16284 0.34595 0.0
O796 O 0.58227 0.14447 0.33866 0.0
O797 O 0.55712 0.13386 0.31268 0.0
C798 C 0.51328 0.1311 0.38673 0.0
C799 C 0.57738 0.1409 0.31762 0.0
Dy800 Dy 0.71304 0.87512 0.52063 0.0
C801 C 0.7658 0.91138 0.58384 0.0
C802 C 0.6843 0.8645 0.48599 0.0
Dy803 Dy 0.74118 0.88505 0.55627 0.0
O804 O 0.68424 0.85496 0.50563 0.0
O805 O 0.70023 0.87907 0.48541 0.0
O806 O 0.71445 0.91173 0.50977 0.0
O807 O 0.71346 0.90422 0.54336 0.0
C808 C 0.71521 0.92011 0.52941 0.0
C809 C 0.7454 0.84064 0.54989 0.0
O810 O 0.70887 0.88397 0.57463 0.0
O811 O 0.69007 0.86386 0.54853 0.0
O812 O 0.75031 0.89753 0.59015 0.0
O813 O 0.76944 0.90859 0.5628 0.0
O814 O 0.74583 0.85067 0.56886 0.0
O815 O 0.74255 0.85511 0.53406 0.0
O816 O 0.74513 0.87413 0.50238 0.0
O817 O 0.75954 0.89896 0.52668 0.0
C818 C 0.69143 0.8719 0.56888 0.0
C819 C 0.75929 0.89033 0.50661 0.0
Dy820 Dy 0.729 0.12927 0.56961 0.0
C821 C 0.78853 0.1264 0.50144 0.0
C822 C 0.6994 0.13175 0.60457 0.0
Dy823 Dy 0.75881 0.12983 0.53584 0.0
O824 O 0.71685 0.11925 0.60389 0.0
O825 O 0.69796 0.14318 0.58601 0.0
O826 O 0.73826 0.09383 0.57896 0.0
O827 O 0.73644 0.10214 0.54548 0.0
C828 C 0.74013 0.08622 0.55902 0.0
C829 C 0.74854 0.1729 0.54251 0.0
O830 O 0.7287 0.12503 0.51484 0.0
O831 O 0.70424 0.13548 0.54195 0.0
O832 O 0.78459 0.14406 0.51276 0.0
O833 O 0.7785 0.10985 0.51156 0.0
O834 O 0.74736 0.16296 0.52355 0.0
O835 O 0.75055 0.15808 0.55792 0.0
O836 O 0.75887 0.14324 0.58666 0.0
O837 O 0.78336 0.12663 0.56375 0.0
C838 C 0.70843 0.13062 0.52096 0.0
C839 C 0.77967 0.1384 0.58166 0.0
Dy840 Dy 0.89633 0.68473 0.57564 0.0
C841 C 0.91392 0.75105 0.5184 0.0
C842 C 0.88969 0.65051 0.606 0.0
Dy843 Dy 0.90178 0.71713 0.54664 0.0
O844 O 0.90086 0.6686 0.6093 0.0
O845 O 0.88171 0.65094 0.58585 0.0
O846 O 0.9314 0.69099 0.58879 0.0
O847 O 0.92687 0.69197 0.55474 0.0
C848 C 0.94136 0.69392 0.56991 0.0
C849 C 0.85731 0.71297 0.54988 0.0
O850 O 0.90464 0.68943 0.52243 0.0
O851 O 0.88815 0.66415 0.54587 0.0
O852 O 0.89396 0.74702 0.52541 0.0
O853 O 0.92748 0.73757 0.52849 0.0
O854 O 0.86844 0.71215 0.53143 0.0
O855 O 0.87089 0.71123 0.56631 0.0
O856 O 0.8847 0.71088 0.59797 0.0
O857 O 0.90745 0.73474 0.579 0.0
C858 C 0.89566 0.66963 0.5259 0.0
C859 C 0.89583 0.72962 0.59705 0.0
Dy860 Dy 0.32124 0.89124 0.563 0.0
C861 C 0.38218 0.86083 0.50284 0.0
C862 C 0.29365 0.91641 0.58833 0.0
Dy863 Dy 0.35064 0.87864 0.53048 0.0
O864 O 0.31196 0.90731 0.59519 0.0
O865 O 0.28969 0.91016 0.56818 0.0
O866 O 0.31487 0.85665 0.57606 0.0
O867 O 0.31943 0.86094 0.54172 0.0
C868 C 0.31526 0.84659 0.5571 0.0
C869 C 0.34965 0.92414 0.53256 0.0
O870 O 0.32233 0.88466 0.50718 0.0
O871 O 0.30424 0.90547 0.53315 0.0
O872 O 0.36098 0.8565 0.50197 0.0
O873 O 0.38602 0.87444 0.51894 0.0
O874 O 0.35267 0.91287 0.51462 0.0
O875 O 0.34934 0.91064 0.54921 0.0
O876 O 0.3518 0.89073 0.58403 0.0
O877 O 0.36887 0.8662 0.56127 0.0
C878 C 0.3064 0.89864 0.51252 0.0
C879 C 0.36808 0.87668 0.58045 0.0
Dy880 Dy 0.17179 0.33015 0.56194 0.0
C881 C 0.15394 0.27431 0.49447 0.0
C882 C 0.17761 0.3595 0.59685 0.0
Dy883 Dy 0.16813 0.30228 0.52721 0.0
O884 O 0.16503 0.34195 0.59684 0.0
O885 O 0.18771 0.36098 0.57768 0.0
O886 O 0.13548 0.32534 0.57107 0.0
O887 O 0.14332 0.32684 0.53747 0.0
C888 C 0.12742 0.32373 0.55124 0.0
C889 C 0.21201 0.30243 0.5381 0.0
O890 O 0.16527 0.33427 0.50805 0.0
O891 O 0.18252 0.35455 0.53478 0.0
O892 O 0.17161 0.28674 0.49368 0.0
O893 O 0.14505 0.2761 0.51404 0.0
O894 O 0.20398 0.30478 0.51825 0.0
O895 O 0.1959 0.30282 0.55212 0.0
O896 O 0.17726 0.29829 0.58045 0.0
O897 O 0.15668 0.27992 0.55507 0.0
C898 C 0.17535 0.35274 0.51408 0.0
C899 C 0.16376 0.28168 0.57576 0.0
Dy900 Dy 0.33539 0.13994 0.50169 0.0
C901 C 0.38632 0.14761 0.57079 0.0
C902 C 0.32663 0.13754 0.45749 0.0
Dy903 Dy 0.35617 0.13864 0.53786 0.0
O904 O 0.32481 0.12079 0.47141 0.0
O905 O 0.33177 0.15547 0.46787 0.0
O906 O 0.31004 0.16567 0.50731 0.0
O907 O 0.34209 0.17016 0.52245 0.0
C908 C 0.3221 0.17798 0.5202 0.0
C909 C 0.34516 0.09554 0.53049 0.0
O910 O 0.32279 0.14401 0.55229 0.0
O911 O 0.30632 0.12843 0.52216 0.0
O912 O 0.3708 0.13256 0.57193 0.0
O913 O 0.38485 0.15831 0.55198 0.0
O914 O 0.34357 0.10552 0.5494 0.0
O915 O 0.35226 0.10935 0.51545 0.0
O916 O 0.36809 0.15018 0.48764 0.0
O917 O 0.38655 0.13447 0.51617 0.0
C918 C 0.3048 0.1361 0.54258 0.0
C919 C 0.38676 0.14282 0.49587 0.0
Dy920 Dy 0.91261 0.31561 0.52675 0.0
C921 C 0.91319 0.23942 0.57139 0.0
C922 C 0.90578 0.35082 0.49795 0.0
Dy923 Dy 0.9153 0.28219 0.55338 0.0
O924 O 0.90065 0.35065 0.51897 0.0
O925 O 0.91431 0.33182 0.49279 0.0
O926 O 0.94771 0.31137 0.51375 0.0
O927 O 0.94297 0.30634 0.54776 0.0
C928 C 0.95756 0.30667 0.53235 0.0
C929 C 0.87101 0.28991 0.54956 0.0
O930 O 0.91922 0.30923 0.57937 0.0
O931 O 0.90309 0.33478 0.55626 0.0
O932 O 0.90589 0.24587 0.55217 0.0
O933 O 0.92407 0.25626 0.57962 0.0
O934 O 0.88177 0.28859 0.56815 0.0
O935 O 0.88511 0.29099 0.53367 0.0
O936 O 0.89824 0.28836 0.50712 0.0
O937 O 0.92735 0.2701 0.52001 0.0
C938 C 0.91038 0.32926 0.57611 0.0
C939 C 0.91292 0.27293 0.50377 0.0
Dy940 Dy 0.15575 0.69701 0.53711 0.0
C941 C 0.1615 0.74892 0.60561 0.0
C942 C 0.16782 0.66788 0.50447 0.0
Dy943 Dy 0.15592 0.72229 0.56992 0.0
O944 O 0.1505 0.68063 0.50398 0.0
O945 O 0.17864 0.67092 0.52286 0.0
O946 O 0.11978 0.69911 0.52781 0.0
O947 O 0.12734 0.69959 0.56204 0.0
C948 C 0.11162 0.70109 0.54763 0.0
C949 C 0.19841 0.72241 0.55331 0.0
O950 O 0.14991 0.6919 0.5905 0.0
O951 O 0.16562 0.67145 0.56376 0.0
O952 O 0.1609 0.72749 0.60638 0.0
O953 O 0.15664 0.75613 0.58569 0.0
O954 O 0.19278 0.71552 0.57294 0.0
O955 O 0.18061 0.72415 0.54215 0.0
O956 O 0.15458 0.72948 0.51856 0.0
O957 O 0.13599 0.74459 0.54739 0.0
C958 C 0.15879 0.67308 0.58452 0.0
C959 C 0.14131 0.74505 0.52608 0.0
H960 H 0.0305 0.25748 0.55339 0.0
H961 H 0.95923 0.23451 0.44138 0.0
H962 H 0.96094 0.23942 0.55549 0.0
H963 H 0.02625 0.26054 0.44011 0.0
H964 H 0.96033 0.23363 0.48231 0.0
H965 H 0.02941 0.25709 0.51272 0.0
C966 C 0.01481 0.25345 0.54544 0.0
C967 C 0.99576 0.24846 0.55862 0.0
C968 C 0.97485 0.23959 0.47322 0.0
C969 C 0.99452 0.24787 0.51051 0.0
C970 C 0.97431 0.24004 0.44959 0.0
C971 C 0.99271 0.24756 0.43666 0.0
C972 C 0.99374 0.24728 0.48478 0.0
C973 C 1.0116 0.25449 0.4489 0.0
C974 C 0.0143 0.2532 0.52188 0.0
C975 C 0.97612 0.2435 0.54656 0.0
N976 N 1.01153 0.25431 0.47196 0.0
N977 N 0.97607 0.24326 0.52348 0.0
H978 H 0.82557 0.09324 0.57237 0.0
H979 H 0.80997 1.01239 0.46598 0.0
H980 H 0.81224 0.02261 0.57549 0.0
H981 H 0.82507 0.08215 0.45626 0.0
H982 H 0.80966 0.01762 0.50615 0.0
H983 H 0.82475 0.09144 0.53097 0.0
C984 C 0.82259 0.07735 0.56454 0.0
C985 C 0.81914 0.05801 0.57795 0.0
C986 C 0.81308 0.03195 0.49546 0.0
C987 C 0.81803 0.05584 0.53003 0.0
C988 C 0.81326 0.02895 0.47222 0.0
C989 C 0.81769 0.04674 0.45719 0.0
C990 C 0.81749 0.05303 0.50459 0.0
C991 C 0.8216 0.0678 0.46689 0.0
C992 C 0.82206 0.07635 0.54076 0.0
C993 C 0.8151 0.03806 0.56635 0.0
N994 N 0.82151 0.07032 0.48979 0.0
N995 N 0.81469 0.03756 0.54354 0.0
H996 H 0.05088 0.86614 0.57956 0.0
H997 H 0.98511 0.85884 0.461 0.0
H998 H 0.97934 0.86213 0.57459 0.0
H999 H 0.05664 0.8614 0.46701 0.0
H1000 H 0.98232 0.86016 0.50216 0.0
H1001 H 0.0532 0.86455 0.53849 0.0
C1002 C 0.03565 0.86493 0.56995 0.0
C1003 C 0.01488 0.86434 0.58093 0.0
C1004 C 0.99864 0.86047 0.49446 0.0
C1005 C 0.01738 0.86251 0.53326 0.0
C1006 C 1.00022 0.85974 0.47082 0.0
C1007 C 0.02114 0.86016 0.46011 0.0
C1008 C 0.01811 0.86161 0.50778 0.0
C1009 C 0.04006 0.8612 0.47416 0.0
C1010 C 0.03696 0.86402 0.54635 0.0
C1011 C 0.99579 0.86271 0.56716 0.0
N1012 N 0.0381 0.8619 0.4969 0.0
N1013 N 0.99749 0.86189 0.54437 0.0
H1014 H 0.20518 0.03076 0.56773 0.0
H1015 H 0.19227 0.10586 0.45535 0.0
H1016 H 0.18867 0.10053 0.56896 0.0
H1017 H 0.19914 0.03445 0.45472 0.0
H1018 H 0.19236 0.10458 0.49631 0.0
H1019 H 0.20447 0.03221 0.52688 0.0
C1020 C 0.2013 0.04646 0.55949 0.0
C1021 C 0.19679 0.06551 0.57227 0.0
C1022 C 0.19381 0.08913 0.48732 0.0
C1023 C 0.1962 0.06732 0.52447 0.0
C1024 C 0.19378 0.08982 0.46375 0.0
C1025 C 0.19559 0.07022 0.45114 0.0
C1026 C 0.19588 0.06865 0.49894 0.0
C1027 C 0.19757 0.05005 0.46341 0.0
C1028 C 0.20092 0.04724 0.53595 0.0
C1029 C 0.1921 0.08531 0.56015 0.0
N1030 N 0.19773 0.04983 0.48638 0.0
N1031 N 0.19199 0.08569 0.53716 0.0
H1032 H 0.56635 0.10248 0.2026 0.0
H1033 H 0.46339 0.01462 0.20861 0.0
H1034 H 0.57411 0.03117 0.20461 0.0
H1035 H 0.45284 0.08555 0.20478 0.0
H1036 H 0.50364 0.02102 0.20768 0.0
H1037 H 0.52549 0.09738 0.2039 0.0
C1038 C 0.55955 0.08572 0.20332 0.0
C1039 C 0.57404 0.06725 0.20342 0.0
C1040 C 0.49268 0.03529 0.207 0.0
C1041 C 0.52664 0.06122 0.20496 0.0
C1042 C 0.46945 0.03165 0.20751 0.0
C1043 C 0.45424 0.0495 0.20664 0.0
C1044 C 0.50143 0.0571 0.20565 0.0
C1045 C 0.46363 0.07115 0.20541 0.0
C1046 C 0.53608 0.08282 0.20406 0.0
C1047 C 0.56389 0.04599 0.20442 0.0
N1048 N 0.48643 0.0743 0.20493 0.0
N1049 N 0.54111 0.04362 0.20514 0.0
H1050 H 0.96896 0.60887 0.18907 0.0
H1051 H 0.03893 0.4942 0.19246 0.0
H1052 H 0.04036 0.60671 0.19619 0.0
H1053 H 0.96795 0.4954 0.18166 0.0
H1054 H 0.03926 0.53481 0.19467 0.0
H1055 H 0.96799 0.56804 0.18714 0.0
C1056 C 0.98454 0.59988 0.19014 0.0
C1057 C 1.00483 0.61168 0.19261 0.0
C1058 C 0.02355 0.52636 0.19183 0.0
C1059 C 1.00373 0.564 0.19053 0.0
C1060 C 0.02328 0.50292 0.19055 0.0
C1061 C 1.00336 0.49086 0.18676 0.0
C1062 C 1.00371 0.53852 0.1894 0.0
C1063 C 0.98376 0.50363 0.18458 0.0
C1064 C 0.98391 0.57638 0.18906 0.0
C1065 C 0.0243 0.59867 0.19411 0.0
N1066 N 0.98445 0.52657 0.18591 0.0
N1067 N 0.02325 0.57577 0.19305 0.0
H1068 H 0.56125 1.00965 0.8126 0.0
H1069 H 0.45996 0.08818 0.84911 0.0
H1070 H 0.56702 0.06056 0.86197 0.0
H1071 H 0.44708 0.02677 0.8151 0.0
H1072 H 0.49888 0.07705 0.85422 0.0
H1073 H 0.52018 1.01304 0.81436 0.0
C1074 C 0.55399 0.02086 0.82453 0.0
C1075 C 0.56808 0.03457 0.83741 0.0
C1076 C 0.48764 0.0658 0.84577 0.0
C1077 C 0.52038 0.0394 0.83875 0.0
C1078 C 0.46521 0.07227 0.8427 0.0
C1079 C 0.4497 0.05851 0.83169 0.0
C1080 C 0.49551 0.0455 0.83725 0.0
C1081 C 0.45809 0.03803 0.82383 0.0
C1082 C 0.53035 0.02301 0.82534 0.0
C1083 C 0.5572 0.04935 0.85191 0.0
N1084 N 0.48025 0.03236 0.82646 0.0
N1085 N 0.53441 0.05151 0.85196 0.0
H1086 H 0.04644 0.60105 0.8206 0.0
H1087 H 0.96968 0.4928 0.79925 0.0
H1088 H 0.97526 0.60528 0.81198 0.0
H1089 H 0.04118 0.49153 0.79274 0.0
H1090 H 0.97169 0.53239 0.80795 0.0
H1091 H 0.04453 0.56101 0.81371 0.0
C1092 C 0.03027 0.59367 0.81731 0.0
C1093 C 1.01095 0.6071 0.81713 0.0
C1094 C 0.98691 0.52374 0.80402 0.0
C1095 C 1.00884 0.56014 0.80866 0.0
C1096 C 0.9859 0.50081 0.79926 0.0
C1097 C 1.00528 0.48829 0.79485 0.0
C1098 C 1.00745 0.53508 0.80409 0.0
C1099 C 0.02568 0.50013 0.79577 0.0
C1100 C 0.02932 0.5706 0.81315 0.0
C1101 C 0.99067 0.59599 0.81252 0.0
N1102 N 0.02618 0.52267 0.80008 0.0
N1103 N 0.99019 0.57337 0.80858 0.0
H1104 H 0.19827 0.60213 0.04245 0.0
H1105 H 0.20611 0.50126 0.95486 0.0
H1106 H 0.20452 0.61413 0.97172 0.0
H1107 H 0.1963 0.49173 0.0255 0.0
H1108 H 0.20688 0.54192 0.96019 0.0
H1109 H 0.19875 0.562 0.0361 0.0
C1110 C 0.19966 0.5964 0.02547 0.0
C1111 C 0.20108 0.61195 1.00763 0.0
C1112 C 0.20455 0.531 0.97455 0.0
C1113 C 0.20185 0.56498 1.00012 0.0
C1114 C 0.2041 0.50763 0.97153 0.0
C1115 C 0.20097 0.49269 0.98972 0.0
C1116 C 0.2019 0.53989 0.996 0.0
C1117 C 0.19865 0.50231 1.01089 0.0
C1118 C 0.19997 0.57326 0.02186 0.0
C1119 C 0.2031 0.60303 0.98606 0.0
N1120 N 0.19913 0.52503 1.01337 0.0
N1121 N 0.20341 0.58031 0.98295 0.0
H1122 H 0.56191 0.25187 0.97583 0.0
H1123 H 0.45728 0.25176 0.0609 0.0
H1124 H 0.56996 0.2598 0.04662 0.0
H1125 H 0.44997 0.2482 0.98966 0.0
H1126 H 0.49792 0.25317 0.05646 0.0
H1127 H 0.52181 0.24697 0.98133 0.0
C1128 C 0.55532 0.25282 0.9926 0.0
C1129 C 0.56979 0.25667 1.01072 0.0
C1130 C 0.48756 0.252 0.04174 0.0
C1131 C 0.52258 0.25207 0.01698 0.0
C1132 C 0.46413 0.25131 0.04422 0.0
C1133 C 0.4497 0.25011 0.02563 0.0
C1134 C 0.49725 0.25111 0.0204 0.0
C1135 C 0.46007 0.24928 1.00457 0.0
C1136 C 0.53212 0.25026 0.99566 0.0
C1137 C 0.55974 0.25716 0.03202 0.0
N1138 N 0.48295 0.24969 1.00261 0.0
N1139 N 0.53695 0.25521 0.03448 0.0
H1140 H 0.81261 0.61854 0.03869 0.0
H1141 H 0.81635 0.50844 0.9631 0.0
H1142 H 0.82288 0.62149 0.9676 0.0
H1143 H 0.7996 0.50636 0.03294 0.0
H1144 H 0.8212 0.54893 0.96503 0.0
H1145 H 0.80873 0.578 0.03695 0.0
C1146 C 0.81417 0.61072 0.0226 0.0
C1147 C 0.81837 0.62388 1.00329 0.0
C1148 C 0.8161 0.53979 0.9799 0.0
C1149 C 0.81394 0.5764 1.00123 0.0
C1150 C 0.81346 0.51645 0.97889 0.0
C1151 C 0.80756 0.50354 0.99791 0.0
C1152 C 0.81204 0.55101 0.99989 0.0
C1153 C 0.80427 0.51531 0.01782 0.0
C1154 C 0.81189 0.58735 0.02167 0.0
C1155 C 0.81981 0.61235 0.98301 0.0
N1156 N 0.80635 0.53819 0.01821 0.0
N1157 N 0.81776 0.58945 0.98257 0.0
H1158 H 0.57397 0.87905 0.98506 0.0
H1159 H 0.45222 0.86701 0.04386 0.0
H1160 H 0.56474 0.86535 0.05519 0.0
H1161 H 0.46147 0.87284 0.97278 0.0
H1162 H 0.49313 0.86804 0.04857 0.0
H1163 H 0.53304 0.87852 0.9803 0.0
C1164 C 0.56344 0.87599 0.99948 0.0
C1165 C 0.57315 0.8723 0.02059 0.0
C1166 C 0.48622 0.86915 0.03192 0.0
C1167 C 0.52577 0.87171 0.01528 0.0
C1168 C 0.46275 0.86859 0.02924 0.0
C1169 C 0.45305 0.86991 1.00788 0.0
C1170 C 0.50042 0.87115 1.01314 0.0
C1171 C 0.46791 0.87183 0.98962 0.0
C1172 C 0.53996 0.87566 0.99676 0.0
C1173 C 0.5583 0.86836 0.03856 0.0
N1174 N 0.49055 0.87244 0.99265 0.0
N1175 N 0.53566 0.86822 0.03553 0.0
H1176 H 0.56193 0.68683 0.97437 0.0
H1177 H 0.49768 0.68401 0.09394 0.0
H1178 H 0.49055 0.69069 0.9811 0.0
H1179 H 0.56917 0.68273 0.08731 0.0
H1180 H 0.49461 0.68609 0.05285 0.0
H1181 H 0.56503 0.68514 0.01546 0.0
C1182 C 0.54691 0.68739 0.98437 0.0
C1183 C 0.52594 0.68888 0.97391 0.0
C1184 C 0.511 0.68529 0.06038 0.0
C1185 C 0.52932 0.68682 0.02147 0.0
C1186 C 0.51272 0.68405 0.08396 0.0
C1187 C 0.5337 0.68299 0.09443 0.0
C1188 C 0.53037 0.68552 0.04689 0.0
C1189 C 0.55257 0.68333 0.08026 0.0
C1190 C 0.54866 0.68638 1.00795 0.0
C1191 C 0.50713 0.68949 0.98813 0.0
N1192 N 0.55046 0.68452 0.05753 0.0
N1193 N 0.50925 0.68843 1.01086 0.0
H1194 H 0.35704 0.44867 0.99785 0.0
H1195 H 0.35069 0.53084 0.10414 0.0
H1196 H 0.35083 0.51976 0.9892 0.0
H1197 H 0.35052 0.45905 0.10804 0.0
H1198 H 0.35182 0.52846 0.06283 0.0
H1199 H 0.35591 0.45323 0.03836 0.0
C1200 C 0.3555 0.46531 1.00441 0.0
C1201 C 0.35411 0.48379 0.98974 0.0
C1202 C 0.35157 0.51325 0.07278 0.0
C1203 C 0.35278 0.48932 0.03704 0.0
C1204 C 0.35097 0.51462 0.09647 0.0
C1205 C 0.35064 0.49514 0.11 0.0
C1206 C 0.35195 0.49223 0.06233 0.0
C1207 C 0.35086 0.47464 0.0987 0.0
C1208 C 0.35482 0.46795 0.02774 0.0
C1209 C 0.35203 0.50494 0.99966 0.0
N1210 N 0.35155 0.47378 0.07594 0.0
N1211 N 0.35148 0.50711 0.02249 0.0
H1212 H 0.51687 0.30493 0.97987 0.0
H1213 H 0.58161 0.30895 0.09914 0.0
H1214 H 0.58817 0.31073 0.98556 0.0
H1215 H 0.51015 0.30684 0.09302 0.0
H1216 H 0.58437 0.31058 0.05792 0.0
H1217 H 0.51399 0.30664 0.02088 0.0
C1218 C 0.53195 0.30668 0.98962 0.0
C1219 C 0.55285 0.30745 0.97882 0.0
C1220 C 0.56809 0.3097 0.06561 0.0
C1221 C 0.54967 0.30955 0.02656 0.0
C1222 C 0.56651 0.30885 0.08928 0.0
C1223 C 0.54562 0.30792 0.10003 0.0
C1224 C 0.5487 0.30933 0.05217 0.0
C1225 C 0.5267 0.30764 0.08587 0.0
C1226 C 0.5303 0.30772 1.01321 0.0
C1227 C 0.57168 0.30987 0.99281 0.0
N1228 N 0.52869 0.30825 0.06305 0.0
N1229 N 0.56967 0.31072 0.01561 0.0
H1230 H 0.74721 0.5431 0.99391 0.0
H1231 H 0.73358 0.46311 0.10299 0.0
H1232 H 0.72892 0.47383 0.9895 0.0
H1233 H 0.73848 0.53463 0.10641 0.0
H1234 H 0.73383 0.4661 0.06202 0.0
H1235 H 0.7471 0.53958 0.03468 0.0
C1236 C 0.74319 0.52702 1.00142 0.0
C1237 C 0.73799 0.50874 0.98775 0.0
C1238 C 0.73509 0.48116 0.07166 0.0
C1239 C 0.73786 0.50455 0.03544 0.0
C1240 C 0.73487 0.4795 0.09522 0.0
C1241 C 0.736 0.49864 0.10859 0.0
C1242 C 0.73713 0.50212 0.06088 0.0
C1243 C 0.73761 0.51933 0.09712 0.0
C1244 C 0.7431 0.52507 0.02491 0.0
C1245 C 0.73317 0.4884 0.99895 0.0
N1246 N 0.7383 0.52047 0.0742 0.0
N1247 N 0.73322 0.48689 0.0219 0.0
H1248 H 0.97939 0.45395 0.72711 0.0
H1249 H 0.08002 0.54102 0.74793 0.0
H1250 H 0.96836 0.52082 0.74881 0.0
H1251 H 0.09079 0.47109 0.73781 0.0
H1252 H 0.03963 0.53461 0.74634 0.0
H1253 H 0.01978 0.46054 0.72824 0.0
C1254 C 0.9854 0.46989 0.73256 0.0
C1255 C 0.97011 0.48639 0.73873 0.0
C1256 C 0.05072 0.52059 0.74436 0.0
C1257 C 0.01711 0.49463 0.73935 0.0
C1258 C 0.07396 0.52422 0.74529 0.0
C1259 C 0.0892 0.50655 0.74286 0.0
C1260 C 0.04215 0.49907 0.74069 0.0
C1261 C 0.07993 0.48521 0.73967 0.0
C1262 C 1.00862 0.47378 0.73297 0.0
C1263 C 0.97926 0.50732 0.74428 0.0
N1264 N 0.05721 0.48212 0.73856 0.0
N1265 N 1.00196 0.51077 0.74454 0.0
H1266 H 0.56532 0.94736 0.72543 0.0
H1267 H 0.48931 0.05905 0.72658 0.0
H1268 H 0.49361 0.94393 0.72555 0.0
H1269 H 0.56089 0.0596 0.72208 0.0
H1270 H 0.48982 0.01781 0.72688 0.0
H1271 H 0.56335 0.98814 0.72519 0.0
C1272 C 0.54904 0.95508 0.72535 0.0
C1273 C 0.52963 0.94161 0.72536 0.0
C1274 C 0.50545 0.02689 0.72581 0.0
C1275 C 0.52721 0.98959 0.72511 0.0
C1276 C 0.50518 0.05061 0.7256 0.0
C1277 C 0.52513 0.06329 0.7246 0.0
C1278 C 0.52584 0.01525 0.72478 0.0
C1279 C 0.54504 0.05094 0.72322 0.0
C1280 C 0.54794 0.97863 0.7252 0.0
C1281 C 0.50913 0.95322 0.72541 0.0
N1282 N 0.54486 0.02799 0.7234 0.0
N1283 N 0.50849 0.97626 0.72528 0.0
H1284 H 0.98476 0.55048 0.35629 0.0
H1285 H 0.09384 0.47147 0.36582 0.0
H1286 H 0.97749 0.4792 0.36297 0.0
H1287 H 0.09406 0.54317 0.35981 0.0
H1288 H 0.05236 0.4721 0.36457 0.0
H1289 H 0.02507 0.54647 0.35717 0.0
C1290 C 0.99159 0.53386 0.35795 0.0
C1291 C 0.97726 0.51523 0.35961 0.0
C1292 C 0.06157 0.48766 0.36358 0.0
C1293 C 0.02469 0.51033 0.36069 0.0
C1294 C 0.08534 0.48731 0.36433 0.0
C1295 C 0.09787 0.50732 0.36312 0.0
C1296 C 0.05009 0.50817 0.36154 0.0
C1297 C 0.08555 0.52723 0.361 0.0
C1298 C 0.01488 0.53154 0.35846 0.0
C1299 C 0.98764 0.49414 0.36162 0.0
N1300 N 0.0628 0.52708 0.36032 0.0
N1301 N 1.01057 0.49228 0.36215 0.0
H1302 H 0.51108 0.06572 0.3541 0.0
H1303 H 0.56861 0.94403 0.3411 0.0
H1304 H 0.5814 0.05675 0.34312 0.0
H1305 H 0.49815 0.95317 0.35093 0.0
H1306 H 0.57368 0.98492 0.34165 0.0
H1307 H 0.50592 0.02489 0.35248 0.0
C1308 C 0.52544 0.05529 0.35126 0.0
C1309 C 0.54675 0.06508 0.34885 0.0
C1310 C 0.55708 0.97802 0.34365 0.0
C1311 C 0.54096 0.01766 0.34703 0.0
C1312 C 0.55419 0.95452 0.34345 0.0
C1313 C 0.53291 0.94476 0.34625 0.0
C1314 C 0.53858 0.99224 0.34651 0.0
C1315 C 0.51493 0.95963 0.34892 0.0
C1316 C 0.52251 0.03182 0.35037 0.0
C1317 C 0.56463 0.05027 0.34521 0.0
N1318 N 0.51815 0.9823 0.34901 0.0
N1319 N 0.56137 0.02763 0.34448 0.0
H1320 H 0.71082 0.94252 0.56943 0.0
H1321 H 0.75408 0.06223 0.5224 0.0
H1322 H 0.72852 0.95374 0.50053 0.0
H1323 H 0.71685 0.05452 0.58346 0.0
H1324 H 0.74817 0.02219 0.51515 0.0
H1325 H 0.71627 0.98266 0.57612 0.0
C1326 C 0.71584 0.95336 0.55569 0.0
C1327 C 0.71888 0.94455 0.53428 0.0
C1328 C 0.74122 0.02926 0.53011 0.0
C1329 C 0.72572 0.99088 0.54198 0.0
C1330 C 0.7446 0.05219 0.53426 0.0
C1331 C 0.73626 0.0619 0.55376 0.0
C1332 C 0.72927 0.0157 0.5455 0.0
C1333 C 0.72392 0.04788 0.56836 0.0
C1334 C 0.71896 0.97637 0.55952 0.0
C1335 C 0.72567 0.95964 0.51726 0.0
N1336 N 0.72091 0.0257 0.56401 0.0
N1337 N 0.72893 0.98182 0.52147 0.0
H1338 H 0.07814 0.70189 0.51668 0.0
H1339 H 0.97406 0.69403 0.60232 0.0
H1340 H 0.0872 0.69825 0.58788 0.0
H1341 H 0.96672 0.69661 0.53092 0.0
H1342 H 0.01481 0.69581 0.59781 0.0
H1343 H 0.03776 0.70027 0.52199 0.0
C1344 C 0.07173 0.70068 0.53354 0.0
C1345 C 0.08656 0.70008 0.55182 0.0
C1346 C 1.00438 0.69598 0.58308 0.0
C1347 C 0.03924 0.69829 0.55811 0.0
C1348 C 0.98094 0.69495 0.58563 0.0
C1349 C 0.96656 0.69507 0.56699 0.0
C1350 C 0.01398 0.6972 0.56165 0.0
C1351 C 0.97685 0.69638 0.54585 0.0
C1352 C 0.04843 0.69978 0.53654 0.0
C1353 C 0.07672 0.69869 0.57319 0.0
N1354 N 0.99967 0.69738 0.54382 0.0
N1355 N 0.05388 0.69783 0.5757 0.0
H1356 H 0.35678 0.9529 0.49734 0.0
H1357 H 0.33363 0.06624 0.56396 0.0
H1358 H 0.34122 0.95371 0.56744 0.0
H1359 H 0.35665 0.06631 0.4959 0.0
H1360 H 0.33477 0.02552 0.56484 0.0
H1361 H 0.35549 0.99372 0.4961 0.0
C1362 C 0.3532 0.96161 0.5126 0.0
C1363 C 0.34937 0.94947 0.53262 0.0
C1364 C 0.3396 0.0343 0.54966 0.0
C1365 C 0.34756 0.99709 0.53116 0.0
C1366 C 0.33893 0.05777 0.54906 0.0
C1367 C 0.34514 0.07018 0.5298 0.0
C1368 C 0.34646 0.02252 0.53081 0.0
C1369 C 0.3517 0.05777 0.51115 0.0
C1370 C 0.35244 0.9851 0.51182 0.0
C1371 C 0.34457 0.96208 0.55166 0.0
N1372 N 0.35219 0.03481 0.51215 0.0
N1373 N 0.34378 0.985 0.55043 0.0
H1374 H 0.10435 0.31121 0.51257 0.0
H1375 H 0.98178 0.31895 0.56988 0.0
H1376 H 0.09297 0.33383 0.57938 0.0
H1377 H 0.99096 0.30125 0.50122 0.0
H1378 H 0.02217 0.32561 0.57292 0.0
H1379 H 0.06352 0.30757 0.50755 0.0
C1380 C 0.09337 0.31571 0.5261 0.0
C1381 C 0.10248 0.32289 0.54647 0.0
C1382 C 0.01552 0.31981 0.55727 0.0
C1383 C 0.05516 0.31878 0.5408 0.0
C1384 C 0.99227 0.31604 0.55552 0.0
C1385 C 0.98263 0.30931 0.5353 0.0
C1386 C 0.02982 0.31595 0.53899 0.0
C1387 C 0.99743 0.3063 0.51723 0.0
C1388 C 0.06993 0.31355 0.52325 0.0
C1389 C 0.08705 0.32822 0.56335 0.0
N1390 N 0.02004 0.30935 0.51956 0.0
N1391 N 0.0645 0.32616 0.56012 0.0
H1392 H 0.96792 0.28281 0.30426 0.0
H1393 H 0.02956 0.35897 0.20988 0.0
H1394 H 0.03903 0.28362 0.29417 0.0
H1395 H 0.95831 0.34994 0.21173 0.0
H1396 H 0.03314 0.33146 0.24049 0.0
H1397 H 0.96371 0.30688 0.27075 0.0
C1398 C 0.98266 0.28773 0.29493 0.0
C1399 C 1.0039 0.28084 0.30233 0.0
C1400 C 0.01669 0.33524 0.23409 0.0
C1401 C 0.99918 0.30914 0.26369 0.0
C1402 C 0.01465 0.35099 0.21641 0.0
C1403 C 0.99362 0.3569 0.20772 0.0
C1404 C 0.99756 0.32519 0.24371 0.0
C1405 C 0.97495 0.34592 0.21741 0.0
C1406 C 0.98024 0.30164 0.27574 0.0
C1407 C 0.02227 0.28824 0.28936 0.0
N1408 N 0.97734 0.33091 0.23479 0.0
N1409 N 0.01951 0.30192 0.27104 0.0
H1410 H 0.77678 1.01127 0.33133 0.0
H1411 H 0.71166 0.08381 0.23789 0.0
H1412 H 0.79862 0.07684 0.31015 0.0
H1413 H 0.70277 1.01281 0.24625 0.0
H1414 H 0.74335 0.08198 0.26415 0.0
H1415 H 0.74953 1.01146 0.30052 0.0
C1416 C 0.77622 0.02552 0.32003 0.0
C1417 C 0.79031 0.044 0.32353 0.0
C1418 C 0.73462 0.06674 0.26001 0.0
C1419 C 0.75838 0.04467 0.28829 0.0
C1420 C 0.71658 0.06778 0.2448 0.0
C1421 C 0.70436 0.04844 0.23955 0.0
C1422 C 0.74046 0.04628 0.27044 0.0
C1423 C 0.71151 0.02823 0.24961 0.0
C1424 C 0.76048 0.02572 0.30245 0.0
C1425 C 0.78829 0.06212 0.30829 0.0
N1426 N 0.72871 0.02774 0.26457 0.0
N1427 N 0.77262 0.0621 0.2917 0.0
H1428 H 0.98586 0.82315 0.31708 0.0
H1429 H 0.06306 0.73537 0.25237 0.0
H1430 H 0.05397 0.81006 0.33566 0.0
H1431 H 0.99151 0.73562 0.24606 0.0
H1432 H 0.06067 0.7654 0.2794 0.0
H1433 H 0.98842 0.79468 0.28829 0.0
C1434 C 1.00153 0.81454 0.31501 0.0
C1435 C 0.01976 0.8194 0.3291 0.0
C1436 C 0.04544 0.75904 0.27211 0.0
C1437 C 0.02277 0.78612 0.2955 0.0
C1438 C 0.04675 0.7418 0.25645 0.0
C1439 C 0.02745 0.73257 0.2466 0.0
C1440 C 0.02464 0.7678 0.27817 0.0
C1441 C 1.00692 0.74199 0.25294 0.0
C1442 C 1.0029 0.79806 0.29851 0.0
C1443 C 0.03946 0.80725 0.32533 0.0
N1444 N 1.00609 0.75895 0.26815 0.0
N1445 N 0.04041 0.79137 0.30903 0.0
H1446 H 0.32773 1.01248 0.25377 0.0
H1447 H 0.23437 0.08112 0.321 0.0
H1448 H 0.31001 0.08017 0.23683 0.0
H1449 H 0.23737 1.00934 0.32306 0.0
H1450 H 0.26314 0.08147 0.29162 0.0
H1451 H 0.29623 1.01103 0.28038 0.0
C1452 C 0.31716 0.02694 0.25537 0.0
C1453 C 0.32177 0.04643 0.2427 0.0
C1454 C 0.25736 0.06561 0.29834 0.0
C1455 C 0.28564 0.04511 0.2739 0.0
C1456 C 0.24072 0.0654 0.31512 0.0
C1457 C 0.23297 0.04518 0.32468 0.0
C1458 C 0.26686 0.04547 0.29106 0.0
C1459 C 0.24247 0.02542 0.31633 0.0
C1460 C 0.29914 0.02616 0.27071 0.0
C1461 C 0.30734 0.06469 0.24599 0.0
N1462 N 0.25885 0.02609 0.30036 0.0
N1463 N 0.29032 0.06364 0.26121 0.0
H1464 H 0.04522 0.73485 0.78223 0.0
H1465 H 0.988 0.83458 0.71087 0.0
H1466 H 0.97577 0.75191 0.78764 0.0
H1467 H 0.05922 0.82977 0.7188 0.0
H1468 H 0.98334 0.80374 0.73802 0.0
H1469 H 0.05105 0.76843 0.7584 0.0
C1470 C 0.03124 0.74568 0.77869 0.0
C1471 C 1.00994 0.74026 0.78723 0.0
C1472 C 1.00001 0.80956 0.73405 0.0
C1473 C 0.01643 0.77886 0.75928 0.0
C1474 C 1.00269 0.82739 0.71856 0.0
C1475 C 0.02404 0.83531 0.71248 0.0
C1476 C 0.0188 0.79897 0.74354 0.0
C1477 C 0.04236 0.82467 0.72295 0.0
C1478 C 0.03456 0.7649 0.76495 0.0
C1479 C 0.99252 0.75513 0.78165 0.0
N1480 N 0.03934 0.80711 0.73763 0.0
N1481 N 0.99609 0.77337 0.76806 0.0
H1482 H 0.30487 0.03337 0.79231 0.0
H1483 H 0.26006 0.11314 0.69315 0.0
H1484 H 0.32976 0.09983 0.7794 0.0
H1485 H 0.22918 0.04968 0.70838 0.0
H1486 H 0.28405 0.10874 0.72564 0.0
H1487 H 0.27609 0.03925 0.76367 0.0
C1488 C 0.30406 0.04942 0.78381 0.0
C1489 C 0.31992 0.06617 0.7887 0.0
C1490 C 0.27196 0.09577 0.72217 0.0
C1491 C 0.2868 0.07288 0.75501 0.0
C1492 C 0.25806 0.09826 0.70345 0.0
C1493 C 0.2422 0.08183 0.69772 0.0
C1494 C 0.27062 0.07645 0.73565 0.0
C1495 C 0.24081 0.06298 0.71205 0.0
C1496 C 0.28759 0.05269 0.76726 0.0
C1497 C 0.31793 0.08645 0.77667 0.0
N1498 N 0.2549 0.06074 0.73011 0.0
N1499 N 0.30197 0.08909 0.76043 0.0
H1500 H 0.97636 0.34977 0.7842 0.0
H1501 H 0.02772 0.27478 0.68626 0.0
H1502 H 0.04544 0.35048 0.76493 0.0
H1503 H 0.95857 0.27107 0.70557 0.0
H1504 H 0.03482 0.29995 0.7173 0.0
H1505 H 0.9699 0.31834 0.75878 0.0
C1506 C 0.99026 0.34313 0.77494 0.0
C1507 C 1.01139 0.35334 0.77645 0.0
C1508 C 0.01811 0.29348 0.71499 0.0
C1509 C 1.0041 0.31732 0.74692 0.0
C1510 C 0.01405 0.27892 0.69722 0.0
C1511 C 0.99249 0.27053 0.6931 0.0
C1512 C 1.00051 0.30007 0.72898 0.0
C1513 C 0.97551 0.27688 0.708 0.0
C1514 C 0.98654 0.32524 0.76026 0.0
C1515 C 0.02877 0.34368 0.76412 0.0
N1516 N 0.97982 0.2913 0.72502 0.0
N1517 N 0.02469 0.32664 0.74978 0.0
H1518 H 0.75099 0.09493 0.69769 0.0
H1519 H 0.71991 0.01759 0.80488 0.0
H1520 H 0.79286 0.04028 0.71849 0.0
H1521 H 0.68074 0.07298 0.78098 0.0
H1522 H 0.74755 0.02565 0.77524 0.0
H1523 H 0.72636 0.08716 0.72911 0.0
C1524 C 0.75519 0.08127 0.70893 0.0
C1525 C 0.77435 0.06836 0.70515 0.0
C1526 C 0.733 0.03614 0.77657 0.0
C1527 C 0.7454 0.05909 0.74198 0.0
C1528 C 0.71719 0.03161 0.79364 0.0
C1529 C 0.69778 0.04464 0.79571 0.0
C1530 C 0.72955 0.05387 0.76125 0.0
C1531 C 0.69532 0.06244 0.78031 0.0
C1532 C 0.74092 0.07681 0.72703 0.0
C1533 C 0.77846 0.05084 0.72059 0.0
N1534 N 0.71079 0.06641 0.76393 0.0
N1535 N 0.76416 0.04671 0.73819 0.0
H1536 H 0.32036 0.29464 0.05335 0.0
H1537 H 0.22957 0.35862 0.97634 0.0
H1538 H 0.30726 0.27737 0.9851 0.0
H1539 H 0.22834 0.36118 0.04811 0.0
H1540 H 0.25897 0.33015 0.97896 0.0
H1541 H 0.28799 0.32004 0.05194 0.0
C1542 C 0.3106 0.29584 0.03819 0.0
C1543 C 0.31681 0.2835 0.01939 0.0
C1544 C 0.25209 0.33675 0.99418 0.0
C1545 C 0.27973 0.31334 0.01739 0.0
C1546 C 0.2351 0.35302 0.99266 0.0
C1547 C 0.22601 0.36254 1.01197 0.0
C1548 C 0.26058 0.32989 0.01517 0.0
C1549 C 0.23447 0.3545 0.03263 0.0
C1550 C 0.29211 0.31053 0.03732 0.0
C1551 C 0.30338 0.28632 1.00014 0.0
N1552 N 0.25121 0.33902 0.03364 0.0
N1553 N 0.28589 0.30089 0.9996 0.0
H1554 H 0.3138 0.83011 0.04729 0.0
H1555 H 0.24137 0.75117 0.9677 0.0
H1556 H 0.32606 0.82561 0.97669 0.0
H1557 H 0.24758 0.7377 0.03823 0.0
H1558 H 0.26753 0.78231 0.97107 0.0
H1559 H 0.28538 0.80077 0.04441 0.0
C1560 C 0.31037 0.82325 0.03104 0.0
C1561 C 0.32258 0.83068 1.01216 0.0
C1562 C 0.26313 0.77269 0.98588 0.0
C1563 C 0.28945 0.79659 1.00883 0.0
C1564 C 0.24799 0.75483 0.98405 0.0
C1565 C 0.24203 0.74142 1.00271 0.0
C1566 C 0.27246 0.77786 1.00665 0.0
C1567 C 0.25144 0.7474 0.02334 0.0
C1568 C 0.29413 0.80627 0.0295 0.0
C1569 C 0.31717 0.82072 0.99171 0.0
N1570 N 0.26606 0.76508 0.02474 0.0
N1571 N 0.30108 0.80438 0.99061 0.0
H1572 H 0.78398 0.36828 0.97948 0.0
H1573 H 0.70959 0.28253 0.05361 0.0
H1574 H 0.78338 0.3658 0.05119 0.0
H1575 H 0.70391 0.2865 0.98212 0.0
H1576 H 0.74012 0.30952 0.05204 0.0
H1577 H 0.75859 0.33568 0.97913 0.0
C1578 C 0.77877 0.36074 0.99512 0.0
C1579 C 0.7858 0.37015 0.01532 0.0
C1580 C 0.73233 0.30456 0.03659 0.0
C1581 C 0.75637 0.33269 0.01518 0.0
C1582 C 0.71479 0.28894 0.03744 0.0
C1583 C 0.70337 0.28258 0.01798 0.0
C1584 C 0.73903 0.31412 0.01606 0.0
C1585 C 0.71153 0.29143 0.99762 0.0
C1586 C 0.76415 0.34216 0.99494 0.0
C1587 C 0.77853 0.3594 0.03512 0.0
N1588 N 0.72859 0.30685 0.99719 0.0
N1589 N 0.7642 0.34158 0.03452 0.0
H1590 H 0.77452 0.7427 0.0316 0.0
H1591 H 0.71955 0.85608 0.98178 0.0
H1592 H 0.79093 0.77148 0.96739 0.0
H1593 H 0.69544 0.82368 0.04177 0.0
H1594 H 0.74829 0.82741 0.97867 0.0
H1595 H 0.7485 0.77371 0.03786 0.0
C1596 C 0.773 0.75567 0.01893 0.0
C1597 C 0.78526 0.75427 0.99891 0.0
C1598 C 0.7369 0.82658 0.99267 0.0
C1599 C 0.75497 0.79016 1.00599 0.0
C1600 C 0.72044 0.84316 0.99456 0.0
C1601 C 0.70482 0.84266 1.01215 0.0
C1602 C 0.73817 0.809 1.00849 0.0
C1603 C 0.70704 0.82509 0.02798 0.0
C1604 C 0.75793 0.77338 0.02247 0.0
C1605 C 0.78208 0.77166 0.98312 0.0
N1606 N 0.7232 0.80908 0.02574 0.0
N1607 N 0.76741 0.78864 0.98696 0.0
H1608 H 0.56177 0.71795 0.82982 0.0
H1609 H 0.48037 0.80256 0.76326 0.0
H1610 H 0.49209 0.72476 0.84562 0.0
H1611 H 0.55194 0.80861 0.76069 0.0
H1612 H 0.48403 0.7709 0.78927 0.0
H1613 H 0.55801 0.74722 0.80105 0.0
C1614 C 0.54551 0.72526 0.82708 0.0
C1615 C 0.52719 0.71844 0.8404 0.0
C1616 C 0.49899 0.77897 0.78294 0.0
C1617 C 0.5228 0.75265 0.80689 0.0
C1618 C 0.49696 0.79712 0.76785 0.0
C1619 C 0.51587 0.8086 0.75941 0.0
C1620 C 0.52017 0.77163 0.78984 0.0
C1621 C 0.53681 0.80043 0.76641 0.0
C1622 C 0.54346 0.74222 0.81062 0.0
C1623 C 0.50671 0.72908 0.83585 0.0
N1624 N 0.53836 0.78262 0.78107 0.0
N1625 N 0.50511 0.74545 0.81963 0.0
H1626 H 0.22964 0.46739 0.77325 0.0
H1627 H 0.30286 0.53522 0.86251 0.0
H1628 H 0.21551 0.53523 0.79091 0.0
H1629 H 0.30533 0.46366 0.85778 0.0
H1630 H 0.27484 0.53631 0.83293 0.0
H1631 H 0.26043 0.46684 0.80006 0.0
C1632 C 0.23312 0.48239 0.7825 0.0
C1633 C 0.21963 0.50146 0.77947 0.0
C1634 C 0.28157 0.52034 0.83813 0.0
C1635 C 0.25559 0.5008 0.81082 0.0
C1636 C 0.29782 0.51964 0.85506 0.0
C1637 C 0.30685 0.49928 0.86295 0.0
C1638 C 0.27399 0.50054 0.8284 0.0
C1639 C 0.29924 0.47981 0.85236 0.0
C1640 C 0.25078 0.48194 0.79802 0.0
C1641 C 0.2253 0.52016 0.79232 0.0
N1642 N 0.28336 0.48094 0.83579 0.0
N1643 N 0.24269 0.51934 0.80728 0.0
H1644 H 0.5823 0.19144 0.77421 0.0
H1645 H 0.50659 0.28057 0.83701 0.0
H1646 H 0.51362 0.20295 0.75686 0.0
H1647 H 0.57693 0.27272 0.84905 0.0
H1648 H 0.50938 0.25513 0.80549 0.0
H1649 H 0.58133 0.22353 0.79887 0.0
C1650 C 0.56712 0.20108 0.77514 0.0
C1651 C 0.54811 0.19449 0.76311 0.0
C1652 C 0.52431 0.2592 0.81477 0.0
C1653 C 0.54661 0.23128 0.79226 0.0
C1654 C 0.52276 0.27389 0.83278 0.0
C1655 C 0.54156 0.279 0.84589 0.0
C1656 C 0.5448 0.24917 0.8097 0.0
C1657 C 0.56198 0.26952 0.83951 0.0
C1658 C 0.56653 0.21939 0.78943 0.0
C1659 C 0.52882 0.20754 0.76541 0.0
N1660 N 0.56298 0.25498 0.82216 0.0
N1661 N 0.5285 0.22505 0.77987 0.0
H1662 H 0.75215 0.46202 0.84766 0.0
H1663 H 0.83422 0.5341 0.76847 0.0
H1664 H 0.76463 0.53225 0.85622 0.0
H1665 H 0.83835 0.46254 0.77488 0.0
H1666 H 0.80308 0.53377 0.79481 0.0
H1667 H 0.77779 0.46235 0.81585 0.0
C1668 C 0.75989 0.47767 0.84263 0.0
C1669 C 0.75607 0.49718 0.85486 0.0
C1670 C 0.81056 0.51809 0.79027 0.0
C1671 C 0.78576 0.49756 0.81808 0.0
C1672 C 0.8283 0.5182 0.77502 0.0
C1673 C 0.83916 0.49831 0.76932 0.0
C1674 C 0.80318 0.49789 0.79995 0.0
C1675 C 0.83057 0.4783 0.77857 0.0
C1676 C 0.77472 0.47775 0.82448 0.0
C1677 C 0.76687 0.51682 0.84739 0.0
N1678 N 0.81324 0.47862 0.79346 0.0
N1679 N 0.78119 0.51648 0.82963 0.0
H1680 H 0.58196 0.19818 0.32809 0.0
H1681 H 0.51746 0.26516 0.22928 0.0
H1682 H 0.51045 0.20375 0.32562 0.0
H1683 H 0.58811 0.27129 0.24071 0.0
H1684 H 0.51441 0.24211 0.26368 0.0
H1685 H 0.58463 0.22406 0.29585 0.0
C1686 C 0.56681 0.20498 0.32103 0.0
C1687 C 0.54599 0.19851 0.33001 0.0
C1688 C 0.53058 0.24861 0.25875 0.0
C1689 C 0.54885 0.22836 0.29228 0.0
C1690 C 0.53231 0.2619 0.23903 0.0
C1691 C 0.55307 0.2705 0.23179 0.0
C1692 C 0.54976 0.24343 0.27149 0.0
C1693 C 0.57168 0.26529 0.24537 0.0
C1694 C 0.56833 0.21982 0.30247 0.0
C1695 C 0.52698 0.20813 0.31973 0.0
N1696 N 0.56961 0.25214 0.26419 0.0
N1697 N 0.52887 0.22222 0.30154 0.0
H1698 H 0.77731 0.55355 0.23611 0.0
H1699 H 0.83257 0.47888 0.33441 0.0
H1700 H 0.76674 0.4827 0.24201 0.0
H1701 H 0.85036 0.54747 0.32089 0.0
H1702 H 0.80466 0.4809 0.30453 0.0
H1703 H 0.79923 0.55253 0.27054 0.0
C1704 C 0.77889 0.53781 0.24509 0.0
C1705 C 0.76941 0.51829 0.23621 0.0
C1706 C 0.81443 0.49562 0.30822 0.0
C1707 C 0.79576 0.51682 0.27585 0.0
C1708 C 0.8304 0.49456 0.3255 0.0
C1709 C 0.84405 0.51309 0.33057 0.0
C1710 C 0.81167 0.51543 0.29565 0.0
C1711 C 0.8403 0.53276 0.31796 0.0
C1712 C 0.79178 0.53721 0.2647 0.0
C1713 C 0.77295 0.49832 0.24841 0.0
N1714 N 0.82467 0.53336 0.30123 0.0
N1715 N 0.78586 0.49809 0.26739 0.0
H1716 H 0.56329 0.73195 0.21588 0.0
H1717 H 0.50137 0.8189 0.29691 0.0
H1718 H 0.49336 0.72658 0.2316 0.0
H1719 H 0.57268 0.81079 0.2948 0.0
H1720 H 0.49749 0.78661 0.27195 0.0
H1721 H 0.56674 0.762 0.24328 0.0
C1722 C 0.54869 0.73684 0.22519 0.0
C1723 C 0.52804 0.72632 0.22126 0.0
C1724 C 0.51399 0.79185 0.27706 0.0
C1725 C 0.53174 0.76158 0.25268 0.0
C1726 C 0.5162 0.81033 0.29145 0.0
C1727 C 0.5374 0.81789 0.29824 0.0
C1728 C 0.53309 0.78083 0.26898 0.0
C1729 C 0.55592 0.80588 0.29021 0.0
C1730 C 0.55064 0.75417 0.24086 0.0
C1731 C 0.50972 0.73389 0.23392 0.0
N1732 N 0.55336 0.78835 0.27607 0.0
N1733 N 0.51195 0.75097 0.24873 0.0
H1734 H 0.31108 0.47788 0.23521 0.0
H1735 H 0.21903 0.52975 0.31818 0.0
H1736 H 0.30135 0.54852 0.24237 0.0
H1737 H 0.23334 0.45954 0.31551 0.0
H1738 H 0.24938 0.53703 0.29133 0.0
H1739 H 0.28355 0.47096 0.26498 0.0
C1740 C 0.30343 0.49201 0.24318 0.0
C1741 C 0.30889 0.51389 0.23605 0.0
C1742 C 0.24603 0.52002 0.2967 0.0
C1743 C 0.27658 0.50595 0.27041 0.0
C1744 C 0.22865 0.51583 0.31219 0.0
C1745 C 0.22338 0.49394 0.31943 0.0
C1746 C 0.25845 0.50223 0.28798 0.0
C1747 C 0.23659 0.47671 0.31067 0.0
C1748 C 0.28753 0.48801 0.26021 0.0
C1749 C 0.29798 0.53135 0.24715 0.0
N1750 N 0.25323 0.48119 0.2955 0.0
N1751 N 0.28243 0.52703 0.26348 0.0
H1752 H 0.75526 0.81152 0.58377 0.0
H1753 H 0.83266 0.72827 0.51414 0.0
H1754 H 0.76618 0.8203 0.51315 0.0
H1755 H 0.8363 0.73387 0.5856 0.0
H1756 H 0.80443 0.75765 0.5131 0.0
H1757 H 0.7803 0.77958 0.584 0.0
C1758 C 0.76269 0.80664 0.56813 0.0
C1759 C 0.75836 0.81902 0.54838 0.0
C1760 C 0.81119 0.75236 0.52905 0.0
C1761 C 0.78764 0.78161 0.54864 0.0
C1762 C 0.8273 0.73533 0.52976 0.0
C1763 C 0.83712 0.72819 0.55006 0.0
C1764 C 0.80426 0.7625 0.54883 0.0
C1765 C 0.8293 0.73843 0.56955 0.0
C1766 C 0.77719 0.7883 0.56838 0.0
C1767 C 0.76872 0.81145 0.52879 0.0
N1768 N 0.81348 0.75491 0.56843 0.0
N1769 N 0.7828 0.79338 0.52944 0.0
H1770 H 0.84138 0.27861 0.58304 0.0
H1771 H 0.76968 0.1946 0.50754 0.0
H1772 H 0.85108 0.27121 0.51236 0.0
H1773 H 0.75895 0.20057 0.57821 0.0
H1774 H 0.79685 0.2249 0.50883 0.0
H1775 H 0.8096 0.25268 0.58145 0.0
C1776 C 0.83658 0.27195 0.56704 0.0
C1777 C 0.84911 0.27741 0.54777 0.0
C1778 C 0.78858 0.21973 0.52413 0.0
C1779 C 0.81239 0.24714 0.54589 0.0
C1780 C 0.77278 0.20236 0.52344 0.0
C1781 C 0.76208 0.19434 0.54299 0.0
C1782 C 0.79403 0.22965 0.54452 0.0
C1783 C 0.76713 0.20554 0.56285 0.0
C1784 C 0.81842 0.25695 0.56621 0.0
C1785 C 0.84201 0.26782 0.52766 0.0
N1786 N 0.78278 0.22236 0.56316 0.0
N1787 N 0.82437 0.25319 0.52731 0.0
H1788 H 0.20801 0.75309 0.51908 0.0
H1789 H 0.30648 0.81337 0.58771 0.0
H1790 H 0.23369 0.72866 0.58187 0.0
H1791 H 0.29052 0.83278 0.52017 0.0
H1792 H 0.28007 0.78222 0.58515 0.0
H1793 H 0.23776 0.78175 0.51824 0.0
C1794 C 0.22005 0.75345 0.53252 0.0
C1795 C 0.21817 0.73813 0.55054 0.0
C1796 C 0.2824 0.79308 0.57074 0.0
C1797 C 0.25233 0.77152 0.5499 0.0
C1798 C 0.29763 0.81095 0.57218 0.0
C1799 C 0.30106 0.82586 0.55411 0.0
C1800 C 0.2699 0.78991 0.55114 0.0
C1801 C 0.28875 0.82172 0.53451 0.0
C1802 C 0.23704 0.76997 0.53209 0.0
C1803 C 0.23429 0.73987 0.56756 0.0
N1804 N 0.27368 0.80438 0.53363 0.0
N1805 N 0.25037 0.75617 0.56688 0.0
H1806 H 0.22306 0.27033 0.57083 0.0
H1807 H 0.31735 0.21524 0.4938 0.0
H1808 H 0.24736 0.29995 0.50955 0.0
H1809 H 0.304 0.19095 0.5603 0.0
H1810 H 0.29319 0.24731 0.50058 0.0
H1811 H 0.25309 0.24233 0.56889 0.0
C1812 C 0.23497 0.27138 0.55728 0.0
C1813 C 0.23254 0.28788 0.54042 0.0
C1814 C 0.29581 0.23529 0.51396 0.0
C1815 C 0.26695 0.25523 0.53776 0.0
C1816 C 0.30998 0.21705 0.51017 0.0
C1817 C 0.31349 0.20055 0.52671 0.0
C1818 C 0.28422 0.23703 0.53433 0.0
C1819 C 0.30237 0.20343 0.5472 0.0
C1820 C 0.25208 0.25519 0.55606 0.0
C1821 C 0.24842 0.28779 0.52304 0.0
N1822 N 0.28817 0.22102 0.55035 0.0
N1823 N 0.26458 0.27181 0.52209 0.0
H1824 H 0.07734 0.22607 0.37813 0.0
H1825 H 0.11167 0.09898 0.35493 0.0
H1826 H 0.03112 0.17832 0.35088 0.0
H1827 H 0.15699 0.14978 0.37772 0.0
H1828 H 0.08188 0.12713 0.35275 0.0
H1829 H 0.10642 0.19788 0.37776 0.0
C1830 C 0.07325 0.20964 0.37202 0.0
C1831 C 0.05161 0.20468 0.36454 0.0
C1832 C 0.09838 0.13211 0.35811 0.0
C1833 C 0.08522 0.17192 0.36412 0.0
C1834 C 0.1154 0.11606 0.3593 0.0
C1835 C 0.13689 0.12201 0.3665 0.0
C1836 C 0.10287 0.15427 0.36425 0.0
C1837 C 0.14072 0.14437 0.37207 0.0
C1838 C 0.08997 0.19347 0.3718 0.0
C1839 C 0.04752 0.18298 0.3568 0.0
N1840 N 0.12396 0.15956 0.3709 0.0
N1841 N 0.06411 0.16742 0.35685 0.0
H1842 H 0.96033 0.16313 0.34783 0.0
H1843 H 0.84083 0.12374 0.3949 0.0
H1844 H 0.91163 0.207 0.37627 0.0
H1845 H 0.88721 0.07829 0.36497 0.0
H1846 H 0.86691 0.15428 0.38774 0.0
H1847 H 0.934 0.13179 0.35288 0.0
C1848 C 0.94403 0.16619 0.35489 0.0
C1849 C 0.93813 0.18766 0.36164 0.0
C1850 C 0.87147 0.13765 0.38272 0.0
C1851 C 0.90811 0.15201 0.36769 0.0
C1852 C 0.85655 0.12013 0.38688 0.0
C1853 C 0.86181 0.09835 0.38058 0.0
C1854 C 0.89193 0.1335 0.37216 0.0
C1855 C 0.88247 0.09481 0.37017 0.0
C1856 C 0.92906 0.14831 0.35787 0.0
C1857 C 0.91688 0.19072 0.37084 0.0
N1858 N 0.89678 0.11219 0.36628 0.0
N1859 N 0.90273 0.17313 0.37365 0.0
H1860 H 0.98854 0.92654 0.36752 0.0
H1861 H 0.86571 0.96054 0.40806 0.0
H1862 H 0.94327 0.88334 0.40405 0.0
H1863 H 0.90282 1.00158 0.36135 0.0
H1864 H 0.89564 0.9333 0.40793 0.0
H1865 H 0.95923 0.95531 0.36606 0.0
C1866 C 0.97253 0.92307 0.37522 0.0
C1867 C 0.96847 0.90239 0.38593 0.0
C1868 C 0.89736 0.94819 0.39761 0.0
C1869 C 0.93493 0.93524 0.38441 0.0
C1870 C 0.8802 0.96382 0.39771 0.0
C1871 C 0.88168 0.98339 0.38466 0.0
C1872 C 0.91648 0.95202 0.38448 0.0
C1873 C 0.90096 0.98667 0.37161 0.0
C1874 C 0.95579 0.93949 0.37434 0.0
C1875 C 0.94734 0.89891 0.39558 0.0
N1876 N 0.91765 0.97119 0.37189 0.0
N1877 N 0.93156 0.91507 0.39463 0.0
H1878 H 0.13051 0.02348 0.35899 0.0
H1879 H 0.10717 0.8965 0.39682 0.0
H1880 H 0.17365 0.9835 0.4009 0.0
H1881 H 0.06075 0.93366 0.35609 0.0
H1882 H 0.13253 0.92827 0.39603 0.0
H1883 H 0.10514 0.99119 0.35588 0.0
C1884 C 0.13464 1.00801 0.36755 0.0
C1885 C 0.15424 1.00628 0.38029 0.0
C1886 C 0.11689 0.92958 0.38711 0.0
C1887 C 0.12549 0.96938 0.37666 0.0
C1888 C 0.10242 0.91135 0.3875 0.0
C1889 C 0.08184 0.91248 0.37654 0.0
C1890 C 0.11076 0.94932 0.3758 0.0
C1891 C 0.07654 0.93214 0.3647 0.0
C1892 C 0.1202 0.98959 0.36571 0.0
C1893 C 0.15877 0.98578 0.39094 0.0
N1894 N 0.09086 0.94992 0.36477 0.0
N1895 N 0.14457 0.96827 0.38887 0.0
H1896 H 0.1747 0.97712 0.64335 0.0
H1897 H 0.04717 0.94227 0.66611 0.0
H1898 H 0.12721 0.02103 0.67363 0.0
H1899 H 0.09791 0.8962 0.6455 0.0
H1900 H 0.07584 0.97154 0.66869 0.0
H1901 H 0.14664 0.94726 0.64412 0.0
C1902 C 0.15844 0.98038 0.65042 0.0
C1903 C 0.15331 1.00156 0.65849 0.0
C1904 C 0.08067 0.95499 0.66367 0.0
C1905 C 0.12087 0.96757 0.65908 0.0
C1906 C 0.06428 0.93828 0.66214 0.0
C1907 C 0.07005 0.9167 0.65552 0.0
C1908 C 0.10299 0.95014 0.65842 0.0
C1909 C 0.09258 0.91255 0.65065 0.0
C1910 C 0.14237 0.96336 0.65078 0.0
C1911 C 0.1319 1.00491 0.66732 0.0
N1912 N 0.10812 0.92907 0.65211 0.0
N1913 N 0.11643 0.98817 0.66723 0.0
H1914 H 0.08598 0.21358 0.6363 0.0
H1915 H 0.11875 0.08648 0.64392 0.0
H1916 H 0.03507 0.16321 0.64579 0.0
H1917 H 0.16022 0.13852 0.6711 0.0
H1918 H 0.08802 0.11336 0.64073 0.0
H1919 H 0.11447 0.18534 0.64413 0.0
C1920 C 0.08085 0.19656 0.64001 0.0
C1921 C 0.05825 0.19064 0.6405 0.0
C1922 C 0.10381 0.11868 0.64767 0.0
C1923 C 0.09054 0.15836 0.64918 0.0
C1924 C 0.12127 0.10337 0.64958 0.0
C1925 C 0.14212 0.11028 0.65765 0.0
C1926 C 0.10749 0.14102 0.65343 0.0
C1927 C 0.1445 0.13242 0.66467 0.0
C1928 C 0.09704 0.18052 0.64458 0.0
C1929 C 0.05239 0.16839 0.64537 0.0
N1930 N 0.12755 0.14707 0.66204 0.0
N1931 N 0.06848 0.15294 0.64933 0.0
H1932 H 0.96469 0.17233 0.61643 0.0
H1933 H 0.86766 0.11651 0.69112 0.0
H1934 H 0.93136 0.20593 0.66975 0.0
H1935 H 0.89581 0.08508 0.63346 0.0
H1936 H 0.89422 0.14726 0.68644 0.0
H1937 H 0.94249 0.13864 0.62471 0.0
C1938 C 0.95259 0.17256 0.62985 0.0
C1939 C 0.94936 0.192 0.64209 0.0
C1940 C 0.89486 0.13349 0.675 0.0
C1941 C 0.92423 0.1535 0.65199 0.0
C1942 C 0.8798 0.11578 0.67778 0.0
C1943 C 0.87943 0.09814 0.66264 0.0
C1944 C 0.90977 0.13367 0.65692 0.0
C1945 C 0.89549 0.09827 0.64557 0.0
C1946 C 0.93996 0.15336 0.6346 0.0
C1947 C 0.93387 0.1914 0.65958 0.0
N1948 N 0.90984 0.11585 0.64304 0.0
N1949 N 0.92179 0.17251 0.66394 0.0
H1950 H 0.96724 0.94072 0.68513 0.0
H1951 H 0.84535 0.9732 0.64113 0.0
H1952 H 0.93068 0.90391 0.63575 0.0
H1953 H 0.88231 1.01244 0.6883 0.0
H1954 H 0.8747 0.94508 0.64259 0.0
H1955 H 0.93489 0.96518 0.68965 0.0
C1956 C 0.95238 0.93779 0.67532 0.0
C1957 C 0.95161 0.92046 0.65994 0.0
C1958 C 0.87631 0.95972 0.65283 0.0
C1959 C 0.91467 0.9481 0.66503 0.0
C1960 C 0.85949 0.97569 0.65208 0.0
C1961 C 0.86155 0.99516 0.6645 0.0
C1962 C 0.89534 0.96335 0.666 0.0
C1963 C 0.88018 0.99764 0.6784 0.0
C1964 C 0.93393 0.95167 0.67791 0.0
C1965 C 0.93199 0.91722 0.64768 0.0
N1966 N 0.8965 0.98202 0.67861 0.0
N1967 N 0.91434 0.93095 0.65043 0.0
H1968 H 0.36075 0.07931 0.139 0.0
H1969 H 0.39045 0.20758 0.11046 0.0
H1970 H 0.39799 0.12345 0.18145 0.0
H1971 H 0.35364 0.16673 0.06463 0.0
H1972 H 0.39189 0.17638 0.13676 0.0
H1973 H 0.35689 0.11016 0.11153 0.0
C1974 C 0.36815 0.09539 0.14254 0.0
C1975 C 0.37977 0.0987 0.16261 0.0
C1976 C 0.38338 0.17408 0.12103 0.0
C1977 C 0.37531 0.13403 0.13138 0.0
C1978 C 0.38251 0.19201 0.10598 0.0
C1979 C 0.3719 0.18981 0.0853 0.0
C1980 C 0.37366 0.15351 0.11552 0.0
C1981 C 0.36192 0.16916 0.08045 0.0
C1982 C 0.3659 0.113 0.12688 0.0
C1983 C 0.38893 0.11994 0.16628 0.0
N1984 N 0.36312 0.15174 0.09542 0.0
N1985 N 0.38649 0.13663 0.15093 0.0
H1986 H 0.92814 0.45232 0.14534 0.0
H1987 H 0.88358 0.41333 0.02585 0.0
H1988 H 0.96681 0.40874 0.10404 0.0
H1989 H 0.85069 0.45953 0.0692 0.0
H1990 H 0.9153 0.4121 0.05218 0.0
H1991 H 0.90067 0.4557 0.11592 0.0
C1992 C 0.93093 0.44347 0.12998 0.0
C1993 C 0.94985 0.43014 0.12727 0.0
C1994 C 0.90115 0.4226 0.05575 0.0
C1995 C 0.91797 0.43386 0.09307 0.0
C1996 C 0.88311 0.42338 0.04069 0.0
C1997 C 0.8643 0.43637 0.04541 0.0
C1998 C 0.90029 0.43497 0.07551 0.0
C1999 C 0.86459 0.44899 0.06493 0.0
C2000 C 0.91515 0.44543 0.11306 0.0
C2001 C 0.95248 0.41921 0.10684 0.0
N2002 N 0.88211 0.44788 0.07916 0.0
N2003 N 0.93662 0.42117 0.09054 0.0
H2004 H 0.67688 0.01795 0.15187 0.0
H2005 H 0.62255 0.90401 0.11063 0.0
H2006 H 0.62302 0.98509 0.18725 0.0
H2007 H 0.68061 0.93498 0.08082 0.0
H2008 H 0.62352 0.93177 0.14023 0.0
H2009 H 0.67957 0.98626 0.12731 0.0
C2010 C 0.66563 1.00396 0.15455 0.0
C2011 C 0.64954 1.00428 0.17155 0.0
C2012 C 0.63619 0.93235 0.12737 0.0
C2013 C 0.65246 0.96772 0.14314 0.0
C2014 C 0.63567 0.9165 0.11048 0.0
C2015 C 0.65149 0.91729 0.09321 0.0
C2016 C 0.65257 0.94919 0.12687 0.0
C2017 C 0.66809 0.9338 0.09379 0.0
C2018 C 0.66723 0.98579 0.14049 0.0
C2019 C 0.63564 0.98553 0.17434 0.0
N2020 N 0.66808 0.94918 0.11022 0.0
N2021 N 0.63724 0.96808 0.1601 0.0
H2022 H 0.09402 0.6656 0.17789 0.0
H2023 H 0.13126 0.71645 0.05874 0.0
H2024 H 0.0525 0.71118 0.14039 0.0
H2025 H 0.16944 0.66955 0.09806 0.0
H2026 H 0.1031 0.71718 0.08875 0.0
H2027 H 0.1226 0.66923 0.14932 0.0
C2028 C 0.0909 0.67648 0.16366 0.0
C2029 C 0.0707 0.68803 0.16159 0.0
C2030 C 0.11774 0.70687 0.09082 0.0
C2031 C 0.10366 0.69223 0.12838 0.0
C2032 C 0.13382 0.70652 0.07375 0.0
C2033 C 0.15269 0.69289 0.0759 0.0
C2034 C 0.12066 0.69354 0.11014 0.0
C2035 C 0.15514 0.68026 0.09563 0.0
C2036 C 0.10731 0.67856 0.14726 0.0
C2037 C 0.06781 0.70196 0.14272 0.0
N2038 N 0.13936 0.68085 0.11185 0.0
N2039 N 0.08405 0.70359 0.12678 0.0
H2040 H 0.35452 0.03059 0.8904 0.0
H2041 H 0.38996 0.90521 0.91936 0.0
H2042 H 0.3848 0.98606 0.84347 0.0
H2043 H 0.35066 0.94448 0.96419 0.0
H2044 H 0.38725 0.93481 0.89122 0.0
H2045 H 0.35192 0.99961 0.91752 0.0
C2046 C 0.36047 0.01431 0.88573 0.0
C2047 C 0.37003 1.01099 0.86465 0.0
C2048 C 0.37904 0.93699 0.90712 0.0
C2049 C 0.3672 0.97555 0.89561 0.0
C2050 C 0.3806 0.92006 0.9232 0.0
C2051 C 0.37056 0.92246 0.94412 0.0
C2052 C 0.36757 0.95667 0.912 0.0
C2053 C 0.35861 0.94202 0.94822 0.0
C2054 C 0.35897 0.99663 0.90121 0.0
C2055 C 0.37742 0.9895 0.85952 0.0
N2056 N 0.3576 0.95852 0.93235 0.0
N2057 N 0.37598 0.97271 0.87491 0.0
H2058 H 0.16265 0.42517 0.90276 0.0
H2059 H 0.03382 0.40912 0.86989 0.0
H2060 H 0.11221 0.40706 0.95108 0.0
H2061 H 0.08612 0.42681 0.82337 0.0
H2062 H 0.06163 0.40777 0.89998 0.0
H2063 H 0.13441 0.42496 0.87351 0.0
C2064 C 0.14559 0.42105 0.90719 0.0
C2065 C 0.13976 0.41613 0.92937 0.0
C2066 C 0.06698 0.41192 0.88316 0.0
C2067 C 0.1071 0.41602 0.8959 0.0
C2068 C 0.05111 0.41274 0.86598 0.0
C2069 C 0.05764 0.41805 0.84401 0.0
C2070 C 0.08951 0.41649 0.87833 0.0
C2071 C 0.08028 0.42255 0.83999 0.0
C2072 C 0.12942 0.42097 0.89047 0.0
C2073 C 0.11739 0.41092 0.93416 0.0
N2074 N 0.0953 0.42168 0.85691 0.0
N2075 N 0.10183 0.41106 0.91756 0.0
H2076 H 0.67708 0.19046 0.95325 0.0
H2077 H 0.61018 0.13095 0.85418 0.0
H2078 H 0.60966 0.20638 0.93419 0.0
H2079 H 0.67612 0.1112 0.8748 0.0
H2080 H 0.61131 0.16106 0.88123 0.0
H2081 H 0.67845 0.16315 0.92309 0.0
C2082 C 0.66261 0.18824 0.9427 0.0
C2083 C 0.64326 0.20073 0.9462 0.0
C2084 C 0.62564 0.15029 0.87975 0.0
C2085 C 0.64469 0.1697 0.91163 0.0
C2086 C 0.62504 0.13317 0.86418 0.0
C2087 C 0.64306 0.11855 0.86225 0.0
C2088 C 0.64439 0.1528 0.89361 0.0
C2089 C 0.66186 0.12213 0.87574 0.0
C2090 C 0.6634 0.17271 0.92546 0.0
C2091 C 0.62499 0.19724 0.93202 0.0
N2092 N 0.66198 0.13878 0.89095 0.0
N2093 N 0.62615 0.18209 0.91544 0.0
H2094 H 0.92816 0.66795 0.84435 0.0
H2095 H 0.89457 0.70492 0.96877 0.0
H2096 H 0.97583 0.69552 0.8903 0.0
H2097 H 0.8481 0.67882 0.92078 0.0
H2098 H 0.92455 0.70183 0.94091 0.0
H2099 H 0.899 0.67181 0.8725 0.0
C2100 C 0.93259 0.67481 0.86037 0.0
C2101 C 0.95469 0.68138 0.86477 0.0
C2102 C 0.90778 0.69683 0.93648 0.0
C2103 C 0.9209 0.68594 0.89752 0.0
C2104 C 0.89059 0.69862 0.95242 0.0
C2105 C 0.86858 0.69217 0.94729 0.0
C2106 C 0.90308 0.68846 0.91513 0.0
C2107 C 0.86466 0.68406 0.9257 0.0
C2108 C 0.91581 0.67704 0.87652 0.0
C2109 C 0.95912 0.69019 0.886 0.0
N2110 N 0.8816 0.68244 0.9106 0.0
N2111 N 0.94248 0.69219 0.90149 0.0
H2112 H 0.12454 0.40407 0.02199 0.0
H2113 H 0.08634 0.43539 0.14533 0.0
H2114 H 0.16736 0.43425 0.07108 0.0
H2115 H 0.04466 0.39748 0.10102 0.0
H2116 H 0.11605 0.43512 0.11767 0.0
H2117 H 0.09474 0.40159 0.04998 0.0
C2118 C 0.12768 0.41015 0.03861 0.0
C2119 C 0.14845 0.41945 0.04418 0.0
C2120 C 0.10048 0.42674 0.11395 0.0
C2121 C 0.11456 0.41666 0.07614 0.0
C2122 C 0.08351 0.4269 0.12975 0.0
C2123 C 0.06309 0.41647 0.12537 0.0
C2124 C 0.09696 0.4162 0.09349 0.0
C2125 C 0.06025 0.40569 0.10497 0.0
C2126 C 0.1107 0.40868 0.05457 0.0
C2127 C 0.15163 0.427 0.06598 0.0
N2128 N 0.07701 0.40593 0.08966 0.0
N2129 N 0.13487 0.42549 0.08109 0.0
H2130 H 0.13281 0.70203 0.98197 0.0
H2131 H 0.0957 0.66791 0.85907 0.0
H2132 H 0.17704 0.67797 0.93099 0.0
H2133 H 0.05282 0.70744 0.90027 0.0
H2134 H 0.12489 0.67057 0.88693 0.0
H2135 H 0.10259 0.70371 0.95405 0.0
C2136 C 0.13623 0.69726 0.96497 0.0
C2137 C 0.15752 0.68968 0.95893 0.0
C2138 C 0.1092 0.67883 0.88998 0.0
C2139 C 0.12312 0.69144 0.9271 0.0
C2140 C 0.09247 0.67727 0.87403 0.0
C2141 C 0.07181 0.68749 0.87734 0.0
C2142 C 0.10536 0.6905 0.90973 0.0
C2143 C 0.06859 0.69941 0.89707 0.0
C2144 C 0.11899 0.69823 0.94907 0.0
C2145 C 0.16096 0.68375 0.93663 0.0
N2146 N 0.08517 0.70047 0.91267 0.0
N2147 N 0.14401 0.68463 0.92171 0.0
H2148 H 0.39692 0.22767 0.94707 0.0
H2149 H 0.35386 0.10687 0.90864 0.0
H2150 H 0.35787 0.18425 0.99003 0.0
H2151 H 0.39784 0.14956 0.87011 0.0
H2152 H 0.35343 0.13504 0.93818 0.0
H2153 H 0.39578 0.19945 0.91826 0.0
C2154 C 0.38805 0.2122 0.95047 0.0
C2155 C 0.3775 0.2084 0.9711 0.0
C2156 C 0.36314 0.13821 0.92323 0.0
C2157 C 0.37609 0.17573 0.9379 0.0
C2158 C 0.36335 0.12216 0.90637 0.0
C2159 C 0.37591 0.12586 0.88688 0.0
C2160 C 0.37551 0.15812 0.92049 0.0
C2161 C 0.38793 0.14595 0.88484 0.0
C2162 C 0.38742 0.19602 0.93396 0.0
C2163 C 0.36627 0.18793 0.97441 0.0
N2164 N 0.38742 0.16123 0.90134 0.0
N2165 N 0.36586 0.17239 0.95801 0.0
H2166 H 0.92648 0.44933 0.83867 0.0
H2167 H 0.8733 0.39424 0.94898 0.0
H2168 H 0.95083 0.38796 0.86782 0.0
H2169 H 0.8441 0.44943 0.91275 0.0
H2170 H 0.90168 0.39117 0.9197 0.0
H2171 H 0.89634 0.44941 0.86594 0.0
C2172 C 0.92543 0.43579 0.85081 0.0
C2173 C 0.94117 0.41858 0.85097 0.0
C2174 C 0.88897 0.40384 0.91807 0.0
C2175 C 0.90667 0.41866 0.88252 0.0
C2176 C 0.87276 0.40558 0.93475 0.0
C2177 C 0.8564 0.42218 0.9333 0.0
C2178 C 0.88889 0.41892 0.89989 0.0
C2179 C 0.85646 0.43644 0.91455 0.0
C2180 C 0.90817 0.43584 0.86639 0.0
C2181 C 0.93902 0.40154 0.86714 0.0
N2182 N 0.87253 0.43459 0.89869 0.0
N2183 N 0.92214 0.40205 0.88236 0.0
H2184 H 0.67654 0.01702 0.90105 0.0
H2185 H 0.60716 0.92695 0.97048 0.0
H2186 H 0.6055 1.00783 0.89606 0.0
H2187 H 0.67453 0.94392 0.98881 0.0
H2188 H 0.60618 0.95925 0.94546 0.0
H2189 H 0.67647 0.99381 0.93542 0.0
C2190 C 0.66085 1.01086 0.90771 0.0
C2191 C 0.64094 0.01454 0.89595 0.0
C2192 C 0.62115 0.95625 0.9551 0.0
C2193 C 0.64077 0.98745 0.93458 0.0
C2194 C 0.62169 0.93775 0.96943 0.0
C2195 C 0.64094 0.93276 0.98172 0.0
C2196 C 0.64024 0.96974 0.95243 0.0
C2197 C 0.65931 0.94731 0.97971 0.0
C2198 C 0.66082 0.99743 0.92716 0.0
C2199 C 0.62116 1.00559 0.9048 0.0
N2200 N 0.65867 0.96497 0.96499 0.0
N2201 N 0.62161 0.99232 0.92336 0.0
H2202 H 0.98272 0.70399 0.11668 0.0
H2203 H 0.85533 0.69529 0.08968 0.0
H2204 H 0.93318 0.71342 0.16772 0.0
H2205 H 0.90066 0.72335 0.04086 0.0
H2206 H 0.88406 0.69941 0.11833 0.0
H2207 H 0.95374 0.70908 0.08814 0.0
C2208 C 0.9658 0.70749 0.12184 0.0
C2209 C 0.96028 0.7083 0.14455 0.0
C2210 C 0.88764 0.70494 0.10142 0.0
C2211 C 0.92709 0.71351 0.11212 0.0
C2212 C 0.87131 0.70253 0.08507 0.0
C2213 C 0.87569 0.70901 0.06293 0.0
C2214 C 0.90876 0.71331 0.0955 0.0
C2215 C 0.89664 0.71826 0.0578 0.0
C2216 C 0.94931 0.71041 0.10557 0.0
C2217 C 0.93813 0.71277 0.15038 0.0
N2218 N 0.91259 0.71979 0.07391 0.0
N2219 N 0.92224 0.7148 0.13428 0.0
H2220 H 0.34753 1.00439 0.13394 0.0
H2221 H 0.35811 0.93497 0.04016 0.0
H2222 H 0.40237 0.96613 0.16041 0.0
H2223 H 0.40037 0.89546 0.08334 0.0
H2224 H 0.35454 0.96241 0.06986 0.0
H2225 H 0.34636 0.97995 0.10154 0.0
C2226 C 0.35928 0.9908 0.13291 0.0
C2227 C 0.37508 0.98727 0.14985 0.0
C2228 C 0.36438 0.94764 0.07297 0.0
C2229 C 0.37428 0.95948 0.11262 0.0
C2230 C 0.36658 0.93205 0.05587 0.0
C2231 C 0.37951 0.91284 0.05922 0.0
C2232 C 0.37522 0.9439 0.09355 0.0
C2233 C 0.39016 0.90994 0.07991 0.0
C2234 C 0.35879 0.97695 0.11426 0.0
C2235 C 0.38992 0.96948 0.14774 0.0
N2236 N 0.3878 0.92524 0.09613 0.0
N2237 N 0.38914 0.95632 0.12954 0.0
H2238 H 0.65479 0.18553 0.03707 0.0
H2239 H 0.63303 0.14607 0.16306 0.0
H2240 H 0.63201 0.22839 0.08939 0.0
H2241 H 0.65904 0.10149 0.11373 0.0
H2242 H 0.63273 0.176 0.1356 0.0
H2243 H 0.65663 0.15449 0.06401 0.0
C2244 C 0.65021 0.18845 0.05424 0.0
C2245 C 0.64323 0.20965 0.06103 0.0
C2246 C 0.63854 0.15975 0.13061 0.0
C2247 C 0.6453 0.17414 0.09187 0.0
C2248 C 0.63872 0.14254 0.14634 0.0
C2249 C 0.64607 0.12119 0.14067 0.0
C2250 C 0.64572 0.15578 0.10881 0.0
C2251 C 0.65323 0.11772 0.11874 0.0
C2252 C 0.6513 0.17069 0.06959 0.0
C2253 C 0.63755 0.21241 0.08345 0.0
N2254 N 0.65284 0.1349 0.10351 0.0
N2255 N 0.63868 0.19488 0.09802 0.0
H2256 H 0.56329 0.61619 0.89136 0.0
H2257 H 0.69189 0.59656 0.92485 0.0
H2258 H 0.6056 0.6659 0.92123 0.0
H2259 H 0.65127 0.54623 0.89391 0.0
H2260 H 0.66027 0.62223 0.92314 0.0
H2261 H 0.5949 0.59017 0.89187 0.0
C2262 C 0.57915 0.62163 0.89805 0.0
C2263 C 0.58168 0.64331 0.90628 0.0
C2264 C 0.65823 0.6056 0.91664 0.0
C2265 C 0.61799 0.61366 0.90687 0.0
C2266 C 0.67634 0.59096 0.91758 0.0
C2267 C 0.67424 0.56923 0.9095 0.0
C2268 C 0.63776 0.59851 0.9076 0.0
C2269 C 0.65364 0.56286 0.90031 0.0
C2270 C 0.59722 0.60679 0.89831 0.0
C2271 C 0.60272 0.64941 0.91471 0.0
N2272 N 0.63621 0.57737 0.89966 0.0
N2273 N 0.61993 0.63474 0.91478 0.0
H2274 H 0.3971 0.5313 0.88032 0.0
H2275 H 0.44586 0.64347 0.93151 0.0
H2276 H 0.36633 0.56508 0.93526 0.0
H2277 H 0.47386 0.61189 0.87387 0.0
H2278 H 0.41556 0.61617 0.93189 0.0
H2279 H 0.42365 0.56193 0.87617 0.0
C2280 C 0.39578 0.54531 0.89142 0.0
C2281 C 0.37956 0.54553 0.90832 0.0
C2282 C 0.42822 0.61521 0.91908 0.0
C2283 C 0.41024 0.58071 0.90375 0.0
C2284 C 0.44559 0.63077 0.91887 0.0
C2285 C 0.46247 0.62983 0.90269 0.0
C2286 C 0.42771 0.59844 0.90305 0.0
C2287 C 0.46122 0.61313 0.88667 0.0
C2288 C 0.41101 0.56282 0.88902 0.0
C2289 C 0.37855 0.56423 0.92202 0.0
N2290 N 0.44419 0.59799 0.88733 0.0
N2291 N 0.39387 0.58098 0.9196 0.0
H2292 H 0.38951 0.40302 0.92539 0.0
H2293 H 0.5131 0.37206 0.88745 0.0
H2294 H 0.43387 0.45001 0.89265 0.0
H2295 H 0.46972 0.32668 0.92344 0.0
H2296 H 0.48381 0.40001 0.88738 0.0
H2297 H 0.418 0.37444 0.92305 0.0
C2298 C 0.40531 0.40733 0.91763 0.0
C2299 C 0.40938 0.42898 0.90924 0.0
C2300 C 0.48059 0.38394 0.89523 0.0
C2301 C 0.44222 0.39613 0.9065 0.0
C2302 C 0.49732 0.36788 0.89529 0.0
C2303 C 0.49382 0.3469 0.90557 0.0
C2304 C 0.46011 0.37909 0.90553 0.0
C2305 C 0.47302 0.34255 0.91534 0.0
C2306 C 0.42158 0.39094 0.91631 0.0
C2307 C 0.43009 0.43355 0.89933 0.0
N2308 N 0.45696 0.35852 0.91515 0.0
N2309 N 0.4458 0.41723 0.89827 0.0
H2310 H 0.61099 0.36798 0.94342 0.0
H2311 H 0.67251 0.47039 0.88215 0.0
H2312 H 0.59603 0.38699 0.8754 0.0
H2313 H 0.68782 0.44536 0.94805 0.0
H2314 H 0.64195 0.4429 0.87976 0.0
H2315 H 0.63671 0.39903 0.94584 0.0
C2316 C 0.61315 0.37879 0.92892 0.0
C2317 C 0.60161 0.37482 0.90908 0.0
C2318 C 0.65203 0.44346 0.89472 0.0
C2319 C 0.63126 0.41062 0.91169 0.0
C2320 C 0.66935 0.45912 0.89611 0.0
C2321 C 0.68296 0.45954 0.9151 0.0
C2322 C 0.64833 0.42849 0.91261 0.0
C2323 C 0.67825 0.44488 0.9328 0.0
C2324 C 0.62785 0.3966 0.93033 0.0
C2325 C 0.60476 0.38953 0.89095 0.0
N2326 N 0.6614 0.42991 0.9311 0.0
N2327 N 0.61952 0.4068 0.89261 0.0
H2328 H 0.57554 0.37475 0.18471 0.0
H2329 H 0.70401 0.41296 0.19063 0.0
H2330 H 0.62958 0.33001 0.17048 0.0
H2331 H 0.64963 0.45919 0.18372 0.0
H2332 H 0.67725 0.38182 0.1881 0.0
H2333 H 0.60254 0.40511 0.18901 0.0
C2334 C 0.59309 0.37123 0.18256 0.0
C2335 C 0.60017 0.34964 0.17718 0.0
C2336 C 0.67116 0.39878 0.18725 0.0
C2337 C 0.63144 0.38464 0.1823 0.0
C2338 C 0.68642 0.41658 0.18884 0.0
C2339 C 0.67908 0.43878 0.18745 0.0
C2340 C 0.64828 0.40313 0.18453 0.0
C2341 C 0.65608 0.44239 0.18492 0.0
C2342 C 0.60853 0.38867 0.18497 0.0
C2343 C 0.62325 0.34631 0.17457 0.0
N2344 N 0.64156 0.42484 0.18361 0.0
N2345 N 0.63801 0.36354 0.17724 0.0
H2346 H 0.61957 0.65715 0.19353 0.0
H2347 H 0.65817 0.52938 0.18646 0.0
H2348 H 0.57671 0.60419 0.17088 0.0
H2349 H 0.70426 0.58485 0.18834 0.0
H2350 H 0.62709 0.55579 0.18771 0.0
H2351 H 0.64979 0.63001 0.19855 0.0
C2352 C 0.61647 0.63978 0.18985 0.0
C2353 C 0.59568 0.6329 0.18167 0.0
C2354 C 0.64403 0.56213 0.18802 0.0
C2355 C 0.63004 0.60179 0.18743 0.0
C2356 C 0.66178 0.54706 0.18744 0.0
C2357 C 0.68388 0.55489 0.18714 0.0
C2358 C 0.6484 0.58519 0.1886 0.0
C2359 C 0.6875 0.57803 0.18834 0.0
C2360 C 0.63371 0.62432 0.19263 0.0
C2361 C 0.59254 0.6102 0.17711 0.0
N2362 N 0.66999 0.59233 0.18897 0.0
N2363 N 0.60951 0.59548 0.18003 0.0
H2364 H 0.42095 0.53285 0.19465 0.0
H2365 H 0.454 0.65895 0.16151 0.0
H2366 H 0.37634 0.58269 0.16784 0.0
H2367 H 0.50303 0.61335 0.18808 0.0
H2368 H 0.42565 0.63051 0.16582 0.0
H2369 H 0.45122 0.56098 0.19434 0.0
C2370 C 0.41745 0.54965 0.18883 0.0
C2371 C 0.39598 0.55529 0.18116 0.0
C2372 C 0.44253 0.6265 0.17081 0.0
C2373 C 0.4305 0.58748 0.18078 0.0
C2374 C 0.45889 0.64286 0.16831 0.0
C2375 C 0.48113 0.63861 0.17426 0.0
C2376 C 0.44811 0.6053 0.17925 0.0
C2377 C 0.48612 0.61739 0.18325 0.0
C2378 C 0.43475 0.56567 0.18863 0.0
C2379 C 0.39251 0.57734 0.1738 0.0
N2380 N 0.46975 0.60142 0.18534 0.0
N2381 N 0.40947 0.59243 0.17377 0.0
H2382 H 0.37919 0.41376 0.18351 0.0
H2383 H 0.50603 0.37948 0.20767 0.0
H2384 H 0.42685 0.46024 0.21041 0.0
H2385 H 0.45942 0.34145 0.16865 0.0
H2386 H 0.47671 0.40733 0.2141 0.0
H2387 H 0.40757 0.38497 0.18398 0.0
C2388 C 0.39564 0.41784 0.18977 0.0
C2389 C 0.40073 0.43945 0.19679 0.0
C2390 C 0.47293 0.39281 0.20425 0.0
C2391 C 0.43361 0.40649 0.19707 0.0
C2392 C 0.4896 0.37693 0.20064 0.0
C2393 C 0.48511 0.35823 0.18753 0.0
C2394 C 0.45166 0.38973 0.19488 0.0
C2395 C 0.46362 0.35567 0.17876 0.0
C2396 C 0.4119 0.40138 0.18994 0.0
C2397 C 0.42229 0.44375 0.20484 0.0
N2398 N 0.44777 0.37121 0.18257 0.0
N2399 N 0.43807 0.42743 0.20459 0.0
H2400 H 0.91065 0.56691 0.7226 0.0
H2401 H 0.87115 0.60876 0.60104 0.0
H2402 H 0.87794 0.5242 0.67524 0.0
H2403 H 0.90506 0.65031 0.64846 0.0
H2404 H 0.87157 0.57793 0.62857 0.0
H2405 H 0.90708 0.59812 0.69617 0.0
C2406 C 0.90269 0.56409 0.70667 0.0
C2407 C 0.89468 0.54286 0.70111 0.0
C2408 C 0.87881 0.59385 0.63296 0.0
C2409 C 0.8905 0.57857 0.67071 0.0
C2410 C 0.87851 0.61141 0.61728 0.0
C2411 C 0.88813 0.63203 0.62249 0.0
C2412 C 0.88881 0.59701 0.65394 0.0
C2413 C 0.89751 0.63464 0.64374 0.0
C2414 C 0.90063 0.58193 0.69156 0.0
C2415 C 0.88443 0.54025 0.68023 0.0
N2416 N 0.89768 0.61735 0.65862 0.0
N2417 N 0.8827 0.55786 0.66578 0.0
H2418 H 0.4081 0.85396 0.57781 0.0
H2419 H 0.4464 0.88792 0.7014 0.0
H2420 H 0.36861 0.89293 0.62281 0.0
H2421 H 0.48959 0.8532 0.65625 0.0
H2422 H 0.41725 0.88804 0.67306 0.0
H2423 H 0.43745 0.85153 0.60642 0.0
C2424 C 0.40549 0.86187 0.59371 0.0
C2425 C 0.38576 0.87369 0.5978 0.0
C2426 C 0.43307 0.88035 0.66927 0.0
C2427 C 0.41938 0.87103 0.63065 0.0
C2428 C 0.4498 0.88026 0.68553 0.0
C2429 C 0.47062 0.87057 0.68131 0.0
C2430 C 0.43697 0.87064 0.64844 0.0
C2431 C 0.47385 0.8609 0.66031 0.0
C2432 C 0.42231 0.86054 0.61002 0.0
C2433 C 0.38346 0.88368 0.61874 0.0
N2434 N 0.45726 0.86119 0.64469 0.0
N2435 N 0.39998 0.88213 0.63425 0.0
H2436 H 0.16006 0.35424 0.63839 0.0
H2437 H 0.18201 0.48006 0.67691 0.0
H2438 H 0.19586 0.40209 0.59746 0.0
H2439 H 0.15584 0.42807 0.72012 0.0
H2440 H 0.18697 0.45251 0.64748 0.0
H2441 H 0.15817 0.38149 0.66814 0.0
C2442 C 0.16769 0.37048 0.63571 0.0
C2443 C 0.17819 0.37582 0.61536 0.0
C2444 C 0.18018 0.44713 0.66342 0.0
C2445 C 0.17583 0.40749 0.64954 0.0
C2446 C 0.17731 0.46288 0.68028 0.0
C2447 C 0.16828 0.4565 0.70111 0.0
C2448 C 0.17389 0.42476 0.66728 0.0
C2449 C 0.1626 0.43391 0.70436 0.0
C2450 C 0.16658 0.38609 0.65275 0.0
C2451 C 0.1877 0.3972 0.61289 0.0
N2452 N 0.16539 0.41899 0.68769 0.0
N2453 N 0.18617 0.41229 0.6297 0.0
H2454 H 0.59768 0.1694 0.69765 0.0
H2455 H 0.69699 0.10299 0.64027 0.0
H2456 H 0.60906 0.09986 0.71244 0.0
H2457 H 0.66636 0.16199 0.61235 0.0
H2458 H 0.67067 0.10397 0.67167 0.0
H2459 H 0.62968 0.16975 0.67261 0.0
C2460 C 0.60742 0.15433 0.69611 0.0
C2461 C 0.60078 0.13458 0.70714 0.0
C2462 C 0.6698 0.11672 0.65871 0.0
C2463 C 0.63712 0.13467 0.67785 0.0
C2464 C 0.68477 0.11621 0.64081 0.0
C2465 C 0.68375 0.13241 0.62364 0.0
C2466 C 0.65395 0.13379 0.65964 0.0
C2467 C 0.66765 0.14913 0.62515 0.0
C2468 C 0.62551 0.15447 0.68158 0.0
C2469 C 0.61382 0.11547 0.70442 0.0
N2470 N 0.65345 0.14942 0.64285 0.0
N2471 N 0.63129 0.11589 0.68976 0.0
H2472 H 0.89108 0.39318 0.50643 0.0
H2473 H 0.92397 0.43714 0.38402 0.0
H2474 H 0.91716 0.35204 0.45425 0.0
H2475 H 0.89123 0.47908 0.43171 0.0
H2476 H 0.92225 0.40628 0.41058 0.0
H2477 H 0.89108 0.42519 0.48024 0.0
C2478 C 0.89664 0.39089 0.48944 0.0
C2479 C 0.90416 0.37002 0.48244 0.0
C2480 C 0.9154 0.42218 0.41534 0.0
C2481 C 0.9044 0.40634 0.45263 0.0
C2482 C 0.91644 0.43991 0.40015 0.0
C2483 C 0.90773 0.46077 0.40564 0.0
C2484 C 0.90561 0.4252 0.43633 0.0
C2485 C 0.89816 0.46326 0.42682 0.0
C2486 C 0.89669 0.40912 0.47455 0.0
C2487 C 0.91126 0.36786 0.46034 0.0
N2488 N 0.89736 0.44565 0.44146 0.0
N2489 N 0.91127 0.38579 0.44628 0.0
H2490 H 0.61307 0.88326 0.36178 0.0
H2491 H 0.64423 0.84101 0.48602 0.0
H2492 H 0.56668 0.846 0.40303 0.0
H2493 H 0.68667 0.88188 0.44398 0.0
H2494 H 0.61649 0.83986 0.45562 0.0
H2495 H 0.64092 0.88013 0.39119 0.0
C2496 C 0.60872 0.87427 0.37698 0.0
C2497 C 0.58735 0.86493 0.3798 0.0
C2498 C 0.63195 0.84894 0.45303 0.0
C2499 C 0.61952 0.86135 0.41405 0.0
C2500 C 0.64783 0.84951 0.47035 0.0
C2501 C 0.66784 0.86156 0.46757 0.0
C2502 C 0.63617 0.86043 0.43276 0.0
C2503 C 0.67151 0.8724 0.44695 0.0
C2504 C 0.62472 0.87251 0.39388 0.0
C2505 C 0.5829 0.85346 0.40002 0.0
N2506 N 0.65592 0.87161 0.43049 0.0
N2507 N 0.59877 0.85208 0.41637 0.0
H2508 H 0.16769 0.59387 0.38336 0.0
H2509 H 0.19915 0.63468 0.50589 0.0
H2510 H 0.2042 0.55245 0.42987 0.0
H2511 H 0.14998 0.66536 0.46306 0.0
H2512 H 0.20701 0.60757 0.47652 0.0
H2513 H 0.16783 0.6238 0.41028 0.0
C2514 C 0.17605 0.59121 0.39919 0.0
C2515 C 0.18576 0.57063 0.40453 0.0
C2516 C 0.19463 0.62035 0.47356 0.0
C2517 C 0.18565 0.60475 0.43569 0.0
C2518 C 0.19016 0.63579 0.49025 0.0
C2519 C 0.1738 0.65212 0.48686 0.0
C2520 C 0.1828 0.62154 0.45336 0.0
C2521 C 0.16262 0.65292 0.46638 0.0
C2522 C 0.17603 0.60828 0.41461 0.0
C2523 C 0.19649 0.56811 0.42519 0.0
N2524 N 0.16731 0.63785 0.45045 0.0
N2525 N 0.19593 0.58494 0.44021 0.0
H2526 H 0.51812 0.13562 0.43218 0.0
H2527 H 0.38824 0.15245 0.45153 0.0
H2528 H 0.46831 0.12758 0.38098 0.0
H2529 H 0.43045 0.13121 0.50609 0.0
H2530 H 0.41941 0.14884 0.42612 0.0
H2531 H 0.48813 0.13837 0.46007 0.0
C2532 C 0.50093 0.13431 0.42682 0.0
C2533 C 0.49572 0.13138 0.40418 0.0
C2534 C 0.42195 0.14497 0.44364 0.0
C2535 C 0.46152 0.13488 0.43586 0.0
C2536 C 0.40415 0.14718 0.45829 0.0
C2537 C 0.40664 0.14209 0.4811 0.0
C2538 C 0.4427 0.13785 0.45168 0.0
C2539 C 0.42776 0.13528 0.48866 0.0
C2540 C 0.48388 0.13585 0.44274 0.0
C2541 C 0.47317 0.12978 0.3982 0.0
N2542 N 0.44506 0.13341 0.47397 0.0
N2543 N 0.45697 0.13176 0.41386 0.0
H2544 H 0.56585 0.84754 0.64124 0.0
H2545 H 0.69212 0.88293 0.61266 0.0
H2546 H 0.61163 0.87917 0.68643 0.0
H2547 H 0.64911 0.8535 0.56334 0.0
H2548 H 0.66251 0.87948 0.63992 0.0
H2549 H 0.59553 0.84742 0.61264 0.0
C2550 C 0.58213 0.85431 0.64517 0.0
C2551 C 0.58628 0.86342 0.66623 0.0
C2552 C 0.65939 0.87369 0.62319 0.0
C2553 C 0.62013 0.86338 0.63377 0.0
C2554 C 0.67641 0.87568 0.60749 0.0
C2555 C 0.67318 0.86862 0.5855 0.0
C2556 C 0.63867 0.86461 0.61711 0.0
C2557 C 0.65237 0.8592 0.58006 0.0
C2558 C 0.59903 0.85428 0.62886 0.0
C2559 C 0.60762 0.87203 0.67045 0.0
N2560 N 0.63584 0.85756 0.59574 0.0
N2561 N 0.62361 0.87181 0.65444 0.0
H2562 H 0.58819 0.15244 0.44177 0.0
H2563 H 0.71139 0.11659 0.47811 0.0
H2564 H 0.63232 0.11303 0.40177 0.0
H2565 H 0.66495 0.14531 0.52447 0.0
H2566 H 0.68269 0.11719 0.4496 0.0
H2567 H 0.61609 0.15203 0.47184 0.0
C2568 C 0.60375 0.14374 0.43934 0.0
C2569 C 0.60802 0.13277 0.41929 0.0
C2570 C 0.67869 0.12336 0.46598 0.0
C2571 C 0.63989 0.13228 0.45341 0.0
C2572 C 0.69512 0.12305 0.48236 0.0
C2573 C 0.69061 0.13089 0.50382 0.0
C2574 C 0.65749 0.13175 0.47087 0.0
C2575 C 0.66915 0.13904 0.50818 0.0
C2576 C 0.61961 0.14346 0.45649 0.0
C2577 C 0.62837 0.1217 0.41696 0.0
N2578 N 0.65337 0.13933 0.4918 0.0
N2579 N 0.64353 0.12179 0.43376 0.0
H2580 H 0.87699 0.55385 0.44154 0.0
H2581 H 0.91204 0.67527 0.48373 0.0
H2582 H 0.92139 0.5987 0.40603 0.0
H2583 H 0.87788 0.62713 0.52595 0.0
H2584 H 0.91233 0.64832 0.45382 0.0
H2585 H 0.87401 0.58128 0.47146 0.0
C2586 C 0.88602 0.56949 0.44003 0.0
C2587 C 0.89949 0.57405 0.42136 0.0
C2588 C 0.90473 0.6436 0.4696 0.0
C2589 C 0.89614 0.60539 0.45529 0.0
C2590 C 0.90451 0.65904 0.48673 0.0
C2591 C 0.895 0.65346 0.50747 0.0
C2592 C 0.8953 0.62235 0.47309 0.0
C2593 C 0.88546 0.63213 0.51026 0.0
C2594 C 0.88437 0.58509 0.45709 0.0
C2595 C 0.91087 0.59451 0.42018 0.0
N2596 N 0.88587 0.61732 0.49326 0.0
N2597 N 0.90892 0.6094 0.43687 0.0
H2598 H 0.42705 0.86502 0.50637 0.0
H2599 H 0.45016 0.84205 0.37744 0.0
H2600 H 0.3757 0.84276 0.46148 0.0
H2601 H 0.49997 0.86346 0.42443 0.0
H2602 H 0.42339 0.83767 0.40832 0.0
H2603 H 0.45474 0.85978 0.4772 0.0
C2604 C 0.42166 0.85874 0.4904 0.0
C2605 C 0.39908 0.85444 0.48625 0.0
C2606 C 0.44027 0.84305 0.41188 0.0
C2607 C 0.43066 0.84876 0.45249 0.0
C2608 C 0.45553 0.84548 0.39429 0.0
C2609 C 0.47721 0.85329 0.39842 0.0
C2610 C 0.44683 0.84846 0.43367 0.0
C2611 C 0.48336 0.85756 0.4205 0.0
C2612 C 0.43747 0.85578 0.47369 0.0
C2613 C 0.39299 0.84626 0.4653 0.0
N2614 N 0.46823 0.85525 0.43722 0.0
N2615 N 0.40868 0.84395 0.44906 0.0
H2616 H 0.18287 0.42351 0.38852 0.0
H2617 H 0.18527 0.39766 0.52022 0.0
H2618 H 0.17854 0.47667 0.43596 0.0
H2619 H 0.17173 0.34959 0.46911 0.0
H2620 H 0.18813 0.42704 0.49094 0.0
H2621 H 0.18505 0.39666 0.41904 0.0
C2622 C 0.18252 0.42963 0.40541 0.0
C2623 C 0.18026 0.4525 0.40955 0.0
C2624 C 0.1846 0.41002 0.48625 0.0
C2625 C 0.18258 0.42134 0.44508 0.0
C2626 C 0.18303 0.39324 0.50292 0.0
C2627 C 0.17815 0.37107 0.49718 0.0
C2628 C 0.18161 0.40446 0.46372 0.0
C2629 C 0.17536 0.36637 0.47448 0.0
C2630 C 0.1837 0.41417 0.42293 0.0
C2631 C 0.18022 0.45923 0.43195 0.0
N2632 N 0.17717 0.38281 0.45874 0.0
N2633 N 0.18117 0.44369 0.44891 0.0
H2634 H 0.42198 0.17632 0.56889 0.0
H2635 H 0.49021 0.10013 0.65438 0.0
H2636 H 0.39572 0.11908 0.60487 0.0
H2637 H 0.50835 0.16905 0.64342 0.0
H2638 H 0.46046 0.10409 0.62701 0.0
H2639 H 0.45723 0.17238 0.5896 0.0
C2640 C 0.42355 0.16316 0.58136 0.0
C2641 C 0.406 0.14801 0.58531 0.0
C2642 C 0.47121 0.11827 0.63018 0.0
C2643 C 0.44614 0.14301 0.60816 0.0
C2644 C 0.4884 0.11589 0.64548 0.0
C2645 C 0.50163 0.13427 0.65094 0.0
C2646 C 0.46705 0.13928 0.62054 0.0
C2647 C 0.49853 0.15446 0.63932 0.0
C2648 C 0.44364 0.16083 0.59296 0.0
C2649 C 0.40882 0.13114 0.6014 0.0
N2650 N 0.48117 0.15661 0.62482 0.0
N2651 N 0.42859 0.12899 0.6121 0.0
H2652 H 0.88369 0.36587 0.57592 0.0
H2653 H 0.90366 0.39869 0.70159 0.0
H2654 H 0.93222 0.33171 0.6167 0.0
H2655 H 0.88813 0.44858 0.65156 0.0
H2656 H 0.9082 0.37119 0.67238 0.0
H2657 H 0.87962 0.39377 0.60481 0.0
C2658 C 0.89341 0.36405 0.59105 0.0
C2659 C 0.90796 0.34592 0.59411 0.0
C2660 C 0.90386 0.38816 0.66779 0.0
C2661 C 0.90307 0.37791 0.62742 0.0
C2662 C 0.90132 0.40393 0.68444 0.0
C2663 C 0.89598 0.42613 0.679 0.0
C2664 C 0.90044 0.39441 0.64546 0.0
C2665 C 0.89236 0.43169 0.65649 0.0
C2666 C 0.89105 0.38007 0.6075 0.0
C2667 C 0.92017 0.34474 0.61403 0.0
N2668 N 0.89458 0.4159 0.64051 0.0
N2669 N 0.91729 0.36037 0.63004 0.0
H2670 H 0.1494 0.59684 0.70728 0.0
H2671 H 0.17792 0.63119 0.58024 0.0
H2672 H 0.18497 0.55274 0.66392 0.0
H2673 H 0.14466 0.67305 0.6276 0.0
H2674 H 0.18132 0.60206 0.6096 0.0
H2675 H 0.14854 0.62488 0.67758 0.0
C2676 C 0.1572 0.59311 0.69148 0.0
C2677 C 0.16729 0.57241 0.68812 0.0
C2678 C 0.17331 0.61766 0.61346 0.0
C2679 C 0.16617 0.60461 0.65355 0.0
C2680 C 0.1713 0.63426 0.59671 0.0
C2681 C 0.16094 0.65465 0.60136 0.0
C2682 C 0.16487 0.62152 0.63498 0.0
C2683 C 0.15276 0.65769 0.62306 0.0
C2684 C 0.15666 0.60916 0.67442 0.0
C2685 C 0.17709 0.56854 0.66723 0.0
N2686 N 0.15489 0.64142 0.63889 0.0
N2687 N 0.1762 0.58446 0.65066 0.0
H2688 H 0.08825 0.3038 0.37039 0.0
H2689 H 0.11025 0.26251 0.4932 0.0
H2690 H 0.04391 0.31582 0.42553 0.0
H2691 H 0.16591 0.28089 0.45097 0.0
H2692 H 0.08484 0.27533 0.46412 0.0
H2693 H 0.11766 0.29379 0.39693 0.0
C2694 C 0.08501 0.3053 0.38808 0.0
C2695 C 0.06345 0.30976 0.39588 0.0
C2696 C 0.10264 0.27627 0.46113 0.0
C2697 C 0.09637 0.2976 0.42587 0.0
C2698 C 0.11713 0.26844 0.47747 0.0
C2699 C 0.14015 0.27125 0.47463 0.0
C2700 C 0.11134 0.28649 0.44179 0.0
C2701 C 0.14819 0.27883 0.45386 0.0
C2702 C 0.10165 0.29919 0.40314 0.0
C2703 C 0.06017 0.31185 0.41886 0.0
N2704 N 0.13374 0.28664 0.43823 0.0
N2705 N 0.07627 0.30496 0.43314 0.0
H2706 H 0.79263 0.16412 0.47523 0.0
H2707 H 0.72158 0.08979 0.40236 0.0
H2708 H 0.77935 0.09336 0.47257 0.0
H2709 H 0.76812 0.13274 0.36799 0.0
H2710 H 0.72069 0.1159 0.43281 0.0
H2711 H 0.77091 0.1694 0.4407 0.0
C2712 C 0.78581 0.14963 0.46703 0.0
C2713 C 0.78725 0.12827 0.47709 0.0
C2714 C 0.73023 0.12037 0.41804 0.0
C2715 C 0.76148 0.13458 0.43915 0.0
C2716 C 0.73064 0.1054 0.40053 0.0
C2717 C 0.74749 0.10783 0.38455 0.0
C2718 C 0.74754 0.13625 0.41918 0.0
C2719 C 0.75706 0.12911 0.38187 0.0
C2720 C 0.77289 0.15284 0.44787 0.0
C2721 C 0.7784 0.11013 0.46567 0.0
N2722 N 0.75839 0.14221 0.40007 0.0
N2723 N 0.76544 0.11378 0.4476 0.0
H2724 H 0.97262 0.7594 0.39599 0.0
H2725 H 0.88526 0.77359 0.49108 0.0
H2726 H 0.92497 0.81293 0.39626 0.0
H2727 H 0.95045 0.74344 0.49349 0.0
H2728 H 0.88861 0.77694 0.45031 0.0
H2729 H 0.94915 0.73852 0.42217 0.0
C2730 C 0.95672 0.76632 0.40083 0.0
C2731 C 0.95131 0.78839 0.39554 0.0
C2732 C 0.90198 0.7694 0.4599 0.0
C2733 C 0.92544 0.76547 0.42582 0.0
C2734 C 0.90039 0.76807 0.48305 0.0
C2735 C 0.91782 0.75863 0.49555 0.0
C2736 C 0.92096 0.76095 0.44942 0.0
C2737 C 0.93682 0.7512 0.4845 0.0
C2738 C 0.94337 0.75448 0.4158 0.0
C2739 C 0.93019 0.79632 0.40123 0.0
N2740 N 0.93784 0.75246 0.46203 0.0
N2741 N 0.91829 0.78523 0.4171 0.0
H2742 H 0.26742 0.97703 0.39592 0.0
H2743 H 0.2705 0.92528 0.51812 0.0
H2744 H 0.25537 0.01457 0.45549 0.0
H2745 H 0.31493 0.90075 0.46748 0.0
H2746 H 0.25719 0.95347 0.49185 0.0
H2747 H 0.27976 0.94537 0.41927 0.0
C2748 C 0.26776 0.9787 0.41388 0.0
C2749 C 0.26045 0.99833 0.42391 0.0
C2750 C 0.26967 0.94174 0.48643 0.0
C2751 C 0.27361 0.96229 0.45037 0.0
C2752 C 0.27713 0.9255 0.50131 0.0
C2753 C 0.29413 0.91091 0.49507 0.0
C2754 C 0.27912 0.9433 0.4651 0.0
C2755 C 0.30188 0.91179 0.47297 0.0
C2756 C 0.27463 0.96066 0.4271 0.0
C2757 C 0.26099 0.99973 0.44716 0.0
N2758 N 0.29446 0.92799 0.45874 0.0
N2759 N 0.26718 0.9818 0.45965 0.0
H2760 H 0.08467 0.78394 0.67227 0.0
H2761 H 0.163 0.73601 0.64941 0.0
H2762 H 0.11124 0.84523 0.6446 0.0
H2763 H 0.17383 0.79278 0.60584 0.0
H2764 H 0.15775 0.7612 0.68056 0.0
H2765 H 0.12214 0.77278 0.68277 0.0
C2766 C 0.09856 0.79494 0.66831 0.0
C2767 C 0.09541 0.81433 0.65556 0.0
C2768 C 0.16169 0.7682 0.66427 0.0
C2769 C 0.13833 0.80208 0.66752 0.0
C2770 C 0.16451 0.75383 0.64649 0.0
C2771 C 0.1662 0.76274 0.62482 0.0
C2772 C 0.15864 0.79099 0.65943 0.0
C2773 C 0.17017 0.78554 0.62209 0.0
C2774 C 0.12002 0.78891 0.67477 0.0
C2775 C 0.11341 0.82906 0.65256 0.0
N2776 N 0.166 0.79914 0.63937 0.0
N2777 N 0.13422 0.82248 0.65818 0.0
H2778 H 0.18206 0.1474 0.58503 0.0
H2779 H 0.26676 0.14554 0.51886 0.0
H2780 H 0.22444 0.18012 0.63235 0.0
H2781 H 0.29534 0.14694 0.58487 0.0
H2782 H 0.23506 0.16731 0.53234 0.0
H2783 H 0.20354 0.16392 0.55487 0.0
C2784 C 0.19512 0.15923 0.5891 0.0
C2785 C 0.20337 0.16056 0.6109 0.0
C2786 C 0.24831 0.16284 0.54378 0.0
C2787 C 0.22809 0.1787 0.57697 0.0
C2788 C 0.26608 0.14994 0.53629 0.0
C2789 C 0.28336 0.14394 0.551 0.0
C2790 C 0.24797 0.16958 0.56609 0.0
C2791 C 0.28216 0.15078 0.57311 0.0
C2792 C 0.20753 0.16873 0.57173 0.0
C2793 C 0.21909 0.17712 0.61541 0.0
N2794 N 0.26485 0.16322 0.5799 0.0
N2795 N 0.23153 0.18543 0.59832 0.0
H2796 H 0.92055 0.27115 0.67097 0.0
H2797 H 0.92478 0.21241 0.60698 0.0
H2798 H 0.89439 0.3045 0.61288 0.0
H2799 H 0.86761 0.2339 0.57006 0.0
H2800 H 0.90473 0.21943 0.64149 0.0
H2801 H 0.89061 0.24374 0.66867 0.0
C2802 C 0.90787 0.27352 0.65829 0.0
C2803 C 0.91146 0.28852 0.64036 0.0
C2804 C 0.89609 0.22202 0.62594 0.0
C2805 C 0.87827 0.25676 0.63708 0.0
C2806 C 0.90771 0.21796 0.60624 0.0
C2807 C 0.89887 0.22551 0.58605 0.0
C2808 C 0.87686 0.23545 0.62483 0.0
C2809 C 0.87595 0.23026 0.58569 0.0
C2810 C 0.89074 0.25765 0.65693 0.0
C2811 C 0.89376 0.2916 0.62551 0.0
N2812 N 0.86588 0.23646 0.60493 0.0
N2813 N 0.87813 0.2753 0.62365 0.0
H2814 H 0.77234 0.05287 0.59138 0.0
H2815 H 0.74728 0.92566 0.62255 0.0
H2816 H 0.74024 0.03165 0.65225 0.0
H2817 H 0.78664 0.94794 0.56611 0.0
H2818 H 0.74019 0.96453 0.63172 0.0
H2819 H 0.76973 0.01486 0.57772 0.0
C2820 C 0.76369 0.04042 0.60143 0.0
C2821 C 0.7578 0.04485 0.62348 0.0
C2822 C 0.75054 0.9609 0.61744 0.0
C2823 C 0.75466 1.00164 0.60819 0.0
C2824 C 0.75497 0.93874 0.61248 0.0
C2825 C 0.76765 0.93361 0.59362 0.0
C2826 C 0.75889 0.97797 0.60344 0.0
C2827 C 0.77692 0.95118 0.58092 0.0
C2828 C 0.76274 0.01858 0.59388 0.0
C2829 C 0.74564 0.02855 0.63535 0.0
N2830 N 0.7722 0.9726 0.58596 0.0
N2831 N 0.74525 1.00728 0.62796 0.0
H2832 H 0.39121 0.11123 0.2983 0.0
H2833 H 0.48504 0.13778 0.26793 0.0
H2834 H 0.38514 0.1404 0.23242 0.0
H2835 H 0.46723 0.18081 0.32206 0.0
H2836 H 0.44856 0.145 0.2511 0.0
H2837 H 0.41384 0.14313 0.30925 0.0
C2838 C 0.39388 0.12484 0.28649 0.0
C2839 C 0.38733 0.12296 0.26431 0.0
C2840 C 0.4531 0.15368 0.26618 0.0
C2841 C 0.41408 0.15821 0.27605 0.0
C2842 C 0.47372 0.14922 0.27587 0.0
C2843 C 0.47836 0.15766 0.2969 0.0
C2844 C 0.43709 0.16564 0.27826 0.0
C2845 C 0.46358 0.173 0.30631 0.0
C2846 C 0.40661 0.14314 0.29268 0.0
C2847 C 0.39074 0.14108 0.24957 0.0
N2848 N 0.44306 0.17578 0.29742 0.0
N2849 N 0.40509 0.15753 0.2553 0.0
H2850 H 0.93493 0.38628 0.25399 0.0
H2851 H 0.88529 0.42276 0.32359 0.0
H2852 H 0.89522 0.41521 0.20138 0.0
H2853 H 0.88842 0.47004 0.26878 0.0
H2854 H 0.8718 0.39426 0.29803 0.0
H2855 H 0.90104 0.3792 0.27533 0.0
C2856 C 0.91902 0.39148 0.24717 0.0
C2857 C 0.91783 0.40393 0.22736 0.0
C2858 C 0.8748 0.41105 0.29176 0.0
C2859 C 0.88016 0.39868 0.25267 0.0
C2860 C 0.88303 0.42712 0.30615 0.0
C2861 C 0.88972 0.44806 0.29768 0.0
C2862 C 0.8743 0.41591 0.2688 0.0
C2863 C 0.88505 0.4535 0.2755 0.0
C2864 C 0.8995 0.38694 0.25897 0.0
C2865 C 0.89683 0.40791 0.21793 0.0
N2866 N 0.878 0.43733 0.26167 0.0
N2867 N 0.87841 0.40552 0.23094 0.0
H2868 H 0.63405 0.0288 0.30613 0.0
H2869 H 0.55373 0.93623 0.26272 0.0
H2870 H 0.57366 0.0426 0.26991 0.0
H2871 H 0.61483 0.92431 0.29897 0.0
H2872 H 0.55676 0.97567 0.27112 0.0
H2873 H 0.61979 0.99183 0.31562 0.0
C2874 C 0.61721 0.02446 0.30122 0.0
C2875 C 0.60571 0.03762 0.28565 0.0
C2876 C 0.56956 0.96445 0.27716 0.0
C2877 C 0.58993 0.99569 0.29533 0.0
C2878 C 0.56822 0.94203 0.27179 0.0
C2879 C 0.58396 0.92697 0.28039 0.0
C2880 C 0.58707 0.97187 0.29069 0.0
C2881 C 0.60231 0.93538 0.29207 0.0
C2882 C 0.60928 1.00314 0.30617 0.0
C2883 C 0.5836 0.03203 0.28077 0.0
N2884 N 0.60324 0.95729 0.2971 0.0
N2885 N 0.57676 1.01074 0.28447 0.0
H2886 H 0.04839 0.5993 0.26325 0.0
H2887 H 0.16734 0.56723 0.30977 0.0
H2888 H 0.10349 0.64589 0.26077 0.0
H2889 H 0.11798 0.51881 0.28965 0.0
H2890 H 0.1452 0.59663 0.292 0.0
H2891 H 0.07389 0.57 0.27515 0.0
C2892 C 0.06586 0.60339 0.26549 0.0
C2893 C 0.07394 0.62495 0.26117 0.0
C2894 C 0.13947 0.5795 0.29116 0.0
C2895 C 0.10321 0.59155 0.27437 0.0
C2896 C 0.15212 0.56271 0.30118 0.0
C2897 C 0.14423 0.54064 0.30151 0.0
C2898 C 0.11879 0.57407 0.28172 0.0
C2899 C 0.12453 0.53566 0.29004 0.0
C2900 C 0.08045 0.58662 0.27199 0.0
C2901 C 0.0967 0.62941 0.2641 0.0
N2902 N 0.11226 0.55234 0.28093 0.0
N2903 N 0.11064 0.61278 0.27061 0.0
H2904 H 0.44261 0.01975 0.75959 0.0
H2905 H 0.43611 0.88881 0.77636 0.0
H2906 H 0.37961 0.98464 0.75846 0.0
H2907 H 0.48979 0.9304 0.80002 0.0
H2908 H 0.41444 0.92225 0.76794 0.0
H2909 H 0.46143 0.98452 0.76691 0.0
C2910 C 0.43283 1.00449 0.76 0.0
C2911 C 0.40951 1.00505 0.75936 0.0
C2912 C 0.43078 0.92398 0.77542 0.0
C2913 C 0.43065 0.96516 0.7685 0.0
C2914 C 0.44295 0.90493 0.78071 0.0
C2915 C 0.46508 0.90705 0.78798 0.0
C2916 C 0.44097 0.94492 0.77765 0.0
C2917 C 0.473 0.92818 0.79376 0.0
C2918 C 0.4435 0.9845 0.76476 0.0
C2919 C 0.39763 0.98484 0.75951 0.0
N2920 N 0.46121 0.94646 0.78775 0.0
N2921 N 0.40831 0.96561 0.76471 0.0
H2922 H 0.07577 0.37017 0.75126 0.0
H2923 H 0.12655 0.4245 0.82349 0.0
H2924 H 0.09944 0.43503 0.73035 0.0
H2925 H 0.1843 0.43121 0.78165 0.0
H2926 H 0.11467 0.39246 0.80206 0.0
H2927 H 0.11218 0.36221 0.76749 0.0
C2928 C 0.08897 0.38232 0.74892 0.0
C2929 C 0.08427 0.40397 0.74091 0.0
C2930 C 0.13067 0.40006 0.79818 0.0
C2931 C 0.1259 0.39456 0.75856 0.0
C2932 C 0.13742 0.41838 0.81061 0.0
C2933 C 0.15523 0.4315 0.80301 0.0
C2934 C 0.14117 0.39634 0.77756 0.0
C2935 C 0.16941 0.4223 0.78697 0.0
C2936 C 0.1098 0.37762 0.75815 0.0
C2937 C 0.10211 0.41867 0.73759 0.0
N2938 N 0.16127 0.4062 0.7735 0.0
N2939 N 0.1221 0.41395 0.74705 0.0
H2940 H 0.61259 0.08045 0.7604 0.0
H2941 H 0.49087 0.07388 0.78578 0.0
H2942 H 0.5928 1.01161 0.76175 0.0
H2943 H 0.54037 0.10059 0.82827 0.0
H2944 H 0.51814 0.04727 0.77087 0.0
H2945 H 0.57453 0.09077 0.76967 0.0
C2946 C 0.59999 0.06745 0.76152 0.0
C2947 C 0.60608 0.04514 0.76439 0.0
C2948 C 0.52311 0.05895 0.7835 0.0
C2949 C 0.5634 0.05642 0.774 0.0
C2950 C 0.50764 0.07375 0.79248 0.0
C2951 C 0.51633 0.09275 0.80296 0.0
C2952 C 0.54554 0.06213 0.78918 0.0
C2953 C 0.53518 0.08869 0.81589 0.0
C2954 C 0.57846 0.07333 0.76746 0.0
C2955 C 0.58885 0.02916 0.76274 0.0
N2956 N 0.55081 0.07544 0.8067 0.0
N2957 N 0.56821 0.03478 0.76995 0.0
H2958 H 0.96449 0.64218 0.72904 0.0
H2959 H 0.89273 0.56333 0.80765 0.0
H2960 H 0.91522 0.668 0.77376 0.0
H2961 H 0.95585 0.54925 0.77632 0.0
H2962 H 0.89262 0.59987 0.78858 0.0
H2963 H 0.94826 0.60513 0.73388 0.0
C2964 C 0.94948 0.6403 0.73897 0.0
C2965 C 0.94253 0.65738 0.75295 0.0
C2966 C 0.90648 0.58869 0.78609 0.0
C2967 C 0.92461 0.61561 0.75909 0.0
C2968 C 0.90692 0.56819 0.79744 0.0
C2969 C 0.92434 0.55314 0.79365 0.0
C2970 C 0.92356 0.59398 0.77089 0.0
C2971 C 0.94215 0.5602 0.78004 0.0
C2972 C 0.94055 0.61903 0.74217 0.0
C2973 C 0.92215 0.65454 0.76418 0.0
N2974 N 0.94111 0.57993 0.76893 0.0
N2975 N 0.9146 0.63353 0.76835 0.0
H2976 H 0.23307 0.47021 0.07479 0.0
H2977 H 0.31115 0.43363 0.16781 0.0
H2978 H 0.27104 0.40942 0.07176 0.0
H2979 H 0.26024 0.48328 0.17531 0.0
H2980 H 0.28883 0.41592 0.13917 0.0
H2981 H 0.23717 0.46983 0.11501 0.0
C2982 C 0.24269 0.45701 0.08263 0.0
C2983 C 0.25228 0.44016 0.07003 0.0
C2984 C 0.28197 0.43009 0.14774 0.0
C2985 C 0.25664 0.43922 0.11615 0.0
C2986 C 0.29461 0.44002 0.16437 0.0
C2987 C 0.28791 0.4606 0.17264 0.0
C2988 C 0.26298 0.44123 0.13972 0.0
C2989 C 0.26628 0.46793 0.16825 0.0
C2990 C 0.24456 0.45645 0.10567 0.0
C2991 C 0.26391 0.42302 0.08099 0.0
N2992 N 0.2548 0.45873 0.15129 0.0
N2993 N 0.26605 0.42314 0.1035 0.0
H2994 H 0.23512 0.63643 0.92363 0.0
H2995 H 0.27997 0.52949 0.98775 0.0
H2996 H 0.28876 0.63486 0.9716 0.0
H2997 H 0.25112 0.52413 0.92221 0.0
H2998 H 0.26998 0.56883 0.98795 0.0
H2999 H 0.23356 0.59563 0.92509 0.0
C3000 C 0.24718 0.6275 0.93378 0.0
C3001 C 0.2616 0.63897 0.94814 0.0
C3002 C 0.26537 0.55887 0.97373 0.0
C3003 C 0.2591 0.59289 0.95057 0.0
C3004 C 0.27057 0.53634 0.97385 0.0
C3005 C 0.26761 0.52419 0.95435 0.0
C3006 C 0.25707 0.56875 0.95409 0.0
C3007 C 0.25465 0.53346 0.93713 0.0
C3008 C 0.24583 0.60432 0.93502 0.0
C3009 C 0.27703 0.62665 0.96067 0.0
N3010 N 0.25065 0.55568 0.9369 0.0
N3011 N 0.27494 0.60421 0.96211 0.0
H3012 H 0.37618 0.30347 0.93259 0.0
H3013 H 0.49575 0.26884 0.96452 0.0
H3014 H 0.41936 0.3409 0.97489 0.0
H3015 H 0.46764 0.24501 0.90304 0.0
H3016 H 0.4649 0.29372 0.96847 0.0
H3017 H 0.40853 0.28561 0.91597 0.0
C3018 C 0.39267 0.30896 0.93758 0.0
C3019 C 0.39562 0.32027 0.95772 0.0
C3020 C 0.46528 0.28294 0.95414 0.0
C3021 C 0.43195 0.3016 0.93839 0.0
C3022 C 0.48252 0.26788 0.95237 0.0
C3023 C 0.48453 0.25477 0.93333 0.0
C3024 C 0.44953 0.2847 0.93699 0.0
C3025 C 0.46682 0.25495 0.91794 0.0
C3026 C 0.41108 0.29826 0.92842 0.0
C3027 C 0.41669 0.32954 0.96128 0.0
N3028 N 0.45012 0.27006 0.91988 0.0
N3029 N 0.4345 0.31856 0.9531 0.0
H3030 H 0.74323 0.38954 0.99582 0.0
H3031 H 0.79856 0.40969 0.93744 0.0
H3032 H 0.72853 0.44952 0.95991 0.0
H3033 H 0.75551 0.43163 0.8842 0.0
H3034 H 0.77402 0.37783 0.94345 0.0
H3035 H 0.73709 0.36811 0.96189 0.0
C3036 C 0.73748 0.39813 0.98093 0.0
C3037 C 0.73903 0.42147 0.97937 0.0
C3038 C 0.76994 0.38952 0.9302 0.0
C3039 C 0.73236 0.39759 0.94116 0.0
C3040 C 0.7843 0.40769 0.92666 0.0
C3041 C 0.77782 0.42477 0.91193 0.0
C3042 C 0.74774 0.39178 0.92272 0.0
C3043 C 0.75991 0.42008 0.89752 0.0
C3044 C 0.73388 0.38585 0.96157 0.0
C3045 C 0.72955 0.43161 0.96077 0.0
N3046 N 0.74478 0.40412 0.90367 0.0
N3047 N 0.72725 0.41972 0.94183 0.0
H3048 H 0.6279 0.85853 0.91696 0.0
H3049 H 0.61898 0.73501 0.88733 0.0
H3050 H 0.66288 0.80238 0.94545 0.0
H3051 H 0.56696 0.78413 0.8911 0.0
H3052 H 0.64648 0.76503 0.88283 0.0
H3053 H 0.62086 0.83695 0.88329 0.0
C3054 C 0.63475 0.84192 0.91573 0.0
C3055 C 0.64457 0.83139 0.93422 0.0
C3056 C 0.62894 0.76916 0.88369 0.0
C3057 C 0.63708 0.80722 0.89623 0.0
C3058 C 0.61335 0.75214 0.88676 0.0
C3059 C 0.59109 0.75744 0.89117 0.0
C3060 C 0.62205 0.79137 0.88555 0.0
C3061 C 0.5843 0.7796 0.88917 0.0
C3062 C 0.63107 0.8298 0.89645 0.0
C3063 C 0.654 0.81038 0.93182 0.0
N3064 N 0.59987 0.79591 0.88696 0.0
N3065 N 0.64968 0.7987 0.91319 0.0
H3066 H 0.75802 0.64133 0.02342 0.0
H3067 H 0.77989 0.55887 0.10009 0.0
H3068 H 0.78469 0.68587 0.07279 0.0
H3069 H 0.76677 0.60761 0.15056 0.0
H3070 H 0.77813 0.5883 0.07163 0.0
H3071 H 0.75425 0.61239 0.05215 0.0
C3072 C 0.76257 0.64525 0.0404 0.0
C3073 C 0.77214 0.66593 0.04561 0.0
C3074 C 0.77539 0.59255 0.08889 0.0
C3075 C 0.76867 0.63257 0.07833 0.0
C3076 C 0.77685 0.57584 0.10519 0.0
C3077 C 0.77341 0.58087 0.12766 0.0
C3078 C 0.77045 0.61445 0.09514 0.0
C3079 C 0.76951 0.60311 0.13336 0.0
C3080 C 0.76084 0.62853 0.0567 0.0
C3081 C 0.77755 0.67004 0.06798 0.0
N3082 N 0.76818 0.61917 0.11716 0.0
N3083 N 0.776 0.65336 0.08352 0.0
H3084 H 0.39225 0.7721 0.06188 0.0
H3085 H 0.43168 0.712 0.1483 0.0
H3086 H 0.38826 0.82816 0.1059 0.0
H3087 H 0.46774 0.77435 0.15161 0.0
H3088 H 0.39948 0.73199 0.13296 0.0
H3089 H 0.40218 0.74826 0.09373 0.0
C3090 C 0.39297 0.77919 0.07837 0.0
C3091 C 0.39019 0.80204 0.08141 0.0
C3092 C 0.41422 0.74126 0.13778 0.0
C3093 C 0.40139 0.77527 0.11752 0.0
C3094 C 0.43255 0.72998 0.14637 0.0
C3095 C 0.45244 0.74165 0.1503 0.0
C3096 C 0.41604 0.7642 0.13346 0.0
C3097 C 0.4528 0.76484 0.14803 0.0
C3098 C 0.39823 0.7656 0.09656 0.0
C3099 C 0.39083 0.81058 0.103 0.0
N3100 N 0.43485 0.77542 0.13938 0.0
N3101 N 0.39723 0.79729 0.12025 0.0
H3102 H 0.68351 0.30604 0.07572 0.0
H3103 H 0.62889 0.23126 0.12969 0.0
H3104 H 0.61863 0.32479 0.09954 0.0
H3105 H 0.62817 0.27232 0.18777 0.0
H3106 H 0.65888 0.25429 0.11426 0.0
H3107 H 0.69171 0.2893 0.11209 0.0
C3108 C 0.6715 0.308 0.08902 0.0
C3109 C 0.64979 0.31558 0.08441 0.0
C3110 C 0.65311 0.2576 0.13101 0.0
C3111 C 0.6595 0.29735 0.12594 0.0
C3112 C 0.63602 0.24426 0.13982 0.0
C3113 C 0.62515 0.25089 0.15918 0.0
C3114 C 0.65796 0.27808 0.14118 0.0
C3115 C 0.6354 0.26747 0.17203 0.0
C3116 C 0.67631 0.2984 0.10979 0.0
C3117 C 0.63517 0.31818 0.10227 0.0
N3118 N 0.65015 0.2817 0.16208 0.0
N3119 N 0.64006 0.30847 0.12225 0.0
H3120 H 0.95289 0.82901 0.67452 0.0
H3121 H 0.88789 0.77302 0.60578 0.0
H3122 H 0.99411 0.78336 0.6379 0.0
H3123 H 0.91454 0.71217 0.63379 0.0
H3124 H 0.90718 0.79398 0.63465 0.0
H3125 H 0.92321 0.80121 0.67565 0.0
C3126 C 0.95591 0.81297 0.66707 0.0
C3127 C 0.97555 0.80874 0.65507 0.0
C3128 C 0.9079 0.77593 0.63518 0.0
C3129 C 0.94202 0.77703 0.65714 0.0
C3130 C 0.89707 0.76412 0.61865 0.0
C3131 C 0.90012 0.74117 0.61755 0.0
C3132 C 0.92275 0.76463 0.64948 0.0
C3133 C 0.91215 0.73005 0.6343 0.0
C3134 C 0.93907 0.7971 0.66814 0.0
C3135 C 0.97885 0.7875 0.64652 0.0
N3136 N 0.92404 0.74205 0.64911 0.0
N3137 N 0.96192 0.77245 0.64732 0.0
H3138 H 0.27373 0.0385 0.65631 0.0
H3139 H 0.26481 0.94476 0.56802 0.0
H3140 H 0.25327 0.05089 0.5884 0.0
H3141 H 0.30691 0.9375 0.62603 0.0
H3142 H 0.26069 0.9842 0.57595 0.0
H3143 H 0.2901 1.00324 0.64512 0.0
C3144 C 0.27375 0.03425 0.6388 0.0
C3145 C 0.26193 0.04718 0.62324 0.0
C3146 C 0.27083 0.974 0.58696 0.0
C3147 C 0.27934 1.00674 0.61063 0.0
C3148 C 0.27275 0.95139 0.58275 0.0
C3149 C 0.2861 0.93792 0.5965 0.0
C3150 C 0.28208 0.98308 0.60524 0.0
C3151 C 0.29629 0.94736 0.61517 0.0
C3152 C 0.28276 0.014 0.63248 0.0
C3153 C 0.26221 0.04116 0.60083 0.0
N3154 N 0.29406 0.96947 0.61903 0.0
N3155 N 0.27011 0.02087 0.59525 0.0
H3156 H 0.03202 0.28583 0.58367 0.0
H3157 H 0.13504 0.24619 0.57424 0.0
H3158 H 0.0496 0.31037 0.64837 0.0
H3159 H 0.156 0.29962 0.61686 0.0
H3160 H 0.09693 0.25082 0.5874 0.0
H3161 H 0.07093 0.27765 0.57665 0.0
C3162 C 0.04426 0.29066 0.59593 0.0
C3163 C 0.03759 0.29836 0.61674 0.0
C3164 C 0.10993 0.26147 0.59394 0.0
C3165 C 0.08194 0.28783 0.60957 0.0
C3166 C 0.1318 0.25831 0.58705 0.0
C3167 C 0.14828 0.27369 0.59319 0.0
C3168 C 0.10494 0.27986 0.60725 0.0
C3169 C 0.14342 0.28828 0.61065 0.0
C3170 C 0.06636 0.28496 0.59239 0.0
C3171 C 0.05418 0.30429 0.6321 0.0
N3172 N 0.12185 0.29178 0.61642 0.0
N3173 N 0.07572 0.29844 0.62843 0.0
H3174 H 0.86828 0.14133 0.62899 0.0
H3175 H 0.77291 0.17572 0.60586 0.0
H3176 H 0.81414 0.16945 0.66632 0.0
H3177 H 0.82469 0.14016 0.57164 0.0
H3178 H 0.79991 0.20331 0.61701 0.0
H3179 H 0.87468 0.17793 0.61162 0.0
C3180 C 0.85784 0.15514 0.63377 0.0
C3181 C 0.83798 0.15164 0.646 0.0
C3182 C 0.80549 0.18962 0.60686 0.0
C3183 C 0.84312 0.1903 0.62369 0.0
C3184 C 0.79009 0.17341 0.60091 0.0
C3185 C 0.79676 0.15447 0.58915 0.0
C3186 C 0.82826 0.18521 0.60422 0.0
C3187 C 0.81902 0.15345 0.58222 0.0
C3188 C 0.86176 0.17624 0.62417 0.0
C3189 C 0.82709 0.17062 0.65378 0.0
N3190 N 0.83414 0.16822 0.59039 0.0
N3191 N 0.83145 0.19054 0.6433 0.0
H3192 H 0.96335 0.32761 0.38756 0.0
H3193 H 0.95303 0.28036 0.4848 0.0
H3194 H 0.92235 0.27352 0.36459 0.0
H3195 H 0.8851 0.26193 0.47012 0.0
H3196 H 0.95735 0.29416 0.44669 0.0
H3197 H 0.94439 0.32549 0.42349 0.0
C3198 C 0.94953 0.31604 0.38962 0.0
C3199 C 0.94607 0.29895 0.37433 0.0
C3200 C 0.94143 0.28718 0.45183 0.0
C3201 C 0.92506 0.29614 0.41477 0.0
C3202 C 0.93926 0.27852 0.4733 0.0
C3203 C 0.91872 0.27003 0.48047 0.0
C3204 C 0.92293 0.28717 0.4375 0.0
C3205 C 0.9013 0.2682 0.46495 0.0
C3206 C 0.93914 0.31447 0.41031 0.0
C3207 C 0.92688 0.28565 0.37702 0.0
N3208 N 0.90374 0.27683 0.44403 0.0
N3209 N 0.91786 0.28336 0.39767 0.0
H3210 H 0.76164 1.01244 0.43659 0.0
H3211 H 0.78435 0.92821 0.5094 0.0
H3212 H 0.78313 0.96682 0.38599 0.0
H3213 H 0.75254 0.88533 0.46151 0.0
H3214 H 0.78693 0.95747 0.48089 0.0
H3215 H 0.75767 0.98103 0.46271 0.0
C3216 C 0.76484 0.99576 0.43073 0.0
C3217 C 0.77299 0.99224 0.40917 0.0
C3218 C 0.77956 0.94156 0.47664 0.0
C3219 C 0.7691 0.95649 0.43912 0.0
C3220 C 0.77841 0.92469 0.49276 0.0
C3221 C 0.76779 0.90439 0.48799 0.0
C3222 C 0.77032 0.93804 0.45552 0.0
C3223 C 0.76065 0.9008 0.46598 0.0
C3224 C 0.76298 0.97794 0.44578 0.0
C3225 C 0.77699 0.97022 0.40257 0.0
N3226 N 0.76188 0.91761 0.4505 0.0
N3227 N 0.77518 0.95308 0.4176 0.0
H3228 H 0.09149 0.81198 0.40649 0.0
H3229 H 0.10137 0.76583 0.53159 0.0
H3230 H 0.03487 0.79354 0.44742 0.0
H3231 H 0.15381 0.7561 0.48349 0.0
H3232 H 0.07866 0.7832 0.50228 0.0
H3233 H 0.11629 0.79678 0.43553 0.0
C3234 C 0.08427 0.80445 0.42138 0.0
C3235 C 0.06107 0.80392 0.42446 0.0
C3236 C 0.09524 0.77746 0.49822 0.0
C3237 C 0.08924 0.78733 0.45789 0.0
C3238 C 0.10831 0.76783 0.51499 0.0
C3239 C 0.12946 0.7595 0.50992 0.0
C3240 C 0.1035 0.779 0.47632 0.0
C3241 C 0.13752 0.76226 0.48805 0.0
C3242 C 0.09841 0.79595 0.43797 0.0
C3243 C 0.05262 0.79419 0.4442 0.0
N3244 N 0.1245 0.77173 0.47199 0.0
N3245 N 0.06669 0.78651 0.46023 0.0
H3246 H 0.31712 0.17175 0.42892 0.0
H3247 H 0.27629 0.07632 0.36 0.0
H3248 H 0.3327 0.10169 0.4312 0.0
H3249 H 0.2408 0.13625 0.37574 0.0
H3250 H 0.31133 0.09715 0.3611 0.0
H3251 H 0.3062 0.16826 0.38975 0.0
C3252 C 0.31871 0.15574 0.42095 0.0
C3253 C 0.32431 0.13659 0.43335 0.0
C3254 C 0.29583 0.10604 0.36336 0.0
C3255 C 0.31265 0.13273 0.38892 0.0
C3256 C 0.27594 0.09407 0.36315 0.0
C3257 C 0.25619 0.10446 0.3696 0.0
C3258 C 0.29574 0.12765 0.37201 0.0
C3259 C 0.25611 0.12753 0.37213 0.0
C3260 C 0.31291 0.15389 0.39856 0.0
C3261 C 0.32713 0.11651 0.42234 0.0
N3262 N 0.27588 0.13842 0.3741 0.0
N3263 N 0.3209 0.115 0.40074 0.0
H3264 H 0.65072 0.94827 0.77443 0.0
H3265 H 0.59936 0.85483 0.75576 0.0
H3266 H 0.6409 0.93888 0.84515 0.0
H3267 H 0.55914 0.88638 0.80582 0.0
H3268 H 0.63286 0.86893 0.77401 0.0
H3269 H 0.63841 0.91001 0.76864 0.0
C3270 C 0.6467 0.9378 0.78877 0.0
C3271 C 0.64622 0.94662 0.81016 0.0
C3272 C 0.61671 0.87197 0.78144 0.0
C3273 C 0.6316 0.90332 0.80379 0.0
C3274 C 0.59757 0.86406 0.77103 0.0
C3275 C 0.57649 0.87055 0.77871 0.0
C3276 C 0.61451 0.88642 0.79942 0.0
C3277 C 0.57512 0.88187 0.79887 0.0
C3278 C 0.63992 0.91588 0.78557 0.0
C3279 C 0.64109 0.93255 0.82834 0.0
N3280 N 0.59397 0.88999 0.80829 0.0
N3281 N 0.63297 0.91176 0.82466 0.0
H3282 H 0.03421 0.62306 0.76285 0.0
H3283 H 0.102 0.53655 0.79388 0.0
H3284 H 0.08413 0.66586 0.79193 0.0
H3285 H 0.15683 0.58252 0.78365 0.0
H3286 H 0.07617 0.56759 0.79072 0.0
H3287 H 0.06042 0.59219 0.76472 0.0
C3288 C 0.05085 0.62616 0.76915 0.0
C3289 C 0.05682 0.64711 0.77752 0.0
C3290 C 0.09384 0.57094 0.78937 0.0
C3291 C 0.08665 0.61146 0.78057 0.0
C3292 C 0.1087 0.55325 0.79166 0.0
C3293 C 0.13168 0.55689 0.78894 0.0
C3294 C 0.10197 0.59252 0.78464 0.0
C3295 C 0.13924 0.57896 0.78581 0.0
C3296 C 0.06565 0.60834 0.77067 0.0
C3297 C 0.07871 0.64998 0.78545 0.0
N3298 N 0.12441 0.59597 0.78369 0.0
N3299 N 0.09279 0.63229 0.78695 0.0
H3300 H 0.39007 0.10289 0.74284 0.0
H3301 H 0.4609 0.16696 0.70325 0.0
H3302 H 0.37786 0.14593 0.79839 0.0
H3303 H 0.47024 0.16496 0.77453 0.0
H3304 H 0.42063 0.17053 0.70895 0.0
H3305 H 0.4043 0.1347 0.72164 0.0
C3306 C 0.38988 0.1192 0.75035 0.0
C3307 C 0.38445 0.12164 0.77283 0.0
C3308 C 0.43162 0.17036 0.72328 0.0
C3309 C 0.40144 0.15778 0.74918 0.0
C3310 C 0.45451 0.1681 0.7201 0.0
C3311 C 0.46841 0.16434 0.73856 0.0
C3312 C 0.42304 0.16855 0.745 0.0
C3313 C 0.4597 0.16663 0.75994 0.0
C3314 C 0.39762 0.13756 0.73812 0.0
C3315 C 0.38328 0.14321 0.78144 0.0
N3316 N 0.43737 0.1682 0.76262 0.0
N3317 N 0.39264 0.16046 0.76988 0.0
H3318 H 0.98289 0.37008 0.74046 0.0
H3319 H 0.86656 0.41539 0.76508 0.0
H3320 H 0.95203 0.42936 0.71747 0.0
H3321 H 0.92612 0.42967 0.80167 0.0
H3322 H 0.88425 0.38274 0.74965 0.0
H3323 H 0.94687 0.35644 0.75566 0.0
C3324 C 0.9681 0.37994 0.7379 0.0
C3325 C 0.97045 0.40287 0.73333 0.0
C3326 C 0.8929 0.3919 0.76248 0.0
C3327 C 0.92959 0.3867 0.74623 0.0
C3328 C 0.88291 0.41081 0.77125 0.0
C3329 C 0.89623 0.4265 0.78247 0.0
C3330 C 0.9157 0.38869 0.76616 0.0
C3331 C 0.91621 0.41885 0.79147 0.0
C3332 C 0.9477 0.3721 0.74648 0.0
C3333 C 0.95117 0.41329 0.72574 0.0
N3334 N 0.92578 0.40047 0.78268 0.0
N3335 N 0.9313 0.40586 0.7338 0.0
H3336 H 0.67519 0.12063 0.26604 0.0
H3337 H 0.61266 0.16839 0.3252 0.0
H3338 H 0.64181 0.14217 0.20603 0.0
H3339 H 0.57391 0.1399 0.27193 0.0
H3340 H 0.63906 0.18316 0.298 0.0
H3341 H 0.66319 0.15443 0.28408 0.0
C3342 C 0.66588 0.13294 0.25652 0.0
C3343 C 0.65808 0.12827 0.23524 0.0
C3344 C 0.62448 0.17417 0.29225 0.0
C3345 C 0.6422 0.16516 0.25625 0.0
C3346 C 0.60963 0.16521 0.30773 0.0
C3347 C 0.59187 0.15151 0.30082 0.0
C3348 C 0.62225 0.16827 0.26992 0.0
C3349 C 0.5881 0.14923 0.27801 0.0
C3350 C 0.65911 0.15245 0.26663 0.0
C3351 C 0.6469 0.14487 0.22309 0.0
N3352 N 0.6036 0.157 0.26333 0.0
N3353 N 0.63841 0.16247 0.23408 0.0
H3354 H 0.97754 0.65961 0.28334 0.0
H3355 H 0.93116 0.5448 0.27987 0.0
H3356 H 0.94806 0.64276 0.22018 0.0
H3357 H 0.90108 0.58829 0.32804 0.0
H3358 H 0.94182 0.57799 0.2575 0.0
H3359 H 0.95353 0.63155 0.3017 0.0
C3360 C 0.96544 0.65052 0.27354 0.0
C3361 C 0.96438 0.65353 0.25042 0.0
C3362 C 0.9324 0.57999 0.27275 0.0
C3363 C 0.93818 0.62102 0.27082 0.0
C3364 C 0.92648 0.56119 0.28551 0.0
C3365 C 0.91555 0.56385 0.30593 0.0
C3366 C 0.92776 0.60128 0.2809 0.0
C3367 C 0.90976 0.58546 0.31252 0.0
C3368 C 0.95194 0.63454 0.2839 0.0
C3369 C 0.94895 0.64104 0.23816 0.0
N3370 N 0.91645 0.60342 0.30031 0.0
N3371 N 0.93681 0.62472 0.24845 0.0
H3372 H 0.43601 0.02437 0.27375 0.0
H3373 H 0.5106 0.9383 0.28228 0.0
H3374 H 0.38938 0.97334 0.25388 0.0
H3375 H 0.45529 0.89855 0.30681 0.0
H3376 H 0.48471 0.96771 0.27168 0.0
H3377 H 0.46097 0.99531 0.2879 0.0
C3378 C 0.43078 1.00709 0.27278 0.0
C3379 C 0.41062 1.0013 0.26245 0.0
C3380 C 0.47823 0.9526 0.27947 0.0
C3381 C 0.43942 0.96793 0.27808 0.0
C3382 C 0.49297 0.93557 0.28521 0.0
C3383 C 0.48515 0.91582 0.29551 0.0
C3384 C 0.45538 0.94991 0.28381 0.0
C3385 C 0.46205 0.91348 0.29893 0.0
C3386 C 0.44521 0.9905 0.28054 0.0
C3387 C 0.40483 0.97855 0.26158 0.0
N3388 N 0.44792 0.9303 0.29297 0.0
N3389 N 0.4192 0.96266 0.26922 0.0
H3390 H 0.05335 0.38998 0.22519 0.0
H3391 H 0.09648 0.43183 0.34174 0.0
H3392 H 0.01674 0.43657 0.26523 0.0
H3393 H 0.13753 0.42338 0.28338 0.0
H3394 H 0.0645 0.41697 0.32133 0.0
H3395 H 0.08034 0.38561 0.255 0.0
C3396 C 0.05078 0.39911 0.24041 0.0
C3397 C 0.03325 0.41435 0.24252 0.0
C3398 C 0.0807 0.4177 0.31335 0.0
C3399 C 0.06398 0.40906 0.2766 0.0
C3400 C 0.09893 0.42608 0.32489 0.0
C3401 C 0.11941 0.42916 0.31389 0.0
C3402 C 0.08334 0.41199 0.29101 0.0
C3403 C 0.12185 0.42151 0.29219 0.0
C3404 C 0.06612 0.39638 0.25743 0.0
C3405 C 0.03038 0.42511 0.26283 0.0
N3406 N 0.10384 0.41344 0.28128 0.0
N3407 N 0.046 0.42262 0.27909 0.0
H3408 H 0.73511 0.6497 0.95318 0.0
H3409 H 0.79997 0.5573 0.88887 0.0
H3410 H 0.78632 0.67017 0.90663 0.0
H3411 H 0.7771 0.55207 0.95679 0.0
H3412 H 0.79332 0.59761 0.88943 0.0
H3413 H 0.74271 0.61091 0.94457 0.0
C3414 C 0.74717 0.6461 0.94029 0.0
C3415 C 0.76131 0.66285 0.93185 0.0
C3416 C 0.79049 0.58766 0.90441 0.0
C3417 C 0.77037 0.61906 0.92242 0.0
C3418 C 0.795 0.56487 0.90438 0.0
C3419 C 0.7886 0.55144 0.9227 0.0
C3420 C 0.77974 0.59657 0.92294 0.0
C3421 C 0.78214 0.56188 0.94231 0.0
C3422 C 0.75197 0.62398 0.9359 0.0
C3423 C 0.77594 0.65745 0.91445 0.0
N3424 N 0.77693 0.58379 0.94167 0.0
N3425 N 0.78095 0.63574 0.91095 0.0
H3426 H 0.81068 0.46535 0.08227 0.0
H3427 H 0.77513 0.4381 0.19157 0.0
H3428 H 0.76545 0.4132 0.10379 0.0
H3429 H 0.82065 0.49053 0.1718 0.0
H3430 H 0.7956 0.41239 0.16851 0.0
H3431 H 0.83194 0.46027 0.11627 0.0
C3432 C 0.80481 0.45324 0.09455 0.0
C3433 C 0.78541 0.44066 0.09096 0.0
C3434 C 0.80185 0.4293 0.16993 0.0
C3435 C 0.80972 0.43482 0.13024 0.0
C3436 C 0.79002 0.44407 0.18311 0.0
C3437 C 0.79466 0.46696 0.18099 0.0
C3438 C 0.8163 0.43849 0.15373 0.0
C3439 C 0.81508 0.47332 0.17156 0.0
C3440 C 0.81735 0.44988 0.11372 0.0
C3441 C 0.77955 0.42414 0.10664 0.0
N3442 N 0.82537 0.45895 0.15778 0.0
N3443 N 0.79129 0.42211 0.12592 0.0
H3444 H 0.65137 0.81106 0.07555 0.0
H3445 H 0.53909 0.75123 0.1069 0.0
H3446 H 0.59838 0.80044 0.02811 0.0
H3447 H 0.59977 0.73339 0.1415 0.0
H3448 H 0.56085 0.772 0.07956 0.0
H3449 H 0.63377 0.78377 0.10085 0.0
C3450 C 0.63627 0.80265 0.07029 0.0
C3451 C 0.62608 0.80818 0.04989 0.0
C3452 C 0.56945 0.76351 0.09308 0.0
C3453 C 0.60584 0.7775 0.07877 0.0
C3454 C 0.55703 0.75187 0.10894 0.0
C3455 C 0.56765 0.74066 0.12664 0.0
C3456 C 0.5927 0.76433 0.09505 0.0
C3457 C 0.59096 0.74192 0.12816 0.0
C3458 C 0.62629 0.78712 0.08472 0.0
C3459 C 0.60669 0.79673 0.04375 0.0
N3460 N 0.60279 0.75375 0.11258 0.0
N3461 N 0.59695 0.78221 0.05835 0.0
H3462 H 0.27152 0.62972 0.02874 0.0
H3463 H 0.29021 0.59807 0.15693 0.0
H3464 H 0.2455 0.67062 0.08127 0.0
H3465 H 0.2899 0.55036 0.10384 0.0
H3466 H 0.27878 0.6272 0.13003 0.0
H3467 H 0.28521 0.60339 0.05676 0.0
C3468 C 0.26904 0.63342 0.04618 0.0
C3469 C 0.25714 0.65233 0.05265 0.0
C3470 C 0.28108 0.61031 0.12438 0.0
C3471 C 0.27259 0.62201 0.08482 0.0
C3472 C 0.28747 0.59371 0.13969 0.0
C3473 C 0.29087 0.57183 0.13254 0.0
C3474 C 0.27855 0.60495 0.10182 0.0
C3475 C 0.28731 0.567 0.11004 0.0
C3476 C 0.27668 0.61823 0.06216 0.0
C3477 C 0.25451 0.65621 0.07555 0.0
N3478 N 0.28153 0.58348 0.09544 0.0
N3479 N 0.26205 0.64106 0.09086 0.0
H3480 H 0.43347 0.30473 0.05391 0.0
H3481 H 0.47441 0.26246 0.17274 0.0
H3482 H 0.387 0.27513 0.10095 0.0
H3483 H 0.51556 0.26157 0.11374 0.0
H3484 H 0.44191 0.27054 0.14925 0.0
H3485 H 0.46388 0.29612 0.07957 0.0
C3486 C 0.42949 0.29709 0.06992 0.0
C3487 C 0.40759 0.29031 0.07506 0.0
C3488 C 0.458 0.26814 0.14147 0.0
C3489 C 0.44251 0.27992 0.10423 0.0
C3490 C 0.47648 0.26318 0.1548 0.0
C3491 C 0.49777 0.26141 0.14522 0.0
C3492 C 0.46097 0.27177 0.11851 0.0
C3493 C 0.49951 0.26272 0.12189 0.0
C3494 C 0.44696 0.2918 0.08438 0.0
C3495 C 0.40362 0.28046 0.09615 0.0
N3496 N 0.48144 0.26834 0.10937 0.0
N3497 N 0.42096 0.27528 0.10987 0.0
H3498 H 0.27208 0.39849 0.99188 0.0
H3499 H 0.30904 0.41241 0.88937 0.0
H3500 H 0.2406 0.39557 0.92751 0.0
H3501 H 0.34053 0.42026 0.9531 0.0
H3502 H 0.30201 0.37301 0.89898 0.0
H3503 H 0.30177 0.37459 0.97836 0.0
C3504 C 0.27188 0.39338 0.97463 0.0
C3505 C 0.25555 0.40119 0.95982 0.0
C3506 C 0.31091 0.38328 0.91077 0.0
C3507 C 0.28965 0.37472 0.94415 0.0
C3508 C 0.31399 0.40591 0.90557 0.0
C3509 C 0.32157 0.42017 0.92228 0.0
C3510 C 0.31198 0.37703 0.93349 0.0
C3511 C 0.33092 0.41047 0.94148 0.0
C3512 C 0.28829 0.37902 0.96713 0.0
C3513 C 0.25432 0.39179 0.93865 0.0
N3514 N 0.32679 0.38863 0.94617 0.0
N3515 N 0.27153 0.37944 0.93117 0.0
H3516 H 0.61377 0.32547 0.95553 0.0
H3517 H 0.60964 0.24741 0.93199 0.0
H3518 H 0.68282 0.3146 0.9675 0.0
H3519 H 0.61564 0.2764 0.86658 0.0
H3520 H 0.64709 0.26096 0.94041 0.0
H3521 H 0.61882 0.31299 0.91727 0.0
C3522 C 0.63034 0.32139 0.94985 0.0
C3523 C 0.64712 0.31711 0.96538 0.0
C3524 C 0.64052 0.26387 0.92387 0.0
C3525 C 0.65272 0.3022 0.92278 0.0
C3526 C 0.61927 0.25551 0.91893 0.0
C3527 C 0.6087 0.26297 0.89955 0.0
C3528 C 0.64908 0.28143 0.91044 0.0
C3529 C 0.62252 0.27244 0.88285 0.0
C3530 C 0.63319 0.31395 0.92806 0.0
C3531 C 0.66864 0.31447 0.95645 0.0
N3532 N 0.64124 0.28351 0.88923 0.0
N3533 N 0.67065 0.3041 0.93651 0.0
H3534 H 0.41127 0.83687 0.94115 0.0
H3535 H 0.45332 0.71602 0.91341 0.0
H3536 H 0.39897 0.78123 0.98602 0.0
H3537 H 0.4998 0.77117 0.91613 0.0
H3538 H 0.42365 0.74061 0.92613 0.0
H3539 H 0.43418 0.81261 0.91783 0.0
C3540 C 0.41278 0.81936 0.9456 0.0
C3541 C 0.4034 0.81081 0.96538 0.0
C3542 C 0.44027 0.74732 0.92342 0.0
C3543 C 0.42889 0.78343 0.93897 0.0
C3544 C 0.45715 0.73344 0.9162 0.0
C3545 C 0.47899 0.74168 0.914 0.0
C3546 C 0.44524 0.7696 0.92784 0.0
C3547 C 0.48317 0.76426 0.91792 0.0
C3548 C 0.4259 0.80571 0.93246 0.0
C3549 C 0.40606 0.78825 0.97084 0.0
N3550 N 0.46634 0.77756 0.92476 0.0
N3551 N 0.41866 0.77521 0.95763 0.0
loop_
_geom_bond_atom_site_label_1
_geom_bond_atom_site_label_2
_geom_bond_distance
_geom_bond_site_symmetry_2
_ccdc_geom_bond_type
Dy0 O4 2.398 . S
Dy0 O5 2.491 . S
Dy0 O6 2.403 . S
Dy0 O7 2.664 1_655 S
Dy0 O11 2.326 1_655 S
Dy0 O15 2.310 . S
Dy0 O16 2.351 . S
C1 O12 1.185 . S
C1 O13 1.355 . S
C2 O4 1.185 . S
C2 O5 1.355 . S
Dy3 O7 2.310 . S
Dy3 O10 2.351 . S
Dy3 O12 2.398 . S
Dy3 O13 2.491 . S
Dy3 O14 2.403 . S
Dy3 O15 2.664 1_455 S
Dy3 O17 2.326 1_455 S
O4 Dy0 2.398 . S
O4 C2 1.185 . S
O5 Dy0 2.491 . S
O5 C2 1.355 . S
O6 Dy0 2.403 . S
O6 C8 1.254 . S
O7 Dy0 2.664 1_455 S
O7 Dy3 2.310 . S
O7 C8 1.268 1_455 S
C8 O6 1.254 . S
C8 O7 1.268 1_655 S
C9 O14 1.254 . S
C9 O15 1.268 1_455 S
O10 Dy3 2.351 . S
O10 C18 1.249 . S
O11 Dy0 2.326 1_455 S
O11 C18 1.267 . S
O12 C1 1.185 . S
O12 Dy3 2.398 . S
O13 C1 1.355 . S
O13 Dy3 2.491 . S
O14 Dy3 2.403 . S
O14 C9 1.254 . S
O15 Dy0 2.310 . S
O15 Dy3 2.664 1_655 S
O15 C9 1.268 1_655 S
O16 Dy0 2.351 . S
O16 C19 1.249 . S
O17 Dy3 2.326 1_655 S
O17 C19 1.267 . S
C18 O10 1.249 . S
C18 O11 1.267 . S
C19 O16 1.249 . S
C19 O17 1.267 . S
Dy20 O24 2.398 . S
Dy20 O25 2.491 . S
Dy20 O26 2.403 . S
Dy20 O27 2.664 1_565 S
Dy20 O31 2.326 1_565 S
Dy20 O35 2.310 1_565 S
Dy20 O36 2.351 . S
C21 O32 1.185 . S
C21 O33 1.355 . S
C22 O24 1.185 . S
C22 O25 1.355 . S
Dy23 O27 2.310 . S
Dy23 O30 2.351 . S
Dy23 O32 2.398 . S
Dy23 O33 2.491 . S
Dy23 O34 2.403 . S
Dy23 O35 2.664 . S
Dy23 O37 2.326 . S
O24 Dy20 2.398 . S
O24 C22 1.185 . S
O25 Dy20 2.491 . S
O25 C22 1.355 . S
O26 Dy20 2.403 . S
O26 C28 1.254 1_565 S
O27 Dy20 2.664 1_545 S
O27 Dy23 2.310 . S
O27 C28 1.268 . S
C28 O26 1.254 1_545 S
C28 O27 1.268 . S
C29 O34 1.254 . S
C29 O35 1.268 . S
O30 Dy23 2.351 . S
O30 C38 1.249 . S
O31 Dy20 2.326 1_545 S
O31 C38 1.267 . S
O32 C21 1.185 . S
O32 Dy23 2.398 . S
O33 C21 1.355 . S
O33 Dy23 2.491 . S
O34 Dy23 2.403 . S
O34 C29 1.254 . S
O35 Dy20 2.310 1_545 S
O35 Dy23 2.664 . S
O35 C29 1.268 . S
O36 Dy20 2.351 . S
O36 C39 1.249 . S
O37 Dy23 2.326 . S
O37 C39 1.267 1_545 S
C38 O30 1.249 . S
C38 O31 1.267 . S
C39 O36 1.249 . S
C39 O37 1.267 1_565 S
Dy40 O44 2.398 . S
Dy40 O45 2.491 . S
Dy40 O46 2.403 . S
Dy40 O47 2.664 . S
Dy40 O51 2.326 . S
Dy40 O55 2.310 . S
Dy40 O56 2.351 . S
C41 O52 1.185 . S
C41 O53 1.355 . S
C42 O44 1.185 . S
C42 O45 1.355 . S
Dy43 O47 2.310 1_655 S
Dy43 O50 2.351 . S
Dy43 O52 2.398 . S
Dy43 O53 2.491 . S
Dy43 O54 2.403 . S
Dy43 O55 2.664 1_655 S
Dy43 O57 2.326 1_655 S
O44 Dy40 2.398 . S
O44 C42 1.185 . S
O45 Dy40 2.491 . S
O45 C42 1.355 . S
O46 Dy40 2.403 . S
O46 C48 1.254 . S
O47 Dy40 2.664 . S
O47 Dy43 2.310 1_455 S
O47 C48 1.268 . S
C48 O46 1.254 . S
C48 O47 1.268 . S
C49 O54 1.254 1_455 S
C49 O55 1.268 . S
O50 Dy43 2.351 . S
O50 C58 1.249 . S
O51 Dy40 2.326 . S
O51 C58 1.267 1_455 S
O52 C41 1.185 . S
O52 Dy43 2.398 . S
O53 C41 1.355 . S
O53 Dy43 2.491 . S
O54 Dy43 2.403 . S
O54 C49 1.254 1_655 S
O55 Dy40 2.310 . S
O55 Dy43 2.664 1_455 S
O55 C49 1.268 . S
O56 Dy40 2.351 . S
O56 C59 1.249 . S
O57 Dy43 2.326 1_455 S
O57 C59 1.267 . S
C58 O50 1.249 . S
C58 O51 1.267 1_655 S
C59 O56 1.249 . S
C59 O57 1.267 . S
Dy60 O64 2.398 . S
Dy60 O65 2.491 . S
Dy60 O66 2.403 . S
Dy60 O67 2.664 . S
Dy60 O71 2.326 . S
Dy60 O75 2.310 . S
Dy60 O76 2.351 . S
C61 O72 1.185 . S
C61 O73 1.355 . S
C62 O64 1.185 . S
C62 O65 1.355 . S
Dy63 O67 2.310 1_565 S
Dy63 O70 2.351 . S
Dy63 O72 2.398 . S
Dy63 O73 2.491 . S
Dy63 O74 2.403 . S
Dy63 O75 2.664 1_565 S
Dy63 O77 2.326 1_565 S
O64 Dy60 2.398 . S
O64 C62 1.185 . S
O65 Dy60 2.491 . S
O65 C62 1.355 . S
O66 Dy60 2.403 . S
O66 C68 1.254 . S
O67 Dy60 2.664 . S
O67 Dy63 2.310 1_545 S
O67 C68 1.268 . S
C68 O66 1.254 . S
C68 O67 1.268 . S
C69 O74 1.254 1_545 S
C69 O75 1.268 . S
O70 Dy63 2.351 . S
O70 C78 1.249 . S
O71 Dy60 2.326 . S
O71 C78 1.267 1_545 S
O72 C61 1.185 . S
O72 Dy63 2.398 . S
O73 C61 1.355 . S
O73 Dy63 2.491 . S
O74 Dy63 2.403 . S
O74 C69 1.254 1_565 S
O75 Dy60 2.310 . S
O75 Dy63 2.664 1_545 S
O75 C69 1.268 . S
O76 Dy60 2.351 . S
O76 C79 1.249 . S
O77 Dy63 2.326 1_545 S
O77 C79 1.267 . S
C78 O70 1.249 . S
C78 O71 1.267 1_565 S
C79 O76 1.249 . S
C79 O77 1.267 . S
Dy80 O84 2.398 . S
Dy80 O85 2.491 . S
Dy80 O86 2.403 . S
Dy80 O87 2.664 1_655 S
Dy80 O91 2.326 1_655 S
Dy80 O95 2.310 1_655 S
Dy80 O96 2.351 . S
C81 O92 1.185 . S
C81 O93 1.355 . S
C82 O84 1.185 . S
C82 O85 1.355 . S
Dy83 O87 2.310 . S
Dy83 O90 2.351 . S
Dy83 O92 2.398 . S
Dy83 O93 2.491 . S
Dy83 O94 2.403 . S
Dy83 O95 2.664 . S
Dy83 O97 2.326 . S
O84 Dy80 2.398 . S
O84 C82 1.185 . S
O85 Dy80 2.491 . S
O85 C82 1.355 . S
O86 Dy80 2.403 . S
O86 C88 1.254 1_655 S
O87 Dy80 2.664 1_455 S
O87 Dy83 2.310 . S
O87 C88 1.268 . S
C88 O86 1.254 1_455 S
C88 O87 1.268 . S
C89 O94 1.254 . S
C89 O95 1.268 . S
O90 Dy83 2.351 . S
O90 C98 1.249 . S
O91 Dy80 2.326 1_455 S
O91 C98 1.267 . S
O92 C81 1.185 . S
O92 Dy83 2.398 . S
O93 C81 1.355 . S
O93 Dy83 2.491 . S
O94 Dy83 2.403 . S
O94 C89 1.254 . S
O95 Dy80 2.310 1_455 S
O95 Dy83 2.664 . S
O95 C89 1.268 . S
O96 Dy80 2.351 . S
O96 C99 1.249 . S
O97 Dy83 2.326 . S
O97 C99 1.267 1_455 S
C98 O90 1.249 . S
C98 O91 1.267 . S
C99 O96 1.249 . S
C99 O97 1.267 1_655 S
Dy100 O104 2.398 . S
Dy100 O105 2.491 . S
Dy100 O106 2.400 1_565 S
Dy100 O107 2.664 1_565 S
Dy100 O111 2.326 1_565 S
Dy100 O115 2.310 1_565 S
Dy100 O116 2.351 . S
C101 O112 1.185 . S
C101 O113 1.355 . S
C102 O104 1.185 . S
C102 O105 1.355 . S
Dy103 O107 2.310 . S
Dy103 O110 2.351 . S
Dy103 O112 2.398 . S
Dy103 O113 2.491 . S
Dy103 O114 2.403 . S
Dy103 O115 2.664 . S
Dy103 O117 2.326 . S
O104 Dy100 2.398 . S
O104 C102 1.185 . S
O105 Dy100 2.491 . S
O105 C102 1.355 . S
O106 Dy100 2.400 1_545 S
O106 C108 1.271 . S
O107 Dy100 2.664 1_545 S
O107 Dy103 2.310 . S
O107 C108 1.268 . S
C108 O106 1.271 . S
C108 O107 1.268 . S
C109 O114 1.254 . S
C109 O115 1.268 . S
O110 Dy103 2.351 . S
O110 C118 1.249 . S
O111 Dy100 2.326 1_545 S
O111 C118 1.267 . S
O112 C101 1.185 . S
O112 Dy103 2.398 . S
O113 C101 1.355 . S
O113 Dy103 2.491 . S
O114 Dy103 2.403 . S
O114 C109 1.254 . S
O115 Dy100 2.310 1_545 S
O115 Dy103 2.664 . S
O115 C109 1.268 . S
O116 Dy100 2.351 . S
O116 C119 1.277 . S
O117 Dy103 2.326 . S
O117 C119 1.222 1_545 S
C118 O110 1.249 . S
C118 O111 1.267 . S
C119 O116 1.277 . S
C119 O117 1.222 1_565 S
Dy120 O124 2.398 . S
Dy120 O125 2.491 . S
Dy120 O126 2.403 . S
Dy120 O127 2.664 . S
Dy120 O131 2.326 . S
Dy120 O135 2.310 . S
Dy120 O136 2.351 . S
C121 O132 1.185 . S
C121 O133 1.355 . S
C122 O124 1.185 . S
C122 O125 1.355 . S
Dy123 O127 2.310 1_655 S
Dy123 O130 2.351 . S
Dy123 O132 2.398 . S
Dy123 O133 2.491 . S
Dy123 O134 2.403 . S
Dy123 O135 2.664 1_655 S
Dy123 O137 2.326 1_655 S
O124 Dy120 2.398 . S
O124 C122 1.185 . S
O125 Dy120 2.491 . S
O125 C122 1.355 . S
O126 Dy120 2.403 . S
O126 C128 1.254 . S
O127 Dy120 2.664 . S
O127 Dy123 2.310 1_455 S
O127 C128 1.268 . S
C128 O126 1.254 . S
C128 O127 1.268 . S
C129 O134 1.254 1_455 S
C129 O135 1.268 . S
O130 Dy123 2.351 . S
O130 C138 1.249 . S
O131 Dy120 2.326 . S
O131 C138 1.267 1_455 S
O132 C121 1.185 . S
O132 Dy123 2.398 . S
O133 C121 1.355 . S
O133 Dy123 2.491 . S
O134 Dy123 2.403 . S
O134 C129 1.254 1_655 S
O135 Dy120 2.310 . S
O135 Dy123 2.664 1_455 S
O135 C129 1.268 . S
O136 Dy120 2.351 . S
O136 C139 1.249 . S
O137 Dy123 2.326 1_455 S
O137 C139 1.267 . S
C138 O130 1.249 . S
C138 O131 1.267 1_655 S
C139 O136 1.249 . S
C139 O137 1.267 . S
Dy140 O144 2.398 . S
Dy140 O145 2.491 . S
Dy140 O146 2.403 . S
Dy140 O147 2.664 . S
Dy140 O151 2.326 . S
Dy140 O155 2.310 . S
Dy140 O156 2.351 . S
C141 O152 1.185 . S
C141 O153 1.335 1_565 S
C142 O144 1.185 . S
C142 O145 1.355 . S
Dy143 O147 2.310 . S
Dy143 O150 2.351 1_545 S
Dy143 O152 2.398 1_545 S
Dy143 O153 2.496 . S
Dy143 O154 2.403 . S
Dy143 O155 2.664 . S
Dy143 O157 2.326 . S
O144 Dy140 2.398 . S
O144 C142 1.185 . S
O145 Dy140 2.491 . S
O145 C142 1.355 . S
O146 Dy140 2.403 . S
O146 C148 1.254 . S
O147 Dy140 2.664 . S
O147 Dy143 2.310 . S
O147 C148 1.268 . S
C148 O146 1.254 . S
C148 O147 1.268 . S
C149 O154 1.254 . S
C149 O155 1.268 . S
O150 Dy143 2.351 1_565 S
O150 C158 1.249 1_565 S
O151 Dy140 2.326 . S
O151 C158 1.267 . S
O152 C141 1.185 . S
O152 Dy143 2.398 1_565 S
O153 C141 1.335 1_545 S
O153 Dy143 2.496 . S
O154 Dy143 2.403 . S
O154 C149 1.254 . S
O155 Dy140 2.310 . S
O155 Dy143 2.664 . S
O155 C149 1.268 . S
O156 Dy140 2.351 . S
O156 C159 1.249 . S
O157 Dy143 2.326 . S
O157 C159 1.267 . S
C158 O150 1.249 1_545 S
C158 O151 1.267 . S
C159 O156 1.249 . S
C159 O157 1.267 . S
Dy160 O164 2.398 . S
Dy160 O165 2.491 . S
Dy160 O166 2.403 . S
Dy160 O167 2.664 1_565 S
Dy160 O171 2.326 1_565 S
Dy160 O175 2.310 1_565 S
Dy160 O176 2.351 . S
C161 O172 1.185 . S
C161 O173 1.355 . S
C162 O164 1.185 . S
C162 O165 1.355 . S
Dy163 O167 2.310 . S
Dy163 O170 2.351 . S
Dy163 O172 2.398 . S
Dy163 O173 2.491 . S
Dy163 O174 2.403 . S
Dy163 O175 2.664 . S
Dy163 O177 2.326 . S
O164 Dy160 2.398 . S
O164 C162 1.185 . S
O165 Dy160 2.491 . S
O165 C162 1.355 . S
O166 Dy160 2.403 . S
O166 C168 1.254 1_565 S
O167 Dy160 2.664 1_545 S
O167 Dy163 2.310 . S
O167 C168 1.268 . S
C168 O166 1.254 1_545 S
C168 O167 1.268 . S
C169 O174 1.254 . S
C169 O175 1.268 . S
O170 Dy163 2.351 . S
O170 C178 1.249 . S
O171 Dy160 2.326 1_545 S
O171 C178 1.267 . S
O172 C161 1.185 . S
O172 Dy163 2.398 . S
O173 C161 1.355 . S
O173 Dy163 2.491 . S
O174 Dy163 2.403 . S
O174 C169 1.254 . S
O175 Dy160 2.310 1_545 S
O175 Dy163 2.664 . S
O175 C169 1.268 . S
O176 Dy160 2.351 . S
O176 C179 1.249 . S
O177 Dy163 2.326 . S
O177 C179 1.267 1_545 S
C178 O170 1.249 . S
C178 O171 1.267 . S
C179 O176 1.249 . S
C179 O177 1.267 1_565 S
Dy180 O184 2.398 . S
Dy180 O185 2.491 . S
Dy180 O186 2.403 . S
Dy180 O187 2.664 . S
Dy180 O191 2.326 . S
Dy180 O195 2.310 . S
Dy180 O196 2.351 . S
C181 O192 1.185 . S
C181 O193 1.355 . S
C182 O184 1.185 . S
C182 O185 1.355 . S
Dy183 O187 2.310 1_655 S
Dy183 O190 2.351 . S
Dy183 O192 2.398 . S
Dy183 O193 2.491 . S
Dy183 O194 2.403 . S
Dy183 O195 2.664 1_655 S
Dy183 O197 2.326 1_655 S
O184 Dy180 2.398 . S
O184 C182 1.185 . S
O185 Dy180 2.491 . S
O185 C182 1.355 . S
O186 Dy180 2.403 . S
O186 C188 1.254 . S
O187 Dy180 2.664 . S
O187 Dy183 2.310 1_455 S
O187 C188 1.268 . S
C188 O186 1.254 . S
C188 O187 1.268 . S
C189 O194 1.225 1_455 S
C189 O195 1.284 . S
O190 Dy183 2.351 . S
O190 C198 1.249 . S
O191 Dy180 2.326 . S
O191 C198 1.267 1_455 S
O192 C181 1.185 . S
O192 Dy183 2.398 . S
O193 C181 1.355 . S
O193 Dy183 2.491 . S
O194 Dy183 2.403 . S
O194 C189 1.225 1_655 S
O195 Dy180 2.310 . S
O195 Dy183 2.664 1_455 S
O195 C189 1.284 . S
O196 Dy180 2.351 . S
O196 C199 1.249 . S
O197 Dy183 2.326 1_455 S
O197 C199 1.267 . S
C198 O190 1.249 . S
C198 O191 1.267 1_655 S
C199 O196 1.249 . S
C199 O197 1.267 . S
Dy200 O204 2.398 . S
Dy200 O205 2.491 . S
Dy200 O206 2.403 . S
Dy200 O207 2.664 . S
Dy200 O211 2.326 . S
Dy200 O215 2.310 . S
Dy200 O216 2.351 . S
C201 O212 1.185 . S
C201 O213 1.355 . S
C202 O204 1.185 . S
C202 O205 1.355 . S
Dy203 O207 2.310 1_565 S
Dy203 O210 2.351 . S
Dy203 O212 2.398 . S
Dy203 O213 2.491 . S
Dy203 O214 2.403 1_565 S
Dy203 O215 2.664 1_565 S
Dy203 O217 2.326 1_565 S
O204 Dy200 2.398 . S
O204 C202 1.185 . S
O205 Dy200 2.491 . S
O205 C202 1.355 . S
O206 Dy200 2.403 . S
O206 C208 1.254 . S
O207 Dy200 2.664 . S
O207 Dy203 2.310 1_545 S
O207 C208 1.268 . S
C208 O206 1.254 . S
C208 O207 1.268 . S
C209 O214 1.254 . S
C209 O215 1.268 . S
O210 Dy203 2.351 . S
O210 C218 1.250 1_565 S
O211 Dy200 2.326 . S
O211 C218 1.265 . S
O212 C201 1.185 . S
O212 Dy203 2.398 . S
O213 C201 1.355 . S
O213 Dy203 2.491 . S
O214 Dy203 2.403 1_545 S
O214 C209 1.254 . S
O215 Dy200 2.310 . S
O215 Dy203 2.664 1_545 S
O215 C209 1.268 . S
O216 Dy200 2.351 . S
O216 C219 1.249 . S
O217 Dy203 2.326 1_545 S
O217 C219 1.267 . S
C218 O210 1.250 1_545 S
C218 O211 1.265 . S
C219 O216 1.249 . S
C219 O217 1.267 . S
Dy220 O224 2.398 . S
Dy220 O225 2.491 . S
Dy220 O226 2.403 . S
Dy220 O227 2.664 1_655 S
Dy220 O231 2.326 1_655 S
Dy220 O235 2.310 1_655 S
Dy220 O236 2.351 . S
C221 O232 1.185 . S
C221 O233 1.355 . S
C222 O224 1.185 . S
C222 O225 1.355 . S
Dy223 O227 2.310 . S
Dy223 O230 2.351 . S
Dy223 O232 2.398 . S
Dy223 O233 2.491 . S
Dy223 O234 2.403 . S
Dy223 O235 2.664 . S
Dy223 O237 2.326 . S
O224 Dy220 2.398 . S
O224 C222 1.185 . S
O225 Dy220 2.491 . S
O225 C222 1.355 . S
O226 Dy220 2.403 . S
O226 C228 1.254 1_655 S
O227 Dy220 2.664 1_455 S
O227 Dy223 2.310 . S
O227 C228 1.268 . S
C228 O226 1.254 1_455 S
C228 O227 1.268 . S
C229 O234 1.254 . S
C229 O235 1.268 . S
O230 Dy223 2.351 . S
O230 C238 1.249 . S
O231 Dy220 2.326 1_455 S
O231 C238 1.267 . S
O232 C221 1.185 . S
O232 Dy223 2.398 . S
O233 C221 1.355 . S
O233 Dy223 2.491 . S
O234 Dy223 2.403 . S
O234 C229 1.254 . S
O235 Dy220 2.310 1_455 S
O235 Dy223 2.664 . S
O235 C229 1.268 . S
O236 Dy220 2.351 . S
O236 C239 1.249 . S
O237 Dy223 2.326 . S
O237 C239 1.267 1_455 S
C238 O230 1.249 . S
C238 O231 1.267 . S
C239 O236 1.249 . S
C239 O237 1.267 1_655 S
Dy240 O244 2.398 . S
Dy240 O245 2.491 . S
Dy240 O246 2.403 . S
Dy240 O247 2.664 . S
Dy240 O251 2.326 . S
Dy240 O255 2.310 . S
Dy240 O256 2.351 . S
C241 O252 1.185 . S
C241 O253 1.355 . S
C242 O244 1.185 . S
C242 O245 1.355 . S
Dy243 O247 2.310 1_565 S
Dy243 O250 2.351 . S
Dy243 O252 2.398 . S
Dy243 O253 2.491 . S
Dy243 O254 2.403 1_565 S
Dy243 O255 2.664 1_565 S
Dy243 O257 2.326 1_565 S
O244 Dy240 2.398 . S
O244 C242 1.185 . S
O245 Dy240 2.491 . S
O245 C242 1.355 . S
O246 Dy240 2.403 . S
O246 C248 1.254 . S
O247 Dy240 2.664 . S
O247 Dy243 2.310 1_545 S
O247 C248 1.268 . S
C248 O246 1.254 . S
C248 O247 1.268 . S
C249 O254 1.254 . S
C249 O255 1.268 . S
O250 Dy243 2.351 . S
O250 C258 1.249 . S
O251 Dy240 2.326 . S
O251 C258 1.267 1_545 S
O252 C241 1.185 . S
O252 Dy243 2.398 . S
O253 C241 1.355 . S
O253 Dy243 2.491 . S
O254 Dy243 2.403 1_545 S
O254 C249 1.254 . S
O255 Dy240 2.310 . S
O255 Dy243 2.664 1_545 S
O255 C249 1.268 . S
O256 Dy240 2.351 . S
O256 C259 1.249 . S
O257 Dy243 2.326 1_545 S
O257 C259 1.267 . S
C258 O250 1.249 . S
C258 O251 1.267 1_565 S
C259 O256 1.249 . S
C259 O257 1.267 . S
Dy260 O264 2.398 . S
Dy260 O265 2.491 . S
Dy260 O266 2.403 . S
Dy260 O267 2.664 1_655 S
Dy260 O271 2.326 1_655 S
Dy260 O275 2.310 1_655 S
Dy260 O276 2.351 . S
C261 O272 1.185 . S
C261 O273 1.355 . S
C262 O264 1.185 . S
C262 O265 1.355 . S
Dy263 O267 2.310 . S
Dy263 O270 2.351 . S
Dy263 O272 2.398 . S
Dy263 O273 2.491 . S
Dy263 O274 2.403 . S
Dy263 O275 2.664 . S
Dy263 O277 2.326 . S
O264 Dy260 2.398 . S
O264 C262 1.185 . S
O265 Dy260 2.491 . S
O265 C262 1.355 . S
O266 Dy260 2.403 . S
O266 C268 1.254 1_655 S
O267 Dy260 2.664 1_455 S
O267 Dy263 2.310 . S
O267 C268 1.268 . S
C268 O266 1.254 1_455 S
C268 O267 1.268 . S
C269 O274 1.254 . S
C269 O275 1.268 . S
O270 Dy263 2.351 . S
O270 C278 1.249 . S
O271 Dy260 2.326 1_455 S
O271 C278 1.267 . S
O272 C261 1.185 . S
O272 Dy263 2.398 . S
O273 C261 1.355 . S
O273 Dy263 2.491 . S
O274 Dy263 2.403 . S
O274 C269 1.254 . S
O275 Dy260 2.310 1_455 S
O275 Dy263 2.664 . S
O275 C269 1.268 . S
O276 Dy260 2.351 . S
O276 C279 1.249 . S
O277 Dy263 2.326 . S
O277 C279 1.267 1_455 S
C278 O270 1.249 . S
C278 O271 1.267 . S
C279 O276 1.249 . S
C279 O277 1.267 1_655 S
Dy280 O284 2.398 . S
Dy280 O285 2.491 . S
Dy280 O286 2.403 . S
Dy280 O287 2.664 1_565 S
Dy280 O291 2.326 1_565 S
Dy280 O295 2.310 . S
Dy280 O296 2.351 . S
C281 O292 1.185 . S
C281 O293 1.355 . S
C282 O284 1.185 . S
C282 O285 1.355 . S
Dy283 O287 2.310 . S
Dy283 O290 2.351 . S
Dy283 O292 2.398 . S
Dy283 O293 2.491 . S
Dy283 O294 2.403 . S
Dy283 O295 2.664 1_545 S
Dy283 O297 2.326 1_545 S
O284 Dy280 2.398 . S
O284 C282 1.185 . S
O285 Dy280 2.491 . S
O285 C282 1.355 . S
O286 Dy280 2.403 . S
O286 C288 1.254 . S
O287 Dy280 2.664 1_545 S
O287 Dy283 2.310 . S
O287 C288 1.268 1_545 S
C288 O286 1.254 . S
C288 O287 1.268 1_565 S
C289 O294 1.254 . S
C289 O295 1.268 1_545 S
O290 Dy283 2.351 . S
O290 C298 1.249 . S
O291 Dy280 2.326 1_545 S
O291 C298 1.267 . S
O292 C281 1.185 . S
O292 Dy283 2.398 . S
O293 C281 1.355 . S
O293 Dy283 2.491 . S
O294 Dy283 2.403 . S
O294 C289 1.254 . S
O295 Dy280 2.310 . S
O295 Dy283 2.664 1_565 S
O295 C289 1.268 1_565 S
O296 Dy280 2.351 . S
O296 C299 1.249 . S
O297 Dy283 2.326 1_565 S
O297 C299 1.267 . S
C298 O290 1.249 . S
C298 O291 1.267 . S
C299 O296 1.249 . S
C299 O297 1.267 . S
Dy300 O304 2.398 . S
Dy300 O305 2.491 . S
Dy300 O306 2.403 . S
Dy300 O307 2.664 . S
Dy300 O311 2.326 . S
Dy300 O315 2.310 . S
Dy300 O316 2.351 . S
C301 O312 1.185 . S
C301 O313 1.355 . S
C302 O304 1.185 . S
C302 O305 1.355 . S
Dy303 O307 2.310 1_655 S
Dy303 O310 2.351 . S
Dy303 O312 2.398 . S
Dy303 O313 2.491 . S
Dy303 O314 2.403 . S
Dy303 O315 2.664 1_655 S
Dy303 O317 2.326 1_655 S
O304 Dy300 2.398 . S
O304 C302 1.185 . S
O305 Dy300 2.491 . S
O305 C302 1.355 . S
O306 Dy300 2.403 . S
O306 C308 1.254 . S
O307 Dy300 2.664 . S
O307 Dy303 2.310 1_455 S
O307 C308 1.268 . S
C308 O306 1.254 . S
C308 O307 1.268 . S
C309 O314 1.254 1_455 S
C309 O315 1.268 . S
O310 Dy303 2.351 . S
O310 C318 1.249 . S
O311 Dy300 2.326 . S
O311 C318 1.267 1_455 S
O312 C301 1.185 . S
O312 Dy303 2.398 . S
O313 C301 1.355 . S
O313 Dy303 2.491 . S
O314 Dy303 2.403 . S
O314 C309 1.254 1_655 S
O315 Dy300 2.310 . S
O315 Dy303 2.664 1_455 S
O315 C309 1.268 . S
O316 Dy300 2.351 . S
O316 C319 1.249 . S
O317 Dy303 2.326 1_455 S
O317 C319 1.267 . S
C318 O310 1.249 . S
C318 O311 1.267 1_655 S
C319 O316 1.249 . S
C319 O317 1.267 . S
Dy320 O324 2.398 . S
Dy320 O325 2.491 . S
Dy320 O326 2.403 . S
Dy320 O327 2.664 1_556 S
Dy320 O331 2.326 1_556 S
Dy320 O335 2.310 1_556 S
Dy320 O336 2.351 . S
C321 O332 1.185 . S
C321 O333 1.355 . S
C322 O324 1.185 . S
C322 O325 1.355 . S
Dy323 O327 2.310 . S
Dy323 O330 2.351 . S
Dy323 O332 2.398 . S
Dy323 O333 2.491 . S
Dy323 O334 2.403 . S
Dy323 O335 2.664 . S
Dy323 O337 2.326 . S
O324 Dy320 2.398 . S
O324 C322 1.185 . S
O325 Dy320 2.491 . S
O325 C322 1.355 . S
O326 Dy320 2.403 . S
O326 C328 1.254 1_556 S
O327 Dy320 2.664 1_554 S
O327 Dy323 2.310 . S
O327 C328 1.268 . S
C328 O326 1.254 1_554 S
C328 O327 1.268 . S
C329 O334 1.254 . S
C329 O335 1.268 . S
O330 Dy323 2.351 . S
O330 C338 1.249 . S
O331 Dy320 2.326 1_554 S
O331 C338 1.267 . S
O332 C321 1.185 . S
O332 Dy323 2.398 . S
O333 C321 1.355 . S
O333 Dy323 2.491 . S
O334 Dy323 2.403 . S
O334 C329 1.254 . S
O335 Dy320 2.310 1_554 S
O335 Dy323 2.664 . S
O335 C329 1.268 . S
O336 Dy320 2.351 . S
O336 C339 1.249 . S
O337 Dy323 2.326 . S
O337 C339 1.267 1_554 S
C338 O330 1.249 . S
C338 O331 1.267 . S
C339 O336 1.249 . S
C339 O337 1.267 1_556 S
Dy340 O344 2.398 . S
Dy340 O345 2.491 . S
Dy340 O346 2.403 . S
Dy340 O347 2.664 . S
Dy340 O351 2.326 . S
Dy340 O355 2.310 . S
Dy340 O356 2.351 . S
C341 O352 1.185 . S
C341 O353 1.355 . S
C342 O344 1.185 . S
C342 O345 1.355 . S
Dy343 O347 2.310 1_556 S
Dy343 O350 2.351 . S
Dy343 O352 2.398 . S
Dy343 O353 2.491 . S
Dy343 O354 2.403 . S
Dy343 O355 2.664 1_556 S
Dy343 O357 2.326 1_556 S
O344 Dy340 2.398 . S
O344 C342 1.185 . S
O345 Dy340 2.491 . S
O345 C342 1.355 . S
O346 Dy340 2.403 . S
O346 C348 1.254 . S
O347 Dy340 2.664 . S
O347 Dy343 2.310 1_554 S
O347 C348 1.268 . S
C348 O346 1.254 . S
C348 O347 1.268 . S
C349 O354 1.254 1_554 S
C349 O355 1.268 . S
O350 Dy343 2.351 . S
O350 C358 1.249 . S
O351 Dy340 2.326 . S
O351 C358 1.267 1_554 S
O352 C341 1.185 . S
O352 Dy343 2.398 . S
O353 C341 1.355 . S
O353 Dy343 2.491 . S
O354 Dy343 2.403 . S
O354 C349 1.254 1_556 S
O355 Dy340 2.310 . S
O355 Dy343 2.664 1_554 S
O355 C349 1.268 . S
O356 Dy340 2.351 . S
O356 C359 1.249 . S
O357 Dy343 2.326 1_554 S
O357 C359 1.267 . S
C358 O350 1.249 . S
C358 O351 1.267 1_556 S
C359 O356 1.249 . S
C359 O357 1.267 . S
Dy360 O364 2.398 . S
Dy360 O365 2.491 . S
Dy360 O366 2.403 . S
Dy360 O367 2.664 . S
Dy360 O371 2.326 . S
Dy360 O375 2.310 . S
Dy360 O376 2.351 . S
C361 O372 1.185 . S
C361 O373 1.355 . S
C362 O364 1.185 . S
C362 O365 1.355 . S
Dy363 O367 2.310 1_556 S
Dy363 O370 2.351 . S
Dy363 O372 2.398 . S
Dy363 O373 2.491 . S
Dy363 O374 2.403 1_556 S
Dy363 O375 2.664 1_556 S
Dy363 O377 2.326 1_556 S
O364 Dy360 2.398 . S
O364 C362 1.185 . S
O365 Dy360 2.491 . S
O365 C362 1.355 . S
O366 Dy360 2.403 . S
O366 C368 1.254 . S
O367 Dy360 2.664 . S
O367 Dy363 2.310 1_554 S
O367 C368 1.268 . S
C368 O366 1.254 . S
C368 O367 1.268 . S
C369 O374 1.254 . S
C369 O375 1.268 . S
O370 Dy363 2.351 . S
O370 C378 1.249 1_556 S
O371 Dy360 2.326 . S
O371 C378 1.267 . S
O372 C361 1.185 . S
O372 Dy363 2.398 . S
O373 C361 1.355 . S
O373 Dy363 2.491 . S
O374 Dy363 2.403 1_554 S
O374 C369 1.254 . S
O375 Dy360 2.310 . S
O375 Dy363 2.664 1_554 S
O375 C369 1.268 . S
O376 Dy360 2.351 . S
O376 C379 1.249 . S
O377 Dy363 2.326 1_554 S
O377 C379 1.267 . S
C378 O370 1.249 1_554 S
C378 O371 1.267 . S
C379 O376 1.249 . S
C379 O377 1.267 . S
Dy380 O384 2.398 . S
Dy380 O385 2.491 . S
Dy380 O386 2.403 . S
Dy380 O387 2.664 . S
Dy380 O391 2.326 . S
Dy380 O395 2.310 . S
Dy380 O396 2.351 . S
C381 O392 1.185 . S
C381 O393 1.355 . S
C382 O384 1.185 . S
C382 O385 1.355 . S
Dy383 O387 2.310 1_556 S
Dy383 O390 2.351 . S
Dy383 O392 2.398 . S
Dy383 O393 2.491 . S
Dy383 O394 2.403 1_556 S
Dy383 O395 2.664 1_556 S
Dy383 O397 2.326 1_556 S
O384 Dy380 2.398 . S
O384 C382 1.185 . S
O385 Dy380 2.491 . S
O385 C382 1.355 . S
O386 Dy380 2.403 . S
O386 C388 1.254 . S
O387 Dy380 2.664 . S
O387 Dy383 2.310 1_554 S
O387 C388 1.268 . S
C388 O386 1.254 . S
C388 O387 1.268 . S
C389 O394 1.254 . S
C389 O395 1.268 . S
O390 Dy383 2.351 . S
O390 C398 1.233 1_556 S
O391 Dy380 2.326 . S
O391 C398 1.292 . S
O392 C381 1.185 . S
O392 Dy383 2.398 . S
O393 C381 1.355 . S
O393 Dy383 2.491 . S
O394 Dy383 2.403 1_554 S
O394 C389 1.254 . S
O395 Dy380 2.310 . S
O395 Dy383 2.664 1_554 S
O395 C389 1.268 . S
O396 Dy380 2.351 . S
O396 C399 1.249 . S
O397 Dy383 2.326 1_554 S
O397 C399 1.267 . S
C398 O390 1.233 1_554 S
C398 O391 1.292 . S
C399 O396 1.249 . S
C399 O397 1.267 . S
Dy400 O404 2.398 . S
Dy400 O405 2.491 . S
Dy400 O406 2.403 . S
Dy400 O407 2.664 . S
Dy400 O411 2.326 . S
Dy400 O415 2.310 . S
Dy400 O416 2.351 . S
C401 O412 1.185 . S
C401 O413 1.355 . S
C402 O404 1.185 . S
C402 O405 1.355 . S
Dy403 O407 2.310 1_556 S
Dy403 O410 2.351 . S
Dy403 O412 2.398 . S
Dy403 O413 2.491 . S
Dy403 O414 2.403 . S
Dy403 O415 2.664 1_556 S
Dy403 O417 2.326 1_556 S
O404 Dy400 2.398 . S
O404 C402 1.185 . S
O405 Dy400 2.491 . S
O405 C402 1.355 . S
O406 Dy400 2.403 . S
O406 C408 1.254 . S
O407 Dy400 2.664 . S
O407 Dy403 2.310 1_554 S
O407 C408 1.268 . S
C408 O406 1.254 . S
C408 O407 1.268 . S
C409 O414 1.254 1_554 S
C409 O415 1.268 . S
O410 Dy403 2.351 . S
O410 C418 1.249 . S
O411 Dy400 2.326 . S
O411 C418 1.267 1_554 S
O412 C401 1.185 . S
O412 Dy403 2.398 . S
O413 C401 1.355 . S
O413 Dy403 2.491 . S
O414 Dy403 2.403 . S
O414 C409 1.254 1_556 S
O415 Dy400 2.310 . S
O415 Dy403 2.664 1_554 S
O415 C409 1.268 . S
O416 Dy400 2.351 . S
O416 C419 1.249 . S
O417 Dy403 2.326 1_554 S
O417 C419 1.267 . S
C418 O410 1.249 . S
C418 O411 1.267 1_556 S
C419 O416 1.249 . S
C419 O417 1.267 . S
Dy420 O424 2.398 . S
Dy420 O425 2.491 . S
Dy420 O426 2.403 . S
Dy420 O427 2.664 1_556 S
Dy420 O431 2.326 1_556 S
Dy420 O435 2.310 1_556 S
Dy420 O436 2.351 . S
C421 O432 1.185 . S
C421 O433 1.355 . S
C422 O424 1.185 . S
C422 O425 1.355 . S
Dy423 O427 2.310 . S
Dy423 O430 2.351 . S
Dy423 O432 2.398 . S
Dy423 O433 2.491 . S
Dy423 O434 2.403 . S
Dy423 O435 2.664 . S
Dy423 O437 2.362 . S
O424 Dy420 2.398 . S
O424 C422 1.185 . S
O425 Dy420 2.491 . S
O425 C422 1.355 . S
O426 Dy420 2.403 . S
O426 C428 1.254 . S
O427 Dy420 2.664 1_554 S
O427 Dy423 2.310 . S
O427 C428 1.268 1_554 S
C428 O426 1.254 . S
C428 O427 1.268 1_556 S
C429 O434 1.254 . S
C429 O435 1.268 . S
O430 Dy423 2.351 . S
O430 C438 1.249 . S
O431 Dy420 2.326 1_554 S
O431 C438 1.267 . S
O432 C421 1.185 . S
O432 Dy423 2.398 . S
O433 C421 1.355 . S
O433 Dy423 2.491 . S
O434 Dy423 2.403 . S
O434 C429 1.254 . S
O435 Dy420 2.310 1_554 S
O435 Dy423 2.664 . S
O435 C429 1.268 . S
O436 Dy420 2.351 . S
O436 C439 1.249 . S
O437 Dy423 2.362 . S
O437 C439 1.226 1_554 S
C438 O430 1.249 . S
C438 O431 1.267 . S
C439 O436 1.249 . S
C439 O437 1.226 1_556 S
Dy440 O444 2.398 . S
Dy440 O445 2.491 . S
Dy440 O446 2.403 . S
Dy440 O447 2.664 1_556 S
Dy440 O451 2.326 1_556 S
Dy440 O455 2.332 . S
Dy440 O456 2.351 . S
C441 O452 1.185 . S
C441 O453 1.355 . S
C442 O444 1.185 . S
C442 O445 1.355 . S
Dy443 O447 2.310 . S
Dy443 O450 2.351 . S
Dy443 O452 2.398 . S
Dy443 O453 2.491 . S
Dy443 O454 2.403 . S
Dy443 O455 2.640 1_554 S
Dy443 O457 2.326 1_554 S
O444 Dy440 2.398 . S
O444 C442 1.185 . S
O445 Dy440 2.491 . S
O445 C442 1.355 . S
O446 Dy440 2.403 . S
O446 C448 1.254 . S
O447 Dy440 2.664 1_554 S
O447 Dy443 2.310 . S
O447 C448 1.268 1_554 S
C448 O446 1.254 . S
C448 O447 1.268 1_556 S
C449 O454 1.254 . S
C449 O455 1.255 1_554 S
O450 Dy443 2.351 . S
O450 C458 1.249 . S
O451 Dy440 2.326 1_554 S
O451 C458 1.267 . S
O452 C441 1.185 . S
O452 Dy443 2.398 . S
O453 C441 1.355 . S
O453 Dy443 2.491 . S
O454 Dy443 2.403 . S
O454 C449 1.254 . S
O455 Dy440 2.332 . S
O455 Dy443 2.640 1_556 S
O455 C449 1.255 1_556 S
O456 Dy440 2.351 . S
O456 C459 1.249 . S
O457 Dy443 2.326 1_556 S
O457 C459 1.267 . S
C458 O450 1.249 . S
C458 O451 1.267 . S
C459 O456 1.249 . S
C459 O457 1.267 . S
Dy460 O464 2.398 . S
Dy460 O465 2.491 . S
Dy460 O466 2.403 . S
Dy460 O467 2.664 1_556 S
Dy460 O471 2.326 1_556 S
Dy460 O475 2.310 1_556 S
Dy460 O476 2.351 . S
C461 O472 1.185 . S
C461 O473 1.355 . S
C462 O464 1.185 . S
C462 O465 1.355 . S
Dy463 O467 2.310 . S
Dy463 O470 2.351 . S
Dy463 O472 2.398 . S
Dy463 O473 2.491 . S
Dy463 O474 2.403 . S
Dy463 O475 2.664 . S
Dy463 O477 2.326 . S
O464 Dy460 2.398 . S
O464 C462 1.185 . S
O465 Dy460 2.491 . S
O465 C462 1.355 . S
O466 Dy460 2.403 . S
O466 C468 1.254 1_556 S
O467 Dy460 2.664 1_554 S
O467 Dy463 2.310 . S
O467 C468 1.268 . S
C468 O466 1.254 1_554 S
C468 O467 1.268 . S
C469 O474 1.254 . S
C469 O475 1.268 . S
O470 Dy463 2.351 . S
O470 C478 1.249 . S
O471 Dy460 2.326 1_554 S
O471 C478 1.267 . S
O472 C461 1.185 . S
O472 Dy463 2.398 . S
O473 C461 1.355 . S
O473 Dy463 2.491 . S
O474 Dy463 2.403 . S
O474 C469 1.254 . S
O475 Dy460 2.310 1_554 S
O475 Dy463 2.664 . S
O475 C469 1.268 . S
O476 Dy460 2.351 . S
O476 C479 1.249 . S
O477 Dy463 2.326 . S
O477 C479 1.267 1_554 S
C478 O470 1.249 . S
C478 O471 1.267 . S
C479 O476 1.249 . S
C479 O477 1.267 1_556 S
Dy480 O484 2.398 . S
Dy480 O485 2.491 . S
Dy480 O486 2.403 . S
Dy480 O487 2.664 . S
Dy480 O491 2.326 . S
Dy480 O495 2.310 . S
Dy480 O496 2.351 . S
C481 O492 1.185 . S
C481 O493 1.355 . S
C482 O484 1.185 . S
C482 O485 1.355 . S
Dy483 O487 2.310 . S
Dy483 O490 2.351 . S
Dy483 O492 2.398 . S
Dy483 O493 2.491 . S
Dy483 O494 2.403 . S
Dy483 O495 2.664 . S
Dy483 O497 2.326 . S
O484 Dy480 2.398 . S
O484 C482 1.185 . S
O485 Dy480 2.491 . S
O485 C482 1.355 . S
O486 Dy480 2.403 . S
O486 C488 1.254 . S
O487 Dy480 2.664 . S
O487 Dy483 2.310 . S
O487 C488 1.268 . S
C488 O486 1.254 . S
C488 O487 1.268 . S
C489 O494 1.254 . S
C489 O495 1.268 . S
O490 Dy483 2.351 . S
O490 C498 1.249 . S
O491 Dy480 2.326 . S
O491 C498 1.267 . S
O492 C481 1.185 . S
O492 Dy483 2.398 . S
O493 C481 1.355 . S
O493 Dy483 2.491 . S
O494 Dy483 2.403 . S
O494 C489 1.254 . S
O495 Dy480 2.310 . S
O495 Dy483 2.664 . S
O495 C489 1.268 . S
O496 Dy480 2.351 . S
O496 C499 1.249 . S
O497 Dy483 2.326 . S
O497 C499 1.267 . S
C498 O490 1.249 . S
C498 O491 1.267 . S
C499 O496 1.249 . S
C499 O497 1.267 . S
Dy500 O504 2.398 . S
Dy500 O505 2.491 . S
Dy500 O506 2.403 . S
Dy500 O507 2.664 . S
Dy500 O511 2.326 . S
Dy500 O515 2.310 . S
Dy500 O516 2.351 . S
C501 O512 1.185 . S
C501 O513 1.355 . S
C502 O504 1.185 . S
C502 O505 1.355 . S
Dy503 O507 2.310 . S
Dy503 O510 2.351 . S
Dy503 O512 2.398 . S
Dy503 O513 2.491 . S
Dy503 O514 2.403 . S
Dy503 O515 2.664 . S
Dy503 O517 2.326 . S
O504 Dy500 2.398 . S
O504 C502 1.185 . S
O505 Dy500 2.491 . S
O505 C502 1.355 . S
O506 Dy500 2.403 . S
O506 C508 1.254 . S
O507 Dy500 2.664 . S
O507 Dy503 2.310 . S
O507 C508 1.268 . S
C508 O506 1.254 . S
C508 O507 1.268 . S
C509 O514 1.254 . S
C509 O515 1.268 . S
O510 Dy503 2.351 . S
O510 C518 1.249 . S
O511 Dy500 2.326 . S
O511 C518 1.267 . S
O512 C501 1.185 . S
O512 Dy503 2.398 . S
O513 C501 1.355 . S
O513 Dy503 2.491 . S
O514 Dy503 2.403 . S
O514 C509 1.254 . S
O515 Dy500 2.310 . S
O515 Dy503 2.664 . S
O515 C509 1.268 . S
O516 Dy500 2.351 . S
O516 C519 1.249 . S
O517 Dy503 2.326 . S
O517 C519 1.267 . S
C518 O510 1.249 . S
C518 O511 1.267 . S
C519 O516 1.249 . S
C519 O517 1.267 . S
Dy520 O524 2.398 . S
Dy520 O525 2.491 . S
Dy520 O526 2.403 . S
Dy520 O527 2.664 . S
Dy520 O531 2.326 . S
Dy520 O535 2.310 . S
Dy520 O536 2.351 . S
C521 O532 1.185 . S
C521 O533 1.355 . S
C522 O524 1.185 . S
C522 O525 1.355 . S
Dy523 O527 2.310 . S
Dy523 O530 2.351 . S
Dy523 O532 2.398 . S
Dy523 O533 2.491 . S
Dy523 O534 2.403 . S
Dy523 O535 2.664 . S
Dy523 O537 2.326 . S
O524 Dy520 2.398 . S
O524 C522 1.185 . S
O525 Dy520 2.491 . S
O525 C522 1.355 . S
O526 Dy520 2.403 . S
O526 C528 1.254 . S
O527 Dy520 2.664 . S
O527 Dy523 2.310 . S
O527 C528 1.268 . S
C528 O526 1.254 . S
C528 O527 1.268 . S
C529 O534 1.254 . S
C529 O535 1.268 . S
O530 Dy523 2.351 . S
O530 C538 1.249 . S
O531 Dy520 2.326 . S
O531 C538 1.267 . S
O532 C521 1.185 . S
O532 Dy523 2.398 . S
O533 C521 1.355 . S
O533 Dy523 2.491 . S
O534 Dy523 2.403 . S
O534 C529 1.254 . S
O535 Dy520 2.310 . S
O535 Dy523 2.664 . S
O535 C529 1.268 . S
O536 Dy520 2.351 . S
O536 C539 1.249 . S
O537 Dy523 2.326 . S
O537 C539 1.267 . S
C538 O530 1.249 . S
C538 O531 1.267 . S
C539 O536 1.249 . S
C539 O537 1.267 . S
Dy540 O544 2.398 . S
Dy540 O545 2.491 . S
Dy540 O546 2.403 . S
Dy540 O547 2.664 . S
Dy540 O551 2.326 . S
Dy540 O555 2.310 . S
Dy540 O556 2.351 . S
C541 O552 1.185 . S
C541 O553 1.355 . S
C542 O544 1.185 . S
C542 O545 1.355 . S
Dy543 O547 2.310 . S
Dy543 O550 2.351 . S
Dy543 O552 2.398 . S
Dy543 O553 2.491 . S
Dy543 O554 2.403 . S
Dy543 O555 2.664 . S
Dy543 O557 2.326 . S
O544 Dy540 2.398 . S
O544 C542 1.185 . S
O545 Dy540 2.491 . S
O545 C542 1.355 . S
O546 Dy540 2.403 . S
O546 C548 1.254 . S
O547 Dy540 2.664 . S
O547 Dy543 2.310 . S
O547 C548 1.268 . S
C548 O546 1.254 . S
C548 O547 1.268 . S
C549 O554 1.254 . S
C549 O555 1.268 . S
O550 Dy543 2.351 . S
O550 C558 1.249 . S
O551 Dy540 2.326 . S
O551 C558 1.267 . S
O552 C541 1.185 . S
O552 Dy543 2.398 . S
O553 C541 1.355 . S
O553 Dy543 2.491 . S
O554 Dy543 2.403 . S
O554 C549 1.254 . S
O555 Dy540 2.310 . S
O555 Dy543 2.664 . S
O555 C549 1.268 . S
O556 Dy540 2.351 . S
O556 C559 1.249 . S
O557 Dy543 2.326 . S
O557 C559 1.267 . S
C558 O550 1.249 . S
C558 O551 1.267 . S
C559 O556 1.249 . S
C559 O557 1.267 . S
Dy560 O564 2.398 . S
Dy560 O565 2.491 . S
Dy560 O566 2.403 . S
Dy560 O567 2.664 . S
Dy560 O571 2.326 . S
Dy560 O575 2.310 . S
Dy560 O576 2.351 . S
C561 O572 1.185 . S
C561 O573 1.355 . S
C562 O564 1.185 . S
C562 O565 1.355 . S
Dy563 O567 2.310 . S
Dy563 O570 2.351 . S
Dy563 O572 2.398 . S
Dy563 O573 2.491 . S
Dy563 O574 2.403 . S
Dy563 O575 2.664 . S
Dy563 O577 2.326 . S
O564 Dy560 2.398 . S
O564 C562 1.185 . S
O565 Dy560 2.491 . S
O565 C562 1.355 . S
O566 Dy560 2.403 . S
O566 C568 1.254 . S
O567 Dy560 2.664 . S
O567 Dy563 2.310 . S
O567 C568 1.268 . S
C568 O566 1.254 . S
C568 O567 1.268 . S
C569 O574 1.254 . S
C569 O575 1.268 . S
O570 Dy563 2.351 . S
O570 C578 1.249 . S
O571 Dy560 2.326 . S
O571 C578 1.267 . S
O572 C561 1.185 . S
O572 Dy563 2.398 . S
O573 C561 1.355 . S
O573 Dy563 2.491 . S
O574 Dy563 2.403 . S
O574 C569 1.254 . S
O575 Dy560 2.310 . S
O575 Dy563 2.664 . S
O575 C569 1.268 . S
O576 Dy560 2.351 . S
O576 C579 1.249 . S
O577 Dy563 2.326 . S
O577 C579 1.267 . S
C578 O570 1.249 . S
C578 O571 1.267 . S
C579 O576 1.249 . S
C579 O577 1.267 . S
Dy580 O584 2.398 . S
Dy580 O585 2.491 . S
Dy580 O586 2.403 . S
Dy580 O587 2.664 . S
Dy580 O591 2.326 . S
Dy580 O595 2.310 . S
Dy580 O596 2.351 . S
C581 O592 1.185 . S
C581 O593 1.355 . S
C582 O584 1.185 . S
C582 O585 1.355 . S
Dy583 O587 2.310 . S
Dy583 O590 2.351 . S
Dy583 O592 2.398 . S
Dy583 O593 2.491 . S
Dy583 O594 2.403 . S
Dy583 O595 2.664 . S
Dy583 O597 2.326 . S
O584 Dy580 2.398 . S
O584 C582 1.185 . S
O585 Dy580 2.491 . S
O585 C582 1.355 . S
O586 Dy580 2.403 . S
O586 C588 1.254 . S
O587 Dy580 2.664 . S
O587 Dy583 2.310 . S
O587 C588 1.268 . S
C588 O586 1.254 . S
C588 O587 1.268 . S
C589 O594 1.254 . S
C589 O595 1.268 . S
O590 Dy583 2.351 . S
O590 C598 1.249 . S
O591 Dy580 2.326 . S
O591 C598 1.267 . S
O592 C581 1.185 . S
O592 Dy583 2.398 . S
O593 C581 1.355 . S
O593 Dy583 2.491 . S
O594 Dy583 2.403 . S
O594 C589 1.254 . S
O595 Dy580 2.310 . S
O595 Dy583 2.664 . S
O595 C589 1.268 . S
O596 Dy580 2.351 . S
O596 C599 1.249 . S
O597 Dy583 2.326 . S
O597 C599 1.267 . S
C598 O590 1.249 . S
C598 O591 1.267 . S
C599 O596 1.249 . S
C599 O597 1.267 . S
Dy600 O604 2.398 . S
Dy600 O605 2.491 . S
Dy600 O606 2.403 . S
Dy600 O607 2.664 . S
Dy600 O611 2.326 . S
Dy600 O615 2.310 . S
Dy600 O616 2.351 . S
C601 O612 1.185 . S
C601 O613 1.355 . S
C602 O604 1.185 . S
C602 O605 1.355 . S
Dy603 O607 2.310 . S
Dy603 O610 2.351 . S
Dy603 O612 2.398 . S
Dy603 O613 2.491 . S
Dy603 O614 2.403 . S
Dy603 O615 2.664 . S
Dy603 O617 2.326 . S
O604 Dy600 2.398 . S
O604 C602 1.185 . S
O605 Dy600 2.491 . S
O605 C602 1.355 . S
O606 Dy600 2.403 . S
O606 C608 1.254 . S
O607 Dy600 2.664 . S
O607 Dy603 2.310 . S
O607 C608 1.268 . S
C608 O606 1.254 . S
C608 O607 1.268 . S
C609 O614 1.254 . S
C609 O615 1.268 . S
O610 Dy603 2.351 . S
O610 C618 1.249 . S
O611 Dy600 2.326 . S
O611 C618 1.267 . S
O612 C601 1.185 . S
O612 Dy603 2.398 . S
O613 C601 1.355 . S
O613 Dy603 2.491 . S
O614 Dy603 2.403 . S
O614 C609 1.254 . S
O615 Dy600 2.310 . S
O615 Dy603 2.664 . S
O615 C609 1.268 . S
O616 Dy600 2.351 . S
O616 C619 1.249 . S
O617 Dy603 2.326 . S
O617 C619 1.267 . S
C618 O610 1.249 . S
C618 O611 1.267 . S
C619 O616 1.249 . S
C619 O617 1.267 . S
Dy620 O624 2.398 . S
Dy620 O625 2.491 . S
Dy620 O626 2.403 . S
Dy620 O627 2.664 . S
Dy620 O631 2.326 . S
Dy620 O635 2.310 . S
Dy620 O636 2.351 . S
C621 O632 1.185 . S
C621 O633 1.355 . S
C622 O624 1.185 . S
C622 O625 1.355 . S
Dy623 O627 2.310 . S
Dy623 O630 2.351 . S
Dy623 O632 2.398 . S
Dy623 O633 2.491 . S
Dy623 O634 2.403 . S
Dy623 O635 2.664 . S
Dy623 O637 2.326 . S
O624 Dy620 2.398 . S
O624 C622 1.185 . S
O625 Dy620 2.491 . S
O625 C622 1.355 . S
O626 Dy620 2.403 . S
O626 C628 1.254 . S
O627 Dy620 2.664 . S
O627 Dy623 2.310 . S
O627 C628 1.268 . S
C628 O626 1.254 . S
C628 O627 1.268 . S
C629 O634 1.254 . S
C629 O635 1.268 . S
O630 Dy623 2.351 . S
O630 C638 1.249 . S
O631 Dy620 2.326 . S
O631 C638 1.267 . S
O632 C621 1.185 . S
O632 Dy623 2.398 . S
O633 C621 1.355 . S
O633 Dy623 2.491 . S
O634 Dy623 2.403 . S
O634 C629 1.254 . S
O635 Dy620 2.310 . S
O635 Dy623 2.664 . S
O635 C629 1.268 . S
O636 Dy620 2.351 . S
O636 C639 1.249 . S
O637 Dy623 2.326 . S
O637 C639 1.267 . S
C638 O630 1.249 . S
C638 O631 1.267 . S
C639 O636 1.249 . S
C639 O637 1.267 . S
Dy640 O644 2.398 . S
Dy640 O645 2.491 . S
Dy640 O646 2.403 . S
Dy640 O647 2.664 . S
Dy640 O651 2.326 . S
Dy640 O655 2.310 . S
Dy640 O656 2.351 . S
C641 O652 1.185 . S
C641 O653 1.355 . S
C642 O644 1.185 . S
C642 O645 1.355 . S
Dy643 O647 2.310 . S
Dy643 O650 2.351 . S
Dy643 O652 2.398 . S
Dy643 O653 2.491 . S
Dy643 O654 2.403 . S
Dy643 O655 2.664 . S
Dy643 O657 2.326 . S
O644 Dy640 2.398 . S
O644 C642 1.185 . S
O645 Dy640 2.491 . S
O645 C642 1.355 . S
O646 Dy640 2.403 . S
O646 C648 1.254 . S
O647 Dy640 2.664 . S
O647 Dy643 2.310 . S
O647 C648 1.268 . S
C648 O646 1.254 . S
C648 O647 1.268 . S
C649 O654 1.254 . S
C649 O655 1.268 . S
O650 Dy643 2.351 . S
O650 C658 1.249 . S
O651 Dy640 2.326 . S
O651 C658 1.267 . S
O652 C641 1.185 . S
O652 Dy643 2.398 . S
O653 C641 1.355 . S
O653 Dy643 2.491 . S
O654 Dy643 2.403 . S
O654 C649 1.254 . S
O655 Dy640 2.310 . S
O655 Dy643 2.664 . S
O655 C649 1.268 . S
O656 Dy640 2.351 . S
O656 C659 1.249 . S
O657 Dy643 2.326 . S
O657 C659 1.267 . S
C658 O650 1.249 . S
C658 O651 1.267 . S
C659 O656 1.249 . S
C659 O657 1.267 . S
Dy660 O664 2.398 . S
Dy660 O665 2.491 . S
Dy660 O666 2.403 . S
Dy660 O667 2.664 . S
Dy660 O671 2.326 . S
Dy660 O675 2.310 . S
Dy660 O676 2.351 . S
C661 O672 1.185 . S
C661 O673 1.355 . S
C662 O664 1.185 . S
C662 O665 1.355 . S
Dy663 O667 2.310 . S
Dy663 O670 2.351 . S
Dy663 O672 2.398 . S
Dy663 O673 2.491 . S
Dy663 O674 2.403 . S
Dy663 O675 2.664 . S
Dy663 O677 2.326 . S
O664 Dy660 2.398 . S
O664 C662 1.185 . S
O665 Dy660 2.491 . S
O665 C662 1.355 . S
O666 Dy660 2.403 . S
O666 C668 1.254 . S
O667 Dy660 2.664 . S
O667 Dy663 2.310 . S
O667 C668 1.268 . S
C668 O666 1.254 . S
C668 O667 1.268 . S
C669 O674 1.254 . S
C669 O675 1.268 . S
O670 Dy663 2.351 . S
O670 C678 1.249 . S
O671 Dy660 2.326 . S
O671 C678 1.267 . S
O672 C661 1.185 . S
O672 Dy663 2.398 . S
O673 C661 1.355 . S
O673 Dy663 2.491 . S
O674 Dy663 2.403 . S
O674 C669 1.254 . S
O675 Dy660 2.310 . S
O675 Dy663 2.664 . S
O675 C669 1.268 . S
O676 Dy660 2.351 . S
O676 C679 1.249 . S
O677 Dy663 2.326 . S
O677 C679 1.267 . S
C678 O670 1.249 . S
C678 O671 1.267 . S
C679 O676 1.249 . S
C679 O677 1.267 . S
Dy680 O684 2.398 . S
Dy680 O685 2.491 . S
Dy680 O686 2.403 . S
Dy680 O687 2.664 . S
Dy680 O691 2.326 . S
Dy680 O695 2.310 . S
Dy680 O696 2.351 . S
C681 O692 1.185 . S
C681 O693 1.355 . S
C682 O684 1.185 . S
C682 O685 1.355 . S
Dy683 O687 2.310 . S
Dy683 O690 2.351 . S
Dy683 O692 2.398 . S
Dy683 O693 2.491 . S
Dy683 O694 2.403 . S
Dy683 O695 2.664 . S
Dy683 O697 2.326 . S
O684 Dy680 2.398 . S
O684 C682 1.185 . S
O685 Dy680 2.491 . S
O685 C682 1.355 . S
O686 Dy680 2.403 . S
O686 C688 1.254 . S
O687 Dy680 2.664 . S
O687 Dy683 2.310 . S
O687 C688 1.268 . S
C688 O686 1.254 . S
C688 O687 1.268 . S
C689 O694 1.254 . S
C689 O695 1.268 . S
O690 Dy683 2.351 . S
O690 C698 1.249 . S
O691 Dy680 2.326 . S
O691 C698 1.267 . S
O692 C681 1.185 . S
O692 Dy683 2.398 . S
O693 C681 1.355 . S
O693 Dy683 2.491 . S
O694 Dy683 2.403 . S
O694 C689 1.254 . S
O695 Dy680 2.310 . S
O695 Dy683 2.664 . S
O695 C689 1.268 . S
O696 Dy680 2.351 . S
O696 C699 1.249 . S
O697 Dy683 2.326 . S
O697 C699 1.267 . S
C698 O690 1.249 . S
C698 O691 1.267 . S
C699 O696 1.249 . S
C699 O697 1.267 . S
Dy700 O704 2.398 . S
Dy700 O705 2.491 . S
Dy700 O706 2.403 . S
Dy700 O707 2.664 . S
Dy700 O711 2.326 . S
Dy700 O715 2.310 . S
Dy700 O716 2.351 . S
C701 O712 1.185 . S
C701 O713 1.355 . S
C702 O704 1.185 . S
C702 O705 1.355 . S
Dy703 O707 2.310 . S
Dy703 O710 2.351 . S
Dy703 O712 2.398 . S
Dy703 O713 2.491 . S
Dy703 O714 2.403 . S
Dy703 O715 2.664 . S
Dy703 O717 2.326 . S
O704 Dy700 2.398 . S
O704 C702 1.185 . S
O705 Dy700 2.491 . S
O705 C702 1.355 . S
O706 Dy700 2.403 . S
O706 C708 1.254 . S
O707 Dy700 2.664 . S
O707 Dy703 2.310 . S
O707 C708 1.268 . S
C708 O706 1.254 . S
C708 O707 1.268 . S
C709 O714 1.254 . S
C709 O715 1.268 . S
O710 Dy703 2.351 . S
O710 C718 1.249 . S
O711 Dy700 2.326 . S
O711 C718 1.267 . S
O712 C701 1.185 . S
O712 Dy703 2.398 . S
O713 C701 1.355 . S
O713 Dy703 2.491 . S
O714 Dy703 2.403 . S
O714 C709 1.254 . S
O715 Dy700 2.310 . S
O715 Dy703 2.664 . S
O715 C709 1.268 . S
O716 Dy700 2.351 . S
O716 C719 1.249 . S
O717 Dy703 2.326 . S
O717 C719 1.267 . S
C718 O710 1.249 . S
C718 O711 1.267 . S
C719 O716 1.249 . S
C719 O717 1.267 . S
Dy720 O724 2.398 . S
Dy720 O725 2.491 . S
Dy720 O726 2.403 . S
Dy720 O727 2.664 . S
Dy720 O731 2.326 . S
Dy720 O735 2.310 . S
Dy720 O736 2.351 . S
C721 O732 1.185 . S
C721 O733 1.355 . S
C722 O724 1.185 . S
C722 O725 1.355 . S
Dy723 O727 2.310 . S
Dy723 O730 2.351 . S
Dy723 O732 2.398 . S
Dy723 O733 2.491 . S
Dy723 O734 2.403 . S
Dy723 O735 2.664 . S
Dy723 O737 2.326 . S
O724 Dy720 2.398 . S
O724 C722 1.185 . S
O725 Dy720 2.491 . S
O725 C722 1.355 . S
O726 Dy720 2.403 . S
O726 C728 1.254 . S
O727 Dy720 2.664 . S
O727 Dy723 2.310 . S
O727 C728 1.268 . S
C728 O726 1.254 . S
C728 O727 1.268 . S
C729 O734 1.254 . S
C729 O735 1.268 . S
O730 Dy723 2.351 . S
O730 C738 1.249 . S
O731 Dy720 2.326 . S
O731 C738 1.267 . S
O732 C721 1.185 . S
O732 Dy723 2.398 . S
O733 C721 1.355 . S
O733 Dy723 2.491 . S
O734 Dy723 2.403 . S
O734 C729 1.254 . S
O735 Dy720 2.310 . S
O735 Dy723 2.664 . S
O735 C729 1.268 . S
O736 Dy720 2.351 . S
O736 C739 1.249 . S
O737 Dy723 2.326 . S
O737 C739 1.267 . S
C738 O730 1.249 . S
C738 O731 1.267 . S
C739 O736 1.249 . S
C739 O737 1.267 . S
Dy740 O744 2.398 . S
Dy740 O745 2.491 . S
Dy740 O746 2.403 . S
Dy740 O747 2.664 . S
Dy740 O751 2.326 . S
Dy740 O755 2.310 . S
Dy740 O756 2.351 . S
C741 O752 1.185 . S
C741 O753 1.355 . S
C742 O744 1.185 . S
C742 O745 1.355 . S
Dy743 O747 2.310 . S
Dy743 O750 2.351 . S
Dy743 O752 2.398 . S
Dy743 O753 2.491 . S
Dy743 O754 2.403 . S
Dy743 O755 2.664 . S
Dy743 O757 2.326 . S
O744 Dy740 2.398 . S
O744 C742 1.185 . S
O745 Dy740 2.491 . S
O745 C742 1.355 . S
O746 Dy740 2.403 . S
O746 C748 1.254 . S
O747 Dy740 2.664 . S
O747 Dy743 2.310 . S
O747 C748 1.268 . S
C748 O746 1.254 . S
C748 O747 1.268 . S
C749 O754 1.254 . S
C749 O755 1.268 . S
O750 Dy743 2.351 . S
O750 C758 1.249 . S
O751 Dy740 2.326 . S
O751 C758 1.267 . S
O752 C741 1.185 . S
O752 Dy743 2.398 . S
O753 C741 1.355 . S
O753 Dy743 2.491 . S
O754 Dy743 2.403 . S
O754 C749 1.254 . S
O755 Dy740 2.310 . S
O755 Dy743 2.664 . S
O755 C749 1.268 . S
O756 Dy740 2.351 . S
O756 C759 1.249 . S
O757 Dy743 2.326 . S
O757 C759 1.267 . S
C758 O750 1.249 . S
C758 O751 1.267 . S
C759 O756 1.249 . S
C759 O757 1.267 . S
Dy760 O764 2.398 . S
Dy760 O765 2.491 . S
Dy760 O766 2.403 . S
Dy760 O767 2.664 . S
Dy760 O771 2.326 . S
Dy760 O775 2.310 . S
Dy760 O776 2.351 . S
C761 O772 1.185 . S
C761 O773 1.355 . S
C762 O764 1.185 . S
C762 O765 1.355 . S
Dy763 O767 2.310 . S
Dy763 O770 2.351 . S
Dy763 O772 2.398 . S
Dy763 O773 2.491 . S
Dy763 O774 2.403 . S
Dy763 O775 2.664 . S
Dy763 O777 2.326 . S
O764 Dy760 2.398 . S
O764 C762 1.185 . S
O765 Dy760 2.491 . S
O765 C762 1.355 . S
O766 Dy760 2.403 . S
O766 C768 1.254 . S
O767 Dy760 2.664 . S
O767 Dy763 2.310 . S
O767 C768 1.268 . S
C768 O766 1.254 . S
C768 O767 1.268 . S
C769 O774 1.254 . S
C769 O775 1.268 . S
O770 Dy763 2.351 . S
O770 C778 1.249 . S
O771 Dy760 2.326 . S
O771 C778 1.267 . S
O772 C761 1.185 . S
O772 Dy763 2.398 . S
O773 C761 1.355 . S
O773 Dy763 2.491 . S
O774 Dy763 2.403 . S
O774 C769 1.254 . S
O775 Dy760 2.310 . S
O775 Dy763 2.664 . S
O775 C769 1.268 . S
O776 Dy760 2.351 . S
O776 C779 1.249 . S
O777 Dy763 2.326 . S
O777 C779 1.267 . S
C778 O770 1.249 . S
C778 O771 1.267 . S
C779 O776 1.249 . S
C779 O777 1.267 . S
Dy780 O784 2.398 . S
Dy780 O785 2.491 . S
Dy780 O786 2.403 . S
Dy780 O787 2.664 . S
Dy780 O791 2.326 . S
Dy780 O795 2.310 . S
Dy780 O796 2.351 . S
C781 O792 1.185 . S
C781 O793 1.355 . S
C782 O784 1.185 . S
C782 O785 1.355 . S
Dy783 O787 2.310 . S
Dy783 O790 2.351 . S
Dy783 O792 2.398 . S
Dy783 O793 2.491 . S
Dy783 O794 2.403 . S
Dy783 O795 2.664 . S
Dy783 O797 2.326 . S
O784 Dy780 2.398 . S
O784 C782 1.185 . S
O785 Dy780 2.491 . S
O785 C782 1.355 . S
O786 Dy780 2.403 . S
O786 C788 1.254 . S
O787 Dy780 2.664 . S
O787 Dy783 2.310 . S
O787 C788 1.268 . S
C788 O786 1.254 . S
C788 O787 1.268 . S
C789 O794 1.254 . S
C789 O795 1.268 . S
O790 Dy783 2.351 . S
O790 C798 1.249 . S
O791 Dy780 2.326 . S
O791 C798 1.267 . S
O792 C781 1.185 . S
O792 Dy783 2.398 . S
O793 C781 1.355 . S
O793 Dy783 2.491 . S
O794 Dy783 2.403 . S
O794 C789 1.254 . S
O795 Dy780 2.310 . S
O795 Dy783 2.664 . S
O795 C789 1.268 . S
O796 Dy780 2.351 . S
O796 C799 1.249 . S
O797 Dy783 2.326 . S
O797 C799 1.267 . S
C798 O790 1.249 . S
C798 O791 1.267 . S
C799 O796 1.249 . S
C799 O797 1.267 . S
Dy800 O804 2.398 . S
Dy800 O805 2.491 . S
Dy800 O806 2.403 . S
Dy800 O807 2.664 . S
Dy800 O811 2.326 . S
Dy800 O815 2.310 . S
Dy800 O816 2.351 . S
C801 O812 1.185 . S
C801 O813 1.355 . S
C802 O804 1.185 . S
C802 O805 1.355 . S
Dy803 O807 2.310 . S
Dy803 O810 2.351 . S
Dy803 O812 2.398 . S
Dy803 O813 2.491 . S
Dy803 O814 2.403 . S
Dy803 O815 2.664 . S
Dy803 O817 2.326 . S
O804 Dy800 2.398 . S
O804 C802 1.185 . S
O805 Dy800 2.491 . S
O805 C802 1.355 . S
O806 Dy800 2.403 . S
O806 C808 1.254 . S
O807 Dy800 2.664 . S
O807 Dy803 2.310 . S
O807 C808 1.268 . S
C808 O806 1.254 . S
C808 O807 1.268 . S
C809 O814 1.254 . S
C809 O815 1.268 . S
O810 Dy803 2.351 . S
O810 C818 1.249 . S
O811 Dy800 2.326 . S
O811 C818 1.267 . S
O812 C801 1.185 . S
O812 Dy803 2.398 . S
O813 C801 1.355 . S
O813 Dy803 2.491 . S
O814 Dy803 2.403 . S
O814 C809 1.254 . S
O815 Dy800 2.310 . S
O815 Dy803 2.664 . S
O815 C809 1.268 . S
O816 Dy800 2.351 . S
O816 C819 1.249 . S
O817 Dy803 2.326 . S
O817 C819 1.267 . S
C818 O810 1.249 . S
C818 O811 1.267 . S
C819 O816 1.249 . S
C819 O817 1.267 . S
Dy820 O824 2.398 . S
Dy820 O825 2.491 . S
Dy820 O826 2.403 . S
Dy820 O827 2.664 . S
Dy820 O831 2.326 . S
Dy820 O835 2.310 . S
Dy820 O836 2.351 . S
C821 O832 1.185 . S
C821 O833 1.355 . S
C822 O824 1.185 . S
C822 O825 1.355 . S
Dy823 O827 2.310 . S
Dy823 O830 2.351 . S
Dy823 O832 2.398 . S
Dy823 O833 2.491 . S
Dy823 O834 2.403 . S
Dy823 O835 2.664 . S
Dy823 O837 2.326 . S
O824 Dy820 2.398 . S
O824 C822 1.185 . S
O825 Dy820 2.491 . S
O825 C822 1.355 . S
O826 Dy820 2.403 . S
O826 C828 1.254 . S
O827 Dy820 2.664 . S
O827 Dy823 2.310 . S
O827 C828 1.268 . S
C828 O826 1.254 . S
C828 O827 1.268 . S
C829 O834 1.254 . S
C829 O835 1.268 . S
O830 Dy823 2.351 . S
O830 C838 1.249 . S
O831 Dy820 2.326 . S
O831 C838 1.267 . S
O832 C821 1.185 . S
O832 Dy823 2.398 . S
O833 C821 1.355 . S
O833 Dy823 2.491 . S
O834 Dy823 2.403 . S
O834 C829 1.254 . S
O835 Dy820 2.310 . S
O835 Dy823 2.664 . S
O835 C829 1.268 . S
O836 Dy820 2.351 . S
O836 C839 1.249 . S
O837 Dy823 2.326 . S
O837 C839 1.267 . S
C838 O830 1.249 . S
C838 O831 1.267 . S
C839 O836 1.249 . S
C839 O837 1.267 . S
Dy840 O844 2.398 . S
Dy840 O845 2.491 . S
Dy840 O846 2.403 . S
Dy840 O847 2.664 . S
Dy840 O851 2.326 . S
Dy840 O855 2.310 . S
Dy840 O856 2.351 . S
C841 O852 1.185 . S
C841 O853 1.355 . S
C842 O844 1.185 . S
C842 O845 1.355 . S
Dy843 O847 2.310 . S
Dy843 O850 2.351 . S
Dy843 O852 2.398 . S
Dy843 O853 2.491 . S
Dy843 O854 2.403 . S
Dy843 O855 2.664 . S
Dy843 O857 2.326 . S
O844 Dy840 2.398 . S
O844 C842 1.185 . S
O845 Dy840 2.491 . S
O845 C842 1.355 . S
O846 Dy840 2.403 . S
O846 C848 1.254 . S
O847 Dy840 2.664 . S
O847 Dy843 2.310 . S
O847 C848 1.268 . S
C848 O846 1.254 . S
C848 O847 1.268 . S
C849 O854 1.254 . S
C849 O855 1.268 . S
O850 Dy843 2.351 . S
O850 C858 1.249 . S
O851 Dy840 2.326 . S
O851 C858 1.267 . S
O852 C841 1.185 . S
O852 Dy843 2.398 . S
O853 C841 1.355 . S
O853 Dy843 2.491 . S
O854 Dy843 2.403 . S
O854 C849 1.254 . S
O855 Dy840 2.310 . S
O855 Dy843 2.664 . S
O855 C849 1.268 . S
O856 Dy840 2.351 . S
O856 C859 1.249 . S
O857 Dy843 2.326 . S
O857 C859 1.267 . S
C858 O850 1.249 . S
C858 O851 1.267 . S
C859 O856 1.249 . S
C859 O857 1.267 . S
Dy860 O864 2.398 . S
Dy860 O865 2.491 . S
Dy860 O866 2.403 . S
Dy860 O867 2.664 . S
Dy860 O871 2.326 . S
Dy860 O875 2.310 . S
Dy860 O876 2.351 . S
C861 O872 1.185 . S
C861 O873 1.355 . S
C862 O864 1.185 . S
C862 O865 1.355 . S
Dy863 O867 2.310 . S
Dy863 O870 2.351 . S
Dy863 O872 2.398 . S
Dy863 O873 2.491 . S
Dy863 O874 2.403 . S
Dy863 O875 2.664 . S
Dy863 O877 2.326 . S
O864 Dy860 2.398 . S
O864 C862 1.185 . S
O865 Dy860 2.491 . S
O865 C862 1.355 . S
O866 Dy860 2.403 . S
O866 C868 1.254 . S
O867 Dy860 2.664 . S
O867 Dy863 2.310 . S
O867 C868 1.268 . S
C868 O866 1.254 . S
C868 O867 1.268 . S
C869 O874 1.254 . S
C869 O875 1.268 . S
O870 Dy863 2.351 . S
O870 C878 1.249 . S
O871 Dy860 2.326 . S
O871 C878 1.267 . S
O872 C861 1.185 . S
O872 Dy863 2.398 . S
O873 C861 1.355 . S
O873 Dy863 2.491 . S
O874 Dy863 2.403 . S
O874 C869 1.254 . S
O875 Dy860 2.310 . S
O875 Dy863 2.664 . S
O875 C869 1.268 . S
O876 Dy860 2.351 . S
O876 C879 1.249 . S
O877 Dy863 2.326 . S
O877 C879 1.267 . S
C878 O870 1.249 . S
C878 O871 1.267 . S
C879 O876 1.249 . S
C879 O877 1.267 . S
Dy880 O884 2.398 . S
Dy880 O885 2.491 . S
Dy880 O886 2.403 . S
Dy880 O887 2.664 . S
Dy880 O891 2.326 . S
Dy880 O895 2.310 . S
Dy880 O896 2.351 . S
C881 O892 1.185 . S
C881 O893 1.355 . S
C882 O884 1.185 . S
C882 O885 1.355 . S
Dy883 O887 2.310 . S
Dy883 O890 2.351 . S
Dy883 O892 2.398 . S
Dy883 O893 2.491 . S
Dy883 O894 2.403 . S
Dy883 O895 2.664 . S
Dy883 O897 2.326 . S
O884 Dy880 2.398 . S
O884 C882 1.185 . S
O885 Dy880 2.491 . S
O885 C882 1.355 . S
O886 Dy880 2.403 . S
O886 C888 1.254 . S
O887 Dy880 2.664 . S
O887 Dy883 2.310 . S
O887 C888 1.268 . S
C888 O886 1.254 . S
C888 O887 1.268 . S
C889 O894 1.254 . S
C889 O895 1.268 . S
O890 Dy883 2.351 . S
O890 C898 1.249 . S
O891 Dy880 2.326 . S
O891 C898 1.267 . S
O892 C881 1.185 . S
O892 Dy883 2.398 . S
O893 C881 1.355 . S
O893 Dy883 2.491 . S
O894 Dy883 2.403 . S
O894 C889 1.254 . S
O895 Dy880 2.310 . S
O895 Dy883 2.664 . S
O895 C889 1.268 . S
O896 Dy880 2.351 . S
O896 C899 1.249 . S
O897 Dy883 2.326 . S
O897 C899 1.267 . S
C898 O890 1.249 . S
C898 O891 1.267 . S
C899 O896 1.249 . S
C899 O897 1.267 . S
Dy900 O904 2.398 . S
Dy900 O905 2.491 . S
Dy900 O906 2.403 . S
Dy900 O907 2.664 . S
Dy900 O911 2.326 . S
Dy900 O915 2.310 . S
Dy900 O916 2.351 . S
C901 O912 1.185 . S
C901 O913 1.355 . S
C902 O904 1.185 . S
C902 O905 1.355 . S
Dy903 O907 2.310 . S
Dy903 O910 2.351 . S
Dy903 O912 2.398 . S
Dy903 O913 2.491 . S
Dy903 O914 2.403 . S
Dy903 O915 2.664 . S
Dy903 O917 2.326 . S
O904 Dy900 2.398 . S
O904 C902 1.185 . S
O905 Dy900 2.491 . S
O905 C902 1.355 . S
O906 Dy900 2.403 . S
O906 C908 1.254 . S
O907 Dy900 2.664 . S
O907 Dy903 2.310 . S
O907 C908 1.268 . S
C908 O906 1.254 . S
C908 O907 1.268 . S
C909 O914 1.254 . S
C909 O915 1.268 . S
O910 Dy903 2.351 . S
O910 C918 1.249 . S
O911 Dy900 2.326 . S
O911 C918 1.267 . S
O912 C901 1.185 . S
O912 Dy903 2.398 . S
O913 C901 1.355 . S
O913 Dy903 2.491 . S
O914 Dy903 2.403 . S
O914 C909 1.254 . S
O915 Dy900 2.310 . S
O915 Dy903 2.664 . S
O915 C909 1.268 . S
O916 Dy900 2.351 . S
O916 C919 1.249 . S
O917 Dy903 2.326 . S
O917 C919 1.267 . S
C918 O910 1.249 . S
C918 O911 1.267 . S
C919 O916 1.249 . S
C919 O917 1.267 . S
Dy920 O924 2.398 . S
Dy920 O925 2.491 . S
Dy920 O926 2.403 . S
Dy920 O927 2.664 . S
Dy920 O931 2.326 . S
Dy920 O935 2.310 . S
Dy920 O936 2.351 . S
C921 O932 1.185 . S
C921 O933 1.355 . S
C922 O924 1.185 . S
C922 O925 1.355 . S
Dy923 O927 2.310 . S
Dy923 O930 2.351 . S
Dy923 O932 2.398 . S
Dy923 O933 2.491 . S
Dy923 O934 2.403 . S
Dy923 O935 2.664 . S
Dy923 O937 2.326 . S
O924 Dy920 2.398 . S
O924 C922 1.185 . S
O925 Dy920 2.491 . S
O925 C922 1.355 . S
O926 Dy920 2.403 . S
O926 C928 1.254 . S
O927 Dy920 2.664 . S
O927 Dy923 2.310 . S
O927 C928 1.268 . S
C928 O926 1.254 . S
C928 O927 1.268 . S
C929 O934 1.254 . S
C929 O935 1.268 . S
O930 Dy923 2.351 . S
O930 C938 1.249 . S
O931 Dy920 2.326 . S
O931 C938 1.267 . S
O932 C921 1.185 . S
O932 Dy923 2.398 . S
O933 C921 1.355 . S
O933 Dy923 2.491 . S
O934 Dy923 2.403 . S
O934 C929 1.254 . S
O935 Dy920 2.310 . S
O935 Dy923 2.664 . S
O935 C929 1.268 . S
O936 Dy920 2.351 . S
O936 C939 1.249 . S
O937 Dy923 2.326 . S
O937 C939 1.267 . S
C938 O930 1.249 . S
C938 O931 1.267 . S
C939 O936 1.249 . S
C939 O937 1.267 . S
Dy940 O944 2.398 . S
Dy940 O945 2.491 . S
Dy940 O946 2.403 . S
Dy940 O947 2.664 . S
Dy940 O951 2.326 . S
Dy940 O955 2.310 . S
Dy940 O956 2.351 . S
C941 O952 1.185 . S
C941 O953 1.355 . S
C942 O944 1.185 . S
C942 O945 1.355 . S
Dy943 O947 2.310 . S
Dy943 O950 2.351 . S
Dy943 O952 2.398 . S
Dy943 O953 2.491 . S
Dy943 O954 2.403 . S
Dy943 O955 2.664 . S
Dy943 O957 2.326 . S
O944 Dy940 2.398 . S
O944 C942 1.185 . S
O945 Dy940 2.491 . S
O945 C942 1.355 . S
O946 Dy940 2.403 . S
O946 C948 1.254 . S
O947 Dy940 2.664 . S
O947 Dy943 2.310 . S
O947 C948 1.268 . S
C948 O946 1.254 . S
C948 O947 1.268 . S
C949 O954 1.254 . S
C949 O955 1.268 . S
O950 Dy943 2.351 . S
O950 C958 1.249 . S
O951 Dy940 2.326 . S
O951 C958 1.267 . S
O952 C941 1.185 . S
O952 Dy943 2.398 . S
O953 C941 1.355 . S
O953 Dy943 2.491 . S
O954 Dy943 2.403 . S
O954 C949 1.254 . S
O955 Dy940 2.310 . S
O955 Dy943 2.664 . S
O955 C949 1.268 . S
O956 Dy940 2.351 . S
O956 C959 1.249 . S
O957 Dy943 2.326 . S
O957 C959 1.267 . S
C958 O950 1.249 . S
C958 O951 1.267 . S
C959 O956 1.249 . S
C959 O957 1.267 . S
H960 C966 0.930 . S
H961 C970 0.930 . S
H962 C975 0.929 . S
H963 C973 0.929 . S
H964 C968 0.929 . S
H965 C974 0.929 . S
C966 H960 0.930 . S
C966 C967 1.367 . S
C966 C974 1.378 . S
C967 C966 1.367 . S
C967 C975 1.433 1_455 S
C968 H964 0.929 . S
C968 C970 1.378 . S
C968 C972 1.350 1_655 S
C969 C972 1.463 . S
C969 C974 1.350 . S
C969 N977 1.427 1_455 S
C970 H961 0.930 . S
C970 C968 1.378 . S
C970 C971 1.367 1_655 S
C971 C970 1.367 1_455 S
C971 C973 1.433 . S
C972 C968 1.350 1_455 S
C972 C969 1.463 . S
C972 N976 1.427 . S
C973 H963 0.929 . S
C973 C971 1.433 . S
C973 N976 1.384 . S
C974 H965 0.929 . S
C974 C966 1.378 . S
C974 C969 1.350 . S
C975 H962 0.929 . S
C975 C967 1.433 1_655 S
C975 N977 1.384 . S
N976 C972 1.427 . S
N976 C973 1.384 . S
N977 C969 1.427 1_655 S
N977 C975 1.384 . S
H978 C984 0.930 . S
H979 C988 0.930 1_565 S
H980 C993 0.929 . S
H981 C991 0.929 . S
H982 C986 0.929 1_565 S
H983 C992 0.929 . S
C984 H978 0.930 . S
C984 C985 1.367 . S
C984 C992 1.378 . S
C985 C984 1.367 . S
C985 C993 1.433 . S
C986 H982 0.929 1_545 S
C986 C988 1.378 . S
C986 C990 1.350 . S
C987 C990 1.463 . S
C987 C992 1.350 . S
C987 N995 1.427 . S
C988 H979 0.930 1_545 S
C988 C986 1.378 . S
C988 C989 1.367 . S
C989 C988 1.367 . S
C989 C991 1.433 . S
C990 C986 1.350 . S
C990 C987 1.463 . S
C990 N994 1.427 . S
C991 H981 0.929 . S
C991 C989 1.433 . S
C991 N994 1.384 . S
C992 H983 0.929 . S
C992 C984 1.378 . S
C992 C987 1.350 . S
C993 H980 0.929 . S
C993 C985 1.433 . S
C993 N995 1.384 . S
N994 C990 1.427 . S
N994 C991 1.384 . S
N995 C987 1.427 . S
N995 C993 1.384 . S
H996 C1002 0.930 . S
H997 C1006 0.930 . S
H998 C1011 0.929 . S
H999 C1009 0.929 . S
H1000 C1004 0.929 . S
H1001 C1010 0.929 . S
C1002 H996 0.930 . S
C1002 C1003 1.367 . S
C1002 C1010 1.378 . S
C1003 C1002 1.367 . S
C1003 C1011 1.433 1_455 S
C1004 H1000 0.929 . S
C1004 C1006 1.378 . S
C1004 C1008 1.350 1_655 S
C1005 C1008 1.463 . S
C1005 C1010 1.350 . S
C1005 N1013 1.427 1_455 S
C1006 H997 0.930 . S
C1006 C1004 1.378 . S
C1006 C1007 1.367 1_655 S
C1007 C1006 1.367 1_455 S
C1007 C1009 1.433 . S
C1008 C1004 1.350 1_455 S
C1008 C1005 1.463 . S
C1008 N1012 1.427 . S
C1009 H999 0.929 . S
C1009 C1007 1.433 . S
C1009 N1012 1.384 . S
C1010 H1001 0.929 . S
C1010 C1002 1.378 . S
C1010 C1005 1.350 . S
C1011 H998 0.929 . S
C1011 C1003 1.433 1_655 S
C1011 N1013 1.384 . S
N1012 C1008 1.427 . S
N1012 C1009 1.384 . S
N1013 C1005 1.427 1_655 S
N1013 C1011 1.384 . S
H1014 C1020 0.930 1_565 S
H1015 C1024 0.930 . S
H1016 C1029 0.929 . S
H1017 C1027 0.929 1_565 S
H1018 C1022 0.929 . S
H1019 C1028 0.929 1_565 S
C1020 H1014 0.930 1_545 S
C1020 C1021 1.367 . S
C1020 C1028 1.378 . S
C1021 C1020 1.367 . S
C1021 C1029 1.433 . S
C1022 H1018 0.929 . S
C1022 C1024 1.378 . S
C1022 C1026 1.350 . S
C1023 C1026 1.463 . S
C1023 C1028 1.350 . S
C1023 N1031 1.427 . S
C1024 H1015 0.930 . S
C1024 C1022 1.378 . S
C1024 C1025 1.367 . S
C1025 C1024 1.367 . S
C1025 C1027 1.433 . S
C1026 C1022 1.350 . S
C1026 C1023 1.463 . S
C1026 N1030 1.427 . S
C1027 H1017 0.929 1_545 S
C1027 C1025 1.433 . S
C1027 N1030 1.384 . S
C1028 H1019 0.929 1_545 S
C1028 C1020 1.378 . S
C1028 C1023 1.350 . S
C1029 H1016 0.929 . S
C1029 C1021 1.433 . S
C1029 N1031 1.384 . S
N1030 C1026 1.427 . S
N1030 C1027 1.384 . S
N1031 C1023 1.427 . S
N1031 C1029 1.384 . S
H1032 C1038 0.930 . S
H1033 C1042 0.932 1_565 S
H1034 C1047 0.931 1_565 S
H1035 C1045 0.929 . S
H1036 C1040 0.929 1_565 S
H1037 C1046 0.929 . S
C1038 H1032 0.930 . S
C1038 C1039 1.367 . S
C1038 C1046 1.378 . S
C1039 C1038 1.367 . S
C1039 C1047 1.433 . S
C1040 H1036 0.929 1_545 S
C1040 C1042 1.378 . S
C1040 C1044 1.350 . S
C1041 C1044 1.463 . S
C1041 C1046 1.350 . S
C1041 N1049 1.427 . S
C1042 H1033 0.932 1_545 S
C1042 C1040 1.378 . S
C1042 C1043 1.365 . S
C1043 C1042 1.365 . S
C1043 C1045 1.433 . S
C1044 C1040 1.350 . S
C1044 C1041 1.463 . S
C1044 N1048 1.427 . S
C1045 H1035 0.929 . S
C1045 C1043 1.433 . S
C1045 N1048 1.384 . S
C1046 H1037 0.929 . S
C1046 C1038 1.378 . S
C1046 C1041 1.350 . S
C1047 H1034 0.931 1_545 S
C1047 C1039 1.433 . S
C1047 N1049 1.384 . S
N1048 C1044 1.427 . S
N1048 C1045 1.384 . S
N1049 C1041 1.427 . S
N1049 C1047 1.384 . S
H1050 C1056 0.930 . S
H1051 C1060 0.930 . S
H1052 C1065 0.929 . S
H1053 C1063 0.922 1_655 S
H1054 C1058 0.929 . S
H1055 C1064 0.929 . S
C1056 H1050 0.930 . S
C1056 C1057 1.367 . S
C1056 C1064 1.378 . S
C1057 C1056 1.367 . S
C1057 C1065 1.433 . S
C1058 H1054 0.929 . S
C1058 C1060 1.378 . S
C1058 C1062 1.350 . S
C1059 C1062 1.463 . S
C1059 C1064 1.350 . S
C1059 N1067 1.427 . S
C1060 H1051 0.930 . S
C1060 C1058 1.378 . S
C1060 C1061 1.367 . S
C1061 C1060 1.367 . S
C1061 C1063 1.433 . S
C1062 C1058 1.350 . S
C1062 C1059 1.463 . S
C1062 N1066 1.427 . S
C1063 H1053 0.922 1_455 S
C1063 C1061 1.433 . S
C1063 N1066 1.384 . S
C1064 H1055 0.929 . S
C1064 C1056 1.378 . S
C1064 C1059 1.350 . S
C1065 H1052 0.929 . S
C1065 C1057 1.433 . S
C1065 N1067 1.384 . S
N1066 C1062 1.427 . S
N1066 C1063 1.384 . S
N1067 C1059 1.427 . S
N1067 C1065 1.384 . S
H1068 C1074 0.930 . S
H1069 C1078 0.930 . S
H1070 C1083 0.929 . S
H1071 C1081 0.929 . S
H1072 C1076 0.929 . S
H1073 C1082 0.929 . S
C1074 H1068 0.930 . S
C1074 C1075 1.367 1_565 S
C1074 C1082 1.378 . S
C1075 C1074 1.367 1_545 S
C1075 C1083 1.433 . S
C1076 H1072 0.929 . S
C1076 C1078 1.378 . S
C1076 C1080 1.350 . S
C1077 C1080 1.463 . S
C1077 C1082 1.350 1_545 S
C1077 N1085 1.427 . S
C1078 H1069 0.930 . S
C1078 C1076 1.378 . S
C1078 C1079 1.367 . S
C1079 C1078 1.367 . S
C1079 C1081 1.433 1_545 S
C1080 C1076 1.350 . S
C1080 C1077 1.463 . S
C1080 N1084 1.427 1_545 S
C1081 H1071 0.929 . S
C1081 C1079 1.433 1_565 S
C1081 N1084 1.384 . S
C1082 H1073 0.929 . S
C1082 C1074 1.378 . S
C1082 C1077 1.350 1_565 S
C1083 H1070 0.929 . S
C1083 C1075 1.433 . S
C1083 N1085 1.384 . S
N1084 C1080 1.427 1_565 S
N1084 C1081 1.384 . S
N1085 C1077 1.427 . S
N1085 C1083 1.384 . S
H1086 C1092 0.930 . S
H1087 C1096 0.930 . S
H1088 C1101 0.929 . S
H1089 C1099 0.929 . S
H1090 C1094 0.929 . S
H1091 C1100 0.929 . S
C1092 H1086 0.930 . S
C1092 C1093 1.367 . S
C1092 C1100 1.378 . S
C1093 C1092 1.367 . S
C1093 C1101 1.433 . S
C1094 H1090 0.929 . S
C1094 C1096 1.378 . S
C1094 C1098 1.350 . S
C1095 C1098 1.463 . S
C1095 C1100 1.350 . S
C1095 N1103 1.427 . S
C1096 H1087 0.930 . S
C1096 C1094 1.378 . S
C1096 C1097 1.367 . S
C1097 C1096 1.367 . S
C1097 C1099 1.433 . S
C1098 C1094 1.350 . S
C1098 C1095 1.463 . S
C1098 N1102 1.427 . S
C1099 H1089 0.929 . S
C1099 C1097 1.433 . S
C1099 N1102 1.384 . S
C1100 H1091 0.929 . S
C1100 C1092 1.378 . S
C1100 C1095 1.350 . S
C1101 H1088 0.929 . S
C1101 C1093 1.433 . S
C1101 N1103 1.384 . S
N1102 C1098 1.427 . S
N1102 C1099 1.384 . S
N1103 C1095 1.427 . S
N1103 C1101 1.384 . S
H1104 C1110 0.930 . S
H1105 C1114 0.930 . S
H1106 C1119 0.929 . S
H1107 C1117 0.929 . S
H1108 C1112 0.929 . S
H1109 C1118 0.929 . S
C1110 H1104 0.930 . S
C1110 C1111 1.367 . S
C1110 C1118 1.378 . S
C1111 C1110 1.367 . S
C1111 C1119 1.433 1_554 S
C1112 H1108 0.929 . S
C1112 C1114 1.378 . S
C1112 C1116 1.350 1_556 S
C1113 C1116 1.463 . S
C1113 C1118 1.350 . S
C1113 N1121 1.427 1_554 S
C1114 H1105 0.930 . S
C1114 C1112 1.378 . S
C1114 C1115 1.367 1_556 S
C1115 C1114 1.367 1_554 S
C1115 C1117 1.433 . S
C1116 C1112 1.350 1_554 S
C1116 C1113 1.463 . S
C1116 N1120 1.427 . S
C1117 H1107 0.929 . S
C1117 C1115 1.433 . S
C1117 N1120 1.384 . S
C1118 H1109 0.929 . S
C1118 C1110 1.378 . S
C1118 C1113 1.350 . S
C1119 H1106 0.929 . S
C1119 C1111 1.433 1_556 S
C1119 N1121 1.384 . S
N1120 C1116 1.427 . S
N1120 C1117 1.384 . S
N1121 C1113 1.427 1_556 S
N1121 C1119 1.384 . S
H1122 C1128 0.958 . S
H1123 C1132 0.930 . S
H1124 C1137 0.929 . S
H1125 C1135 0.929 1_556 S
H1126 C1130 0.929 . S
H1127 C1136 0.910 1_556 S
C1128 H1122 0.958 . S
C1128 C1129 1.341 1_556 S
C1128 C1136 1.376 1_556 S
C1129 C1128 1.341 1_554 S
C1129 C1137 1.433 . S
C1130 H1126 0.929 . S
C1130 C1132 1.378 . S
C1130 C1134 1.350 . S
C1131 C1134 1.463 . S
C1131 C1136 1.370 . S
C1131 N1139 1.427 . S
C1132 H1123 0.930 . S
C1132 C1130 1.378 . S
C1132 C1133 1.367 . S
C1133 C1132 1.367 . S
C1133 C1135 1.433 . S
C1134 C1130 1.350 . S
C1134 C1131 1.463 . S
C1134 N1138 1.427 . S
C1135 H1125 0.929 1_554 S
C1135 C1133 1.433 . S
C1135 N1138 1.384 . S
C1136 H1127 0.910 1_554 S
C1136 C1128 1.376 1_554 S
C1136 C1131 1.370 . S
C1137 H1124 0.929 . S
C1137 C1129 1.433 . S
C1137 N1139 1.384 . S
N1138 C1134 1.427 . S
N1138 C1135 1.384 . S
N1139 C1131 1.427 . S
N1139 C1137 1.384 . S
H1140 C1146 0.930 . S
H1141 C1150 0.930 . S
H1142 C1155 0.929 . S
H1143 C1153 0.929 . S
H1144 C1148 0.929 . S
H1145 C1154 0.929 . S
C1146 H1140 0.930 . S
C1146 C1147 1.367 . S
C1146 C1154 1.378 . S
C1147 C1146 1.367 . S
C1147 C1155 1.433 1_554 S
C1148 H1144 0.929 . S
C1148 C1150 1.378 . S
C1148 C1152 1.350 1_556 S
C1149 C1152 1.463 . S
C1149 C1154 1.350 . S
C1149 N1157 1.427 1_554 S
C1150 H1141 0.930 . S
C1150 C1148 1.378 . S
C1150 C1151 1.367 1_556 S
C1151 C1150 1.367 1_554 S
C1151 C1153 1.433 . S
C1152 C1148 1.350 1_554 S
C1152 C1149 1.463 . S
C1152 N1156 1.427 . S
C1153 H1143 0.929 . S
C1153 C1151 1.433 . S
C1153 N1156 1.384 . S
C1154 H1145 0.929 . S
C1154 C1146 1.378 . S
C1154 C1149 1.350 . S
C1155 H1142 0.929 . S
C1155 C1147 1.433 1_556 S
C1155 N1157 1.384 . S
N1156 C1152 1.427 . S
N1156 C1153 1.384 . S
N1157 C1149 1.427 1_556 S
N1157 C1155 1.384 . S
H1158 C1164 0.930 . S
H1159 C1168 0.930 . S
H1160 C1173 0.929 . S
H1161 C1171 0.929 . S
H1162 C1166 0.929 . S
H1163 C1172 0.929 . S
C1164 H1158 0.930 . S
C1164 C1165 1.367 1_556 S
C1164 C1172 1.378 . S
C1165 C1164 1.367 1_554 S
C1165 C1173 1.433 . S
C1166 H1162 0.929 . S
C1166 C1168 1.378 . S
C1166 C1170 1.350 . S
C1167 C1170 1.463 . S
C1167 C1172 1.350 1_554 S
C1167 N1175 1.427 . S
C1168 H1159 0.930 . S
C1168 C1166 1.378 . S
C1168 C1169 1.367 . S
C1169 C1168 1.367 . S
C1169 C1171 1.433 1_554 S
C1170 C1166 1.350 . S
C1170 C1167 1.463 . S
C1170 N1174 1.427 1_554 S
C1171 H1161 0.929 . S
C1171 C1169 1.433 1_556 S
C1171 N1174 1.384 . S
C1172 H1163 0.929 . S
C1172 C1164 1.378 . S
C1172 C1167 1.350 1_556 S
C1173 H1160 0.929 . S
C1173 C1165 1.433 . S
C1173 N1175 1.384 . S
N1174 C1170 1.427 1_556 S
N1174 C1171 1.384 . S
N1175 C1167 1.427 . S
N1175 C1173 1.384 . S
H1176 C1182 0.930 . S
H1177 C1186 0.930 . S
H1178 C1191 0.929 . S
H1179 C1189 0.929 . S
H1180 C1184 0.929 . S
H1181 C1190 0.929 . S
C1182 H1176 0.930 . S
C1182 C1183 1.367 . S
C1182 C1190 1.378 . S
C1183 C1182 1.367 . S
C1183 C1191 1.433 . S
C1184 H1180 0.929 . S
C1184 C1186 1.378 . S
C1184 C1188 1.350 . S
C1185 C1188 1.463 1_556 S
C1185 C1190 1.350 . S
C1185 N1193 1.427 . S
C1186 H1177 0.930 . S
C1186 C1184 1.378 . S
C1186 C1187 1.367 . S
C1187 C1186 1.367 . S
C1187 C1189 1.433 . S
C1188 C1184 1.350 . S
C1188 C1185 1.463 1_554 S
C1188 N1192 1.427 . S
C1189 H1179 0.929 . S
C1189 C1187 1.433 . S
C1189 N1192 1.384 . S
C1190 H1181 0.929 . S
C1190 C1182 1.378 . S
C1190 C1185 1.350 . S
C1191 H1178 0.929 . S
C1191 C1183 1.433 . S
C1191 N1193 1.384 . S
N1192 C1188 1.427 . S
N1192 C1189 1.384 . S
N1193 C1185 1.427 . S
N1193 C1191 1.384 . S
H1194 C1200 0.930 . S
H1195 C1204 0.930 . S
H1196 C1209 0.929 . S
H1197 C1207 0.929 . S
H1198 C1202 0.929 . S
H1199 C1208 0.929 1_554 S
C1200 H1194 0.930 . S
C1200 C1201 1.367 . S
C1200 C1208 1.378 . S
C1201 C1200 1.367 . S
C1201 C1209 1.433 . S
C1202 H1198 0.929 . S
C1202 C1204 1.378 . S
C1202 C1206 1.350 . S
C1203 C1206 1.463 . S
C1203 C1208 1.350 1_554 S
C1203 N1211 1.427 1_554 S
C1204 H1195 0.930 . S
C1204 C1202 1.378 . S
C1204 C1205 1.367 . S
C1205 C1204 1.367 . S
C1205 C1207 1.433 . S
C1206 C1202 1.350 . S
C1206 C1203 1.463 . S
C1206 N1210 1.427 . S
C1207 H1197 0.929 . S
C1207 C1205 1.433 . S
C1207 N1210 1.384 . S
C1208 H1199 0.929 1_556 S
C1208 C1200 1.378 . S
C1208 C1203 1.350 1_556 S
C1209 H1196 0.929 . S
C1209 C1201 1.433 . S
C1209 N1211 1.384 . S
N1210 C1206 1.427 . S
N1210 C1207 1.384 . S
N1211 C1203 1.427 1_556 S
N1211 C1209 1.384 . S
H1212 C1218 0.930 . S
H1213 C1222 0.930 . S
H1214 C1227 0.929 . S
H1215 C1225 0.929 . S
H1216 C1220 0.929 . S
H1217 C1226 0.929 1_554 S
C1218 H1212 0.930 . S
C1218 C1219 1.367 . S
C1218 C1226 1.378 . S
C1219 C1218 1.367 . S
C1219 C1227 1.433 . S
C1220 H1216 0.929 . S
C1220 C1222 1.378 . S
C1220 C1224 1.350 . S
C1221 C1224 1.463 . S
C1221 C1226 1.350 1_554 S
C1221 N1229 1.427 1_554 S
C1222 H1213 0.930 . S
C1222 C1220 1.378 . S
C1222 C1223 1.367 . S
C1223 C1222 1.367 . S
C1223 C1225 1.433 . S
C1224 C1220 1.350 . S
C1224 C1221 1.463 . S
C1224 N1228 1.427 . S
C1225 H1215 0.929 . S
C1225 C1223 1.433 . S
C1225 N1228 1.384 . S
C1226 H1217 0.929 1_556 S
C1226 C1218 1.378 . S
C1226 C1221 1.350 1_556 S
C1227 H1214 0.929 . S
C1227 C1219 1.433 . S
C1227 N1229 1.384 . S
N1228 C1224 1.427 . S
N1228 C1225 1.384 . S
N1229 C1221 1.427 1_556 S
N1229 C1227 1.384 . S
H1230 C1236 0.930 . S
H1231 C1240 0.930 . S
H1232 C1245 0.929 . S
H1233 C1243 0.929 . S
H1234 C1238 0.929 . S
H1235 C1244 0.929 . S
C1236 H1230 0.930 . S
C1236 C1237 1.367 . S
C1236 C1244 1.378 . S
C1237 C1236 1.367 . S
C1237 C1245 1.433 . S
C1238 H1234 0.929 . S
C1238 C1240 1.378 . S
C1238 C1242 1.350 . S
C1239 C1242 1.463 . S
C1239 C1244 1.350 1_554 S
C1239 N1247 1.427 1_554 S
C1240 H1231 0.930 . S
C1240 C1238 1.378 . S
C1240 C1241 1.367 . S
C1241 C1240 1.367 . S
C1241 C1243 1.433 . S
C1242 C1238 1.350 . S
C1242 C1239 1.463 . S
C1242 N1246 1.427 . S
C1243 H1233 0.929 . S
C1243 C1241 1.433 . S
C1243 N1246 1.384 . S
C1244 H1235 0.929 . S
C1244 C1236 1.378 . S
C1244 C1239 1.350 1_556 S
C1245 H1232 0.929 . S
C1245 C1237 1.433 . S
C1245 N1247 1.384 . S
N1246 C1242 1.427 . S
N1246 C1243 1.384 . S
N1247 C1239 1.427 1_556 S
N1247 C1245 1.384 . S
H1248 C1254 0.930 . S
H1249 C1258 0.930 . S
H1250 C1263 0.929 . S
H1251 C1261 0.929 . S
H1252 C1256 0.929 . S
H1253 C1262 0.929 . S
C1254 H1248 0.930 . S
C1254 C1255 1.367 . S
C1254 C1262 1.378 . S
C1255 C1254 1.367 . S
C1255 C1263 1.433 . S
C1256 H1252 0.929 . S
C1256 C1258 1.378 . S
C1256 C1260 1.350 . S
C1257 C1260 1.463 1_655 S
C1257 C1262 1.350 . S
C1257 N1265 1.427 . S
C1258 H1249 0.930 . S
C1258 C1256 1.378 . S
C1258 C1259 1.367 . S
C1259 C1258 1.367 . S
C1259 C1261 1.433 . S
C1260 C1256 1.350 . S
C1260 C1257 1.463 1_455 S
C1260 N1264 1.427 . S
C1261 H1251 0.929 . S
C1261 C1259 1.433 . S
C1261 N1264 1.384 . S
C1262 H1253 0.929 . S
C1262 C1254 1.378 . S
C1262 C1257 1.350 . S
C1263 H1250 0.929 . S
C1263 C1255 1.433 . S
C1263 N1265 1.384 . S
N1264 C1260 1.427 . S
N1264 C1261 1.384 . S
N1265 C1257 1.427 . S
N1265 C1263 1.384 . S
H1266 C1272 0.930 . S
H1267 C1276 0.930 . S
H1268 C1281 0.929 . S
H1269 C1279 0.929 . S
H1270 C1274 0.929 . S
H1271 C1280 0.929 . S
C1272 H1266 0.930 . S
C1272 C1273 1.367 . S
C1272 C1280 1.378 . S
C1273 C1272 1.367 . S
C1273 C1281 1.433 . S
C1274 H1270 0.929 . S
C1274 C1276 1.378 . S
C1274 C1278 1.350 . S
C1275 C1278 1.431 1_565 S
C1275 C1280 1.368 . S
C1275 N1283 1.439 . S
C1276 H1267 0.930 . S
C1276 C1274 1.378 . S
C1276 C1277 1.367 . S
C1277 C1276 1.367 . S
C1277 C1279 1.433 . S
C1278 C1274 1.350 . S
C1278 C1275 1.431 1_545 S
C1278 N1282 1.427 . S
C1279 H1269 0.929 . S
C1279 C1277 1.433 . S
C1279 N1282 1.384 . S
C1280 H1271 0.929 . S
C1280 C1272 1.378 . S
C1280 C1275 1.368 . S
C1281 H1268 0.929 . S
C1281 C1273 1.433 . S
C1281 N1283 1.384 . S
N1282 C1278 1.427 . S
N1282 C1279 1.384 . S
N1283 C1275 1.439 . S
N1283 C1281 1.384 . S
H1284 C1290 0.930 . S
H1285 C1294 0.930 . S
H1286 C1299 0.929 . S
H1287 C1297 0.929 . S
H1288 C1292 0.929 . S
H1289 C1298 0.929 . S
C1290 H1284 0.930 . S
C1290 C1291 1.367 . S
C1290 C1298 1.378 . S
C1291 C1290 1.367 . S
C1291 C1299 1.433 . S
C1292 H1288 0.929 . S
C1292 C1294 1.378 . S
C1292 C1296 1.350 . S
C1293 C1296 1.463 1_655 S
C1293 C1298 1.350 . S
C1293 N1301 1.427 . S
C1294 H1285 0.930 . S
C1294 C1292 1.378 . S
C1294 C1295 1.367 . S
C1295 C1294 1.367 . S
C1295 C1297 1.433 . S
C1296 C1292 1.350 . S
C1296 C1293 1.463 1_455 S
C1296 N1300 1.427 . S
C1297 H1287 0.929 . S
C1297 C1295 1.433 . S
C1297 N1300 1.384 . S
C1298 H1289 0.929 . S
C1298 C1290 1.378 . S
C1298 C1293 1.350 . S
C1299 H1286 0.929 . S
C1299 C1291 1.433 . S
C1299 N1301 1.384 . S
N1300 C1296 1.427 . S
N1300 C1297 1.384 . S
N1301 C1293 1.427 . S
N1301 C1299 1.384 . S
H1302 C1308 0.930 . S
H1303 C1312 0.930 . S
H1304 C1317 0.929 . S
H1305 C1315 0.929 . S
H1306 C1310 0.945 . S
H1307 C1316 0.929 . S
C1308 H1302 0.930 . S
C1308 C1309 1.367 . S
C1308 C1316 1.378 . S
C1309 C1308 1.367 . S
C1309 C1317 1.433 . S
C1310 H1306 0.945 . S
C1310 C1312 1.378 . S
C1310 C1314 1.343 1_565 S
C1311 C1314 1.478 . S
C1311 C1316 1.350 . S
C1311 N1319 1.427 . S
C1312 H1303 0.930 . S
C1312 C1310 1.378 . S
C1312 C1313 1.367 . S
C1313 C1312 1.367 . S
C1313 C1315 1.433 . S
C1314 C1310 1.343 1_545 S
C1314 C1311 1.478 . S
C1314 N1318 1.419 1_545 S
C1315 H1305 0.929 . S
C1315 C1313 1.433 . S
C1315 N1318 1.384 . S
C1316 H1307 0.929 . S
C1316 C1308 1.378 . S
C1316 C1311 1.350 . S
C1317 H1304 0.929 . S
C1317 C1309 1.433 . S
C1317 N1319 1.384 . S
N1318 C1314 1.419 1_565 S
N1318 C1315 1.384 . S
N1319 C1311 1.427 . S
N1319 C1317 1.384 . S
H1320 C1326 0.930 . S
H1321 C1330 0.930 . S
H1322 C1335 0.929 . S
H1323 C1333 0.929 . S
H1324 C1328 0.929 . S
H1325 C1334 0.929 . S
C1326 H1320 0.930 . S
C1326 C1327 1.367 . S
C1326 C1334 1.378 1_565 S
C1327 C1326 1.367 . S
C1327 C1335 1.433 . S
C1328 H1324 0.929 . S
C1328 C1330 1.378 . S
C1328 C1332 1.350 . S
C1329 C1332 1.463 . S
C1329 C1334 1.350 . S
C1329 N1337 1.449 . S
C1330 H1321 0.930 . S
C1330 C1328 1.378 . S
C1330 C1331 1.367 . S
C1331 C1330 1.367 . S
C1331 C1333 1.433 . S
C1332 C1328 1.350 . S
C1332 C1329 1.463 . S
C1332 N1336 1.427 . S
C1333 H1323 0.929 . S
C1333 C1331 1.433 . S
C1333 N1336 1.384 . S
C1334 H1325 0.929 . S
C1334 C1326 1.378 1_545 S
C1334 C1329 1.350 . S
C1335 H1322 0.929 . S
C1335 C1327 1.433 . S
C1335 N1337 1.339 1_565 S
N1336 C1332 1.427 . S
N1336 C1333 1.384 . S
N1337 C1329 1.449 . S
N1337 C1335 1.339 1_545 S
H1338 C1344 0.930 . S
H1339 C1348 0.930 . S
H1340 C1353 0.929 . S
H1341 C1351 0.929 . S
H1342 C1346 0.929 . S
H1343 C1352 0.929 . S
C1344 H1338 0.930 . S
C1344 C1345 1.367 . S
C1344 C1352 1.378 . S
C1345 C1344 1.367 . S
C1345 C1353 1.433 . S
C1346 H1342 0.929 . S
C1346 C1348 1.378 . S
C1346 C1350 1.344 1_655 S
C1347 C1350 1.476 . S
C1347 C1352 1.350 . S
C1347 N1355 1.427 . S
C1348 H1339 0.930 . S
C1348 C1346 1.378 . S
C1348 C1349 1.367 . S
C1349 C1348 1.367 . S
C1349 C1351 1.433 . S
C1350 C1346 1.344 1_455 S
C1350 C1347 1.476 . S
C1350 N1354 1.421 1_455 S
C1351 H1341 0.929 . S
C1351 C1349 1.433 . S
C1351 N1354 1.384 . S
C1352 H1343 0.929 . S
C1352 C1344 1.378 . S
C1352 C1347 1.350 . S
C1353 H1340 0.929 . S
C1353 C1345 1.433 . S
C1353 N1355 1.384 . S
N1354 C1350 1.421 1_655 S
N1354 C1351 1.384 . S
N1355 C1347 1.427 . S
N1355 C1353 1.384 . S
H1356 C1362 0.930 . S
H1357 C1366 0.930 . S
H1358 C1371 0.929 . S
H1359 C1369 0.929 . S
H1360 C1364 0.929 . S
H1361 C1370 0.929 1_545 S
C1362 H1356 0.930 . S
C1362 C1363 1.367 . S
C1362 C1370 1.378 . S
C1363 C1362 1.367 . S
C1363 C1371 1.433 . S
C1364 H1360 0.929 . S
C1364 C1366 1.378 . S
C1364 C1368 1.350 . S
C1365 C1368 1.463 . S
C1365 C1370 1.350 1_545 S
C1365 N1373 1.427 1_545 S
C1366 H1357 0.930 . S
C1366 C1364 1.378 . S
C1366 C1367 1.367 . S
C1367 C1366 1.367 . S
C1367 C1369 1.433 . S
C1368 C1364 1.350 . S
C1368 C1365 1.463 . S
C1368 N1372 1.427 . S
C1369 H1359 0.929 . S
C1369 C1367 1.433 . S
C1369 N1372 1.384 . S
C1370 H1361 0.929 1_565 S
C1370 C1362 1.378 . S
C1370 C1365 1.350 1_565 S
C1371 H1358 0.929 . S
C1371 C1363 1.433 . S
C1371 N1373 1.384 . S
N1372 C1368 1.427 . S
N1372 C1369 1.384 . S
N1373 C1365 1.427 1_565 S
N1373 C1371 1.384 . S
H1374 C1380 0.930 . S
H1375 C1384 0.930 . S
H1376 C1389 0.929 . S
H1377 C1387 0.929 . S
H1378 C1382 0.929 . S
H1379 C1388 0.929 . S
C1380 H1374 0.930 . S
C1380 C1381 1.367 . S
C1380 C1388 1.378 . S
C1381 C1380 1.367 . S
C1381 C1389 1.433 . S
C1382 H1378 0.929 . S
C1382 C1384 1.378 . S
C1382 C1386 1.350 . S
C1383 C1386 1.463 1_455 S
C1383 C1388 1.350 . S
C1383 N1391 1.427 . S
C1384 H1375 0.930 . S
C1384 C1382 1.378 . S
C1384 C1385 1.367 . S
C1385 C1384 1.367 . S
C1385 C1387 1.433 . S
C1386 C1382 1.350 . S
C1386 C1383 1.463 1_655 S
C1386 N1390 1.427 . S
C1387 H1377 0.929 . S
C1387 C1385 1.433 . S
C1387 N1390 1.384 . S
C1388 H1379 0.929 . S
C1388 C1380 1.378 . S
C1388 C1383 1.350 . S
C1389 H1376 0.929 . S
C1389 C1381 1.433 . S
C1389 N1391 1.384 . S
N1390 C1386 1.427 . S
N1390 C1387 1.384 . S
N1391 C1383 1.427 . S
N1391 C1389 1.384 . S
H1392 C1398 0.930 . S
H1393 C1402 0.930 . S
H1394 C1407 0.929 . S
H1395 C1405 0.929 . S
H1396 C1400 0.929 . S
H1397 C1406 0.929 . S
C1398 H1392 0.930 . S
C1398 C1399 1.346 1_655 S
C1398 C1406 1.378 . S
C1399 C1398 1.346 1_455 S
C1399 C1407 1.456 . S
C1400 H1396 0.929 . S
C1400 C1402 1.378 . S
C1400 C1404 1.350 . S
C1401 C1404 1.463 . S
C1401 C1406 1.350 1_455 S
C1401 N1409 1.427 . S
C1402 H1393 0.930 . S
C1402 C1400 1.378 . S
C1402 C1403 1.367 . S
C1403 C1402 1.367 . S
C1403 C1405 1.433 1_455 S
C1404 C1400 1.350 . S
C1404 C1401 1.463 . S
C1404 N1408 1.427 1_455 S
C1405 H1395 0.929 . S
C1405 C1403 1.433 1_655 S
C1405 N1408 1.384 . S
C1406 H1397 0.929 . S
C1406 C1398 1.378 . S
C1406 C1401 1.350 1_655 S
C1407 H1394 0.929 . S
C1407 C1399 1.456 . S
C1407 N1409 1.384 . S
N1408 C1404 1.427 1_655 S
N1408 C1405 1.384 . S
N1409 C1401 1.427 . S
N1409 C1407 1.384 . S
H1410 C1416 0.930 . S
H1411 C1420 0.930 . S
H1412 C1425 0.929 . S
H1413 C1423 0.929 1_565 S
H1414 C1418 0.929 . S
H1415 C1424 0.929 . S
C1416 H1410 0.930 . S
C1416 C1417 1.367 1_565 S
C1416 C1424 1.378 . S
C1417 C1416 1.367 1_545 S
C1417 C1425 1.433 . S
C1418 H1414 0.929 . S
C1418 C1420 1.378 . S
C1418 C1422 1.350 . S
C1419 C1422 1.463 . S
C1419 C1424 1.350 1_545 S
C1419 N1427 1.427 . S
C1420 H1411 0.930 . S
C1420 C1418 1.378 . S
C1420 C1421 1.367 . S
C1421 C1420 1.367 . S
C1421 C1423 1.433 . S
C1422 C1418 1.350 . S
C1422 C1419 1.463 . S
C1422 N1426 1.452 . S
C1423 H1413 0.929 1_545 S
C1423 C1421 1.433 . S
C1423 N1426 1.385 . S
C1424 H1415 0.929 . S
C1424 C1416 1.378 . S
C1424 C1419 1.350 1_565 S
C1425 H1412 0.929 . S
C1425 C1417 1.433 . S
C1425 N1427 1.384 . S
N1426 C1422 1.452 . S
N1426 C1423 1.385 . S
N1427 C1419 1.427 . S
N1427 C1425 1.384 . S
H1428 C1434 0.930 1_655 S
H1429 C1438 0.930 . S
H1430 C1443 0.929 . S
H1431 C1441 0.916 1_655 S
H1432 C1436 0.929 . S
H1433 C1442 0.929 1_655 S
C1434 H1428 0.930 1_455 S
C1434 C1435 1.367 . S
C1434 C1442 1.378 . S
C1435 C1434 1.367 . S
C1435 C1443 1.433 . S
C1436 H1432 0.929 . S
C1436 C1438 1.378 . S
C1436 C1440 1.350 . S
C1437 C1440 1.463 . S
C1437 C1442 1.350 . S
C1437 N1445 1.427 . S
C1438 H1429 0.930 . S
C1438 C1436 1.378 . S
C1438 C1439 1.367 . S
C1439 C1438 1.367 . S
C1439 C1441 1.446 . S
C1440 C1436 1.350 . S
C1440 C1437 1.463 . S
C1440 N1444 1.427 . S
C1441 H1431 0.916 1_455 S
C1441 C1439 1.446 . S
C1441 N1444 1.384 . S
C1442 H1433 0.929 1_455 S
C1442 C1434 1.378 . S
C1442 C1437 1.350 . S
C1443 H1430 0.929 . S
C1443 C1435 1.433 . S
C1443 N1445 1.384 . S
N1444 C1440 1.427 . S
N1444 C1441 1.384 . S
N1445 C1437 1.427 . S
N1445 C1443 1.384 . S
H1446 C1452 0.930 . S
H1447 C1456 0.930 . S
H1448 C1461 0.929 . S
H1449 C1459 0.929 . S
H1450 C1454 0.929 . S
H1451 C1460 0.929 . S
C1452 H1446 0.930 . S
C1452 C1453 1.367 1_565 S
C1452 C1460 1.378 . S
C1453 C1452 1.367 1_545 S
C1453 C1461 1.433 . S
C1454 H1450 0.929 . S
C1454 C1456 1.378 . S
C1454 C1458 1.350 . S
C1455 C1458 1.463 . S
C1455 C1460 1.350 1_545 S
C1455 N1463 1.427 . S
C1456 H1447 0.930 . S
C1456 C1454 1.378 . S
C1456 C1457 1.367 . S
C1457 C1456 1.367 . S
C1457 C1459 1.433 1_545 S
C1458 C1454 1.350 . S
C1458 C1455 1.463 . S
C1458 N1462 1.427 1_545 S
C1459 H1449 0.929 . S
C1459 C1457 1.433 1_565 S
C1459 N1462 1.384 . S
C1460 H1451 0.929 . S
C1460 C1452 1.378 . S
C1460 C1455 1.350 1_565 S
C1461 H1448 0.929 . S
C1461 C1453 1.433 . S
C1461 N1463 1.384 . S
N1462 C1458 1.427 1_565 S
N1462 C1459 1.384 . S
N1463 C1455 1.427 . S
N1463 C1461 1.384 . S
H1464 C1470 0.930 . S
H1465 C1474 0.930 . S
H1466 C1479 0.929 . S
H1467 C1477 0.929 . S
H1468 C1472 0.929 . S
H1469 C1478 0.929 . S
C1470 H1464 0.930 . S
C1470 C1471 1.367 . S
C1470 C1478 1.378 . S
C1471 C1470 1.367 . S
C1471 C1479 1.433 1_455 S
C1472 H1468 0.929 . S
C1472 C1474 1.378 . S
C1472 C1476 1.350 1_655 S
C1473 C1476 1.463 . S
C1473 C1478 1.350 . S
C1473 N1481 1.427 1_455 S
C1474 H1465 0.930 . S
C1474 C1472 1.378 . S
C1474 C1475 1.367 1_655 S
C1475 C1474 1.367 1_455 S
C1475 C1477 1.433 . S
C1476 C1472 1.350 1_455 S
C1476 C1473 1.463 . S
C1476 N1480 1.427 . S
C1477 H1467 0.929 . S
C1477 C1475 1.433 . S
C1477 N1480 1.384 . S
C1478 H1469 0.929 . S
C1478 C1470 1.378 . S
C1478 C1473 1.350 . S
C1479 H1466 0.929 . S
C1479 C1471 1.433 1_655 S
C1479 N1481 1.384 . S
N1480 C1476 1.427 . S
N1480 C1477 1.384 . S
N1481 C1473 1.427 1_655 S
N1481 C1479 1.384 . S
H1482 C1488 0.930 1_565 S
H1483 C1492 0.930 . S
H1484 C1497 0.929 . S
H1485 C1495 0.929 1_565 S
H1486 C1490 0.929 . S
H1487 C1496 0.929 1_565 S
C1488 H1482 0.930 1_545 S
C1488 C1489 1.367 . S
C1488 C1496 1.378 . S
C1489 C1488 1.367 . S
C1489 C1497 1.433 . S
C1490 H1486 0.929 . S
C1490 C1492 1.378 . S
C1490 C1494 1.350 . S
C1491 C1494 1.463 . S
C1491 C1496 1.350 . S
C1491 N1499 1.427 . S
C1492 H1483 0.930 . S
C1492 C1490 1.378 . S
C1492 C1493 1.367 . S
C1493 C1492 1.367 . S
C1493 C1495 1.433 . S
C1494 C1490 1.350 . S
C1494 C1491 1.463 . S
C1494 N1498 1.427 . S
C1495 H1485 0.929 1_545 S
C1495 C1493 1.433 . S
C1495 N1498 1.384 . S
C1496 H1487 0.929 1_545 S
C1496 C1488 1.378 . S
C1496 C1491 1.350 . S
C1497 H1484 0.929 . S
C1497 C1489 1.433 . S
C1497 N1499 1.384 . S
N1498 C1494 1.427 . S
N1498 C1495 1.384 . S
N1499 C1491 1.427 . S
N1499 C1497 1.384 . S
H1500 C1506 0.930 . S
H1501 C1510 0.930 . S
H1502 C1515 0.929 . S
H1503 C1513 0.929 . S
H1504 C1508 0.929 . S
H1505 C1514 0.929 . S
C1506 H1500 0.930 . S
C1506 C1507 1.367 1_655 S
C1506 C1514 1.378 . S
C1507 C1506 1.367 1_455 S
C1507 C1515 1.433 . S
C1508 H1504 0.929 . S
C1508 C1510 1.378 . S
C1508 C1512 1.350 . S
C1509 C1512 1.463 . S
C1509 C1514 1.350 1_455 S
C1509 N1517 1.427 . S
C1510 H1501 0.930 . S
C1510 C1508 1.378 . S
C1510 C1511 1.367 . S
C1511 C1510 1.367 . S
C1511 C1513 1.433 1_455 S
C1512 C1508 1.350 . S
C1512 C1509 1.463 . S
C1512 N1516 1.427 1_455 S
C1513 H1503 0.929 . S
C1513 C1511 1.433 1_655 S
C1513 N1516 1.384 . S
C1514 H1505 0.929 . S
C1514 C1506 1.378 . S
C1514 C1509 1.350 1_655 S
C1515 H1502 0.929 . S
C1515 C1507 1.433 . S
C1515 N1517 1.384 . S
N1516 C1512 1.427 1_655 S
N1516 C1513 1.384 . S
N1517 C1509 1.427 . S
N1517 C1515 1.384 . S
H1518 C1524 0.930 . S
H1519 C1528 0.930 . S
H1520 C1533 0.929 1_565 S
H1521 C1531 0.929 . S
H1522 C1526 0.929 . S
H1523 C1532 0.929 . S
C1524 H1518 0.930 . S
C1524 C1525 1.367 . S
C1524 C1532 1.378 . S
C1525 C1524 1.367 . S
C1525 C1533 1.433 . S
C1526 H1522 0.929 . S
C1526 C1528 1.378 . S
C1526 C1530 1.350 1_565 S
C1527 C1530 1.463 . S
C1527 C1532 1.350 . S
C1527 N1535 1.431 1_545 S
C1528 H1519 0.930 . S
C1528 C1526 1.378 . S
C1528 C1529 1.367 1_565 S
C1529 C1528 1.367 1_545 S
C1529 C1531 1.433 . S
C1530 C1526 1.350 1_545 S
C1530 C1527 1.463 . S
C1530 N1534 1.427 . S
C1531 H1521 0.929 . S
C1531 C1529 1.433 . S
C1531 N1534 1.384 . S
C1532 H1523 0.929 . S
C1532 C1524 1.378 . S
C1532 C1527 1.350 . S
C1533 H1520 0.929 1_545 S
C1533 C1525 1.433 . S
C1533 N1535 1.384 1_545 S
N1534 C1530 1.427 . S
N1534 C1531 1.384 . S
N1535 C1527 1.431 1_565 S
N1535 C1533 1.384 1_565 S
H1536 C1542 0.930 . S
H1537 C1546 0.930 . S
H1538 C1551 0.929 1_556 S
H1539 C1549 0.929 . S
H1540 C1544 0.929 . S
H1541 C1550 0.929 . S
C1542 H1536 0.930 . S
C1542 C1543 1.367 . S
C1542 C1550 1.378 . S
C1543 C1542 1.367 . S
C1543 C1551 1.433 . S
C1544 H1540 0.929 . S
C1544 C1546 1.378 . S
C1544 C1548 1.350 1_556 S
C1545 C1548 1.463 . S
C1545 C1550 1.350 . S
C1545 N1553 1.452 . S
C1546 H1537 0.930 . S
C1546 C1544 1.378 . S
C1546 C1547 1.367 1_556 S
C1547 C1546 1.367 1_554 S
C1547 C1549 1.433 . S
C1548 C1544 1.350 1_554 S
C1548 C1545 1.463 . S
C1548 N1552 1.427 . S
C1549 H1539 0.929 . S
C1549 C1547 1.433 . S
C1549 N1552 1.384 . S
C1550 H1541 0.929 . S
C1550 C1542 1.378 . S
C1550 C1545 1.350 . S
C1551 H1538 0.929 1_554 S
C1551 C1543 1.433 . S
C1551 N1553 1.385 . S
N1552 C1548 1.427 . S
N1552 C1549 1.384 . S
N1553 C1545 1.452 . S
N1553 C1551 1.385 . S
H1554 C1560 0.930 . S
H1555 C1564 0.930 . S
H1556 C1569 0.929 . S
H1557 C1567 0.929 . S
H1558 C1562 0.929 . S
H1559 C1568 0.929 . S
C1560 H1554 0.930 . S
C1560 C1561 1.367 . S
C1560 C1568 1.378 . S
C1561 C1560 1.367 . S
C1561 C1569 1.433 1_554 S
C1562 H1558 0.929 . S
C1562 C1564 1.378 . S
C1562 C1566 1.350 1_556 S
C1563 C1566 1.463 . S
C1563 C1568 1.350 . S
C1563 N1571 1.427 1_554 S
C1564 H1555 0.930 . S
C1564 C1562 1.378 . S
C1564 C1565 1.367 1_556 S
C1565 C1564 1.367 1_554 S
C1565 C1567 1.433 . S
C1566 C1562 1.350 1_554 S
C1566 C1563 1.463 . S
C1566 N1570 1.427 . S
C1567 H1557 0.929 . S
C1567 C1565 1.433 . S
C1567 N1570 1.384 . S
C1568 H1559 0.929 . S
C1568 C1560 1.378 . S
C1568 C1563 1.350 . S
C1569 H1556 0.929 . S
C1569 C1561 1.433 1_556 S
C1569 N1571 1.384 . S
N1570 C1566 1.427 . S
N1570 C1567 1.384 . S
N1571 C1563 1.427 1_556 S
N1571 C1569 1.384 . S
H1572 C1578 0.930 1_556 S
H1573 C1582 0.930 . S
H1574 C1587 0.929 . S
H1575 C1585 0.929 . S
H1576 C1580 0.929 . S
H1577 C1586 0.929 1_556 S
C1578 H1572 0.930 1_554 S
C1578 C1579 1.367 . S
C1578 C1586 1.378 . S
C1579 C1578 1.367 . S
C1579 C1587 1.433 . S
C1580 H1576 0.929 . S
C1580 C1582 1.378 . S
C1580 C1584 1.350 . S
C1581 C1584 1.463 . S
C1581 C1586 1.350 . S
C1581 N1589 1.427 . S
C1582 H1573 0.930 . S
C1582 C1580 1.378 . S
C1582 C1583 1.367 . S
C1583 C1582 1.367 . S
C1583 C1585 1.433 1_554 S
C1584 C1580 1.350 . S
C1584 C1581 1.463 . S
C1584 N1588 1.405 1_554 S
C1585 H1575 0.929 . S
C1585 C1583 1.433 1_556 S
C1585 N1588 1.386 . S
C1586 H1577 0.929 1_554 S
C1586 C1578 1.378 . S
C1586 C1581 1.350 . S
C1587 H1574 0.929 . S
C1587 C1579 1.433 . S
C1587 N1589 1.384 . S
N1588 C1584 1.405 1_556 S
N1588 C1585 1.386 . S
N1589 C1581 1.427 . S
N1589 C1587 1.384 . S
H1590 C1596 0.930 . S
H1591 C1600 0.930 . S
H1592 C1605 0.929 . S
H1593 C1603 0.929 . S
H1594 C1598 0.929 . S
H1595 C1604 0.929 . S
C1596 H1590 0.930 . S
C1596 C1597 1.367 . S
C1596 C1604 1.378 . S
C1597 C1596 1.367 . S
C1597 C1605 1.433 1_554 S
C1598 H1594 0.929 . S
C1598 C1600 1.378 . S
C1598 C1602 1.350 1_556 S
C1599 C1602 1.463 . S
C1599 C1604 1.350 . S
C1599 N1607 1.427 1_554 S
C1600 H1591 0.930 . S
C1600 C1598 1.378 . S
C1600 C1601 1.367 1_556 S
C1601 C1600 1.367 1_554 S
C1601 C1603 1.433 . S
C1602 C1598 1.350 1_554 S
C1602 C1599 1.463 . S
C1602 N1606 1.427 . S
C1603 H1593 0.929 . S
C1603 C1601 1.433 . S
C1603 N1606 1.384 . S
C1604 H1595 0.929 . S
C1604 C1596 1.378 . S
C1604 C1599 1.350 . S
C1605 H1592 0.929 . S
C1605 C1597 1.433 1_556 S
C1605 N1607 1.384 . S
N1606 C1602 1.427 . S
N1606 C1603 1.384 . S
N1607 C1599 1.427 1_556 S
N1607 C1605 1.384 . S
H1608 C1614 0.930 . S
H1609 C1618 0.930 . S
H1610 C1623 0.929 . S
H1611 C1621 0.929 . S
H1612 C1616 0.929 . S
H1613 C1622 0.929 . S
C1614 H1608 0.930 . S
C1614 C1615 1.367 . S
C1614 C1622 1.378 . S
C1615 C1614 1.367 . S
C1615 C1623 1.433 . S
C1616 H1612 0.929 . S
C1616 C1618 1.378 . S
C1616 C1620 1.350 . S
C1617 C1620 1.463 . S
C1617 C1622 1.350 . S
C1617 N1625 1.427 . S
C1618 H1609 0.930 . S
C1618 C1616 1.378 . S
C1618 C1619 1.367 . S
C1619 C1618 1.367 . S
C1619 C1621 1.433 . S
C1620 C1616 1.350 . S
C1620 C1617 1.463 . S
C1620 N1624 1.427 . S
C1621 H1611 0.929 . S
C1621 C1619 1.433 . S
C1621 N1624 1.384 . S
C1622 H1613 0.929 . S
C1622 C1614 1.378 . S
C1622 C1617 1.350 . S
C1623 H1610 0.929 . S
C1623 C1615 1.433 . S
C1623 N1625 1.384 . S
N1624 C1620 1.427 . S
N1624 C1621 1.384 . S
N1625 C1617 1.427 . S
N1625 C1623 1.384 . S
H1626 C1632 0.930 . S
H1627 C1636 0.930 . S
H1628 C1641 0.929 . S
H1629 C1639 0.929 . S
H1630 C1634 0.929 . S
H1631 C1640 0.929 . S
C1632 H1626 0.930 . S
C1632 C1633 1.367 . S
C1632 C1640 1.378 . S
C1633 C1632 1.367 . S
C1633 C1641 1.433 . S
C1634 H1630 0.929 . S
C1634 C1636 1.378 . S
C1634 C1638 1.350 . S
C1635 C1638 1.463 . S
C1635 C1640 1.350 . S
C1635 N1643 1.427 . S
C1636 H1627 0.930 . S
C1636 C1634 1.378 . S
C1636 C1637 1.367 . S
C1637 C1636 1.367 . S
C1637 C1639 1.433 . S
C1638 C1634 1.350 . S
C1638 C1635 1.463 . S
C1638 N1642 1.427 . S
C1639 H1629 0.929 . S
C1639 C1637 1.433 . S
C1639 N1642 1.384 . S
C1640 H1631 0.929 . S
C1640 C1632 1.378 . S
C1640 C1635 1.350 . S
C1641 H1628 0.929 . S
C1641 C1633 1.433 . S
C1641 N1643 1.384 . S
N1642 C1638 1.427 . S
N1642 C1639 1.384 . S
N1643 C1635 1.427 . S
N1643 C1641 1.384 . S
H1644 C1650 0.930 . S
H1645 C1654 0.930 . S
H1646 C1659 0.929 . S
H1647 C1657 0.929 . S
H1648 C1652 0.929 . S
H1649 C1658 0.929 . S
C1650 H1644 0.930 . S
C1650 C1651 1.367 . S
C1650 C1658 1.378 . S
C1651 C1650 1.367 . S
C1651 C1659 1.433 . S
C1652 H1648 0.929 . S
C1652 C1654 1.378 . S
C1652 C1656 1.350 . S
C1653 C1656 1.463 . S
C1653 C1658 1.350 . S
C1653 N1661 1.427 . S
C1654 H1645 0.930 . S
C1654 C1652 1.378 . S
C1654 C1655 1.367 . S
C1655 C1654 1.367 . S
C1655 C1657 1.433 . S
C1656 C1652 1.350 . S
C1656 C1653 1.463 . S
C1656 N1660 1.427 . S
C1657 H1647 0.929 . S
C1657 C1655 1.433 . S
C1657 N1660 1.384 . S
C1658 H1649 0.929 . S
C1658 C1650 1.378 . S
C1658 C1653 1.350 . S
C1659 H1646 0.929 . S
C1659 C1651 1.433 . S
C1659 N1661 1.384 . S
N1660 C1656 1.427 . S
N1660 C1657 1.384 . S
N1661 C1653 1.427 . S
N1661 C1659 1.384 . S
H1662 C1668 0.930 . S
H1663 C1672 0.930 . S
H1664 C1677 0.929 . S
H1665 C1675 0.929 . S
H1666 C1670 0.929 . S
H1667 C1676 0.929 . S
C1668 H1662 0.930 . S
C1668 C1669 1.367 . S
C1668 C1676 1.378 . S
C1669 C1668 1.367 . S
C1669 C1677 1.433 . S
C1670 H1666 0.929 . S
C1670 C1672 1.378 . S
C1670 C1674 1.350 . S
C1671 C1674 1.463 . S
C1671 C1676 1.350 . S
C1671 N1679 1.427 . S
C1672 H1663 0.930 . S
C1672 C1670 1.378 . S
C1672 C1673 1.367 . S
C1673 C1672 1.367 . S
C1673 C1675 1.433 . S
C1674 C1670 1.350 . S
C1674 C1671 1.463 . S
C1674 N1678 1.427 . S
C1675 H1665 0.929 . S
C1675 C1673 1.433 . S
C1675 N1678 1.384 . S
C1676 H1667 0.929 . S
C1676 C1668 1.378 . S
C1676 C1671 1.350 . S
C1677 H1664 0.929 . S
C1677 C1669 1.433 . S
C1677 N1679 1.384 . S
N1678 C1674 1.427 . S
N1678 C1675 1.384 . S
N1679 C1671 1.427 . S
N1679 C1677 1.384 . S
H1680 C1686 0.930 . S
H1681 C1690 0.930 . S
H1682 C1695 0.929 . S
H1683 C1693 0.929 . S
H1684 C1688 0.929 . S
H1685 C1694 0.929 . S
C1686 H1680 0.930 . S
C1686 C1687 1.367 . S
C1686 C1694 1.378 . S
C1687 C1686 1.367 . S
C1687 C1695 1.433 . S
C1688 H1684 0.929 . S
C1688 C1690 1.378 . S
C1688 C1692 1.350 . S
C1689 C1692 1.463 . S
C1689 C1694 1.350 . S
C1689 N1697 1.427 . S
C1690 H1681 0.930 . S
C1690 C1688 1.378 . S
C1690 C1691 1.367 . S
C1691 C1690 1.367 . S
C1691 C1693 1.433 . S
C1692 C1688 1.350 . S
C1692 C1689 1.463 . S
C1692 N1696 1.427 . S
C1693 H1683 0.929 . S
C1693 C1691 1.433 . S
C1693 N1696 1.384 . S
C1694 H1685 0.929 . S
C1694 C1686 1.378 . S
C1694 C1689 1.350 . S
C1695 H1682 0.929 . S
C1695 C1687 1.433 . S
C1695 N1697 1.384 . S
N1696 C1692 1.427 . S
N1696 C1693 1.384 . S
N1697 C1689 1.427 . S
N1697 C1695 1.384 . S
H1698 C1704 0.930 . S
H1699 C1708 0.930 . S
H1700 C1713 0.929 . S
H1701 C1711 0.929 . S
H1702 C1706 0.929 . S
H1703 C1712 0.929 . S
C1704 H1698 0.930 . S
C1704 C1705 1.367 . S
C1704 C1712 1.378 . S
C1705 C1704 1.367 . S
C1705 C1713 1.433 . S
C1706 H1702 0.929 . S
C1706 C1708 1.378 . S
C1706 C1710 1.350 . S
C1707 C1710 1.463 . S
C1707 C1712 1.350 . S
C1707 N1715 1.427 . S
C1708 H1699 0.930 . S
C1708 C1706 1.378 . S
C1708 C1709 1.367 . S
C1709 C1708 1.367 . S
C1709 C1711 1.433 . S
C1710 C1706 1.350 . S
C1710 C1707 1.463 . S
C1710 N1714 1.427 . S
C1711 H1701 0.929 . S
C1711 C1709 1.433 . S
C1711 N1714 1.384 . S
C1712 H1703 0.929 . S
C1712 C1704 1.378 . S
C1712 C1707 1.350 . S
C1713 H1700 0.929 . S
C1713 C1705 1.433 . S
C1713 N1715 1.384 . S
N1714 C1710 1.427 . S
N1714 C1711 1.384 . S
N1715 C1707 1.427 . S
N1715 C1713 1.384 . S
H1716 C1722 0.930 . S
H1717 C1726 0.930 . S
H1718 C1731 0.929 . S
H1719 C1729 0.929 . S
H1720 C1724 0.929 . S
H1721 C1730 0.929 . S
C1722 H1716 0.930 . S
C1722 C1723 1.367 . S
C1722 C1730 1.378 . S
C1723 C1722 1.367 . S
C1723 C1731 1.433 . S
C1724 H1720 0.929 . S
C1724 C1726 1.378 . S
C1724 C1728 1.350 . S
C1725 C1728 1.463 . S
C1725 C1730 1.350 . S
C1725 N1733 1.427 . S
C1726 H1717 0.930 . S
C1726 C1724 1.378 . S
C1726 C1727 1.367 . S
C1727 C1726 1.367 . S
C1727 C1729 1.433 . S
C1728 C1724 1.350 . S
C1728 C1725 1.463 . S
C1728 N1732 1.427 . S
C1729 H1719 0.929 . S
C1729 C1727 1.433 . S
C1729 N1732 1.384 . S
C1730 H1721 0.929 . S
C1730 C1722 1.378 . S
C1730 C1725 1.350 . S
C1731 H1718 0.929 . S
C1731 C1723 1.433 . S
C1731 N1733 1.384 . S
N1732 C1728 1.427 . S
N1732 C1729 1.384 . S
N1733 C1725 1.427 . S
N1733 C1731 1.384 . S
H1734 C1740 0.930 . S
H1735 C1744 0.930 . S
H1736 C1749 0.929 . S
H1737 C1747 0.929 . S
H1738 C1742 0.929 . S
H1739 C1748 0.929 . S
C1740 H1734 0.930 . S
C1740 C1741 1.367 . S
C1740 C1748 1.378 . S
C1741 C1740 1.367 . S
C1741 C1749 1.433 . S
C1742 H1738 0.929 . S
C1742 C1744 1.378 . S
C1742 C1746 1.350 . S
C1743 C1746 1.463 . S
C1743 C1748 1.350 . S
C1743 N1751 1.427 . S
C1744 H1735 0.930 . S
C1744 C1742 1.378 . S
C1744 C1745 1.367 . S
C1745 C1744 1.367 . S
C1745 C1747 1.433 . S
C1746 C1742 1.350 . S
C1746 C1743 1.463 . S
C1746 N1750 1.427 . S
C1747 H1737 0.929 . S
C1747 C1745 1.433 . S
C1747 N1750 1.384 . S
C1748 H1739 0.929 . S
C1748 C1740 1.378 . S
C1748 C1743 1.350 . S
C1749 H1736 0.929 . S
C1749 C1741 1.433 . S
C1749 N1751 1.384 . S
N1750 C1746 1.427 . S
N1750 C1747 1.384 . S
N1751 C1743 1.427 . S
N1751 C1749 1.384 . S
H1752 C1758 0.930 . S
H1753 C1762 0.930 . S
H1754 C1767 0.929 . S
H1755 C1765 0.929 . S
H1756 C1760 0.929 . S
H1757 C1766 0.929 . S
C1758 H1752 0.930 . S
C1758 C1759 1.367 . S
C1758 C1766 1.378 . S
C1759 C1758 1.367 . S
C1759 C1767 1.433 . S
C1760 H1756 0.929 . S
C1760 C1762 1.378 . S
C1760 C1764 1.350 . S
C1761 C1764 1.463 . S
C1761 C1766 1.350 . S
C1761 N1769 1.427 . S
C1762 H1753 0.930 . S
C1762 C1760 1.378 . S
C1762 C1763 1.367 . S
C1763 C1762 1.367 . S
C1763 C1765 1.433 . S
C1764 C1760 1.350 . S
C1764 C1761 1.463 . S
C1764 N1768 1.427 . S
C1765 H1755 0.929 . S
C1765 C1763 1.433 . S
C1765 N1768 1.384 . S
C1766 H1757 0.929 . S
C1766 C1758 1.378 . S
C1766 C1761 1.350 . S
C1767 H1754 0.929 . S
C1767 C1759 1.433 . S
C1767 N1769 1.384 . S
N1768 C1764 1.427 . S
N1768 C1765 1.384 . S
N1769 C1761 1.427 . S
N1769 C1767 1.384 . S
H1770 C1776 0.930 . S
H1771 C1780 0.930 . S
H1772 C1785 0.929 . S
H1773 C1783 0.929 . S
H1774 C1778 0.929 . S
H1775 C1784 0.929 . S
C1776 H1770 0.930 . S
C1776 C1777 1.367 . S
C1776 C1784 1.378 . S
C1777 C1776 1.367 . S
C1777 C1785 1.433 . S
C1778 H1774 0.929 . S
C1778 C1780 1.378 . S
C1778 C1782 1.350 . S
C1779 C1782 1.463 . S
C1779 C1784 1.350 . S
C1779 N1787 1.427 . S
C1780 H1771 0.930 . S
C1780 C1778 1.378 . S
C1780 C1781 1.367 . S
C1781 C1780 1.367 . S
C1781 C1783 1.433 . S
C1782 C1778 1.350 . S
C1782 C1779 1.463 . S
C1782 N1786 1.427 . S
C1783 H1773 0.929 . S
C1783 C1781 1.433 . S
C1783 N1786 1.384 . S
C1784 H1775 0.929 . S
C1784 C1776 1.378 . S
C1784 C1779 1.350 . S
C1785 H1772 0.929 . S
C1785 C1777 1.433 . S
C1785 N1787 1.384 . S
N1786 C1782 1.427 . S
N1786 C1783 1.384 . S
N1787 C1779 1.427 . S
N1787 C1785 1.384 . S
H1788 C1794 0.930 . S
H1789 C1798 0.930 . S
H1790 C1803 0.929 . S
H1791 C1801 0.929 . S
H1792 C1796 0.929 . S
H1793 C1802 0.929 . S
C1794 H1788 0.930 . S
C1794 C1795 1.367 . S
C1794 C1802 1.378 . S
C1795 C1794 1.367 . S
C1795 C1803 1.433 . S
C1796 H1792 0.929 . S
C1796 C1798 1.378 . S
C1796 C1800 1.350 . S
C1797 C1800 1.463 . S
C1797 C1802 1.350 . S
C1797 N1805 1.427 . S
C1798 H1789 0.930 . S
C1798 C1796 1.378 . S
C1798 C1799 1.367 . S
C1799 C1798 1.367 . S
C1799 C1801 1.433 . S
C1800 C1796 1.350 . S
C1800 C1797 1.463 . S
C1800 N1804 1.427 . S
C1801 H1791 0.929 . S
C1801 C1799 1.433 . S
C1801 N1804 1.384 . S
C1802 H1793 0.929 . S
C1802 C1794 1.378 . S
C1802 C1797 1.350 . S
C1803 H1790 0.929 . S
C1803 C1795 1.433 . S
C1803 N1805 1.384 . S
N1804 C1800 1.427 . S
N1804 C1801 1.384 . S
N1805 C1797 1.427 . S
N1805 C1803 1.384 . S
H1806 C1812 0.930 . S
H1807 C1816 0.930 . S
H1808 C1821 0.929 . S
H1809 C1819 0.929 . S
H1810 C1814 0.929 . S
H1811 C1820 0.929 . S
C1812 H1806 0.930 . S
C1812 C1813 1.367 . S
C1812 C1820 1.378 . S
C1813 C1812 1.367 . S
C1813 C1821 1.433 . S
C1814 H1810 0.929 . S
C1814 C1816 1.378 . S
C1814 C1818 1.350 . S
C1815 C1818 1.463 . S
C1815 C1820 1.350 . S
C1815 N1823 1.427 . S
C1816 H1807 0.930 . S
C1816 C1814 1.378 . S
C1816 C1817 1.367 . S
C1817 C1816 1.367 . S
C1817 C1819 1.433 . S
C1818 C1814 1.350 . S
C1818 C1815 1.463 . S
C1818 N1822 1.427 . S
C1819 H1809 0.929 . S
C1819 C1817 1.433 . S
C1819 N1822 1.384 . S
C1820 H1811 0.929 . S
C1820 C1812 1.378 . S
C1820 C1815 1.350 . S
C1821 H1808 0.929 . S
C1821 C1813 1.433 . S
C1821 N1823 1.384 . S
N1822 C1818 1.427 . S
N1822 C1819 1.384 . S
N1823 C1815 1.427 . S
N1823 C1821 1.384 . S
H1824 C1830 0.930 . S
H1825 C1834 0.930 . S
H1826 C1839 0.929 . S
H1827 C1837 0.929 . S
H1828 C1832 0.929 . S
H1829 C1838 0.929 . S
C1830 H1824 0.930 . S
C1830 C1831 1.367 . S
C1830 C1838 1.378 . S
C1831 C1830 1.367 . S
C1831 C1839 1.433 . S
C1832 H1828 0.929 . S
C1832 C1834 1.378 . S
C1832 C1836 1.350 . S
C1833 C1836 1.463 . S
C1833 C1838 1.350 . S
C1833 N1841 1.427 . S
C1834 H1825 0.930 . S
C1834 C1832 1.378 . S
C1834 C1835 1.367 . S
C1835 C1834 1.367 . S
C1835 C1837 1.433 . S
C1836 C1832 1.350 . S
C1836 C1833 1.463 . S
C1836 N1840 1.427 . S
C1837 H1827 0.929 . S
C1837 C1835 1.433 . S
C1837 N1840 1.384 . S
C1838 H1829 0.929 . S
C1838 C1830 1.378 . S
C1838 C1833 1.350 . S
C1839 H1826 0.929 . S
C1839 C1831 1.433 . S
C1839 N1841 1.384 . S
N1840 C1836 1.427 . S
N1840 C1837 1.384 . S
N1841 C1833 1.427 . S
N1841 C1839 1.384 . S
H1842 C1848 0.930 . S
H1843 C1852 0.930 . S
H1844 C1857 0.929 . S
H1845 C1855 0.929 . S
H1846 C1850 0.929 . S
H1847 C1856 0.929 . S
C1848 H1842 0.930 . S
C1848 C1849 1.367 . S
C1848 C1856 1.378 . S
C1849 C1848 1.367 . S
C1849 C1857 1.433 . S
C1850 H1846 0.929 . S
C1850 C1852 1.378 . S
C1850 C1854 1.350 . S
C1851 C1854 1.463 . S
C1851 C1856 1.350 . S
C1851 N1859 1.427 . S
C1852 H1843 0.930 . S
C1852 C1850 1.378 . S
C1852 C1853 1.367 . S
C1853 C1852 1.367 . S
C1853 C1855 1.433 . S
C1854 C1850 1.350 . S
C1854 C1851 1.463 . S
C1854 N1858 1.427 . S
C1855 H1845 0.929 . S
C1855 C1853 1.433 . S
C1855 N1858 1.384 . S
C1856 H1847 0.929 . S
C1856 C1848 1.378 . S
C1856 C1851 1.350 . S
C1857 H1844 0.929 . S
C1857 C1849 1.433 . S
C1857 N1859 1.384 . S
N1858 C1854 1.427 . S
N1858 C1855 1.384 . S
N1859 C1851 1.427 . S
N1859 C1857 1.384 . S
H1860 C1866 0.930 . S
H1861 C1870 0.930 . S
H1862 C1875 0.929 . S
H1863 C1873 0.929 . S
H1864 C1868 0.929 . S
H1865 C1874 0.929 . S
C1866 H1860 0.930 . S
C1866 C1867 1.367 . S
C1866 C1874 1.378 . S
C1867 C1866 1.367 . S
C1867 C1875 1.433 . S
C1868 H1864 0.929 . S
C1868 C1870 1.378 . S
C1868 C1872 1.350 . S
C1869 C1872 1.463 . S
C1869 C1874 1.350 . S
C1869 N1877 1.427 . S
C1870 H1861 0.930 . S
C1870 C1868 1.378 . S
C1870 C1871 1.367 . S
C1871 C1870 1.367 . S
C1871 C1873 1.433 . S
C1872 C1868 1.350 . S
C1872 C1869 1.463 . S
C1872 N1876 1.427 . S
C1873 H1863 0.929 . S
C1873 C1871 1.433 . S
C1873 N1876 1.384 . S
C1874 H1865 0.929 . S
C1874 C1866 1.378 . S
C1874 C1869 1.350 . S
C1875 H1862 0.929 . S
C1875 C1867 1.433 . S
C1875 N1877 1.384 . S
N1876 C1872 1.427 . S
N1876 C1873 1.384 . S
N1877 C1869 1.427 . S
N1877 C1875 1.384 . S
H1878 C1884 0.930 1_545 S
H1879 C1888 0.930 . S
H1880 C1893 0.929 . S
H1881 C1891 0.929 . S
H1882 C1886 0.929 . S
H1883 C1892 0.929 . S
C1884 H1878 0.930 1_565 S
C1884 C1885 1.367 . S
C1884 C1892 1.378 . S
C1885 C1884 1.367 . S
C1885 C1893 1.433 . S
C1886 H1882 0.929 . S
C1886 C1888 1.378 . S
C1886 C1890 1.350 . S
C1887 C1890 1.463 . S
C1887 C1892 1.350 . S
C1887 N1895 1.427 . S
C1888 H1879 0.930 . S
C1888 C1886 1.378 . S
C1888 C1889 1.367 . S
C1889 C1888 1.367 . S
C1889 C1891 1.433 . S
C1890 C1886 1.350 . S
C1890 C1887 1.463 . S
C1890 N1894 1.427 . S
C1891 H1881 0.929 . S
C1891 C1889 1.433 . S
C1891 N1894 1.384 . S
C1892 H1883 0.929 . S
C1892 C1884 1.378 . S
C1892 C1887 1.350 . S
C1893 H1880 0.929 . S
C1893 C1885 1.433 . S
C1893 N1895 1.384 . S
N1894 C1890 1.427 . S
N1894 C1891 1.384 . S
N1895 C1887 1.427 . S
N1895 C1893 1.384 . S
H1896 C1902 0.930 . S
H1897 C1906 0.930 . S
H1898 C1911 0.929 . S
H1899 C1909 0.929 . S
H1900 C1904 0.929 . S
H1901 C1910 0.929 . S
C1902 H1896 0.930 . S
C1902 C1903 1.367 . S
C1902 C1910 1.378 . S
C1903 C1902 1.367 . S
C1903 C1911 1.433 . S
C1904 H1900 0.929 . S
C1904 C1906 1.378 . S
C1904 C1908 1.350 . S
C1905 C1908 1.463 . S
C1905 C1910 1.350 . S
C1905 N1913 1.427 . S
C1906 H1897 0.930 . S
C1906 C1904 1.378 . S
C1906 C1907 1.367 . S
C1907 C1906 1.367 . S
C1907 C1909 1.433 . S
C1908 C1904 1.350 . S
C1908 C1905 1.463 . S
C1908 N1912 1.427 . S
C1909 H1899 0.929 . S
C1909 C1907 1.433 . S
C1909 N1912 1.384 . S
C1910 H1901 0.929 . S
C1910 C1902 1.378 . S
C1910 C1905 1.350 . S
C1911 H1898 0.929 . S
C1911 C1903 1.433 . S
C1911 N1913 1.384 . S
N1912 C1908 1.427 . S
N1912 C1909 1.384 . S
N1913 C1905 1.427 . S
N1913 C1911 1.384 . S
H1914 C1920 0.930 . S
H1915 C1924 0.930 . S
H1916 C1929 0.929 . S
H1917 C1927 0.929 . S
H1918 C1922 0.929 . S
H1919 C1928 0.929 . S
C1920 H1914 0.930 . S
C1920 C1921 1.367 . S
C1920 C1928 1.378 . S
C1921 C1920 1.367 . S
C1921 C1929 1.433 . S
C1922 H1918 0.929 . S
C1922 C1924 1.378 . S
C1922 C1926 1.350 . S
C1923 C1926 1.463 . S
C1923 C1928 1.350 . S
C1923 N1931 1.427 . S
C1924 H1915 0.930 . S
C1924 C1922 1.378 . S
C1924 C1925 1.367 . S
C1925 C1924 1.367 . S
C1925 C1927 1.433 . S
C1926 C1922 1.350 . S
C1926 C1923 1.463 . S
C1926 N1930 1.427 . S
C1927 H1917 0.929 . S
C1927 C1925 1.433 . S
C1927 N1930 1.384 . S
C1928 H1919 0.929 . S
C1928 C1920 1.378 . S
C1928 C1923 1.350 . S
C1929 H1916 0.929 . S
C1929 C1921 1.433 . S
C1929 N1931 1.384 . S
N1930 C1926 1.427 . S
N1930 C1927 1.384 . S
N1931 C1923 1.427 . S
N1931 C1929 1.384 . S
H1932 C1938 0.930 . S
H1933 C1942 0.930 . S
H1934 C1947 0.929 . S
H1935 C1945 0.929 . S
H1936 C1940 0.929 . S
H1937 C1946 0.929 . S
C1938 H1932 0.930 . S
C1938 C1939 1.367 . S
C1938 C1946 1.378 . S
C1939 C1938 1.367 . S
C1939 C1947 1.433 . S
C1940 H1936 0.929 . S
C1940 C1942 1.378 . S
C1940 C1944 1.350 . S
C1941 C1944 1.463 . S
C1941 C1946 1.350 . S
C1941 N1949 1.427 . S
C1942 H1933 0.930 . S
C1942 C1940 1.378 . S
C1942 C1943 1.367 . S
C1943 C1942 1.367 . S
C1943 C1945 1.433 . S
C1944 C1940 1.350 . S
C1944 C1941 1.463 . S
C1944 N1948 1.427 . S
C1945 H1935 0.929 . S
C1945 C1943 1.433 . S
C1945 N1948 1.384 . S
C1946 H1937 0.929 . S
C1946 C1938 1.378 . S
C1946 C1941 1.350 . S
C1947 H1934 0.929 . S
C1947 C1939 1.433 . S
C1947 N1949 1.384 . S
N1948 C1944 1.427 . S
N1948 C1945 1.384 . S
N1949 C1941 1.427 . S
N1949 C1947 1.384 . S
H1950 C1956 0.930 . S
H1951 C1960 0.930 . S
H1952 C1965 0.929 . S
H1953 C1963 0.929 1_545 S
H1954 C1958 0.929 . S
H1955 C1964 0.929 . S
C1956 H1950 0.930 . S
C1956 C1957 1.367 . S
C1956 C1964 1.378 . S
C1957 C1956 1.367 . S
C1957 C1965 1.433 . S
C1958 H1954 0.929 . S
C1958 C1960 1.378 . S
C1958 C1962 1.350 . S
C1959 C1962 1.463 . S
C1959 C1964 1.350 . S
C1959 N1967 1.427 . S
C1960 H1951 0.930 . S
C1960 C1958 1.378 . S
C1960 C1961 1.367 . S
C1961 C1960 1.367 . S
C1961 C1963 1.433 . S
C1962 C1958 1.350 . S
C1962 C1959 1.463 . S
C1962 N1966 1.427 . S
C1963 H1953 0.929 1_565 S
C1963 C1961 1.433 . S
C1963 N1966 1.384 . S
C1964 H1955 0.929 . S
C1964 C1956 1.378 . S
C1964 C1959 1.350 . S
C1965 H1952 0.929 . S
C1965 C1957 1.433 . S
C1965 N1967 1.384 . S
N1966 C1962 1.427 . S
N1966 C1963 1.384 . S
N1967 C1959 1.427 . S
N1967 C1965 1.384 . S
H1968 C1974 0.930 . S
H1969 C1978 0.930 . S
H1970 C1983 0.929 . S
H1971 C1981 0.929 . S
H1972 C1976 0.929 . S
H1973 C1982 0.929 . S
C1974 H1968 0.930 . S
C1974 C1975 1.367 . S
C1974 C1982 1.378 . S
C1975 C1974 1.367 . S
C1975 C1983 1.433 . S
C1976 H1972 0.929 . S
C1976 C1978 1.378 . S
C1976 C1980 1.350 . S
C1977 C1980 1.463 . S
C1977 C1982 1.350 . S
C1977 N1985 1.427 . S
C1978 H1969 0.930 . S
C1978 C1976 1.378 . S
C1978 C1979 1.367 . S
C1979 C1978 1.367 . S
C1979 C1981 1.433 . S
C1980 C1976 1.350 . S
C1980 C1977 1.463 . S
C1980 N1984 1.427 . S
C1981 H1971 0.929 . S
C1981 C1979 1.433 . S
C1981 N1984 1.384 . S
C1982 H1973 0.929 . S
C1982 C1974 1.378 . S
C1982 C1977 1.350 . S
C1983 H1970 0.929 . S
C1983 C1975 1.433 . S
C1983 N1985 1.384 . S
N1984 C1980 1.427 . S
N1984 C1981 1.384 . S
N1985 C1977 1.427 . S
N1985 C1983 1.384 . S
H1986 C1992 0.930 . S
H1987 C1996 0.930 . S
H1988 C2001 0.929 . S
H1989 C1999 0.929 . S
H1990 C1994 0.929 . S
H1991 C2000 0.929 . S
C1992 H1986 0.930 . S
C1992 C1993 1.367 . S
C1992 C2000 1.378 . S
C1993 C1992 1.367 . S
C1993 C2001 1.433 . S
C1994 H1990 0.929 . S
C1994 C1996 1.378 . S
C1994 C1998 1.350 . S
C1995 C1998 1.463 . S
C1995 C2000 1.350 . S
C1995 N2003 1.427 . S
C1996 H1987 0.930 . S
C1996 C1994 1.378 . S
C1996 C1997 1.367 . S
C1997 C1996 1.367 . S
C1997 C1999 1.433 . S
C1998 C1994 1.350 . S
C1998 C1995 1.463 . S
C1998 N2002 1.427 . S
C1999 H1989 0.929 . S
C1999 C1997 1.433 . S
C1999 N2002 1.384 . S
C2000 H1991 0.929 . S
C2000 C1992 1.378 . S
C2000 C1995 1.350 . S
C2001 H1988 0.929 . S
C2001 C1993 1.433 . S
C2001 N2003 1.384 . S
N2002 C1998 1.427 . S
N2002 C1999 1.384 . S
N2003 C1995 1.427 . S
N2003 C2001 1.384 . S
H2004 C2010 0.930 1_545 S
H2005 C2014 0.930 . S
H2006 C2019 0.929 . S
H2007 C2017 0.929 . S
H2008 C2012 0.929 . S
H2009 C2018 0.929 . S
C2010 H2004 0.930 1_565 S
C2010 C2011 1.367 . S
C2010 C2018 1.378 . S
C2011 C2010 1.367 . S
C2011 C2019 1.433 . S
C2012 H2008 0.929 . S
C2012 C2014 1.378 . S
C2012 C2016 1.350 . S
C2013 C2016 1.463 . S
C2013 C2018 1.350 . S
C2013 N2021 1.427 . S
C2014 H2005 0.930 . S
C2014 C2012 1.378 . S
C2014 C2015 1.367 . S
C2015 C2014 1.367 . S
C2015 C2017 1.433 . S
C2016 C2012 1.350 . S
C2016 C2013 1.463 . S
C2016 N2020 1.427 . S
C2017 H2007 0.929 . S
C2017 C2015 1.433 . S
C2017 N2020 1.384 . S
C2018 H2009 0.929 . S
C2018 C2010 1.378 . S
C2018 C2013 1.350 . S
C2019 H2006 0.929 . S
C2019 C2011 1.433 . S
C2019 N2021 1.384 . S
N2020 C2016 1.427 . S
N2020 C2017 1.384 . S
N2021 C2013 1.427 . S
N2021 C2019 1.384 . S
H2022 C2028 0.930 . S
H2023 C2032 0.930 . S
H2024 C2037 0.929 . S
H2025 C2035 0.929 . S
H2026 C2030 0.929 . S
H2027 C2036 0.929 . S
C2028 H2022 0.930 . S
C2028 C2029 1.367 . S
C2028 C2036 1.378 . S
C2029 C2028 1.367 . S
C2029 C2037 1.433 . S
C2030 H2026 0.929 . S
C2030 C2032 1.378 . S
C2030 C2034 1.350 . S
C2031 C2034 1.463 . S
C2031 C2036 1.350 . S
C2031 N2039 1.427 . S
C2032 H2023 0.930 . S
C2032 C2030 1.378 . S
C2032 C2033 1.367 . S
C2033 C2032 1.367 . S
C2033 C2035 1.433 . S
C2034 C2030 1.350 . S
C2034 C2031 1.463 . S
C2034 N2038 1.427 . S
C2035 H2025 0.929 . S
C2035 C2033 1.433 . S
C2035 N2038 1.384 . S
C2036 H2027 0.929 . S
C2036 C2028 1.378 . S
C2036 C2031 1.350 . S
C2037 H2024 0.929 . S
C2037 C2029 1.433 . S
C2037 N2039 1.384 . S
N2038 C2034 1.427 . S
N2038 C2035 1.384 . S
N2039 C2031 1.427 . S
N2039 C2037 1.384 . S
H2040 C2046 0.930 1_545 S
H2041 C2050 0.930 . S
H2042 C2055 0.929 . S
H2043 C2053 0.929 . S
H2044 C2048 0.929 . S
H2045 C2054 0.929 . S
C2046 H2040 0.930 1_565 S
C2046 C2047 1.367 . S
C2046 C2054 1.378 . S
C2047 C2046 1.367 . S
C2047 C2055 1.433 . S
C2048 H2044 0.929 . S
C2048 C2050 1.378 . S
C2048 C2052 1.350 . S
C2049 C2052 1.463 . S
C2049 C2054 1.350 . S
C2049 N2057 1.427 . S
C2050 H2041 0.930 . S
C2050 C2048 1.378 . S
C2050 C2051 1.367 . S
C2051 C2050 1.367 . S
C2051 C2053 1.433 . S
C2052 C2048 1.350 . S
C2052 C2049 1.463 . S
C2052 N2056 1.427 . S
C2053 H2043 0.929 . S
C2053 C2051 1.433 . S
C2053 N2056 1.384 . S
C2054 H2045 0.929 . S
C2054 C2046 1.378 . S
C2054 C2049 1.350 . S
C2055 H2042 0.929 . S
C2055 C2047 1.433 . S
C2055 N2057 1.384 . S
N2056 C2052 1.427 . S
N2056 C2053 1.384 . S
N2057 C2049 1.427 . S
N2057 C2055 1.384 . S
H2058 C2064 0.930 . S
H2059 C2068 0.930 . S
H2060 C2073 0.929 . S
H2061 C2071 0.929 . S
H2062 C2066 0.929 . S
H2063 C2072 0.929 . S
C2064 H2058 0.930 . S
C2064 C2065 1.367 . S
C2064 C2072 1.378 . S
C2065 C2064 1.367 . S
C2065 C2073 1.433 . S
C2066 H2062 0.929 . S
C2066 C2068 1.378 . S
C2066 C2070 1.350 . S
C2067 C2070 1.463 . S
C2067 C2072 1.350 . S
C2067 N2075 1.427 . S
C2068 H2059 0.930 . S
C2068 C2066 1.378 . S
C2068 C2069 1.367 . S
C2069 C2068 1.367 . S
C2069 C2071 1.433 . S
C2070 C2066 1.350 . S
C2070 C2067 1.463 . S
C2070 N2074 1.427 . S
C2071 H2061 0.929 . S
C2071 C2069 1.433 . S
C2071 N2074 1.384 . S
C2072 H2063 0.929 . S
C2072 C2064 1.378 . S
C2072 C2067 1.350 . S
C2073 H2060 0.929 . S
C2073 C2065 1.433 . S
C2073 N2075 1.384 . S
N2074 C2070 1.427 . S
N2074 C2071 1.384 . S
N2075 C2067 1.427 . S
N2075 C2073 1.384 . S
H2076 C2082 0.930 . S
H2077 C2086 0.930 . S
H2078 C2091 0.929 . S
H2079 C2089 0.929 . S
H2080 C2084 0.929 . S
H2081 C2090 0.929 . S
C2082 H2076 0.930 . S
C2082 C2083 1.367 . S
C2082 C2090 1.378 . S
C2083 C2082 1.367 . S
C2083 C2091 1.433 . S
C2084 H2080 0.929 . S
C2084 C2086 1.378 . S
C2084 C2088 1.350 . S
C2085 C2088 1.463 . S
C2085 C2090 1.350 . S
C2085 N2093 1.427 . S
C2086 H2077 0.930 . S
C2086 C2084 1.378 . S
C2086 C2087 1.367 . S
C2087 C2086 1.367 . S
C2087 C2089 1.433 . S
C2088 C2084 1.350 . S
C2088 C2085 1.463 . S
C2088 N2092 1.427 . S
C2089 H2079 0.929 . S
C2089 C2087 1.433 . S
C2089 N2092 1.384 . S
C2090 H2081 0.929 . S
C2090 C2082 1.378 . S
C2090 C2085 1.350 . S
C2091 H2078 0.929 . S
C2091 C2083 1.433 . S
C2091 N2093 1.384 . S
N2092 C2088 1.427 . S
N2092 C2089 1.384 . S
N2093 C2085 1.427 . S
N2093 C2091 1.384 . S
H2094 C2100 0.930 . S
H2095 C2104 0.930 . S
H2096 C2109 0.929 . S
H2097 C2107 0.929 . S
H2098 C2102 0.929 . S
H2099 C2108 0.929 . S
C2100 H2094 0.930 . S
C2100 C2101 1.367 . S
C2100 C2108 1.378 . S
C2101 C2100 1.367 . S
C2101 C2109 1.433 . S
C2102 H2098 0.929 . S
C2102 C2104 1.378 . S
C2102 C2106 1.350 . S
C2103 C2106 1.463 . S
C2103 C2108 1.350 . S
C2103 N2111 1.427 . S
C2104 H2095 0.930 . S
C2104 C2102 1.378 . S
C2104 C2105 1.367 . S
C2105 C2104 1.367 . S
C2105 C2107 1.433 . S
C2106 C2102 1.350 . S
C2106 C2103 1.463 . S
C2106 N2110 1.427 . S
C2107 H2097 0.929 . S
C2107 C2105 1.433 . S
C2107 N2110 1.384 . S
C2108 H2099 0.929 . S
C2108 C2100 1.378 . S
C2108 C2103 1.350 . S
C2109 H2096 0.929 . S
C2109 C2101 1.433 . S
C2109 N2111 1.384 . S
N2110 C2106 1.427 . S
N2110 C2107 1.384 . S
N2111 C2103 1.427 . S
N2111 C2109 1.384 . S
H2112 C2118 0.930 . S
H2113 C2122 0.930 . S
H2114 C2127 0.929 . S
H2115 C2125 0.929 . S
H2116 C2120 0.929 . S
H2117 C2126 0.929 . S
C2118 H2112 0.930 . S
C2118 C2119 1.367 . S
C2118 C2126 1.378 . S
C2119 C2118 1.367 . S
C2119 C2127 1.433 . S
C2120 H2116 0.929 . S
C2120 C2122 1.378 . S
C2120 C2124 1.350 . S
C2121 C2124 1.463 . S
C2121 C2126 1.350 . S
C2121 N2129 1.427 . S
C2122 H2113 0.930 . S
C2122 C2120 1.378 . S
C2122 C2123 1.367 . S
C2123 C2122 1.367 . S
C2123 C2125 1.433 . S
C2124 C2120 1.350 . S
C2124 C2121 1.463 . S
C2124 N2128 1.427 . S
C2125 H2115 0.929 . S
C2125 C2123 1.433 . S
C2125 N2128 1.384 . S
C2126 H2117 0.929 . S
C2126 C2118 1.378 . S
C2126 C2121 1.350 . S
C2127 H2114 0.929 . S
C2127 C2119 1.433 . S
C2127 N2129 1.384 . S
N2128 C2124 1.427 . S
N2128 C2125 1.384 . S
N2129 C2121 1.427 . S
N2129 C2127 1.384 . S
H2130 C2136 0.930 1_554 S
H2131 C2140 0.930 . S
H2132 C2145 0.929 . S
H2133 C2143 0.929 . S
H2134 C2138 0.929 . S
H2135 C2144 0.929 . S
C2136 H2130 0.930 1_556 S
C2136 C2137 1.367 . S
C2136 C2144 1.378 . S
C2137 C2136 1.367 . S
C2137 C2145 1.433 . S
C2138 H2134 0.929 . S
C2138 C2140 1.378 . S
C2138 C2142 1.350 . S
C2139 C2142 1.463 . S
C2139 C2144 1.350 . S
C2139 N2147 1.427 . S
C2140 H2131 0.930 . S
C2140 C2138 1.378 . S
C2140 C2141 1.367 . S
C2141 C2140 1.367 . S
C2141 C2143 1.433 . S
C2142 C2138 1.350 . S
C2142 C2139 1.463 . S
C2142 N2146 1.427 . S
C2143 H2133 0.929 . S
C2143 C2141 1.433 . S
C2143 N2146 1.384 . S
C2144 H2135 0.929 . S
C2144 C2136 1.378 . S
C2144 C2139 1.350 . S
C2145 H2132 0.929 . S
C2145 C2137 1.433 . S
C2145 N2147 1.384 . S
N2146 C2142 1.427 . S
N2146 C2143 1.384 . S
N2147 C2139 1.427 . S
N2147 C2145 1.384 . S
H2148 C2154 0.930 . S
H2149 C2158 0.930 . S
H2150 C2163 0.932 . S
H2151 C2161 0.929 . S
H2152 C2156 0.929 . S
H2153 C2162 0.929 . S
C2154 H2148 0.930 . S
C2154 C2155 1.367 . S
C2154 C2162 1.378 . S
C2155 C2154 1.367 . S
C2155 C2163 1.433 1_556 S
C2156 H2152 0.929 . S
C2156 C2158 1.378 . S
C2156 C2160 1.350 . S
C2157 C2160 1.463 . S
C2157 C2162 1.350 . S
C2157 N2165 1.427 . S
C2158 H2149 0.930 . S
C2158 C2156 1.378 . S
C2158 C2159 1.367 . S
C2159 C2158 1.367 . S
C2159 C2161 1.433 . S
C2160 C2156 1.350 . S
C2160 C2157 1.463 . S
C2160 N2164 1.427 . S
C2161 H2151 0.929 . S
C2161 C2159 1.433 . S
C2161 N2164 1.384 . S
C2162 H2153 0.929 . S
C2162 C2154 1.378 . S
C2162 C2157 1.350 . S
C2163 H2150 0.932 . S
C2163 C2155 1.433 1_554 S
C2163 N2165 1.381 1_554 S
N2164 C2160 1.427 . S
N2164 C2161 1.384 . S
N2165 C2157 1.427 . S
N2165 C2163 1.381 1_556 S
H2166 C2172 0.930 . S
H2167 C2176 0.930 1_554 S
H2168 C2181 0.929 . S
H2169 C2179 0.929 . S
H2170 C2174 0.929 . S
H2171 C2180 0.929 . S
C2172 H2166 0.930 . S
C2172 C2173 1.367 . S
C2172 C2180 1.378 . S
C2173 C2172 1.367 . S
C2173 C2181 1.433 . S
C2174 H2170 0.929 . S
C2174 C2176 1.378 . S
C2174 C2178 1.350 . S
C2175 C2178 1.463 . S
C2175 C2180 1.350 . S
C2175 N2183 1.427 . S
C2176 H2167 0.930 1_556 S
C2176 C2174 1.378 . S
C2176 C2177 1.367 . S
C2177 C2176 1.367 . S
C2177 C2179 1.433 . S
C2178 C2174 1.350 . S
C2178 C2175 1.463 . S
C2178 N2182 1.427 . S
C2179 H2169 0.929 . S
C2179 C2177 1.433 . S
C2179 N2182 1.384 . S
C2180 H2171 0.929 . S
C2180 C2172 1.378 . S
C2180 C2175 1.350 . S
C2181 H2168 0.929 . S
C2181 C2173 1.433 . S
C2181 N2183 1.384 . S
N2182 C2178 1.427 . S
N2182 C2179 1.384 . S
N2183 C2175 1.427 . S
N2183 C2181 1.384 . S
H2184 C2190 0.930 . S
H2185 C2194 0.930 . S
H2186 C2199 0.929 . S
H2187 C2197 0.929 . S
H2188 C2192 0.929 . S
H2189 C2198 0.929 . S
C2190 H2184 0.930 . S
C2190 C2191 1.367 . S
C2190 C2198 1.378 . S
C2191 C2190 1.367 . S
C2191 C2199 1.433 . S
C2192 H2188 0.929 . S
C2192 C2194 1.378 . S
C2192 C2196 1.350 . S
C2193 C2196 1.463 . S
C2193 C2198 1.350 . S
C2193 N2201 1.427 . S
C2194 H2185 0.930 . S
C2194 C2192 1.378 . S
C2194 C2195 1.367 . S
C2195 C2194 1.367 . S
C2195 C2197 1.433 . S
C2196 C2192 1.350 . S
C2196 C2193 1.463 . S
C2196 N2200 1.427 . S
C2197 H2187 0.929 . S
C2197 C2195 1.433 . S
C2197 N2200 1.384 . S
C2198 H2189 0.929 . S
C2198 C2190 1.378 . S
C2198 C2193 1.350 . S
C2199 H2186 0.929 . S
C2199 C2191 1.433 . S
C2199 N2201 1.384 . S
N2200 C2196 1.427 . S
N2200 C2197 1.384 . S
N2201 C2193 1.427 . S
N2201 C2199 1.384 . S
H2202 C2208 0.930 . S
H2203 C2212 0.930 . S
H2204 C2217 0.929 . S
H2205 C2215 0.929 . S
H2206 C2210 0.929 . S
H2207 C2216 0.929 . S
C2208 H2202 0.930 . S
C2208 C2209 1.367 . S
C2208 C2216 1.378 . S
C2209 C2208 1.367 . S
C2209 C2217 1.433 . S
C2210 H2206 0.929 . S
C2210 C2212 1.378 . S
C2210 C2214 1.350 . S
C2211 C2214 1.463 . S
C2211 C2216 1.350 . S
C2211 N2219 1.427 . S
C2212 H2203 0.930 . S
C2212 C2210 1.378 . S
C2212 C2213 1.367 . S
C2213 C2212 1.367 . S
C2213 C2215 1.433 . S
C2214 C2210 1.350 . S
C2214 C2211 1.463 . S
C2214 N2218 1.427 . S
C2215 H2205 0.929 . S
C2215 C2213 1.433 . S
C2215 N2218 1.384 . S
C2216 H2207 0.929 . S
C2216 C2208 1.378 . S
C2216 C2211 1.350 . S
C2217 H2204 0.929 . S
C2217 C2209 1.433 . S
C2217 N2219 1.384 . S
N2218 C2214 1.427 . S
N2218 C2215 1.384 . S
N2219 C2211 1.427 . S
N2219 C2217 1.384 . S
H2220 C2226 0.930 . S
H2221 C2230 0.930 . S
H2222 C2235 0.929 . S
H2223 C2233 0.929 . S
H2224 C2228 0.929 . S
H2225 C2234 0.929 . S
C2226 H2220 0.930 . S
C2226 C2227 1.367 . S
C2226 C2234 1.378 . S
C2227 C2226 1.367 . S
C2227 C2235 1.433 . S
C2228 H2224 0.929 . S
C2228 C2230 1.378 . S
C2228 C2232 1.350 . S
C2229 C2232 1.463 . S
C2229 C2234 1.350 . S
C2229 N2237 1.427 . S
C2230 H2221 0.930 . S
C2230 C2228 1.378 . S
C2230 C2231 1.367 . S
C2231 C2230 1.367 . S
C2231 C2233 1.433 . S
C2232 C2228 1.350 . S
C2232 C2229 1.463 . S
C2232 N2236 1.427 . S
C2233 H2223 0.929 . S
C2233 C2231 1.433 . S
C2233 N2236 1.384 . S
C2234 H2225 0.929 . S
C2234 C2226 1.378 . S
C2234 C2229 1.350 . S
C2235 H2222 0.929 . S
C2235 C2227 1.433 . S
C2235 N2237 1.384 . S
N2236 C2232 1.427 . S
N2236 C2233 1.384 . S
N2237 C2229 1.427 . S
N2237 C2235 1.384 . S
H2238 C2244 0.930 . S
H2239 C2248 0.930 . S
H2240 C2253 0.929 . S
H2241 C2251 0.929 . S
H2242 C2246 0.929 . S
H2243 C2252 0.929 . S
C2244 H2238 0.930 . S
C2244 C2245 1.367 . S
C2244 C2252 1.378 . S
C2245 C2244 1.367 . S
C2245 C2253 1.433 . S
C2246 H2242 0.929 . S
C2246 C2248 1.378 . S
C2246 C2250 1.350 . S
C2247 C2250 1.463 . S
C2247 C2252 1.350 . S
C2247 N2255 1.427 . S
C2248 H2239 0.930 . S
C2248 C2246 1.378 . S
C2248 C2249 1.367 . S
C2249 C2248 1.367 . S
C2249 C2251 1.433 . S
C2250 C2246 1.350 . S
C2250 C2247 1.463 . S
C2250 N2254 1.427 . S
C2251 H2241 0.929 . S
C2251 C2249 1.433 . S
C2251 N2254 1.384 . S
C2252 H2243 0.929 . S
C2252 C2244 1.378 . S
C2252 C2247 1.350 . S
C2253 H2240 0.929 . S
C2253 C2245 1.433 . S
C2253 N2255 1.384 . S
N2254 C2250 1.427 . S
N2254 C2251 1.384 . S
N2255 C2247 1.427 . S
N2255 C2253 1.384 . S
H2256 C2262 0.930 . S
H2257 C2266 0.930 . S
H2258 C2271 0.929 . S
H2259 C2269 0.929 . S
H2260 C2264 0.929 . S
H2261 C2270 0.929 . S
C2262 H2256 0.930 . S
C2262 C2263 1.367 . S
C2262 C2270 1.378 . S
C2263 C2262 1.367 . S
C2263 C2271 1.433 . S
C2264 H2260 0.929 . S
C2264 C2266 1.378 . S
C2264 C2268 1.350 . S
C2265 C2268 1.463 . S
C2265 C2270 1.350 . S
C2265 N2273 1.427 . S
C2266 H2257 0.930 . S
C2266 C2264 1.378 . S
C2266 C2267 1.367 . S
C2267 C2266 1.367 . S
C2267 C2269 1.433 . S
C2268 C2264 1.350 . S
C2268 C2265 1.463 . S
C2268 N2272 1.427 . S
C2269 H2259 0.929 . S
C2269 C2267 1.433 . S
C2269 N2272 1.384 . S
C2270 H2261 0.929 . S
C2270 C2262 1.378 . S
C2270 C2265 1.350 . S
C2271 H2258 0.929 . S
C2271 C2263 1.433 . S
C2271 N2273 1.384 . S
N2272 C2268 1.427 . S
N2272 C2269 1.384 . S
N2273 C2265 1.427 . S
N2273 C2271 1.384 . S
H2274 C2280 0.930 . S
H2275 C2284 0.930 . S
H2276 C2289 0.929 . S
H2277 C2287 0.929 . S
H2278 C2282 0.929 . S
H2279 C2288 0.929 . S
C2280 H2274 0.930 . S
C2280 C2281 1.367 . S
C2280 C2288 1.378 . S
C2281 C2280 1.367 . S
C2281 C2289 1.433 . S
C2282 H2278 0.929 . S
C2282 C2284 1.378 . S
C2282 C2286 1.350 . S
C2283 C2286 1.463 . S
C2283 C2288 1.350 . S
C2283 N2291 1.427 . S
C2284 H2275 0.930 . S
C2284 C2282 1.378 . S
C2284 C2285 1.367 . S
C2285 C2284 1.367 . S
C2285 C2287 1.433 . S
C2286 C2282 1.350 . S
C2286 C2283 1.463 . S
C2286 N2290 1.427 . S
C2287 H2277 0.929 . S
C2287 C2285 1.433 . S
C2287 N2290 1.384 . S
C2288 H2279 0.929 . S
C2288 C2280 1.378 . S
C2288 C2283 1.350 . S
C2289 H2276 0.929 . S
C2289 C2281 1.433 . S
C2289 N2291 1.384 . S
N2290 C2286 1.427 . S
N2290 C2287 1.384 . S
N2291 C2283 1.427 . S
N2291 C2289 1.384 . S
H2292 C2298 0.930 . S
H2293 C2302 0.930 . S
H2294 C2307 0.929 . S
H2295 C2305 0.929 . S
H2296 C2300 0.929 . S
H2297 C2306 0.929 . S
C2298 H2292 0.930 . S
C2298 C2299 1.367 . S
C2298 C2306 1.378 . S
C2299 C2298 1.367 . S
C2299 C2307 1.433 . S
C2300 H2296 0.929 . S
C2300 C2302 1.378 . S
C2300 C2304 1.350 . S
C2301 C2304 1.463 . S
C2301 C2306 1.350 . S
C2301 N2309 1.427 . S
C2302 H2293 0.930 . S
C2302 C2300 1.378 . S
C2302 C2303 1.367 . S
C2303 C2302 1.367 . S
C2303 C2305 1.433 . S
C2304 C2300 1.350 . S
C2304 C2301 1.463 . S
C2304 N2308 1.427 . S
C2305 H2295 0.929 . S
C2305 C2303 1.433 . S
C2305 N2308 1.384 . S
C2306 H2297 0.929 . S
C2306 C2298 1.378 . S
C2306 C2301 1.350 . S
C2307 H2294 0.929 . S
C2307 C2299 1.433 . S
C2307 N2309 1.384 . S
N2308 C2304 1.427 . S
N2308 C2305 1.384 . S
N2309 C2301 1.427 . S
N2309 C2307 1.384 . S
H2310 C2316 0.930 . S
H2311 C2320 0.930 . S
H2312 C2325 0.929 . S
H2313 C2323 0.929 . S
H2314 C2318 0.929 . S
H2315 C2324 0.929 . S
C2316 H2310 0.930 . S
C2316 C2317 1.367 . S
C2316 C2324 1.378 . S
C2317 C2316 1.367 . S
C2317 C2325 1.433 . S
C2318 H2314 0.929 . S
C2318 C2320 1.378 . S
C2318 C2322 1.350 . S
C2319 C2322 1.463 . S
C2319 C2324 1.350 . S
C2319 N2327 1.427 . S
C2320 H2311 0.930 . S
C2320 C2318 1.378 . S
C2320 C2321 1.367 . S
C2321 C2320 1.367 . S
C2321 C2323 1.433 . S
C2322 C2318 1.350 . S
C2322 C2319 1.463 . S
C2322 N2326 1.427 . S
C2323 H2313 0.929 . S
C2323 C2321 1.433 . S
C2323 N2326 1.384 . S
C2324 H2315 0.929 . S
C2324 C2316 1.378 . S
C2324 C2319 1.350 . S
C2325 H2312 0.929 . S
C2325 C2317 1.433 . S
C2325 N2327 1.384 . S
N2326 C2322 1.427 . S
N2326 C2323 1.384 . S
N2327 C2319 1.427 . S
N2327 C2325 1.384 . S
H2328 C2334 0.930 . S
H2329 C2338 0.930 . S
H2330 C2343 0.929 . S
H2331 C2341 0.929 . S
H2332 C2336 0.929 . S
H2333 C2342 0.929 . S
C2334 H2328 0.930 . S
C2334 C2335 1.367 . S
C2334 C2342 1.378 . S
C2335 C2334 1.367 . S
C2335 C2343 1.433 . S
C2336 H2332 0.929 . S
C2336 C2338 1.378 . S
C2336 C2340 1.350 . S
C2337 C2340 1.463 . S
C2337 C2342 1.350 . S
C2337 N2345 1.427 . S
C2338 H2329 0.930 . S
C2338 C2336 1.378 . S
C2338 C2339 1.367 . S
C2339 C2338 1.367 . S
C2339 C2341 1.433 . S
C2340 C2336 1.350 . S
C2340 C2337 1.463 . S
C2340 N2344 1.427 . S
C2341 H2331 0.929 . S
C2341 C2339 1.433 . S
C2341 N2344 1.384 . S
C2342 H2333 0.929 . S
C2342 C2334 1.378 . S
C2342 C2337 1.350 . S
C2343 H2330 0.929 . S
C2343 C2335 1.433 . S
C2343 N2345 1.384 . S
N2344 C2340 1.427 . S
N2344 C2341 1.384 . S
N2345 C2337 1.427 . S
N2345 C2343 1.384 . S
H2346 C2352 0.930 . S
H2347 C2356 0.930 . S
H2348 C2361 0.929 . S
H2349 C2359 0.929 . S
H2350 C2354 0.929 . S
H2351 C2360 0.929 . S
C2352 H2346 0.930 . S
C2352 C2353 1.367 . S
C2352 C2360 1.378 . S
C2353 C2352 1.367 . S
C2353 C2361 1.433 . S
C2354 H2350 0.929 . S
C2354 C2356 1.378 . S
C2354 C2358 1.350 . S
C2355 C2358 1.463 . S
C2355 C2360 1.350 . S
C2355 N2363 1.427 . S
C2356 H2347 0.930 . S
C2356 C2354 1.378 . S
C2356 C2357 1.367 . S
C2357 C2356 1.367 . S
C2357 C2359 1.433 . S
C2358 C2354 1.350 . S
C2358 C2355 1.463 . S
C2358 N2362 1.427 . S
C2359 H2349 0.929 . S
C2359 C2357 1.433 . S
C2359 N2362 1.384 . S
C2360 H2351 0.929 . S
C2360 C2352 1.378 . S
C2360 C2355 1.350 . S
C2361 H2348 0.929 . S
C2361 C2353 1.433 . S
C2361 N2363 1.384 . S
N2362 C2358 1.427 . S
N2362 C2359 1.384 . S
N2363 C2355 1.427 . S
N2363 C2361 1.384 . S
H2364 C2370 0.930 . S
H2365 C2374 0.930 . S
H2366 C2379 0.929 . S
H2367 C2377 0.929 . S
H2368 C2372 0.929 . S
H2369 C2378 0.929 . S
C2370 H2364 0.930 . S
C2370 C2371 1.367 . S
C2370 C2378 1.378 . S
C2371 C2370 1.367 . S
C2371 C2379 1.433 . S
C2372 H2368 0.929 . S
C2372 C2374 1.378 . S
C2372 C2376 1.350 . S
C2373 C2376 1.463 . S
C2373 C2378 1.350 . S
C2373 N2381 1.427 . S
C2374 H2365 0.930 . S
C2374 C2372 1.378 . S
C2374 C2375 1.367 . S
C2375 C2374 1.367 . S
C2375 C2377 1.433 . S
C2376 C2372 1.350 . S
C2376 C2373 1.463 . S
C2376 N2380 1.427 . S
C2377 H2367 0.929 . S
C2377 C2375 1.433 . S
C2377 N2380 1.384 . S
C2378 H2369 0.929 . S
C2378 C2370 1.378 . S
C2378 C2373 1.350 . S
C2379 H2366 0.929 . S
C2379 C2371 1.433 . S
C2379 N2381 1.384 . S
N2380 C2376 1.427 . S
N2380 C2377 1.384 . S
N2381 C2373 1.427 . S
N2381 C2379 1.384 . S
H2382 C2388 0.930 . S
H2383 C2392 0.930 . S
H2384 C2397 0.929 . S
H2385 C2395 0.929 . S
H2386 C2390 0.929 . S
H2387 C2396 0.929 . S
C2388 H2382 0.930 . S
C2388 C2389 1.367 . S
C2388 C2396 1.378 . S
C2389 C2388 1.367 . S
C2389 C2397 1.433 . S
C2390 H2386 0.929 . S
C2390 C2392 1.378 . S
C2390 C2394 1.350 . S
C2391 C2394 1.463 . S
C2391 C2396 1.350 . S
C2391 N2399 1.427 . S
C2392 H2383 0.930 . S
C2392 C2390 1.378 . S
C2392 C2393 1.367 . S
C2393 C2392 1.367 . S
C2393 C2395 1.433 . S
C2394 C2390 1.350 . S
C2394 C2391 1.463 . S
C2394 N2398 1.427 . S
C2395 H2385 0.929 . S
C2395 C2393 1.433 . S
C2395 N2398 1.384 . S
C2396 H2387 0.929 . S
C2396 C2388 1.378 . S
C2396 C2391 1.350 . S
C2397 H2384 0.929 . S
C2397 C2389 1.433 . S
C2397 N2399 1.384 . S
N2398 C2394 1.427 . S
N2398 C2395 1.384 . S
N2399 C2391 1.427 . S
N2399 C2397 1.384 . S
H2400 C2406 0.930 . S
H2401 C2410 0.930 . S
H2402 C2415 0.929 . S
H2403 C2413 0.929 . S
H2404 C2408 0.929 . S
H2405 C2414 0.929 . S
C2406 H2400 0.930 . S
C2406 C2407 1.367 . S
C2406 C2414 1.378 . S
C2407 C2406 1.367 . S
C2407 C2415 1.433 . S
C2408 H2404 0.929 . S
C2408 C2410 1.378 . S
C2408 C2412 1.350 . S
C2409 C2412 1.463 . S
C2409 C2414 1.350 . S
C2409 N2417 1.427 . S
C2410 H2401 0.930 . S
C2410 C2408 1.378 . S
C2410 C2411 1.367 . S
C2411 C2410 1.367 . S
C2411 C2413 1.433 . S
C2412 C2408 1.350 . S
C2412 C2409 1.463 . S
C2412 N2416 1.427 . S
C2413 H2403 0.929 . S
C2413 C2411 1.433 . S
C2413 N2416 1.384 . S
C2414 H2405 0.929 . S
C2414 C2406 1.378 . S
C2414 C2409 1.350 . S
C2415 H2402 0.929 . S
C2415 C2407 1.433 . S
C2415 N2417 1.384 . S
N2416 C2412 1.427 . S
N2416 C2413 1.384 . S
N2417 C2409 1.427 . S
N2417 C2415 1.384 . S
H2418 C2424 0.930 . S
H2419 C2428 0.930 . S
H2420 C2433 0.929 . S
H2421 C2431 0.929 . S
H2422 C2426 0.929 . S
H2423 C2432 0.929 . S
C2424 H2418 0.930 . S
C2424 C2425 1.367 . S
C2424 C2432 1.378 . S
C2425 C2424 1.367 . S
C2425 C2433 1.433 . S
C2426 H2422 0.929 . S
C2426 C2428 1.378 . S
C2426 C2430 1.350 . S
C2427 C2430 1.463 . S
C2427 C2432 1.350 . S
C2427 N2435 1.427 . S
C2428 H2419 0.930 . S
C2428 C2426 1.378 . S
C2428 C2429 1.367 . S
C2429 C2428 1.367 . S
C2429 C2431 1.433 . S
C2430 C2426 1.350 . S
C2430 C2427 1.463 . S
C2430 N2434 1.427 . S
C2431 H2421 0.929 . S
C2431 C2429 1.433 . S
C2431 N2434 1.384 . S
C2432 H2423 0.929 . S
C2432 C2424 1.378 . S
C2432 C2427 1.350 . S
C2433 H2420 0.929 . S
C2433 C2425 1.433 . S
C2433 N2435 1.384 . S
N2434 C2430 1.427 . S
N2434 C2431 1.384 . S
N2435 C2427 1.427 . S
N2435 C2433 1.384 . S
H2436 C2442 0.930 . S
H2437 C2446 0.930 . S
H2438 C2451 0.929 . S
H2439 C2449 0.929 . S
H2440 C2444 0.929 . S
H2441 C2450 0.929 . S
C2442 H2436 0.930 . S
C2442 C2443 1.367 . S
C2442 C2450 1.378 . S
C2443 C2442 1.367 . S
C2443 C2451 1.433 . S
C2444 H2440 0.929 . S
C2444 C2446 1.378 . S
C2444 C2448 1.350 . S
C2445 C2448 1.463 . S
C2445 C2450 1.350 . S
C2445 N2453 1.427 . S
C2446 H2437 0.930 . S
C2446 C2444 1.378 . S
C2446 C2447 1.367 . S
C2447 C2446 1.367 . S
C2447 C2449 1.433 . S
C2448 C2444 1.350 . S
C2448 C2445 1.463 . S
C2448 N2452 1.427 . S
C2449 H2439 0.929 . S
C2449 C2447 1.433 . S
C2449 N2452 1.384 . S
C2450 H2441 0.929 . S
C2450 C2442 1.378 . S
C2450 C2445 1.350 . S
C2451 H2438 0.929 . S
C2451 C2443 1.433 . S
C2451 N2453 1.384 . S
N2452 C2448 1.427 . S
N2452 C2449 1.384 . S
N2453 C2445 1.427 . S
N2453 C2451 1.384 . S
H2454 C2460 0.930 . S
H2455 C2464 0.930 . S
H2456 C2469 0.929 . S
H2457 C2467 0.929 . S
H2458 C2462 0.929 . S
H2459 C2468 0.929 . S
C2460 H2454 0.930 . S
C2460 C2461 1.367 . S
C2460 C2468 1.378 . S
C2461 C2460 1.367 . S
C2461 C2469 1.433 . S
C2462 H2458 0.929 . S
C2462 C2464 1.378 . S
C2462 C2466 1.350 . S
C2463 C2466 1.463 . S
C2463 C2468 1.350 . S
C2463 N2471 1.427 . S
C2464 H2455 0.930 . S
C2464 C2462 1.378 . S
C2464 C2465 1.367 . S
C2465 C2464 1.367 . S
C2465 C2467 1.433 . S
C2466 C2462 1.350 . S
C2466 C2463 1.463 . S
C2466 N2470 1.427 . S
C2467 H2457 0.929 . S
C2467 C2465 1.433 . S
C2467 N2470 1.384 . S
C2468 H2459 0.929 . S
C2468 C2460 1.378 . S
C2468 C2463 1.350 . S
C2469 H2456 0.929 . S
C2469 C2461 1.433 . S
C2469 N2471 1.384 . S
N2470 C2466 1.427 . S
N2470 C2467 1.384 . S
N2471 C2463 1.427 . S
N2471 C2469 1.384 . S
H2472 C2478 0.930 . S
H2473 C2482 0.930 . S
H2474 C2487 0.929 . S
H2475 C2485 0.929 . S
H2476 C2480 0.929 . S
H2477 C2486 0.929 . S
C2478 H2472 0.930 . S
C2478 C2479 1.367 . S
C2478 C2486 1.378 . S
C2479 C2478 1.367 . S
C2479 C2487 1.433 . S
C2480 H2476 0.929 . S
C2480 C2482 1.378 . S
C2480 C2484 1.350 . S
C2481 C2484 1.463 . S
C2481 C2486 1.350 . S
C2481 N2489 1.427 . S
C2482 H2473 0.930 . S
C2482 C2480 1.378 . S
C2482 C2483 1.367 . S
C2483 C2482 1.367 . S
C2483 C2485 1.433 . S
C2484 C2480 1.350 . S
C2484 C2481 1.463 . S
C2484 N2488 1.427 . S
C2485 H2475 0.929 . S
C2485 C2483 1.433 . S
C2485 N2488 1.384 . S
C2486 H2477 0.929 . S
C2486 C2478 1.378 . S
C2486 C2481 1.350 . S
C2487 H2474 0.929 . S
C2487 C2479 1.433 . S
C2487 N2489 1.384 . S
N2488 C2484 1.427 . S
N2488 C2485 1.384 . S
N2489 C2481 1.427 . S
N2489 C2487 1.384 . S
H2490 C2496 0.930 . S
H2491 C2500 0.930 . S
H2492 C2505 0.929 . S
H2493 C2503 0.929 . S
H2494 C2498 0.929 . S
H2495 C2504 0.929 . S
C2496 H2490 0.930 . S
C2496 C2497 1.367 . S
C2496 C2504 1.378 . S
C2497 C2496 1.367 . S
C2497 C2505 1.433 . S
C2498 H2494 0.929 . S
C2498 C2500 1.378 . S
C2498 C2502 1.350 . S
C2499 C2502 1.463 . S
C2499 C2504 1.350 . S
C2499 N2507 1.427 . S
C2500 H2491 0.930 . S
C2500 C2498 1.378 . S
C2500 C2501 1.367 . S
C2501 C2500 1.367 . S
C2501 C2503 1.433 . S
C2502 C2498 1.350 . S
C2502 C2499 1.463 . S
C2502 N2506 1.427 . S
C2503 H2493 0.929 . S
C2503 C2501 1.433 . S
C2503 N2506 1.384 . S
C2504 H2495 0.929 . S
C2504 C2496 1.378 . S
C2504 C2499 1.350 . S
C2505 H2492 0.929 . S
C2505 C2497 1.433 . S
C2505 N2507 1.384 . S
N2506 C2502 1.427 . S
N2506 C2503 1.384 . S
N2507 C2499 1.427 . S
N2507 C2505 1.384 . S
H2508 C2514 0.930 . S
H2509 C2518 0.930 . S
H2510 C2523 0.929 . S
H2511 C2521 0.929 . S
H2512 C2516 0.929 . S
H2513 C2522 0.929 . S
C2514 H2508 0.930 . S
C2514 C2515 1.367 . S
C2514 C2522 1.378 . S
C2515 C2514 1.367 . S
C2515 C2523 1.433 . S
C2516 H2512 0.929 . S
C2516 C2518 1.378 . S
C2516 C2520 1.350 . S
C2517 C2520 1.463 . S
C2517 C2522 1.350 . S
C2517 N2525 1.427 . S
C2518 H2509 0.930 . S
C2518 C2516 1.378 . S
C2518 C2519 1.367 . S
C2519 C2518 1.367 . S
C2519 C2521 1.433 . S
C2520 C2516 1.350 . S
C2520 C2517 1.463 . S
C2520 N2524 1.427 . S
C2521 H2511 0.929 . S
C2521 C2519 1.433 . S
C2521 N2524 1.384 . S
C2522 H2513 0.929 . S
C2522 C2514 1.378 . S
C2522 C2517 1.350 . S
C2523 H2510 0.929 . S
C2523 C2515 1.433 . S
C2523 N2525 1.384 . S
N2524 C2520 1.427 . S
N2524 C2521 1.384 . S
N2525 C2517 1.427 . S
N2525 C2523 1.384 . S
H2526 C2532 0.930 . S
H2527 C2536 0.930 . S
H2528 C2541 0.929 . S
H2529 C2539 0.929 . S
H2530 C2534 0.929 . S
H2531 C2540 0.929 . S
C2532 H2526 0.930 . S
C2532 C2533 1.367 . S
C2532 C2540 1.378 . S
C2533 C2532 1.367 . S
C2533 C2541 1.433 . S
C2534 H2530 0.929 . S
C2534 C2536 1.378 . S
C2534 C2538 1.350 . S
C2535 C2538 1.463 . S
C2535 C2540 1.350 . S
C2535 N2543 1.427 . S
C2536 H2527 0.930 . S
C2536 C2534 1.378 . S
C2536 C2537 1.367 . S
C2537 C2536 1.367 . S
C2537 C2539 1.433 . S
C2538 C2534 1.350 . S
C2538 C2535 1.463 . S
C2538 N2542 1.427 . S
C2539 H2529 0.929 . S
C2539 C2537 1.433 . S
C2539 N2542 1.384 . S
C2540 H2531 0.929 . S
C2540 C2532 1.378 . S
C2540 C2535 1.350 . S
C2541 H2528 0.929 . S
C2541 C2533 1.433 . S
C2541 N2543 1.384 . S
N2542 C2538 1.427 . S
N2542 C2539 1.384 . S
N2543 C2535 1.427 . S
N2543 C2541 1.384 . S
H2544 C2550 0.930 . S
H2545 C2554 0.930 . S
H2546 C2559 0.929 . S
H2547 C2557 0.929 . S
H2548 C2552 0.929 . S
H2549 C2558 0.929 . S
C2550 H2544 0.930 . S
C2550 C2551 1.367 . S
C2550 C2558 1.378 . S
C2551 C2550 1.367 . S
C2551 C2559 1.433 . S
C2552 H2548 0.929 . S
C2552 C2554 1.378 . S
C2552 C2556 1.350 . S
C2553 C2556 1.463 . S
C2553 C2558 1.350 . S
C2553 N2561 1.427 . S
C2554 H2545 0.930 . S
C2554 C2552 1.378 . S
C2554 C2555 1.367 . S
C2555 C2554 1.367 . S
C2555 C2557 1.433 . S
C2556 C2552 1.350 . S
C2556 C2553 1.463 . S
C2556 N2560 1.427 . S
C2557 H2547 0.929 . S
C2557 C2555 1.433 . S
C2557 N2560 1.384 . S
C2558 H2549 0.929 . S
C2558 C2550 1.378 . S
C2558 C2553 1.350 . S
C2559 H2546 0.929 . S
C2559 C2551 1.433 . S
C2559 N2561 1.384 . S
N2560 C2556 1.427 . S
N2560 C2557 1.384 . S
N2561 C2553 1.427 . S
N2561 C2559 1.384 . S
H2562 C2568 0.930 . S
H2563 C2572 0.930 . S
H2564 C2577 0.929 . S
H2565 C2575 0.929 . S
H2566 C2570 0.929 . S
H2567 C2576 0.929 . S
C2568 H2562 0.930 . S
C2568 C2569 1.367 . S
C2568 C2576 1.378 . S
C2569 C2568 1.367 . S
C2569 C2577 1.433 . S
C2570 H2566 0.929 . S
C2570 C2572 1.378 . S
C2570 C2574 1.350 . S
C2571 C2574 1.463 . S
C2571 C2576 1.350 . S
C2571 N2579 1.427 . S
C2572 H2563 0.930 . S
C2572 C2570 1.378 . S
C2572 C2573 1.367 . S
C2573 C2572 1.367 . S
C2573 C2575 1.433 . S
C2574 C2570 1.350 . S
C2574 C2571 1.463 . S
C2574 N2578 1.427 . S
C2575 H2565 0.929 . S
C2575 C2573 1.433 . S
C2575 N2578 1.384 . S
C2576 H2567 0.929 . S
C2576 C2568 1.378 . S
C2576 C2571 1.350 . S
C2577 H2564 0.929 . S
C2577 C2569 1.433 . S
C2577 N2579 1.384 . S
N2578 C2574 1.427 . S
N2578 C2575 1.384 . S
N2579 C2571 1.427 . S
N2579 C2577 1.384 . S
H2580 C2586 0.930 . S
H2581 C2590 0.930 . S
H2582 C2595 0.929 . S
H2583 C2593 0.929 . S
H2584 C2588 0.929 . S
H2585 C2594 0.929 . S
C2586 H2580 0.930 . S
C2586 C2587 1.367 . S
C2586 C2594 1.378 . S
C2587 C2586 1.367 . S
C2587 C2595 1.433 . S
C2588 H2584 0.929 . S
C2588 C2590 1.378 . S
C2588 C2592 1.350 . S
C2589 C2592 1.463 . S
C2589 C2594 1.350 . S
C2589 N2597 1.427 . S
C2590 H2581 0.930 . S
C2590 C2588 1.378 . S
C2590 C2591 1.367 . S
C2591 C2590 1.367 . S
C2591 C2593 1.433 . S
C2592 C2588 1.350 . S
C2592 C2589 1.463 . S
C2592 N2596 1.427 . S
C2593 H2583 0.929 . S
C2593 C2591 1.433 . S
C2593 N2596 1.384 . S
C2594 H2585 0.929 . S
C2594 C2586 1.378 . S
C2594 C2589 1.350 . S
C2595 H2582 0.929 . S
C2595 C2587 1.433 . S
C2595 N2597 1.384 . S
N2596 C2592 1.427 . S
N2596 C2593 1.384 . S
N2597 C2589 1.427 . S
N2597 C2595 1.384 . S
H2598 C2604 0.930 . S
H2599 C2608 0.930 . S
H2600 C2613 0.929 . S
H2601 C2611 0.929 . S
H2602 C2606 0.929 . S
H2603 C2612 0.929 . S
C2604 H2598 0.930 . S
C2604 C2605 1.367 . S
C2604 C2612 1.378 . S
C2605 C2604 1.367 . S
C2605 C2613 1.433 . S
C2606 H2602 0.929 . S
C2606 C2608 1.378 . S
C2606 C2610 1.350 . S
C2607 C2610 1.463 . S
C2607 C2612 1.350 . S
C2607 N2615 1.427 . S
C2608 H2599 0.930 . S
C2608 C2606 1.378 . S
C2608 C2609 1.367 . S
C2609 C2608 1.367 . S
C2609 C2611 1.433 . S
C2610 C2606 1.350 . S
C2610 C2607 1.463 . S
C2610 N2614 1.427 . S
C2611 H2601 0.929 . S
C2611 C2609 1.433 . S
C2611 N2614 1.384 . S
C2612 H2603 0.929 . S
C2612 C2604 1.378 . S
C2612 C2607 1.350 . S
C2613 H2600 0.929 . S
C2613 C2605 1.433 . S
C2613 N2615 1.384 . S
N2614 C2610 1.427 . S
N2614 C2611 1.384 . S
N2615 C2607 1.427 . S
N2615 C2613 1.384 . S
H2616 C2622 0.930 . S
H2617 C2626 0.930 . S
H2618 C2631 0.929 . S
H2619 C2629 0.929 . S
H2620 C2624 0.929 . S
H2621 C2630 0.929 . S
C2622 H2616 0.930 . S
C2622 C2623 1.367 . S
C2622 C2630 1.378 . S
C2623 C2622 1.367 . S
C2623 C2631 1.433 . S
C2624 H2620 0.929 . S
C2624 C2626 1.378 . S
C2624 C2628 1.350 . S
C2625 C2628 1.463 . S
C2625 C2630 1.350 . S
C2625 N2633 1.427 . S
C2626 H2617 0.930 . S
C2626 C2624 1.378 . S
C2626 C2627 1.367 . S
C2627 C2626 1.367 . S
C2627 C2629 1.433 . S
C2628 C2624 1.350 . S
C2628 C2625 1.463 . S
C2628 N2632 1.427 . S
C2629 H2619 0.929 . S
C2629 C2627 1.433 . S
C2629 N2632 1.384 . S
C2630 H2621 0.929 . S
C2630 C2622 1.378 . S
C2630 C2625 1.350 . S
C2631 H2618 0.929 . S
C2631 C2623 1.433 . S
C2631 N2633 1.384 . S
N2632 C2628 1.427 . S
N2632 C2629 1.384 . S
N2633 C2625 1.427 . S
N2633 C2631 1.384 . S
H2634 C2640 0.930 . S
H2635 C2644 0.930 . S
H2636 C2649 0.929 . S
H2637 C2647 0.929 . S
H2638 C2642 0.929 . S
H2639 C2648 0.929 . S
C2640 H2634 0.930 . S
C2640 C2641 1.367 . S
C2640 C2648 1.378 . S
C2641 C2640 1.367 . S
C2641 C2649 1.433 . S
C2642 H2638 0.929 . S
C2642 C2644 1.378 . S
C2642 C2646 1.350 . S
C2643 C2646 1.463 . S
C2643 C2648 1.350 . S
C2643 N2651 1.427 . S
C2644 H2635 0.930 . S
C2644 C2642 1.378 . S
C2644 C2645 1.367 . S
C2645 C2644 1.367 . S
C2645 C2647 1.433 . S
C2646 C2642 1.350 . S
C2646 C2643 1.463 . S
C2646 N2650 1.427 . S
C2647 H2637 0.929 . S
C2647 C2645 1.433 . S
C2647 N2650 1.384 . S
C2648 H2639 0.929 . S
C2648 C2640 1.378 . S
C2648 C2643 1.350 . S
C2649 H2636 0.929 . S
C2649 C2641 1.433 . S
C2649 N2651 1.384 . S
N2650 C2646 1.427 . S
N2650 C2647 1.384 . S
N2651 C2643 1.427 . S
N2651 C2649 1.384 . S
H2652 C2658 0.930 . S
H2653 C2662 0.930 . S
H2654 C2667 0.929 . S
H2655 C2665 0.929 . S
H2656 C2660 0.929 . S
H2657 C2666 0.929 . S
C2658 H2652 0.930 . S
C2658 C2659 1.367 . S
C2658 C2666 1.378 . S
C2659 C2658 1.367 . S
C2659 C2667 1.433 . S
C2660 H2656 0.929 . S
C2660 C2662 1.378 . S
C2660 C2664 1.350 . S
C2661 C2664 1.463 . S
C2661 C2666 1.350 . S
C2661 N2669 1.427 . S
C2662 H2653 0.930 . S
C2662 C2660 1.378 . S
C2662 C2663 1.367 . S
C2663 C2662 1.367 . S
C2663 C2665 1.433 . S
C2664 C2660 1.350 . S
C2664 C2661 1.463 . S
C2664 N2668 1.427 . S
C2665 H2655 0.929 . S
C2665 C2663 1.433 . S
C2665 N2668 1.384 . S
C2666 H2657 0.929 . S
C2666 C2658 1.378 . S
C2666 C2661 1.350 . S
C2667 H2654 0.929 . S
C2667 C2659 1.433 . S
C2667 N2669 1.384 . S
N2668 C2664 1.427 . S
N2668 C2665 1.384 . S
N2669 C2661 1.427 . S
N2669 C2667 1.384 . S
H2670 C2676 0.930 . S
H2671 C2680 0.930 . S
H2672 C2685 0.929 . S
H2673 C2683 0.929 . S
H2674 C2678 0.929 . S
H2675 C2684 0.929 . S
C2676 H2670 0.930 . S
C2676 C2677 1.367 . S
C2676 C2684 1.378 . S
C2677 C2676 1.367 . S
C2677 C2685 1.433 . S
C2678 H2674 0.929 . S
C2678 C2680 1.378 . S
C2678 C2682 1.350 . S
C2679 C2682 1.463 . S
C2679 C2684 1.350 . S
C2679 N2687 1.427 . S
C2680 H2671 0.930 . S
C2680 C2678 1.378 . S
C2680 C2681 1.367 . S
C2681 C2680 1.367 . S
C2681 C2683 1.433 . S
C2682 C2678 1.350 . S
C2682 C2679 1.463 . S
C2682 N2686 1.427 . S
C2683 H2673 0.929 . S
C2683 C2681 1.433 . S
C2683 N2686 1.384 . S
C2684 H2675 0.929 . S
C2684 C2676 1.378 . S
C2684 C2679 1.350 . S
C2685 H2672 0.929 . S
C2685 C2677 1.433 . S
C2685 N2687 1.384 . S
N2686 C2682 1.427 . S
N2686 C2683 1.384 . S
N2687 C2679 1.427 . S
N2687 C2685 1.384 . S
H2688 C2694 0.930 . S
H2689 C2698 0.930 . S
H2690 C2703 0.929 . S
H2691 C2701 0.929 . S
H2692 C2696 0.929 . S
H2693 C2702 0.929 . S
C2694 H2688 0.930 . S
C2694 C2695 1.367 . S
C2694 C2702 1.378 . S
C2695 C2694 1.367 . S
C2695 C2703 1.433 . S
C2696 H2692 0.929 . S
C2696 C2698 1.378 . S
C2696 C2700 1.350 . S
C2697 C2700 1.463 . S
C2697 C2702 1.350 . S
C2697 N2705 1.427 . S
C2698 H2689 0.930 . S
C2698 C2696 1.378 . S
C2698 C2699 1.367 . S
C2699 C2698 1.367 . S
C2699 C2701 1.433 . S
C2700 C2696 1.350 . S
C2700 C2697 1.463 . S
C2700 N2704 1.427 . S
C2701 H2691 0.929 . S
C2701 C2699 1.433 . S
C2701 N2704 1.384 . S
C2702 H2693 0.929 . S
C2702 C2694 1.378 . S
C2702 C2697 1.350 . S
C2703 H2690 0.929 . S
C2703 C2695 1.433 . S
C2703 N2705 1.384 . S
N2704 C2700 1.427 . S
N2704 C2701 1.384 . S
N2705 C2697 1.427 . S
N2705 C2703 1.384 . S
H2706 C2712 0.930 . S
H2707 C2716 0.930 . S
H2708 C2721 0.929 . S
H2709 C2719 0.929 . S
H2710 C2714 0.929 . S
H2711 C2720 0.929 . S
C2712 H2706 0.930 . S
C2712 C2713 1.367 . S
C2712 C2720 1.378 . S
C2713 C2712 1.367 . S
C2713 C2721 1.433 . S
C2714 H2710 0.929 . S
C2714 C2716 1.378 . S
C2714 C2718 1.350 . S
C2715 C2718 1.463 . S
C2715 C2720 1.350 . S
C2715 N2723 1.427 . S
C2716 H2707 0.930 . S
C2716 C2714 1.378 . S
C2716 C2717 1.367 . S
C2717 C2716 1.367 . S
C2717 C2719 1.433 . S
C2718 C2714 1.350 . S
C2718 C2715 1.463 . S
C2718 N2722 1.427 . S
C2719 H2709 0.929 . S
C2719 C2717 1.433 . S
C2719 N2722 1.384 . S
C2720 H2711 0.929 . S
C2720 C2712 1.378 . S
C2720 C2715 1.350 . S
C2721 H2708 0.929 . S
C2721 C2713 1.433 . S
C2721 N2723 1.384 . S
N2722 C2718 1.427 . S
N2722 C2719 1.384 . S
N2723 C2715 1.427 . S
N2723 C2721 1.384 . S
H2724 C2730 0.930 . S
H2725 C2734 0.930 . S
H2726 C2739 0.929 . S
H2727 C2737 0.929 . S
H2728 C2732 0.929 . S
H2729 C2738 0.929 . S
C2730 H2724 0.930 . S
C2730 C2731 1.367 . S
C2730 C2738 1.378 . S
C2731 C2730 1.367 . S
C2731 C2739 1.433 . S
C2732 H2728 0.929 . S
C2732 C2734 1.378 . S
C2732 C2736 1.350 . S
C2733 C2736 1.463 . S
C2733 C2738 1.350 . S
C2733 N2741 1.427 . S
C2734 H2725 0.930 . S
C2734 C2732 1.378 . S
C2734 C2735 1.367 . S
C2735 C2734 1.367 . S
C2735 C2737 1.433 . S
C2736 C2732 1.350 . S
C2736 C2733 1.463 . S
C2736 N2740 1.427 . S
C2737 H2727 0.929 . S
C2737 C2735 1.433 . S
C2737 N2740 1.384 . S
C2738 H2729 0.929 . S
C2738 C2730 1.378 . S
C2738 C2733 1.350 . S
C2739 H2726 0.929 . S
C2739 C2731 1.433 . S
C2739 N2741 1.384 . S
N2740 C2736 1.427 . S
N2740 C2737 1.384 . S
N2741 C2733 1.427 . S
N2741 C2739 1.384 . S
H2742 C2748 0.930 . S
H2743 C2752 0.930 . S
H2744 C2757 0.929 . S
H2745 C2755 0.929 . S
H2746 C2750 0.929 . S
H2747 C2756 0.929 . S
C2748 H2742 0.930 . S
C2748 C2749 1.367 . S
C2748 C2756 1.378 . S
C2749 C2748 1.367 . S
C2749 C2757 1.433 . S
C2750 H2746 0.929 . S
C2750 C2752 1.378 . S
C2750 C2754 1.350 . S
C2751 C2754 1.463 . S
C2751 C2756 1.350 . S
C2751 N2759 1.427 . S
C2752 H2743 0.930 . S
C2752 C2750 1.378 . S
C2752 C2753 1.367 . S
C2753 C2752 1.367 . S
C2753 C2755 1.433 . S
C2754 C2750 1.350 . S
C2754 C2751 1.463 . S
C2754 N2758 1.427 . S
C2755 H2745 0.929 . S
C2755 C2753 1.433 . S
C2755 N2758 1.384 . S
C2756 H2747 0.929 . S
C2756 C2748 1.378 . S
C2756 C2751 1.350 . S
C2757 H2744 0.929 . S
C2757 C2749 1.433 . S
C2757 N2759 1.384 . S
N2758 C2754 1.427 . S
N2758 C2755 1.384 . S
N2759 C2751 1.427 . S
N2759 C2757 1.384 . S
H2760 C2766 0.930 . S
H2761 C2770 0.930 . S
H2762 C2775 0.929 . S
H2763 C2773 0.929 . S
H2764 C2768 0.929 . S
H2765 C2774 0.929 . S
C2766 H2760 0.930 . S
C2766 C2767 1.367 . S
C2766 C2774 1.378 . S
C2767 C2766 1.367 . S
C2767 C2775 1.433 . S
C2768 H2764 0.929 . S
C2768 C2770 1.378 . S
C2768 C2772 1.350 . S
C2769 C2772 1.463 . S
C2769 C2774 1.350 . S
C2769 N2777 1.427 . S
C2770 H2761 0.930 . S
C2770 C2768 1.378 . S
C2770 C2771 1.367 . S
C2771 C2770 1.367 . S
C2771 C2773 1.433 . S
C2772 C2768 1.350 . S
C2772 C2769 1.463 . S
C2772 N2776 1.427 . S
C2773 H2763 0.929 . S
C2773 C2771 1.433 . S
C2773 N2776 1.384 . S
C2774 H2765 0.929 . S
C2774 C2766 1.378 . S
C2774 C2769 1.350 . S
C2775 H2762 0.929 . S
C2775 C2767 1.433 . S
C2775 N2777 1.384 . S
N2776 C2772 1.427 . S
N2776 C2773 1.384 . S
N2777 C2769 1.427 . S
N2777 C2775 1.384 . S
H2778 C2784 0.930 . S
H2779 C2788 0.930 . S
H2780 C2793 0.929 . S
H2781 C2791 0.929 . S
H2782 C2786 0.929 . S
H2783 C2792 0.929 . S
C2784 H2778 0.930 . S
C2784 C2785 1.367 . S
C2784 C2792 1.378 . S
C2785 C2784 1.367 . S
C2785 C2793 1.433 . S
C2786 H2782 0.929 . S
C2786 C2788 1.378 . S
C2786 C2790 1.350 . S
C2787 C2790 1.463 . S
C2787 C2792 1.350 . S
C2787 N2795 1.427 . S
C2788 H2779 0.930 . S
C2788 C2786 1.378 . S
C2788 C2789 1.367 . S
C2789 C2788 1.367 . S
C2789 C2791 1.433 . S
C2790 C2786 1.350 . S
C2790 C2787 1.463 . S
C2790 N2794 1.427 . S
C2791 H2781 0.929 . S
C2791 C2789 1.433 . S
C2791 N2794 1.384 . S
C2792 H2783 0.929 . S
C2792 C2784 1.378 . S
C2792 C2787 1.350 . S
C2793 H2780 0.929 . S
C2793 C2785 1.433 . S
C2793 N2795 1.384 . S
N2794 C2790 1.427 . S
N2794 C2791 1.384 . S
N2795 C2787 1.427 . S
N2795 C2793 1.384 . S
H2796 C2802 0.930 . S
H2797 C2806 0.930 . S
H2798 C2811 0.929 . S
H2799 C2809 0.929 . S
H2800 C2804 0.929 . S
H2801 C2810 0.929 . S
C2802 H2796 0.930 . S
C2802 C2803 1.367 . S
C2802 C2810 1.378 . S
C2803 C2802 1.367 . S
C2803 C2811 1.433 . S
C2804 H2800 0.929 . S
C2804 C2806 1.378 . S
C2804 C2808 1.350 . S
C2805 C2808 1.463 . S
C2805 C2810 1.350 . S
C2805 N2813 1.427 . S
C2806 H2797 0.930 . S
C2806 C2804 1.378 . S
C2806 C2807 1.367 . S
C2807 C2806 1.367 . S
C2807 C2809 1.433 . S
C2808 C2804 1.350 . S
C2808 C2805 1.463 . S
C2808 N2812 1.427 . S
C2809 H2799 0.929 . S
C2809 C2807 1.433 . S
C2809 N2812 1.384 . S
C2810 H2801 0.929 . S
C2810 C2802 1.378 . S
C2810 C2805 1.350 . S
C2811 H2798 0.929 . S
C2811 C2803 1.433 . S
C2811 N2813 1.384 . S
N2812 C2808 1.427 . S
N2812 C2809 1.384 . S
N2813 C2805 1.427 . S
N2813 C2811 1.384 . S
H2814 C2820 0.930 . S
H2815 C2824 0.930 . S
H2816 C2829 0.929 . S
H2817 C2827 0.929 . S
H2818 C2822 0.929 . S
H2819 C2828 0.929 . S
C2820 H2814 0.930 . S
C2820 C2821 1.367 . S
C2820 C2828 1.378 1_545 S
C2821 C2820 1.367 . S
C2821 C2829 1.433 1_545 S
C2822 H2818 0.929 . S
C2822 C2824 1.378 . S
C2822 C2826 1.350 . S
C2823 C2826 1.463 . S
C2823 C2828 1.350 . S
C2823 N2831 1.427 . S
C2824 H2815 0.930 . S
C2824 C2822 1.378 . S
C2824 C2825 1.367 . S
C2825 C2824 1.367 . S
C2825 C2827 1.433 . S
C2826 C2822 1.350 . S
C2826 C2823 1.463 . S
C2826 N2830 1.427 . S
C2827 H2817 0.929 . S
C2827 C2825 1.433 . S
C2827 N2830 1.384 . S
C2828 H2819 0.929 . S
C2828 C2820 1.378 1_565 S
C2828 C2823 1.350 . S
C2829 H2816 0.929 . S
C2829 C2821 1.433 1_565 S
C2829 N2831 1.384 . S
N2830 C2826 1.427 . S
N2830 C2827 1.384 . S
N2831 C2823 1.427 . S
N2831 C2829 1.384 . S
H2832 C2838 0.930 . S
H2833 C2842 0.930 . S
H2834 C2847 0.929 . S
H2835 C2845 0.929 . S
H2836 C2840 0.929 . S
H2837 C2846 0.929 . S
C2838 H2832 0.930 . S
C2838 C2839 1.367 . S
C2838 C2846 1.378 . S
C2839 C2838 1.367 . S
C2839 C2847 1.433 . S
C2840 H2836 0.929 . S
C2840 C2842 1.378 . S
C2840 C2844 1.350 . S
C2841 C2844 1.463 . S
C2841 C2846 1.350 . S
C2841 N2849 1.427 . S
C2842 H2833 0.930 . S
C2842 C2840 1.378 . S
C2842 C2843 1.367 . S
C2843 C2842 1.367 . S
C2843 C2845 1.433 . S
C2844 C2840 1.350 . S
C2844 C2841 1.463 . S
C2844 N2848 1.427 . S
C2845 H2835 0.929 . S
C2845 C2843 1.433 . S
C2845 N2848 1.384 . S
C2846 H2837 0.929 . S
C2846 C2838 1.378 . S
C2846 C2841 1.350 . S
C2847 H2834 0.929 . S
C2847 C2839 1.433 . S
C2847 N2849 1.384 . S
N2848 C2844 1.427 . S
N2848 C2845 1.384 . S
N2849 C2841 1.427 . S
N2849 C2847 1.384 . S
H2850 C2856 0.930 . S
H2851 C2860 0.930 . S
H2852 C2865 0.929 . S
H2853 C2863 0.929 . S
H2854 C2858 0.929 . S
H2855 C2864 0.929 . S
C2856 H2850 0.930 . S
C2856 C2857 1.367 . S
C2856 C2864 1.378 . S
C2857 C2856 1.367 . S
C2857 C2865 1.433 . S
C2858 H2854 0.929 . S
C2858 C2860 1.378 . S
C2858 C2862 1.350 . S
C2859 C2862 1.463 . S
C2859 C2864 1.350 . S
C2859 N2867 1.427 . S
C2860 H2851 0.930 . S
C2860 C2858 1.378 . S
C2860 C2861 1.367 . S
C2861 C2860 1.367 . S
C2861 C2863 1.433 . S
C2862 C2858 1.350 . S
C2862 C2859 1.463 . S
C2862 N2866 1.427 . S
C2863 H2853 0.929 . S
C2863 C2861 1.433 . S
C2863 N2866 1.384 . S
C2864 H2855 0.929 . S
C2864 C2856 1.378 . S
C2864 C2859 1.350 . S
C2865 H2852 0.929 . S
C2865 C2857 1.433 . S
C2865 N2867 1.384 . S
N2866 C2862 1.427 . S
N2866 C2863 1.384 . S
N2867 C2859 1.427 . S
N2867 C2865 1.384 . S
H2868 C2874 0.930 . S
H2869 C2878 0.930 . S
H2870 C2883 0.929 . S
H2871 C2881 0.929 . S
H2872 C2876 0.929 . S
H2873 C2882 0.929 . S
C2874 H2868 0.930 . S
C2874 C2875 1.367 . S
C2874 C2882 1.378 . S
C2875 C2874 1.367 . S
C2875 C2883 1.433 . S
C2876 H2872 0.929 . S
C2876 C2878 1.378 . S
C2876 C2880 1.350 . S
C2877 C2880 1.463 . S
C2877 C2882 1.350 . S
C2877 N2885 1.427 . S
C2878 H2869 0.930 . S
C2878 C2876 1.378 . S
C2878 C2879 1.367 . S
C2879 C2878 1.367 . S
C2879 C2881 1.433 . S
C2880 C2876 1.350 . S
C2880 C2877 1.463 . S
C2880 N2884 1.427 . S
C2881 H2871 0.929 . S
C2881 C2879 1.433 . S
C2881 N2884 1.384 . S
C2882 H2873 0.929 . S
C2882 C2874 1.378 . S
C2882 C2877 1.350 . S
C2883 H2870 0.929 . S
C2883 C2875 1.433 . S
C2883 N2885 1.384 . S
N2884 C2880 1.427 . S
N2884 C2881 1.384 . S
N2885 C2877 1.427 . S
N2885 C2883 1.384 . S
H2886 C2892 0.930 . S
H2887 C2896 0.930 . S
H2888 C2901 0.929 . S
H2889 C2899 0.929 . S
H2890 C2894 0.929 . S
H2891 C2900 0.929 . S
C2892 H2886 0.930 . S
C2892 C2893 1.367 . S
C2892 C2900 1.378 . S
C2893 C2892 1.367 . S
C2893 C2901 1.433 . S
C2894 H2890 0.929 . S
C2894 C2896 1.378 . S
C2894 C2898 1.350 . S
C2895 C2898 1.463 . S
C2895 C2900 1.350 . S
C2895 N2903 1.427 . S
C2896 H2887 0.930 . S
C2896 C2894 1.378 . S
C2896 C2897 1.367 . S
C2897 C2896 1.367 . S
C2897 C2899 1.433 . S
C2898 C2894 1.350 . S
C2898 C2895 1.463 . S
C2898 N2902 1.427 . S
C2899 H2889 0.929 . S
C2899 C2897 1.433 . S
C2899 N2902 1.384 . S
C2900 H2891 0.929 . S
C2900 C2892 1.378 . S
C2900 C2895 1.350 . S
C2901 H2888 0.929 . S
C2901 C2893 1.433 . S
C2901 N2903 1.384 . S
N2902 C2898 1.427 . S
N2902 C2899 1.384 . S
N2903 C2895 1.427 . S
N2903 C2901 1.384 . S
H2904 C2910 0.922 1_545 S
H2905 C2914 0.930 . S
H2906 C2919 0.929 . S
H2907 C2917 0.929 . S
H2908 C2912 0.929 . S
H2909 C2918 0.929 . S
C2910 H2904 0.922 1_565 S
C2910 C2911 1.367 . S
C2910 C2918 1.378 . S
C2911 C2910 1.367 . S
C2911 C2919 1.433 . S
C2912 H2908 0.929 . S
C2912 C2914 1.378 . S
C2912 C2916 1.350 . S
C2913 C2916 1.463 . S
C2913 C2918 1.350 . S
C2913 N2921 1.427 . S
C2914 H2905 0.930 . S
C2914 C2912 1.378 . S
C2914 C2915 1.367 . S
C2915 C2914 1.367 . S
C2915 C2917 1.433 . S
C2916 C2912 1.350 . S
C2916 C2913 1.463 . S
C2916 N2920 1.427 . S
C2917 H2907 0.929 . S
C2917 C2915 1.433 . S
C2917 N2920 1.384 . S
C2918 H2909 0.929 . S
C2918 C2910 1.378 . S
C2918 C2913 1.350 . S
C2919 H2906 0.929 . S
C2919 C2911 1.433 . S
C2919 N2921 1.384 . S
N2920 C2916 1.427 . S
N2920 C2917 1.384 . S
N2921 C2913 1.427 . S
N2921 C2919 1.384 . S
H2922 C2928 0.930 . S
H2923 C2932 0.930 . S
H2924 C2937 0.929 . S
H2925 C2935 0.929 . S
H2926 C2930 0.929 . S
H2927 C2936 0.929 . S
C2928 H2922 0.930 . S
C2928 C2929 1.367 . S
C2928 C2936 1.378 . S
C2929 C2928 1.367 . S
C2929 C2937 1.433 . S
C2930 H2926 0.929 . S
C2930 C2932 1.378 . S
C2930 C2934 1.350 . S
C2931 C2934 1.463 . S
C2931 C2936 1.350 . S
C2931 N2939 1.427 . S
C2932 H2923 0.930 . S
C2932 C2930 1.378 . S
C2932 C2933 1.367 . S
C2933 C2932 1.367 . S
C2933 C2935 1.433 . S
C2934 C2930 1.350 . S
C2934 C2931 1.463 . S
C2934 N2938 1.427 . S
C2935 H2925 0.929 . S
C2935 C2933 1.433 . S
C2935 N2938 1.384 . S
C2936 H2927 0.929 . S
C2936 C2928 1.378 . S
C2936 C2931 1.350 . S
C2937 H2924 0.929 . S
C2937 C2929 1.433 . S
C2937 N2939 1.384 . S
N2938 C2934 1.427 . S
N2938 C2935 1.384 . S
N2939 C2931 1.427 . S
N2939 C2937 1.384 . S
H2940 C2946 0.930 . S
H2941 C2950 0.930 . S
H2942 C2955 0.929 . S
H2943 C2953 0.929 . S
H2944 C2948 0.929 . S
H2945 C2954 0.929 . S
C2946 H2940 0.930 . S
C2946 C2947 1.367 . S
C2946 C2954 1.378 . S
C2947 C2946 1.367 . S
C2947 C2955 1.433 . S
C2948 H2944 0.929 . S
C2948 C2950 1.378 . S
C2948 C2952 1.350 . S
C2949 C2952 1.463 . S
C2949 C2954 1.350 . S
C2949 N2957 1.427 . S
C2950 H2941 0.930 . S
C2950 C2948 1.378 . S
C2950 C2951 1.367 . S
C2951 C2950 1.367 . S
C2951 C2953 1.433 . S
C2952 C2948 1.350 . S
C2952 C2949 1.463 . S
C2952 N2956 1.427 . S
C2953 H2943 0.929 . S
C2953 C2951 1.433 . S
C2953 N2956 1.384 . S
C2954 H2945 0.929 . S
C2954 C2946 1.378 . S
C2954 C2949 1.350 . S
C2955 H2942 0.929 . S
C2955 C2947 1.433 . S
C2955 N2957 1.384 . S
N2956 C2952 1.427 . S
N2956 C2953 1.384 . S
N2957 C2949 1.427 . S
N2957 C2955 1.384 . S
H2958 C2964 0.930 . S
H2959 C2968 0.930 . S
H2960 C2973 0.929 . S
H2961 C2971 0.929 . S
H2962 C2966 0.929 . S
H2963 C2972 0.929 . S
C2964 H2958 0.930 . S
C2964 C2965 1.367 . S
C2964 C2972 1.378 . S
C2965 C2964 1.367 . S
C2965 C2973 1.433 . S
C2966 H2962 0.929 . S
C2966 C2968 1.378 . S
C2966 C2970 1.350 . S
C2967 C2970 1.463 . S
C2967 C2972 1.350 . S
C2967 N2975 1.427 . S
C2968 H2959 0.930 . S
C2968 C2966 1.378 . S
C2968 C2969 1.367 . S
C2969 C2968 1.367 . S
C2969 C2971 1.433 . S
C2970 C2966 1.350 . S
C2970 C2967 1.463 . S
C2970 N2974 1.427 . S
C2971 H2961 0.929 . S
C2971 C2969 1.433 . S
C2971 N2974 1.384 . S
C2972 H2963 0.929 . S
C2972 C2964 1.378 . S
C2972 C2967 1.350 . S
C2973 H2960 0.929 . S
C2973 C2965 1.433 . S
C2973 N2975 1.384 . S
N2974 C2970 1.427 . S
N2974 C2971 1.384 . S
N2975 C2967 1.427 . S
N2975 C2973 1.384 . S
H2976 C2982 0.930 . S
H2977 C2986 0.930 . S
H2978 C2991 0.929 . S
H2979 C2989 0.929 . S
H2980 C2984 0.929 . S
H2981 C2990 0.929 . S
C2982 H2976 0.930 . S
C2982 C2983 1.367 . S
C2982 C2990 1.378 . S
C2983 C2982 1.367 . S
C2983 C2991 1.433 . S
C2984 H2980 0.929 . S
C2984 C2986 1.378 . S
C2984 C2988 1.350 . S
C2985 C2988 1.463 . S
C2985 C2990 1.350 . S
C2985 N2993 1.427 . S
C2986 H2977 0.930 . S
C2986 C2984 1.378 . S
C2986 C2987 1.367 . S
C2987 C2986 1.367 . S
C2987 C2989 1.433 . S
C2988 C2984 1.350 . S
C2988 C2985 1.463 . S
C2988 N2992 1.427 . S
C2989 H2979 0.929 . S
C2989 C2987 1.433 . S
C2989 N2992 1.384 . S
C2990 H2981 0.929 . S
C2990 C2982 1.378 . S
C2990 C2985 1.350 . S
C2991 H2978 0.929 . S
C2991 C2983 1.433 . S
C2991 N2993 1.384 . S
N2992 C2988 1.427 . S
N2992 C2989 1.384 . S
N2993 C2985 1.427 . S
N2993 C2991 1.384 . S
H2994 C3000 0.930 . S
H2995 C3004 0.930 . S
H2996 C3009 0.929 . S
H2997 C3007 0.929 . S
H2998 C3002 0.929 . S
H2999 C3008 0.929 . S
C3000 H2994 0.930 . S
C3000 C3001 1.367 . S
C3000 C3008 1.378 . S
C3001 C3000 1.367 . S
C3001 C3009 1.433 . S
C3002 H2998 0.929 . S
C3002 C3004 1.378 . S
C3002 C3006 1.350 . S
C3003 C3006 1.463 . S
C3003 C3008 1.350 . S
C3003 N3011 1.427 . S
C3004 H2995 0.930 . S
C3004 C3002 1.378 . S
C3004 C3005 1.367 . S
C3005 C3004 1.367 . S
C3005 C3007 1.433 . S
C3006 C3002 1.350 . S
C3006 C3003 1.463 . S
C3006 N3010 1.427 . S
C3007 H2997 0.929 . S
C3007 C3005 1.433 . S
C3007 N3010 1.384 . S
C3008 H2999 0.929 . S
C3008 C3000 1.378 . S
C3008 C3003 1.350 . S
C3009 H2996 0.929 . S
C3009 C3001 1.433 . S
C3009 N3011 1.384 . S
N3010 C3006 1.427 . S
N3010 C3007 1.384 . S
N3011 C3003 1.427 . S
N3011 C3009 1.384 . S
H3012 C3018 0.930 . S
H3013 C3022 0.930 . S
H3014 C3027 0.929 . S
H3015 C3025 0.929 . S
H3016 C3020 0.929 . S
H3017 C3026 0.929 . S
C3018 H3012 0.930 . S
C3018 C3019 1.367 . S
C3018 C3026 1.378 . S
C3019 C3018 1.367 . S
C3019 C3027 1.433 . S
C3020 H3016 0.929 . S
C3020 C3022 1.378 . S
C3020 C3024 1.350 . S
C3021 C3024 1.463 . S
C3021 C3026 1.350 . S
C3021 N3029 1.427 . S
C3022 H3013 0.930 . S
C3022 C3020 1.378 . S
C3022 C3023 1.367 . S
C3023 C3022 1.367 . S
C3023 C3025 1.433 . S
C3024 C3020 1.350 . S
C3024 C3021 1.463 . S
C3024 N3028 1.427 . S
C3025 H3015 0.929 . S
C3025 C3023 1.433 . S
C3025 N3028 1.384 . S
C3026 H3017 0.929 . S
C3026 C3018 1.378 . S
C3026 C3021 1.350 . S
C3027 H3014 0.929 . S
C3027 C3019 1.433 . S
C3027 N3029 1.384 . S
N3028 C3024 1.427 . S
N3028 C3025 1.384 . S
N3029 C3021 1.427 . S
N3029 C3027 1.384 . S
H3030 C3036 0.930 . S
H3031 C3040 0.930 . S
H3032 C3045 0.901 1_554 S
H3033 C3043 0.929 . S
H3034 C3038 0.929 . S
H3035 C3044 0.929 . S
C3036 H3030 0.930 . S
C3036 C3037 1.367 . S
C3036 C3044 1.378 . S
C3037 C3036 1.367 . S
C3037 C3045 1.443 . S
C3038 H3034 0.929 . S
C3038 C3040 1.378 . S
C3038 C3042 1.350 . S
C3039 C3042 1.463 . S
C3039 C3044 1.350 . S
C3039 N3047 1.427 . S
C3040 H3031 0.930 . S
C3040 C3038 1.378 . S
C3040 C3041 1.367 . S
C3041 C3040 1.367 . S
C3041 C3043 1.433 . S
C3042 C3038 1.350 . S
C3042 C3039 1.463 . S
C3042 N3046 1.427 . S
C3043 H3033 0.929 . S
C3043 C3041 1.433 . S
C3043 N3046 1.384 . S
C3044 H3035 0.929 . S
C3044 C3036 1.378 . S
C3044 C3039 1.350 . S
C3045 H3032 0.901 1_556 S
C3045 C3037 1.443 . S
C3045 N3047 1.404 . S
N3046 C3042 1.427 . S
N3046 C3043 1.384 . S
N3047 C3039 1.427 . S
N3047 C3045 1.404 . S
H3048 C3054 0.930 . S
H3049 C3058 0.930 . S
H3050 C3063 0.929 . S
H3051 C3061 0.929 . S
H3052 C3056 0.929 . S
H3053 C3062 0.929 . S
C3054 H3048 0.930 . S
C3054 C3055 1.367 . S
C3054 C3062 1.378 . S
C3055 C3054 1.367 . S
C3055 C3063 1.433 . S
C3056 H3052 0.929 . S
C3056 C3058 1.378 . S
C3056 C3060 1.350 . S
C3057 C3060 1.463 . S
C3057 C3062 1.350 . S
C3057 N3065 1.427 . S
C3058 H3049 0.930 . S
C3058 C3056 1.378 . S
C3058 C3059 1.367 . S
C3059 C3058 1.367 . S
C3059 C3061 1.433 . S
C3060 C3056 1.350 . S
C3060 C3057 1.463 . S
C3060 N3064 1.427 . S
C3061 H3051 0.929 . S
C3061 C3059 1.433 . S
C3061 N3064 1.384 . S
C3062 H3053 0.929 . S
C3062 C3054 1.378 . S
C3062 C3057 1.350 . S
C3063 H3050 0.929 . S
C3063 C3055 1.433 . S
C3063 N3065 1.384 . S
N3064 C3060 1.427 . S
N3064 C3061 1.384 . S
N3065 C3057 1.427 . S
N3065 C3063 1.384 . S
H3066 C3072 0.930 . S
H3067 C3076 0.930 . S
H3068 C3081 0.929 . S
H3069 C3079 0.929 . S
H3070 C3074 0.929 . S
H3071 C3080 0.929 . S
C3072 H3066 0.930 . S
C3072 C3073 1.367 . S
C3072 C3080 1.378 . S
C3073 C3072 1.367 . S
C3073 C3081 1.433 . S
C3074 H3070 0.929 . S
C3074 C3076 1.378 . S
C3074 C3078 1.350 . S
C3075 C3078 1.463 . S
C3075 C3080 1.350 . S
C3075 N3083 1.427 . S
C3076 H3067 0.930 . S
C3076 C3074 1.378 . S
C3076 C3077 1.367 . S
C3077 C3076 1.367 . S
C3077 C3079 1.433 . S
C3078 C3074 1.350 . S
C3078 C3075 1.463 . S
C3078 N3082 1.427 . S
C3079 H3069 0.929 . S
C3079 C3077 1.433 . S
C3079 N3082 1.384 . S
C3080 H3071 0.929 . S
C3080 C3072 1.378 . S
C3080 C3075 1.350 . S
C3081 H3068 0.929 . S
C3081 C3073 1.433 . S
C3081 N3083 1.384 . S
N3082 C3078 1.427 . S
N3082 C3079 1.384 . S
N3083 C3075 1.427 . S
N3083 C3081 1.384 . S
H3084 C3090 0.930 . S
H3085 C3094 0.930 . S
H3086 C3099 0.929 . S
H3087 C3097 0.929 . S
H3088 C3092 0.929 . S
H3089 C3098 0.929 . S
C3090 H3084 0.930 . S
C3090 C3091 1.367 . S
C3090 C3098 1.378 . S
C3091 C3090 1.367 . S
C3091 C3099 1.433 . S
C3092 H3088 0.929 . S
C3092 C3094 1.378 . S
C3092 C3096 1.350 . S
C3093 C3096 1.463 . S
C3093 C3098 1.350 . S
C3093 N3101 1.427 . S
C3094 H3085 0.930 . S
C3094 C3092 1.378 . S
C3094 C3095 1.367 . S
C3095 C3094 1.367 . S
C3095 C3097 1.433 . S
C3096 C3092 1.350 . S
C3096 C3093 1.463 . S
C3096 N3100 1.427 . S
C3097 H3087 0.929 . S
C3097 C3095 1.433 . S
C3097 N3100 1.384 . S
C3098 H3089 0.929 . S
C3098 C3090 1.378 . S
C3098 C3093 1.350 . S
C3099 H3086 0.929 . S
C3099 C3091 1.433 . S
C3099 N3101 1.384 . S
N3100 C3096 1.427 . S
N3100 C3097 1.384 . S
N3101 C3093 1.427 . S
N3101 C3099 1.384 . S
H3102 C3108 0.930 . S
H3103 C3112 0.930 . S
H3104 C3117 0.929 . S
H3105 C3115 0.929 . S
H3106 C3110 0.929 . S
H3107 C3116 0.929 . S
C3108 H3102 0.930 . S
C3108 C3109 1.367 . S
C3108 C3116 1.378 . S
C3109 C3108 1.367 . S
C3109 C3117 1.433 . S
C3110 H3106 0.929 . S
C3110 C3112 1.378 . S
C3110 C3114 1.350 . S
C3111 C3114 1.463 . S
C3111 C3116 1.350 . S
C3111 N3119 1.427 . S
C3112 H3103 0.930 . S
C3112 C3110 1.378 . S
C3112 C3113 1.367 . S
C3113 C3112 1.367 . S
C3113 C3115 1.433 . S
C3114 C3110 1.350 . S
C3114 C3111 1.463 . S
C3114 N3118 1.427 . S
C3115 H3105 0.929 . S
C3115 C3113 1.433 . S
C3115 N3118 1.384 . S
C3116 H3107 0.929 . S
C3116 C3108 1.378 . S
C3116 C3111 1.350 . S
C3117 H3104 0.929 . S
C3117 C3109 1.433 . S
C3117 N3119 1.384 . S
N3118 C3114 1.427 . S
N3118 C3115 1.384 . S
N3119 C3111 1.427 . S
N3119 C3117 1.384 . S
H3120 C3126 0.930 . S
H3121 C3130 0.930 . S
H3122 C3135 0.929 . S
H3123 C3133 0.929 . S
H3124 C3128 0.929 . S
H3125 C3134 0.929 . S
C3126 H3120 0.930 . S
C3126 C3127 1.367 . S
C3126 C3134 1.378 . S
C3127 C3126 1.367 . S
C3127 C3135 1.433 . S
C3128 H3124 0.929 . S
C3128 C3130 1.378 . S
C3128 C3132 1.350 . S
C3129 C3132 1.463 . S
C3129 C3134 1.350 . S
C3129 N3137 1.427 . S
C3130 H3121 0.930 . S
C3130 C3128 1.378 . S
C3130 C3131 1.367 . S
C3131 C3130 1.367 . S
C3131 C3133 1.433 . S
C3132 C3128 1.350 . S
C3132 C3129 1.463 . S
C3132 N3136 1.427 . S
C3133 H3123 0.929 . S
C3133 C3131 1.433 . S
C3133 N3136 1.384 . S
C3134 H3125 0.929 . S
C3134 C3126 1.378 . S
C3134 C3129 1.350 . S
C3135 H3122 0.929 . S
C3135 C3127 1.433 . S
C3135 N3137 1.384 . S
N3136 C3132 1.427 . S
N3136 C3133 1.384 . S
N3137 C3129 1.427 . S
N3137 C3135 1.384 . S
H3138 C3144 0.930 . S
H3139 C3148 0.930 . S
H3140 C3153 0.929 1_545 S
H3141 C3151 0.929 . S
H3142 C3146 0.929 . S
H3143 C3152 0.929 . S
C3144 H3138 0.930 . S
C3144 C3145 1.367 . S
C3144 C3152 1.378 . S
C3145 C3144 1.367 . S
C3145 C3153 1.433 . S
C3146 H3142 0.929 . S
C3146 C3148 1.378 . S
C3146 C3150 1.350 . S
C3147 C3150 1.463 . S
C3147 C3152 1.350 . S
C3147 N3155 1.427 . S
C3148 H3139 0.930 . S
C3148 C3146 1.378 . S
C3148 C3149 1.367 . S
C3149 C3148 1.367 . S
C3149 C3151 1.433 . S
C3150 C3146 1.350 . S
C3150 C3147 1.463 . S
C3150 N3154 1.427 . S
C3151 H3141 0.929 . S
C3151 C3149 1.433 . S
C3151 N3154 1.384 . S
C3152 H3143 0.929 . S
C3152 C3144 1.378 . S
C3152 C3147 1.350 . S
C3153 H3140 0.929 1_565 S
C3153 C3145 1.433 . S
C3153 N3155 1.384 . S
N3154 C3150 1.427 . S
N3154 C3151 1.384 . S
N3155 C3147 1.427 . S
N3155 C3153 1.384 . S
H3156 C3162 0.930 . S
H3157 C3166 0.930 . S
H3158 C3171 0.929 . S
H3159 C3169 0.929 . S
H3160 C3164 0.929 . S
H3161 C3170 0.929 . S
C3162 H3156 0.930 . S
C3162 C3163 1.367 . S
C3162 C3170 1.378 . S
C3163 C3162 1.367 . S
C3163 C3171 1.433 . S
C3164 H3160 0.929 . S
C3164 C3166 1.378 . S
C3164 C3168 1.350 . S
C3165 C3168 1.463 . S
C3165 C3170 1.350 . S
C3165 N3173 1.427 . S
C3166 H3157 0.930 . S
C3166 C3164 1.378 . S
C3166 C3167 1.367 . S
C3167 C3166 1.367 . S
C3167 C3169 1.433 . S
C3168 C3164 1.350 . S
C3168 C3165 1.463 . S
C3168 N3172 1.427 . S
C3169 H3159 0.929 . S
C3169 C3167 1.433 . S
C3169 N3172 1.384 . S
C3170 H3161 0.929 . S
C3170 C3162 1.378 . S
C3170 C3165 1.350 . S
C3171 H3158 0.929 . S
C3171 C3163 1.433 . S
C3171 N3173 1.384 . S
N3172 C3168 1.427 . S
N3172 C3169 1.384 . S
N3173 C3165 1.427 . S
N3173 C3171 1.384 . S
H3174 C3180 0.930 . S
H3175 C3184 0.930 . S
H3176 C3189 0.929 . S
H3177 C3187 0.929 . S
H3178 C3182 0.929 . S
H3179 C3188 0.929 . S
C3180 H3174 0.930 . S
C3180 C3181 1.367 . S
C3180 C3188 1.378 . S
C3181 C3180 1.367 . S
C3181 C3189 1.433 . S
C3182 H3178 0.929 . S
C3182 C3184 1.378 . S
C3182 C3186 1.350 . S
C3183 C3186 1.463 . S
C3183 C3188 1.350 . S
C3183 N3191 1.427 . S
C3184 H3175 0.930 . S
C3184 C3182 1.378 . S
C3184 C3185 1.367 . S
C3185 C3184 1.367 . S
C3185 C3187 1.433 . S
C3186 C3182 1.350 . S
C3186 C3183 1.463 . S
C3186 N3190 1.427 . S
C3187 H3177 0.929 . S
C3187 C3185 1.433 . S
C3187 N3190 1.384 . S
C3188 H3179 0.929 . S
C3188 C3180 1.378 . S
C3188 C3183 1.350 . S
C3189 H3176 0.929 . S
C3189 C3181 1.433 . S
C3189 N3191 1.384 . S
N3190 C3186 1.427 . S
N3190 C3187 1.384 . S
N3191 C3183 1.427 . S
N3191 C3189 1.384 . S
H3192 C3198 0.930 . S
H3193 C3202 0.930 . S
H3194 C3207 0.929 . S
H3195 C3205 0.929 . S
H3196 C3200 0.929 . S
H3197 C3206 0.929 . S
C3198 H3192 0.930 . S
C3198 C3199 1.367 . S
C3198 C3206 1.378 . S
C3199 C3198 1.367 . S
C3199 C3207 1.433 . S
C3200 H3196 0.929 . S
C3200 C3202 1.378 . S
C3200 C3204 1.350 . S
C3201 C3204 1.463 . S
C3201 C3206 1.350 . S
C3201 N3209 1.427 . S
C3202 H3193 0.930 . S
C3202 C3200 1.378 . S
C3202 C3203 1.367 . S
C3203 C3202 1.367 . S
C3203 C3205 1.433 . S
C3204 C3200 1.350 . S
C3204 C3201 1.463 . S
C3204 N3208 1.427 . S
C3205 H3195 0.929 . S
C3205 C3203 1.433 . S
C3205 N3208 1.384 . S
C3206 H3197 0.929 . S
C3206 C3198 1.378 . S
C3206 C3201 1.350 . S
C3207 H3194 0.929 . S
C3207 C3199 1.433 . S
C3207 N3209 1.384 . S
N3208 C3204 1.427 . S
N3208 C3205 1.384 . S
N3209 C3201 1.427 . S
N3209 C3207 1.384 . S
H3210 C3216 0.930 1_545 S
H3211 C3220 0.930 . S
H3212 C3225 0.929 . S
H3213 C3223 0.929 . S
H3214 C3218 0.929 . S
H3215 C3224 0.929 . S
C3216 H3210 0.930 1_565 S
C3216 C3217 1.367 . S
C3216 C3224 1.378 . S
C3217 C3216 1.367 . S
C3217 C3225 1.433 . S
C3218 H3214 0.929 . S
C3218 C3220 1.378 . S
C3218 C3222 1.350 . S
C3219 C3222 1.463 . S
C3219 C3224 1.350 . S
C3219 N3227 1.427 . S
C3220 H3211 0.930 . S
C3220 C3218 1.378 . S
C3220 C3221 1.367 . S
C3221 C3220 1.367 . S
C3221 C3223 1.433 . S
C3222 C3218 1.350 . S
C3222 C3219 1.463 . S
C3222 N3226 1.427 . S
C3223 H3213 0.929 . S
C3223 C3221 1.433 . S
C3223 N3226 1.384 . S
C3224 H3215 0.929 . S
C3224 C3216 1.378 . S
C3224 C3219 1.350 . S
C3225 H3212 0.929 . S
C3225 C3217 1.433 . S
C3225 N3227 1.384 . S
N3226 C3222 1.427 . S
N3226 C3223 1.384 . S
N3227 C3219 1.427 . S
N3227 C3225 1.384 . S
H3228 C3234 0.930 . S
H3229 C3238 0.930 . S
H3230 C3243 0.929 . S
H3231 C3241 0.929 . S
H3232 C3236 0.929 . S
H3233 C3242 0.929 . S
C3234 H3228 0.930 . S
C3234 C3235 1.367 . S
C3234 C3242 1.378 . S
C3235 C3234 1.367 . S
C3235 C3243 1.433 . S
C3236 H3232 0.929 . S
C3236 C3238 1.378 . S
C3236 C3240 1.350 . S
C3237 C3240 1.463 . S
C3237 C3242 1.350 . S
C3237 N3245 1.427 . S
C3238 H3229 0.930 . S
C3238 C3236 1.378 . S
C3238 C3239 1.367 . S
C3239 C3238 1.367 . S
C3239 C3241 1.433 . S
C3240 C3236 1.350 . S
C3240 C3237 1.463 . S
C3240 N3244 1.427 . S
C3241 H3231 0.929 . S
C3241 C3239 1.433 . S
C3241 N3244 1.384 . S
C3242 H3233 0.929 . S
C3242 C3234 1.378 . S
C3242 C3237 1.350 . S
C3243 H3230 0.929 . S
C3243 C3235 1.433 . S
C3243 N3245 1.384 . S
N3244 C3240 1.427 . S
N3244 C3241 1.384 . S
N3245 C3237 1.427 . S
N3245 C3243 1.384 . S
H3246 C3252 0.930 . S
H3247 C3256 0.930 . S
H3248 C3261 0.929 . S
H3249 C3259 0.929 . S
H3250 C3254 0.929 . S
H3251 C3260 0.929 . S
C3252 H3246 0.930 . S
C3252 C3253 1.367 . S
C3252 C3260 1.378 . S
C3253 C3252 1.367 . S
C3253 C3261 1.433 . S
C3254 H3250 0.929 . S
C3254 C3256 1.378 . S
C3254 C3258 1.350 . S
C3255 C3258 1.463 . S
C3255 C3260 1.350 . S
C3255 N3263 1.427 . S
C3256 H3247 0.930 . S
C3256 C3254 1.378 . S
C3256 C3257 1.367 . S
C3257 C3256 1.367 . S
C3257 C3259 1.433 . S
C3258 C3254 1.350 . S
C3258 C3255 1.463 . S
C3258 N3262 1.427 . S
C3259 H3249 0.929 . S
C3259 C3257 1.433 . S
C3259 N3262 1.384 . S
C3260 H3251 0.929 . S
C3260 C3252 1.378 . S
C3260 C3255 1.350 . S
C3261 H3248 0.929 . S
C3261 C3253 1.433 . S
C3261 N3263 1.384 . S
N3262 C3258 1.427 . S
N3262 C3259 1.384 . S
N3263 C3255 1.427 . S
N3263 C3261 1.384 . S
H3264 C3270 0.930 . S
H3265 C3274 0.930 . S
H3266 C3279 0.929 . S
H3267 C3277 0.929 . S
H3268 C3272 0.929 . S
H3269 C3278 0.929 . S
C3270 H3264 0.930 . S
C3270 C3271 1.367 . S
C3270 C3278 1.378 . S
C3271 C3270 1.367 . S
C3271 C3279 1.433 . S
C3272 H3268 0.929 . S
C3272 C3274 1.378 . S
C3272 C3276 1.350 . S
C3273 C3276 1.463 . S
C3273 C3278 1.350 . S
C3273 N3281 1.427 . S
C3274 H3265 0.930 . S
C3274 C3272 1.378 . S
C3274 C3275 1.367 . S
C3275 C3274 1.367 . S
C3275 C3277 1.433 . S
C3276 C3272 1.350 . S
C3276 C3273 1.463 . S
C3276 N3280 1.427 . S
C3277 H3267 0.929 . S
C3277 C3275 1.433 . S
C3277 N3280 1.384 . S
C3278 H3269 0.929 . S
C3278 C3270 1.378 . S
C3278 C3273 1.350 . S
C3279 H3266 0.929 . S
C3279 C3271 1.433 . S
C3279 N3281 1.384 . S
N3280 C3276 1.427 . S
N3280 C3277 1.384 . S
N3281 C3273 1.427 . S
N3281 C3279 1.384 . S
H3282 C3288 0.930 . S
H3283 C3292 0.930 . S
H3284 C3297 0.929 . S
H3285 C3295 0.929 . S
H3286 C3290 0.929 . S
H3287 C3296 0.929 . S
C3288 H3282 0.930 . S
C3288 C3289 1.367 . S
C3288 C3296 1.378 . S
C3289 C3288 1.367 . S
C3289 C3297 1.433 . S
C3290 H3286 0.929 . S
C3290 C3292 1.378 . S
C3290 C3294 1.350 . S
C3291 C3294 1.463 . S
C3291 C3296 1.350 . S
C3291 N3299 1.427 . S
C3292 H3283 0.930 . S
C3292 C3290 1.378 . S
C3292 C3293 1.367 . S
C3293 C3292 1.367 . S
C3293 C3295 1.433 . S
C3294 C3290 1.350 . S
C3294 C3291 1.463 . S
C3294 N3298 1.427 . S
C3295 H3285 0.929 . S
C3295 C3293 1.433 . S
C3295 N3298 1.384 . S
C3296 H3287 0.929 . S
C3296 C3288 1.378 . S
C3296 C3291 1.350 . S
C3297 H3284 0.929 . S
C3297 C3289 1.433 . S
C3297 N3299 1.384 . S
N3298 C3294 1.427 . S
N3298 C3295 1.384 . S
N3299 C3291 1.427 . S
N3299 C3297 1.384 . S
H3300 C3306 0.930 . S
H3301 C3310 0.930 . S
H3302 C3315 0.929 . S
H3303 C3313 0.929 . S
H3304 C3308 0.929 . S
H3305 C3314 0.929 . S
C3306 H3300 0.930 . S
C3306 C3307 1.367 . S
C3306 C3314 1.378 . S
C3307 C3306 1.367 . S
C3307 C3315 1.433 . S
C3308 H3304 0.929 . S
C3308 C3310 1.378 . S
C3308 C3312 1.350 . S
C3309 C3312 1.463 . S
C3309 C3314 1.350 . S
C3309 N3317 1.427 . S
C3310 H3301 0.930 . S
C3310 C3308 1.378 . S
C3310 C3311 1.367 . S
C3311 C3310 1.367 . S
C3311 C3313 1.433 . S
C3312 C3308 1.350 . S
C3312 C3309 1.463 . S
C3312 N3316 1.427 . S
C3313 H3303 0.929 . S
C3313 C3311 1.433 . S
C3313 N3316 1.384 . S
C3314 H3305 0.929 . S
C3314 C3306 1.378 . S
C3314 C3309 1.350 . S
C3315 H3302 0.929 . S
C3315 C3307 1.433 . S
C3315 N3317 1.384 . S
N3316 C3312 1.427 . S
N3316 C3313 1.384 . S
N3317 C3309 1.427 . S
N3317 C3315 1.384 . S
H3318 C3324 0.930 . S
H3319 C3328 0.930 . S
H3320 C3333 0.929 . S
H3321 C3331 0.929 . S
H3322 C3326 0.929 . S
H3323 C3332 0.929 . S
C3324 H3318 0.930 . S
C3324 C3325 1.367 . S
C3324 C3332 1.378 . S
C3325 C3324 1.367 . S
C3325 C3333 1.433 . S
C3326 H3322 0.929 . S
C3326 C3328 1.378 . S
C3326 C3330 1.350 . S
C3327 C3330 1.463 . S
C3327 C3332 1.350 . S
C3327 N3335 1.427 . S
C3328 H3319 0.930 . S
C3328 C3326 1.378 . S
C3328 C3329 1.367 . S
C3329 C3328 1.367 . S
C3329 C3331 1.433 . S
C3330 C3326 1.350 . S
C3330 C3327 1.463 . S
C3330 N3334 1.427 . S
C3331 H3321 0.929 . S
C3331 C3329 1.433 . S
C3331 N3334 1.384 . S
C3332 H3323 0.929 . S
C3332 C3324 1.378 . S
C3332 C3327 1.350 . S
C3333 H3320 0.929 . S
C3333 C3325 1.433 . S
C3333 N3335 1.384 . S
N3334 C3330 1.427 . S
N3334 C3331 1.384 . S
N3335 C3327 1.427 . S
N3335 C3333 1.384 . S
H3336 C3342 0.930 . S
H3337 C3346 0.930 . S
H3338 C3351 0.929 . S
H3339 C3349 0.929 . S
H3340 C3344 0.929 . S
H3341 C3350 0.929 . S
C3342 H3336 0.930 . S
C3342 C3343 1.367 . S
C3342 C3350 1.378 . S
C3343 C3342 1.367 . S
C3343 C3351 1.433 . S
C3344 H3340 0.929 . S
C3344 C3346 1.378 . S
C3344 C3348 1.350 . S
C3345 C3348 1.463 . S
C3345 C3350 1.350 . S
C3345 N3353 1.427 . S
C3346 H3337 0.930 . S
C3346 C3344 1.378 . S
C3346 C3347 1.367 . S
C3347 C3346 1.367 . S
C3347 C3349 1.433 . S
C3348 C3344 1.350 . S
C3348 C3345 1.463 . S
C3348 N3352 1.427 . S
C3349 H3339 0.929 . S
C3349 C3347 1.433 . S
C3349 N3352 1.384 . S
C3350 H3341 0.929 . S
C3350 C3342 1.378 . S
C3350 C3345 1.350 . S
C3351 H3338 0.929 . S
C3351 C3343 1.433 . S
C3351 N3353 1.384 . S
N3352 C3348 1.427 . S
N3352 C3349 1.384 . S
N3353 C3345 1.427 . S
N3353 C3351 1.384 . S
H3354 C3360 0.943 . S
H3355 C3364 0.930 . S
H3356 C3369 0.929 . S
H3357 C3367 0.929 . S
H3358 C3362 0.929 . S
H3359 C3368 0.929 . S
C3360 H3354 0.943 . S
C3360 C3361 1.367 . S
C3360 C3368 1.378 . S
C3361 C3360 1.367 . S
C3361 C3369 1.433 . S
C3362 H3358 0.929 . S
C3362 C3364 1.378 . S
C3362 C3366 1.350 . S
C3363 C3366 1.463 . S
C3363 C3368 1.350 . S
C3363 N3371 1.427 . S
C3364 H3355 0.930 . S
C3364 C3362 1.378 . S
C3364 C3365 1.367 . S
C3365 C3364 1.367 . S
C3365 C3367 1.433 . S
C3366 C3362 1.350 . S
C3366 C3363 1.463 . S
C3366 N3370 1.427 . S
C3367 H3357 0.929 . S
C3367 C3365 1.433 . S
C3367 N3370 1.384 . S
C3368 H3359 0.929 . S
C3368 C3360 1.378 . S
C3368 C3363 1.350 . S
C3369 H3356 0.929 . S
C3369 C3361 1.433 . S
C3369 N3371 1.384 . S
N3370 C3366 1.427 . S
N3370 C3367 1.384 . S
N3371 C3363 1.427 . S
N3371 C3369 1.384 . S
H3372 C3378 0.930 . S
H3373 C3382 0.930 . S
H3374 C3387 0.929 . S
H3375 C3385 0.929 . S
H3376 C3380 0.929 . S
H3377 C3386 0.929 . S
C3378 H3372 0.930 . S
C3378 C3379 1.367 . S
C3378 C3386 1.378 . S
C3379 C3378 1.367 . S
C3379 C3387 1.433 . S
C3380 H3376 0.929 . S
C3380 C3382 1.378 . S
C3380 C3384 1.350 . S
C3381 C3384 1.463 . S
C3381 C3386 1.350 . S
C3381 N3389 1.427 . S
C3382 H3373 0.930 . S
C3382 C3380 1.378 . S
C3382 C3383 1.367 . S
C3383 C3382 1.367 . S
C3383 C3385 1.433 . S
C3384 C3380 1.350 . S
C3384 C3381 1.463 . S
C3384 N3388 1.427 . S
C3385 H3375 0.929 . S
C3385 C3383 1.433 . S
C3385 N3388 1.384 . S
C3386 H3377 0.929 . S
C3386 C3378 1.378 . S
C3386 C3381 1.350 . S
C3387 H3374 0.929 . S
C3387 C3379 1.433 . S
C3387 N3389 1.384 . S
N3388 C3384 1.427 . S
N3388 C3385 1.384 . S
N3389 C3381 1.427 . S
N3389 C3387 1.384 . S
H3390 C3396 0.930 . S
H3391 C3400 0.930 . S
H3392 C3405 0.929 . S
H3393 C3403 0.929 . S
H3394 C3398 0.929 . S
H3395 C3404 0.929 . S
C3396 H3390 0.930 . S
C3396 C3397 1.367 . S
C3396 C3404 1.378 . S
C3397 C3396 1.367 . S
C3397 C3405 1.433 . S
C3398 H3394 0.929 . S
C3398 C3400 1.378 . S
C3398 C3402 1.350 . S
C3399 C3402 1.463 . S
C3399 C3404 1.350 . S
C3399 N3407 1.427 . S
C3400 H3391 0.930 . S
C3400 C3398 1.378 . S
C3400 C3401 1.367 . S
C3401 C3400 1.367 . S
C3401 C3403 1.433 . S
C3402 C3398 1.350 . S
C3402 C3399 1.463 . S
C3402 N3406 1.427 . S
C3403 H3393 0.929 . S
C3403 C3401 1.433 . S
C3403 N3406 1.384 . S
C3404 H3395 0.929 . S
C3404 C3396 1.378 . S
C3404 C3399 1.350 . S
C3405 H3392 0.929 . S
C3405 C3397 1.433 . S
C3405 N3407 1.384 . S
N3406 C3402 1.427 . S
N3406 C3403 1.384 . S
N3407 C3399 1.427 . S
N3407 C3405 1.384 . S
H3408 C3414 0.930 . S
H3409 C3418 0.930 . S
H3410 C3423 0.929 . S
H3411 C3421 0.929 . S
H3412 C3416 0.929 . S
H3413 C3422 0.929 . S
C3414 H3408 0.930 . S
C3414 C3415 1.367 . S
C3414 C3422 1.378 . S
C3415 C3414 1.367 . S
C3415 C3423 1.433 . S
C3416 H3412 0.929 . S
C3416 C3418 1.378 . S
C3416 C3420 1.350 . S
C3417 C3420 1.463 . S
C3417 C3422 1.350 . S
C3417 N3425 1.427 . S
C3418 H3409 0.930 . S
C3418 C3416 1.378 . S
C3418 C3419 1.367 . S
C3419 C3418 1.367 . S
C3419 C3421 1.433 . S
C3420 C3416 1.350 . S
C3420 C3417 1.463 . S
C3420 N3424 1.427 . S
C3421 H3411 0.929 . S
C3421 C3419 1.433 . S
C3421 N3424 1.384 . S
C3422 H3413 0.929 . S
C3422 C3414 1.378 . S
C3422 C3417 1.350 . S
C3423 H3410 0.929 . S
C3423 C3415 1.433 . S
C3423 N3425 1.384 . S
N3424 C3420 1.427 . S
N3424 C3421 1.384 . S
N3425 C3417 1.427 . S
N3425 C3423 1.384 . S
H3426 C3432 0.930 . S
H3427 C3436 0.930 . S
H3428 C3441 0.929 . S
H3429 C3439 0.929 . S
H3430 C3434 0.929 . S
H3431 C3440 0.929 . S
C3432 H3426 0.930 . S
C3432 C3433 1.367 . S
C3432 C3440 1.378 . S
C3433 C3432 1.367 . S
C3433 C3441 1.433 . S
C3434 H3430 0.929 . S
C3434 C3436 1.378 . S
C3434 C3438 1.350 . S
C3435 C3438 1.463 . S
C3435 C3440 1.350 . S
C3435 N3443 1.427 . S
C3436 H3427 0.930 . S
C3436 C3434 1.378 . S
C3436 C3437 1.367 . S
C3437 C3436 1.367 . S
C3437 C3439 1.433 . S
C3438 C3434 1.350 . S
C3438 C3435 1.463 . S
C3438 N3442 1.427 . S
C3439 H3429 0.929 . S
C3439 C3437 1.433 . S
C3439 N3442 1.384 . S
C3440 H3431 0.929 . S
C3440 C3432 1.378 . S
C3440 C3435 1.350 . S
C3441 H3428 0.929 . S
C3441 C3433 1.433 . S
C3441 N3443 1.384 . S
N3442 C3438 1.427 . S
N3442 C3439 1.384 . S
N3443 C3435 1.427 . S
N3443 C3441 1.384 . S
H3444 C3450 0.930 . S
H3445 C3454 0.930 . S
H3446 C3459 0.929 . S
H3447 C3457 0.929 . S
H3448 C3452 0.929 . S
H3449 C3458 0.929 . S
C3450 H3444 0.930 . S
C3450 C3451 1.367 . S
C3450 C3458 1.378 . S
C3451 C3450 1.367 . S
C3451 C3459 1.433 . S
C3452 H3448 0.929 . S
C3452 C3454 1.378 . S
C3452 C3456 1.350 . S
C3453 C3456 1.463 . S
C3453 C3458 1.350 . S
C3453 N3461 1.427 . S
C3454 H3445 0.930 . S
C3454 C3452 1.378 . S
C3454 C3455 1.367 . S
C3455 C3454 1.367 . S
C3455 C3457 1.433 . S
C3456 C3452 1.350 . S
C3456 C3453 1.463 . S
C3456 N3460 1.427 . S
C3457 H3447 0.929 . S
C3457 C3455 1.433 . S
C3457 N3460 1.384 . S
C3458 H3449 0.929 . S
C3458 C3450 1.378 . S
C3458 C3453 1.350 . S
C3459 H3446 0.929 . S
C3459 C3451 1.433 . S
C3459 N3461 1.384 . S
N3460 C3456 1.427 . S
N3460 C3457 1.384 . S
N3461 C3453 1.427 . S
N3461 C3459 1.384 . S
H3462 C3468 0.930 . S
H3463 C3472 0.930 . S
H3464 C3477 0.929 . S
H3465 C3475 0.929 . S
H3466 C3470 0.929 . S
H3467 C3476 0.929 . S
C3468 H3462 0.930 . S
C3468 C3469 1.367 . S
C3468 C3476 1.378 . S
C3469 C3468 1.367 . S
C3469 C3477 1.433 . S
C3470 H3466 0.929 . S
C3470 C3472 1.378 . S
C3470 C3474 1.350 . S
C3471 C3474 1.463 . S
C3471 C3476 1.350 . S
C3471 N3479 1.427 . S
C3472 H3463 0.930 . S
C3472 C3470 1.378 . S
C3472 C3473 1.367 . S
C3473 C3472 1.367 . S
C3473 C3475 1.433 . S
C3474 C3470 1.350 . S
C3474 C3471 1.463 . S
C3474 N3478 1.427 . S
C3475 H3465 0.929 . S
C3475 C3473 1.433 . S
C3475 N3478 1.384 . S
C3476 H3467 0.929 . S
C3476 C3468 1.378 . S
C3476 C3471 1.350 . S
C3477 H3464 0.929 . S
C3477 C3469 1.433 . S
C3477 N3479 1.384 . S
N3478 C3474 1.427 . S
N3478 C3475 1.384 . S
N3479 C3471 1.427 . S
N3479 C3477 1.384 . S
H3480 C3486 0.930 . S
H3481 C3490 0.930 . S
H3482 C3495 0.929 . S
H3483 C3493 0.929 . S
H3484 C3488 0.929 . S
H3485 C3494 0.929 . S
C3486 H3480 0.930 . S
C3486 C3487 1.367 . S
C3486 C3494 1.378 . S
C3487 C3486 1.367 . S
C3487 C3495 1.433 . S
C3488 H3484 0.929 . S
C3488 C3490 1.378 . S
C3488 C3492 1.350 . S
C3489 C3492 1.463 . S
C3489 C3494 1.350 . S
C3489 N3497 1.427 . S
C3490 H3481 0.930 . S
C3490 C3488 1.378 . S
C3490 C3491 1.367 . S
C3491 C3490 1.367 . S
C3491 C3493 1.433 . S
C3492 C3488 1.350 . S
C3492 C3489 1.463 . S
C3492 N3496 1.427 . S
C3493 H3483 0.929 . S
C3493 C3491 1.433 . S
C3493 N3496 1.384 . S
C3494 H3485 0.929 . S
C3494 C3486 1.378 . S
C3494 C3489 1.350 . S
C3495 H3482 0.929 . S
C3495 C3487 1.433 . S
C3495 N3497 1.384 . S
N3496 C3492 1.427 . S
N3496 C3493 1.384 . S
N3497 C3489 1.427 . S
N3497 C3495 1.384 . S
H3498 C3504 0.930 . S
H3499 C3508 0.930 . S
H3500 C3513 0.929 . S
H3501 C3511 0.929 . S
H3502 C3506 0.929 . S
H3503 C3512 0.929 . S
C3504 H3498 0.930 . S
C3504 C3505 1.367 . S
C3504 C3512 1.378 . S
C3505 C3504 1.367 . S
C3505 C3513 1.433 . S
C3506 H3502 0.929 . S
C3506 C3508 1.378 . S
C3506 C3510 1.350 . S
C3507 C3510 1.463 . S
C3507 C3512 1.350 . S
C3507 N3515 1.427 . S
C3508 H3499 0.930 . S
C3508 C3506 1.378 . S
C3508 C3509 1.367 . S
C3509 C3508 1.367 . S
C3509 C3511 1.433 . S
C3510 C3506 1.350 . S
C3510 C3507 1.463 . S
C3510 N3514 1.427 . S
C3511 H3501 0.929 . S
C3511 C3509 1.433 . S
C3511 N3514 1.384 . S
C3512 H3503 0.929 . S
C3512 C3504 1.378 . S
C3512 C3507 1.350 . S
C3513 H3500 0.929 . S
C3513 C3505 1.433 . S
C3513 N3515 1.384 . S
N3514 C3510 1.427 . S
N3514 C3511 1.384 . S
N3515 C3507 1.427 . S
N3515 C3513 1.384 . S
H3516 C3522 0.930 . S
H3517 C3526 0.930 . S
H3518 C3531 0.929 . S
H3519 C3529 0.929 . S
H3520 C3524 0.929 . S
H3521 C3530 0.929 . S
C3522 H3516 0.930 . S
C3522 C3523 1.367 . S
C3522 C3530 1.378 . S
C3523 C3522 1.367 . S
C3523 C3531 1.433 . S
C3524 H3520 0.929 . S
C3524 C3526 1.378 . S
C3524 C3528 1.350 . S
C3525 C3528 1.463 . S
C3525 C3530 1.350 . S
C3525 N3533 1.427 . S
C3526 H3517 0.930 . S
C3526 C3524 1.378 . S
C3526 C3527 1.367 . S
C3527 C3526 1.367 . S
C3527 C3529 1.433 . S
C3528 C3524 1.350 . S
C3528 C3525 1.463 . S
C3528 N3532 1.427 . S
C3529 H3519 0.929 . S
C3529 C3527 1.433 . S
C3529 N3532 1.384 . S
C3530 H3521 0.929 . S
C3530 C3522 1.378 . S
C3530 C3525 1.350 . S
C3531 H3518 0.929 . S
C3531 C3523 1.433 . S
C3531 N3533 1.384 . S
N3532 C3528 1.427 . S
N3532 C3529 1.384 . S
N3533 C3525 1.427 . S
N3533 C3531 1.384 . S
H3534 C3540 0.930 . S
H3535 C3544 0.930 . S
H3536 C3549 0.929 . S
H3537 C3547 0.929 . S
H3538 C3542 0.929 . S
H3539 C3548 0.929 . S
C3540 H3534 0.930 . S
C3540 C3541 1.367 . S
C3540 C3548 1.378 . S
C3541 C3540 1.367 . S
C3541 C3549 1.433 . S
C3542 H3538 0.929 . S
C3542 C3544 1.378 . S
C3542 C3546 1.350 . S
C3543 C3546 1.463 . S
C3543 C3548 1.350 . S
C3543 N3551 1.427 . S
C3544 H3535 0.930 . S
C3544 C3542 1.378 . S
C3544 C3545 1.367 . S
C3545 C3544 1.367 . S
C3545 C3547 1.433 . S
C3546 C3542 1.350 . S
C3546 C3543 1.463 . S
C3546 N3550 1.427 . S
C3547 H3537 0.929 . S
C3547 C3545 1.433 . S
C3547 N3550 1.384 . S
C3548 H3539 0.929 . S
C3548 C3540 1.378 . S
C3548 C3543 1.350 . S
C3549 H3536 0.929 . S
C3549 C3541 1.433 . S
C3549 N3551 1.384 . S
N3550 C3546 1.427 . S
N3550 C3547 1.384 . S
N3551 C3543 1.427 . S
N3551 C3549 1.384 . S
C967 C128 2.463 . S
C971 C8 2.467 1_455 S
C985 C149 2.444 . S
C989 C28 2.490 . S
C1003 C88 2.483 . S
C1007 C48 2.484 . S
C1021 C108 2.443 . S
C1025 C68 2.446 . S
C1039 C208 2.480 . S
C1043 C168 2.484 . S
C1057 C228 2.460 . S
C1061 C188 2.452 . S
C1075 C289 2.451 . S
C1079 C248 2.491 . S
C1093 C308 2.460 . S
C1097 C268 2.469 . S
C1111 C348 2.464 . S
C1115 C328 2.469 . S
C1129 C468 2.481 . S
C1133 C368 2.481 . S
C1147 C429 2.430 . S
C1151 C389 2.429 . S
C1165 C408 2.471 . S
C1169 C448 2.477 1_554 S
C1183 C488 2.472 . S
C1187 C608 2.466 . S
C1201 C508 2.490 . S
C1205 C629 2.444 . S
C1219 C528 2.483 . S
C1223 C568 2.480 . S
C1237 C548 2.447 . S
C1241 C588 2.442 . S
C1255 C648 2.483 . S
C1259 C688 2.479 . S
C1273 C668 2.448 . S
C1277 C708 2.460 . S
C1291 C728 2.495 . S
C1295 C769 2.445 . S
C1309 C788 2.464 . S
C1313 C748 2.470 . S
C1327 C808 2.474 . S
C1331 C828 2.470 . S
C1345 C948 2.481 . S
C1349 C848 2.482 . S
C1363 C869 2.429 . S
C1367 C909 2.432 . S
C1381 C888 2.473 . S
C1385 C928 2.476 . S
C1399 C9 2.888 . S
C1403 C189 2.859 . S
C1417 C29 2.877 . S
C1421 C209 2.887 . S
C1435 C49 2.890 . S
C1439 C229 2.930 . S
C1453 C169 2.896 . S
C1457 C69 2.903 . S
C1471 C309 2.821 . S
C1475 C89 2.796 . S
C1489 C249 2.890 . S
C1493 C109 2.905 . S
C1507 C269 2.934 . S
C1511 C129 2.949 . S
C1525 C148 2.961 . S
C1529 C288 2.959 1_545 S
C1543 C369 2.999 . S
C1547 C329 3.034 . S
C1561 C449 2.786 . S
C1565 C349 2.757 . S
C1579 C388 2.744 . S
C1583 C469 2.686 . S
C1597 C428 3.060 1_554 S
C1601 C409 3.036 . S
C1615 C489 2.874 . S
C1619 C669 2.858 . S
C1633 C689 2.885 . S
C1637 C509 2.871 . S
C1651 C709 2.925 . S
C1655 C529 2.896 . S
C1669 C549 2.904 . S
C1673 C649 2.886 . S
C1687 C789 2.812 . S
C1691 C569 2.800 . S
C1705 C589 2.905 . S
C1709 C729 2.894 . S
C1723 C609 2.943 . S
C1727 C749 2.937 . S
C1741 C628 2.967 . S
C1745 C768 2.962 . S
C1759 C809 3.031 . S
C1763 C849 2.992 . S
C1777 C929 2.783 . S
C1781 C829 2.767 . S
C1795 C949 2.691 . S
C1799 C868 2.741 . S
C1813 C889 3.041 . S
C1817 C908 3.055 . S
C1831 C18 0.934 . S
C1835 C62 0.885 . S
C1849 C2 0.631 . S
C1853 C38 0.541 . S
C1867 C58 0.926 . S
C1871 C22 0.920 . S
C1885 C78 0.557 . S
C1889 C42 0.581 . S
C1903 C102 0.800 . S
C1907 C98 0.848 . S
C1921 C122 0.654 . S
C1925 C118 0.642 . S
C1939 C138 1.055 . S
C1943 C159 1.072 . S
C1957 C82 0.533 . S
C1961 C141 0.513 . S
C1975 C178 0.694 . S
C1979 C362 0.674 . S
C1993 C198 1.035 . S
C1997 C399 1.041 . S
C2011 C218 0.836 1_565 S
C2015 C402 0.829 . S
C2029 C238 0.808 . S
C2033 C342 0.782 . S
C2047 C258 0.570 . S
C2051 C442 0.580 . S
C2065 C322 0.825 . S
C2069 C278 0.848 . S
C2083 C462 0.578 . S
C2087 C281 0.569 . S
C2101 C318 1.183 . S
C2105 C439 1.190 . S
C2119 C338 0.811 . S
C2123 C182 0.785 . S
C2137 C358 0.591 . S
C2141 C302 0.617 . S
C2155 C378 0.922 1_556 S
C2159 C242 0.919 . S
C2173 C262 0.509 . S
C2177 C381 0.500 . S
C2191 C299 0.979 . S
C2195 C418 0.962 . S
C2209 C222 0.551 . S
C2213 C421 0.558 . S
C2227 C162 0.794 . S
C2231 C458 0.765 . S
C2245 C478 0.604 . S
C2249 C202 0.615 . S
C2263 C498 0.937 . S
C2267 C542 0.882 . S
C2281 C518 0.569 . S
C2285 C482 0.583 . S
C2299 C502 0.892 . S
C2303 C538 0.946 . S
C2317 C522 0.578 . S
C2321 C558 0.563 . S
C2335 C578 0.830 . S
C2339 C582 0.823 . S
C2353 C602 0.655 . S
C2357 C598 0.641 . S
C2371 C639 1.073 . S
C2375 C618 1.049 . S
C2389 C621 0.513 . S
C2393 C562 0.534 . S
C2407 C658 0.672 . S
C2411 C842 0.704 . S
C2425 C879 1.042 . S
C2429 C678 1.035 . S
C2443 C882 0.807 . S
C2447 C698 0.853 . S
C2461 C718 0.805 . S
C2465 C822 0.767 . S
C2479 C922 0.590 . S
C2483 C738 0.567 . S
C2497 C758 0.859 . S
C2501 C802 0.819 . S
C2515 C761 0.568 . S
C2519 C942 0.579 . S
C2533 C798 1.187 . S
C2537 C919 1.186 . S
C2551 C662 0.813 . S
C2555 C818 0.806 . S
C2569 C782 0.642 . S
C2573 C838 0.576 . S
C2587 C722 0.917 . S
C2591 C858 0.923 . S
C2605 C861 0.501 . S
C2609 C742 0.507 . S
C2623 C779 0.984 . S
C2627 C898 0.964 . S
C2641 C901 0.606 . S
C2645 C702 0.513 . S
C2659 C938 0.782 . S
C2663 C642 0.769 . S
C2677 C682 0.610 . S
C2681 C958 0.611 . S
C2695 C1 0.538 . S
C2699 C881 0.546 . S
C2713 C821 0.617 . S
C2717 C21 0.626 . S
C2731 C41 0.572 . S
C2735 C841 0.570 . S
C2749 C61 0.964 . S
C2753 C878 0.991 . S
C2767 C81 0.534 . S
C2771 C941 0.528 . S
C2785 C101 0.981 . S
C2789 C918 0.995 . S
C2803 C121 0.493 . S
C2807 C921 0.515 . S
C2821 C158 0.999 . S
C2825 C801 0.979 . S
C2839 C161 0.505 . S
C2843 C781 0.500 . S
C2857 C181 0.562 . S
C2861 C721 0.563 . S
C2875 C201 0.560 . S
C2879 C741 0.566 . S
C2893 C221 0.831 . S
C2897 C778 0.845 . S
C2911 C241 0.593 . S
C2915 C661 0.573 . S
C2929 C261 0.539 . S
C2933 C681 0.546 . S
C2947 C298 0.845 . S
C2951 C701 0.830 . S
C2965 C301 0.527 . S
C2969 C641 0.527 . S
C2983 C321 0.974 . S
C2987 C638 0.988 . S
C3001 C341 0.606 . S
C3005 C501 0.621 . S
C3019 C361 0.569 . S
C3023 C521 0.572 . S
C3037 C398 0.969 1_556 S
C3041 C541 0.966 . S
C3055 C401 0.546 . S
C3059 C481 0.563 . S
C3073 C438 0.993 . S
C3077 C581 0.982 . S
C3091 C441 0.506 . S
C3095 C601 0.495 . S
C3109 C461 0.559 . S
C3113 C561 0.567 . S
C3127 C99 1.530 . S
C3131 C859 1.536 . S
C3145 C119 0.827 . S
C3149 C862 0.805 . S
C3163 C139 1.678 . S
C3167 C899 1.679 . S
C3181 C142 0.782 . S
C3185 C839 0.789 . S
C3199 C19 1.641 . S
C3203 C939 1.647 . S
C3217 C39 1.362 . S
C3221 C819 1.358 . S
C3235 C59 1.443 . S
C3239 C959 1.443 . S
C3253 C902 0.838 . S
C3257 C79 0.840 . S
C3271 C282 0.927 . S
C3275 C679 0.937 . S
C3289 C319 1.694 . S
C3293 C699 1.692 . S
C3307 C259 1.354 . S
C3311 C719 1.347 . S
C3325 C279 1.541 . S
C3329 C659 1.544 . S
C3343 C219 1.692 . S
C3347 C799 1.691 . S
C3361 C239 1.353 . S
C3365 C739 1.355 . S
C3379 C179 1.551 . S
C3383 C759 1.548 . S
C3397 C199 0.938 . S
C3401 C762 0.920 . S
C3415 C422 0.832 . S
C3419 C559 0.832 . S
C3433 C382 0.804 . S
C3437 C599 0.802 . S
C3451 C419 1.674 . S
C3455 C619 1.675 . S
C3469 C359 0.804 . S
C3473 C622 0.796 . S
C3487 C379 1.538 . S
C3491 C579 1.533 . S
C3505 C339 1.359 . S
C3509 C519 1.362 . S
C3523 C479 1.444 . S
C3527 C539 1.448 . S
C3541 C459 1.639 . S
C3545 C499 1.639 . S
