# Generated by pormake.
# Topology zfr, (5)-cn, num edge types: 1
# Building blocks:
#     Node 0, Type 0, BuildingBlock: XOMCOT_clean_sbu_1, # of connection points: 5
#     Node 1, Type 0, BuildingBlock: XOMCOT_clean_sbu_1, # of connection points: 5
#     Node 2, Type 0, BuildingBlock: XOMCOT_clean_sbu_1, # of connection points: 5
#     Node 3, Type 0, BuildingBlock: XOMCOT_clean_sbu_1, # of connection points: 5
#     Node 4, Type 0, BuildingBlock: XOMCOT_clean_sbu_1, # of connection points: 5
#     Node 5, Type 0, BuildingBlock: XOMCOT_clean_sbu_1, # of connection points: 5
#     Node 6, Type 0, BuildingBlock: XOMCOT_clean_sbu_1, # of connection points: 5
#     Node 7, Type 0, BuildingBlock: XOMCOT_clean_sbu_1, # of connection points: 5
#     Edge 8, Type (0, 0), BuildingBlock: ZUJKAS_clean_linker_0, # of connection points: 2
#     Edge 9, Type (0, 0), BuildingBlock: ZUJKAS_clean_linker_0, # of connection points: 2
#     Edge 10, Type (0, 0), BuildingBlock: ZUJKAS_clean_linker_0, # of connection points: 2
#     Edge 11, Type (0, 0), BuildingBlock: ZUJKAS_clean_linker_0, # of connection points: 2
#     Edge 12, Type (0, 0), BuildingBlock: ZUJKAS_clean_linker_0, # of connection points: 2
#     Edge 13, Type (0, 0), BuildingBlock: ZUJKAS_clean_linker_0, # of connection points: 2
#     Edge 14, Type (0, 0), BuildingBlock: ZUJKAS_clean_linker_0, # of connection points: 2
#     Edge 15, Type (0, 0), BuildingBlock: ZUJKAS_clean_linker_0, # of connection points: 2
#     Edge 16, Type (0, 0), BuildingBlock: ZUJKAS_clean_linker_0, # of connection points: 2
#     Edge 17, Type (0, 0), BuildingBlock: ZUJKAS_clean_linker_0, # of connection points: 2
#     Edge 18, Type (0, 0), BuildingBlock: ZUJKAS_clean_linker_0, # of connection points: 2
#     Edge 19, Type (0, 0), BuildingBlock: ZUJKAS_clean_linker_0, # of connection points: 2
#     Edge 20, Type (0, 0), BuildingBlock: ZUJKAS_clean_linker_0, # of connection points: 2
#     Edge 21, Type (0, 0), BuildingBlock: ZUJKAS_clean_linker_0, # of connection points: 2
#     Edge 22, Type (0, 0), BuildingBlock: ZUJKAS_clean_linker_0, # of connection points: 2
#     Edge 23, Type (0, 0), BuildingBlock: ZUJKAS_clean_linker_0, # of connection points: 2
#     Edge 24, Type (0, 0), BuildingBlock: ZUJKAS_clean_linker_0, # of connection points: 2
#     Edge 25, Type (0, 0), BuildingBlock: ZUJKAS_clean_linker_0, # of connection points: 2
#     Edge 26, Type (0, 0), BuildingBlock: ZUJKAS_clean_linker_0, # of connection points: 2
#     Edge 27, Type (0, 0), BuildingBlock: ZUJKAS_clean_linker_0, # of connection points: 2
# Relax obj value: 0.183
# Max RMSD: 0.172
# Mean RMSD: 0.172
data_MOF--net-zfr--node1-XOMCOT_clean_sbu_1--edge1-ZUJKAS_clean_linker_0
_symmetry_space_group_name_H-M    P1
_symmetry_Int_Tables_number       1
_symmetry_cell_setting            triclinic
loop_
_symmetry_equiv_pos_as_xyz
'x, y, z'
_cell_length_a     65.508998
_cell_length_b     65.492887
_cell_length_c     21.624891
_cell_angle_alpha  89.989869
_cell_angle_beta   90.006967
_cell_angle_gamma 89.981897
loop_
_atom_site_label
_atom_site_type_symbol
_atom_site_fract_x
_atom_site_fract_y
_atom_site_fract_z
_atom_type_partial_charge
C0 C 0.14832 0.33845 0.20654 0.0
C1 C 0.15365 0.33848 0.14498 0.0
N2 N 0.14091 0.3258 0.11478 0.0
N3 N 0.13206 0.32612 0.21463 0.0
C4 C 0.12812 0.31834 0.15807 0.0
H5 H 0.15524 0.34751 0.24272 0.0
Co6 Co 0.11772 0.3232 0.28814 0.0
C7 C 0.07499 0.32409 0.24191 0.0
O8 O 0.07064 0.33844 0.28235 0.0
N9 N 0.10411 0.31959 0.36422 0.0
C10 C 0.08399 0.30916 0.44128 0.0
C11 C 0.08596 0.3108 0.37818 0.0
C12 C 0.11331 0.32186 0.41979 0.0
N13 N 0.10128 0.31605 0.46715 0.0
O14 O 0.12561 0.29511 0.29171 0.0
H15 H 0.0753 0.30449 0.34539 0.0
H16 H 0.1289 0.32698 0.42545 0.0
O17 O 0.09287 0.31618 0.24108 0.0
C18 C 0.14298 0.29338 0.31767 0.0
O19 O 0.15243 0.31014 0.33486 0.0
N20 N 0.11146 0.35164 0.28566 0.0
C21 C 0.10781 0.39425 0.27925 0.0
C22 C 0.102 0.38193 0.22925 0.0
C23 C 0.10428 0.36076 0.23295 0.0
C24 C 0.11769 0.3635 0.33398 0.0
C25 C 0.11572 0.38473 0.33215 0.0
H26 H 0.10067 0.35174 0.1926 0.0
H27 H 0.12518 0.35677 0.37321 0.0
H28 H 0.11546 0.30824 0.14806 0.0
H29 H 0.16562 0.34747 0.12378 0.0
H30 H 0.07141 0.30223 0.46606 0.0
H31 H 0.09598 0.38856 0.18715 0.0
H32 H 0.1212 0.39363 0.37093 0.0
C33 C 0.66657 0.15299 0.43364 0.0
C34 C 0.66683 0.15843 0.37219 0.0
N35 N 0.67864 0.14495 0.34151 0.0
N36 N 0.67804 0.13612 0.44145 0.0
C37 C 0.68536 0.13169 0.38475 0.0
H38 H 0.6583 0.16062 0.47025 0.0
Co39 Co 0.6818 0.12245 0.51558 0.0
C40 C 0.68113 0.07909 0.47643 0.0
O41 O 0.66788 0.07522 0.52058 0.0
N42 N 0.68639 0.10952 0.59176 0.0
C43 C 0.70111 0.09142 0.66681 0.0
C44 C 0.6983 0.09313 0.60414 0.0
C45 C 0.68323 0.11811 0.64776 0.0
N46 N 0.69162 0.1072 0.69421 0.0
O47 O 0.70995 0.13014 0.51579 0.0
H48 H 0.70594 0.08381 0.57011 0.0
H49 H 0.67661 0.13308 0.65407 0.0
O50 O 0.68834 0.09715 0.47034 0.0
C51 C 0.71286 0.14861 0.53194 0.0
O52 O 0.69692 0.16016 0.54372 0.0
N53 N 0.65336 0.11616 0.51613 0.0
C54 C 0.61078 0.11201 0.51274 0.0
C55 C 0.62287 0.10506 0.46363 0.0
C56 C 0.64402 0.10765 0.46565 0.0
C57 C 0.64168 0.12364 0.5632 0.0
C58 C 0.62047 0.12144 0.56296 0.0
H59 H 0.65281 0.10333 0.42547 0.0
H60 H 0.64851 0.13227 0.59999 0.0
H61 H 0.69491 0.1186 0.37503 0.0
H62 H 0.65885 0.17123 0.35176 0.0
H63 H 0.71016 0.07992 0.69004 0.0
H64 H 0.616 0.09841 0.42277 0.0
H65 H 0.61172 0.12742 0.60141 0.0
C66 C 0.84602 0.66739 0.6538 0.0
C67 C 0.84128 0.66916 0.59205 0.0
N68 N 0.85532 0.68131 0.56515 0.0
N69 N 0.86296 0.67836 0.66573 0.0
C70 C 0.86816 0.68681 0.61106 0.0
H71 H 0.83804 0.65818 0.68755 0.0
Co72 Co 0.87642 0.6793 0.74106 0.0
C73 C 0.91392 0.70151 0.70554 0.0
O74 O 0.91102 0.71518 0.74913 0.0
N75 N 0.88962 0.68002 0.81669 0.0
C76 C 0.91147 0.67552 0.89385 0.0
C77 C 0.90874 0.67398 0.83095 0.0
C78 C 0.881 0.68502 0.87117 0.0
N79 N 0.89397 0.68245 0.91904 0.0
O80 O 0.86904 0.70747 0.75039 0.0
H81 H 0.91977 0.66827 0.798 0.0
H82 H 0.86519 0.68957 0.87582 0.0
O83 O 0.90141 0.68676 0.69928 0.0
C84 C 0.85037 0.71064 0.76357 0.0
O85 O 0.83798 0.69493 0.76784 0.0
N86 N 0.88243 0.6515 0.73377 0.0
C87 C 0.88675 0.60919 0.72782 0.0
C88 C 0.89746 0.6219 0.68684 0.0
C89 C 0.89493 0.64308 0.69015 0.0
C90 C 0.87193 0.63942 0.77393 0.0
C91 C 0.87389 0.61822 0.77189 0.0
H92 H 0.90266 0.65256 0.65673 0.0
H93 H 0.86178 0.64634 0.80737 0.0
H94 H 0.88129 0.69659 0.60478 0.0
H95 H 0.829 0.66134 0.56839 0.0
H96 H 0.92517 0.67155 0.91909 0.0
H97 H 0.90724 0.61551 0.6514 0.0
H98 H 0.86543 0.60899 0.80459 0.0
C99 C 0.33604 0.85068 0.92491 0.0
C100 C 0.33534 0.84542 0.86333 0.0
N101 N 0.32351 0.85913 0.83372 0.0
N102 N 0.32473 0.86762 0.93381 0.0
C103 C 0.31712 0.87228 0.87766 0.0
H104 H 0.34456 0.84294 0.9608 0.0
Co105 Co 0.32129 0.88113 0.00829 0.0
C106 C 0.32254 0.92449 0.9681 0.0
O107 O 0.33622 0.92836 0.01103 0.0
N108 N 0.317 0.89388 0.08478 0.0
C109 C 0.30342 0.91212 0.16133 0.0
C110 C 0.30638 0.91099 0.09859 0.0
C111 C 0.31917 0.88435 0.13978 0.0
N112 N 0.31146 0.89528 0.18724 0.0
O113 O 0.29307 0.87376 0.00887 0.0
H114 H 0.29952 0.92124 0.0655 0.0
H115 H 0.3252 0.86907 0.1444 0.0
O116 O 0.31496 0.90655 0.96349 0.0
C117 C 0.29006 0.85527 0.02455 0.0
O118 O 0.30594 0.84353 0.03528 0.0
N119 N 0.34979 0.88709 0.0087 0.0
C120 C 0.39243 0.89059 0.00589 0.0
C121 C 0.38053 0.89746 0.95619 0.0
C122 C 0.35933 0.89522 0.95799 0.0
C123 C 0.36126 0.87979 0.0565 0.0
C124 C 0.38249 0.88168 0.05653 0.0
H125 H 0.35064 0.89953 0.91758 0.0
H126 H 0.35424 0.8716 0.09387 0.0
H127 H 0.30715 0.88513 0.86906 0.0
H128 H 0.34348 0.83292 0.84177 0.0
H129 H 0.29474 0.92373 0.18537 0.0
H130 H 0.38758 0.90378 0.91513 0.0
H131 H 0.39106 0.87587 0.0956 0.0
C132 C 0.15491 0.66832 0.33286 0.0
C133 C 0.16007 0.66897 0.39453 0.0
N134 N 0.147 0.6817 0.4234 0.0
N135 N 0.13865 0.68051 0.32322 0.0
C136 C 0.13433 0.68862 0.37894 0.0
H137 H 0.16226 0.65928 0.29742 0.0
Co138 Co 0.1255 0.68465 0.24858 0.0
C139 C 0.08189 0.6842 0.28569 0.0
O140 O 0.07802 0.67142 0.24028 0.0
N141 N 0.11314 0.68965 0.17191 0.0
C142 C 0.09567 0.7044 0.09559 0.0
C143 C 0.0967 0.70134 0.15832 0.0
C144 C 0.12249 0.68702 0.11684 0.0
N145 N 0.11199 0.69541 0.06956 0.0
O146 O 0.13326 0.71276 0.24988 0.0
H147 H 0.08692 0.70874 0.19164 0.0
H148 H 0.13744 0.68026 0.11196 0.0
O149 O 0.10002 0.69107 0.29296 0.0
C150 C 0.15187 0.71584 0.23573 0.0
O151 O 0.16372 0.7 0.22554 0.0
N152 N 0.11904 0.65626 0.24642 0.0
C153 C 0.11441 0.61372 0.24709 0.0
C154 C 0.10723 0.62558 0.29643 0.0
C155 C 0.11006 0.64672 0.2958 0.0
C156 C 0.12673 0.64479 0.1992 0.0
C157 C 0.1243 0.62361 0.19807 0.0
H158 H 0.10557 0.65532 0.33619 0.0
H159 H 0.13567 0.65175 0.16334 0.0
H160 H 0.12212 0.69944 0.38673 0.0
H161 H 0.17207 0.66027 0.41661 0.0
H162 H 0.08457 0.71375 0.07162 0.0
H163 H 0.10022 0.61852 0.33644 0.0
H164 H 0.13045 0.61504 0.1595 0.0
C165 C 0.33459 0.15125 0.54522 0.0
C166 C 0.33408 0.15649 0.60686 0.0
N167 N 0.32273 0.14251 0.63702 0.0
N168 N 0.32368 0.13404 0.53689 0.0
C169 C 0.31641 0.12925 0.59334 0.0
H170 H 0.34282 0.15911 0.50899 0.0
Co171 Co 0.32063 0.1202 0.46303 0.0
C172 C 0.32045 0.07695 0.50322 0.0
O173 O 0.33397 0.07287 0.46001 0.0
N174 N 0.31676 0.10709 0.3867 0.0
C175 C 0.30259 0.08922 0.31021 0.0
C176 C 0.30493 0.09075 0.37314 0.0
C177 C 0.32036 0.1158 0.33114 0.0
N178 N 0.31224 0.1051 0.28387 0.0
O179 O 0.29265 0.12845 0.45983 0.0
H180 H 0.29685 0.0815 0.4064 0.0
H181 H 0.32746 0.13056 0.32571 0.0
O182 O 0.31331 0.09508 0.50827 0.0
C183 C 0.29094 0.14567 0.43291 0.0
O184 O 0.30769 0.15485 0.41427 0.0
N185 N 0.34898 0.11353 0.46562 0.0
C186 C 0.39148 0.10885 0.47301 0.0
C187 C 0.3788 0.10224 0.52125 0.0
C188 C 0.3577 0.10507 0.51719 0.0
C189 C 0.36122 0.12074 0.41949 0.0
C190 C 0.38238 0.11825 0.42169 0.0
H191 H 0.34845 0.10088 0.55652 0.0
H192 H 0.35489 0.12945 0.38208 0.0
H193 H 0.30683 0.11615 0.60244 0.0
H194 H 0.3421 0.16912 0.6281 0.0
H195 H 0.29315 0.07822 0.28619 0.0
H196 H 0.3851 0.09516 0.56229 0.0
H197 H 0.3916 0.12446 0.38461 0.0
C198 C 0.85317 0.33662 0.81323 0.0
C199 C 0.84863 0.33777 0.87524 0.0
N200 N 0.8621 0.32604 0.90617 0.0
N201 N 0.86953 0.32439 0.80544 0.0
C202 C 0.87449 0.31801 0.86273 0.0
H203 H 0.84531 0.34446 0.77621 0.0
Co204 Co 0.88241 0.31894 0.73122 0.0
C205 C 0.92643 0.31683 0.76448 0.0
O206 O 0.93106 0.32779 0.7155 0.0
N207 N 0.89488 0.31283 0.65549 0.0
C208 C 0.91116 0.29499 0.58298 0.0
C209 C 0.90797 0.29722 0.64534 0.0
C210 C 0.88979 0.31931 0.59824 0.0
N211 N 0.89963 0.3089 0.55339 0.0
O212 O 0.874 0.29102 0.73596 0.0
H213 H 0.91399 0.28726 0.68082 0.0
H214 H 0.87784 0.33016 0.58885 0.0
O215 O 0.90778 0.31232 0.77552 0.0
C216 C 0.85535 0.28831 0.72163 0.0
O217 O 0.84403 0.30434 0.70898 0.0
N218 N 0.88909 0.34702 0.72552 0.0
C219 C 0.89186 0.38964 0.72001 0.0
C220 C 0.9033 0.37853 0.76327 0.0
C221 C 0.90124 0.3573 0.76649 0.0
C222 C 0.87711 0.35775 0.68547 0.0
C223 C 0.87854 0.37895 0.68099 0.0
H224 H 0.90862 0.34945 0.80418 0.0
H225 H 0.86542 0.34999 0.65942 0.0
H226 H 0.88735 0.3082 0.87274 0.0
H227 H 0.83647 0.34663 0.89592 0.0
H228 H 0.92062 0.28351 0.56121 0.0
H229 H 0.91297 0.38627 0.79647 0.0
H230 H 0.86891 0.38694 0.64821 0.0
C231 C 0.66675 0.84987 0.06597 0.0
C232 C 0.66686 0.84452 0.12749 0.0
N233 N 0.67904 0.8577 0.158 0.0
N234 N 0.67868 0.86642 0.05797 0.0
C235 C 0.68611 0.87072 0.11461 0.0
H236 H 0.65832 0.8424 0.02941 0.0
Co237 Co 0.68301 0.87981 0.98373 0.0
C238 C 0.68282 0.9233 0.02138 0.0
O239 O 0.66998 0.9272 0.97615 0.0
N240 N 0.68819 0.89247 0.90749 0.0
C241 C 0.70361 0.91016 0.83284 0.0
C242 C 0.70062 0.90849 0.89545 0.0
C243 C 0.68491 0.88401 0.85139 0.0
N244 N 0.6937 0.89469 0.80518 0.0
O245 O 0.71104 0.87168 0.9851 0.0
H246 H 0.70842 0.91758 0.92972 0.0
H247 H 0.67789 0.86924 0.84483 0.0
O248 O 0.68966 0.90514 0.02868 0.0
C249 C 0.71366 0.85311 0.96967 0.0
O250 O 0.69755 0.84186 0.95745 0.0
N251 N 0.65468 0.88651 0.98166 0.0
C252 C 0.61212 0.89108 0.98313 0.0
C253 C 0.62408 0.89819 0.03237 0.0
C254 C 0.64522 0.8954 0.03131 0.0
C255 C 0.64313 0.87885 0.93458 0.0
C256 C 0.62195 0.88129 0.9338 0.0
H257 H 0.65388 0.89989 0.07157 0.0
H258 H 0.65001 0.86977 0.89889 0.0
H259 H 0.69605 0.88352 0.12414 0.0
H260 H 0.65857 0.83195 0.14805 0.0
H261 H 0.71303 0.9214 0.80983 0.0
H262 H 0.61718 0.90557 0.072 0.0
H263 H 0.61327 0.87469 0.89612 0.0
H264 H 0.28401 0.18115 0.37185 0.0
H265 H 0.25167 0.19814 0.35282 0.0
H266 H 0.21974 0.14953 0.44627 0.0
H267 H 0.25249 0.13227 0.46642 0.0
H268 H 0.21663 0.18411 0.28913 0.0
H269 H 0.20086 0.20204 0.53663 0.0
H270 H 0.22579 0.19395 0.51094 0.0
H271 H 0.2053 0.17584 0.51547 0.0
C272 C 0.27018 0.17396 0.38853 0.0
C273 C 0.27088 0.15539 0.42113 0.0
C274 C 0.25165 0.18368 0.37725 0.0
C275 C 0.2333 0.17518 0.39831 0.0
C276 C 0.23376 0.15646 0.43014 0.0
H277 H 0.12965 0.25489 0.28401 0.0
H278 H 0.14693 0.22215 0.3044 0.0
C279 C 0.25245 0.14662 0.4415 0.0
C280 C 0.21409 0.18672 0.388 0.0
H281 H 0.18116 0.21885 0.46213 0.0
C282 C 0.20845 0.19132 0.32688 0.0
C283 C 0.20353 0.1961 0.43744 0.0
C284 C 0.20912 0.1919 0.50393 0.0
C285 C 0.19363 0.20622 0.3138 0.0
C286 C 0.18403 0.21658 0.36326 0.0
C287 C 0.18854 0.21083 0.42435 0.0
C288 C 0.17241 0.23574 0.35309 0.0
C289 C 0.18954 0.21194 0.24734 0.0
C290 C 0.1808 0.2541 0.37452 0.0
C291 C 0.17107 0.27262 0.36307 0.0
C292 C 0.15261 0.2733 0.32995 0.0
C293 C 0.14391 0.25487 0.30935 0.0
C294 C 0.15377 0.23619 0.32084 0.0
H295 H 0.1998 0.2038 0.21467 0.0
H296 H 0.17353 0.20808 0.2354 0.0
H297 H 0.19153 0.22864 0.24073 0.0
H298 H 0.19519 0.25414 0.39929 0.0
H299 H 0.17819 0.28645 0.38001 0.0
H300 H 0.81591 0.27739 0.73733 0.0
H301 H 0.79984 0.2451 0.70903 0.0
H302 H 0.85843 0.22069 0.65609 0.0
H303 H 0.87479 0.25314 0.68559 0.0
H304 H 0.82568 0.21993 0.56205 0.0
H305 H 0.80131 0.18625 0.78501 0.0
H306 H 0.79629 0.21316 0.7793 0.0
H307 H 0.82223 0.20416 0.77885 0.0
C308 C 0.82546 0.26499 0.72103 0.0
C309 C 0.84657 0.26772 0.71371 0.0
C310 C 0.81627 0.24652 0.70516 0.0
C311 C 0.82797 0.23046 0.68104 0.0
C312 C 0.8492 0.23286 0.6753 0.0
H313 H 0.74754 0.12839 0.56862 0.0
H314 H 0.7802 0.14403 0.59959 0.0
C315 C 0.8585 0.25132 0.69232 0.0
C316 C 0.81733 0.21235 0.65561 0.0
H317 H 0.7814 0.17696 0.69508 0.0
C318 C 0.81647 0.21008 0.59113 0.0
C319 C 0.80542 0.19945 0.69358 0.0
C320 C 0.80646 0.20071 0.76312 0.0
C321 C 0.8026 0.19649 0.56358 0.0
C322 C 0.78934 0.18498 0.60153 0.0
C323 C 0.79153 0.18589 0.66603 0.0
C324 C 0.77101 0.17479 0.57592 0.0
C325 C 0.80138 0.1954 0.49405 0.0
C326 C 0.7552 0.1869 0.55215 0.0
C327 C 0.73662 0.17812 0.53548 0.0
C328 C 0.73352 0.15701 0.54161 0.0
C329 C 0.74965 0.14469 0.56285 0.0
C330 C 0.76823 0.15358 0.5807 0.0
H331 H 0.81593 0.20031 0.47219 0.0
H332 H 0.7977 0.17966 0.47849 0.0
H333 H 0.78909 0.20573 0.47765 0.0
H334 H 0.75694 0.20332 0.54895 0.0
H335 H 0.72445 0.18797 0.51926 0.0
H336 H 0.81151 0.724 0.75142 0.0
H337 H 0.79718 0.75636 0.78639 0.0
H338 H 0.85682 0.77607 0.84598 0.0
H339 H 0.87146 0.74351 0.80988 0.0
H340 H 0.82357 0.77741 0.93855 0.0
H341 H 0.8029 0.81618 0.71982 0.0
H342 H 0.79615 0.7896 0.72083 0.0
H343 H 0.8226 0.79687 0.72435 0.0
C344 C 0.82167 0.73535 0.77092 0.0
C345 C 0.84259 0.73127 0.77793 0.0
C346 C 0.81348 0.75388 0.79056 0.0
C347 C 0.82597 0.76868 0.81815 0.0
C348 C 0.84699 0.7649 0.82416 0.0
H349 H 0.74902 0.87254 0.93514 0.0
H350 H 0.78142 0.85614 0.90536 0.0
C351 C 0.85531 0.74638 0.80343 0.0
C352 C 0.8163 0.78697 0.84582 0.0
H353 H 0.78271 0.82496 0.80971 0.0
C354 C 0.81512 0.78824 0.91049 0.0
C355 C 0.80546 0.80119 0.80921 0.0
C356 C 0.80697 0.80106 0.73965 0.0
C357 C 0.80185 0.80214 0.93929 0.0
C358 C 0.78946 0.81496 0.90239 0.0
C359 C 0.79212 0.81503 0.83799 0.0
C360 C 0.77141 0.82558 0.92826 0.0
C361 C 0.80031 0.80221 0.00885 0.0
C362 C 0.7552 0.81384 0.95126 0.0
C363 C 0.73677 0.82306 0.96728 0.0
C364 C 0.73419 0.84424 0.96117 0.0
C365 C 0.75071 0.85619 0.94086 0.0
C366 C 0.76915 0.84687 0.92373 0.0
H367 H 0.8147 0.79675 0.0305 0.0
H368 H 0.79679 0.81774 0.02654 0.0
H369 H 0.78784 0.79178 0.02329 0.0
H370 H 0.75648 0.79737 0.95408 0.0
H371 H 0.72429 0.81348 0.98279 0.0
H372 H 0.19103 0.72814 0.24857 0.0
H373 H 0.20595 0.76055 0.2163 0.0
H374 H 0.1464 0.78255 0.16337 0.0
H375 H 0.13121 0.74995 0.19671 0.0
H376 H 0.17796 0.78371 0.06821 0.0
H377 H 0.20373 0.81982 0.28592 0.0
H378 H 0.20975 0.79309 0.28215 0.0
H379 H 0.18347 0.80108 0.28333 0.0
C380 C 0.18103 0.74004 0.23139 0.0
C381 C 0.15998 0.73657 0.22518 0.0
C382 C 0.18956 0.7586 0.2133 0.0
C383 C 0.17726 0.77403 0.18808 0.0
C384 C 0.1561 0.77089 0.18341 0.0
H385 H 0.25599 0.87578 0.06467 0.0
H386 H 0.22356 0.86038 0.09876 0.0
C387 C 0.14746 0.75234 0.20261 0.0
C388 C 0.18721 0.79215 0.16033 0.0
H389 H 0.22292 0.82842 0.19363 0.0
C390 C 0.18732 0.79394 0.09565 0.0
C391 C 0.19925 0.8056 0.19613 0.0
C392 C 0.19892 0.80497 0.26581 0.0
C393 C 0.20065 0.80752 0.06575 0.0
C394 C 0.21416 0.8195 0.1015 0.0
C395 C 0.21264 0.81912 0.16623 0.0
C396 C 0.23215 0.82959 0.07346 0.0
C397 C 0.20101 0.80811 0.99607 0.0
C398 C 0.24755 0.8174 0.04767 0.0
C399 C 0.266 0.82604 0.02919 0.0
C400 C 0.26939 0.84709 0.03553 0.0
C401 C 0.25364 0.85952 0.05866 0.0
C402 C 0.2352 0.85077 0.07829 0.0
H403 H 0.18613 0.80327 0.97628 0.0
H404 H 0.20472 0.82366 0.97896 0.0
H405 H 0.21291 0.79744 0.97898 0.0
H406 H 0.24565 0.801 0.04451 0.0
H407 H 0.27789 0.81611 0.01158 0.0
H408 H 0.13677 0.3034 0.5175 0.0
H409 H 0.14509 0.30163 0.62798 0.0
H410 H 0.08606 0.32717 0.67188 0.0
H411 H 0.07741 0.32773 0.56173 0.0
H412 H 0.14992 0.3286 0.71105 0.0
H413 H 0.0854 0.2808 0.7877 0.0
H414 H 0.09089 0.28494 0.707 0.0
H415 H 0.07606 0.3033 0.75012 0.0
C416 C 0.12561 0.30851 0.55105 0.0
C417 C 0.10643 0.31557 0.53164 0.0
C418 C 0.13032 0.30748 0.61405 0.0
C419 C 0.11602 0.31379 0.65863 0.0
C420 C 0.09706 0.32144 0.63882 0.0
H421 H 0.14486 0.35472 0.02709 0.0
H422 H 0.14005 0.35051 0.9158 0.0
C423 C 0.09218 0.32197 0.57597 0.0
C424 C 0.12124 0.3132 0.72556 0.0
H425 H 0.10256 0.2999 0.86729 0.0
C426 C 0.13967 0.32206 0.74509 0.0
C427 C 0.10817 0.30424 0.77018 0.0
C428 C 0.08917 0.29258 0.75252 0.0
C429 C 0.14504 0.32288 0.80787 0.0
C430 C 0.13116 0.31545 0.85279 0.0
C431 C 0.11308 0.30592 0.83314 0.0
C432 C 0.13475 0.31787 0.9203 0.0
C433 C 0.16567 0.33143 0.82496 0.0
C434 C 0.13261 0.30113 0.96052 0.0
C435 C 0.13477 0.30369 0.02439 0.0
C436 C 0.13942 0.32295 0.04907 0.0
C437 C 0.14173 0.33964 0.00895 0.0
C438 C 0.13911 0.33719 0.94531 0.0
H439 H 0.17687 0.32916 0.78698 0.0
H440 H 0.16428 0.34811 0.83284 0.0
H441 H 0.17181 0.3242 0.86753 0.0
H442 H 0.12912 0.2861 0.94252 0.0
H443 H 0.1329 0.29063 0.05459 0.0
H444 H 0.71103 0.12793 0.28284 0.0
H445 H 0.71538 0.12362 0.17134 0.0
H446 H 0.65841 0.15489 0.13946 0.0
H447 H 0.65382 0.1591 0.25072 0.0
H448 H 0.68828 0.10257 0.09439 0.0
H449 H 0.69753 0.18294 0.01802 0.0
H450 H 0.70058 0.17516 0.09763 0.0
H451 H 0.67549 0.17856 0.06557 0.0
C452 C 0.69945 0.13394 0.25216 0.0
C453 C 0.68204 0.14382 0.27579 0.0
C454 C 0.70203 0.13157 0.18848 0.0
C455 C 0.68735 0.13916 0.14726 0.0
C456 C 0.67015 0.14934 0.1705 0.0
H457 H 0.66293 0.12862 0.75653 0.0
H458 H 0.66274 0.13665 0.86708 0.0
C459 C 0.66755 0.15172 0.23416 0.0
C460 C 0.68923 0.1351 0.08028 0.0
H461 H 0.69175 0.15823 0.93907 0.0
C462 C 0.68924 0.11471 0.06039 0.0
C463 C 0.69036 0.15101 0.03625 0.0
C464 C 0.69118 0.17316 0.05532 0.0
C465 C 0.68983 0.10979 -0.00264 0.0
C466 C 0.6908 0.1257 0.95326 0.0
C467 C 0.69097 0.14609 0.97313 0.0
C468 C 0.69138 0.12144 0.88618 0.0
C469 C 0.68881 0.08762 0.97845 0.0
C470 C 0.70772 0.11056 0.86036 0.0
C471 C 0.70787 0.10597 0.79734 0.0
C472 C 0.69174 0.11232 0.75894 0.0
C473 C 0.67563 0.12364 0.78481 0.0
C474 C 0.67547 0.12818 0.8479 0.0
H475 H 0.68316 0.07776 0.0166 0.0
H476 H 0.67869 0.08558 0.93771 0.0
H477 H 0.70432 0.0823 0.96562 0.0
H478 H 0.72036 0.10562 0.88899 0.0
H479 H 0.72072 0.09761 0.77867 0.0
H480 H 0.91072 0.66169 0.01474 0.0
H481 H 0.90194 0.66483 0.12411 0.0
H482 H 0.85783 0.71148 0.08 0.0
H483 H 0.86681 0.7087 0.97023 0.0
H484 H 0.88457 0.71991 0.18565 0.0
H485 H 0.84655 0.64423 0.19716 0.0
H486 H 0.8717 0.64389 0.16392 0.0
H487 H 0.85146 0.65725 0.12503 0.0
C488 C 0.89934 0.67279 0.02826 0.0
C489 C 0.88939 0.68489 0.98376 0.0
C490 C 0.89421 0.67443 0.09069 0.0
C491 C 0.87906 0.68818 0.1098 0.0
C492 C 0.86946 0.70068 0.06592 0.0
H493 H 0.82536 0.68177 0.47861 0.0
H494 H 0.82961 0.6859 0.36688 0.0
C495 C 0.87452 0.69898 0.00331 0.0
C496 C 0.87318 0.68926 0.17567 0.0
H497 H 0.85337 0.66066 0.29298 0.0
C498 C 0.87759 0.70706 0.20916 0.0
C499 C 0.8638 0.67256 0.20573 0.0
C500 C 0.8579 0.65344 0.17113 0.0
C501 C 0.87355 0.70829 0.27283 0.0
C502 C 0.86509 0.69119 0.30349 0.0
C503 C 0.85997 0.6737 0.2694 0.0
C504 C 0.86225 0.69066 0.37136 0.0
C505 C 0.87841 0.72781 0.30673 0.0
C506 C 0.87919 0.69201 0.41078 0.0
C507 C 0.87684 0.68953 0.47451 0.0
C508 C 0.85749 0.68551 0.50004 0.0
C509 C 0.84049 0.6846 0.46042 0.0
C510 C 0.84286 0.68708 0.39664 0.0
H511 H 0.87918 0.74105 0.27465 0.0
H512 H 0.86684 0.73104 0.34295 0.0
H513 H 0.89351 0.72628 0.32955 0.0
H514 H 0.89436 0.69427 0.39206 0.0
H515 H 0.89034 0.68996 0.50332 0.0
H516 H 0.31219 0.85685 0.23535 0.0
H517 H 0.31149 0.84754 0.34476 0.0
H518 H 0.30783 0.91117 0.39458 0.0
H519 H 0.30889 0.92068 0.28549 0.0
H520 H 0.3398 0.86046 0.43705 0.0
H521 H 0.26057 0.8843 0.49183 0.0
H522 H 0.26934 0.8801 0.41364 0.0
H523 H 0.27537 0.9035 0.45301 0.0
C524 C 0.31136 0.8689 0.26943 0.0
C525 C 0.3106 0.88956 0.25153 0.0
C526 C 0.3108 0.86352 0.33192 0.0
C527 C 0.30929 0.87866 0.37748 0.0
C528 C 0.30853 0.89925 0.35993 0.0
H529 H 0.31625 0.89344 0.76746 0.0
H530 H 0.31164 0.89598 0.6558 0.0
C531 C 0.30914 0.90465 0.29756 0.0
C532 C 0.30956 0.87312 0.44366 0.0
H533 H 0.28261 0.87803 0.57776 0.0
C534 C 0.32721 0.86401 0.46784 0.0
C535 C 0.29308 0.8778 0.48334 0.0
C536 C 0.27343 0.88679 0.45916 0.0
C537 C 0.32923 0.86034 0.53144 0.0
C538 C 0.31296 0.86557 0.57143 0.0
C539 C 0.29505 0.87409 0.5469 0.0
C540 C 0.31474 0.86355 0.63928 0.0
C541 C 0.34909 0.85177 0.55558 0.0
C542 C 0.31763 0.8444 0.66703 0.0
C543 C 0.32027 0.84289 0.73099 0.0
C544 C 0.31986 0.86049 0.76823 0.0
C545 C 0.3164 0.87957 0.74028 0.0
C546 C 0.31386 0.88107 0.67643 0.0
H547 H 0.36149 0.85271 0.52066 0.0
H548 H 0.35403 0.86001 0.59787 0.0
H549 H 0.34692 0.83546 0.56779 0.0
H550 H 0.31794 0.83066 0.63919 0.0
H551 H 0.32258 0.82797 0.75133 0.0
H552 H 0.08664 0.69855 0.97144 0.0
H553 H 0.09615 0.6988 0.86215 0.0
H554 H 0.15966 0.69369 0.91223 0.0
H555 H 0.15033 0.69368 0.02167 0.0
H556 H 0.12352 0.72619 0.79818 0.0
H557 H 0.14927 0.64516 0.79268 0.0
H558 H 0.13368 0.65524 0.85439 0.0
H559 H 0.16043 0.6611 0.85132 0.0
C560 C 0.10264 0.69767 0.95927 0.0
C561 C 0.1177 0.69594 0.00529 0.0
C562 C 0.10803 0.69775 0.89688 0.0
C563 C 0.12856 0.69602 0.87937 0.0
C564 C 0.1437 0.69467 0.92499 0.0
H565 H 0.17796 0.68059 0.50657 0.0
H566 H 0.17539 0.68608 0.61836 0.0
C567 C 0.13832 0.69459 0.98748 0.0
C568 C 0.13397 0.69542 0.81316 0.0
H569 H 0.15172 0.6638 0.69998 0.0
C570 C 0.12979 0.71261 0.77664 0.0
C571 C 0.14227 0.6777 0.78559 0.0
C572 C 0.14658 0.65866 0.82272 0.0
C573 C 0.13346 0.71247 0.71277 0.0
C574 C 0.1411 0.69451 0.68483 0.0
C575 C 0.14586 0.67753 0.72168 0.0
C576 C 0.143 0.6925 0.61701 0.0
C577 C 0.12909 0.73153 0.67583 0.0
C578 C 0.12561 0.69415 0.57954 0.0
C579 C 0.12701 0.69097 0.51595 0.0
C580 C 0.14581 0.68588 0.48863 0.0
C581 C 0.16324 0.68432 0.52631 0.0
C582 C 0.16183 0.68755 0.59003 0.0
H583 H 0.12952 0.74539 0.70543 0.0
H584 H 0.14023 0.73341 0.63755 0.0
H585 H 0.11357 0.7304 0.6555 0.0
H586 H 0.11082 0.69739 0.59972 0.0
H587 H 0.11321 0.69186 0.48856 0.0
H588 H 0.31452 0.14331 0.23508 0.0
H589 H 0.31412 0.15242 0.12554 0.0
H590 H 0.30854 0.08882 0.07686 0.0
H591 H 0.30919 0.07952 0.18633 0.0
H592 H 0.34153 0.13912 0.03293 0.0
H593 H 0.26179 0.11648 0.98059 0.0
H594 H 0.27094 0.12027 0.05855 0.0
H595 H 0.27647 0.09692 0.01818 0.0
C596 C 0.31337 0.13122 0.20119 0.0
C597 C 0.31191 0.11064 0.21946 0.0
C598 C 0.31298 0.13649 0.13864 0.0
C599 C 0.31098 0.12132 0.09337 0.0
C600 C 0.30963 0.10078 0.11129 0.0
H601 H 0.3164 0.10785 0.70256 0.0
H602 H 0.31254 0.10481 0.81425 0.0
C603 C 0.31003 0.0955 0.17378 0.0
C604 C 0.31113 0.12681 0.02716 0.0
H605 H 0.28351 0.12273 0.89403 0.0
C606 C 0.32878 0.1358 0.00255 0.0
C607 C 0.29442 0.12246 0.98801 0.0
C608 C 0.27475 0.11367 0.01267 0.0
C609 C 0.33052 0.13974 0.93903 0.0
C610 C 0.31401 0.13486 0.89959 0.0
C611 C 0.29614 0.12641 0.92452 0.0
C612 C 0.31546 0.1372 0.83181 0.0
C613 C 0.35031 0.14827 0.9143 0.0
C614 C 0.31805 0.15648 0.8047 0.0
C615 C 0.32021 0.1583 0.74063 0.0
C616 C 0.31965 0.14086 0.70273 0.0
C617 C 0.31661 0.12163 0.73017 0.0
C618 C 0.3145 0.11983 0.79407 0.0
H619 H 0.36285 0.14723 0.94875 0.0
H620 H 0.35504 0.14006 0.87171 0.0
H621 H 0.34814 0.1646 0.90232 0.0
H622 H 0.31845 0.1701 0.83309 0.0
H623 H 0.32224 0.17332 0.72075 0.0
H624 H 0.88765 0.34268 0.49107 0.0
H625 H 0.8801 0.34526 0.38064 0.0
H626 H 0.89737 0.28224 0.35603 0.0
H627 H 0.90421 0.27928 0.4666 0.0
H628 H 0.90572 0.33876 0.27993 0.0
H629 H 0.84048 0.28464 0.27844 0.0
H630 H 0.85083 0.29519 0.3489 0.0
H631 H 0.86352 0.27434 0.31084 0.0
C632 C 0.88965 0.32931 0.46229 0.0
C633 C 0.89636 0.31073 0.4878 0.0
C634 C 0.88545 0.33085 0.39921 0.0
C635 C 0.88783 0.31383 0.36058 0.0
C636 C 0.89505 0.29542 0.38543 0.0
H637 H 0.87684 0.29328 0.96786 0.0
H638 H 0.8827 0.29056 0.07936 0.0
C639 C 0.89921 0.29385 0.44853 0.0
C640 C 0.88303 0.31545 0.29406 0.0
H641 H 0.85257 0.29589 0.18054 0.0
C642 C 0.89403 0.32949 0.2582 0.0
C643 C 0.86773 0.30331 0.26612 0.0
C644 C 0.85481 0.28865 0.30308 0.0
C645 C 0.8904 0.33146 0.19462 0.0
C646 C 0.87523 0.31922 0.16668 0.0
C647 C 0.86419 0.30521 0.20245 0.0
C648 C 0.87082 0.32061 0.10001 0.0
C649 C 0.90305 0.3463 0.15746 0.0
C650 C 0.86184 0.33825 0.07536 0.0
C651 C 0.85849 0.33985 0.0118 0.0
C652 C 0.86412 0.32383 0.97202 0.0
C653 C 0.87263 0.30597 -0.00272 0.0
C654 C 0.87588 0.30434 0.06085 0.0
H655 H 0.9166 0.35175 0.18357 0.0
H656 H 0.90829 0.33913 0.11369 0.0
H657 H 0.89356 0.35975 0.14529 0.0
H658 H 0.85767 0.35086 0.10522 0.0
H659 H 0.85207 0.35385 0.99367 0.0
H660 H 0.71202 0.87374 0.2161 0.0
H661 H 0.71672 0.87789 0.32753 0.0
H662 H 0.65891 0.84837 0.36035 0.0
H663 H 0.65397 0.84433 0.24915 0.0
H664 H 0.69041 0.89973 0.40503 0.0
H665 H 0.69747 0.81908 0.48089 0.0
H666 H 0.70059 0.82681 0.40127 0.0
H667 H 0.67547 0.82413 0.43373 0.0
C668 C 0.70033 0.86808 0.24698 0.0
C669 C 0.68259 0.85875 0.22365 0.0
C670 C 0.7031 0.87036 0.31061 0.0
C671 C 0.68828 0.86321 0.35205 0.0
C672 C 0.67074 0.85357 0.32912 0.0
H673 H 0.66443 0.87423 0.74252 0.0
H674 H 0.66405 0.8663 0.63193 0.0
C675 C 0.66794 0.85129 0.2655 0.0
C676 C 0.69043 0.86718 0.41899 0.0
H677 H 0.69249 0.8439 0.56004 0.0
C678 C 0.69106 0.88755 0.43897 0.0
C679 C 0.69118 0.85121 0.46292 0.0
C680 C 0.69133 0.82907 0.44374 0.0
C681 C 0.69189 0.89242 0.50201 0.0
C682 C 0.69245 0.87646 0.54601 0.0
C683 C 0.69203 0.85608 0.52605 0.0
C684 C 0.69314 0.88066 0.6131 0.0
C685 C 0.69153 0.91459 0.52105 0.0
C686 C 0.70978 0.89102 0.63908 0.0
C687 C 0.71004 0.89555 0.70214 0.0
C688 C 0.69371 0.88964 0.7404 0.0
C689 C 0.67728 0.87884 0.71435 0.0
C690 C 0.67701 0.87437 0.65123 0.0
H691 H 0.68619 0.92465 0.48295 0.0
H692 H 0.68146 0.91691 0.56176 0.0
H693 H 0.70719 0.91943 0.53399 0.0
H694 H 0.72257 0.89561 0.61054 0.0
H695 H 0.72311 0.9035 0.72095 0.0
H696 H 0.04032 0.34472 0.21285 0.0
H697 H 0.01551 0.33679 0.13288 0.0
H698 H 0.04934 0.28251 0.0849 0.0
H699 H 0.07495 0.29094 0.16379 0.0
H700 H 0.03842 0.30125 0.98459 0.0
H701 H 0.97003 0.29709 0.13175 0.0
H702 H 0.98225 0.32122 0.14327 0.0
H703 H 0.99541 0.29799 0.16402 0.0
C704 C 0.04242 0.33094 0.18589 0.0
C705 C 0.05952 0.31834 0.19514 0.0
C706 C 0.02807 0.32632 0.14037 0.0
C707 C 0.03014 0.30871 0.10392 0.0
C708 C 0.04725 0.29606 0.1129 0.0
H709 H 0.92513 0.2886 0.85798 0.0
H710 H 0.95112 0.28231 0.93726 0.0
C711 C 0.06186 0.30087 0.15801 0.0
C712 C 0.01505 0.30445 0.0541 0.0
H713 H 0.96394 0.30529 0.02369 0.0
C714 C 0.02213 0.30174 0.99334 0.0
C715 C 0.99375 0.30447 0.06528 0.0
C716 C 0.98497 0.3051 0.12979 0.0
C717 C 0.00853 0.30041 0.94324 0.0
C718 C 0.9873 0.30265 0.95386 0.0
C719 C 0.9802 0.304 0.01502 0.0
C720 C 0.97231 0.30498 0.90252 0.0
C721 C 0.01719 0.29667 0.87957 0.0
C722 C 0.97545 0.31979 0.85651 0.0
C723 C 0.96083 0.3231 0.81061 0.0
C724 C 0.94243 0.31208 0.8106 0.0
C725 C 0.93919 0.2973 0.85671 0.0
C726 C 0.95403 0.29371 0.90204 0.0
H727 H 0.03143 0.28748 0.88214 0.0
H728 H 0.00614 0.28859 0.84931 0.0
H729 H 0.02116 0.31152 0.85798 0.0
H730 H 0.98898 0.32928 0.85699 0.0
H731 H 0.96368 0.33483 0.77635 0.0
H732 H 0.66349 0.95969 0.0363 0.0
H733 H 0.67029 0.98596 0.11291 0.0
H734 H 0.72077 0.95068 0.18385 0.0
H735 H 0.71339 0.92368 0.10841 0.0
H736 H 0.69951 0.9643 0.2752 0.0
H737 H 0.71183 0.02966 0.11978 0.0
H738 H 0.68762 0.01834 0.10264 0.0
H739 H 0.71073 0.00379 0.09132 0.0
C740 C 0.67622 0.95757 0.06762 0.0
C741 C 0.688 0.93965 0.06595 0.0
C742 C 0.68022 0.97275 0.11118 0.0
C743 C 0.69643 0.97066 0.15317 0.0
C744 C 0.70832 0.95278 0.1515 0.0
H745 H 0.71262 0.07844 0.3925 0.0
H746 H 0.72052 0.05144 0.31754 0.0
C747 C 0.7041 0.93737 0.10839 0.0
C748 C 0.69976 0.98648 0.20152 0.0
H749 H 0.7002 0.03809 0.22369 0.0
C750 C 0.70007 0.98042 0.26381 0.0
C751 C 0.7011 0.00755 0.18711 0.0
C752 C 0.70305 0.01515 0.1215 0.0
C753 C 0.70026 0.99483 0.31186 0.0
C754 C 0.6993 0.01591 0.29732 0.0
C755 C 0.70046 0.02197 0.23512 0.0
C756 C 0.69556 0.03177 0.34529 0.0
C757 C 0.70132 0.98722 0.37765 0.0
C758 C 0.67883 0.02986 0.38542 0.0
C759 C 0.67452 0.04504 0.42872 0.0
C760 C 0.68653 0.06278 0.43197 0.0
C761 C 0.70314 0.0649 0.39129 0.0
C762 C 0.70765 0.04948 0.34845 0.0
H763 H 0.7099 0.9726 0.38037 0.0
H764 H 0.70876 0.99849 0.40867 0.0
H765 H 0.68563 0.98423 0.39475 0.0
H766 H 0.66875 0.0168 0.38245 0.0
H767 H 0.6614 0.04307 0.45864 0.0
H768 H 0.0842 0.70887 0.38849 0.0
H769 H 0.05744 0.71479 0.46601 0.0
H770 H 0.01616 0.67671 0.36224 0.0
H771 H 0.04257 0.6707 0.28492 0.0
H772 H 0.01409 0.73005 0.44623 0.0
H773 H 0.01994 0.65159 0.54209 0.0
H774 H 0.0402 0.6633 0.49783 0.0
H775 H 0.01821 0.65301 0.45922 0.0
C776 C 0.06938 0.70187 0.38197 0.0
C777 C 0.06557 0.6892 0.33066 0.0
C778 C 0.05413 0.70529 0.42626 0.0
C779 C 0.03496 0.69599 0.42004 0.0
C780 C 0.03096 0.68383 0.36812 0.0
H781 H 0.92079 0.67989 0.59986 0.0
H782 H 0.95105 0.6804 0.53431 0.0
C783 C 0.04609 0.68046 0.32389 0.0
C784 C 0.01906 0.6984 0.46812 0.0
H785 H 0.99082 0.67096 0.57133 0.0
C786 C 0.00913 0.71727 0.47434 0.0
C787 C 0.01273 0.68165 0.50457 0.0
C788 C 0.0234 0.66126 0.50119 0.0
C789 C 0.99228 0.71954 0.51411 0.0
C790 C 0.98551 0.70256 0.54903 0.0
C791 C 0.99597 0.68392 0.5443 0.0
C792 C 0.96691 0.70331 0.58803 0.0
C793 C 0.9813 0.73978 0.51636 0.0
C794 C 0.96572 0.71609 0.64003 0.0
C795 C 0.94835 0.71584 0.67785 0.0
C796 C 0.93199 0.70264 0.66453 0.0
C797 C 0.93319 0.69006 0.61197 0.0
C798 C 0.95047 0.69037 0.57427 0.0
H799 H 0.98587 0.74996 0.47766 0.0
H800 H 0.96452 0.73751 0.51462 0.0
H801 H 0.98501 0.7476 0.56045 0.0
H802 H 0.97838 0.72596 0.65207 0.0
H803 H 0.94793 0.72567 0.7181 0.0
H804 H 0.34243 0.96029 0.94754 0.0
H805 H 0.33489 0.98616 0.87017 0.0
H806 H 0.28248 0.95158 0.80986 0.0
H807 H 0.29055 0.92499 0.88596 0.0
H808 H 0.30238 0.96398 0.71433 0.0
H809 H 0.29424 0.03078 0.86658 0.0
H810 H 0.31846 0.01902 0.8806 0.0
H811 H 0.29528 0.00511 0.89673 0.0
C812 C 0.32913 0.95826 0.9184 0.0
C813 C 0.31699 0.94065 0.92324 0.0
C814 C 0.32471 0.97321 0.87442 0.0
C815 C 0.30775 0.9712 0.83518 0.0
C816 C 0.29552 0.95362 0.84003 0.0
H817 H 0.28994 0.07753 0.59062 0.0
H818 H 0.28251 0.05126 0.66837 0.0
C819 C 0.30013 0.93844 0.88354 0.0
C820 C 0.30392 0.98672 0.78626 0.0
H821 H 0.30412 0.03815 0.7603 0.0
C822 C 0.30235 0.98019 0.72459 0.0
C823 C 0.30327 0.00792 0.79927 0.0
C824 C 0.30265 0.01606 0.86452 0.0
C825 C 0.30159 0.99424 0.67557 0.0
C826 C 0.30323 0.01539 0.68833 0.0
C827 C 0.30332 0.02195 0.75015 0.0
C828 C 0.30653 0.03076 0.63863 0.0
C829 C 0.29919 0.98614 0.61064 0.0
C830 C 0.32258 0.02813 0.59636 0.0
C831 C 0.32663 0.0429 0.55156 0.0
C832 C 0.31505 0.06094 0.54876 0.0
C833 C 0.29907 0.06374 0.59137 0.0
C834 C 0.29482 0.04875 0.63583 0.0
H835 H 0.29023 0.97173 0.61042 0.0
H836 H 0.29148 0.99736 0.58001 0.0
H837 H 0.31448 0.98263 0.59128 0.0
H838 H 0.33237 0.01483 0.59887 0.0
H839 H 0.33926 0.04037 0.52016 0.0
H840 H 0.1167 0.41851 0.17943 0.0
H841 H 0.11632 0.45579 0.17412 0.0
H842 H 0.09669 0.45873 0.36416 0.0
H843 H 0.09667 0.4214 0.36975 0.0
H844 H 0.08364 0.48402 0.19777 0.0
H845 H 0.14928 0.49408 0.35787 0.0
H846 H 0.14341 0.46994 0.32171 0.0
H847 H 0.12875 0.47858 0.38681 0.0
C848 C 0.112 0.42703 0.2199 0.0
C849 C 0.10676 0.41692 0.27512 0.0
C850 C 0.11191 0.44835 0.21683 0.0
C851 C 0.10673 0.45998 0.26895 0.0
C852 C 0.10108 0.45001 0.32373 0.0
H853 H 0.08157 0.59071 0.28331 0.0
H854 H 0.07916 0.5534 0.28817 0.0
C855 C 0.10111 0.42868 0.32685 0.0
C856 C 0.1075 0.48257 0.26605 0.0
H857 H 0.13245 0.52408 0.3245 0.0
C858 C 0.09427 0.49281 0.2255 0.0
C859 C 0.12158 0.49393 0.30177 0.0
C860 C 0.13671 0.48363 0.34417 0.0
C861 C 0.0946 0.51419 0.22016 0.0
C862 C 0.10842 0.52556 0.25675 0.0
C863 C 0.12177 0.5153 0.29688 0.0
C864 C 0.10964 0.54812 0.25305 0.0
C865 C 0.08048 0.52442 0.17456 0.0
C866 C 0.12767 0.55749 0.23267 0.0
C867 C 0.12914 0.57875 0.23016 0.0
C868 C 0.11262 0.59109 0.24843 0.0
C869 C 0.09459 0.58164 0.26915 0.0
C870 C 0.09312 0.56034 0.27143 0.0
H871 H 0.07414 0.51339 0.14058 0.0
H872 H 0.06754 0.53144 0.19994 0.0
H873 H 0.08855 0.53673 0.14906 0.0
H874 H 0.14065 0.54831 0.21872 0.0
H875 H 0.14336 0.58553 0.215 0.0
H876 H 0.58771 0.07968 0.47298 0.0
H877 H 0.55044 0.07779 0.46466 0.0
H878 H 0.54544 0.13874 0.53838 0.0
H879 H 0.58262 0.14096 0.54556 0.0
H880 H 0.52037 0.08248 0.55948 0.0
H881 H 0.5128 0.1409 0.37473 0.0
H882 H 0.53682 0.12884 0.3933 0.0
H883 H 0.52712 0.14906 0.44115 0.0
C884 C 0.57868 0.09273 0.48707 0.0
C885 C 0.58814 0.11049 0.50981 0.0
C886 C 0.5574 0.09157 0.4826 0.0
C887 C 0.54523 0.10821 0.50019 0.0
C888 C 0.55459 0.12583 0.52376 0.0
H889 H 0.41566 0.11496 0.57488 0.0
H890 H 0.45287 0.11331 0.58103 0.0
C891 C 0.57583 0.12698 0.52846 0.0
C892 C 0.52272 0.10716 0.49412 0.0
H893 H 0.48211 0.12957 0.42201 0.0
C894 C 0.51198 0.0927 0.52927 0.0
C895 C 0.51188 0.12035 0.45406 0.0
C896 C 0.52271 0.13556 0.41317 0.0
C897 C 0.4906 0.09141 0.5265 0.0
C898 C 0.47971 0.10508 0.48803 0.0
C899 C 0.49049 0.11921 0.45182 0.0
C900 C 0.45709 0.10512 0.48496 0.0
C901 C 0.47984 0.07532 0.56433 0.0
C902 C 0.44712 0.10131 0.42871 0.0
C903 C 0.42583 0.10218 0.42504 0.0
C904 C 0.41408 0.10703 0.47751 0.0
C905 C 0.42417 0.11077 0.53387 0.0
C906 C 0.44546 0.10987 0.53748 0.0
H907 H 0.49041 0.0629 0.57854 0.0
H908 H 0.47358 0.08244 0.60685 0.0
H909 H 0.46695 0.06854 0.53808 0.0
H910 H 0.45584 0.09767 0.38759 0.0
H911 H 0.41857 0.09902 0.38108 0.0
H912 H 0.92145 0.58628 0.71376 0.0
H913 H 0.92413 0.54893 0.70826 0.0
H914 H 0.85883 0.54388 0.72781 0.0
H915 H 0.856 0.5811 0.73283 0.0
H916 H 0.90862 0.51978 0.8026 0.0
H917 H 0.87399 0.50956 0.57004 0.0
H918 H 0.88469 0.53356 0.5955 0.0
H919 H 0.86002 0.52564 0.62251 0.0
C920 C 0.90766 0.5772 0.71634 0.0
C921 C 0.88851 0.58662 0.72376 0.0
C922 C 0.90923 0.5559 0.71348 0.0
C923 C 0.89166 0.54372 0.71708 0.0
C924 C 0.87254 0.55305 0.72432 0.0
H925 H 0.85992 0.41636 0.71196 0.0
H926 H 0.86119 0.45364 0.71099 0.0
C927 C 0.87098 0.5743 0.72769 0.0
C928 C 0.89323 0.52118 0.71483 0.0
H929 H 0.87929 0.47963 0.62954 0.0
C930 C 0.9024 0.51095 0.76459 0.0
C931 C 0.885 0.5098 0.66525 0.0
C932 C 0.87549 0.52014 0.60995 0.0
C933 C 0.90295 0.48951 0.76709 0.0
C934 C 0.89455 0.47808 0.71767 0.0
C935 C 0.88571 0.48839 0.66739 0.0
C936 C 0.89409 0.45541 0.71808 0.0
C937 C 0.9118 0.47935 0.82371 0.0
C938 C 0.9122 0.44397 0.7217 0.0
C939 C 0.91151 0.42261 0.72244 0.0
C940 C 0.89272 0.41231 0.71862 0.0
C941 C 0.87465 0.42382 0.71414 0.0
C942 C 0.87535 0.44514 0.71384 0.0
H943 H 0.9126 0.49 0.86362 0.0
H944 H 0.90261 0.46584 0.8374 0.0
H945 H 0.92754 0.47412 0.81334 0.0
H946 H 0.92687 0.45155 0.72351 0.0
H947 H 0.92569 0.41415 0.72518 0.0
H948 H 0.58675 0.88558 0.08258 0.0
H949 H 0.54948 0.88696 0.0844 0.0
H950 H 0.54877 0.90119 0.88975 0.0
H951 H 0.58612 0.90009 0.88754 0.0
H952 H 0.52254 0.91919 0.05164 0.0
H953 H 0.51164 0.85043 0.90465 0.0
H954 H 0.53576 0.85655 0.9405 0.0
H955 H 0.52774 0.86987 0.87206 0.0
C956 C 0.57872 0.88929 0.04026 0.0
C957 C 0.58946 0.8927 0.98484 0.0
C958 C 0.5574 0.88995 0.04136 0.0
C959 C 0.54638 0.89391 0.98707 0.0
C960 C 0.55699 0.89773 0.93192 0.0
H961 H 0.4162 0.92215 0.96398 0.0
H962 H 0.45354 0.92355 0.95855 0.0
C963 C 0.57833 0.89708 0.93076 0.0
C964 C 0.52376 0.89387 0.98829 0.0
H965 H 0.48194 0.86882 0.93235 0.0
C966 C 0.51364 0.90822 0.02549 0.0
C967 C 0.51223 0.87937 0.95468 0.0
C968 C 0.52233 0.86305 0.91608 0.0
C969 C 0.49224 0.90854 0.02969 0.0
C970 C 0.4807 0.89427 0.99522 0.0
C971 C 0.49084 0.87985 0.9583 0.0
C972 C 0.45811 0.89358 -0.00163 0.0
C973 C 0.48216 0.92382 0.07205 0.0
C974 C 0.44832 0.87612 0.02138 0.0
C975 C 0.42704 0.87522 0.02414 0.0
C976 C 0.41509 0.89174 0.00357 0.0
C977 C 0.42496 0.90916 0.97998 0.0
C978 C 0.44628 0.91006 0.97738 0.0
H979 H 0.49317 0.93052 0.10546 0.0
H980 H 0.47568 0.93644 0.04397 0.0
H981 H 0.46949 0.91663 0.09825 0.0
H982 H 0.45718 0.86318 0.03738 0.0
H983 H 0.41994 0.86143 0.04148 0.0
loop_
_geom_bond_atom_site_label_1
_geom_bond_atom_site_label_2
_geom_bond_distance
_geom_bond_site_symmetry_2
_ccdc_geom_bond_type
C0 C1 1.351 . S
C0 N3 1.368 . S
C0 H5 0.931 . S
C1 C0 1.351 . S
C1 N2 1.373 . S
C1 H29 0.930 . S
N2 C1 1.373 . S
N2 C4 1.340 . S
N3 C0 1.368 . S
N3 C4 1.321 . S
N3 Co6 2.135 . S
C4 N2 1.340 . S
C4 N3 1.321 . S
C4 H28 0.930 . S
H5 C0 0.931 . S
Co6 N3 2.135 . S
Co6 N9 2.121 . S
Co6 O14 2.055 . S
Co6 O17 2.039 . S
Co6 N20 2.140 . S
C7 O8 1.227 . S
C7 O17 1.265 . S
O8 C7 1.227 . S
N9 Co6 2.121 . S
N9 C11 1.375 . S
N9 C12 1.313 . S
C10 C11 1.338 . S
C10 N13 1.377 . S
C10 H30 0.930 . S
C11 N9 1.375 . S
C11 C10 1.338 . S
C11 H15 0.931 . S
C12 N9 1.313 . S
C12 N13 1.344 . S
C12 H16 0.930 . S
N13 C10 1.377 . S
N13 C12 1.344 . S
O14 Co6 2.055 . S
O14 C18 1.253 . S
H15 C11 0.931 . S
H16 C12 0.930 . S
O17 Co6 2.039 . S
O17 C7 1.265 . S
C18 O14 1.253 . S
C18 O19 1.227 . S
O19 C18 1.227 . S
N20 Co6 2.140 . S
N20 C23 1.346 . S
N20 C24 1.345 . S
C21 C22 1.387 . S
C21 C25 1.391 . S
C22 C21 1.387 . S
C22 C23 1.369 . S
C22 H31 0.929 . S
C23 N20 1.346 . S
C23 C22 1.369 . S
C23 H26 0.928 . S
C24 N20 1.345 . S
C24 C25 1.371 . S
C24 H27 0.931 . S
C25 C21 1.391 . S
C25 C24 1.371 . S
C25 H32 0.930 . S
H26 C23 0.928 . S
H27 C24 0.931 . S
H28 C4 0.930 . S
H29 C1 0.930 . S
H30 C10 0.930 . S
H31 C22 0.929 . S
H32 C25 0.930 . S
C33 C34 1.351 . S
C33 N36 1.368 . S
C33 H38 0.931 . S
C34 C33 1.351 . S
C34 N35 1.373 . S
C34 H62 0.930 . S
N35 C34 1.373 . S
N35 C37 1.340 . S
N36 C33 1.368 . S
N36 C37 1.321 . S
N36 Co39 2.135 . S
C37 N35 1.340 . S
C37 N36 1.321 . S
C37 H61 0.930 . S
H38 C33 0.931 . S
Co39 N36 2.135 . S
Co39 N42 2.121 . S
Co39 O47 2.055 . S
Co39 O50 2.039 . S
Co39 N53 2.140 . S
C40 O41 1.227 . S
C40 O50 1.265 . S
O41 C40 1.227 . S
N42 Co39 2.121 . S
N42 C44 1.375 . S
N42 C45 1.313 . S
C43 C44 1.338 . S
C43 N46 1.377 . S
C43 H63 0.930 . S
C44 N42 1.375 . S
C44 C43 1.338 . S
C44 H48 0.931 . S
C45 N42 1.313 . S
C45 N46 1.344 . S
C45 H49 0.930 . S
N46 C43 1.377 . S
N46 C45 1.344 . S
O47 Co39 2.055 . S
O47 C51 1.253 . S
H48 C44 0.931 . S
H49 C45 0.930 . S
O50 Co39 2.039 . S
O50 C40 1.265 . S
C51 O47 1.253 . S
C51 O52 1.227 . S
O52 C51 1.227 . S
N53 Co39 2.140 . S
N53 C56 1.346 . S
N53 C57 1.345 . S
C54 C55 1.387 . S
C54 C58 1.391 . S
C55 C54 1.387 . S
C55 C56 1.369 . S
C55 H64 0.929 . S
C56 N53 1.346 . S
C56 C55 1.369 . S
C56 H59 0.928 . S
C57 N53 1.345 . S
C57 C58 1.371 . S
C57 H60 0.931 . S
C58 C54 1.391 . S
C58 C57 1.371 . S
C58 H65 0.930 . S
H59 C56 0.928 . S
H60 C57 0.931 . S
H61 C37 0.930 . S
H62 C34 0.930 . S
H63 C43 0.930 . S
H64 C55 0.929 . S
H65 C58 0.930 . S
C66 C67 1.351 . S
C66 N69 1.368 . S
C66 H71 0.931 . S
C67 C66 1.351 . S
C67 N68 1.373 . S
C67 H95 0.930 . S
N68 C67 1.373 . S
N68 C70 1.340 . S
N69 C66 1.368 . S
N69 C70 1.321 . S
N69 Co72 2.135 . S
C70 N68 1.340 . S
C70 N69 1.321 . S
C70 H94 0.930 . S
H71 C66 0.931 . S
Co72 N69 2.135 . S
Co72 N75 2.121 . S
Co72 O80 2.055 . S
Co72 O83 2.039 . S
Co72 N86 2.140 . S
C73 O74 1.227 . S
C73 O83 1.265 . S
O74 C73 1.227 . S
N75 Co72 2.121 . S
N75 C77 1.375 . S
N75 C78 1.313 . S
C76 C77 1.338 . S
C76 N79 1.377 . S
C76 H96 0.930 . S
C77 N75 1.375 . S
C77 C76 1.338 . S
C77 H81 0.931 . S
C78 N75 1.313 . S
C78 N79 1.344 . S
C78 H82 0.930 . S
N79 C76 1.377 . S
N79 C78 1.344 . S
O80 Co72 2.055 . S
O80 C84 1.253 . S
H81 C77 0.931 . S
H82 C78 0.930 . S
O83 Co72 2.039 . S
O83 C73 1.265 . S
C84 O80 1.253 . S
C84 O85 1.227 . S
O85 C84 1.227 . S
N86 Co72 2.140 . S
N86 C89 1.346 . S
N86 C90 1.345 . S
C87 C88 1.387 . S
C87 C91 1.391 . S
C88 C87 1.387 . S
C88 C89 1.369 . S
C88 H97 0.929 . S
C89 N86 1.346 . S
C89 C88 1.369 . S
C89 H92 0.928 . S
C90 N86 1.345 . S
C90 C91 1.371 . S
C90 H93 0.931 . S
C91 C87 1.391 . S
C91 C90 1.371 . S
C91 H98 0.930 . S
H92 C89 0.928 . S
H93 C90 0.931 . S
H94 C70 0.930 . S
H95 C67 0.930 . S
H96 C76 0.930 . S
H97 C88 0.929 . S
H98 C91 0.930 . S
C99 C100 1.351 . S
C99 N102 1.368 . S
C99 H104 0.931 . S
C100 C99 1.351 . S
C100 N101 1.373 . S
C100 H128 0.930 . S
N101 C100 1.373 . S
N101 C103 1.340 . S
N102 C99 1.368 . S
N102 C103 1.321 . S
N102 Co105 2.135 . S
C103 N101 1.340 . S
C103 N102 1.321 . S
C103 H127 0.930 . S
H104 C99 0.931 . S
Co105 N102 2.135 . S
Co105 N108 2.121 1_556 S
Co105 O113 2.055 . S
Co105 O116 2.039 . S
Co105 N119 2.140 . S
C106 O107 1.227 . S
C106 O116 1.265 . S
O107 C106 1.227 . S
N108 Co105 2.121 1_554 S
N108 C110 1.375 . S
N108 C111 1.313 . S
C109 C110 1.338 . S
C109 N112 1.377 . S
C109 H129 0.930 . S
C110 N108 1.375 . S
C110 C109 1.338 . S
C110 H114 0.931 . S
C111 N108 1.313 . S
C111 N112 1.344 . S
C111 H115 0.930 . S
N112 C109 1.377 . S
N112 C111 1.344 . S
O113 Co105 2.055 . S
O113 C117 1.253 . S
H114 C110 0.931 . S
H115 C111 0.930 . S
O116 Co105 2.039 . S
O116 C106 1.265 . S
C117 O113 1.253 . S
C117 O118 1.227 . S
O118 C117 1.227 . S
N119 Co105 2.140 . S
N119 C122 1.346 . S
N119 C123 1.345 . S
C120 C121 1.387 . S
C120 C124 1.391 1_556 S
C121 C120 1.387 . S
C121 C122 1.369 . S
C121 H130 0.929 . S
C122 N119 1.346 . S
C122 C121 1.369 . S
C122 H125 0.928 . S
C123 N119 1.345 . S
C123 C124 1.371 1_556 S
C123 H126 0.931 1_556 S
C124 C120 1.391 1_554 S
C124 C123 1.371 1_554 S
C124 H131 0.930 . S
H125 C122 0.928 . S
H126 C123 0.931 1_554 S
H127 C103 0.930 . S
H128 C100 0.930 . S
H129 C109 0.930 . S
H130 C121 0.929 . S
H131 C124 0.930 . S
C132 C133 1.351 . S
C132 N135 1.368 . S
C132 H137 0.931 . S
C133 C132 1.351 . S
C133 N134 1.373 . S
C133 H161 0.930 . S
N134 C133 1.373 . S
N134 C136 1.340 . S
N135 C132 1.368 . S
N135 C136 1.321 . S
N135 Co138 2.135 . S
C136 N134 1.340 . S
C136 N135 1.321 . S
C136 H160 0.930 . S
H137 C132 0.931 . S
Co138 N135 2.135 . S
Co138 N141 2.121 . S
Co138 O146 2.055 . S
Co138 O149 2.039 . S
Co138 N152 2.140 . S
C139 O140 1.227 . S
C139 O149 1.265 . S
O140 C139 1.227 . S
N141 Co138 2.121 . S
N141 C143 1.375 . S
N141 C144 1.313 . S
C142 C143 1.338 . S
C142 N145 1.377 . S
C142 H162 0.930 . S
C143 N141 1.375 . S
C143 C142 1.338 . S
C143 H147 0.931 . S
C144 N141 1.313 . S
C144 N145 1.344 . S
C144 H148 0.930 . S
N145 C142 1.377 . S
N145 C144 1.344 . S
O146 Co138 2.055 . S
O146 C150 1.253 . S
H147 C143 0.931 . S
H148 C144 0.930 . S
O149 Co138 2.039 . S
O149 C139 1.265 . S
C150 O146 1.253 . S
C150 O151 1.227 . S
O151 C150 1.227 . S
N152 Co138 2.140 . S
N152 C155 1.346 . S
N152 C156 1.345 . S
C153 C154 1.387 . S
C153 C157 1.391 . S
C154 C153 1.387 . S
C154 C155 1.369 . S
C154 H163 0.929 . S
C155 N152 1.346 . S
C155 C154 1.369 . S
C155 H158 0.928 . S
C156 N152 1.345 . S
C156 C157 1.371 . S
C156 H159 0.931 . S
C157 C153 1.391 . S
C157 C156 1.371 . S
C157 H164 0.930 . S
H158 C155 0.928 . S
H159 C156 0.931 . S
H160 C136 0.930 . S
H161 C133 0.930 . S
H162 C142 0.930 . S
H163 C154 0.929 . S
H164 C157 0.930 . S
C165 C166 1.351 . S
C165 N168 1.368 . S
C165 H170 0.931 . S
C166 C165 1.351 . S
C166 N167 1.373 . S
C166 H194 0.930 . S
N167 C166 1.373 . S
N167 C169 1.340 . S
N168 C165 1.368 . S
N168 C169 1.321 . S
N168 Co171 2.135 . S
C169 N167 1.340 . S
C169 N168 1.321 . S
C169 H193 0.930 . S
H170 C165 0.931 . S
Co171 N168 2.135 . S
Co171 N174 2.121 . S
Co171 O179 2.055 . S
Co171 O182 2.039 . S
Co171 N185 2.140 . S
C172 O173 1.227 . S
C172 O182 1.265 . S
O173 C172 1.227 . S
N174 Co171 2.121 . S
N174 C176 1.375 . S
N174 C177 1.313 . S
C175 C176 1.338 . S
C175 N178 1.377 . S
C175 H195 0.930 . S
C176 N174 1.375 . S
C176 C175 1.338 . S
C176 H180 0.931 . S
C177 N174 1.313 . S
C177 N178 1.344 . S
C177 H181 0.930 . S
N178 C175 1.377 . S
N178 C177 1.344 . S
O179 Co171 2.055 . S
O179 C183 1.253 . S
H180 C176 0.931 . S
H181 C177 0.930 . S
O182 Co171 2.039 . S
O182 C172 1.265 . S
C183 O179 1.253 . S
C183 O184 1.227 . S
O184 C183 1.227 . S
N185 Co171 2.140 . S
N185 C188 1.346 . S
N185 C189 1.345 . S
C186 C187 1.387 . S
C186 C190 1.391 . S
C187 C186 1.387 . S
C187 C188 1.369 . S
C187 H196 0.929 . S
C188 N185 1.346 . S
C188 C187 1.369 . S
C188 H191 0.928 . S
C189 N185 1.345 . S
C189 C190 1.371 . S
C189 H192 0.931 . S
C190 C186 1.391 . S
C190 C189 1.371 . S
C190 H197 0.930 . S
H191 C188 0.928 . S
H192 C189 0.931 . S
H193 C169 0.930 . S
H194 C166 0.930 . S
H195 C175 0.930 . S
H196 C187 0.929 . S
H197 C190 0.930 . S
C198 C199 1.351 . S
C198 N201 1.368 . S
C198 H203 0.931 . S
C199 C198 1.351 . S
C199 N200 1.373 . S
C199 H227 0.930 . S
N200 C199 1.373 . S
N200 C202 1.340 . S
N201 C198 1.368 . S
N201 C202 1.321 . S
N201 Co204 2.135 . S
C202 N200 1.340 . S
C202 N201 1.321 . S
C202 H226 0.930 . S
H203 C198 0.931 . S
Co204 N201 2.135 . S
Co204 N207 2.121 . S
Co204 O212 2.055 . S
Co204 O215 2.039 . S
Co204 N218 2.140 . S
C205 O206 1.227 . S
C205 O215 1.265 . S
O206 C205 1.227 . S
N207 Co204 2.121 . S
N207 C209 1.375 . S
N207 C210 1.313 . S
C208 C209 1.338 . S
C208 N211 1.377 . S
C208 H228 0.930 . S
C209 N207 1.375 . S
C209 C208 1.338 . S
C209 H213 0.931 . S
C210 N207 1.313 . S
C210 N211 1.344 . S
C210 H214 0.930 . S
N211 C208 1.377 . S
N211 C210 1.344 . S
O212 Co204 2.055 . S
O212 C216 1.253 . S
H213 C209 0.931 . S
H214 C210 0.930 . S
O215 Co204 2.039 . S
O215 C205 1.265 . S
C216 O212 1.253 . S
C216 O217 1.227 . S
O217 C216 1.227 . S
N218 Co204 2.140 . S
N218 C221 1.346 . S
N218 C222 1.345 . S
C219 C220 1.387 . S
C219 C223 1.391 . S
C220 C219 1.387 . S
C220 C221 1.369 . S
C220 H229 0.929 . S
C221 N218 1.346 . S
C221 C220 1.369 . S
C221 H224 0.928 . S
C222 N218 1.345 . S
C222 C223 1.371 . S
C222 H225 0.931 . S
C223 C219 1.391 . S
C223 C222 1.371 . S
C223 H230 0.930 . S
H224 C221 0.928 . S
H225 C222 0.931 . S
H226 C202 0.930 . S
H227 C199 0.930 . S
H228 C208 0.930 . S
H229 C220 0.929 . S
H230 C223 0.930 . S
C231 C232 1.351 . S
C231 N234 1.368 . S
C231 H236 0.931 . S
C232 C231 1.351 . S
C232 N233 1.373 . S
C232 H260 0.930 . S
N233 C232 1.373 . S
N233 C235 1.340 . S
N234 C231 1.368 . S
N234 C235 1.321 . S
N234 Co237 2.135 . S
C235 N233 1.340 . S
C235 N234 1.321 . S
C235 H259 0.930 . S
H236 C231 0.931 . S
Co237 N234 2.135 . S
Co237 N240 2.121 1_554 S
Co237 O245 2.055 . S
Co237 O248 2.039 . S
Co237 N251 2.140 . S
C238 O239 1.227 . S
C238 O248 1.265 . S
O239 C238 1.227 . S
N240 Co237 2.121 1_556 S
N240 C242 1.375 . S
N240 C243 1.313 . S
C241 C242 1.338 . S
C241 N244 1.377 . S
C241 H261 0.930 . S
C242 N240 1.375 . S
C242 C241 1.338 . S
C242 H246 0.931 . S
C243 N240 1.313 . S
C243 N244 1.344 . S
C243 H247 0.930 . S
N244 C241 1.377 . S
N244 C243 1.344 . S
O245 Co237 2.055 . S
O245 C249 1.253 . S
H246 C242 0.931 . S
H247 C243 0.930 . S
O248 Co237 2.039 . S
O248 C238 1.265 . S
C249 O245 1.253 . S
C249 O250 1.227 . S
O250 C249 1.227 . S
N251 Co237 2.140 . S
N251 C254 1.346 . S
N251 C255 1.345 . S
C252 C253 1.387 . S
C252 C256 1.391 1_554 S
C253 C252 1.387 . S
C253 C254 1.369 . S
C253 H262 0.929 . S
C254 N251 1.346 . S
C254 C253 1.369 . S
C254 H257 0.928 . S
C255 N251 1.345 . S
C255 C256 1.371 1_554 S
C255 H258 0.931 1_554 S
C256 C252 1.391 1_556 S
C256 C255 1.371 1_556 S
C256 H263 0.930 . S
H257 C254 0.928 . S
H258 C255 0.931 1_556 S
H259 C235 0.930 . S
H260 C232 0.930 . S
H261 C241 0.930 . S
H262 C253 0.929 . S
H263 C256 0.930 . S
H264 C272 0.929 . S
H265 C274 0.930 . S
H266 C276 0.930 . S
H267 C279 0.929 . S
H268 C282 0.930 . S
H269 C284 0.960 . S
H270 C284 0.960 . S
H271 C284 0.960 . S
C272 H264 0.929 . S
C272 C273 1.377 . S
C272 C274 1.384 . S
C273 C272 1.377 . S
C273 C279 1.390 . S
C274 H265 0.930 . S
C274 C272 1.384 . S
C274 C275 1.372 . S
C275 C274 1.372 . S
C275 C276 1.400 . S
C275 C280 1.490 . S
C276 H266 0.930 . S
C276 C275 1.400 . S
C276 C279 1.386 . S
H277 C293 0.930 . S
H278 C294 0.931 . S
C279 H267 0.929 . S
C279 C273 1.390 . S
C279 C276 1.386 . S
C280 C275 1.490 . S
C280 C282 1.395 . S
C280 C283 1.403 . S
H281 C287 0.930 . S
C282 H268 0.930 . S
C282 C280 1.395 . S
C282 C285 1.403 . S
C283 C280 1.403 . S
C283 C284 1.524 . S
C283 C287 1.400 . S
C284 H269 0.960 . S
C284 H270 0.960 . S
C284 H271 0.960 . S
C284 C283 1.524 . S
C285 C282 1.403 . S
C285 C286 1.392 . S
C285 C289 1.495 . S
C286 C285 1.392 . S
C286 C287 1.385 . S
C286 C288 1.478 . S
C287 H281 0.930 . S
C287 C283 1.400 . S
C287 C286 1.385 . S
C288 C286 1.478 . S
C288 C290 1.381 . S
C288 C294 1.383 . S
C289 C285 1.495 . S
C289 H295 0.959 . S
C289 H296 0.961 . S
C289 H297 0.960 . S
C290 C288 1.381 . S
C290 C291 1.394 . S
C290 H298 0.930 . S
C291 C290 1.394 . S
C291 C292 1.383 . S
C291 H299 0.929 . S
C292 C291 1.383 . S
C292 C293 1.377 . S
C293 H277 0.930 . S
C293 C292 1.377 . S
C293 C294 1.379 . S
C294 H278 0.931 . S
C294 C288 1.383 . S
C294 C293 1.379 . S
H295 C289 0.959 . S
H296 C289 0.961 . S
H297 C289 0.960 . S
H298 C290 0.930 . S
H299 C291 0.929 . S
H300 C308 0.929 . S
H301 C310 0.930 . S
H302 C312 0.930 . S
H303 C315 0.929 . S
H304 C318 0.930 . S
H305 C320 0.960 . S
H306 C320 0.960 . S
H307 C320 0.960 . S
C308 H300 0.929 . S
C308 C309 1.377 . S
C308 C310 1.384 . S
C309 C308 1.377 . S
C309 C315 1.390 . S
C310 H301 0.930 . S
C310 C308 1.384 . S
C310 C311 1.372 . S
C311 C310 1.372 . S
C311 C312 1.400 . S
C311 C316 1.490 . S
C312 H302 0.930 . S
C312 C311 1.400 . S
C312 C315 1.386 . S
H313 C329 0.930 . S
H314 C330 0.931 . S
C315 H303 0.929 . S
C315 C309 1.390 . S
C315 C312 1.386 . S
C316 C311 1.490 . S
C316 C318 1.395 . S
C316 C319 1.403 . S
H317 C323 0.930 . S
C318 H304 0.930 . S
C318 C316 1.395 . S
C318 C321 1.403 . S
C319 C316 1.403 . S
C319 C320 1.524 . S
C319 C323 1.400 . S
C320 H305 0.960 . S
C320 H306 0.960 . S
C320 H307 0.960 . S
C320 C319 1.524 . S
C321 C318 1.403 . S
C321 C322 1.392 . S
C321 C325 1.495 . S
C322 C321 1.392 . S
C322 C323 1.385 . S
C322 C324 1.478 . S
C323 H317 0.930 . S
C323 C319 1.400 . S
C323 C322 1.385 . S
C324 C322 1.478 . S
C324 C326 1.381 . S
C324 C330 1.383 . S
C325 C321 1.495 . S
C325 H331 0.959 . S
C325 H332 0.961 . S
C325 H333 0.960 . S
C326 C324 1.381 . S
C326 C327 1.394 . S
C326 H334 0.930 . S
C327 C326 1.394 . S
C327 C328 1.383 . S
C327 H335 0.929 . S
C328 C327 1.383 . S
C328 C329 1.377 . S
C329 H313 0.930 . S
C329 C328 1.377 . S
C329 C330 1.379 . S
C330 H314 0.931 . S
C330 C324 1.383 . S
C330 C329 1.379 . S
H331 C325 0.959 . S
H332 C325 0.961 . S
H333 C325 0.960 . S
H334 C326 0.930 . S
H335 C327 0.929 . S
H336 C344 0.929 . S
H337 C346 0.930 . S
H338 C348 0.930 . S
H339 C351 0.929 . S
H340 C354 0.930 . S
H341 C356 0.960 . S
H342 C356 0.960 . S
H343 C356 0.960 . S
C344 H336 0.929 . S
C344 C345 1.377 . S
C344 C346 1.384 . S
C345 C344 1.377 . S
C345 C351 1.390 . S
C346 H337 0.930 . S
C346 C344 1.384 . S
C346 C347 1.372 . S
C347 C346 1.372 . S
C347 C348 1.400 . S
C347 C352 1.490 . S
C348 H338 0.930 . S
C348 C347 1.400 . S
C348 C351 1.386 . S
H349 C365 0.930 . S
H350 C366 0.931 . S
C351 H339 0.929 . S
C351 C345 1.390 . S
C351 C348 1.386 . S
C352 C347 1.490 . S
C352 C354 1.395 . S
C352 C355 1.403 . S
H353 C359 0.930 . S
C354 H340 0.930 . S
C354 C352 1.395 . S
C354 C357 1.403 . S
C355 C352 1.403 . S
C355 C356 1.524 . S
C355 C359 1.400 . S
C356 H341 0.960 . S
C356 H342 0.960 . S
C356 H343 0.960 . S
C356 C355 1.524 . S
C357 C354 1.403 . S
C357 C358 1.392 . S
C357 C361 1.495 . S
C358 C357 1.392 . S
C358 C359 1.385 . S
C358 C360 1.478 . S
C359 H353 0.930 . S
C359 C355 1.400 . S
C359 C358 1.385 . S
C360 C358 1.478 . S
C360 C362 1.381 1_556 S
C360 C366 1.383 . S
C361 C357 1.495 . S
C361 H367 0.959 . S
C361 H368 0.961 . S
C361 H369 0.944 1_556 S
C362 C360 1.381 1_554 S
C362 C363 1.394 . S
C362 H370 0.930 . S
C363 C362 1.394 . S
C363 C364 1.383 . S
C363 H371 0.929 . S
C364 C363 1.383 . S
C364 C365 1.377 1_554 S
C365 H349 0.930 . S
C365 C364 1.377 1_556 S
C365 C366 1.379 . S
C366 H350 0.931 . S
C366 C360 1.383 . S
C366 C365 1.379 . S
H367 C361 0.959 . S
H368 C361 0.961 . S
H369 C361 0.944 1_554 S
H370 C362 0.930 . S
H371 C363 0.929 . S
H372 C380 0.929 . S
H373 C382 0.930 . S
H374 C384 0.930 . S
H375 C387 0.929 . S
H376 C390 0.930 . S
H377 C392 0.960 . S
H378 C392 0.960 . S
H379 C392 0.960 . S
C380 H372 0.929 . S
C380 C381 1.377 . S
C380 C382 1.384 . S
C381 C380 1.377 . S
C381 C387 1.390 . S
C382 H373 0.930 . S
C382 C380 1.384 . S
C382 C383 1.372 . S
C383 C382 1.372 . S
C383 C384 1.400 . S
C383 C388 1.490 . S
C384 H374 0.930 . S
C384 C383 1.400 . S
C384 C387 1.386 . S
H385 C401 0.930 . S
H386 C402 0.931 . S
C387 H375 0.929 . S
C387 C381 1.390 . S
C387 C384 1.386 . S
C388 C383 1.490 . S
C388 C390 1.395 . S
C388 C391 1.403 . S
H389 C395 0.930 . S
C390 H376 0.930 . S
C390 C388 1.395 . S
C390 C393 1.403 . S
C391 C388 1.403 . S
C391 C392 1.524 . S
C391 C395 1.400 . S
C392 H377 0.960 . S
C392 H378 0.960 . S
C392 H379 0.960 . S
C392 C391 1.524 . S
C393 C390 1.403 . S
C393 C394 1.392 . S
C393 C397 1.495 1_554 S
C394 C393 1.392 . S
C394 C395 1.385 . S
C394 C396 1.478 . S
C395 H389 0.930 . S
C395 C391 1.400 . S
C395 C394 1.385 . S
C396 C394 1.478 . S
C396 C398 1.381 . S
C396 C402 1.383 . S
C397 C393 1.495 1_556 S
C397 H403 0.959 . S
C397 H404 0.961 . S
C397 H405 0.960 . S
C398 C396 1.381 . S
C398 C399 1.394 1_554 S
C398 H406 0.930 . S
C399 C398 1.394 1_556 S
C399 C400 1.383 . S
C399 H407 0.929 . S
C400 C399 1.383 . S
C400 C401 1.377 1_556 S
C401 H385 0.930 . S
C401 C400 1.377 1_554 S
C401 C402 1.379 . S
C402 H386 0.931 . S
C402 C396 1.383 . S
C402 C401 1.379 . S
H403 C397 0.959 . S
H404 C397 0.961 . S
H405 C397 0.960 . S
H406 C398 0.930 . S
H407 C399 0.929 . S
H408 C416 0.929 . S
H409 C418 0.930 . S
H410 C420 0.930 . S
H411 C423 0.929 . S
H412 C426 0.930 . S
H413 C428 0.960 . S
H414 C428 0.960 . S
H415 C428 0.960 . S
C416 H408 0.929 . S
C416 C417 1.377 . S
C416 C418 1.384 . S
C417 C416 1.377 . S
C417 C423 1.390 . S
C418 H409 0.930 . S
C418 C416 1.384 . S
C418 C419 1.372 . S
C419 C418 1.372 . S
C419 C420 1.400 . S
C419 C424 1.490 . S
C420 H410 0.930 . S
C420 C419 1.400 . S
C420 C423 1.386 . S
H421 C437 0.930 . S
H422 C438 0.931 . S
C423 H411 0.929 . S
C423 C417 1.390 . S
C423 C420 1.386 . S
C424 C419 1.490 . S
C424 C426 1.395 . S
C424 C427 1.403 . S
H425 C431 0.930 . S
C426 H412 0.930 . S
C426 C424 1.395 . S
C426 C429 1.403 . S
C427 C424 1.403 . S
C427 C428 1.524 . S
C427 C431 1.400 . S
C428 H413 0.960 . S
C428 H414 0.960 . S
C428 H415 0.960 . S
C428 C427 1.524 . S
C429 C426 1.403 . S
C429 C430 1.392 . S
C429 C433 1.495 . S
C430 C429 1.392 . S
C430 C431 1.385 . S
C430 C432 1.478 . S
C431 H425 0.930 . S
C431 C427 1.400 . S
C431 C430 1.385 . S
C432 C430 1.478 . S
C432 C434 1.381 . S
C432 C438 1.383 . S
C433 C429 1.495 . S
C433 H439 0.959 . S
C433 H440 0.961 . S
C433 H441 0.960 . S
C434 C432 1.381 . S
C434 C435 1.394 . S
C434 H442 0.930 . S
C435 C434 1.394 . S
C435 C436 1.383 . S
C435 H443 0.929 . S
C436 C435 1.383 . S
C436 C437 1.377 . S
C437 H421 0.930 . S
C437 C436 1.377 . S
C437 C438 1.379 . S
C438 H422 0.931 . S
C438 C432 1.383 . S
C438 C437 1.379 . S
H439 C433 0.959 . S
H440 C433 0.961 . S
H441 C433 0.960 . S
H442 C434 0.930 . S
H443 C435 0.929 . S
H444 C452 0.929 . S
H445 C454 0.930 . S
H446 C456 0.930 . S
H447 C459 0.929 . S
H448 C462 0.930 1_554 S
H449 C464 0.960 . S
H450 C464 0.960 1_554 S
H451 C464 0.960 1_554 S
C452 H444 0.929 . S
C452 C453 1.377 . S
C452 C454 1.384 . S
C453 C452 1.377 . S
C453 C459 1.390 . S
C454 H445 0.930 . S
C454 C452 1.384 . S
C454 C455 1.372 . S
C455 C454 1.372 . S
C455 C456 1.400 . S
C455 C460 1.490 . S
C456 H446 0.930 . S
C456 C455 1.400 . S
C456 C459 1.386 . S
H457 C473 0.930 . S
H458 C474 0.931 . S
C459 H447 0.929 . S
C459 C453 1.390 . S
C459 C456 1.386 . S
C460 C455 1.490 . S
C460 C462 1.395 1_554 S
C460 C463 1.403 1_554 S
H461 C467 0.930 . S
C462 H448 0.930 1_556 S
C462 C460 1.395 1_556 S
C462 C465 1.403 . S
C463 C460 1.403 1_556 S
C463 C464 1.524 . S
C463 C467 1.400 . S
C464 H449 0.960 . S
C464 H450 0.960 1_556 S
C464 H451 0.960 1_556 S
C464 C463 1.524 . S
C465 C462 1.403 . S
C465 C466 1.392 . S
C465 C469 1.495 . S
C466 C465 1.392 . S
C466 C467 1.385 . S
C466 C468 1.478 . S
C467 H461 0.930 . S
C467 C463 1.400 . S
C467 C466 1.385 . S
C468 C466 1.478 . S
C468 C470 1.381 . S
C468 C474 1.383 . S
C469 C465 1.495 . S
C469 H475 0.959 . S
C469 H476 0.961 . S
C469 H477 0.960 . S
C470 C468 1.381 . S
C470 C471 1.394 . S
C470 H478 0.930 . S
C471 C470 1.394 . S
C471 C472 1.383 . S
C471 H479 0.929 . S
C472 C471 1.383 . S
C472 C473 1.377 . S
C473 H457 0.930 . S
C473 C472 1.377 . S
C473 C474 1.379 . S
C474 H458 0.931 . S
C474 C468 1.383 . S
C474 C473 1.379 . S
H475 C469 0.959 . S
H476 C469 0.961 . S
H477 C469 0.960 . S
H478 C470 0.930 . S
H479 C471 0.929 . S
H480 C488 0.929 . S
H481 C490 0.930 . S
H482 C492 0.930 . S
H483 C495 0.929 . S
H484 C498 0.930 . S
H485 C500 0.960 . S
H486 C500 0.960 . S
H487 C500 0.960 . S
C488 H480 0.929 . S
C488 C489 1.377 . S
C488 C490 1.384 1_556 S
C489 C488 1.377 . S
C489 C495 1.390 . S
C490 H481 0.930 . S
C490 C488 1.384 1_554 S
C490 C491 1.372 . S
C491 C490 1.372 . S
C491 C492 1.400 . S
C491 C496 1.490 . S
C492 H482 0.930 . S
C492 C491 1.400 . S
C492 C495 1.386 1_554 S
H493 C509 0.930 . S
H494 C510 0.931 . S
C495 H483 0.929 . S
C495 C489 1.390 . S
C495 C492 1.386 1_556 S
C496 C491 1.490 . S
C496 C498 1.395 . S
C496 C499 1.403 . S
H497 C503 0.930 . S
C498 H484 0.930 . S
C498 C496 1.395 . S
C498 C501 1.403 . S
C499 C496 1.403 . S
C499 C500 1.524 . S
C499 C503 1.400 . S
C500 H485 0.960 . S
C500 H486 0.960 . S
C500 H487 0.960 . S
C500 C499 1.524 . S
C501 C498 1.403 . S
C501 C502 1.392 . S
C501 C505 1.495 . S
C502 C501 1.392 . S
C502 C503 1.385 . S
C502 C504 1.478 . S
C503 H497 0.930 . S
C503 C499 1.400 . S
C503 C502 1.385 . S
C504 C502 1.478 . S
C504 C506 1.381 . S
C504 C510 1.383 . S
C505 C501 1.495 . S
C505 H511 0.959 . S
C505 H512 0.961 . S
C505 H513 0.960 . S
C506 C504 1.381 . S
C506 C507 1.394 . S
C506 H514 0.930 . S
C507 C506 1.394 . S
C507 C508 1.383 . S
C507 H515 0.929 . S
C508 C507 1.383 . S
C508 C509 1.377 . S
C509 H493 0.930 . S
C509 C508 1.377 . S
C509 C510 1.379 . S
C510 H494 0.931 . S
C510 C504 1.383 . S
C510 C509 1.379 . S
H511 C505 0.959 . S
H512 C505 0.961 . S
H513 C505 0.960 . S
H514 C506 0.930 . S
H515 C507 0.929 . S
H516 C524 0.929 . S
H517 C526 0.930 . S
H518 C528 0.930 . S
H519 C531 0.929 . S
H520 C534 0.930 . S
H521 C536 0.960 . S
H522 C536 0.960 . S
H523 C536 0.960 . S
C524 H516 0.929 . S
C524 C525 1.377 . S
C524 C526 1.384 . S
C525 C524 1.377 . S
C525 C531 1.390 . S
C526 H517 0.930 . S
C526 C524 1.384 . S
C526 C527 1.372 . S
C527 C526 1.372 . S
C527 C528 1.400 . S
C527 C532 1.490 . S
C528 H518 0.930 . S
C528 C527 1.400 . S
C528 C531 1.386 . S
H529 C545 0.930 . S
H530 C546 0.931 . S
C531 H519 0.929 . S
C531 C525 1.390 . S
C531 C528 1.386 . S
C532 C527 1.490 . S
C532 C534 1.395 . S
C532 C535 1.403 . S
H533 C539 0.930 . S
C534 H520 0.930 . S
C534 C532 1.395 . S
C534 C537 1.403 . S
C535 C532 1.403 . S
C535 C536 1.524 . S
C535 C539 1.400 . S
C536 H521 0.960 . S
C536 H522 0.960 . S
C536 H523 0.960 . S
C536 C535 1.524 . S
C537 C534 1.403 . S
C537 C538 1.392 . S
C537 C541 1.495 . S
C538 C537 1.392 . S
C538 C539 1.385 . S
C538 C540 1.478 . S
C539 H533 0.930 . S
C539 C535 1.400 . S
C539 C538 1.385 . S
C540 C538 1.478 . S
C540 C542 1.381 . S
C540 C546 1.383 . S
C541 C537 1.495 . S
C541 H547 0.959 . S
C541 H548 0.961 . S
C541 H549 0.960 . S
C542 C540 1.381 . S
C542 C543 1.394 . S
C542 H550 0.930 . S
C543 C542 1.394 . S
C543 C544 1.383 . S
C543 H551 0.929 . S
C544 C543 1.383 . S
C544 C545 1.377 . S
C545 H529 0.930 . S
C545 C544 1.377 . S
C545 C546 1.379 . S
C546 H530 0.931 . S
C546 C540 1.383 . S
C546 C545 1.379 . S
H547 C541 0.959 . S
H548 C541 0.961 . S
H549 C541 0.960 . S
H550 C542 0.930 . S
H551 C543 0.929 . S
H552 C560 0.929 . S
H553 C562 0.930 . S
H554 C564 0.930 . S
H555 C567 0.929 . S
H556 C570 0.930 . S
H557 C572 0.960 . S
H558 C572 0.960 . S
H559 C572 0.960 . S
C560 H552 0.929 . S
C560 C561 1.377 . S
C560 C562 1.384 1_554 S
C561 C560 1.377 . S
C561 C567 1.390 . S
C562 H553 0.930 . S
C562 C560 1.384 1_556 S
C562 C563 1.372 . S
C563 C562 1.372 . S
C563 C564 1.400 . S
C563 C568 1.490 . S
C564 H554 0.930 . S
C564 C563 1.400 . S
C564 C567 1.386 1_556 S
H565 C581 0.930 . S
H566 C582 0.931 . S
C567 H555 0.929 . S
C567 C561 1.390 . S
C567 C564 1.386 1_554 S
C568 C563 1.490 . S
C568 C570 1.395 . S
C568 C571 1.403 . S
H569 C575 0.930 . S
C570 H556 0.930 . S
C570 C568 1.395 . S
C570 C573 1.403 . S
C571 C568 1.403 . S
C571 C572 1.524 . S
C571 C575 1.400 . S
C572 H557 0.960 . S
C572 H558 0.960 . S
C572 H559 0.960 . S
C572 C571 1.524 . S
C573 C570 1.403 . S
C573 C574 1.392 . S
C573 C577 1.495 . S
C574 C573 1.392 . S
C574 C575 1.385 . S
C574 C576 1.478 . S
C575 H569 0.930 . S
C575 C571 1.400 . S
C575 C574 1.385 . S
C576 C574 1.478 . S
C576 C578 1.381 . S
C576 C582 1.383 . S
C577 C573 1.495 . S
C577 H583 0.959 . S
C577 H584 0.961 . S
C577 H585 0.960 . S
C578 C576 1.381 . S
C578 C579 1.394 . S
C578 H586 0.930 . S
C579 C578 1.394 . S
C579 C580 1.383 . S
C579 H587 0.929 . S
C580 C579 1.383 . S
C580 C581 1.377 . S
C581 H565 0.930 . S
C581 C580 1.377 . S
C581 C582 1.379 . S
C582 H566 0.931 . S
C582 C576 1.383 . S
C582 C581 1.379 . S
H583 C577 0.959 . S
H584 C577 0.961 . S
H585 C577 0.960 . S
H586 C578 0.930 . S
H587 C579 0.929 . S
H588 C596 0.929 . S
H589 C598 0.930 . S
H590 C600 0.930 . S
H591 C603 0.929 . S
H592 C606 0.930 . S
H593 C608 0.960 . S
H594 C608 0.960 . S
H595 C608 0.960 . S
C596 H588 0.929 . S
C596 C597 1.377 . S
C596 C598 1.384 . S
C597 C596 1.377 . S
C597 C603 1.390 . S
C598 H589 0.930 . S
C598 C596 1.384 . S
C598 C599 1.372 . S
C599 C598 1.372 . S
C599 C600 1.400 . S
C599 C604 1.490 . S
C600 H590 0.930 . S
C600 C599 1.400 . S
C600 C603 1.386 . S
H601 C617 0.930 . S
H602 C618 0.931 . S
C603 H591 0.929 . S
C603 C597 1.390 . S
C603 C600 1.386 . S
C604 C599 1.490 . S
C604 C606 1.395 . S
C604 C607 1.403 . S
H605 C611 0.930 1_556 S
C606 H592 0.930 . S
C606 C604 1.395 . S
C606 C609 1.403 . S
C607 C604 1.403 . S
C607 C608 1.524 . S
C607 C611 1.400 . S
C608 H593 0.960 . S
C608 H594 0.960 . S
C608 H595 0.960 . S
C608 C607 1.524 . S
C609 C606 1.403 . S
C609 C610 1.392 1_554 S
C609 C613 1.495 . S
C610 C609 1.392 1_556 S
C610 C611 1.385 1_556 S
C610 C612 1.478 . S
C611 H605 0.930 1_554 S
C611 C607 1.400 . S
C611 C610 1.385 1_554 S
C612 C610 1.478 . S
C612 C614 1.381 . S
C612 C618 1.383 . S
C613 C609 1.495 . S
C613 H619 0.959 . S
C613 H620 0.961 1_554 S
C613 H621 0.960 1_554 S
C614 C612 1.381 . S
C614 C615 1.394 . S
C614 H622 0.930 . S
C615 C614 1.394 . S
C615 C616 1.383 . S
C615 H623 0.929 . S
C616 C615 1.383 . S
C616 C617 1.377 . S
C617 H601 0.930 . S
C617 C616 1.377 . S
C617 C618 1.379 . S
C618 H602 0.931 . S
C618 C612 1.383 . S
C618 C617 1.379 . S
H619 C613 0.959 . S
H620 C613 0.961 1_556 S
H621 C613 0.960 1_556 S
H622 C614 0.930 . S
H623 C615 0.929 . S
H624 C632 0.929 . S
H625 C634 0.930 . S
H626 C636 0.930 . S
H627 C639 0.929 . S
H628 C642 0.930 . S
H629 C644 0.960 . S
H630 C644 0.960 . S
H631 C644 0.960 . S
C632 H624 0.929 . S
C632 C633 1.377 . S
C632 C634 1.384 . S
C633 C632 1.377 . S
C633 C639 1.390 . S
C634 H625 0.930 . S
C634 C632 1.384 . S
C634 C635 1.372 . S
C635 C634 1.372 . S
C635 C636 1.400 . S
C635 C640 1.490 . S
C636 H626 0.930 . S
C636 C635 1.400 . S
C636 C639 1.386 . S
H637 C653 0.930 . S
H638 C654 0.931 . S
C639 H627 0.929 . S
C639 C633 1.390 . S
C639 C636 1.386 . S
C640 C635 1.490 . S
C640 C642 1.395 . S
C640 C643 1.403 . S
H641 C647 0.930 . S
C642 H628 0.930 . S
C642 C640 1.395 . S
C642 C645 1.403 . S
C643 C640 1.403 . S
C643 C644 1.524 . S
C643 C647 1.400 . S
C644 H629 0.960 . S
C644 H630 0.960 . S
C644 H631 0.960 . S
C644 C643 1.524 . S
C645 C642 1.403 . S
C645 C646 1.392 . S
C645 C649 1.495 . S
C646 C645 1.392 . S
C646 C647 1.385 . S
C646 C648 1.478 . S
C647 H641 0.930 . S
C647 C643 1.400 . S
C647 C646 1.385 . S
C648 C646 1.478 . S
C648 C650 1.381 . S
C648 C654 1.383 . S
C649 C645 1.495 . S
C649 H655 0.959 . S
C649 H656 0.961 . S
C649 H657 0.960 . S
C650 C648 1.381 . S
C650 C651 1.394 . S
C650 H658 0.930 . S
C651 C650 1.394 . S
C651 C652 1.383 . S
C651 H659 0.929 . S
C652 C651 1.383 . S
C652 C653 1.377 . S
C653 H637 0.930 . S
C653 C652 1.377 . S
C653 C654 1.379 . S
C654 H638 0.931 . S
C654 C648 1.383 . S
C654 C653 1.379 . S
H655 C649 0.959 . S
H656 C649 0.961 . S
H657 C649 0.960 . S
H658 C650 0.930 . S
H659 C651 0.929 . S
H660 C668 0.929 . S
H661 C670 0.930 . S
H662 C672 0.930 . S
H663 C675 0.929 . S
H664 C678 0.930 . S
H665 C680 0.960 . S
H666 C680 0.960 . S
H667 C680 0.960 . S
C668 H660 0.929 . S
C668 C669 1.377 . S
C668 C670 1.384 . S
C669 C668 1.377 . S
C669 C675 1.390 . S
C670 H661 0.930 . S
C670 C668 1.384 . S
C670 C671 1.372 . S
C671 C670 1.372 . S
C671 C672 1.400 . S
C671 C676 1.490 . S
C672 H662 0.930 . S
C672 C671 1.400 . S
C672 C675 1.386 . S
H673 C689 0.930 . S
H674 C690 0.931 . S
C675 H663 0.929 . S
C675 C669 1.390 . S
C675 C672 1.386 . S
C676 C671 1.490 . S
C676 C678 1.395 . S
C676 C679 1.403 . S
H677 C683 0.930 . S
C678 H664 0.930 . S
C678 C676 1.395 . S
C678 C681 1.403 . S
C679 C676 1.403 . S
C679 C680 1.524 . S
C679 C683 1.400 . S
C680 H665 0.960 . S
C680 H666 0.960 . S
C680 H667 0.960 . S
C680 C679 1.524 . S
C681 C678 1.403 . S
C681 C682 1.392 . S
C681 C685 1.495 . S
C682 C681 1.392 . S
C682 C683 1.385 . S
C682 C684 1.478 . S
C683 H677 0.930 . S
C683 C679 1.400 . S
C683 C682 1.385 . S
C684 C682 1.478 . S
C684 C686 1.381 . S
C684 C690 1.383 . S
C685 C681 1.495 . S
C685 H691 0.959 . S
C685 H692 0.961 . S
C685 H693 0.960 . S
C686 C684 1.381 . S
C686 C687 1.394 . S
C686 H694 0.930 . S
C687 C686 1.394 . S
C687 C688 1.383 . S
C687 H695 0.929 . S
C688 C687 1.383 . S
C688 C689 1.377 . S
C689 H673 0.930 . S
C689 C688 1.377 . S
C689 C690 1.379 . S
C690 H674 0.931 . S
C690 C684 1.383 . S
C690 C689 1.379 . S
H691 C685 0.959 . S
H692 C685 0.961 . S
H693 C685 0.960 . S
H694 C686 0.930 . S
H695 C687 0.929 . S
H696 C704 0.929 . S
H697 C706 0.930 . S
H698 C708 0.930 . S
H699 C711 0.929 . S
H700 C714 0.930 . S
H701 C716 0.922 1_655 S
H702 C716 0.967 . S
H703 C716 0.993 . S
C704 H696 0.929 . S
C704 C705 1.377 . S
C704 C706 1.384 . S
C705 C704 1.377 . S
C705 C711 1.390 . S
C706 H697 0.930 . S
C706 C704 1.384 . S
C706 C707 1.372 . S
C707 C706 1.372 . S
C707 C708 1.400 . S
C707 C712 1.490 . S
C708 H698 0.930 . S
C708 C707 1.400 . S
C708 C711 1.386 . S
H709 C725 0.930 . S
H710 C726 0.931 . S
C711 H699 0.929 . S
C711 C705 1.390 . S
C711 C708 1.386 . S
C712 C707 1.490 . S
C712 C714 1.395 1_554 S
C712 C715 1.403 . S
H713 C719 0.930 . S
C714 H700 0.930 . S
C714 C712 1.395 1_556 S
C714 C717 1.383 1_455 S
C715 C712 1.403 . S
C715 C716 1.525 . S
C715 C719 1.400 1_455 S
C716 H701 0.922 1_455 S
C716 H702 0.967 . S
C716 H703 0.993 . S
C716 C715 1.525 . S
C717 C714 1.383 1_655 S
C717 C718 1.412 . S
C717 C721 1.495 . S
C718 C717 1.412 . S
C718 C719 1.385 1_556 S
C718 C720 1.478 . S
C719 H713 0.930 . S
C719 C715 1.400 1_655 S
C719 C718 1.385 1_554 S
C720 C718 1.478 . S
C720 C722 1.381 . S
C720 C726 1.383 . S
C721 C717 1.495 . S
C721 H727 0.931 1_655 S
C721 H728 0.967 . S
C721 H729 0.983 . S
C722 C720 1.381 . S
C722 C723 1.394 . S
C722 H730 0.930 . S
C723 C722 1.394 . S
C723 C724 1.383 . S
C723 H731 0.929 . S
C724 C723 1.383 . S
C724 C725 1.377 . S
C725 H709 0.930 . S
C725 C724 1.377 . S
C725 C726 1.379 . S
C726 H710 0.931 . S
C726 C720 1.383 . S
C726 C725 1.379 . S
H727 C721 0.931 1_455 S
H728 C721 0.967 . S
H729 C721 0.983 . S
H730 C722 0.930 . S
H731 C723 0.929 . S
H732 C740 0.929 . S
H733 C742 0.930 . S
H734 C744 0.930 . S
H735 C747 0.929 . S
H736 C750 0.930 . S
H737 C752 0.960 1_545 S
H738 C752 0.960 . S
H739 C752 0.960 . S
C740 H732 0.929 . S
C740 C741 1.377 . S
C740 C742 1.384 . S
C741 C740 1.377 . S
C741 C747 1.390 . S
C742 H733 0.930 . S
C742 C740 1.384 . S
C742 C743 1.372 . S
C743 C742 1.372 . S
C743 C744 1.400 . S
C743 C748 1.490 . S
C744 H734 0.930 . S
C744 C743 1.400 . S
C744 C747 1.386 . S
H745 C761 0.930 . S
H746 C762 0.931 . S
C747 H735 0.929 . S
C747 C741 1.390 . S
C747 C744 1.386 . S
C748 C743 1.490 . S
C748 C750 1.395 . S
C748 C751 1.403 . S
H749 C755 0.930 . S
C750 H736 0.930 . S
C750 C748 1.395 . S
C750 C753 1.403 1_565 S
C751 C748 1.403 . S
C751 C752 1.524 . S
C751 C755 1.400 1_565 S
C752 H737 0.960 1_565 S
C752 H738 0.960 . S
C752 H739 0.960 . S
C752 C751 1.524 . S
C753 C750 1.403 1_545 S
C753 C754 1.392 . S
C753 C757 1.495 . S
C754 C753 1.392 . S
C754 C755 1.385 . S
C754 C756 1.478 . S
C755 H749 0.930 . S
C755 C751 1.400 1_545 S
C755 C754 1.385 . S
C756 C754 1.478 . S
C756 C758 1.381 . S
C756 C762 1.383 . S
C757 C753 1.495 . S
C757 H763 0.959 1_545 S
C757 H764 0.961 . S
C757 H765 0.960 . S
C758 C756 1.381 . S
C758 C759 1.394 . S
C758 H766 0.930 . S
C759 C758 1.394 . S
C759 C760 1.383 . S
C759 H767 0.929 . S
C760 C759 1.383 . S
C760 C761 1.377 . S
C761 H745 0.930 . S
C761 C760 1.377 . S
C761 C762 1.379 . S
C762 H746 0.931 . S
C762 C756 1.383 . S
C762 C761 1.379 . S
H763 C757 0.959 1_565 S
H764 C757 0.961 . S
H765 C757 0.960 . S
H766 C758 0.930 . S
H767 C759 0.929 . S
H768 C776 0.929 . S
H769 C778 0.930 . S
H770 C780 0.930 . S
H771 C783 0.929 . S
H772 C786 0.930 . S
H773 C788 0.960 1_655 S
H774 C788 0.960 . S
H775 C788 0.960 . S
C776 H768 0.929 . S
C776 C777 1.377 . S
C776 C778 1.384 . S
C777 C776 1.377 . S
C777 C783 1.390 . S
C778 H769 0.930 . S
C778 C776 1.384 . S
C778 C779 1.372 . S
C779 C778 1.372 . S
C779 C780 1.400 . S
C779 C784 1.490 . S
C780 H770 0.930 . S
C780 C779 1.400 . S
C780 C783 1.386 . S
H781 C797 0.930 . S
H782 C798 0.931 . S
C783 H771 0.929 . S
C783 C777 1.390 . S
C783 C780 1.386 . S
C784 C779 1.490 . S
C784 C786 1.395 . S
C784 C787 1.403 . S
H785 C791 0.930 . S
C786 H772 0.930 . S
C786 C784 1.395 . S
C786 C789 1.378 1_455 S
C787 C784 1.403 . S
C787 C788 1.524 . S
C787 C791 1.400 1_455 S
C788 H773 0.960 1_455 S
C788 H774 0.960 . S
C788 H775 0.960 . S
C788 C787 1.524 . S
C789 C786 1.378 1_655 S
C789 C790 1.416 . S
C789 C793 1.497 . S
C790 C789 1.416 . S
C790 C791 1.385 . S
C790 C792 1.478 . S
C791 H785 0.930 . S
C791 C787 1.400 1_655 S
C791 C790 1.385 . S
C792 C790 1.478 . S
C792 C794 1.381 . S
C792 C798 1.383 . S
C793 C789 1.497 . S
C793 H799 0.959 1_655 S
C793 H800 0.961 . S
C793 H801 0.960 . S
C794 C792 1.381 . S
C794 C795 1.394 . S
C794 H802 0.930 . S
C795 C794 1.394 . S
C795 C796 1.383 . S
C795 H803 0.929 . S
C796 C795 1.383 . S
C796 C797 1.377 . S
C797 H781 0.930 . S
C797 C796 1.377 . S
C797 C798 1.379 . S
C798 H782 0.931 . S
C798 C792 1.383 . S
C798 C797 1.379 . S
H799 C793 0.959 1_455 S
H800 C793 0.961 . S
H801 C793 0.960 . S
H802 C794 0.930 . S
H803 C795 0.929 . S
H804 C812 0.929 . S
H805 C814 0.930 . S
H806 C816 0.930 . S
H807 C819 0.929 . S
H808 C822 0.930 . S
H809 C824 0.960 . S
H810 C824 0.960 1_565 S
H811 C824 0.960 1_565 S
C812 H804 0.929 . S
C812 C813 1.377 . S
C812 C814 1.384 . S
C813 C812 1.377 . S
C813 C819 1.390 . S
C814 H805 0.930 . S
C814 C812 1.384 . S
C814 C815 1.372 . S
C815 C814 1.372 . S
C815 C816 1.400 . S
C815 C820 1.490 . S
C816 H806 0.930 . S
C816 C815 1.400 . S
C816 C819 1.386 . S
H817 C833 0.930 . S
H818 C834 0.931 . S
C819 H807 0.929 . S
C819 C813 1.390 . S
C819 C816 1.386 . S
C820 C815 1.490 . S
C820 C822 1.395 . S
C820 C823 1.403 1_565 S
H821 C827 0.930 . S
C822 H808 0.930 . S
C822 C820 1.395 . S
C822 C825 1.403 . S
C823 C820 1.403 1_545 S
C823 C824 1.524 . S
C823 C827 1.399 . S
C824 H809 0.960 . S
C824 H810 0.960 1_545 S
C824 H811 0.960 1_545 S
C824 C823 1.524 . S
C825 C822 1.403 . S
C825 C826 1.392 1_565 S
C825 C829 1.495 . S
C826 C825 1.392 1_545 S
C826 C827 1.385 . S
C826 C828 1.478 . S
C827 H821 0.930 . S
C827 C823 1.399 . S
C827 C826 1.385 . S
C828 C826 1.478 . S
C828 C830 1.381 . S
C828 C834 1.383 . S
C829 C825 1.495 . S
C829 H835 0.959 . S
C829 H836 0.961 1_565 S
C829 H837 0.940 1_565 S
C830 C828 1.381 . S
C830 C831 1.394 . S
C830 H838 0.930 . S
C831 C830 1.394 . S
C831 C832 1.383 . S
C831 H839 0.929 . S
C832 C831 1.383 . S
C832 C833 1.377 . S
C833 H817 0.930 . S
C833 C832 1.377 . S
C833 C834 1.379 . S
C834 H818 0.931 . S
C834 C828 1.383 . S
C834 C833 1.379 . S
H835 C829 0.959 . S
H836 C829 0.961 1_545 S
H837 C829 0.940 1_545 S
H838 C830 0.930 . S
H839 C831 0.929 . S
H840 C848 0.929 . S
H841 C850 0.930 . S
H842 C852 0.930 . S
H843 C855 0.929 . S
H844 C858 0.930 . S
H845 C860 0.960 . S
H846 C860 0.960 . S
H847 C860 0.960 . S
C848 H840 0.929 . S
C848 C849 1.377 . S
C848 C850 1.384 . S
C849 C848 1.377 . S
C849 C855 1.390 . S
C850 H841 0.930 . S
C850 C848 1.384 . S
C850 C851 1.372 . S
C851 C850 1.372 . S
C851 C852 1.400 . S
C851 C856 1.490 . S
C852 H842 0.930 . S
C852 C851 1.400 . S
C852 C855 1.386 . S
H853 C869 0.930 . S
H854 C870 0.931 . S
C855 H843 0.929 . S
C855 C849 1.390 . S
C855 C852 1.386 . S
C856 C851 1.490 . S
C856 C858 1.395 . S
C856 C859 1.403 . S
H857 C863 0.930 . S
C858 H844 0.930 . S
C858 C856 1.395 . S
C858 C861 1.403 . S
C859 C856 1.403 . S
C859 C860 1.524 . S
C859 C863 1.400 . S
C860 H845 0.960 . S
C860 H846 0.960 . S
C860 H847 0.960 . S
C860 C859 1.524 . S
C861 C858 1.403 . S
C861 C862 1.392 . S
C861 C865 1.495 . S
C862 C861 1.392 . S
C862 C863 1.385 . S
C862 C864 1.478 . S
C863 H857 0.930 . S
C863 C859 1.400 . S
C863 C862 1.385 . S
C864 C862 1.478 . S
C864 C866 1.381 . S
C864 C870 1.383 . S
C865 C861 1.495 . S
C865 H871 0.959 . S
C865 H872 0.961 . S
C865 H873 0.960 . S
C866 C864 1.381 . S
C866 C867 1.394 . S
C866 H874 0.930 . S
C867 C866 1.394 . S
C867 C868 1.383 . S
C867 H875 0.929 . S
C868 C867 1.383 . S
C868 C869 1.377 . S
C869 H853 0.930 . S
C869 C868 1.377 . S
C869 C870 1.379 . S
C870 H854 0.931 . S
C870 C864 1.383 . S
C870 C869 1.379 . S
H871 C865 0.959 . S
H872 C865 0.961 . S
H873 C865 0.960 . S
H874 C866 0.930 . S
H875 C867 0.929 . S
H876 C884 0.929 . S
H877 C886 0.930 . S
H878 C888 0.930 . S
H879 C891 0.929 . S
H880 C894 0.930 . S
H881 C896 0.960 . S
H882 C896 0.960 . S
H883 C896 0.960 . S
C884 H876 0.929 . S
C884 C885 1.377 . S
C884 C886 1.384 . S
C885 C884 1.377 . S
C885 C891 1.390 . S
C886 H877 0.930 . S
C886 C884 1.384 . S
C886 C887 1.372 . S
C887 C886 1.372 . S
C887 C888 1.400 . S
C887 C892 1.490 . S
C888 H878 0.930 . S
C888 C887 1.400 . S
C888 C891 1.386 . S
H889 C905 0.930 . S
H890 C906 0.931 . S
C891 H879 0.929 . S
C891 C885 1.390 . S
C891 C888 1.386 . S
C892 C887 1.490 . S
C892 C894 1.395 . S
C892 C895 1.403 . S
H893 C899 0.930 . S
C894 H880 0.930 . S
C894 C892 1.395 . S
C894 C897 1.403 . S
C895 C892 1.403 . S
C895 C896 1.524 . S
C895 C899 1.400 . S
C896 H881 0.960 . S
C896 H882 0.960 . S
C896 H883 0.960 . S
C896 C895 1.524 . S
C897 C894 1.403 . S
C897 C898 1.392 . S
C897 C901 1.495 . S
C898 C897 1.392 . S
C898 C899 1.385 . S
C898 C900 1.478 . S
C899 H893 0.930 . S
C899 C895 1.400 . S
C899 C898 1.385 . S
C900 C898 1.478 . S
C900 C902 1.381 . S
C900 C906 1.383 . S
C901 C897 1.495 . S
C901 H907 0.959 . S
C901 H908 0.961 . S
C901 H909 0.960 . S
C902 C900 1.381 . S
C902 C903 1.394 . S
C902 H910 0.930 . S
C903 C902 1.394 . S
C903 C904 1.383 . S
C903 H911 0.929 . S
C904 C903 1.383 . S
C904 C905 1.377 . S
C905 H889 0.930 . S
C905 C904 1.377 . S
C905 C906 1.379 . S
C906 H890 0.931 . S
C906 C900 1.383 . S
C906 C905 1.379 . S
H907 C901 0.959 . S
H908 C901 0.961 . S
H909 C901 0.960 . S
H910 C902 0.930 . S
H911 C903 0.929 . S
H912 C920 0.929 . S
H913 C922 0.930 . S
H914 C924 0.930 . S
H915 C927 0.929 . S
H916 C930 0.930 . S
H917 C932 0.960 . S
H918 C932 0.960 . S
H919 C932 0.960 . S
C920 H912 0.929 . S
C920 C921 1.377 . S
C920 C922 1.384 . S
C921 C920 1.377 . S
C921 C927 1.390 . S
C922 H913 0.930 . S
C922 C920 1.384 . S
C922 C923 1.372 . S
C923 C922 1.372 . S
C923 C924 1.400 . S
C923 C928 1.490 . S
C924 H914 0.930 . S
C924 C923 1.400 . S
C924 C927 1.386 . S
H925 C941 0.930 . S
H926 C942 0.931 . S
C927 H915 0.929 . S
C927 C921 1.390 . S
C927 C924 1.386 . S
C928 C923 1.490 . S
C928 C930 1.395 . S
C928 C931 1.403 . S
H929 C935 0.930 . S
C930 H916 0.930 . S
C930 C928 1.395 . S
C930 C933 1.403 . S
C931 C928 1.403 . S
C931 C932 1.524 . S
C931 C935 1.400 . S
C932 H917 0.960 . S
C932 H918 0.960 . S
C932 H919 0.960 . S
C932 C931 1.524 . S
C933 C930 1.403 . S
C933 C934 1.392 . S
C933 C937 1.495 . S
C934 C933 1.392 . S
C934 C935 1.385 . S
C934 C936 1.478 . S
C935 H929 0.930 . S
C935 C931 1.400 . S
C935 C934 1.385 . S
C936 C934 1.478 . S
C936 C938 1.381 . S
C936 C942 1.383 . S
C937 C933 1.495 . S
C937 H943 0.959 . S
C937 H944 0.961 . S
C937 H945 0.960 . S
C938 C936 1.381 . S
C938 C939 1.394 . S
C938 H946 0.930 . S
C939 C938 1.394 . S
C939 C940 1.383 . S
C939 H947 0.929 . S
C940 C939 1.383 . S
C940 C941 1.377 . S
C941 H925 0.930 . S
C941 C940 1.377 . S
C941 C942 1.379 . S
C942 H926 0.931 . S
C942 C936 1.383 . S
C942 C941 1.379 . S
H943 C937 0.959 . S
H944 C937 0.961 . S
H945 C937 0.960 . S
H946 C938 0.930 . S
H947 C939 0.929 . S
H948 C956 0.929 . S
H949 C958 0.930 . S
H950 C960 0.930 . S
H951 C963 0.929 . S
H952 C966 0.930 . S
H953 C968 0.960 . S
H954 C968 0.960 . S
H955 C968 0.960 . S
C956 H948 0.929 . S
C956 C957 1.377 . S
C956 C958 1.384 . S
C957 C956 1.377 . S
C957 C963 1.390 1_554 S
C958 H949 0.930 . S
C958 C956 1.384 . S
C958 C959 1.372 . S
C959 C958 1.372 . S
C959 C960 1.400 1_554 S
C959 C964 1.490 . S
C960 H950 0.930 . S
C960 C959 1.400 1_556 S
C960 C963 1.386 . S
H961 C977 0.930 . S
H962 C978 0.931 . S
C963 H951 0.929 . S
C963 C957 1.390 1_556 S
C963 C960 1.386 . S
C964 C959 1.490 . S
C964 C966 1.395 . S
C964 C967 1.403 1_554 S
H965 C971 0.930 . S
C966 H952 0.930 . S
C966 C964 1.395 . S
C966 C969 1.403 . S
C967 C964 1.403 1_556 S
C967 C968 1.524 . S
C967 C971 1.400 . S
C968 H953 0.960 . S
C968 H954 0.960 . S
C968 H955 0.960 . S
C968 C967 1.524 . S
C969 C966 1.403 . S
C969 C970 1.392 . S
C969 C973 1.495 . S
C970 C969 1.392 . S
C970 C971 1.385 1_554 S
C970 C972 1.478 1_554 S
C971 H965 0.930 . S
C971 C967 1.400 . S
C971 C970 1.385 1_556 S
C972 C970 1.478 1_556 S
C972 C974 1.381 1_556 S
C972 C978 1.383 . S
C973 C969 1.495 . S
C973 H979 0.959 . S
C973 H980 0.961 . S
C973 H981 0.960 . S
C974 C972 1.381 1_554 S
C974 C975 1.394 . S
C974 H982 0.930 . S
C975 C974 1.394 . S
C975 C976 1.383 1_554 S
C975 H983 0.929 . S
C976 C975 1.383 1_556 S
C976 C977 1.377 . S
C977 H961 0.930 . S
C977 C976 1.377 . S
C977 C978 1.379 . S
C978 H962 0.931 . S
C978 C972 1.383 . S
C978 C977 1.379 . S
H979 C973 0.959 . S
H980 C973 0.961 . S
H981 C973 0.960 . S
H982 C974 0.930 . S
H983 C975 0.929 . S
C273 C183 1.140 . S
C292 C18 1.131 . S
C309 C216 1.140 . S
C328 C51 1.154 . S
C345 C84 1.135 . S
C364 C249 1.142 . S
C381 C150 1.139 . S
C400 C117 1.154 . S
C417 N13 0.958 . S
C436 N2 0.936 1_556 S
C453 N35 0.955 . S
C472 N46 0.939 . S
C489 N79 0.955 . S
C508 N68 0.951 . S
C525 N112 0.962 . S
C544 N101 0.950 . S
C561 N145 0.955 . S
C580 N134 0.956 . S
C597 N178 0.963 . S
C616 N167 0.966 . S
C633 N211 0.962 . S
C652 N200 0.977 1_554 S
C669 N233 0.955 . S
C688 N244 0.939 . S
C705 C7 1.332 . S
C724 C205 1.333 . S
C741 C238 1.333 . S
C760 C40 1.324 . S
C777 C139 1.324 . S
C796 C73 1.354 . S
C813 C106 1.326 . S
C832 C172 1.352 . S
C849 C21 1.530 . S
C868 C153 1.515 . S
C885 C54 1.530 . S
C904 C186 1.518 . S
C921 C87 1.528 . S
C940 C219 1.527 . S
C957 C252 1.530 . S
C976 C120 1.515 . S
