# Generated by pormake.
# Topology uni, (4)-cn, num edge types: 1
# Building blocks:
#     Node 0, Type 0, BuildingBlock: ICAMEG_clean_sbu_1, # of connection points: 4
#     Node 1, Type 0, BuildingBlock: ICAMEG_clean_sbu_1, # of connection points: 4
#     Node 2, Type 0, BuildingBlock: ICAMEG_clean_sbu_1, # of connection points: 4
#     Node 3, Type 0, BuildingBlock: ICAMEG_clean_sbu_1, # of connection points: 4
#     Node 4, Type 0, BuildingBlock: ICAMEG_clean_sbu_1, # of connection points: 4
#     Node 5, Type 0, BuildingBlock: ICAMEG_clean_sbu_1, # of connection points: 4
#     Edge 6, Type (0, 0), BuildingBlock: XUDNAN_clean_linker_2, # of connection points: 2
#     Edge 7, Type (0, 0), BuildingBlock: XUDNAN_clean_linker_2, # of connection points: 2
#     Edge 8, Type (0, 0), BuildingBlock: XUDNAN_clean_linker_2, # of connection points: 2
#     Edge 9, Type (0, 0), BuildingBlock: XUDNAN_clean_linker_2, # of connection points: 2
#     Edge 10, Type (0, 0), BuildingBlock: XUDNAN_clean_linker_2, # of connection points: 2
#     Edge 11, Type (0, 0), BuildingBlock: XUDNAN_clean_linker_2, # of connection points: 2
#     Edge 12, Type (0, 0), BuildingBlock: XUDNAN_clean_linker_2, # of connection points: 2
#     Edge 13, Type (0, 0), BuildingBlock: XUDNAN_clean_linker_2, # of connection points: 2
#     Edge 14, Type (0, 0), BuildingBlock: XUDNAN_clean_linker_2, # of connection points: 2
#     Edge 15, Type (0, 0), BuildingBlock: XUDNAN_clean_linker_2, # of connection points: 2
#     Edge 16, Type (0, 0), BuildingBlock: XUDNAN_clean_linker_2, # of connection points: 2
#     Edge 17, Type (0, 0), BuildingBlock: XUDNAN_clean_linker_2, # of connection points: 2
# Relax obj value: 0.140
# Max RMSD: 0.183
# Mean RMSD: 0.183
data_MOF--net-uni--node1-ICAMEG_clean_sbu_1--edge1-XUDNAN_clean_linker_2
_symmetry_space_group_name_H-M    P1
_symmetry_Int_Tables_number       1
_symmetry_cell_setting            triclinic
loop_
_symmetry_equiv_pos_as_xyz
'x, y, z'
_cell_length_a     40.471304
_cell_length_b     40.489645
_cell_length_c     24.491484
_cell_angle_alpha  90.014349
_cell_angle_beta   90.065586
_cell_angle_gamma 120.15625
loop_
_atom_site_label
_atom_site_type_symbol
_atom_site_fract_x
_atom_site_fract_y
_atom_site_fract_z
_atom_type_partial_charge
Co0 Co 0.63667 0.02168 0.07177 0.0
Co1 Co 0.71963 0.09127 0.13186 0.0
O2 O 0.68355 0.0724 0.06991 0.0
C3 C 0.61542 0.07185 1.00414 0.0
O4 O 0.65006 0.10155 1.00623 0.0
C5 C 0.77 0.12352 0.03091 0.0
O6 O 0.74084 0.10922 0.99727 0.0
O7 O 0.72473 0.0451 0.12752 0.0
O8 O 0.66395 0.99938 0.11297 0.0
H9 H 0.77154 0.07688 0.31123 0.0
H10 H 0.67143 0.06119 0.96511 0.0
O11 O 0.60688 0.04102 0.02951 0.0
H12 H 0.65595 0.93311 0.94861 0.0
H13 H 0.51465 0.91202 0.99667 0.0
H14 H 0.59905 0.96271 0.1575 0.0
H15 H 0.63572 0.95176 0.03197 0.0
H16 H 0.57407 0.97446 0.99251 0.0
O17 O 0.76523 0.11842 0.08225 0.0
H18 H 0.72667 0.05549 0.23354 0.0
H19 H 0.78951 0.16518 0.1606 0.0
H20 H 0.54013 0.89993 0.16318 0.0
H21 H 0.69117 0.04358 0.88073 0.0
H22 H 0.49745 0.87419 0.08237 0.0
H23 H 0.68371 0.97908 0.87182 0.0
O24 O 0.62066 0.03521 0.14177 0.0
H25 H 0.71271 0.20374 0.05681 0.0
H26 H 0.70735 0.13265 0.22296 0.0
H27 H 0.69971 0.18905 0.23048 0.0
H28 H 0.70261 0.22525 0.14703 0.0
H29 H 0.71954 0.14696 0.05113 0.0
H30 H 0.83522 0.18763 0.23731 0.0
H31 H 0.82628 0.1434 0.31346 0.0
O32 O 0.67679 0.06529 0.18533 0.0
C33 C 0.69853 0.01012 0.12572 0.0
C34 C 0.77567 0.09646 0.27838 0.0
C35 C 0.81144 0.1586 0.23686 0.0
N36 N 0.75524 0.10912 0.19277 0.0
C37 C 0.7503 0.08454 0.23433 0.0
C38 C 0.7855 0.14568 0.19346 0.0
C39 C 0.8064 0.13377 0.27958 0.0
C40 C 0.66741 0.03302 0.96187 0.0
N41 N 0.65197 0.00763 1.00397 0.0
C42 C 0.67896 0.02319 0.91377 0.0
C43 C 0.67484 0.98706 0.90882 0.0
C44 C 0.65932 0.9613 0.95186 0.0
C45 C 0.64807 0.97216 0.99925 0.0
C46 C 0.53304 0.92291 0.03214 0.0
C47 C 0.58077 0.95161 0.12204 0.0
C48 C 0.56666 0.95833 0.03011 0.0
N49 N 0.59019 0.97215 0.07464 0.0
C50 C 0.54738 0.91609 0.12555 0.0
C51 C 0.52342 0.90168 0.08022 0.0
C52 C 0.64042 0.04868 0.18522 0.0
C53 C 0.71161 0.18836 0.09354 0.0
C54 C 0.70848 0.14802 0.18634 0.0
C55 C 0.70423 0.18007 0.19092 0.0
C56 C 0.70588 0.20037 0.14413 0.0
N57 N 0.71442 0.13649 0.1366 0.0
C58 C 0.71573 0.15616 0.09057 0.0
Co59 Co 0.66376 0.63891 0.18621 0.0
Co60 Co 0.68416 0.7139 0.27359 0.0
O61 O 0.66469 0.68701 0.20323 0.0
C62 C 0.59302 0.63145 0.13 0.0
O63 O 0.59928 0.66439 0.14903 0.0
C64 C 0.70845 0.77619 0.18843 0.0
O65 O 0.69491 0.75109 0.14879 0.0
O66 O 0.73338 0.71495 0.26257 0.0
O67 O 0.71325 0.65705 0.22623 0.0
H68 H 0.74877 0.73523 0.45602 0.0
H69 H 0.65997 0.68684 0.09542 0.0
O70 O 0.61441 0.61813 0.14398 0.0
H71 H 0.7684 0.66898 0.05004 0.0
H72 H 0.64026 0.52657 0.06935 0.0
H73 H 0.68013 0.58684 0.25077 0.0
H74 H 0.73038 0.64 0.13278 0.0
H75 H 0.64371 0.58798 0.08833 0.0
O76 O 0.70671 0.76567 0.23786 0.0
H77 H 0.7233 0.70262 0.36804 0.0
H78 H 0.68768 0.78198 0.32729 0.0
H79 H 0.67762 0.52564 0.2332 0.0
H80 H 0.69647 0.71552 1.01178 0.0
H81 H 0.6575 0.49506 0.14197 0.0
H82 H 0.75141 0.70695 0.9885 0.0
O83 O 0.63429 0.61537 0.25439 0.0
H84 H 0.5728 0.72973 0.21831 0.0
H85 H 0.63047 0.69383 0.36728 0.0
H86 H 0.56915 0.69124 0.38264 0.0
H87 H 0.53994 0.70953 0.30792 0.0
H88 H 0.63354 0.73106 0.20444 0.0
H89 H 0.71306 0.81562 0.41469 0.0
H90 H 0.74371 0.79216 0.47988 0.0
O91 O 0.6627 0.66413 0.31337 0.0
C92 C 0.73896 0.68779 0.24865 0.0
C93 C 0.73537 0.74566 0.42804 0.0
C94 C 0.71539 0.79081 0.4048 0.0
N95 N 0.70378 0.7402 0.34266 0.0
C96 C 0.72081 0.72726 0.37819 0.0
C97 C 0.70117 0.7717 0.35528 0.0
C98 C 0.73256 0.77762 0.44137 0.0
C99 C 0.68337 0.68245 0.08578 0.0
N100 N 0.69287 0.6617 0.11965 0.0
C101 C 0.70418 0.69903 0.03821 0.0
C102 C 0.73503 0.69428 0.02522 0.0
C103 C 0.74461 0.67306 0.05976 0.0
C104 C 0.72312 0.65694 0.10695 0.0
C105 C 0.64916 0.53965 0.10923 0.0
C106 C 0.67167 0.57389 0.21082 0.0
C107 C 0.65103 0.57439 0.12033 0.0
N108 N 0.66235 0.59116 0.17059 0.0
C109 C 0.67017 0.53916 0.20117 0.0
C110 C 0.65884 0.522 0.14999 0.0
C111 C 0.641 0.62874 0.30289 0.0
C112 C 0.58527 0.72179 0.25127 0.0
C113 C 0.61787 0.70143 0.33432 0.0
C114 C 0.58317 0.70011 0.34339 0.0
C115 C 0.56682 0.71041 0.3015 0.0
N116 N 0.63595 0.71275 0.28498 0.0
C117 C 0.61993 0.72272 0.24372 0.0
Co118 Co 0.08682 0.67181 0.3721 0.0
Co119 Co 0.01536 0.67663 0.44 0.0
O120 O 0.03527 0.66412 0.37523 0.0
C121 C 0.03742 0.60134 0.30257 0.0
O122 O 1.00734 0.60531 0.30724 0.0
C123 C 0.97928 0.71845 0.39 0.0
O124 O 0.9959 0.74557 0.42678 0.0
O125 O 0.05912 0.73015 0.43781 0.0
O126 O 0.10717 0.72001 0.41588 0.0
H127 H 0.02472 0.73601 0.62367 0.0
H128 H 0.04154 0.66926 0.27243 0.0
O129 O 0.06872 0.62386 0.32706 0.0
H130 H 0.168 0.784 0.25014 0.0
H131 H 0.19858 0.66941 0.28556 0.0
H132 H 0.1488 0.69559 0.45376 0.0
H133 H 0.15387 0.74335 0.33112 0.0
H134 H 0.13413 0.66164 0.28722 0.0
O135 O 0.98531 0.69042 0.38932 0.0
H136 H 0.04926 0.71943 0.54229 0.0
H137 H 0.93777 0.66129 0.47357 0.0
H138 H 0.21363 0.70432 0.4536 0.0
H139 H 0.05471 0.70852 0.19051 0.0
H140 H 0.23892 0.69116 0.36906 0.0
H141 H 0.11837 0.76654 0.17862 0.0
O142 O 0.07655 0.64101 0.44005 0.0
H143 H 0.90717 0.55711 0.35799 0.0
H144 H 0.97909 0.61688 0.52664 0.0
H145 H 0.92664 0.55006 0.52883 0.0
H146 H 0.89011 0.5197 0.44407 0.0
H147 H 0.96025 0.62372 0.35748 0.0
H148 H 0.91205 0.67733 0.55415 0.0
H149 H 0.95565 0.71492 0.62996 0.0
O150 O 0.04478 0.66197 0.49104 0.0
C151 C 0.09468 0.74156 0.4328 0.0
C152 C 1.00544 0.71963 0.5909 0.0
C153 C 0.9422 0.68668 0.5519 0.0
N154 N 0.995 0.68944 0.50321 0.0
C155 C 0.01917 0.71016 0.54471 0.0
C156 C 0.95693 0.6777 0.50637 0.0
C157 C 0.96668 0.70778 0.59441 0.0
C158 C 0.06961 0.69356 0.26748 0.0
N159 N 0.09726 0.70274 0.30621 0.0
C160 C 0.07679 0.71613 0.22096 0.0
C161 C 0.11245 0.74874 0.21438 0.0
C162 C 0.14028 0.75852 0.25443 0.0
C163 C 0.13206 0.73523 0.30034 0.0
C164 C 0.1879 0.67528 0.32262 0.0
C165 C 0.15969 0.69009 0.41668 0.0
C166 C 0.15135 0.67075 0.3239 0.0
N167 N 0.1378 0.67844 0.37045 0.0
C168 C 0.19638 0.69494 0.4169 0.0
C169 C 0.21053 0.68751 0.36947 0.0
C170 C 0.06326 0.64424 0.48578 0.0
C171 C 0.92291 0.56997 0.39517 0.0
C172 C 0.96381 0.6038 0.48941 0.0
C173 C 0.93389 0.56598 0.49099 0.0
C174 C 0.91338 0.54899 0.44346 0.0
N175 N 0.97314 0.6242 0.44183 0.0
C176 C 0.95301 0.60774 0.39515 0.0
Co177 Co 0.46093 0.07729 0.57164 0.0
Co178 Co 0.37774 1.00669 0.63105 0.0
O179 O 0.41353 0.02688 0.56885 0.0
C180 C 0.48151 0.02709 0.50272 0.0
O181 O 0.44667 0.99769 0.50428 0.0
C182 C 0.3261 0.97879 0.53057 0.0
O183 O 0.35482 0.99421 0.4963 0.0
O184 O 0.37377 0.05359 0.63196 0.0
O185 O 0.43394 0.09955 0.61356 0.0
H186 H 0.32828 0.01628 0.81506 0.0
H187 H 0.42567 0.03867 0.46451 0.0
O188 O 0.4904 0.05782 0.52872 0.0
H189 H 0.44332 0.16772 0.45031 0.0
H190 H 0.58373 0.1866 0.49837 0.0
H191 H 0.49892 0.13552 0.65837 0.0
H192 H 0.46307 0.148 0.5332 0.0
H193 H 0.52384 0.12463 0.49309 0.0
O194 O 0.33164 0.98187 0.58194 0.0
H195 H 0.37244 0.03954 0.73675 0.0
H196 H 0.30723 0.93261 0.65676 0.0
H197 H 0.55834 0.19783 0.66518 0.0
H198 H 0.40643 0.05735 0.38056 0.0
H199 H 0.60123 0.22376 0.58479 0.0
H200 H 0.41498 0.12234 0.37283 0.0
O201 O 0.47699 0.0632 0.64132 0.0
H202 H 0.38027 0.89499 0.54411 0.0
H203 H 0.39021 0.96188 0.71679 0.0
H204 H 0.39623 0.90435 0.71786 0.0
H205 H 0.39102 0.87027 0.6311 0.0
H206 H 0.3751 0.95286 0.54483 0.0
H207 H 0.26221 0.90833 0.73404 0.0
H208 H 0.27269 0.95022 0.81404 0.0
O209 O 0.4209 0.03024 0.68406 0.0
C210 C 0.39991 0.08859 0.62958 0.0
C211 C 0.32347 0.99771 0.7805 0.0
C212 C 0.28636 0.93715 0.735 0.0
N213 N 0.34262 0.98741 0.69234 0.0
C214 C 0.34843 0.0107 0.73607 0.0
C215 C 0.31191 0.95111 0.69129 0.0
C216 C 0.29226 0.96066 0.77988 0.0
C217 C 0.43018 0.06706 0.46176 0.0
N218 N 0.4459 0.09211 0.50426 0.0
C219 C 0.4189 0.07748 0.41392 0.0
C220 C 0.42362 0.11389 0.40963 0.0
C221 C 0.43946 0.13931 0.45306 0.0
C222 C 0.45041 0.12785 0.50019 0.0
C223 C 0.56525 0.17563 0.53366 0.0
C224 C 0.51729 0.14672 0.62308 0.0
C225 C 0.53136 0.14046 0.531 0.0
N226 N 0.50773 0.12653 0.5753 0.0
C227 C 0.55096 0.18197 0.62724 0.0
C228 C 0.57504 0.19647 0.58214 0.0
C229 C 0.45726 0.04802 0.68422 0.0
C230 C 0.38238 0.90945 0.58225 0.0
C231 C 0.38811 0.94745 0.67875 0.0
C232 C 0.39144 0.91475 0.67968 0.0
C233 C 0.38849 0.89564 0.63102 0.0
N234 N 0.38182 0.96075 0.63078 0.0
C235 C 0.37921 0.94225 0.58293 0.0
Co236 Co 0.43775 0.45554 0.69134 0.0
Co237 Co 0.42248 0.38839 0.79056 0.0
O238 O 0.43982 0.41077 0.71761 0.0
C239 C 0.51536 0.50641 0.64606 0.0
O240 O 0.51805 0.53355 0.67844 0.0
C241 C 0.39254 0.32173 0.71268 0.0
O242 O 0.3992 0.34449 0.67109 0.0
O243 O 0.37253 0.38628 0.77976 0.0
O244 O 0.38838 0.43869 0.72996 0.0
H245 H 0.364 0.37877 0.97487 0.0
H246 H 0.44982 0.40864 0.60901 0.0
O247 O 0.48687 0.47264 0.65054 0.0
H248 H 0.32992 0.40319 0.55444 0.0
H249 H 0.44844 0.55138 0.5503 0.0
H250 H 0.42062 0.51138 0.74287 0.0
H251 H 0.36563 0.44012 0.63518 0.0
H252 H 0.45041 0.49484 0.58302 0.0
O253 O 0.39939 0.3347 0.76126 0.0
H254 H 0.38674 0.40579 0.88318 0.0
H255 H 0.42048 0.32367 0.85247 0.0
H256 H 0.41826 0.56808 0.71179 0.0
H257 H 0.41571 0.3724 0.52685 0.0
H258 H 0.4323 0.58846 0.61488 0.0
H259 H 0.35508 0.36918 0.49929 0.0
O260 O 0.46637 0.48535 0.75746 0.0
H261 H 0.53257 0.3718 0.73295 0.0
H262 H 0.47861 0.41156 0.88218 0.0
H263 H 0.54082 0.41545 0.89522 0.0
H264 H 0.56815 0.39524 0.8203 0.0
H265 H 0.47086 0.36917 0.72138 0.0
H266 H 0.39775 0.29554 0.94363 0.0
H267 H 0.36945 0.32324 1.00563 0.0
O268 O 0.44537 0.44069 0.82338 0.0
C269 C 0.36465 0.41031 0.75859 0.0
C270 C 0.3764 0.36653 0.9483 0.0
C271 C 0.39528 0.31977 0.93072 0.0
N272 N 0.40519 0.36654 0.86264 0.0
C273 C 0.38944 0.38178 0.8964 0.0
C274 C 0.40798 0.33575 0.87906 0.0
C275 C 0.37943 0.33534 0.96551 0.0
C276 C 0.42378 0.40792 0.59695 0.0
N277 N 0.40963 0.42632 0.6274 0.0
C278 C 0.40443 0.38709 0.55053 0.0
C279 C 0.37038 0.38521 0.53517 0.0
C280 C 0.35619 0.40418 0.56618 0.0
C281 C 0.37633 0.42474 0.61232 0.0
C282 C 0.4423 0.54281 0.59264 0.0
C283 C 0.4268 0.52008 0.70064 0.0
C284 C 0.44338 0.51081 0.61144 0.0
N285 N 0.43584 0.49989 0.66496 0.0
C286 C 0.42539 0.55219 0.68327 0.0
C287 C 0.43325 0.5636 0.62889 0.0
C288 C 0.46351 0.47545 0.80759 0.0
C289 C 0.52097 0.38067 0.76592 0.0
C290 C 0.49049 0.40324 0.84919 0.0
C291 C 0.52565 0.40525 0.85691 0.0
C292 C 0.54093 0.39386 0.8149 0.0
N293 N 0.47101 0.39024 0.80107 0.0
C294 C 0.4859 0.37912 0.75967 0.0
Co295 Co 0.01915 0.43028 0.87458 0.0
Co296 Co 0.08694 0.41699 0.93596 0.0
O297 O 0.0686 0.43336 0.87448 0.0
C298 C 0.03982 0.50733 0.82738 0.0
O299 O 0.01909 0.51214 0.86433 0.0
C300 C 0.11831 0.37242 0.88193 0.0
O301 O 0.10049 0.34494 0.91782 0.0
O302 O 0.04038 0.36542 0.93152 0.0
O303 O 0.99533 0.38169 0.91859 0.0
H304 H 0.07373 0.34976 0.11394 0.0
H305 H 0.05977 0.4362 0.77078 0.0
O306 O 0.04323 0.47771 0.82839 0.0
H307 H 0.93439 0.31869 0.75311 0.0
H308 H 0.90981 0.43776 0.78829 0.0
H309 H 0.96076 0.41527 0.95845 0.0
H310 H 0.95054 0.35845 0.83586 0.0
H311 H 0.97214 0.44061 0.78891 0.0
O312 O 0.11427 0.40167 0.88258 0.0
H313 H 0.0514 0.37186 0.03587 0.0
H314 H 0.16274 0.42611 0.96708 0.0
H315 H 0.89827 0.41206 0.95965 0.0
H316 H 0.04457 0.39762 0.68688 0.0
H317 H 0.87242 0.42338 0.87412 0.0
H318 H 0.98152 0.33832 0.67766 0.0
O319 O 0.03312 0.46128 0.94377 0.0
H320 H 0.19771 0.53538 0.85672 0.0
H321 H 0.12801 0.47326 0.02562 0.0
H322 H 0.18364 0.53839 0.03003 0.0
H323 H 0.21906 0.56985 0.94517 0.0
H324 H 0.14157 0.47045 0.85405 0.0
H325 H 0.18627 0.40461 0.04441 0.0
H326 H 0.14161 0.36613 0.11855 0.0
O327 O 0.06039 0.43302 0.98922 0.0
C328 C 1.00547 0.35729 0.93083 0.0
C329 C 0.09346 0.36649 0.08187 0.0
C330 C 0.15663 0.3973 0.04288 0.0
N331 N 0.10568 0.40018 0.99688 0.0
C332 C 0.08097 0.37905 0.03753 0.0
C333 C 0.14314 0.40941 0.99921 0.0
C334 C 0.13155 0.3757 0.08444 0.0
C335 C 0.03215 0.41061 0.76702 0.0
N336 N 1.00604 0.3997 0.80832 0.0
C337 C 0.02376 0.3888 0.71942 0.0
C338 C 0.9884 0.35551 0.7143 0.0
C339 C 0.96197 0.34446 0.75662 0.0
C340 C 0.97135 0.367 0.80358 0.0
C341 C 0.92079 0.43282 0.82583 0.0
C342 C 0.94973 0.4203 0.9211 0.0
C343 C 0.95608 0.43444 0.82645 0.0
N344 N 0.97016 0.42827 0.87375 0.0
C345 C 0.91432 0.41841 0.92201 0.0
C346 C 0.89982 0.42475 0.874 0.0
C347 C 0.04552 0.45434 0.98795 0.0
C348 C 0.18259 0.52193 0.89401 0.0
C349 C 0.14303 0.4868 0.98846 0.0
C350 C 0.17465 0.52366 0.99124 0.0
C351 C 0.19452 0.54128 0.94363 0.0
N352 N 0.13158 0.4679 0.93967 0.0
C353 C 0.15084 0.4851 0.89279 0.0
H354 H 0.56253 0.01372 0.20967 0.0
H355 H 0.67546 0.07589 0.28353 0.0
H356 H 0.64658 0.07304 0.3723 0.0
H357 H 0.52065 0.0581 0.28753 0.0
H358 H 0.47482 0.01536 0.29542 0.0
H359 H 0.50397 0.02082 0.23681 0.0
H360 H 0.50117 0.95712 0.26042 0.0
H361 H 0.47208 0.95154 0.31926 0.0
H362 H 0.51602 0.95085 0.32718 0.0
H363 H 0.6071 0.06843 0.45196 0.0
H364 H 0.55794 0.06007 0.51898 0.0
H365 H 0.46943 0.99763 0.39847 0.0
C366 C 0.58114 0.02656 0.24455 0.0
C367 C 0.62145 0.04531 0.23886 0.0
C368 C 0.64461 0.06159 0.28596 0.0
C369 C 0.62848 0.06004 0.33702 0.0
C370 C 0.58893 0.04172 0.34116 0.0
C371 C 0.56541 0.02502 0.29649 0.0
C372 C 0.52369 0.00773 0.31281 0.0
C373 C 0.50467 0.02664 0.28127 0.0
C374 C 0.50196 0.96422 0.30442 0.0
C375 C 0.52771 0.01796 0.37322 0.0
C376 C 0.56572 0.03762 0.38846 0.0
C377 C 0.57717 0.05248 0.44089 0.0
C378 C 0.54909 0.04758 0.4787 0.0
C379 C 0.50995 0.0275 0.46432 0.0
C380 C 0.49911 0.01206 0.41104 0.0
H381 H 0.64158 0.64831 0.4103 0.0
H382 H 0.59982 0.54986 0.30304 0.0
H383 H 0.56913 0.5073 0.38223 0.0
H384 H 0.65872 0.60684 0.53061 0.0
H385 H 0.64194 0.62994 0.57669 0.0
H386 H 0.66352 0.65223 0.51266 0.0
H387 H 0.60321 0.65571 0.48685 0.0
H388 H 0.58166 0.63386 0.55096 0.0
H389 H 0.55709 0.61272 0.48788 0.0
H390 H 0.54062 0.47578 0.47312 0.0
H391 H 0.51187 0.4581 0.56473 0.0
H392 H 0.57008 0.57785 0.61085 0.0
C393 C 0.62611 0.61783 0.40308 0.0
C394 C 0.62306 0.60255 0.35006 0.0
C395 C 0.60254 0.56236 0.34307 0.0
C396 C 0.58518 0.53794 0.38791 0.0
C397 C 0.58847 0.55414 0.43943 0.0
C398 C 0.60821 0.5932 0.44701 0.0
C399 C 0.6052 0.60373 0.50543 0.0
C400 C 0.6447 0.6244 0.53296 0.0
C401 C 0.58562 0.62792 0.5079 0.0
C402 C 0.58019 0.56443 0.52969 0.0
C403 C 0.57135 0.53617 0.4912 0.0
C404 C 0.54752 0.49769 0.50356 0.0
C405 C 0.53137 0.48794 0.55593 0.0
C406 C 0.53864 0.51654 0.59534 0.0
C407 C 0.5642 0.55521 0.58213 0.0
H408 H 0.01834 0.55789 0.78826 0.0
H409 H 0.09283 0.51207 0.75432 0.0
H410 H 0.11019 0.54554 0.66594 0.0
H411 H 0.98198 0.54768 0.65601 0.0
H412 H 0.98023 0.59129 0.65557 0.0
H413 H 0.97662 0.56741 0.71915 0.0
H414 H 0.03416 0.62912 0.75791 0.0
H415 H 0.03767 0.65332 0.69455 0.0
H416 H 0.07861 0.65198 0.72079 0.0
H417 H 0.1144 0.57823 0.57702 0.0
H418 H 0.1074 0.61053 0.49603 0.0
H419 H 0.03188 0.63699 0.58807 0.0
C420 C 0.03912 0.55578 0.76294 0.0
C421 C 0.05433 0.53243 0.77854 0.0
C422 C 0.08078 0.52977 0.74347 0.0
C423 C 0.09088 0.54872 0.69308 0.0
C424 C 0.07454 0.57054 0.67816 0.0
C425 C 0.04955 0.57456 0.71225 0.0
C426 C 0.03447 0.59803 0.68492 0.0
C427 C 0.99074 0.5747 0.67855 0.0
C428 C 0.04699 0.63533 0.71642 0.0
C429 C 0.05426 0.60579 0.62994 0.0
C430 C 0.0773 0.58977 0.62691 0.0
C431 C 0.0968 0.59134 0.57915 0.0
C432 C 0.09254 0.60966 0.53322 0.0
C433 C 0.06898 0.62628 0.53524 0.0
C434 C 0.05009 0.62463 0.58476 0.0
H435 H 0.62773 0.10313 0.90103 0.0
H436 H 0.53875 0.03621 0.01851 0.0
H437 H 0.48966 0.02637 0.95038 0.0
H438 H 0.578 0.14715 0.83014 0.0
H439 H 0.59472 0.1431 0.76367 0.0
H440 H 0.62332 0.14914 0.82339 0.0
H441 H 0.62477 0.08779 0.79813 0.0
H442 H 0.59592 0.08135 0.73865 0.0
H443 H 0.58039 0.04365 0.78841 0.0
H444 H 0.4505 0.0201 0.86995 0.0
H445 H 0.42197 0.01694 0.78086 0.0
H446 H 0.53517 0.08556 0.71029 0.0
C447 C 0.59791 0.08745 0.91274 0.0
C448 C 0.58692 0.07107 0.96545 0.0
C449 C 0.54768 0.04941 0.9787 0.0
C450 C 0.51964 0.04365 0.94023 0.0
C451 C 0.53125 0.05936 0.88834 0.0
C452 C 0.56936 0.08084 0.87428 0.0
C453 C 0.57361 0.0918 0.81412 0.0
C454 C 0.5936 0.13539 0.80745 0.0
C455 C 0.59493 0.07515 0.783 0.0
C456 C 0.53194 0.07277 0.79665 0.0
C457 C 0.50824 0.05456 0.84053 0.0
C458 C 0.46874 0.03437 0.83531 0.0
C459 C 0.45281 0.03268 0.78404 0.0
C460 C 0.47615 0.05083 0.73779 0.0
C461 C 0.51643 0.07128 0.74449 0.0
H462 H 0.55765 0.55654 0.09893 0.0
H463 H 0.57252 0.66644 0.05195 0.0
H464 H 0.53993 0.63876 0.96408 0.0
H465 H 0.57509 0.53003 0.97175 0.0
H466 H 0.53939 0.48019 0.97728 0.0
H467 H 0.56113 0.50781 0.03795 0.0
H468 H 0.49443 0.48952 0.07637 0.0
H469 H 0.47239 0.46128 0.0162 0.0
H470 H 0.46239 0.49827 0.03586 0.0
H471 H 0.51235 0.59995 0.87594 0.0
H472 H 0.4844 0.55166 0.802 0.0
H473 H 0.4838 0.46699 0.91109 0.0
C474 C 0.55323 0.57457 0.07071 0.0
C475 C 0.56741 0.61359 0.08242 0.0
C476 C 0.56139 0.63633 0.04421 0.0
C477 C 0.5432 0.62092 0.99397 0.0
C478 C 0.53057 0.58255 0.98301 0.0
C479 C 0.53457 0.55951 0.02098 0.0
C480 C 0.51898 0.51934 0.9994 0.0
C481 C 0.55053 0.50874 0.99642 0.0
C482 C 0.48503 0.4904 0.03401 0.0
C483 C 0.50621 0.52347 0.94297 0.0
C484 C 0.51342 0.56015 0.9338 0.0
C485 C 0.506 0.57097 0.88314 0.0
C486 C 0.49031 0.54341 0.84125 0.0
C487 C 0.48169 0.50534 0.85054 0.0
C488 C 0.48979 0.4956 0.90232 0.0
H489 H 0.01484 0.5012 1.01143 0.0
H490 H 0.07136 0.44522 0.08632 0.0
H491 H 0.07211 0.47408 0.17406 0.0
H492 H 0.06473 0.58857 0.0861 0.0
H493 H 0.02398 0.59479 0.09499 0.0
H494 H 0.02639 0.56885 0.03685 0.0
H495 H 0.96119 0.51055 0.06348 0.0
H496 H 0.95859 0.53636 0.12176 0.0
H497 H 0.95489 0.49044 0.13093 0.0
H498 H 0.0727 0.51264 0.25205 0.0
H499 H 0.06841 0.55631 0.3184 0.0
H500 H 1.00722 0.58448 0.19902 0.0
C501 C 0.02712 0.49485 0.04636 0.0
C502 C 0.04341 0.47112 0.04114 0.0
C503 C 0.059 0.46349 0.0883 0.0
C504 C 0.05952 0.47969 0.13882 0.0
C505 C 0.04381 0.50318 0.14247 0.0
C506 C 0.02747 0.51053 0.09794 0.0
C507 C 0.01289 0.53723 0.11395 0.0
C508 C 0.03322 0.57457 0.08101 0.0
C509 C 0.96929 0.51746 0.10712 0.0
C510 C 0.02432 0.54407 0.17392 0.0
C511 C 0.0423 0.52418 0.18919 0.0
C512 C 0.05801 0.52782 0.24106 0.0
C513 C 0.05549 0.55265 0.27844 0.0
C514 C 0.03679 0.57295 0.26415 0.0
C515 C 0.02066 0.56832 0.21139 0.0
H516 H 0.66518 0.79845 0.13227 0.0
H517 H 0.76984 0.84201 0.22565 0.0
H518 H 0.78084 0.90785 0.21645 0.0
H519 H 0.69414 0.87946 0.04009 0.0
H520 H 0.64829 0.87661 0.04346 0.0
H521 H 0.65149 0.83406 0.05157 0.0
H522 H 0.61656 0.82087 0.14459 0.0
H523 H 0.61339 0.86341 0.13685 0.0
H524 H 0.63554 0.85717 0.19683 0.0
H525 H 0.7794 0.96903 0.19726 0.0
H526 H 0.76345 0.0192 0.1762 0.0
H527 H 0.65566 0.93307 0.10599 0.0
C528 C 0.69094 0.82207 0.14936 0.0
C529 C 0.71737 0.81564 0.17817 0.0
C530 C 0.74982 0.84676 0.20241 0.0
C531 C 0.75619 0.88411 0.19744 0.0
C532 C 0.72929 0.88953 0.16928 0.0
C533 C 0.69708 0.85923 0.1462 0.0
C534 C 0.67066 0.87196 0.12281 0.0
C535 C 0.66588 0.86512 0.0608 0.0
C536 C 0.63175 0.85218 0.15202 0.0
C537 C 0.69306 0.91416 0.13601 0.0
C538 C 0.72708 0.92396 0.16199 0.0
C539 C 0.75276 0.96161 0.17703 0.0
C540 C 0.74345 0.98991 0.16489 0.0
C541 C 0.70839 0.98029 0.13893 0.0
C542 C 0.68287 0.94173 0.1251 0.0
H543 H 0.93904 0.75682 0.40043 0.0
H544 H 0.94876 0.67339 0.3006 0.0
H545 H 0.8909 0.66028 0.25026 0.0
H546 H 0.84021 0.70573 0.41459 0.0
H547 H 0.83256 0.7458 0.40956 0.0
H548 H 0.87752 0.75277 0.43435 0.0
H549 H 0.91358 0.80371 0.35976 0.0
H550 H 0.86871 0.79727 0.33513 0.0
H551 H 0.90039 0.79184 0.2891 0.0
H552 H 0.82793 0.64843 0.221 0.0
H553 H 0.76606 0.6438 0.20552 0.0
H554 H 0.79694 0.73805 0.31774 0.0
C555 C 0.92961 0.73666 0.3669 0.0
C556 C 0.9485 0.71612 0.35453 0.0
C557 C 0.93479 0.68941 0.31102 0.0
C558 C 0.90192 0.68176 0.28206 0.0
C559 C 0.88319 0.70135 0.2965 0.0
C560 C 0.89671 0.72875 0.33712 0.0
C561 C 0.86964 0.74408 0.34585 0.0
C562 C 0.85407 0.73664 0.40457 0.0
C563 C 0.88926 0.78676 0.33159 0.0
C564 C 0.8384 0.72011 0.30493 0.0
C565 C 0.84699 0.69568 0.27717 0.0
C566 C 0.82136 0.66826 0.24107 0.0
C567 C 0.78614 0.66595 0.23244 0.0
C568 C 0.77684 0.69139 0.25883 0.0
C569 C 0.80352 0.71889 0.29567 0.0
H570 H 0.17135 0.7792 0.41068 0.0
H571 H 0.08381 0.79426 0.48962 0.0
H572 H 0.13322 0.85976 0.51668 0.0
H573 H 0.24397 0.82758 0.50617 0.0
H574 H 0.28183 0.84874 0.4565 0.0
H575 H 0.23923 0.80414 0.44164 0.0
H576 H 0.22899 0.83323 0.35342 0.0
H577 H 0.27162 0.87804 0.36803 0.0
H578 H 0.2268 0.87654 0.35754 0.0
H579 H 0.19379 0.92094 0.5433 0.0
H580 H 0.25943 0.97344 0.56331 0.0
H581 H 0.30566 0.92008 0.45911 0.0
C582 C 0.16218 0.79629 0.43277 0.0
C583 C 0.12348 0.78147 0.44765 0.0
C584 C 0.11318 0.80495 0.47744 0.0
C585 C 0.14106 0.84221 0.49291 0.0
C586 C 0.17893 0.85579 0.4774 0.0
C587 C 0.18934 0.83359 0.44743 0.0
C588 C 0.23195 0.85424 0.43675 0.0
C589 C 0.25031 0.83238 0.46177 0.0
C590 C 0.24032 0.86091 0.37528 0.0
C591 C 0.24427 0.89139 0.46655 0.0
C592 C 0.2133 0.89172 0.48994 0.0
C593 C 0.21806 0.92141 0.524 0.0
C594 C 0.25535 0.95111 0.53504 0.0
C595 C 0.28729 0.95126 0.51129 0.0
C596 C 0.28158 0.92136 0.4759 0.0
H597 H 0.42938 0.2987 0.64356 0.0
H598 H 0.33862 0.25689 0.76342 0.0
H599 H 0.32789 0.19127 0.75199 0.0
H600 H 0.39029 0.2152 0.55481 0.0
H601 H 0.43604 0.21879 0.54417 0.0
H602 H 0.4334 0.26119 0.55733 0.0
H603 H 0.47985 0.27769 0.63913 0.0
H604 H 0.48257 0.23534 0.62626 0.0
H605 H 0.46838 0.24302 0.69262 0.0
H606 H 0.32746 0.12999 0.72635 0.0
H607 H 0.34142 0.07992 0.69624 0.0
H608 H 0.43768 0.16459 0.60235 0.0
C609 C 0.40667 0.27548 0.66635 0.0
C610 C 0.38402 0.28231 0.7032 0.0
C611 C 0.35568 0.25179 0.73426 0.0
C612 C 0.34945 0.21458 0.72801 0.0
C613 C 0.37251 0.20873 0.69155 0.0
C614 C 0.40093 0.23851 0.66186 0.0
C615 C 0.42419 0.22554 0.62942 0.0
C616 C 0.42075 0.23047 0.56778 0.0
C617 C 0.46622 0.24665 0.64799 0.0
C618 C 0.40431 0.18379 0.64513 0.0
C619 C 0.37417 0.17439 0.68022 0.0
C620 C 0.35114 0.13713 0.69909 0.0
C621 C 0.35927 0.10887 0.68171 0.0
C622 C 0.39067 0.11818 0.64678 0.0
C623 C 0.41343 0.15628 0.62875 0.0
H624 H 0.16052 0.33698 0.89926 0.0
H625 H 0.14766 0.41406 0.78964 0.0
H626 H 0.207 0.42809 0.74261 0.0
H627 H 0.2582 0.39298 0.91696 0.0
H628 H 0.26892 0.35482 0.91785 0.0
H629 H 0.22245 0.34578 0.93861 0.0
H630 H 0.19028 0.29173 0.86683 0.0
H631 H 0.23667 0.30016 0.84638 0.0
H632 H 0.20474 0.30162 0.79634 0.0
H633 H 0.27136 0.44188 0.71743 0.0
H634 H 0.33496 0.4496 0.70736 0.0
H635 H 0.30708 0.36136 0.82916 0.0
C636 C 0.16949 0.35569 0.86409 0.0
C637 C 0.14931 0.37423 0.84781 0.0
C638 C 0.16257 0.39944 0.80264 0.0
C639 C 0.19627 0.40762 0.77567 0.0
C640 C 0.21633 0.39016 0.79402 0.0
C641 C 0.20329 0.36424 0.83652 0.0
C642 C 0.232 0.35166 0.85014 0.0
C643 C 0.24622 0.36193 0.9094 0.0
C644 C 0.2149 0.30874 0.83926 0.0
C645 C 0.26354 0.37547 0.8097 0.0
C646 C 0.25369 0.39737 0.77788 0.0
C647 C 0.27902 0.42405 0.74086 0.0
C648 C 0.31525 0.42816 0.73544 0.0
C649 C 0.32596 0.4053 0.76621 0.0
C650 C 0.29957 0.37861 0.80401 0.0
H651 H 0.92783 0.32519 0.91798 0.0
H652 H 0.014 0.30055 0.97881 0.0
H653 H 0.96303 0.23591 1.00551 0.0
H654 H 0.85839 0.27653 0.01894 0.0
H655 H 0.81833 0.2588 0.97277 0.0
H656 H 0.8617 0.30259 0.95754 0.0
H657 H 0.86569 0.27514 0.86378 0.0
H658 H 0.82229 0.23117 0.87875 0.0
H659 H 0.86509 0.23035 0.861 0.0
H660 H 0.90207 0.17617 0.03319 0.0
H661 H 0.83622 0.12488 0.05487 0.0
H662 H 0.7906 0.18622 0.9675 0.0
C663 C 0.93623 0.30617 0.93614 0.0
C664 C 0.97512 0.31807 0.94591 0.0
C665 C 0.98451 0.29216 0.97059 0.0
C666 C 0.95573 0.25534 0.98587 0.0
C667 C 0.91774 0.24458 0.97531 0.0
C668 C 0.90802 0.26913 0.95046 0.0
C669 C 0.86512 0.25084 0.94392 0.0
C670 C 0.85001 0.27354 0.97517 0.0
C671 C 0.85389 0.24662 0.88325 0.0
C672 C 0.85203 0.21232 0.97006 0.0
C673 C 0.88283 0.20935 0.98822 0.0
C674 C 0.87781 0.1778 0.018 0.0
C675 C 0.84041 0.14882 0.03002 0.0
C676 C 0.8086 0.15123 1.01134 0.0
C677 C 0.81451 0.18311 0.98036 0.0
loop_
_geom_bond_atom_site_label_1
_geom_bond_atom_site_label_2
_geom_bond_distance
_geom_bond_site_symmetry_2
_ccdc_geom_bond_type
Co0 O2 2.143 . S
Co0 O8 2.074 1_545 S
Co0 O11 2.093 1_554 S
Co0 O24 2.097 . S
Co0 N41 2.151 1_544 S
Co0 N49 2.214 1_545 S
Co1 O2 2.160 . S
Co1 O7 2.058 . S
Co1 O17 2.057 . S
Co1 O32 2.037 . S
Co1 N36 2.145 . S
Co1 N57 2.257 . S
O2 Co0 2.143 . S
O2 Co1 2.160 . S
C3 O4 1.278 . S
C3 O11 1.224 . S
O4 C3 1.278 . S
C5 O6 1.245 1_554 S
C5 O17 1.232 . S
O6 C5 1.245 1_556 S
O7 Co1 2.058 . S
O7 C33 1.269 . S
O8 Co0 2.074 1_565 S
O8 C33 1.257 1_565 S
H9 C34 0.930 . S
H10 C40 0.930 . S
O11 Co0 2.093 1_556 S
O11 C3 1.224 . S
H12 C44 0.929 . S
H13 C46 0.930 1_556 S
H14 C47 0.930 . S
H15 C45 0.929 . S
H16 C48 0.928 1_556 S
O17 Co1 2.057 . S
O17 C5 1.232 . S
H18 C37 0.929 . S
H19 C38 0.929 . S
H20 C50 0.931 . S
H21 C42 0.929 1_545 S
H22 C51 0.930 . S
H23 C43 0.931 . S
O24 Co0 2.097 . S
O24 C52 1.214 . S
H25 C53 0.929 . S
H26 C54 0.929 . S
H27 C55 0.930 . S
H28 C56 0.929 . S
H29 C58 0.930 . S
H30 C35 0.930 . S
H31 C39 0.930 . S
O32 Co1 2.037 . S
O32 C52 1.234 . S
C33 O7 1.269 . S
C33 O8 1.257 1_545 S
C34 H9 0.930 . S
C34 C37 1.388 . S
C34 C39 1.418 . S
C35 H30 0.930 . S
C35 C38 1.404 . S
C35 C39 1.353 . S
N36 Co1 2.145 . S
N36 C37 1.397 . S
N36 C38 1.334 . S
C37 H18 0.929 . S
C37 C34 1.388 . S
C37 N36 1.397 . S
C38 H19 0.929 . S
C38 C35 1.404 . S
C38 N36 1.334 . S
C39 H31 0.930 . S
C39 C34 1.418 . S
C39 C35 1.353 . S
C40 H10 0.930 . S
C40 N41 1.330 1_545 S
C40 C42 1.446 1_545 S
N41 Co0 2.151 1_566 S
N41 C40 1.330 1_565 S
N41 C45 1.418 . S
C42 H21 0.929 1_565 S
C42 C40 1.446 1_565 S
C42 C43 1.332 . S
C43 H23 0.931 . S
C43 C42 1.332 . S
C43 C44 1.267 . S
C44 H12 0.929 . S
C44 C43 1.267 . S
C44 C45 1.251 . S
C45 H15 0.929 . S
C45 N41 1.418 . S
C45 C44 1.251 . S
C46 H13 0.930 1_554 S
C46 C48 1.406 . S
C46 C51 1.261 . S
C47 H14 0.930 . S
C47 N49 1.325 . S
C47 C50 1.357 . S
C48 H16 0.928 1_554 S
C48 C46 1.406 . S
C48 N49 1.261 . S
N49 Co0 2.214 1_565 S
N49 C47 1.325 . S
N49 C48 1.261 . S
C50 H20 0.931 . S
C50 C47 1.357 . S
C50 C51 1.312 . S
C51 H22 0.930 . S
C51 C46 1.261 . S
C51 C50 1.312 . S
C52 O24 1.214 . S
C52 O32 1.234 . S
C53 H25 0.929 . S
C53 C56 1.391 . S
C53 C58 1.391 . S
C54 H26 0.929 . S
C54 C55 1.390 . S
C54 N57 1.391 . S
C55 H27 0.930 . S
C55 C54 1.390 . S
C55 C56 1.392 . S
C56 H28 0.929 . S
C56 C53 1.391 . S
C56 C55 1.392 . S
N57 Co1 2.257 . S
N57 C54 1.391 . S
N57 C58 1.388 . S
C58 H29 0.930 . S
C58 C53 1.391 . S
C58 N57 1.388 . S
Co59 O61 2.143 . S
Co59 O67 2.074 . S
Co59 O70 2.093 . S
Co59 O83 2.097 . S
Co59 N100 2.151 . S
Co59 N108 2.214 . S
Co60 O61 2.160 . S
Co60 O66 2.058 . S
Co60 O76 2.057 . S
Co60 O91 2.037 . S
Co60 N95 2.145 . S
Co60 N116 2.257 . S
O61 Co59 2.143 . S
O61 Co60 2.160 . S
C62 O63 1.278 . S
C62 O70 1.224 . S
O63 C62 1.278 . S
C64 O65 1.245 . S
C64 O76 1.232 . S
O65 C64 1.245 . S
O66 Co60 2.058 . S
O66 C92 1.269 . S
O67 Co59 2.074 . S
O67 C92 1.257 . S
H68 C93 0.930 . S
H69 C99 0.930 . S
O70 Co59 2.093 . S
O70 C62 1.224 . S
H71 C103 0.929 . S
H72 C105 0.930 . S
H73 C106 0.930 . S
H74 C104 0.929 . S
H75 C107 0.928 . S
O76 Co60 2.057 . S
O76 C64 1.232 . S
H77 C96 0.929 . S
H78 C97 0.929 . S
H79 C109 0.931 . S
H80 C101 0.929 . S
H81 C110 0.930 . S
H82 C102 0.931 . S
O83 Co59 2.097 . S
O83 C111 1.214 . S
H84 C112 0.929 . S
H85 C113 0.929 . S
H86 C114 0.930 . S
H87 C115 0.929 . S
H88 C117 0.930 . S
H89 C94 0.930 . S
H90 C98 0.930 . S
O91 Co60 2.037 . S
O91 C111 1.234 . S
C92 O66 1.269 . S
C92 O67 1.257 . S
C93 H68 0.930 . S
C93 C96 1.388 . S
C93 C98 1.418 . S
C94 H89 0.930 . S
C94 C97 1.404 . S
C94 C98 1.353 . S
N95 Co60 2.145 . S
N95 C96 1.397 . S
N95 C97 1.334 . S
C96 H77 0.929 . S
C96 C93 1.388 . S
C96 N95 1.397 . S
C97 H78 0.929 . S
C97 C94 1.404 . S
C97 N95 1.334 . S
C98 H90 0.930 . S
C98 C93 1.418 . S
C98 C94 1.353 . S
C99 H69 0.930 . S
C99 N100 1.330 . S
C99 C101 1.446 . S
N100 Co59 2.151 . S
N100 C99 1.330 . S
N100 C104 1.418 . S
C101 H80 0.929 . S
C101 C99 1.446 . S
C101 C102 1.332 . S
C102 H82 0.931 . S
C102 C101 1.332 . S
C102 C103 1.267 . S
C103 H71 0.929 . S
C103 C102 1.267 . S
C103 C104 1.251 . S
C104 H74 0.929 . S
C104 N100 1.418 . S
C104 C103 1.251 . S
C105 H72 0.930 . S
C105 C107 1.406 . S
C105 C110 1.261 . S
C106 H73 0.930 . S
C106 N108 1.325 . S
C106 C109 1.357 . S
C107 H75 0.928 . S
C107 C105 1.406 . S
C107 N108 1.261 . S
N108 Co59 2.214 . S
N108 C106 1.325 . S
N108 C107 1.261 . S
C109 H79 0.931 . S
C109 C106 1.357 . S
C109 C110 1.312 . S
C110 H81 0.930 . S
C110 C105 1.261 . S
C110 C109 1.312 . S
C111 O83 1.214 . S
C111 O91 1.234 . S
C112 H84 0.929 . S
C112 C115 1.391 . S
C112 C117 1.391 . S
C113 H85 0.929 . S
C113 C114 1.390 . S
C113 N116 1.391 . S
C114 H86 0.930 . S
C114 C113 1.390 . S
C114 C115 1.392 . S
C115 H87 0.929 . S
C115 C112 1.391 . S
C115 C114 1.392 . S
N116 Co60 2.257 . S
N116 C113 1.391 . S
N116 C117 1.388 . S
C117 H88 0.930 . S
C117 C112 1.391 . S
C117 N116 1.388 . S
Co118 O120 2.143 . S
Co118 O126 2.074 . S
Co118 O129 2.093 . S
Co118 O142 2.097 . S
Co118 N159 2.151 . S
Co118 N167 2.214 . S
Co119 O120 2.160 1_655 S
Co119 O125 2.058 1_655 S
Co119 O135 2.057 . S
Co119 O150 2.037 1_655 S
Co119 N154 2.145 . S
Co119 N175 2.257 . S
O120 Co118 2.143 . S
O120 Co119 2.160 1_455 S
C121 O122 1.278 1_455 S
C121 O129 1.224 . S
O122 C121 1.278 1_655 S
C123 O124 1.245 . S
C123 O135 1.232 . S
O124 C123 1.245 . S
O125 Co119 2.058 1_455 S
O125 C151 1.269 . S
O126 Co118 2.074 . S
O126 C151 1.257 . S
H127 C152 0.930 . S
H128 C158 0.930 . S
O129 Co118 2.093 . S
O129 C121 1.224 . S
H130 C162 0.929 . S
H131 C164 0.930 . S
H132 C165 0.930 . S
H133 C163 0.929 . S
H134 C166 0.928 . S
O135 Co119 2.057 . S
O135 C123 1.232 . S
H136 C155 0.929 1_455 S
H137 C156 0.929 . S
H138 C168 0.931 . S
H139 C160 0.929 . S
H140 C169 0.930 . S
H141 C161 0.931 . S
O142 Co118 2.097 . S
O142 C170 1.214 . S
H143 C171 0.929 . S
H144 C172 0.929 . S
H145 C173 0.930 . S
H146 C174 0.929 . S
H147 C176 0.930 . S
H148 C153 0.930 . S
H149 C157 0.930 . S
O150 Co119 2.037 1_455 S
O150 C170 1.234 . S
C151 O125 1.269 . S
C151 O126 1.257 . S
C152 H127 0.930 . S
C152 C155 1.388 . S
C152 C157 1.418 . S
C153 H148 0.930 . S
C153 C156 1.404 . S
C153 C157 1.353 . S
N154 Co119 2.145 . S
N154 C155 1.397 . S
N154 C156 1.334 . S
C155 H136 0.929 1_655 S
C155 C152 1.388 . S
C155 N154 1.397 . S
C156 H137 0.929 . S
C156 C153 1.404 . S
C156 N154 1.334 . S
C157 H149 0.930 . S
C157 C152 1.418 . S
C157 C153 1.353 . S
C158 H128 0.930 . S
C158 N159 1.330 . S
C158 C160 1.446 . S
N159 Co118 2.151 . S
N159 C158 1.330 . S
N159 C163 1.418 . S
C160 H139 0.929 . S
C160 C158 1.446 . S
C160 C161 1.332 . S
C161 H141 0.931 . S
C161 C160 1.332 . S
C161 C162 1.267 . S
C162 H130 0.929 . S
C162 C161 1.267 . S
C162 C163 1.251 . S
C163 H133 0.929 . S
C163 N159 1.418 . S
C163 C162 1.251 . S
C164 H131 0.930 . S
C164 C166 1.406 . S
C164 C169 1.261 . S
C165 H132 0.930 . S
C165 N167 1.325 . S
C165 C168 1.357 . S
C166 H134 0.928 . S
C166 C164 1.406 . S
C166 N167 1.261 . S
N167 Co118 2.214 . S
N167 C165 1.325 . S
N167 C166 1.261 . S
C168 H138 0.931 . S
C168 C165 1.357 . S
C168 C169 1.312 . S
C169 H140 0.930 . S
C169 C164 1.261 . S
C169 C168 1.312 . S
C170 O142 1.214 . S
C170 O150 1.234 . S
C171 H143 0.929 . S
C171 C174 1.391 . S
C171 C176 1.391 . S
C172 H144 0.929 . S
C172 C173 1.390 . S
C172 N175 1.391 . S
C173 H145 0.930 . S
C173 C172 1.390 . S
C173 C174 1.392 . S
C174 H146 0.929 . S
C174 C171 1.391 . S
C174 C173 1.392 . S
N175 Co119 2.257 . S
N175 C172 1.391 . S
N175 C176 1.388 . S
C176 H147 0.930 . S
C176 C171 1.391 . S
C176 N175 1.388 . S
Co177 O179 2.143 . S
Co177 O185 2.074 . S
Co177 O188 2.093 . S
Co177 O201 2.097 . S
Co177 N218 2.151 . S
Co177 N226 2.214 . S
Co178 O179 2.160 . S
Co178 O184 2.058 . S
Co178 O194 2.057 1_545 S
Co178 O209 2.037 . S
Co178 N213 2.145 1_545 S
Co178 N234 2.257 1_545 S
O179 Co177 2.143 . S
O179 Co178 2.160 . S
C180 O181 1.278 1_545 S
C180 O188 1.224 . S
O181 C180 1.278 1_565 S
C182 O183 1.245 . S
C182 O194 1.232 . S
O183 C182 1.245 . S
O184 Co178 2.058 . S
O184 C210 1.269 . S
O185 Co177 2.074 . S
O185 C210 1.257 . S
H186 C211 0.930 . S
H187 C217 0.930 . S
O188 Co177 2.093 . S
O188 C180 1.224 . S
H189 C221 0.929 . S
H190 C223 0.930 . S
H191 C224 0.930 . S
H192 C222 0.929 . S
H193 C225 0.928 . S
O194 Co178 2.057 1_565 S
O194 C182 1.232 . S
H195 C214 0.929 1_545 S
H196 C215 0.929 . S
H197 C227 0.931 . S
H198 C219 0.929 . S
H199 C228 0.930 . S
H200 C220 0.931 . S
O201 Co177 2.097 . S
O201 C229 1.214 . S
H202 C230 0.929 . S
H203 C231 0.929 . S
H204 C232 0.930 . S
H205 C233 0.929 . S
H206 C235 0.930 . S
H207 C212 0.930 . S
H208 C216 0.930 . S
O209 Co178 2.037 . S
O209 C229 1.234 . S
C210 O184 1.269 . S
C210 O185 1.257 . S
C211 H186 0.930 . S
C211 C214 1.388 . S
C211 C216 1.418 . S
C212 H207 0.930 . S
C212 C215 1.404 . S
C212 C216 1.353 . S
N213 Co178 2.145 1_565 S
N213 C214 1.397 . S
N213 C215 1.334 . S
C214 H195 0.929 1_565 S
C214 C211 1.388 . S
C214 N213 1.397 . S
C215 H196 0.929 . S
C215 C212 1.404 . S
C215 N213 1.334 . S
C216 H208 0.930 . S
C216 C211 1.418 . S
C216 C212 1.353 . S
C217 H187 0.930 . S
C217 N218 1.330 . S
C217 C219 1.446 . S
N218 Co177 2.151 . S
N218 C217 1.330 . S
N218 C222 1.418 . S
C219 H198 0.929 . S
C219 C217 1.446 . S
C219 C220 1.332 . S
C220 H200 0.931 . S
C220 C219 1.332 . S
C220 C221 1.267 . S
C221 H189 0.929 . S
C221 C220 1.267 . S
C221 C222 1.251 . S
C222 H192 0.929 . S
C222 N218 1.418 . S
C222 C221 1.251 . S
C223 H190 0.930 . S
C223 C225 1.406 . S
C223 C228 1.261 . S
C224 H191 0.930 . S
C224 N226 1.325 . S
C224 C227 1.357 . S
C225 H193 0.928 . S
C225 C223 1.406 . S
C225 N226 1.261 . S
N226 Co177 2.214 . S
N226 C224 1.325 . S
N226 C225 1.261 . S
C227 H197 0.931 . S
C227 C224 1.357 . S
C227 C228 1.312 . S
C228 H199 0.930 . S
C228 C223 1.261 . S
C228 C227 1.312 . S
C229 O201 1.214 . S
C229 O209 1.234 . S
C230 H202 0.929 . S
C230 C233 1.391 . S
C230 C235 1.391 . S
C231 H203 0.929 . S
C231 C232 1.390 . S
C231 N234 1.391 . S
C232 H204 0.930 . S
C232 C231 1.390 . S
C232 C233 1.392 . S
C233 H205 0.929 . S
C233 C230 1.391 . S
C233 C232 1.392 . S
N234 Co178 2.257 1_565 S
N234 C231 1.391 . S
N234 C235 1.388 . S
C235 H206 0.930 . S
C235 C230 1.391 . S
C235 N234 1.388 . S
Co236 O238 2.143 . S
Co236 O244 2.074 . S
Co236 O247 2.093 . S
Co236 O260 2.097 . S
Co236 N277 2.151 . S
Co236 N285 2.214 . S
Co237 O238 2.160 . S
Co237 O243 2.058 . S
Co237 O253 2.057 . S
Co237 O268 2.037 . S
Co237 N272 2.145 . S
Co237 N293 2.257 . S
O238 Co236 2.143 . S
O238 Co237 2.160 . S
C239 O240 1.278 . S
C239 O247 1.224 . S
O240 C239 1.278 . S
C241 O242 1.245 . S
C241 O253 1.232 . S
O242 C241 1.245 . S
O243 Co237 2.058 . S
O243 C269 1.269 . S
O244 Co236 2.074 . S
O244 C269 1.257 . S
H245 C270 0.930 . S
H246 C276 0.930 . S
O247 Co236 2.093 . S
O247 C239 1.224 . S
H248 C280 0.929 . S
H249 C282 0.930 . S
H250 C283 0.930 . S
H251 C281 0.929 . S
H252 C284 0.928 . S
O253 Co237 2.057 . S
O253 C241 1.232 . S
H254 C273 0.929 . S
H255 C274 0.929 . S
H256 C286 0.931 . S
H257 C278 0.929 . S
H258 C287 0.930 . S
H259 C279 0.931 . S
O260 Co236 2.097 . S
O260 C288 1.214 . S
H261 C289 0.929 . S
H262 C290 0.929 . S
H263 C291 0.930 . S
H264 C292 0.929 . S
H265 C294 0.930 . S
H266 C271 0.930 . S
H267 C275 0.930 . S
O268 Co237 2.037 . S
O268 C288 1.234 . S
C269 O243 1.269 . S
C269 O244 1.257 . S
C270 H245 0.930 . S
C270 C273 1.388 . S
C270 C275 1.418 . S
C271 H266 0.930 . S
C271 C274 1.404 . S
C271 C275 1.353 . S
N272 Co237 2.145 . S
N272 C273 1.397 . S
N272 C274 1.334 . S
C273 H254 0.929 . S
C273 C270 1.388 . S
C273 N272 1.397 . S
C274 H255 0.929 . S
C274 C271 1.404 . S
C274 N272 1.334 . S
C275 H267 0.930 . S
C275 C270 1.418 . S
C275 C271 1.353 . S
C276 H246 0.930 . S
C276 N277 1.330 . S
C276 C278 1.446 . S
N277 Co236 2.151 . S
N277 C276 1.330 . S
N277 C281 1.418 . S
C278 H257 0.929 . S
C278 C276 1.446 . S
C278 C279 1.332 . S
C279 H259 0.931 . S
C279 C278 1.332 . S
C279 C280 1.267 . S
C280 H248 0.929 . S
C280 C279 1.267 . S
C280 C281 1.251 . S
C281 H251 0.929 . S
C281 N277 1.418 . S
C281 C280 1.251 . S
C282 H249 0.930 . S
C282 C284 1.406 . S
C282 C287 1.261 . S
C283 H250 0.930 . S
C283 N285 1.325 . S
C283 C286 1.357 . S
C284 H252 0.928 . S
C284 C282 1.406 . S
C284 N285 1.261 . S
N285 Co236 2.214 . S
N285 C283 1.325 . S
N285 C284 1.261 . S
C286 H256 0.931 . S
C286 C283 1.357 . S
C286 C287 1.312 . S
C287 H258 0.930 . S
C287 C282 1.261 . S
C287 C286 1.312 . S
C288 O260 1.214 . S
C288 O268 1.234 . S
C289 H261 0.929 . S
C289 C292 1.391 . S
C289 C294 1.391 . S
C290 H262 0.929 . S
C290 C291 1.390 . S
C290 N293 1.391 . S
C291 H263 0.930 . S
C291 C290 1.390 . S
C291 C292 1.392 . S
C292 H264 0.929 . S
C292 C289 1.391 . S
C292 C291 1.392 . S
N293 Co237 2.257 . S
N293 C290 1.391 . S
N293 C294 1.388 . S
C294 H265 0.930 . S
C294 C289 1.391 . S
C294 N293 1.388 . S
Co295 O297 2.143 . S
Co295 O303 2.074 1_455 S
Co295 O306 2.093 . S
Co295 O319 2.097 . S
Co295 N336 2.151 1_455 S
Co295 N344 2.214 1_455 S
Co296 O297 2.160 . S
Co296 O302 2.058 . S
Co296 O312 2.057 . S
Co296 O327 2.037 . S
Co296 N331 2.145 1_556 S
Co296 N352 2.257 . S
O297 Co295 2.143 . S
O297 Co296 2.160 . S
C298 O299 1.278 . S
C298 O306 1.224 . S
O299 C298 1.278 . S
C300 O301 1.245 . S
C300 O312 1.232 . S
O301 C300 1.245 . S
O302 Co296 2.058 . S
O302 C328 1.269 . S
O303 Co295 2.074 1_655 S
O303 C328 1.257 1_655 S
H304 C329 0.930 . S
H305 C335 0.930 . S
O306 Co295 2.093 . S
O306 C298 1.224 . S
H307 C339 0.929 . S
H308 C341 0.930 . S
H309 C342 0.930 . S
H310 C340 0.929 . S
H311 C343 0.928 . S
O312 Co296 2.057 . S
O312 C300 1.232 . S
H313 C332 0.929 . S
H314 C333 0.929 1_556 S
H315 C345 0.931 . S
H316 C337 0.929 1_455 S
H317 C346 0.930 . S
H318 C338 0.931 . S
O319 Co295 2.097 . S
O319 C347 1.214 . S
H320 C348 0.929 . S
H321 C349 0.929 1_554 S
H322 C350 0.930 1_554 S
H323 C351 0.929 . S
H324 C353 0.930 . S
H325 C330 0.930 . S
H326 C334 0.930 . S
O327 Co296 2.037 . S
O327 C347 1.234 . S
C328 O302 1.269 . S
C328 O303 1.257 1_455 S
C329 H304 0.930 . S
C329 C332 1.388 . S
C329 C334 1.418 . S
C330 H325 0.930 . S
C330 C333 1.404 . S
C330 C334 1.353 . S
N331 Co296 2.145 1_554 S
N331 C332 1.397 . S
N331 C333 1.334 . S
C332 H313 0.929 . S
C332 C329 1.388 . S
C332 N331 1.397 . S
C333 H314 0.929 1_554 S
C333 C330 1.404 . S
C333 N331 1.334 . S
C334 H326 0.930 . S
C334 C329 1.418 . S
C334 C330 1.353 . S
C335 H305 0.930 . S
C335 N336 1.330 1_455 S
C335 C337 1.446 1_455 S
N336 Co295 2.151 1_655 S
N336 C335 1.330 1_655 S
N336 C340 1.418 . S
C337 H316 0.929 1_655 S
C337 C335 1.446 1_655 S
C337 C338 1.332 . S
C338 H318 0.931 . S
C338 C337 1.332 . S
C338 C339 1.267 . S
C339 H307 0.929 . S
C339 C338 1.267 . S
C339 C340 1.251 . S
C340 H310 0.929 . S
C340 N336 1.418 . S
C340 C339 1.251 . S
C341 H308 0.930 . S
C341 C343 1.406 . S
C341 C346 1.261 . S
C342 H309 0.930 . S
C342 N344 1.325 . S
C342 C345 1.357 . S
C343 H311 0.928 . S
C343 C341 1.406 . S
C343 N344 1.261 . S
N344 Co295 2.214 1_655 S
N344 C342 1.325 . S
N344 C343 1.261 . S
C345 H315 0.931 . S
C345 C342 1.357 . S
C345 C346 1.312 . S
C346 H317 0.930 . S
C346 C341 1.261 . S
C346 C345 1.312 . S
C347 O319 1.214 . S
C347 O327 1.234 . S
C348 H320 0.929 . S
C348 C351 1.391 . S
C348 C353 1.391 . S
C349 H321 0.929 1_556 S
C349 C350 1.390 . S
C349 N352 1.391 . S
C350 H322 0.930 1_556 S
C350 C349 1.390 . S
C350 C351 1.392 . S
C351 H323 0.929 . S
C351 C348 1.391 . S
C351 C350 1.392 . S
N352 Co296 2.257 . S
N352 C349 1.391 . S
N352 C353 1.388 . S
C353 H324 0.930 . S
C353 C348 1.391 . S
C353 N352 1.388 . S
H354 C366 0.930 1_565 S
H355 C368 0.930 . S
H356 C369 0.930 . S
H357 C373 0.959 . S
H358 C373 0.959 . S
H359 C373 0.961 . S
H360 C374 0.960 . S
H361 C374 0.961 . S
H362 C374 0.959 . S
H363 C377 0.929 . S
H364 C378 0.931 . S
H365 C380 0.930 1_565 S
C366 H354 0.930 1_545 S
C366 C367 1.399 . S
C366 C371 1.399 . S
C367 C366 1.399 . S
C367 C368 1.376 . S
C368 H355 0.930 . S
C368 C367 1.376 . S
C368 C369 1.388 . S
C369 H356 0.930 . S
C369 C368 1.388 . S
C369 C370 1.390 . S
C370 C369 1.390 . S
C370 C371 1.394 . S
C370 C376 1.465 . S
C371 C366 1.399 . S
C371 C370 1.394 . S
C371 C372 1.516 1_545 S
C372 C371 1.516 1_565 S
C372 C373 1.502 . S
C372 C374 1.561 . S
C372 C375 1.526 1_565 S
C373 H357 0.959 . S
C373 H358 0.959 . S
C373 H359 0.961 . S
C373 C372 1.502 . S
C374 H360 0.960 . S
C374 H361 0.961 . S
C374 H362 0.959 . S
C374 C372 1.561 . S
C375 C372 1.526 1_545 S
C375 C376 1.396 . S
C375 C380 1.390 . S
C376 C370 1.465 . S
C376 C375 1.396 . S
C376 C377 1.399 . S
C377 H363 0.929 . S
C377 C376 1.399 . S
C377 C378 1.385 . S
C378 H364 0.931 . S
C378 C377 1.385 . S
C378 C379 1.389 . S
C379 C378 1.389 . S
C379 C380 1.387 . S
C380 H365 0.930 1_545 S
C380 C375 1.390 . S
C380 C379 1.387 . S
H381 C393 0.930 . S
H382 C395 0.930 . S
H383 C396 0.930 . S
H384 C400 0.959 . S
H385 C400 0.959 . S
H386 C400 0.961 . S
H387 C401 0.960 . S
H388 C401 0.961 . S
H389 C401 0.959 . S
H390 C404 0.929 . S
H391 C405 0.931 . S
H392 C407 0.930 . S
C393 H381 0.930 . S
C393 C394 1.399 . S
C393 C398 1.399 . S
C394 C393 1.399 . S
C394 C395 1.376 . S
C395 H382 0.930 . S
C395 C394 1.376 . S
C395 C396 1.388 . S
C396 H383 0.930 . S
C396 C395 1.388 . S
C396 C397 1.390 . S
C397 C396 1.390 . S
C397 C398 1.394 . S
C397 C403 1.465 . S
C398 C393 1.399 . S
C398 C397 1.394 . S
C398 C399 1.516 . S
C399 C398 1.516 . S
C399 C400 1.502 . S
C399 C401 1.561 . S
C399 C402 1.526 . S
C400 H384 0.959 . S
C400 H385 0.959 . S
C400 H386 0.961 . S
C400 C399 1.502 . S
C401 H387 0.960 . S
C401 H388 0.961 . S
C401 H389 0.959 . S
C401 C399 1.561 . S
C402 C399 1.526 . S
C402 C403 1.396 . S
C402 C407 1.390 . S
C403 C397 1.465 . S
C403 C402 1.396 . S
C403 C404 1.399 . S
C404 H390 0.929 . S
C404 C403 1.399 . S
C404 C405 1.385 . S
C405 H391 0.931 . S
C405 C404 1.385 . S
C405 C406 1.389 . S
C406 C405 1.389 . S
C406 C407 1.387 . S
C407 H392 0.930 . S
C407 C402 1.390 . S
C407 C406 1.387 . S
H408 C420 0.930 . S
H409 C422 0.930 . S
H410 C423 0.930 . S
H411 C427 0.959 . S
H412 C427 0.959 . S
H413 C427 0.961 . S
H414 C428 0.960 . S
H415 C428 0.961 . S
H416 C428 0.959 . S
H417 C431 0.929 . S
H418 C432 0.931 . S
H419 C434 0.930 . S
C420 H408 0.930 . S
C420 C421 1.399 . S
C420 C425 1.399 . S
C421 C420 1.399 . S
C421 C422 1.376 . S
C422 H409 0.930 . S
C422 C421 1.376 . S
C422 C423 1.388 . S
C423 H410 0.930 . S
C423 C422 1.388 . S
C423 C424 1.390 . S
C424 C423 1.390 . S
C424 C425 1.394 . S
C424 C430 1.465 . S
C425 C420 1.399 . S
C425 C424 1.394 . S
C425 C426 1.516 . S
C426 C425 1.516 . S
C426 C427 1.502 . S
C426 C428 1.561 . S
C426 C429 1.526 . S
C427 H411 0.959 . S
C427 H412 0.959 . S
C427 H413 0.961 . S
C427 C426 1.502 . S
C428 H414 0.960 . S
C428 H415 0.961 . S
C428 H416 0.959 . S
C428 C426 1.561 . S
C429 C426 1.526 . S
C429 C430 1.396 . S
C429 C434 1.390 . S
C430 C424 1.465 . S
C430 C429 1.396 . S
C430 C431 1.399 . S
C431 H417 0.929 . S
C431 C430 1.399 . S
C431 C432 1.385 . S
C432 H418 0.931 . S
C432 C431 1.385 . S
C432 C433 1.389 . S
C433 C432 1.389 . S
C433 C434 1.387 . S
C434 H419 0.930 . S
C434 C429 1.390 . S
C434 C433 1.387 . S
H435 C447 0.930 . S
H436 C449 0.930 . S
H437 C450 0.930 1_565 S
H438 C454 0.959 . S
H439 C454 0.959 . S
H440 C454 0.961 . S
H441 C455 0.960 . S
H442 C455 0.961 . S
H443 C455 0.959 . S
H444 C458 0.929 1_565 S
H445 C459 0.931 1_565 S
H446 C461 0.930 . S
C447 H435 0.930 . S
C447 C448 1.399 . S
C447 C452 1.399 . S
C448 C447 1.399 . S
C448 C449 1.376 . S
C449 H436 0.930 . S
C449 C448 1.376 . S
C449 C450 1.388 . S
C450 H437 0.930 1_545 S
C450 C449 1.388 . S
C450 C451 1.390 . S
C451 C450 1.390 . S
C451 C452 1.394 . S
C451 C457 1.465 . S
C452 C447 1.399 . S
C452 C451 1.394 . S
C452 C453 1.516 . S
C453 C452 1.516 . S
C453 C454 1.502 . S
C453 C455 1.561 . S
C453 C456 1.526 . S
C454 H438 0.959 . S
C454 H439 0.959 . S
C454 H440 0.961 . S
C454 C453 1.502 . S
C455 H441 0.960 . S
C455 H442 0.961 . S
C455 H443 0.959 . S
C455 C453 1.561 . S
C456 C453 1.526 . S
C456 C457 1.396 . S
C456 C461 1.390 . S
C457 C451 1.465 . S
C457 C456 1.396 . S
C457 C458 1.399 . S
C458 H444 0.929 1_545 S
C458 C457 1.399 . S
C458 C459 1.385 . S
C459 H445 0.931 1_545 S
C459 C458 1.385 . S
C459 C460 1.389 . S
C460 C459 1.389 . S
C460 C461 1.387 . S
C461 H446 0.930 . S
C461 C456 1.390 . S
C461 C460 1.387 . S
H462 C474 0.930 . S
H463 C476 0.930 . S
H464 C477 0.930 . S
H465 C481 0.959 1_556 S
H466 C481 0.959 . S
H467 C481 0.961 . S
H468 C482 0.960 . S
H469 C482 0.961 . S
H470 C482 0.959 . S
H471 C485 0.929 . S
H472 C486 0.931 . S
H473 C488 0.930 . S
C474 H462 0.930 . S
C474 C475 1.399 . S
C474 C479 1.399 . S
C475 C474 1.399 . S
C475 C476 1.376 . S
C476 H463 0.930 . S
C476 C475 1.376 . S
C476 C477 1.388 1_554 S
C477 H464 0.930 . S
C477 C476 1.388 1_556 S
C477 C478 1.390 . S
C478 C477 1.390 . S
C478 C479 1.394 1_556 S
C478 C484 1.465 . S
C479 C474 1.399 . S
C479 C478 1.394 1_554 S
C479 C480 1.516 . S
C480 C479 1.516 . S
C480 C481 1.502 . S
C480 C482 1.561 . S
C480 C483 1.526 1_554 S
C481 H465 0.959 1_554 S
C481 H466 0.959 . S
C481 H467 0.961 . S
C481 C480 1.502 . S
C482 H468 0.960 . S
C482 H469 0.961 . S
C482 H470 0.959 . S
C482 C480 1.561 . S
C483 C480 1.526 1_556 S
C483 C484 1.396 . S
C483 C488 1.390 . S
C484 C478 1.465 . S
C484 C483 1.396 . S
C484 C485 1.399 . S
C485 H471 0.929 . S
C485 C484 1.399 . S
C485 C486 1.385 . S
C486 H472 0.931 . S
C486 C485 1.385 . S
C486 C487 1.389 . S
C487 C486 1.389 . S
C487 C488 1.387 . S
C488 H473 0.930 . S
C488 C483 1.390 . S
C488 C487 1.387 . S
H489 C501 0.930 1_655 S
H490 C503 0.930 . S
H491 C504 0.930 . S
H492 C508 0.959 . S
H493 C508 0.959 . S
H494 C508 0.961 . S
H495 C509 0.960 . S
H496 C509 0.961 . S
H497 C509 0.959 . S
H498 C512 0.929 . S
H499 C513 0.931 . S
H500 C515 0.930 . S
C501 H489 0.930 1_455 S
C501 C502 1.399 . S
C501 C506 1.399 . S
C502 C501 1.399 . S
C502 C503 1.376 . S
C503 H490 0.930 . S
C503 C502 1.376 . S
C503 C504 1.388 . S
C504 H491 0.930 . S
C504 C503 1.388 . S
C504 C505 1.390 . S
C505 C504 1.390 . S
C505 C506 1.394 . S
C505 C511 1.465 . S
C506 C501 1.399 . S
C506 C505 1.394 . S
C506 C507 1.516 1_455 S
C507 C506 1.516 1_655 S
C507 C508 1.502 . S
C507 C509 1.561 . S
C507 C510 1.526 1_655 S
C508 H492 0.959 . S
C508 H493 0.959 . S
C508 H494 0.961 . S
C508 C507 1.502 . S
C509 H495 0.960 . S
C509 H496 0.961 . S
C509 H497 0.959 . S
C509 C507 1.561 . S
C510 C507 1.526 1_455 S
C510 C511 1.396 . S
C510 C515 1.390 1_455 S
C511 C505 1.465 . S
C511 C510 1.396 . S
C511 C512 1.399 . S
C512 H498 0.929 . S
C512 C511 1.399 . S
C512 C513 1.385 . S
C513 H499 0.931 . S
C513 C512 1.385 . S
C513 C514 1.389 . S
C514 C513 1.389 . S
C514 C515 1.387 1_455 S
C515 H500 0.930 . S
C515 C510 1.390 1_655 S
C515 C514 1.387 1_655 S
H516 C528 0.930 . S
H517 C530 0.930 . S
H518 C531 0.930 . S
H519 C535 0.959 . S
H520 C535 0.959 . S
H521 C535 0.961 . S
H522 C536 0.960 . S
H523 C536 0.961 . S
H524 C536 0.959 . S
H525 C539 0.929 . S
H526 C540 0.931 1_545 S
H527 C542 0.930 . S
C528 H516 0.930 . S
C528 C529 1.399 . S
C528 C533 1.399 . S
C529 C528 1.399 . S
C529 C530 1.376 . S
C530 H517 0.930 . S
C530 C529 1.376 . S
C530 C531 1.388 . S
C531 H518 0.930 . S
C531 C530 1.388 . S
C531 C532 1.390 . S
C532 C531 1.390 . S
C532 C533 1.394 . S
C532 C538 1.465 . S
C533 C528 1.399 . S
C533 C532 1.394 . S
C533 C534 1.516 . S
C534 C533 1.516 . S
C534 C535 1.502 . S
C534 C536 1.561 . S
C534 C537 1.526 . S
C535 H519 0.959 . S
C535 H520 0.959 . S
C535 H521 0.961 . S
C535 C534 1.502 . S
C536 H522 0.960 . S
C536 H523 0.961 . S
C536 H524 0.959 . S
C536 C534 1.561 . S
C537 C534 1.526 . S
C537 C538 1.396 . S
C537 C542 1.390 . S
C538 C532 1.465 . S
C538 C537 1.396 . S
C538 C539 1.399 . S
C539 H525 0.929 . S
C539 C538 1.399 . S
C539 C540 1.385 . S
C540 H526 0.931 1_565 S
C540 C539 1.385 . S
C540 C541 1.389 . S
C541 C540 1.389 . S
C541 C542 1.387 . S
C542 H527 0.930 . S
C542 C537 1.390 . S
C542 C541 1.387 . S
H543 C555 0.930 . S
H544 C557 0.930 . S
H545 C558 0.930 . S
H546 C562 0.959 . S
H547 C562 0.959 . S
H548 C562 0.961 . S
H549 C563 0.960 . S
H550 C563 0.961 . S
H551 C563 0.959 . S
H552 C566 0.929 . S
H553 C567 0.931 . S
H554 C569 0.930 . S
C555 H543 0.930 . S
C555 C556 1.399 . S
C555 C560 1.399 . S
C556 C555 1.399 . S
C556 C557 1.376 . S
C557 H544 0.930 . S
C557 C556 1.376 . S
C557 C558 1.388 . S
C558 H545 0.930 . S
C558 C557 1.388 . S
C558 C559 1.390 . S
C559 C558 1.390 . S
C559 C560 1.394 . S
C559 C565 1.465 . S
C560 C555 1.399 . S
C560 C559 1.394 . S
C560 C561 1.516 . S
C561 C560 1.516 . S
C561 C562 1.502 . S
C561 C563 1.561 . S
C561 C564 1.526 . S
C562 H546 0.959 . S
C562 H547 0.959 . S
C562 H548 0.961 . S
C562 C561 1.502 . S
C563 H549 0.960 . S
C563 H550 0.961 . S
C563 H551 0.959 . S
C563 C561 1.561 . S
C564 C561 1.526 . S
C564 C565 1.396 . S
C564 C569 1.390 . S
C565 C559 1.465 . S
C565 C564 1.396 . S
C565 C566 1.399 . S
C566 H552 0.929 . S
C566 C565 1.399 . S
C566 C567 1.385 . S
C567 H553 0.931 . S
C567 C566 1.385 . S
C567 C568 1.389 . S
C568 C567 1.389 . S
C568 C569 1.387 . S
C569 H554 0.930 . S
C569 C564 1.390 . S
C569 C568 1.387 . S
H570 C582 0.930 . S
H571 C584 0.930 . S
H572 C585 0.930 . S
H573 C589 0.959 . S
H574 C589 0.959 . S
H575 C589 0.961 . S
H576 C590 0.960 . S
H577 C590 0.961 . S
H578 C590 0.959 . S
H579 C593 0.929 . S
H580 C594 0.931 . S
H581 C596 0.930 . S
C582 H570 0.930 . S
C582 C583 1.399 . S
C582 C587 1.399 . S
C583 C582 1.399 . S
C583 C584 1.376 . S
C584 H571 0.930 . S
C584 C583 1.376 . S
C584 C585 1.388 . S
C585 H572 0.930 . S
C585 C584 1.388 . S
C585 C586 1.390 . S
C586 C585 1.390 . S
C586 C587 1.394 . S
C586 C592 1.465 . S
C587 C582 1.399 . S
C587 C586 1.394 . S
C587 C588 1.516 . S
C588 C587 1.516 . S
C588 C589 1.502 . S
C588 C590 1.561 . S
C588 C591 1.526 . S
C589 H573 0.959 . S
C589 H574 0.959 . S
C589 H575 0.961 . S
C589 C588 1.502 . S
C590 H576 0.960 . S
C590 H577 0.961 . S
C590 H578 0.959 . S
C590 C588 1.561 . S
C591 C588 1.526 . S
C591 C592 1.396 . S
C591 C596 1.390 . S
C592 C586 1.465 . S
C592 C591 1.396 . S
C592 C593 1.399 . S
C593 H579 0.929 . S
C593 C592 1.399 . S
C593 C594 1.385 . S
C594 H580 0.931 . S
C594 C593 1.385 . S
C594 C595 1.389 . S
C595 C594 1.389 . S
C595 C596 1.387 . S
C596 H581 0.930 . S
C596 C591 1.390 . S
C596 C595 1.387 . S
H597 C609 0.930 . S
H598 C611 0.930 . S
H599 C612 0.930 . S
H600 C616 0.959 . S
H601 C616 0.959 . S
H602 C616 0.961 . S
H603 C617 0.960 . S
H604 C617 0.961 . S
H605 C617 0.959 . S
H606 C620 0.929 . S
H607 C621 0.931 . S
H608 C623 0.930 . S
C609 H597 0.930 . S
C609 C610 1.399 . S
C609 C614 1.399 . S
C610 C609 1.399 . S
C610 C611 1.376 . S
C611 H598 0.930 . S
C611 C610 1.376 . S
C611 C612 1.388 . S
C612 H599 0.930 . S
C612 C611 1.388 . S
C612 C613 1.390 . S
C613 C612 1.390 . S
C613 C614 1.394 . S
C613 C619 1.465 . S
C614 C609 1.399 . S
C614 C613 1.394 . S
C614 C615 1.516 . S
C615 C614 1.516 . S
C615 C616 1.502 . S
C615 C617 1.561 . S
C615 C618 1.526 . S
C616 H600 0.959 . S
C616 H601 0.959 . S
C616 H602 0.961 . S
C616 C615 1.502 . S
C617 H603 0.960 . S
C617 H604 0.961 . S
C617 H605 0.959 . S
C617 C615 1.561 . S
C618 C615 1.526 . S
C618 C619 1.396 . S
C618 C623 1.390 . S
C619 C613 1.465 . S
C619 C618 1.396 . S
C619 C620 1.399 . S
C620 H606 0.929 . S
C620 C619 1.399 . S
C620 C621 1.385 . S
C621 H607 0.931 . S
C621 C620 1.385 . S
C621 C622 1.389 . S
C622 C621 1.389 . S
C622 C623 1.387 . S
C623 H608 0.930 . S
C623 C618 1.390 . S
C623 C622 1.387 . S
H624 C636 0.930 . S
H625 C638 0.930 . S
H626 C639 0.930 . S
H627 C643 0.959 . S
H628 C643 0.959 . S
H629 C643 0.961 . S
H630 C644 0.960 . S
H631 C644 0.961 . S
H632 C644 0.959 . S
H633 C647 0.929 . S
H634 C648 0.931 . S
H635 C650 0.930 . S
C636 H624 0.930 . S
C636 C637 1.399 . S
C636 C641 1.399 . S
C637 C636 1.399 . S
C637 C638 1.376 . S
C638 H625 0.930 . S
C638 C637 1.376 . S
C638 C639 1.388 . S
C639 H626 0.930 . S
C639 C638 1.388 . S
C639 C640 1.390 . S
C640 C639 1.390 . S
C640 C641 1.394 . S
C640 C646 1.465 . S
C641 C636 1.399 . S
C641 C640 1.394 . S
C641 C642 1.516 . S
C642 C641 1.516 . S
C642 C643 1.502 . S
C642 C644 1.561 . S
C642 C645 1.526 . S
C643 H627 0.959 . S
C643 H628 0.959 . S
C643 H629 0.961 . S
C643 C642 1.502 . S
C644 H630 0.960 . S
C644 H631 0.961 . S
C644 H632 0.959 . S
C644 C642 1.561 . S
C645 C642 1.526 . S
C645 C646 1.396 . S
C645 C650 1.390 . S
C646 C640 1.465 . S
C646 C645 1.396 . S
C646 C647 1.399 . S
C647 H633 0.929 . S
C647 C646 1.399 . S
C647 C648 1.385 . S
C648 H634 0.931 . S
C648 C647 1.385 . S
C648 C649 1.389 . S
C649 C648 1.389 . S
C649 C650 1.387 . S
C650 H635 0.930 . S
C650 C645 1.390 . S
C650 C649 1.387 . S
H651 C663 0.930 . S
H652 C665 0.930 . S
H653 C666 0.930 . S
H654 C670 0.959 . S
H655 C670 0.959 . S
H656 C670 0.961 . S
H657 C671 0.960 . S
H658 C671 0.961 . S
H659 C671 0.959 . S
H660 C674 0.929 . S
H661 C675 0.931 . S
H662 C677 0.930 . S
C663 H651 0.930 . S
C663 C664 1.399 . S
C663 C668 1.399 . S
C664 C663 1.399 . S
C664 C665 1.376 1_556 S
C665 H652 0.930 . S
C665 C664 1.376 1_554 S
C665 C666 1.388 . S
C666 H653 0.930 . S
C666 C665 1.388 . S
C666 C667 1.394 . S
C667 C666 1.394 . S
C667 C668 1.387 1_554 S
C667 C673 1.467 . S
C668 C663 1.399 . S
C668 C667 1.387 1_556 S
C668 C669 1.516 . S
C669 C668 1.516 . S
C669 C670 1.502 . S
C669 C671 1.561 . S
C669 C672 1.526 . S
C670 H654 0.959 . S
C670 H655 0.959 . S
C670 H656 0.961 . S
C670 C669 1.502 . S
C671 H657 0.960 . S
C671 H658 0.961 . S
C671 H659 0.959 . S
C671 C669 1.561 . S
C672 C669 1.526 . S
C672 C673 1.396 1_556 S
C672 C677 1.390 . S
C673 C667 1.467 . S
C673 C672 1.396 1_554 S
C673 C674 1.399 . S
C674 H660 0.929 . S
C674 C673 1.399 . S
C674 C675 1.385 . S
C675 H661 0.931 . S
C675 C674 1.385 . S
C675 C676 1.389 . S
C676 C675 1.389 . S
C676 C677 1.387 1_554 S
C677 H662 0.930 . S
C677 C672 1.390 . S
C677 C676 1.387 1_556 S
C367 C52 1.824 . S
C379 C180 1.801 . S
C394 C111 1.819 . S
C406 C239 1.805 . S
C421 C298 1.823 . S
C433 C170 1.818 . S
C448 C3 1.807 . S
C460 C229 1.818 . S
C475 C62 1.833 . S
C487 C288 1.829 . S
C502 C347 1.825 1_554 S
C514 C121 1.801 . S
C529 C64 1.409 . S
C541 C33 1.429 1_565 S
C556 C123 1.408 . S
C568 C92 1.393 . S
C583 C151 1.430 . S
C595 C182 1.413 . S
C610 C241 1.401 . S
C622 C210 1.414 . S
C637 C300 1.407 . S
C649 C269 1.394 . S
C664 C328 1.429 1_655 S
C676 C5 1.409 . S
