# Generated by pormake.
# Topology lon, (4)-cn, num edge types: 1
# Building blocks:
#     Node 0, Type 0, BuildingBlock: QUQFOY_clean_sbu_3, # of connection points: 4
#     Node 1, Type 0, BuildingBlock: QUQFOY_clean_sbu_3, # of connection points: 4
#     Node 2, Type 0, BuildingBlock: QUQFOY_clean_sbu_3, # of connection points: 4
#     Node 3, Type 0, BuildingBlock: QUQFOY_clean_sbu_3, # of connection points: 4
#     Edge 4, Type (0, 0), BuildingBlock: MIFKUJ_clean_linker_0, # of connection points: 2
#     Edge 5, Type (0, 0), BuildingBlock: MIFKUJ_clean_linker_0, # of connection points: 2
#     Edge 6, Type (0, 0), BuildingBlock: MIFKUJ_clean_linker_0, # of connection points: 2
#     Edge 7, Type (0, 0), BuildingBlock: MIFKUJ_clean_linker_0, # of connection points: 2
#     Edge 8, Type (0, 0), BuildingBlock: MIFKUJ_clean_linker_0, # of connection points: 2
#     Edge 9, Type (0, 0), BuildingBlock: MIFKUJ_clean_linker_0, # of connection points: 2
#     Edge 10, Type (0, 0), BuildingBlock: MIFKUJ_clean_linker_0, # of connection points: 2
#     Edge 11, Type (0, 0), BuildingBlock: MIFKUJ_clean_linker_0, # of connection points: 2
# Relax obj value: 0.135
# Max RMSD: 0.173
# Mean RMSD: 0.169
data_MOF--net-lon--node1-QUQFOY_clean_sbu_3--edge1-MIFKUJ_clean_linker_0
_symmetry_space_group_name_H-M    P1
_symmetry_Int_Tables_number       1
_symmetry_cell_setting            triclinic
loop_
_symmetry_equiv_pos_as_xyz
'x, y, z'
_cell_length_a     30.861098
_cell_length_b     33.432721
_cell_length_c     54.184879
_cell_angle_alpha  90.118856
_cell_angle_beta   89.901158
_cell_angle_gamma 117.40679
loop_
_atom_site_label
_atom_site_type_symbol
_atom_site_fract_x
_atom_site_fract_y
_atom_site_fract_z
_atom_type_partial_charge
C0 C 0.22581 0.6624 0.0439 0.0
O1 O 0.23419 0.70148 0.0511 0.0
Cd2 Cd 0.31132 0.75733 0.06599 0.0
O3 O 0.25923 0.65004 0.04448 0.0
Cd4 Cd 0.34627 0.6807 0.05687 0.0
C5 C 0.32208 0.69988 0.11589 0.0
O6 O 0.3688 0.75285 0.0378 0.0
O7 O 0.42761 0.74704 0.05601 0.0
O8 O 0.34913 0.63032 0.0249 0.0
C9 C 0.4136 0.77074 0.04337 0.0
O10 O 0.31532 0.73219 0.10765 0.0
C11 C 0.375 0.61727 0.03744 0.0
O12 O 0.33209 0.6753 0.10137 0.0
O13 O 0.38674 0.63323 0.05907 0.0
C14 C 0.61148 0.36796 0.51882 0.0
O15 O 0.60708 0.34342 0.50006 0.0
Cd16 Cd 0.61458 0.27518 0.4982 0.0
O17 O 0.62176 0.35805 0.54002 0.0
Cd18 Cd 0.63931 0.2997 0.55903 0.0
C19 C 0.7329 0.31972 0.51835 0.0
O20 O 0.57653 0.24103 0.53578 0.0
O21 O 0.6115 0.2175 0.56213 0.0
O22 O 0.60786 0.31416 0.59766 0.0
C23 C 0.58069 0.20828 0.54491 0.0
O24 O 0.70217 0.30132 0.50102 0.0
C25 C 0.64231 0.31473 0.61076 0.0
O26 O 0.71913 0.32441 0.53987 0.0
O27 O 0.67547 0.30932 0.59961 0.0
C28 C 0.2321 0.61103 0.47203 0.0
O29 O 0.25292 0.63804 0.48978 0.0
Cd30 Cd 0.32983 0.70475 0.48811 0.0
O31 O 0.25185 0.61773 0.45073 0.0
Cd32 Cd 0.327 0.67238 0.42971 0.0
C33 C 0.40087 0.6552 0.47084 0.0
O34 O 0.32633 0.73614 0.44934 0.0
O35 O 0.38814 0.75223 0.42562 0.0
O36 O 0.28141 0.66378 0.3918 0.0
C37 C 0.3656 0.76594 0.44017 0.0
O38 O 0.38981 0.67648 0.48714 0.0
C39 C 0.30879 0.6536 0.37847 0.0
O40 O 0.38157 0.64783 0.44946 0.0
O41 O 0.34396 0.65093 0.38918 0.0
C42 C 0.55545 0.32145 0.94223 0.0
O43 O 0.52543 0.28234 0.9348 0.0
Cd44 Cd 0.5481 0.22473 0.92434 0.0
O45 O 0.60103 0.3333 0.94332 0.0
Cd46 Cd 0.65631 0.30064 0.93285 0.0
C47 C 0.61538 0.27503 0.87374 0.0
O48 O 0.60677 0.23218 0.9554 0.0
O49 O 0.66916 0.2333 0.9369 0.0
O50 O 0.71132 0.35604 0.96244 0.0
C51 C 0.63349 0.21332 0.95147 0.0
O52 O 0.57831 0.24074 0.88203 0.0
C53 C 0.74972 0.36532 0.95002 0.0
O54 O 0.64679 0.30333 0.88836 0.0
O55 O 0.74439 0.34501 0.92957 0.0
H56 H 0.27482 0.72585 0.14983 0.0
H57 H 0.26774 0.71136 0.1941 0.0
H58 H 0.35298 0.63958 0.18696 0.0
H59 H 0.35845 0.6524 0.14233 0.0
H60 H 0.28201 0.59717 0.21812 0.0
H61 H 0.40308 0.75039 0.20874 0.0
H62 H 0.43787 0.82883 0.19399 0.0
H63 H 0.32595 0.84648 0.23232 0.0
H64 H 0.29009 0.76792 0.24704 0.0
H65 H 0.35548 0.62388 0.34593 0.0
H66 H 0.35146 0.62421 0.3008 0.0
H67 H 0.24468 0.6734 0.30489 0.0
H68 H 0.24809 0.67281 0.34996 0.0
H69 H 0.32693 0.72593 0.27559 0.0
H70 H 0.20858 0.57049 0.28598 0.0
H71 H 0.17864 0.49281 0.30122 0.0
H72 H 0.29289 0.48085 0.26174 0.0
H73 H 0.32397 0.55874 0.24653 0.0
C74 C 0.29209 0.70699 0.15767 0.0
C75 C 0.31761 0.69063 0.14266 0.0
C76 C 0.28813 0.69883 0.18301 0.0
C77 C 0.31071 0.6752 0.19396 0.0
C78 C 0.3354 0.65803 0.17893 0.0
C79 C 0.33865 0.6655 0.15347 0.0
C80 C 0.30901 0.66904 0.22111 0.0
C81 C 0.29245 0.62541 0.23068 0.0
C82 C 0.32206 0.7058 0.23754 0.0
C83 C 0.34365 0.75314 0.2288 0.0
C84 C 0.38569 0.7709 0.21388 0.0
C85 C 0.40563 0.8154 0.20555 0.0
C86 C 0.38406 0.84258 0.21217 0.0
C87 C 0.34258 0.82536 0.22719 0.0
C88 C 0.32246 0.78087 0.23555 0.0
C89 C 0.33058 0.63408 0.33721 0.0
C90 C 0.30229 0.64855 0.35146 0.0
C91 C 0.32823 0.63411 0.31146 0.0
C92 C 0.29779 0.64884 0.29961 0.0
C93 C 0.26838 0.66193 0.31377 0.0
C94 C 0.27031 0.66146 0.33949 0.0
C95 C 0.29954 0.65415 0.2725 0.0
C96 C 0.3164 0.69773 0.26298 0.0
C97 C 0.28758 0.61749 0.25622 0.0
C98 C 0.2689 0.57063 0.26532 0.0
C99 C 0.22761 0.55146 0.28073 0.0
C100 C 0.21037 0.50735 0.28932 0.0
C101 C 0.23393 0.48195 0.28251 0.0
C102 C 0.27472 0.50058 0.26703 0.0
C103 C 0.29213 0.5447 0.2584 0.0
H104 H 0.22052 0.4478 0.28917 0.0
H105 H 0.39955 0.87702 0.20569 0.0
H106 H 0.58615 0.34048 0.63925 0.0
H107 H 0.58453 0.34395 0.68437 0.0
H108 H 0.69567 0.29988 0.68837 0.0
H109 H 0.69885 0.29821 0.64349 0.0
H110 H 0.5589 0.28229 0.71676 0.0
H111 H 0.76389 0.33638 0.73863 0.0
H112 H 0.84497 0.38645 0.72134 0.0
H113 H 0.78618 0.46527 0.68554 0.0
H114 H 0.70492 0.41609 0.70288 0.0
H115 H 0.57637 0.21334 0.83664 0.0
H116 H 0.58311 0.22765 0.79226 0.0
H117 H 0.67101 0.36991 0.80597 0.0
H118 H 0.66644 0.3554 0.8503 0.0
H119 H 0.70704 0.34954 0.76928 0.0
H120 H 0.54596 0.32183 0.78946 0.0
H121 H 0.46347 0.28149 0.8074 0.0
H122 H 0.43206 0.16818 0.76014 0.0
H123 H 0.51462 0.2076 0.74214 0.0
C124 C 0.61066 0.33213 0.6498 0.0
C125 C 0.64276 0.31925 0.63787 0.0
C126 C 0.60962 0.334 0.67556 0.0
C127 C 0.64037 0.32269 0.68981 0.0
C128 C 0.67246 0.30989 0.67784 0.0
C129 C 0.67405 0.30869 0.65214 0.0
C130 C 0.6372 0.32175 0.71716 0.0
C131 C 0.59128 0.29728 0.72825 0.0
C132 C 0.67926 0.34227 0.73225 0.0
C133 C 0.72819 0.37227 0.72191 0.0
C134 C 0.7683 0.36451 0.72717 0.0
C135 C 0.81429 0.39272 0.71733 0.0
C136 C 0.82069 0.42894 0.7023 0.0
C137 C 0.78114 0.43711 0.69711 0.0
C138 C 0.73509 0.40903 0.70691 0.0
C139 C 0.59728 0.24762 0.83016 0.0
C140 C 0.62076 0.28327 0.8469 0.0
C141 C 0.60083 0.25584 0.8048 0.0
C142 C 0.62666 0.30002 0.79573 0.0
C143 C 0.65078 0.33556 0.81247 0.0
C144 C 0.64813 0.32723 0.83781 0.0
C145 C 0.62887 0.30906 0.76881 0.0
C146 C 0.67461 0.33498 0.75782 0.0
C147 C 0.58644 0.29138 0.7539 0.0
C148 C 0.53663 0.26756 0.76458 0.0
C149 C 0.52157 0.2882 0.783 0.0
C150 C 0.47479 0.26551 0.79317 0.0
C151 C 0.44258 0.22227 0.78495 0.0
C152 C 0.45706 0.20166 0.7665 0.0
C153 C 0.50383 0.22419 0.75628 0.0
H154 H 0.40638 0.20475 0.79285 0.0
H155 H 0.85632 0.45072 0.6947 0.0
H156 H 0.34028 0.56338 -0.00323 0.0
H157 H 0.36987 0.51267 0.97935 0.0
H158 H 0.47795 0.55081 0.03695 0.0
H159 H 0.4481 0.60089 0.05474 0.0
H160 H 0.51311 0.55373 0.98641 0.0
H161 H 0.3873 0.45573 0.04301 0.0
H162 H 0.30377 0.41931 0.05998 0.0
H163 H 0.24763 0.35881 0.98951 0.0
H164 H 0.33082 0.39543 0.97202 0.0
H165 H 0.59973 0.39326 0.97326 0.0
H166 H 0.56789 0.44365 0.98794 0.0
H167 H 0.4389 0.37272 0.94327 0.0
H168 H 0.46961 0.32079 0.92949 0.0
H169 H 0.41246 0.3876 0.98535 0.0
H170 H 0.53421 0.48096 0.92799 0.0
H171 H 0.61564 0.51816 0.90865 0.0
H172 H 0.67706 0.58892 0.97617 0.0
H173 H 0.59608 0.55167 -0.00396 0.0
C174 C 0.37023 0.56081 0.00576 0.0
C175 C 0.39185 0.58596 0.02713 0.0
C176 C 0.387 0.53187 -0.00418 0.0
C177 C 0.426 0.52815 0.00693 0.0
C178 C 0.44784 0.55339 0.02815 0.0
C179 C 0.43059 0.58175 0.03833 0.0
C180 C 0.4443 0.49805 -0.00363 0.0
C181 C 0.49146 0.51735 0.98635 0.0
C182 C 0.41516 0.45085 -0.00439 0.0
C183 C 0.3652 0.42873 0.00614 0.0
C184 C 0.35709 0.43501 0.03107 0.0
C185 C 0.30982 0.41426 0.0408 0.0
C186 C 0.27039 0.38688 0.02582 0.0
C187 C 0.27819 0.38009 0.00109 0.0
C188 C 0.32539 0.40081 0.99126 0.0
C189 C 0.56472 0.38859 0.96646 0.0
C190 C 0.53719 0.35319 0.95019 0.0
C191 C 0.54664 0.41758 0.97476 0.0
C192 C 0.50132 0.41255 0.96639 0.0
C193 C 0.47394 0.37733 0.94999 0.0
C194 C 0.49156 0.34774 0.94208 0.0
C195 C 0.48181 0.44308 0.97539 0.0
C196 C 0.43429 0.42395 0.98515 0.0
C197 C 0.51036 0.49057 0.97547 0.0
C198 C 0.55912 0.51321 0.96356 0.0
C199 C 0.56514 0.50421 0.93877 0.0
C200 C 0.61121 0.52534 0.9277 0.0
C201 C 0.65152 0.5558 0.94119 0.0
C202 C 0.64581 0.56528 0.96576 0.0
C203 C 0.59982 0.54421 0.97692 0.0
H204 H 0.68716 0.57212 0.93259 0.0
H205 H 0.23382 0.37083 0.03338 0.0
H206 H 0.17332 0.54984 0.43779 0.0
H207 H 0.0905 0.48934 0.44393 0.0
H208 H 0.09797 0.52429 0.52103 0.0
H209 H 0.18083 0.58451 0.5152 0.0
H210 H 0.05329 0.4328 0.51382 0.0
H211 H 0.04419 0.56329 0.48128 0.0
H212 H 0.06124 0.62398 0.45118 0.0
H213 H -0.00807 0.52574 0.39411 0.0
H214 H 0.97505 0.46444 0.42384 0.0
H215 H 0.80914 0.36347 0.55013 0.0
H216 H 0.89591 0.4011 0.54016 0.0
H217 H 0.86314 0.35601 0.46467 0.0
H218 H 0.77605 0.31869 0.47435 0.0
H219 H 0.92133 0.44467 0.46731 0.0
H220 H 0.92016 0.31348 0.50214 0.0
H221 H 0.90186 0.25392 0.53313 0.0
H222 H 0.98899 0.35338 0.58659 0.0
H223 H 0.00727 0.41364 0.55604 0.0
C224 C 0.15756 0.5444 0.45611 0.0
C225 C 0.1835 0.57231 0.47596 0.0
C226 C 0.11025 0.50985 0.45956 0.0
C227 C 0.08808 0.50275 0.48287 0.0
C228 C 0.11453 0.52929 0.5029 0.0
C229 C 0.16178 0.56385 0.49949 0.0
C230 C 0.03632 0.46961 0.48618 0.0
C231 C 0.02432 0.43537 0.50375 0.0
C232 C -0.0012 0.47253 0.47258 0.0
C233 C 0.00893 0.50933 0.4547 0.0
C234 C 0.03299 0.55465 0.46226 0.0
C235 C 0.04254 0.58915 0.44528 0.0
C236 C 0.02783 0.57872 0.42072 0.0
C237 C 0.00341 0.53376 0.41312 0.0
C238 C -0.00617 0.49913 0.43003 0.0
C239 C 0.82033 0.36098 0.53147 0.0
C240 C 0.78561 0.33833 0.51299 0.0
C241 C 0.87001 0.38229 0.52584 0.0
C242 C 0.88593 0.38104 0.50172 0.0
C243 C 0.85153 0.35727 0.48341 0.0
C244 C 0.8018 0.33596 0.489 0.0
C245 C 0.93802 0.408 0.49522 0.0
C246 C 0.95017 0.44134 0.47707 0.0
C247 C 0.97555 0.40429 0.50838 0.0
C248 C 0.96482 0.36813 0.52682 0.0
C249 C 0.93514 0.3227 0.52056 0.0
C250 C 0.92482 0.2888 0.53804 0.0
C251 C 0.94418 0.29986 0.56182 0.0
C252 C 0.974 0.34486 0.56816 0.0
C253 C 0.98441 0.3789 0.55075 0.0
H254 H 0.93614 0.27357 0.57533 0.0
H255 H 0.03523 0.60548 0.40761 0.0
H256 H 0.55254 0.15941 0.97766 0.0
H257 H 0.53297 0.08735 -0.00327 0.0
H258 H 0.66959 0.0963 0.97099 0.0
H259 H 0.68897 0.16855 0.9511 0.0
H260 H 0.59875 0.01446 0.9636 0.0
H261 H 0.65325 0.11011 0.03267 0.0
H262 H 0.66247 0.17097 0.06125 0.0
H263 H 0.51006 0.1 0.07934 0.0
H264 H 0.49969 0.03899 0.05059 0.0
H265 H 0.51317 0.81059 0.0397 0.0
H266 H 0.56767 0.88857 0.02713 0.0
H267 H 0.44344 0.91404 0.01973 0.0
H268 H 0.38892 0.83634 0.03156 0.0
H269 H 0.53119 0.98108 0.04857 0.0
H270 H 0.47972 0.89502 0.97066 0.0
H271 H 0.4747 0.83459 0.9428 0.0
H272 H 0.63082 0.88957 0.94396 0.0
H273 H 0.63664 0.95 0.97213 0.0
C274 C 0.57861 0.14624 0.97611 0.0
C275 C 0.62237 0.16969 0.96296 0.0
C276 C 0.56754 0.10515 0.9872 0.0
C277 C 0.60034 0.08691 0.98579 0.0
C278 C 0.64398 0.11 0.97248 0.0
C279 C 0.65496 0.15117 0.96114 0.0
C280 C 0.5871 0.04263 -0.00269 0.0
C281 C 0.58524 0.00747 0.9824 0.0
C282 C 0.5698 0.03344 0.02193 0.0
C283 C 0.57569 0.06998 0.03937 0.0
C284 C 0.62161 0.10758 0.04262 0.0
C285 C 0.62705 0.1421 0.05887 0.0
C286 C 0.58687 0.13937 0.07209 0.0
C287 C 0.54116 0.10205 0.0691 0.0
C288 C 0.53551 0.06743 0.05286 0.0
C289 C 0.49765 0.83297 0.03543 0.0
C290 C 0.44692 0.81756 0.03649 0.0
C291 C 0.52872 0.87729 0.02828 0.0
C292 C 0.50934 0.90675 0.02262 0.0
C293 C 0.45888 0.89164 0.02414 0.0
C294 C 0.42785 0.84728 0.03076 0.0
C295 C 0.54089 0.95325 0.01444 0.0
C296 C 0.5462 0.98865 0.03005 0.0
C297 C 0.56218 0.96276 0.99071 0.0
C298 C 0.55856 0.92658 0.97374 0.0
C299 C 0.51292 0.89392 0.96518 0.0
C300 C 0.50994 0.85975 0.94928 0.0
C301 C 0.5524 0.85813 0.94169 0.0
C302 C 0.59795 0.89079 0.94991 0.0
C303 C 0.60111 0.925 0.96582 0.0
H304 H 0.55003 0.83167 0.92938 0.0
H305 H 0.59115 0.16614 0.08466 0.0
H306 H 0.59264 0.40074 0.47632 0.0
H307 H 0.5718 0.46226 0.47197 0.0
H308 H 0.5895 0.4869 0.5504 0.0
H309 H 0.60987 0.42469 0.55504 0.0
H310 H 0.50453 0.48069 0.53439 0.0
H311 H 0.6707 0.56293 0.51061 0.0
H312 H 0.7464 0.5778 0.48841 0.0
H313 H 0.67665 0.5731 0.4192 0.0
H314 H 0.60027 0.55754 0.44095 0.0
H315 H 0.44413 0.65909 0.51547 0.0
H316 H 0.49418 0.62277 0.52683 0.0
H317 H 0.48403 0.5733 0.45239 0.0
H318 H 0.43439 0.60974 0.44074 0.0
H319 H 0.57595 0.60254 0.47205 0.0
H320 H 0.40746 0.5072 0.49561 0.0
H321 H 0.33065 0.49034 0.51731 0.0
H322 H 0.40551 0.51895 0.58688 0.0
H323 H 0.48295 0.53657 0.56552 0.0
C324 C 0.59265 0.41945 0.49266 0.0
C325 C 0.60271 0.40763 0.51605 0.0
C326 C 0.58108 0.45489 0.4901 0.0
C327 C 0.57968 0.47948 0.51083 0.0
C328 C 0.59064 0.46844 0.53416 0.0
C329 C 0.60229 0.43292 0.53676 0.0
C330 C 0.56274 0.51405 0.50815 0.0
C331 C 0.52093 0.50808 0.52123 0.0
C332 C 0.58366 0.54923 0.49064 0.0
C333 C 0.62962 0.55881 0.47744 0.0
C334 C 0.67137 0.56475 0.49065 0.0
C335 C 0.71444 0.57336 0.47814 0.0
C336 C 0.71632 0.57633 0.45241 0.0
C337 C 0.67515 0.57079 0.43914 0.0
C338 C 0.63197 0.56215 0.45155 0.0
C339 C 0.45298 0.64093 0.50142 0.0
C340 C 0.43479 0.63687 0.47725 0.0
C341 C 0.48156 0.6202 0.50797 0.0
C342 C 0.49228 0.59502 0.4905 0.0
C343 C 0.47612 0.59264 0.46612 0.0
C344 C 0.44752 0.61328 0.45954 0.0
C345 C 0.51729 0.56839 0.49786 0.0
C346 C 0.56042 0.57582 0.48563 0.0
C347 C 0.4976 0.53447 0.51611 0.0
C348 C 0.45106 0.52375 0.52895 0.0
C349 C 0.4076 0.51026 0.51551 0.0
C350 C 0.36395 0.5005 0.52775 0.0
C351 C 0.36323 0.50373 0.55345 0.0
C352 C 0.40615 0.51658 0.56697 0.0
C353 C 0.44992 0.52644 0.55481 0.0
H354 H 0.3294 0.49614 0.5629 0.0
H355 H 0.7497 0.58298 0.44276 0.0
H356 H 0.14066 0.66671 0.05152 0.0
H357 H 0.05964 0.61559 0.03561 0.0
H358 H 0.11904 0.53711 -0.00108 0.0
H359 H 0.20026 0.58768 0.01508 0.0
H360 H 0.05671 0.56292 0.96904 0.0
H361 H 0.05889 0.49378 0.04692 0.0
H362 H 0.07023 0.49342 0.09194 0.0
H363 H 0.95798 0.5334 0.10359 0.0
H364 H 0.94646 0.53464 0.05859 0.0
H365 H 0.83757 0.37474 0.93403 0.0
H366 H 0.91827 0.42561 0.95004 0.0
H367 H 0.85308 0.48002 0.0021 0.0
H368 H 0.77192 0.4276 0.98683 0.0
H369 H 0.91944 0.46788 0.02434 0.0
H370 H 0.9153 0.5381 0.94837 0.0
H371 H 0.90384 0.54324 0.90367 0.0
H372 H 0.01854 0.50795 0.88841 0.0
H373 H 0.03027 0.50201 0.93302 0.0
C374 C 0.13651 0.63854 0.0401 0.0
C375 C 0.1768 0.63116 0.03456 0.0
C376 C 0.09023 0.60938 0.0311 0.0
C377 C 0.08358 0.57268 0.01619 0.0
C378 C 0.12366 0.56534 0.01043 0.0
C379 C 0.16988 0.5941 0.01975 0.0
C380 C 0.03467 0.54217 0.00648 0.0
C381 C 0.02673 0.5416 0.98101 0.0
C382 C -0.00451 0.51575 0.02232 0.0
C383 C 0.00217 0.51475 0.04938 0.0
C384 C 0.03693 0.50288 0.05907 0.0
C385 C 0.04332 0.50244 0.08459 0.0
C386 C 0.01494 0.5135 0.10061 0.0
C387 C 0.97999 0.5249 0.09115 0.0
C388 C 0.97348 0.52544 0.06564 0.0
C389 C 0.84046 0.3977 0.94881 0.0
C390 C 0.79852 0.39736 0.95914 0.0
C391 C 0.88665 0.42696 0.95787 0.0
C392 C 0.89191 0.45726 0.977 0.0
C393 C 0.84998 0.457 0.98731 0.0
C394 C 0.80365 0.42716 0.97854 0.0
C395 C 0.94104 0.48831 0.98669 0.0
C396 C 0.94917 0.48912 0.01222 0.0
C397 C 0.98023 0.51558 0.97091 0.0
C398 C 0.97334 0.51919 0.94405 0.0
C399 C 0.93783 0.5311 0.93548 0.0
C400 C 0.93133 0.53422 0.91016 0.0
C401 C 0.96036 0.52582 0.89321 0.0
C402 C -0.00396 0.5144 0.90155 0.0
C403 C 0.00267 0.51119 0.92686 0.0
H404 H 0.95527 0.52825 0.87361 0.0
H405 H 0.01994 0.51313 0.12036 0.0
H406 H 0.5634 0.18891 0.49625 0.0
H407 H 0.52874 0.11487 0.4768 0.0
H408 H 0.5077 0.05257 0.54861 0.0
H409 H 0.54642 0.12725 0.5679 0.0
H410 H 0.53707 0.01121 0.52074 0.0
H411 H 0.4112 0.05589 0.51096 0.0
H412 H 0.37521 0.10524 0.49881 0.0
H413 H 0.41295 0.09854 0.42314 0.0
H414 H 0.4497 0.04956 0.43488 0.0
H415 H 0.34328 0.79694 0.48217 0.0
H416 H 0.38207 0.87415 0.49798 0.0
H417 H 0.47478 0.9181 0.43372 0.0
H418 H 0.43706 0.84039 0.41798 0.0
H419 H 0.40998 0.96764 0.45585 0.0
H420 H 0.53777 0.92095 0.46974 0.0
H421 H 0.56466 0.86642 0.48489 0.0
H422 H 0.51074 0.87196 0.55726 0.0
H423 H 0.48283 0.926 0.5424 0.0
C424 C 0.55117 0.15934 0.50784 0.0
C425 C 0.55714 0.16347 0.53352 0.0
C426 C 0.53103 0.11699 0.49674 0.0
C427 C 0.51442 0.0779 0.51122 0.0
C428 C 0.52016 0.08215 0.537 0.0
C429 C 0.54199 0.12468 0.54803 0.0
C430 C 0.49232 0.03269 0.4995 0.0
C431 C 0.50899 0.00181 0.50673 0.0
C432 C 0.45593 0.02017 0.48097 0.0
C433 C 0.43359 0.0494 0.47384 0.0
C434 C 0.41208 0.06517 0.49175 0.0
C435 C 0.39152 0.09304 0.48494 0.0
C436 C 0.3919 0.10511 0.46023 0.0
C437 C 0.41272 0.0892 0.44228 0.0
C438 C 0.43337 0.06135 0.44899 0.0
C439 C 0.37175 0.82305 0.47133 0.0
C440 C 0.38734 0.81283 0.44888 0.0
C441 C 0.39383 0.86697 0.4804 0.0
C442 C 0.43114 0.90133 0.46697 0.0
C443 C 0.44598 0.89166 0.44425 0.0
C444 C 0.42457 0.84746 0.43536 0.0
C445 C 0.45504 0.94719 0.47716 0.0
C446 C 0.43841 0.97776 0.46973 0.0
C447 C 0.49044 0.95907 0.49592 0.0
C448 C 0.50774 0.92706 0.50489 0.0
C449 C 0.53121 0.91016 0.48882 0.0
C450 C 0.54673 0.87944 0.49736 0.0
C451 C 0.53927 0.86562 0.522 0.0
C452 C 0.51642 0.88263 0.53817 0.0
C453 C 0.50078 0.91332 0.5297 0.0
H454 H 0.55131 0.84183 0.52859 0.0
H455 H 0.37598 0.12671 0.455 0.0
loop_
_geom_bond_atom_site_label_1
_geom_bond_atom_site_label_2
_geom_bond_distance
_geom_bond_site_symmetry_2
_ccdc_geom_bond_type
C0 O1 1.306 . S
C0 O3 1.160 . S
O1 C0 1.306 . S
O1 Cd2 2.228 . S
Cd2 O1 2.228 . S
Cd2 O6 2.273 . S
Cd2 O10 2.277 . S
O3 C0 1.160 . S
O3 Cd4 2.203 . S
Cd4 O3 2.203 . S
Cd4 O6 2.411 . S
Cd4 O7 2.333 . S
Cd4 O8 2.352 . S
Cd4 O12 2.277 . S
Cd4 O13 2.356 . S
C5 O10 1.209 . S
C5 O12 1.226 . S
O6 Cd2 2.273 . S
O6 Cd4 2.411 . S
O6 C9 1.320 . S
O7 Cd4 2.333 . S
O7 C9 1.214 . S
O8 Cd4 2.352 . S
O8 C11 1.258 . S
C9 O6 1.320 . S
C9 O7 1.214 . S
O10 Cd2 2.277 . S
O10 C5 1.209 . S
C11 O8 1.258 . S
C11 O13 1.282 . S
O12 Cd4 2.277 . S
O12 C5 1.226 . S
O13 Cd4 2.356 . S
O13 C11 1.282 . S
C14 O15 1.306 . S
C14 O17 1.160 . S
O15 C14 1.306 . S
O15 Cd16 2.228 . S
Cd16 O15 2.228 . S
Cd16 O20 2.273 . S
Cd16 O24 2.277 . S
O17 C14 1.160 . S
O17 Cd18 2.203 . S
Cd18 O17 2.203 . S
Cd18 O20 2.411 . S
Cd18 O21 2.333 . S
Cd18 O22 2.352 . S
Cd18 O26 2.277 . S
Cd18 O27 2.356 . S
C19 O24 1.209 . S
C19 O26 1.226 . S
O20 Cd16 2.273 . S
O20 Cd18 2.411 . S
O20 C23 1.320 . S
O21 Cd18 2.333 . S
O21 C23 1.214 . S
O22 Cd18 2.352 . S
O22 C25 1.258 . S
C23 O20 1.320 . S
C23 O21 1.214 . S
O24 Cd16 2.277 . S
O24 C19 1.209 . S
C25 O22 1.258 . S
C25 O27 1.282 . S
O26 Cd18 2.277 . S
O26 C19 1.226 . S
O27 Cd18 2.356 . S
O27 C25 1.282 . S
C28 O29 1.306 . S
C28 O31 1.160 . S
O29 C28 1.306 . S
O29 Cd30 2.228 . S
Cd30 O29 2.228 . S
Cd30 O34 2.273 . S
Cd30 O38 2.277 . S
O31 C28 1.160 . S
O31 Cd32 2.203 . S
Cd32 O31 2.203 . S
Cd32 O34 2.411 . S
Cd32 O35 2.333 . S
Cd32 O36 2.352 . S
Cd32 O40 2.277 . S
Cd32 O41 2.356 . S
C33 O38 1.209 . S
C33 O40 1.226 . S
O34 Cd30 2.273 . S
O34 Cd32 2.411 . S
O34 C37 1.320 . S
O35 Cd32 2.333 . S
O35 C37 1.214 . S
O36 Cd32 2.352 . S
O36 C39 1.258 . S
C37 O34 1.320 . S
C37 O35 1.214 . S
O38 Cd30 2.277 . S
O38 C33 1.209 . S
C39 O36 1.258 . S
C39 O41 1.282 . S
O40 Cd32 2.277 . S
O40 C33 1.226 . S
O41 Cd32 2.356 . S
O41 C39 1.282 . S
C42 O43 1.306 . S
C42 O45 1.160 . S
O43 C42 1.306 . S
O43 Cd44 2.228 . S
Cd44 O43 2.228 . S
Cd44 O48 2.273 . S
Cd44 O52 2.277 . S
O45 C42 1.160 . S
O45 Cd46 2.203 . S
Cd46 O45 2.203 . S
Cd46 O48 2.411 . S
Cd46 O49 2.333 . S
Cd46 O50 2.352 . S
Cd46 O54 2.277 . S
Cd46 O55 2.356 . S
C47 O52 1.209 . S
C47 O54 1.226 . S
O48 Cd44 2.273 . S
O48 Cd46 2.411 . S
O48 C51 1.320 . S
O49 Cd46 2.333 . S
O49 C51 1.214 . S
O50 Cd46 2.352 . S
O50 C53 1.258 . S
C51 O48 1.320 . S
C51 O49 1.214 . S
O52 Cd44 2.277 . S
O52 C47 1.209 . S
C53 O50 1.258 . S
C53 O55 1.282 . S
O54 Cd46 2.277 . S
O54 C47 1.226 . S
O55 Cd46 2.356 . S
O55 C53 1.282 . S
H56 C74 0.951 . S
H57 C76 0.951 . S
H58 C78 0.950 . S
H59 C79 0.950 . S
H60 C81 0.950 . S
H61 C84 0.950 . S
H62 C85 0.950 . S
H63 C87 0.950 . S
H64 C88 0.950 . S
H65 C89 0.951 . S
H66 C91 0.951 . S
H67 C93 0.950 . S
H68 C94 0.950 . S
H69 C96 0.950 . S
H70 C99 0.950 . S
H71 C100 0.950 . S
H72 C102 0.950 . S
H73 C103 0.950 . S
C74 H56 0.951 . S
C74 C75 1.366 . S
C74 C76 1.388 . S
C75 C74 1.366 . S
C75 C79 1.385 . S
C76 H57 0.951 . S
C76 C74 1.388 . S
C76 C77 1.366 . S
C77 C76 1.366 . S
C77 C78 1.414 . S
C77 C80 1.499 . S
C78 H58 0.950 . S
C78 C77 1.414 . S
C78 C79 1.374 . S
C79 H59 0.950 . S
C79 C75 1.385 . S
C79 C78 1.374 . S
C80 C77 1.499 . S
C80 C81 1.373 . S
C80 C82 1.389 . S
C81 H60 0.950 . S
C81 C80 1.373 . S
C81 C97 1.377 . S
C82 C80 1.389 . S
C82 C83 1.524 . S
C82 C96 1.377 . S
C83 C82 1.524 . S
C83 C84 1.397 . S
C83 C88 1.363 . S
C84 H61 0.950 . S
C84 C83 1.397 . S
C84 C85 1.334 . S
C85 H62 0.950 . S
C85 C84 1.334 . S
C85 C86 1.287 . S
C86 C85 1.287 . S
C86 C87 1.524 . S
C86 H105 0.913 . S
C87 H63 0.950 . S
C87 C86 1.524 . S
C87 C88 1.415 . S
C88 H64 0.950 . S
C88 C83 1.363 . S
C88 C87 1.415 . S
C89 H65 0.951 . S
C89 C90 1.366 . S
C89 C91 1.388 . S
C90 C89 1.366 . S
C90 C94 1.385 . S
C91 H66 0.951 . S
C91 C89 1.388 . S
C91 C92 1.366 . S
C92 C91 1.366 . S
C92 C93 1.414 . S
C92 C95 1.499 . S
C93 H67 0.950 . S
C93 C92 1.414 . S
C93 C94 1.374 . S
C94 H68 0.950 . S
C94 C90 1.385 . S
C94 C93 1.374 . S
C95 C92 1.499 . S
C95 C96 1.373 . S
C95 C97 1.389 . S
C96 H69 0.950 . S
C96 C82 1.377 . S
C96 C95 1.373 . S
C97 C81 1.377 . S
C97 C95 1.389 . S
C97 C98 1.524 . S
C98 C97 1.524 . S
C98 C99 1.397 . S
C98 C103 1.363 . S
C99 H70 0.950 . S
C99 C98 1.397 . S
C99 C100 1.334 . S
C100 H71 0.950 . S
C100 C99 1.334 . S
C100 C101 1.287 . S
C101 C100 1.287 . S
C101 C102 1.524 . S
C101 H104 0.999 . S
C102 H72 0.950 . S
C102 C101 1.524 . S
C102 C103 1.415 . S
C103 H73 0.950 . S
C103 C98 1.363 . S
C103 C102 1.415 . S
H104 C101 0.999 . S
H105 C86 0.913 . S
H106 C124 0.951 . S
H107 C126 0.951 . S
H108 C128 0.950 . S
H109 C129 0.950 . S
H110 C131 0.950 . S
H111 C134 0.950 . S
H112 C135 0.950 . S
H113 C137 0.950 . S
H114 C138 0.950 . S
H115 C139 0.951 . S
H116 C141 0.951 . S
H117 C143 0.950 . S
H118 C144 0.950 . S
H119 C146 0.950 . S
H120 C149 0.950 . S
H121 C150 0.950 . S
H122 C152 0.950 . S
H123 C153 0.950 . S
C124 H106 0.951 . S
C124 C125 1.366 . S
C124 C126 1.388 . S
C125 C124 1.366 . S
C125 C129 1.385 . S
C126 H107 0.951 . S
C126 C124 1.388 . S
C126 C127 1.366 . S
C127 C126 1.366 . S
C127 C128 1.414 . S
C127 C130 1.499 . S
C128 H108 0.950 . S
C128 C127 1.414 . S
C128 C129 1.374 . S
C129 H109 0.950 . S
C129 C125 1.385 . S
C129 C128 1.374 . S
C130 C127 1.499 . S
C130 C131 1.373 . S
C130 C132 1.389 . S
C131 H110 0.950 . S
C131 C130 1.373 . S
C131 C147 1.377 . S
C132 C130 1.389 . S
C132 C133 1.524 . S
C132 C146 1.377 . S
C133 C132 1.524 . S
C133 C134 1.397 . S
C133 C138 1.363 . S
C134 H111 0.950 . S
C134 C133 1.397 . S
C134 C135 1.334 . S
C135 H112 0.950 . S
C135 C134 1.334 . S
C135 C136 1.287 . S
C136 C135 1.287 . S
C136 C137 1.524 . S
C136 H155 0.913 . S
C137 H113 0.950 . S
C137 C136 1.524 . S
C137 C138 1.415 . S
C138 H114 0.950 . S
C138 C133 1.363 . S
C138 C137 1.415 . S
C139 H115 0.951 . S
C139 C140 1.366 . S
C139 C141 1.388 . S
C140 C139 1.366 . S
C140 C144 1.385 . S
C141 H116 0.951 . S
C141 C139 1.388 . S
C141 C142 1.366 . S
C142 C141 1.366 . S
C142 C143 1.414 . S
C142 C145 1.499 . S
C143 H117 0.950 . S
C143 C142 1.414 . S
C143 C144 1.374 . S
C144 H118 0.950 . S
C144 C140 1.385 . S
C144 C143 1.374 . S
C145 C142 1.499 . S
C145 C146 1.373 . S
C145 C147 1.389 . S
C146 H119 0.950 . S
C146 C132 1.377 . S
C146 C145 1.373 . S
C147 C131 1.377 . S
C147 C145 1.389 . S
C147 C148 1.524 . S
C148 C147 1.524 . S
C148 C149 1.397 . S
C148 C153 1.363 . S
C149 H120 0.950 . S
C149 C148 1.397 . S
C149 C150 1.334 . S
C150 H121 0.950 . S
C150 C149 1.334 . S
C150 C151 1.287 . S
C151 C150 1.287 . S
C151 C152 1.524 . S
C151 H154 0.999 . S
C152 H122 0.950 . S
C152 C151 1.524 . S
C152 C153 1.415 . S
C153 H123 0.950 . S
C153 C148 1.363 . S
C153 C152 1.415 . S
H154 C151 0.999 . S
H155 C136 0.913 . S
H156 C174 0.951 1_556 S
H157 C176 0.951 . S
H158 C178 0.950 . S
H159 C179 0.950 . S
H160 C181 0.950 1_554 S
H161 C184 0.950 . S
H162 C185 0.950 . S
H163 C187 0.950 . S
H164 C188 0.950 . S
H165 C189 0.951 . S
H166 C191 0.951 1_554 S
H167 C193 0.950 . S
H168 C194 0.950 . S
H169 C196 0.950 . S
H170 C199 0.950 . S
H171 C200 0.950 . S
H172 C202 0.950 . S
H173 C203 0.950 . S
C174 H156 0.951 1_554 S
C174 C175 1.366 . S
C174 C176 1.388 1_554 S
C175 C174 1.366 . S
C175 C179 1.385 . S
C176 H157 0.951 . S
C176 C174 1.388 1_556 S
C176 C177 1.366 1_556 S
C177 C176 1.366 1_554 S
C177 C178 1.414 . S
C177 C180 1.496 1_554 S
C178 H158 0.950 . S
C178 C177 1.414 . S
C178 C179 1.374 . S
C179 H159 0.950 . S
C179 C175 1.385 . S
C179 C178 1.374 . S
C180 C177 1.496 1_556 S
C180 C181 1.374 . S
C180 C182 1.392 . S
C181 H160 0.950 1_556 S
C181 C180 1.374 . S
C181 C197 1.377 . S
C182 C180 1.392 . S
C182 C183 1.524 . S
C182 C196 1.377 . S
C183 C182 1.524 . S
C183 C184 1.397 1_556 S
C183 C188 1.363 . S
C184 H161 0.950 . S
C184 C183 1.397 1_554 S
C184 C185 1.334 . S
C185 H162 0.950 . S
C185 C184 1.334 . S
C185 C186 1.287 . S
C186 C185 1.287 . S
C186 C187 1.524 1_554 S
C186 H205 0.913 . S
C187 H163 0.950 . S
C187 C186 1.524 1_556 S
C187 C188 1.415 . S
C188 H164 0.950 . S
C188 C183 1.363 . S
C188 C187 1.415 . S
C189 H165 0.951 . S
C189 C190 1.366 . S
C189 C191 1.388 . S
C190 C189 1.366 . S
C190 C194 1.385 . S
C191 H166 0.951 1_556 S
C191 C189 1.388 . S
C191 C192 1.366 . S
C192 C191 1.366 . S
C192 C193 1.414 . S
C192 C195 1.499 . S
C193 H167 0.950 . S
C193 C192 1.414 . S
C193 C194 1.374 . S
C194 H168 0.950 . S
C194 C190 1.385 . S
C194 C193 1.374 . S
C195 C192 1.499 . S
C195 C196 1.373 . S
C195 C197 1.389 . S
C196 H169 0.950 . S
C196 C182 1.377 . S
C196 C195 1.373 . S
C197 C181 1.377 . S
C197 C195 1.389 . S
C197 C198 1.524 . S
C198 C197 1.524 . S
C198 C199 1.397 . S
C198 C203 1.363 1_556 S
C199 H170 0.950 . S
C199 C198 1.397 . S
C199 C200 1.334 . S
C200 H171 0.950 . S
C200 C199 1.334 . S
C200 C201 1.287 . S
C201 C200 1.287 . S
C201 C202 1.524 1_556 S
C201 H204 0.999 . S
C202 H172 0.950 . S
C202 C201 1.524 1_554 S
C202 C203 1.415 . S
C203 H173 0.950 . S
C203 C198 1.363 1_554 S
C203 C202 1.415 . S
H204 C201 0.999 . S
H205 C186 0.913 . S
H206 C224 0.951 . S
H207 C226 0.951 . S
H208 C228 0.950 . S
H209 C229 0.950 . S
H210 C231 0.950 . S
H211 C234 0.950 . S
H212 C235 0.950 . S
H213 C237 0.950 . S
H214 C238 0.950 . S
H215 C239 0.951 . S
H216 C241 0.951 . S
H217 C243 0.950 . S
H218 C244 0.950 . S
H219 C246 0.950 . S
H220 C249 0.950 . S
H221 C250 0.950 . S
H222 C252 0.950 1_455 S
H223 C253 0.950 1_455 S
C224 H206 0.951 . S
C224 C225 1.366 . S
C224 C226 1.388 . S
C225 C224 1.366 . S
C225 C229 1.385 . S
C226 H207 0.951 . S
C226 C224 1.388 . S
C226 C227 1.366 . S
C227 C226 1.366 . S
C227 C228 1.414 . S
C227 C230 1.499 . S
C228 H208 0.950 . S
C228 C227 1.414 . S
C228 C229 1.374 . S
C229 H209 0.950 . S
C229 C225 1.385 . S
C229 C228 1.374 . S
C230 C227 1.499 . S
C230 C231 1.373 . S
C230 C232 1.389 1_455 S
C231 H210 0.950 . S
C231 C230 1.373 . S
C231 C247 1.377 1_455 S
C232 C230 1.389 1_655 S
C232 C233 1.524 1_655 S
C232 C246 1.377 . S
C233 C232 1.524 1_455 S
C233 C234 1.397 . S
C233 C238 1.363 1_455 S
C234 H211 0.950 . S
C234 C233 1.397 . S
C234 C235 1.334 . S
C235 H212 0.950 . S
C235 C234 1.334 . S
C235 C236 1.287 . S
C236 C235 1.287 . S
C236 C237 1.524 1_455 S
C236 H255 0.913 . S
C237 H213 0.950 . S
C237 C236 1.524 1_655 S
C237 C238 1.415 . S
C238 H214 0.950 . S
C238 C233 1.363 1_655 S
C238 C237 1.415 . S
C239 H215 0.951 . S
C239 C240 1.366 . S
C239 C241 1.388 . S
C240 C239 1.366 . S
C240 C244 1.385 . S
C241 H216 0.951 . S
C241 C239 1.388 . S
C241 C242 1.366 . S
C242 C241 1.366 . S
C242 C243 1.414 . S
C242 C245 1.499 . S
C243 H217 0.950 . S
C243 C242 1.414 . S
C243 C244 1.374 . S
C244 H218 0.950 . S
C244 C240 1.385 . S
C244 C243 1.374 . S
C245 C242 1.499 . S
C245 C246 1.373 . S
C245 C247 1.389 . S
C246 H219 0.950 . S
C246 C232 1.377 . S
C246 C245 1.373 . S
C247 C231 1.377 1_655 S
C247 C245 1.389 . S
C247 C248 1.524 . S
C248 C247 1.524 . S
C248 C249 1.397 . S
C248 C253 1.363 . S
C249 H220 0.950 . S
C249 C248 1.397 . S
C249 C250 1.334 . S
C250 H221 0.950 . S
C250 C249 1.334 . S
C250 C251 1.287 . S
C251 C250 1.287 . S
C251 C252 1.524 . S
C251 H254 0.999 . S
C252 H222 0.950 1_655 S
C252 C251 1.524 . S
C252 C253 1.415 . S
C253 H223 0.950 1_655 S
C253 C248 1.363 . S
C253 C252 1.415 . S
H254 C251 0.999 . S
H255 C236 0.913 . S
H256 C274 0.951 . S
H257 C276 0.951 . S
H258 C278 0.950 . S
H259 C279 0.950 . S
H260 C281 0.950 . S
H261 C284 0.950 . S
H262 C285 0.950 . S
H263 C287 0.950 . S
H264 C288 0.950 . S
H265 C289 0.951 . S
H266 C291 0.951 . S
H267 C293 0.950 . S
H268 C294 0.950 . S
H269 C296 0.950 . S
H270 C299 0.950 . S
H271 C300 0.950 . S
H272 C302 0.950 . S
H273 C303 0.950 . S
C274 H256 0.951 . S
C274 C275 1.366 . S
C274 C276 1.388 . S
C275 C274 1.366 . S
C275 C279 1.385 . S
C276 H257 0.951 . S
C276 C274 1.388 . S
C276 C277 1.366 . S
C277 C276 1.366 . S
C277 C278 1.414 . S
C277 C280 1.499 . S
C278 H258 0.950 . S
C278 C277 1.414 . S
C278 C279 1.374 . S
C279 H259 0.950 . S
C279 C275 1.385 . S
C279 C278 1.374 . S
C280 C277 1.499 . S
C280 C281 1.373 . S
C280 C282 1.389 1_556 S
C281 H260 0.950 . S
C281 C280 1.373 . S
C281 C297 1.377 1_545 S
C282 C280 1.389 1_554 S
C282 C283 1.524 . S
C282 C296 1.377 1_545 S
C283 C282 1.524 . S
C283 C284 1.397 . S
C283 C288 1.363 . S
C284 H261 0.950 . S
C284 C283 1.397 . S
C284 C285 1.334 . S
C285 H262 0.950 . S
C285 C284 1.334 . S
C285 C286 1.287 . S
C286 C285 1.287 . S
C286 C287 1.524 . S
C286 H305 0.913 . S
C287 H263 0.950 . S
C287 C286 1.524 . S
C287 C288 1.415 . S
C288 H264 0.950 . S
C288 C283 1.363 . S
C288 C287 1.415 . S
C289 H265 0.951 . S
C289 C290 1.366 . S
C289 C291 1.388 . S
C290 C289 1.366 . S
C290 C294 1.385 . S
C291 H266 0.951 . S
C291 C289 1.388 . S
C291 C292 1.366 . S
C292 C291 1.366 . S
C292 C293 1.414 . S
C292 C295 1.499 . S
C293 H267 0.950 . S
C293 C292 1.414 . S
C293 C294 1.374 . S
C294 H268 0.950 . S
C294 C290 1.385 . S
C294 C293 1.374 . S
C295 C292 1.499 . S
C295 C296 1.373 . S
C295 C297 1.389 1_554 S
C296 H269 0.950 . S
C296 C282 1.377 1_565 S
C296 C295 1.373 . S
C297 C281 1.377 1_565 S
C297 C295 1.389 1_556 S
C297 C298 1.524 . S
C298 C297 1.524 . S
C298 C299 1.397 . S
C298 C303 1.363 . S
C299 H270 0.950 . S
C299 C298 1.397 . S
C299 C300 1.334 . S
C300 H271 0.950 . S
C300 C299 1.334 . S
C300 C301 1.287 . S
C301 C300 1.287 . S
C301 C302 1.524 . S
C301 H304 0.999 . S
C302 H272 0.950 . S
C302 C301 1.524 . S
C302 C303 1.415 . S
C303 H273 0.950 . S
C303 C298 1.363 . S
C303 C302 1.415 . S
H304 C301 0.999 . S
H305 C286 0.913 . S
H306 C324 0.951 . S
H307 C326 0.951 . S
H308 C328 0.950 . S
H309 C329 0.950 . S
H310 C331 0.950 . S
H311 C334 0.950 . S
H312 C335 0.950 . S
H313 C337 0.950 . S
H314 C338 0.950 . S
H315 C339 0.951 . S
H316 C341 0.951 . S
H317 C343 0.950 . S
H318 C344 0.950 . S
H319 C346 0.950 . S
H320 C349 0.950 . S
H321 C350 0.950 . S
H322 C352 0.950 . S
H323 C353 0.950 . S
C324 H306 0.951 . S
C324 C325 1.366 . S
C324 C326 1.388 . S
C325 C324 1.366 . S
C325 C329 1.385 . S
C326 H307 0.951 . S
C326 C324 1.388 . S
C326 C327 1.366 . S
C327 C326 1.366 . S
C327 C328 1.414 . S
C327 C330 1.499 . S
C328 H308 0.950 . S
C328 C327 1.414 . S
C328 C329 1.374 . S
C329 H309 0.950 . S
C329 C325 1.385 . S
C329 C328 1.374 . S
C330 C327 1.499 . S
C330 C331 1.373 . S
C330 C332 1.389 . S
C331 H310 0.950 . S
C331 C330 1.373 . S
C331 C347 1.377 . S
C332 C330 1.389 . S
C332 C333 1.524 . S
C332 C346 1.377 . S
C333 C332 1.524 . S
C333 C334 1.397 . S
C333 C338 1.363 . S
C334 H311 0.950 . S
C334 C333 1.397 . S
C334 C335 1.334 . S
C335 H312 0.950 . S
C335 C334 1.334 . S
C335 C336 1.287 . S
C336 C335 1.287 . S
C336 C337 1.524 . S
C336 H355 0.913 . S
C337 H313 0.950 . S
C337 C336 1.524 . S
C337 C338 1.415 . S
C338 H314 0.950 . S
C338 C333 1.363 . S
C338 C337 1.415 . S
C339 H315 0.951 . S
C339 C340 1.366 . S
C339 C341 1.388 . S
C340 C339 1.366 . S
C340 C344 1.385 . S
C341 H316 0.951 . S
C341 C339 1.388 . S
C341 C342 1.366 . S
C342 C341 1.366 . S
C342 C343 1.414 . S
C342 C345 1.499 . S
C343 H317 0.950 . S
C343 C342 1.414 . S
C343 C344 1.374 . S
C344 H318 0.950 . S
C344 C340 1.385 . S
C344 C343 1.374 . S
C345 C342 1.499 . S
C345 C346 1.373 . S
C345 C347 1.389 . S
C346 H319 0.950 . S
C346 C332 1.377 . S
C346 C345 1.373 . S
C347 C331 1.377 . S
C347 C345 1.389 . S
C347 C348 1.524 . S
C348 C347 1.524 . S
C348 C349 1.397 . S
C348 C353 1.363 . S
C349 H320 0.950 . S
C349 C348 1.397 . S
C349 C350 1.334 . S
C350 H321 0.950 . S
C350 C349 1.334 . S
C350 C351 1.287 . S
C351 C350 1.287 . S
C351 C352 1.524 . S
C351 H354 0.999 . S
C352 H322 0.950 . S
C352 C351 1.524 . S
C352 C353 1.415 . S
C353 H323 0.950 . S
C353 C348 1.363 . S
C353 C352 1.415 . S
H354 C351 0.999 . S
H355 C336 0.913 . S
H356 C374 0.951 . S
H357 C376 0.951 . S
H358 C378 0.950 . S
H359 C379 0.950 . S
H360 C381 0.950 . S
H361 C384 0.950 . S
H362 C385 0.950 . S
H363 C387 0.950 1_655 S
H364 C388 0.953 . S
H365 C389 0.951 . S
H366 C391 0.951 . S
H367 C393 0.950 . S
H368 C394 0.945 1_554 S
H369 C396 0.950 . S
H370 C399 0.950 . S
H371 C400 0.950 . S
H372 C402 0.950 . S
H373 C403 0.950 . S
C374 H356 0.951 . S
C374 C375 1.366 . S
C374 C376 1.388 . S
C375 C374 1.366 . S
C375 C379 1.385 . S
C376 H357 0.951 . S
C376 C374 1.388 . S
C376 C377 1.366 . S
C377 C376 1.366 . S
C377 C378 1.414 . S
C377 C380 1.499 . S
C378 H358 0.950 . S
C378 C377 1.414 . S
C378 C379 1.374 . S
C379 H359 0.950 . S
C379 C375 1.385 . S
C379 C378 1.374 . S
C380 C377 1.499 . S
C380 C381 1.373 1_554 S
C380 C382 1.389 . S
C381 H360 0.950 . S
C381 C380 1.373 1_556 S
C381 C397 1.377 . S
C382 C380 1.389 . S
C382 C383 1.524 . S
C382 C396 1.377 1_455 S
C383 C382 1.524 . S
C383 C384 1.397 . S
C383 C388 1.360 1_455 S
C384 H361 0.950 . S
C384 C383 1.397 . S
C384 C385 1.334 . S
C385 H362 0.950 . S
C385 C384 1.334 . S
C385 C386 1.287 . S
C386 C385 1.287 . S
C386 C387 1.524 . S
C386 H405 0.913 . S
C387 H363 0.950 1_455 S
C387 C386 1.524 . S
C387 C388 1.415 1_455 S
C388 H364 0.953 . S
C388 C383 1.360 1_655 S
C388 C387 1.415 1_655 S
C389 H365 0.951 . S
C389 C390 1.366 . S
C389 C391 1.388 . S
C390 C389 1.366 . S
C390 C394 1.385 . S
C391 H366 0.951 . S
C391 C389 1.388 . S
C391 C392 1.366 . S
C392 C391 1.366 . S
C392 C393 1.414 1_556 S
C392 C395 1.499 1_556 S
C393 H367 0.950 . S
C393 C392 1.414 1_554 S
C393 C394 1.374 1_554 S
C394 H368 0.945 1_556 S
C394 C390 1.385 . S
C394 C393 1.374 1_556 S
C395 C392 1.499 1_554 S
C395 C396 1.373 . S
C395 C397 1.389 1_654 S
C396 H369 0.950 . S
C396 C382 1.377 1_655 S
C396 C395 1.373 . S
C397 C381 1.377 . S
C397 C395 1.389 1_456 S
C397 C398 1.524 1_455 S
C398 C397 1.524 1_655 S
C398 C399 1.397 . S
C398 C403 1.363 1_655 S
C399 H370 0.950 . S
C399 C398 1.397 . S
C399 C400 1.334 . S
C400 H371 0.950 . S
C400 C399 1.334 . S
C400 C401 1.287 . S
C401 C400 1.287 . S
C401 C402 1.524 1_655 S
C401 H404 0.999 . S
C402 H372 0.950 . S
C402 C401 1.524 1_455 S
C402 C403 1.415 . S
C403 H373 0.950 . S
C403 C398 1.363 1_455 S
C403 C402 1.415 . S
H404 C401 0.999 . S
H405 C386 0.913 . S
H406 C424 0.951 . S
H407 C426 0.951 . S
H408 C428 0.950 . S
H409 C429 0.950 . S
H410 C431 0.950 . S
H411 C434 0.950 . S
H412 C435 0.950 . S
H413 C437 0.950 . S
H414 C438 0.950 . S
H415 C439 0.951 . S
H416 C441 0.951 . S
H417 C443 0.950 . S
H418 C444 0.950 . S
H419 C446 0.950 . S
H420 C449 0.950 . S
H421 C450 0.950 . S
H422 C452 0.950 . S
H423 C453 0.950 . S
C424 H406 0.951 . S
C424 C425 1.366 . S
C424 C426 1.388 . S
C425 C424 1.366 . S
C425 C429 1.385 . S
C426 H407 0.951 . S
C426 C424 1.388 . S
C426 C427 1.366 . S
C427 C426 1.366 . S
C427 C428 1.414 . S
C427 C430 1.499 . S
C428 H408 0.950 . S
C428 C427 1.414 . S
C428 C429 1.374 . S
C429 H409 0.950 . S
C429 C425 1.385 . S
C429 C428 1.374 . S
C430 C427 1.499 . S
C430 C431 1.373 . S
C430 C432 1.389 . S
C431 H410 0.950 . S
C431 C430 1.373 . S
C431 C447 1.377 1_545 S
C432 C430 1.389 . S
C432 C433 1.524 . S
C432 C446 1.377 1_545 S
C433 C432 1.524 . S
C433 C434 1.397 . S
C433 C438 1.363 . S
C434 H411 0.950 . S
C434 C433 1.397 . S
C434 C435 1.334 . S
C435 H412 0.950 . S
C435 C434 1.334 . S
C435 C436 1.287 . S
C436 C435 1.287 . S
C436 C437 1.524 . S
C436 H455 0.913 . S
C437 H413 0.950 . S
C437 C436 1.524 . S
C437 C438 1.415 . S
C438 H414 0.950 . S
C438 C433 1.363 . S
C438 C437 1.415 . S
C439 H415 0.951 . S
C439 C440 1.366 . S
C439 C441 1.388 . S
C440 C439 1.366 . S
C440 C444 1.385 . S
C441 H416 0.951 . S
C441 C439 1.388 . S
C441 C442 1.366 . S
C442 C441 1.366 . S
C442 C443 1.414 . S
C442 C445 1.499 . S
C443 H417 0.950 . S
C443 C442 1.414 . S
C443 C444 1.374 . S
C444 H418 0.950 . S
C444 C440 1.385 . S
C444 C443 1.374 . S
C445 C442 1.499 . S
C445 C446 1.373 . S
C445 C447 1.389 . S
C446 H419 0.950 . S
C446 C432 1.377 1_565 S
C446 C445 1.373 . S
C447 C431 1.377 1_565 S
C447 C445 1.389 . S
C447 C448 1.524 . S
C448 C447 1.524 . S
C448 C449 1.397 . S
C448 C453 1.363 . S
C449 H420 0.950 . S
C449 C448 1.397 . S
C449 C450 1.334 . S
C450 H421 0.950 . S
C450 C449 1.334 . S
C450 C451 1.287 . S
C451 C450 1.287 . S
C451 C452 1.524 . S
C451 H454 0.999 . S
C452 H422 0.950 . S
C452 C451 1.524 . S
C452 C453 1.415 . S
C453 H423 0.950 . S
C453 C448 1.363 . S
C453 C452 1.415 . S
H454 C451 0.999 . S
H455 C436 0.913 . S
C75 C5 1.577 . S
C90 C39 1.564 . S
C125 C25 1.564 . S
C140 C47 1.577 . S
C175 C11 1.415 . S
C190 C42 1.423 . S
C225 C28 1.664 . S
C240 C19 1.671 . S
C275 C51 1.518 . S
C290 C9 1.518 . S
C325 C14 1.665 . S
C340 C33 1.672 . S
C375 C0 1.423 . S
C390 C53 1.415 . S
C425 C23 1.586 . S
C440 C37 1.586 . S
