# Generated by pormake.
# Topology uol, (4)-cn, num edge types: 1
# Building blocks:
#     Node 0, Type 0, BuildingBlock: KUFVIS_clean_sbu_0, # of connection points: 4
#     Node 1, Type 0, BuildingBlock: KUFVIS_clean_sbu_0, # of connection points: 4
#     Node 2, Type 0, BuildingBlock: KUFVIS_clean_sbu_0, # of connection points: 4
#     Node 3, Type 0, BuildingBlock: KUFVIS_clean_sbu_0, # of connection points: 4
#     Node 4, Type 0, BuildingBlock: KUFVIS_clean_sbu_0, # of connection points: 4
#     Node 5, Type 0, BuildingBlock: KUFVIS_clean_sbu_0, # of connection points: 4
#     Node 6, Type 0, BuildingBlock: KUFVIS_clean_sbu_0, # of connection points: 4
#     Node 7, Type 0, BuildingBlock: KUFVIS_clean_sbu_0, # of connection points: 4
#     Node 8, Type 0, BuildingBlock: KUFVIS_clean_sbu_0, # of connection points: 4
#     Node 9, Type 0, BuildingBlock: KUFVIS_clean_sbu_0, # of connection points: 4
#     Node 10, Type 0, BuildingBlock: KUFVIS_clean_sbu_0, # of connection points: 4
#     Node 11, Type 0, BuildingBlock: KUFVIS_clean_sbu_0, # of connection points: 4
#     Edge 12, Type (0, 0), BuildingBlock: MIFKUJ_clean_linker_0, # of connection points: 2
#     Edge 13, Type (0, 0), BuildingBlock: MIFKUJ_clean_linker_0, # of connection points: 2
#     Edge 14, Type (0, 0), BuildingBlock: MIFKUJ_clean_linker_0, # of connection points: 2
#     Edge 15, Type (0, 0), BuildingBlock: MIFKUJ_clean_linker_0, # of connection points: 2
#     Edge 16, Type (0, 0), BuildingBlock: MIFKUJ_clean_linker_0, # of connection points: 2
#     Edge 17, Type (0, 0), BuildingBlock: MIFKUJ_clean_linker_0, # of connection points: 2
#     Edge 18, Type (0, 0), BuildingBlock: MIFKUJ_clean_linker_0, # of connection points: 2
#     Edge 19, Type (0, 0), BuildingBlock: MIFKUJ_clean_linker_0, # of connection points: 2
#     Edge 20, Type (0, 0), BuildingBlock: MIFKUJ_clean_linker_0, # of connection points: 2
#     Edge 21, Type (0, 0), BuildingBlock: MIFKUJ_clean_linker_0, # of connection points: 2
#     Edge 22, Type (0, 0), BuildingBlock: MIFKUJ_clean_linker_0, # of connection points: 2
#     Edge 23, Type (0, 0), BuildingBlock: MIFKUJ_clean_linker_0, # of connection points: 2
#     Edge 24, Type (0, 0), BuildingBlock: MIFKUJ_clean_linker_0, # of connection points: 2
#     Edge 25, Type (0, 0), BuildingBlock: MIFKUJ_clean_linker_0, # of connection points: 2
#     Edge 26, Type (0, 0), BuildingBlock: MIFKUJ_clean_linker_0, # of connection points: 2
#     Edge 27, Type (0, 0), BuildingBlock: MIFKUJ_clean_linker_0, # of connection points: 2
#     Edge 28, Type (0, 0), BuildingBlock: MIFKUJ_clean_linker_0, # of connection points: 2
#     Edge 29, Type (0, 0), BuildingBlock: MIFKUJ_clean_linker_0, # of connection points: 2
#     Edge 30, Type (0, 0), BuildingBlock: MIFKUJ_clean_linker_0, # of connection points: 2
#     Edge 31, Type (0, 0), BuildingBlock: MIFKUJ_clean_linker_0, # of connection points: 2
#     Edge 32, Type (0, 0), BuildingBlock: MIFKUJ_clean_linker_0, # of connection points: 2
#     Edge 33, Type (0, 0), BuildingBlock: MIFKUJ_clean_linker_0, # of connection points: 2
#     Edge 34, Type (0, 0), BuildingBlock: MIFKUJ_clean_linker_0, # of connection points: 2
#     Edge 35, Type (0, 0), BuildingBlock: MIFKUJ_clean_linker_0, # of connection points: 2
# Relax obj value: 0.144
# Max RMSD: 0.197
# Mean RMSD: 0.197
data_MOF--net-uol--node1-KUFVIS_clean_sbu_0--edge1-MIFKUJ_clean_linker_0
_symmetry_space_group_name_H-M    P1
_symmetry_Int_Tables_number       1
_symmetry_cell_setting            triclinic
loop_
_symmetry_equiv_pos_as_xyz
'x, y, z'
_cell_length_a     41.492133
_cell_length_b     41.48098
_cell_length_c     87.816622
_cell_angle_alpha  90.054739
_cell_angle_beta   89.932914
_cell_angle_gamma 119.9867
loop_
_atom_site_label
_atom_site_type_symbol
_atom_site_fract_x
_atom_site_fract_y
_atom_site_fract_z
_atom_type_partial_charge
Mn0 Mn 0.09834 0.32081 0.11118 0.0
Mn1 Mn 0.11577 0.36873 0.14409 0.0
C2 C 0.1253 0.30702 0.13124 0.0
C3 C 0.11687 0.31621 0.0866 0.0
C4 C 0.03965 0.30507 0.13564 0.0
O5 O 0.09254 0.36485 0.10518 0.0
O6 O 0.10616 0.39521 0.12752 0.0
C7 C 0.18722 0.43405 0.13483 0.0
N8 N 0.16744 0.40521 0.14458 0.0
C9 C 0.22115 0.42361 0.16037 0.0
C10 C 0.24211 0.45359 0.15054 0.0
C11 C 0.22508 0.45873 0.13768 0.0
C12 C 0.18364 0.39968 0.15685 0.0
H13 H 0.17419 0.43824 0.12498 0.0
C14 C 0.09721 0.39206 0.11346 0.0
O15 O 0.08197 0.29845 0.09048 0.0
O16 O 0.14059 0.33691 0.09691 0.0
N17 N 0.12588 0.34718 0.16134 0.0
C18 C 0.10166 0.31713 0.16975 0.0
C19 C 0.11426 0.30823 0.18306 0.0
C20 C 0.15133 0.33072 0.18773 0.0
C21 C 0.17557 0.36184 0.17901 0.0
C22 C 0.16153 0.36922 0.16583 0.0
H23 H 0.07295 0.30015 0.16635 0.0
O24 O 0.10938 0.28353 0.12021 0.0
O25 O 0.12662 0.33894 0.1299 0.0
O26 O 0.04872 0.29744 0.12278 0.0
O27 O 0.06243 0.33119 0.1444 0.0
C28 C 0.21296 0.38616 0.183 0.0
C29 C 0.23588 0.41673 0.1736 0.0
H30 H 0.27126 0.47284 0.15277 0.0
H31 H 0.24104 0.48178 0.13003 0.0
H32 H 0.09536 0.28438 0.18982 0.0
H33 H 0.16068 0.32403 0.19812 0.0
H34 H 0.22427 0.38192 0.19335 0.0
H35 H 0.26467 0.43501 0.17676 0.0
Mn36 Mn 0.7841 0.11766 0.27932 0.0
Mn37 Mn 0.75952 0.14288 0.31188 0.0
C38 C 0.82848 0.14935 0.29771 0.0
C39 C 0.8014 0.1302 0.25387 0.0
C40 C 0.74487 0.06467 0.30583 0.0
O41 O 0.73315 0.11027 0.27445 0.0
O42 O 0.72107 0.13128 0.29606 0.0
C43 C 0.76631 0.21339 0.30083 0.0
N44 N 0.77603 0.19483 0.31093 0.0
C45 C 0.81477 0.25102 0.32491 0.0
C46 C 0.80504 0.27075 0.31472 0.0
C47 C 0.78085 0.25186 0.30257 0.0
C48 C 0.79979 0.21281 0.32248 0.0
H49 H 0.74755 0.19893 0.29153 0.0
C50 C 0.71267 0.11835 0.28251 0.0
O51 O 0.78579 0.09643 0.25914 0.0
O52 O 0.80679 0.15636 0.26338 0.0
N53 N 0.7938 0.15532 0.32837 0.0
C54 C 0.80063 0.1323 0.33715 0.0
C55 C 0.82492 0.14709 0.34961 0.0
C56 C 0.84092 0.18501 0.3532 0.0
C57 C 0.8327 0.20789 0.34423 0.0
C58 C 0.80889 0.19182 0.3318 0.0
H59 H 0.78789 0.10298 0.33459 0.0
O60 O 0.83421 0.13108 0.28707 0.0
O61 O 0.79749 0.15006 0.29688 0.0
O62 O 0.76045 0.07101 0.29276 0.0
O63 O 0.74246 0.08931 0.31372 0.0
C64 C 0.84688 0.24594 0.34723 0.0
C65 C 0.83843 0.26767 0.33747 0.0
H66 H 0.81597 0.30038 0.3161 0.0
H67 H 0.77327 0.26689 0.29463 0.0
H68 H 0.8312 0.12934 0.35649 0.0
H69 H 0.85941 0.19624 0.3629 0.0
H70 H 0.86381 0.25857 0.35714 0.0
H71 H 0.84995 0.29704 0.33984 0.0
Mn72 Mn 0.67415 0.78183 0.44145 0.0
Mn73 Mn 0.63927 0.76492 0.47712 0.0
C74 C 0.69454 0.83032 0.45844 0.0
C75 C 0.66812 0.7945 0.41617 0.0
C76 C 0.69801 0.74687 0.46619 0.0
O77 O 0.62913 0.73023 0.44002 0.0
O78 O 0.60436 0.72409 0.46339 0.0
C79 C 0.57328 0.77312 0.4719 0.0
N80 N 0.60557 0.78333 0.4795 0.0
C81 C 0.59761 0.82673 0.49499 0.0
C82 C 0.56413 0.8165 0.4874 0.0
C83 C 0.55198 0.78966 0.47577 0.0
C84 C 0.61762 0.80925 0.49065 0.0
H85 H 0.56389 0.75253 0.46294 0.0
C86 C 0.60358 0.71241 0.4498 0.0
O87 O 0.68795 0.7794 0.41985 0.0
O88 O 0.65131 0.80123 0.4271 0.0
N89 N 0.66971 0.80205 0.49171 0.0
C90 C 0.70352 0.81016 0.49736 0.0
C91 C 0.72018 0.83734 0.50877 0.0
C92 C 0.70171 0.85549 0.5144 0.0
C93 C 0.66668 0.84626 0.50857 0.0
C94 C 0.65145 0.81894 0.49721 0.0
H95 H 0.71779 0.7962 0.49313 0.0
O96 O 0.71367 0.83339 0.44629 0.0
O97 O 0.66315 0.79925 0.46004 0.0
O98 O 0.70273 0.76098 0.45289 0.0
O99 O 0.67427 0.74584 0.47576 0.0
C100 C 0.64657 0.86354 0.51339 0.0
C101 C 0.61215 0.85392 0.50655 0.0
H102 H 0.54767 0.82926 0.49032 0.0
H103 H 0.52627 0.78175 0.46981 0.0
H104 H 0.74721 0.84429 0.51322 0.0
H105 H 0.71476 0.87661 0.52312 0.0
H106 H 0.65749 0.88458 0.52222 0.0
H107 H 0.59723 0.86781 0.51019 0.0
Mn108 Mn 0.89439 0.68088 0.60351 0.0
Mn109 Mn 0.87028 0.64327 0.63864 0.0
C110 C 0.86728 0.70308 0.62025 0.0
C111 C 0.87961 0.67805 0.57783 0.0
C112 C 0.94967 0.69893 0.62935 0.0
O113 O 0.89704 0.6335 0.60185 0.0
O114 O 0.8742 0.60754 0.62468 0.0
C115 C 0.79435 0.58197 0.63166 0.0
N116 N 0.81742 0.61276 0.63995 0.0
C117 C 0.76607 0.60805 0.6545 0.0
C118 C 0.74178 0.57613 0.6462 0.0
C119 C 0.75598 0.56311 0.6347 0.0
C120 C 0.80404 0.62566 0.65097 0.0
H121 H 0.80516 0.57194 0.62279 0.0
C122 C 0.88597 0.60669 0.61127 0.0
O123 O 0.91401 0.6955 0.58239 0.0
O124 O 0.85411 0.66202 0.58817 0.0
N125 N 0.86507 0.67421 0.65349 0.0
C126 C 0.89205 0.70598 0.66016 0.0
C127 C 0.88236 0.72272 0.67184 0.0
C128 C 0.84518 0.70653 0.67663 0.0
C129 C 0.81799 0.67363 0.66974 0.0
C130 C 0.82933 0.65794 0.65827 0.0
H131 H 0.92074 0.71846 0.65661 0.0
O132 O 0.88547 0.7226 0.60849 0.0
O133 O 0.8643 0.67042 0.62159 0.0
O134 O 0.94244 0.70552 0.61597 0.0
O135 O 0.92507 0.67512 0.63837 0.0
C136 C 0.78 0.65604 0.67365 0.0
C137 C 0.75404 0.62336 0.666 0.0
H138 H 0.71215 0.56156 0.64848 0.0
H139 H 0.73739 0.5386 0.62819 0.0
H140 H 0.90346 0.74799 0.6772 0.0
H141 H 0.83783 0.7196 0.68561 0.0
H142 H 0.7704 0.66768 0.6824 0.0
H143 H 0.72484 0.61035 0.66898 0.0
Mn144 Mn 0.21052 0.89075 0.76937 0.0
Mn145 Mn 0.22538 0.8635 0.8036 0.0
C146 C 0.16176 0.86105 0.78614 0.0
C147 C 0.1977 0.87768 0.74357 0.0
C148 C 0.2457 0.94313 0.79646 0.0
O149 O 0.26086 0.89476 0.76684 0.0
O150 O 0.26635 0.87214 0.78935 0.0
C151 C 0.21548 0.79051 0.79427 0.0
N152 N 0.20583 0.8109 0.8034 0.0
C153 C 0.16114 0.75608 0.81684 0.0
C154 C 0.17078 0.73451 0.80766 0.0
C155 C 0.19799 0.7518 0.7963 0.0
C156 C 0.1795 0.79453 0.81429 0.0
H157 H 0.23634 0.80369 0.78551 0.0
C158 C 0.27805 0.8847 0.77594 0.0
O159 O 0.21409 0.91179 0.74853 0.0
O160 O 0.18938 0.85171 0.75355 0.0
N161 N 0.18827 0.85373 0.81871 0.0
C162 C 0.18137 0.87834 0.8263 0.0
C163 C 0.1544 0.86537 0.83788 0.0
C164 C 0.13517 0.82741 0.84168 0.0
C165 C 0.14324 0.80274 0.83392 0.0
C166 C 0.17051 0.81727 0.82252 0.0
H167 H 0.19617 0.90759 0.8235 0.0
O168 O 0.1598 0.88028 0.77492 0.0
O169 O 0.19177 0.8585 0.78692 0.0
O170 O 0.23339 0.93765 0.7828 0.0
O171 O 0.24508 0.9176 0.80483 0.0
C172 C 0.12497 0.76422 0.83691 0.0
C173 C 0.13376 0.74088 0.82832 0.0
H174 H 0.15732 0.70463 0.80917 0.0
H175 H 0.20545 0.73532 0.78912 0.0
H176 H 0.14845 0.88458 0.84389 0.0
H177 H 0.11423 0.81752 0.85056 0.0
H178 H 0.10386 0.75218 0.84569 0.0
H179 H 0.11918 0.71125 0.83059 0.0
Mn180 Mn 0.3146 0.20974 0.93902 0.0
Mn181 Mn 0.37286 0.24382 0.96911 0.0
C182 C 0.31026 0.16996 0.95818 0.0
C183 C 0.30494 0.18786 0.91402 0.0
C184 C 0.3026 0.24869 0.96637 0.0
O185 O 0.35339 0.261 0.93181 0.0
O186 O 0.3909 0.2804 0.9522 0.0
C187 C 0.43718 0.244 0.95436 0.0
N188 N 0.41229 0.2333 0.96605 0.0
C189 C 0.44058 0.20219 0.97863 0.0
C190 C 0.46668 0.21308 0.96679 0.0
C191 C 0.46488 0.23398 0.95458 0.0
C192 C 0.41356 0.21293 0.97777 0.0
H193 H 0.43592 0.26006 0.94495 0.0
C194 C 0.38226 0.28516 0.93876 0.0
O195 O 0.28565 0.20179 0.91979 0.0
O196 O 0.3295 0.18678 0.92277 0.0
N197 N 0.36029 0.21231 0.98655 0.0
C198 C 0.33261 0.20342 0.9969 0.0
C199 C 0.33037 0.18237 0.00976 0.0
C200 C 0.35703 0.17142 0.01205 0.0
C201 C 0.38544 0.18119 0.00133 0.0
C202 C 0.38637 0.2023 0.98875 0.0
H203 H 0.31232 0.21219 0.99531 0.0
O204 O 0.28333 0.16049 0.94855 0.0
O205 O 0.34034 0.20193 0.95581 0.0
O206 O 0.29187 0.23243 0.95344 0.0
O207 O 0.33247 0.25458 0.97304 0.0
C208 C 0.41267 0.17051 0.00258 0.0
C209 C 0.44013 0.18087 0.9912 0.0
H210 H 0.48809 0.20541 0.96692 0.0
H211 H 0.48481 0.24237 0.94536 0.0
H212 H 0.30824 0.17471 0.0179 0.0
H213 H 0.35556 0.15566 0.02208 0.0
H214 H 0.41254 0.15405 0.01217 0.0
H215 H 0.46071 0.1722 0.9922 0.0
Mn216 Mn 0.67979 0.89121 0.7301 0.0
Mn217 Mn 0.64204 0.87109 0.69492 0.0
C218 C 0.70064 0.86435 0.71268 0.0
C219 C 0.6763 0.87403 0.75551 0.0
C220 C 0.70006 0.94888 0.70497 0.0
O221 O 0.63347 0.8954 0.73233 0.0
O222 O 0.6076 0.87636 0.7092 0.0
C223 C 0.57813 0.7962 0.70126 0.0
N224 N 0.60937 0.81864 0.69309 0.0
C225 C 0.60151 0.76718 0.67771 0.0
C226 C 0.5691 0.74355 0.68588 0.0
C227 C 0.55743 0.75812 0.69775 0.0
C228 C 0.62099 0.80488 0.68173 0.0
H229 H 0.56911 0.8073 0.7104 0.0
C230 C 0.60712 0.88678 0.72289 0.0
O231 O 0.69472 0.90879 0.75145 0.0
O232 O 0.65977 0.8496 0.74484 0.0
N233 N 0.67171 0.86488 0.67976 0.0
C234 C 0.70437 0.89109 0.6734 0.0
C235 C 0.72034 0.88085 0.6616 0.0
C236 C 0.70232 0.84395 0.6563 0.0
C237 C 0.6684 0.81762 0.66284 0.0
C238 C 0.6538 0.82945 0.67456 0.0
H239 H 0.71826 0.91954 0.67736 0.0
O240 O 0.72036 0.88118 0.72461 0.0
O241 O 0.66837 0.86241 0.71158 0.0
O242 O 0.70584 0.94034 0.71825 0.0
O243 O 0.67599 0.92545 0.69569 0.0
C244 C 0.64879 0.77996 0.65836 0.0
C245 C 0.61548 0.75472 0.66584 0.0
H246 H 0.55309 0.71415 0.68322 0.0
H247 H 0.53254 0.74003 0.70416 0.0
H248 H 0.7465 0.90135 0.65659 0.0
H249 H 0.71484 0.83612 0.64726 0.0
H250 H 0.65926 0.77 0.64927 0.0
H251 H 0.60095 0.72574 0.66243 0.0
Mn252 Mn 0.77941 0.66474 0.89137 0.0
Mn253 Mn 0.76631 0.6312 0.85549 0.0
C254 C 0.82921 0.68744 0.87498 0.0
C255 C 0.79054 0.65904 0.91691 0.0
C256 C 0.74451 0.68738 0.86611 0.0
O257 O 0.72862 0.61835 0.89216 0.0
O258 O 0.72503 0.59496 0.86869 0.0
C259 C 0.77745 0.5671 0.86104 0.0
N260 N 0.78682 0.5992 0.85344 0.0
C261 C 0.83284 0.594 0.83862 0.0
C262 C 0.82351 0.56073 0.84622 0.0
C263 C 0.79577 0.54729 0.85751 0.0
C264 C 0.8136 0.6125 0.84262 0.0
H265 H 0.7562 0.55675 0.86974 0.0
C266 C 0.71207 0.5932 0.8821 0.0
O267 O 0.77428 0.6775 0.9128 0.0
O268 O 0.79932 0.64322 0.90621 0.0
N269 N 0.80377 0.66295 0.84127 0.0
C270 C 0.81033 0.69609 0.83539 0.0
C271 C 0.83763 0.71358 0.82408 0.0
C272 C 0.85754 0.69662 0.8188 0.0
C273 C 0.84997 0.66228 0.82487 0.0
C274 C 0.82224 0.64603 0.83603 0.0
H275 H 0.79495 0.70916 0.83933 0.0
O276 O 0.83064 0.70588 0.88714 0.0
O277 O 0.79903 0.65544 0.87302 0.0
O278 O 0.75765 0.692 0.87957 0.0
O279 O 0.74522 0.66454 0.85651 0.0
C280 C 0.86927 0.64385 0.82048 0.0
C281 C 0.8608 0.6098 0.82739 0.0
H282 H 0.83765 0.54542 0.84356 0.0
H283 H 0.78855 0.52173 0.86347 0.0
H284 H 0.8433 0.74007 0.81944 0.0
H285 H 0.87865 0.71024 0.81011 0.0
H286 H 0.89101 0.65587 0.81195 0.0
H287 H 0.87616 0.59613 0.82406 0.0
Mn288 Mn 0.11177 0.78797 0.05167 0.0
Mn289 Mn 0.13184 0.75967 0.01884 0.0
C290 C 0.14328 0.83061 0.0326 0.0
C291 C 0.12704 0.80749 0.0768 0.0
C292 C 0.05494 0.74646 0.02671 0.0
O293 O 0.10369 0.73674 0.05682 0.0
O294 O 0.12321 0.72301 0.0351 0.0
C295 C 0.20432 0.76725 0.02733 0.0
N296 N 0.18378 0.77618 0.01798 0.0
C297 C 0.23684 0.81349 0.00209 0.0
C298 C 0.25858 0.80458 0.01149 0.0
C299 C 0.24228 0.78152 0.02421 0.0
C300 C 0.19929 0.79878 0.00586 0.0
H301 H 0.1918 0.74933 0.03706 0.0
C302 C 0.11125 0.71569 0.04883 0.0
O303 O 0.09288 0.79205 0.07204 0.0
O304 O 0.15208 0.81118 0.067 0.0
N305 N 0.14095 0.79263 0.00213 0.0
C306 C 0.1164 0.79943 0.99448 0.0
C307 C 0.12853 0.82278 0.98166 0.0
C308 C 0.16551 0.83827 0.97669 0.0
C309 C 0.19005 0.83037 0.98463 0.0
C310 C 0.17654 0.80727 0.99741 0.0
H311 H 0.08782 0.78725 0.99815 0.0
O312 O 0.12623 0.83802 0.04325 0.0
O313 O 0.1422 0.79884 0.03368 0.0
O314 O 0.06364 0.76445 0.03923 0.0
O315 O 0.07803 0.74212 0.01857 0.0
C316 C 0.22732 0.84428 0.9803 0.0
C317 C 0.25086 0.83621 0.98908 0.0
H318 H 0.2878 0.81535 0.00906 0.0
H319 H 0.25888 0.77459 0.03154 0.0
H320 H 0.10936 0.82865 0.97558 0.0
H321 H 0.17478 0.85618 0.96677 0.0
H322 H 0.23789 0.86088 0.97013 0.0
H323 H 0.2796 0.84739 0.98569 0.0
Mn324 Mn 0.31569 0.1042 0.22273 0.0
Mn325 Mn 0.36349 0.12856 0.18956 0.0
C326 C 0.29925 0.13192 0.20395 0.0
C327 C 0.31064 0.11821 0.24802 0.0
C328 C 0.30241 0.05 0.1966 0.0
O329 O 0.36144 0.10058 0.22767 0.0
O330 O 0.39176 0.11875 0.20534 0.0
C331 C 0.42607 0.20063 0.20003 0.0
N332 N 0.39796 0.18085 0.18999 0.0
C333 C 0.41353 0.23592 0.17549 0.0
C334 C 0.44282 0.25687 0.18561 0.0
C335 C 0.44902 0.23916 0.19796 0.0
C336 C 0.39151 0.19765 0.17817 0.0
H337 H 0.43093 0.18712 0.20953 0.0
C338 C 0.38913 0.10803 0.21916 0.0
O339 O 0.2942 0.08399 0.24323 0.0
O340 O 0.33014 0.14397 0.23816 0.0
N341 N 0.3406 0.13929 0.17295 0.0
C342 C 0.31094 0.11516 0.16435 0.0
C343 C 0.3013 0.12839 0.15143 0.0
C344 C 0.32233 0.16616 0.14745 0.0
C345 C 0.35279 0.19041 0.15642 0.0
C346 C 0.36149 0.17554 0.16901 0.0
H347 H 0.29498 0.08598 0.16724 0.0
O348 O 0.27647 0.11365 0.21494 0.0
O349 O 0.33221 0.13524 0.20464 0.0
O350 O 0.29426 0.05648 0.20987 0.0
O351 O 0.32802 0.07475 0.18821 0.0
C352 C 0.37488 0.22876 0.15336 0.0
C353 C 0.40511 0.25154 0.16294 0.0
H354 H 0.46059 0.28659 0.18405 0.0
H355 H 0.47147 0.25515 0.20586 0.0
H356 H 0.27807 0.10945 0.14443 0.0
H357 H 0.31514 0.17623 0.13738 0.0
H358 H 0.36871 0.24105 0.14372 0.0
H359 H 0.42168 0.28105 0.16056 0.0
Mn360 Mn 0.21204 0.31488 0.39356 0.0
Mn361 Mn 0.24406 0.36452 0.36104 0.0
C362 C 0.17165 0.30318 0.37361 0.0
C363 C 0.18944 0.31014 0.41827 0.0
C364 C 0.25359 0.29854 0.36861 0.0
O365 O 0.26225 0.35774 0.39986 0.0
O366 O 0.2801 0.38942 0.37783 0.0
C367 C 0.23935 0.43021 0.37108 0.0
N368 N 0.2305 0.40228 0.36087 0.0
C369 C 0.19739 0.42348 0.34514 0.0
C370 C 0.20636 0.45264 0.35543 0.0
C371 C 0.22732 0.45592 0.36849 0.0
C372 C 0.21006 0.39864 0.34836 0.0
H373 H 0.25546 0.43283 0.38114 0.0
C374 C 0.28529 0.38524 0.39187 0.0
O375 O 0.20554 0.29155 0.41408 0.0
O376 O 0.18685 0.33147 0.40816 0.0
N377 N 0.2128 0.34486 0.34354 0.0
C378 C 0.20601 0.31482 0.33489 0.0
C379 C 0.18576 0.30785 0.32131 0.0
C380 C 0.17284 0.33183 0.31675 0.0
C381 C 0.18023 0.36258 0.3258 0.0
C382 C 0.20116 0.36855 0.33906 0.0
H383 H 0.21632 0.29657 0.33823 0.0
O384 O 0.16348 0.27906 0.38444 0.0
O385 O 0.20277 0.33465 0.37509 0.0
O386 O 0.23697 0.29067 0.38149 0.0
O387 O 0.25819 0.32577 0.36027 0.0
C388 C 0.16769 0.38755 0.32218 0.0
C389 C 0.17607 0.41786 0.33189 0.0
H390 H 0.19713 0.47253 0.35346 0.0
H391 H 0.23422 0.47825 0.37652 0.0
H392 H 0.18059 0.28437 0.31426 0.0
H393 H 0.1576 0.32665 0.30619 0.0
H394 H 0.15132 0.38353 0.31202 0.0
H395 H 0.16594 0.43665 0.32908 0.0
Mn396 Mn 0.89136 0.2102 0.56437 0.0
Mn397 Mn 0.86322 0.22626 0.5306 0.0
C398 C 0.86161 0.16201 0.54733 0.0
C399 C 0.87877 0.19665 0.59015 0.0
C400 C 0.94334 0.2478 0.53749 0.0
O401 O 0.89553 0.26063 0.56725 0.0
O402 O 0.87003 0.26551 0.54542 0.0
C403 C 0.78905 0.21278 0.54012 0.0
N404 N 0.81037 0.20485 0.53076 0.0
C405 C 0.75642 0.15911 0.51719 0.0
C406 C 0.73389 0.16698 0.52661 0.0
C407 C 0.75028 0.19387 0.53814 0.0
C408 C 0.79489 0.17888 0.51969 0.0
H409 H 0.80152 0.23332 0.54904 0.0
C410 C 0.88374 0.27728 0.55868 0.0
O411 O 0.91276 0.2132 0.58507 0.0
O412 O 0.8526 0.18857 0.5803 0.0
N413 N 0.85505 0.19063 0.51501 0.0
C414 C 0.8806 0.18581 0.50708 0.0
C415 C 0.86866 0.15973 0.49516 0.0
C416 C 0.83072 0.13914 0.49144 0.0
C417 C 0.80504 0.14503 0.49958 0.0
C418 C 0.81859 0.17169 0.51122 0.0
H419 H 0.90985 0.20168 0.50982 0.0
O420 O 0.88081 0.15957 0.55845 0.0
O421 O 0.85908 0.19204 0.54686 0.0
O422 O 0.93786 0.23353 0.5508 0.0
O423 O 0.91778 0.24804 0.52943 0.0
C424 C 0.76648 0.12516 0.49672 0.0
C425 C 0.74217 0.1321 0.50556 0.0
H426 H 0.70396 0.15238 0.52515 0.0
H427 H 0.73306 0.19997 0.5455 0.0
H428 H 0.88861 0.15553 0.48881 0.0
H429 H 0.82162 0.11891 0.4823 0.0
H430 H 0.75519 0.1042 0.48786 0.0
H431 H 0.71253 0.11636 0.50336 0.0
H432 H 0.11034 0.65709 0.03423 0.0
H433 H 0.10315 0.60016 0.04551 0.0
H434 H 0.09367 0.63827 0.09011 0.0
H435 H 0.10083 0.69556 0.07894 0.0
H436 H 0.14396 0.61216 0.0887 0.0
H437 H 0.01826 0.5723 0.07409 0.0
H438 H 0.96833 0.56379 0.0565 0.0
H439 H 0.99371 0.49634 0.02731 0.0
H440 H 0.04421 0.50492 0.04461 0.0
H441 H 0.09154 0.44682 0.12823 0.0
H442 H 0.08915 0.49927 0.11709 0.0
H443 H 0.09168 0.45907 0.07203 0.0
H444 H 0.09338 0.40575 0.08311 0.0
H445 H 0.04368 0.486 0.07378 0.0
H446 H 0.17001 0.5268 0.08768 0.0
H447 H 0.22035 0.53509 0.10498 0.0
H448 H 0.19503 0.60138 0.13491 0.0
H449 H 0.14405 0.59291 0.11791 0.0
C450 C 0.10665 0.65344 0.04644 0.0
C451 C 0.10617 0.68091 0.05569 0.0
C452 C 0.10235 0.62077 0.05284 0.0
C453 C 0.09759 0.61499 0.0686 0.0
C454 C 0.0972 0.64229 0.0779 0.0
C455 C 0.10118 0.6749 0.07149 0.0
C456 C 0.09425 0.58087 0.07536 0.0
C457 C 0.12171 0.58457 0.08564 0.0
C458 C 0.06579 0.54498 0.07098 0.0
C459 C 0.03527 0.53956 0.06059 0.0
C460 C 0.01341 0.55591 0.06386 0.0
C461 C 0.98496 0.55103 0.05395 0.0
C462 C 0.97791 0.52962 0.04078 0.0
C463 C -0.00076 0.51296 0.03751 0.0
C464 C 0.02776 0.5178 0.04737 0.0
C465 C 0.09139 0.4489 0.11594 0.0
C466 C 0.09311 0.4223 0.10655 0.0
C467 C 0.09004 0.47896 0.1096 0.0
C468 C 0.09093 0.48337 0.09376 0.0
C469 C 0.09112 0.45617 0.0843 0.0
C470 C 0.09219 0.42581 0.09065 0.0
C471 C 0.09333 0.5173 0.08716 0.0
C472 C 0.06583 0.51358 0.07688 0.0
C473 C 0.12191 0.55325 0.09147 0.0
C474 C 0.15297 0.55892 0.10159 0.0
C475 C 0.175 0.54294 0.098 0.0
C476 C 0.20366 0.54768 0.10775 0.0
C477 C 0.21083 0.56867 0.12105 0.0
C478 C 0.18941 0.58507 0.12461 0.0
C479 C 0.16064 0.58032 0.11492 0.0
H480 H 0.23302 0.5723 0.12859 0.0
H481 H 0.95588 0.52587 0.03312 0.0
H482 H 0.68633 0.09626 0.2535 0.0
H483 H 0.62945 0.08994 0.24243 0.0
H484 H 0.60303 0.12269 0.28516 0.0
H485 H 0.65955 0.12883 0.29641 0.0
H486 H 0.54202 0.06274 0.2719 0.0
H487 H 0.64141 0.18515 0.25714 0.0
H488 H 0.70225 0.22817 0.24557 0.0
H489 H 0.66446 0.17212 0.20262 0.0
H490 H 0.60351 0.1285 0.214 0.0
H491 H 0.40874 0.11161 0.24907 0.0
H492 H 0.46224 0.10944 0.25941 0.0
H493 H 0.49276 0.09397 0.2141 0.0
H494 H 0.44025 0.09776 0.20365 0.0
H495 H 0.5515 0.14197 0.2279 0.0
H496 H 0.45187 0.02141 0.24136 0.0
H497 H 0.39133 0.97568 0.25239 0.0
H498 H 0.42875 0.02379 0.2967 0.0
H499 H 0.48937 0.07013 0.2859 0.0
C500 C 0.66837 0.10195 0.26059 0.0
C501 C 0.67766 0.11324 0.27584 0.0
C502 C 0.63592 0.09839 0.25422 0.0
C503 C 0.61228 0.10617 0.26296 0.0
C504 C 0.62096 0.11656 0.27825 0.0
C505 C 0.65339 0.12021 0.28463 0.0
C506 C 0.579 0.10455 0.25608 0.0
C507 C 0.54399 0.08025 0.26237 0.0
C508 C 0.58168 0.12666 0.24337 0.0
C509 C 0.61803 0.15338 0.23645 0.0
C510 C 0.64615 0.1819 0.24525 0.0
C511 C 0.68064 0.2064 0.23872 0.0
C512 C 0.68725 0.20283 0.22338 0.0
C513 C 0.65932 0.17485 0.21451 0.0
C514 C 0.62478 0.15026 0.22098 0.0
C515 C 0.42672 0.10748 0.24133 0.0
C516 C 0.4203 0.10482 0.22556 0.0
C517 C 0.45721 0.10606 0.24726 0.0
C518 C 0.48127 0.10097 0.23756 0.0
C519 C 0.47463 0.09794 0.22181 0.0
C520 C 0.44458 0.10005 0.21586 0.0
C521 C 0.51416 0.1002 0.24375 0.0
C522 C 0.54924 0.12414 0.23735 0.0
C523 C 0.51144 0.07737 0.25624 0.0
C524 C 0.47506 0.04944 0.26279 0.0
C525 C 0.4471 0.0224 0.25344 0.0
C526 C 0.41278 0.99634 0.25965 0.0
C527 C 0.40617 0.99688 0.27523 0.0
C528 C 0.4339 0.02342 0.28463 0.0
C529 C 0.46826 0.04956 0.27848 0.0
H530 H 0.37958 0.97669 0.28002 0.0
H531 H 0.71399 0.2218 0.21836 0.0
H532 H 0.59304 0.67615 0.42264 0.0
H533 H 0.53885 0.61827 0.41453 0.0
H534 H 0.48613 0.60939 0.45789 0.0
H535 H 0.54054 0.6673 0.46626 0.0
H536 H 0.47727 0.54194 0.44793 0.0
H537 H 0.46075 0.6407 0.4281 0.0
H538 H 0.47992 0.69924 0.41425 0.0
H539 H 0.49291 0.65053 0.3732 0.0
H540 H 0.47431 0.59184 0.38686 0.0
H541 H 0.29576 0.40518 0.42194 0.0
H542 H 0.34994 0.45865 0.43333 0.0
H543 H 0.40563 0.48496 0.38975 0.0
H544 H 0.35111 0.43263 0.37823 0.0
H545 H 0.41114 0.54437 0.4013 0.0
H546 H 0.4301 0.44653 0.42082 0.0
H547 H 0.41277 0.38815 0.43448 0.0
H548 H 0.39658 0.43432 0.47562 0.0
H549 H 0.41338 0.49284 0.46216 0.0
C550 C 0.57004 0.66196 0.43052 0.0
C551 C 0.57109 0.67661 0.44508 0.0
C552 C 0.53906 0.62886 0.42584 0.0
C553 C 0.50836 0.60986 0.43555 0.0
C554 C 0.50958 0.62374 0.45023 0.0
C555 C 0.54065 0.6569 0.45496 0.0
C556 C 0.47461 0.57614 0.43011 0.0
C557 C 0.46242 0.54243 0.43786 0.0
C558 C 0.45577 0.57686 0.41683 0.0
C559 C 0.46641 0.61196 0.40853 0.0
C560 C 0.46791 0.64254 0.41614 0.0
C561 C 0.47864 0.67574 0.40832 0.0
C562 C 0.4877 0.67863 0.39286 0.0
C563 C 0.48591 0.64826 0.38518 0.0
C564 C 0.47523 0.61501 0.39295 0.0
C565 C 0.31979 0.42213 0.41486 0.0
C566 C 0.31921 0.41487 0.39919 0.0
C567 C 0.35078 0.45261 0.42138 0.0
C568 C 0.382 0.47574 0.41242 0.0
C569 C 0.38181 0.46767 0.39688 0.0
C570 C 0.35067 0.43771 0.39031 0.0
C571 C 0.41408 0.50966 0.41888 0.0
C572 C 0.42586 0.54364 0.41138 0.0
C573 C 0.4326 0.50903 0.43232 0.0
C574 C 0.42263 0.47392 0.44044 0.0
C575 C 0.42258 0.44413 0.43275 0.0
C576 C 0.4129 0.41104 0.44047 0.0
C577 C 0.40348 0.40749 0.4559 0.0
C578 C 0.40383 0.43709 0.46366 0.0
C579 C 0.41346 0.47023 0.456 0.0
H580 H 0.396 0.38185 0.46185 0.0
H581 H 0.49604 0.70437 0.38683 0.0
H582 H 0.85762 0.5404 0.62652 0.0
H583 H 0.8584 0.48438 0.61853 0.0
H584 H 0.91521 0.53928 0.57711 0.0
H585 H 0.91489 0.59557 0.58501 0.0
H586 H 0.82802 0.43997 0.59379 0.0
H587 H 0.97633 0.5094 0.56813 0.0
H588 H 0.03735 0.5661 0.57171 0.0
H589 H 0.01035 0.57239 0.61843 0.0
H590 H 0.94942 0.51546 0.61519 0.0
H591 H 0.85123 0.31472 0.54639 0.0
H592 H 0.85252 0.37037 0.55631 0.0
H593 H 0.92048 0.37313 0.59397 0.0
H594 H 0.91954 0.31752 0.58413 0.0
H595 H 0.94583 0.44229 0.58123 0.0
H596 H 0.83127 0.34123 0.59994 0.0
H597 H 0.77065 0.28342 0.59788 0.0
H598 H 0.7307 0.33833 0.56839 0.0
H599 H 0.79131 0.39634 0.57009 0.0
C600 C 0.87043 0.5407 0.61573 0.0
C601 C 0.88636 0.57264 0.60645 0.0
C602 C 0.87068 0.50856 0.61116 0.0
C603 C 0.88712 0.50781 0.5973 0.0
C604 C 0.90279 0.53946 0.58795 0.0
C605 C 0.90245 0.57158 0.59247 0.0
C606 C 0.88772 0.47382 0.59258 0.0
C607 C 0.85377 0.44047 0.59104 0.0
C608 C 0.92137 0.4744 0.58923 0.0
C609 C 0.95817 0.50837 0.59136 0.0
C610 C 0.98349 0.5228 0.57918 0.0
C611 C 0.01804 0.55499 0.58115 0.0
C612 C 0.02767 0.5729 0.59527 0.0
C613 C 0.0028 0.55857 0.60748 0.0
C614 C 0.96824 0.52637 0.60558 0.0
C615 C 0.86662 0.3272 0.55675 0.0
C616 C 0.88523 0.31156 0.56447 0.0
C617 C 0.86718 0.35892 0.56243 0.0
C618 C 0.88635 0.37564 0.57593 0.0
C619 C 0.90551 0.36058 0.58353 0.0
C620 C 0.9048 0.32871 0.57791 0.0
C621 C 0.88611 0.40867 0.58217 0.0
C622 C 0.9201 0.44183 0.58398 0.0
C623 C 0.85253 0.40779 0.58598 0.0
C624 C 0.81595 0.37304 0.58503 0.0
C625 C 0.80966 0.3409 0.59292 0.0
C626 C 0.77529 0.30811 0.59184 0.0
C627 C 0.74688 0.30718 0.58298 0.0
C628 C 0.75275 0.33908 0.57523 0.0
C629 C 0.7871 0.37193 0.57626 0.0
H630 H 0.72028 0.28176 0.58215 0.0
H631 H 0.05442 0.59784 0.59677 0.0
H632 H 0.58796 0.89229 0.7522 0.0
H633 H 0.53245 0.89301 0.76095 0.0
H634 H 0.49555 0.88517 0.71452 0.0
H635 H 0.55099 0.88425 0.70558 0.0
H636 H 0.48985 0.93942 0.7323 0.0
H637 H 0.45608 0.81031 0.73489 0.0
H638 H 0.46447 0.75778 0.74252 0.0
H639 H 0.46147 0.78391 0.78964 0.0
H640 H 0.45363 0.83698 0.78228 0.0
H641 H 0.30387 0.89341 0.7467 0.0
H642 H 0.36033 0.89504 0.73777 0.0
H643 H 0.388 0.88306 0.78399 0.0
H644 H 0.33089 0.88022 0.79299 0.0
H645 H 0.39922 0.8394 0.76622 0.0
H646 H 0.43331 0.96787 0.76446 0.0
H647 H 0.42694 0.02203 0.75757 0.0
H648 H 0.43171 -0.00028 0.71011 0.0
H649 H 0.43761 0.9451 0.71672 0.0
C650 C 0.56817 0.89087 0.74381 0.0
C651 C 0.57391 0.88813 0.72817 0.0
C652 C 0.53641 0.89116 0.74885 0.0
C653 C 0.50988 0.88891 0.73838 0.0
C654 C 0.51577 0.8869 0.72276 0.0
C655 C 0.54737 0.88623 0.7177 0.0
C656 C 0.47576 0.88822 0.74378 0.0
C657 C 0.46972 0.91735 0.73956 0.0
C658 C 0.45021 0.85991 0.75358 0.0
C659 C 0.45464 0.82784 0.75803 0.0
C660 C 0.45752 0.80505 0.74688 0.0
C661 C 0.46212 0.77514 0.75115 0.0
C662 C 0.4636 0.76757 0.76656 0.0
C663 C 0.46037 0.78984 0.77772 0.0
C664 C 0.45582 0.81982 0.7735 0.0
C665 C 0.32205 0.89134 0.755 0.0
C666 C 0.31292 0.88684 0.77058 0.0
C667 C 0.35444 0.89242 0.74987 0.0
C668 C 0.37875 0.88975 0.76023 0.0
C669 C 0.3697 0.88522 0.77578 0.0
C670 C 0.33707 0.88369 0.78091 0.0
C671 C 0.41313 0.89074 0.7548 0.0
C672 C 0.41928 0.8616 0.75899 0.0
C673 C 0.43899 0.91928 0.7451 0.0
C674 C 0.43555 0.95218 0.74109 0.0
C675 C 0.43272 0.97434 0.75255 0.0
C676 C 0.42924 0.00516 0.7487 0.0
C677 C 0.42882 0.01426 0.73341 0.0
C678 C 0.43199 0.99261 0.72195 0.0
C679 C 0.43544 0.96175 0.72574 0.0
H680 H 0.42613 0.03812 0.73045 0.0
H681 H 0.46716 0.7444 0.76985 0.0
H682 H 0.39065 0.29672 0.90799 0.0
H683 H 0.44047 0.35083 0.89483 0.0
H684 H 0.48329 0.40489 0.93804 0.0
H685 H 0.43396 0.35101 0.95127 0.0
H686 H 0.48503 0.45339 0.91424 0.0
H687 H 0.51894 0.35804 0.92407 0.0
H688 H 0.50758 0.29388 0.922 0.0
H689 H 0.50856 0.3014 0.87321 0.0
H690 H 0.51942 0.36549 0.87502 0.0
H691 H 0.67555 0.57786 0.90941 0.0
H692 H 0.61389 0.52637 0.91545 0.0
H693 H 0.603 0.48401 0.86974 0.0
H694 H 0.66513 0.53527 0.86357 0.0
H695 H 0.57906 0.42894 0.89015 0.0
H696 H 0.55616 0.52773 0.87989 0.0
H697 H 0.56554 0.59121 0.88131 0.0
H698 H 0.54137 0.57748 0.92919 0.0
H699 H 0.53239 0.51409 0.92812 0.0
C700 C 0.41023 0.32045 0.91466 0.0
C701 C 0.40867 0.31952 0.93066 0.0
C702 C 0.43864 0.35125 0.90713 0.0
C703 C 0.46556 0.3816 0.91551 0.0
C704 C 0.46268 0.38169 0.93141 0.0
C705 C 0.43464 0.3508 0.93894 0.0
C706 C 0.49893 0.41163 0.90801 0.0
C707 C 0.50568 0.44821 0.90897 0.0
C708 C 0.52516 0.40447 0.90076 0.0
C709 C 0.51961 0.36636 0.89967 0.0
C710 C 0.51654 0.34592 0.9129 0.0
C711 C 0.51021 0.30959 0.91178 0.0
C712 C 0.50728 0.29355 0.89748 0.0
C713 C 0.51081 0.31386 0.88427 0.0
C714 C 0.51707 0.35019 0.88534 0.0
C715 C 0.66019 0.55764 0.90061 0.0
C716 C 0.67531 0.5609 0.88597 0.0
C717 C 0.62479 0.52831 0.90407 0.0
C718 C 0.60359 0.50181 0.89295 0.0
C719 C 0.61883 0.50437 0.87844 0.0
C720 C 0.65435 0.5337 0.87495 0.0
C721 C 0.56582 0.47111 0.89672 0.0
C722 C 0.55821 0.4343 0.89509 0.0
C723 C 0.53863 0.47809 0.90321 0.0
C724 C 0.54384 0.51619 0.90394 0.0
C725 C 0.55311 0.53832 0.89075 0.0
C726 C 0.55831 0.57429 0.89149 0.0
C727 C 0.55411 0.58839 0.90534 0.0
C728 C 0.54462 0.56652 0.91847 0.0
C729 C 0.53942 0.53054 0.9178 0.0
H730 H 0.55815 0.61625 0.90588 0.0
H731 H 0.50235 0.2654 0.89663 0.0
H732 H 0.23333 0.10333 0.18963 0.0
H733 H 0.20832 0.13759 0.17655 0.0
H734 H 0.31505 0.23837 0.1802 0.0
H735 H 0.33827 0.20456 0.19517 0.0
H736 H 0.26931 0.25435 0.1886 0.0
H737 H 0.26589 0.19142 0.14126 0.0
H738 H 0.25244 0.13731 0.12501 0.0
H739 H 0.1379 0.08278 0.1388 0.0
H740 H 0.15056 0.1368 0.15482 0.0
H741 H 0.1985 0.34677 0.13928 0.0
H742 H 0.23299 0.32283 0.15356 0.0
H743 H 0.13007 0.22166 0.16297 0.0
H744 H 0.09582 0.24553 0.14874 0.0
H745 H 0.17857 0.21017 0.14621 0.0
H746 H 0.18645 0.26661 0.19737 0.0
H747 H 0.20373 0.31508 0.21707 0.0
H748 H 0.31074 0.38091 0.19609 0.0
H749 H 0.29437 0.33229 0.17654 0.0
C750 C 0.25163 0.13265 0.18729 0.0
C751 C 0.28814 0.15113 0.1929 0.0
C752 C 0.23749 0.15224 0.17955 0.0
C753 C 0.25989 0.19066 0.1769 0.0
C754 C 0.29708 0.20876 0.18195 0.0
C755 C 0.31071 0.18936 0.19025 0.0
C756 C 0.24303 0.21268 0.17106 0.0
C757 C 0.25031 0.24508 0.17901 0.0
C758 C 0.21703 0.2003 0.15894 0.0
C759 C 0.20933 0.16784 0.14935 0.0
C760 C 0.23795 0.16771 0.14087 0.0
C761 C 0.23042 0.13719 0.13167 0.0
C762 C 0.19446 0.1065 0.13101 0.0
C763 C 0.16578 0.10651 0.13936 0.0
C764 C 0.17305 0.13717 0.14841 0.0
C765 C 0.18323 0.32018 0.14502 0.0
C766 C 0.14456 0.29808 0.14312 0.0
C767 C 0.2029 0.3065 0.15317 0.0
C768 C 0.1841 0.2704 0.15931 0.0
C769 C 0.14513 0.2496 0.15835 0.0
C770 C 0.12559 0.26318 0.15022 0.0
C771 C 0.20489 0.25144 0.16383 0.0
C772 C 0.19826 0.21967 0.15557 0.0
C773 C 0.2317 0.26455 0.17553 0.0
C774 C 0.23897 0.29627 0.1854 0.0
C775 C 0.21337 0.29177 0.19682 0.0
C776 C 0.22324 0.31894 0.2081 0.0
C777 C 0.25842 0.35091 0.2079 0.0
C778 C 0.28359 0.35606 0.19628 0.0
C779 C 0.27407 0.3287 0.18513 0.0
H780 H 0.266 0.37188 0.21664 0.0
H781 H 0.18878 0.08279 0.12398 0.0
H782 H 0.86071 0.12247 0.31637 0.0
H783 H 0.91998 0.15819 0.32965 0.0
H784 H 0.92568 0.26042 0.31538 0.0
H785 H 0.86539 0.22438 0.30249 0.0
H786 H 0.98005 0.20208 0.3113 0.0
H787 H 0.97053 0.31614 0.3316 0.0
H788 H 0.94414 0.34584 0.34786 0.0
H789 H 0.92088 0.26467 0.3828 0.0
H790 H 0.94656 0.2342 0.36657 0.0
H791 H 0.14639 0.34896 0.36401 0.0
H792 H 0.09318 0.3327 0.34741 0.0
H793 H 0.0742 0.22053 0.34401 0.0
H794 H 0.13038 0.23869 0.3586 0.0
H795 H 0.02908 0.29334 0.35353 0.0
H796 H 0.01746 0.16745 0.32099 0.0
H797 H 0.05684 0.14925 0.30646 0.0
H798 H 0.12973 0.26324 0.29397 0.0
H799 H 0.09106 0.28219 0.30873 0.0
C800 C 0.87394 0.15256 0.31662 0.0
C801 C 0.8584 0.17077 0.30869 0.0
C802 C 0.90776 0.17296 0.32419 0.0
C803 C 0.92727 0.21202 0.32359 0.0
C804 C 0.91081 0.2304 0.31634 0.0
C805 C 0.87647 0.20983 0.30893 0.0
C806 C 0.96712 0.23215 0.32796 0.0
C807 C 0.99087 0.22212 0.32055 0.0
C808 C 0.98179 0.25939 0.3395 0.0
C809 C 0.95948 0.27241 0.34776 0.0
C810 C 0.95875 0.30404 0.34257 0.0
C811 C 0.94439 0.32129 0.35185 0.0
C812 C 0.93128 0.30744 0.36643 0.0
C813 C 0.93132 0.27554 0.37155 0.0
C814 C 0.94537 0.25804 0.36225 0.0
C815 C 0.13222 0.32167 0.35879 0.0
C816 C 0.14347 0.29566 0.3619 0.0
C817 C 0.10125 0.312 0.34957 0.0
C818 C 0.07955 0.27537 0.34407 0.0
C819 C 0.09099 0.2494 0.3473 0.0
C820 C 0.12289 0.25961 0.35592 0.0
C821 C 0.04237 0.26293 0.33708 0.0
C822 C 0.01893 0.27408 0.34401 0.0
C823 C 0.02826 0.23737 0.32481 0.0
C824 C 0.05173 0.22628 0.31607 0.0
C825 C 0.04196 0.18863 0.31517 0.0
C826 C 0.06422 0.17822 0.30697 0.0
C827 C 0.09597 0.20516 0.29942 0.0
C828 C 0.10544 0.24253 0.30002 0.0
C829 C 0.08355 0.25316 0.30838 0.0
H830 H 0.11314 0.19705 0.29305 0.0
H831 H 0.92057 0.32106 0.37367 0.0
H832 H 0.78709 0.1233 0.54225 0.0
H833 H 0.75284 0.06749 0.52637 0.0
H834 H 0.85608 0.07106 0.51538 0.0
H835 H 0.89017 0.12736 0.53084 0.0
H836 H 0.81564 0.05687 0.49073 0.0
H837 H 0.79361 0.01121 0.54236 0.0
H838 H 0.77222 0.00602 0.56893 0.0
H839 H 0.66116 0.96968 0.55337 0.0
H840 H 0.68202 0.97517 0.52669 0.0
H841 H 0.76266 0.87249 0.4706 0.0
H842 H 0.78561 0.93072 0.48487 0.0
H843 H 0.67741 0.92114 0.48165 0.0
H844 H 0.65472 0.86325 0.46693 0.0
H845 H 0.7133 0.93943 0.51206 0.0
H846 H 0.73565 0.97967 0.46014 0.0
H847 H 0.75821 0.98274 0.43391 0.0
H848 H 0.86987 0.02743 0.45046 0.0
H849 H 0.84788 0.02406 0.47684 0.0
C850 C 0.80231 0.11237 0.53617 0.0
C851 C 0.84118 0.13003 0.53721 0.0
C852 C 0.78278 0.08032 0.52729 0.0
C853 C 0.8019 0.06505 0.5197 0.0
C854 C 0.84078 0.08253 0.52101 0.0
C855 C 0.86022 0.11455 0.52983 0.0
C856 C 0.78171 0.03065 0.5105 0.0
C857 C 0.79333 0.03119 0.49543 0.0
C858 C 0.75199 0.99729 0.5165 0.0
C859 C 0.73949 0.99415 0.53253 0.0
C860 C 0.76471 0.00248 0.54461 0.0
C861 C 0.75266 -0.00059 0.55968 0.0
C862 C 0.71539 0.98768 0.56284 0.0
C863 C 0.69005 0.97888 0.55092 0.0
C864 C 0.70196 0.98197 0.53582 0.0
C865 C 0.74377 0.88271 0.4731 0.0
C866 C 0.70664 0.86294 0.46826 0.0
C867 C 0.75686 0.91589 0.48117 0.0
C868 C 0.73312 0.93002 0.4843 0.0
C869 C 0.69599 0.91041 0.47941 0.0
C870 C 0.68299 0.87732 0.47118 0.0
C871 C 0.74769 0.96569 0.4925 0.0
C872 C 0.73507 0.96534 0.50733 0.0
C873 C 0.77666 -0.00086 0.48634 0.0
C874 C 0.79003 0.00127 0.47049 0.0
C875 C 0.76496 0.98981 0.45821 0.0
C876 C 0.77766 0.99168 0.44331 0.0
C877 C 0.81544 0.00519 0.44052 0.0
C878 C 0.8406 0.01694 0.45264 0.0
C879 C 0.82804 0.01508 0.46756 0.0
H880 H 0.82522 0.00663 0.42897 0.0
H881 H 0.70611 0.98529 0.57452 0.0
H882 H 0.79353 0.66796 0.62694 0.0
H883 H 0.76107 0.69146 0.64285 0.0
H884 H 0.86476 0.79382 0.64988 0.0
H885 H 0.8972 0.76957 0.63448 0.0
H886 H 0.83015 0.77205 0.6756 0.0
H887 H 0.79474 0.78496 0.62488 0.0
H888 H 0.76808 0.76425 0.59925 0.0
H889 H 0.6618 0.68868 0.61895 0.0
H890 H 0.68797 0.70856 0.64471 0.0
H891 H 0.76793 0.89419 0.69927 0.0
H892 H 0.79256 0.86201 0.68389 0.0
H893 H 0.68832 0.75924 0.68856 0.0
H894 H 0.6639 0.79145 0.70425 0.0
H895 H 0.7187 0.77604 0.658 0.0
H896 H 0.75454 0.76697 0.70891 0.0
H897 H 0.78196 0.79063 0.73421 0.0
H898 H 0.88833 0.86171 0.71359 0.0
H899 H 0.8614 0.83892 0.68813 0.0
C900 C 0.80927 0.6952 0.63213 0.0
C901 C 0.84789 0.71651 0.63008 0.0
C902 C 0.79072 0.70886 0.641 0.0
C903 C 0.81045 0.74449 0.64755 0.0
C904 C 0.84899 0.76613 0.64508 0.0
C905 C 0.86749 0.75238 0.63629 0.0
C906 C 0.79133 0.75928 0.65716 0.0
C907 C 0.8059 0.77307 0.67168 0.0
C908 C 0.75917 0.75996 0.65222 0.0
C909 C 0.74346 0.74787 0.63673 0.0
C910 C 0.76578 0.76366 0.62375 0.0
C911 C 0.75074 0.75212 0.6092 0.0
C912 C 0.71331 0.72506 0.60747 0.0
C913 C 0.69081 0.70956 0.6203 0.0
C914 C 0.70573 0.72095 0.63488 0.0
C915 C 0.75025 0.86482 0.69685 0.0
C916 C 0.71367 0.84543 0.70238 0.0
C917 C 0.76431 0.84648 0.68815 0.0
C918 C 0.7422 0.80832 0.6851 0.0
C919 C 0.70566 0.78877 0.69072 0.0
C920 C 0.69166 0.80715 0.69953 0.0
C921 C 0.75779 0.78899 0.67624 0.0
C922 C 0.74259 0.77441 0.66193 0.0
C923 C 0.7895 0.7878 0.68129 0.0
C924 C 0.80584 0.80148 0.6966 0.0
C925 C 0.7837 0.78789 0.70976 0.0
C926 C 0.79917 0.80111 0.72413 0.0
C927 C 0.83684 0.82773 0.7255 0.0
C928 C 0.85914 0.84113 0.7125 0.0
C929 C 0.84379 0.82804 0.6981 0.0
H930 H 0.84877 0.83792 0.73664 0.0
H931 H 0.70171 0.71619 0.59619 0.0
H932 H 0.86641 0.65155 0.86694 0.0
H933 H 0.923 0.6762 0.85134 0.0
H934 H 0.92513 0.78108 0.84758 0.0
H935 H 0.86787 0.75578 0.86259 0.0
H936 H 0.93795 0.76259 0.82111 0.0
H937 H 0.98347 0.76579 0.87183 0.0
H938 H 0.98745 0.73998 0.89659 0.0
H939 H 0.01722 0.66675 0.87395 0.0
H940 H 0.01289 0.69176 0.84904 0.0
H941 H 0.12395 0.8884 0.80118 0.0
H942 H 0.06612 0.85325 0.81571 0.0
H943 H 0.06702 0.75147 0.80659 0.0
H944 H 0.12468 0.78669 0.79177 0.0
H945 H 0.05164 0.76203 0.83801 0.0
H946 H 0.01027 0.7631 0.78726 0.0
H947 H 0.00835 0.79159 0.7629 0.0
H948 H 0.97252 0.85928 0.78621 0.0
H949 H 0.97481 0.83162 0.81075 0.0
C950 C 0.87879 0.6796 0.8625 0.0
C951 C 0.86229 0.7014 0.86531 0.0
C952 C 0.91134 0.69388 0.85382 0.0
C953 C 0.92835 0.73054 0.84828 0.0
C954 C 0.9123 0.7526 0.85157 0.0
C955 C 0.87972 0.73824 0.86014 0.0
C956 C 0.96259 0.74613 0.83888 0.0
C957 C 0.96282 0.76258 0.82488 0.0
C958 C 0.99487 0.74542 0.84359 0.0
C959 C 0.99732 0.73027 0.85856 0.0
C960 C 0.9905 0.74392 0.87212 0.0
C961 C 0.99289 0.72949 0.88619 0.0
C962 C 0.00244 0.70164 0.88684 0.0
C963 C 0.00972 0.68824 0.87343 0.0
C964 C 0.0073 0.70253 0.85934 0.0
C965 C 0.11187 0.85857 0.80243 0.0
C966 C 0.12913 0.84021 0.7959 0.0
C967 C 0.07893 0.83857 0.81065 0.0
C968 C 0.06246 0.79985 0.8122 0.0
C969 C 0.07955 0.78139 0.80558 0.0
C970 C 0.11247 0.80144 0.79727 0.0
C971 C 0.02695 0.77885 0.8205 0.0
C972 C 0.02651 0.76142 0.83422 0.0
C973 C 0.99454 0.77886 0.81561 0.0
C974 C 0.99305 0.79552 0.80087 0.0
C975 C 0.00232 0.78431 0.78721 0.0
C976 C 0.0011 0.80026 0.77336 0.0
C977 C 0.99041 0.82729 0.77301 0.0
C978 C 0.98084 0.83837 0.7865 0.0
C979 C 0.98206 0.82254 0.80038 0.0
H980 H 0.98946 0.8396 0.76228 0.0
H981 H 0.0043 0.69052 0.89774 0.0
H982 H 0.1248 0.87003 0.0137 0.0
H983 H 0.16758 0.92869 0.00107 0.0
H984 H 0.2609 0.91966 0.01718 0.0
H985 H 0.21791 0.86002 0.02927 0.0
H986 H 0.21974 0.98469 0.02295 0.0
H987 H 0.31141 0.95368 0.99974 0.0
H988 H 0.33508 0.92237 0.983 0.0
H989 H 0.26917 0.92592 0.94606 0.0
H990 H 0.24453 0.95654 0.96276 0.0
H991 H 0.35726 0.14386 0.96507 0.0
H992 H 0.34401 0.0915 0.98185 0.0
H993 H 0.23609 0.07844 0.99187 0.0
H994 H 0.2513 0.13293 0.97659 0.0
H995 H 0.29993 0.02706 0.97708 0.0
H996 H 0.19089 0.03018 0.01696 0.0
H997 H 0.18402 0.0728 0.03459 0.0
H998 H 0.30202 0.1326 0.04212 0.0
H999 H 0.30952 0.09056 0.02431 0.0
C1000 C 0.15439 0.87985 0.01395 0.0
C1001 C 0.16817 0.86042 0.02217 0.0
C1002 C 0.17881 0.91322 0.00672 0.0
C1003 C 0.21747 0.92834 0.00797 0.0
C1004 C 0.23129 0.90806 0.01561 0.0
C1005 C 0.20672 0.87413 0.0226 0.0
C1006 C 0.2419 0.96816 0.00425 0.0
C1007 C 0.23752 0.99411 0.01296 0.0
C1008 C 0.26638 0.98076 0.99169 0.0
C1009 C 0.27523 0.95621 0.98262 0.0
C1010 C 0.30096 0.94655 0.98821 0.0
C1011 C 0.315 0.92947 0.97867 0.0
C1012 C 0.30377 0.92229 0.96345 0.0
C1013 C 0.27791 0.93154 0.95784 0.0
C1014 C 0.26364 0.94843 0.96737 0.0
C1015 C 0.33172 0.13099 0.97161 0.0
C1016 C 0.30591 0.14318 0.97007 0.0
C1017 C 0.32381 0.1007 0.98103 0.0
C1018 C 0.28917 0.08099 0.98848 0.0
C1019 C 0.26366 0.09374 0.98697 0.0
C1020 C 0.27209 0.12464 0.97799 0.0
C1021 C 0.27695 0.04389 0.99548 0.0
C1022 C 0.2831 0.01825 0.98734 0.0
C1023 C 0.2552 0.03181 0.00892 0.0
C1024 C 0.25086 0.05776 0.01916 0.0
C1025 C 0.21536 0.05259 0.02232 0.0
C1026 C 0.21136 0.07665 0.0323 0.0
C1027 C 0.24261 0.10554 0.03939 0.0
C1028 C 0.27789 0.11041 0.03651 0.0
C1029 C 0.28209 0.08676 0.02636 0.0
H1030 H 0.23946 0.12405 0.04717 0.0
H1031 H 0.31487 0.90931 0.95605 0.0
H1032 H 0.18808 0.35001 0.0763 0.0
H1033 H 0.21105 0.33746 0.0528 0.0
H1034 H 0.09867 0.25939 0.03908 0.0
H1035 H 0.07516 0.27174 0.06281 0.0
H1036 H 0.19766 0.2654 0.04611 0.0
H1037 H 0.10519 0.2632 0.99733 0.0
H1038 H 0.066 0.29031 0.99057 0.0
H1039 H 0.13428 0.3861 0.01818 0.0
H1040 H 0.17414 0.35982 0.02492 0.0
H1041 H 0.22697 0.21982 0.96361 0.0
H1042 H 0.18645 0.22911 0.98137 0.0
H1043 H 0.28293 0.30928 0.00634 0.0
H1044 H 0.32325 0.30016 0.98889 0.0
H1045 H 0.18072 0.29102 0.99241 0.0
H1046 H 0.26808 0.28783 0.04362 0.0
H1047 H 0.30385 0.2577 0.0513 0.0
H1048 H 0.24285 0.16939 0.01933 0.0
H1049 H 0.20634 0.1987 0.0116 0.0
C1050 C 0.16808 0.3305 0.06824 0.0
C1051 C 0.1298 0.31157 0.07149 0.0
C1052 C 0.1813 0.32339 0.0548 0.0
C1053 C 0.15657 0.29744 0.04426 0.0
C1054 C 0.11815 0.27967 0.04707 0.0
C1055 C 0.10482 0.28667 0.06063 0.0
C1056 C 0.17185 0.2869 0.03116 0.0
C1057 C 0.19414 0.27121 0.03437 0.0
C1058 C 0.16579 0.29295 0.01584 0.0
C1059 C 0.14229 0.30926 0.01179 0.0
C1060 C 0.11185 0.29007 0.00193 0.0
C1061 C 0.08954 0.3053 0.9981 0.0
C1062 C 0.09755 0.33983 0.00399 0.0
C1063 C 0.12798 0.35927 0.01368 0.0
C1064 C 0.15039 0.34417 0.01754 0.0
C1065 C 0.23952 0.24005 0.97268 0.0
C1066 C 0.27828 0.25889 0.97497 0.0
C1067 C 0.21634 0.24524 0.98282 0.0
C1068 C 0.23171 0.26929 0.99533 0.0
C1069 C 0.27048 0.29006 0.99692 0.0
C1070 C 0.2935 0.28483 0.98691 0.0
C1071 C 0.2079 0.27111 0.00749 0.0
C1072 C 0.18384 0.28479 0.00413 0.0
C1073 C 0.21199 0.26293 0.02277 0.0
C1074 C 0.2346 0.24562 0.02698 0.0
C1075 C 0.26227 0.26197 0.03824 0.0
C1076 C 0.28266 0.24503 0.0426 0.0
C1077 C 0.27559 0.21165 0.03583 0.0
C1078 C 0.24833 0.19528 0.02456 0.0
C1079 C 0.22783 0.21211 0.02015 0.0
H1080 H 0.29116 0.19844 0.03939 0.0
H1081 H 0.08024 0.35156 0.00101 0.0
H1082 H 0.82994 0.19746 0.24 0.0
H1083 H 0.85437 0.21401 0.21427 0.0
H1084 H 0.82485 0.1001 0.20555 0.0
H1085 H 0.80056 0.08327 0.2316 0.0
H1086 H 0.89516 0.14733 0.19738 0.0
H1087 H 0.77896 0.13755 0.18701 0.0
H1088 H 0.72483 0.146 0.19106 0.0
H1089 H 0.79507 0.26442 0.18724 0.0
H1090 H 0.84976 0.25682 0.18343 0.0
H1091 H 0.99203 0.23156 0.12913 0.0
H1092 H 0.93502 0.1892 0.14306 0.0
H1093 H 0.94527 0.28159 0.16949 0.0
H1094 H 0.00195 0.3238 0.15574 0.0
H1095 H 0.87098 0.22813 0.16321 0.0
H1096 H 0.98666 0.2361 0.18136 0.0
H1097 H 0.04179 0.22914 0.17756 0.0
H1098 H 0.9712 0.11346 0.16694 0.0
H1099 H 0.9156 0.11992 0.17036 0.0
C1100 C 0.82821 0.17575 0.23259 0.0
C1101 C 0.81345 0.13908 0.23785 0.0
C1102 C 0.84191 0.18521 0.2178 0.0
C1103 C 0.84091 0.15818 0.20789 0.0
C1104 C 0.8256 0.12132 0.21299 0.0
C1105 C 0.81176 0.11177 0.22785 0.0
C1106 C 0.85918 0.16977 0.19279 0.0
C1107 C 0.88907 0.16397 0.18965 0.0
C1108 C 0.85144 0.19175 0.18275 0.0
C1109 C 0.81855 0.19657 0.18495 0.0
C1110 C 0.78294 0.16543 0.18712 0.0
C1111 C 0.75213 0.17006 0.18937 0.0
C1112 C 0.75651 0.20571 0.1894 0.0
C1113 C 0.79171 0.23681 0.18719 0.0
C1114 C 0.82263 0.23235 0.18495 0.0
C1115 C 0.98146 0.24294 0.1376 0.0
C1116 C 0.00165 0.28087 0.14152 0.0
C1117 C 0.94896 0.21873 0.14554 0.0
C1118 C 0.93623 0.23228 0.15739 0.0
C1119 C 0.95462 0.2706 0.16038 0.0
C1120 C 0.98717 0.29465 0.15258 0.0
C1121 C 0.90753 0.20677 0.16825 0.0
C1122 C 0.87592 0.21015 0.17063 0.0
C1123 C 0.91364 0.18259 0.17762 0.0
C1124 C 0.94702 0.17858 0.17591 0.0
C1125 C 0.98291 0.20924 0.17812 0.0
C1126 C 0.01424 0.20541 0.17603 0.0
C1127 C 0.01002 0.17093 0.17198 0.0
C1128 C 0.97443 0.14017 0.17004 0.0
C1129 C 0.943 0.14391 0.17203 0.0
H1130 H 0.03432 0.16804 0.17037 0.0
H1131 H 0.73263 0.20925 0.19109 0.0
H1132 H 0.69201 0.03307 0.32782 0.0
H1133 H 0.67503 0.97659 0.34218 0.0
H1134 H 0.74867 0.95598 0.31442 0.0
H1135 H 0.76543 0.01251 0.29967 0.0
H1136 H 0.68302 0.88953 0.32341 0.0
H1137 H 0.78241 0.9983 0.34607 0.0
H1138 H 0.81551 0.06296 0.35538 0.0
H1139 H 0.72826 0.03705 0.38778 0.0
H1140 H 0.6944 0.97222 0.37852 0.0
H1141 H 0.71142 0.79856 0.39174 0.0
H1142 H 0.71948 0.83326 0.36803 0.0
H1143 H 0.63284 0.85544 0.38204 0.0
H1144 H 0.62432 0.82081 0.40551 0.0
H1145 H 0.71214 0.91907 0.3782 0.0
H1146 H 0.6124 0.80872 0.3541 0.0
H1147 H 0.58266 0.74409 0.34475 0.0
H1148 H 0.67584 0.77301 0.31526 0.0
H1149 H 0.70643 0.83775 0.32463 0.0
C1150 C 0.70417 0.01625 0.32457 0.0
C1151 C 0.73053 0.02755 0.31278 0.0
C1152 C 0.69436 0.98392 0.33276 0.0
C1153 C 0.71114 0.96256 0.32952 0.0
C1154 C 0.7355 0.9722 0.31709 0.0
C1155 C 0.7451 0.00452 0.30872 0.0
C1156 C 0.70623 0.93304 0.3403 0.0
C1157 C 0.68984 0.89594 0.33535 0.0
C1158 C 0.71544 0.94155 0.35585 0.0
C1159 C 0.73575 0.98048 0.36152 0.0
C1160 C 0.77015 0.00645 0.3551 0.0
C1161 C 0.78906 0.04314 0.36038 0.0
C1162 C 0.77395 0.05416 0.37214 0.0
C1163 C 0.73992 0.02848 0.37866 0.0
C1164 C 0.72088 0.99174 0.37342 0.0
C1165 C 0.6933 0.80983 0.38952 0.0
C1166 C 0.66768 0.80754 0.40058 0.0
C1167 C 0.69788 0.82951 0.37598 0.0
C1168 C 0.6768 0.84688 0.3734 0.0
C1169 C 0.64927 0.84209 0.38387 0.0
C1170 C 0.64459 0.82242 0.3973 0.0
C1171 C 0.68758 0.87543 0.36146 0.0
C1172 C 0.70556 0.91261 0.36623 0.0
C1173 C 0.6803 0.86685 0.34582 0.0
C1174 C 0.66194 0.82796 0.34023 0.0
C1175 C 0.62677 0.80121 0.34577 0.0
C1176 C 0.6097 0.76458 0.34042 0.0
C1177 C 0.62741 0.75441 0.32946 0.0
C1178 C 0.66219 0.7809 0.32378 0.0
C1179 C 0.67939 0.81757 0.3291 0.0
H1180 H 0.61414 0.72604 0.32533 0.0
H1181 H 0.78863 0.08256 0.37625 0.0
H1182 H 0.92564 0.71483 0.55374 0.0
H1183 H 0.90678 0.72075 0.52789 0.0
H1184 H 0.79172 0.64811 0.54004 0.0
H1185 H 0.81027 0.64156 0.56559 0.0
H1186 H 0.80398 0.63573 0.51119 0.0
H1187 H 0.8337 0.74378 0.54338 0.0
H1188 H 0.87601 0.79808 0.55902 0.0
H1189 H 0.95123 0.84437 0.52122 0.0
H1190 H 0.90947 0.79007 0.50541 0.0
H1191 H 0.68164 0.6927 0.48708 0.0
H1192 H 0.7241 0.67522 0.49855 0.0
H1193 H 0.81223 0.75171 0.4689 0.0
H1194 H 0.76944 0.76928 0.4572 0.0
H1195 H 0.83033 0.7636 0.49941 0.0
H1196 H 0.78528 0.66204 0.46548 0.0
H1197 H 0.73879 0.6083 0.45072 0.0
H1198 H 0.68875 0.54949 0.49214 0.0
H1199 H 0.73455 0.60306 0.50718 0.0
C1200 C 0.8964 0.6996 0.55078 0.0
C1201 C 0.86938 0.67815 0.56174 0.0
C1202 C 0.88568 0.70302 0.53603 0.0
C1203 C 0.84781 0.68522 0.5321 0.0
C1204 C 0.8211 0.66204 0.54279 0.0
C1205 C 0.83175 0.65855 0.55745 0.0
C1206 C 0.83505 0.69351 0.51763 0.0
C1207 C 0.8099 0.66369 0.5085 0.0
C1208 C 0.84378 0.73016 0.51383 0.0
C1209 C 0.8688 0.76272 0.52331 0.0
C1210 C 0.8594 0.76544 0.53846 0.0
C1211 C 0.88325 0.79621 0.54734 0.0
C1212 C 0.91636 0.82459 0.54114 0.0
C1213 C 0.92563 0.82231 0.52602 0.0
C1214 C 0.9019 0.79155 0.5171 0.0
C1215 C 0.70984 0.70527 0.48277 0.0
C1216 C 0.72231 0.7325 0.47132 0.0
C1217 C 0.73401 0.69502 0.48924 0.0
C1218 C 0.77123 0.71193 0.48448 0.0
C1219 C 0.7835 0.73812 0.47263 0.0
C1220 C 0.75906 0.74805 0.46595 0.0
C1221 C 0.79774 0.70558 0.49345 0.0
C1222 C 0.82549 0.73578 0.5016 0.0
C1223 C 0.79101 0.66924 0.49644 0.0
C1224 C 0.76342 0.63669 0.48747 0.0
C1225 C 0.76425 0.63774 0.47146 0.0
C1226 C 0.73801 0.60728 0.46303 0.0
C1227 C 0.71084 0.5755 0.47049 0.0
C1228 C 0.70986 0.5741 0.48638 0.0
C1229 C 0.73602 0.60449 0.49487 0.0
H1230 H 0.69054 0.55195 0.46394 0.0
H1231 H 0.93479 0.8484 0.54803 0.0
H1232 H 0.16612 0.80896 0.73091 0.0
H1233 H 0.14134 0.79062 0.70541 0.0
H1234 H 0.17984 0.90537 0.69392 0.0
H1235 H 0.20416 0.92403 0.7199 0.0
H1236 H 0.11055 0.86425 0.6858 0.0
H1237 H 0.21745 0.85632 0.67606 0.0
H1238 H 0.26754 0.84189 0.68048 0.0
H1239 H 0.1875 0.72506 0.68113 0.0
H1240 H 0.13682 0.73873 0.67695 0.0
H1241 H 0.00308 0.76866 0.62025 0.0
H1242 H 0.06206 0.80991 0.63315 0.0
H1243 H 0.04101 0.72221 0.66489 0.0
H1244 H 0.98221 0.68108 0.6522 0.0
H1245 H 0.11727 0.76611 0.65597 0.0
H1246 H 0.01164 0.78071 0.67282 0.0
H1247 H 0.96275 0.79655 0.66772 0.0
H1248 H 0.0453 0.90513 0.65234 0.0
H1249 H 0.09468 0.88964 0.65705 0.0
C1250 C 0.1699 0.8305 0.72294 0.0
C1251 C 0.18695 0.86795 0.72745 0.0
C1252 C 0.15601 0.81997 0.70825 0.0
C1253 C 0.15923 0.84664 0.6976 0.0
C1254 C 0.17728 0.88433 0.70191 0.0
C1255 C 0.19118 0.89495 0.71673 0.0
C1256 C 0.13986 0.83397 0.68273 0.0
C1257 C 0.11294 0.84371 0.67898 0.0
C1258 C 0.14289 0.8072 0.67375 0.0
C1259 C 0.17326 0.79861 0.6762 0.0
C1260 C 0.21047 0.82754 0.67723 0.0
C1261 C 0.23899 0.81949 0.67968 0.0
C1262 C 0.23071 0.78259 0.68109 0.0
C1263 C 0.19388 0.75364 0.68001 0.0
C1264 C 0.16524 0.76153 0.67756 0.0
C1265 C 0.01149 0.75791 0.62974 0.0
C1266 C 0.98785 0.72176 0.63532 0.0
C1267 C 0.04514 0.78152 0.6371 0.0
C1268 C 0.05569 0.76912 0.65001 0.0
C1269 C 0.03338 0.73225 0.65491 0.0
C1270 C -0.00034 0.70887 0.64771 0.0
C1271 C 0.08718 0.79516 0.6597 0.0
C1272 C 0.11615 0.7878 0.66245 0.0
C1273 C 0.08642 0.82448 0.66763 0.0
C1274 C 0.05676 0.83387 0.66509 0.0
C1275 C 0.01933 0.80786 0.66825 0.0
C1276 C 0.99154 0.81676 0.66544 0.0
C1277 C 0.00088 0.85176 0.65968 0.0
C1278 C 0.03809 0.87799 0.65676 0.0
C1279 C 0.06598 0.86916 0.65948 0.0
H1280 H 0.9793 0.85859 0.65752 0.0
H1281 H 0.25283 0.77642 0.68299 0.0
H1282 H 0.34731 0.1654 0.89886 0.0
H1283 H 0.33654 0.13694 0.8738 0.0
H1284 H 0.23918 0.14799 0.86835 0.0
H1285 H 0.2497 0.17649 0.89376 0.0
H1286 H 0.22508 0.0783 0.86161 0.0
H1287 H 0.31539 0.20054 0.84645 0.0
H1288 H 0.37387 0.26059 0.84834 0.0
H1289 H 0.43688 0.20493 0.8428 0.0
H1290 H 0.37882 0.14447 0.84111 0.0
H1291 H 0.24003 0.00253 0.7856 0.0
H1292 H 0.25057 0.0577 0.8001 0.0
H1293 H 0.28819 0.0207 0.83847 0.0
H1294 H 0.27861 0.96637 0.82422 0.0
H1295 H 0.32421 0.11394 0.82272 0.0
H1296 H 0.21481 0.0082 0.86281 0.0
H1297 H 0.15868 0.94593 0.86147 0.0
H1298 H 0.13461 0.97046 0.81683 0.0
H1299 H 0.19019 0.03307 0.81803 0.0
C1300 C 0.32377 0.16218 0.89232 0.0
C1301 C 0.29927 0.17311 0.89832 0.0
C1302 C 0.31783 0.14616 0.8779 0.0
C1303 C 0.28737 0.14083 0.86909 0.0
C1304 C 0.26303 0.15213 0.87493 0.0
C1305 C 0.26908 0.16841 0.88941 0.0
C1306 C 0.2798 0.12059 0.8544 0.0
C1307 C 0.24636 0.08669 0.8529 0.0
C1308 C 0.30753 0.13149 0.84298 0.0
C1309 C 0.34265 0.1679 0.84367 0.0
C1310 C 0.3417 0.20107 0.84569 0.0
C1311 C 0.3748 0.23519 0.84673 0.0
C1312 C 0.40907 0.23657 0.8457 0.0
C1313 C 0.41031 0.20383 0.84358 0.0
C1314 C 0.3773 0.16962 0.84254 0.0
C1315 C 0.25147 0.00664 0.79698 0.0
C1316 C 0.25804 0.97971 0.80379 0.0
C1317 C 0.25745 0.03815 0.80522 0.0
C1318 C 0.26981 0.04287 0.82034 0.0
C1319 C 0.27853 0.01735 0.8268 0.0
C1320 C 0.27289 0.98621 0.81861 0.0
C1321 C 0.27007 0.07173 0.83027 0.0
C1322 C 0.30232 0.10671 0.83105 0.0
C1323 C 0.2412 0.06211 0.84096 0.0
C1324 C 0.20674 0.02521 0.84048 0.0
C1325 C 0.19733 0.00041 0.85277 0.0
C1326 C 0.16565 0.96505 0.85203 0.0
C1327 C 0.14312 0.95424 0.83906 0.0
C1328 C 0.15211 0.97884 0.82685 0.0
C1329 C 0.1837 0.01425 0.82755 0.0
H1330 H 0.11868 0.92681 0.83848 0.0
H1331 H 0.43466 0.26301 0.84655 0.0
H1332 H 0.71104 0.91765 0.78045 0.0
H1333 H 0.71557 0.89629 0.80598 0.0
H1334 H 0.64557 0.78234 0.79169 0.0
H1335 H 0.64022 0.80336 0.76648 0.0
H1336 H 0.63074 0.79008 0.82044 0.0
H1337 H 0.74222 0.82689 0.78964 0.0
H1338 H 0.79729 0.87184 0.775 0.0
H1339 H 0.83863 0.94329 0.81413 0.0
H1340 H 0.78354 0.89886 0.82894 0.0
H1341 H 0.69254 0.67073 0.84414 0.0
H1342 H 0.67396 0.71234 0.83263 0.0
H1343 H 0.74419 0.79919 0.86409 0.0
H1344 H 0.76287 0.75729 0.87583 0.0
H1345 H 0.75891 0.81997 0.83378 0.0
H1346 H 0.65366 0.76756 0.86606 0.0
H1347 H 0.59969 0.71755 0.87955 0.0
H1348 H 0.54659 0.6708 0.83682 0.0
H1349 H 0.60047 0.72014 0.82305 0.0
C1350 C 0.69611 0.8881 0.78287 0.0
C1351 C 0.67572 0.86215 0.77141 0.0
C1352 C 0.69874 0.87594 0.79744 0.0
C1353 C 0.68132 0.83769 0.80068 0.0
C1354 C 0.6592 0.81198 0.78948 0.0
C1355 C 0.65641 0.82406 0.77501 0.0
C1356 C 0.68894 0.82367 0.81497 0.0
C1357 C 0.65875 0.79676 0.82347 0.0
C1358 C 0.72558 0.83323 0.8192 0.0
C1359 C 0.7586 0.85988 0.81031 0.0
C1360 C 0.76295 0.85233 0.79507 0.0
C1361 C 0.79416 0.87767 0.78675 0.0
C1362 C 0.82137 0.91047 0.79361 0.0
C1363 C 0.81748 0.91793 0.80882 0.0
C1364 C 0.78628 0.89269 0.81718 0.0
C1365 C 0.7035 0.69844 0.84882 0.0
C1366 C 0.72932 0.71086 0.86082 0.0
C1367 C 0.69261 0.7221 0.84232 0.0
C1368 C 0.70747 0.75874 0.8476 0.0
C1369 C 0.7322 0.77089 0.85996 0.0
C1370 C 0.74276 0.74694 0.86665 0.0
C1371 C 0.7006 0.78507 0.83876 0.0
C1372 C 0.73096 0.8143 0.83124 0.0
C1373 C 0.66409 0.77717 0.8353 0.0
C1374 C 0.63123 0.74763 0.84351 0.0
C1375 C 0.63057 0.74653 0.85953 0.0
C1376 C 0.59997 0.71828 0.86723 0.0
C1377 C 0.56974 0.69101 0.85905 0.0
C1378 C 0.57001 0.69198 0.84314 0.0
C1379 C 0.60055 0.72014 0.83538 0.0
H1380 H 0.5461 0.66914 0.86503 0.0
H1381 H 0.84552 0.93006 0.78716 0.0
H1382 H 0.78111 0.69378 0.9417 0.0
H1383 H 0.80957 0.70153 0.96688 0.0
H1384 H 0.85523 0.63278 0.95289 0.0
H1385 H 0.82628 0.62418 0.92802 0.0
H1386 H 0.83725 0.62178 0.98226 0.0
H1387 H 0.90406 0.72877 0.94849 0.0
H1388 H 0.90985 0.78052 0.93266 0.0
H1389 H 0.88292 0.82617 0.97131 0.0
H1390 H 0.87656 0.77438 0.98732 0.0
H1391 H 0.02057 0.69207 0.00541 0.0
H1392 H 0.96029 0.67091 0.99356 0.0
H1393 H 0.94208 0.74445 0.02247 0.0
H1394 H 0.00286 0.766 0.03449 0.0
H1395 H 0.93307 0.75327 0.99207 0.0
H1396 H 0.88657 0.65287 0.02694 0.0
H1397 H 0.88641 0.60214 0.0416 0.0
H1398 H 0.8795 0.54417 0.00011 0.0
H1399 H 0.88019 0.59479 0.98517 0.0
C1400 C 0.79651 0.67965 0.94414 0.0
C1401 C 0.80198 0.65887 0.93281 0.0
C1402 C 0.8128 0.68415 0.95851 0.0
C1403 C 0.83509 0.66828 0.96167 0.0
C1404 C 0.83821 0.64533 0.95072 0.0
C1405 C 0.8218 0.64063 0.93645 0.0
C1406 C 0.85891 0.6788 0.97544 0.0
C1407 C 0.85806 0.65052 0.9845 0.0
C1408 C 0.88545 0.7164 0.97862 0.0
C1409 C 0.88934 0.74752 0.96903 0.0
C1410 C 0.89913 0.74973 0.95357 0.0
C1411 C 0.90254 0.77906 0.94458 0.0
C1412 C 0.89662 0.80655 0.95096 0.0
C1413 C 0.88739 0.80481 0.96637 0.0
C1414 C 0.88387 0.77548 0.97541 0.0
C1415 C 0.0036 0.70344 0.00943 0.0
C1416 C 0.01662 0.7309 0.02083 0.0
C1417 C 0.96895 0.69104 0.00273 0.0
C1418 C 0.94654 0.70582 0.00725 0.0
C1419 C 0.95889 0.7325 0.01892 0.0
C1420 C 0.99355 0.74472 0.02577 0.0
C1421 C 0.91243 0.69614 0.99848 0.0
C1422 C 0.91139 0.7246 0.99029 0.0
C1423 C 0.88458 0.65869 0.99599 0.0
C1424 C 0.8835 0.62775 0.00492 0.0
C1425 C 0.88519 0.6294 0.02093 0.0
C1426 C 0.885 0.60064 0.02929 0.0
C1427 C 0.88297 0.56996 0.02179 0.0
C1428 C 0.88103 0.56793 0.00591 0.0
C1429 C 0.88123 0.59663 0.99749 0.0
H1430 H 0.8829 0.54776 0.02828 0.0
H1431 H 0.89928 0.82925 0.94398 0.0
H1432 H 0.19585 0.83885 0.0896 0.0
H1433 H 0.21452 0.86631 0.11482 0.0
H1434 H 0.10098 0.83573 0.12499 0.0
H1435 H 0.08204 0.80845 0.09949 0.0
H1436 H 0.1474 0.90655 0.13231 0.0
H1437 H 0.1411 0.79224 0.14335 0.0
H1438 H 0.15059 0.73868 0.13955 0.0
H1439 H 0.26895 0.81105 0.14187 0.0
H1440 H 0.26024 0.86517 0.14544 0.0
H1441 H 0.22883 0.00046 0.20199 0.0
H1442 H 0.18816 0.94519 0.18675 0.0
H1443 H 0.28285 0.96136 0.16035 0.0
H1444 H 0.32338 0.01644 0.17538 0.0
H1445 H 0.23119 0.88585 0.16608 0.0
H1446 H 0.23449 0.0002 0.14915 0.0
H1447 H 0.22419 0.0533 0.15302 0.0
H1448 H 0.10869 0.97816 0.16227 0.0
H1449 H 0.11839 0.92454 0.15876 0.0
C1450 C 0.17471 0.83756 0.09723 0.0
C1451 C 0.13747 0.82154 0.09254 0.0
C1452 C 0.18539 0.85305 0.11172 0.0
C1453 C 0.15906 0.85262 0.1219 0.0
C1454 C 0.1217 0.83616 0.11735 0.0
C1455 C 0.11094 0.82057 0.1028 0.0
C1456 C 0.17158 0.87202 0.13676 0.0
C1457 C 0.16484 0.90131 0.13993 0.0
C1458 C 0.19447 0.86531 0.14668 0.0
C1459 C 0.19998 0.83283 0.14461 0.0
C1460 C 0.16917 0.7968 0.14295 0.0
C1461 C 0.17441 0.76632 0.14085 0.0
C1462 C 0.21035 0.77146 0.14046 0.0
C1463 C 0.24112 0.8071 0.14218 0.0
C1464 C 0.23604 0.83769 0.14428 0.0
C1465 C 0.24106 0.99155 0.19322 0.0
C1466 C 0.27919 0.01287 0.18976 0.0
C1467 C 0.2178 0.96012 0.1845 0.0
C1468 C 0.23252 0.94949 0.17235 0.0
C1469 C 0.27098 0.96911 0.16968 0.0
C1470 C 0.29407 0.00067 0.17823 0.0
C1471 C 0.20805 0.92097 0.16121 0.0
C1472 C 0.21269 0.89014 0.15872 0.0
C1473 C 0.18305 0.92609 0.15196 0.0
C1474 C 0.17726 0.95837 0.1539 0.0
C1475 C 0.20696 0.995 0.15214 0.0
C1476 C 0.20124 0.02519 0.15424 0.0
C1477 C 0.16588 0.01913 0.15792 0.0
C1478 C 0.1361 0.98282 0.15946 0.0
C1479 C 0.14169 0.95252 0.15743 0.0
H1480 H 0.16155 0.04255 0.15956 0.0
H1481 H 0.21435 0.74783 0.13882 0.0
H1482 H 0.34906 0.18612 0.26145 0.0
H1483 H 0.34016 0.20409 0.28682 0.0
H1484 H 0.25435 0.09104 0.29586 0.0
H1485 H 0.26307 0.07271 0.27025 0.0
H1486 H 0.23254 0.14129 0.30325 0.0
H1487 H 0.33497 0.12529 0.31471 0.0
H1488 H 0.39642 0.13071 0.3111 0.0
H1489 H 0.44918 0.24963 0.31478 0.0
H1490 H 0.38802 0.24501 0.31817 0.0
H1491 H 0.22232 0.22343 0.37314 0.0
H1492 H 0.23323 0.18029 0.35777 0.0
H1493 H 0.32074 0.27326 0.33347 0.0
H1494 H 0.31004 0.31621 0.34868 0.0
H1495 H 0.33709 0.21709 0.33843 0.0
H1496 H 0.23298 0.23168 0.32101 0.0
H1497 H 0.17141 0.22637 0.32418 0.0
H1498 H 0.1217 0.10881 0.33154 0.0
H1499 H 0.18311 0.11345 0.32875 0.0
C1500 C 0.32852 0.16492 0.26886 0.0
C1501 C 0.30672 0.128 0.26384 0.0
C1502 C 0.32363 0.1752 0.28342 0.0
C1503 C 0.2969 0.14882 0.29332 0.0
C1504 C 0.27529 0.11177 0.28843 0.0
C1505 C 0.28035 0.10135 0.27383 0.0
C1506 C 0.29028 0.16111 0.30829 0.0
C1507 C 0.25512 0.15694 0.31119 0.0
C1508 C 0.31981 0.18175 0.31858 0.0
C1509 C 0.35681 0.18477 0.31665 0.0
C1510 C 0.35964 0.15262 0.31466 0.0
C1511 C 0.39444 0.15555 0.31266 0.0
C1512 C 0.42668 0.19049 0.3127 0.0
C1513 C 0.42418 0.22257 0.31476 0.0
C1514 C 0.38945 0.21981 0.31675 0.0
C1515 C 0.24463 0.23464 0.36484 0.0
C1516 C 0.26515 0.27314 0.36201 0.0
C1517 C 0.25066 0.20999 0.35602 0.0
C1518 C 0.27747 0.2236 0.34437 0.0
C1519 C 0.2999 0.26216 0.34239 0.0
C1520 C 0.29366 0.28667 0.35105 0.0
C1521 C 0.27985 0.19842 0.33303 0.0
C1522 C 0.31423 0.20031 0.33078 0.0
C1523 C 0.2496 0.17568 0.32333 0.0
C1524 C 0.21272 0.17299 0.3249 0.0
C1525 C 0.20899 0.20475 0.32344 0.0
C1526 C 0.17413 0.20187 0.32514 0.0
C1527 C 0.14272 0.16734 0.32808 0.0
C1528 C 0.14608 0.13557 0.3293 0.0
C1529 C 0.1809 0.1383 0.32769 0.0
H1530 H 0.11578 0.16521 0.32939 0.0
H1531 H 0.45359 0.1927 0.31115 0.0
H1532 H 0.153 0.34458 0.42907 0.0
H1533 H 0.12421 0.33742 0.45388 0.0
H1534 H 0.16152 0.26152 0.46749 0.0
H1535 H 0.18998 0.268 0.44231 0.0
H1536 H 0.091 0.23451 0.4751 0.0
H1537 H 0.20071 0.34918 0.48327 0.0
H1538 H 0.25105 0.41293 0.47768 0.0
H1539 H 0.17209 0.45112 0.47695 0.0
H1540 H 0.12116 0.38749 0.48229 0.0
H1541 H 0.99658 0.22904 0.54392 0.0
H1542 H 0.05186 0.24403 0.52862 0.0
H1543 H 0.02787 0.31262 0.49923 0.0
H1544 H 0.9729 0.29787 0.51435 0.0
H1545 H 0.10418 0.34256 0.5046 0.0
H1546 H 0.99439 0.22301 0.49141 0.0
H1547 H 0.94539 0.1591 0.49775 0.0
H1548 H 0.02849 0.13031 0.509 0.0
H1549 H 0.07806 0.19434 0.50307 0.0
C1550 C 0.15543 0.32657 0.43735 0.0
C1551 C 0.17382 0.30687 0.43372 0.0
C1552 C 0.13915 0.32272 0.45161 0.0
C1553 C 0.14125 0.29946 0.46269 0.0
C1554 C 0.15978 0.27983 0.45916 0.0
C1555 C 0.17605 0.28358 0.44479 0.0
C1556 C 0.12186 0.29422 0.4775 0.0
C1557 C 0.09463 0.2581 0.48179 0.0
C1558 C 0.1265 0.32495 0.48626 0.0
C1559 C 0.15705 0.36344 0.48314 0.0
C1560 C 0.19402 0.37111 0.48183 0.0
C1561 C 0.22268 0.40725 0.47871 0.0
C1562 C 0.21477 0.43605 0.47695 0.0
C1563 C 0.17818 0.42878 0.47832 0.0
C1564 C 0.14941 0.39268 0.48143 0.0
C1565 C 0.00366 0.24808 0.53443 0.0
C1566 C 0.98019 0.26199 0.53024 0.0
C1567 C 0.03515 0.25649 0.52569 0.0
C1568 C 0.04367 0.2791 0.51271 0.0
C1569 C 0.02178 0.29511 0.50919 0.0
C1570 C 0.99024 0.28648 0.51781 0.0
C1571 C 0.07261 0.28315 0.50174 0.0
C1572 C 0.1015 0.31901 0.49816 0.0
C1573 C 0.06979 0.25218 0.49374 0.0
C1574 C 0.03992 0.21357 0.49699 0.0
C1575 C 0.00222 0.20313 0.49534 0.0
C1576 C 0.97434 0.1669 0.49885 0.0
C1577 C 0.9838 0.14069 0.50379 0.0
C1578 C 0.0212 0.15066 0.5052 0.0
C1579 C 0.0492 0.18692 0.50179 0.0
H1580 H 0.96216 0.11265 0.5065 0.0
H1581 H 0.23699 0.46401 0.47453 0.0
H1582 H 0.7726 0.99739 0.71247 0.0
H1583 H 0.81516 0.05596 0.69948 0.0
H1584 H 0.72455 0.04437 0.67151 0.0
H1585 H 0.68226 0.986 0.68424 0.0
H1586 H 0.82849 0.05795 0.66823 0.0
H1587 H 0.7381 0.12884 0.66241 0.0
H1588 H 0.69544 0.13983 0.67825 0.0
H1589 H 0.74824 0.13079 0.71875 0.0
H1590 H 0.79162 0.12031 0.70317 0.0
H1591 H 0.81065 0.16639 0.60336 0.0
H1592 H 0.79277 0.14017 0.62875 0.0
H1593 H 0.90732 0.17521 0.63906 0.0
H1594 H 0.92548 0.2011 0.61329 0.0
H1595 H 0.80772 0.16352 0.6574 0.0
H1596 H 0.90697 0.10597 0.661 0.0
H1597 H 0.94493 0.08999 0.64433 0.0
H1598 H 0.86788 0.06617 0.60764 0.0
H1599 H 0.82931 0.08161 0.62414 0.0
C1600 C 0.76164 0.00793 0.70383 0.0
C1601 C 0.72418 0.98713 0.69931 0.0
C1602 C 0.78597 0.04126 0.6964 0.0
C1603 C 0.77294 0.05459 0.68462 0.0
C1604 C 0.7351 0.03488 0.68072 0.0
C1605 C 0.71099 0.0014 0.68794 0.0
C1606 C 0.79903 0.08617 0.67494 0.0
C1607 C 0.82488 0.08176 0.6662 0.0
C1608 C 0.79378 0.1168 0.67214 0.0
C1609 C 0.76809 0.12366 0.68159 0.0
C1610 C 0.74083 0.12947 0.67469 0.0
C1611 C 0.71645 0.13554 0.68363 0.0
C1612 C 0.71909 0.13596 0.69949 0.0
C1613 C 0.74617 0.13037 0.70645 0.0
C1614 C 0.77062 0.12431 0.69757 0.0
C1615 C 0.83221 0.16896 0.61104 0.0
C1616 C 0.86943 0.18536 0.60624 0.0
C1617 C 0.82194 0.15417 0.62564 0.0
C1618 C 0.84861 0.15536 0.63578 0.0
C1619 C 0.88621 0.17361 0.63135 0.0
C1620 C 0.89655 0.18844 0.61665 0.0
C1621 C 0.83582 0.13425 0.65026 0.0
C1622 C 0.81242 0.14057 0.65985 0.0
C1623 C 0.84284 0.10499 0.65373 0.0
C1624 C 0.86565 0.09548 0.64372 0.0
C1625 C 0.89818 0.09731 0.64937 0.0
C1626 C 0.91977 0.08833 0.63996 0.0
C1627 C 0.90892 0.07724 0.62491 0.0
C1628 C 0.87635 0.07493 0.61927 0.0
C1629 C 0.85464 0.08382 0.62864 0.0
H1630 H 0.92568 0.07033 0.61765 0.0
H1631 H 0.70018 0.14064 0.70639 0.0
loop_
_geom_bond_atom_site_label_1
_geom_bond_atom_site_label_2
_geom_bond_distance
_geom_bond_site_symmetry_2
_ccdc_geom_bond_type
Mn0 O5 2.095 . S
Mn0 O15 2.162 . S
Mn0 O16 2.297 . S
Mn0 O24 2.385 . S
Mn0 O25 2.209 . S
Mn0 O26 2.094 . S
Mn1 O6 2.121 . S
Mn1 N8 2.257 . S
Mn1 N17 2.282 . S
Mn1 O25 2.215 . S
Mn1 O27 2.117 . S
C2 O24 1.234 . S
C2 O25 1.283 . S
C3 O15 1.281 . S
C3 O16 1.236 . S
C4 O26 1.240 . S
C4 O27 1.264 . S
O5 Mn0 2.095 . S
O5 C14 1.250 . S
O6 Mn1 2.121 . S
O6 C14 1.258 . S
C7 N8 1.326 . S
C7 C11 1.460 . S
C7 H13 0.929 . S
N8 Mn1 2.257 . S
N8 C7 1.326 . S
N8 C12 1.362 . S
C9 C10 1.258 . S
C9 C12 1.431 . S
C9 C29 1.449 . S
C10 C9 1.258 . S
C10 C11 1.477 . S
C10 H30 0.931 . S
C11 C7 1.460 . S
C11 C10 1.477 . S
C11 H31 0.930 . S
C12 N8 1.362 . S
C12 C9 1.431 . S
C12 C22 1.476 . S
H13 C7 0.929 . S
C14 O5 1.250 . S
C14 O6 1.258 . S
O15 Mn0 2.162 . S
O15 C3 1.281 . S
O16 Mn0 2.297 . S
O16 C3 1.236 . S
N17 Mn1 2.282 . S
N17 C18 1.328 . S
N17 C22 1.318 . S
C18 N17 1.328 . S
C18 C19 1.457 . S
C18 H23 0.929 . S
C19 C18 1.457 . S
C19 C20 1.291 . S
C19 H32 0.931 . S
C20 C19 1.291 . S
C20 C21 1.373 . S
C20 H33 0.929 . S
C21 C20 1.373 . S
C21 C22 1.396 . S
C21 C28 1.403 . S
C22 C12 1.476 . S
C22 N17 1.318 . S
C22 C21 1.396 . S
H23 C18 0.929 . S
O24 Mn0 2.385 . S
O24 C2 1.234 . S
O25 Mn0 2.209 . S
O25 Mn1 2.215 . S
O25 C2 1.283 . S
O26 Mn0 2.094 . S
O26 C4 1.240 . S
O27 Mn1 2.117 . S
O27 C4 1.264 . S
C28 C21 1.403 . S
C28 C29 1.399 . S
C28 H34 0.929 . S
C29 C9 1.449 . S
C29 C28 1.399 . S
C29 H35 0.930 . S
H30 C10 0.931 . S
H31 C11 0.930 . S
H32 C19 0.931 . S
H33 C20 0.929 . S
H34 C28 0.929 . S
H35 C29 0.930 . S
Mn36 O41 2.095 . S
Mn36 O51 2.162 . S
Mn36 O52 2.297 . S
Mn36 O60 2.385 . S
Mn36 O61 2.209 . S
Mn36 O62 2.094 . S
Mn37 O42 2.121 . S
Mn37 N44 2.257 . S
Mn37 N53 2.282 . S
Mn37 O61 2.215 . S
Mn37 O63 2.117 . S
C38 O60 1.234 . S
C38 O61 1.283 . S
C39 O51 1.281 . S
C39 O52 1.236 . S
C40 O62 1.240 . S
C40 O63 1.264 . S
O41 Mn36 2.095 . S
O41 C50 1.250 . S
O42 Mn37 2.121 . S
O42 C50 1.258 . S
C43 N44 1.326 . S
C43 C47 1.460 . S
C43 H49 0.929 . S
N44 Mn37 2.257 . S
N44 C43 1.326 . S
N44 C48 1.362 . S
C45 C46 1.258 . S
C45 C48 1.431 . S
C45 C65 1.449 . S
C46 C45 1.258 . S
C46 C47 1.477 . S
C46 H66 0.931 . S
C47 C43 1.460 . S
C47 C46 1.477 . S
C47 H67 0.930 . S
C48 N44 1.362 . S
C48 C45 1.431 . S
C48 C58 1.476 . S
H49 C43 0.929 . S
C50 O41 1.250 . S
C50 O42 1.258 . S
O51 Mn36 2.162 . S
O51 C39 1.281 . S
O52 Mn36 2.297 . S
O52 C39 1.236 . S
N53 Mn37 2.282 . S
N53 C54 1.328 . S
N53 C58 1.318 . S
C54 N53 1.328 . S
C54 C55 1.457 . S
C54 H59 0.929 . S
C55 C54 1.457 . S
C55 C56 1.291 . S
C55 H68 0.931 . S
C56 C55 1.291 . S
C56 C57 1.373 . S
C56 H69 0.929 . S
C57 C56 1.373 . S
C57 C58 1.396 . S
C57 C64 1.403 . S
C58 C48 1.476 . S
C58 N53 1.318 . S
C58 C57 1.396 . S
H59 C54 0.929 . S
O60 Mn36 2.385 . S
O60 C38 1.234 . S
O61 Mn36 2.209 . S
O61 Mn37 2.215 . S
O61 C38 1.283 . S
O62 Mn36 2.094 . S
O62 C40 1.240 . S
O63 Mn37 2.117 . S
O63 C40 1.264 . S
C64 C57 1.403 . S
C64 C65 1.399 . S
C64 H70 0.929 . S
C65 C45 1.449 . S
C65 C64 1.399 . S
C65 H71 0.930 . S
H66 C46 0.931 . S
H67 C47 0.930 . S
H68 C55 0.931 . S
H69 C56 0.929 . S
H70 C64 0.929 . S
H71 C65 0.930 . S
Mn72 O77 2.095 . S
Mn72 O87 2.162 . S
Mn72 O88 2.297 . S
Mn72 O96 2.385 . S
Mn72 O97 2.209 . S
Mn72 O98 2.094 . S
Mn73 O78 2.121 . S
Mn73 N80 2.257 . S
Mn73 N89 2.282 . S
Mn73 O97 2.215 . S
Mn73 O99 2.117 . S
C74 O96 1.234 . S
C74 O97 1.283 . S
C75 O87 1.281 . S
C75 O88 1.236 . S
C76 O98 1.240 . S
C76 O99 1.264 . S
O77 Mn72 2.095 . S
O77 C86 1.250 . S
O78 Mn73 2.121 . S
O78 C86 1.258 . S
C79 N80 1.326 . S
C79 C83 1.460 . S
C79 H85 0.929 . S
N80 Mn73 2.257 . S
N80 C79 1.326 . S
N80 C84 1.362 . S
C81 C82 1.258 . S
C81 C84 1.431 . S
C81 C101 1.449 . S
C82 C81 1.258 . S
C82 C83 1.477 . S
C82 H102 0.931 . S
C83 C79 1.460 . S
C83 C82 1.477 . S
C83 H103 0.930 . S
C84 N80 1.362 . S
C84 C81 1.431 . S
C84 C94 1.476 . S
H85 C79 0.929 . S
C86 O77 1.250 . S
C86 O78 1.258 . S
O87 Mn72 2.162 . S
O87 C75 1.281 . S
O88 Mn72 2.297 . S
O88 C75 1.236 . S
N89 Mn73 2.282 . S
N89 C90 1.328 . S
N89 C94 1.318 . S
C90 N89 1.328 . S
C90 C91 1.457 . S
C90 H95 0.929 . S
C91 C90 1.457 . S
C91 C92 1.291 . S
C91 H104 0.931 . S
C92 C91 1.291 . S
C92 C93 1.373 . S
C92 H105 0.929 . S
C93 C92 1.373 . S
C93 C94 1.396 . S
C93 C100 1.403 . S
C94 C84 1.476 . S
C94 N89 1.318 . S
C94 C93 1.396 . S
H95 C90 0.929 . S
O96 Mn72 2.385 . S
O96 C74 1.234 . S
O97 Mn72 2.209 . S
O97 Mn73 2.215 . S
O97 C74 1.283 . S
O98 Mn72 2.094 . S
O98 C76 1.240 . S
O99 Mn73 2.117 . S
O99 C76 1.264 . S
C100 C93 1.403 . S
C100 C101 1.399 . S
C100 H106 0.929 . S
C101 C81 1.449 . S
C101 C100 1.399 . S
C101 H107 0.930 . S
H102 C82 0.931 . S
H103 C83 0.930 . S
H104 C91 0.931 . S
H105 C92 0.929 . S
H106 C100 0.929 . S
H107 C101 0.930 . S
Mn108 O113 2.095 . S
Mn108 O123 2.162 . S
Mn108 O124 2.297 . S
Mn108 O132 2.385 . S
Mn108 O133 2.209 . S
Mn108 O134 2.094 . S
Mn109 O114 2.121 . S
Mn109 N116 2.257 . S
Mn109 N125 2.282 . S
Mn109 O133 2.215 . S
Mn109 O135 2.117 . S
C110 O132 1.234 . S
C110 O133 1.283 . S
C111 O123 1.281 . S
C111 O124 1.236 . S
C112 O134 1.240 . S
C112 O135 1.264 . S
O113 Mn108 2.095 . S
O113 C122 1.250 . S
O114 Mn109 2.121 . S
O114 C122 1.258 . S
C115 N116 1.326 . S
C115 C119 1.460 . S
C115 H121 0.929 . S
N116 Mn109 2.257 . S
N116 C115 1.326 . S
N116 C120 1.362 . S
C117 C118 1.258 . S
C117 C120 1.431 . S
C117 C137 1.449 . S
C118 C117 1.258 . S
C118 C119 1.477 . S
C118 H138 0.931 . S
C119 C115 1.460 . S
C119 C118 1.477 . S
C119 H139 0.930 . S
C120 N116 1.362 . S
C120 C117 1.431 . S
C120 C130 1.476 . S
H121 C115 0.929 . S
C122 O113 1.250 . S
C122 O114 1.258 . S
O123 Mn108 2.162 . S
O123 C111 1.281 . S
O124 Mn108 2.297 . S
O124 C111 1.236 . S
N125 Mn109 2.282 . S
N125 C126 1.328 . S
N125 C130 1.318 . S
C126 N125 1.328 . S
C126 C127 1.457 . S
C126 H131 0.929 . S
C127 C126 1.457 . S
C127 C128 1.291 . S
C127 H140 0.931 . S
C128 C127 1.291 . S
C128 C129 1.373 . S
C128 H141 0.929 . S
C129 C128 1.373 . S
C129 C130 1.396 . S
C129 C136 1.403 . S
C130 C120 1.476 . S
C130 N125 1.318 . S
C130 C129 1.396 . S
H131 C126 0.929 . S
O132 Mn108 2.385 . S
O132 C110 1.234 . S
O133 Mn108 2.209 . S
O133 Mn109 2.215 . S
O133 C110 1.283 . S
O134 Mn108 2.094 . S
O134 C112 1.240 . S
O135 Mn109 2.117 . S
O135 C112 1.264 . S
C136 C129 1.403 . S
C136 C137 1.399 . S
C136 H142 0.929 . S
C137 C117 1.449 . S
C137 C136 1.399 . S
C137 H143 0.930 . S
H138 C118 0.931 . S
H139 C119 0.930 . S
H140 C127 0.931 . S
H141 C128 0.929 . S
H142 C136 0.929 . S
H143 C137 0.930 . S
Mn144 O149 2.095 . S
Mn144 O159 2.162 . S
Mn144 O160 2.297 . S
Mn144 O168 2.385 . S
Mn144 O169 2.209 . S
Mn144 O170 2.094 . S
Mn145 O150 2.121 . S
Mn145 N152 2.257 . S
Mn145 N161 2.282 . S
Mn145 O169 2.215 . S
Mn145 O171 2.117 . S
C146 O168 1.234 . S
C146 O169 1.283 . S
C147 O159 1.281 . S
C147 O160 1.236 . S
C148 O170 1.240 . S
C148 O171 1.264 . S
O149 Mn144 2.095 . S
O149 C158 1.250 . S
O150 Mn145 2.121 . S
O150 C158 1.258 . S
C151 N152 1.326 . S
C151 C155 1.460 . S
C151 H157 0.929 . S
N152 Mn145 2.257 . S
N152 C151 1.326 . S
N152 C156 1.362 . S
C153 C154 1.258 . S
C153 C156 1.431 . S
C153 C173 1.449 . S
C154 C153 1.258 . S
C154 C155 1.477 . S
C154 H174 0.931 . S
C155 C151 1.460 . S
C155 C154 1.477 . S
C155 H175 0.930 . S
C156 N152 1.362 . S
C156 C153 1.431 . S
C156 C166 1.476 . S
H157 C151 0.929 . S
C158 O149 1.250 . S
C158 O150 1.258 . S
O159 Mn144 2.162 . S
O159 C147 1.281 . S
O160 Mn144 2.297 . S
O160 C147 1.236 . S
N161 Mn145 2.282 . S
N161 C162 1.328 . S
N161 C166 1.318 . S
C162 N161 1.328 . S
C162 C163 1.457 . S
C162 H167 0.929 . S
C163 C162 1.457 . S
C163 C164 1.291 . S
C163 H176 0.931 . S
C164 C163 1.291 . S
C164 C165 1.373 . S
C164 H177 0.929 . S
C165 C164 1.373 . S
C165 C166 1.396 . S
C165 C172 1.403 . S
C166 C156 1.476 . S
C166 N161 1.318 . S
C166 C165 1.396 . S
H167 C162 0.929 . S
O168 Mn144 2.385 . S
O168 C146 1.234 . S
O169 Mn144 2.209 . S
O169 Mn145 2.215 . S
O169 C146 1.283 . S
O170 Mn144 2.094 . S
O170 C148 1.240 . S
O171 Mn145 2.117 . S
O171 C148 1.264 . S
C172 C165 1.403 . S
C172 C173 1.399 . S
C172 H178 0.929 . S
C173 C153 1.449 . S
C173 C172 1.399 . S
C173 H179 0.930 . S
H174 C154 0.931 . S
H175 C155 0.930 . S
H176 C163 0.931 . S
H177 C164 0.929 . S
H178 C172 0.929 . S
H179 C173 0.930 . S
Mn180 O185 2.095 . S
Mn180 O195 2.162 . S
Mn180 O196 2.297 . S
Mn180 O204 2.385 . S
Mn180 O205 2.209 . S
Mn180 O206 2.094 . S
Mn181 O186 2.121 . S
Mn181 N188 2.257 . S
Mn181 N197 2.282 . S
Mn181 O205 2.215 . S
Mn181 O207 2.117 . S
C182 O204 1.234 . S
C182 O205 1.283 . S
C183 O195 1.281 . S
C183 O196 1.236 . S
C184 O206 1.240 . S
C184 O207 1.264 . S
O185 Mn180 2.095 . S
O185 C194 1.250 . S
O186 Mn181 2.121 . S
O186 C194 1.258 . S
C187 N188 1.326 . S
C187 C191 1.460 . S
C187 H193 0.929 . S
N188 Mn181 2.257 . S
N188 C187 1.326 . S
N188 C192 1.362 . S
C189 C190 1.258 1_554 S
C189 C192 1.431 1_554 S
C189 C209 1.449 . S
C190 C189 1.258 1_556 S
C190 C191 1.477 . S
C190 H210 0.931 1_556 S
C191 C187 1.460 . S
C191 C190 1.477 . S
C191 H211 0.930 . S
C192 N188 1.362 . S
C192 C189 1.431 1_556 S
C192 C202 1.503 . S
H193 C187 0.929 . S
C194 O185 1.250 . S
C194 O186 1.258 . S
O195 Mn180 2.162 . S
O195 C183 1.281 . S
O196 Mn180 2.297 . S
O196 C183 1.236 . S
N197 Mn181 2.282 . S
N197 C198 1.328 . S
N197 C202 1.358 . S
C198 N197 1.328 . S
C198 C199 1.457 1_556 S
C198 H203 0.929 . S
C199 C198 1.457 1_554 S
C199 C200 1.291 . S
C199 H212 0.931 . S
C200 C199 1.291 . S
C200 C201 1.373 . S
C200 H213 0.929 . S
C201 C200 1.373 . S
C201 C202 1.334 1_554 S
C201 C208 1.403 . S
C202 C192 1.503 . S
C202 N197 1.358 . S
C202 C201 1.334 1_556 S
H203 C198 0.929 . S
O204 Mn180 2.385 . S
O204 C182 1.234 . S
O205 Mn180 2.209 . S
O205 Mn181 2.215 . S
O205 C182 1.283 . S
O206 Mn180 2.094 . S
O206 C184 1.240 . S
O207 Mn181 2.117 . S
O207 C184 1.264 . S
C208 C201 1.403 . S
C208 C209 1.399 . S
C208 H214 0.929 . S
C209 C189 1.449 . S
C209 C208 1.399 . S
C209 H215 0.930 . S
H210 C190 0.931 1_554 S
H211 C191 0.930 . S
H212 C199 0.931 . S
H213 C200 0.929 . S
H214 C208 0.929 . S
H215 C209 0.930 . S
Mn216 O221 2.095 . S
Mn216 O231 2.162 . S
Mn216 O232 2.297 . S
Mn216 O240 2.385 . S
Mn216 O241 2.209 . S
Mn216 O242 2.094 . S
Mn217 O222 2.121 . S
Mn217 N224 2.257 . S
Mn217 N233 2.282 . S
Mn217 O241 2.215 . S
Mn217 O243 2.117 . S
C218 O240 1.234 . S
C218 O241 1.283 . S
C219 O231 1.281 . S
C219 O232 1.236 . S
C220 O242 1.240 . S
C220 O243 1.264 . S
O221 Mn216 2.095 . S
O221 C230 1.250 . S
O222 Mn217 2.121 . S
O222 C230 1.258 . S
C223 N224 1.326 . S
C223 C227 1.460 . S
C223 H229 0.929 . S
N224 Mn217 2.257 . S
N224 C223 1.326 . S
N224 C228 1.362 . S
C225 C226 1.258 . S
C225 C228 1.431 . S
C225 C245 1.449 . S
C226 C225 1.258 . S
C226 C227 1.477 . S
C226 H246 0.931 . S
C227 C223 1.460 . S
C227 C226 1.477 . S
C227 H247 0.930 . S
C228 N224 1.362 . S
C228 C225 1.431 . S
C228 C238 1.476 . S
H229 C223 0.929 . S
C230 O221 1.250 . S
C230 O222 1.258 . S
O231 Mn216 2.162 . S
O231 C219 1.281 . S
O232 Mn216 2.297 . S
O232 C219 1.236 . S
N233 Mn217 2.282 . S
N233 C234 1.328 . S
N233 C238 1.318 . S
C234 N233 1.328 . S
C234 C235 1.457 . S
C234 H239 0.929 . S
C235 C234 1.457 . S
C235 C236 1.291 . S
C235 H248 0.931 . S
C236 C235 1.291 . S
C236 C237 1.373 . S
C236 H249 0.929 . S
C237 C236 1.373 . S
C237 C238 1.396 . S
C237 C244 1.403 . S
C238 C228 1.476 . S
C238 N233 1.318 . S
C238 C237 1.396 . S
H239 C234 0.929 . S
O240 Mn216 2.385 . S
O240 C218 1.234 . S
O241 Mn216 2.209 . S
O241 Mn217 2.215 . S
O241 C218 1.283 . S
O242 Mn216 2.094 . S
O242 C220 1.240 . S
O243 Mn217 2.117 . S
O243 C220 1.264 . S
C244 C237 1.403 . S
C244 C245 1.399 . S
C244 H250 0.929 . S
C245 C225 1.449 . S
C245 C244 1.399 . S
C245 H251 0.930 . S
H246 C226 0.931 . S
H247 C227 0.930 . S
H248 C235 0.931 . S
H249 C236 0.929 . S
H250 C244 0.929 . S
H251 C245 0.930 . S
Mn252 O257 2.095 . S
Mn252 O267 2.162 . S
Mn252 O268 2.297 . S
Mn252 O276 2.385 . S
Mn252 O277 2.209 . S
Mn252 O278 2.094 . S
Mn253 O258 2.121 . S
Mn253 N260 2.257 . S
Mn253 N269 2.282 . S
Mn253 O277 2.215 . S
Mn253 O279 2.117 . S
C254 O276 1.234 . S
C254 O277 1.283 . S
C255 O267 1.281 . S
C255 O268 1.236 . S
C256 O278 1.240 . S
C256 O279 1.264 . S
O257 Mn252 2.095 . S
O257 C266 1.250 . S
O258 Mn253 2.121 . S
O258 C266 1.258 . S
C259 N260 1.326 . S
C259 C263 1.460 . S
C259 H265 0.929 . S
N260 Mn253 2.257 . S
N260 C259 1.326 . S
N260 C264 1.362 . S
C261 C262 1.258 . S
C261 C264 1.431 . S
C261 C281 1.449 . S
C262 C261 1.258 . S
C262 C263 1.477 . S
C262 H282 0.931 . S
C263 C259 1.460 . S
C263 C262 1.477 . S
C263 H283 0.930 . S
C264 N260 1.362 . S
C264 C261 1.431 . S
C264 C274 1.476 . S
H265 C259 0.929 . S
C266 O257 1.250 . S
C266 O258 1.258 . S
O267 Mn252 2.162 . S
O267 C255 1.281 . S
O268 Mn252 2.297 . S
O268 C255 1.236 . S
N269 Mn253 2.282 . S
N269 C270 1.328 . S
N269 C274 1.318 . S
C270 N269 1.328 . S
C270 C271 1.457 . S
C270 H275 0.929 . S
C271 C270 1.457 . S
C271 C272 1.291 . S
C271 H284 0.931 . S
C272 C271 1.291 . S
C272 C273 1.373 . S
C272 H285 0.929 . S
C273 C272 1.373 . S
C273 C274 1.396 . S
C273 C280 1.403 . S
C274 C264 1.476 . S
C274 N269 1.318 . S
C274 C273 1.396 . S
H275 C270 0.929 . S
O276 Mn252 2.385 . S
O276 C254 1.234 . S
O277 Mn252 2.209 . S
O277 Mn253 2.215 . S
O277 C254 1.283 . S
O278 Mn252 2.094 . S
O278 C256 1.240 . S
O279 Mn253 2.117 . S
O279 C256 1.264 . S
C280 C273 1.403 . S
C280 C281 1.399 . S
C280 H286 0.929 . S
C281 C261 1.449 . S
C281 C280 1.399 . S
C281 H287 0.930 . S
H282 C262 0.931 . S
H283 C263 0.930 . S
H284 C271 0.931 . S
H285 C272 0.929 . S
H286 C280 0.929 . S
H287 C281 0.930 . S
Mn288 O293 2.095 . S
Mn288 O303 2.162 . S
Mn288 O304 2.297 . S
Mn288 O312 2.385 . S
Mn288 O313 2.209 . S
Mn288 O314 2.094 . S
Mn289 O294 2.121 . S
Mn289 N296 2.257 . S
Mn289 N305 2.282 . S
Mn289 O313 2.215 . S
Mn289 O315 2.117 . S
C290 O312 1.234 . S
C290 O313 1.283 . S
C291 O303 1.281 . S
C291 O304 1.236 . S
C292 O314 1.240 . S
C292 O315 1.264 . S
O293 Mn288 2.095 . S
O293 C302 1.250 . S
O294 Mn289 2.121 . S
O294 C302 1.258 . S
C295 N296 1.326 . S
C295 C299 1.460 . S
C295 H301 0.929 . S
N296 Mn289 2.257 . S
N296 C295 1.326 . S
N296 C300 1.362 . S
C297 C298 1.258 1_556 S
C297 C300 1.431 1_556 S
C297 C317 1.449 . S
C298 C297 1.258 1_554 S
C298 C299 1.477 . S
C298 H318 0.931 1_554 S
C299 C295 1.460 . S
C299 C298 1.477 . S
C299 H319 0.930 . S
C300 N296 1.362 . S
C300 C297 1.431 1_554 S
C300 C310 1.503 . S
H301 C295 0.929 . S
C302 O293 1.250 . S
C302 O294 1.258 . S
O303 Mn288 2.162 . S
O303 C291 1.281 . S
O304 Mn288 2.297 . S
O304 C291 1.236 . S
N305 Mn289 2.282 . S
N305 C306 1.328 . S
N305 C310 1.359 . S
C306 N305 1.328 . S
C306 C307 1.457 1_554 S
C306 H311 0.929 . S
C307 C306 1.457 1_556 S
C307 C308 1.291 . S
C307 H320 0.931 . S
C308 C307 1.291 . S
C308 C309 1.373 . S
C308 H321 0.929 . S
C309 C308 1.373 . S
C309 C310 1.334 1_556 S
C309 C316 1.403 . S
C310 C300 1.503 . S
C310 N305 1.359 . S
C310 C309 1.334 1_554 S
H311 C306 0.929 . S
O312 Mn288 2.385 . S
O312 C290 1.234 . S
O313 Mn288 2.209 . S
O313 Mn289 2.215 . S
O313 C290 1.283 . S
O314 Mn288 2.094 . S
O314 C292 1.240 . S
O315 Mn289 2.117 . S
O315 C292 1.264 . S
C316 C309 1.403 . S
C316 C317 1.399 . S
C316 H322 0.929 . S
C317 C297 1.449 . S
C317 C316 1.399 . S
C317 H323 0.930 . S
H318 C298 0.931 1_556 S
H319 C299 0.930 . S
H320 C307 0.931 . S
H321 C308 0.929 . S
H322 C316 0.929 . S
H323 C317 0.930 . S
Mn324 O329 2.095 . S
Mn324 O339 2.162 . S
Mn324 O340 2.297 . S
Mn324 O348 2.385 . S
Mn324 O349 2.209 . S
Mn324 O350 2.094 . S
Mn325 O330 2.121 . S
Mn325 N332 2.257 . S
Mn325 N341 2.282 . S
Mn325 O349 2.215 . S
Mn325 O351 2.117 . S
C326 O348 1.234 . S
C326 O349 1.283 . S
C327 O339 1.281 . S
C327 O340 1.236 . S
C328 O350 1.240 . S
C328 O351 1.264 . S
O329 Mn324 2.095 . S
O329 C338 1.250 . S
O330 Mn325 2.121 . S
O330 C338 1.258 . S
C331 N332 1.326 . S
C331 C335 1.460 . S
C331 H337 0.929 . S
N332 Mn325 2.257 . S
N332 C331 1.326 . S
N332 C336 1.362 . S
C333 C334 1.258 . S
C333 C336 1.431 . S
C333 C353 1.449 . S
C334 C333 1.258 . S
C334 C335 1.477 . S
C334 H354 0.931 . S
C335 C331 1.460 . S
C335 C334 1.477 . S
C335 H355 0.930 . S
C336 N332 1.362 . S
C336 C333 1.431 . S
C336 C346 1.476 . S
H337 C331 0.929 . S
C338 O329 1.250 . S
C338 O330 1.258 . S
O339 Mn324 2.162 . S
O339 C327 1.281 . S
O340 Mn324 2.297 . S
O340 C327 1.236 . S
N341 Mn325 2.282 . S
N341 C342 1.328 . S
N341 C346 1.318 . S
C342 N341 1.328 . S
C342 C343 1.457 . S
C342 H347 0.929 . S
C343 C342 1.457 . S
C343 C344 1.291 . S
C343 H356 0.931 . S
C344 C343 1.291 . S
C344 C345 1.373 . S
C344 H357 0.929 . S
C345 C344 1.373 . S
C345 C346 1.396 . S
C345 C352 1.403 . S
C346 C336 1.476 . S
C346 N341 1.318 . S
C346 C345 1.396 . S
H347 C342 0.929 . S
O348 Mn324 2.385 . S
O348 C326 1.234 . S
O349 Mn324 2.209 . S
O349 Mn325 2.215 . S
O349 C326 1.283 . S
O350 Mn324 2.094 . S
O350 C328 1.240 . S
O351 Mn325 2.117 . S
O351 C328 1.264 . S
C352 C345 1.403 . S
C352 C353 1.399 . S
C352 H358 0.929 . S
C353 C333 1.449 . S
C353 C352 1.399 . S
C353 H359 0.930 . S
H354 C334 0.931 . S
H355 C335 0.930 . S
H356 C343 0.931 . S
H357 C344 0.929 . S
H358 C352 0.929 . S
H359 C353 0.930 . S
Mn360 O365 2.095 . S
Mn360 O375 2.162 . S
Mn360 O376 2.297 . S
Mn360 O384 2.385 . S
Mn360 O385 2.209 . S
Mn360 O386 2.094 . S
Mn361 O366 2.121 . S
Mn361 N368 2.257 . S
Mn361 N377 2.282 . S
Mn361 O385 2.215 . S
Mn361 O387 2.117 . S
C362 O384 1.234 . S
C362 O385 1.283 . S
C363 O375 1.281 . S
C363 O376 1.236 . S
C364 O386 1.240 . S
C364 O387 1.264 . S
O365 Mn360 2.095 . S
O365 C374 1.250 . S
O366 Mn361 2.121 . S
O366 C374 1.258 . S
C367 N368 1.326 . S
C367 C371 1.460 . S
C367 H373 0.929 . S
N368 Mn361 2.257 . S
N368 C367 1.326 . S
N368 C372 1.362 . S
C369 C370 1.258 . S
C369 C372 1.431 . S
C369 C389 1.449 . S
C370 C369 1.258 . S
C370 C371 1.477 . S
C370 H390 0.931 . S
C371 C367 1.460 . S
C371 C370 1.477 . S
C371 H391 0.930 . S
C372 N368 1.362 . S
C372 C369 1.431 . S
C372 C382 1.476 . S
H373 C367 0.929 . S
C374 O365 1.250 . S
C374 O366 1.258 . S
O375 Mn360 2.162 . S
O375 C363 1.281 . S
O376 Mn360 2.297 . S
O376 C363 1.236 . S
N377 Mn361 2.282 . S
N377 C378 1.328 . S
N377 C382 1.318 . S
C378 N377 1.328 . S
C378 C379 1.457 . S
C378 H383 0.929 . S
C379 C378 1.457 . S
C379 C380 1.291 . S
C379 H392 0.931 . S
C380 C379 1.291 . S
C380 C381 1.373 . S
C380 H393 0.929 . S
C381 C380 1.373 . S
C381 C382 1.396 . S
C381 C388 1.403 . S
C382 C372 1.476 . S
C382 N377 1.318 . S
C382 C381 1.396 . S
H383 C378 0.929 . S
O384 Mn360 2.385 . S
O384 C362 1.234 . S
O385 Mn360 2.209 . S
O385 Mn361 2.215 . S
O385 C362 1.283 . S
O386 Mn360 2.094 . S
O386 C364 1.240 . S
O387 Mn361 2.117 . S
O387 C364 1.264 . S
C388 C381 1.403 . S
C388 C389 1.399 . S
C388 H394 0.929 . S
C389 C369 1.449 . S
C389 C388 1.399 . S
C389 H395 0.930 . S
H390 C370 0.931 . S
H391 C371 0.930 . S
H392 C379 0.931 . S
H393 C380 0.929 . S
H394 C388 0.929 . S
H395 C389 0.930 . S
Mn396 O401 2.095 . S
Mn396 O411 2.162 . S
Mn396 O412 2.297 . S
Mn396 O420 2.385 . S
Mn396 O421 2.209 . S
Mn396 O422 2.094 . S
Mn397 O402 2.121 . S
Mn397 N404 2.257 . S
Mn397 N413 2.282 . S
Mn397 O421 2.215 . S
Mn397 O423 2.117 . S
C398 O420 1.234 . S
C398 O421 1.283 . S
C399 O411 1.281 . S
C399 O412 1.236 . S
C400 O422 1.240 . S
C400 O423 1.264 . S
O401 Mn396 2.095 . S
O401 C410 1.250 . S
O402 Mn397 2.121 . S
O402 C410 1.258 . S
C403 N404 1.326 . S
C403 C407 1.460 . S
C403 H409 0.929 . S
N404 Mn397 2.257 . S
N404 C403 1.326 . S
N404 C408 1.362 . S
C405 C406 1.258 . S
C405 C408 1.431 . S
C405 C425 1.449 . S
C406 C405 1.258 . S
C406 C407 1.477 . S
C406 H426 0.931 . S
C407 C403 1.460 . S
C407 C406 1.477 . S
C407 H427 0.930 . S
C408 N404 1.362 . S
C408 C405 1.431 . S
C408 C418 1.476 . S
H409 C403 0.929 . S
C410 O401 1.250 . S
C410 O402 1.258 . S
O411 Mn396 2.162 . S
O411 C399 1.281 . S
O412 Mn396 2.297 . S
O412 C399 1.236 . S
N413 Mn397 2.282 . S
N413 C414 1.328 . S
N413 C418 1.318 . S
C414 N413 1.328 . S
C414 C415 1.457 . S
C414 H419 0.929 . S
C415 C414 1.457 . S
C415 C416 1.291 . S
C415 H428 0.931 . S
C416 C415 1.291 . S
C416 C417 1.373 . S
C416 H429 0.929 . S
C417 C416 1.373 . S
C417 C418 1.396 . S
C417 C424 1.403 . S
C418 C408 1.476 . S
C418 N413 1.318 . S
C418 C417 1.396 . S
H419 C414 0.929 . S
O420 Mn396 2.385 . S
O420 C398 1.234 . S
O421 Mn396 2.209 . S
O421 Mn397 2.215 . S
O421 C398 1.283 . S
O422 Mn396 2.094 . S
O422 C400 1.240 . S
O423 Mn397 2.117 . S
O423 C400 1.264 . S
C424 C417 1.403 . S
C424 C425 1.399 . S
C424 H430 0.929 . S
C425 C405 1.449 . S
C425 C424 1.399 . S
C425 H431 0.930 . S
H426 C406 0.931 . S
H427 C407 0.930 . S
H428 C415 0.931 . S
H429 C416 0.929 . S
H430 C424 0.929 . S
H431 C425 0.930 . S
H432 C450 0.951 . S
H433 C452 0.951 . S
H434 C454 0.950 . S
H435 C455 0.950 . S
H436 C457 0.950 . S
H437 C460 0.950 . S
H438 C461 0.950 . S
H439 C463 0.950 . S
H440 C464 0.950 . S
H441 C465 0.951 . S
H442 C467 0.951 . S
H443 C469 0.950 . S
H444 C470 0.950 . S
H445 C472 0.950 . S
H446 C475 0.950 . S
H447 C476 0.950 . S
H448 C478 0.950 . S
H449 C479 0.950 . S
C450 H432 0.951 . S
C450 C451 1.366 . S
C450 C452 1.388 . S
C451 C450 1.366 . S
C451 C455 1.385 . S
C452 H433 0.951 . S
C452 C450 1.388 . S
C452 C453 1.366 . S
C453 C452 1.366 . S
C453 C454 1.414 . S
C453 C456 1.499 . S
C454 H434 0.950 . S
C454 C453 1.414 . S
C454 C455 1.374 . S
C455 H435 0.950 . S
C455 C451 1.385 . S
C455 C454 1.374 . S
C456 C453 1.499 . S
C456 C457 1.373 . S
C456 C458 1.389 . S
C457 H436 0.950 . S
C457 C456 1.373 . S
C457 C473 1.377 . S
C458 C456 1.389 . S
C458 C459 1.524 . S
C458 C472 1.377 . S
C459 C458 1.524 . S
C459 C460 1.397 . S
C459 C464 1.363 . S
C460 H437 0.950 . S
C460 C459 1.397 . S
C460 C461 1.334 . S
C461 H438 0.950 . S
C461 C460 1.334 . S
C461 C462 1.287 . S
C462 C461 1.287 . S
C462 C463 1.524 . S
C462 H481 0.913 . S
C463 H439 0.950 . S
C463 C462 1.524 . S
C463 C464 1.415 . S
C464 H440 0.950 . S
C464 C459 1.363 . S
C464 C463 1.415 . S
C465 H441 0.951 . S
C465 C466 1.366 . S
C465 C467 1.388 . S
C466 C465 1.366 . S
C466 C470 1.385 . S
C467 H442 0.951 . S
C467 C465 1.388 . S
C467 C468 1.366 . S
C468 C467 1.366 . S
C468 C469 1.414 . S
C468 C471 1.499 . S
C469 H443 0.950 . S
C469 C468 1.414 . S
C469 C470 1.374 . S
C470 H444 0.950 . S
C470 C466 1.385 . S
C470 C469 1.374 . S
C471 C468 1.499 . S
C471 C472 1.373 . S
C471 C473 1.389 . S
C472 H445 0.950 . S
C472 C458 1.377 . S
C472 C471 1.373 . S
C473 C457 1.377 . S
C473 C471 1.389 . S
C473 C474 1.524 . S
C474 C473 1.524 . S
C474 C475 1.397 . S
C474 C479 1.363 . S
C475 H446 0.950 . S
C475 C474 1.397 . S
C475 C476 1.334 . S
C476 H447 0.950 . S
C476 C475 1.334 . S
C476 C477 1.287 . S
C477 C476 1.287 . S
C477 C478 1.524 . S
C477 H480 0.999 . S
C478 H448 0.950 . S
C478 C477 1.524 . S
C478 C479 1.415 . S
C479 H449 0.950 . S
C479 C474 1.363 . S
C479 C478 1.415 . S
H480 C477 0.999 . S
H481 C462 0.913 . S
H482 C500 0.951 . S
H483 C502 0.951 . S
H484 C504 0.950 . S
H485 C505 0.950 . S
H486 C507 0.950 . S
H487 C510 0.950 . S
H488 C511 0.950 . S
H489 C513 0.950 . S
H490 C514 0.950 . S
H491 C515 0.951 . S
H492 C517 0.951 . S
H493 C519 0.950 . S
H494 C520 0.950 . S
H495 C522 0.950 . S
H496 C525 0.950 . S
H497 C526 0.950 . S
H498 C528 0.950 . S
H499 C529 0.950 . S
C500 H482 0.951 . S
C500 C501 1.366 . S
C500 C502 1.388 . S
C501 C500 1.366 . S
C501 C505 1.385 . S
C502 H483 0.951 . S
C502 C500 1.388 . S
C502 C503 1.366 . S
C503 C502 1.366 . S
C503 C504 1.414 . S
C503 C506 1.499 . S
C504 H484 0.950 . S
C504 C503 1.414 . S
C504 C505 1.374 . S
C505 H485 0.950 . S
C505 C501 1.385 . S
C505 C504 1.374 . S
C506 C503 1.499 . S
C506 C507 1.373 . S
C506 C508 1.389 . S
C507 H486 0.950 . S
C507 C506 1.373 . S
C507 C523 1.377 . S
C508 C506 1.389 . S
C508 C509 1.524 . S
C508 C522 1.377 . S
C509 C508 1.524 . S
C509 C510 1.397 . S
C509 C514 1.363 . S
C510 H487 0.950 . S
C510 C509 1.397 . S
C510 C511 1.334 . S
C511 H488 0.950 . S
C511 C510 1.334 . S
C511 C512 1.287 . S
C512 C511 1.287 . S
C512 C513 1.524 . S
C512 H531 0.913 . S
C513 H489 0.950 . S
C513 C512 1.524 . S
C513 C514 1.415 . S
C514 H490 0.950 . S
C514 C509 1.363 . S
C514 C513 1.415 . S
C515 H491 0.951 . S
C515 C516 1.366 . S
C515 C517 1.388 . S
C516 C515 1.366 . S
C516 C520 1.385 . S
C517 H492 0.951 . S
C517 C515 1.388 . S
C517 C518 1.366 . S
C518 C517 1.366 . S
C518 C519 1.414 . S
C518 C521 1.499 . S
C519 H493 0.950 . S
C519 C518 1.414 . S
C519 C520 1.374 . S
C520 H494 0.950 . S
C520 C516 1.385 . S
C520 C519 1.374 . S
C521 C518 1.499 . S
C521 C522 1.373 . S
C521 C523 1.389 . S
C522 H495 0.950 . S
C522 C508 1.377 . S
C522 C521 1.373 . S
C523 C507 1.377 . S
C523 C521 1.389 . S
C523 C524 1.524 . S
C524 C523 1.524 . S
C524 C525 1.397 . S
C524 C529 1.363 . S
C525 H496 0.950 . S
C525 C524 1.397 . S
C525 C526 1.334 . S
C526 H497 0.950 . S
C526 C525 1.334 . S
C526 C527 1.287 . S
C527 C526 1.287 . S
C527 C528 1.524 . S
C527 H530 0.999 . S
C528 H498 0.950 . S
C528 C527 1.524 . S
C528 C529 1.415 . S
C529 H499 0.950 . S
C529 C524 1.363 . S
C529 C528 1.415 . S
H530 C527 0.999 . S
H531 C512 0.913 . S
H532 C550 0.951 . S
H533 C552 0.951 . S
H534 C554 0.950 . S
H535 C555 0.950 . S
H536 C557 0.950 . S
H537 C560 0.950 . S
H538 C561 0.950 . S
H539 C563 0.950 . S
H540 C564 0.950 . S
H541 C565 0.951 . S
H542 C567 0.951 . S
H543 C569 0.950 . S
H544 C570 0.950 . S
H545 C572 0.950 . S
H546 C575 0.950 . S
H547 C576 0.950 . S
H548 C578 0.950 . S
H549 C579 0.950 . S
C550 H532 0.951 . S
C550 C551 1.366 . S
C550 C552 1.388 . S
C551 C550 1.366 . S
C551 C555 1.385 . S
C552 H533 0.951 . S
C552 C550 1.388 . S
C552 C553 1.366 . S
C553 C552 1.366 . S
C553 C554 1.414 . S
C553 C556 1.499 . S
C554 H534 0.950 . S
C554 C553 1.414 . S
C554 C555 1.374 . S
C555 H535 0.950 . S
C555 C551 1.385 . S
C555 C554 1.374 . S
C556 C553 1.499 . S
C556 C557 1.373 . S
C556 C558 1.389 . S
C557 H536 0.950 . S
C557 C556 1.373 . S
C557 C573 1.377 . S
C558 C556 1.389 . S
C558 C559 1.524 . S
C558 C572 1.377 . S
C559 C558 1.524 . S
C559 C560 1.397 . S
C559 C564 1.363 . S
C560 H537 0.950 . S
C560 C559 1.397 . S
C560 C561 1.334 . S
C561 H538 0.950 . S
C561 C560 1.334 . S
C561 C562 1.287 . S
C562 C561 1.287 . S
C562 C563 1.524 . S
C562 H581 0.913 . S
C563 H539 0.950 . S
C563 C562 1.524 . S
C563 C564 1.415 . S
C564 H540 0.950 . S
C564 C559 1.363 . S
C564 C563 1.415 . S
C565 H541 0.951 . S
C565 C566 1.366 . S
C565 C567 1.388 . S
C566 C565 1.366 . S
C566 C570 1.385 . S
C567 H542 0.951 . S
C567 C565 1.388 . S
C567 C568 1.366 . S
C568 C567 1.366 . S
C568 C569 1.414 . S
C568 C571 1.499 . S
C569 H543 0.950 . S
C569 C568 1.414 . S
C569 C570 1.374 . S
C570 H544 0.950 . S
C570 C566 1.385 . S
C570 C569 1.374 . S
C571 C568 1.499 . S
C571 C572 1.373 . S
C571 C573 1.389 . S
C572 H545 0.950 . S
C572 C558 1.377 . S
C572 C571 1.373 . S
C573 C557 1.377 . S
C573 C571 1.389 . S
C573 C574 1.524 . S
C574 C573 1.524 . S
C574 C575 1.397 . S
C574 C579 1.363 . S
C575 H546 0.950 . S
C575 C574 1.397 . S
C575 C576 1.334 . S
C576 H547 0.950 . S
C576 C575 1.334 . S
C576 C577 1.287 . S
C577 C576 1.287 . S
C577 C578 1.524 . S
C577 H580 0.999 . S
C578 H548 0.950 . S
C578 C577 1.524 . S
C578 C579 1.415 . S
C579 H549 0.950 . S
C579 C574 1.363 . S
C579 C578 1.415 . S
H580 C577 0.999 . S
H581 C562 0.913 . S
H582 C600 0.951 . S
H583 C602 0.951 . S
H584 C604 0.950 . S
H585 C605 0.950 . S
H586 C607 0.950 . S
H587 C610 0.950 . S
H588 C611 0.950 . S
H589 C613 0.950 . S
H590 C614 0.950 . S
H591 C615 0.951 . S
H592 C617 0.951 . S
H593 C619 0.950 . S
H594 C620 0.950 . S
H595 C622 0.950 . S
H596 C625 0.950 . S
H597 C626 0.950 . S
H598 C628 0.950 . S
H599 C629 0.950 . S
C600 H582 0.951 . S
C600 C601 1.366 . S
C600 C602 1.388 . S
C601 C600 1.366 . S
C601 C605 1.385 . S
C602 H583 0.951 . S
C602 C600 1.388 . S
C602 C603 1.366 . S
C603 C602 1.366 . S
C603 C604 1.414 . S
C603 C606 1.499 . S
C604 H584 0.950 . S
C604 C603 1.414 . S
C604 C605 1.374 . S
C605 H585 0.950 . S
C605 C601 1.385 . S
C605 C604 1.374 . S
C606 C603 1.499 . S
C606 C607 1.373 . S
C606 C608 1.389 . S
C607 H586 0.950 . S
C607 C606 1.373 . S
C607 C623 1.377 . S
C608 C606 1.389 . S
C608 C609 1.524 . S
C608 C622 1.377 . S
C609 C608 1.524 . S
C609 C610 1.397 . S
C609 C614 1.363 . S
C610 H587 0.950 . S
C610 C609 1.397 . S
C610 C611 1.334 . S
C611 H588 0.950 . S
C611 C610 1.334 . S
C611 C612 1.287 . S
C612 C611 1.287 . S
C612 C613 1.524 . S
C612 H631 0.913 . S
C613 H589 0.950 . S
C613 C612 1.524 . S
C613 C614 1.415 . S
C614 H590 0.950 . S
C614 C609 1.363 . S
C614 C613 1.415 . S
C615 H591 0.951 . S
C615 C616 1.366 . S
C615 C617 1.388 . S
C616 C615 1.366 . S
C616 C620 1.385 . S
C617 H592 0.951 . S
C617 C615 1.388 . S
C617 C618 1.366 . S
C618 C617 1.366 . S
C618 C619 1.414 . S
C618 C621 1.499 . S
C619 H593 0.950 . S
C619 C618 1.414 . S
C619 C620 1.374 . S
C620 H594 0.950 . S
C620 C616 1.385 . S
C620 C619 1.374 . S
C621 C618 1.499 . S
C621 C622 1.373 . S
C621 C623 1.389 . S
C622 H595 0.950 . S
C622 C608 1.377 . S
C622 C621 1.373 . S
C623 C607 1.377 . S
C623 C621 1.389 . S
C623 C624 1.524 . S
C624 C623 1.524 . S
C624 C625 1.397 . S
C624 C629 1.363 . S
C625 H596 0.950 . S
C625 C624 1.397 . S
C625 C626 1.334 . S
C626 H597 0.950 . S
C626 C625 1.334 . S
C626 C627 1.287 . S
C627 C626 1.287 . S
C627 C628 1.524 . S
C627 H630 0.999 . S
C628 H598 0.950 . S
C628 C627 1.524 . S
C628 C629 1.415 . S
C629 H599 0.950 . S
C629 C624 1.363 . S
C629 C628 1.415 . S
H630 C627 0.999 . S
H631 C612 0.913 . S
H632 C650 0.951 . S
H633 C652 0.951 . S
H634 C654 0.950 . S
H635 C655 0.950 . S
H636 C657 0.950 . S
H637 C660 0.950 . S
H638 C661 0.950 . S
H639 C663 0.950 . S
H640 C664 0.950 . S
H641 C665 0.951 . S
H642 C667 0.951 . S
H643 C669 0.950 . S
H644 C670 0.950 . S
H645 C672 0.950 . S
H646 C675 0.950 . S
H647 C676 0.950 . S
H648 C678 0.950 . S
H649 C679 0.950 . S
C650 H632 0.951 . S
C650 C651 1.366 . S
C650 C652 1.388 . S
C651 C650 1.366 . S
C651 C655 1.385 . S
C652 H633 0.951 . S
C652 C650 1.388 . S
C652 C653 1.366 . S
C653 C652 1.366 . S
C653 C654 1.414 . S
C653 C656 1.499 . S
C654 H634 0.950 . S
C654 C653 1.414 . S
C654 C655 1.374 . S
C655 H635 0.950 . S
C655 C651 1.385 . S
C655 C654 1.374 . S
C656 C653 1.499 . S
C656 C657 1.373 . S
C656 C658 1.389 . S
C657 H636 0.950 . S
C657 C656 1.373 . S
C657 C673 1.377 . S
C658 C656 1.389 . S
C658 C659 1.524 . S
C658 C672 1.377 . S
C659 C658 1.524 . S
C659 C660 1.397 . S
C659 C664 1.363 . S
C660 H637 0.950 . S
C660 C659 1.397 . S
C660 C661 1.334 . S
C661 H638 0.950 . S
C661 C660 1.334 . S
C661 C662 1.287 . S
C662 C661 1.287 . S
C662 C663 1.524 . S
C662 H681 0.913 . S
C663 H639 0.950 . S
C663 C662 1.524 . S
C663 C664 1.415 . S
C664 H640 0.950 . S
C664 C659 1.363 . S
C664 C663 1.415 . S
C665 H641 0.951 . S
C665 C666 1.366 . S
C665 C667 1.388 . S
C666 C665 1.366 . S
C666 C670 1.385 . S
C667 H642 0.951 . S
C667 C665 1.388 . S
C667 C668 1.366 . S
C668 C667 1.366 . S
C668 C669 1.414 . S
C668 C671 1.499 . S
C669 H643 0.950 . S
C669 C668 1.414 . S
C669 C670 1.374 . S
C670 H644 0.950 . S
C670 C666 1.385 . S
C670 C669 1.374 . S
C671 C668 1.499 . S
C671 C672 1.373 . S
C671 C673 1.389 . S
C672 H645 0.950 . S
C672 C658 1.377 . S
C672 C671 1.373 . S
C673 C657 1.377 . S
C673 C671 1.389 . S
C673 C674 1.524 . S
C674 C673 1.524 . S
C674 C675 1.397 . S
C674 C679 1.363 . S
C675 H646 0.950 . S
C675 C674 1.397 . S
C675 C676 1.334 . S
C676 H647 0.950 . S
C676 C675 1.334 . S
C676 C677 1.287 . S
C677 C676 1.287 . S
C677 C678 1.524 . S
C677 H680 0.999 . S
C678 H648 0.950 . S
C678 C677 1.524 . S
C678 C679 1.415 . S
C679 H649 0.950 . S
C679 C674 1.363 . S
C679 C678 1.415 . S
H680 C677 0.999 . S
H681 C662 0.913 . S
H682 C700 0.951 . S
H683 C702 0.951 . S
H684 C704 0.950 . S
H685 C705 0.950 . S
H686 C707 0.950 . S
H687 C710 0.950 . S
H688 C711 0.950 . S
H689 C713 0.950 . S
H690 C714 0.950 . S
H691 C715 0.951 . S
H692 C717 0.951 . S
H693 C719 0.950 . S
H694 C720 0.950 . S
H695 C722 0.950 . S
H696 C725 0.950 . S
H697 C726 0.950 . S
H698 C728 0.950 . S
H699 C729 0.950 . S
C700 H682 0.951 . S
C700 C701 1.366 . S
C700 C702 1.388 . S
C701 C700 1.366 . S
C701 C705 1.385 . S
C702 H683 0.951 . S
C702 C700 1.388 . S
C702 C703 1.366 . S
C703 C702 1.366 . S
C703 C704 1.414 . S
C703 C706 1.499 . S
C704 H684 0.950 . S
C704 C703 1.414 . S
C704 C705 1.374 . S
C705 H685 0.950 . S
C705 C701 1.385 . S
C705 C704 1.374 . S
C706 C703 1.499 . S
C706 C707 1.373 . S
C706 C708 1.389 . S
C707 H686 0.950 . S
C707 C706 1.373 . S
C707 C723 1.377 . S
C708 C706 1.389 . S
C708 C709 1.524 . S
C708 C722 1.377 . S
C709 C708 1.524 . S
C709 C710 1.397 . S
C709 C714 1.363 . S
C710 H687 0.950 . S
C710 C709 1.397 . S
C710 C711 1.334 . S
C711 H688 0.950 . S
C711 C710 1.334 . S
C711 C712 1.287 . S
C712 C711 1.287 . S
C712 C713 1.524 . S
C712 H731 0.913 . S
C713 H689 0.950 . S
C713 C712 1.524 . S
C713 C714 1.415 . S
C714 H690 0.950 . S
C714 C709 1.363 . S
C714 C713 1.415 . S
C715 H691 0.951 . S
C715 C716 1.366 . S
C715 C717 1.388 . S
C716 C715 1.366 . S
C716 C720 1.385 . S
C717 H692 0.951 . S
C717 C715 1.388 . S
C717 C718 1.366 . S
C718 C717 1.366 . S
C718 C719 1.414 . S
C718 C721 1.499 . S
C719 H693 0.950 . S
C719 C718 1.414 . S
C719 C720 1.374 . S
C720 H694 0.950 . S
C720 C716 1.385 . S
C720 C719 1.374 . S
C721 C718 1.499 . S
C721 C722 1.373 . S
C721 C723 1.389 . S
C722 H695 0.950 . S
C722 C708 1.377 . S
C722 C721 1.373 . S
C723 C707 1.377 . S
C723 C721 1.389 . S
C723 C724 1.524 . S
C724 C723 1.524 . S
C724 C725 1.397 . S
C724 C729 1.363 . S
C725 H696 0.950 . S
C725 C724 1.397 . S
C725 C726 1.334 . S
C726 H697 0.950 . S
C726 C725 1.334 . S
C726 C727 1.287 . S
C727 C726 1.287 . S
C727 C728 1.524 . S
C727 H730 0.999 . S
C728 H698 0.950 . S
C728 C727 1.524 . S
C728 C729 1.415 . S
C729 H699 0.950 . S
C729 C724 1.363 . S
C729 C728 1.415 . S
H730 C727 0.999 . S
H731 C712 0.913 . S
H732 C750 0.951 . S
H733 C752 0.951 . S
H734 C754 0.950 . S
H735 C755 0.950 . S
H736 C757 0.950 . S
H737 C760 0.950 . S
H738 C761 0.950 . S
H739 C763 0.950 . S
H740 C764 0.950 . S
H741 C765 0.951 . S
H742 C767 0.951 . S
H743 C769 0.950 . S
H744 C770 0.950 . S
H745 C772 0.950 . S
H746 C775 0.950 . S
H747 C776 0.950 . S
H748 C778 0.950 . S
H749 C779 0.950 . S
C750 H732 0.951 . S
C750 C751 1.366 . S
C750 C752 1.388 . S
C751 C750 1.366 . S
C751 C755 1.385 . S
C752 H733 0.951 . S
C752 C750 1.388 . S
C752 C753 1.366 . S
C753 C752 1.366 . S
C753 C754 1.414 . S
C753 C756 1.499 . S
C754 H734 0.950 . S
C754 C753 1.414 . S
C754 C755 1.374 . S
C755 H735 0.950 . S
C755 C751 1.385 . S
C755 C754 1.374 . S
C756 C753 1.499 . S
C756 C757 1.373 . S
C756 C758 1.389 . S
C757 H736 0.950 . S
C757 C756 1.373 . S
C757 C773 1.377 . S
C758 C756 1.389 . S
C758 C759 1.524 . S
C758 C772 1.377 . S
C759 C758 1.524 . S
C759 C760 1.397 . S
C759 C764 1.363 . S
C760 H737 0.950 . S
C760 C759 1.397 . S
C760 C761 1.334 . S
C761 H738 0.950 . S
C761 C760 1.334 . S
C761 C762 1.287 . S
C762 C761 1.287 . S
C762 C763 1.524 . S
C762 H781 0.913 . S
C763 H739 0.950 . S
C763 C762 1.524 . S
C763 C764 1.415 . S
C764 H740 0.950 . S
C764 C759 1.363 . S
C764 C763 1.415 . S
C765 H741 0.951 . S
C765 C766 1.366 . S
C765 C767 1.388 . S
C766 C765 1.366 . S
C766 C770 1.385 . S
C767 H742 0.951 . S
C767 C765 1.388 . S
C767 C768 1.366 . S
C768 C767 1.366 . S
C768 C769 1.414 . S
C768 C771 1.499 . S
C769 H743 0.950 . S
C769 C768 1.414 . S
C769 C770 1.374 . S
C770 H744 0.950 . S
C770 C766 1.385 . S
C770 C769 1.374 . S
C771 C768 1.499 . S
C771 C772 1.373 . S
C771 C773 1.389 . S
C772 H745 0.950 . S
C772 C758 1.377 . S
C772 C771 1.373 . S
C773 C757 1.377 . S
C773 C771 1.389 . S
C773 C774 1.524 . S
C774 C773 1.524 . S
C774 C775 1.397 . S
C774 C779 1.363 . S
C775 H746 0.950 . S
C775 C774 1.397 . S
C775 C776 1.334 . S
C776 H747 0.950 . S
C776 C775 1.334 . S
C776 C777 1.287 . S
C777 C776 1.287 . S
C777 C778 1.524 . S
C777 H780 0.999 . S
C778 H748 0.950 . S
C778 C777 1.524 . S
C778 C779 1.415 . S
C779 H749 0.950 . S
C779 C774 1.363 . S
C779 C778 1.415 . S
H780 C777 0.999 . S
H781 C762 0.913 . S
H782 C800 0.951 . S
H783 C802 0.951 . S
H784 C804 0.950 . S
H785 C805 0.950 . S
H786 C807 0.953 . S
H787 C810 0.950 . S
H788 C811 0.950 . S
H789 C813 0.950 . S
H790 C814 0.950 . S
H791 C815 0.951 . S
H792 C817 0.951 . S
H793 C819 0.950 . S
H794 C820 0.950 . S
H795 C822 0.953 . S
H796 C825 0.950 . S
H797 C826 0.950 . S
H798 C828 0.950 . S
H799 C829 0.950 . S
C800 H782 0.951 . S
C800 C801 1.366 . S
C800 C802 1.388 . S
C801 C800 1.366 . S
C801 C805 1.385 . S
C802 H783 0.951 . S
C802 C800 1.388 . S
C802 C803 1.366 . S
C803 C802 1.366 . S
C803 C804 1.414 . S
C803 C806 1.499 . S
C804 H784 0.950 . S
C804 C803 1.414 . S
C804 C805 1.374 . S
C805 H785 0.950 . S
C805 C801 1.385 . S
C805 C804 1.374 . S
C806 C803 1.499 . S
C806 C807 1.363 1_655 S
C806 C808 1.389 . S
C807 H786 0.953 . S
C807 C806 1.363 1_455 S
C807 C823 1.384 . S
C808 C806 1.389 . S
C808 C809 1.524 . S
C808 C822 1.384 . S
C809 C808 1.524 . S
C809 C810 1.397 . S
C809 C814 1.363 . S
C810 H787 0.950 . S
C810 C809 1.397 . S
C810 C811 1.334 . S
C811 H788 0.950 . S
C811 C810 1.334 . S
C811 C812 1.287 . S
C812 C811 1.287 . S
C812 C813 1.524 . S
C812 H831 0.913 . S
C813 H789 0.950 . S
C813 C812 1.524 . S
C813 C814 1.415 . S
C814 H790 0.950 . S
C814 C809 1.363 . S
C814 C813 1.415 . S
C815 H791 0.951 . S
C815 C816 1.366 . S
C815 C817 1.388 . S
C816 C815 1.366 . S
C816 C820 1.385 . S
C817 H792 0.951 . S
C817 C815 1.388 . S
C817 C818 1.366 . S
C818 C817 1.366 . S
C818 C819 1.414 . S
C818 C821 1.499 . S
C819 H793 0.950 . S
C819 C818 1.414 . S
C819 C820 1.374 . S
C820 H794 0.950 . S
C820 C816 1.385 . S
C820 C819 1.374 . S
C821 C818 1.499 . S
C821 C822 1.363 1_455 S
C821 C823 1.389 . S
C822 H795 0.953 . S
C822 C808 1.384 . S
C822 C821 1.363 1_655 S
C823 C807 1.384 . S
C823 C821 1.389 . S
C823 C824 1.524 . S
C824 C823 1.524 . S
C824 C825 1.397 . S
C824 C829 1.363 . S
C825 H796 0.950 . S
C825 C824 1.397 . S
C825 C826 1.334 . S
C826 H797 0.950 . S
C826 C825 1.334 . S
C826 C827 1.287 . S
C827 C826 1.287 . S
C827 C828 1.524 . S
C827 H830 0.999 . S
C828 H798 0.950 . S
C828 C827 1.524 . S
C828 C829 1.415 . S
C829 H799 0.950 . S
C829 C824 1.363 . S
C829 C828 1.415 . S
H830 C827 0.999 . S
H831 C812 0.913 . S
H832 C850 0.951 . S
H833 C852 0.951 . S
H834 C854 0.950 . S
H835 C855 0.950 . S
H836 C857 0.950 . S
H837 C860 0.950 . S
H838 C861 0.950 . S
H839 C863 0.950 . S
H840 C864 0.950 . S
H841 C865 0.951 . S
H842 C867 0.951 . S
H843 C869 0.950 . S
H844 C870 0.950 . S
H845 C872 0.950 . S
H846 C875 0.950 . S
H847 C876 0.950 . S
H848 C878 0.950 . S
H849 C879 0.950 . S
C850 H832 0.951 . S
C850 C851 1.366 . S
C850 C852 1.388 . S
C851 C850 1.366 . S
C851 C855 1.385 . S
C852 H833 0.951 . S
C852 C850 1.388 . S
C852 C853 1.366 . S
C853 C852 1.366 . S
C853 C854 1.414 . S
C853 C856 1.499 . S
C854 H834 0.950 . S
C854 C853 1.414 . S
C854 C855 1.374 . S
C855 H835 0.950 . S
C855 C851 1.385 . S
C855 C854 1.374 . S
C856 C853 1.499 . S
C856 C857 1.373 . S
C856 C858 1.389 . S
C857 H836 0.950 . S
C857 C856 1.373 . S
C857 C873 1.377 1_545 S
C858 C856 1.389 . S
C858 C859 1.524 . S
C858 C872 1.377 1_545 S
C859 C858 1.524 . S
C859 C860 1.397 . S
C859 C864 1.363 . S
C860 H837 0.950 . S
C860 C859 1.397 . S
C860 C861 1.334 . S
C861 H838 0.950 . S
C861 C860 1.334 . S
C861 C862 1.287 . S
C862 C861 1.287 . S
C862 C863 1.524 . S
C862 H881 0.913 . S
C863 H839 0.950 . S
C863 C862 1.524 . S
C863 C864 1.415 . S
C864 H840 0.950 . S
C864 C859 1.363 . S
C864 C863 1.415 . S
C865 H841 0.951 . S
C865 C866 1.366 . S
C865 C867 1.388 . S
C866 C865 1.366 . S
C866 C870 1.385 . S
C867 H842 0.951 . S
C867 C865 1.388 . S
C867 C868 1.366 . S
C868 C867 1.366 . S
C868 C869 1.414 . S
C868 C871 1.499 . S
C869 H843 0.950 . S
C869 C868 1.414 . S
C869 C870 1.374 . S
C870 H844 0.950 . S
C870 C866 1.385 . S
C870 C869 1.374 . S
C871 C868 1.499 . S
C871 C872 1.373 . S
C871 C873 1.389 . S
C872 H845 0.950 . S
C872 C858 1.377 1_565 S
C872 C871 1.373 . S
C873 C857 1.377 1_565 S
C873 C871 1.389 . S
C873 C874 1.524 . S
C874 C873 1.524 . S
C874 C875 1.397 . S
C874 C879 1.363 . S
C875 H846 0.950 . S
C875 C874 1.397 . S
C875 C876 1.334 . S
C876 H847 0.950 . S
C876 C875 1.334 . S
C876 C877 1.287 . S
C877 C876 1.287 . S
C877 C878 1.524 . S
C877 H880 0.999 . S
C878 H848 0.950 . S
C878 C877 1.524 . S
C878 C879 1.415 . S
C879 H849 0.950 . S
C879 C874 1.363 . S
C879 C878 1.415 . S
H880 C877 0.999 . S
H881 C862 0.913 . S
H882 C900 0.951 . S
H883 C902 0.951 . S
H884 C904 0.950 . S
H885 C905 0.950 . S
H886 C907 0.950 . S
H887 C910 0.950 . S
H888 C911 0.950 . S
H889 C913 0.950 . S
H890 C914 0.950 . S
H891 C915 0.951 . S
H892 C917 0.951 . S
H893 C919 0.950 . S
H894 C920 0.950 . S
H895 C922 0.950 . S
H896 C925 0.950 . S
H897 C926 0.950 . S
H898 C928 0.950 . S
H899 C929 0.950 . S
C900 H882 0.951 . S
C900 C901 1.366 . S
C900 C902 1.388 . S
C901 C900 1.366 . S
C901 C905 1.385 . S
C902 H883 0.951 . S
C902 C900 1.388 . S
C902 C903 1.366 . S
C903 C902 1.366 . S
C903 C904 1.414 . S
C903 C906 1.499 . S
C904 H884 0.950 . S
C904 C903 1.414 . S
C904 C905 1.374 . S
C905 H885 0.950 . S
C905 C901 1.385 . S
C905 C904 1.374 . S
C906 C903 1.499 . S
C906 C907 1.373 . S
C906 C908 1.389 . S
C907 H886 0.950 . S
C907 C906 1.373 . S
C907 C923 1.377 . S
C908 C906 1.389 . S
C908 C909 1.524 . S
C908 C922 1.377 . S
C909 C908 1.524 . S
C909 C910 1.397 . S
C909 C914 1.363 . S
C910 H887 0.950 . S
C910 C909 1.397 . S
C910 C911 1.334 . S
C911 H888 0.950 . S
C911 C910 1.334 . S
C911 C912 1.287 . S
C912 C911 1.287 . S
C912 C913 1.524 . S
C912 H931 0.913 . S
C913 H889 0.950 . S
C913 C912 1.524 . S
C913 C914 1.415 . S
C914 H890 0.950 . S
C914 C909 1.363 . S
C914 C913 1.415 . S
C915 H891 0.951 . S
C915 C916 1.366 . S
C915 C917 1.388 . S
C916 C915 1.366 . S
C916 C920 1.385 . S
C917 H892 0.951 . S
C917 C915 1.388 . S
C917 C918 1.366 . S
C918 C917 1.366 . S
C918 C919 1.414 . S
C918 C921 1.499 . S
C919 H893 0.950 . S
C919 C918 1.414 . S
C919 C920 1.374 . S
C920 H894 0.950 . S
C920 C916 1.385 . S
C920 C919 1.374 . S
C921 C918 1.499 . S
C921 C922 1.373 . S
C921 C923 1.389 . S
C922 H895 0.950 . S
C922 C908 1.377 . S
C922 C921 1.373 . S
C923 C907 1.377 . S
C923 C921 1.389 . S
C923 C924 1.524 . S
C924 C923 1.524 . S
C924 C925 1.397 . S
C924 C929 1.363 . S
C925 H896 0.950 . S
C925 C924 1.397 . S
C925 C926 1.334 . S
C926 H897 0.950 . S
C926 C925 1.334 . S
C926 C927 1.287 . S
C927 C926 1.287 . S
C927 C928 1.524 . S
C927 H930 0.999 . S
C928 H898 0.950 . S
C928 C927 1.524 . S
C928 C929 1.415 . S
C929 H899 0.950 . S
C929 C924 1.363 . S
C929 C928 1.415 . S
H930 C927 0.999 . S
H931 C912 0.913 . S
H932 C950 0.951 . S
H933 C952 0.951 . S
H934 C954 0.950 . S
H935 C955 0.950 . S
H936 C957 0.950 . S
H937 C960 0.950 . S
H938 C961 0.950 . S
H939 C963 0.950 . S
H940 C964 0.950 . S
H941 C965 0.951 . S
H942 C967 0.951 . S
H943 C969 0.950 . S
H944 C970 0.950 . S
H945 C972 0.950 . S
H946 C975 0.950 . S
H947 C976 0.950 . S
H948 C978 0.950 . S
H949 C979 0.950 . S
C950 H932 0.951 . S
C950 C951 1.366 . S
C950 C952 1.388 . S
C951 C950 1.366 . S
C951 C955 1.385 . S
C952 H933 0.951 . S
C952 C950 1.388 . S
C952 C953 1.366 . S
C953 C952 1.366 . S
C953 C954 1.414 . S
C953 C956 1.499 . S
C954 H934 0.950 . S
C954 C953 1.414 . S
C954 C955 1.374 . S
C955 H935 0.950 . S
C955 C951 1.385 . S
C955 C954 1.374 . S
C956 C953 1.499 . S
C956 C957 1.373 . S
C956 C958 1.389 . S
C957 H936 0.950 . S
C957 C956 1.373 . S
C957 C973 1.377 1_655 S
C958 C956 1.389 . S
C958 C959 1.524 . S
C958 C972 1.377 1_655 S
C959 C958 1.524 . S
C959 C960 1.397 . S
C959 C964 1.363 . S
C960 H937 0.950 . S
C960 C959 1.397 . S
C960 C961 1.334 . S
C961 H938 0.950 . S
C961 C960 1.334 . S
C961 C962 1.287 . S
C962 C961 1.287 . S
C962 C963 1.524 . S
C962 H981 0.913 . S
C963 H939 0.950 . S
C963 C962 1.524 . S
C963 C964 1.415 . S
C964 H940 0.950 . S
C964 C959 1.363 . S
C964 C963 1.415 . S
C965 H941 0.951 . S
C965 C966 1.366 . S
C965 C967 1.388 . S
C966 C965 1.366 . S
C966 C970 1.385 . S
C967 H942 0.951 . S
C967 C965 1.388 . S
C967 C968 1.366 . S
C968 C967 1.366 . S
C968 C969 1.414 . S
C968 C971 1.499 . S
C969 H943 0.950 . S
C969 C968 1.414 . S
C969 C970 1.374 . S
C970 H944 0.950 . S
C970 C966 1.385 . S
C970 C969 1.374 . S
C971 C968 1.499 . S
C971 C972 1.373 . S
C971 C973 1.389 . S
C972 H945 0.950 . S
C972 C958 1.377 1_455 S
C972 C971 1.373 . S
C973 C957 1.377 1_455 S
C973 C971 1.389 . S
C973 C974 1.524 . S
C974 C973 1.524 . S
C974 C975 1.397 . S
C974 C979 1.363 . S
C975 H946 0.950 . S
C975 C974 1.397 . S
C975 C976 1.334 . S
C976 H947 0.950 . S
C976 C975 1.334 . S
C976 C977 1.287 . S
C977 C976 1.287 . S
C977 C978 1.524 . S
C977 H980 0.999 . S
C978 H948 0.950 . S
C978 C977 1.524 . S
C978 C979 1.415 . S
C979 H949 0.950 . S
C979 C974 1.363 . S
C979 C978 1.415 . S
H980 C977 0.999 . S
H981 C962 0.913 . S
H982 C1000 0.951 . S
H983 C1002 0.951 . S
H984 C1004 0.950 . S
H985 C1005 0.950 . S
H986 C1007 0.949 1_545 S
H987 C1010 0.885 1_554 S
H988 C1011 0.950 1_554 S
H989 C1013 0.950 . S
H990 C1014 0.950 . S
H991 C1015 0.951 . S
H992 C1017 0.951 . S
H993 C1019 0.950 . S
H994 C1020 0.950 . S
H995 C1022 0.949 1_565 S
H996 C1025 0.885 1_556 S
H997 C1026 0.950 1_556 S
H998 C1028 0.950 . S
H999 C1029 0.950 . S
C1000 H982 0.951 . S
C1000 C1001 1.366 . S
C1000 C1002 1.388 . S
C1001 C1000 1.366 . S
C1001 C1005 1.385 . S
C1002 H983 0.951 . S
C1002 C1000 1.388 . S
C1002 C1003 1.366 . S
C1003 C1002 1.366 . S
C1003 C1004 1.414 . S
C1003 C1006 1.499 . S
C1004 H984 0.950 . S
C1004 C1003 1.414 . S
C1004 C1005 1.374 . S
C1005 H985 0.950 . S
C1005 C1001 1.385 . S
C1005 C1004 1.374 . S
C1006 C1003 1.499 . S
C1006 C1007 1.376 . S
C1006 C1008 1.389 1_554 S
C1007 H986 0.949 1_565 S
C1007 C1006 1.376 . S
C1007 C1023 1.375 1_565 S
C1008 C1006 1.389 1_556 S
C1008 C1009 1.524 . S
C1008 C1022 1.375 1_565 S
C1009 C1008 1.524 . S
C1009 C1010 1.441 . S
C1009 C1014 1.363 . S
C1010 H987 0.885 1_556 S
C1010 C1009 1.441 . S
C1010 C1011 1.356 . S
C1011 H988 0.950 1_556 S
C1011 C1010 1.356 . S
C1011 C1012 1.287 . S
C1012 C1011 1.287 . S
C1012 C1013 1.524 . S
C1012 H1031 0.913 . S
C1013 H989 0.950 . S
C1013 C1012 1.524 . S
C1013 C1014 1.415 . S
C1014 H990 0.950 . S
C1014 C1009 1.363 . S
C1014 C1013 1.415 . S
C1015 H991 0.951 . S
C1015 C1016 1.366 . S
C1015 C1017 1.388 . S
C1016 C1015 1.366 . S
C1016 C1020 1.385 . S
C1017 H992 0.951 . S
C1017 C1015 1.388 . S
C1017 C1018 1.366 . S
C1018 C1017 1.366 . S
C1018 C1019 1.414 . S
C1018 C1021 1.499 . S
C1019 H993 0.950 . S
C1019 C1018 1.414 . S
C1019 C1020 1.374 . S
C1020 H994 0.950 . S
C1020 C1016 1.385 . S
C1020 C1019 1.374 . S
C1021 C1018 1.499 . S
C1021 C1022 1.375 . S
C1021 C1023 1.389 1_556 S
C1022 H995 0.949 1_545 S
C1022 C1008 1.375 1_545 S
C1022 C1021 1.375 . S
C1023 C1007 1.375 1_545 S
C1023 C1021 1.389 1_554 S
C1023 C1024 1.524 . S
C1024 C1023 1.524 . S
C1024 C1025 1.442 . S
C1024 C1029 1.363 . S
C1025 H996 0.885 1_554 S
C1025 C1024 1.442 . S
C1025 C1026 1.356 . S
C1026 H997 0.950 1_554 S
C1026 C1025 1.356 . S
C1026 C1027 1.287 . S
C1027 C1026 1.287 . S
C1027 C1028 1.524 . S
C1027 H1030 0.999 . S
C1028 H998 0.950 . S
C1028 C1027 1.524 . S
C1028 C1029 1.415 . S
C1029 H999 0.950 . S
C1029 C1024 1.363 . S
C1029 C1028 1.415 . S
H1030 C1027 0.999 . S
H1031 C1012 0.913 . S
H1032 C1050 0.951 . S
H1033 C1052 0.951 . S
H1034 C1054 0.950 . S
H1035 C1055 0.950 . S
H1036 C1057 0.950 . S
H1037 C1060 0.950 . S
H1038 C1061 0.950 . S
H1039 C1063 0.950 . S
H1040 C1064 0.950 . S
H1041 C1065 0.951 . S
H1042 C1067 0.951 1_554 S
H1043 C1069 0.950 . S
H1044 C1070 0.950 . S
H1045 C1072 0.950 1_556 S
H1046 C1075 0.950 . S
H1047 C1076 0.950 . S
H1048 C1078 0.950 . S
H1049 C1079 0.950 . S
C1050 H1032 0.951 . S
C1050 C1051 1.366 . S
C1050 C1052 1.388 . S
C1051 C1050 1.366 . S
C1051 C1055 1.385 . S
C1052 H1033 0.951 . S
C1052 C1050 1.388 . S
C1052 C1053 1.366 . S
C1053 C1052 1.366 . S
C1053 C1054 1.414 . S
C1053 C1056 1.499 . S
C1054 H1034 0.950 . S
C1054 C1053 1.414 . S
C1054 C1055 1.374 . S
C1055 H1035 0.950 . S
C1055 C1051 1.385 . S
C1055 C1054 1.374 . S
C1056 C1053 1.499 . S
C1056 C1057 1.373 . S
C1056 C1058 1.389 . S
C1057 H1036 0.950 . S
C1057 C1056 1.373 . S
C1057 C1073 1.377 . S
C1058 C1056 1.389 . S
C1058 C1059 1.524 . S
C1058 C1072 1.377 . S
C1059 C1058 1.524 . S
C1059 C1060 1.397 . S
C1059 C1064 1.363 1_554 S
C1060 H1037 0.950 . S
C1060 C1059 1.397 . S
C1060 C1061 1.334 . S
C1061 H1038 0.950 . S
C1061 C1060 1.334 . S
C1061 C1062 1.287 . S
C1062 C1061 1.287 . S
C1062 C1063 1.524 1_554 S
C1062 H1081 0.913 . S
C1063 H1039 0.950 . S
C1063 C1062 1.524 1_556 S
C1063 C1064 1.415 . S
C1064 H1040 0.950 . S
C1064 C1059 1.363 1_556 S
C1064 C1063 1.415 . S
C1065 H1041 0.951 . S
C1065 C1066 1.366 . S
C1065 C1067 1.388 . S
C1066 C1065 1.366 . S
C1066 C1070 1.385 . S
C1067 H1042 0.951 1_556 S
C1067 C1065 1.388 . S
C1067 C1068 1.366 . S
C1068 C1067 1.366 . S
C1068 C1069 1.414 . S
C1068 C1071 1.499 1_556 S
C1069 H1043 0.950 . S
C1069 C1068 1.414 . S
C1069 C1070 1.374 . S
C1070 H1044 0.950 . S
C1070 C1066 1.385 . S
C1070 C1069 1.374 . S
C1071 C1068 1.499 1_554 S
C1071 C1072 1.373 . S
C1071 C1073 1.389 . S
C1072 H1045 0.950 1_554 S
C1072 C1058 1.377 . S
C1072 C1071 1.373 . S
C1073 C1057 1.377 . S
C1073 C1071 1.389 . S
C1073 C1074 1.524 . S
C1074 C1073 1.524 . S
C1074 C1075 1.397 . S
C1074 C1079 1.363 . S
C1075 H1046 0.950 . S
C1075 C1074 1.397 . S
C1075 C1076 1.334 . S
C1076 H1047 0.950 . S
C1076 C1075 1.334 . S
C1076 C1077 1.287 . S
C1077 C1076 1.287 . S
C1077 C1078 1.524 . S
C1077 H1080 0.999 . S
C1078 H1048 0.950 . S
C1078 C1077 1.524 . S
C1078 C1079 1.415 . S
C1079 H1049 0.950 . S
C1079 C1074 1.363 . S
C1079 C1078 1.415 . S
H1080 C1077 0.999 . S
H1081 C1062 0.913 . S
H1082 C1100 0.951 . S
H1083 C1102 0.951 . S
H1084 C1104 0.950 . S
H1085 C1105 0.950 . S
H1086 C1107 0.950 . S
H1087 C1110 0.950 . S
H1088 C1111 0.950 . S
H1089 C1113 0.950 . S
H1090 C1114 0.950 . S
H1091 C1115 0.951 . S
H1092 C1117 0.951 . S
H1093 C1119 0.950 . S
H1094 C1120 0.950 . S
H1095 C1122 0.950 . S
H1096 C1125 0.950 . S
H1097 C1126 0.950 . S
H1098 C1128 0.950 . S
H1099 C1129 0.950 . S
C1100 H1082 0.951 . S
C1100 C1101 1.366 . S
C1100 C1102 1.388 . S
C1101 C1100 1.366 . S
C1101 C1105 1.385 . S
C1102 H1083 0.951 . S
C1102 C1100 1.388 . S
C1102 C1103 1.366 . S
C1103 C1102 1.366 . S
C1103 C1104 1.414 . S
C1103 C1106 1.499 . S
C1104 H1084 0.950 . S
C1104 C1103 1.414 . S
C1104 C1105 1.374 . S
C1105 H1085 0.950 . S
C1105 C1101 1.385 . S
C1105 C1104 1.374 . S
C1106 C1103 1.499 . S
C1106 C1107 1.373 . S
C1106 C1108 1.389 . S
C1107 H1086 0.950 . S
C1107 C1106 1.373 . S
C1107 C1123 1.377 1_655 S
C1108 C1106 1.389 . S
C1108 C1109 1.524 . S
C1108 C1122 1.377 . S
C1109 C1108 1.524 . S
C1109 C1110 1.397 . S
C1109 C1114 1.363 . S
C1110 H1087 0.950 . S
C1110 C1109 1.397 . S
C1110 C1111 1.334 . S
C1111 H1088 0.950 . S
C1111 C1110 1.334 . S
C1111 C1112 1.287 . S
C1112 C1111 1.287 . S
C1112 C1113 1.524 . S
C1112 H1131 0.913 . S
C1113 H1089 0.950 . S
C1113 C1112 1.524 . S
C1113 C1114 1.415 . S
C1114 H1090 0.950 . S
C1114 C1109 1.363 . S
C1114 C1113 1.415 . S
C1115 H1091 0.951 . S
C1115 C1116 1.366 . S
C1115 C1117 1.388 . S
C1116 C1115 1.366 . S
C1116 C1120 1.385 . S
C1117 H1092 0.951 . S
C1117 C1115 1.388 . S
C1117 C1118 1.366 . S
C1118 C1117 1.366 . S
C1118 C1119 1.414 . S
C1118 C1121 1.490 1_455 S
C1119 H1093 0.950 . S
C1119 C1118 1.414 . S
C1119 C1120 1.374 . S
C1120 H1094 0.950 . S
C1120 C1116 1.385 . S
C1120 C1119 1.374 . S
C1121 C1118 1.490 1_655 S
C1121 C1122 1.386 . S
C1121 C1123 1.385 1_655 S
C1122 H1095 0.950 . S
C1122 C1108 1.377 . S
C1122 C1121 1.386 . S
C1123 C1107 1.377 1_455 S
C1123 C1121 1.385 1_455 S
C1123 C1124 1.524 . S
C1124 C1123 1.524 . S
C1124 C1125 1.397 . S
C1124 C1129 1.363 . S
C1125 H1096 0.950 . S
C1125 C1124 1.397 . S
C1125 C1126 1.334 . S
C1126 H1097 0.950 . S
C1126 C1125 1.334 . S
C1126 C1127 1.287 . S
C1127 C1126 1.287 . S
C1127 C1128 1.524 . S
C1127 H1130 0.999 . S
C1128 H1098 0.950 . S
C1128 C1127 1.524 . S
C1128 C1129 1.415 . S
C1129 H1099 0.950 . S
C1129 C1124 1.363 . S
C1129 C1128 1.415 . S
H1130 C1127 0.999 . S
H1131 C1112 0.913 . S
H1132 C1150 0.951 . S
H1133 C1152 0.951 . S
H1134 C1154 0.950 . S
H1135 C1155 0.950 . S
H1136 C1157 0.950 . S
H1137 C1160 0.950 . S
H1138 C1161 0.950 . S
H1139 C1163 0.950 . S
H1140 C1164 0.950 . S
H1141 C1165 0.951 . S
H1142 C1167 0.951 . S
H1143 C1169 0.950 . S
H1144 C1170 0.950 . S
H1145 C1172 0.950 . S
H1146 C1175 0.950 . S
H1147 C1176 0.950 . S
H1148 C1178 0.950 . S
H1149 C1179 0.950 . S
C1150 H1132 0.951 . S
C1150 C1151 1.366 . S
C1150 C1152 1.388 . S
C1151 C1150 1.366 . S
C1151 C1155 1.385 . S
C1152 H1133 0.951 . S
C1152 C1150 1.388 . S
C1152 C1153 1.366 . S
C1153 C1152 1.366 . S
C1153 C1154 1.414 . S
C1153 C1156 1.500 1_545 S
C1154 H1134 0.950 . S
C1154 C1153 1.414 . S
C1154 C1155 1.374 . S
C1155 H1135 0.950 . S
C1155 C1151 1.385 . S
C1155 C1154 1.374 . S
C1156 C1153 1.500 1_565 S
C1156 C1157 1.372 . S
C1156 C1158 1.390 1_565 S
C1157 H1136 0.950 . S
C1157 C1156 1.372 . S
C1157 C1173 1.377 . S
C1158 C1156 1.390 1_545 S
C1158 C1159 1.524 . S
C1158 C1172 1.377 1_545 S
C1159 C1158 1.524 . S
C1159 C1160 1.397 . S
C1159 C1164 1.363 . S
C1160 H1137 0.950 . S
C1160 C1159 1.397 . S
C1160 C1161 1.334 . S
C1161 H1138 0.950 . S
C1161 C1160 1.334 . S
C1161 C1162 1.287 . S
C1162 C1161 1.287 . S
C1162 C1163 1.524 . S
C1162 H1181 0.913 . S
C1163 H1139 0.950 . S
C1163 C1162 1.524 . S
C1163 C1164 1.415 . S
C1164 H1140 0.950 . S
C1164 C1159 1.363 . S
C1164 C1163 1.415 . S
C1165 H1141 0.951 . S
C1165 C1166 1.366 . S
C1165 C1167 1.388 . S
C1166 C1165 1.366 . S
C1166 C1170 1.385 . S
C1167 H1142 0.951 . S
C1167 C1165 1.388 . S
C1167 C1168 1.366 . S
C1168 C1167 1.366 . S
C1168 C1169 1.414 . S
C1168 C1171 1.499 . S
C1169 H1143 0.950 . S
C1169 C1168 1.414 . S
C1169 C1170 1.374 . S
C1170 H1144 0.950 . S
C1170 C1166 1.385 . S
C1170 C1169 1.374 . S
C1171 C1168 1.499 . S
C1171 C1172 1.373 . S
C1171 C1173 1.389 . S
C1172 H1145 0.950 . S
C1172 C1158 1.377 1_565 S
C1172 C1171 1.373 . S
C1173 C1157 1.377 . S
C1173 C1171 1.389 . S
C1173 C1174 1.524 . S
C1174 C1173 1.524 . S
C1174 C1175 1.397 . S
C1174 C1179 1.363 . S
C1175 H1146 0.950 . S
C1175 C1174 1.397 . S
C1175 C1176 1.334 . S
C1176 H1147 0.950 . S
C1176 C1175 1.334 . S
C1176 C1177 1.287 . S
C1177 C1176 1.287 . S
C1177 C1178 1.524 . S
C1177 H1180 0.999 . S
C1178 H1148 0.950 . S
C1178 C1177 1.524 . S
C1178 C1179 1.415 . S
C1179 H1149 0.950 . S
C1179 C1174 1.363 . S
C1179 C1178 1.415 . S
H1180 C1177 0.999 . S
H1181 C1162 0.913 . S
H1182 C1200 0.951 . S
H1183 C1202 0.951 . S
H1184 C1204 0.950 . S
H1185 C1205 0.950 . S
H1186 C1207 0.950 . S
H1187 C1210 0.950 . S
H1188 C1211 0.950 . S
H1189 C1213 0.950 . S
H1190 C1214 0.950 . S
H1191 C1215 0.951 . S
H1192 C1217 0.951 . S
H1193 C1219 0.950 . S
H1194 C1220 0.950 . S
H1195 C1222 0.950 . S
H1196 C1225 0.950 . S
H1197 C1226 0.950 . S
H1198 C1228 0.950 . S
H1199 C1229 0.950 . S
C1200 H1182 0.951 . S
C1200 C1201 1.366 . S
C1200 C1202 1.388 . S
C1201 C1200 1.366 . S
C1201 C1205 1.385 . S
C1202 H1183 0.951 . S
C1202 C1200 1.388 . S
C1202 C1203 1.366 . S
C1203 C1202 1.366 . S
C1203 C1204 1.414 . S
C1203 C1206 1.499 . S
C1204 H1184 0.950 . S
C1204 C1203 1.414 . S
C1204 C1205 1.374 . S
C1205 H1185 0.950 . S
C1205 C1201 1.385 . S
C1205 C1204 1.374 . S
C1206 C1203 1.499 . S
C1206 C1207 1.373 . S
C1206 C1208 1.389 . S
C1207 H1186 0.950 . S
C1207 C1206 1.373 . S
C1207 C1223 1.377 . S
C1208 C1206 1.389 . S
C1208 C1209 1.524 . S
C1208 C1222 1.377 . S
C1209 C1208 1.524 . S
C1209 C1210 1.397 . S
C1209 C1214 1.363 . S
C1210 H1187 0.950 . S
C1210 C1209 1.397 . S
C1210 C1211 1.334 . S
C1211 H1188 0.950 . S
C1211 C1210 1.334 . S
C1211 C1212 1.287 . S
C1212 C1211 1.287 . S
C1212 C1213 1.524 . S
C1212 H1231 0.913 . S
C1213 H1189 0.950 . S
C1213 C1212 1.524 . S
C1213 C1214 1.415 . S
C1214 H1190 0.950 . S
C1214 C1209 1.363 . S
C1214 C1213 1.415 . S
C1215 H1191 0.951 . S
C1215 C1216 1.366 . S
C1215 C1217 1.388 . S
C1216 C1215 1.366 . S
C1216 C1220 1.385 . S
C1217 H1192 0.951 . S
C1217 C1215 1.388 . S
C1217 C1218 1.366 . S
C1218 C1217 1.366 . S
C1218 C1219 1.414 . S
C1218 C1221 1.499 . S
C1219 H1193 0.950 . S
C1219 C1218 1.414 . S
C1219 C1220 1.374 . S
C1220 H1194 0.950 . S
C1220 C1216 1.385 . S
C1220 C1219 1.374 . S
C1221 C1218 1.499 . S
C1221 C1222 1.373 . S
C1221 C1223 1.389 . S
C1222 H1195 0.950 . S
C1222 C1208 1.377 . S
C1222 C1221 1.373 . S
C1223 C1207 1.377 . S
C1223 C1221 1.389 . S
C1223 C1224 1.524 . S
C1224 C1223 1.524 . S
C1224 C1225 1.397 . S
C1224 C1229 1.363 . S
C1225 H1196 0.950 . S
C1225 C1224 1.397 . S
C1225 C1226 1.334 . S
C1226 H1197 0.950 . S
C1226 C1225 1.334 . S
C1226 C1227 1.287 . S
C1227 C1226 1.287 . S
C1227 C1228 1.524 . S
C1227 H1230 0.999 . S
C1228 H1198 0.950 . S
C1228 C1227 1.524 . S
C1228 C1229 1.415 . S
C1229 H1199 0.950 . S
C1229 C1224 1.363 . S
C1229 C1228 1.415 . S
H1230 C1227 0.999 . S
H1231 C1212 0.913 . S
H1232 C1250 0.951 . S
H1233 C1252 0.951 . S
H1234 C1254 0.950 . S
H1235 C1255 0.950 . S
H1236 C1257 0.950 . S
H1237 C1260 0.950 . S
H1238 C1261 0.950 . S
H1239 C1263 0.950 . S
H1240 C1264 0.950 . S
H1241 C1265 0.951 . S
H1242 C1267 0.951 1_455 S
H1243 C1269 0.950 . S
H1244 C1270 0.950 . S
H1245 C1272 0.950 . S
H1246 C1275 0.950 1_655 S
H1247 C1276 0.950 1_655 S
H1248 C1278 0.950 . S
H1249 C1279 0.950 . S
C1250 H1232 0.951 . S
C1250 C1251 1.366 . S
C1250 C1252 1.388 . S
C1251 C1250 1.366 . S
C1251 C1255 1.385 . S
C1252 H1233 0.951 . S
C1252 C1250 1.388 . S
C1252 C1253 1.366 . S
C1253 C1252 1.366 . S
C1253 C1254 1.414 . S
C1253 C1256 1.499 . S
C1254 H1234 0.950 . S
C1254 C1253 1.414 . S
C1254 C1255 1.374 . S
C1255 H1235 0.950 . S
C1255 C1251 1.385 . S
C1255 C1254 1.374 . S
C1256 C1253 1.499 . S
C1256 C1257 1.373 . S
C1256 C1258 1.389 . S
C1257 H1236 0.950 . S
C1257 C1256 1.373 . S
C1257 C1273 1.377 . S
C1258 C1256 1.389 . S
C1258 C1259 1.524 . S
C1258 C1272 1.377 1_455 S
C1259 C1258 1.524 . S
C1259 C1260 1.397 . S
C1259 C1264 1.363 1_455 S
C1260 H1237 0.950 . S
C1260 C1259 1.397 . S
C1260 C1261 1.334 . S
C1261 H1238 0.950 . S
C1261 C1260 1.334 . S
C1261 C1262 1.287 . S
C1262 C1261 1.287 . S
C1262 C1263 1.524 1_455 S
C1262 H1281 0.913 . S
C1263 H1239 0.950 . S
C1263 C1262 1.524 1_655 S
C1263 C1264 1.415 . S
C1264 H1240 0.950 . S
C1264 C1259 1.363 1_655 S
C1264 C1263 1.415 . S
C1265 H1241 0.951 . S
C1265 C1266 1.366 . S
C1265 C1267 1.388 . S
C1266 C1265 1.366 . S
C1266 C1270 1.385 . S
C1267 H1242 0.951 1_655 S
C1267 C1265 1.388 . S
C1267 C1268 1.366 . S
C1268 C1267 1.366 . S
C1268 C1269 1.414 . S
C1268 C1271 1.492 1_655 S
C1269 H1243 0.950 . S
C1269 C1268 1.414 . S
C1269 C1270 1.374 . S
C1270 H1244 0.950 . S
C1270 C1266 1.385 . S
C1270 C1269 1.374 . S
C1271 C1268 1.492 1_455 S
C1271 C1272 1.375 1_455 S
C1271 C1273 1.396 . S
C1272 H1245 0.950 . S
C1272 C1258 1.377 1_655 S
C1272 C1271 1.375 1_655 S
C1273 C1257 1.377 . S
C1273 C1271 1.396 . S
C1273 C1274 1.524 . S
C1274 C1273 1.524 . S
C1274 C1275 1.397 . S
C1274 C1279 1.363 . S
C1275 H1246 0.950 1_455 S
C1275 C1274 1.397 . S
C1275 C1276 1.334 . S
C1276 H1247 0.950 1_455 S
C1276 C1275 1.334 . S
C1276 C1277 1.287 . S
C1277 C1276 1.287 . S
C1277 C1278 1.524 . S
C1277 H1280 0.999 . S
C1278 H1248 0.950 . S
C1278 C1277 1.524 . S
C1278 C1279 1.415 . S
C1279 H1249 0.950 . S
C1279 C1274 1.363 . S
C1279 C1278 1.415 . S
H1280 C1277 0.999 . S
H1281 C1262 0.913 . S
H1282 C1300 0.951 . S
H1283 C1302 0.951 . S
H1284 C1304 0.950 . S
H1285 C1305 0.950 . S
H1286 C1307 0.950 . S
H1287 C1310 0.950 . S
H1288 C1311 0.950 . S
H1289 C1313 0.950 . S
H1290 C1314 0.950 . S
H1291 C1315 0.951 . S
H1292 C1317 0.951 . S
H1293 C1319 0.950 . S
H1294 C1320 0.950 . S
H1295 C1322 0.950 . S
H1296 C1325 0.950 . S
H1297 C1326 0.950 . S
H1298 C1328 0.950 . S
H1299 C1329 0.950 . S
C1300 H1282 0.951 . S
C1300 C1301 1.366 . S
C1300 C1302 1.388 . S
C1301 C1300 1.366 . S
C1301 C1305 1.385 . S
C1302 H1283 0.951 . S
C1302 C1300 1.388 . S
C1302 C1303 1.366 . S
C1303 C1302 1.366 . S
C1303 C1304 1.414 . S
C1303 C1306 1.499 . S
C1304 H1284 0.950 . S
C1304 C1303 1.414 . S
C1304 C1305 1.374 . S
C1305 H1285 0.950 . S
C1305 C1301 1.385 . S
C1305 C1304 1.374 . S
C1306 C1303 1.499 . S
C1306 C1307 1.373 . S
C1306 C1308 1.389 . S
C1307 H1286 0.950 . S
C1307 C1306 1.373 . S
C1307 C1323 1.377 1_545 S
C1308 C1306 1.389 . S
C1308 C1309 1.524 . S
C1308 C1322 1.377 . S
C1309 C1308 1.524 . S
C1309 C1310 1.397 . S
C1309 C1314 1.363 . S
C1310 H1287 0.950 . S
C1310 C1309 1.397 . S
C1310 C1311 1.334 . S
C1311 H1288 0.950 . S
C1311 C1310 1.334 . S
C1311 C1312 1.287 . S
C1312 C1311 1.287 . S
C1312 C1313 1.524 . S
C1312 H1331 0.913 . S
C1313 H1289 0.950 . S
C1313 C1312 1.524 . S
C1313 C1314 1.415 . S
C1314 H1290 0.950 . S
C1314 C1309 1.363 . S
C1314 C1313 1.415 . S
C1315 H1291 0.951 . S
C1315 C1316 1.366 . S
C1315 C1317 1.388 . S
C1316 C1315 1.366 . S
C1316 C1320 1.385 . S
C1317 H1292 0.951 . S
C1317 C1315 1.388 . S
C1317 C1318 1.366 . S
C1318 C1317 1.366 . S
C1318 C1319 1.414 . S
C1318 C1321 1.486 1_565 S
C1319 H1293 0.950 . S
C1319 C1318 1.414 . S
C1319 C1320 1.374 . S
C1320 H1294 0.950 . S
C1320 C1316 1.385 . S
C1320 C1319 1.374 . S
C1321 C1318 1.486 1_545 S
C1321 C1322 1.391 . S
C1321 C1323 1.385 1_545 S
C1322 H1295 0.950 . S
C1322 C1308 1.377 . S
C1322 C1321 1.391 . S
C1323 C1307 1.377 1_565 S
C1323 C1321 1.385 1_565 S
C1323 C1324 1.524 . S
C1324 C1323 1.524 . S
C1324 C1325 1.397 . S
C1324 C1329 1.363 . S
C1325 H1296 0.950 . S
C1325 C1324 1.397 . S
C1325 C1326 1.334 . S
C1326 H1297 0.950 . S
C1326 C1325 1.334 . S
C1326 C1327 1.287 . S
C1327 C1326 1.287 . S
C1327 C1328 1.524 . S
C1327 H1330 0.999 . S
C1328 H1298 0.950 . S
C1328 C1327 1.524 . S
C1328 C1329 1.415 . S
C1329 H1299 0.950 . S
C1329 C1324 1.363 . S
C1329 C1328 1.415 . S
H1330 C1327 0.999 . S
H1331 C1312 0.913 . S
H1332 C1350 0.951 . S
H1333 C1352 0.951 . S
H1334 C1354 0.950 . S
H1335 C1355 0.950 . S
H1336 C1357 0.950 . S
H1337 C1360 0.950 . S
H1338 C1361 0.950 . S
H1339 C1363 0.950 . S
H1340 C1364 0.950 . S
H1341 C1365 0.951 . S
H1342 C1367 0.951 . S
H1343 C1369 0.950 . S
H1344 C1370 0.950 . S
H1345 C1372 0.950 . S
H1346 C1375 0.950 . S
H1347 C1376 0.950 . S
H1348 C1378 0.950 . S
H1349 C1379 0.950 . S
C1350 H1332 0.951 . S
C1350 C1351 1.366 . S
C1350 C1352 1.388 . S
C1351 C1350 1.366 . S
C1351 C1355 1.385 . S
C1352 H1333 0.951 . S
C1352 C1350 1.388 . S
C1352 C1353 1.366 . S
C1353 C1352 1.366 . S
C1353 C1354 1.414 . S
C1353 C1356 1.499 . S
C1354 H1334 0.950 . S
C1354 C1353 1.414 . S
C1354 C1355 1.374 . S
C1355 H1335 0.950 . S
C1355 C1351 1.385 . S
C1355 C1354 1.374 . S
C1356 C1353 1.499 . S
C1356 C1357 1.373 . S
C1356 C1358 1.389 . S
C1357 H1336 0.950 . S
C1357 C1356 1.373 . S
C1357 C1373 1.377 . S
C1358 C1356 1.389 . S
C1358 C1359 1.524 . S
C1358 C1372 1.377 . S
C1359 C1358 1.524 . S
C1359 C1360 1.397 . S
C1359 C1364 1.363 . S
C1360 H1337 0.950 . S
C1360 C1359 1.397 . S
C1360 C1361 1.334 . S
C1361 H1338 0.950 . S
C1361 C1360 1.334 . S
C1361 C1362 1.287 . S
C1362 C1361 1.287 . S
C1362 C1363 1.524 . S
C1362 H1381 0.913 . S
C1363 H1339 0.950 . S
C1363 C1362 1.524 . S
C1363 C1364 1.415 . S
C1364 H1340 0.950 . S
C1364 C1359 1.363 . S
C1364 C1363 1.415 . S
C1365 H1341 0.951 . S
C1365 C1366 1.366 . S
C1365 C1367 1.388 . S
C1366 C1365 1.366 . S
C1366 C1370 1.385 . S
C1367 H1342 0.951 . S
C1367 C1365 1.388 . S
C1367 C1368 1.366 . S
C1368 C1367 1.366 . S
C1368 C1369 1.414 . S
C1368 C1371 1.499 . S
C1369 H1343 0.950 . S
C1369 C1368 1.414 . S
C1369 C1370 1.374 . S
C1370 H1344 0.950 . S
C1370 C1366 1.385 . S
C1370 C1369 1.374 . S
C1371 C1368 1.499 . S
C1371 C1372 1.373 . S
C1371 C1373 1.389 . S
C1372 H1345 0.950 . S
C1372 C1358 1.377 . S
C1372 C1371 1.373 . S
C1373 C1357 1.377 . S
C1373 C1371 1.389 . S
C1373 C1374 1.524 . S
C1374 C1373 1.524 . S
C1374 C1375 1.397 . S
C1374 C1379 1.363 . S
C1375 H1346 0.950 . S
C1375 C1374 1.397 . S
C1375 C1376 1.334 . S
C1376 H1347 0.950 . S
C1376 C1375 1.334 . S
C1376 C1377 1.287 . S
C1377 C1376 1.287 . S
C1377 C1378 1.524 . S
C1377 H1380 0.999 . S
C1378 H1348 0.950 . S
C1378 C1377 1.524 . S
C1378 C1379 1.415 . S
C1379 H1349 0.950 . S
C1379 C1374 1.363 . S
C1379 C1378 1.415 . S
H1380 C1377 0.999 . S
H1381 C1362 0.913 . S
H1382 C1400 0.951 . S
H1383 C1402 0.951 . S
H1384 C1404 0.950 . S
H1385 C1405 0.950 . S
H1386 C1407 0.950 . S
H1387 C1410 0.950 . S
H1388 C1411 0.950 . S
H1389 C1413 0.950 . S
H1390 C1414 0.950 . S
H1391 C1415 0.951 . S
H1392 C1417 0.951 1_556 S
H1393 C1419 0.950 1_655 S
H1394 C1420 0.950 . S
H1395 C1422 0.950 . S
H1396 C1425 0.950 . S
H1397 C1426 0.950 . S
H1398 C1428 0.950 . S
H1399 C1429 0.950 . S
C1400 H1382 0.951 . S
C1400 C1401 1.366 . S
C1400 C1402 1.388 . S
C1401 C1400 1.366 . S
C1401 C1405 1.385 . S
C1402 H1383 0.951 . S
C1402 C1400 1.388 . S
C1402 C1403 1.366 . S
C1403 C1402 1.366 . S
C1403 C1404 1.414 . S
C1403 C1406 1.499 . S
C1404 H1384 0.950 . S
C1404 C1403 1.414 . S
C1404 C1405 1.374 . S
C1405 H1385 0.950 . S
C1405 C1401 1.385 . S
C1405 C1404 1.374 . S
C1406 C1403 1.499 . S
C1406 C1407 1.373 . S
C1406 C1408 1.389 . S
C1407 H1386 0.950 . S
C1407 C1406 1.373 . S
C1407 C1423 1.377 . S
C1408 C1406 1.389 . S
C1408 C1409 1.524 . S
C1408 C1422 1.377 . S
C1409 C1408 1.524 . S
C1409 C1410 1.397 . S
C1409 C1414 1.363 . S
C1410 H1387 0.950 . S
C1410 C1409 1.397 . S
C1410 C1411 1.334 . S
C1411 H1388 0.950 . S
C1411 C1410 1.334 . S
C1411 C1412 1.287 . S
C1412 C1411 1.287 . S
C1412 C1413 1.524 . S
C1412 H1431 0.913 . S
C1413 H1389 0.950 . S
C1413 C1412 1.524 . S
C1413 C1414 1.415 . S
C1414 H1390 0.950 . S
C1414 C1409 1.363 . S
C1414 C1413 1.415 . S
C1415 H1391 0.951 . S
C1415 C1416 1.366 . S
C1415 C1417 1.388 . S
C1416 C1415 1.366 . S
C1416 C1420 1.385 . S
C1417 H1392 0.951 1_554 S
C1417 C1415 1.388 . S
C1417 C1418 1.366 . S
C1418 C1417 1.366 . S
C1418 C1419 1.414 . S
C1418 C1421 1.499 1_454 S
C1419 H1393 0.950 1_455 S
C1419 C1418 1.414 . S
C1419 C1420 1.374 . S
C1420 H1394 0.950 . S
C1420 C1416 1.385 . S
C1420 C1419 1.374 . S
C1421 C1418 1.499 1_656 S
C1421 C1422 1.373 . S
C1421 C1423 1.389 . S
C1422 H1395 0.950 . S
C1422 C1408 1.377 . S
C1422 C1421 1.373 . S
C1423 C1407 1.377 . S
C1423 C1421 1.389 . S
C1423 C1424 1.524 1_655 S
C1424 C1423 1.524 1_455 S
C1424 C1425 1.397 1_456 S
C1424 C1429 1.363 . S
C1425 H1396 0.950 . S
C1425 C1424 1.397 1_654 S
C1425 C1426 1.334 1_655 S
C1426 H1397 0.950 . S
C1426 C1425 1.334 1_455 S
C1426 C1427 1.287 1_554 S
C1427 C1426 1.287 1_556 S
C1427 C1428 1.524 . S
C1427 H1430 0.999 . S
C1428 H1398 0.950 . S
C1428 C1427 1.524 . S
C1428 C1429 1.415 . S
C1429 H1399 0.950 . S
C1429 C1424 1.363 . S
C1429 C1428 1.415 . S
H1430 C1427 0.999 . S
H1431 C1412 0.913 . S
H1432 C1450 0.951 . S
H1433 C1452 0.951 . S
H1434 C1454 0.950 . S
H1435 C1455 0.950 . S
H1436 C1457 0.950 . S
H1437 C1460 0.950 . S
H1438 C1461 0.950 . S
H1439 C1463 0.950 . S
H1440 C1464 0.950 . S
H1441 C1465 0.951 . S
H1442 C1467 0.951 . S
H1443 C1469 0.950 . S
H1444 C1470 0.950 . S
H1445 C1472 0.950 . S
H1446 C1475 0.950 . S
H1447 C1476 0.950 . S
H1448 C1478 0.950 . S
H1449 C1479 0.950 . S
C1450 H1432 0.951 . S
C1450 C1451 1.366 . S
C1450 C1452 1.388 . S
C1451 C1450 1.366 . S
C1451 C1455 1.385 . S
C1452 H1433 0.951 . S
C1452 C1450 1.388 . S
C1452 C1453 1.366 . S
C1453 C1452 1.366 . S
C1453 C1454 1.414 . S
C1453 C1456 1.499 . S
C1454 H1434 0.950 . S
C1454 C1453 1.414 . S
C1454 C1455 1.374 . S
C1455 H1435 0.950 . S
C1455 C1451 1.385 . S
C1455 C1454 1.374 . S
C1456 C1453 1.499 . S
C1456 C1457 1.373 . S
C1456 C1458 1.389 . S
C1457 H1436 0.950 . S
C1457 C1456 1.373 . S
C1457 C1473 1.377 . S
C1458 C1456 1.389 . S
C1458 C1459 1.524 . S
C1458 C1472 1.377 . S
C1459 C1458 1.524 . S
C1459 C1460 1.397 . S
C1459 C1464 1.363 . S
C1460 H1437 0.950 . S
C1460 C1459 1.397 . S
C1460 C1461 1.334 . S
C1461 H1438 0.950 . S
C1461 C1460 1.334 . S
C1461 C1462 1.287 . S
C1462 C1461 1.287 . S
C1462 C1463 1.524 . S
C1462 H1481 0.913 . S
C1463 H1439 0.950 . S
C1463 C1462 1.524 . S
C1463 C1464 1.415 . S
C1464 H1440 0.950 . S
C1464 C1459 1.363 . S
C1464 C1463 1.415 . S
C1465 H1441 0.951 . S
C1465 C1466 1.366 . S
C1465 C1467 1.388 . S
C1466 C1465 1.366 . S
C1466 C1470 1.385 . S
C1467 H1442 0.951 . S
C1467 C1465 1.388 . S
C1467 C1468 1.366 . S
C1468 C1467 1.366 . S
C1468 C1469 1.414 . S
C1468 C1471 1.510 . S
C1469 H1443 0.950 . S
C1469 C1468 1.414 . S
C1469 C1470 1.374 . S
C1470 H1444 0.950 . S
C1470 C1466 1.385 . S
C1470 C1469 1.374 . S
C1471 C1468 1.510 . S
C1471 C1472 1.357 1_545 S
C1471 C1473 1.393 1_545 S
C1472 H1445 0.950 . S
C1472 C1458 1.377 . S
C1472 C1471 1.357 1_565 S
C1473 C1457 1.377 . S
C1473 C1471 1.393 1_565 S
C1473 C1474 1.524 1_565 S
C1474 C1473 1.524 1_545 S
C1474 C1475 1.397 . S
C1474 C1479 1.363 1_545 S
C1475 H1446 0.950 . S
C1475 C1474 1.397 . S
C1475 C1476 1.334 . S
C1476 H1447 0.950 . S
C1476 C1475 1.334 . S
C1476 C1477 1.287 . S
C1477 C1476 1.287 . S
C1477 C1478 1.524 1_545 S
C1477 H1480 0.999 . S
C1478 H1448 0.950 . S
C1478 C1477 1.524 1_565 S
C1478 C1479 1.415 . S
C1479 H1449 0.950 . S
C1479 C1474 1.363 1_565 S
C1479 C1478 1.415 . S
H1480 C1477 0.999 . S
H1481 C1462 0.913 . S
H1482 C1500 0.951 . S
H1483 C1502 0.951 . S
H1484 C1504 0.950 . S
H1485 C1505 0.950 . S
H1486 C1507 0.950 . S
H1487 C1510 0.950 . S
H1488 C1511 0.950 . S
H1489 C1513 0.950 . S
H1490 C1514 0.950 . S
H1491 C1515 0.951 . S
H1492 C1517 0.951 . S
H1493 C1519 0.950 . S
H1494 C1520 0.950 . S
H1495 C1522 0.950 . S
H1496 C1525 0.950 . S
H1497 C1526 0.950 . S
H1498 C1528 0.950 . S
H1499 C1529 0.950 . S
C1500 H1482 0.951 . S
C1500 C1501 1.366 . S
C1500 C1502 1.388 . S
C1501 C1500 1.366 . S
C1501 C1505 1.385 . S
C1502 H1483 0.951 . S
C1502 C1500 1.388 . S
C1502 C1503 1.366 . S
C1503 C1502 1.366 . S
C1503 C1504 1.414 . S
C1503 C1506 1.499 . S
C1504 H1484 0.950 . S
C1504 C1503 1.414 . S
C1504 C1505 1.374 . S
C1505 H1485 0.950 . S
C1505 C1501 1.385 . S
C1505 C1504 1.374 . S
C1506 C1503 1.499 . S
C1506 C1507 1.373 . S
C1506 C1508 1.389 . S
C1507 H1486 0.950 . S
C1507 C1506 1.373 . S
C1507 C1523 1.377 . S
C1508 C1506 1.389 . S
C1508 C1509 1.524 . S
C1508 C1522 1.377 . S
C1509 C1508 1.524 . S
C1509 C1510 1.397 . S
C1509 C1514 1.363 . S
C1510 H1487 0.950 . S
C1510 C1509 1.397 . S
C1510 C1511 1.334 . S
C1511 H1488 0.950 . S
C1511 C1510 1.334 . S
C1511 C1512 1.287 . S
C1512 C1511 1.287 . S
C1512 C1513 1.524 . S
C1512 H1531 0.913 . S
C1513 H1489 0.950 . S
C1513 C1512 1.524 . S
C1513 C1514 1.415 . S
C1514 H1490 0.950 . S
C1514 C1509 1.363 . S
C1514 C1513 1.415 . S
C1515 H1491 0.951 . S
C1515 C1516 1.366 . S
C1515 C1517 1.388 . S
C1516 C1515 1.366 . S
C1516 C1520 1.385 . S
C1517 H1492 0.951 . S
C1517 C1515 1.388 . S
C1517 C1518 1.366 . S
C1518 C1517 1.366 . S
C1518 C1519 1.414 . S
C1518 C1521 1.499 . S
C1519 H1493 0.950 . S
C1519 C1518 1.414 . S
C1519 C1520 1.374 . S
C1520 H1494 0.950 . S
C1520 C1516 1.385 . S
C1520 C1519 1.374 . S
C1521 C1518 1.499 . S
C1521 C1522 1.373 . S
C1521 C1523 1.389 . S
C1522 H1495 0.950 . S
C1522 C1508 1.377 . S
C1522 C1521 1.373 . S
C1523 C1507 1.377 . S
C1523 C1521 1.389 . S
C1523 C1524 1.524 . S
C1524 C1523 1.524 . S
C1524 C1525 1.397 . S
C1524 C1529 1.363 . S
C1525 H1496 0.950 . S
C1525 C1524 1.397 . S
C1525 C1526 1.334 . S
C1526 H1497 0.950 . S
C1526 C1525 1.334 . S
C1526 C1527 1.287 . S
C1527 C1526 1.287 . S
C1527 C1528 1.524 . S
C1527 H1530 0.999 . S
C1528 H1498 0.950 . S
C1528 C1527 1.524 . S
C1528 C1529 1.415 . S
C1529 H1499 0.950 . S
C1529 C1524 1.363 . S
C1529 C1528 1.415 . S
H1530 C1527 0.999 . S
H1531 C1512 0.913 . S
H1532 C1550 0.951 . S
H1533 C1552 0.951 . S
H1534 C1554 0.950 . S
H1535 C1555 0.950 . S
H1536 C1557 0.950 . S
H1537 C1560 0.950 . S
H1538 C1561 0.950 . S
H1539 C1563 0.950 1_655 S
H1540 C1564 0.950 1_655 S
H1541 C1565 0.951 . S
H1542 C1567 0.951 1_455 S
H1543 C1569 0.950 . S
H1544 C1570 0.950 . S
H1545 C1572 0.950 1_655 S
H1546 C1575 0.950 . S
H1547 C1576 0.950 . S
H1548 C1578 0.950 . S
H1549 C1579 0.950 . S
C1550 H1532 0.951 . S
C1550 C1551 1.366 . S
C1550 C1552 1.388 . S
C1551 C1550 1.366 . S
C1551 C1555 1.385 . S
C1552 H1533 0.951 . S
C1552 C1550 1.388 . S
C1552 C1553 1.366 . S
C1553 C1552 1.366 . S
C1553 C1554 1.414 . S
C1553 C1556 1.499 . S
C1554 H1534 0.950 . S
C1554 C1553 1.414 . S
C1554 C1555 1.374 . S
C1555 H1535 0.950 . S
C1555 C1551 1.385 . S
C1555 C1554 1.374 . S
C1556 C1553 1.499 . S
C1556 C1557 1.373 . S
C1556 C1558 1.389 . S
C1557 H1536 0.950 . S
C1557 C1556 1.373 . S
C1557 C1573 1.377 . S
C1558 C1556 1.389 . S
C1558 C1559 1.524 . S
C1558 C1572 1.377 . S
C1559 C1558 1.524 . S
C1559 C1560 1.397 . S
C1559 C1564 1.363 . S
C1560 H1537 0.950 . S
C1560 C1559 1.397 . S
C1560 C1561 1.334 . S
C1561 H1538 0.950 . S
C1561 C1560 1.334 . S
C1561 C1562 1.287 . S
C1562 C1561 1.287 . S
C1562 C1563 1.524 . S
C1562 H1581 0.913 . S
C1563 H1539 0.950 1_455 S
C1563 C1562 1.524 . S
C1563 C1564 1.415 . S
C1564 H1540 0.950 1_455 S
C1564 C1559 1.363 . S
C1564 C1563 1.415 . S
C1565 H1541 0.951 . S
C1565 C1566 1.366 . S
C1565 C1567 1.388 . S
C1566 C1565 1.366 . S
C1566 C1570 1.385 . S
C1567 H1542 0.951 1_655 S
C1567 C1565 1.388 . S
C1567 C1568 1.366 . S
C1568 C1567 1.366 . S
C1568 C1569 1.414 . S
C1568 C1571 1.501 . S
C1569 H1543 0.950 . S
C1569 C1568 1.414 . S
C1569 C1570 1.374 . S
C1570 H1544 0.950 . S
C1570 C1566 1.385 . S
C1570 C1569 1.374 . S
C1571 C1568 1.501 . S
C1571 C1572 1.375 1_655 S
C1571 C1573 1.385 1_655 S
C1572 H1545 0.950 1_455 S
C1572 C1558 1.377 . S
C1572 C1571 1.375 1_455 S
C1573 C1557 1.377 . S
C1573 C1571 1.385 1_455 S
C1573 C1574 1.524 . S
C1574 C1573 1.524 . S
C1574 C1575 1.397 1_455 S
C1574 C1579 1.363 . S
C1575 H1546 0.950 . S
C1575 C1574 1.397 1_655 S
C1575 C1576 1.334 . S
C1576 H1547 0.950 . S
C1576 C1575 1.334 . S
C1576 C1577 1.287 1_655 S
C1577 C1576 1.287 1_455 S
C1577 C1578 1.524 . S
C1577 H1580 0.999 . S
C1578 H1548 0.950 . S
C1578 C1577 1.524 . S
C1578 C1579 1.415 . S
C1579 H1549 0.950 . S
C1579 C1574 1.363 . S
C1579 C1578 1.415 . S
H1580 C1577 0.999 . S
H1581 C1562 0.913 . S
H1582 C1600 0.951 . S
H1583 C1602 0.951 1_545 S
H1584 C1604 0.950 . S
H1585 C1605 0.950 . S
H1586 C1607 0.950 . S
H1587 C1610 0.950 1_565 S
H1588 C1611 0.950 1_565 S
H1589 C1613 0.950 . S
H1590 C1614 0.950 . S
H1591 C1615 0.951 . S
H1592 C1617 0.951 . S
H1593 C1619 0.950 . S
H1594 C1620 0.950 . S
H1595 C1622 0.950 . S
H1596 C1625 0.950 . S
H1597 C1626 0.950 . S
H1598 C1628 0.950 . S
H1599 C1629 0.950 . S
C1600 H1582 0.951 . S
C1600 C1601 1.366 . S
C1600 C1602 1.388 . S
C1601 C1600 1.366 . S
C1601 C1605 1.385 . S
C1602 H1583 0.951 1_565 S
C1602 C1600 1.388 . S
C1602 C1603 1.366 . S
C1603 C1602 1.366 . S
C1603 C1604 1.414 . S
C1603 C1606 1.496 1_565 S
C1604 H1584 0.950 . S
C1604 C1603 1.414 . S
C1604 C1605 1.374 . S
C1605 H1585 0.950 . S
C1605 C1601 1.385 . S
C1605 C1604 1.374 . S
C1606 C1603 1.496 1_545 S
C1606 C1607 1.371 1_545 S
C1606 C1608 1.394 . S
C1607 H1586 0.950 . S
C1607 C1606 1.371 1_565 S
C1607 C1623 1.377 1_565 S
C1608 C1606 1.394 . S
C1608 C1609 1.524 . S
C1608 C1622 1.377 . S
C1609 C1608 1.524 . S
C1609 C1610 1.397 . S
C1609 C1614 1.363 . S
C1610 H1587 0.950 1_545 S
C1610 C1609 1.397 . S
C1610 C1611 1.334 . S
C1611 H1588 0.950 1_545 S
C1611 C1610 1.334 . S
C1611 C1612 1.287 . S
C1612 C1611 1.287 . S
C1612 C1613 1.524 . S
C1612 H1631 0.913 . S
C1613 H1589 0.950 . S
C1613 C1612 1.524 . S
C1613 C1614 1.415 . S
C1614 H1590 0.950 . S
C1614 C1609 1.363 . S
C1614 C1613 1.415 . S
C1615 H1591 0.951 . S
C1615 C1616 1.366 . S
C1615 C1617 1.388 . S
C1616 C1615 1.366 . S
C1616 C1620 1.385 . S
C1617 H1592 0.951 . S
C1617 C1615 1.388 . S
C1617 C1618 1.366 . S
C1618 C1617 1.366 . S
C1618 C1619 1.414 . S
C1618 C1621 1.499 . S
C1619 H1593 0.950 . S
C1619 C1618 1.414 . S
C1619 C1620 1.374 . S
C1620 H1594 0.950 . S
C1620 C1616 1.385 . S
C1620 C1619 1.374 . S
C1621 C1618 1.499 . S
C1621 C1622 1.373 . S
C1621 C1623 1.389 . S
C1622 H1595 0.950 . S
C1622 C1608 1.377 . S
C1622 C1621 1.373 . S
C1623 C1607 1.377 1_545 S
C1623 C1621 1.389 . S
C1623 C1624 1.524 . S
C1624 C1623 1.524 . S
C1624 C1625 1.397 . S
C1624 C1629 1.363 1_545 S
C1625 H1596 0.950 . S
C1625 C1624 1.397 . S
C1625 C1626 1.334 . S
C1626 H1597 0.950 . S
C1626 C1625 1.334 . S
C1626 C1627 1.287 . S
C1627 C1626 1.287 . S
C1627 C1628 1.524 1_545 S
C1627 H1630 0.999 . S
C1628 H1598 0.950 . S
C1628 C1627 1.524 1_565 S
C1628 C1629 1.415 . S
C1629 H1599 0.950 . S
C1629 C1624 1.363 1_565 S
C1629 C1628 1.415 . S
H1630 C1627 0.999 . S
H1631 C1612 0.913 . S
C451 C302 1.062 . S
C466 C14 1.061 . S
C501 C50 1.061 . S
C516 C338 1.062 . S
C551 C86 1.061 . S
C566 C374 1.061 . S
C601 C122 1.061 . S
C616 C410 1.061 . S
C651 C230 1.061 . S
C666 C158 1.062 . S
C701 C194 1.061 . S
C716 C266 1.062 . S
C751 C326 0.677 . S
C766 C2 0.676 . S
C801 C38 0.675 . S
C816 C362 0.677 . S
C851 C398 0.675 . S
C866 C74 0.678 . S
C901 C110 0.676 . S
C916 C218 0.678 . S
C951 C254 0.676 . S
C966 C146 0.678 . S
C1001 C290 0.675 . S
C1016 C182 0.677 . S
C1051 C3 1.398 . S
C1066 C184 1.367 . S
C1101 C39 1.398 . S
C1116 C4 1.367 . S
C1151 C40 1.367 . S
C1166 C75 1.398 . S
C1201 C111 1.398 . S
C1216 C76 1.366 . S
C1251 C147 1.398 . S
C1266 C112 1.366 . S
C1301 C183 1.398 . S
C1316 C148 1.367 . S
C1351 C219 1.398 . S
C1366 C256 1.366 . S
C1401 C255 1.398 . S
C1416 C292 1.366 . S
C1451 C291 1.398 . S
C1466 C328 1.367 . S
C1501 C327 1.398 . S
C1516 C364 1.366 . S
C1551 C363 1.398 . S
C1566 C400 1.366 . S
C1601 C220 1.366 . S
C1616 C399 1.398 . S
