# Generated by pormake.
# Topology umm, (4)-cn, num edge types: 1
# Building blocks:
#     Node 0, Type 0, BuildingBlock: NAWXER_clean_sbu_0, # of connection points: 4
#     Node 1, Type 0, BuildingBlock: NAWXER_clean_sbu_0, # of connection points: 4
#     Node 2, Type 0, BuildingBlock: NAWXER_clean_sbu_0, # of connection points: 4
#     Node 3, Type 0, BuildingBlock: NAWXER_clean_sbu_0, # of connection points: 4
#     Node 4, Type 0, BuildingBlock: NAWXER_clean_sbu_0, # of connection points: 4
#     Node 5, Type 0, BuildingBlock: NAWXER_clean_sbu_0, # of connection points: 4
#     Node 6, Type 0, BuildingBlock: NAWXER_clean_sbu_0, # of connection points: 4
#     Node 7, Type 0, BuildingBlock: NAWXER_clean_sbu_0, # of connection points: 4
#     Node 8, Type 0, BuildingBlock: NAWXER_clean_sbu_0, # of connection points: 4
#     Node 9, Type 0, BuildingBlock: NAWXER_clean_sbu_0, # of connection points: 4
#     Node 10, Type 0, BuildingBlock: NAWXER_clean_sbu_0, # of connection points: 4
#     Node 11, Type 0, BuildingBlock: NAWXER_clean_sbu_0, # of connection points: 4
#     Edge 12, Type (0, 0), BuildingBlock: XUDNAN_clean_linker_2, # of connection points: 2
#     Edge 13, Type (0, 0), BuildingBlock: XUDNAN_clean_linker_2, # of connection points: 2
#     Edge 14, Type (0, 0), BuildingBlock: XUDNAN_clean_linker_2, # of connection points: 2
#     Edge 15, Type (0, 0), BuildingBlock: XUDNAN_clean_linker_2, # of connection points: 2
#     Edge 16, Type (0, 0), BuildingBlock: XUDNAN_clean_linker_2, # of connection points: 2
#     Edge 17, Type (0, 0), BuildingBlock: XUDNAN_clean_linker_2, # of connection points: 2
#     Edge 18, Type (0, 0), BuildingBlock: XUDNAN_clean_linker_2, # of connection points: 2
#     Edge 19, Type (0, 0), BuildingBlock: XUDNAN_clean_linker_2, # of connection points: 2
#     Edge 20, Type (0, 0), BuildingBlock: XUDNAN_clean_linker_2, # of connection points: 2
#     Edge 21, Type (0, 0), BuildingBlock: XUDNAN_clean_linker_2, # of connection points: 2
#     Edge 22, Type (0, 0), BuildingBlock: XUDNAN_clean_linker_2, # of connection points: 2
#     Edge 23, Type (0, 0), BuildingBlock: XUDNAN_clean_linker_2, # of connection points: 2
#     Edge 24, Type (0, 0), BuildingBlock: XUDNAN_clean_linker_2, # of connection points: 2
#     Edge 25, Type (0, 0), BuildingBlock: XUDNAN_clean_linker_2, # of connection points: 2
#     Edge 26, Type (0, 0), BuildingBlock: XUDNAN_clean_linker_2, # of connection points: 2
#     Edge 27, Type (0, 0), BuildingBlock: XUDNAN_clean_linker_2, # of connection points: 2
#     Edge 28, Type (0, 0), BuildingBlock: XUDNAN_clean_linker_2, # of connection points: 2
#     Edge 29, Type (0, 0), BuildingBlock: XUDNAN_clean_linker_2, # of connection points: 2
#     Edge 30, Type (0, 0), BuildingBlock: XUDNAN_clean_linker_2, # of connection points: 2
#     Edge 31, Type (0, 0), BuildingBlock: XUDNAN_clean_linker_2, # of connection points: 2
#     Edge 32, Type (0, 0), BuildingBlock: XUDNAN_clean_linker_2, # of connection points: 2
#     Edge 33, Type (0, 0), BuildingBlock: XUDNAN_clean_linker_2, # of connection points: 2
#     Edge 34, Type (0, 0), BuildingBlock: XUDNAN_clean_linker_2, # of connection points: 2
#     Edge 35, Type (0, 0), BuildingBlock: XUDNAN_clean_linker_2, # of connection points: 2
# Relax obj value: 0.044
# Max RMSD: 0.161
# Mean RMSD: 0.161
data_MOF--net-umm--node1-NAWXER_clean_sbu_0--edge1-XUDNAN_clean_linker_2
_symmetry_space_group_name_H-M    P1
_symmetry_Int_Tables_number       1
_symmetry_cell_setting            triclinic
loop_
_symmetry_equiv_pos_as_xyz
'x, y, z'
_cell_length_a     56.192625
_cell_length_b     56.15728
_cell_length_c     28.89754
_cell_angle_alpha  89.930983
_cell_angle_beta   90.184838
_cell_angle_gamma 119.91738
loop_
_atom_site_label
_atom_site_type_symbol
_atom_site_fract_x
_atom_site_fract_y
_atom_site_fract_z
_atom_type_partial_charge
C0 C 0.35272 0.52507 0.07485 0.0
C1 C 0.4284 0.51054 0.11718 0.0
O2 O 0.37429 0.54828 0.08368 0.0
Zn3 Zn 0.4161 0.56081 0.10815 0.0
O4 O 0.35325 0.50307 0.08219 0.0
Zn5 Zn 0.39053 0.51872 0.10068 0.0
O6 O 0.3916 0.53342 0.1698 0.0
O7 O 0.4201 0.57801 0.16784 0.0
O8 O 0.40341 0.49326 0.10901 0.0
O9 O 0.43611 0.53627 0.11792 0.0
O10 O 0.43776 0.58429 0.05851 0.0
O11 O 0.41182 0.54076 0.03844 0.0
C12 C 0.40414 0.55665 0.19067 0.0
C13 C 0.4292 0.5657 0.02764 0.0
C14 C 0.85196 0.41596 0.33163 0.0
C15 C 0.83538 0.41858 0.49645 0.0
O16 O 0.8616 0.40359 0.35607 0.0
Zn17 Zn 0.86431 0.39534 0.42833 0.0
O18 O 0.84016 0.42749 0.35137 0.0
Zn19 Zn 0.84301 0.41658 0.41353 0.0
O20 O 0.88624 0.44199 0.42669 0.0
O21 O 0.90388 0.41515 0.43881 0.0
O22 O 0.82725 0.42722 0.46272 0.0
O23 O 0.84888 0.40614 0.48846 0.0
O24 O 0.84508 0.35575 0.42827 0.0
O25 O 0.81819 0.37234 0.409 0.0
C26 C 0.90706 0.43915 0.43566 0.0
C27 C 0.82176 0.35167 0.4149 0.0
C28 C 0.41582 0.83418 0.81784 0.0
C29 C 0.43871 0.85317 0.6544 0.0
O30 O 0.44148 0.84345 0.8101 0.0
Zn31 Zn 0.46898 0.85732 0.7511 0.0
O32 O 0.39978 0.83082 0.78423 0.0
Zn33 Zn 0.42683 0.84399 0.73614 0.0
O34 O 0.43795 0.81284 0.73224 0.0
O35 O 0.48209 0.8309 0.74809 0.0
O36 O 0.41558 0.84529 0.67333 0.0
O37 O 0.45955 0.85831 0.67956 0.0
O38 O 0.49394 0.89639 0.76525 0.0
O39 O 0.45094 0.88602 0.75459 0.0
C40 C 0.4592 0.81017 0.73672 0.0
C41 C 0.4758 0.90364 0.76481 0.0
C42 C 0.59954 0.43523 0.02481 0.0
C43 C 0.61826 0.43523 0.1882 0.0
O44 O 0.61235 0.45995 0.04047 0.0
Zn45 Zn 0.62773 0.47909 0.10814 0.0
O46 O 0.59342 0.41519 0.05183 0.0
Zn47 Zn 0.60963 0.43642 0.1058 0.0
O48 O 0.58173 0.45147 0.11969 0.0
O49 O 0.60597 0.49667 0.11906 0.0
O50 O 0.60774 0.41581 0.15908 0.0
O51 O 0.62657 0.45994 0.17452 0.0
O52 O 0.66643 0.50242 0.09559 0.0
O53 O 0.65259 0.4584 0.08764 0.0
C54 C 0.58292 0.47482 0.12325 0.0
C55 C 0.6717 0.4836 0.08491 0.0
C56 C 0.16835 0.61421 0.51744 0.0
C57 C 0.15609 0.59294 0.35277 0.0
O58 O 0.15735 0.62676 0.49734 0.0
Zn59 Zn 0.14433 0.62871 0.42744 0.0
O60 O 0.17445 0.59912 0.49357 0.0
Zn61 Zn 0.1618 0.6043 0.4342 0.0
O62 O 0.19037 0.6476 0.41415 0.0
O63 O 0.16415 0.66646 0.41343 0.0
O64 O 0.16582 0.58441 0.38419 0.0
O65 O 0.14748 0.60958 0.36335 0.0
O66 O 0.10614 0.61506 0.43373 0.0
O67 O 0.11693 0.58262 0.44173 0.0
C68 C 0.18753 0.66877 0.40769 0.0
C69 C 0.09868 0.59005 0.44075 0.0
C70 C 0.58021 0.17028 0.83427 0.0
C71 C 0.56564 0.14679 0.66905 0.0
O72 O 0.55508 0.15996 0.82197 0.0
Zn73 Zn 0.53115 0.14268 0.76089 0.0
O74 O 0.59796 0.17279 0.80467 0.0
Zn75 Zn 0.57327 0.15801 0.75121 0.0
O76 O 0.55861 0.18724 0.73744 0.0
O77 O 0.51415 0.1643 0.75169 0.0
O78 O 0.58839 0.15747 0.69082 0.0
O79 O 0.54351 0.14039 0.69125 0.0
O80 O 0.50726 0.10516 0.77713 0.0
O81 O 0.54978 0.11426 0.76654 0.0
C82 C 0.53521 0.18624 0.7385 0.0
C83 C 0.52462 0.097 0.77603 0.0
C84 C 0.45287 0.58663 0.69089 0.0
C85 C 0.43037 0.58248 0.52666 0.0
O86 O 0.47289 0.60484 0.6669 0.0
Zn87 Zn 0.48142 0.61762 0.59528 0.0
O88 O 0.4306 0.56974 0.67075 0.0
Zn89 Zn 0.4417 0.58439 0.60919 0.0
O90 O 0.4718 0.57274 0.5938 0.0
O91 O 0.51114 0.61062 0.58124 0.0
O92 O 0.41542 0.568 0.5599 0.0
O93 O 0.45507 0.60159 0.53505 0.0
O94 O 0.48919 0.65544 0.60062 0.0
O95 O 0.44648 0.62459 0.61767 0.0
C96 C 0.49743 0.58456 0.584 0.0
C97 C 0.46545 0.64981 0.61427 0.0
C98 C 0.84628 0.45155 0.83086 0.0
C99 C 0.85675 0.43979 0.9947 0.0
O100 O 0.86015 0.47495 0.851 0.0
Zn101 Zn 0.875 0.48905 0.92068 0.0
O102 O 0.8375 0.42969 0.85431 0.0
Zn103 Zn 0.85194 0.44623 0.9133 0.0
O104 O 0.82861 0.46586 0.93368 0.0
O105 O 0.85805 0.51036 0.93669 0.0
O106 O 0.84511 0.42153 0.96369 0.0
O107 O 0.86841 0.46533 0.9837 0.0
O108 O 0.91476 0.50833 0.91477 0.0
O109 O 0.89547 0.46362 0.90475 0.0
C110 C 0.83374 0.49047 0.94179 0.0
C111 C 0.91711 0.4874 0.90646 0.0
C112 C 0.43341 0.91052 0.22571 0.0
C113 C 0.34723 0.8279 0.26606 0.0
O114 O 0.4352 0.88863 0.22466 0.0
Zn115 Zn 0.40895 0.84521 0.23531 0.0
O116 O 0.41043 0.90865 0.23476 0.0
Zn117 Zn 0.38966 0.86895 0.24251 0.0
O118 O 0.40741 0.86308 0.30481 0.0
O119 O 0.42731 0.83898 0.28621 0.0
O120 O 0.35183 0.85228 0.26025 0.0
O121 O 0.36638 0.82238 0.25743 0.0
O122 O 0.40975 0.82991 0.1762 0.0
O123 O 0.38767 0.85316 0.17378 0.0
C124 C 0.42113 0.85135 0.31652 0.0
C125 C 0.39644 0.83876 0.15334 0.0
C126 C 0.54548 0.35386 0.60931 0.0
C127 C 0.55038 0.44219 0.58147 0.0
O128 O 0.57016 0.37412 0.61282 0.0
Zn129 Zn 0.59085 0.41868 0.60484 0.0
O130 O 0.5264 0.35838 0.5966 0.0
Zn131 Zn 0.54799 0.39766 0.59209 0.0
O132 O 0.57258 0.40353 0.53221 0.0
O133 O 0.6161 0.42662 0.55396 0.0
O134 O 0.52951 0.41826 0.57912 0.0
O135 O 0.57396 0.44486 0.59042 0.0
O136 O 0.60544 0.43055 0.66683 0.0
O137 O 0.56014 0.40762 0.66293 0.0
C138 C 0.59817 0.41508 0.5224 0.0
C139 C 0.58226 0.41987 0.68691 0.0
C140 C 0.17798 0.58755 0.85202 0.0
C141 C 0.16136 0.56734 0.01705 0.0
O142 O 0.16748 0.56174 0.85966 0.0
Zn143 Zn 0.15527 0.53577 0.92014 0.0
O144 O 0.18388 0.60371 0.88617 0.0
Zn145 Zn 0.17058 0.57678 0.9354 0.0
O146 O 0.20062 0.56259 0.94279 0.0
O147 O 0.1778 0.51953 0.91984 0.0
O148 O 0.17104 0.59037 0.99666 0.0
O149 O 0.15478 0.5456 0.99316 0.0
O150 O 0.1176 0.51088 0.9078 0.0
O151 O 0.1261 0.55293 0.92216 0.0
C152 C 0.19977 0.53958 0.93538 0.0
C153 C 0.10895 0.52775 0.91198 0.0
C154 C 0.59113 0.15102 0.33241 0.0
C155 C 0.60831 0.17396 0.16912 0.0
O156 O 0.60782 0.14363 0.31645 0.0
Zn157 Zn 0.62619 0.14558 0.24814 0.0
O158 O 0.58202 0.16269 0.30589 0.0
Zn159 Zn 0.60142 0.16278 0.25211 0.0
O160 O 0.58003 0.11872 0.23634 0.0
O161 O 0.61257 0.10773 0.23446 0.0
O162 O 0.59543 0.17954 0.19908 0.0
O163 O 0.62093 0.16129 0.18204 0.0
O164 O 0.66459 0.16614 0.26136 0.0
O165 O 0.64405 0.19023 0.27312 0.0
C166 C 0.58738 0.10058 0.23085 0.0
C167 C 0.66582 0.18817 0.27497 0.0
H168 H 0.4401 0.59603 0.25096 0.0
H169 H 0.36208 0.51992 0.2451 0.0
H170 H 0.35871 0.52026 0.33032 0.0
H171 H 0.46514 0.57826 0.34917 0.0
H172 H 0.48271 0.61235 0.37351 0.0
H173 H 0.4776 0.60785 0.31193 0.0
H174 H 0.45328 0.63675 0.31218 0.0
H175 H 0.45838 0.64141 0.37383 0.0
H176 H 0.42432 0.62705 0.34978 0.0
H177 H 0.36491 0.52757 0.41621 0.0
H178 H 0.38108 0.54007 0.49669 0.0
H179 H 0.45607 0.61054 0.44711 0.0
C180 C 0.42203 0.57975 0.26756 0.0
C181 C 0.40117 0.55809 0.24136 0.0
C182 C 0.37822 0.53677 0.26446 0.0
C183 C 0.3761 0.53684 0.31283 0.0
C184 C 0.3972 0.55826 0.33769 0.0
C185 C 0.41978 0.57929 0.3159 0.0
C186 C 0.44057 0.59873 0.35088 0.0
C187 C 0.46813 0.59932 0.34608 0.0
C188 C 0.44435 0.6277 0.34639 0.0
C189 C 0.42631 0.58516 0.39573 0.0
C190 C 0.40117 0.56205 0.38733 0.0
C191 C 0.3845 0.54572 0.42322 0.0
C192 C 0.39389 0.55301 0.46888 0.0
C193 C 0.41986 0.57631 0.47839 0.0
C194 C 0.43608 0.59268 0.44113 0.0
H195 H 0.83772 0.39332 0.57633 0.0
H196 H 0.82579 0.45936 0.52545 0.0
H197 H 0.82549 0.47414 0.60583 0.0
H198 H 0.7935 0.37778 0.679 0.0
H199 H 0.81536 0.37013 0.71427 0.0
H200 H 0.81313 0.36398 0.6528 0.0
H201 H 0.86598 0.39447 0.64646 0.0
H202 H 0.86836 0.40091 0.70776 0.0
H203 H 0.88245 0.42929 0.66772 0.0
H204 H 0.83207 0.48496 0.69139 0.0
H205 H 0.83937 0.48752 0.77629 0.0
H206 H 0.84324 0.41235 0.77156 0.0
C207 C 0.83461 0.41062 0.58214 0.0
C208 C 0.83179 0.4252 0.54462 0.0
C209 C 0.82778 0.44775 0.55365 0.0
C210 C 0.82771 0.45638 0.59919 0.0
C211 C 0.83113 0.44192 0.63538 0.0
C212 C 0.83394 0.41918 0.6274 0.0
C213 C 0.83749 0.40735 0.67234 0.0
C214 C 0.81343 0.37808 0.68005 0.0
C215 C 0.86522 0.40806 0.67362 0.0
C216 C 0.83687 0.42736 0.70675 0.0
C217 C 0.83341 0.4473 0.68475 0.0
C218 C 0.83423 0.46915 0.70908 0.0
C219 C 0.83851 0.47052 0.75717 0.0
C220 C 0.84144 0.44993 0.78039 0.0
C221 C 0.84044 0.42804 0.75476 0.0
H222 H 0.44178 0.83076 0.89602 0.0
H223 H 0.36705 0.82804 0.84877 0.0
H224 H 0.35232 0.8257 0.92987 0.0
H225 H 0.41038 0.7837 0.99518 0.0
H226 H 0.44038 0.80269 0.03101 0.0
H227 H 0.44393 0.80194 0.96915 0.0
H228 H 0.46993 0.85517 0.96726 0.0
H229 H 0.46634 0.85609 0.02898 0.0
H230 H 0.454 0.87332 0.99155 0.0
H231 H 0.34854 0.82947 0.01602 0.0
H232 H 0.35416 0.83503 0.101 0.0
H233 H 0.42982 0.83236 0.09212 0.0
C234 C 0.42209 0.82921 0.90267 0.0
C235 C 0.40556 0.82959 0.86602 0.0
C236 C 0.37999 0.82761 0.87623 0.0
C237 C 0.37147 0.82633 0.92221 0.0
C238 C 0.38853 0.82659 0.95755 0.0
C239 C 0.4131 0.82754 0.94831 0.0
C240 C 0.42805 0.82843 0.99257 0.0
C241 C 0.43084 0.80265 0.99724 0.0
C242 C 0.45624 0.85482 0.99523 0.0
C243 C 0.4084 0.82857 0.02815 0.0
C244 C 0.38575 0.82758 1.00726 0.0
C245 C 0.36589 0.82969 0.03283 0.0
C246 C 0.36929 0.83294 0.08098 0.0
C247 C 0.39218 0.83371 0.10305 0.0
C248 C 0.41177 0.83118 0.07623 0.0
H249 H 0.63172 0.46966 0.26392 0.0
H250 H 0.60688 0.38583 0.22438 0.0
H251 H 0.60423 0.3731 0.30637 0.0
H252 H 0.67254 0.47199 0.36781 0.0
H253 H 0.66154 0.49205 0.40058 0.0
H254 H 0.66472 0.49565 0.33855 0.0
H255 H 0.61418 0.48452 0.33255 0.0
H256 H 0.61084 0.48086 0.39441 0.0
H257 H 0.5874 0.45311 0.35748 0.0
H258 H 0.5982 0.36763 0.39128 0.0
H259 H 0.59086 0.37054 0.47501 0.0
H260 H 0.62126 0.45784 0.46153 0.0
C261 C 0.62633 0.4488 0.27254 0.0
C262 C 0.61955 0.42878 0.23759 0.0
C263 C 0.61217 0.40157 0.25038 0.0
C264 C 0.61069 0.39412 0.29695 0.0
C265 C 0.6169 0.41412 0.33052 0.0
C266 C 0.62481 0.44097 0.31907 0.0
C267 C 0.62856 0.45793 0.36217 0.0
C268 C 0.65863 0.48076 0.36759 0.0
C269 C 0.60908 0.46979 0.3616 0.0
C270 C 0.62059 0.43616 0.39935 0.0
C271 C 0.61415 0.41108 0.38023 0.0
C272 C 0.60385 0.38727 0.40687 0.0
C273 C 0.59975 0.38906 0.45424 0.0
C274 C 0.60623 0.41449 0.47439 0.0
C275 C 0.61708 0.43839 0.44686 0.0
H276 H 0.17039 0.57669 0.57571 0.0
H277 H 0.17593 0.65654 0.57394 0.0
H278 H 0.18235 0.6598 0.65894 0.0
H279 H 0.13052 0.5534 0.67838 0.0
H280 H 0.14645 0.53439 0.69915 0.0
H281 H 0.14478 0.53947 0.63798 0.0
H282 H 0.1976 0.56124 0.63233 0.0
H283 H 0.19943 0.55627 0.69358 0.0
H284 H 0.21945 0.59005 0.6688 0.0
H285 H 0.18759 0.65401 0.7444 0.0
H286 H 0.18702 0.63802 0.82422 0.0
H287 H 0.17515 0.56061 0.77079 0.0
C288 C 0.17336 0.59504 0.59315 0.0
C289 C 0.17301 0.61655 0.56817 0.0
C290 C 0.17626 0.6399 0.59238 0.0
C291 C 0.18001 0.64196 0.64061 0.0
C292 C 0.18012 0.62034 0.66424 0.0
C293 C 0.17659 0.59719 0.64137 0.0
C294 C 0.17552 0.576 0.6752 0.0
C295 C 0.14766 0.54924 0.67251 0.0
C296 C 0.19943 0.57058 0.66698 0.0
C297 C 0.17888 0.59077 0.72072 0.0
C298 C 0.18192 0.61648 0.71357 0.0
C299 C 0.18522 0.63391 0.75037 0.0
C300 C 0.18496 0.62466 0.79564 0.0
C301 C 0.18103 0.59804 0.8039 0.0
C302 C 0.17821 0.58106 0.76572 0.0
H303 H 0.62525 0.15747 0.09141 0.0
H304 H 0.58782 0.2053 0.1347 0.0
H305 H 0.58096 0.21316 0.05329 0.0
H306 H 0.65963 0.19904 0.98642 0.0
H307 H 0.65306 0.16928 0.95298 0.0
H308 H 0.65774 0.16953 0.01477 0.0
H309 H 0.61075 0.12485 0.02207 0.0
H310 H 0.60591 0.12449 0.96043 0.0
H311 H 0.58043 0.12387 0.99893 0.0
H312 H 0.57265 0.21118 0.96882 0.0
H313 H 0.56549 0.20118 0.88509 0.0
H314 H 0.61012 0.15683 0.89362 0.0
C315 C 0.61618 0.1701 0.08371 0.0
C316 C 0.60714 0.1808 0.11969 0.0
C317 C 0.59494 0.19685 0.108 0.0
C318 C 0.59099 0.20152 0.06173 0.0
C319 C 0.59954 0.19024 0.02719 0.0
C320 C 0.61212 0.17508 0.0374 0.0
C321 C 0.6179 0.16405 0.99338 0.0
C322 C 0.64893 0.17621 0.98648 0.0
C323 C 0.60284 0.13244 0.99374 0.0
C324 C 0.60592 0.17477 0.95713 0.0
C325 C 0.59551 0.18989 0.9776 0.0
C326 C 0.58127 0.19994 0.95221 0.0
C327 C 0.57727 0.19415 0.90475 0.0
C328 C 0.58779 0.17883 0.88292 0.0
C329 C 0.60266 0.16936 0.90932 0.0
H330 H 0.33763 0.56531 0.06683 0.0
H331 H 0.31254 0.48106 0.02949 0.0
H332 H 0.27323 0.47756 0.98653 0.0
H333 H 0.26836 0.55287 0.08456 0.0
H334 H 0.27528 0.58551 0.06134 0.0
H335 H 0.30247 0.58223 0.08825 0.0
H336 H 0.33155 0.60084 0.0138 0.0
H337 H 0.30432 0.60393 0.98651 0.0
H338 H 0.31749 0.584 0.95929 0.0
H339 H 0.23751 0.48254 0.94646 0.0
H340 H 0.20325 0.4939 0.91802 0.0
H341 H 0.24823 0.57432 0.98291 0.0
C342 C 0.3238 0.54616 0.04965 0.0
C343 C 0.3283 0.52346 0.05162 0.0
C344 C 0.3096 0.4987 0.02886 0.0
C345 C 0.28723 0.49653 1.004 0.0
C346 C 0.28347 0.51917 1.00238 0.0
C347 C 0.30086 0.54341 0.02503 0.0
C348 C 0.29096 0.56402 0.01905 0.0
C349 C 0.28384 0.5716 0.0661 0.0
C350 C 0.31236 0.58972 0.99311 0.0
C351 C 0.26533 0.54742 0.98965 0.0
C352 C 0.26183 0.52177 0.9801 0.0
C353 C 0.2399 0.50251 0.95383 0.0
C354 C 0.22053 0.50925 0.93775 0.0
C355 C 0.22285 0.535 0.94824 0.0
C356 C 0.24589 0.55453 0.97403 0.0
H357 H 0.76927 0.33563 0.38491 0.0
H358 H 0.825 0.30463 0.41186 0.0
H359 H 0.791 0.25969 0.37949 0.0
H360 H 0.70579 0.27126 0.41212 0.0
H361 H 0.68643 0.27626 0.36711 0.0
H362 H 0.71453 0.30554 0.3949 0.0
H363 H 0.73688 0.32394 0.31488 0.0
H364 H 0.70906 0.29456 0.28689 0.0
H365 H 0.74397 0.30245 0.27777 0.0
H366 H 0.75289 0.21952 0.33864 0.0
H367 H 0.71108 0.18487 0.29887 0.0
H368 H 0.67885 0.2409 0.3001 0.0
C369 C 0.77417 0.31926 0.38475 0.0
C370 C 0.79989 0.32373 0.40106 0.0
C371 C 0.80547 0.30176 0.39985 0.0
C372 C 0.7863 0.27615 0.38133 0.0
C373 C 0.7615 0.27269 0.3645 0.0
C374 C 0.75516 0.29346 0.36665 0.0
C375 C 0.72713 0.28437 0.34555 0.0
C376 C 0.70729 0.28436 0.38211 0.0
C377 C 0.72941 0.3024 0.3038 0.0
C378 C 0.7189 0.25538 0.33057 0.0
C379 C 0.73913 0.24917 0.34171 0.0
C380 C 0.73678 0.22403 0.33017 0.0
C381 C 0.71295 0.20453 0.30728 0.0
C382 C 0.69157 0.21007 0.29631 0.0
C383 C 0.69473 0.23596 0.30808 0.0
H384 H 0.49939 0.79866 0.70729 0.0
H385 H 0.41248 0.7608 0.7387 0.0
H386 H 0.40516 0.71652 0.7097 0.0
H387 H 0.49145 0.76291 0.60195 0.0
H388 H 0.52079 0.7584 0.60996 0.0
H389 H 0.52026 0.78723 0.63615 0.0
H390 H 0.52884 0.7728 0.71686 0.0
H391 H 0.52985 0.74418 0.69081 0.0
H392 H 0.50631 0.73839 0.7374 0.0
H393 H 0.40605 0.67737 0.67348 0.0
H394 H 0.41582 0.64349 0.63791 0.0
H395 H 0.50228 0.7052 0.62907 0.0
C396 C 0.47898 0.78088 0.70897 0.0
C397 C 0.4565 0.7832 0.72538 0.0
C398 C 0.43 0.75957 0.72624 0.0
C399 C 0.42559 0.7343 0.70975 0.0
C400 C 0.44789 0.73284 0.69245 0.0
C401 C 0.47414 0.75529 0.69236 0.0
C402 C 0.49422 0.74786 0.6707 0.0
C403 C 0.50746 0.76513 0.6271 0.0
C404 C 0.5161 0.75099 0.70606 0.0
C405 C 0.47503 0.71786 0.65849 0.0
C406 C 0.44842 0.70981 0.67133 0.0
C407 C 0.42684 0.68332 0.66355 0.0
C408 C 0.43263 0.66422 0.6431 0.0
C409 C 0.45983 0.67157 0.63063 0.0
C410 C 0.48126 0.69894 0.63793 0.0
H411 H 0.68804 0.44798 0.05317 0.0
H412 H 0.71695 0.5348 0.07338 0.0
H413 H 0.76123 0.54614 0.03744 0.0
H414 H 0.7527 0.45094 0.07688 0.0
H415 H 0.74737 0.42572 0.03346 0.0
H416 H 0.71835 0.42466 0.06175 0.0
H417 H 0.69823 0.42649 0.98183 0.0
H418 H 0.72733 0.42785 0.95332 0.0
H419 H 0.71867 0.45426 0.94265 0.0
H420 H 0.80224 0.54793 0.99799 0.0
H421 H 0.83728 0.54 0.96107 0.0
H422 H 0.78111 0.45198 0.96617 0.0
C423 C 0.70373 0.4694 0.05046 0.0
C424 C 0.69899 0.4905 0.06628 0.0
C425 C 0.72008 0.51826 0.06169 0.0
C426 C 0.74529 0.52491 0.04119 0.0
C427 C 0.7491 0.50359 0.02542 0.0
C428 C 0.72894 0.47639 0.03004 0.0
C429 C 0.73809 0.45734 0.01005 0.0
C430 C 0.7392 0.43856 0.04779 0.0
C431 C 0.71947 0.4405 0.96956 0.0
C432 C 0.76658 0.47805 0.99341 0.0
C433 C 0.77255 0.50462 1.00252 0.0
C434 C 0.79777 0.5272 0.99069 0.0
C435 C 0.81752 0.52248 0.9696 0.0
C436 C 0.81198 0.49537 0.9605 0.0
C437 C 0.78599 0.47296 0.97228 0.0
H438 H 0.23836 0.68082 0.37234 0.0
H439 H 0.18815 0.71741 0.40513 0.0
H440 H 0.22305 0.76116 0.37169 0.0
H441 H 0.30463 0.74259 0.39674 0.0
H442 H 0.32197 0.73656 0.34972 0.0
H443 H 0.29343 0.70798 0.37786 0.0
H444 H 0.26892 0.69142 0.29863 0.0
H445 H 0.29724 0.72012 0.27034 0.0
H446 H 0.26292 0.71455 0.2637 0.0
H447 H 0.26165 0.8003 0.33199 0.0
H448 H 0.30407 0.83411 0.29292 0.0
H449 H 0.33069 0.77364 0.28579 0.0
C450 C 0.23493 0.69816 0.37305 0.0
C451 C 0.21039 0.69553 0.39138 0.0
C452 C 0.20664 0.71872 0.39121 0.0
C453 C 0.22636 0.74376 0.37222 0.0
C454 C 0.24994 0.74552 0.35353 0.0
C455 C 0.25457 0.72355 0.35412 0.0
C456 C 0.28179 0.73127 0.33121 0.0
C457 C 0.30163 0.7295 0.36596 0.0
C458 C 0.27744 0.71326 0.28843 0.0
C459 C 0.29146 0.76086 0.31756 0.0
C460 C 0.27265 0.76852 0.33071 0.0
C461 C 0.27666 0.79464 0.32169 0.0
C462 C 0.30082 0.81369 0.29927 0.0
C463 C 0.32079 0.80663 0.28618 0.0
C464 C 0.31584 0.77971 0.29521 0.0
H465 H 0.57562 0.23848 0.7122 0.0
H466 H 0.48722 0.18621 0.72412 0.0
H467 H 0.48061 0.22258 0.68983 0.0
H468 H 0.57684 0.30211 0.74133 0.0
H469 H 0.60398 0.3226 0.70126 0.0
H470 H 0.60197 0.29235 0.72668 0.0
H471 H 0.60136 0.27335 0.64476 0.0
H472 H 0.60309 0.30343 0.6191 0.0
H473 H 0.57557 0.26975 0.60364 0.0
H474 H 0.48302 0.26358 0.65193 0.0
H475 H 0.49455 0.30869 0.61965 0.0
H476 H 0.58137 0.33581 0.6342 0.0
C477 C 0.5549 0.23477 0.70785 0.0
C478 C 0.53196 0.20936 0.7209 0.0
C479 C 0.50518 0.20542 0.71462 0.0
C480 C 0.50115 0.22594 0.69491 0.0
C481 C 0.52409 0.25052 0.68187 0.0
C482 C 0.55046 0.25524 0.68856 0.0
C483 C 0.57148 0.28387 0.67232 0.0
C484 C 0.58964 0.30126 0.71282 0.0
C485 C 0.5889 0.28251 0.63259 0.0
C486 C 0.55274 0.29436 0.65543 0.0
C487 C 0.52549 0.27462 0.6609 0.0
C488 C 0.50429 0.27926 0.64763 0.0
C489 C 0.51108 0.30496 0.6291 0.0
C490 C 0.53886 0.3259 0.62431 0.0
C491 C 0.55993 0.32029 0.63731 0.0
H492 H 0.48505 0.54078 0.11462 0.0
H493 H 0.41679 0.45822 0.13589 0.0
H494 H 0.44923 0.44105 0.14468 0.0
H495 H 0.52476 0.52112 0.04625 0.0
H496 H 0.55745 0.54658 0.06963 0.0
H497 H 0.52912 0.55302 0.06859 0.0
H498 H 0.53406 0.56176 0.15702 0.0
H499 H 0.56244 0.55534 0.15833 0.0
H500 H 0.53315 0.53589 0.19515 0.0
H501 H 0.48837 0.43215 0.14735 0.0
H502 H 0.53192 0.43181 0.14209 0.0
H503 H 0.57553 0.51992 0.11823 0.0
C504 C 0.47698 0.51917 0.1218 0.0
C505 C 0.44833 0.50087 0.12478 0.0
C506 C 0.4386 0.47265 0.13346 0.0
C507 C 0.45688 0.46269 0.13866 0.0
C508 C 0.48491 0.48115 0.13502 0.0
C509 C 0.49499 0.50879 0.12676 0.0
C510 C 0.52604 0.52388 0.12202 0.0
C511 C 0.53485 0.53691 0.07375 0.0
C512 C 0.53973 0.5455 0.16043 0.0
C513 C 0.53173 0.50032 0.12836 0.0
C514 C 0.50767 0.47593 0.13616 0.0
C515 C 0.50738 0.45115 0.14158 0.0
C516 C 0.53228 0.45119 0.13847 0.0
C517 C 0.55724 0.47583 0.12988 0.0
C518 C 0.55688 0.50077 0.12527 0.0
H519 H 0.95879 0.44435 0.43163 0.0
H520 H 0.91672 0.49045 0.45522 0.0
H521 H 0.96115 0.53285 0.46394 0.0
H522 H 0.01642 0.4839 0.51187 0.0
H523 H 0.04145 0.48276 0.47449 0.0
H524 H 1.0063 0.45519 0.47331 0.0
H525 H 1.00409 0.46208 0.38509 0.0
H526 H 0.03919 0.48965 0.38601 0.0
H527 H 0.01264 0.49551 0.36332 0.0
H528 H 1.00898 0.57042 0.46611 0.0
H529 H 0.05863 0.60205 0.46036 0.0
H530 H 0.07158 0.53312 0.43485 0.0
C531 C 0.959 0.46333 0.43925 0.0
C532 C 0.93422 0.46404 0.44282 0.0
C533 C 0.93536 0.48935 0.45216 0.0
C534 C 0.96052 0.51358 0.45739 0.0
C535 C 0.9845 0.5123 0.45314 0.0
C536 C 0.98412 0.48795 0.44426 0.0
C537 C 0.01317 0.49289 0.43901 0.0
C538 C 0.01971 0.47779 0.47694 0.0
C539 C 0.01752 0.48454 0.39047 0.0
C540 C 0.02975 0.52385 0.4457 0.0
C541 C 0.01264 0.53442 0.45413 0.0
C542 C 0.02266 0.56242 0.45984 0.0
C543 C 0.05095 0.58024 0.45636 0.0
C544 C 0.06908 0.57012 0.44719 0.0
C545 C 0.0583 0.54145 0.44235 0.0
H546 H 0.55049 0.06785 0.75226 0.0
H547 H 0.47768 0.05973 0.81902 0.0
H548 H 0.46022 0.0103 0.82997 0.0
H549 H 0.51637 1.00606 0.68937 0.0
H550 H 0.54299 0.99722 0.69503 0.0
H551 H 0.55163 0.03268 0.69683 0.0
H552 H 0.57527 0.03845 0.77637 0.0
H553 H 0.5667 1.00295 0.77482 0.0
H554 H 0.55626 0.01574 0.82327 0.0
H555 H 0.44844 0.96196 0.82793 0.0
H556 H 0.44234 0.91626 0.81192 0.0
H557 H 0.52241 0.95382 0.74661 0.0
C558 C 0.53114 0.05572 0.76998 0.0
C559 C 0.5155 0.0677 0.78501 0.0
C560 C 0.49002 0.05106 0.80721 0.0
C561 C 0.47997 0.02296 0.81381 0.0
C562 C 0.49561 0.01169 0.79804 0.0
C563 C 0.52064 0.02742 0.77659 0.0
C564 C 0.53219 0.00953 0.76001 0.0
C565 C 0.53601 0.01149 0.70718 0.0
C566 C 0.55921 0.01712 0.78513 0.0
C567 C 0.50939 0.98127 0.77453 0.0
C568 C 0.48868 0.98323 0.79682 0.0
C569 C 0.46463 0.96014 0.81107 0.0
C570 C 0.46133 0.93427 0.80166 0.0
C571 C 0.48196 0.93153 0.77829 0.0
C572 C 0.50657 0.95537 0.76531 0.0
H573 H 0.4727 0.52842 0.58419 0.0
H574 H 0.55219 0.60229 0.57 0.0
H575 H 0.57417 0.57369 0.56373 0.0
H576 H 0.49473 0.49163 0.6544 0.0
H577 H 0.47222 0.45876 0.62822 0.0
H578 H 0.46269 0.48496 0.62875 0.0
H579 H 0.45726 0.48165 0.53952 0.0
H580 H 0.46674 0.45537 0.53869 0.0
H581 H 0.4855 0.48592 0.50418 0.0
H582 H 0.58767 0.53697 0.56396 0.0
H583 H 0.59164 0.4952 0.56911 0.0
H584 H 0.50309 0.44539 0.58181 0.0
C585 C 0.49472 0.53867 0.57932 0.0
C586 C 0.51072 0.56766 0.57757 0.0
C587 C 0.53948 0.58014 0.57132 0.0
C588 C 0.55214 0.56406 0.56772 0.0
C589 C 0.53575 0.53554 0.57012 0.0
C590 C 0.50764 0.52296 0.57551 0.0
C591 C 0.49471 0.49201 0.57847 0.0
C592 C 0.48025 0.48122 0.62524 0.0
C593 C 0.47488 0.47791 0.53778 0.0
C594 C 0.51999 0.48909 0.57459 0.0
C595 C 0.54346 0.51442 0.56969 0.0
C596 C 0.56941 0.51702 0.56736 0.0
C597 C 0.57144 0.49316 0.57042 0.0
C598 C 0.54767 0.46697 0.57564 0.0
C599 C 0.52162 0.46503 0.57728 0.0
H600 H 0.08077 0.55567 0.9284 0.0
H601 H 0.06988 0.47756 0.88033 0.0
H602 H 0.02043 0.46008 0.87049 0.0
H603 H 0.01868 0.52752 0.99359 0.0
H604 H 0.01121 0.55435 0.97913 0.0
H605 H 0.04624 0.56159 0.98037 0.0
H606 H 0.05284 0.57928 0.89593 0.0
H607 H 0.01779 0.57207 0.89443 0.0
H608 H 0.0298 0.55734 0.85142 0.0
H609 H 0.97227 0.45004 0.86848 0.0
H610 H 0.92757 0.44782 0.87511 0.0
H611 H 0.96843 0.53217 0.92427 0.0
C612 C 0.068 0.53499 0.91543 0.0
C613 C 0.07932 0.51803 0.9051 0.0
C614 C 0.06182 0.49098 0.88858 0.0
C615 C 0.03365 0.48084 0.88272 0.0
C616 C 0.02313 0.49793 0.89346 0.0
C617 C 0.03966 0.52442 0.90946 0.0
C618 C 0.02273 0.53804 0.91981 0.0
C619 C 0.02484 0.54582 0.97128 0.0
C620 C 0.0313 0.56317 0.88852 0.0
C621 C 0.99414 0.51493 0.90758 0.0
C622 C 0.99499 0.49207 0.89228 0.0
C623 C 0.97131 0.46784 0.88016 0.0
C624 C 0.94599 0.46679 0.88414 0.0
C625 C 0.94442 0.48982 0.9001 0.0
C626 C 0.96894 0.5143 0.91155 0.0
H627 H 0.44099 0.96245 0.2418 0.0
H628 H 0.48269 0.91979 0.19277 0.0
H629 H 0.52546 0.96401 0.1843 0.0
H630 H 0.47752 0.02338 0.16702 0.0
H631 H 0.47923 0.04677 0.21129 0.0
H632 H 0.45107 0.0119 0.2104 0.0
H633 H 0.46222 1.0052 0.29483 0.0
H634 H 0.49042 0.03999 0.29594 0.0
H635 H 0.49628 0.01196 0.30914 0.0
H636 H 0.56436 0.01189 0.18607 0.0
H637 H 0.59731 0.06109 0.19725 0.0
H638 H 0.53125 0.0739 0.24445 0.0
C639 C 0.45901 0.96247 0.22859 0.0
C640 C 0.45839 0.93757 0.21783 0.0
C641 C 0.48256 0.9385 0.20127 0.0
C642 C 0.507 0.96356 0.19621 0.0
C643 C 0.50704 0.98764 0.20773 0.0
C644 C 0.48373 0.98742 0.22342 0.0
C645 C 0.4899 0.01629 0.23538 0.0
C646 C 0.47345 0.0251 0.20415 0.0
C647 C 0.48438 0.01848 0.28688 0.0
C648 C 0.52037 0.03262 0.22463 0.0
C649 C 0.52972 0.0156 0.20853 0.0
C650 C 0.55726 0.02549 0.1982 0.0
C651 C 0.57584 0.05349 0.20481 0.0
C652 C 0.56689 0.07142 0.22151 0.0
C653 C 0.53867 0.0608 0.23104 0.0
H654 H 0.41696 0.54849 0.75309 0.0
H655 H 0.49438 0.62523 0.74425 0.0
H656 H 0.49748 0.62747 0.82934 0.0
H657 H 0.39076 0.56614 0.85041 0.0
H658 H 0.37502 0.53247 0.87628 0.0
H659 H 0.37935 0.53612 0.8145 0.0
H660 H 0.40613 0.50961 0.81606 0.0
H661 H 0.40178 0.50578 0.87787 0.0
H662 H 0.43571 0.52136 0.85327 0.0
H663 H 0.49062 0.62327 0.91526 0.0
H664 H 0.47552 0.61117 0.9964 0.0
H665 H 0.40371 0.53631 0.94963 0.0
C666 C 0.4347 0.56562 0.76903 0.0
C667 C 0.45542 0.58667 0.74191 0.0
C668 C 0.47828 0.60877 0.76419 0.0
C669 C 0.48023 0.61028 0.81256 0.0
C670 C 0.45931 0.5894 0.83825 0.0
C671 C 0.43712 0.56733 0.81734 0.0
C672 C 0.41729 0.54781 0.85306 0.0
C673 C 0.38893 0.54552 0.84826 0.0
C674 C 0.41511 0.51946 0.84987 0.0
C675 C 0.43162 0.56258 0.89722 0.0
C676 C 0.45577 0.58657 0.88791 0.0
C677 C 0.47191 0.60435 0.92304 0.0
C678 C 0.46314 0.59737 0.96897 0.0
C679 C 0.43861 0.57272 0.97929 0.0
C680 C 0.42279 0.5551 0.94285 0.0
H681 H 0.85223 0.45308 0.26921 0.0
H682 H 0.85509 0.37743 0.2793 0.0
H683 H 0.85644 0.37519 0.19414 0.0
H684 H 0.81016 0.43587 0.1672 0.0
H685 H 0.82862 0.4699 0.14283 0.0
H686 H 0.82733 0.46537 0.20466 0.0
H687 H 0.88051 0.49223 0.20841 0.0
H688 H 0.88196 0.49687 0.14659 0.0
H689 H 0.89969 0.48112 0.17343 0.0
H690 H 0.85513 0.37985 0.10812 0.0
H691 H 0.85546 0.39343 0.02656 0.0
H692 H 0.85705 0.46778 0.0722 0.0
C693 C 0.85311 0.43606 0.2534 0.0
C694 C 0.85346 0.41538 0.28071 0.0
C695 C 0.85493 0.39356 0.25894 0.0
C696 C 0.85559 0.39204 0.21063 0.0
C697 C 0.85519 0.41272 0.18463 0.0
C698 C 0.85434 0.43451 0.20517 0.0
C699 C 0.85499 0.45447 0.16917 0.0
C700 C 0.82871 0.45651 0.17109 0.0
C701 C 0.88083 0.48285 0.17474 0.0
C702 C 0.85612 0.44035 0.12528 0.0
C703 C 0.85588 0.41614 0.13497 0.0
C704 C 0.85562 0.39891 0.10006 0.0
C705 C 0.85573 0.40672 0.05393 0.0
C706 C 0.85658 0.43174 0.04329 0.0
C707 C 0.85685 0.44875 0.07947 0.0
H708 H 0.40424 0.85608 0.5896 0.0
H709 H 0.47945 0.85273 0.60431 0.0
H710 H 0.48331 0.85204 0.51947 0.0
H711 H 0.3774 0.81172 0.49175 0.0
H712 H 0.36378 0.83118 0.46405 0.0
H713 H 0.36694 0.83168 0.52612 0.0
H714 H 0.39623 0.88484 0.52485 0.0
H715 H 0.39305 0.8845 0.46277 0.0
H716 H 0.42658 0.90121 0.48935 0.0
H717 H 0.47749 0.84873 0.43318 0.0
H718 H 0.4645 0.84741 0.35086 0.0
H719 H 0.39489 0.85581 0.39228 0.0
C720 C 0.42158 0.85535 0.57492 0.0
C721 C 0.44152 0.85444 0.60353 0.0
C722 C 0.46399 0.85361 0.58306 0.0
C723 C 0.46633 0.85309 0.53489 0.0
C724 C 0.44622 0.85377 0.50765 0.0
C725 C 0.42448 0.85526 0.52683 0.0
C726 C 0.40592 0.85618 0.48966 0.0
C727 C 0.37679 0.8312 0.49311 0.0
C728 C 0.40543 0.8833 0.49179 0.0
C729 C 0.4205 0.85473 0.44672 0.0
C730 C 0.44355 0.85307 0.45782 0.0
C731 C 0.45967 0.85034 0.42397 0.0
C732 C 0.45211 0.84951 0.37742 0.0
C733 C 0.42892 0.85181 0.36537 0.0
C734 C 0.41299 0.85446 0.40054 0.0
H735 H 0.61971 0.4557 0.75087 0.0
H736 H 0.53978 0.38215 0.73774 0.0
H737 H 0.53536 0.379 0.82243 0.0
H738 H 0.6421 0.43527 0.85187 0.0
H739 H 0.65863 0.4688 0.87836 0.0
H740 H 0.65582 0.46565 0.8163 0.0
H741 H 0.63144 0.4945 0.81465 0.0
H742 H 0.63419 0.49774 0.87674 0.0
H743 H 0.6011 0.48386 0.84911 0.0
H744 H 0.54045 0.3816 0.90739 0.0
H745 H 0.55348 0.3921 0.98962 0.0
H746 H 0.62837 0.46584 0.94971 0.0
C747 C 0.60131 0.43902 0.76597 0.0
C748 C 0.58009 0.41917 0.7378 0.0
C749 C 0.5562 0.39771 0.75866 0.0
C750 C 0.55351 0.39566 0.80674 0.0
C751 C 0.57469 0.41547 0.83357 0.0
C752 C 0.598 0.43694 0.81417 0.0
C753 C 0.61741 0.45562 0.8514 0.0
C754 C 0.64513 0.45636 0.84935 0.0
C755 C 0.62125 0.48465 0.84775 0.0
C756 C 0.60149 0.44098 0.89453 0.0
C757 C 0.577 0.41775 0.88326 0.0
C758 C 0.55937 0.39993 0.9168 0.0
C759 C 0.56695 0.40599 0.9633 0.0
C760 C 0.5917 0.42988 0.97573 0.0
C761 C 0.60908 0.44772 0.94096 0.0
H762 H 0.16151 0.60558 0.07674 0.0
H763 H 0.15483 0.52518 0.07276 0.0
H764 H 0.15178 0.52268 0.15797 0.0
H765 H 0.20263 0.63007 0.17886 0.0
H766 H 0.18566 0.64774 0.20088 0.0
H767 H 0.18694 0.64315 0.13946 0.0
H768 H 0.13389 0.61939 0.13488 0.0
H769 H 0.13245 0.62394 0.19632 0.0
H770 H 0.11331 0.59012 0.17125 0.0
H771 H 0.15227 0.53003 0.24351 0.0
H772 H 0.15318 0.54541 0.32384 0.0
H773 H 0.15682 0.61985 0.27275 0.0
C774 C 0.15931 0.58741 0.0938 0.0
C775 C 0.15847 0.56558 0.06807 0.0
C776 C 0.15542 0.5421 0.09168 0.0
C777 C 0.15373 0.54052 0.1401 0.0
C778 C 0.15477 0.56242 0.16442 0.0
C779 C 0.1572 0.58531 0.14212 0.0
C780 C 0.15765 0.60591 0.17655 0.0
C781 C 0.18484 0.63334 0.17376 0.0
C782 C 0.13284 0.61007 0.16931 0.0
C783 C 0.15542 0.59116 0.22168 0.0
C784 C 0.15397 0.56619 0.21384 0.0
C785 C 0.15308 0.54939 0.25008 0.0
C786 C 0.15369 0.55834 0.29557 0.0
C787 C 0.15483 0.58368 0.30447 0.0
C788 C 0.15551 0.60018 0.26694 0.0
H789 H 0.60712 0.15447 0.60833 0.0
H790 H 0.5208 0.13078 0.61411 0.0
H791 H 0.51784 0.12692 0.52947 0.0
H792 H 0.62333 0.19536 0.50709 0.0
H793 H 0.6462 0.18481 0.48313 0.0
H794 H 0.64164 0.1844 0.54483 0.0
H795 H 0.62769 0.13295 0.54732 0.0
H796 H 0.63226 0.13321 0.48557 0.0
H797 H 0.59994 0.10874 0.51115 0.0
H798 H 0.52457 0.12962 0.44493 0.0
H799 H 0.5403 0.13598 0.36392 0.0
H800 H 0.62145 0.15513 0.41024 0.0
C801 C 0.58755 0.14817 0.59178 0.0
C802 C 0.56421 0.14293 0.6181 0.0
C803 C 0.539 0.13484 0.59499 0.0
C804 C 0.53705 0.13257 0.54678 0.0
C805 C 0.56039 0.13815 0.52188 0.0
C806 C 0.58512 0.1455 0.54337 0.0
C807 C 0.60711 0.15083 0.50782 0.0
C808 C 0.63097 0.18062 0.51091 0.0
C809 C 0.61735 0.1302 0.5133 0.0
C810 C 0.59094 0.14588 0.46319 0.0
C811 C 0.56404 0.13866 0.47235 0.0
C812 C 0.54544 0.13481 0.43721 0.0
C813 C 0.55457 0.13855 0.39137 0.0
C814 C 0.58192 0.1457 0.38098 0.0
C815 C 0.60026 0.14909 0.41733 0.0
loop_
_geom_bond_atom_site_label_1
_geom_bond_atom_site_label_2
_geom_bond_distance
_geom_bond_site_symmetry_2
_ccdc_geom_bond_type
C0 O2 1.247 . S
C0 O4 1.258 . S
C1 O8 1.247 . S
C1 O9 1.258 . S
O2 C0 1.247 . S
O2 Zn3 2.028 . S
Zn3 O2 2.028 . S
Zn3 O7 2.035 . S
Zn3 O9 2.035 . S
Zn3 O10 2.028 . S
O4 C0 1.258 . S
O4 Zn5 2.035 . S
Zn5 O4 2.035 . S
Zn5 O6 2.028 . S
Zn5 O8 2.028 . S
Zn5 O11 2.035 . S
O6 Zn5 2.028 . S
O6 C12 1.247 . S
O7 Zn3 2.035 . S
O7 C12 1.258 . S
O8 C1 1.247 . S
O8 Zn5 2.028 . S
O9 C1 1.258 . S
O9 Zn3 2.035 . S
O10 Zn3 2.028 . S
O10 C13 1.247 1_554 S
O11 Zn5 2.035 . S
O11 C13 1.258 1_554 S
C12 O6 1.247 . S
C12 O7 1.258 . S
C13 O10 1.247 1_556 S
C13 O11 1.258 1_556 S
C14 O16 1.247 . S
C14 O18 1.258 . S
C15 O22 1.247 . S
C15 O23 1.258 . S
O16 C14 1.247 . S
O16 Zn17 2.028 . S
Zn17 O16 2.028 . S
Zn17 O21 2.035 . S
Zn17 O23 2.035 . S
Zn17 O24 2.028 . S
O18 C14 1.258 . S
O18 Zn19 2.035 . S
Zn19 O18 2.035 . S
Zn19 O20 2.028 . S
Zn19 O22 2.028 . S
Zn19 O25 2.035 . S
O20 Zn19 2.028 . S
O20 C26 1.247 . S
O21 Zn17 2.035 . S
O21 C26 1.258 . S
O22 C15 1.247 . S
O22 Zn19 2.028 . S
O23 C15 1.258 . S
O23 Zn17 2.035 . S
O24 Zn17 2.028 . S
O24 C27 1.247 . S
O25 Zn19 2.035 . S
O25 C27 1.258 . S
C26 O20 1.247 . S
C26 O21 1.258 . S
C27 O24 1.247 . S
C27 O25 1.258 . S
C28 O30 1.247 . S
C28 O32 1.258 . S
C29 O36 1.247 . S
C29 O37 1.258 . S
O30 C28 1.247 . S
O30 Zn31 2.028 . S
Zn31 O30 2.028 . S
Zn31 O35 2.035 . S
Zn31 O37 2.035 . S
Zn31 O38 2.028 . S
O32 C28 1.258 . S
O32 Zn33 2.035 . S
Zn33 O32 2.035 . S
Zn33 O34 2.028 . S
Zn33 O36 2.028 . S
Zn33 O39 2.035 . S
O34 Zn33 2.028 . S
O34 C40 1.247 . S
O35 Zn31 2.035 . S
O35 C40 1.258 . S
O36 C29 1.247 . S
O36 Zn33 2.028 . S
O37 C29 1.258 . S
O37 Zn31 2.035 . S
O38 Zn31 2.028 . S
O38 C41 1.247 . S
O39 Zn33 2.035 . S
O39 C41 1.258 . S
C40 O34 1.247 . S
C40 O35 1.258 . S
C41 O38 1.247 . S
C41 O39 1.258 . S
C42 O44 1.247 1_556 S
C42 O46 1.258 1_556 S
C43 O50 1.247 . S
C43 O51 1.258 . S
O44 C42 1.247 1_554 S
O44 Zn45 2.028 . S
Zn45 O44 2.028 . S
Zn45 O49 2.035 . S
Zn45 O51 2.035 . S
Zn45 O52 2.028 . S
O46 C42 1.258 1_554 S
O46 Zn47 2.035 . S
Zn47 O46 2.035 . S
Zn47 O48 2.028 . S
Zn47 O50 2.028 . S
Zn47 O53 2.035 . S
O48 Zn47 2.028 . S
O48 C54 1.247 . S
O49 Zn45 2.035 . S
O49 C54 1.258 . S
O50 C43 1.247 . S
O50 Zn47 2.028 . S
O51 C43 1.258 . S
O51 Zn45 2.035 . S
O52 Zn45 2.028 . S
O52 C55 1.247 . S
O53 Zn47 2.035 . S
O53 C55 1.258 . S
C54 O48 1.247 . S
C54 O49 1.258 . S
C55 O52 1.247 . S
C55 O53 1.258 . S
C56 O58 1.247 . S
C56 O60 1.258 . S
C57 O64 1.247 . S
C57 O65 1.258 . S
O58 C56 1.247 . S
O58 Zn59 2.028 . S
Zn59 O58 2.028 . S
Zn59 O63 2.035 . S
Zn59 O65 2.035 . S
Zn59 O66 2.028 . S
O60 C56 1.258 . S
O60 Zn61 2.035 . S
Zn61 O60 2.035 . S
Zn61 O62 2.028 . S
Zn61 O64 2.028 . S
Zn61 O67 2.035 . S
O62 Zn61 2.028 . S
O62 C68 1.247 . S
O63 Zn59 2.035 . S
O63 C68 1.258 . S
O64 C57 1.247 . S
O64 Zn61 2.028 . S
O65 C57 1.258 . S
O65 Zn59 2.035 . S
O66 Zn59 2.028 . S
O66 C69 1.247 . S
O67 Zn61 2.035 . S
O67 C69 1.258 . S
C68 O62 1.247 . S
C68 O63 1.258 . S
C69 O66 1.247 . S
C69 O67 1.258 . S
C70 O72 1.247 . S
C70 O74 1.258 . S
C71 O78 1.247 . S
C71 O79 1.258 . S
O72 C70 1.247 . S
O72 Zn73 2.028 . S
Zn73 O72 2.028 . S
Zn73 O77 2.035 . S
Zn73 O79 2.035 . S
Zn73 O80 2.028 . S
O74 C70 1.258 . S
O74 Zn75 2.035 . S
Zn75 O74 2.035 . S
Zn75 O76 2.028 . S
Zn75 O78 2.028 . S
Zn75 O81 2.035 . S
O76 Zn75 2.028 . S
O76 C82 1.247 . S
O77 Zn73 2.035 . S
O77 C82 1.258 . S
O78 C71 1.247 . S
O78 Zn75 2.028 . S
O79 C71 1.258 . S
O79 Zn73 2.035 . S
O80 Zn73 2.028 . S
O80 C83 1.247 . S
O81 Zn75 2.035 . S
O81 C83 1.258 . S
C82 O76 1.247 . S
C82 O77 1.258 . S
C83 O80 1.247 . S
C83 O81 1.258 . S
C84 O86 1.247 . S
C84 O88 1.258 . S
C85 O92 1.247 . S
C85 O93 1.258 . S
O86 C84 1.247 . S
O86 Zn87 2.028 . S
Zn87 O86 2.028 . S
Zn87 O91 2.035 . S
Zn87 O93 2.035 . S
Zn87 O94 2.028 . S
O88 C84 1.258 . S
O88 Zn89 2.035 . S
Zn89 O88 2.035 . S
Zn89 O90 2.028 . S
Zn89 O92 2.028 . S
Zn89 O95 2.035 . S
O90 Zn89 2.028 . S
O90 C96 1.247 . S
O91 Zn87 2.035 . S
O91 C96 1.258 . S
O92 C85 1.247 . S
O92 Zn89 2.028 . S
O93 C85 1.258 . S
O93 Zn87 2.035 . S
O94 Zn87 2.028 . S
O94 C97 1.247 . S
O95 Zn89 2.035 . S
O95 C97 1.258 . S
C96 O90 1.247 . S
C96 O91 1.258 . S
C97 O94 1.247 . S
C97 O95 1.258 . S
C98 O100 1.247 . S
C98 O102 1.258 . S
C99 O106 1.247 1_554 S
C99 O107 1.258 1_554 S
O100 C98 1.247 . S
O100 Zn101 2.028 . S
Zn101 O100 2.028 . S
Zn101 O105 2.035 . S
Zn101 O107 2.035 . S
Zn101 O108 2.028 . S
O102 C98 1.258 . S
O102 Zn103 2.035 . S
Zn103 O102 2.035 . S
Zn103 O104 2.028 . S
Zn103 O106 2.028 . S
Zn103 O109 2.035 . S
O104 Zn103 2.028 . S
O104 C110 1.247 . S
O105 Zn101 2.035 . S
O105 C110 1.258 . S
O106 C99 1.247 1_556 S
O106 Zn103 2.028 . S
O107 C99 1.258 1_556 S
O107 Zn101 2.035 . S
O108 Zn101 2.028 . S
O108 C111 1.247 . S
O109 Zn103 2.035 . S
O109 C111 1.258 . S
C110 O104 1.247 . S
C110 O105 1.258 . S
C111 O108 1.247 . S
C111 O109 1.258 . S
C112 O114 1.247 . S
C112 O116 1.258 . S
C113 O120 1.247 . S
C113 O121 1.258 . S
O114 C112 1.247 . S
O114 Zn115 2.028 . S
Zn115 O114 2.028 . S
Zn115 O119 2.035 . S
Zn115 O121 2.035 . S
Zn115 O122 2.028 . S
O116 C112 1.258 . S
O116 Zn117 2.035 . S
Zn117 O116 2.035 . S
Zn117 O118 2.028 . S
Zn117 O120 2.028 . S
Zn117 O123 2.035 . S
O118 Zn117 2.028 . S
O118 C124 1.247 . S
O119 Zn115 2.035 . S
O119 C124 1.258 . S
O120 C113 1.247 . S
O120 Zn117 2.028 . S
O121 C113 1.258 . S
O121 Zn115 2.035 . S
O122 Zn115 2.028 . S
O122 C125 1.247 . S
O123 Zn117 2.035 . S
O123 C125 1.258 . S
C124 O118 1.247 . S
C124 O119 1.258 . S
C125 O122 1.247 . S
C125 O123 1.258 . S
C126 O128 1.247 . S
C126 O130 1.258 . S
C127 O134 1.247 . S
C127 O135 1.258 . S
O128 C126 1.247 . S
O128 Zn129 2.028 . S
Zn129 O128 2.028 . S
Zn129 O133 2.035 . S
Zn129 O135 2.035 . S
Zn129 O136 2.028 . S
O130 C126 1.258 . S
O130 Zn131 2.035 . S
Zn131 O130 2.035 . S
Zn131 O132 2.028 . S
Zn131 O134 2.028 . S
Zn131 O137 2.035 . S
O132 Zn131 2.028 . S
O132 C138 1.247 . S
O133 Zn129 2.035 . S
O133 C138 1.258 . S
O134 C127 1.247 . S
O134 Zn131 2.028 . S
O135 C127 1.258 . S
O135 Zn129 2.035 . S
O136 Zn129 2.028 . S
O136 C139 1.247 . S
O137 Zn131 2.035 . S
O137 C139 1.258 . S
C138 O132 1.247 . S
C138 O133 1.258 . S
C139 O136 1.247 . S
C139 O137 1.258 . S
C140 O142 1.247 . S
C140 O144 1.258 . S
C141 O148 1.247 1_554 S
C141 O149 1.258 1_554 S
O142 C140 1.247 . S
O142 Zn143 2.028 . S
Zn143 O142 2.028 . S
Zn143 O147 2.035 . S
Zn143 O149 2.035 . S
Zn143 O150 2.028 . S
O144 C140 1.258 . S
O144 Zn145 2.035 . S
Zn145 O144 2.035 . S
Zn145 O146 2.028 . S
Zn145 O148 2.028 . S
Zn145 O151 2.035 . S
O146 Zn145 2.028 . S
O146 C152 1.247 . S
O147 Zn143 2.035 . S
O147 C152 1.258 . S
O148 C141 1.247 1_556 S
O148 Zn145 2.028 . S
O149 C141 1.258 1_556 S
O149 Zn143 2.035 . S
O150 Zn143 2.028 . S
O150 C153 1.247 . S
O151 Zn145 2.035 . S
O151 C153 1.258 . S
C152 O146 1.247 . S
C152 O147 1.258 . S
C153 O150 1.247 . S
C153 O151 1.258 . S
C154 O156 1.247 . S
C154 O158 1.258 . S
C155 O162 1.247 . S
C155 O163 1.258 . S
O156 C154 1.247 . S
O156 Zn157 2.028 . S
Zn157 O156 2.028 . S
Zn157 O161 2.035 . S
Zn157 O163 2.035 . S
Zn157 O164 2.028 . S
O158 C154 1.258 . S
O158 Zn159 2.035 . S
Zn159 O158 2.035 . S
Zn159 O160 2.028 . S
Zn159 O162 2.028 . S
Zn159 O165 2.035 . S
O160 Zn159 2.028 . S
O160 C166 1.247 . S
O161 Zn157 2.035 . S
O161 C166 1.258 . S
O162 C155 1.247 . S
O162 Zn159 2.028 . S
O163 C155 1.258 . S
O163 Zn157 2.035 . S
O164 Zn157 2.028 . S
O164 C167 1.247 . S
O165 Zn159 2.035 . S
O165 C167 1.258 . S
C166 O160 1.247 . S
C166 O161 1.258 . S
C167 O164 1.247 . S
C167 O165 1.258 . S
H168 C180 0.930 . S
H169 C182 0.930 . S
H170 C183 0.930 . S
H171 C187 0.959 . S
H172 C187 0.959 . S
H173 C187 0.961 . S
H174 C188 0.960 . S
H175 C188 0.961 . S
H176 C188 0.959 . S
H177 C191 0.929 . S
H178 C192 0.931 . S
H179 C194 0.930 . S
C180 H168 0.930 . S
C180 C181 1.399 . S
C180 C185 1.399 . S
C181 C180 1.399 . S
C181 C182 1.376 . S
C182 H169 0.930 . S
C182 C181 1.376 . S
C182 C183 1.388 . S
C183 H170 0.930 . S
C183 C182 1.388 . S
C183 C184 1.390 . S
C184 C183 1.390 . S
C184 C185 1.394 . S
C184 C190 1.465 . S
C185 C180 1.399 . S
C185 C184 1.394 . S
C185 C186 1.516 . S
C186 C185 1.516 . S
C186 C187 1.502 . S
C186 C188 1.561 . S
C186 C189 1.526 . S
C187 H171 0.959 . S
C187 H172 0.959 . S
C187 H173 0.961 . S
C187 C186 1.502 . S
C188 H174 0.960 . S
C188 H175 0.961 . S
C188 H176 0.959 . S
C188 C186 1.561 . S
C189 C186 1.526 . S
C189 C190 1.396 . S
C189 C194 1.390 . S
C190 C184 1.465 . S
C190 C189 1.396 . S
C190 C191 1.399 . S
C191 H177 0.929 . S
C191 C190 1.399 . S
C191 C192 1.385 . S
C192 H178 0.931 . S
C192 C191 1.385 . S
C192 C193 1.389 . S
C193 C192 1.389 . S
C193 C194 1.387 . S
C194 H179 0.930 . S
C194 C189 1.390 . S
C194 C193 1.387 . S
H195 C207 0.930 . S
H196 C209 0.930 . S
H197 C210 0.930 . S
H198 C214 0.959 . S
H199 C214 0.959 . S
H200 C214 0.961 . S
H201 C215 0.960 . S
H202 C215 0.961 . S
H203 C215 0.959 . S
H204 C218 0.929 . S
H205 C219 0.931 . S
H206 C221 0.930 . S
C207 H195 0.930 . S
C207 C208 1.399 . S
C207 C212 1.399 . S
C208 C207 1.399 . S
C208 C209 1.376 . S
C209 H196 0.930 . S
C209 C208 1.376 . S
C209 C210 1.388 . S
C210 H197 0.930 . S
C210 C209 1.388 . S
C210 C211 1.390 . S
C211 C210 1.390 . S
C211 C212 1.394 . S
C211 C217 1.465 . S
C212 C207 1.399 . S
C212 C211 1.394 . S
C212 C213 1.516 . S
C213 C212 1.516 . S
C213 C214 1.502 . S
C213 C215 1.561 . S
C213 C216 1.526 . S
C214 H198 0.959 . S
C214 H199 0.959 . S
C214 H200 0.961 . S
C214 C213 1.502 . S
C215 H201 0.960 . S
C215 H202 0.961 . S
C215 H203 0.959 . S
C215 C213 1.561 . S
C216 C213 1.526 . S
C216 C217 1.396 . S
C216 C221 1.390 . S
C217 C211 1.465 . S
C217 C216 1.396 . S
C217 C218 1.399 . S
C218 H204 0.929 . S
C218 C217 1.399 . S
C218 C219 1.385 . S
C219 H205 0.931 . S
C219 C218 1.385 . S
C219 C220 1.389 . S
C220 C219 1.389 . S
C220 C221 1.387 . S
C221 H206 0.930 . S
C221 C216 1.390 . S
C221 C220 1.387 . S
H222 C234 0.930 . S
H223 C236 0.930 . S
H224 C237 0.930 . S
H225 C241 0.959 . S
H226 C241 0.959 . S
H227 C241 0.961 1_556 S
H228 C242 0.960 1_556 S
H229 C242 0.961 . S
H230 C242 0.959 1_556 S
H231 C245 0.929 . S
H232 C246 0.931 . S
H233 C248 0.930 . S
C234 H222 0.930 . S
C234 C235 1.399 . S
C234 C239 1.399 . S
C235 C234 1.399 . S
C235 C236 1.376 . S
C236 H223 0.930 . S
C236 C235 1.376 . S
C236 C237 1.388 . S
C237 H224 0.930 . S
C237 C236 1.388 . S
C237 C238 1.390 . S
C238 C237 1.390 . S
C238 C239 1.394 . S
C238 C244 1.465 1_556 S
C239 C234 1.399 . S
C239 C238 1.394 . S
C239 C240 1.516 1_556 S
C240 C239 1.516 1_554 S
C240 C241 1.502 . S
C240 C242 1.561 . S
C240 C243 1.526 . S
C241 H225 0.959 . S
C241 H226 0.959 . S
C241 H227 0.961 1_554 S
C241 C240 1.502 . S
C242 H228 0.960 1_554 S
C242 H229 0.961 . S
C242 H230 0.959 1_554 S
C242 C240 1.561 . S
C243 C240 1.526 . S
C243 C244 1.396 . S
C243 C248 1.390 . S
C244 C238 1.465 1_554 S
C244 C243 1.396 . S
C244 C245 1.399 . S
C245 H231 0.929 . S
C245 C244 1.399 . S
C245 C246 1.385 . S
C246 H232 0.931 . S
C246 C245 1.385 . S
C246 C247 1.389 . S
C247 C246 1.389 . S
C247 C248 1.387 . S
C248 H233 0.930 . S
C248 C243 1.390 . S
C248 C247 1.387 . S
H249 C261 0.930 . S
H250 C263 0.930 . S
H251 C264 0.930 . S
H252 C268 0.959 . S
H253 C268 0.959 . S
H254 C268 0.961 . S
H255 C269 0.960 . S
H256 C269 0.961 . S
H257 C269 0.959 . S
H258 C272 0.929 . S
H259 C273 0.931 . S
H260 C275 0.930 . S
C261 H249 0.930 . S
C261 C262 1.399 . S
C261 C266 1.399 . S
C262 C261 1.399 . S
C262 C263 1.376 . S
C263 H250 0.930 . S
C263 C262 1.376 . S
C263 C264 1.388 . S
C264 H251 0.930 . S
C264 C263 1.388 . S
C264 C265 1.390 . S
C265 C264 1.390 . S
C265 C266 1.394 . S
C265 C271 1.465 . S
C266 C261 1.399 . S
C266 C265 1.394 . S
C266 C267 1.516 . S
C267 C266 1.516 . S
C267 C268 1.502 . S
C267 C269 1.561 . S
C267 C270 1.526 . S
C268 H252 0.959 . S
C268 H253 0.959 . S
C268 H254 0.961 . S
C268 C267 1.502 . S
C269 H255 0.960 . S
C269 H256 0.961 . S
C269 H257 0.959 . S
C269 C267 1.561 . S
C270 C267 1.526 . S
C270 C271 1.396 . S
C270 C275 1.390 . S
C271 C265 1.465 . S
C271 C270 1.396 . S
C271 C272 1.399 . S
C272 H258 0.929 . S
C272 C271 1.399 . S
C272 C273 1.385 . S
C273 H259 0.931 . S
C273 C272 1.385 . S
C273 C274 1.389 . S
C274 C273 1.389 . S
C274 C275 1.387 . S
C275 H260 0.930 . S
C275 C270 1.390 . S
C275 C274 1.387 . S
H276 C288 0.930 . S
H277 C290 0.930 . S
H278 C291 0.930 . S
H279 C295 0.959 . S
H280 C295 0.959 . S
H281 C295 0.961 . S
H282 C296 0.960 . S
H283 C296 0.961 . S
H284 C296 0.959 . S
H285 C299 0.929 . S
H286 C300 0.931 . S
H287 C302 0.930 . S
C288 H276 0.930 . S
C288 C289 1.399 . S
C288 C293 1.399 . S
C289 C288 1.399 . S
C289 C290 1.376 . S
C290 H277 0.930 . S
C290 C289 1.376 . S
C290 C291 1.388 . S
C291 H278 0.930 . S
C291 C290 1.388 . S
C291 C292 1.390 . S
C292 C291 1.390 . S
C292 C293 1.394 . S
C292 C298 1.465 . S
C293 C288 1.399 . S
C293 C292 1.394 . S
C293 C294 1.516 . S
C294 C293 1.516 . S
C294 C295 1.502 . S
C294 C296 1.561 . S
C294 C297 1.526 . S
C295 H279 0.959 . S
C295 H280 0.959 . S
C295 H281 0.961 . S
C295 C294 1.502 . S
C296 H282 0.960 . S
C296 H283 0.961 . S
C296 H284 0.959 . S
C296 C294 1.561 . S
C297 C294 1.526 . S
C297 C298 1.396 . S
C297 C302 1.390 . S
C298 C292 1.465 . S
C298 C297 1.396 . S
C298 C299 1.399 . S
C299 H285 0.929 . S
C299 C298 1.399 . S
C299 C300 1.385 . S
C300 H286 0.931 . S
C300 C299 1.385 . S
C300 C301 1.389 . S
C301 C300 1.389 . S
C301 C302 1.387 . S
C302 H287 0.930 . S
C302 C297 1.390 . S
C302 C301 1.387 . S
H303 C315 0.930 . S
H304 C317 0.930 . S
H305 C318 0.930 . S
H306 C322 0.959 . S
H307 C322 0.959 . S
H308 C322 0.961 1_554 S
H309 C323 0.960 . S
H310 C323 0.961 1_556 S
H311 C323 0.959 . S
H312 C326 0.929 . S
H313 C327 0.931 . S
H314 C329 0.930 . S
C315 H303 0.930 . S
C315 C316 1.399 . S
C315 C320 1.399 . S
C316 C315 1.399 . S
C316 C317 1.376 . S
C317 H304 0.930 . S
C317 C316 1.376 . S
C317 C318 1.388 . S
C318 H305 0.930 . S
C318 C317 1.388 . S
C318 C319 1.390 . S
C319 C318 1.390 . S
C319 C320 1.394 . S
C319 C325 1.465 1_554 S
C320 C315 1.399 . S
C320 C319 1.394 . S
C320 C321 1.516 1_554 S
C321 C320 1.516 1_556 S
C321 C322 1.502 . S
C321 C323 1.561 1_556 S
C321 C324 1.526 . S
C322 H306 0.959 . S
C322 H307 0.959 . S
C322 H308 0.961 1_556 S
C322 C321 1.502 . S
C323 H309 0.960 . S
C323 H310 0.961 1_554 S
C323 H311 0.959 . S
C323 C321 1.561 1_554 S
C324 C321 1.526 . S
C324 C325 1.396 . S
C324 C329 1.390 . S
C325 C319 1.465 1_556 S
C325 C324 1.396 . S
C325 C326 1.399 . S
C326 H312 0.929 . S
C326 C325 1.399 . S
C326 C327 1.385 . S
C327 H313 0.931 . S
C327 C326 1.385 . S
C327 C328 1.389 . S
C328 C327 1.389 . S
C328 C329 1.387 . S
C329 H314 0.930 . S
C329 C324 1.390 . S
C329 C328 1.387 . S
H330 C342 0.930 1_556 S
H331 C344 0.930 . S
H332 C345 0.930 . S
H333 C349 0.959 . S
H334 C349 0.959 . S
H335 C349 0.961 . S
H336 C350 0.960 . S
H337 C350 0.961 . S
H338 C350 0.959 . S
H339 C353 0.929 . S
H340 C354 0.931 1_554 S
H341 C356 0.930 . S
C342 H330 0.930 1_554 S
C342 C343 1.399 . S
C342 C347 1.399 1_554 S
C343 C342 1.399 . S
C343 C344 1.376 . S
C344 H331 0.930 . S
C344 C343 1.376 . S
C344 C345 1.388 . S
C345 H332 0.930 . S
C345 C344 1.388 . S
C345 C346 1.390 . S
C346 C345 1.390 . S
C346 C347 1.394 1_554 S
C346 C352 1.465 . S
C347 C342 1.399 1_556 S
C347 C346 1.394 1_556 S
C347 C348 1.516 . S
C348 C347 1.516 . S
C348 C349 1.502 . S
C348 C350 1.561 . S
C348 C351 1.526 . S
C349 H333 0.959 . S
C349 H334 0.959 . S
C349 H335 0.961 . S
C349 C348 1.502 . S
C350 H336 0.960 . S
C350 H337 0.961 . S
C350 H338 0.959 . S
C350 C348 1.561 . S
C351 C348 1.526 . S
C351 C352 1.396 1_556 S
C351 C356 1.390 . S
C352 C346 1.465 . S
C352 C351 1.396 1_554 S
C352 C353 1.399 . S
C353 H339 0.929 . S
C353 C352 1.399 . S
C353 C354 1.385 1_554 S
C354 H340 0.931 1_556 S
C354 C353 1.385 1_556 S
C354 C355 1.389 . S
C355 C354 1.389 . S
C355 C356 1.387 . S
C356 H341 0.930 . S
C356 C351 1.390 . S
C356 C355 1.387 . S
H357 C369 0.930 . S
H358 C371 0.930 . S
H359 C372 0.930 . S
H360 C376 0.959 . S
H361 C376 0.959 . S
H362 C376 0.961 . S
H363 C377 0.960 . S
H364 C377 0.961 . S
H365 C377 0.959 . S
H366 C380 0.929 . S
H367 C381 0.931 . S
H368 C383 0.930 . S
C369 H357 0.930 . S
C369 C370 1.399 . S
C369 C374 1.399 . S
C370 C369 1.399 . S
C370 C371 1.376 . S
C371 H358 0.930 . S
C371 C370 1.376 . S
C371 C372 1.388 . S
C372 H359 0.930 . S
C372 C371 1.388 . S
C372 C373 1.390 . S
C373 C372 1.390 . S
C373 C374 1.394 . S
C373 C379 1.465 . S
C374 C369 1.399 . S
C374 C373 1.394 . S
C374 C375 1.516 . S
C375 C374 1.516 . S
C375 C376 1.502 . S
C375 C377 1.561 . S
C375 C378 1.526 . S
C376 H360 0.959 . S
C376 H361 0.959 . S
C376 H362 0.961 . S
C376 C375 1.502 . S
C377 H363 0.960 . S
C377 H364 0.961 . S
C377 H365 0.959 . S
C377 C375 1.561 . S
C378 C375 1.526 . S
C378 C379 1.396 . S
C378 C383 1.390 . S
C379 C373 1.465 . S
C379 C378 1.396 . S
C379 C380 1.399 . S
C380 H366 0.929 . S
C380 C379 1.399 . S
C380 C381 1.385 . S
C381 H367 0.931 . S
C381 C380 1.385 . S
C381 C382 1.389 . S
C382 C381 1.389 . S
C382 C383 1.387 . S
C383 H368 0.930 . S
C383 C378 1.390 . S
C383 C382 1.387 . S
H384 C396 0.930 . S
H385 C398 0.930 . S
H386 C399 0.930 . S
H387 C403 0.959 . S
H388 C403 0.959 . S
H389 C403 0.961 . S
H390 C404 0.960 . S
H391 C404 0.961 . S
H392 C404 0.959 . S
H393 C407 0.929 . S
H394 C408 0.931 . S
H395 C410 0.930 . S
C396 H384 0.930 . S
C396 C397 1.399 . S
C396 C401 1.399 . S
C397 C396 1.399 . S
C397 C398 1.376 . S
C398 H385 0.930 . S
C398 C397 1.376 . S
C398 C399 1.388 . S
C399 H386 0.930 . S
C399 C398 1.388 . S
C399 C400 1.390 . S
C400 C399 1.390 . S
C400 C401 1.394 . S
C400 C406 1.465 . S
C401 C396 1.399 . S
C401 C400 1.394 . S
C401 C402 1.516 . S
C402 C401 1.516 . S
C402 C403 1.502 . S
C402 C404 1.561 . S
C402 C405 1.526 . S
C403 H387 0.959 . S
C403 H388 0.959 . S
C403 H389 0.961 . S
C403 C402 1.502 . S
C404 H390 0.960 . S
C404 H391 0.961 . S
C404 H392 0.959 . S
C404 C402 1.561 . S
C405 C402 1.526 . S
C405 C406 1.396 . S
C405 C410 1.390 . S
C406 C400 1.465 . S
C406 C405 1.396 . S
C406 C407 1.399 . S
C407 H393 0.929 . S
C407 C406 1.399 . S
C407 C408 1.385 . S
C408 H394 0.931 . S
C408 C407 1.385 . S
C408 C409 1.389 . S
C409 C408 1.389 . S
C409 C410 1.387 . S
C410 H395 0.930 . S
C410 C405 1.390 . S
C410 C409 1.387 . S
H411 C423 0.930 . S
H412 C425 0.930 . S
H413 C426 0.930 1_556 S
H414 C430 0.959 . S
H415 C430 0.959 . S
H416 C430 0.961 . S
H417 C431 0.960 . S
H418 C431 0.961 . S
H419 C431 0.959 . S
H420 C434 0.929 . S
H421 C435 0.931 . S
H422 C437 0.930 . S
C423 H411 0.930 . S
C423 C424 1.399 . S
C423 C428 1.399 . S
C424 C423 1.399 . S
C424 C425 1.376 . S
C425 H412 0.930 . S
C425 C424 1.376 . S
C425 C426 1.388 . S
C426 H413 0.930 1_554 S
C426 C425 1.388 . S
C426 C427 1.393 . S
C427 C426 1.393 . S
C427 C428 1.401 . S
C427 C433 1.457 1_554 S
C428 C423 1.399 . S
C428 C427 1.401 . S
C428 C429 1.516 . S
C429 C428 1.516 . S
C429 C430 1.502 . S
C429 C431 1.561 1_554 S
C429 C432 1.526 1_554 S
C430 H414 0.959 . S
C430 H415 0.959 . S
C430 H416 0.961 . S
C430 C429 1.502 . S
C431 H417 0.960 . S
C431 H418 0.961 . S
C431 H419 0.959 . S
C431 C429 1.561 1_556 S
C432 C429 1.526 1_556 S
C432 C433 1.396 . S
C432 C437 1.390 . S
C433 C427 1.457 1_556 S
C433 C432 1.396 . S
C433 C434 1.399 . S
C434 H420 0.929 . S
C434 C433 1.399 . S
C434 C435 1.385 . S
C435 H421 0.931 . S
C435 C434 1.385 . S
C435 C436 1.389 . S
C436 C435 1.389 . S
C436 C437 1.387 . S
C437 H422 0.930 . S
C437 C432 1.390 . S
C437 C436 1.387 . S
H438 C450 0.930 . S
H439 C452 0.930 . S
H440 C453 0.930 . S
H441 C457 0.959 . S
H442 C457 0.959 . S
H443 C457 0.961 . S
H444 C458 0.960 . S
H445 C458 0.961 . S
H446 C458 0.959 . S
H447 C461 0.929 . S
H448 C462 0.931 . S
H449 C464 0.930 . S
C450 H438 0.930 . S
C450 C451 1.399 . S
C450 C455 1.399 . S
C451 C450 1.399 . S
C451 C452 1.376 . S
C452 H439 0.930 . S
C452 C451 1.376 . S
C452 C453 1.388 . S
C453 H440 0.930 . S
C453 C452 1.388 . S
C453 C454 1.390 . S
C454 C453 1.390 . S
C454 C455 1.394 . S
C454 C460 1.465 . S
C455 C450 1.399 . S
C455 C454 1.394 . S
C455 C456 1.516 . S
C456 C455 1.516 . S
C456 C457 1.502 . S
C456 C458 1.561 . S
C456 C459 1.526 . S
C457 H441 0.959 . S
C457 H442 0.959 . S
C457 H443 0.961 . S
C457 C456 1.502 . S
C458 H444 0.960 . S
C458 H445 0.961 . S
C458 H446 0.959 . S
C458 C456 1.561 . S
C459 C456 1.526 . S
C459 C460 1.396 . S
C459 C464 1.390 . S
C460 C454 1.465 . S
C460 C459 1.396 . S
C460 C461 1.399 . S
C461 H447 0.929 . S
C461 C460 1.399 . S
C461 C462 1.385 . S
C462 H448 0.931 . S
C462 C461 1.385 . S
C462 C463 1.389 . S
C463 C462 1.389 . S
C463 C464 1.387 . S
C464 H449 0.930 . S
C464 C459 1.390 . S
C464 C463 1.387 . S
H465 C477 0.930 . S
H466 C479 0.930 . S
H467 C480 0.930 . S
H468 C484 0.959 . S
H469 C484 0.959 . S
H470 C484 0.961 . S
H471 C485 0.960 . S
H472 C485 0.961 . S
H473 C485 0.959 . S
H474 C488 0.929 . S
H475 C489 0.931 . S
H476 C491 0.930 . S
C477 H465 0.930 . S
C477 C478 1.399 . S
C477 C482 1.399 . S
C478 C477 1.399 . S
C478 C479 1.376 . S
C479 H466 0.930 . S
C479 C478 1.376 . S
C479 C480 1.388 . S
C480 H467 0.930 . S
C480 C479 1.388 . S
C480 C481 1.390 . S
C481 C480 1.390 . S
C481 C482 1.394 . S
C481 C487 1.465 . S
C482 C477 1.399 . S
C482 C481 1.394 . S
C482 C483 1.516 . S
C483 C482 1.516 . S
C483 C484 1.502 . S
C483 C485 1.561 . S
C483 C486 1.526 . S
C484 H468 0.959 . S
C484 H469 0.959 . S
C484 H470 0.961 . S
C484 C483 1.502 . S
C485 H471 0.960 . S
C485 H472 0.961 . S
C485 H473 0.959 . S
C485 C483 1.561 . S
C486 C483 1.526 . S
C486 C487 1.396 . S
C486 C491 1.390 . S
C487 C481 1.465 . S
C487 C486 1.396 . S
C487 C488 1.399 . S
C488 H474 0.929 . S
C488 C487 1.399 . S
C488 C489 1.385 . S
C489 H475 0.931 . S
C489 C488 1.385 . S
C489 C490 1.389 . S
C490 C489 1.389 . S
C490 C491 1.387 . S
C491 H476 0.930 . S
C491 C486 1.390 . S
C491 C490 1.387 . S
H492 C504 0.930 . S
H493 C506 0.930 . S
H494 C507 0.930 . S
H495 C511 0.959 . S
H496 C511 0.959 . S
H497 C511 0.961 . S
H498 C512 0.960 . S
H499 C512 0.961 . S
H500 C512 0.959 . S
H501 C515 0.929 . S
H502 C516 0.931 . S
H503 C518 0.930 . S
C504 H492 0.930 . S
C504 C505 1.399 . S
C504 C509 1.399 . S
C505 C504 1.399 . S
C505 C506 1.376 . S
C506 H493 0.930 . S
C506 C505 1.376 . S
C506 C507 1.388 . S
C507 H494 0.930 . S
C507 C506 1.388 . S
C507 C508 1.390 . S
C508 C507 1.390 . S
C508 C509 1.394 . S
C508 C514 1.465 . S
C509 C504 1.399 . S
C509 C508 1.394 . S
C509 C510 1.516 . S
C510 C509 1.516 . S
C510 C511 1.502 . S
C510 C512 1.561 . S
C510 C513 1.526 . S
C511 H495 0.959 . S
C511 H496 0.959 . S
C511 H497 0.961 . S
C511 C510 1.502 . S
C512 H498 0.960 . S
C512 H499 0.961 . S
C512 H500 0.959 . S
C512 C510 1.561 . S
C513 C510 1.526 . S
C513 C514 1.396 . S
C513 C518 1.390 . S
C514 C508 1.465 . S
C514 C513 1.396 . S
C514 C515 1.399 . S
C515 H501 0.929 . S
C515 C514 1.399 . S
C515 C516 1.385 . S
C516 H502 0.931 . S
C516 C515 1.385 . S
C516 C517 1.389 . S
C517 C516 1.389 . S
C517 C518 1.387 . S
C518 H503 0.930 . S
C518 C513 1.390 . S
C518 C517 1.387 . S
H519 C531 0.930 . S
H520 C533 0.930 . S
H521 C534 0.930 . S
H522 C538 0.959 . S
H523 C538 0.959 1_455 S
H524 C538 0.961 . S
H525 C539 0.960 1_655 S
H526 C539 0.961 . S
H527 C539 0.959 . S
H528 C542 0.929 . S
H529 C543 0.931 . S
H530 C545 0.930 . S
C531 H519 0.930 . S
C531 C532 1.399 . S
C531 C536 1.399 . S
C532 C531 1.399 . S
C532 C533 1.376 . S
C533 H520 0.930 . S
C533 C532 1.376 . S
C533 C534 1.388 . S
C534 H521 0.930 . S
C534 C533 1.388 . S
C534 C535 1.390 . S
C535 C534 1.390 . S
C535 C536 1.394 . S
C535 C541 1.465 1_655 S
C536 C531 1.399 . S
C536 C535 1.394 . S
C536 C537 1.518 . S
C537 C536 1.518 . S
C537 C538 1.501 . S
C537 C539 1.562 1_655 S
C537 C540 1.524 1_655 S
C538 H522 0.959 . S
C538 H523 0.959 1_655 S
C538 H524 0.961 . S
C538 C537 1.501 . S
C539 H525 0.960 1_455 S
C539 H526 0.961 . S
C539 H527 0.959 . S
C539 C537 1.562 1_455 S
C540 C537 1.524 1_455 S
C540 C541 1.396 . S
C540 C545 1.390 . S
C541 C535 1.465 1_455 S
C541 C540 1.396 . S
C541 C542 1.399 . S
C542 H528 0.929 . S
C542 C541 1.399 . S
C542 C543 1.385 . S
C543 H529 0.931 . S
C543 C542 1.385 . S
C543 C544 1.389 . S
C544 C543 1.389 . S
C544 C545 1.387 . S
C545 H530 0.930 . S
C545 C540 1.390 . S
C545 C544 1.387 . S
H546 C558 0.930 . S
H547 C560 0.930 . S
H548 C561 0.930 . S
H549 C565 0.959 . S
H550 C565 0.959 . S
H551 C565 0.961 1_545 S
H552 C566 0.978 . S
H553 C566 0.940 1_565 S
H554 C566 0.958 . S
H555 C569 0.929 . S
H556 C570 0.931 . S
H557 C572 0.930 . S
C558 H546 0.930 . S
C558 C559 1.399 . S
C558 C563 1.399 . S
C559 C558 1.399 . S
C559 C560 1.376 . S
C560 H547 0.930 . S
C560 C559 1.376 . S
C560 C561 1.388 . S
C561 H548 0.930 . S
C561 C560 1.388 . S
C561 C562 1.390 . S
C562 C561 1.390 . S
C562 C563 1.394 . S
C562 C568 1.465 1_545 S
C563 C558 1.399 . S
C563 C562 1.394 . S
C563 C564 1.516 1_545 S
C564 C563 1.516 1_565 S
C564 C565 1.502 . S
C564 C566 1.552 1_565 S
C564 C567 1.526 . S
C565 H549 0.959 . S
C565 H550 0.959 . S
C565 H551 0.961 1_565 S
C565 C564 1.502 . S
C566 H552 0.978 . S
C566 H553 0.940 1_545 S
C566 H554 0.958 . S
C566 C564 1.552 1_545 S
C567 C564 1.526 . S
C567 C568 1.396 . S
C567 C572 1.390 . S
C568 C562 1.465 1_565 S
C568 C567 1.396 . S
C568 C569 1.399 . S
C569 H555 0.929 . S
C569 C568 1.399 . S
C569 C570 1.385 . S
C570 H556 0.931 . S
C570 C569 1.385 . S
C570 C571 1.389 . S
C571 C570 1.389 . S
C571 C572 1.387 . S
C572 H557 0.930 . S
C572 C567 1.390 . S
C572 C571 1.387 . S
H573 C585 0.930 . S
H574 C587 0.930 . S
H575 C588 0.930 . S
H576 C592 0.959 . S
H577 C592 0.959 . S
H578 C592 0.961 . S
H579 C593 0.960 . S
H580 C593 0.961 . S
H581 C593 0.959 . S
H582 C596 0.929 . S
H583 C597 0.931 . S
H584 C599 0.930 . S
C585 H573 0.930 . S
C585 C586 1.399 . S
C585 C590 1.399 . S
C586 C585 1.399 . S
C586 C587 1.376 . S
C587 H574 0.930 . S
C587 C586 1.376 . S
C587 C588 1.388 . S
C588 H575 0.930 . S
C588 C587 1.388 . S
C588 C589 1.390 . S
C589 C588 1.390 . S
C589 C590 1.394 . S
C589 C595 1.465 . S
C590 C585 1.399 . S
C590 C589 1.394 . S
C590 C591 1.516 . S
C591 C590 1.516 . S
C591 C592 1.502 . S
C591 C593 1.561 . S
C591 C594 1.526 . S
C592 H576 0.959 . S
C592 H577 0.959 . S
C592 H578 0.961 . S
C592 C591 1.502 . S
C593 H579 0.960 . S
C593 H580 0.961 . S
C593 H581 0.959 . S
C593 C591 1.561 . S
C594 C591 1.526 . S
C594 C595 1.396 . S
C594 C599 1.390 . S
C595 C589 1.465 . S
C595 C594 1.396 . S
C595 C596 1.399 . S
C596 H582 0.929 . S
C596 C595 1.399 . S
C596 C597 1.385 . S
C597 H583 0.931 . S
C597 C596 1.385 . S
C597 C598 1.389 . S
C598 C597 1.389 . S
C598 C599 1.387 . S
C599 H584 0.930 . S
C599 C594 1.390 . S
C599 C598 1.387 . S
H600 C612 0.930 . S
H601 C614 0.930 . S
H602 C615 0.930 . S
H603 C619 0.959 . S
H604 C619 0.959 . S
H605 C619 0.961 1_455 S
H606 C620 0.989 . S
H607 C620 0.929 1_655 S
H608 C620 0.958 . S
H609 C623 0.929 . S
H610 C624 0.931 . S
H611 C626 0.930 . S
C612 H600 0.930 . S
C612 C613 1.399 . S
C612 C617 1.399 . S
C613 C612 1.399 . S
C613 C614 1.376 . S
C614 H601 0.930 . S
C614 C613 1.376 . S
C614 C615 1.388 . S
C615 H602 0.930 . S
C615 C614 1.388 . S
C615 C616 1.390 . S
C616 C615 1.390 . S
C616 C617 1.394 . S
C616 C622 1.465 1_455 S
C617 C612 1.399 . S
C617 C616 1.394 . S
C617 C618 1.482 1_455 S
C618 C617 1.482 1_655 S
C618 C619 1.528 . S
C618 C620 1.530 1_655 S
C618 C621 1.550 . S
C619 H603 0.959 . S
C619 H604 0.959 . S
C619 H605 0.961 1_655 S
C619 C618 1.528 . S
C620 H606 0.989 . S
C620 H607 0.929 1_455 S
C620 H608 0.958 . S
C620 C618 1.530 1_455 S
C621 C618 1.550 . S
C621 C622 1.396 . S
C621 C626 1.390 . S
C622 C616 1.465 1_655 S
C622 C621 1.396 . S
C622 C623 1.399 . S
C623 H609 0.929 . S
C623 C622 1.399 . S
C623 C624 1.385 . S
C624 H610 0.931 . S
C624 C623 1.385 . S
C624 C625 1.389 . S
C625 C624 1.389 . S
C625 C626 1.387 . S
C626 H611 0.930 . S
C626 C621 1.390 . S
C626 C625 1.387 . S
H627 C639 0.930 . S
H628 C641 0.930 . S
H629 C642 0.930 . S
H630 C646 0.959 . S
H631 C646 0.959 1_545 S
H632 C646 0.961 . S
H633 C647 0.960 1_565 S
H634 C647 0.961 . S
H635 C647 0.959 . S
H636 C650 0.929 . S
H637 C651 0.931 . S
H638 C653 0.930 . S
C639 H627 0.930 . S
C639 C640 1.399 . S
C639 C644 1.399 . S
C640 C639 1.399 . S
C640 C641 1.376 . S
C641 H628 0.930 . S
C641 C640 1.376 . S
C641 C642 1.388 . S
C642 H629 0.930 . S
C642 C641 1.388 . S
C642 C643 1.390 . S
C643 C642 1.390 . S
C643 C644 1.394 . S
C643 C649 1.465 1_565 S
C644 C639 1.399 . S
C644 C643 1.394 . S
C644 C645 1.521 . S
C645 C644 1.521 . S
C645 C646 1.499 . S
C645 C647 1.563 1_565 S
C645 C648 1.522 1_565 S
C646 H630 0.959 . S
C646 H631 0.959 1_565 S
C646 H632 0.961 . S
C646 C645 1.499 . S
C647 H633 0.960 1_545 S
C647 H634 0.961 . S
C647 H635 0.959 . S
C647 C645 1.563 1_545 S
C648 C645 1.522 1_545 S
C648 C649 1.396 . S
C648 C653 1.390 . S
C649 C643 1.465 1_545 S
C649 C648 1.396 . S
C649 C650 1.399 . S
C650 H636 0.929 . S
C650 C649 1.399 . S
C650 C651 1.385 . S
C651 H637 0.931 . S
C651 C650 1.385 . S
C651 C652 1.389 . S
C652 C651 1.389 . S
C652 C653 1.387 . S
C653 H638 0.930 . S
C653 C648 1.390 . S
C653 C652 1.387 . S
H654 C666 0.930 . S
H655 C668 0.930 . S
H656 C669 0.930 . S
H657 C673 0.959 . S
H658 C673 0.959 . S
H659 C673 0.961 . S
H660 C674 0.960 . S
H661 C674 0.961 . S
H662 C674 0.959 . S
H663 C677 0.929 . S
H664 C678 0.931 . S
H665 C680 0.930 . S
C666 H654 0.930 . S
C666 C667 1.399 . S
C666 C671 1.399 . S
C667 C666 1.399 . S
C667 C668 1.376 . S
C668 H655 0.930 . S
C668 C667 1.376 . S
C668 C669 1.388 . S
C669 H656 0.930 . S
C669 C668 1.388 . S
C669 C670 1.390 . S
C670 C669 1.390 . S
C670 C671 1.394 . S
C670 C676 1.465 . S
C671 C666 1.399 . S
C671 C670 1.394 . S
C671 C672 1.516 . S
C672 C671 1.516 . S
C672 C673 1.502 . S
C672 C674 1.561 . S
C672 C675 1.526 . S
C673 H657 0.959 . S
C673 H658 0.959 . S
C673 H659 0.961 . S
C673 C672 1.502 . S
C674 H660 0.960 . S
C674 H661 0.961 . S
C674 H662 0.959 . S
C674 C672 1.561 . S
C675 C672 1.526 . S
C675 C676 1.396 . S
C675 C680 1.390 . S
C676 C670 1.465 . S
C676 C675 1.396 . S
C676 C677 1.399 . S
C677 H663 0.929 . S
C677 C676 1.399 . S
C677 C678 1.385 . S
C678 H664 0.931 . S
C678 C677 1.385 . S
C678 C679 1.389 . S
C679 C678 1.389 . S
C679 C680 1.387 . S
C680 H665 0.930 . S
C680 C675 1.390 . S
C680 C679 1.387 . S
H681 C693 0.930 . S
H682 C695 0.930 . S
H683 C696 0.930 . S
H684 C700 0.959 . S
H685 C700 0.959 . S
H686 C700 0.961 . S
H687 C701 0.960 . S
H688 C701 0.961 . S
H689 C701 0.959 . S
H690 C704 0.929 . S
H691 C705 0.931 . S
H692 C707 0.930 . S
C693 H681 0.930 . S
C693 C694 1.399 . S
C693 C698 1.399 . S
C694 C693 1.399 . S
C694 C695 1.376 . S
C695 H682 0.930 . S
C695 C694 1.376 . S
C695 C696 1.388 . S
C696 H683 0.930 . S
C696 C695 1.388 . S
C696 C697 1.390 . S
C697 C696 1.390 . S
C697 C698 1.394 . S
C697 C703 1.465 . S
C698 C693 1.399 . S
C698 C697 1.394 . S
C698 C699 1.516 . S
C699 C698 1.516 . S
C699 C700 1.502 . S
C699 C701 1.561 . S
C699 C702 1.526 . S
C700 H684 0.959 . S
C700 H685 0.959 . S
C700 H686 0.961 . S
C700 C699 1.502 . S
C701 H687 0.960 . S
C701 H688 0.961 . S
C701 H689 0.959 . S
C701 C699 1.561 . S
C702 C699 1.526 . S
C702 C703 1.396 . S
C702 C707 1.390 . S
C703 C697 1.465 . S
C703 C702 1.396 . S
C703 C704 1.399 . S
C704 H690 0.929 . S
C704 C703 1.399 . S
C704 C705 1.385 . S
C705 H691 0.931 . S
C705 C704 1.385 . S
C705 C706 1.389 . S
C706 C705 1.389 . S
C706 C707 1.387 . S
C707 H692 0.930 . S
C707 C702 1.390 . S
C707 C706 1.387 . S
H708 C720 0.930 . S
H709 C722 0.930 . S
H710 C723 0.930 . S
H711 C727 0.959 . S
H712 C727 0.959 . S
H713 C727 0.961 . S
H714 C728 0.960 . S
H715 C728 0.961 . S
H716 C728 0.959 . S
H717 C731 0.929 . S
H718 C732 0.931 . S
H719 C734 0.930 . S
C720 H708 0.930 . S
C720 C721 1.399 . S
C720 C725 1.399 . S
C721 C720 1.399 . S
C721 C722 1.376 . S
C722 H709 0.930 . S
C722 C721 1.376 . S
C722 C723 1.388 . S
C723 H710 0.930 . S
C723 C722 1.388 . S
C723 C724 1.390 . S
C724 C723 1.390 . S
C724 C725 1.394 . S
C724 C730 1.465 . S
C725 C720 1.399 . S
C725 C724 1.394 . S
C725 C726 1.516 . S
C726 C725 1.516 . S
C726 C727 1.502 . S
C726 C728 1.561 . S
C726 C729 1.526 . S
C727 H711 0.959 . S
C727 H712 0.959 . S
C727 H713 0.961 . S
C727 C726 1.502 . S
C728 H714 0.960 . S
C728 H715 0.961 . S
C728 H716 0.959 . S
C728 C726 1.561 . S
C729 C726 1.526 . S
C729 C730 1.396 . S
C729 C734 1.390 . S
C730 C724 1.465 . S
C730 C729 1.396 . S
C730 C731 1.399 . S
C731 H717 0.929 . S
C731 C730 1.399 . S
C731 C732 1.385 . S
C732 H718 0.931 . S
C732 C731 1.385 . S
C732 C733 1.389 . S
C733 C732 1.389 . S
C733 C734 1.387 . S
C734 H719 0.930 . S
C734 C729 1.390 . S
C734 C733 1.387 . S
H735 C747 0.930 . S
H736 C749 0.930 . S
H737 C750 0.930 . S
H738 C754 0.959 . S
H739 C754 0.959 . S
H740 C754 0.961 . S
H741 C755 0.960 . S
H742 C755 0.961 . S
H743 C755 0.959 . S
H744 C758 0.929 . S
H745 C759 0.931 . S
H746 C761 0.930 . S
C747 H735 0.930 . S
C747 C748 1.399 . S
C747 C752 1.399 . S
C748 C747 1.399 . S
C748 C749 1.376 . S
C749 H736 0.930 . S
C749 C748 1.376 . S
C749 C750 1.388 . S
C750 H737 0.930 . S
C750 C749 1.388 . S
C750 C751 1.390 . S
C751 C750 1.390 . S
C751 C752 1.394 . S
C751 C757 1.465 . S
C752 C747 1.399 . S
C752 C751 1.394 . S
C752 C753 1.516 . S
C753 C752 1.516 . S
C753 C754 1.502 . S
C753 C755 1.561 . S
C753 C756 1.526 . S
C754 H738 0.959 . S
C754 H739 0.959 . S
C754 H740 0.961 . S
C754 C753 1.502 . S
C755 H741 0.960 . S
C755 H742 0.961 . S
C755 H743 0.959 . S
C755 C753 1.561 . S
C756 C753 1.526 . S
C756 C757 1.396 . S
C756 C761 1.390 . S
C757 C751 1.465 . S
C757 C756 1.396 . S
C757 C758 1.399 . S
C758 H744 0.929 . S
C758 C757 1.399 . S
C758 C759 1.385 . S
C759 H745 0.931 . S
C759 C758 1.385 . S
C759 C760 1.389 . S
C760 C759 1.389 . S
C760 C761 1.387 . S
C761 H746 0.930 . S
C761 C756 1.390 . S
C761 C760 1.387 . S
H762 C774 0.930 . S
H763 C776 0.930 . S
H764 C777 0.930 . S
H765 C781 0.959 . S
H766 C781 0.959 . S
H767 C781 0.961 . S
H768 C782 0.960 . S
H769 C782 0.961 . S
H770 C782 0.959 . S
H771 C785 0.929 . S
H772 C786 0.931 . S
H773 C788 0.930 . S
C774 H762 0.930 . S
C774 C775 1.399 . S
C774 C779 1.399 . S
C775 C774 1.399 . S
C775 C776 1.376 . S
C776 H763 0.930 . S
C776 C775 1.376 . S
C776 C777 1.388 . S
C777 H764 0.930 . S
C777 C776 1.388 . S
C777 C778 1.390 . S
C778 C777 1.390 . S
C778 C779 1.394 . S
C778 C784 1.465 . S
C779 C774 1.399 . S
C779 C778 1.394 . S
C779 C780 1.516 . S
C780 C779 1.516 . S
C780 C781 1.502 . S
C780 C782 1.561 . S
C780 C783 1.526 . S
C781 H765 0.959 . S
C781 H766 0.959 . S
C781 H767 0.961 . S
C781 C780 1.502 . S
C782 H768 0.960 . S
C782 H769 0.961 . S
C782 H770 0.959 . S
C782 C780 1.561 . S
C783 C780 1.526 . S
C783 C784 1.396 . S
C783 C788 1.390 . S
C784 C778 1.465 . S
C784 C783 1.396 . S
C784 C785 1.399 . S
C785 H771 0.929 . S
C785 C784 1.399 . S
C785 C786 1.385 . S
C786 H772 0.931 . S
C786 C785 1.385 . S
C786 C787 1.389 . S
C787 C786 1.389 . S
C787 C788 1.387 . S
C788 H773 0.930 . S
C788 C783 1.390 . S
C788 C787 1.387 . S
H789 C801 0.930 . S
H790 C803 0.930 . S
H791 C804 0.930 . S
H792 C808 0.959 . S
H793 C808 0.959 . S
H794 C808 0.961 . S
H795 C809 0.960 . S
H796 C809 0.961 . S
H797 C809 0.959 . S
H798 C812 0.929 . S
H799 C813 0.931 . S
H800 C815 0.930 . S
C801 H789 0.930 . S
C801 C802 1.399 . S
C801 C806 1.399 . S
C802 C801 1.399 . S
C802 C803 1.376 . S
C803 H790 0.930 . S
C803 C802 1.376 . S
C803 C804 1.388 . S
C804 H791 0.930 . S
C804 C803 1.388 . S
C804 C805 1.390 . S
C805 C804 1.390 . S
C805 C806 1.394 . S
C805 C811 1.465 . S
C806 C801 1.399 . S
C806 C805 1.394 . S
C806 C807 1.516 . S
C807 C806 1.516 . S
C807 C808 1.502 . S
C807 C809 1.561 . S
C807 C810 1.526 . S
C808 H792 0.959 . S
C808 H793 0.959 . S
C808 H794 0.961 . S
C808 C807 1.502 . S
C809 H795 0.960 . S
C809 H796 0.961 . S
C809 H797 0.959 . S
C809 C807 1.561 . S
C810 C807 1.526 . S
C810 C811 1.396 . S
C810 C815 1.390 . S
C811 C805 1.465 . S
C811 C810 1.396 . S
C811 C812 1.399 . S
C812 H798 0.929 . S
C812 C811 1.399 . S
C812 C813 1.385 . S
C813 H799 0.931 . S
C813 C812 1.385 . S
C813 C814 1.389 . S
C814 C813 1.389 . S
C814 C815 1.387 . S
C815 H800 0.930 . S
C815 C810 1.390 . S
C815 C814 1.387 . S
C181 C12 1.682 . S
C193 C85 1.668 . S
C208 C15 1.680 . S
C220 C98 1.685 . S
C235 C28 1.667 . S
C247 C125 1.678 . S
C262 C43 1.673 . S
C274 C138 1.685 . S
C289 C56 1.670 . S
C301 C140 1.670 . S
C316 C155 1.666 . S
C328 C70 1.674 . S
C343 C0 1.780 . S
C355 C152 1.773 . S
C370 C27 1.784 . S
C382 C167 1.774 . S
C397 C40 1.784 . S
C409 C97 1.796 . S
C424 C55 1.770 . S
C436 C110 1.779 . S
C451 C68 1.777 . S
C463 C113 1.789 . S
C478 C82 1.788 . S
C490 C126 1.776 . S
C505 C1 1.748 . S
C517 C54 1.770 . S
C532 C26 1.800 . S
C544 C69 1.780 . S
C559 C83 1.747 . S
C571 C41 1.774 . S
C586 C96 1.756 . S
C598 C127 1.793 . S
C613 C153 1.747 . S
C625 C111 1.773 . S
C640 C112 1.800 . S
C652 C166 1.782 . S
C667 C84 1.102 . S
C679 C13 1.078 . S
C694 C14 1.103 . S
C706 C99 1.078 . S
C721 C29 1.108 . S
C733 C124 1.093 . S
C748 C139 1.105 . S
C760 C42 1.082 . S
C775 C141 1.087 . S
C787 C57 1.077 . S
C802 C71 1.108 . S
C814 C154 1.091 . S
