# Generated by pormake.
# Topology sxb, (6)-cn, num edge types: 1
# Building blocks:
#     Node 0, Type 0, BuildingBlock: KUMJIN_clean_sbu_0, # of connection points: 6
#     Node 1, Type 0, BuildingBlock: KUMJIN_clean_sbu_0, # of connection points: 6
#     Node 2, Type 0, BuildingBlock: KUMJIN_clean_sbu_0, # of connection points: 6
#     Node 3, Type 0, BuildingBlock: KUMJIN_clean_sbu_0, # of connection points: 6
#     Edge 4, Type (0, 0), BuildingBlock: FUNLAD_clean_linker_0, # of connection points: 2
#     Edge 5, Type (0, 0), BuildingBlock: FUNLAD_clean_linker_0, # of connection points: 2
#     Edge 6, Type (0, 0), BuildingBlock: FUNLAD_clean_linker_0, # of connection points: 2
#     Edge 7, Type (0, 0), BuildingBlock: FUNLAD_clean_linker_0, # of connection points: 2
#     Edge 8, Type (0, 0), BuildingBlock: FUNLAD_clean_linker_0, # of connection points: 2
#     Edge 9, Type (0, 0), BuildingBlock: FUNLAD_clean_linker_0, # of connection points: 2
#     Edge 10, Type (0, 0), BuildingBlock: FUNLAD_clean_linker_0, # of connection points: 2
#     Edge 11, Type (0, 0), BuildingBlock: FUNLAD_clean_linker_0, # of connection points: 2
#     Edge 12, Type (0, 0), BuildingBlock: FUNLAD_clean_linker_0, # of connection points: 2
#     Edge 13, Type (0, 0), BuildingBlock: FUNLAD_clean_linker_0, # of connection points: 2
#     Edge 14, Type (0, 0), BuildingBlock: FUNLAD_clean_linker_0, # of connection points: 2
#     Edge 15, Type (0, 0), BuildingBlock: FUNLAD_clean_linker_0, # of connection points: 2
# Relax obj value: 0.230
# Max RMSD: 0.111
# Mean RMSD: 0.109
data_MOF--net-sxb--node1-KUMJIN_clean_sbu_0--edge1-FUNLAD_clean_linker_0
_symmetry_space_group_name_H-M    P1
_symmetry_Int_Tables_number       1
_symmetry_cell_setting            triclinic
loop_
_symmetry_equiv_pos_as_xyz
'x, y, z'
_cell_length_a     20.105179
_cell_length_b     38.31229
_cell_length_c     35.898116
_cell_angle_alpha  101.25807
_cell_angle_beta   114.34119
_cell_angle_gamma 73.476772
loop_
_atom_site_label
_atom_site_type_symbol
_atom_site_fract_x
_atom_site_fract_y
_atom_site_fract_z
_atom_type_partial_charge
Eu0 Eu 0.94991 1.02081 0.94943 0.0
C1 C 0.10482 0.12881 0.05262 0.0
C2 C 0.08197 0.16862 0.0015 0.0
C3 C 0.10003 0.19401 0.0714 0.0
C4 C 0.09344 0.13325 0.01263 0.0
C5 C 0.10826 0.15939 0.08227 0.0
C6 C 0.08652 0.19865 0.03112 0.0
C7 C 0.12731 0.11989 0.13204 0.0
N8 N 0.11049 0.0952 0.0624 0.0
C9 C 0.12378 0.09047 0.10202 0.0
C10 C 0.11932 0.15453 0.12214 0.0
Eu11 Eu 0.11911 0.04625 0.01067 0.0
N12 N 0.08837 0.10383 -0.01596 0.0
C13 C 0.06641 0.10897 0.94361 0.0
C14 C 0.06333 0.17323 0.96049 0.0
C15 C 0.05424 0.14338 0.93137 0.0
H16 H 0.13652 0.06373 0.11184 0.0
H17 H 1.03672 0.14691 0.89924 0.0
H18 H 0.07823 0.22579 0.02298 0.0
H19 H 0.13817 0.11559 0.16315 0.0
H20 H 0.05409 0.08753 0.91988 0.0
H21 H 1.00346 0.91616 0.05061 0.0
H22 H 0.05328 0.19996 0.95078 0.0
H23 H 0.90137 1.00977 0.84499 0.0
H24 H 0.96646 0.97763 0.03049 0.0
H25 H 0.89425 0.95976 0.79026 0.0
H26 H 0.10266 0.21759 0.09381 0.0
H27 H 1.01902 0.86335 0.00083 0.0
H28 H 1.00773 0.83969 0.9295 0.0
H29 H 0.12261 0.17728 0.14562 0.0
H30 H 0.97729 0.85143 0.85894 0.0
N31 N 0.97317 0.96202 0.97143 0.0
C32 C 0.97877 0.95591 0.00906 0.0
C33 C 1.00574 0.8908 -0.00786 0.0
C34 C 0.99337 0.89686 0.95247 0.0
C35 C 0.99742 0.92049 0.02036 0.0
C36 C 0.97767 0.9332 0.94276 0.0
H37 H 0.93377 0.8957 0.80694 0.0
N38 N 0.94733 0.9747 0.89363 0.0
C39 C 0.9147 0.95366 0.82182 0.0
C40 C 0.96346 0.93972 0.90296 0.0
C41 C 0.919 0.98194 0.8532 0.0
C42 C 0.9372 0.9176 0.83138 0.0
C43 C 0.96068 0.91021 0.87207 0.0
O44 O 0.84668 0.0359 0.89724 0.0
O45 O 0.99102 0.0725 -0.01297 0.0
O46 O 0.07803 1.02866 0.05185 0.0
O47 O 0.95043 0.03776 0.01449 0.0
O48 O 0.89836 0.08161 0.93487 0.0
O49 O 0.84661 1.01011 0.94605 0.0
O50 O 0.21529 0.03969 0.06832 0.0
O51 O 0.07436 0.9942 0.9801 0.0
O52 O 1.01136 1.01982 0.90843 0.0
O53 O 0.12947 1.03052 0.94858 0.0
O54 O 0.18422 0.98521 0.01485 0.0
O55 O 0.22475 0.05606 0.01643 0.0
C56 C 0.94078 0.09928 0.96576 0.0
C57 C 0.74037 0.05463 0.91216 0.0
C58 C 0.67597 0.09911 0.95146 0.0
C59 C 0.74247 0.07713 0.94802 0.0
C60 C 0.61129 0.10478 0.91482 0.0
C61 C 0.67565 0.05949 0.87646 0.0
C62 C 0.61203 0.08568 0.87753 0.0
C63 C 1.00896 0.03534 0.04993 0.0
C64 C 0.80627 1.02638 0.91217 0.0
C65 C 0.97827 0.87427 0.88219 0.0
C66 C 0.9952 0.86761 0.92232 0.0
C67 C 0.13414 0.96715 -0.00827 0.0
C68 C 0.32839 1.01572 0.06006 0.0
C69 C 0.34127 0.99338 0.02677 0.0
C70 C 0.41083 0.96895 0.03224 0.0
C71 C 0.46078 0.96201 0.07301 0.0
C72 C 0.37977 1.00953 0.10004 0.0
C73 C 0.44451 0.98181 0.10645 0.0
C74 C 0.07956 1.02058 0.91322 0.0
C75 C 0.26018 0.04471 0.05328 0.0
H76 H 0.79504 0.07458 0.97424 0.0
H77 H 0.55825 0.12177 0.91481 0.0
H78 H 0.67438 0.04309 0.84803 0.0
H79 H 0.56173 0.0896 0.84995 0.0
H80 H 0.29875 0.99714 -0.00369 0.0
H81 H 0.51498 0.94329 0.07976 0.0
H82 H 0.36951 1.02595 0.12619 0.0
H83 H 0.48414 0.97689 0.13741 0.0
Eu84 Eu 0.04289 0.99007 0.4705 0.0
C85 C 0.90914 0.13485 0.50803 0.0
C86 C 0.8033 0.14455 0.44303 0.0
C87 C 0.79723 0.18281 0.50438 0.0
C88 C 0.87732 0.12607 0.46572 0.0
C89 C 0.86884 0.16337 0.52752 0.0
C90 C 0.76451 0.17339 0.46233 0.0
C91 C 0.97268 0.15209 0.59204 0.0
N92 N 0.97793 0.11513 0.53038 0.0
C93 C 1.0106 0.12424 0.57173 0.0
C94 C 0.90137 0.17166 0.5699 0.0
Eu95 Eu 0.04242 0.07235 0.49189 0.0
N96 N 0.91524 0.09749 0.44751 0.0
C97 C 0.8771 0.08308 0.40883 0.0
C98 C 0.76841 0.13235 0.40196 0.0
C99 C 0.8047 0.10083 0.38519 0.0
H100 H 0.06721 0.11093 0.58945 0.0
H101 H 0.77602 0.08948 0.35442 0.0
H102 H 0.70813 0.18794 0.44517 0.0
H103 H 0.99912 0.15882 0.62473 0.0
H104 H 0.89933 0.05679 0.39643 0.0
H105 H 0.31142 0.96625 0.60632 0.0
H106 H 0.7117 0.14572 0.38372 0.0
H107 H 1.01221 0.9547 0.37141 0.0
H108 H 0.18944 1.00144 0.56649 0.0
H109 H 0.07696 0.90742 0.33381 0.0
H110 H 0.76597 0.20479 0.51893 0.0
H111 H 0.3718 0.91081 0.57391 0.0
H112 H 0.37166 0.87109 0.51045 0.0
H113 H 0.87215 0.19336 0.58578 0.0
H114 H 0.31113 0.85727 0.43628 0.0
N115 N 0.16956 0.96285 0.51343 0.0
C116 C 0.20946 0.97546 0.55267 0.0
C117 C 0.31547 0.9253 0.55657 0.0
C118 C 0.27906 0.91506 0.51502 0.0
C119 C 0.28137 0.95632 0.57509 0.0
C120 C 0.20564 0.93495 0.49352 0.0
H121 H 0.20371 0.87136 0.37057 0.0
N122 N 0.10405 0.94883 0.42961 0.0
C123 C 0.10495 0.91325 0.36655 0.0
C124 C 0.17245 0.92802 0.45085 0.0
C125 C 0.06905 0.9407 0.38818 0.0
C126 C 0.17616 0.89284 0.38746 0.0
C127 C 0.21053 0.89978 0.42998 0.0
O128 O 0.95294 0.96585 0.42331 0.0
O129 O 0.95323 0.03864 0.48186 0.0
O130 O 0.06344 0.05163 0.55245 0.0
O131 O 0.05569 0.99116 0.53631 0.0
O132 O 0.95153 0.03758 0.48181 0.0
O133 O 1.03538 0.93689 0.47623 0.0
O134 O 0.12654 0.09909 0.53921 0.0
O135 O 0.13261 1.02348 0.48183 0.0
O136 O 1.02631 1.01171 0.41076 0.0
O137 O 1.0313 0.07231 0.42737 0.0
O138 O 0.13412 1.02433 0.48184 0.0
O139 O 0.05673 0.12246 0.47969 0.0
C140 C 0.88763 0.04945 0.48826 0.0
C141 C 0.92945 0.91383 0.43784 0.0
C142 C 0.88434 0.88453 0.47275 0.0
C143 C 0.91484 0.91242 0.47215 0.0
C144 C 0.86495 0.85902 0.43835 0.0
C145 C 0.90968 0.88882 0.40326 0.0
C146 C 0.8768 0.86148 0.40346 0.0
C147 C 0.06162 1.0206 0.56266 0.0
C148 C 0.97943 0.93555 0.44109 0.0
C149 C 0.28157 0.87904 0.45191 0.0
C150 C 0.31577 0.88672 0.49421 0.0
C151 C 0.19838 1.01276 0.47571 0.0
C152 C 0.14197 0.15623 0.53077 0.0
C153 C 0.16482 0.16697 0.50403 0.0
C154 C 0.18702 0.1996 0.51332 0.0
C155 C 0.18685 0.22176 0.54947 0.0
C156 C 0.14229 0.17772 0.56724 0.0
C157 C 0.16477 0.21066 0.57652 0.0
C158 C 1.02842 0.04299 0.4013 0.0
C159 C 0.10617 0.12607 0.51681 0.0
H160 H 0.93129 0.93151 0.49913 0.0
H161 H 0.84104 0.83718 0.4385 0.0
H162 H 0.92288 0.88942 0.37704 0.0
H163 H 0.86256 0.84165 0.37716 0.0
H164 H 0.16325 0.15053 0.47549 0.0
H165 H 0.20358 0.24755 0.55653 0.0
H166 H 0.1224 0.16981 0.58747 0.0
H167 H 0.16387 0.2278 0.60419 0.0
Eu168 Eu 0.45121 0.5196 0.94828 0.0
C169 C 0.60872 0.62579 0.0606 0.0
C170 C 0.58713 0.66818 0.01225 0.0
C171 C 0.60584 0.69044 0.083 0.0
C172 C 0.59719 0.63217 0.02121 0.0
C173 C 0.6139 0.65506 0.09185 0.0
C174 C 0.59216 0.697 0.04332 0.0
C175 C 0.63873 0.61244 0.13975 0.0
N176 N 0.61574 0.59132 0.06868 0.0
C177 C 0.63385 0.5843 0.10823 0.0
C178 C 0.62825 0.64801 0.13152 0.0
Eu179 Eu 0.62098 0.54484 0.01431 0.0
N180 N 0.59266 0.60384 -0.00868 0.0
C181 C 0.57248 0.6107 0.95157 0.0
C182 C 0.5701 0.67458 0.97199 0.0
C183 C 0.56156 0.6458 0.94145 0.0
H184 H 0.64721 0.55674 0.11635 0.0
H185 H 0.54542 0.65068 0.90985 0.0
H186 H 0.58487 0.72462 0.03687 0.0
H187 H 0.6524 0.60648 0.17068 0.0
H188 H 0.56065 0.59011 0.92672 0.0
H189 H 0.51988 0.41163 0.04903 0.0
H190 H 0.56119 0.70184 0.96396 0.0
H191 H 0.41257 0.51025 0.84459 0.0
H192 H 0.49893 0.47296 0.0333 0.0
H193 H 0.39659 0.46196 0.78811 0.0
H194 H 0.6098 0.71303 0.10668 0.0
H195 H 0.50731 0.36112 -0.00581 0.0
H196 H 0.47981 0.34 0.92077 0.0
H197 H 0.63301 0.66972 0.15621 0.0
H198 H 0.44778 0.35342 0.85066 0.0
N199 N 0.47512 0.46012 0.96923 0.0
C200 C 0.49283 0.45253 0.00839 0.0
C201 C 0.498 0.38865 -0.01321 0.0
C202 C 0.47936 0.39603 0.9467 0.0
C203 C 0.50511 0.41702 0.01776 0.0
C204 C 0.46895 0.43239 0.93856 0.0
H205 H 0.41721 0.39822 0.80139 0.0
N206 N 0.44601 0.47444 0.89135 0.0
C207 C 0.41341 0.45521 0.8191 0.0
C208 C 0.45347 0.43976 0.89888 0.0
C209 C 0.42322 0.48249 0.8516 0.0
C210 C 0.42496 0.41935 0.82673 0.0
C211 C 0.44457 0.41123 0.86671 0.0
O212 O 0.35198 0.5338 0.89431 0.0
O213 O 0.4961 0.5711 0.98186 0.0
O214 O 0.56744 0.53383 0.05295 0.0
O215 O 0.44317 0.53473 0.01166 0.0
O216 O 0.39143 0.58097 0.94031 0.0
O217 O 0.34542 0.51028 0.94302 0.0
O218 O 0.71958 0.52901 0.06932 0.0
O219 O 0.57501 0.49367 0.98065 0.0
O220 O 0.51543 0.5208 0.90923 0.0
O221 O 0.63259 0.53186 0.95227 0.0
O222 O 0.68276 0.48319 0.0181 0.0
O223 O 0.72561 0.55839 0.02515 0.0
C224 C 0.43834 0.59865 0.9679 0.0
C225 C 0.24236 0.55504 0.90546 0.0
C226 C 0.16894 0.60233 0.93807 0.0
C227 C 0.23429 0.57529 0.94083 0.0
C228 C 0.11751 0.61237 0.89854 0.0
C229 C 0.19004 0.56475 0.86667 0.0
C230 C 0.12887 0.59403 0.86332 0.0
C231 C 0.49765 0.53733 0.04819 0.0
C232 C 0.30851 0.52583 0.9084 0.0
C233 C 0.45415 0.37547 0.87499 0.0
C234 C 0.47199 0.36787 0.91486 0.0
C235 C 0.63312 0.46599 -0.00751 0.0
C236 C 0.82788 0.51109 0.05485 0.0
C237 C 0.82457 0.49329 0.01649 0.0
C238 C 0.89055 0.477 0.00961 0.0
C239 C 0.95744 0.46842 0.04452 0.0
C240 C 0.89434 0.50372 0.08921 0.0
C241 C 0.95829 0.4807 0.08411 0.0
C242 C 0.58384 0.52301 0.9157 0.0
C243 C 0.76306 0.5394 0.05717 0.0
H244 H 0.27747 0.56864 0.9705 0.0
H245 H 0.06572 0.63273 0.89408 0.0
H246 H 0.19719 0.55 0.83905 0.0
H247 H 0.08848 0.6016 0.8333 0.0
H248 H 0.77134 0.49706 -0.00913 0.0
H249 H 1.01047 0.45499 0.04174 0.0
H250 H 0.8971 0.51623 0.11945 0.0
H251 H 1.01012 0.47489 0.11054 0.0
Eu252 Eu 0.53861 0.49026 0.46841 0.0
C253 C 0.40829 0.63643 0.50899 0.0
C254 C 0.30025 0.6473 0.44506 0.0
C255 C 0.30054 0.6867 0.50677 0.0
C256 C 0.37371 0.62766 0.46687 0.0
C257 C 0.37147 0.6661 0.52912 0.0
C258 C 0.26497 0.67728 0.46494 0.0
C259 C 0.47725 0.65354 0.59268 0.0
N260 N 0.47653 0.61575 0.53055 0.0
C261 C 0.51175 0.62458 0.57174 0.0
C262 C 0.40676 0.67437 0.57133 0.0
Eu263 Eu 0.53633 0.57188 0.49073 0.0
N264 N 0.40857 0.59829 0.448 0.0
C265 C 0.36736 0.58404 0.40986 0.0
C266 C 0.26243 0.63523 0.40431 0.0
C267 C 0.29529 0.60282 0.3871 0.0
H268 H 0.56788 0.61011 0.58871 0.0
H269 H 0.26434 0.5917 0.35665 0.0
H270 H 0.20912 0.69278 0.44843 0.0
H271 H 0.50573 0.66013 0.62521 0.0
H272 H 0.38763 0.55734 0.39722 0.0
H273 H 0.80224 0.47608 0.60785 0.0
H274 H 0.20605 0.64951 0.38674 0.0
H275 H 0.51901 0.45284 0.37159 0.0
H276 H 0.67963 0.50825 0.5642 0.0
H277 H 0.58896 0.40434 0.33763 0.0
H278 H 0.27198 0.70962 0.52179 0.0
H279 H 0.86789 0.41909 0.58031 0.0
H280 H 0.8738 0.37592 0.51972 0.0
H281 H 0.38025 0.69695 0.58768 0.0
H282 H 0.81866 0.35842 0.44591 0.0
N283 N 0.66519 0.46633 0.51435 0.0
C284 C 0.70236 0.48159 0.55275 0.0
C285 C 0.81148 0.43225 0.56143 0.0
C286 C 0.77799 0.41949 0.5204 0.0
C287 C 0.77441 0.46417 0.57723 0.0
C288 C 0.70441 0.43774 0.49687 0.0
H289 H 0.71475 0.36962 0.37808 0.0
N290 N 0.60639 0.44847 0.43135 0.0
C291 C 0.6141 0.41117 0.37039 0.0
C292 C 0.67446 0.42878 0.4545 0.0
C293 C 0.57517 0.43925 0.38994 0.0
C294 C 0.68477 0.39153 0.39337 0.0
C295 C 0.71573 0.40005 0.43581 0.0
O296 O 0.45223 0.46555 0.41938 0.0
O297 O 0.44721 0.53778 0.47997 0.0
O298 O 0.55165 0.55086 0.55074 0.0
O299 O 0.54945 0.48978 0.53342 0.0
O300 O 0.44557 0.53697 0.47996 0.0
O301 O 0.53071 0.43646 0.47276 0.0
O302 O 0.62456 0.59661 0.53777 0.0
O303 O 0.62675 0.52428 0.47853 0.0
O304 O 0.52143 0.51214 0.40879 0.0
O305 O 0.51533 0.57386 0.4247 0.0
O306 O 0.62827 0.52496 0.47854 0.0
O307 O 0.55097 0.62236 0.48008 0.0
C308 C 0.38155 0.54727 0.48643 0.0
C309 C 0.42347 0.41504 0.43256 0.0
C310 C 0.35441 0.3958 0.46232 0.0
C311 C 0.39568 0.41963 0.46331 0.0
C312 C 0.34003 0.36765 0.43033 0.0
C313 C 0.40933 0.38722 0.40054 0.0
C314 C 0.36728 0.36352 0.39941 0.0
C315 C 0.55147 0.519 0.56009 0.0
C316 C 0.47683 0.43511 0.43678 0.0
C317 C 0.78665 0.38062 0.45981 0.0
C318 C 0.81779 0.39039 0.5019 0.0
C319 C 0.69228 0.51494 0.47203 0.0
C320 C 0.64113 0.65412 0.53033 0.0
C321 C 0.64802 0.67025 0.50101 0.0
C322 C 0.6695 0.70314 0.51164 0.0
C323 C 0.68601 0.71989 0.55191 0.0
C324 C 0.65819 0.67023 0.5708 0.0
C325 C 0.6808 0.70323 0.58155 0.0
C326 C 0.51566 0.54458 0.39857 0.0
C327 C 0.60347 0.62449 0.51649 0.0
H328 H 0.40915 0.4404 0.48882 0.0
H329 H 0.30943 0.34836 0.42994 0.0
H330 H 0.43295 0.38312 0.37735 0.0
H331 H 0.3575 0.34146 0.37527 0.0
H332 H 0.63414 0.65796 0.4696 0.0
H333 H 0.70308 0.74566 0.56027 0.0
H334 H 0.65092 0.65821 0.5934 0.0
H335 H 0.6929 0.71617 0.61251 0.0
C336 C 0.41916 0.66739 0.00899 0.0
C337 C 0.41512 0.64304 0.97235 0.0
C338 C 0.38271 0.70672 0.00887 0.0
C339 C 0.33709 0.72505 0.97203 0.0
C340 C 0.33332 0.70037 0.93611 0.0
C341 C 0.36946 0.66182 0.93628 0.0
C342 C 0.2916 0.76769 0.96696 0.0
C343 C 0.28162 0.79848 -0.00467 0.0
C344 C 0.23575 0.84103 -0.01008 0.0
C345 C 0.23656 0.86579 0.02551 0.0
C346 C 0.19999 0.90433 0.02478 0.0
C347 C 0.15681 0.92286 -0.01166 0.0
H348 H 0.18857 0.84336 0.92384 0.0
C349 C 0.15613 0.89846 0.95217 0.0
C350 C 0.19282 0.85922 0.95285 0.0
H351 H 0.12865 0.90985 0.92279 0.0
H352 H 0.44875 0.65593 0.03829 0.0
H353 H 0.38945 0.72255 0.03813 0.0
H354 H 0.3 0.71094 0.90646 0.0
H355 H 0.35972 0.64604 0.90677 0.0
H356 H 0.26236 0.77387 0.93517 0.0
H357 H 0.31057 0.79237 0.02716 0.0
H358 H 0.26789 0.8553 0.05533 0.0
H359 H 0.20753 0.92031 0.05406 0.0
C360 C 0.70687 0.39997 0.01822 0.0
C361 C 0.65497 0.42186 -0.01496 0.0
C362 C 0.73929 0.36087 0.01349 0.0
C363 C 0.72386 0.33965 0.97472 0.0
C364 C 0.67256 0.3616 0.94149 0.0
C365 C 0.64084 0.40076 0.94625 0.0
C366 C 0.75849 0.29633 0.96631 0.0
C367 C 0.81001 0.26898 -0.00707 0.0
C368 C 0.84439 0.2256 -0.01543 0.0
C369 C 0.89186 0.20313 0.01792 0.0
C370 C 0.92358 0.16394 0.01311 0.0
C371 C 0.91344 0.14329 0.9742 0.0
H372 H 0.79806 0.21879 0.9182 0.0
C373 C 0.86588 0.16581 0.94089 0.0
C374 C 0.83311 0.20489 0.94566 0.0
H375 H 0.85266 0.1528 0.90991 0.0
H376 H 0.72425 0.41356 0.04895 0.0
H377 H 0.77788 0.34743 0.04079 0.0
H378 H 0.65749 0.34839 0.91056 0.0
H379 H 0.60686 0.41471 0.91877 0.0
H380 H 0.73824 0.28637 0.93409 0.0
H381 H 0.82992 0.27891 0.02517 0.0
H382 H 0.90394 0.21599 0.04893 0.0
H383 H 0.9548 0.14967 0.04054 0.0
C384 C 0.15902 0.23785 0.45935 0.0
C385 C 0.21009 0.21123 0.48541 0.0
C386 C 0.18581 0.26335 0.45017 0.0
C387 C 0.26292 0.26199 0.46796 0.0
C388 C 0.3137 0.23055 0.48547 0.0
C389 C 0.28694 0.20497 0.49457 0.0
C390 C 0.28607 0.29634 0.48375 0.0
C391 C 0.26368 0.31788 0.51299 0.0
C392 C 0.2834 0.35324 0.52676 0.0
C393 C 0.2317 0.38231 0.50461 0.0
C394 C 0.25729 0.40409 0.48911 0.0
C395 C 0.33383 0.39657 0.49685 0.0
H396 H 0.40027 0.33109 0.56182 0.0
C397 C 0.38564 0.37493 0.5285 0.0
C398 C 0.35998 0.35311 0.54389 0.0
H399 H 0.44522 0.36941 0.53519 0.0
H400 H 0.09931 0.24235 0.45167 0.0
H401 H 0.14631 0.28739 0.43588 0.0
H402 H 0.37347 0.2291 0.49874 0.0
H403 H 0.3264 0.18392 0.51424 0.0
H404 H 0.32498 0.30283 0.47373 0.0
H405 H 0.22483 0.31126 0.52299 0.0
H406 H 0.1722 0.38312 0.49192 0.0
H407 H 0.21704 0.42138 0.4652 0.0
C408 C 0.91708 0.85191 0.53229 0.0
C409 C 0.8722 0.88143 0.509 0.0
C410 C 0.88445 0.83442 0.54845 0.0
C411 C 0.80699 0.84593 0.53906 0.0
C412 C 0.76931 0.88099 0.52641 0.0
C413 C 0.80197 0.89875 0.51056 0.0
C414 C 0.7643 0.81785 0.51959 0.0
C415 C 0.76204 0.80221 0.48205 0.0
C416 C 0.7246 0.77235 0.46315 0.0
C417 C 0.77005 0.73696 0.46757 0.0
C418 C 0.7459 0.7105 0.477 0.0
C419 C 0.67666 0.72005 0.48119 0.0
H420 H 0.61334 0.80601 0.45309 0.0
C421 C 0.62502 0.75243 0.46703 0.0
C422 C 0.64906 0.77876 0.45741 0.0
H423 H 0.57075 0.75954 0.46952 0.0
H424 H 0.9722 0.8388 0.53186 0.0
H425 H 0.9147 0.80771 0.55932 0.0
H426 H 0.70985 0.89061 0.52008 0.0
H427 H 0.7676 0.92209 0.49323 0.0
H428 H 0.73377 0.81074 0.53484 0.0
H429 H 0.7952 0.80837 0.46792 0.0
H430 H 0.82829 0.73171 0.47136 0.0
H431 H 0.78548 0.6851 0.48735 0.0
C432 C 0.40962 0.98598 0.96835 0.0
C433 C 0.43892 0.96036 -0.00204 0.0
C434 C 0.45876 1.00149 0.96248 0.0
C435 C 0.53586 0.98896 -0.01674 0.0
C436 C 0.56279 0.95528 -2e-05 0.0
C437 C 0.51292 0.93989 0.00573 0.0
C438 C 0.58387 1.01507 -0.00227 0.0
C439 C 0.56793 0.04574 0.02151 0.0
C440 C 0.60828 0.0747 0.03051 0.0
C441 C 0.56781 0.10781 0.01319 0.0
C442 C 0.59968 0.12415 -0.00486 0.0
C443 C 0.66902 0.10547 -0.0076 0.0
H444 H 0.71897 0.04043 0.05671 0.0
C445 C 0.71649 0.08029 0.02189 0.0
C446 C 0.68575 0.06482 0.04104 0.0
H447 H 0.77227 0.06637 0.02399 0.0
H448 H 0.35105 0.99965 0.95629 0.0
H449 H 0.43691 1.02637 0.94704 0.0
H450 H 0.62249 0.94396 0.014 0.0
H451 H 0.53571 0.91655 0.02362 0.0
H452 H 0.6324 1.00895 -0.01064 0.0
H453 H 0.51808 0.05173 0.02871 0.0
H454 H 0.50843 0.11727 0.00708 0.0
H455 H 0.56434 0.14673 0.9769 0.0
C456 C 0.31619 0.05157 0.5025 0.0
C457 C 0.26877 1.02706 0.47545 0.0
C458 C 0.39083 0.05208 0.50242 0.0
C459 C 0.42761 1.02743 0.47634 0.0
C460 C 0.37949 1.00363 0.45041 0.0
C461 C 0.30666 1.00348 0.45015 0.0
C462 C 0.51098 1.02234 0.47289 0.0
C463 C 0.57404 0.04012 0.491 0.0
C464 C 0.6571 0.0353 0.48727 0.0
C465 C 0.70222 0.06106 0.51065 0.0
C466 C 0.77479 0.06138 0.51072 0.0
C467 C 0.8156 0.03599 0.48787 0.0
H468 H 0.66968 0.98746 0.44422 0.0
C469 C 0.77144 1.00932 0.46354 0.0
C470 C 0.69679 1.0088 0.46366 0.0
H471 H 0.79287 0.98906 0.44317 0.0
H472 H 0.29747 0.0699 0.52507 0.0
H473 H 0.42058 0.07166 0.52411 0.0
H474 H 0.39933 0.98332 0.42946 0.0
H475 H 0.27982 0.98241 0.4296 0.0
H476 H 0.52024 0.99958 0.45092 0.0
H477 H 0.56449 0.06304 0.51274 0.0
H478 H 0.68017 0.08277 0.52967 0.0
H479 H 0.79929 0.08386 0.52927 0.0
C480 C 0.9601 0.46812 0.96304 0.0
C481 C 0.89273 0.48172 0.96967 0.0
C482 C 0.98425 0.4903 0.94695 0.0
C483 C 0.93954 0.52509 0.93639 0.0
C484 C 0.86443 0.53333 0.93143 0.0
C485 C 0.84013 0.51104 0.94694 0.0
C486 C 0.97708 0.55496 0.94495 0.0
C487 C 0.9794 0.57894 0.97831 0.0
C488 C 0.03843 0.59937 -0.00463 0.0
C489 C 0.11219 0.57896 0.01175 0.0
C490 C 0.16635 0.58556 0.00113 0.0
C491 C 0.14526 0.61239 0.97385 0.0
H492 H 0.9685 0.64961 0.96883 0.0
C493 C 0.08014 0.63996 0.97078 0.0
C494 C 1.02474 0.6326 0.97994 0.0
H495 H 0.06557 0.66337 0.95395 0.0
H496 H 0.99935 0.44366 0.97625 0.0
H497 H 0.04184 0.48286 0.94914 0.0
H498 H 0.82809 0.55953 0.9215 0.0
H499 H 0.78448 0.52142 0.94718 0.0
H500 H 1.01568 0.55271 0.93001 0.0
H501 H 0.94617 0.57946 -0.00409 0.0
H502 H 0.12426 0.55384 0.02534 0.0
H503 H 0.21839 0.56507 0.00781 0.0
C504 C 0.28045 0.54204 0.51481 0.0
C505 C 0.31225 0.52985 0.48323 0.0
C506 C 0.20506 0.54069 0.5115 0.0
C507 C 0.14899 0.52758 0.47522 0.0
C508 C 0.18019 0.51543 0.44337 0.0
C509 C 0.25566 0.51709 0.44673 0.0
C510 C 0.06103 0.52614 0.46759 0.0
C511 C 1.01278 0.53639 0.49149 0.0
C512 C 0.92485 0.53488 0.48382 0.0
C513 C 0.89414 0.54625 0.51591 0.0
C514 C 0.81864 0.54454 0.51245 0.0
C515 C 0.76154 0.53256 0.47562 0.0
H516 H 0.88253 0.51268 0.42049 0.0
C517 C 0.7928 0.52119 0.4438 0.0
C518 C 0.86823 0.52257 0.44722 0.0
H519 H 0.75847 0.50896 0.41498 0.0
H520 H 0.31429 0.5549 0.54331 0.0
H521 H 0.19031 0.55127 0.538 0.0
H522 H 0.144 0.50517 0.41386 0.0
H523 H 0.26794 0.50961 0.41919 0.0
H524 H 1.03278 0.51459 0.43676 0.0
H525 H 0.04106 0.54787 0.52235 0.0
H526 H 0.93074 0.55589 0.54566 0.0
H527 H 0.80675 0.55132 0.54012 0.0
C528 C 0.98056 1.02603 0.32519 0.0
C529 C 1.024 0.04553 0.35972 0.0
C530 C 0.97944 1.02741 0.28616 0.0
C531 C 1.02304 0.04778 0.28116 0.0
C532 C 0.06628 0.06725 0.31579 0.0
C533 C 0.06588 0.0666 0.35454 0.0
C534 C 1.02942 0.04701 0.2411 0.0
C535 C 0.97327 0.04383 0.20429 0.0
C536 C 0.98281 0.04176 0.16482 0.0
C537 C 0.9227 0.05758 0.13077 0.0
C538 C 0.93105 0.05575 0.09345 0.0
C539 C 0.99858 0.03696 0.08895 0.0
H540 H 0.09763 1.00991 0.18562 0.0
C541 C 0.05816 1.02054 0.12286 0.0
C542 C 0.05065 1.02315 0.16037 0.0
H543 H 0.11102 1.00562 0.12048 0.0
H544 H 0.94752 1.00968 0.32837 0.0
H545 H 0.94656 1.01153 0.26028 0.0
H546 H 0.10094 0.08285 0.31291 0.0
H547 H 0.10038 0.08163 0.38072 0.0
H548 H 0.08203 0.05043 0.24215 0.0
H549 H 0.91814 0.04411 0.20294 0.0
H550 H 0.86978 0.0721 0.13332 0.0
H551 H 0.88566 0.06986 0.0685 0.0
C552 C 0.11706 0.03892 0.8623 0.0
C553 C 0.09587 1.01307 0.87538 0.0
C554 C 0.11566 0.03497 0.82224 0.0
C555 C 0.09411 1.00467 0.79467 0.0
C556 C 0.07751 0.97787 0.80902 0.0
C557 C 0.07925 0.98183 0.84894 0.0
C558 C 0.08388 1.00074 0.75035 0.0
C559 C 0.11228 1.01953 0.73456 0.0
C560 C 0.09943 1.01753 0.69001 0.0
C561 C 0.12435 0.04262 0.67805 0.0
C562 C 0.11291 0.04303 0.63702 0.0
C563 C 0.07588 1.01839 0.60636 0.0
H564 H 0.04478 0.97167 0.6669 0.0
C565 C 0.05251 0.99247 0.61809 0.0
C566 C 0.06392 0.99204 0.65943 0.0
H567 H 1.02434 0.9729 0.59525 0.0
H568 H 0.13086 0.06315 0.8821 0.0
H569 H 0.12817 0.05663 0.81277 0.0
H570 H 0.06152 0.95404 0.78897 0.0
H571 H 0.0658 0.96077 0.85893 0.0
H572 H 0.05095 0.98158 0.73025 0.0
H573 H 0.14652 0.03802 0.75515 0.0
H574 H 0.15265 0.06232 0.70059 0.0
H575 H 0.13407 0.06257 0.62951 0.0
C576 C 0.53299 0.51844 0.33287 0.0
C577 C 0.50339 0.54808 0.35563 0.0
C578 C 0.5206 0.52078 0.29207 0.0
C579 C 0.47721 0.55292 0.27249 0.0
C580 C 0.44858 0.58285 0.29562 0.0
C581 C 0.46164 0.58054 0.33674 0.0
C582 C 0.4645 0.55685 0.22911 0.0
C583 C 0.47863 0.52835 0.20256 0.0
C584 C 0.47962 0.53218 0.16241 0.0
C585 C 0.53869 0.50954 0.15194 0.0
C586 C 0.54286 0.51128 0.11464 0.0
C587 C 0.48686 0.53498 0.08602 0.0
H588 H 0.37637 0.57361 0.14126 0.0
C589 C 0.42629 0.55724 0.09577 0.0
C590 C 0.42314 0.55619 0.13407 0.0
H591 H 0.3828 0.57596 0.07439 0.0
H592 H 0.56751 0.49354 0.34688 0.0
H593 H 0.54704 0.49739 0.27676 0.0
H594 H 0.4159 0.60816 0.28183 0.0
H595 H 0.43813 0.60395 0.35352 0.0
H596 H 0.44578 0.58429 0.21927 0.0
H597 H 0.49745 0.50074 0.21162 0.0
H598 H 0.58274 0.49076 0.1731 0.0
H599 H 0.59037 0.49379 0.10812 0.0
C600 C 0.58429 0.54195 0.63506 0.0
C601 C 0.55905 0.5156 0.6025 0.0
C602 C 0.58952 0.53926 0.67469 0.0
C603 C 0.56983 0.50994 0.68295 0.0
C604 C 0.545 0.48354 0.65036 0.0
C605 C 0.54011 0.48618 0.61082 0.0
C606 C 0.57101 0.50645 0.7242 0.0
C607 C 0.60946 0.52382 0.76016 0.0
C608 C 0.60881 0.52076 0.80118 0.0
C609 C 0.63693 0.54597 0.83457 0.0
C610 C 0.63362 0.54544 0.87282 0.0
C611 C 0.60151 0.5198 0.87855 0.0
H612 H 0.56302 0.47221 0.78446 0.0
C613 C 0.57876 0.49296 0.84632 0.0
C614 C 0.58182 0.49344 0.80812 0.0
H615 H 0.5586 0.47139 0.85069 0.0
H616 H 0.60056 0.56467 0.63015 0.0
H617 H 0.60756 0.56067 0.69833 0.0
H618 H 0.529 0.4607 0.65546 0.0
H619 H 0.52026 0.4654 0.5866 0.0
H620 H 0.5382 0.48844 0.72435 0.0
H621 H 0.64235 0.54176 0.75989 0.0
H622 H 0.6598 0.56686 0.83079 0.0
H623 H 0.65343 0.56604 0.89726 0.0
loop_
_geom_bond_atom_site_label_1
_geom_bond_atom_site_label_2
_geom_bond_distance
_geom_bond_site_symmetry_2
_ccdc_geom_bond_type
Eu0 N31 2.657 . S
Eu0 N38 2.609 . S
Eu0 O44 2.558 . S
Eu0 O45 2.612 1_566 S
Eu0 O47 2.339 1_556 S
Eu0 O48 2.563 1_565 S
Eu0 O49 2.419 . S
Eu0 O51 2.380 1_655 S
Eu0 O52 2.432 . S
Eu0 C64 2.848 . S
C1 C4 1.429 . S
C1 C5 1.411 . S
C1 N8 1.377 . S
C2 C4 1.420 . S
C2 C6 1.423 . S
C2 C14 1.392 1_554 S
C3 C5 1.420 . S
C3 C6 1.351 . S
C3 H26 0.931 . S
C4 C1 1.429 . S
C4 C2 1.420 . S
C4 N12 1.362 . S
C5 C1 1.411 . S
C5 C3 1.420 . S
C5 C10 1.395 . S
C6 C2 1.423 . S
C6 C3 1.351 . S
C6 H18 0.930 . S
C7 C9 1.400 . S
C7 C10 1.386 . S
C7 H19 0.930 . S
N8 C1 1.377 . S
N8 C9 1.321 . S
N8 Eu11 2.609 . S
C9 C7 1.400 . S
C9 N8 1.321 . S
C9 H16 0.930 . S
C10 C5 1.395 . S
C10 C7 1.386 . S
C10 H29 0.930 . S
Eu11 N8 2.609 . S
Eu11 N12 2.657 . S
Eu11 O45 2.380 1_455 S
Eu11 O46 2.432 . S
Eu11 O50 2.558 . S
Eu11 O51 2.612 1_544 S
Eu11 O53 2.339 1_554 S
Eu11 O54 2.563 1_545 S
Eu11 O55 2.419 . S
Eu11 C75 2.848 . S
N12 C4 1.362 . S
N12 Eu11 2.657 . S
N12 C13 1.334 1_554 S
C13 N12 1.334 1_556 S
C13 C15 1.413 . S
C13 H20 0.929 . S
C14 C2 1.392 1_556 S
C14 C15 1.367 . S
C14 H22 0.930 . S
C15 C13 1.413 . S
C15 C14 1.367 . S
C15 H17 0.930 1_455 S
H16 C9 0.930 . S
H17 C15 0.930 1_655 S
H18 C6 0.930 . S
H19 C7 0.930 . S
H20 C13 0.929 . S
H21 C35 0.930 1_455 S
H22 C14 0.930 . S
H23 C41 0.930 . S
H24 C32 0.929 . S
H25 C39 0.930 . S
H26 C3 0.931 . S
H27 C33 0.930 . S
H28 C66 0.930 . S
H29 C10 0.930 . S
H30 C65 0.931 . S
N31 Eu0 2.657 . S
N31 C32 1.334 1_556 S
N31 C36 1.362 . S
C32 H24 0.929 . S
C32 N31 1.334 1_554 S
C32 C35 1.413 . S
C33 H27 0.930 . S
C33 C34 1.392 1_554 S
C33 C35 1.367 . S
C34 C33 1.392 1_556 S
C34 C36 1.420 . S
C34 C66 1.423 . S
C35 H21 0.930 1_655 S
C35 C32 1.413 . S
C35 C33 1.367 . S
C36 N31 1.362 . S
C36 C34 1.420 . S
C36 C40 1.429 . S
H37 C42 0.930 . S
N38 Eu0 2.609 . S
N38 C40 1.377 . S
N38 C41 1.321 . S
C39 H25 0.930 . S
C39 C41 1.400 . S
C39 C42 1.386 . S
C40 C36 1.429 . S
C40 N38 1.377 . S
C40 C43 1.411 . S
C41 H23 0.930 . S
C41 N38 1.321 . S
C41 C39 1.400 . S
C42 H37 0.930 . S
C42 C39 1.386 . S
C42 C43 1.395 . S
C43 C40 1.411 . S
C43 C42 1.395 . S
C43 C65 1.420 . S
O44 Eu0 2.558 . S
O44 C64 1.257 . S
O45 Eu0 2.612 1_544 S
O45 Eu11 2.380 1_655 S
O45 C56 1.276 1_554 S
O46 Eu11 2.432 . S
O46 C63 1.273 . S
O47 Eu0 2.339 1_554 S
O47 C63 1.241 1_665 S
O48 Eu0 2.563 1_545 S
O48 C56 1.236 . S
O49 Eu0 2.419 . S
O49 C64 1.249 . S
O50 Eu11 2.558 . S
O50 C75 1.257 . S
O51 Eu0 2.380 1_455 S
O51 Eu11 2.612 1_566 S
O51 C67 1.279 1_556 S
O52 Eu0 2.432 . S
O52 C74 1.265 1_565 S
O53 Eu11 2.339 1_556 S
O53 C74 1.253 1_455 S
O54 Eu11 2.563 1_565 S
O54 C67 1.238 . S
O55 Eu11 2.419 . S
O55 C75 1.249 . S
C56 O45 1.276 1_556 S
C56 O48 1.236 . S
C57 C59 1.393 1_565 S
C57 C61 1.395 . S
C57 C64 1.492 . S
C58 C59 1.392 . S
C58 C60 1.379 1_545 S
C59 C57 1.393 1_545 S
C59 C58 1.392 . S
C59 H76 0.930 1_556 S
C60 C58 1.379 1_565 S
C60 C62 1.400 . S
C60 H77 0.933 1_565 S
C61 C57 1.395 . S
C61 C62 1.379 . S
C61 H78 0.930 . S
C62 C60 1.400 . S
C62 C61 1.379 . S
C62 H79 0.930 . S
C63 O46 1.273 . S
C63 O47 1.241 1_445 S
C64 Eu0 2.848 . S
C64 O44 1.257 . S
C64 O49 1.249 . S
C64 C57 1.492 . S
C65 H30 0.931 . S
C65 C43 1.420 . S
C65 C66 1.351 . S
C66 H28 0.930 . S
C66 C34 1.423 . S
C66 C65 1.351 . S
C67 O51 1.279 1_554 S
C67 O54 1.238 . S
C68 C69 1.393 1_545 S
C68 C72 1.395 . S
C68 C75 1.492 . S
C69 C68 1.393 1_565 S
C69 C70 1.392 . S
C69 H80 0.930 1_554 S
C70 C69 1.392 . S
C70 C71 1.386 1_565 S
C71 C70 1.386 1_545 S
C71 C73 1.395 . S
C71 H81 0.930 1_545 S
C72 C68 1.395 . S
C72 C73 1.379 . S
C72 H82 0.930 . S
C73 C71 1.395 . S
C73 C72 1.379 . S
C73 H83 0.930 . S
C74 O52 1.265 1_545 S
C74 O53 1.253 1_655 S
C75 Eu11 2.848 . S
C75 O50 1.257 . S
C75 O55 1.249 . S
C75 C68 1.492 . S
H76 C59 0.930 1_554 S
H77 C60 0.933 1_545 S
H78 C61 0.930 . S
H79 C62 0.930 . S
H80 C69 0.930 1_556 S
H81 C71 0.930 1_565 S
H82 C72 0.930 . S
H83 C73 0.930 . S
Eu84 N115 2.664 . S
Eu84 N122 2.616 . S
Eu84 O128 2.553 1_455 S
Eu84 O129 2.607 1_465 S
Eu84 O131 2.337 . S
Eu84 O132 2.553 1_455 S
Eu84 O133 2.413 1_455 S
Eu84 O135 2.388 . S
Eu84 O136 2.434 1_455 S
Eu84 C148 2.842 1_455 S
C85 C88 1.429 . S
C85 C89 1.411 . S
C85 N92 1.377 . S
C86 C88 1.420 . S
C86 C90 1.423 . S
C86 C98 1.392 . S
C87 C89 1.420 . S
C87 C90 1.351 . S
C87 H110 0.931 . S
C88 C85 1.429 . S
C88 C86 1.420 . S
C88 N96 1.362 . S
C89 C85 1.411 . S
C89 C87 1.420 . S
C89 C94 1.395 . S
C90 C86 1.423 . S
C90 C87 1.351 . S
C90 H102 0.930 . S
C91 C93 1.400 . S
C91 C94 1.386 . S
C91 H103 0.930 . S
N92 C85 1.377 . S
N92 C93 1.321 . S
N92 Eu95 2.610 . S
C93 C91 1.400 . S
C93 N92 1.321 . S
C93 H100 0.930 1_655 S
C94 C89 1.395 . S
C94 C91 1.386 . S
C94 H113 0.930 . S
Eu95 N92 2.610 . S
Eu95 N96 2.658 . S
Eu95 O129 2.382 . S
Eu95 O130 2.432 1_655 S
Eu95 O134 2.557 1_655 S
Eu95 O135 2.611 1_645 S
Eu95 O137 2.338 . S
Eu95 O138 2.561 1_655 S
Eu95 O139 2.418 1_655 S
Eu95 C159 2.846 1_655 S
N96 C88 1.362 . S
N96 Eu95 2.658 . S
N96 C97 1.334 . S
C97 N96 1.334 . S
C97 C99 1.413 . S
C97 H104 0.929 . S
C98 C86 1.392 . S
C98 C99 1.367 . S
C98 H106 0.930 . S
C99 C97 1.413 . S
C99 C98 1.367 . S
C99 H101 0.930 . S
H100 C93 0.930 1_455 S
H101 C99 0.930 . S
H102 C90 0.930 . S
H103 C91 0.930 . S
H104 C97 0.929 . S
H105 C119 0.930 . S
H106 C98 0.930 . S
H107 C125 0.930 1_655 S
H108 C116 0.929 . S
H109 C123 0.930 . S
H110 C87 0.931 . S
H111 C117 0.930 . S
H112 C150 0.930 . S
H113 C94 0.930 . S
H114 C149 0.931 . S
N115 Eu84 2.664 . S
N115 C116 1.334 . S
N115 C120 1.362 . S
C116 H108 0.929 . S
C116 N115 1.334 . S
C116 C119 1.413 . S
C117 H111 0.930 . S
C117 C118 1.392 . S
C117 C119 1.367 . S
C118 C117 1.392 . S
C118 C120 1.420 . S
C118 C150 1.423 . S
C119 H105 0.930 . S
C119 C116 1.413 . S
C119 C117 1.367 . S
C120 N115 1.362 . S
C120 C118 1.420 . S
C120 C124 1.429 . S
H121 C126 0.930 . S
N122 Eu84 2.616 . S
N122 C124 1.377 . S
N122 C125 1.321 . S
C123 H109 0.930 . S
C123 C125 1.400 . S
C123 C126 1.386 . S
C124 C120 1.429 . S
C124 N122 1.377 . S
C124 C127 1.411 . S
C125 H107 0.930 1_455 S
C125 N122 1.321 . S
C125 C123 1.400 . S
C126 H121 0.930 . S
C126 C123 1.386 . S
C126 C127 1.395 . S
C127 C124 1.411 . S
C127 C126 1.395 . S
C127 C149 1.420 . S
O128 Eu84 2.553 1_655 S
O128 C148 1.257 . S
O129 Eu84 2.607 1_645 S
O129 Eu95 2.382 . S
O129 C140 1.276 1_545 S
O130 Eu95 2.432 1_455 S
O130 C147 1.264 1_545 S
O131 Eu84 2.337 . S
O131 C147 1.254 . S
O132 Eu84 2.553 1_655 S
O132 C140 1.235 . S
O133 Eu84 2.413 1_655 S
O133 C148 1.249 . S
O134 Eu95 2.557 1_455 S
O134 C159 1.257 . S
O135 Eu84 2.388 . S
O135 Eu95 2.611 1_465 S
O135 C151 1.276 1_565 S
O136 Eu84 2.434 1_655 S
O136 C158 1.264 1_565 S
O137 Eu95 2.338 . S
O137 C158 1.254 . S
O138 Eu95 2.561 1_455 S
O138 C151 1.235 . S
O139 Eu95 2.418 1_455 S
O139 C159 1.249 . S
C140 O129 1.276 1_565 S
C140 O132 1.235 . S
C141 C143 1.393 . S
C141 C145 1.395 . S
C141 C148 1.492 . S
C142 C143 1.392 . S
C142 C144 1.386 . S
C143 C141 1.393 . S
C143 C142 1.392 . S
C143 H160 0.930 . S
C144 C142 1.386 . S
C144 C146 1.395 . S
C144 H161 0.930 . S
C145 C141 1.395 . S
C145 C146 1.379 . S
C145 H162 0.930 . S
C146 C144 1.395 . S
C146 C145 1.379 . S
C146 H163 0.930 . S
C147 O130 1.264 1_565 S
C147 O131 1.254 . S
C148 Eu84 2.842 1_655 S
C148 O128 1.257 . S
C148 O133 1.249 . S
C148 C141 1.492 . S
C149 H114 0.931 . S
C149 C127 1.420 . S
C149 C150 1.351 . S
C150 H112 0.930 . S
C150 C118 1.423 . S
C150 C149 1.351 . S
C151 O135 1.276 1_545 S
C151 O138 1.235 . S
C152 C153 1.393 . S
C152 C156 1.395 . S
C152 C159 1.492 . S
C153 C152 1.393 . S
C153 C154 1.392 . S
C153 H164 0.930 . S
C154 C153 1.392 . S
C154 C155 1.386 . S
C155 C154 1.386 . S
C155 C157 1.395 . S
C155 H165 0.930 . S
C156 C152 1.395 . S
C156 C157 1.379 . S
C156 H166 0.930 . S
C157 C155 1.395 . S
C157 C156 1.379 . S
C157 H167 0.930 . S
C158 O136 1.264 1_545 S
C158 O137 1.254 . S
C159 Eu95 2.846 1_455 S
C159 O134 1.257 . S
C159 O139 1.249 . S
C159 C152 1.492 . S
H160 C143 0.930 . S
H161 C144 0.930 . S
H162 C145 0.930 . S
H163 C146 0.930 . S
H164 C153 0.930 . S
H165 C155 0.930 . S
H166 C156 0.930 . S
H167 C157 0.930 . S
Eu168 N199 2.657 . S
Eu168 N206 2.609 . S
Eu168 O212 2.558 . S
Eu168 O213 2.612 1_556 S
Eu168 O215 2.339 1_556 S
Eu168 O216 2.563 . S
Eu168 O217 2.419 . S
Eu168 O219 2.380 . S
Eu168 O220 2.432 . S
Eu168 C232 2.848 . S
C169 C172 1.429 . S
C169 C173 1.411 . S
C169 N176 1.377 . S
C170 C172 1.420 . S
C170 C174 1.423 . S
C170 C182 1.392 1_554 S
C171 C173 1.420 . S
C171 C174 1.351 . S
C171 H194 0.931 . S
C172 C169 1.429 . S
C172 C170 1.420 . S
C172 N180 1.362 . S
C173 C169 1.411 . S
C173 C171 1.420 . S
C173 C178 1.395 . S
C174 C170 1.423 . S
C174 C171 1.351 . S
C174 H186 0.930 . S
C175 C177 1.400 . S
C175 C178 1.386 . S
C175 H187 0.930 . S
N176 C169 1.377 . S
N176 C177 1.321 . S
N176 Eu179 2.609 . S
C177 C175 1.400 . S
C177 N176 1.321 . S
C177 H184 0.930 . S
C178 C173 1.395 . S
C178 C175 1.386 . S
C178 H197 0.930 . S
Eu179 N176 2.609 . S
Eu179 N180 2.657 . S
Eu179 O213 2.380 . S
Eu179 O214 2.432 . S
Eu179 O218 2.558 . S
Eu179 O219 2.612 1_554 S
Eu179 O221 2.339 1_554 S
Eu179 O222 2.563 . S
Eu179 O223 2.419 . S
Eu179 C243 2.848 . S
N180 C172 1.362 . S
N180 Eu179 2.657 . S
N180 C181 1.334 1_554 S
C181 N180 1.334 1_556 S
C181 C183 1.413 . S
C181 H188 0.929 . S
C182 C170 1.392 1_556 S
C182 C183 1.367 . S
C182 H190 0.930 . S
C183 C181 1.413 . S
C183 C182 1.367 . S
C183 H185 0.930 . S
H184 C177 0.930 . S
H185 C183 0.930 . S
H186 C174 0.930 . S
H187 C175 0.930 . S
H188 C181 0.929 . S
H189 C203 0.930 . S
H190 C182 0.930 . S
H191 C209 0.930 . S
H192 C200 0.929 . S
H193 C207 0.930 . S
H194 C171 0.931 . S
H195 C201 0.930 . S
H196 C234 0.930 . S
H197 C178 0.930 . S
H198 C233 0.931 . S
N199 Eu168 2.657 . S
N199 C200 1.334 1_556 S
N199 C204 1.362 . S
C200 H192 0.929 . S
C200 N199 1.334 1_554 S
C200 C203 1.413 . S
C201 H195 0.930 . S
C201 C202 1.392 1_554 S
C201 C203 1.367 . S
C202 C201 1.392 1_556 S
C202 C204 1.420 . S
C202 C234 1.423 . S
C203 H189 0.930 . S
C203 C200 1.413 . S
C203 C201 1.367 . S
C204 N199 1.362 . S
C204 C202 1.420 . S
C204 C208 1.429 . S
H205 C210 0.930 . S
N206 Eu168 2.609 . S
N206 C208 1.377 . S
N206 C209 1.321 . S
C207 H193 0.930 . S
C207 C209 1.400 . S
C207 C210 1.386 . S
C208 C204 1.429 . S
C208 N206 1.377 . S
C208 C211 1.411 . S
C209 H191 0.930 . S
C209 N206 1.321 . S
C209 C207 1.400 . S
C210 H205 0.930 . S
C210 C207 1.386 . S
C210 C211 1.395 . S
C211 C208 1.411 . S
C211 C210 1.395 . S
C211 C233 1.420 . S
O212 Eu168 2.558 . S
O212 C232 1.257 . S
O213 Eu168 2.612 1_554 S
O213 Eu179 2.380 . S
O213 C224 1.276 1_554 S
O214 Eu179 2.432 . S
O214 C231 1.264 . S
O215 Eu168 2.339 1_554 S
O215 C231 1.254 . S
O216 Eu168 2.563 . S
O216 C224 1.236 . S
O217 Eu168 2.419 . S
O217 C232 1.249 . S
O218 Eu179 2.558 . S
O218 C243 1.257 . S
O219 Eu168 2.380 . S
O219 Eu179 2.612 1_556 S
O219 C235 1.279 1_556 S
O220 Eu168 2.432 . S
O220 C242 1.264 . S
O221 Eu179 2.339 1_556 S
O221 C242 1.254 . S
O222 Eu179 2.563 . S
O222 C235 1.238 . S
O223 Eu179 2.419 . S
O223 C243 1.249 . S
C224 O213 1.276 1_556 S
C224 O216 1.236 . S
C225 C227 1.393 . S
C225 C229 1.395 . S
C225 C232 1.492 . S
C226 C227 1.392 . S
C226 C228 1.386 . S
C227 C225 1.393 . S
C227 C226 1.392 . S
C227 H244 0.930 1_556 S
C228 C226 1.386 . S
C228 C230 1.395 . S
C228 H245 0.930 . S
C229 C225 1.395 . S
C229 C230 1.379 . S
C229 H246 0.930 . S
C230 C228 1.395 . S
C230 C229 1.379 . S
C230 H247 0.930 . S
C231 O214 1.264 . S
C231 O215 1.254 . S
C232 Eu168 2.848 . S
C232 O212 1.257 . S
C232 O217 1.249 . S
C232 C225 1.492 . S
C233 H198 0.931 . S
C233 C211 1.420 . S
C233 C234 1.351 . S
C234 H196 0.930 . S
C234 C202 1.423 . S
C234 C233 1.351 . S
C235 O219 1.279 1_554 S
C235 O222 1.238 . S
C236 C237 1.393 . S
C236 C240 1.395 . S
C236 C243 1.492 . S
C237 C236 1.393 . S
C237 C238 1.392 . S
C237 H248 0.930 1_554 S
C238 C237 1.392 . S
C238 C239 1.386 . S
C239 C238 1.386 . S
C239 C241 1.395 . S
C239 H249 0.930 . S
C240 C236 1.395 . S
C240 C241 1.379 . S
C240 H250 0.930 . S
C241 C239 1.395 . S
C241 C240 1.379 . S
C241 H251 0.930 . S
C242 O220 1.264 . S
C242 O221 1.254 . S
C243 Eu179 2.848 . S
C243 O218 1.257 . S
C243 O223 1.249 . S
C243 C236 1.492 . S
H244 C227 0.930 1_554 S
H245 C228 0.930 . S
H246 C229 0.930 . S
H247 C230 0.930 . S
H248 C237 0.930 1_556 S
H249 C239 0.930 . S
H250 C240 0.930 . S
H251 C241 0.930 . S
Eu252 N283 2.657 . S
Eu252 N290 2.609 . S
Eu252 O296 2.558 . S
Eu252 O297 2.612 . S
Eu252 O299 2.339 . S
Eu252 O300 2.563 . S
Eu252 O301 2.419 . S
Eu252 O303 2.380 . S
Eu252 O304 2.432 . S
Eu252 C316 2.848 . S
C253 C256 1.429 . S
C253 C257 1.411 . S
C253 N260 1.377 . S
C254 C256 1.420 . S
C254 C258 1.423 . S
C254 C266 1.392 . S
C255 C257 1.420 . S
C255 C258 1.351 . S
C255 H278 0.931 . S
C256 C253 1.429 . S
C256 C254 1.420 . S
C256 N264 1.362 . S
C257 C253 1.411 . S
C257 C255 1.420 . S
C257 C262 1.395 . S
C258 C254 1.423 . S
C258 C255 1.351 . S
C258 H270 0.930 . S
C259 C261 1.400 . S
C259 C262 1.386 . S
C259 H271 0.930 . S
N260 C253 1.377 . S
N260 C261 1.321 . S
N260 Eu263 2.609 . S
C261 C259 1.400 . S
C261 N260 1.321 . S
C261 H268 0.930 . S
C262 C257 1.395 . S
C262 C259 1.386 . S
C262 H281 0.930 . S
Eu263 N260 2.609 . S
Eu263 N264 2.657 . S
Eu263 O297 2.380 . S
Eu263 O298 2.432 . S
Eu263 O302 2.558 . S
Eu263 O303 2.612 . S
Eu263 O305 2.339 . S
Eu263 O306 2.563 . S
Eu263 O307 2.419 . S
Eu263 C327 2.848 . S
N264 C256 1.362 . S
N264 Eu263 2.657 . S
N264 C265 1.334 . S
C265 N264 1.334 . S
C265 C267 1.413 . S
C265 H272 0.929 . S
C266 C254 1.392 . S
C266 C267 1.367 . S
C266 H274 0.930 . S
C267 C265 1.413 . S
C267 C266 1.367 . S
C267 H269 0.930 . S
H268 C261 0.930 . S
H269 C267 0.930 . S
H270 C258 0.930 . S
H271 C259 0.930 . S
H272 C265 0.929 . S
H273 C287 0.930 . S
H274 C266 0.930 . S
H275 C293 0.930 . S
H276 C284 0.929 . S
H277 C291 0.930 . S
H278 C255 0.931 . S
H279 C285 0.930 . S
H280 C318 0.930 . S
H281 C262 0.930 . S
H282 C317 0.931 . S
N283 Eu252 2.657 . S
N283 C284 1.334 . S
N283 C288 1.362 . S
C284 H276 0.929 . S
C284 N283 1.334 . S
C284 C287 1.413 . S
C285 H279 0.930 . S
C285 C286 1.392 . S
C285 C287 1.367 . S
C286 C285 1.392 . S
C286 C288 1.420 . S
C286 C318 1.423 . S
C287 H273 0.930 . S
C287 C284 1.413 . S
C287 C285 1.367 . S
C288 N283 1.362 . S
C288 C286 1.420 . S
C288 C292 1.429 . S
H289 C294 0.930 . S
N290 Eu252 2.609 . S
N290 C292 1.377 . S
N290 C293 1.321 . S
C291 H277 0.930 . S
C291 C293 1.400 . S
C291 C294 1.386 . S
C292 C288 1.429 . S
C292 N290 1.377 . S
C292 C295 1.411 . S
C293 H275 0.930 . S
C293 N290 1.321 . S
C293 C291 1.400 . S
C294 H289 0.930 . S
C294 C291 1.386 . S
C294 C295 1.395 . S
C295 C292 1.411 . S
C295 C294 1.395 . S
C295 C317 1.420 . S
O296 Eu252 2.558 . S
O296 C316 1.257 . S
O297 Eu252 2.612 . S
O297 Eu263 2.380 . S
O297 C308 1.276 . S
O298 Eu263 2.432 . S
O298 C315 1.264 . S
O299 Eu252 2.339 . S
O299 C315 1.254 . S
O300 Eu252 2.563 . S
O300 C308 1.235 . S
O301 Eu252 2.419 . S
O301 C316 1.249 . S
O302 Eu263 2.558 . S
O302 C327 1.257 . S
O303 Eu252 2.380 . S
O303 Eu263 2.612 . S
O303 C319 1.276 . S
O304 Eu252 2.432 . S
O304 C326 1.264 . S
O305 Eu263 2.339 . S
O305 C326 1.254 . S
O306 Eu263 2.563 . S
O306 C319 1.235 . S
O307 Eu263 2.419 . S
O307 C327 1.249 . S
C308 O297 1.276 . S
C308 O300 1.235 . S
C309 C311 1.393 . S
C309 C313 1.395 . S
C309 C316 1.492 . S
C310 C311 1.392 . S
C310 C312 1.386 . S
C311 C309 1.393 . S
C311 C310 1.392 . S
C311 H328 0.930 . S
C312 C310 1.386 . S
C312 C314 1.395 . S
C312 H329 0.930 . S
C313 C309 1.395 . S
C313 C314 1.379 . S
C313 H330 0.930 . S
C314 C312 1.395 . S
C314 C313 1.379 . S
C314 H331 0.930 . S
C315 O298 1.264 . S
C315 O299 1.254 . S
C316 Eu252 2.848 . S
C316 O296 1.257 . S
C316 O301 1.249 . S
C316 C309 1.492 . S
C317 H282 0.931 . S
C317 C295 1.420 . S
C317 C318 1.351 . S
C318 H280 0.930 . S
C318 C286 1.423 . S
C318 C317 1.351 . S
C319 O303 1.276 . S
C319 O306 1.235 . S
C320 C321 1.393 . S
C320 C324 1.395 . S
C320 C327 1.492 . S
C321 C320 1.393 . S
C321 C322 1.392 . S
C321 H332 0.930 . S
C322 C321 1.392 . S
C322 C323 1.386 . S
C323 C322 1.386 . S
C323 C325 1.395 . S
C323 H333 0.930 . S
C324 C320 1.395 . S
C324 C325 1.379 . S
C324 H334 0.930 . S
C325 C323 1.395 . S
C325 C324 1.379 . S
C325 H335 0.930 . S
C326 O304 1.264 . S
C326 O305 1.254 . S
C327 Eu263 2.848 . S
C327 O302 1.257 . S
C327 O307 1.249 . S
C327 C320 1.492 . S
H328 C311 0.930 . S
H329 C312 0.930 . S
H330 C313 0.930 . S
H331 C314 0.930 . S
H332 C321 0.930 . S
H333 C323 0.930 . S
H334 C324 0.930 . S
H335 C325 0.930 . S
C336 C337 1.386 . S
C336 C338 1.383 . S
C336 H352 0.951 . S
C337 C336 1.386 . S
C337 C341 1.383 1_554 S
C338 C336 1.383 . S
C338 C339 1.402 1_554 S
C338 H353 0.951 . S
C339 C338 1.402 1_556 S
C339 C340 1.375 . S
C339 C342 1.481 . S
C340 C339 1.375 . S
C340 C341 1.367 . S
C340 H354 0.951 . S
C341 C337 1.383 1_556 S
C341 C340 1.367 . S
C341 H355 0.950 . S
C342 C339 1.481 . S
C342 C343 1.297 . S
C342 H356 0.950 . S
C343 C342 1.297 . S
C343 C344 1.479 . S
C343 H357 0.950 1_556 S
C344 C343 1.479 . S
C344 C345 1.375 1_556 S
C344 C350 1.404 . S
C345 C344 1.375 1_554 S
C345 C346 1.369 . S
C345 H358 0.950 . S
C346 C345 1.369 . S
C346 C347 1.392 1_554 S
C346 H359 0.951 . S
C347 C346 1.392 1_556 S
C347 C349 1.384 . S
H348 C350 0.949 . S
C349 C347 1.384 . S
C349 C350 1.385 . S
C349 H351 0.950 . S
C350 C344 1.404 . S
C350 H348 0.949 . S
C350 C349 1.385 . S
H351 C349 0.950 . S
H352 C336 0.951 . S
H353 C338 0.951 . S
H354 C340 0.951 . S
H355 C341 0.950 . S
H356 C342 0.950 . S
H357 C343 0.950 1_554 S
H358 C345 0.950 . S
H359 C346 0.951 . S
C360 C361 1.386 1_554 S
C360 C362 1.383 . S
C360 H376 0.951 . S
C361 C360 1.386 1_556 S
C361 C365 1.383 . S
C362 C360 1.383 . S
C362 C363 1.402 1_554 S
C362 H377 0.951 . S
C363 C362 1.402 1_556 S
C363 C364 1.375 . S
C363 C366 1.481 . S
C364 C363 1.375 . S
C364 C365 1.367 . S
C364 H378 0.951 . S
C365 C361 1.383 . S
C365 C364 1.367 . S
C365 H379 0.950 . S
C366 C363 1.481 . S
C366 C367 1.297 1_556 S
C366 H380 0.950 . S
C367 C366 1.297 1_554 S
C367 C368 1.479 . S
C367 H381 0.950 . S
C368 C367 1.479 . S
C368 C369 1.375 . S
C368 C374 1.404 1_554 S
C369 C368 1.375 . S
C369 C370 1.369 . S
C369 H382 0.950 . S
C370 C369 1.369 . S
C370 C371 1.392 . S
C370 H383 0.951 . S
C371 C370 1.392 . S
C371 C373 1.384 1_554 S
H372 C374 0.949 . S
C373 C371 1.384 1_556 S
C373 C374 1.385 . S
C373 H375 0.950 . S
C374 C368 1.404 1_556 S
C374 H372 0.949 . S
C374 C373 1.385 . S
H375 C373 0.950 . S
H376 C360 0.951 . S
H377 C362 0.951 . S
H378 C364 0.951 . S
H379 C365 0.950 . S
H380 C366 0.950 . S
H381 C367 0.950 . S
H382 C369 0.950 . S
H383 C370 0.951 . S
C384 C385 1.386 . S
C384 C386 1.383 . S
C384 H400 0.951 . S
C385 C384 1.386 . S
C385 C389 1.383 . S
C386 C384 1.383 . S
C386 C387 1.402 . S
C386 H401 0.951 . S
C387 C386 1.402 . S
C387 C388 1.375 . S
C387 C390 1.481 . S
C388 C387 1.375 . S
C388 C389 1.367 . S
C388 H402 0.951 . S
C389 C385 1.383 . S
C389 C388 1.367 . S
C389 H403 0.950 . S
C390 C387 1.481 . S
C390 C391 1.297 . S
C390 H404 0.950 . S
C391 C390 1.297 . S
C391 C392 1.479 . S
C391 H405 0.950 . S
C392 C391 1.479 . S
C392 C393 1.375 . S
C392 C398 1.404 . S
C393 C392 1.375 . S
C393 C394 1.369 . S
C393 H406 0.950 . S
C394 C393 1.369 . S
C394 C395 1.392 . S
C394 H407 0.951 . S
C395 C394 1.392 . S
C395 C397 1.384 . S
H396 C398 0.949 . S
C397 C395 1.384 . S
C397 C398 1.385 . S
C397 H399 0.950 . S
C398 C392 1.404 . S
C398 H396 0.949 . S
C398 C397 1.385 . S
H399 C397 0.950 . S
H400 C384 0.951 . S
H401 C386 0.951 . S
H402 C388 0.951 . S
H403 C389 0.950 . S
H404 C390 0.950 . S
H405 C391 0.950 . S
H406 C393 0.950 . S
H407 C394 0.951 . S
C408 C409 1.386 . S
C408 C410 1.383 . S
C408 H424 0.951 . S
C409 C408 1.386 . S
C409 C413 1.383 . S
C410 C408 1.383 . S
C410 C411 1.402 . S
C410 H425 0.951 . S
C411 C410 1.402 . S
C411 C412 1.375 . S
C411 C414 1.481 . S
C412 C411 1.375 . S
C412 C413 1.367 . S
C412 H426 0.951 . S
C413 C409 1.383 . S
C413 C412 1.367 . S
C413 H427 0.950 . S
C414 C411 1.481 . S
C414 C415 1.297 . S
C414 H428 0.950 . S
C415 C414 1.297 . S
C415 C416 1.479 . S
C415 H429 0.950 . S
C416 C415 1.479 . S
C416 C417 1.375 . S
C416 C422 1.404 . S
C417 C416 1.375 . S
C417 C418 1.369 . S
C417 H430 0.950 . S
C418 C417 1.369 . S
C418 C419 1.392 . S
C418 H431 0.951 . S
C419 C418 1.392 . S
C419 C421 1.384 . S
H420 C422 0.949 . S
C421 C419 1.384 . S
C421 C422 1.385 . S
C421 H423 0.950 . S
C422 C416 1.404 . S
C422 H420 0.949 . S
C422 C421 1.385 . S
H423 C421 0.950 . S
H424 C408 0.951 . S
H425 C410 0.951 . S
H426 C412 0.951 . S
H427 C413 0.950 . S
H428 C414 0.950 . S
H429 C415 0.950 . S
H430 C417 0.950 . S
H431 C418 0.951 . S
C432 C433 1.386 1_545 S
C432 C434 1.383 . S
C432 H448 0.951 . S
C433 C432 1.386 1_565 S
C433 C437 1.383 . S
C434 C432 1.383 . S
C434 C435 1.402 1_545 S
C434 H449 0.951 . S
C435 C434 1.402 1_565 S
C435 C436 1.375 . S
C435 C438 1.481 . S
C436 C435 1.375 . S
C436 C437 1.367 . S
C436 H450 0.951 . S
C437 C433 1.383 . S
C437 C436 1.367 . S
C437 H451 0.950 . S
C438 C435 1.481 . S
C438 C439 1.297 1_565 S
C438 H452 0.950 . S
C439 C438 1.297 1_545 S
C439 C440 1.479 . S
C439 H453 0.950 . S
C440 C439 1.479 . S
C440 C441 1.387 . S
C440 C446 1.404 1_545 S
C441 C440 1.387 . S
C441 C442 1.354 1_554 S
C441 H454 0.954 1_554 S
C442 C441 1.354 1_556 S
C442 C443 1.392 . S
C442 H455 0.951 . S
C443 C442 1.392 . S
C443 C445 1.384 1_546 S
H444 C446 0.949 . S
C445 C443 1.384 1_564 S
C445 C446 1.385 . S
C445 H447 0.950 . S
C446 C440 1.404 1_565 S
C446 H444 0.949 . S
C446 C445 1.385 . S
H447 C445 0.950 . S
H448 C432 0.951 . S
H449 C434 0.951 . S
H450 C436 0.951 . S
H451 C437 0.950 . S
H452 C438 0.950 . S
H453 C439 0.950 . S
H454 C441 0.954 1_556 S
H455 C442 0.951 . S
C456 C457 1.386 1_545 S
C456 C458 1.383 . S
C456 H472 0.951 . S
C457 C456 1.386 1_565 S
C457 C461 1.383 . S
C458 C456 1.383 . S
C458 C459 1.402 1_545 S
C458 H473 0.951 . S
C459 C458 1.402 1_565 S
C459 C460 1.375 . S
C459 C462 1.481 . S
C460 C459 1.375 . S
C460 C461 1.367 . S
C460 H474 0.951 . S
C461 C457 1.383 . S
C461 C460 1.367 . S
C461 H475 0.950 . S
C462 C459 1.481 . S
C462 C463 1.284 1_565 S
C462 H476 0.950 . S
C463 C462 1.284 1_545 S
C463 C464 1.483 1_545 S
C463 H477 0.961 . S
C464 C463 1.483 1_565 S
C464 C465 1.375 1_565 S
C464 C470 1.404 . S
C465 C464 1.375 1_545 S
C465 C466 1.369 . S
C465 H478 0.950 . S
C466 C465 1.369 . S
C466 C467 1.392 . S
C466 H479 0.951 . S
C467 C466 1.392 . S
C467 C469 1.384 1_545 S
H468 C470 0.949 . S
C469 C467 1.384 1_565 S
C469 C470 1.385 . S
C469 H471 0.950 . S
C470 C464 1.404 . S
C470 H468 0.949 . S
C470 C469 1.385 . S
H471 C469 0.950 . S
H472 C456 0.951 . S
H473 C458 0.951 . S
H474 C460 0.951 . S
H475 C461 0.950 . S
H476 C462 0.950 . S
H477 C463 0.961 . S
H478 C465 0.950 . S
H479 C466 0.951 . S
C480 C481 1.386 1_556 S
C480 C482 1.383 . S
C480 H496 0.951 . S
C481 C480 1.386 1_554 S
C481 C485 1.383 . S
C482 C480 1.383 . S
C482 C483 1.402 1_556 S
C482 H497 0.951 . S
C483 C482 1.402 1_554 S
C483 C484 1.375 . S
C483 C486 1.481 . S
C484 C483 1.375 . S
C484 C485 1.367 . S
C484 H498 0.951 . S
C485 C481 1.383 . S
C485 C484 1.367 . S
C485 H499 0.950 . S
C486 C483 1.481 . S
C486 C487 1.304 1_554 S
C486 H500 0.950 . S
C487 C486 1.304 1_556 S
C487 C488 1.470 1_655 S
C487 H501 0.953 . S
C488 C487 1.470 1_455 S
C488 C489 1.375 . S
C488 C494 1.401 1_556 S
C489 C488 1.375 . S
C489 C490 1.369 . S
C489 H502 0.950 . S
C490 C489 1.369 . S
C490 C491 1.392 . S
C490 H503 0.951 . S
C491 C490 1.392 . S
C491 C493 1.384 1_556 S
H492 C494 0.958 . S
C493 C491 1.384 1_554 S
C493 C494 1.379 . S
C493 H495 0.950 . S
C494 C488 1.401 1_554 S
C494 H492 0.958 . S
C494 C493 1.379 . S
H495 C493 0.950 . S
H496 C480 0.951 . S
H497 C482 0.951 . S
H498 C484 0.951 . S
H499 C485 0.950 . S
H500 C486 0.950 . S
H501 C487 0.953 . S
H502 C489 0.950 . S
H503 C490 0.951 . S
C504 C505 1.386 . S
C504 C506 1.383 . S
C504 H520 0.951 . S
C505 C504 1.386 . S
C505 C509 1.383 . S
C506 C504 1.383 . S
C506 C507 1.402 . S
C506 H521 0.951 . S
C507 C506 1.402 . S
C507 C508 1.375 . S
C507 C510 1.495 . S
C508 C507 1.375 . S
C508 C509 1.367 . S
C508 H522 0.951 . S
C509 C505 1.383 . S
C509 C508 1.367 . S
C509 H523 0.950 . S
C510 C507 1.495 . S
C510 C511 1.287 1_455 S
C510 H524 0.945 1_455 S
C511 C510 1.287 1_655 S
C511 C512 1.479 . S
C511 H525 0.950 . S
C512 C511 1.479 . S
C512 C513 1.375 . S
C512 C518 1.404 . S
C513 C512 1.375 . S
C513 C514 1.369 . S
C513 H526 0.950 . S
C514 C513 1.369 . S
C514 C515 1.392 . S
C514 H527 0.951 . S
C515 C514 1.392 . S
C515 C517 1.384 . S
H516 C518 0.949 . S
C517 C515 1.384 . S
C517 C518 1.385 . S
C517 H519 0.950 . S
C518 C512 1.404 . S
C518 H516 0.949 . S
C518 C517 1.385 . S
H519 C517 0.950 . S
H520 C504 0.951 . S
H521 C506 0.951 . S
H522 C508 0.951 . S
H523 C509 0.950 . S
H524 C510 0.945 1_655 S
H525 C511 0.950 . S
H526 C513 0.950 . S
H527 C514 0.951 . S
C528 C529 1.386 . S
C528 C530 1.383 . S
C528 H544 0.951 . S
C529 C528 1.386 . S
C529 C533 1.383 1_655 S
C530 C528 1.383 . S
C530 C531 1.402 1_655 S
C530 H545 0.951 . S
C531 C530 1.402 1_455 S
C531 C532 1.375 . S
C531 C534 1.481 . S
C532 C531 1.375 . S
C532 C533 1.367 . S
C532 H546 0.951 . S
C533 C529 1.383 1_455 S
C533 C532 1.367 . S
C533 H547 0.950 . S
C534 C531 1.481 . S
C534 C535 1.297 1_455 S
C534 H548 0.950 . S
C535 C534 1.297 1_655 S
C535 C536 1.479 . S
C535 H549 0.950 . S
C536 C535 1.479 . S
C536 C537 1.375 . S
C536 C542 1.404 1_655 S
C537 C536 1.375 . S
C537 C538 1.369 . S
C537 H550 0.950 . S
C538 C537 1.369 . S
C538 C539 1.392 . S
C538 H551 0.951 . S
C539 C538 1.392 . S
C539 C541 1.384 1_655 S
H540 C542 0.949 . S
C541 C539 1.384 1_455 S
C541 C542 1.385 . S
C541 H543 0.950 . S
C542 C536 1.404 1_455 S
C542 H540 0.949 . S
C542 C541 1.385 . S
H543 C541 0.950 . S
H544 C528 0.951 . S
H545 C530 0.951 . S
H546 C532 0.951 . S
H547 C533 0.950 . S
H548 C534 0.950 . S
H549 C535 0.950 . S
H550 C537 0.950 . S
H551 C538 0.951 . S
C552 C553 1.386 1_545 S
C552 C554 1.383 . S
C552 H568 0.951 . S
C553 C552 1.386 1_565 S
C553 C557 1.383 1_455 S
C554 C552 1.383 . S
C554 C555 1.402 1_545 S
C554 H569 0.951 . S
C555 C554 1.402 1_565 S
C555 C556 1.375 1_455 S
C555 C558 1.481 . S
C556 C555 1.375 1_655 S
C556 C557 1.367 . S
C556 H570 0.951 . S
C557 C553 1.383 1_655 S
C557 C556 1.367 . S
C557 H571 0.950 . S
C558 C555 1.481 . S
C558 C559 1.297 . S
C558 H572 0.950 1_455 S
C559 C558 1.297 . S
C559 C560 1.479 . S
C559 H573 0.950 1_565 S
C560 C559 1.479 . S
C560 C561 1.375 1_565 S
C560 C566 1.404 . S
C561 C560 1.375 1_545 S
C561 C562 1.369 . S
C561 H574 0.950 . S
C562 C561 1.369 . S
C562 C563 1.392 1_545 S
C562 H575 0.951 . S
C563 C562 1.392 1_565 S
C563 C565 1.384 . S
H564 C566 0.949 . S
C565 C563 1.384 . S
C565 C566 1.385 . S
C565 H567 0.950 1_455 S
C566 C560 1.404 . S
C566 H564 0.949 . S
C566 C565 1.385 . S
H567 C565 0.950 1_655 S
H568 C552 0.951 . S
H569 C554 0.951 . S
H570 C556 0.951 . S
H571 C557 0.950 . S
H572 C558 0.950 1_655 S
H573 C559 0.950 1_545 S
H574 C561 0.950 . S
H575 C562 0.951 . S
C576 C577 1.386 . S
C576 C578 1.383 . S
C576 H592 0.951 . S
C577 C576 1.386 . S
C577 C581 1.383 . S
C578 C576 1.383 . S
C578 C579 1.402 . S
C578 H593 0.951 . S
C579 C578 1.402 . S
C579 C580 1.375 . S
C579 C582 1.481 . S
C580 C579 1.375 . S
C580 C581 1.367 . S
C580 H594 0.951 . S
C581 C577 1.383 . S
C581 C580 1.367 . S
C581 H595 0.950 . S
C582 C579 1.481 . S
C582 C583 1.297 . S
C582 H596 0.950 . S
C583 C582 1.297 . S
C583 C584 1.479 . S
C583 H597 0.950 . S
C584 C583 1.479 . S
C584 C585 1.375 . S
C584 C590 1.404 . S
C585 C584 1.375 . S
C585 C586 1.369 . S
C585 H598 0.950 . S
C586 C585 1.369 . S
C586 C587 1.392 . S
C586 H599 0.951 . S
C587 C586 1.392 . S
C587 C589 1.384 . S
H588 C590 0.949 . S
C589 C587 1.384 . S
C589 C590 1.385 . S
C589 H591 0.950 . S
C590 C584 1.404 . S
C590 H588 0.949 . S
C590 C589 1.385 . S
H591 C589 0.950 . S
H592 C576 0.951 . S
H593 C578 0.951 . S
H594 C580 0.951 . S
H595 C581 0.950 . S
H596 C582 0.950 . S
H597 C583 0.950 . S
H598 C585 0.950 . S
H599 C586 0.951 . S
C600 C601 1.386 . S
C600 C602 1.383 . S
C600 H616 0.951 . S
C601 C600 1.386 . S
C601 C605 1.383 . S
C602 C600 1.383 . S
C602 C603 1.402 . S
C602 H617 0.951 . S
C603 C602 1.402 . S
C603 C604 1.375 . S
C603 C606 1.481 . S
C604 C603 1.375 . S
C604 C605 1.367 . S
C604 H618 0.951 . S
C605 C601 1.383 . S
C605 C604 1.367 . S
C605 H619 0.950 . S
C606 C603 1.481 . S
C606 C607 1.297 . S
C606 H620 0.950 . S
C607 C606 1.297 . S
C607 C608 1.479 . S
C607 H621 0.950 . S
C608 C607 1.479 . S
C608 C609 1.375 . S
C608 C614 1.404 . S
C609 C608 1.375 . S
C609 C610 1.369 . S
C609 H622 0.950 . S
C610 C609 1.369 . S
C610 C611 1.392 . S
C610 H623 0.951 . S
C611 C610 1.392 . S
C611 C613 1.384 . S
H612 C614 0.949 . S
C613 C611 1.384 . S
C613 C614 1.385 . S
C613 H615 0.950 . S
C614 C608 1.404 . S
C614 H612 0.949 . S
C614 C613 1.385 . S
H615 C613 0.950 . S
H616 C600 0.951 . S
H617 C602 0.951 . S
H618 C604 0.951 . S
H619 C605 0.950 . S
H620 C606 0.950 . S
H621 C607 0.950 . S
H622 C609 0.950 . S
H623 C610 0.951 . S
C337 C224 3.251 1_554 S
C347 C67 3.248 1_556 S
C361 C235 3.270 1_556 S
C371 C56 3.252 1_554 S
C385 C154 0.564 . S
C395 C310 0.790 . S
C409 C142 0.745 . S
C419 C322 0.492 . S
C433 C70 1.436 . S
C443 C58 1.547 . S
C457 C151 4.232 1_565 S
C467 C140 4.201 1_545 S
C481 C238 1.424 . S
C491 C226 1.436 . S
C505 C308 4.220 . S
C515 C319 4.190 . S
C529 C158 1.507 . S
C539 C63 1.504 1_655 S
C553 C74 1.493 1_465 S
C563 C147 1.460 . S
C577 C326 1.477 . S
C587 C231 1.460 . S
C601 C315 1.508 . S
C611 C242 1.424 . S
