# Generated by pormake.
# Topology vbr, (6)-cn, num edge types: 1
# Building blocks:
#     Node 0, Type 0, BuildingBlock: IZENUY_clean_sbu_0, # of connection points: 6
#     Node 1, Type 0, BuildingBlock: IZENUY_clean_sbu_0, # of connection points: 6
#     Node 2, Type 0, BuildingBlock: IZENUY_clean_sbu_0, # of connection points: 6
#     Node 3, Type 0, BuildingBlock: IZENUY_clean_sbu_0, # of connection points: 6
#     Node 4, Type 0, BuildingBlock: IZENUY_clean_sbu_0, # of connection points: 6
#     Node 5, Type 0, BuildingBlock: IZENUY_clean_sbu_0, # of connection points: 6
#     Node 6, Type 0, BuildingBlock: IZENUY_clean_sbu_0, # of connection points: 6
#     Node 7, Type 0, BuildingBlock: IZENUY_clean_sbu_0, # of connection points: 6
#     Node 8, Type 0, BuildingBlock: IZENUY_clean_sbu_0, # of connection points: 6
#     Node 9, Type 0, BuildingBlock: IZENUY_clean_sbu_0, # of connection points: 6
#     Node 10, Type 0, BuildingBlock: IZENUY_clean_sbu_0, # of connection points: 6
#     Node 11, Type 0, BuildingBlock: IZENUY_clean_sbu_0, # of connection points: 6
#     Node 12, Type 0, BuildingBlock: IZENUY_clean_sbu_0, # of connection points: 6
#     Node 13, Type 0, BuildingBlock: IZENUY_clean_sbu_0, # of connection points: 6
#     Node 14, Type 0, BuildingBlock: IZENUY_clean_sbu_0, # of connection points: 6
#     Node 15, Type 0, BuildingBlock: IZENUY_clean_sbu_0, # of connection points: 6
#     Edge 16, Type (0, 0), BuildingBlock: XIVTED_clean_linker_0, # of connection points: 2
#     Edge 17, Type (0, 0), BuildingBlock: XIVTED_clean_linker_0, # of connection points: 2
#     Edge 18, Type (0, 0), BuildingBlock: XIVTED_clean_linker_0, # of connection points: 2
#     Edge 19, Type (0, 0), BuildingBlock: XIVTED_clean_linker_0, # of connection points: 2
#     Edge 20, Type (0, 0), BuildingBlock: XIVTED_clean_linker_0, # of connection points: 2
#     Edge 21, Type (0, 0), BuildingBlock: XIVTED_clean_linker_0, # of connection points: 2
#     Edge 22, Type (0, 0), BuildingBlock: XIVTED_clean_linker_0, # of connection points: 2
#     Edge 23, Type (0, 0), BuildingBlock: XIVTED_clean_linker_0, # of connection points: 2
#     Edge 24, Type (0, 0), BuildingBlock: XIVTED_clean_linker_0, # of connection points: 2
#     Edge 25, Type (0, 0), BuildingBlock: XIVTED_clean_linker_0, # of connection points: 2
#     Edge 26, Type (0, 0), BuildingBlock: XIVTED_clean_linker_0, # of connection points: 2
#     Edge 27, Type (0, 0), BuildingBlock: XIVTED_clean_linker_0, # of connection points: 2
#     Edge 28, Type (0, 0), BuildingBlock: XIVTED_clean_linker_0, # of connection points: 2
#     Edge 29, Type (0, 0), BuildingBlock: XIVTED_clean_linker_0, # of connection points: 2
#     Edge 30, Type (0, 0), BuildingBlock: XIVTED_clean_linker_0, # of connection points: 2
#     Edge 31, Type (0, 0), BuildingBlock: XIVTED_clean_linker_0, # of connection points: 2
#     Edge 32, Type (0, 0), BuildingBlock: XIVTED_clean_linker_0, # of connection points: 2
#     Edge 33, Type (0, 0), BuildingBlock: XIVTED_clean_linker_0, # of connection points: 2
#     Edge 34, Type (0, 0), BuildingBlock: XIVTED_clean_linker_0, # of connection points: 2
#     Edge 35, Type (0, 0), BuildingBlock: XIVTED_clean_linker_0, # of connection points: 2
#     Edge 36, Type (0, 0), BuildingBlock: XIVTED_clean_linker_0, # of connection points: 2
#     Edge 37, Type (0, 0), BuildingBlock: XIVTED_clean_linker_0, # of connection points: 2
#     Edge 38, Type (0, 0), BuildingBlock: XIVTED_clean_linker_0, # of connection points: 2
#     Edge 39, Type (0, 0), BuildingBlock: XIVTED_clean_linker_0, # of connection points: 2
#     Edge 40, Type (0, 0), BuildingBlock: XIVTED_clean_linker_0, # of connection points: 2
#     Edge 41, Type (0, 0), BuildingBlock: XIVTED_clean_linker_0, # of connection points: 2
#     Edge 42, Type (0, 0), BuildingBlock: XIVTED_clean_linker_0, # of connection points: 2
#     Edge 43, Type (0, 0), BuildingBlock: XIVTED_clean_linker_0, # of connection points: 2
#     Edge 44, Type (0, 0), BuildingBlock: XIVTED_clean_linker_0, # of connection points: 2
#     Edge 45, Type (0, 0), BuildingBlock: XIVTED_clean_linker_0, # of connection points: 2
#     Edge 46, Type (0, 0), BuildingBlock: XIVTED_clean_linker_0, # of connection points: 2
#     Edge 47, Type (0, 0), BuildingBlock: XIVTED_clean_linker_0, # of connection points: 2
#     Edge 48, Type (0, 0), BuildingBlock: XIVTED_clean_linker_0, # of connection points: 2
#     Edge 49, Type (0, 0), BuildingBlock: XIVTED_clean_linker_0, # of connection points: 2
#     Edge 50, Type (0, 0), BuildingBlock: XIVTED_clean_linker_0, # of connection points: 2
#     Edge 51, Type (0, 0), BuildingBlock: XIVTED_clean_linker_0, # of connection points: 2
#     Edge 52, Type (0, 0), BuildingBlock: XIVTED_clean_linker_0, # of connection points: 2
#     Edge 53, Type (0, 0), BuildingBlock: XIVTED_clean_linker_0, # of connection points: 2
#     Edge 54, Type (0, 0), BuildingBlock: XIVTED_clean_linker_0, # of connection points: 2
#     Edge 55, Type (0, 0), BuildingBlock: XIVTED_clean_linker_0, # of connection points: 2
#     Edge 56, Type (0, 0), BuildingBlock: XIVTED_clean_linker_0, # of connection points: 2
#     Edge 57, Type (0, 0), BuildingBlock: XIVTED_clean_linker_0, # of connection points: 2
#     Edge 58, Type (0, 0), BuildingBlock: XIVTED_clean_linker_0, # of connection points: 2
#     Edge 59, Type (0, 0), BuildingBlock: XIVTED_clean_linker_0, # of connection points: 2
#     Edge 60, Type (0, 0), BuildingBlock: XIVTED_clean_linker_0, # of connection points: 2
#     Edge 61, Type (0, 0), BuildingBlock: XIVTED_clean_linker_0, # of connection points: 2
#     Edge 62, Type (0, 0), BuildingBlock: XIVTED_clean_linker_0, # of connection points: 2
#     Edge 63, Type (0, 0), BuildingBlock: XIVTED_clean_linker_0, # of connection points: 2
# Relax obj value: 0.289
# Max RMSD: 0.272
# Mean RMSD: 0.272
data_MOF--net-vbr--node1-IZENUY_clean_sbu_0--edge1-XIVTED_clean_linker_0
_symmetry_space_group_name_H-M    P1
_symmetry_Int_Tables_number       1
_symmetry_cell_setting            triclinic
loop_
_symmetry_equiv_pos_as_xyz
'x, y, z'
_cell_length_a     43.512679
_cell_length_b     28.770148
_cell_length_c     54.463762
_cell_angle_alpha  89.952361
_cell_angle_beta   89.888325
_cell_angle_gamma 89.981293
loop_
_atom_site_label
_atom_site_type_symbol
_atom_site_fract_x
_atom_site_fract_y
_atom_site_fract_z
_atom_type_partial_charge
Fe0 Fe 0.35421 0.1738 0.10943 0.0
Fe1 Fe 0.34946 0.08339 0.13964 0.0
O2 O 0.33237 0.13484 0.12773 0.0
Fe3 Fe 0.29305 0.14758 0.13368 0.0
O4 O 0.28346 0.14639 0.10118 0.0
O5 O 0.32188 0.1918 0.09047 0.0
O6 O 0.36121 0.12978 0.08686 0.0
C7 C 0.37178 0.08965 0.0903 0.0
C8 C 0.32181 0.23665 0.13569 0.0
O9 O 0.37319 0.07215 0.11179 0.0
C10 C 0.31132 0.11763 0.17895 0.0
O11 O 0.39084 0.16251 0.12456 0.0
O12 O 0.38024 0.1149 0.15491 0.0
O13 O 0.29827 0.21111 0.13316 0.0
O14 O 0.34822 0.22139 0.13062 0.0
C15 C 0.29258 0.04868 0.12934 0.0
O16 O 0.32766 0.0857 0.16921 0.0
O17 O 0.30019 0.15004 0.16617 0.0
C18 C 0.39804 0.14352 0.14464 0.0
O19 O 0.32099 0.04685 0.12545 0.0
O20 O 0.28009 0.08645 0.13588 0.0
C21 C 0.29684 0.1717 0.08551 0.0
Fe22 Fe 0.22674 0.86291 0.6338 0.0
Fe23 Fe 0.16458 0.8375 0.61141 0.0
O24 O 0.1875 0.87693 0.62847 0.0
Fe25 Fe 0.17215 0.93009 0.63977 0.0
O26 O 0.20169 0.96418 0.62469 0.0
O27 O 0.24086 0.92281 0.63658 0.0
O28 O 0.23528 0.86485 0.60106 0.0
C29 C 0.22069 0.84052 0.5856 0.0
C30 C 0.20937 0.8933 0.67904 0.0
O31 O 0.19599 0.82004 0.59137 0.0
C32 C 0.12227 0.8719 0.64698 0.0
O33 O 0.22149 0.80001 0.63241 0.0
O34 O 0.17183 0.78973 0.63278 0.0
O35 O 0.1942 0.92653 0.66918 0.0
O36 O 0.21971 0.86003 0.66633 0.0
C37 C 0.14788 0.92234 0.59115 0.0
O38 O 0.12906 0.84922 0.62791 0.0
O39 O 0.14031 0.90195 0.6557 0.0
C40 C 0.19859 0.77376 0.63558 0.0
O41 O 0.15608 0.88071 0.58855 0.0
O42 O 0.14857 0.942 0.61208 0.0
C43 C 0.22999 0.96037 0.62852 0.0
Fe44 Fe 0.34827 0.92625 0.88416 0.0
Fe45 Fe 0.29338 0.85932 0.88826 0.0
O46 O 0.33239 0.87275 0.89453 0.0
Fe47 Fe 0.35479 0.83255 0.91156 0.0
O48 O 0.36192 0.87464 0.93518 0.0
O49 O 0.37186 0.93575 0.91207 0.0
O50 O 0.3189 0.95996 0.89965 0.0
C51 C 0.29072 0.95698 0.89515 0.0
C52 C 0.39797 0.86858 0.87699 0.0
O53 O 0.27965 0.91986 0.88659 0.0
C54 C 0.32233 0.77088 0.88454 0.0
O55 O 0.32652 0.92546 0.85455 0.0
O56 O 0.30117 0.8589 0.85583 0.0
O57 O 0.39102 0.84595 0.89611 0.0
O58 O 0.37973 0.89804 0.86796 0.0
C59 C 0.29749 0.83238 0.93602 0.0
O60 O 0.29898 0.79628 0.888 0.0
O61 O 0.34883 0.78613 0.88935 0.0
C62 C 0.31162 0.893 0.84387 0.0
O63 O 0.28375 0.85846 0.92085 0.0
O64 O 0.32267 0.81292 0.9305 0.0
C65 C 0.37132 0.91574 0.93293 0.0
Fe66 Fe 0.16499 0.18093 0.41176 0.0
Fe67 Fe 0.17052 0.08784 0.38379 0.0
O68 O 0.18727 0.14004 0.39495 0.0
Fe69 Fe 0.22686 0.15184 0.38991 0.0
O70 O 0.23473 0.15208 0.42277 0.0
O71 O 0.19668 0.19988 0.43093 0.0
O72 O 0.15687 0.13874 0.43525 0.0
C73 C 0.14737 0.09768 0.43276 0.0
C74 C 0.19917 0.2406 0.38462 0.0
O75 O 0.14656 0.07831 0.4117 0.0
C76 C 0.20967 0.12025 0.34461 0.0
O77 O 0.12888 0.16903 0.39628 0.0
O78 O 0.13987 0.1182 0.36761 0.0
O79 O 0.22207 0.21494 0.38928 0.0
O80 O 0.17226 0.22689 0.38947 0.0
C81 C 0.2273 0.05366 0.39548 0.0
O82 O 0.19279 0.08894 0.35439 0.0
O83 O 0.22114 0.15262 0.35722 0.0
C84 C 0.12204 0.1481 0.37674 0.0
O85 O 0.19879 0.05179 0.39883 0.0
O86 O 0.23981 0.09109 0.38877 0.0
C87 C 0.22068 0.17866 0.43748 0.0
Fe88 Fe 0.67367 0.92418 0.88171 0.0
Fe89 Fe 0.6653 0.8303 0.90824 0.0
O90 O 0.68862 0.8697 0.89146 0.0
Fe91 Fe 0.72733 0.85432 0.88503 0.0
O92 O 0.74275 0.91412 0.88507 0.0
O93 O 0.70366 0.95598 0.89732 0.0
O94 O 0.65045 0.93341 0.90998 0.0
C95 C 0.6518 0.91351 0.93088 0.0
C96 C 0.70997 0.89159 0.84105 0.0
O97 O 0.66043 0.87183 0.93275 0.0
C98 C 0.69526 0.76852 0.87937 0.0
O99 O 0.64158 0.89778 0.86534 0.0
O100 O 0.62924 0.8474 0.89397 0.0
O101 O 0.72024 0.85694 0.85259 0.0
O102 O 0.69528 0.92391 0.85203 0.0
C103 C 0.72265 0.82195 0.93166 0.0
O104 O 0.66935 0.78534 0.88501 0.0
O105 O 0.71961 0.7916 0.88307 0.0
C106 C 0.62285 0.86919 0.87455 0.0
O107 O 0.6967 0.80589 0.92592 0.0
O108 O 0.73654 0.85015 0.91769 0.0
C109 C 0.73202 0.95152 0.89372 0.0
Fe110 Fe 0.85698 0.16083 0.40952 0.0
Fe111 Fe 0.79307 0.13754 0.38803 0.0
O112 O 0.83273 0.12484 0.39143 0.0
Fe113 Fe 0.84858 0.07488 0.377 0.0
O114 O 0.85706 0.04966 0.40711 0.0
O115 O 0.8802 0.11215 0.42101 0.0
O116 O 0.83348 0.15339 0.43658 0.0
C117 C 0.80509 0.16127 0.43807 0.0
C118 C 0.89746 0.13953 0.37318 0.0
O119 O 0.78807 0.1603 0.41923 0.0
C120 C 0.81287 0.11086 0.34021 0.0
O121 O 0.83748 0.21554 0.40184 0.0
O122 O 0.80092 0.19527 0.3762 0.0
O123 O 0.88758 0.09827 0.37399 0.0
O124 O 0.88283 0.1715 0.38385 0.0
C125 C 0.78887 0.04302 0.38909 0.0
O126 O 0.79193 0.11823 0.35599 0.0
O127 O 0.83966 0.09772 0.34645 0.0
C128 C 0.817 0.22619 0.38637 0.0
O129 O 0.78097 0.08037 0.39948 0.0
O130 O 0.81328 0.0413 0.3767 0.0
C131 C 0.87208 0.07018 0.42383 0.0
Fe132 Fe 0.6716 0.08436 0.13793 0.0
Fe133 Fe 0.66523 0.17492 0.10754 0.0
O134 O 0.6878 0.1358 0.12521 0.0
Fe135 Fe 0.72746 0.14833 0.12963 0.0
O136 O 0.74057 0.0881 0.1333 0.0
O137 O 0.70014 0.04752 0.12366 0.0
O138 O 0.64754 0.07122 0.1107 0.0
C139 C 0.64715 0.08914 0.08931 0.0
C140 C 0.71072 0.12183 0.17579 0.0
O141 O 0.65574 0.13033 0.08571 0.0
C142 C 0.70086 0.23876 0.13002 0.0
O143 O 0.64061 0.11517 0.15344 0.0
O144 O 0.62967 0.16576 0.12451 0.0
O145 O 0.72155 0.15362 0.16228 0.0
O146 O 0.69414 0.08925 0.16692 0.0
C147 C 0.72066 0.1678 0.08113 0.0
O148 O 0.67369 0.22398 0.12778 0.0
O149 O 0.7232 0.21123 0.12721 0.0
C150 C 0.62274 0.14474 0.14408 0.0
O151 O 0.69654 0.1898 0.08684 0.0
O152 O 0.73514 0.1439 0.09683 0.0
C153 C 0.72852 0.04998 0.12736 0.0
Fe154 Fe 0.85632 0.82879 0.60911 0.0
Fe155 Fe 0.79363 0.85676 0.62989 0.0
O156 O 0.8332 0.8697 0.62513 0.0
Fe157 Fe 0.8487 0.92312 0.63592 0.0
O158 O 0.87261 0.93352 0.60813 0.0
O159 O 0.86585 0.87041 0.5858 0.0
O160 O 0.82538 0.81084 0.58874 0.0
C161 C 0.80094 0.83125 0.58223 0.0
C162 C 0.89816 0.86477 0.6445 0.0
O163 O 0.78626 0.85714 0.59698 0.0
C164 C 0.81006 0.88878 0.67512 0.0
O165 O 0.84794 0.78253 0.6311 0.0
O166 O 0.79843 0.79372 0.6295 0.0
O167 O 0.88009 0.89553 0.65244 0.0
O168 O 0.89155 0.84062 0.62594 0.0
C169 C 0.79143 0.95459 0.62437 0.0
O170 O 0.79947 0.85547 0.66258 0.0
O171 O 0.8262 0.92094 0.6652 0.0
C172 C 0.82097 0.76711 0.6334 0.0
O173 O 0.77981 0.91697 0.63165 0.0
O174 O 0.81975 0.95711 0.62038 0.0
C175 C 0.87374 0.9123 0.58762 0.0
Fe176 Fe 0.85396 0.68224 0.11413 0.0
Fe177 Fe 0.8469 0.58688 0.13948 0.0
O178 O 0.831 0.64083 0.12995 0.0
Fe179 Fe 0.79175 0.65379 0.13543 0.0
O180 O 0.78394 0.65904 0.10256 0.0
O181 O 0.82263 0.70642 0.09631 0.0
O182 O 0.86013 0.64203 0.08917 0.0
C183 C 0.86914 0.60044 0.09069 0.0
C184 C 0.82183 0.7402 0.1437 0.0
O185 O 0.87083 0.57997 0.11143 0.0
C186 C 0.80818 0.6157 0.17958 0.0
O187 O 0.89001 0.66602 0.12856 0.0
O188 O 0.87796 0.61448 0.15661 0.0
O189 O 0.79821 0.71633 0.1386 0.0
O190 O 0.84838 0.72575 0.13801 0.0
C191 C 0.78954 0.55702 0.12573 0.0
O192 O 0.82455 0.58502 0.1688 0.0
O193 O 0.79725 0.64988 0.16804 0.0
C194 C 0.89638 0.64408 0.1479 0.0
O195 O 0.81814 0.55381 0.12315 0.0
O196 O 0.77758 0.59362 0.13417 0.0
C197 C 0.79766 0.68872 0.08938 0.0
Fe198 Fe 0.66647 0.3271 0.61062 0.0
Fe199 Fe 0.67408 0.42071 0.6378 0.0
O200 O 0.68952 0.36704 0.62727 0.0
Fe201 Fe 0.72865 0.35307 0.63289 0.0
O202 O 0.73738 0.35127 0.60016 0.0
O203 O 0.69797 0.30624 0.59147 0.0
O204 O 0.65938 0.36927 0.58687 0.0
C205 C 0.6503 0.41058 0.58921 0.0
C206 C 0.69892 0.266 0.63829 0.0
O207 O 0.65007 0.43041 0.61011 0.0
C208 C 0.71166 0.38747 0.67755 0.0
O209 O 0.63059 0.34139 0.6263 0.0
O210 O 0.64267 0.39298 0.6544 0.0
O211 O 0.72244 0.29039 0.63386 0.0
O212 O 0.67244 0.28094 0.63306 0.0
C213 C 0.73175 0.45036 0.62543 0.0
O214 O 0.69634 0.41978 0.66713 0.0
O215 O 0.722 0.35352 0.66546 0.0
C216 C 0.62411 0.36385 0.64553 0.0
O217 O 0.70333 0.45401 0.62199 0.0
O218 O 0.74298 0.41313 0.6337 0.0
C219 C 0.72309 0.32517 0.58541 0.0
Fe220 Fe 0.85241 0.33532 0.91362 0.0
Fe221 Fe 0.84596 0.42633 0.88366 0.0
O222 O 0.83028 0.37352 0.89516 0.0
Fe223 Fe 0.79152 0.35862 0.88848 0.0
O224 O 0.78089 0.36202 0.9208 0.0
O225 O 0.81995 0.31857 0.93272 0.0
O226 O 0.85943 0.37984 0.93612 0.0
C227 C 0.86782 0.42129 0.93308 0.0
C228 C 0.82023 0.26975 0.88909 0.0
O229 O 0.86813 0.43977 0.91184 0.0
C230 C 0.81112 0.38749 0.8436 0.0
O231 O 0.88879 0.34663 0.89823 0.0
O232 O 0.87864 0.39752 0.86918 0.0
O233 O 0.79698 0.29574 0.89106 0.0
O234 O 0.84666 0.2863 0.89276 0.0
C235 C 0.78745 0.45639 0.8923 0.0
O236 O 0.82543 0.42133 0.85363 0.0
O237 O 0.80062 0.35427 0.8563 0.0
C238 C 0.8964 0.36817 0.87898 0.0
O239 O 0.81543 0.46088 0.89731 0.0
O240 O 0.77741 0.41831 0.88424 0.0
C241 C 0.79479 0.33893 0.93718 0.0
Fe242 Fe 0.65938 0.66868 0.41232 0.0
Fe243 Fe 0.66567 0.57766 0.38279 0.0
O244 O 0.68221 0.629 0.39521 0.0
Fe245 Fe 0.72201 0.64074 0.39116 0.0
O246 O 0.72893 0.63961 0.42413 0.0
O247 O 0.69037 0.68637 0.43255 0.0
O248 O 0.65056 0.62498 0.43478 0.0
C249 C 0.64085 0.58439 0.43121 0.0
C250 C 0.69436 0.73039 0.38727 0.0
O251 O 0.64027 0.56695 0.40971 0.0
C252 C 0.70648 0.61128 0.3451 0.0
O253 O 0.62386 0.65781 0.39563 0.0
O254 O 0.63614 0.6093 0.36614 0.0
O255 O 0.71733 0.70429 0.3912 0.0
O256 O 0.66738 0.71608 0.39124 0.0
C257 C 0.72145 0.54194 0.39566 0.0
O258 O 0.68929 0.5796 0.35412 0.0
O259 O 0.71741 0.64308 0.35839 0.0
C260 C 0.61799 0.6386 0.37537 0.0
O261 O 0.69284 0.54086 0.39832 0.0
O262 O 0.73469 0.57939 0.38964 0.0
C263 C 0.71461 0.66559 0.43896 0.0
Fe264 Fe 0.17346 0.42921 0.87959 0.0
Fe265 Fe 0.16261 0.3443 0.91252 0.0
O266 O 0.1877 0.37802 0.89391 0.0
Fe267 Fe 0.22679 0.36174 0.89018 0.0
O268 O 0.24082 0.41733 0.90213 0.0
O269 O 0.20972 0.46035 0.88009 0.0
O270 O 0.1654 0.45488 0.9097 0.0
C271 C 0.14992 0.43546 0.92651 0.0
C272 C 0.20858 0.39216 0.84259 0.0
O273 O 0.14047 0.39427 0.92363 0.0
C274 C 0.20011 0.27551 0.88942 0.0
O275 O 0.13384 0.4079 0.8763 0.0
O276 O 0.13642 0.33464 0.88707 0.0
O277 O 0.22889 0.38213 0.85841 0.0
O278 O 0.18213 0.40674 0.84888 0.0
C279 C 0.21453 0.33981 0.94041 0.0
O280 O 0.18076 0.28854 0.90534 0.0
O281 O 0.21649 0.30475 0.87806 0.0
C282 C 0.12262 0.36729 0.87621 0.0
O283 O 0.18662 0.35122 0.93933 0.0
O284 O 0.23094 0.33787 0.92121 0.0
C285 C 0.2329 0.45644 0.89374 0.0
Fe286 Fe 0.29161 0.65207 0.39158 0.0
Fe287 Fe 0.34685 0.5866 0.38395 0.0
O288 O 0.33129 0.63946 0.39537 0.0
Fe289 Fe 0.35477 0.67998 0.41124 0.0
O290 O 0.32422 0.69953 0.43154 0.0
O291 O 0.28531 0.65256 0.42465 0.0
O292 O 0.27807 0.59157 0.39083 0.0
C293 C 0.29046 0.55405 0.39752 0.0
C294 C 0.31965 0.74015 0.38518 0.0
O295 O 0.31902 0.55189 0.40034 0.0
C296 C 0.39553 0.64521 0.37479 0.0
O297 O 0.29596 0.65269 0.35876 0.0
O298 O 0.32309 0.58785 0.35542 0.0
O299 O 0.3467 0.72608 0.38916 0.0
O300 O 0.29684 0.71502 0.39079 0.0
C301 C 0.37258 0.59643 0.4319 0.0
O302 O 0.37692 0.61562 0.3665 0.0
O303 O 0.38987 0.66708 0.39434 0.0
C304 C 0.30649 0.6198 0.34597 0.0
O305 O 0.3722 0.5769 0.4109 0.0
O306 O 0.36377 0.63781 0.43456 0.0
C307 C 0.30033 0.6788 0.43886 0.0
Fe308 Fe 0.1721 0.57779 0.14294 0.0
Fe309 Fe 0.16225 0.66562 0.1119 0.0
O310 O 0.18696 0.62967 0.12968 0.0
Fe311 Fe 0.22616 0.64429 0.13392 0.0
O312 O 0.2399 0.58879 0.12152 0.0
O313 O 0.20823 0.54634 0.14317 0.0
O314 O 0.16504 0.55429 0.11228 0.0
C315 C 0.1501 0.57516 0.09563 0.0
C316 C 0.20612 0.61282 0.18091 0.0
O317 O 0.14072 0.6164 0.09905 0.0
C318 C 0.20011 0.73141 0.13693 0.0
O319 O 0.13246 0.59862 0.14575 0.0
O320 O 0.13546 0.67275 0.13735 0.0
O321 O 0.22708 0.62264 0.16552 0.0
O322 O 0.17975 0.59882 0.17408 0.0
C323 C 0.21481 0.671 0.08419 0.0
O324 O 0.18016 0.72086 0.12099 0.0
O325 O 0.21657 0.70053 0.14678 0.0
C326 C 0.12151 0.63918 0.14724 0.0
O327 O 0.18656 0.66178 0.08507 0.0
O328 O 0.23135 0.66957 0.10328 0.0
C329 C 0.23276 0.55035 0.13111 0.0
Fe330 Fe 0.34952 0.42938 0.63911 0.0
Fe331 Fe 0.35798 0.33753 0.61043 0.0
O332 O 0.33453 0.37636 0.62745 0.0
Fe333 Fe 0.29523 0.36194 0.63232 0.0
O334 O 0.28078 0.42189 0.63478 0.0
O335 O 0.32037 0.46336 0.62366 0.0
O336 O 0.37382 0.44157 0.61178 0.0
C337 C 0.37442 0.42268 0.59064 0.0
C338 C 0.31127 0.39242 0.67779 0.0
O339 O 0.36622 0.38114 0.58768 0.0
C340 C 0.32419 0.27337 0.63461 0.0
O341 O 0.38097 0.40108 0.6554 0.0
O342 O 0.39325 0.34993 0.62705 0.0
O343 O 0.30139 0.35912 0.66495 0.0
O344 O 0.32664 0.42568 0.66816 0.0
C345 C 0.30219 0.33893 0.58425 0.0
O346 O 0.35087 0.28968 0.63174 0.0
O347 O 0.30106 0.29906 0.63113 0.0
C348 C 0.39949 0.37183 0.64647 0.0
O349 O 0.32706 0.31924 0.59023 0.0
O350 O 0.28738 0.36359 0.59948 0.0
C351 C 0.29193 0.45948 0.62691 0.0
H352 H 0.32351 0.18083 0.04127 0.0
H353 H 0.18345 0.32335 0.98359 0.0
H354 H 0.2366 0.19672 0.07845 0.0
H355 H 0.27196 0.30523 0.94879 0.0
H356 H 0.20122 0.27611 0.01816 0.0
H357 H 0.30276 0.22158 1.00581 0.0
C358 C 0.29974 0.19215 0.04166 0.0
C359 C 0.28166 0.18554 0.06265 0.0
C360 C 0.21672 0.28269 1.00297 0.0
C361 C 0.25797 0.23364 0.02252 0.0
C362 C 0.20673 0.31002 0.98333 0.0
C363 C 0.22623 0.31821 0.96317 0.0
C364 C 0.24638 0.2635 1.00241 0.0
C365 C 0.25608 0.29987 0.96385 0.0
C366 C 0.28797 0.2158 0.02153 0.0
C367 C 0.25109 0.20087 0.06242 0.0
N368 N 0.26514 0.27325 0.98306 0.0
N369 N 0.24024 0.2249 0.0427 0.0
H370 H 0.33228 0.69742 0.47993 0.0
H371 H 0.19129 0.82866 0.54275 0.0
H372 H 0.24034 0.69757 0.45049 0.0
H373 H 0.28068 0.81757 0.5763 0.0
H374 H 0.21009 0.78518 0.5074 0.0
H375 H 0.31412 0.7413 0.51541 0.0
C376 C 0.30806 0.70594 0.4813 0.0
C377 C 0.28768 0.69409 0.4624 0.0
C378 C 0.22576 0.79263 0.52231 0.0
C379 C 0.26699 0.74532 0.50241 0.0
C380 C 0.21517 0.81792 0.5423 0.0
C381 C 0.23458 0.82657 0.56229 0.0
C382 C 0.25594 0.77565 0.52241 0.0
C383 C 0.26519 0.81195 0.56105 0.0
C384 C 0.2978 0.73132 0.50139 0.0
C385 C 0.25664 0.7058 0.46484 0.0
N386 N 0.27491 0.78662 0.54147 0.0
N387 N 0.24725 0.73139 0.48442 0.0
H388 H 0.27371 0.69999 0.07567 0.0
H389 H 0.23613 0.81636 0.94534 0.0
H390 H 0.18445 0.69154 0.04134 0.0
H391 H 0.32598 0.81266 0.97859 0.0
H392 H 0.21515 0.77647 0.98168 0.0
H393 H 0.29237 0.7443 0.04063 0.0
C394 C 0.2581 0.70697 0.06064 0.0
C395 C 0.22745 0.69201 0.06153 0.0
C396 C 0.23939 0.78488 0.98107 0.0
C397 C 0.24859 0.74359 0.02137 0.0
C398 C 0.25123 0.8081 0.96052 0.0
C399 C 0.28278 0.81748 0.95904 0.0
C400 C 0.25933 0.77142 1.00012 0.0
C401 C 0.30153 0.80562 0.97899 0.0
C402 C 0.26872 0.73262 0.04067 0.0
C403 C 0.20829 0.70233 0.04147 0.0
N404 N 0.28957 0.783 0.9986 0.0
N405 N 0.21914 0.72769 0.02225 0.0
H406 H 0.24135 0.32269 0.57434 0.0
H407 H 0.28163 0.19179 0.44835 0.0
H408 H 0.33213 0.31747 0.54246 0.0
H409 H 0.19025 0.20109 0.47883 0.0
H410 H 0.30127 0.23432 0.48405 0.0
H411 H 0.22174 0.27893 0.53908 0.0
C412 C 0.25692 0.31339 0.55959 0.0
C413 C 0.2883 0.32346 0.56119 0.0
C414 C 0.27696 0.22659 0.48303 0.0
C415 C 0.26652 0.27247 0.52146 0.0
C416 C 0.26591 0.20175 0.46287 0.0
C417 C 0.23438 0.19335 0.46074 0.0
C418 C 0.25621 0.24282 0.50097 0.0
C419 C 0.21476 0.20741 0.47982 0.0
C420 C 0.2459 0.28783 0.53969 0.0
C421 C 0.30774 0.31002 0.54187 0.0
N422 N 0.22595 0.23184 0.49905 0.0
N423 N 0.29659 0.28486 0.52289 0.0
H424 H 0.76545 0.86123 0.96249 0.0
H425 H 0.75636 0.64812 0.05768 0.0
H426 H 0.71262 0.73636 0.95033 0.0
H427 H 0.80834 0.77374 0.07013 0.0
H428 H 0.73962 0.67997 0.01803 0.0
H429 H 0.78324 0.82842 1.00163 0.0
C430 C 0.758 0.82679 0.96791 0.0
C431 C 0.73736 0.8017 0.95342 0.0
C432 C 0.75463 0.70053 0.02955 0.0
C433 C 0.757 0.76432 0.99789 0.0
C434 C 0.76389 0.68248 0.0522 0.0
C435 C 0.78388 0.70813 0.067 0.0
C436 C 0.76544 0.74443 0.02193 0.0
C437 C 0.79322 0.75246 0.05907 0.0
C438 C 0.76786 0.80819 0.99027 0.0
C439 C 0.72818 0.75722 0.96121 0.0
N440 N 0.78402 0.7691 0.03706 0.0
N441 N 0.73792 0.74007 0.98296 0.0
H442 H 0.69361 0.30814 0.54301 0.0
H443 H 0.83607 0.17782 0.48107 0.0
H444 H 0.7837 0.30464 0.57579 0.0
H445 H 0.74671 0.19194 0.44741 0.0
H446 H 0.81762 0.22253 0.51626 0.0
H447 H 0.71365 0.2673 0.5073 0.0
C448 C 0.71783 0.29935 0.54242 0.0
C449 C 0.73708 0.30959 0.56228 0.0
C450 C 0.80206 0.21565 0.50121 0.0
C451 C 0.7601 0.26172 0.52174 0.0
C452 C 0.81245 0.18975 0.48118 0.0
C453 C 0.79293 0.18121 0.46114 0.0
C454 C 0.77193 0.23301 0.50123 0.0
C455 C 0.76261 0.19762 0.46237 0.0
C456 C 0.72923 0.27576 0.52211 0.0
C457 C 0.76823 0.2976 0.5607 0.0
N458 N 0.75313 0.22289 0.482 0.0
N459 N 0.77877 0.27368 0.54082 0.0
H460 H 0.69321 0.16858 0.03699 0.0
H461 H 0.81907 0.34163 0.98236 0.0
H462 H 0.77836 0.20125 0.07336 0.0
H463 H 0.73788 0.30077 0.94269 0.0
H464 H 0.80251 0.29427 0.01711 0.0
H465 H 0.7093 0.21538 1.00182 0.0
C466 C 0.71583 0.1844 0.03709 0.0
C467 C 0.73473 0.18092 0.05781 0.0
C468 C 0.788 0.29616 1.00101 0.0
C469 C 0.75259 0.2361 0.01839 0.0
C470 C 0.79714 0.32384 0.98142 0.0
C471 C 0.77955 0.32525 0.95993 0.0
C472 C 0.76121 0.26939 0.99893 0.0
C473 C 0.75168 0.3011 0.95921 0.0
C474 C 0.72476 0.21167 0.01725 0.0
C475 C 0.76348 0.20256 0.05747 0.0
N476 N 0.7435 0.27353 0.9784 0.0
N477 N 0.77141 0.2299 0.03813 0.0
H478 H 0.68472 0.68656 0.48086 0.0
H479 H 0.83089 0.80947 0.54048 0.0
H480 H 0.77542 0.68184 0.44887 0.0
H481 H 0.74025 0.81367 0.57258 0.0
H482 H 0.81072 0.76448 0.50621 0.0
H483 H 0.70507 0.73052 0.51543 0.0
C484 C 0.70913 0.69403 0.48146 0.0
C485 C 0.7285 0.68079 0.46208 0.0
C486 C 0.79512 0.77559 0.52057 0.0
C487 C 0.75174 0.73214 0.50113 0.0
C488 C 0.80653 0.80166 0.53997 0.0
C489 C 0.78711 0.81517 0.55926 0.0
C490 C 0.76407 0.76267 0.52056 0.0
C491 C 0.75584 0.80426 0.55789 0.0
C492 C 0.72065 0.7195 0.50104 0.0
C493 C 0.75985 0.69116 0.4636 0.0
N494 N 0.74529 0.77811 0.53892 0.0
N495 N 0.77049 0.71682 0.48272 0.0
H496 H 0.38091 0.87847 0.97844 0.0
H497 H 0.38678 0.12481 0.04542 0.0
H498 H 0.3816 0.00967 0.93991 0.0
H499 H 0.37784 0.99461 0.08418 0.0
H500 H 0.39337 0.08247 1.00712 0.0
H501 H 0.38799 0.91958 0.01706 0.0
C502 C 0.38295 0.91598 0.97799 0.0
C503 C 0.38037 0.94063 0.95574 0.0
C504 C 0.39035 0.06302 0.02398 0.0
C505 C 0.38834 0.98809 1.00033 0.0
C506 C 0.38665 0.08716 0.04597 0.0
C507 C 0.38145 0.06326 0.06815 0.0
C508 C 0.38872 0.01437 0.02392 0.0
C509 C 0.3818 0.0145 0.06759 0.0
C510 C 0.38695 0.93943 1.00017 0.0
C511 C 0.38341 0.98917 0.95652 0.0
N512 N 0.38496 0.99167 0.04578 0.0
N513 N 0.38692 0.01131 0.97847 0.0
H514 H 0.13555 0.88671 0.54569 0.0
H515 H 0.13718 0.13379 0.47847 0.0
H516 H 0.1416 0.01733 0.5843 0.0
H517 H 0.13906 1.00305 0.43969 0.0
H518 H 0.13148 0.09195 0.51708 0.0
H519 H 0.12955 0.92879 0.50719 0.0
C520 C 0.1352 0.92435 0.5462 0.0
C521 C 0.13927 0.94841 0.56847 0.0
C522 C 0.13279 0.07231 0.50016 0.0
C523 C 0.1326 0.99708 0.52392 0.0
C524 C 0.13596 0.0962 0.47796 0.0
C525 C 0.13879 0.07199 0.45559 0.0
C526 C 0.13249 0.02358 0.50027 0.0
C527 C 0.13691 0.02327 0.45635 0.0
C528 C 0.13184 0.94836 0.52406 0.0
C529 C 0.13847 0.9972 0.56771 0.0
N530 N 0.13417 1.00071 0.47832 0.0
N531 N 0.13552 0.01987 0.5458 0.0
H532 H 0.63842 0.00677 0.937 0.0
H533 H 0.64375 0.99355 0.08435 0.0
H534 H 0.64804 0.87875 0.97767 0.0
H535 H 0.63328 0.12099 0.04335 0.0
H536 H 0.63963 0.94985 0.04577 0.0
H537 H 0.63125 0.04831 0.97589 0.0
C538 C 0.63863 0.98726 0.95402 0.0
C539 C 0.64397 0.93911 0.9539 0.0
C540 C 0.63783 0.98737 0.04528 0.0
C541 C 0.63604 0.98662 0.99869 0.0
C542 C 0.63993 0.01232 0.06738 0.0
C543 C 0.639 0.06111 0.06722 0.0
C544 C 0.63482 0.01134 0.02283 0.0
C545 C 0.63436 0.08346 0.04449 0.0
C546 C 0.63463 0.01103 0.97628 0.0
C547 C 0.64414 0.91587 0.9767 0.0
N548 N 0.63273 0.05854 0.02332 0.0
N549 N 0.64048 0.93979 0.99806 0.0
H550 H 0.88651 0.87284 0.54326 0.0
H551 H 0.89064 0.11019 0.46694 0.0
H552 H 0.87859 0.00701 0.57817 0.0
H553 H 0.86767 0.97704 0.43548 0.0
H554 H 0.89612 0.07309 0.50713 0.0
H555 H 0.89029 0.91095 0.50355 0.0
C556 C 0.88602 0.91048 0.5427 0.0
C557 C 0.88196 0.93666 0.56431 0.0
C558 C 0.89018 0.05196 0.4914 0.0
C559 C 0.88618 0.98069 0.5183 0.0
C560 C 0.88724 0.07298 0.46834 0.0
C561 C 0.87877 0.04668 0.44762 0.0
C562 C 0.88503 0.00407 0.49385 0.0
C563 C 0.87428 0.99874 0.45082 0.0
C564 C 0.88802 0.93217 0.51987 0.0
C565 C 0.88175 0.98535 0.56213 0.0
N566 N 0.87748 0.97905 0.47344 0.0
N567 N 0.88358 0.0058 0.53951 0.0
H568 H 0.87346 0.63647 0.04418 0.0
H569 H 0.88043 0.3878 0.97894 0.0
H570 H 0.88031 0.50679 0.0837 0.0
H571 H 0.87243 0.51671 0.93888 0.0
H572 H 0.88594 0.43148 0.01693 0.0
H573 H 0.87845 0.5942 1.00557 0.0
C574 C 0.87642 0.59911 0.04483 0.0
C575 C 0.87638 0.57526 0.06743 0.0
C576 C 0.88331 0.45037 0.99986 0.0
C577 C 0.88185 0.52636 0.02284 0.0
C578 C 0.88021 0.42541 0.97802 0.0
C579 C 0.87581 0.4485 0.9555 0.0
C580 C 0.88184 0.49908 0.99946 0.0
C581 C 0.87586 0.49734 0.9557 0.0
C582 C 0.8792 0.57497 0.02266 0.0
C583 C 0.88029 0.52679 0.06686 0.0
N584 N 0.8785 0.52095 0.97734 0.0
N585 N 0.88261 0.504 0.04497 0.0
H586 H 0.6368 0.48901 0.43628 0.0
H587 H 0.63643 0.50377 0.58341 0.0
H588 H 0.62694 0.6168 0.47698 0.0
H589 H 0.64337 0.37525 0.5429 0.0
H590 H 0.62721 0.54493 0.54466 0.0
H591 H 0.63301 0.44563 0.47502 0.0
C592 C 0.63312 0.50789 0.45323 0.0
C593 C 0.63237 0.55666 0.4533 0.0
C594 C 0.63042 0.50761 0.5443 0.0
C595 C 0.62862 0.50737 0.49781 0.0
C596 C 0.6356 0.48408 0.56648 0.0
C597 C 0.64089 0.43595 0.56654 0.0
C598 C 0.63062 0.48293 0.52196 0.0
C599 C 0.63963 0.4124 0.54388 0.0
C600 C 0.63122 0.48316 0.47541 0.0
C601 C 0.62791 0.57925 0.47596 0.0
N602 N 0.63491 0.43609 0.5226 0.0
N603 N 0.62654 0.55454 0.49722 0.0
H604 H 0.15405 0.48248 0.08295 0.0
H605 H 0.15785 0.52785 0.93893 0.0
H606 H 0.13649 0.61822 0.05225 0.0
H607 H 0.13218 0.39504 0.96965 0.0
H608 H 0.15475 0.56191 0.98026 0.0
H609 H 0.15083 0.44929 0.04148 0.0
C610 C 0.1492 0.50522 0.06757 0.0
C611 C 0.14527 0.55316 0.0712 0.0
C612 C 0.14948 0.52542 0.97783 0.0
C613 C 0.14236 0.5156 0.02362 0.0
C614 C 0.1512 0.50599 0.95424 0.0
C615 C 0.14502 0.45856 0.95068 0.0
C616 C 0.14226 0.49702 0.99808 0.0
C617 C 0.13684 0.43185 0.97137 0.0
C618 C 0.14738 0.48628 0.04391 0.0
C619 C 0.13931 0.58099 0.05045 0.0
N620 N 0.13606 0.45127 0.99413 0.0
N621 N 0.1384 0.56194 0.02759 0.0
H622 H 0.38069 0.51782 0.58494 0.0
H623 H 0.38243 0.50203 0.4378 0.0
H624 H 0.38631 0.38893 0.54467 0.0
H625 H 0.38205 0.63127 0.47801 0.0
H626 H 0.38907 0.46016 0.4767 0.0
H627 H 0.38639 0.56035 0.5461 0.0
C628 C 0.3837 0.49844 0.56807 0.0
C629 C 0.38285 0.44965 0.56821 0.0
C630 C 0.38791 0.49775 0.47696 0.0
C631 C 0.38892 0.49812 0.52352 0.0
C632 C 0.38429 0.52169 0.45468 0.0
C633 C 0.38151 0.57031 0.45448 0.0
C634 C 0.38864 0.52253 0.49927 0.0
C635 C 0.38386 0.59378 0.47712 0.0
C636 C 0.38677 0.52273 0.54583 0.0
C637 C 0.38659 0.42651 0.54559 0.0
N638 N 0.38699 0.56974 0.49848 0.0
N639 N 0.38916 0.45084 0.52427 0.0
H640 H 0.30123 0.03954 0.20776 0.0
H641 H 0.22202 0.19186 0.31404 0.0
H642 H 0.29511 0.18915 0.20858 0.0
H643 H 0.22298 0.0421 0.31676 0.0
H644 H 0.24825 0.18933 0.27468 0.0
H645 H 0.27428 0.03745 0.24769 0.0
C646 C 0.29484 0.0719 0.21655 0.0
C647 C 0.30049 0.11461 0.20481 0.0
C648 C 0.24262 0.1568 0.28362 0.0
C649 C 0.26916 0.11245 0.25004 0.0
C650 C 0.22737 0.15827 0.3061 0.0
C651 C 0.22016 0.11715 0.3187 0.0
C652 C 0.25121 0.11383 0.27346 0.0
C653 C 0.22778 0.07462 0.30751 0.0
C654 C 0.27912 0.07066 0.23916 0.0
C655 C 0.2912 0.15541 0.21684 0.0
N656 N 0.24317 0.07402 0.28559 0.0
N657 N 0.276 0.15325 0.23859 0.0
H658 H 0.29787 0.97242 0.81723 0.0
H659 H 0.2226 0.82116 0.70911 0.0
H660 H 0.29976 0.82285 0.81227 0.0
H661 H 0.22245 0.97101 0.70718 0.0
H662 H 0.24919 0.82339 0.74822 0.0
H663 H 0.27094 0.97521 0.77739 0.0
C664 C 0.29329 0.94033 0.80752 0.0
C665 C 0.30112 0.89731 0.81806 0.0
C666 C 0.24327 0.85599 0.73948 0.0
C667 C 0.26976 0.90016 0.77302 0.0
C668 C 0.22781 0.85469 0.71714 0.0
C669 C 0.22023 0.89593 0.70482 0.0
C670 C 0.2516 0.89891 0.74979 0.0
C671 C 0.2276 0.93837 0.71619 0.0
C672 C 0.27759 0.9419 0.78497 0.0
C673 C 0.2941 0.85678 0.80491 0.0
N674 N 0.24313 0.93881 0.73799 0.0
N675 N 0.27878 0.85924 0.7833 0.0
H676 H 0.80237 0.9676 0.70384 0.0
H677 H 0.71448 0.82177 0.80827 0.0
H678 H 0.7906 0.81871 0.70459 0.0
H679 H 0.72876 0.96945 0.81507 0.0
H680 H 0.73972 0.8232 0.76849 0.0
H681 H 0.77539 0.97184 0.74369 0.0
C682 C 0.79465 0.93581 0.71255 0.0
C683 C 0.79874 0.89271 0.7008 0.0
C684 C 0.73723 0.85557 0.77842 0.0
C685 C 0.76737 0.89742 0.74593 0.0
C686 C 0.72252 0.85478 0.80111 0.0
C687 C 0.71942 0.89555 0.81497 0.0
C688 C 0.74943 0.89741 0.76934 0.0
C689 C 0.73038 0.93733 0.80481 0.0
C690 C 0.77897 0.93831 0.73514 0.0
C691 C 0.78787 0.85275 0.7128 0.0
N692 N 0.74522 0.93717 0.78265 0.0
N693 N 0.77267 0.85615 0.73448 0.0
H694 H 0.72183 0.04382 0.20377 0.0
H695 H 0.79085 0.18638 0.31689 0.0
H696 H 0.72876 0.19334 0.20509 0.0
H697 H 0.81101 0.04138 0.30575 0.0
H698 H 0.76494 0.18864 0.27711 0.0
H699 H 0.74972 0.04066 0.24302 0.0
C700 C 0.72864 0.07597 0.21255 0.0
C701 C 0.7228 0.11895 0.20121 0.0
C702 C 0.77543 0.15643 0.28308 0.0
C703 C 0.75506 0.11554 0.24578 0.0
C704 C 0.79046 0.15529 0.30567 0.0
C705 C 0.80367 0.11396 0.31423 0.0
C706 C 0.7728 0.11555 0.26915 0.0
C707 C 0.80178 0.0742 0.2994 0.0
C708 C 0.74493 0.07411 0.23474 0.0
C709 C 0.73272 0.15947 0.21317 0.0
N710 N 0.7863 0.07582 0.27764 0.0
N711 N 0.74826 0.15676 0.23474 0.0
H712 H 0.72277 0.68411 0.31656 0.0
H713 H 0.79409 0.53532 0.20547 0.0
H714 H 0.71739 0.53446 0.31548 0.0
H715 H 0.79717 0.68458 0.21205 0.0
H716 H 0.76752 0.53147 0.24558 0.0
H717 H 0.74938 0.68261 0.27742 0.0
C718 C 0.72689 0.65079 0.30788 0.0
C719 C 0.71778 0.60937 0.31937 0.0
C720 C 0.77435 0.56493 0.23829 0.0
C721 C 0.74914 0.60718 0.27425 0.0
C722 C 0.78984 0.56709 0.21558 0.0
C723 C 0.7979 0.61036 0.20543 0.0
C724 C 0.76703 0.60634 0.25079 0.0
C725 C 0.79133 0.65048 0.21909 0.0
C726 C 0.74233 0.6499 0.28549 0.0
C727 C 0.72376 0.56725 0.30714 0.0
N728 N 0.77626 0.64747 0.24084 0.0
N729 N 0.73931 0.56716 0.28528 0.0
H730 H 0.79893 0.3151 0.81338 0.0
H731 H 0.72354 0.46648 0.7051 0.0
H732 H 0.79826 0.46495 0.81526 0.0
H733 H 0.7253 0.31671 0.70842 0.0
H734 H 0.7499 0.46902 0.74518 0.0
H735 H 0.77321 0.31718 0.77386 0.0
C736 C 0.79375 0.34859 0.80525 0.0
C737 C 0.80086 0.38988 0.81765 0.0
C738 C 0.74422 0.4357 0.73716 0.0
C739 C 0.77047 0.39268 0.77225 0.0
C740 C 0.72887 0.43425 0.71446 0.0
C741 C 0.7222 0.39131 0.70339 0.0
C742 C 0.75284 0.39391 0.74876 0.0
C743 C 0.73008 0.35062 0.71615 0.0
C744 C 0.7788 0.3498 0.78268 0.0
C745 C 0.7935 0.43227 0.80618 0.0
N746 N 0.74501 0.35297 0.73794 0.0
N747 N 0.77845 0.43262 0.78418 0.0
H748 H 0.23654 0.3208 0.81971 0.0
H749 H 0.29377 0.46995 0.70419 0.0
H750 H 0.20544 0.46103 0.80743 0.0
H751 H 0.30021 0.32065 0.70886 0.0
H752 H 0.26582 0.4704 0.74363 0.0
H753 H 0.26277 0.32215 0.78008 0.0
C754 C 0.23471 0.35158 0.80832 0.0
C755 C 0.2184 0.39055 0.81661 0.0
C756 C 0.27359 0.43766 0.73605 0.0
C757 C 0.24947 0.39319 0.77148 0.0
C758 C 0.28993 0.43745 0.71377 0.0
C759 C 0.29953 0.3952 0.70334 0.0
C760 C 0.26719 0.39537 0.74804 0.0
C761 C 0.29332 0.35401 0.71625 0.0
C762 C 0.2499 0.35253 0.78577 0.0
C763 C 0.21725 0.42994 0.8014 0.0
N764 N 0.27764 0.35516 0.73782 0.0
N765 N 0.2329 0.43048 0.77962 0.0
H766 H 0.20165 0.54363 0.21581 0.0
H767 H 0.29678 0.69114 0.31465 0.0
H768 H 0.23343 0.6838 0.20436 0.0
H769 H 0.28833 0.54218 0.31994 0.0
H770 H 0.26969 0.68928 0.27559 0.0
H771 H 0.22768 0.54301 0.2561 0.0
C772 C 0.21332 0.57464 0.22212 0.0
C773 C 0.21506 0.61411 0.20703 0.0
C774 C 0.27395 0.65681 0.28506 0.0
C775 C 0.24536 0.61331 0.25242 0.0
C776 C 0.28962 0.65785 0.30732 0.0
C777 C 0.2951 0.61672 0.32042 0.0
C778 C 0.26308 0.61435 0.27581 0.0
C779 C 0.28501 0.57459 0.31019 0.0
C780 C 0.22857 0.57403 0.24485 0.0
C781 C 0.23127 0.65289 0.21561 0.0
N782 N 0.26919 0.57449 0.28854 0.0
N783 N 0.24573 0.65151 0.23765 0.0
H784 H 0.43433 0.21936 0.13827 0.0
H785 H 0.58827 0.08332 0.17157 0.0
H786 H 0.43436 0.08272 0.17088 0.0
H787 H 0.5846 0.21879 0.13769 0.0
H788 H 0.53265 0.08765 0.17901 0.0
H789 H 0.48936 0.2251 0.14565 0.0
C790 C 0.4459 0.1908 0.14737 0.0
C791 C 0.4298 0.15029 0.1537 0.0
C792 C 0.54416 0.11676 0.17037 0.0
C793 C 0.49325 0.15614 0.16178 0.0
C794 C 0.57595 0.11444 0.16626 0.0
C795 C 0.59105 0.1505 0.15368 0.0
C796 C 0.52748 0.15547 0.16191 0.0
C797 C 0.57387 0.18988 0.14713 0.0
C798 C 0.4774 0.19403 0.15155 0.0
C799 C 0.44592 0.11455 0.16566 0.0
N800 N 0.54307 0.19105 0.15106 0.0
N801 N 0.47691 0.11793 0.16892 0.0
H802 H 0.08648 0.93677 0.67091 0.0
H803 H 0.9356 0.789 0.64333 0.0
H804 H 0.0857 0.79552 0.64446 0.0
H805 H 0.93277 0.93137 0.66797 0.0
H806 H 0.99046 0.78671 0.652 0.0
H807 H 0.03079 0.93159 0.6781 0.0
C808 C 0.07477 0.90431 0.66724 0.0
C809 C 0.09066 0.86671 0.65677 0.0
C810 C 0.97789 0.81835 0.65588 0.0
C811 C 0.02709 0.86068 0.66468 0.0
C812 C 0.94647 0.81961 0.65097 0.0
C813 C 0.92964 0.86061 0.65463 0.0
C814 C 0.99289 0.85865 0.66415 0.0
C815 C 0.9449 0.89907 0.66481 0.0
C816 C 0.04295 0.90146 0.67118 0.0
C817 C 0.0743 0.82559 0.65223 0.0
N818 N 0.97581 0.89745 0.66878 0.0
N819 N 0.04347 0.82388 0.65594 0.0
H820 H 0.58695 0.79244 0.87549 0.0
H821 H 0.43185 0.93353 0.85138 0.0
H822 H 0.58624 0.93617 0.85304 0.0
H823 H 0.43705 0.79525 0.88178 0.0
H824 H 0.48741 0.93083 0.84327 0.0
H825 H 0.53174 0.78849 0.86865 0.0
C826 C 0.57517 0.82302 0.86867 0.0
C827 C 0.59112 0.86482 0.86508 0.0
C828 C 0.47624 0.90083 0.85132 0.0
C829 C 0.5275 0.86096 0.85775 0.0
C830 C 0.44451 0.90222 0.85582 0.0
C831 C 0.42985 0.86473 0.86755 0.0
C832 C 0.49328 0.86154 0.85843 0.0
C833 C 0.44743 0.82518 0.87301 0.0
C834 C 0.54357 0.82082 0.86485 0.0
C835 C 0.57476 0.90327 0.85604 0.0
N836 N 0.47814 0.82482 0.86861 0.0
N837 N 0.54367 0.90068 0.8531 0.0
H838 H 0.93502 0.07959 0.3482 0.0
H839 H 0.08465 0.22311 0.38267 0.0
H840 H 0.93336 0.21738 0.37949 0.0
H841 H 0.08726 0.08699 0.34957 0.0
H842 H 0.02964 0.22718 0.37461 0.0
H843 H 0.99029 0.08716 0.34168 0.0
C844 C 0.94617 0.11179 0.35336 0.0
C845 C 0.92952 0.14759 0.36485 0.0
C846 C 0.04223 0.19668 0.36873 0.0
C847 C 0.99305 0.15627 0.35757 0.0
C848 C 0.0737 0.19434 0.3733 0.0
C849 C 0.0905 0.15434 0.3671 0.0
C850 C 0.02721 0.15847 0.35816 0.0
C851 C 0.07518 0.1184 0.35475 0.0
C852 C 0.9778 0.11604 0.34963 0.0
C853 C 0.94522 0.18867 0.37082 0.0
N854 N 0.04427 0.12096 0.35108 0.0
N855 N 0.97616 0.19157 0.36747 0.0
H856 H 0.93283 0.72043 0.14565 0.0
H857 H 0.08503 0.57455 0.16994 0.0
H858 H 0.93235 0.5784 0.171 0.0
H859 H 0.08421 0.71634 0.14395 0.0
H860 H 0.02985 0.57957 0.17758 0.0
H861 H 0.98812 0.72386 0.15248 0.0
C862 C 0.94434 0.69017 0.15313 0.0
C863 C 0.92803 0.64886 0.15749 0.0
C864 C 0.04178 0.60981 0.17053 0.0
C865 C 0.99165 0.65225 0.16491 0.0
C866 C 0.07336 0.60703 0.16615 0.0
C867 C 0.08931 0.64486 0.15586 0.0
C868 C 0.02586 0.65067 0.16451 0.0
C869 C 0.07292 0.68613 0.15165 0.0
C870 C 0.97597 0.69212 0.15696 0.0
C871 C 0.94404 0.6109 0.16736 0.0
N872 N 0.04206 0.68769 0.15567 0.0
N873 N 0.97511 0.61322 0.17033 0.0
H874 H 0.58627 0.28888 0.64342 0.0
H875 H 0.43504 0.43703 0.67034 0.0
H876 H 0.58924 0.43074 0.6688 0.0
H877 H 0.43617 0.2956 0.6442 0.0
H878 H 0.49073 0.43197 0.6776 0.0
H879 H 0.53123 0.28704 0.65148 0.0
C880 C 0.57536 0.31948 0.65109 0.0
C881 C 0.59233 0.36016 0.6552 0.0
C882 C 0.47864 0.40178 0.67074 0.0
C883 C 0.52883 0.35878 0.66399 0.0
C884 C 0.44683 0.40455 0.66677 0.0
C885 C 0.43103 0.36683 0.65638 0.0
C886 C 0.49459 0.36096 0.66436 0.0
C887 C 0.44748 0.32573 0.65192 0.0
C888 C 0.54384 0.31849 0.65565 0.0
C889 C 0.57701 0.39865 0.66535 0.0
N890 N 0.47829 0.32409 0.65567 0.0
N891 N 0.54598 0.39733 0.66898 0.0
H892 H 0.08628 0.2895 0.88089 0.0
H893 H 0.93138 0.4289 0.85145 0.0
H894 H 0.08445 0.43088 0.85429 0.0
H895 H 0.93478 0.2948 0.88688 0.0
H896 H 0.98699 0.42407 0.84422 0.0
H897 H 0.03073 0.28489 0.87493 0.0
C898 C 0.07434 0.31935 0.87341 0.0
C899 C 0.09012 0.36091 0.86849 0.0
C900 C 0.97545 0.3954 0.85324 0.0
C901 C 0.02627 0.35597 0.86181 0.0
C902 C 0.94366 0.39802 0.85722 0.0
C903 C 0.92845 0.36249 0.87008 0.0
C904 C 0.99205 0.35687 0.86206 0.0
C905 C 0.9456 0.32335 0.87721 0.0
C906 C 0.04253 0.31675 0.87009 0.0
C907 C 0.07328 0.3983 0.85867 0.0
N908 N 0.97643 0.32182 0.87333 0.0
N909 N 0.04227 0.39515 0.85595 0.0
H910 H 0.42883 0.58028 0.34881 0.0
H911 H 0.58327 0.71679 0.37766 0.0
H912 H 0.4336 0.71986 0.37739 0.0
H913 H 0.58207 0.57645 0.34996 0.0
H914 H 0.52865 0.7237 0.36869 0.0
H915 H 0.48426 0.58316 0.34039 0.0
C916 C 0.44135 0.61196 0.35268 0.0
C917 C 0.42672 0.64964 0.36418 0.0
C918 C 0.54029 0.69154 0.36416 0.0
C919 C 0.48998 0.65302 0.35485 0.0
C920 C 0.57154 0.68767 0.36924 0.0
C921 C 0.58708 0.64581 0.36484 0.0
C922 C 0.52417 0.65293 0.35507 0.0
C923 C 0.57087 0.60931 0.3537 0.0
C924 C 0.47302 0.61348 0.34802 0.0
C925 C 0.44406 0.68973 0.36889 0.0
N926 N 0.54008 0.61335 0.34966 0.0
N927 N 0.47476 0.69012 0.3645 0.0
H928 H 0.22974 0.03317 0.12721 0.0
H929 H 0.24765 0.76635 0.16405 0.0
H930 H 0.31663 0.96232 0.13533 0.0
H931 H 0.17246 0.80984 0.11772 0.0
H932 H 0.2673 0.84562 0.16354 0.0
H933 H 0.20327 0.95761 0.13181 0.0
C934 C 0.24321 1.00191 0.12987 0.0
C935 C 0.27547 0.0041 0.13067 0.0
C936 C 0.24629 0.83788 0.15371 0.0
C937 C 0.24548 0.91855 0.13671 0.0
C938 C 0.2349 0.79263 0.1541 0.0
C939 C 0.20853 0.78102 0.1406 0.0
C940 C 0.23115 0.8722 0.13998 0.0
C941 C 0.19301 0.81704 0.12821 0.0
C942 C 0.22813 0.959 0.13252 0.0
C943 C 0.29178 0.9625 0.1343 0.0
N944 N 0.20467 0.86104 0.12804 0.0
N945 N 0.27664 0.92173 0.13738 0.0
H946 H 0.28297 0.97925 0.65397 0.0
H947 H 0.29795 0.23307 0.59566 0.0
H948 H 0.22119 0.03722 0.60015 0.0
H949 H 0.33722 0.20039 0.6662 0.0
H950 H 0.27994 0.15342 0.59197 0.0
H951 H 0.31194 0.05268 0.654 0.0
C952 C 0.2758 0.00714 0.64189 0.0
C953 C 0.24958 1.00227 0.62706 0.0
C954 C 0.29276 0.1633 0.60818 0.0
C955 C 0.28262 0.08574 0.62694 0.0
C956 C 0.30322 0.2087 0.61024 0.0
C957 C 0.31893 0.2232 0.63133 0.0
C958 C 0.29779 0.13189 0.62744 0.0
C959 C 0.32522 0.19032 0.64965 0.0
C960 C 0.29222 0.049 0.64206 0.0
C961 C 0.24113 0.03957 0.61196 0.0
N962 N 0.31429 0.14601 0.64742 0.0
N963 N 0.25759 0.07961 0.61229 0.0
H964 H 0.1957 0.21363 0.92688 0.0
H965 H 0.25373 0.98832 0.85835 0.0
H966 H 0.22504 0.22426 0.85132 0.0
H967 H 0.28782 0.0247 0.93008 0.0
H968 H 0.22895 0.0652 0.85553 0.0
H969 H 0.215 0.13393 0.92816 0.0
C970 C 0.20562 0.19891 0.91036 0.0
C971 C 0.20865 0.22565 0.88887 0.0
C972 C 0.24158 0.05594 0.87194 0.0
C973 C 0.23048 0.13421 0.89034 0.0
C974 C 0.25539 0.01213 0.8737 0.0
C975 C 0.27252 1.00023 0.89461 0.0
C976 C 0.24425 0.08727 0.89153 0.0
C977 C 0.27463 0.03258 0.91375 0.0
C978 C 0.21682 0.15358 0.91124 0.0
C979 C 0.22224 0.20484 0.86821 0.0
N980 N 0.2604 0.07453 0.91187 0.0
N981 N 0.23255 0.16009 0.86939 0.0
H982 H 0.27116 0.77377 0.36013 0.0
H983 H 0.29023 0.04091 0.39353 0.0
H984 H 0.35214 0.81836 0.3991 0.0
H985 H 0.20436 0.96566 0.3947 0.0
H986 H 0.31755 0.96666 0.38727 0.0
H987 H 0.25154 0.85304 0.36147 0.0
C988 C 0.28518 0.8006 0.36844 0.0
C989 C 0.31311 0.78945 0.37979 0.0
C990 C 0.29276 0.96679 0.38904 0.0
C991 C 0.2905 0.88012 0.38178 0.0
C992 C 0.27717 0.00892 0.39269 0.0
C993 C 0.24492 0.00957 0.39468 0.0
C994 C 0.27582 0.92554 0.38674 0.0
C995 C 0.22917 0.96709 0.39338 0.0
C996 C 0.27384 0.84569 0.3694 0.0
C997 C 0.33048 0.82563 0.39014 0.0
N998 N 0.24472 0.92705 0.38923 0.0
N999 N 0.31866 0.86954 0.39123 0.0
H1000 H 0.78692 0.23073 0.92503 0.0
H1001 H 0.78533 0.97364 0.8688 0.0
H1002 H 0.84026 0.19484 0.86104 0.0
H1003 H 0.72291 0.02529 0.92403 0.0
H1004 H 0.8125 0.04875 0.86952 0.0
H1005 H 0.77086 0.15029 0.92901 0.0
C1006 C 0.79548 0.20558 0.91188 0.0
C1007 C 0.81469 0.21947 0.89253 0.0
C1008 C 0.79311 0.04329 0.88167 0.0
C1009 C 0.79587 0.1267 0.89671 0.0
C1010 C 0.77773 1.00038 0.88141 0.0
C1011 C 0.75172 0.99329 0.89632 0.0
C1012 C 0.78255 0.07898 0.89716 0.0
C1013 C 0.74269 0.02927 0.9121 0.0
C1014 C 0.78623 0.15956 0.91412 0.0
C1015 C 0.82537 0.1854 0.87618 0.0
N1016 N 0.75796 0.07039 0.91202 0.0
N1017 N 0.81548 0.14046 0.87844 0.0
H1018 H 0.78508 0.98424 0.35076 0.0
H1019 H 0.66635 0.80445 0.40989 0.0
H1020 H 0.74446 0.01005 0.42182 0.0
H1021 H 0.73713 0.7694 0.35761 0.0
H1022 H 0.68418 0.88587 0.40926 0.0
H1023 H 0.75624 0.91256 0.34772 0.0
C1024 C 0.76998 0.97485 0.36581 0.0
C1025 C 0.7678 1.00274 0.3869 0.0
C1026 C 0.69538 0.8604 0.39766 0.0
C1027 C 0.73442 0.91987 0.38338 0.0
C1028 C 0.68505 0.8142 0.39778 0.0
C1029 C 0.70025 0.78041 0.38362 0.0
C1030 C 0.72063 0.87267 0.38294 0.0
C1031 C 0.72475 0.79445 0.3687 0.0
C1032 C 0.75344 0.9338 0.36398 0.0
C1033 C 0.74706 0.98929 0.40538 0.0
N1034 N 0.73414 0.83941 0.36875 0.0
N1035 N 0.73137 0.94828 0.40336 0.0
H1036 H 0.79141 0.03812 0.1274 0.0
H1037 H 0.77624 0.77543 0.1717 0.0
H1038 H 0.70605 0.96273 0.13438 0.0
H1039 H 0.85371 0.81697 0.12731 0.0
H1040 H 0.75646 0.85466 0.16972 0.0
H1041 H 0.81957 0.96553 0.13612 0.0
C1042 C 0.77864 0.00637 0.13059 0.0
C1043 C 0.74632 0.00642 0.13 0.0
C1044 C 0.77812 0.84669 0.16082 0.0
C1045 C 0.77819 0.92448 0.14082 0.0
C1046 C 0.78959 0.80168 0.16218 0.0
C1047 C 0.81644 0.78961 0.14943 0.0
C1048 C 0.79357 0.87999 0.14662 0.0
C1049 C 0.83292 0.82497 0.13741 0.0
C1050 C 0.79469 0.96523 0.13565 0.0
C1051 C 0.7309 0.96441 0.1344 0.0
N1052 N 0.82092 0.86868 0.13592 0.0
N1053 N 0.74695 0.92537 0.13984 0.0
H1054 H 0.74473 0.23 0.66556 0.0
H1055 H 0.72842 0.96579 0.62618 0.0
H1056 H 0.66675 0.18948 0.62175 0.0
H1057 H 0.81359 0.04283 0.62694 0.0
H1058 H 0.70034 0.03906 0.6336 0.0
H1059 H 0.76402 0.15053 0.66356 0.0
C1060 C 0.7312 0.20396 0.65611 0.0
C1061 C 0.70435 0.21637 0.64353 0.0
C1062 C 0.72515 0.03953 0.632 0.0
C1063 C 0.72659 0.12564 0.64082 0.0
C1064 C 0.74116 0.998 0.62769 0.0
C1065 C 0.77342 0.99818 0.62586 0.0
C1066 C 0.7417 0.08091 0.63519 0.0
C1067 C 0.78878 0.04084 0.62806 0.0
C1068 C 0.74237 0.15881 0.65478 0.0
C1069 C 0.68758 0.18122 0.63168 0.0
N1070 N 0.77283 0.08024 0.63289 0.0
N1071 N 0.69926 0.13728 0.63024 0.0
H1072 H 0.67268 0.3157 0.15157 0.0
H1073 H 0.80177 0.48441 0.09545 0.0
H1074 H 0.74493 0.27572 0.10148 0.0
H1075 H 0.73495 0.53299 0.14812 0.0
H1076 H 0.77539 0.41008 0.09379 0.0
H1077 H 0.68968 0.39754 0.14761 0.0
C1078 C 0.69184 0.32416 0.13967 0.0
C1079 C 0.70784 0.28885 0.12728 0.0
C1080 C 0.76619 0.43694 0.10563 0.0
C1081 C 0.72702 0.38145 0.1224 0.0
C1082 C 0.78129 0.47951 0.10651 0.0
C1083 C 0.77071 0.51477 0.12208 0.0
C1084 C 0.74047 0.42891 0.12075 0.0
C1085 C 0.74384 0.50662 0.13584 0.0
C1086 C 0.70155 0.37067 0.13741 0.0
C1087 C 0.73237 0.30157 0.1119 0.0
N1088 N 0.72984 0.46421 0.13515 0.0
N1089 N 0.74117 0.34649 0.11002 0.0
H1090 H 0.78551 0.47045 0.6497 0.0
H1091 H 0.78841 0.72953 0.59679 0.0
H1092 H 0.7213 0.52684 0.59725 0.0
H1093 H 0.83958 0.69135 0.66147 0.0
H1094 H 0.77202 0.64962 0.59205 0.0
H1095 H 0.81288 0.54527 0.6499 0.0
C1096 C 0.77751 0.49825 0.6379 0.0
C1097 C 0.751 0.49255 0.62348 0.0
C1098 C 0.78693 0.65831 0.60727 0.0
C1099 C 0.78211 0.57774 0.62367 0.0
C1100 C 0.79637 0.70403 0.60998 0.0
C1101 C 0.81499 0.71712 0.62979 0.0
C1102 C 0.79582 0.62497 0.62463 0.0
C1103 C 0.82504 0.68253 0.64605 0.0
C1104 C 0.79302 0.54093 0.63818 0.0
C1105 C 0.74147 0.52977 0.60876 0.0
N1106 N 0.81496 0.63784 0.64332 0.0
N1107 N 0.75695 0.57066 0.6093 0.0
H1108 H 0.72251 0.71916 0.84251 0.0
H1109 H 0.78043 0.52478 0.92661 0.0
H1110 H 0.6791 0.7042 0.91323 0.0
H1111 H 0.75146 0.48377 0.85415 0.0
H1112 H 0.75081 0.5973 0.92212 0.0
H1113 H 0.74007 0.63784 0.8452 0.0
C1114 C 0.71588 0.69822 0.85819 0.0
C1115 C 0.6988 0.71778 0.87743 0.0
C1116 C 0.75071 0.57204 0.90738 0.0
C1117 C 0.72021 0.62656 0.88125 0.0
C1118 C 0.7676 0.53096 0.9099 0.0
C1119 C 0.76804 0.49834 0.89082 0.0
C1120 C 0.73524 0.58114 0.88529 0.0
C1121 C 0.7513 0.50797 0.86938 0.0
C1122 C 0.72603 0.65217 0.85979 0.0
C1123 C 0.69163 0.68987 0.89779 0.0
N1124 N 0.73601 0.549 0.86697 0.0
N1125 N 0.703 0.64594 0.89947 0.0
H1126 H 0.69639 0.45531 0.39612 0.0
H1127 H 0.8468 0.30465 0.40309 0.0
H1128 H 0.78425 0.52509 0.39365 0.0
H1129 H 0.76538 0.26065 0.36431 0.0
H1130 H 0.82589 0.38405 0.40468 0.0
H1131 H 0.72235 0.38128 0.39123 0.0
C1132 C 0.72123 0.4552 0.3948 0.0
C1133 C 0.73812 0.49684 0.39524 0.0
C1134 C 0.81296 0.35699 0.39553 0.0
C1135 C 0.76805 0.41126 0.38958 0.0
C1136 C 0.82482 0.31172 0.39457 0.0
C1137 C 0.80773 0.27565 0.38372 0.0
C1138 C 0.78359 0.36588 0.38605 0.0
C1139 C 0.77939 0.28702 0.37297 0.0
C1140 C 0.736 0.41275 0.39177 0.0
C1141 C 0.77032 0.49393 0.39336 0.0
N1142 N 0.76804 0.33084 0.37478 0.0
N1143 N 0.78434 0.45173 0.39074 0.0
H1144 H 0.35821 0.69645 0.89953 0.0
H1145 H 0.21026 0.54091 0.90336 0.0
H1146 H 0.27289 0.73061 0.8635 0.0
H1147 H 0.29618 0.46932 0.89197 0.0
H1148 H 0.23678 0.61493 0.89954 0.0
H1149 H 0.34027 0.61533 0.90378 0.0
C1150 C 0.33619 0.68668 0.89189 0.0
C1151 C 0.3168 0.72046 0.88141 0.0
C1152 C 0.24998 0.58309 0.89811 0.0
C1153 C 0.29609 0.62901 0.88693 0.0
C1154 C 0.23493 0.54088 0.90054 0.0
C1155 C 0.25103 0.49906 0.89775 0.0
C1156 C 0.28151 0.5839 0.89286 0.0
C1157 C 0.28304 0.50096 0.89429 0.0
C1158 C 0.32593 0.6406 0.89451 0.0
C1159 C 0.2884 0.70598 0.87202 0.0
N1160 N 0.29737 0.543 0.89167 0.0
N1161 N 0.27873 0.66172 0.87541 0.0
H1162 H 0.22758 0.54159 0.39436 0.0
H1163 H 0.248 0.27545 0.36022 0.0
H1164 H 0.31323 0.46593 0.39807 0.0
H1165 H 0.16612 0.31809 0.39892 0.0
H1166 H 0.2672 0.35486 0.36242 0.0
H1167 H 0.20047 0.46739 0.38753 0.0
C1168 C 0.24062 0.50953 0.394 0.0
C1169 C 0.27277 0.51007 0.39677 0.0
C1170 C 0.2448 0.34702 0.37009 0.0
C1171 C 0.24217 0.42616 0.38816 0.0
C1172 C 0.23371 0.30186 0.36866 0.0
C1173 C 0.20567 0.29009 0.37973 0.0
C1174 C 0.22776 0.38088 0.38263 0.0
C1175 C 0.18791 0.32581 0.39021 0.0
C1176 C 0.22516 0.46744 0.39 0.0
C1177 C 0.2885 0.46749 0.39607 0.0
N1178 N 0.19949 0.36978 0.39175 0.0
N1179 N 0.27311 0.42751 0.39154 0.0
H1180 H 0.24318 0.50014 0.17181 0.0
H1181 H 0.35048 0.30733 0.11096 0.0
H1182 H 0.2728 0.51296 0.09647 0.0
H1183 H 0.2812 0.28005 0.16581 0.0
H1184 H 0.33526 0.38987 0.11082 0.0
H1185 H 0.27155 0.42769 0.17531 0.0
C1186 C 0.25604 0.48788 0.15602 0.0
C1187 C 0.25514 0.51203 0.13362 0.0
C1188 C 0.32385 0.36583 0.12313 0.0
C1189 C 0.28768 0.42872 0.1376 0.0
C1190 C 0.33267 0.319 0.12344 0.0
C1191 C 0.3171 0.28709 0.13855 0.0
C1192 C 0.29986 0.38068 0.13847 0.0
C1193 C 0.29379 0.30361 0.15397 0.0
C1194 C 0.27219 0.4465 0.15807 0.0
C1195 C 0.27279 0.49512 0.11398 0.0
N1196 N 0.28592 0.34925 0.15355 0.0
N1197 N 0.2881 0.45387 0.11629 0.0
H1198 H 0.17944 0.69877 0.66397 0.0
H1199 H 0.30148 0.53423 0.59744 0.0
H1200 H 0.2316 0.73529 0.59939 0.0
H1201 H 0.23887 0.48086 0.6521 0.0
H1202 H 0.27337 0.6073 0.59732 0.0
H1203 H 0.19759 0.61762 0.65958 0.0
C1204 C 0.1942 0.6895 0.6487 0.0
C1205 C 0.20441 0.72363 0.63221 0.0
C1206 C 0.26543 0.57961 0.60922 0.0
C1207 C 0.22523 0.63203 0.62713 0.0
C1208 C 0.28157 0.53783 0.60928 0.0
C1209 C 0.27256 0.50154 0.62483 0.0
C1210 C 0.24032 0.58577 0.6252 0.0
C1211 C 0.24647 0.50803 0.63974 0.0
C1212 C 0.20461 0.64342 0.64622 0.0
C1213 C 0.22355 0.71012 0.61273 0.0
N1214 N 0.23146 0.54966 0.63983 0.0
N1215 N 0.23347 0.66569 0.61088 0.0
loop_
_geom_bond_atom_site_label_1
_geom_bond_atom_site_label_2
_geom_bond_distance
_geom_bond_site_symmetry_2
_ccdc_geom_bond_type
Fe0 O2 1.918 . S
Fe0 O5 1.997 . S
Fe0 O6 2.002 . S
Fe0 O11 1.976 . S
Fe0 O14 1.996 . S
Fe1 O2 1.918 . S
Fe1 O9 1.997 . S
Fe1 O12 1.996 . S
Fe1 O16 1.976 . S
Fe1 O19 2.002 . S
O2 Fe0 1.918 . S
O2 Fe1 1.918 . S
O2 Fe3 1.918 . S
Fe3 O2 1.918 . S
Fe3 O4 2.002 . S
Fe3 O13 1.976 . S
Fe3 O17 1.996 . S
Fe3 O20 1.997 . S
O4 Fe3 2.002 . S
O4 C21 1.295 . S
O5 Fe0 1.997 . S
O5 C21 1.235 . S
O6 Fe0 2.002 . S
O6 C7 1.295 . S
C7 O6 1.295 . S
C7 O9 1.235 . S
C8 O13 1.287 . S
C8 O14 1.255 . S
O9 Fe1 1.997 . S
O9 C7 1.235 . S
C10 O16 1.287 . S
C10 O17 1.255 . S
O11 Fe0 1.976 . S
O11 C18 1.287 . S
O12 Fe1 1.996 . S
O12 C18 1.255 . S
O13 Fe3 1.976 . S
O13 C8 1.287 . S
O14 Fe0 1.996 . S
O14 C8 1.255 . S
C15 O19 1.295 . S
C15 O20 1.235 . S
O16 Fe1 1.976 . S
O16 C10 1.287 . S
O17 Fe3 1.996 . S
O17 C10 1.255 . S
C18 O11 1.287 . S
C18 O12 1.255 . S
O19 Fe1 2.002 . S
O19 C15 1.295 . S
O20 Fe3 1.997 . S
O20 C15 1.235 . S
C21 O4 1.295 . S
C21 O5 1.235 . S
Fe22 O24 1.918 . S
Fe22 O27 1.997 . S
Fe22 O28 2.002 . S
Fe22 O33 1.976 . S
Fe22 O36 1.996 . S
Fe23 O24 1.918 . S
Fe23 O31 1.997 . S
Fe23 O34 1.996 . S
Fe23 O38 1.976 . S
Fe23 O41 2.002 . S
O24 Fe22 1.918 . S
O24 Fe23 1.918 . S
O24 Fe25 1.918 . S
Fe25 O24 1.918 . S
Fe25 O26 2.002 . S
Fe25 O35 1.976 . S
Fe25 O39 1.996 . S
Fe25 O42 1.997 . S
O26 Fe25 2.002 . S
O26 C43 1.295 . S
O27 Fe22 1.997 . S
O27 C43 1.235 . S
O28 Fe22 2.002 . S
O28 C29 1.295 . S
C29 O28 1.295 . S
C29 O31 1.235 . S
C30 O35 1.287 . S
C30 O36 1.255 . S
O31 Fe23 1.997 . S
O31 C29 1.235 . S
C32 O38 1.287 . S
C32 O39 1.255 . S
O33 Fe22 1.976 . S
O33 C40 1.287 . S
O34 Fe23 1.996 . S
O34 C40 1.255 . S
O35 Fe25 1.976 . S
O35 C30 1.287 . S
O36 Fe22 1.996 . S
O36 C30 1.255 . S
C37 O41 1.295 . S
C37 O42 1.235 . S
O38 Fe23 1.976 . S
O38 C32 1.287 . S
O39 Fe25 1.996 . S
O39 C32 1.255 . S
C40 O33 1.287 . S
C40 O34 1.255 . S
O41 Fe23 2.002 . S
O41 C37 1.295 . S
O42 Fe25 1.997 . S
O42 C37 1.235 . S
C43 O26 1.295 . S
C43 O27 1.235 . S
Fe44 O46 1.918 . S
Fe44 O49 1.997 . S
Fe44 O50 2.002 . S
Fe44 O55 1.976 . S
Fe44 O58 1.996 . S
Fe45 O46 1.918 . S
Fe45 O53 1.997 . S
Fe45 O56 1.996 . S
Fe45 O60 1.976 . S
Fe45 O63 2.002 . S
O46 Fe44 1.918 . S
O46 Fe45 1.918 . S
O46 Fe47 1.918 . S
Fe47 O46 1.918 . S
Fe47 O48 2.002 . S
Fe47 O57 1.976 . S
Fe47 O61 1.996 . S
Fe47 O64 1.997 . S
O48 Fe47 2.002 . S
O48 C65 1.295 . S
O49 Fe44 1.997 . S
O49 C65 1.235 . S
O50 Fe44 2.002 . S
O50 C51 1.295 . S
C51 O50 1.295 . S
C51 O53 1.235 . S
C52 O57 1.287 . S
C52 O58 1.255 . S
O53 Fe45 1.997 . S
O53 C51 1.235 . S
C54 O60 1.287 . S
C54 O61 1.255 . S
O55 Fe44 1.976 . S
O55 C62 1.287 . S
O56 Fe45 1.996 . S
O56 C62 1.255 . S
O57 Fe47 1.976 . S
O57 C52 1.287 . S
O58 Fe44 1.996 . S
O58 C52 1.255 . S
C59 O63 1.295 . S
C59 O64 1.235 . S
O60 Fe45 1.976 . S
O60 C54 1.287 . S
O61 Fe47 1.996 . S
O61 C54 1.255 . S
C62 O55 1.287 . S
C62 O56 1.255 . S
O63 Fe45 2.002 . S
O63 C59 1.295 . S
O64 Fe47 1.997 . S
O64 C59 1.235 . S
C65 O48 1.295 . S
C65 O49 1.235 . S
Fe66 O68 1.918 . S
Fe66 O71 1.997 . S
Fe66 O72 2.002 . S
Fe66 O77 1.976 . S
Fe66 O80 1.996 . S
Fe67 O68 1.918 . S
Fe67 O75 1.997 . S
Fe67 O78 1.996 . S
Fe67 O82 1.976 . S
Fe67 O85 2.002 . S
O68 Fe66 1.918 . S
O68 Fe67 1.918 . S
O68 Fe69 1.918 . S
Fe69 O68 1.918 . S
Fe69 O70 2.002 . S
Fe69 O79 1.976 . S
Fe69 O83 1.996 . S
Fe69 O86 1.997 . S
O70 Fe69 2.002 . S
O70 C87 1.295 . S
O71 Fe66 1.997 . S
O71 C87 1.235 . S
O72 Fe66 2.002 . S
O72 C73 1.295 . S
C73 O72 1.295 . S
C73 O75 1.235 . S
C74 O79 1.287 . S
C74 O80 1.255 . S
O75 Fe67 1.997 . S
O75 C73 1.235 . S
C76 O82 1.287 . S
C76 O83 1.255 . S
O77 Fe66 1.976 . S
O77 C84 1.287 . S
O78 Fe67 1.996 . S
O78 C84 1.255 . S
O79 Fe69 1.976 . S
O79 C74 1.287 . S
O80 Fe66 1.996 . S
O80 C74 1.255 . S
C81 O85 1.295 . S
C81 O86 1.235 . S
O82 Fe67 1.976 . S
O82 C76 1.287 . S
O83 Fe69 1.996 . S
O83 C76 1.255 . S
C84 O77 1.287 . S
C84 O78 1.255 . S
O85 Fe67 2.002 . S
O85 C81 1.295 . S
O86 Fe69 1.997 . S
O86 C81 1.235 . S
C87 O70 1.295 . S
C87 O71 1.235 . S
Fe88 O90 1.918 . S
Fe88 O93 1.997 . S
Fe88 O94 2.002 . S
Fe88 O99 1.976 . S
Fe88 O102 1.996 . S
Fe89 O90 1.918 . S
Fe89 O97 1.997 . S
Fe89 O100 1.996 . S
Fe89 O104 1.976 . S
Fe89 O107 2.002 . S
O90 Fe88 1.918 . S
O90 Fe89 1.918 . S
O90 Fe91 1.918 . S
Fe91 O90 1.918 . S
Fe91 O92 2.002 . S
Fe91 O101 1.976 . S
Fe91 O105 1.996 . S
Fe91 O108 1.997 . S
O92 Fe91 2.002 . S
O92 C109 1.295 . S
O93 Fe88 1.997 . S
O93 C109 1.235 . S
O94 Fe88 2.002 . S
O94 C95 1.295 . S
C95 O94 1.295 . S
C95 O97 1.235 . S
C96 O101 1.287 . S
C96 O102 1.255 . S
O97 Fe89 1.997 . S
O97 C95 1.235 . S
C98 O104 1.287 . S
C98 O105 1.255 . S
O99 Fe88 1.976 . S
O99 C106 1.287 . S
O100 Fe89 1.996 . S
O100 C106 1.255 . S
O101 Fe91 1.976 . S
O101 C96 1.287 . S
O102 Fe88 1.996 . S
O102 C96 1.255 . S
C103 O107 1.295 . S
C103 O108 1.235 . S
O104 Fe89 1.976 . S
O104 C98 1.287 . S
O105 Fe91 1.996 . S
O105 C98 1.255 . S
C106 O99 1.287 . S
C106 O100 1.255 . S
O107 Fe89 2.002 . S
O107 C103 1.295 . S
O108 Fe91 1.997 . S
O108 C103 1.235 . S
C109 O92 1.295 . S
C109 O93 1.235 . S
Fe110 O112 1.918 . S
Fe110 O115 1.997 . S
Fe110 O116 2.002 . S
Fe110 O121 1.976 . S
Fe110 O124 1.996 . S
Fe111 O112 1.918 . S
Fe111 O119 1.997 . S
Fe111 O122 1.996 . S
Fe111 O126 1.976 . S
Fe111 O129 2.002 . S
O112 Fe110 1.918 . S
O112 Fe111 1.918 . S
O112 Fe113 1.918 . S
Fe113 O112 1.918 . S
Fe113 O114 2.002 . S
Fe113 O123 1.976 . S
Fe113 O127 1.996 . S
Fe113 O130 1.997 . S
O114 Fe113 2.002 . S
O114 C131 1.295 . S
O115 Fe110 1.997 . S
O115 C131 1.235 . S
O116 Fe110 2.002 . S
O116 C117 1.295 . S
C117 O116 1.295 . S
C117 O119 1.235 . S
C118 O123 1.287 . S
C118 O124 1.255 . S
O119 Fe111 1.997 . S
O119 C117 1.235 . S
C120 O126 1.287 . S
C120 O127 1.255 . S
O121 Fe110 1.976 . S
O121 C128 1.287 . S
O122 Fe111 1.996 . S
O122 C128 1.255 . S
O123 Fe113 1.976 . S
O123 C118 1.287 . S
O124 Fe110 1.996 . S
O124 C118 1.255 . S
C125 O129 1.295 . S
C125 O130 1.235 . S
O126 Fe111 1.976 . S
O126 C120 1.287 . S
O127 Fe113 1.996 . S
O127 C120 1.255 . S
C128 O121 1.287 . S
C128 O122 1.255 . S
O129 Fe111 2.002 . S
O129 C125 1.295 . S
O130 Fe113 1.997 . S
O130 C125 1.235 . S
C131 O114 1.295 . S
C131 O115 1.235 . S
Fe132 O134 1.918 . S
Fe132 O137 1.997 . S
Fe132 O138 2.002 . S
Fe132 O143 1.976 . S
Fe132 O146 1.996 . S
Fe133 O134 1.918 . S
Fe133 O141 1.997 . S
Fe133 O144 1.996 . S
Fe133 O148 1.976 . S
Fe133 O151 2.002 . S
O134 Fe132 1.918 . S
O134 Fe133 1.918 . S
O134 Fe135 1.918 . S
Fe135 O134 1.918 . S
Fe135 O136 2.002 . S
Fe135 O145 1.976 . S
Fe135 O149 1.996 . S
Fe135 O152 1.997 . S
O136 Fe135 2.002 . S
O136 C153 1.295 . S
O137 Fe132 1.997 . S
O137 C153 1.235 . S
O138 Fe132 2.002 . S
O138 C139 1.295 . S
C139 O138 1.295 . S
C139 O141 1.235 . S
C140 O145 1.287 . S
C140 O146 1.255 . S
O141 Fe133 1.997 . S
O141 C139 1.235 . S
C142 O148 1.287 . S
C142 O149 1.255 . S
O143 Fe132 1.976 . S
O143 C150 1.287 . S
O144 Fe133 1.996 . S
O144 C150 1.255 . S
O145 Fe135 1.976 . S
O145 C140 1.287 . S
O146 Fe132 1.996 . S
O146 C140 1.255 . S
C147 O151 1.295 . S
C147 O152 1.235 . S
O148 Fe133 1.976 . S
O148 C142 1.287 . S
O149 Fe135 1.996 . S
O149 C142 1.255 . S
C150 O143 1.287 . S
C150 O144 1.255 . S
O151 Fe133 2.002 . S
O151 C147 1.295 . S
O152 Fe135 1.997 . S
O152 C147 1.235 . S
C153 O136 1.295 . S
C153 O137 1.235 . S
Fe154 O156 1.918 . S
Fe154 O159 1.997 . S
Fe154 O160 2.002 . S
Fe154 O165 1.976 . S
Fe154 O168 1.996 . S
Fe155 O156 1.918 . S
Fe155 O163 1.997 . S
Fe155 O166 1.996 . S
Fe155 O170 1.976 . S
Fe155 O173 2.002 . S
O156 Fe154 1.918 . S
O156 Fe155 1.918 . S
O156 Fe157 1.918 . S
Fe157 O156 1.918 . S
Fe157 O158 2.002 . S
Fe157 O167 1.976 . S
Fe157 O171 1.996 . S
Fe157 O174 1.997 . S
O158 Fe157 2.002 . S
O158 C175 1.295 . S
O159 Fe154 1.997 . S
O159 C175 1.235 . S
O160 Fe154 2.002 . S
O160 C161 1.295 . S
C161 O160 1.295 . S
C161 O163 1.235 . S
C162 O167 1.287 . S
C162 O168 1.255 . S
O163 Fe155 1.997 . S
O163 C161 1.235 . S
C164 O170 1.287 . S
C164 O171 1.255 . S
O165 Fe154 1.976 . S
O165 C172 1.287 . S
O166 Fe155 1.996 . S
O166 C172 1.255 . S
O167 Fe157 1.976 . S
O167 C162 1.287 . S
O168 Fe154 1.996 . S
O168 C162 1.255 . S
C169 O173 1.295 . S
C169 O174 1.235 . S
O170 Fe155 1.976 . S
O170 C164 1.287 . S
O171 Fe157 1.996 . S
O171 C164 1.255 . S
C172 O165 1.287 . S
C172 O166 1.255 . S
O173 Fe155 2.002 . S
O173 C169 1.295 . S
O174 Fe157 1.997 . S
O174 C169 1.235 . S
C175 O158 1.295 . S
C175 O159 1.235 . S
Fe176 O178 1.918 . S
Fe176 O181 1.997 . S
Fe176 O182 2.002 . S
Fe176 O187 1.976 . S
Fe176 O190 1.996 . S
Fe177 O178 1.918 . S
Fe177 O185 1.997 . S
Fe177 O188 1.996 . S
Fe177 O192 1.976 . S
Fe177 O195 2.002 . S
O178 Fe176 1.918 . S
O178 Fe177 1.918 . S
O178 Fe179 1.918 . S
Fe179 O178 1.918 . S
Fe179 O180 2.002 . S
Fe179 O189 1.976 . S
Fe179 O193 1.996 . S
Fe179 O196 1.997 . S
O180 Fe179 2.002 . S
O180 C197 1.295 . S
O181 Fe176 1.997 . S
O181 C197 1.235 . S
O182 Fe176 2.002 . S
O182 C183 1.295 . S
C183 O182 1.295 . S
C183 O185 1.235 . S
C184 O189 1.287 . S
C184 O190 1.255 . S
O185 Fe177 1.997 . S
O185 C183 1.235 . S
C186 O192 1.287 . S
C186 O193 1.255 . S
O187 Fe176 1.976 . S
O187 C194 1.287 . S
O188 Fe177 1.996 . S
O188 C194 1.255 . S
O189 Fe179 1.976 . S
O189 C184 1.287 . S
O190 Fe176 1.996 . S
O190 C184 1.255 . S
C191 O195 1.295 . S
C191 O196 1.235 . S
O192 Fe177 1.976 . S
O192 C186 1.287 . S
O193 Fe179 1.996 . S
O193 C186 1.255 . S
C194 O187 1.287 . S
C194 O188 1.255 . S
O195 Fe177 2.002 . S
O195 C191 1.295 . S
O196 Fe179 1.997 . S
O196 C191 1.235 . S
C197 O180 1.295 . S
C197 O181 1.235 . S
Fe198 O200 1.918 . S
Fe198 O203 1.997 . S
Fe198 O204 2.002 . S
Fe198 O209 1.976 . S
Fe198 O212 1.996 . S
Fe199 O200 1.918 . S
Fe199 O207 1.997 . S
Fe199 O210 1.996 . S
Fe199 O214 1.976 . S
Fe199 O217 2.002 . S
O200 Fe198 1.918 . S
O200 Fe199 1.918 . S
O200 Fe201 1.918 . S
Fe201 O200 1.918 . S
Fe201 O202 2.002 . S
Fe201 O211 1.976 . S
Fe201 O215 1.996 . S
Fe201 O218 1.997 . S
O202 Fe201 2.002 . S
O202 C219 1.295 . S
O203 Fe198 1.997 . S
O203 C219 1.235 . S
O204 Fe198 2.002 . S
O204 C205 1.295 . S
C205 O204 1.295 . S
C205 O207 1.235 . S
C206 O211 1.287 . S
C206 O212 1.255 . S
O207 Fe199 1.997 . S
O207 C205 1.235 . S
C208 O214 1.287 . S
C208 O215 1.255 . S
O209 Fe198 1.976 . S
O209 C216 1.287 . S
O210 Fe199 1.996 . S
O210 C216 1.255 . S
O211 Fe201 1.976 . S
O211 C206 1.287 . S
O212 Fe198 1.996 . S
O212 C206 1.255 . S
C213 O217 1.295 . S
C213 O218 1.235 . S
O214 Fe199 1.976 . S
O214 C208 1.287 . S
O215 Fe201 1.996 . S
O215 C208 1.255 . S
C216 O209 1.287 . S
C216 O210 1.255 . S
O217 Fe199 2.002 . S
O217 C213 1.295 . S
O218 Fe201 1.997 . S
O218 C213 1.235 . S
C219 O202 1.295 . S
C219 O203 1.235 . S
Fe220 O222 1.918 . S
Fe220 O225 1.997 . S
Fe220 O226 2.002 . S
Fe220 O231 1.976 . S
Fe220 O234 1.996 . S
Fe221 O222 1.918 . S
Fe221 O229 1.997 . S
Fe221 O232 1.996 . S
Fe221 O236 1.976 . S
Fe221 O239 2.002 . S
O222 Fe220 1.918 . S
O222 Fe221 1.918 . S
O222 Fe223 1.918 . S
Fe223 O222 1.918 . S
Fe223 O224 2.002 . S
Fe223 O233 1.976 . S
Fe223 O237 1.996 . S
Fe223 O240 1.997 . S
O224 Fe223 2.002 . S
O224 C241 1.295 . S
O225 Fe220 1.997 . S
O225 C241 1.235 . S
O226 Fe220 2.002 . S
O226 C227 1.295 . S
C227 O226 1.295 . S
C227 O229 1.235 . S
C228 O233 1.287 . S
C228 O234 1.255 . S
O229 Fe221 1.997 . S
O229 C227 1.235 . S
C230 O236 1.287 . S
C230 O237 1.255 . S
O231 Fe220 1.976 . S
O231 C238 1.287 . S
O232 Fe221 1.996 . S
O232 C238 1.255 . S
O233 Fe223 1.976 . S
O233 C228 1.287 . S
O234 Fe220 1.996 . S
O234 C228 1.255 . S
C235 O239 1.295 . S
C235 O240 1.235 . S
O236 Fe221 1.976 . S
O236 C230 1.287 . S
O237 Fe223 1.996 . S
O237 C230 1.255 . S
C238 O231 1.287 . S
C238 O232 1.255 . S
O239 Fe221 2.002 . S
O239 C235 1.295 . S
O240 Fe223 1.997 . S
O240 C235 1.235 . S
C241 O224 1.295 . S
C241 O225 1.235 . S
Fe242 O244 1.918 . S
Fe242 O247 1.997 . S
Fe242 O248 2.002 . S
Fe242 O253 1.976 . S
Fe242 O256 1.996 . S
Fe243 O244 1.918 . S
Fe243 O251 1.997 . S
Fe243 O254 1.996 . S
Fe243 O258 1.976 . S
Fe243 O261 2.002 . S
O244 Fe242 1.918 . S
O244 Fe243 1.918 . S
O244 Fe245 1.918 . S
Fe245 O244 1.918 . S
Fe245 O246 2.002 . S
Fe245 O255 1.976 . S
Fe245 O259 1.996 . S
Fe245 O262 1.997 . S
O246 Fe245 2.002 . S
O246 C263 1.295 . S
O247 Fe242 1.997 . S
O247 C263 1.235 . S
O248 Fe242 2.002 . S
O248 C249 1.295 . S
C249 O248 1.295 . S
C249 O251 1.235 . S
C250 O255 1.287 . S
C250 O256 1.255 . S
O251 Fe243 1.997 . S
O251 C249 1.235 . S
C252 O258 1.287 . S
C252 O259 1.255 . S
O253 Fe242 1.976 . S
O253 C260 1.287 . S
O254 Fe243 1.996 . S
O254 C260 1.255 . S
O255 Fe245 1.976 . S
O255 C250 1.287 . S
O256 Fe242 1.996 . S
O256 C250 1.255 . S
C257 O261 1.295 . S
C257 O262 1.235 . S
O258 Fe243 1.976 . S
O258 C252 1.287 . S
O259 Fe245 1.996 . S
O259 C252 1.255 . S
C260 O253 1.287 . S
C260 O254 1.255 . S
O261 Fe243 2.002 . S
O261 C257 1.295 . S
O262 Fe245 1.997 . S
O262 C257 1.235 . S
C263 O246 1.295 . S
C263 O247 1.235 . S
Fe264 O266 1.918 . S
Fe264 O269 1.997 . S
Fe264 O270 2.002 . S
Fe264 O275 1.976 . S
Fe264 O278 1.996 . S
Fe265 O266 1.918 . S
Fe265 O273 1.997 . S
Fe265 O276 1.996 . S
Fe265 O280 1.976 . S
Fe265 O283 2.002 . S
O266 Fe264 1.918 . S
O266 Fe265 1.918 . S
O266 Fe267 1.918 . S
Fe267 O266 1.918 . S
Fe267 O268 2.002 . S
Fe267 O277 1.976 . S
Fe267 O281 1.996 . S
Fe267 O284 1.997 . S
O268 Fe267 2.002 . S
O268 C285 1.295 . S
O269 Fe264 1.997 . S
O269 C285 1.235 . S
O270 Fe264 2.002 . S
O270 C271 1.295 . S
C271 O270 1.295 . S
C271 O273 1.235 . S
C272 O277 1.287 . S
C272 O278 1.255 . S
O273 Fe265 1.997 . S
O273 C271 1.235 . S
C274 O280 1.287 . S
C274 O281 1.255 . S
O275 Fe264 1.976 . S
O275 C282 1.287 . S
O276 Fe265 1.996 . S
O276 C282 1.255 . S
O277 Fe267 1.976 . S
O277 C272 1.287 . S
O278 Fe264 1.996 . S
O278 C272 1.255 . S
C279 O283 1.295 . S
C279 O284 1.235 . S
O280 Fe265 1.976 . S
O280 C274 1.287 . S
O281 Fe267 1.996 . S
O281 C274 1.255 . S
C282 O275 1.287 . S
C282 O276 1.255 . S
O283 Fe265 2.002 . S
O283 C279 1.295 . S
O284 Fe267 1.997 . S
O284 C279 1.235 . S
C285 O268 1.295 . S
C285 O269 1.235 . S
Fe286 O288 1.918 . S
Fe286 O291 1.997 . S
Fe286 O292 2.002 . S
Fe286 O297 1.976 . S
Fe286 O300 1.996 . S
Fe287 O288 1.918 . S
Fe287 O295 1.997 . S
Fe287 O298 1.996 . S
Fe287 O302 1.976 . S
Fe287 O305 2.002 . S
O288 Fe286 1.918 . S
O288 Fe287 1.918 . S
O288 Fe289 1.918 . S
Fe289 O288 1.918 . S
Fe289 O290 2.002 . S
Fe289 O299 1.976 . S
Fe289 O303 1.996 . S
Fe289 O306 1.997 . S
O290 Fe289 2.002 . S
O290 C307 1.295 . S
O291 Fe286 1.997 . S
O291 C307 1.235 . S
O292 Fe286 2.002 . S
O292 C293 1.295 . S
C293 O292 1.295 . S
C293 O295 1.235 . S
C294 O299 1.287 . S
C294 O300 1.255 . S
O295 Fe287 1.997 . S
O295 C293 1.235 . S
C296 O302 1.287 . S
C296 O303 1.255 . S
O297 Fe286 1.976 . S
O297 C304 1.287 . S
O298 Fe287 1.996 . S
O298 C304 1.255 . S
O299 Fe289 1.976 . S
O299 C294 1.287 . S
O300 Fe286 1.996 . S
O300 C294 1.255 . S
C301 O305 1.295 . S
C301 O306 1.235 . S
O302 Fe287 1.976 . S
O302 C296 1.287 . S
O303 Fe289 1.996 . S
O303 C296 1.255 . S
C304 O297 1.287 . S
C304 O298 1.255 . S
O305 Fe287 2.002 . S
O305 C301 1.295 . S
O306 Fe289 1.997 . S
O306 C301 1.235 . S
C307 O290 1.295 . S
C307 O291 1.235 . S
Fe308 O310 1.918 . S
Fe308 O313 1.997 . S
Fe308 O314 2.002 . S
Fe308 O319 1.976 . S
Fe308 O322 1.996 . S
Fe309 O310 1.918 . S
Fe309 O317 1.997 . S
Fe309 O320 1.996 . S
Fe309 O324 1.976 . S
Fe309 O327 2.002 . S
O310 Fe308 1.918 . S
O310 Fe309 1.918 . S
O310 Fe311 1.918 . S
Fe311 O310 1.918 . S
Fe311 O312 2.002 . S
Fe311 O321 1.976 . S
Fe311 O325 1.996 . S
Fe311 O328 1.997 . S
O312 Fe311 2.002 . S
O312 C329 1.295 . S
O313 Fe308 1.997 . S
O313 C329 1.235 . S
O314 Fe308 2.002 . S
O314 C315 1.295 . S
C315 O314 1.295 . S
C315 O317 1.235 . S
C316 O321 1.287 . S
C316 O322 1.255 . S
O317 Fe309 1.997 . S
O317 C315 1.235 . S
C318 O324 1.287 . S
C318 O325 1.255 . S
O319 Fe308 1.976 . S
O319 C326 1.287 . S
O320 Fe309 1.996 . S
O320 C326 1.255 . S
O321 Fe311 1.976 . S
O321 C316 1.287 . S
O322 Fe308 1.996 . S
O322 C316 1.255 . S
C323 O327 1.295 . S
C323 O328 1.235 . S
O324 Fe309 1.976 . S
O324 C318 1.287 . S
O325 Fe311 1.996 . S
O325 C318 1.255 . S
C326 O319 1.287 . S
C326 O320 1.255 . S
O327 Fe309 2.002 . S
O327 C323 1.295 . S
O328 Fe311 1.997 . S
O328 C323 1.235 . S
C329 O312 1.295 . S
C329 O313 1.235 . S
Fe330 O332 1.918 . S
Fe330 O335 1.997 . S
Fe330 O336 2.002 . S
Fe330 O341 1.976 . S
Fe330 O344 1.996 . S
Fe331 O332 1.918 . S
Fe331 O339 1.997 . S
Fe331 O342 1.996 . S
Fe331 O346 1.976 . S
Fe331 O349 2.002 . S
O332 Fe330 1.918 . S
O332 Fe331 1.918 . S
O332 Fe333 1.918 . S
Fe333 O332 1.918 . S
Fe333 O334 2.002 . S
Fe333 O343 1.976 . S
Fe333 O347 1.996 . S
Fe333 O350 1.997 . S
O334 Fe333 2.002 . S
O334 C351 1.295 . S
O335 Fe330 1.997 . S
O335 C351 1.235 . S
O336 Fe330 2.002 . S
O336 C337 1.295 . S
C337 O336 1.295 . S
C337 O339 1.235 . S
C338 O343 1.287 . S
C338 O344 1.255 . S
O339 Fe331 1.997 . S
O339 C337 1.235 . S
C340 O346 1.287 . S
C340 O347 1.255 . S
O341 Fe330 1.976 . S
O341 C348 1.287 . S
O342 Fe331 1.996 . S
O342 C348 1.255 . S
O343 Fe333 1.976 . S
O343 C338 1.287 . S
O344 Fe330 1.996 . S
O344 C338 1.255 . S
C345 O349 1.295 . S
C345 O350 1.235 . S
O346 Fe331 1.976 . S
O346 C340 1.287 . S
O347 Fe333 1.996 . S
O347 C340 1.255 . S
C348 O341 1.287 . S
C348 O342 1.255 . S
O349 Fe331 2.002 . S
O349 C345 1.295 . S
O350 Fe333 1.997 . S
O350 C345 1.235 . S
C351 O334 1.295 . S
C351 O335 1.235 . S
H352 C358 0.930 . S
H353 C362 0.930 . S
H354 C367 0.929 . S
H355 C365 0.929 . S
H356 C360 0.929 1_554 S
H357 C366 0.900 1_556 S
C358 H352 0.930 . S
C358 C359 1.367 . S
C358 C366 1.378 . S
C359 C358 1.367 . S
C359 C367 1.433 . S
C360 H356 0.929 1_556 S
C360 C362 1.378 . S
C360 C364 1.350 . S
C361 C364 1.463 1_554 S
C361 C366 1.350 . S
C361 N369 1.427 . S
C362 H353 0.930 . S
C362 C360 1.378 . S
C362 C363 1.367 . S
C363 C362 1.367 . S
C363 C365 1.433 . S
C364 C360 1.350 . S
C364 C361 1.463 1_556 S
C364 N368 1.427 . S
C365 H355 0.929 . S
C365 C363 1.433 . S
C365 N368 1.384 . S
C366 H357 0.900 1_554 S
C366 C358 1.378 . S
C366 C361 1.350 . S
C367 H354 0.929 . S
C367 C359 1.433 . S
C367 N369 1.384 . S
N368 C364 1.427 . S
N368 C365 1.384 . S
N369 C361 1.427 . S
N369 C367 1.384 . S
H370 C376 0.930 . S
H371 C380 0.930 . S
H372 C385 0.929 . S
H373 C383 0.929 . S
H374 C378 0.929 . S
H375 C384 0.929 . S
C376 H370 0.930 . S
C376 C377 1.367 . S
C376 C384 1.378 . S
C377 C376 1.367 . S
C377 C385 1.433 . S
C378 H374 0.929 . S
C378 C380 1.378 . S
C378 C382 1.350 . S
C379 C382 1.463 . S
C379 C384 1.350 . S
C379 N387 1.427 . S
C380 H371 0.930 . S
C380 C378 1.378 . S
C380 C381 1.367 . S
C381 C380 1.367 . S
C381 C383 1.433 . S
C382 C378 1.350 . S
C382 C379 1.463 . S
C382 N386 1.427 . S
C383 H373 0.929 . S
C383 C381 1.433 . S
C383 N386 1.384 . S
C384 H375 0.929 . S
C384 C376 1.378 . S
C384 C379 1.350 . S
C385 H372 0.929 . S
C385 C377 1.433 . S
C385 N387 1.384 . S
N386 C382 1.427 . S
N386 C383 1.384 . S
N387 C379 1.427 . S
N387 C385 1.384 . S
H388 C394 0.930 . S
H389 C398 0.930 . S
H390 C403 0.929 . S
H391 C401 0.929 . S
H392 C396 0.929 . S
H393 C402 0.929 . S
C394 H388 0.930 . S
C394 C395 1.367 . S
C394 C402 1.378 . S
C395 C394 1.367 . S
C395 C403 1.433 . S
C396 H392 0.929 . S
C396 C398 1.378 . S
C396 C400 1.350 . S
C397 C400 1.463 1_554 S
C397 C402 1.350 . S
C397 N405 1.427 . S
C398 H389 0.930 . S
C398 C396 1.378 . S
C398 C399 1.367 . S
C399 C398 1.367 . S
C399 C401 1.433 . S
C400 C396 1.350 . S
C400 C397 1.463 1_556 S
C400 N404 1.427 . S
C401 H391 0.929 . S
C401 C399 1.433 . S
C401 N404 1.384 . S
C402 H393 0.929 . S
C402 C394 1.378 . S
C402 C397 1.350 . S
C403 H390 0.929 . S
C403 C395 1.433 . S
C403 N405 1.384 . S
N404 C400 1.427 . S
N404 C401 1.384 . S
N405 C397 1.427 . S
N405 C403 1.384 . S
H406 C412 0.930 . S
H407 C416 0.930 . S
H408 C421 0.929 . S
H409 C419 0.929 . S
H410 C414 0.929 . S
H411 C420 0.929 . S
C412 H406 0.930 . S
C412 C413 1.367 . S
C412 C420 1.378 . S
C413 C412 1.367 . S
C413 C421 1.433 . S
C414 H410 0.929 . S
C414 C416 1.378 . S
C414 C418 1.350 . S
C415 C418 1.463 . S
C415 C420 1.350 . S
C415 N423 1.427 . S
C416 H407 0.930 . S
C416 C414 1.378 . S
C416 C417 1.367 . S
C417 C416 1.367 . S
C417 C419 1.433 . S
C418 C414 1.350 . S
C418 C415 1.463 . S
C418 N422 1.427 . S
C419 H409 0.929 . S
C419 C417 1.433 . S
C419 N422 1.384 . S
C420 H411 0.929 . S
C420 C412 1.378 . S
C420 C415 1.350 . S
C421 H408 0.929 . S
C421 C413 1.433 . S
C421 N423 1.384 . S
N422 C418 1.427 . S
N422 C419 1.384 . S
N423 C415 1.427 . S
N423 C421 1.384 . S
H424 C430 0.930 . S
H425 C434 0.930 . S
H426 C439 0.929 . S
H427 C437 0.929 . S
H428 C432 0.890 1_556 S
H429 C438 0.929 1_554 S
C430 H424 0.930 . S
C430 C431 1.367 . S
C430 C438 1.378 . S
C431 C430 1.367 . S
C431 C439 1.433 . S
C432 H428 0.890 1_554 S
C432 C434 1.378 . S
C432 C436 1.350 . S
C433 C436 1.463 1_556 S
C433 C438 1.350 . S
C433 N441 1.427 . S
C434 H425 0.930 . S
C434 C432 1.378 . S
C434 C435 1.367 . S
C435 C434 1.367 . S
C435 C437 1.433 . S
C436 C432 1.350 . S
C436 C433 1.463 1_554 S
C436 N440 1.427 . S
C437 H427 0.929 . S
C437 C435 1.433 . S
C437 N440 1.384 . S
C438 H429 0.929 1_556 S
C438 C430 1.378 . S
C438 C433 1.350 . S
C439 H426 0.929 . S
C439 C431 1.433 . S
C439 N441 1.384 . S
N440 C436 1.427 . S
N440 C437 1.384 . S
N441 C433 1.427 . S
N441 C439 1.384 . S
H442 C448 0.930 . S
H443 C452 0.930 . S
H444 C457 0.929 . S
H445 C455 0.929 . S
H446 C450 0.929 . S
H447 C456 0.929 . S
C448 H442 0.930 . S
C448 C449 1.367 . S
C448 C456 1.378 . S
C449 C448 1.367 . S
C449 C457 1.433 . S
C450 H446 0.929 . S
C450 C452 1.378 . S
C450 C454 1.350 . S
C451 C454 1.463 . S
C451 C456 1.350 . S
C451 N459 1.427 . S
C452 H443 0.930 . S
C452 C450 1.378 . S
C452 C453 1.367 . S
C453 C452 1.367 . S
C453 C455 1.433 . S
C454 C450 1.350 . S
C454 C451 1.463 . S
C454 N458 1.427 . S
C455 H445 0.929 . S
C455 C453 1.433 . S
C455 N458 1.384 . S
C456 H447 0.929 . S
C456 C448 1.378 . S
C456 C451 1.350 . S
C457 H444 0.929 . S
C457 C449 1.433 . S
C457 N459 1.384 . S
N458 C454 1.427 . S
N458 C455 1.384 . S
N459 C451 1.427 . S
N459 C457 1.384 . S
H460 C466 0.930 . S
H461 C470 0.930 . S
H462 C475 0.929 . S
H463 C473 0.929 . S
H464 C468 0.929 . S
H465 C474 0.929 . S
C466 H460 0.930 . S
C466 C467 1.367 . S
C466 C474 1.378 . S
C467 C466 1.367 . S
C467 C475 1.433 . S
C468 H464 0.929 . S
C468 C470 1.378 . S
C468 C472 1.350 . S
C469 C472 1.463 1_554 S
C469 C474 1.350 . S
C469 N477 1.427 . S
C470 H461 0.930 . S
C470 C468 1.378 . S
C470 C471 1.367 . S
C471 C470 1.367 . S
C471 C473 1.433 . S
C472 C468 1.350 . S
C472 C469 1.463 1_556 S
C472 N476 1.427 . S
C473 H463 0.929 . S
C473 C471 1.433 . S
C473 N476 1.384 . S
C474 H465 0.929 . S
C474 C466 1.378 . S
C474 C469 1.350 . S
C475 H462 0.929 . S
C475 C467 1.433 . S
C475 N477 1.384 . S
N476 C472 1.427 . S
N476 C473 1.384 . S
N477 C469 1.427 . S
N477 C475 1.384 . S
H478 C484 0.930 . S
H479 C488 0.930 . S
H480 C493 0.929 . S
H481 C491 0.929 . S
H482 C486 0.929 . S
H483 C492 0.929 . S
C484 H478 0.930 . S
C484 C485 1.367 . S
C484 C492 1.378 . S
C485 C484 1.367 . S
C485 C493 1.433 . S
C486 H482 0.929 . S
C486 C488 1.378 . S
C486 C490 1.350 . S
C487 C490 1.463 . S
C487 C492 1.350 . S
C487 N495 1.427 . S
C488 H479 0.930 . S
C488 C486 1.378 . S
C488 C489 1.367 . S
C489 C488 1.367 . S
C489 C491 1.433 . S
C490 C486 1.350 . S
C490 C487 1.463 . S
C490 N494 1.427 . S
C491 H481 0.929 . S
C491 C489 1.433 . S
C491 N494 1.384 . S
C492 H483 0.929 . S
C492 C484 1.378 . S
C492 C487 1.350 . S
C493 H480 0.929 . S
C493 C485 1.433 . S
C493 N495 1.384 . S
N494 C490 1.427 . S
N494 C491 1.384 . S
N495 C487 1.427 . S
N495 C493 1.384 . S
H496 C502 0.930 . S
H497 C506 0.930 . S
H498 C511 0.929 . S
H499 C509 0.929 . S
H500 C504 0.929 1_556 S
H501 C510 0.929 1_554 S
C502 H496 0.930 . S
C502 C503 1.367 . S
C502 C510 1.378 . S
C503 C502 1.367 . S
C503 C511 1.433 . S
C504 H500 0.929 1_554 S
C504 C506 1.378 . S
C504 C508 1.350 . S
C505 C508 1.463 1_566 S
C505 C510 1.350 . S
C505 N513 1.427 . S
C506 H497 0.930 . S
C506 C504 1.378 . S
C506 C507 1.367 . S
C507 C506 1.367 . S
C507 C509 1.433 . S
C508 C504 1.350 . S
C508 C505 1.463 1_544 S
C508 N512 1.427 . S
C509 H499 0.929 . S
C509 C507 1.433 . S
C509 N512 1.384 . S
C510 H501 0.929 1_556 S
C510 C502 1.378 . S
C510 C505 1.350 . S
C511 H498 0.929 . S
C511 C503 1.433 . S
C511 N513 1.384 . S
N512 C508 1.427 . S
N512 C509 1.384 . S
N513 C505 1.427 . S
N513 C511 1.384 . S
H514 C520 0.930 . S
H515 C524 0.930 . S
H516 C529 0.929 . S
H517 C527 0.929 . S
H518 C522 0.929 . S
H519 C528 0.929 . S
C520 H514 0.930 . S
C520 C521 1.367 . S
C520 C528 1.378 . S
C521 C520 1.367 . S
C521 C529 1.433 . S
C522 H518 0.929 . S
C522 C524 1.378 . S
C522 C526 1.350 . S
C523 C526 1.463 1_565 S
C523 C528 1.350 . S
C523 N531 1.427 1_565 S
C524 H515 0.930 . S
C524 C522 1.378 . S
C524 C525 1.367 . S
C525 C524 1.367 . S
C525 C527 1.433 . S
C526 C522 1.350 . S
C526 C523 1.463 1_545 S
C526 N530 1.427 1_545 S
C527 H517 0.929 . S
C527 C525 1.433 . S
C527 N530 1.384 1_545 S
C528 H519 0.929 . S
C528 C520 1.378 . S
C528 C523 1.350 . S
C529 H516 0.929 . S
C529 C521 1.433 . S
C529 N531 1.384 1_565 S
N530 C526 1.427 1_565 S
N530 C527 1.384 1_565 S
N531 C523 1.427 1_545 S
N531 C529 1.384 1_545 S
H532 C538 0.930 . S
H533 C542 0.930 . S
H534 C547 0.929 . S
H535 C545 0.929 . S
H536 C540 0.929 1_565 S
H537 C546 0.929 1_545 S
C538 H532 0.930 . S
C538 C539 1.367 . S
C538 C546 1.378 . S
C539 C538 1.367 . S
C539 C547 1.433 . S
C540 H536 0.929 1_545 S
C540 C542 1.378 . S
C540 C544 1.350 . S
C541 C544 1.463 1_566 S
C541 C546 1.350 . S
C541 N549 1.427 . S
C542 H533 0.930 . S
C542 C540 1.378 . S
C542 C543 1.367 . S
C543 C542 1.367 . S
C543 C545 1.433 . S
C544 C540 1.350 . S
C544 C541 1.463 1_544 S
C544 N548 1.427 . S
C545 H535 0.929 . S
C545 C543 1.433 . S
C545 N548 1.384 . S
C546 H537 0.929 1_565 S
C546 C538 1.378 . S
C546 C541 1.350 . S
C547 H534 0.929 . S
C547 C539 1.433 . S
C547 N549 1.384 . S
N548 C544 1.427 . S
N548 C545 1.384 . S
N549 C541 1.427 . S
N549 C547 1.384 . S
H550 C556 0.930 . S
H551 C560 0.930 . S
H552 C565 0.929 . S
H553 C563 0.929 . S
H554 C558 0.929 . S
H555 C564 0.929 . S
C556 H550 0.930 . S
C556 C557 1.367 . S
C556 C564 1.378 . S
C557 C556 1.367 . S
C557 C565 1.433 . S
C558 H554 0.929 . S
C558 C560 1.378 . S
C558 C562 1.350 . S
C559 C562 1.463 1_565 S
C559 C564 1.350 . S
C559 N567 1.427 1_565 S
C560 H551 0.930 . S
C560 C558 1.378 . S
C560 C561 1.367 . S
C561 C560 1.367 . S
C561 C563 1.433 . S
C562 C558 1.350 . S
C562 C559 1.463 1_545 S
C562 N566 1.427 1_545 S
C563 H553 0.929 . S
C563 C561 1.433 . S
C563 N566 1.384 1_545 S
C564 H555 0.929 . S
C564 C556 1.378 . S
C564 C559 1.350 . S
C565 H552 0.929 . S
C565 C557 1.433 . S
C565 N567 1.384 1_565 S
N566 C562 1.427 1_565 S
N566 C563 1.384 1_565 S
N567 C559 1.427 1_545 S
N567 C565 1.384 1_545 S
H568 C574 0.930 . S
H569 C578 0.930 . S
H570 C583 0.929 . S
H571 C581 0.929 . S
H572 C576 0.929 1_554 S
H573 C582 0.929 1_556 S
C574 H568 0.930 . S
C574 C575 1.367 . S
C574 C582 1.378 . S
C575 C574 1.367 . S
C575 C583 1.433 . S
C576 H572 0.929 1_556 S
C576 C578 1.378 . S
C576 C580 1.350 . S
C577 C580 1.463 1_554 S
C577 C582 1.350 . S
C577 N585 1.427 . S
C578 H569 0.930 . S
C578 C576 1.378 . S
C578 C579 1.367 . S
C579 C578 1.367 . S
C579 C581 1.433 . S
C580 C576 1.350 . S
C580 C577 1.463 1_556 S
C580 N584 1.427 . S
C581 H571 0.929 . S
C581 C579 1.433 . S
C581 N584 1.384 . S
C582 H573 0.929 1_554 S
C582 C574 1.378 . S
C582 C577 1.350 . S
C583 H570 0.929 . S
C583 C575 1.433 . S
C583 N585 1.384 . S
N584 C580 1.427 . S
N584 C581 1.384 . S
N585 C577 1.427 . S
N585 C583 1.384 . S
H586 C592 0.930 . S
H587 C596 0.930 . S
H588 C601 0.929 . S
H589 C599 0.929 . S
H590 C594 0.929 . S
H591 C600 0.929 . S
C592 H586 0.930 . S
C592 C593 1.367 . S
C592 C600 1.378 . S
C593 C592 1.367 . S
C593 C601 1.433 . S
C594 H590 0.929 . S
C594 C596 1.378 . S
C594 C598 1.350 . S
C595 C598 1.463 . S
C595 C600 1.350 . S
C595 N603 1.427 . S
C596 H587 0.930 . S
C596 C594 1.378 . S
C596 C597 1.367 . S
C597 C596 1.367 . S
C597 C599 1.433 . S
C598 C594 1.350 . S
C598 C595 1.463 . S
C598 N602 1.427 . S
C599 H589 0.929 . S
C599 C597 1.433 . S
C599 N602 1.384 . S
C600 H591 0.929 . S
C600 C592 1.378 . S
C600 C595 1.350 . S
C601 H588 0.929 . S
C601 C593 1.433 . S
C601 N603 1.384 . S
N602 C598 1.427 . S
N602 C599 1.384 . S
N603 C595 1.427 . S
N603 C601 1.384 . S
H604 C610 0.930 . S
H605 C614 0.930 . S
H606 C619 0.929 . S
H607 C617 0.929 . S
H608 C612 0.929 . S
H609 C618 0.929 . S
C610 H604 0.930 . S
C610 C611 1.367 . S
C610 C618 1.378 . S
C611 C610 1.367 . S
C611 C619 1.433 . S
C612 H608 0.929 . S
C612 C614 1.378 . S
C612 C616 1.350 . S
C613 C616 1.463 1_554 S
C613 C618 1.350 . S
C613 N621 1.427 . S
C614 H605 0.930 . S
C614 C612 1.378 . S
C614 C615 1.367 . S
C615 C614 1.367 . S
C615 C617 1.433 . S
C616 C612 1.350 . S
C616 C613 1.463 1_556 S
C616 N620 1.427 . S
C617 H607 0.929 . S
C617 C615 1.433 . S
C617 N620 1.384 . S
C618 H609 0.929 . S
C618 C610 1.378 . S
C618 C613 1.350 . S
C619 H606 0.929 . S
C619 C611 1.433 . S
C619 N621 1.384 . S
N620 C616 1.427 . S
N620 C617 1.384 . S
N621 C613 1.427 . S
N621 C619 1.384 . S
H622 C628 0.930 . S
H623 C632 0.930 . S
H624 C637 0.929 . S
H625 C635 0.929 . S
H626 C630 0.929 . S
H627 C636 0.929 . S
C628 H622 0.930 . S
C628 C629 1.367 . S
C628 C636 1.378 . S
C629 C628 1.367 . S
C629 C637 1.433 . S
C630 H626 0.929 . S
C630 C632 1.378 . S
C630 C634 1.350 . S
C631 C634 1.463 . S
C631 C636 1.350 . S
C631 N639 1.427 . S
C632 H623 0.930 . S
C632 C630 1.378 . S
C632 C633 1.367 . S
C633 C632 1.367 . S
C633 C635 1.433 . S
C634 C630 1.350 . S
C634 C631 1.463 . S
C634 N638 1.427 . S
C635 H625 0.929 . S
C635 C633 1.433 . S
C635 N638 1.384 . S
C636 H627 0.929 . S
C636 C628 1.378 . S
C636 C631 1.350 . S
C637 H624 0.929 . S
C637 C629 1.433 . S
C637 N639 1.384 . S
N638 C634 1.427 . S
N638 C635 1.384 . S
N639 C631 1.427 . S
N639 C637 1.384 . S
H640 C646 0.930 . S
H641 C650 0.930 . S
H642 C655 0.929 . S
H643 C653 0.929 . S
H644 C648 0.929 . S
H645 C654 0.929 . S
C646 H640 0.930 . S
C646 C647 1.367 . S
C646 C654 1.378 . S
C647 C646 1.367 . S
C647 C655 1.433 . S
C648 H644 0.929 . S
C648 C650 1.378 . S
C648 C652 1.350 . S
C649 C652 1.463 . S
C649 C654 1.350 . S
C649 N657 1.427 . S
C650 H641 0.930 . S
C650 C648 1.378 . S
C650 C651 1.367 . S
C651 C650 1.367 . S
C651 C653 1.433 . S
C652 C648 1.350 . S
C652 C649 1.463 . S
C652 N656 1.427 . S
C653 H643 0.929 . S
C653 C651 1.433 . S
C653 N656 1.384 . S
C654 H645 0.929 . S
C654 C646 1.378 . S
C654 C649 1.350 . S
C655 H642 0.929 . S
C655 C647 1.433 . S
C655 N657 1.384 . S
N656 C652 1.427 . S
N656 C653 1.384 . S
N657 C649 1.427 . S
N657 C655 1.384 . S
H658 C664 0.930 . S
H659 C668 0.930 . S
H660 C673 0.929 . S
H661 C671 0.929 . S
H662 C666 0.929 . S
H663 C672 0.929 . S
C664 H658 0.930 . S
C664 C665 1.367 . S
C664 C672 1.378 . S
C665 C664 1.367 . S
C665 C673 1.433 . S
C666 H662 0.929 . S
C666 C668 1.378 . S
C666 C670 1.350 . S
C667 C670 1.463 . S
C667 C672 1.350 . S
C667 N675 1.427 . S
C668 H659 0.930 . S
C668 C666 1.378 . S
C668 C669 1.367 . S
C669 C668 1.367 . S
C669 C671 1.433 . S
C670 C666 1.350 . S
C670 C667 1.463 . S
C670 N674 1.427 . S
C671 H661 0.929 . S
C671 C669 1.433 . S
C671 N674 1.384 . S
C672 H663 0.929 . S
C672 C664 1.378 . S
C672 C667 1.350 . S
C673 H660 0.929 . S
C673 C665 1.433 . S
C673 N675 1.384 . S
N674 C670 1.427 . S
N674 C671 1.384 . S
N675 C667 1.427 . S
N675 C673 1.384 . S
H676 C682 0.930 . S
H677 C686 0.930 . S
H678 C691 0.929 . S
H679 C689 0.929 . S
H680 C684 0.929 . S
H681 C690 0.929 . S
C682 H676 0.930 . S
C682 C683 1.367 . S
C682 C690 1.378 . S
C683 C682 1.367 . S
C683 C691 1.433 . S
C684 H680 0.929 . S
C684 C686 1.378 . S
C684 C688 1.350 . S
C685 C688 1.463 . S
C685 C690 1.350 . S
C685 N693 1.427 . S
C686 H677 0.930 . S
C686 C684 1.378 . S
C686 C687 1.367 . S
C687 C686 1.367 . S
C687 C689 1.433 . S
C688 C684 1.350 . S
C688 C685 1.463 . S
C688 N692 1.427 . S
C689 H679 0.929 . S
C689 C687 1.433 . S
C689 N692 1.384 . S
C690 H681 0.929 . S
C690 C682 1.378 . S
C690 C685 1.350 . S
C691 H678 0.929 . S
C691 C683 1.433 . S
C691 N693 1.384 . S
N692 C688 1.427 . S
N692 C689 1.384 . S
N693 C685 1.427 . S
N693 C691 1.384 . S
H694 C700 0.930 . S
H695 C704 0.930 . S
H696 C709 0.929 . S
H697 C707 0.929 . S
H698 C702 0.929 . S
H699 C708 0.929 . S
C700 H694 0.930 . S
C700 C701 1.367 . S
C700 C708 1.378 . S
C701 C700 1.367 . S
C701 C709 1.433 . S
C702 H698 0.929 . S
C702 C704 1.378 . S
C702 C706 1.350 . S
C703 C706 1.463 . S
C703 C708 1.350 . S
C703 N711 1.427 . S
C704 H695 0.930 . S
C704 C702 1.378 . S
C704 C705 1.367 . S
C705 C704 1.367 . S
C705 C707 1.433 . S
C706 C702 1.350 . S
C706 C703 1.463 . S
C706 N710 1.427 . S
C707 H697 0.929 . S
C707 C705 1.433 . S
C707 N710 1.384 . S
C708 H699 0.929 . S
C708 C700 1.378 . S
C708 C703 1.350 . S
C709 H696 0.929 . S
C709 C701 1.433 . S
C709 N711 1.384 . S
N710 C706 1.427 . S
N710 C707 1.384 . S
N711 C703 1.427 . S
N711 C709 1.384 . S
H712 C718 0.930 . S
H713 C722 0.930 . S
H714 C727 0.929 . S
H715 C725 0.929 . S
H716 C720 0.929 . S
H717 C726 0.929 . S
C718 H712 0.930 . S
C718 C719 1.367 . S
C718 C726 1.378 . S
C719 C718 1.367 . S
C719 C727 1.433 . S
C720 H716 0.929 . S
C720 C722 1.378 . S
C720 C724 1.350 . S
C721 C724 1.463 . S
C721 C726 1.350 . S
C721 N729 1.427 . S
C722 H713 0.930 . S
C722 C720 1.378 . S
C722 C723 1.367 . S
C723 C722 1.367 . S
C723 C725 1.433 . S
C724 C720 1.350 . S
C724 C721 1.463 . S
C724 N728 1.427 . S
C725 H715 0.929 . S
C725 C723 1.433 . S
C725 N728 1.384 . S
C726 H717 0.929 . S
C726 C718 1.378 . S
C726 C721 1.350 . S
C727 H714 0.929 . S
C727 C719 1.433 . S
C727 N729 1.384 . S
N728 C724 1.427 . S
N728 C725 1.384 . S
N729 C721 1.427 . S
N729 C727 1.384 . S
H730 C736 0.930 . S
H731 C740 0.930 . S
H732 C745 0.929 . S
H733 C743 0.929 . S
H734 C738 0.929 . S
H735 C744 0.929 . S
C736 H730 0.930 . S
C736 C737 1.367 . S
C736 C744 1.378 . S
C737 C736 1.367 . S
C737 C745 1.433 . S
C738 H734 0.929 . S
C738 C740 1.378 . S
C738 C742 1.350 . S
C739 C742 1.463 . S
C739 C744 1.350 . S
C739 N747 1.427 . S
C740 H731 0.930 . S
C740 C738 1.378 . S
C740 C741 1.367 . S
C741 C740 1.367 . S
C741 C743 1.433 . S
C742 C738 1.350 . S
C742 C739 1.463 . S
C742 N746 1.427 . S
C743 H733 0.929 . S
C743 C741 1.433 . S
C743 N746 1.384 . S
C744 H735 0.929 . S
C744 C736 1.378 . S
C744 C739 1.350 . S
C745 H732 0.929 . S
C745 C737 1.433 . S
C745 N747 1.384 . S
N746 C742 1.427 . S
N746 C743 1.384 . S
N747 C739 1.427 . S
N747 C745 1.384 . S
H748 C754 0.930 . S
H749 C758 0.930 . S
H750 C763 0.929 . S
H751 C761 0.929 . S
H752 C756 0.929 . S
H753 C762 0.929 . S
C754 H748 0.930 . S
C754 C755 1.367 . S
C754 C762 1.378 . S
C755 C754 1.367 . S
C755 C763 1.433 . S
C756 H752 0.929 . S
C756 C758 1.378 . S
C756 C760 1.350 . S
C757 C760 1.463 . S
C757 C762 1.350 . S
C757 N765 1.427 . S
C758 H749 0.930 . S
C758 C756 1.378 . S
C758 C759 1.367 . S
C759 C758 1.367 . S
C759 C761 1.433 . S
C760 C756 1.350 . S
C760 C757 1.463 . S
C760 N764 1.427 . S
C761 H751 0.929 . S
C761 C759 1.433 . S
C761 N764 1.384 . S
C762 H753 0.929 . S
C762 C754 1.378 . S
C762 C757 1.350 . S
C763 H750 0.929 . S
C763 C755 1.433 . S
C763 N765 1.384 . S
N764 C760 1.427 . S
N764 C761 1.384 . S
N765 C757 1.427 . S
N765 C763 1.384 . S
H766 C772 0.930 . S
H767 C776 0.930 . S
H768 C781 0.929 . S
H769 C779 0.929 . S
H770 C774 0.929 . S
H771 C780 0.929 . S
C772 H766 0.930 . S
C772 C773 1.367 . S
C772 C780 1.378 . S
C773 C772 1.367 . S
C773 C781 1.433 . S
C774 H770 0.929 . S
C774 C776 1.378 . S
C774 C778 1.350 . S
C775 C778 1.463 . S
C775 C780 1.350 . S
C775 N783 1.427 . S
C776 H767 0.930 . S
C776 C774 1.378 . S
C776 C777 1.367 . S
C777 C776 1.367 . S
C777 C779 1.433 . S
C778 C774 1.350 . S
C778 C775 1.463 . S
C778 N782 1.427 . S
C779 H769 0.929 . S
C779 C777 1.433 . S
C779 N782 1.384 . S
C780 H771 0.929 . S
C780 C772 1.378 . S
C780 C775 1.350 . S
C781 H768 0.929 . S
C781 C773 1.433 . S
C781 N783 1.384 . S
N782 C778 1.427 . S
N782 C779 1.384 . S
N783 C775 1.427 . S
N783 C781 1.384 . S
H784 C790 0.930 . S
H785 C794 0.930 . S
H786 C799 0.929 . S
H787 C797 0.929 . S
H788 C792 0.929 . S
H789 C798 0.929 . S
C790 H784 0.930 . S
C790 C791 1.367 . S
C790 C798 1.378 . S
C791 C790 1.367 . S
C791 C799 1.433 . S
C792 H788 0.929 . S
C792 C794 1.378 . S
C792 C796 1.350 . S
C793 C796 1.463 . S
C793 C798 1.350 . S
C793 N801 1.427 . S
C794 H785 0.930 . S
C794 C792 1.378 . S
C794 C795 1.367 . S
C795 C794 1.367 . S
C795 C797 1.433 . S
C796 C792 1.350 . S
C796 C793 1.463 . S
C796 N800 1.427 . S
C797 H787 0.929 . S
C797 C795 1.433 . S
C797 N800 1.384 . S
C798 H789 0.929 . S
C798 C790 1.378 . S
C798 C793 1.350 . S
C799 H786 0.929 . S
C799 C791 1.433 . S
C799 N801 1.384 . S
N800 C796 1.427 . S
N800 C797 1.384 . S
N801 C793 1.427 . S
N801 C799 1.384 . S
H802 C808 0.930 . S
H803 C812 0.930 . S
H804 C817 0.929 . S
H805 C815 0.929 . S
H806 C810 0.929 . S
H807 C816 0.929 . S
C808 H802 0.930 . S
C808 C809 1.367 . S
C808 C816 1.378 . S
C809 C808 1.367 . S
C809 C817 1.433 . S
C810 H806 0.929 . S
C810 C812 1.378 . S
C810 C814 1.350 . S
C811 C814 1.463 1_455 S
C811 C816 1.350 . S
C811 N819 1.427 . S
C812 H803 0.930 . S
C812 C810 1.378 . S
C812 C813 1.367 . S
C813 C812 1.367 . S
C813 C815 1.433 . S
C814 C810 1.350 . S
C814 C811 1.463 1_655 S
C814 N818 1.427 . S
C815 H805 0.929 . S
C815 C813 1.433 . S
C815 N818 1.384 . S
C816 H807 0.929 . S
C816 C808 1.378 . S
C816 C811 1.350 . S
C817 H804 0.929 . S
C817 C809 1.433 . S
C817 N819 1.384 . S
N818 C814 1.427 . S
N818 C815 1.384 . S
N819 C811 1.427 . S
N819 C817 1.384 . S
H820 C826 0.930 . S
H821 C830 0.930 . S
H822 C835 0.929 . S
H823 C833 0.929 . S
H824 C828 0.929 . S
H825 C834 0.929 . S
C826 H820 0.930 . S
C826 C827 1.367 . S
C826 C834 1.378 . S
C827 C826 1.367 . S
C827 C835 1.433 . S
C828 H824 0.929 . S
C828 C830 1.378 . S
C828 C832 1.350 . S
C829 C832 1.463 . S
C829 C834 1.350 . S
C829 N837 1.427 . S
C830 H821 0.930 . S
C830 C828 1.378 . S
C830 C831 1.367 . S
C831 C830 1.367 . S
C831 C833 1.433 . S
C832 C828 1.350 . S
C832 C829 1.463 . S
C832 N836 1.427 . S
C833 H823 0.929 . S
C833 C831 1.433 . S
C833 N836 1.384 . S
C834 H825 0.929 . S
C834 C826 1.378 . S
C834 C829 1.350 . S
C835 H822 0.929 . S
C835 C827 1.433 . S
C835 N837 1.384 . S
N836 C832 1.427 . S
N836 C833 1.384 . S
N837 C829 1.427 . S
N837 C835 1.384 . S
H838 C844 0.930 . S
H839 C848 0.930 . S
H840 C853 0.929 . S
H841 C851 0.929 . S
H842 C846 0.929 . S
H843 C852 0.929 . S
C844 H838 0.930 . S
C844 C845 1.367 . S
C844 C852 1.378 . S
C845 C844 1.367 . S
C845 C853 1.433 . S
C846 H842 0.929 . S
C846 C848 1.378 . S
C846 C850 1.350 . S
C847 C850 1.463 1_655 S
C847 C852 1.350 . S
C847 N855 1.427 . S
C848 H839 0.930 . S
C848 C846 1.378 . S
C848 C849 1.367 . S
C849 C848 1.367 . S
C849 C851 1.433 . S
C850 C846 1.350 . S
C850 C847 1.463 1_455 S
C850 N854 1.427 . S
C851 H841 0.929 . S
C851 C849 1.433 . S
C851 N854 1.384 . S
C852 H843 0.929 . S
C852 C844 1.378 . S
C852 C847 1.350 . S
C853 H840 0.929 . S
C853 C845 1.433 . S
C853 N855 1.384 . S
N854 C850 1.427 . S
N854 C851 1.384 . S
N855 C847 1.427 . S
N855 C853 1.384 . S
H856 C862 0.930 . S
H857 C866 0.930 . S
H858 C871 0.929 . S
H859 C869 0.929 . S
H860 C864 0.929 . S
H861 C870 0.929 . S
C862 H856 0.930 . S
C862 C863 1.367 . S
C862 C870 1.378 . S
C863 C862 1.367 . S
C863 C871 1.433 . S
C864 H860 0.929 . S
C864 C866 1.378 . S
C864 C868 1.350 . S
C865 C868 1.463 1_655 S
C865 C870 1.350 . S
C865 N873 1.427 . S
C866 H857 0.930 . S
C866 C864 1.378 . S
C866 C867 1.367 . S
C867 C866 1.367 . S
C867 C869 1.433 . S
C868 C864 1.350 . S
C868 C865 1.463 1_455 S
C868 N872 1.427 . S
C869 H859 0.929 . S
C869 C867 1.433 . S
C869 N872 1.384 . S
C870 H861 0.929 . S
C870 C862 1.378 . S
C870 C865 1.350 . S
C871 H858 0.929 . S
C871 C863 1.433 . S
C871 N873 1.384 . S
N872 C868 1.427 . S
N872 C869 1.384 . S
N873 C865 1.427 . S
N873 C871 1.384 . S
H874 C880 0.930 . S
H875 C884 0.930 . S
H876 C889 0.929 . S
H877 C887 0.929 . S
H878 C882 0.929 . S
H879 C888 0.929 . S
C880 H874 0.930 . S
C880 C881 1.367 . S
C880 C888 1.378 . S
C881 C880 1.367 . S
C881 C889 1.433 . S
C882 H878 0.929 . S
C882 C884 1.378 . S
C882 C886 1.350 . S
C883 C886 1.463 . S
C883 C888 1.350 . S
C883 N891 1.427 . S
C884 H875 0.930 . S
C884 C882 1.378 . S
C884 C885 1.367 . S
C885 C884 1.367 . S
C885 C887 1.433 . S
C886 C882 1.350 . S
C886 C883 1.463 . S
C886 N890 1.427 . S
C887 H877 0.929 . S
C887 C885 1.433 . S
C887 N890 1.384 . S
C888 H879 0.929 . S
C888 C880 1.378 . S
C888 C883 1.350 . S
C889 H876 0.929 . S
C889 C881 1.433 . S
C889 N891 1.384 . S
N890 C886 1.427 . S
N890 C887 1.384 . S
N891 C883 1.427 . S
N891 C889 1.384 . S
H892 C898 0.930 . S
H893 C902 0.930 . S
H894 C907 0.929 . S
H895 C905 0.929 . S
H896 C900 0.929 . S
H897 C906 0.929 . S
C898 H892 0.930 . S
C898 C899 1.367 . S
C898 C906 1.378 . S
C899 C898 1.367 . S
C899 C907 1.433 . S
C900 H896 0.929 . S
C900 C902 1.378 . S
C900 C904 1.350 . S
C901 C904 1.463 1_455 S
C901 C906 1.350 . S
C901 N909 1.427 . S
C902 H893 0.930 . S
C902 C900 1.378 . S
C902 C903 1.367 . S
C903 C902 1.367 . S
C903 C905 1.433 . S
C904 C900 1.350 . S
C904 C901 1.463 1_655 S
C904 N908 1.427 . S
C905 H895 0.929 . S
C905 C903 1.433 . S
C905 N908 1.384 . S
C906 H897 0.929 . S
C906 C898 1.378 . S
C906 C901 1.350 . S
C907 H894 0.929 . S
C907 C899 1.433 . S
C907 N909 1.384 . S
N908 C904 1.427 . S
N908 C905 1.384 . S
N909 C901 1.427 . S
N909 C907 1.384 . S
H910 C916 0.930 . S
H911 C920 0.930 . S
H912 C925 0.929 . S
H913 C923 0.929 . S
H914 C918 0.929 . S
H915 C924 0.929 . S
C916 H910 0.930 . S
C916 C917 1.367 . S
C916 C924 1.378 . S
C917 C916 1.367 . S
C917 C925 1.433 . S
C918 H914 0.929 . S
C918 C920 1.378 . S
C918 C922 1.350 . S
C919 C922 1.463 . S
C919 C924 1.350 . S
C919 N927 1.427 . S
C920 H911 0.930 . S
C920 C918 1.378 . S
C920 C921 1.367 . S
C921 C920 1.367 . S
C921 C923 1.433 . S
C922 C918 1.350 . S
C922 C919 1.463 . S
C922 N926 1.427 . S
C923 H913 0.929 . S
C923 C921 1.433 . S
C923 N926 1.384 . S
C924 H915 0.929 . S
C924 C916 1.378 . S
C924 C919 1.350 . S
C925 H912 0.929 . S
C925 C917 1.433 . S
C925 N927 1.384 . S
N926 C922 1.427 . S
N926 C923 1.384 . S
N927 C919 1.427 . S
N927 C925 1.384 . S
H928 C934 0.930 . S
H929 C938 0.930 . S
H930 C943 0.929 . S
H931 C941 0.929 . S
H932 C936 0.929 . S
H933 C942 0.929 . S
C934 H928 0.930 . S
C934 C935 1.367 . S
C934 C942 1.378 1_545 S
C935 C934 1.367 . S
C935 C943 1.433 . S
C936 H932 0.929 . S
C936 C938 1.378 . S
C936 C940 1.350 . S
C937 C940 1.463 . S
C937 C942 1.350 . S
C937 N945 1.427 . S
C938 H929 0.930 . S
C938 C936 1.378 . S
C938 C939 1.367 . S
C939 C938 1.367 . S
C939 C941 1.433 . S
C940 C936 1.350 . S
C940 C937 1.463 . S
C940 N944 1.427 . S
C941 H931 0.929 . S
C941 C939 1.433 . S
C941 N944 1.384 . S
C942 H933 0.929 . S
C942 C934 1.378 1_565 S
C942 C937 1.350 . S
C943 H930 0.929 . S
C943 C935 1.433 . S
C943 N945 1.384 1_545 S
N944 C940 1.427 . S
N944 C941 1.384 . S
N945 C937 1.427 . S
N945 C943 1.384 1_565 S
H946 C952 0.930 . S
H947 C956 0.930 . S
H948 C961 0.929 . S
H949 C959 0.929 . S
H950 C954 0.929 . S
H951 C960 0.929 . S
C952 H946 0.930 . S
C952 C953 1.367 . S
C952 C960 1.378 1_565 S
C953 C952 1.367 . S
C953 C961 1.433 . S
C954 H950 0.929 . S
C954 C956 1.378 . S
C954 C958 1.350 . S
C955 C958 1.463 . S
C955 C960 1.350 . S
C955 N963 1.427 . S
C956 H947 0.930 . S
C956 C954 1.378 . S
C956 C957 1.367 . S
C957 C956 1.367 . S
C957 C959 1.433 . S
C958 C954 1.350 . S
C958 C955 1.463 . S
C958 N962 1.427 . S
C959 H949 0.929 . S
C959 C957 1.433 . S
C959 N962 1.384 . S
C960 H951 0.929 . S
C960 C952 1.378 1_545 S
C960 C955 1.350 . S
C961 H948 0.929 . S
C961 C953 1.433 . S
C961 N963 1.384 1_565 S
N962 C958 1.427 . S
N962 C959 1.384 . S
N963 C955 1.427 . S
N963 C961 1.384 1_545 S
H964 C970 0.930 . S
H965 C974 0.930 . S
H966 C979 0.929 . S
H967 C977 0.929 . S
H968 C972 0.929 . S
H969 C978 0.929 . S
C970 H964 0.930 . S
C970 C971 1.367 . S
C970 C978 1.378 . S
C971 C970 1.367 . S
C971 C979 1.433 . S
C972 H968 0.929 . S
C972 C974 1.378 1_545 S
C972 C976 1.350 . S
C973 C976 1.463 . S
C973 C978 1.350 . S
C973 N981 1.427 . S
C974 H965 0.930 . S
C974 C972 1.378 1_565 S
C974 C975 1.367 . S
C975 C974 1.367 . S
C975 C977 1.433 . S
C976 C972 1.350 . S
C976 C973 1.463 . S
C976 N980 1.427 . S
C977 H967 0.929 . S
C977 C975 1.433 . S
C977 N980 1.384 1_565 S
C978 H969 0.929 . S
C978 C970 1.378 . S
C978 C973 1.350 . S
C979 H966 0.929 . S
C979 C971 1.433 . S
C979 N981 1.384 . S
N980 C976 1.427 . S
N980 C977 1.384 1_545 S
N981 C973 1.427 . S
N981 C979 1.384 . S
H982 C988 0.930 . S
H983 C992 0.930 . S
H984 C997 0.929 . S
H985 C995 0.928 1_545 S
H986 C990 0.929 . S
H987 C996 0.929 . S
C988 H982 0.930 . S
C988 C989 1.367 . S
C988 C996 1.378 . S
C989 C988 1.367 . S
C989 C997 1.433 . S
C990 H986 0.929 . S
C990 C992 1.378 1_565 S
C990 C994 1.350 . S
C991 C994 1.463 . S
C991 C996 1.350 . S
C991 N999 1.427 . S
C992 H983 0.930 . S
C992 C990 1.378 1_545 S
C992 C993 1.367 . S
C993 C992 1.367 . S
C993 C995 1.427 1_545 S
C994 C990 1.350 . S
C994 C991 1.463 . S
C994 N998 1.427 . S
C995 H985 0.928 1_565 S
C995 C993 1.427 1_565 S
C995 N998 1.391 . S
C996 H987 0.929 . S
C996 C988 1.378 . S
C996 C991 1.350 . S
C997 H984 0.929 . S
C997 C989 1.433 . S
C997 N999 1.384 . S
N998 C994 1.427 . S
N998 C995 1.391 . S
N999 C991 1.427 . S
N999 C997 1.384 . S
H1000 C1006 0.930 . S
H1001 C1010 0.930 . S
H1002 C1015 0.929 . S
H1003 C1013 0.929 . S
H1004 C1008 0.929 . S
H1005 C1014 0.929 . S
C1006 H1000 0.930 . S
C1006 C1007 1.367 . S
C1006 C1014 1.378 . S
C1007 C1006 1.367 . S
C1007 C1015 1.433 . S
C1008 H1004 0.929 . S
C1008 C1010 1.378 1_545 S
C1008 C1012 1.350 . S
C1009 C1012 1.463 . S
C1009 C1014 1.350 . S
C1009 N1017 1.427 . S
C1010 H1001 0.930 . S
C1010 C1008 1.378 1_565 S
C1010 C1011 1.367 . S
C1011 C1010 1.367 . S
C1011 C1013 1.433 . S
C1012 C1008 1.350 . S
C1012 C1009 1.463 . S
C1012 N1016 1.427 . S
C1013 H1003 0.929 . S
C1013 C1011 1.433 . S
C1013 N1016 1.384 1_565 S
C1014 H1005 0.929 . S
C1014 C1006 1.378 . S
C1014 C1009 1.350 . S
C1015 H1002 0.929 . S
C1015 C1007 1.433 . S
C1015 N1017 1.384 . S
N1016 C1012 1.427 . S
N1016 C1013 1.384 1_545 S
N1017 C1009 1.427 . S
N1017 C1015 1.384 . S
H1018 C1024 0.930 . S
H1019 C1028 0.930 . S
H1020 C1033 0.929 . S
H1021 C1031 0.929 . S
H1022 C1026 0.929 . S
H1023 C1032 0.929 . S
C1024 H1018 0.930 . S
C1024 C1025 1.367 . S
C1024 C1032 1.378 1_545 S
C1025 C1024 1.367 . S
C1025 C1033 1.433 . S
C1026 H1022 0.929 . S
C1026 C1028 1.378 . S
C1026 C1030 1.350 . S
C1027 C1030 1.463 . S
C1027 C1032 1.350 . S
C1027 N1035 1.427 . S
C1028 H1019 0.930 . S
C1028 C1026 1.378 . S
C1028 C1029 1.367 . S
C1029 C1028 1.367 . S
C1029 C1031 1.433 . S
C1030 C1026 1.350 . S
C1030 C1027 1.463 . S
C1030 N1034 1.427 . S
C1031 H1021 0.929 . S
C1031 C1029 1.433 . S
C1031 N1034 1.384 . S
C1032 H1023 0.929 . S
C1032 C1024 1.378 1_565 S
C1032 C1027 1.350 . S
C1033 H1020 0.929 . S
C1033 C1025 1.433 . S
C1033 N1035 1.384 1_545 S
N1034 C1030 1.427 . S
N1034 C1031 1.384 . S
N1035 C1027 1.427 . S
N1035 C1033 1.384 1_565 S
H1036 C1042 0.930 . S
H1037 C1046 0.930 . S
H1038 C1051 0.929 . S
H1039 C1049 0.929 . S
H1040 C1044 0.929 . S
H1041 C1050 0.929 . S
C1042 H1036 0.930 . S
C1042 C1043 1.367 . S
C1042 C1050 1.378 1_545 S
C1043 C1042 1.367 . S
C1043 C1051 1.433 . S
C1044 H1040 0.929 . S
C1044 C1046 1.378 . S
C1044 C1048 1.350 . S
C1045 C1048 1.463 . S
C1045 C1050 1.350 . S
C1045 N1053 1.427 . S
C1046 H1037 0.930 . S
C1046 C1044 1.378 . S
C1046 C1047 1.367 . S
C1047 C1046 1.367 . S
C1047 C1049 1.433 . S
C1048 C1044 1.350 . S
C1048 C1045 1.463 . S
C1048 N1052 1.427 . S
C1049 H1039 0.929 . S
C1049 C1047 1.433 . S
C1049 N1052 1.384 . S
C1050 H1041 0.929 . S
C1050 C1042 1.378 1_565 S
C1050 C1045 1.350 . S
C1051 H1038 0.929 . S
C1051 C1043 1.433 . S
C1051 N1053 1.384 1_545 S
N1052 C1048 1.427 . S
N1052 C1049 1.384 . S
N1053 C1045 1.427 . S
N1053 C1051 1.384 1_565 S
H1054 C1060 0.930 . S
H1055 C1064 0.930 . S
H1056 C1069 0.929 . S
H1057 C1067 0.929 . S
H1058 C1062 0.929 . S
H1059 C1068 0.929 . S
C1060 H1054 0.930 . S
C1060 C1061 1.367 . S
C1060 C1068 1.378 . S
C1061 C1060 1.367 . S
C1061 C1069 1.433 . S
C1062 H1058 0.929 . S
C1062 C1064 1.378 1_545 S
C1062 C1066 1.350 . S
C1063 C1066 1.463 . S
C1063 C1068 1.350 . S
C1063 N1071 1.427 . S
C1064 H1055 0.930 . S
C1064 C1062 1.378 1_565 S
C1064 C1065 1.367 . S
C1065 C1064 1.367 . S
C1065 C1067 1.433 . S
C1066 C1062 1.350 . S
C1066 C1063 1.463 . S
C1066 N1070 1.427 . S
C1067 H1057 0.929 . S
C1067 C1065 1.433 . S
C1067 N1070 1.384 1_565 S
C1068 H1059 0.929 . S
C1068 C1060 1.378 . S
C1068 C1063 1.350 . S
C1069 H1056 0.929 . S
C1069 C1061 1.433 . S
C1069 N1071 1.384 . S
N1070 C1066 1.427 . S
N1070 C1067 1.384 1_545 S
N1071 C1063 1.427 . S
N1071 C1069 1.384 . S
H1072 C1078 0.930 . S
H1073 C1082 0.930 . S
H1074 C1087 0.929 . S
H1075 C1085 0.929 . S
H1076 C1080 0.929 . S
H1077 C1086 0.929 . S
C1078 H1072 0.930 . S
C1078 C1079 1.367 . S
C1078 C1086 1.378 . S
C1079 C1078 1.367 . S
C1079 C1087 1.433 . S
C1080 H1076 0.929 . S
C1080 C1082 1.378 . S
C1080 C1084 1.350 . S
C1081 C1084 1.463 . S
C1081 C1086 1.350 . S
C1081 N1089 1.427 . S
C1082 H1073 0.930 . S
C1082 C1080 1.378 . S
C1082 C1083 1.367 . S
C1083 C1082 1.367 . S
C1083 C1085 1.433 . S
C1084 C1080 1.350 . S
C1084 C1081 1.463 . S
C1084 N1088 1.427 . S
C1085 H1075 0.929 . S
C1085 C1083 1.433 . S
C1085 N1088 1.384 . S
C1086 H1077 0.929 . S
C1086 C1078 1.378 . S
C1086 C1081 1.350 . S
C1087 H1074 0.929 . S
C1087 C1079 1.433 . S
C1087 N1089 1.384 . S
N1088 C1084 1.427 . S
N1088 C1085 1.384 . S
N1089 C1081 1.427 . S
N1089 C1087 1.384 . S
H1090 C1096 0.930 . S
H1091 C1100 0.930 . S
H1092 C1105 0.929 . S
H1093 C1103 0.929 . S
H1094 C1098 0.929 . S
H1095 C1104 0.929 . S
C1096 H1090 0.930 . S
C1096 C1097 1.367 . S
C1096 C1104 1.378 . S
C1097 C1096 1.367 . S
C1097 C1105 1.433 . S
C1098 H1094 0.929 . S
C1098 C1100 1.378 . S
C1098 C1102 1.350 . S
C1099 C1102 1.463 . S
C1099 C1104 1.350 . S
C1099 N1107 1.427 . S
C1100 H1091 0.930 . S
C1100 C1098 1.378 . S
C1100 C1101 1.367 . S
C1101 C1100 1.367 . S
C1101 C1103 1.433 . S
C1102 C1098 1.350 . S
C1102 C1099 1.463 . S
C1102 N1106 1.427 . S
C1103 H1093 0.929 . S
C1103 C1101 1.433 . S
C1103 N1106 1.384 . S
C1104 H1095 0.929 . S
C1104 C1096 1.378 . S
C1104 C1099 1.350 . S
C1105 H1092 0.929 . S
C1105 C1097 1.433 . S
C1105 N1107 1.384 . S
N1106 C1102 1.427 . S
N1106 C1103 1.384 . S
N1107 C1099 1.427 . S
N1107 C1105 1.384 . S
H1108 C1114 0.930 . S
H1109 C1118 0.930 . S
H1110 C1123 0.929 . S
H1111 C1121 0.929 . S
H1112 C1116 0.929 . S
H1113 C1122 0.929 . S
C1114 H1108 0.930 . S
C1114 C1115 1.367 . S
C1114 C1122 1.378 . S
C1115 C1114 1.367 . S
C1115 C1123 1.433 . S
C1116 H1112 0.929 . S
C1116 C1118 1.378 . S
C1116 C1120 1.350 . S
C1117 C1120 1.463 . S
C1117 C1122 1.350 . S
C1117 N1125 1.427 . S
C1118 H1109 0.930 . S
C1118 C1116 1.378 . S
C1118 C1119 1.367 . S
C1119 C1118 1.367 . S
C1119 C1121 1.433 . S
C1120 C1116 1.350 . S
C1120 C1117 1.463 . S
C1120 N1124 1.427 . S
C1121 H1111 0.929 . S
C1121 C1119 1.433 . S
C1121 N1124 1.384 . S
C1122 H1113 0.929 . S
C1122 C1114 1.378 . S
C1122 C1117 1.350 . S
C1123 H1110 0.929 . S
C1123 C1115 1.433 . S
C1123 N1125 1.384 . S
N1124 C1120 1.427 . S
N1124 C1121 1.384 . S
N1125 C1117 1.427 . S
N1125 C1123 1.384 . S
H1126 C1132 0.930 . S
H1127 C1136 0.930 . S
H1128 C1141 0.929 . S
H1129 C1139 0.929 . S
H1130 C1134 0.929 . S
H1131 C1140 0.929 . S
C1132 H1126 0.930 . S
C1132 C1133 1.367 . S
C1132 C1140 1.378 . S
C1133 C1132 1.367 . S
C1133 C1141 1.433 . S
C1134 H1130 0.929 . S
C1134 C1136 1.378 . S
C1134 C1138 1.350 . S
C1135 C1138 1.463 . S
C1135 C1140 1.350 . S
C1135 N1143 1.427 . S
C1136 H1127 0.930 . S
C1136 C1134 1.378 . S
C1136 C1137 1.367 . S
C1137 C1136 1.367 . S
C1137 C1139 1.433 . S
C1138 C1134 1.350 . S
C1138 C1135 1.463 . S
C1138 N1142 1.427 . S
C1139 H1129 0.929 . S
C1139 C1137 1.433 . S
C1139 N1142 1.384 . S
C1140 H1131 0.929 . S
C1140 C1132 1.378 . S
C1140 C1135 1.350 . S
C1141 H1128 0.929 . S
C1141 C1133 1.433 . S
C1141 N1143 1.384 . S
N1142 C1138 1.427 . S
N1142 C1139 1.384 . S
N1143 C1135 1.427 . S
N1143 C1141 1.384 . S
H1144 C1150 0.930 . S
H1145 C1154 0.930 . S
H1146 C1159 0.929 . S
H1147 C1157 0.929 . S
H1148 C1152 0.929 . S
H1149 C1158 0.929 . S
C1150 H1144 0.930 . S
C1150 C1151 1.367 . S
C1150 C1158 1.378 . S
C1151 C1150 1.367 . S
C1151 C1159 1.433 . S
C1152 H1148 0.929 . S
C1152 C1154 1.378 . S
C1152 C1156 1.350 . S
C1153 C1156 1.463 . S
C1153 C1158 1.350 . S
C1153 N1161 1.427 . S
C1154 H1145 0.930 . S
C1154 C1152 1.378 . S
C1154 C1155 1.367 . S
C1155 C1154 1.367 . S
C1155 C1157 1.433 . S
C1156 C1152 1.350 . S
C1156 C1153 1.463 . S
C1156 N1160 1.427 . S
C1157 H1147 0.929 . S
C1157 C1155 1.433 . S
C1157 N1160 1.384 . S
C1158 H1149 0.929 . S
C1158 C1150 1.378 . S
C1158 C1153 1.350 . S
C1159 H1146 0.929 . S
C1159 C1151 1.433 . S
C1159 N1161 1.384 . S
N1160 C1156 1.427 . S
N1160 C1157 1.384 . S
N1161 C1153 1.427 . S
N1161 C1159 1.384 . S
H1162 C1168 0.930 . S
H1163 C1172 0.930 . S
H1164 C1177 0.929 . S
H1165 C1175 0.929 . S
H1166 C1170 0.929 . S
H1167 C1176 0.929 . S
C1168 H1162 0.930 . S
C1168 C1169 1.367 . S
C1168 C1176 1.378 . S
C1169 C1168 1.367 . S
C1169 C1177 1.433 . S
C1170 H1166 0.929 . S
C1170 C1172 1.378 . S
C1170 C1174 1.350 . S
C1171 C1174 1.463 . S
C1171 C1176 1.350 . S
C1171 N1179 1.427 . S
C1172 H1163 0.930 . S
C1172 C1170 1.378 . S
C1172 C1173 1.367 . S
C1173 C1172 1.367 . S
C1173 C1175 1.433 . S
C1174 C1170 1.350 . S
C1174 C1171 1.463 . S
C1174 N1178 1.427 . S
C1175 H1165 0.929 . S
C1175 C1173 1.433 . S
C1175 N1178 1.384 . S
C1176 H1167 0.929 . S
C1176 C1168 1.378 . S
C1176 C1171 1.350 . S
C1177 H1164 0.929 . S
C1177 C1169 1.433 . S
C1177 N1179 1.384 . S
N1178 C1174 1.427 . S
N1178 C1175 1.384 . S
N1179 C1171 1.427 . S
N1179 C1177 1.384 . S
H1180 C1186 0.930 . S
H1181 C1190 0.930 . S
H1182 C1195 0.929 . S
H1183 C1193 0.929 . S
H1184 C1188 0.929 . S
H1185 C1194 0.929 . S
C1186 H1180 0.930 . S
C1186 C1187 1.367 . S
C1186 C1194 1.378 . S
C1187 C1186 1.367 . S
C1187 C1195 1.433 . S
C1188 H1184 0.929 . S
C1188 C1190 1.378 . S
C1188 C1192 1.350 . S
C1189 C1192 1.463 . S
C1189 C1194 1.350 . S
C1189 N1197 1.427 . S
C1190 H1181 0.930 . S
C1190 C1188 1.378 . S
C1190 C1191 1.367 . S
C1191 C1190 1.367 . S
C1191 C1193 1.433 . S
C1192 C1188 1.350 . S
C1192 C1189 1.463 . S
C1192 N1196 1.427 . S
C1193 H1183 0.929 . S
C1193 C1191 1.433 . S
C1193 N1196 1.384 . S
C1194 H1185 0.929 . S
C1194 C1186 1.378 . S
C1194 C1189 1.350 . S
C1195 H1182 0.929 . S
C1195 C1187 1.433 . S
C1195 N1197 1.384 . S
N1196 C1192 1.427 . S
N1196 C1193 1.384 . S
N1197 C1189 1.427 . S
N1197 C1195 1.384 . S
H1198 C1204 0.930 . S
H1199 C1208 0.930 . S
H1200 C1213 0.929 . S
H1201 C1211 0.929 . S
H1202 C1206 0.929 . S
H1203 C1212 0.929 . S
C1204 H1198 0.930 . S
C1204 C1205 1.367 . S
C1204 C1212 1.378 . S
C1205 C1204 1.367 . S
C1205 C1213 1.433 . S
C1206 H1202 0.929 . S
C1206 C1208 1.378 . S
C1206 C1210 1.350 . S
C1207 C1210 1.463 . S
C1207 C1212 1.350 . S
C1207 N1215 1.427 . S
C1208 H1199 0.930 . S
C1208 C1206 1.378 . S
C1208 C1209 1.367 . S
C1209 C1208 1.367 . S
C1209 C1211 1.433 . S
C1210 C1206 1.350 . S
C1210 C1207 1.463 . S
C1210 N1214 1.427 . S
C1211 H1201 0.929 . S
C1211 C1209 1.433 . S
C1211 N1214 1.384 . S
C1212 H1203 0.929 . S
C1212 C1204 1.378 . S
C1212 C1207 1.350 . S
C1213 H1200 0.929 . S
C1213 C1205 1.433 . S
C1213 N1215 1.384 . S
N1214 C1210 1.427 . S
N1214 C1211 1.384 . S
N1215 C1207 1.427 . S
N1215 C1213 1.384 . S
C359 C21 0.911 . S
C363 C279 0.906 . S
C377 C307 0.902 . S
C381 C29 0.907 . S
C395 C323 0.899 . S
C399 C59 0.903 . S
C413 C345 0.904 . S
C417 C87 0.907 . S
C431 C103 0.905 . S
C435 C197 0.909 . S
C449 C219 0.917 . S
C453 C117 0.913 . S
C467 C147 0.895 . S
C471 C241 0.900 . S
C485 C263 0.908 . S
C489 C161 0.904 . S
C503 C65 1.568 . S
C507 C7 1.572 . S
C521 C37 1.571 . S
C525 C73 1.568 . S
C539 C95 1.569 . S
C543 C139 1.563 . S
C557 C175 1.565 . S
C561 C131 1.566 . S
C575 C183 1.571 . S
C579 C227 1.568 . S
C593 C249 1.571 . S
C597 C205 1.572 . S
C611 C315 1.566 . S
C615 C271 1.566 . S
C629 C337 1.568 . S
C633 C301 1.565 . S
C647 C10 1.796 . S
C651 C76 1.796 . S
C665 C62 1.791 . S
C669 C30 1.791 . S
C683 C164 1.807 . S
C687 C96 1.807 . S
C701 C140 1.810 . S
C705 C120 1.811 . S
C719 C252 1.791 . S
C723 C186 1.791 . S
C737 C230 1.789 . S
C741 C208 1.789 . S
C755 C272 1.810 . S
C759 C338 1.810 . S
C773 C316 1.815 . S
C777 C304 1.816 . S
C791 C18 1.439 . S
C795 C150 1.444 . S
C809 C32 1.440 . S
C813 C162 1.441 . S
C827 C106 1.441 . S
C831 C52 1.439 . S
C845 C118 1.445 . S
C849 C84 1.438 . S
C863 C194 1.444 . S
C867 C326 1.438 . S
C881 C216 1.440 . S
C885 C348 1.443 . S
C899 C282 1.445 . S
C903 C238 1.437 . S
C917 C296 1.441 . S
C921 C260 1.441 . S
C935 C15 1.367 . S
C939 C318 1.349 . S
C953 C43 1.362 . S
C957 C340 1.345 . S
C971 C274 1.345 . S
C975 C51 1.362 . S
C989 C294 1.343 . S
C993 C81 1.367 . S
C1007 C228 1.349 . S
C1011 C109 1.370 . S
C1025 C125 1.368 . S
C1029 C250 1.352 . S
C1043 C153 1.374 . S
C1047 C184 1.352 . S
C1061 C206 1.349 . S
C1065 C169 1.372 . S
C1079 C142 1.354 . S
C1083 C191 1.363 . S
C1097 C213 1.366 . S
C1101 C172 1.343 . S
C1115 C98 1.351 . S
C1119 C235 1.366 . S
C1133 C257 1.358 . S
C1137 C128 1.354 . S
C1151 C54 1.360 . S
C1155 C285 1.366 . S
C1169 C293 1.373 . S
C1173 C74 1.357 . S
C1187 C329 1.367 . S
C1191 C8 1.353 . S
C1205 C40 1.360 . S
C1209 C351 1.370 . S
