# Generated by pormake.
# Topology lta, (4)-cn, num edge types: 1
# Building blocks:
#     Node 0, Type 0, BuildingBlock: QUQFOY_clean_sbu_3, # of connection points: 4
#     Node 1, Type 0, BuildingBlock: QUQFOY_clean_sbu_3, # of connection points: 4
#     Node 2, Type 0, BuildingBlock: QUQFOY_clean_sbu_3, # of connection points: 4
#     Node 3, Type 0, BuildingBlock: QUQFOY_clean_sbu_3, # of connection points: 4
#     Node 4, Type 0, BuildingBlock: QUQFOY_clean_sbu_3, # of connection points: 4
#     Node 5, Type 0, BuildingBlock: QUQFOY_clean_sbu_3, # of connection points: 4
#     Node 6, Type 0, BuildingBlock: QUQFOY_clean_sbu_3, # of connection points: 4
#     Node 7, Type 0, BuildingBlock: QUQFOY_clean_sbu_3, # of connection points: 4
#     Node 8, Type 0, BuildingBlock: QUQFOY_clean_sbu_3, # of connection points: 4
#     Node 9, Type 0, BuildingBlock: QUQFOY_clean_sbu_3, # of connection points: 4
#     Node 10, Type 0, BuildingBlock: QUQFOY_clean_sbu_3, # of connection points: 4
#     Node 11, Type 0, BuildingBlock: QUQFOY_clean_sbu_3, # of connection points: 4
#     Node 12, Type 0, BuildingBlock: QUQFOY_clean_sbu_3, # of connection points: 4
#     Node 13, Type 0, BuildingBlock: QUQFOY_clean_sbu_3, # of connection points: 4
#     Node 14, Type 0, BuildingBlock: QUQFOY_clean_sbu_3, # of connection points: 4
#     Node 15, Type 0, BuildingBlock: QUQFOY_clean_sbu_3, # of connection points: 4
#     Node 16, Type 0, BuildingBlock: QUQFOY_clean_sbu_3, # of connection points: 4
#     Node 17, Type 0, BuildingBlock: QUQFOY_clean_sbu_3, # of connection points: 4
#     Node 18, Type 0, BuildingBlock: QUQFOY_clean_sbu_3, # of connection points: 4
#     Node 19, Type 0, BuildingBlock: QUQFOY_clean_sbu_3, # of connection points: 4
#     Node 20, Type 0, BuildingBlock: QUQFOY_clean_sbu_3, # of connection points: 4
#     Node 21, Type 0, BuildingBlock: QUQFOY_clean_sbu_3, # of connection points: 4
#     Node 22, Type 0, BuildingBlock: QUQFOY_clean_sbu_3, # of connection points: 4
#     Node 23, Type 0, BuildingBlock: QUQFOY_clean_sbu_3, # of connection points: 4
#     Edge 24, Type (0, 0), BuildingBlock: ZUJKAS_clean_linker_0, # of connection points: 2
#     Edge 25, Type (0, 0), BuildingBlock: ZUJKAS_clean_linker_0, # of connection points: 2
#     Edge 26, Type (0, 0), BuildingBlock: ZUJKAS_clean_linker_0, # of connection points: 2
#     Edge 27, Type (0, 0), BuildingBlock: ZUJKAS_clean_linker_0, # of connection points: 2
#     Edge 28, Type (0, 0), BuildingBlock: ZUJKAS_clean_linker_0, # of connection points: 2
#     Edge 29, Type (0, 0), BuildingBlock: ZUJKAS_clean_linker_0, # of connection points: 2
#     Edge 30, Type (0, 0), BuildingBlock: ZUJKAS_clean_linker_0, # of connection points: 2
#     Edge 31, Type (0, 0), BuildingBlock: ZUJKAS_clean_linker_0, # of connection points: 2
#     Edge 32, Type (0, 0), BuildingBlock: ZUJKAS_clean_linker_0, # of connection points: 2
#     Edge 33, Type (0, 0), BuildingBlock: ZUJKAS_clean_linker_0, # of connection points: 2
#     Edge 34, Type (0, 0), BuildingBlock: ZUJKAS_clean_linker_0, # of connection points: 2
#     Edge 35, Type (0, 0), BuildingBlock: ZUJKAS_clean_linker_0, # of connection points: 2
#     Edge 36, Type (0, 0), BuildingBlock: ZUJKAS_clean_linker_0, # of connection points: 2
#     Edge 37, Type (0, 0), BuildingBlock: ZUJKAS_clean_linker_0, # of connection points: 2
#     Edge 38, Type (0, 0), BuildingBlock: ZUJKAS_clean_linker_0, # of connection points: 2
#     Edge 39, Type (0, 0), BuildingBlock: ZUJKAS_clean_linker_0, # of connection points: 2
#     Edge 40, Type (0, 0), BuildingBlock: ZUJKAS_clean_linker_0, # of connection points: 2
#     Edge 41, Type (0, 0), BuildingBlock: ZUJKAS_clean_linker_0, # of connection points: 2
#     Edge 42, Type (0, 0), BuildingBlock: ZUJKAS_clean_linker_0, # of connection points: 2
#     Edge 43, Type (0, 0), BuildingBlock: ZUJKAS_clean_linker_0, # of connection points: 2
#     Edge 44, Type (0, 0), BuildingBlock: ZUJKAS_clean_linker_0, # of connection points: 2
#     Edge 45, Type (0, 0), BuildingBlock: ZUJKAS_clean_linker_0, # of connection points: 2
#     Edge 46, Type (0, 0), BuildingBlock: ZUJKAS_clean_linker_0, # of connection points: 2
#     Edge 47, Type (0, 0), BuildingBlock: ZUJKAS_clean_linker_0, # of connection points: 2
#     Edge 48, Type (0, 0), BuildingBlock: ZUJKAS_clean_linker_0, # of connection points: 2
#     Edge 49, Type (0, 0), BuildingBlock: ZUJKAS_clean_linker_0, # of connection points: 2
#     Edge 50, Type (0, 0), BuildingBlock: ZUJKAS_clean_linker_0, # of connection points: 2
#     Edge 51, Type (0, 0), BuildingBlock: ZUJKAS_clean_linker_0, # of connection points: 2
#     Edge 52, Type (0, 0), BuildingBlock: ZUJKAS_clean_linker_0, # of connection points: 2
#     Edge 53, Type (0, 0), BuildingBlock: ZUJKAS_clean_linker_0, # of connection points: 2
#     Edge 54, Type (0, 0), BuildingBlock: ZUJKAS_clean_linker_0, # of connection points: 2
#     Edge 55, Type (0, 0), BuildingBlock: ZUJKAS_clean_linker_0, # of connection points: 2
#     Edge 56, Type (0, 0), BuildingBlock: ZUJKAS_clean_linker_0, # of connection points: 2
#     Edge 57, Type (0, 0), BuildingBlock: ZUJKAS_clean_linker_0, # of connection points: 2
#     Edge 58, Type (0, 0), BuildingBlock: ZUJKAS_clean_linker_0, # of connection points: 2
#     Edge 59, Type (0, 0), BuildingBlock: ZUJKAS_clean_linker_0, # of connection points: 2
#     Edge 60, Type (0, 0), BuildingBlock: ZUJKAS_clean_linker_0, # of connection points: 2
#     Edge 61, Type (0, 0), BuildingBlock: ZUJKAS_clean_linker_0, # of connection points: 2
#     Edge 62, Type (0, 0), BuildingBlock: ZUJKAS_clean_linker_0, # of connection points: 2
#     Edge 63, Type (0, 0), BuildingBlock: ZUJKAS_clean_linker_0, # of connection points: 2
#     Edge 64, Type (0, 0), BuildingBlock: ZUJKAS_clean_linker_0, # of connection points: 2
#     Edge 65, Type (0, 0), BuildingBlock: ZUJKAS_clean_linker_0, # of connection points: 2
#     Edge 66, Type (0, 0), BuildingBlock: ZUJKAS_clean_linker_0, # of connection points: 2
#     Edge 67, Type (0, 0), BuildingBlock: ZUJKAS_clean_linker_0, # of connection points: 2
#     Edge 68, Type (0, 0), BuildingBlock: ZUJKAS_clean_linker_0, # of connection points: 2
#     Edge 69, Type (0, 0), BuildingBlock: ZUJKAS_clean_linker_0, # of connection points: 2
#     Edge 70, Type (0, 0), BuildingBlock: ZUJKAS_clean_linker_0, # of connection points: 2
#     Edge 71, Type (0, 0), BuildingBlock: ZUJKAS_clean_linker_0, # of connection points: 2
# Relax obj value: 0.278
# Max RMSD: 0.158
# Mean RMSD: 0.158
data_MOF--net-lta--node1-QUQFOY_clean_sbu_3--edge1-ZUJKAS_clean_linker_0
_symmetry_space_group_name_H-M    P1
_symmetry_Int_Tables_number       1
_symmetry_cell_setting            triclinic
loop_
_symmetry_equiv_pos_as_xyz
'x, y, z'
_cell_length_a     76.010785
_cell_length_b     75.909601
_cell_length_c     75.999204
_cell_angle_alpha  89.988078
_cell_angle_beta   89.955028
_cell_angle_gamma 90.01783
loop_
_atom_site_label
_atom_site_type_symbol
_atom_site_fract_x
_atom_site_fract_y
_atom_site_fract_z
_atom_type_partial_charge
C0 C 0.11643 0.33662 0.4674 0.0
O1 O 0.11153 0.34815 0.47847 0.0
Cd2 Cd 0.10582 0.34264 0.50875 0.0
O3 O 0.11899 0.32071 0.4722 0.0
Cd4 Cd 0.11738 0.30335 0.50017 0.0
C5 C 0.07371 0.31127 0.50326 0.0
O6 O 0.13063 0.32592 0.51824 0.0
O7 O 0.11932 0.30455 0.53284 0.0
O8 O 0.14227 0.28762 0.48766 0.0
C9 C 0.12814 0.31872 0.53302 0.0
O10 O 0.07795 0.3266 0.50858 0.0
C11 C 0.13747 0.2725 0.49294 0.0
O12 O 0.08546 0.30036 0.49838 0.0
O13 O 0.12308 0.27163 0.50139 0.0
C14 C 0.63391 0.11948 0.46304 0.0
O15 O 0.62162 0.11508 0.47349 0.0
Cd16 Cd 0.6247 0.10905 0.50409 0.0
O17 O 0.64961 0.12145 0.46864 0.0
Cd18 Cd 0.6655 0.1191 0.49737 0.0
C19 C 0.65506 0.07572 0.49987 0.0
O20 O 0.64261 0.13242 0.5147 0.0
O21 O 0.66309 0.12056 0.53004 0.0
O22 O 0.68278 0.14415 0.4876 0.0
C23 C 0.6489 0.12933 0.52977 0.0
O24 O 0.63966 0.08059 0.50438 0.0
C25 C 0.69761 0.13757 0.49159 0.0
O26 O 0.66674 0.087 0.49569 0.0
O27 O 0.69754 0.1222 0.49821 0.0
C28 C 0.85113 0.63524 0.46723 0.0
O29 O 0.85615 0.62363 0.47817 0.0
Cd30 Cd 0.86194 0.62867 0.50855 0.0
O31 O 0.84845 0.65107 0.47219 0.0
Cd32 Cd 0.85024 0.66816 0.50027 0.0
C33 C 0.89397 0.66006 0.50315 0.0
O34 O 0.83749 0.6456 0.51863 0.0
O35 O 0.84894 0.66707 0.53299 0.0
O36 O 0.82457 0.68424 0.49016 0.0
C37 C 0.84028 0.65279 0.53336 0.0
O38 O 0.88984 0.64463 0.5083 0.0
C39 C 0.8308 0.69944 0.49329 0.0
O40 O 0.88215 0.67098 0.49851 0.0
O41 O 0.84625 0.70012 0.49961 0.0
C42 C 0.33649 0.85088 0.46516 0.0
O43 O 0.34762 0.85671 0.47617 0.0
Cd44 Cd 0.34173 0.86239 0.50635 0.0
O45 O 0.32073 0.84756 0.46991 0.0
Cd46 Cd 0.30351 0.84997 0.49793 0.0
C47 C 0.31018 0.89386 0.50006 0.0
O48 O 0.32577 0.83718 0.51661 0.0
O49 O 0.30536 0.85087 0.53061 0.0
O50 O 0.28779 0.82368 0.48871 0.0
C51 C 0.31862 0.84077 0.53119 0.0
O52 O 0.32539 0.89013 0.50602 0.0
C53 C 0.27255 0.82958 0.49214 0.0
O54 O 0.29984 0.88171 0.49496 0.0
O55 O 0.27165 0.84517 0.49813 0.0
C56 C 0.11911 0.63344 0.50072 0.0
O57 O 0.11308 0.62248 0.48962 0.0
Cd58 Cd 0.10714 0.62828 0.45944 0.0
O59 O 0.12251 0.64927 0.49621 0.0
Cd60 Cd 0.12004 0.66737 0.46876 0.0
C61 C 0.07603 0.66019 0.46629 0.0
O62 O 0.13192 0.64495 0.44984 0.0
O63 O 0.12113 0.66699 0.4359 0.0
O64 O 0.14618 0.68274 0.47888 0.0
C65 C 0.12931 0.65245 0.43524 0.0
O66 O 0.07977 0.64493 0.46042 0.0
C67 C 0.14029 0.69812 0.47596 0.0
O68 O 0.08814 0.67066 0.47127 0.0
O69 O 0.12479 0.69923 0.46983 0.0
C70 C 0.33242 0.11684 0.50514 0.0
O71 O 0.34438 0.11172 0.49464 0.0
Cd72 Cd 0.34074 0.10737 0.46384 0.0
O73 O 0.31698 0.12025 0.4995 0.0
Cd74 Cd 0.30106 0.11985 0.47068 0.0
C75 C 0.30825 0.07602 0.46646 0.0
O76 O 0.32507 0.13292 0.45454 0.0
O77 O 0.30417 0.12334 0.43821 0.0
O78 O 0.28508 0.14438 0.48361 0.0
C79 C 0.31876 0.13135 0.43924 0.0
O80 O 0.32393 0.08001 0.4621 0.0
C81 C 0.27022 0.14011 0.47731 0.0
O82 O 0.2974 0.08789 0.47118 0.0
O83 O 0.26962 0.12626 0.46797 0.0
C84 C 0.84655 0.33388 0.50322 0.0
O85 O 0.85106 0.34536 0.49193 0.0
Cd86 Cd 0.85734 0.33952 0.46186 0.0
O87 O 0.84465 0.31779 0.49876 0.0
Cd88 Cd 0.84736 0.30017 0.47099 0.0
C89 C 0.89068 0.30975 0.46872 0.0
O90 O 0.83361 0.32147 0.45189 0.0
O91 O 0.8482 0.30146 0.43828 0.0
O92 O 0.82207 0.2833 0.48088 0.0
C93 C 0.83783 0.31451 0.43739 0.0
O94 O 0.88599 0.32474 0.46281 0.0
C95 C 0.82874 0.2683 0.47773 0.0
O96 O 0.87923 0.29857 0.47373 0.0
O97 O 0.84425 0.26808 0.47151 0.0
C98 C 0.63423 0.84606 0.503 0.0
O99 O 0.6221 0.84969 0.49211 0.0
Cd100 Cd 0.62678 0.85678 0.46198 0.0
O101 O 0.65022 0.84518 0.49794 0.0
Cd102 Cd 0.66669 0.84807 0.46956 0.0
C103 C 0.65591 0.89101 0.46827 0.0
O104 O 0.64528 0.83398 0.45077 0.0
O105 O 0.66452 0.84957 0.43705 0.0
O106 O 0.68368 0.82267 0.4786 0.0
C107 C 0.65184 0.83875 0.43623 0.0
O108 O 0.64082 0.88585 0.46307 0.0
C109 C 0.69863 0.82937 0.47533 0.0
O110 O 0.66771 0.87992 0.47254 0.0
O111 O 0.69881 0.84502 0.46941 0.0
C112 C 0.47033 0.12448 0.33721 0.0
O113 O 0.48191 0.11953 0.34818 0.0
Cd114 Cd 0.51197 0.1135 0.34143 0.0
O115 O 0.47432 0.12685 0.32108 0.0
Cd116 Cd 0.50135 0.12432 0.30254 0.0
C117 C 0.50458 0.08077 0.31141 0.0
O118 O 0.52117 0.13755 0.32351 0.0
O119 O 0.53413 0.12483 0.3019 0.0
O120 O 0.49074 0.14983 0.28645 0.0
C121 C 0.53544 0.13415 0.31568 0.0
O122 O 0.5114 0.08522 0.32605 0.0
C123 C 0.49332 0.14335 0.27126 0.0
O124 O 0.49858 0.09233 0.30087 0.0
O125 O 0.49944 0.12779 0.2706 0.0
C126 C 0.85357 0.46777 0.33652 0.0
O127 O 0.85978 0.47886 0.34737 0.0
Cd128 Cd 0.86395 0.50948 0.34201 0.0
O129 O 0.84912 0.47248 0.32104 0.0
Cd130 Cd 0.85019 0.50052 0.30373 0.0
C131 C 0.8943 0.50455 0.30934 0.0
O132 O 0.83808 0.51875 0.32678 0.0
O133 O 0.84829 0.53327 0.3048 0.0
O134 O 0.82407 0.49014 0.28843 0.0
C135 C 0.84013 0.5335 0.31935 0.0
O136 O 0.8909 0.51028 0.32471 0.0
C137 C 0.82977 0.49356 0.2731 0.0
O138 O 0.88201 0.49909 0.29937 0.0
O139 O 0.84512 0.50006 0.272 0.0
C140 C 0.49941 0.85315 0.33568 0.0
O141 O 0.48773 0.85838 0.34641 0.0
Cd142 Cd 0.45783 0.86359 0.33872 0.0
O143 O 0.49562 0.85051 0.31954 0.0
Cd144 Cd 0.46898 0.8535 0.3005 0.0
C145 C 0.46581 0.8968 0.30943 0.0
O146 O 0.44959 0.83885 0.32099 0.0
O147 O 0.43623 0.85319 0.30066 0.0
O148 O 0.48276 0.82958 0.28437 0.0
C149 C 0.43528 0.8424 0.31335 0.0
O150 O 0.4584 0.89213 0.32372 0.0
C151 C 0.47776 0.83465 0.26928 0.0
O152 O 0.47224 0.88538 0.299 0.0
O153 O 0.46872 0.8487 0.26858 0.0
C154 C 0.11762 0.50397 0.33361 0.0
O155 O 0.11257 0.49311 0.34528 0.0
Cd156 Cd 0.10684 0.46269 0.3405 0.0
O157 O 0.12049 0.49887 0.31786 0.0
Cd158 Cd 0.11941 0.4705 0.30104 0.0
C159 C 0.0756 0.46776 0.30814 0.0
O160 O 0.13184 0.45291 0.32432 0.0
O161 O 0.12142 0.43779 0.30292 0.0
O162 O 0.14457 0.48262 0.28547 0.0
C163 C 0.12955 0.43793 0.31747 0.0
O164 O 0.07943 0.46289 0.32371 0.0
C165 C 0.13989 0.47715 0.2704 0.0
O166 O 0.08762 0.4722 0.29734 0.0
O167 O 0.12548 0.46872 0.26951 0.0
C168 C 0.47035 0.8504 0.63263 0.0
O169 O 0.48175 0.85658 0.62208 0.0
Cd170 Cd 0.51192 0.86184 0.62873 0.0
O171 O 0.47447 0.84664 0.64846 0.0
Cd172 Cd 0.50159 0.84906 0.66692 0.0
C173 C 0.50443 0.89307 0.65994 0.0
O174 O 0.52086 0.8366 0.64511 0.0
O175 O 0.53449 0.84829 0.66685 0.0
O176 O 0.49109 0.82318 0.68257 0.0
C177 C 0.53533 0.83939 0.65275 0.0
O178 O 0.51156 0.88939 0.64523 0.0
C179 C 0.49401 0.82925 0.69786 0.0
O180 O 0.49839 0.88095 0.66981 0.0
O181 O 0.50029 0.84473 0.69878 0.0
C182 C 0.11988 0.46716 0.63433 0.0
O183 O 0.11567 0.47827 0.62259 0.0
Cd184 Cd 0.10982 0.50849 0.62823 0.0
O185 O 0.12179 0.47198 0.6503 0.0
Cd186 Cd 0.11979 0.5001 0.66742 0.0
C187 C 0.07656 0.50225 0.65837 0.0
O188 O 0.13406 0.51843 0.64566 0.0
O189 O 0.11968 0.53274 0.66537 0.0
O190 O 0.14445 0.48816 0.68377 0.0
C191 C 0.13029 0.53313 0.65251 0.0
O192 O 0.08127 0.50776 0.64325 0.0
C193 C 0.13929 0.49352 0.69871 0.0
O194 O 0.08798 0.49752 0.66966 0.0
O195 O 0.1248 0.50183 0.69923 0.0
C196 C 0.49736 0.11675 0.63167 0.0
O197 O 0.4858 0.1116 0.62076 0.0
Cd198 Cd 0.45555 0.10683 0.62768 0.0
O199 O 0.4932 0.11988 0.64763 0.0
Cd200 Cd 0.46612 0.1189 0.66621 0.0
C201 C 0.46169 0.0752 0.65919 0.0
O202 O 0.44741 0.13223 0.64427 0.0
O203 O 0.43344 0.1216 0.66636 0.0
O204 O 0.48034 0.1432 0.68138 0.0
C205 C 0.43287 0.13015 0.65205 0.0
O206 O 0.45517 0.07922 0.64429 0.0
C207 C 0.47538 0.13861 0.69666 0.0
O208 O 0.46788 0.08702 0.66931 0.0
O209 O 0.46615 0.12472 0.69784 0.0
C210 C 0.85125 0.50342 0.6333 0.0
O211 O 0.85581 0.49245 0.62154 0.0
Cd212 Cd 0.86082 0.46191 0.62658 0.0
O213 O 0.84863 0.49837 0.6491 0.0
Cd214 Cd 0.84965 0.47022 0.66618 0.0
C215 C 0.89321 0.46667 0.65777 0.0
O216 O 0.83603 0.45259 0.64349 0.0
O217 O 0.8469 0.43761 0.6648 0.0
O218 O 0.82533 0.48357 0.68209 0.0
C219 C 0.83823 0.43768 0.65057 0.0
O220 O 0.88878 0.46164 0.64241 0.0
C221 C 0.82997 0.478 0.69713 0.0
O222 O 0.88162 0.47147 0.66888 0.0
O223 O 0.84395 0.46888 0.69788 0.0
C224 C 0.33672 0.47025 0.11829 0.0
O225 O 0.34841 0.48133 0.1138 0.0
Cd226 Cd 0.34283 0.51159 0.10782 0.0
O227 O 0.32079 0.47509 0.12046 0.0
Cd228 Cd 0.30333 0.50296 0.11889 0.0
C229 C 0.31191 0.50549 0.07535 0.0
O230 O 0.32566 0.52114 0.13234 0.0
O231 O 0.30428 0.53566 0.121 0.0
O232 O 0.28749 0.48964 0.14322 0.0
C233 C 0.31842 0.53591 0.12981 0.0
O234 O 0.32721 0.51076 0.0797 0.0
C235 C 0.27242 0.49496 0.13843 0.0
O236 O 0.30078 0.50097 0.08703 0.0
O237 O 0.27163 0.50399 0.12438 0.0
C238 C 0.33582 0.50136 0.85063 0.0
O239 O 0.34762 0.49038 0.85507 0.0
Cd240 Cd 0.34274 0.45995 0.86069 0.0
O241 O 0.31995 0.49637 0.84836 0.0
Cd242 Cd 0.3027 0.46829 0.8497 0.0
C243 C 0.31158 0.46527 0.89321 0.0
O244 O 0.32543 0.45087 0.8362 0.0
O245 O 0.30423 0.43557 0.84681 0.0
O246 O 0.28657 0.48183 0.82569 0.0
C247 C 0.3186 0.43585 0.83835 0.0
O248 O 0.32696 0.46032 0.88876 0.0
C249 C 0.27158 0.47622 0.83047 0.0
O250 O 0.30034 0.46974 0.88163 0.0
O251 O 0.27098 0.4669 0.84434 0.0
C252 C 0.4695 0.33576 0.84744 0.0
O253 O 0.48063 0.34743 0.85183 0.0
Cd254 Cd 0.51063 0.34154 0.85828 0.0
O255 O 0.47422 0.31973 0.8456 0.0
Cd256 Cd 0.50224 0.30244 0.84775 0.0
C257 C 0.50389 0.31091 0.89108 0.0
O258 O 0.52087 0.3243 0.83402 0.0
O259 O 0.53484 0.30433 0.84835 0.0
O260 O 0.49058 0.28636 0.82275 0.0
C261 C 0.53546 0.31736 0.83795 0.0
O262 O 0.50941 0.32612 0.88662 0.0
C263 C 0.49583 0.27134 0.82784 0.0
O264 O 0.49932 0.29975 0.87946 0.0
O265 O 0.50395 0.27067 0.84242 0.0
C266 C 0.63487 0.4696 0.85306 0.0
O267 O 0.62371 0.48049 0.85908 0.0
Cd268 Cd 0.62906 0.51093 0.86407 0.0
O269 O 0.65048 0.47452 0.84932 0.0
Cd270 Cd 0.66784 0.50253 0.85108 0.0
C271 C 0.66132 0.5057 0.89505 0.0
O272 O 0.6447 0.52026 0.83846 0.0
O273 O 0.66621 0.53526 0.84884 0.0
O274 O 0.68328 0.49007 0.82594 0.0
C275 C 0.65179 0.53517 0.84049 0.0
O276 O 0.64594 0.51116 0.8913 0.0
C277 C 0.69838 0.49564 0.8304 0.0
O278 O 0.67177 0.50065 0.88297 0.0
O279 O 0.69937 0.50425 0.84469 0.0
C280 C 0.50187 0.63422 0.85002 0.0
O281 O 0.49101 0.62242 0.85479 0.0
Cd282 Cd 0.46067 0.62711 0.86106 0.0
O283 O 0.49683 0.65009 0.84775 0.0
Cd284 Cd 0.46876 0.66716 0.84989 0.0
C285 C 0.46654 0.65814 0.89351 0.0
O286 O 0.45044 0.64467 0.83721 0.0
O287 O 0.43601 0.66596 0.8489 0.0
O288 O 0.47883 0.68301 0.82408 0.0
C289 C 0.43567 0.65169 0.84024 0.0
O290 O 0.46141 0.64279 0.88911 0.0
C291 C 0.4755 0.69827 0.83005 0.0
O292 O 0.47095 0.66939 0.88188 0.0
O293 O 0.46916 0.69913 0.8455 0.0
C294 C 0.63344 0.50113 0.12048 0.0
O295 O 0.62263 0.48977 0.11472 0.0
Cd296 Cd 0.62957 0.45988 0.10858 0.0
O297 O 0.64941 0.49695 0.1235 0.0
Cd298 Cd 0.66769 0.46962 0.12066 0.0
C299 C 0.66064 0.46786 0.07689 0.0
O300 O 0.64627 0.44992 0.13337 0.0
O301 O 0.66705 0.43687 0.11932 0.0
O302 O 0.68306 0.47918 0.14697 0.0
C303 C 0.65389 0.43565 0.1295 0.0
O304 O 0.64564 0.46144 0.08075 0.0
C305 C 0.69842 0.47637 0.14105 0.0
O306 O 0.67103 0.47304 0.08895 0.0
O307 O 0.69955 0.47057 0.12542 0.0
C308 C 0.46685 0.63634 0.12033 0.0
O309 O 0.47777 0.62438 0.11618 0.0
Cd310 Cd 0.50807 0.62942 0.1104 0.0
O311 O 0.47191 0.65226 0.12216 0.0
Cd312 Cd 0.50031 0.6689 0.12004 0.0
C313 C 0.5025 0.65938 0.07688 0.0
O314 O 0.5182 0.64693 0.13453 0.0
O315 O 0.53286 0.66631 0.12003 0.0
O316 O 0.48863 0.68584 0.14449 0.0
C317 C 0.53301 0.65349 0.13072 0.0
O318 O 0.50776 0.6442 0.08173 0.0
C319 C 0.49424 0.70063 0.13911 0.0
O320 O 0.49788 0.67083 0.08819 0.0
O321 O 0.50258 0.70079 0.12462 0.0
C322 C 0.50194 0.33696 0.11646 0.0
O323 O 0.49102 0.34825 0.11073 0.0
Cd324 Cd 0.46068 0.34316 0.10507 0.0
O325 O 0.4971 0.32119 0.11972 0.0
Cd326 Cd 0.46919 0.30378 0.11748 0.0
C327 C 0.46654 0.3114 0.07358 0.0
O328 O 0.45096 0.32651 0.12982 0.0
O329 O 0.43638 0.30499 0.11881 0.0
O330 O 0.4793 0.28817 0.14346 0.0
C331 C 0.43617 0.3194 0.12724 0.0
O332 O 0.46105 0.32674 0.07753 0.0
C333 C 0.47586 0.27287 0.13767 0.0
O334 O 0.47138 0.30069 0.08553 0.0
O335 O 0.46948 0.27188 0.12226 0.0
H336 H 0.11945 0.40408 0.30954 0.0
H337 H 0.11991 0.37859 0.32942 0.0
H338 H 0.14585 0.41002 0.36893 0.0
H339 H 0.14575 0.43527 0.34918 0.0
H340 H 0.15792 0.37508 0.36783 0.0
H341 H 0.08468 0.37929 0.3703 0.0
H342 H 0.0947 0.37561 0.34919 0.0
H343 H 0.09787 0.39627 0.36023 0.0
C344 C 0.12556 0.40542 0.32233 0.0
C345 C 0.13229 0.42175 0.32793 0.0
C346 C 0.12576 0.39088 0.33368 0.0
C347 C 0.13262 0.39253 0.35075 0.0
C348 C 0.14045 0.40846 0.35583 0.0
H349 H 0.1105 0.3689 0.453 0.0
H350 H 0.11474 0.37804 0.42263 0.0
C351 C 0.14029 0.42293 0.34455 0.0
C352 C 0.13007 0.37865 0.36421 0.0
H353 H 0.09854 0.36213 0.39162 0.0
C354 C 0.14494 0.37182 0.37279 0.0
C355 C 0.11308 0.37455 0.37066 0.0
C356 C 0.09663 0.38184 0.36225 0.0
C357 C 0.1433 0.36199 0.38837 0.0
C358 C 0.12637 0.35887 0.39538 0.0
C359 C 0.11148 0.36457 0.38611 0.0
C360 C 0.12389 0.35261 0.41363 0.0
C361 C 0.15967 0.3562 0.39797 0.0
C362 C 0.12762 0.33521 0.41861 0.0
C363 C 0.1252 0.32987 0.43611 0.0
C364 C 0.11904 0.3419 0.44882 0.0
C365 C 0.11529 0.35927 0.44363 0.0
C366 C 0.11766 0.36454 0.42624 0.0
H367 H 0.17189 0.36063 0.39126 0.0
H368 H 0.1596 0.36149 0.41159 0.0
H369 H 0.15989 0.34161 0.39888 0.0
H370 H 0.13231 0.3258 0.40899 0.0
H371 H 0.12818 0.31638 0.43967 0.0
H372 H 0.60298 0.11227 0.44656 0.0
H373 H 0.59573 0.11619 0.41568 0.0
H374 H 0.64783 0.13623 0.40551 0.0
H375 H 0.65536 0.13234 0.43675 0.0
H376 H 0.61931 0.15693 0.39109 0.0
H377 H 0.61336 0.08662 0.37347 0.0
H378 H 0.60192 0.09152 0.39354 0.0
H379 H 0.62546 0.09408 0.39254 0.0
C380 C 0.613 0.11746 0.43784 0.0
C381 C 0.62978 0.12196 0.44415 0.0
C382 C 0.60884 0.11957 0.42013 0.0
C383 C 0.62135 0.12618 0.40828 0.0
C384 C 0.63808 0.13091 0.41446 0.0
H385 H 0.56785 0.1207 0.307 0.0
H386 H 0.59445 0.12133 0.32526 0.0
C387 C 0.64233 0.12869 0.43228 0.0
C388 C 0.61621 0.12876 0.3897 0.0
H389 H 0.59509 0.10692 0.35678 0.0
C390 C 0.61447 0.14599 0.38329 0.0
C391 C 0.61034 0.11447 0.37934 0.0
C392 C 0.61305 0.09562 0.385 0.0
C393 C 0.60527 0.14939 0.36763 0.0
C394 C 0.59738 0.1352 0.35848 0.0
C395 C 0.60088 0.11787 0.3639 0.0
C396 C 0.58312 0.13794 0.34545 0.0
C397 C 0.60338 0.16819 0.36155 0.0
C398 C 0.56807 0.14737 0.35053 0.0
C399 C 0.55294 0.14702 0.34019 0.0
C400 C 0.55245 0.13706 0.32462 0.0
C401 C 0.56784 0.12847 0.31895 0.0
C402 C 0.58304 0.12884 0.32935 0.0
H403 H 0.61535 0.17593 0.36481 0.0
H404 H 0.60102 0.169 0.34715 0.0
H405 H 0.59214 0.1744 0.36851 0.0
H406 H 0.56757 0.15409 0.36309 0.0
H407 H 0.54132 0.15381 0.3449 0.0
H408 H 0.86005 0.60412 0.45188 0.0
H409 H 0.85625 0.59539 0.42134 0.0
H410 H 0.83298 0.64579 0.40947 0.0
H411 H 0.83676 0.6548 0.44032 0.0
H412 H 0.81389 0.61513 0.39664 0.0
H413 H 0.88417 0.61356 0.378 0.0
H414 H 0.88016 0.60257 0.39853 0.0
H415 H 0.87612 0.62586 0.39671 0.0
C416 C 0.85417 0.61344 0.44284 0.0
C417 C 0.84874 0.63019 0.44856 0.0
C418 C 0.85212 0.60845 0.42533 0.0
C419 C 0.84463 0.62006 0.41312 0.0
C420 C 0.83897 0.63674 0.41871 0.0
H421 H 0.85108 0.567 0.31117 0.0
H422 H 0.84942 0.59307 0.33018 0.0
C423 C 0.84114 0.64184 0.43631 0.0
C424 C 0.84215 0.61407 0.39478 0.0
H425 H 0.86489 0.59403 0.36175 0.0
C426 C 0.82501 0.61094 0.38872 0.0
C427 C 0.85665 0.609 0.3843 0.0
C428 C 0.87531 0.61309 0.38963 0.0
C429 C 0.82204 0.60126 0.37326 0.0
C430 C 0.8366 0.59437 0.3639 0.0
C431 C 0.8537 0.5991 0.36902 0.0
C432 C 0.83464 0.58005 0.35079 0.0
C433 C 0.80335 0.59786 0.36756 0.0
C434 C 0.82665 0.56419 0.35592 0.0
C435 C 0.82763 0.54936 0.34517 0.0
C436 C 0.83676 0.55 0.32911 0.0
C437 C 0.84396 0.56611 0.32349 0.0
C438 C 0.84301 0.58101 0.33432 0.0
H439 H 0.79469 0.60906 0.37121 0.0
H440 H 0.80245 0.59567 0.35314 0.0
H441 H 0.79832 0.58597 0.37441 0.0
H442 H 0.82054 0.56295 0.36874 0.0
H443 H 0.82191 0.53715 0.34985 0.0
H444 H 0.32011 0.83126 0.43947 0.0
H445 H 0.33141 0.82462 0.40986 0.0
H446 H 0.37668 0.85737 0.41984 0.0
H447 H 0.36582 0.86372 0.44927 0.0
H448 H 0.34112 0.84589 0.38082 0.0
H449 H 0.39831 0.8098 0.40732 0.0
H450 H 0.3795 0.81542 0.4207 0.0
H451 H 0.39668 0.83133 0.41686 0.0
C452 C 0.33243 0.83709 0.43528 0.0
C453 C 0.34222 0.84778 0.44681 0.0
C454 C 0.33884 0.83329 0.41839 0.0
C455 C 0.35507 0.84018 0.41286 0.0
C456 C 0.36436 0.85154 0.42404 0.0
H457 H 0.4084 0.86507 0.31988 0.0
H458 H 0.38511 0.86098 0.3416 0.0
C459 C 0.3581 0.85519 0.44086 0.0
C460 C 0.36285 0.83537 0.39566 0.0
H461 H 0.40151 0.82136 0.37798 0.0
C462 C 0.35418 0.84018 0.38008 0.0
C463 C 0.37962 0.82741 0.39468 0.0
C464 C 0.38897 0.82051 0.41079 0.0
C465 C 0.36249 0.8385 0.36362 0.0
C466 C 0.38007 0.83232 0.36287 0.0
C467 C 0.38812 0.8263 0.37839 0.0
C468 C 0.39117 0.83354 0.34678 0.0
C469 C 0.35239 0.84355 0.34732 0.0
C470 C 0.40232 0.81949 0.34216 0.0
C471 C 0.41607 0.82207 0.33025 0.0
C472 C 0.41858 0.83856 0.32232 0.0
C473 C 0.40652 0.85214 0.32563 0.0
C474 C 0.39309 0.84974 0.33799 0.0
H475 H 0.33816 0.84062 0.34894 0.0
H476 H 0.35367 0.85795 0.34513 0.0
H477 H 0.35731 0.83651 0.33549 0.0
H478 H 0.40114 0.80686 0.34869 0.0
H479 H 0.42528 0.81143 0.32789 0.0
H480 H 0.1605 0.54189 0.63576 0.0
H481 H 0.16463 0.56574 0.61451 0.0
H482 H 0.11159 0.58354 0.62447 0.0
H483 H 0.108 0.56052 0.64659 0.0
H484 H 0.14863 0.56605 0.58599 0.0
H485 H 0.13317 0.62989 0.61646 0.0
H486 H 0.13729 0.61046 0.62953 0.0
H487 H 0.11557 0.61491 0.62101 0.0
C488 C 0.15002 0.55138 0.63387 0.0
C489 C 0.13396 0.54946 0.64275 0.0
C490 C 0.15235 0.56497 0.62171 0.0
C491 C 0.13847 0.57658 0.61785 0.0
C492 C 0.12272 0.57519 0.6275 0.0
H493 H 0.10547 0.60445 0.51659 0.0
H494 H 0.11219 0.59291 0.54568 0.0
C495 C 0.1206 0.56191 0.64007 0.0
C496 C 0.13925 0.58777 0.60179 0.0
H497 H 0.12651 0.62749 0.58486 0.0
C498 C 0.14422 0.57964 0.58593 0.0
C499 C 0.13375 0.6056 0.60149 0.0
C500 C 0.12985 0.61573 0.61811 0.0
C501 C 0.14275 0.58838 0.5698 0.0
C502 C 0.13547 0.6055 0.56935 0.0
C503 C 0.13168 0.61418 0.58521 0.0
C504 C 0.1304 0.61376 0.55246 0.0
C505 C 0.1486 0.57895 0.55331 0.0
C506 C 0.13773 0.62982 0.54696 0.0
C507 C 0.13371 0.63663 0.53029 0.0
C508 C 0.12236 0.6274 0.51893 0.0
C509 C 0.11451 0.61172 0.52487 0.0
C510 C 0.11836 0.60508 0.54149 0.0
H511 H 0.15904 0.56913 0.55623 0.0
H512 H 0.13725 0.57174 0.5476 0.0
H513 H 0.15366 0.58833 0.54331 0.0
H514 H 0.14692 0.63679 0.55533 0.0
H515 H 0.13989 0.64879 0.5261 0.0
H516 H 0.3622 0.10612 0.52182 0.0
H517 H 0.37011 0.11017 0.55253 0.0
H518 H 0.32063 0.13619 0.56228 0.0
H519 H 0.31249 0.13223 0.53122 0.0
H520 H 0.35051 0.15447 0.57531 0.0
H521 H 0.35131 0.08495 0.5965 0.0
H522 H 0.36305 0.08779 0.57621 0.0
H523 H 0.33979 0.09225 0.57702 0.0
C524 C 0.35288 0.1126 0.53044 0.0
C525 C 0.33669 0.11885 0.52404 0.0
C526 C 0.35738 0.11477 0.54806 0.0
C527 C 0.34582 0.12318 0.55973 0.0
C528 C 0.32963 0.12948 0.55348 0.0
H529 H 0.39959 0.11938 0.66118 0.0
H530 H 0.37318 0.12069 0.64269 0.0
C531 C 0.32502 0.12721 0.53577 0.0
C532 C 0.35155 0.12624 0.57808 0.0
H533 H 0.37149 0.10458 0.61186 0.0
C534 C 0.35465 0.1436 0.5836 0.0
C535 C 0.35652 0.11209 0.58909 0.0
C536 C 0.35231 0.09323 0.58448 0.0
C537 C 0.36431 0.14708 0.59895 0.0
C538 C 0.37124 0.13283 0.60875 0.0
C539 C 0.36644 0.11555 0.60423 0.0
C540 C 0.38572 0.1352 0.62161 0.0
C541 C 0.36766 0.16598 0.60406 0.0
C542 C 0.40141 0.14322 0.61607 0.0
C543 C 0.41643 0.14249 0.62654 0.0
C544 C 0.41616 0.13354 0.64271 0.0
C545 C 0.4002 0.12636 0.64876 0.0
C546 C 0.38511 0.1271 0.63823 0.0
H547 H 0.35631 0.17444 0.60038 0.0
H548 H 0.3701 0.16733 0.61839 0.0
H549 H 0.37933 0.17093 0.59681 0.0
H550 H 0.4024 0.14912 0.60313 0.0
H551 H 0.42851 0.14817 0.62152 0.0
H552 H 0.81975 0.43461 0.62014 0.0
H553 H 0.81762 0.40889 0.60117 0.0
H554 H 0.84607 0.37799 0.63936 0.0
H555 H 0.84848 0.40393 0.65844 0.0
H556 H 0.86126 0.37693 0.60752 0.0
H557 H 0.79059 0.36328 0.59909 0.0
H558 H 0.79482 0.38628 0.59585 0.0
H559 H 0.7989 0.37645 0.61707 0.0
C560 C 0.82521 0.42226 0.62472 0.0
C561 C 0.83443 0.42134 0.64071 0.0
C562 C 0.8238 0.40748 0.61393 0.0
C563 C 0.83145 0.39142 0.61894 0.0
C564 C 0.83992 0.39021 0.63532 0.0
H565 H 0.83312 0.31459 0.53088 0.0
H566 H 0.82934 0.32438 0.56152 0.0
C567 C 0.8413 0.40504 0.64619 0.0
C568 C 0.83294 0.37706 0.60581 0.0
H569 H 0.80941 0.35629 0.57368 0.0
C570 C 0.84988 0.37197 0.60048 0.0
C571 C 0.81813 0.37036 0.59673 0.0
C572 C 0.7996 0.37425 0.60264 0.0
C573 C 0.85243 0.36182 0.5853 0.0
C574 C 0.8377 0.35681 0.57515 0.0
C575 C 0.8207 0.36039 0.58138 0.0
C576 C 0.83985 0.35046 0.5569 0.0
C577 C 0.87094 0.35741 0.57963 0.0
C578 C 0.8467 0.362 0.54425 0.0
C579 C 0.84873 0.35657 0.52687 0.0
C580 C 0.84398 0.33942 0.52174 0.0
C581 C 0.83697 0.32786 0.53444 0.0
C582 C 0.8348 0.3334 0.5519 0.0
H583 H 0.88013 0.35744 0.59099 0.0
H584 H 0.87147 0.34432 0.57313 0.0
H585 H 0.87555 0.36746 0.57008 0.0
H586 H 0.85042 0.37531 0.54783 0.0
H587 H 0.85415 0.36585 0.51749 0.0
H588 H 0.56827 0.85226 0.66058 0.0
H589 H 0.59435 0.85119 0.6415 0.0
H590 H 0.56588 0.81892 0.60447 0.0
H591 H 0.54012 0.81962 0.62346 0.0
H592 H 0.60147 0.80968 0.60714 0.0
H593 H 0.59194 0.88191 0.59725 0.0
H594 H 0.59605 0.87426 0.61924 0.0
H595 H 0.5758 0.86862 0.60847 0.0
C596 C 0.56775 0.8446 0.64857 0.0
C597 C 0.55206 0.8363 0.64333 0.0
C598 C 0.58262 0.84406 0.63766 0.0
C599 C 0.58192 0.83526 0.62142 0.0
C600 C 0.56671 0.82584 0.61692 0.0
H601 H 0.60153 0.84682 0.51758 0.0
H602 H 0.59362 0.84403 0.54846 0.0
C603 C 0.55194 0.82634 0.62775 0.0
C604 C 0.59579 0.83746 0.6079 0.0
H605 H 0.60952 0.86707 0.577 0.0
C606 C 0.60372 0.8223 0.60083 0.0
C607 C 0.59857 0.85396 0.59965 0.0
C608 C 0.59012 0.87065 0.60641 0.0
C609 C 0.61322 0.82302 0.58499 0.0
C610 C 0.61486 0.83929 0.57615 0.0
C611 C 0.6082 0.85464 0.58393 0.0
C612 C 0.6203 0.84021 0.55752 0.0
C613 C 0.62021 0.80623 0.57702 0.0
C614 C 0.63798 0.83883 0.55241 0.0
C615 C 0.64262 0.84043 0.53461 0.0
C616 C 0.62961 0.84345 0.52176 0.0
C617 C 0.61191 0.84454 0.52706 0.0
C618 C 0.60734 0.84297 0.54472 0.0
H619 H 0.61794 0.79462 0.58564 0.0
H620 H 0.61375 0.80384 0.56414 0.0
H621 H 0.63455 0.80754 0.57458 0.0
H622 H 0.64815 0.83677 0.56216 0.0
H623 H 0.65637 0.83955 0.53097 0.0
H624 H 0.31239 0.12219 0.40486 0.0
H625 H 0.33322 0.12393 0.38021 0.0
H626 H 0.37094 0.14966 0.41391 0.0
H627 H 0.35026 0.14822 0.43837 0.0
H628 H 0.37032 0.16307 0.37902 0.0
H629 H 0.37541 0.08981 0.38161 0.0
H630 H 0.354 0.09911 0.3778 0.0
H631 H 0.36457 0.10226 0.39867 0.0
C632 C 0.32499 0.12853 0.40689 0.0
C633 C 0.32981 0.13481 0.42362 0.0
C634 C 0.33688 0.12946 0.39283 0.0
C635 C 0.35371 0.13666 0.39535 0.0
C636 C 0.35803 0.14402 0.4117 0.0
H637 H 0.45747 0.11907 0.37024 0.0
H638 H 0.42736 0.12263 0.38053 0.0
C639 C 0.34621 0.1431 0.4257 0.0
C640 C 0.36766 0.13498 0.38185 0.0
H641 H 0.3963 0.10485 0.36482 0.0
C642 C 0.37578 0.15034 0.37551 0.0
C643 C 0.37479 0.11832 0.37746 0.0
C644 C 0.36687 0.10139 0.38427 0.0
C645 C 0.39143 0.14951 0.36571 0.0
C646 C 0.39902 0.13291 0.36217 0.0
C647 C 0.39034 0.11753 0.36756 0.0
C648 C 0.41717 0.13123 0.3554 0.0
C649 C 0.40044 0.16636 0.36025 0.0
C650 C 0.42138 0.13494 0.33782 0.0
C651 C 0.4387 0.1329 0.33181 0.0
C652 C 0.45201 0.12712 0.34335 0.0
C653 C 0.44762 0.12354 0.36097 0.0
C654 C 0.4304 0.12554 0.3669 0.0
H655 H 0.39326 0.17825 0.36486 0.0
H656 H 0.41402 0.1667 0.36561 0.0
H657 H 0.40143 0.16687 0.34569 0.0
H658 H 0.41128 0.13924 0.32874 0.0
H659 H 0.44164 0.13574 0.31816 0.0
H660 H 0.86105 0.31824 0.41023 0.0
H661 H 0.86027 0.34133 0.38773 0.0
H662 H 0.80833 0.35641 0.40497 0.0
H663 H 0.80946 0.33397 0.42807 0.0
H664 H 0.83991 0.35374 0.36019 0.0
H665 H 0.83744 0.39912 0.4175 0.0
H666 H 0.84074 0.37576 0.41994 0.0
H667 H 0.81902 0.38442 0.4162 0.0
C668 C 0.84927 0.32615 0.40887 0.0
C669 C 0.83542 0.32458 0.42101 0.0
C670 C 0.84883 0.33934 0.39601 0.0
C671 C 0.83444 0.3509 0.39503 0.0
C672 C 0.81975 0.34794 0.40583 0.0
H673 H 0.83042 0.4429 0.32411 0.0
H674 H 0.82509 0.41344 0.33639 0.0
C675 C 0.82036 0.33507 0.41894 0.0
C676 C 0.83591 0.3674 0.38469 0.0
H677 H 0.83729 0.41205 0.38951 0.0
C678 C 0.83926 0.36652 0.36653 0.0
C679 C 0.83537 0.38405 0.3931 0.0
C680 C 0.83312 0.38596 0.41277 0.0
C681 C 0.84224 0.38188 0.35657 0.0
C682 C 0.84152 0.39848 0.36501 0.0
C683 C 0.8378 0.39931 0.38306 0.0
C684 C 0.84575 0.41525 0.35593 0.0
C685 C 0.84678 0.38018 0.33733 0.0
C686 C 0.85908 0.42602 0.3628 0.0
C687 C 0.86184 0.44287 0.35612 0.0
C688 C 0.85147 0.44929 0.34225 0.0
C689 C 0.83864 0.43824 0.33476 0.0
C690 C 0.83567 0.42138 0.34169 0.0
H691 H 0.85082 0.36654 0.33388 0.0
H692 H 0.83506 0.38358 0.32933 0.0
H693 H 0.85756 0.38935 0.33368 0.0
H694 H 0.86705 0.42155 0.37374 0.0
H695 H 0.87196 0.451 0.36203 0.0
H696 H 0.52577 0.83386 0.3201 0.0
H697 H 0.55481 0.82695 0.3325 0.0
H698 H 0.54288 0.85881 0.37795 0.0
H699 H 0.51389 0.86532 0.36601 0.0
H700 H 0.58316 0.84708 0.34297 0.0
H701 H 0.55501 0.81187 0.39996 0.0
H702 H 0.54197 0.81789 0.38107 0.0
H703 H 0.54607 0.83365 0.39832 0.0
C704 C 0.52939 0.83941 0.33272 0.0
C705 C 0.51744 0.8499 0.34222 0.0
C706 C 0.54596 0.83546 0.33976 0.0
C707 C 0.5508 0.84201 0.35634 0.0
C708 C 0.53921 0.85318 0.36538 0.0
H709 H 0.64554 0.86256 0.41023 0.0
H710 H 0.62303 0.86029 0.38746 0.0
C711 C 0.52265 0.85694 0.3585 0.0
C712 C 0.56775 0.83709 0.36459 0.0
H713 H 0.58462 0.82252 0.40341 0.0
C714 C 0.58357 0.84141 0.35607 0.0
C715 C 0.5683 0.82919 0.38142 0.0
C716 C 0.55192 0.8227 0.39062 0.0
C717 C 0.59988 0.83913 0.36449 0.0
C718 C 0.60027 0.83287 0.38205 0.0
C719 C 0.58447 0.82751 0.39004 0.0
C720 C 0.61642 0.83306 0.39309 0.0
C721 C 0.61644 0.84355 0.35447 0.0
C722 C 0.62041 0.81854 0.40386 0.0
C723 C 0.63282 0.82008 0.4173 0.0
C724 C 0.64181 0.836 0.41992 0.0
C725 C 0.63894 0.85006 0.40828 0.0
C726 C 0.62614 0.8487 0.39515 0.0
H727 H 0.61473 0.84096 0.34019 0.0
H728 H 0.61935 0.85779 0.35602 0.0
H729 H 0.62788 0.83584 0.35928 0.0
H730 H 0.61316 0.80632 0.40255 0.0
H731 H 0.63484 0.80907 0.42616 0.0
H732 H 0.11805 0.66133 0.402 0.0
H733 H 0.11845 0.64237 0.37582 0.0
H734 H 0.14638 0.60253 0.4051 0.0
H735 H 0.14638 0.62139 0.43097 0.0
H736 H 0.15746 0.60491 0.37018 0.0
H737 H 0.08438 0.60067 0.37582 0.0
H738 H 0.09391 0.62207 0.37241 0.0
H739 H 0.09763 0.61065 0.39276 0.0
C740 C 0.12459 0.64868 0.4027 0.0
C741 C 0.1319 0.6427 0.41862 0.0
C742 C 0.12474 0.63785 0.38777 0.0
C743 C 0.13215 0.62092 0.38863 0.0
C744 C 0.14056 0.61553 0.40414 0.0
H745 H 0.11187 0.51878 0.3657 0.0
H746 H 0.11554 0.54939 0.37427 0.0
C747 C 0.14045 0.6263 0.41897 0.0
C748 C 0.12961 0.6078 0.37443 0.0
H749 H 0.09844 0.57971 0.3584 0.0
C750 C 0.14454 0.59967 0.36715 0.0
C751 C 0.11271 0.60098 0.37061 0.0
C752 C 0.0962 0.60891 0.37833 0.0
C753 C 0.1431 0.58408 0.3573 0.0
C754 C 0.12629 0.57663 0.35457 0.0
C755 C 0.11129 0.58555 0.36057 0.0
C756 C 0.12416 0.55821 0.34861 0.0
C757 C 0.15958 0.5749 0.35115 0.0
C758 C 0.12781 0.55302 0.33127 0.0
C759 C 0.12575 0.53536 0.32626 0.0
C760 C 0.11999 0.52271 0.33855 0.0
C761 C 0.11634 0.5281 0.35586 0.0
C762 C 0.11837 0.54563 0.36081 0.0
H763 H 0.17171 0.58195 0.35526 0.0
H764 H 0.16001 0.56128 0.35647 0.0
H765 H 0.1595 0.57395 0.33658 0.0
H766 H 0.13217 0.5626 0.32164 0.0
H767 H 0.12863 0.53164 0.3128 0.0
H768 H 0.33511 0.81063 0.5405 0.0
H769 H 0.3564 0.80685 0.5643 0.0
H770 H 0.34679 0.86033 0.58113 0.0
H771 H 0.32462 0.8636 0.55812 0.0
H772 H 0.38503 0.82296 0.56411 0.0
H773 H 0.35464 0.83924 0.62782 0.0
H774 H 0.34159 0.83488 0.60847 0.0
H775 H 0.35027 0.85664 0.61253 0.0
C776 C 0.33708 0.82129 0.54977 0.0
C777 C 0.32828 0.83737 0.54759 0.0
C778 C 0.34926 0.81916 0.56333 0.0
C779 C 0.35325 0.83327 0.57464 0.0
C780 C 0.34368 0.84905 0.57301 0.0
H781 H 0.45539 0.86441 0.60335 0.0
H782 H 0.42631 0.8585 0.59137 0.0
C783 C 0.33108 0.85098 0.55974 0.0
C784 C 0.36932 0.83256 0.58577 0.0
H785 H 0.3863 0.84509 0.62548 0.0
C786 C 0.38513 0.82741 0.57768 0.0
C787 C 0.36964 0.83813 0.60356 0.0
C788 C 0.35305 0.84233 0.61361 0.0
C789 C 0.40125 0.82863 0.58645 0.0
C790 C 0.40175 0.83584 0.60358 0.0
C791 C 0.38592 0.83994 0.61218 0.0
C792 C 0.4187 0.8404 0.61202 0.0
C793 C 0.41767 0.8225 0.57707 0.0
C794 C 0.42375 0.83284 0.62811 0.0
C795 C 0.44041 0.83639 0.63517 0.0
C796 C 0.45222 0.84749 0.62618 0.0
C797 C 0.44676 0.85555 0.61045 0.0
C798 C 0.43014 0.85215 0.60355 0.0
H799 H 0.4146 0.81218 0.56717 0.0
H800 H 0.42367 0.8338 0.57 0.0
H801 H 0.4275 0.81716 0.58646 0.0
H802 H 0.41502 0.82385 0.63492 0.0
H803 H 0.44422 0.83007 0.64736 0.0
H804 H 0.11221 0.4522 0.60274 0.0
H805 H 0.11558 0.42155 0.59406 0.0
H806 H 0.13614 0.40884 0.64536 0.0
H807 H 0.13275 0.43979 0.65435 0.0
H808 H 0.15617 0.39559 0.61451 0.0
H809 H 0.08531 0.37909 0.61206 0.0
H810 H 0.09028 0.39967 0.60152 0.0
H811 H 0.09385 0.39729 0.6248 0.0
C812 C 0.11743 0.44296 0.61226 0.0
C813 C 0.12217 0.44846 0.62928 0.0
C814 C 0.11925 0.42541 0.60729 0.0
C815 C 0.12585 0.41294 0.61916 0.0
C816 C 0.13086 0.4183 0.63609 0.0
H817 H 0.11688 0.31099 0.56648 0.0
H818 H 0.119 0.33005 0.59244 0.0
C819 C 0.12891 0.43595 0.64118 0.0
C820 C 0.12788 0.39451 0.61325 0.0
H821 H 0.10439 0.36209 0.59309 0.0
C822 C 0.14487 0.38797 0.61025 0.0
C823 C 0.11314 0.38444 0.60807 0.0
C824 C 0.0946 0.39039 0.61194 0.0
C825 C 0.14748 0.3724 0.60061 0.0
C826 C 0.13273 0.36343 0.59365 0.0
C827 C 0.11574 0.36905 0.59823 0.0
C828 C 0.13441 0.35019 0.57941 0.0
C829 C 0.16603 0.36617 0.59733 0.0
C830 C 0.14261 0.35503 0.56358 0.0
C831 C 0.14137 0.34425 0.5488 0.0
C832 C 0.13177 0.32845 0.54947 0.0
C833 C 0.12436 0.3231 0.56556 0.0
C834 C 0.12558 0.33396 0.58041 0.0
H835 H 0.17473 0.36964 0.60855 0.0
H836 H 0.16655 0.35171 0.59521 0.0
H837 H 0.17131 0.37284 0.58545 0.0
H838 H 0.14909 0.36768 0.56232 0.0
H839 H 0.14726 0.34872 0.5366 0.0
H840 H 0.52596 0.12808 0.65075 0.0
H841 H 0.55631 0.13169 0.64026 0.0
H842 H 0.54056 0.11429 0.58862 0.0
H843 H 0.51046 0.11051 0.59888 0.0
H844 H 0.57153 0.09773 0.60242 0.0
H845 H 0.57384 0.17105 0.60601 0.0
H846 H 0.56715 0.15902 0.62532 0.0
H847 H 0.5533 0.15909 0.60623 0.0
C848 C 0.52898 0.12504 0.63716 0.0
C849 C 0.51576 0.11904 0.62564 0.0
C850 C 0.5463 0.12717 0.6312 0.0
C851 C 0.55061 0.12336 0.61365 0.0
C852 C 0.53748 0.11729 0.60222 0.0
H853 H 0.61773 0.14666 0.53209 0.0
H854 H 0.59706 0.14634 0.55658 0.0
C855 C 0.52025 0.11518 0.60812 0.0
C856 C 0.5687 0.12556 0.60682 0.0
H857 H 0.59738 0.15682 0.59198 0.0
C858 C 0.57744 0.1106 0.60046 0.0
C859 C 0.57624 0.1424 0.6043 0.0
C860 C 0.5672 0.15888 0.61072 0.0
C861 C 0.59297 0.11207 0.5906 0.0
C862 C 0.60009 0.12899 0.58732 0.0
C863 C 0.59193 0.14388 0.59463 0.0
C864 C 0.61409 0.13161 0.57401 0.0
C865 C 0.60087 0.09562 0.58269 0.0
C866 C 0.63083 0.12403 0.57593 0.0
C867 C 0.6427 0.12408 0.56183 0.0
C868 C 0.63797 0.13178 0.54567 0.0
C869 C 0.6217 0.14046 0.5443 0.0
C870 C 0.60989 0.14037 0.55832 0.0
H871 H 0.59223 0.08394 0.5844 0.0
H872 H 0.60336 0.0975 0.56841 0.0
H873 H 0.61364 0.09279 0.58915 0.0
H874 H 0.63442 0.11746 0.58806 0.0
H875 H 0.6552 0.11741 0.56332 0.0
H876 H 0.86001 0.51889 0.60219 0.0
H877 H 0.85669 0.54962 0.59379 0.0
H878 H 0.8346 0.56154 0.64469 0.0
H879 H 0.83788 0.53051 0.65335 0.0
H880 H 0.81516 0.57505 0.61496 0.0
H881 H 0.88569 0.59232 0.61124 0.0
H882 H 0.88099 0.57202 0.60011 0.0
H883 H 0.87769 0.57355 0.62352 0.0
C884 C 0.8545 0.52798 0.6117 0.0
C885 C 0.84924 0.52222 0.62847 0.0
C886 C 0.85273 0.54559 0.6069 0.0
C887 C 0.8457 0.55787 0.61873 0.0
C888 C 0.84024 0.55225 0.63545 0.0
H889 H 0.85254 0.66034 0.5665 0.0
H890 H 0.85134 0.64103 0.59237 0.0
C891 C 0.84212 0.53454 0.64035 0.0
C892 C 0.84341 0.57633 0.61293 0.0
H893 H 0.86613 0.60914 0.59245 0.0
C894 C 0.8263 0.58278 0.61046 0.0
C895 C 0.85793 0.58658 0.60747 0.0
C896 C 0.87662 0.58085 0.61089 0.0
C897 C 0.82332 0.59842 0.60106 0.0
C898 C 0.83782 0.60756 0.59376 0.0
C899 C 0.85497 0.60203 0.59783 0.0
C900 C 0.83566 0.62091 0.57968 0.0
C901 C 0.80465 0.60456 0.59838 0.0
C902 C 0.827 0.61616 0.56409 0.0
C903 C 0.8277 0.62707 0.54936 0.0
C904 C 0.83721 0.64293 0.54985 0.0
C905 C 0.8451 0.64819 0.56574 0.0
C906 C 0.84442 0.63719 0.58052 0.0
H907 H 0.79631 0.60097 0.60985 0.0
H908 H 0.80398 0.61903 0.59637 0.0
H909 H 0.79906 0.59793 0.58663 0.0
H910 H 0.82055 0.60348 0.56293 0.0
H911 H 0.82145 0.62267 0.53733 0.0
H912 H 0.31572 0.44226 0.12792 0.0
H913 H 0.32458 0.41129 0.13109 0.0
H914 H 0.37782 0.42517 0.11724 0.0
H915 H 0.36924 0.45585 0.11397 0.0
H916 H 0.36201 0.39537 0.0982 0.0
H917 H 0.35725 0.39058 0.17127 0.0
H918 H 0.3391 0.39953 0.15891 0.0
H919 H 0.35929 0.41163 0.16037 0.0
C920 C 0.32932 0.4387 0.1256 0.0
C921 C 0.34177 0.45156 0.12069 0.0
C922 C 0.33434 0.42103 0.12746 0.0
C923 C 0.35184 0.41602 0.12443 0.0
C924 C 0.36423 0.42881 0.11959 0.0
H925 H 0.43273 0.34996 0.14538 0.0
H926 H 0.40745 0.3696 0.14586 0.0
C927 C 0.35928 0.44637 0.11777 0.0
C928 C 0.35768 0.39753 0.12606 0.0
H929 H 0.37214 0.36787 0.15651 0.0
C930 C 0.36382 0.38905 0.11087 0.0
C931 C 0.35997 0.38946 0.14265 0.0
C932 C 0.35363 0.39818 0.15931 0.0
C933 C 0.37348 0.37336 0.11192 0.0
C934 C 0.37681 0.36585 0.12864 0.0
C935 C 0.36947 0.37363 0.14372 0.0
C936 C 0.39054 0.35221 0.13093 0.0
C937 C 0.38132 0.36582 0.09528 0.0
C938 C 0.3892 0.33556 0.12298 0.0
C939 C 0.40378 0.32427 0.12256 0.0
C940 C 0.41982 0.32953 0.13014 0.0
C941 C 0.42063 0.34562 0.13923 0.0
C942 C 0.40614 0.35683 0.13961 0.0
H943 H 0.37926 0.37454 0.08373 0.0
H944 H 0.39568 0.36365 0.09692 0.0
H945 H 0.37513 0.3529 0.09241 0.0
H946 H 0.37717 0.33163 0.11645 0.0
H947 H 0.40274 0.31187 0.1156 0.0
H948 H 0.40232 0.65956 0.85189 0.0
H949 H 0.37659 0.63999 0.85134 0.0
H950 H 0.40656 0.60138 0.82243 0.0
H951 H 0.43201 0.62084 0.82259 0.0
H952 H 0.37135 0.60325 0.81174 0.0
H953 H 0.37806 0.5976 0.88464 0.0
H954 H 0.37414 0.61914 0.87563 0.0
H955 H 0.39463 0.60817 0.87134 0.0
C956 C 0.40327 0.64705 0.84511 0.0
C957 C 0.41927 0.64158 0.83756 0.0
C958 C 0.3886 0.63588 0.84487 0.0
C959 C 0.38979 0.61912 0.83714 0.0
C960 C 0.40536 0.61424 0.82851 0.0
H961 H 0.36814 0.51604 0.85538 0.0
H962 H 0.37659 0.54673 0.85198 0.0
C963 C 0.41994 0.62535 0.8287 0.0
C964 C 0.37591 0.60564 0.83959 0.0
H965 H 0.36069 0.5767 0.87042 0.0
C966 C 0.36857 0.5977 0.8246 0.0
C967 C 0.37242 0.59842 0.85641 0.0
C968 C 0.38025 0.60614 0.87296 0.0
C969 C 0.35892 0.58197 0.82588 0.0
C970 C 0.35649 0.57415 0.84257 0.0
C971 C 0.36261 0.58282 0.85766 0.0
C972 C 0.35066 0.55567 0.84443 0.0
C973 C 0.35261 0.57304 0.80932 0.0
C974 C 0.33321 0.55054 0.84128 0.0
C975 C 0.32827 0.53285 0.84321 0.0
C976 C 0.34073 0.52011 0.84832 0.0
C977 C 0.35817 0.52543 0.85143 0.0
C978 C 0.36305 0.54301 0.84953 0.0
H979 H 0.35633 0.58045 0.79727 0.0
H980 H 0.3582 0.55955 0.80846 0.0
H981 H 0.33807 0.57178 0.80969 0.0
H982 H 0.32346 0.5602 0.83744 0.0
H983 H 0.31472 0.52918 0.84075 0.0
H984 H 0.44147 0.31505 0.83735 0.0
H985 H 0.41068 0.3243 0.83371 0.0
H986 H 0.42491 0.37738 0.84796 0.0
H987 H 0.4554 0.36843 0.85164 0.0
H988 H 0.39453 0.3611 0.86665 0.0
H989 H 0.39117 0.35834 0.7934 0.0
H990 H 0.40013 0.34 0.80555 0.0
H991 H 0.41198 0.36039 0.80466 0.0
C992 C 0.43802 0.3287 0.83965 0.0
C993 C 0.45092 0.341 0.84479 0.0
C994 C 0.42046 0.33394 0.83753 0.0
C995 C 0.41561 0.35151 0.84054 0.0
C996 C 0.42843 0.36375 0.84561 0.0
H997 H 0.34964 0.43343 0.82084 0.0
H998 H 0.3696 0.40836 0.81999 0.0
C999 C 0.44588 0.35859 0.84767 0.0
C1000 C 0.39724 0.35757 0.83872 0.0
H1001 H 0.3684 0.37323 0.80812 0.0
C1002 C 0.3885 0.36334 0.85391 0.0
C1003 C 0.38957 0.36046 0.82205 0.0
C1004 C 0.39861 0.35454 0.8054 0.0
C1005 C 0.37291 0.37315 0.85283 0.0
C1006 C 0.36578 0.37703 0.83607 0.0
C1007 C 0.37386 0.37014 0.82093 0.0
C1008 C 0.35208 0.39073 0.83394 0.0
C1009 C 0.36505 0.38052 0.86953 0.0
C1010 C 0.33529 0.38893 0.84145 0.0
C1011 C 0.32383 0.40336 0.84207 0.0
C1012 C 0.32903 0.41974 0.83513 0.0
C1013 C 0.34532 0.42105 0.82647 0.0
C1014 C 0.35672 0.4067 0.82589 0.0
H1015 H 0.37355 0.37814 0.88118 0.0
H1016 H 0.36288 0.39492 0.86824 0.0
H1017 H 0.35212 0.3742 0.87201 0.0
H1018 H 0.33137 0.37661 0.84749 0.0
H1019 H 0.31129 0.40192 0.8487 0.0
H1020 H 0.65021 0.44469 0.83171 0.0
H1021 H 0.63852 0.41534 0.82453 0.0
H1022 H 0.59557 0.42366 0.86069 0.0
H1023 H 0.60681 0.45289 0.86759 0.0
H1024 H 0.62969 0.38501 0.84472 0.0
H1025 H 0.57105 0.41465 0.81365 0.0
H1026 H 0.59038 0.42736 0.81902 0.0
H1027 H 0.57412 0.42264 0.83563 0.0
C1028 C 0.63836 0.44016 0.83822 0.0
C1029 C 0.62925 0.4512 0.84998 0.0
C1030 C 0.63173 0.42342 0.83411 0.0
C1031 C 0.61598 0.41755 0.84178 0.0
C1032 C 0.60751 0.42815 0.85429 0.0
H1033 H 0.5626 0.32241 0.86073 0.0
H1034 H 0.58564 0.34467 0.85818 0.0
C1035 C 0.61398 0.44484 0.85824 0.0
C1036 C 0.60768 0.40077 0.83635 0.0
H1037 H 0.5683 0.38448 0.8227 0.0
C1038 C 0.61638 0.3848 0.83958 0.0
C1039 C 0.59055 0.40054 0.82915 0.0
C1040 C 0.58106 0.41723 0.82397 0.0
C1041 C 0.60785 0.36856 0.83696 0.0
C1042 C 0.59005 0.36841 0.83143 0.0
C1043 C 0.58187 0.38443 0.8271 0.0
C1044 C 0.57895 0.35227 0.83149 0.0
C1045 C 0.61798 0.35181 0.84029 0.0
C1046 C 0.56754 0.34889 0.81734 0.0
C1047 C 0.55395 0.33663 0.81907 0.0
C1048 C 0.55184 0.32718 0.83479 0.0
C1049 C 0.56413 0.32939 0.84838 0.0
C1050 C 0.57742 0.34204 0.84686 0.0
H1051 H 0.63216 0.35362 0.83717 0.0
H1052 H 0.61702 0.34835 0.85444 0.0
H1053 H 0.61283 0.34067 0.83236 0.0
H1054 H 0.56843 0.35655 0.80535 0.0
H1055 H 0.5446 0.33512 0.80842 0.0
H1056 H 0.62158 0.53814 0.82174 0.0
H1057 H 0.60215 0.56352 0.82004 0.0
H1058 H 0.6395 0.59447 0.84954 0.0
H1059 H 0.65906 0.56884 0.85151 0.0
H1060 H 0.60761 0.59452 0.86455 0.0
H1061 H 0.5991 0.60969 0.79423 0.0
H1062 H 0.5964 0.58651 0.79777 0.0
H1063 H 0.61735 0.59673 0.80227 0.0
C1064 C 0.62589 0.55045 0.82752 0.0
C1065 C 0.64176 0.55144 0.83691 0.0
C1066 C 0.61483 0.56504 0.82636 0.0
C1067 C 0.61946 0.581 0.83444 0.0
C1068 C 0.63576 0.58233 0.84306 0.0
H1069 H 0.52875 0.65441 0.8364 0.0
H1070 H 0.55973 0.6458 0.83274 0.0
C1071 C 0.6469 0.56768 0.84419 0.0
C1072 C 0.60599 0.595 0.83622 0.0
H1073 H 0.57326 0.61521 0.81305 0.0
C1074 C 0.60045 0.59951 0.85326 0.0
C1075 C 0.59676 0.60176 0.82154 0.0
C1076 C 0.60287 0.59855 0.80294 0.0
C1077 C 0.58492 0.60907 0.85599 0.0
C1078 C 0.57462 0.61403 0.84134 0.0
C1079 C 0.58105 0.61111 0.82428 0.0
C1080 C 0.55615 0.61969 0.84354 0.0
C1081 C 0.5791 0.61289 0.87458 0.0
C1082 C 0.54395 0.60773 0.85051 0.0
C1083 C 0.52638 0.61249 0.85248 0.0
C1084 C 0.52058 0.62936 0.84753 0.0
C1085 C 0.53282 0.64134 0.8404 0.0
C1086 C 0.55049 0.63647 0.8383 0.0
H1087 H 0.5905 0.61332 0.88372 0.0
H1088 H 0.57192 0.62561 0.87536 0.0
H1089 H 0.57013 0.60226 0.87909 0.0
H1090 H 0.54804 0.5946 0.85433 0.0
H1091 H 0.51736 0.6029 0.85799 0.0
H1092 H 0.64859 0.52691 0.14095 0.0
H1093 H 0.63629 0.55607 0.14787 0.0
H1094 H 0.59221 0.54545 0.11379 0.0
H1095 H 0.60402 0.51641 0.10722 0.0
H1096 H 0.62682 0.58514 0.12763 0.0
H1097 H 0.56843 0.55675 0.1602 0.0
H1098 H 0.58755 0.54371 0.15484 0.0
H1099 H 0.57094 0.54796 0.13846 0.0
C1100 C 0.63631 0.53087 0.13491 0.0
C1101 C 0.62712 0.51926 0.12378 0.0
C1102 C 0.62932 0.5475 0.13887 0.0
C1103 C 0.61312 0.55271 0.13169 0.0
C1104 C 0.60446 0.54148 0.11989 0.0
H1105 H 0.56039 0.64717 0.10854 0.0
H1106 H 0.58313 0.6248 0.11226 0.0
C1107 C 0.61127 0.52489 0.1161 0.0
C1108 C 0.6048 0.56966 0.13658 0.0
H1109 H 0.56532 0.58643 0.14939 0.0
C1110 C 0.61349 0.58552 0.13272 0.0
C1111 C 0.58765 0.57017 0.14375 0.0
C1112 C 0.5782 0.55372 0.14974 0.0
C1113 C 0.60493 0.60183 0.13463 0.0
C1114 C 0.58707 0.60217 0.14002 0.0
C1115 C 0.57891 0.58633 0.14504 0.0
C1116 C 0.57594 0.61827 0.13911 0.0
C1117 C 0.6151 0.61844 0.13072 0.0
C1118 C 0.56428 0.62224 0.15292 0.0
C1119 C 0.55084 0.63454 0.15052 0.0
C1120 C 0.54914 0.64347 0.13445 0.0
C1121 C 0.56162 0.64062 0.12114 0.0
C1122 C 0.57474 0.62791 0.12334 0.0
H1123 H 0.62921 0.6168 0.13413 0.0
H1124 H 0.61438 0.62126 0.11641 0.0
H1125 H 0.6098 0.62991 0.13806 0.0
H1126 H 0.5649 0.61505 0.16522 0.0
H1127 H 0.54133 0.63655 0.16095 0.0
H1128 H 0.34845 0.53965 0.14878 0.0
H1129 H 0.36733 0.56545 0.15041 0.0
H1130 H 0.32953 0.5954 0.12046 0.0
H1131 H 0.31054 0.56934 0.11854 0.0
H1132 H 0.36136 0.59609 0.1056 0.0
H1133 H 0.36952 0.61184 0.1758 0.0
H1134 H 0.37269 0.5887 0.17248 0.0
H1135 H 0.35155 0.59843 0.16786 0.0
C1136 C 0.34392 0.55183 0.14289 0.0
C1137 C 0.3281 0.55242 0.13337 0.0
C1138 C 0.35466 0.56667 0.14401 0.0
C1139 C 0.34976 0.58247 0.13578 0.0
C1140 C 0.33349 0.58339 0.12705 0.0
H1141 H 0.43986 0.65675 0.13337 0.0
H1142 H 0.40884 0.64817 0.13693 0.0
C1143 C 0.32268 0.56849 0.12595 0.0
C1144 C 0.36296 0.59673 0.13393 0.0
H1145 H 0.39537 0.61757 0.15699 0.0
C1146 C 0.36843 0.60125 0.11687 0.0
C1147 C 0.37207 0.60374 0.14857 0.0
C1148 C 0.36599 0.60055 0.16719 0.0
C1149 C 0.38382 0.61103 0.11409 0.0
C1150 C 0.39404 0.61621 0.12872 0.0
C1151 C 0.38764 0.61331 0.14578 0.0
C1152 C 0.4125 0.62192 0.12649 0.0
C1153 C 0.38961 0.61482 0.09548 0.0
C1154 C 0.42474 0.6099 0.11974 0.0
C1155 C 0.44233 0.61464 0.11784 0.0
C1156 C 0.4481 0.63157 0.12263 0.0
C1157 C 0.43581 0.64364 0.12949 0.0
C1158 C 0.41812 0.63878 0.13153 0.0
H1159 H 0.37822 0.61507 0.08633 0.0
H1160 H 0.39666 0.62761 0.09463 0.0
H1161 H 0.39869 0.60427 0.09104 0.0
H1162 H 0.42069 0.59671 0.11606 0.0
H1163 H 0.45139 0.60499 0.11252 0.0
H1164 H 0.63848 0.42477 0.15967 0.0
H1165 H 0.61751 0.40055 0.16295 0.0
H1166 H 0.626 0.3861 0.10864 0.0
H1167 H 0.64787 0.40951 0.10583 0.0
H1168 H 0.58861 0.40154 0.14752 0.0
H1169 H 0.61817 0.33849 0.1276 0.0
H1170 H 0.63148 0.35754 0.1326 0.0
H1171 H 0.62243 0.35453 0.11086 0.0
C1172 C 0.63637 0.41589 0.14871 0.0
C1173 C 0.64474 0.41888 0.13253 0.0
C1174 C 0.62437 0.40209 0.15055 0.0
C1175 C 0.62012 0.39137 0.13607 0.0
C1176 C 0.62933 0.39375 0.12018 0.0
H1177 H 0.51814 0.36611 0.10353 0.0
H1178 H 0.54756 0.37686 0.11013 0.0
C1179 C 0.64176 0.40724 0.11851 0.0
C1180 C 0.604 0.38027 0.13657 0.0
H1181 H 0.58643 0.34148 0.12197 0.0
C1182 C 0.58833 0.38823 0.14235 0.0
C1183 C 0.60342 0.3628 0.13004 0.0
C1184 C 0.61986 0.35282 0.12513 0.0
C1185 C 0.57209 0.37972 0.14074 0.0
C1186 C 0.57134 0.36303 0.13255 0.0
C1187 C 0.58702 0.35447 0.12789 0.0
C1188 C 0.55426 0.35523 0.12741 0.0
C1189 C 0.55581 0.38896 0.1474 0.0
C1190 C 0.54859 0.33902 0.13428 0.0
C1191 C 0.53171 0.33268 0.13036 0.0
C1192 C 0.52033 0.34253 0.11956 0.0
C1193 C 0.52644 0.35835 0.11214 0.0
C1194 C 0.54325 0.36454 0.11591 0.0
H1195 H 0.55902 0.39829 0.15819 0.0
H1196 H 0.54986 0.39666 0.13652 0.0
H1197 H 0.54589 0.37939 0.15229 0.0
H1198 H 0.55698 0.33158 0.14308 0.0
H1199 H 0.52739 0.32041 0.1362 0.0
H1200 H 0.04541 0.33054 0.51419 0.0
H1201 H 0.01438 0.3245 0.50885 0.0
H1202 H 0.02802 0.27576 0.48311 0.0
H1203 H 0.05926 0.28175 0.48826 0.0
H1204 H 0.00567 0.29706 0.4634 0.0
H1205 H 0.98038 0.28929 0.53128 0.0
H1206 H -0.00684 0.30898 0.52857 0.0
H1207 H 0.00351 0.28782 0.52598 0.0
C1208 C 0.04186 0.3184 0.50761 0.0
C1209 C 0.05485 0.30665 0.50163 0.0
C1210 C 0.02408 0.31491 0.50468 0.0
C1211 C 0.0189 0.29958 0.49579 0.0
C1212 C 0.03177 0.28761 0.49011 0.0
H1213 H 0.90569 0.2805 0.48363 0.0
H1214 H 0.937 0.27513 0.48893 0.0
C1215 C 0.0496 0.29106 0.49309 0.0
C1216 C 0.00017 0.29693 0.49122 0.0
H1217 H 0.95897 0.29635 0.50904 0.0
C1218 C -0.00455 0.29659 0.47337 0.0
C1219 C -0.01311 0.29609 0.50423 0.0
C1220 C -0.00877 0.29538 0.52359 0.0
C1221 C 0.97774 0.29646 0.46819 0.0
C1222 C 0.96447 0.29691 0.48122 0.0
C1223 C 0.96918 0.29621 0.49906 0.0
C1224 C 0.94569 0.29935 0.4767 0.0
C1225 C 0.97341 0.29613 0.44883 0.0
C1226 C 0.94025 0.31474 0.46806 0.0
C1227 C 0.92241 0.31788 0.46503 0.0
C1228 C 0.90964 0.30571 0.47069 0.0
C1229 C 0.91517 0.29013 0.47906 0.0
C1230 C 0.93304 0.28703 0.48212 0.0
H1231 H 0.98434 0.29038 0.441 0.0
H1232 H 0.96124 0.28846 0.44627 0.0
H1233 H 0.97129 0.30982 0.44417 0.0
H1234 H 0.94977 0.3246 0.4641 0.0
H1235 H 0.91863 0.33003 0.4586 0.0
H1236 H 0.68486 0.06002 0.48682 0.0
H1237 H 0.68978 0.02852 0.48184 0.0
H1238 H 0.63895 0.01691 0.50424 0.0
H1239 H 0.63393 0.04822 0.5094 0.0
H1240 H 0.66679 -0.00596 0.5154 0.0
H1241 H 0.66291 0.00144 0.44259 0.0
H1242 H 0.67863 0.0151 0.45384 0.0
H1243 H 0.65554 0.01842 0.4575 0.0
C1244 C 0.6748 0.05076 0.49085 0.0
C1245 C 0.65893 0.05666 0.49836 0.0
C1246 C 0.67761 0.03278 0.48792 0.0
C1247 C 0.66461 0.02047 0.49245 0.0
C1248 C 0.6491 0.02625 0.5006 0.0
H1249 H 0.63416 0.91832 0.45957 0.0
H1250 H 0.63879 0.94965 0.4651 0.0
C1251 C 0.64626 0.04416 0.5035 0.0
C1252 C 0.66665 0.0016 0.48812 0.0
H1253 H 0.66639 0.97274 0.45368 0.0
C1254 C 0.66694 -0.01066 0.50192 0.0
C1255 C 0.66665 -0.00439 0.4705 0.0
C1256 C 0.6658 0.00826 0.4552 0.0
C1257 C 0.6668 0.97116 0.49858 0.0
C1258 C 0.66656 0.96518 0.48096 0.0
C1259 C 0.6667 0.97744 0.46715 0.0
C1260 C 0.66458 0.9463 0.47664 0.0
C1261 C 0.66612 0.95852 0.51389 0.0
C1262 C 0.67774 0.93411 0.48096 0.0
C1263 C 0.67515 0.91614 0.47782 0.0
C1264 C 0.65934 0.91011 0.47029 0.0
C1265 C 0.64645 0.92248 0.46547 0.0
C1266 C 0.64908 0.9404 0.46858 0.0
H1267 H 0.66332 0.96533 0.52652 0.0
H1268 H 0.65588 0.94831 0.51169 0.0
H1269 H 0.67899 0.95173 0.51511 0.0
H1270 H 0.68991 0.93847 0.48696 0.0
H1271 H 0.68538 0.90698 0.48162 0.0
H1272 H 0.90807 0.69094 0.49069 0.0
H1273 H 0.93916 0.69735 0.48509 0.0
H1274 H 0.95339 0.64633 0.50557 0.0
H1275 H 0.92252 0.63988 0.51145 0.0
H1276 H 0.97572 0.67382 0.51665 0.0
H1277 H 0.96559 0.67365 0.44407 0.0
H1278 H 0.95232 0.68873 0.45658 0.0
H1279 H 0.94922 0.66542 0.45919 0.0
C1280 C 0.91783 0.68115 0.49418 0.0
C1281 C 0.91278 0.66481 0.50135 0.0
C1282 C 0.93557 0.68482 0.49089 0.0
C1283 C 0.9485 0.6722 0.49466 0.0
C1284 C 0.94358 0.65623 0.50252 0.0
H1285 H 0.04711 0.64138 0.45634 0.0
H1286 H 0.01639 0.64783 0.46285 0.0
C1287 C 0.9259 0.65255 0.50583 0.0
C1288 C 0.96711 0.67503 0.48972 0.0
H1289 H -0.00541 0.67657 0.4542 0.0
C1290 C 0.97989 0.67471 0.50303 0.0
C1291 C 0.97242 0.67604 0.4719 0.0
C1292 C 0.95924 0.67586 0.45705 0.0
C1293 C -0.0021 0.67468 0.49897 0.0
C1294 C 0.0032 0.67524 0.48113 0.0
C1295 C -0.00958 0.67627 0.46786 0.0
C1296 C 0.02176 0.67256 0.47593 0.0
C1297 C 0.01107 0.67302 0.51373 0.0
C1298 C 0.03492 0.68459 0.48073 0.0
C1299 C 0.05259 0.68092 0.47707 0.0
C1300 C 0.05733 0.66517 0.46851 0.0
C1301 C 0.04397 0.65357 0.46305 0.0
C1302 C 0.02638 0.65725 0.46671 0.0
H1303 H 0.00468 0.66981 0.52649 0.0
H1304 H 0.0209 0.66264 0.51069 0.0
H1305 H 0.01821 0.68568 0.51527 0.0
H1306 H 0.03156 0.69662 0.48761 0.0
H1307 H 0.06254 0.69018 0.48137 0.0
H1308 H 0.32717 0.04761 0.45524 0.0
H1309 H 0.32056 0.01657 0.45995 0.0
H1310 H 0.2714 0.03053 0.48463 0.0
H1311 H 0.27798 0.0618 0.48012 0.0
H1312 H 0.29175 0.00813 0.50479 0.0
H1313 H 0.28615 0.98244 0.43696 0.0
H1314 H 0.30579 -0.00481 0.43995 0.0
H1315 H 0.28463 0.00565 0.44201 0.0
C1316 C 0.3148 0.04413 0.46141 0.0
C1317 C 0.30314 0.05721 0.46736 0.0
C1318 C 0.31098 0.02634 0.46397 0.0
C1319 C 0.29538 0.02124 0.47243 0.0
C1320 C 0.28345 0.03421 0.47795 0.0
H1321 H 0.28041 0.90709 0.48456 0.0
H1322 H 0.27328 0.93807 0.47912 0.0
C1323 C 0.28723 0.05206 0.47534 0.0
C1324 C 0.29258 0.0025 0.477 0.0
H1325 H 0.29358 0.96117 0.45944 0.0
C1326 C 0.29178 -0.00214 0.49487 0.0
C1327 C 0.29237 -0.01087 0.46406 0.0
C1328 C 0.29209 -0.00664 0.44467 0.0
C1329 C 0.29197 0.98015 0.50015 0.0
C1330 C 0.29324 0.96682 0.48723 0.0
C1331 C 0.29283 0.97143 0.46934 0.0
C1332 C 0.29658 0.9482 0.49193 0.0
C1333 C 0.29123 0.9759 0.51952 0.0
C1334 C 0.31202 0.94368 0.50096 0.0
C1335 C 0.31616 0.92604 0.50407 0.0
C1336 C 0.30497 0.91255 0.4981 0.0
C1337 C 0.2893 0.91715 0.48938 0.0
C1338 C 0.2852 0.93483 0.48623 0.0
H1339 H 0.28466 -0.01342 0.52706 0.0
H1340 H 0.28412 0.96335 0.52195 0.0
H1341 H 0.30483 0.97454 0.52465 0.0
H1342 H 0.32118 0.95378 0.50514 0.0
H1343 H 0.32834 0.923 0.51078 0.0
H1344 H 0.49067 0.91204 0.28839 0.0
H1345 H 0.49756 0.94342 0.28596 0.0
H1346 H 0.4533 0.95577 0.31933 0.0
H1347 H 0.44681 0.92438 0.32244 0.0
H1348 H 0.48136 0.97243 0.27464 0.0
H1349 H 0.49275 0.97785 0.34639 0.0
H1350 H 0.48947 0.95697 0.33562 0.0
H1351 H 0.4709 0.97052 0.34142 0.0
C1352 C 0.4823 0.92146 0.29507 0.0
C1353 C 0.46836 0.91576 0.30583 0.0
C1354 C 0.48626 0.93939 0.29367 0.0
C1355 C 0.47625 0.9519 0.30286 0.0
C1356 C 0.46157 0.9463 0.3126 0.0
H1357 H 0.47992 0.0655 0.29026 0.0
H1358 H 0.47404 0.03406 0.28673 0.0
C1359 C 0.4578 0.92838 0.31427 0.0
C1360 C 0.48163 0.97068 0.30293 0.0
H1361 H 0.49184 0.00469 0.33039 0.0
C1362 C 0.48375 0.97949 0.28681 0.0
C1363 C 0.48517 0.97976 0.3188 0.0
C1364 C 0.48465 0.97074 0.33652 0.0
C1365 C 0.48896 -0.00275 0.28616 0.0
C1366 C 0.49158 0.00656 0.30209 0.0
C1367 C 0.48972 -0.00237 0.31816 0.0
C1368 C 0.49613 0.02558 0.30263 0.0
C1369 C 0.49196 0.00566 0.26842 0.0
C1370 C 0.51035 0.03136 0.31291 0.0
C1371 C 0.51343 0.04933 0.31534 0.0
C1372 C 0.50248 0.06188 0.30731 0.0
C1373 C 0.48869 0.05612 0.29643 0.0
C1374 C 0.48539 0.03812 0.29431 0.0
H1375 H 0.49527 -0.00435 0.25829 0.0
H1376 H 0.47971 0.01237 0.26417 0.0
H1377 H 0.50272 0.01554 0.26892 0.0
H1378 H 0.51882 0.02195 0.31947 0.0
H1379 H 0.52419 0.05339 0.32374 0.0
H1380 H 0.90714 0.49013 0.27879 0.0
H1381 H 0.93799 0.48423 0.27149 0.0
H1382 H 0.95418 0.50882 0.31999 0.0
H1383 H 0.92359 0.51501 0.32727 0.0
H1384 H 0.97562 0.51738 0.29106 0.0
H1385 H 0.96493 0.44505 0.29753 0.0
H1386 H 0.95137 0.45648 0.28187 0.0
H1387 H 0.94891 0.46095 0.30494 0.0
C1388 C 0.91729 0.4945 0.28779 0.0
C1389 C 0.91288 0.50286 0.30372 0.0
C1390 C 0.93488 0.49103 0.28362 0.0
C1391 C 0.9483 0.49582 0.29535 0.0
C1392 C 0.944 0.50496 0.31079 0.0
H1393 H 0.04673 0.45949 0.32787 0.0
H1394 H 0.01601 0.46558 0.32107 0.0
C1395 C 0.92647 0.50844 0.31495 0.0
C1396 C 0.96677 0.49049 0.29233 0.0
H1397 H -0.00607 0.4547 0.29342 0.0
C1398 C 0.97966 0.50368 0.29126 0.0
C1399 C 0.97191 0.47259 0.29275 0.0
C1400 C 0.95863 0.4579 0.29445 0.0
C1401 C -0.00237 0.49949 0.29138 0.0
C1402 C 0.00278 0.4816 0.29232 0.0
C1403 C -0.01012 0.46838 0.29259 0.0
C1404 C 0.02131 0.47649 0.2953 0.0
C1405 C 0.01095 0.51424 0.29157 0.0
C1406 C 0.03443 0.48018 0.28284 0.0
C1407 C 0.05209 0.47677 0.28671 0.0
C1408 C 0.05687 0.46956 0.3031 0.0
C1409 C 0.04356 0.46515 0.31518 0.0
C1410 C 0.02597 0.46857 0.3113 0.0
H1411 H 0.00471 0.5273 0.29372 0.0
H1412 H 0.02087 0.51205 0.30207 0.0
H1413 H 0.01795 0.51461 0.27877 0.0
H1414 H 0.03104 0.48603 0.27029 0.0
H1415 H 0.06201 0.48023 0.27707 0.0
H1416 H 0.47934 0.90661 0.68184 0.0
H1417 H 0.47132 0.93764 0.68529 0.0
H1418 H 0.51511 0.95269 0.6524 0.0
H1419 H 0.52275 0.92168 0.6483 0.0
H1420 H 0.48642 0.96751 0.6971 0.0
H1421 H 0.47428 0.97275 0.62545 0.0
H1422 H 0.47846 0.95198 0.63613 0.0
H1423 H 0.49644 0.96629 0.63025 0.0
C1424 C 0.4874 0.91655 0.67555 0.0
C1425 C 0.5015 0.91173 0.66456 0.0
C1426 C 0.4828 0.93427 0.67752 0.0
C1427 C 0.49232 0.94742 0.66868 0.0
C1428 C 0.50724 0.9427 0.65887 0.0
H1429 H 0.48602 0.06042 0.681 0.0
H1430 H 0.49191 0.02908 0.68513 0.0
C1431 C 0.51166 0.925 0.65663 0.0
C1432 C 0.48604 0.9659 0.66881 0.0
H1433 H 0.47433 -0.00044 0.64154 0.0
C1434 C 0.48366 0.97452 0.68498 0.0
C1435 C 0.48198 0.97487 0.65299 0.0
C1436 C 0.48273 0.96594 0.63525 0.0
C1437 C 0.47781 -0.00793 0.68573 0.0
C1438 C 0.47476 0.00134 0.66985 0.0
C1439 C 0.47677 -0.00747 0.65373 0.0
C1440 C 0.46986 0.02026 0.66936 0.0
C1441 C 0.47469 0.00033 0.70351 0.0
C1442 C 0.45559 0.02583 0.65903 0.0
C1443 C 0.4525 0.04374 0.65625 0.0
C1444 C 0.46349 0.05644 0.66397 0.0
C1445 C 0.47722 0.05091 0.67504 0.0
C1446 C 0.48053 0.03297 0.67752 0.0
H1447 H 0.4716 -0.00982 0.71359 0.0
H1448 H 0.48681 0.00726 0.70777 0.0
H1449 H 0.46373 0.00999 0.70309 0.0
H1450 H 0.44717 0.01628 0.6526 0.0
H1451 H 0.44178 0.04764 0.64772 0.0
H1452 H 0.90808 0.48039 0.6877 0.0
H1453 H 0.93935 0.486 0.69311 0.0
H1454 H 0.95232 0.46269 0.64302 0.0
H1455 H 0.92126 0.45683 0.63756 0.0
H1456 H 0.97514 0.45286 0.67081 0.0
H1457 H 0.96565 0.52547 0.6663 0.0
H1458 H 0.95238 0.51405 0.68223 0.0
H1459 H 0.94908 0.50999 0.6592 0.0
C1460 C 0.9176 0.47625 0.67792 0.0
C1461 C 0.91214 0.46832 0.6621 0.0
C1462 C 0.93544 0.47956 0.68101 0.0
C1463 C 0.94807 0.47502 0.66833 0.0
C1464 C 0.94274 0.46636 0.65294 0.0
H1465 H 0.0487 0.51106 0.63744 0.0
H1466 H 0.01762 0.5049 0.64262 0.0
C1467 C 0.92496 0.46306 0.64983 0.0
C1468 C 0.96677 0.47993 0.6705 0.0
H1469 H -0.00542 0.51526 0.67008 0.0
C1470 C 0.97943 0.46649 0.67089 0.0
C1471 C 0.97224 0.49775 0.67041 0.0
C1472 C 0.95919 0.5127 0.66939 0.0
C1473 C -0.00253 0.47038 0.67072 0.0
C1474 C 0.00294 0.48819 0.67038 0.0
C1475 C -0.00971 0.50164 0.67047 0.0
C1476 C 0.02166 0.49308 0.6682 0.0
C1477 C 0.01053 0.45542 0.67003 0.0
C1478 C 0.03416 0.48887 0.6811 0.0
C1479 C 0.05199 0.49236 0.67818 0.0
C1480 C 0.05759 0.50015 0.66232 0.0
C1481 C 0.04489 0.50497 0.64976 0.0
C1482 C 0.0271 0.50149 0.6527 0.0
H1483 H 0.00408 0.44259 0.66718 0.0
H1484 H 0.02069 0.45792 0.65983 0.0
H1485 H 0.01728 0.45432 0.68293 0.0
H1486 H 0.03015 0.48263 0.69327 0.0
H1487 H 0.06141 0.48856 0.68817 0.0
H1488 H 0.28144 0.47869 0.90792 0.0
H1489 H 0.2761 0.4851 0.93904 0.0
H1490 H 0.32674 0.46325 0.9523 0.0
H1491 H 0.33215 0.4566 0.92137 0.0
H1492 H 0.29917 0.4536 0.97566 0.0
H1493 H 0.30241 0.52593 0.96378 0.0
H1494 H 0.28664 0.5138 0.95097 0.0
H1495 H 0.30973 0.51005 0.94769 0.0
C1496 C 0.29136 0.47504 0.91747 0.0
C1497 C 0.30732 0.46729 0.91212 0.0
C1498 C 0.28831 0.4788 0.93523 0.0
C1499 C 0.30116 0.47491 0.94788 0.0
C1500 C 0.3167 0.46642 0.94269 0.0
H1501 H 0.3323 0.51412 0.04701 0.0
H1502 H 0.3268 0.50724 0.01616 0.0
C1503 C 0.31977 0.46267 0.92499 0.0
C1504 C 0.299 0.48039 0.96642 0.0
H1505 H 0.29894 0.5166 -0.00694 0.0
C1506 C 0.29887 0.46735 0.9795 0.0
C1507 C 0.2988 0.49837 0.9713 0.0
C1508 C 0.29953 0.5129 0.95776 0.0
C1509 C 0.29905 0.47183 -0.00259 0.0
C1510 C 0.29912 0.48981 0.00229 0.0
C1511 C 0.29875 0.50284 -0.01079 0.0
C1512 C 0.30137 0.49532 0.02082 0.0
C1513 C 0.30003 0.4573 0.01095 0.0
C1514 C 0.28863 0.49133 0.03357 0.0
C1515 C 0.29173 0.49524 0.05128 0.0
C1516 C 0.30762 0.50322 0.05649 0.0
C1517 C 0.31997 0.50789 0.04351 0.0
C1518 C 0.31685 0.504 0.02585 0.0
H1519 H 0.30298 0.44431 0.0049 0.0
H1520 H 0.31029 0.46027 0.02091 0.0
H1521 H 0.28722 0.45628 0.01788 0.0
H1522 H 0.27647 0.48488 0.02987 0.0
H1523 H 0.2819 0.49154 0.06092 0.0
H1524 H 0.49088 0.28051 0.90568 0.0
H1525 H 0.4849 0.27477 0.93682 0.0
H1526 H 0.50558 0.32592 0.95025 0.0
H1527 H 0.51182 0.33172 0.91931 0.0
H1528 H 0.5165 0.2986 0.97302 0.0
H1529 H 0.44395 0.29917 0.96286 0.0
H1530 H 0.45633 0.28387 0.9497 0.0
H1531 H 0.45915 0.30712 0.94643 0.0
C1532 C 0.49432 0.29048 0.91527 0.0
C1533 C 0.50169 0.30665 0.90997 0.0
C1534 C 0.49081 0.28719 0.93304 0.0
C1535 C 0.49455 0.30004 0.94576 0.0
C1536 C 0.50254 0.31587 0.9406 0.0
H1537 H 0.45648 0.3306 0.04494 0.0
H1538 H 0.46283 0.32453 0.01411 0.0
C1539 C 0.50607 0.31917 0.92289 0.0
C1540 C 0.48957 0.29749 0.9644 0.0
H1541 H 0.45405 0.29603 -0.00812 0.0
C1542 C 0.50287 0.29777 0.97718 0.0
C1543 C 0.47175 0.29656 0.96971 0.0
C1544 C 0.45691 0.29678 0.95652 0.0
C1545 C 0.49882 0.29777 -0.00481 0.0
C1546 C 0.48098 0.29722 0.0005 0.0
C1547 C 0.4677 0.29631 -0.01228 0.0
C1548 C 0.4758 0.29966 0.0191 0.0
C1549 C 0.51358 0.29932 0.00838 0.0
C1550 C 0.48058 0.28743 0.03208 0.0
C1551 C 0.477 0.29088 0.04981 0.0
C1552 C 0.46856 0.30662 0.0548 0.0
C1553 C 0.4631 0.31842 0.04162 0.0
C1554 C 0.46667 0.31495 0.02396 0.0
H1555 H 0.52633 0.3026 0.00201 0.0
H1556 H 0.51054 0.30961 0.01831 0.0
H1557 H 0.51513 0.2866 0.0154 0.0
H1558 H 0.48739 0.27541 0.02854 0.0
H1559 H 0.4813 0.28147 0.05962 0.0
H1560 H 0.69166 0.49155 0.90869 0.0
H1561 H 0.69817 0.48568 0.93973 0.0
H1562 H 0.64887 0.50952 0.95465 0.0
H1563 H 0.64238 0.51568 0.92388 0.0
H1564 H 0.67687 0.51866 0.97675 0.0
H1565 H 0.67233 0.44617 0.9663 0.0
H1566 H 0.68814 0.45782 0.95309 0.0
H1567 H 0.66507 0.46183 0.94999 0.0
C1568 C 0.68231 0.49575 0.9186 0.0
C1569 C 0.6664 0.50391 0.91378 0.0
C1570 C 0.68602 0.4923 0.93631 0.0
C1571 C 0.67385 0.4969 0.94942 0.0
C1572 C 0.6584 0.5058 0.94471 0.0
H1573 H 0.6412 0.45922 0.04794 0.0
H1574 H 0.6478 0.46581 0.01725 0.0
C1575 C 0.6547 0.50927 0.92708 0.0
C1576 C 0.67649 0.49171 0.96801 0.0
H1577 H 0.67576 0.45602 -0.00467 0.0
C1578 C 0.67692 0.50497 0.98085 0.0
C1579 C 0.67638 0.47382 0.97324 0.0
C1580 C 0.67534 0.45903 0.96 0.0
C1581 C 0.67653 0.50085 -0.00115 0.0
C1582 C 0.67598 0.48297 0.00408 0.0
C1583 C 0.67628 0.4697 -0.00877 0.0
C1584 C 0.67304 0.47783 0.02263 0.0
C1585 C 0.67568 0.51566 0.01207 0.0
C1586 C 0.68526 0.48204 0.0358 0.0
C1587 C 0.6815 0.47836 0.05344 0.0
C1588 C 0.66548 0.47032 0.05817 0.0
C1589 C 0.65362 0.46549 0.04482 0.0
C1590 C 0.65738 0.46921 0.02724 0.0
H1591 H 0.67306 0.52859 0.00574 0.0
H1592 H 0.66523 0.51312 0.02198 0.0
H1593 H 0.68843 0.51658 0.01911 0.0
H1594 H 0.69756 0.48843 0.03246 0.0
H1595 H 0.69097 0.48214 0.06339 0.0
H1596 H 0.48069 0.68797 0.90825 0.0
H1597 H 0.48665 0.69335 0.93947 0.0
H1598 H 0.46335 0.64326 0.95265 0.0
H1599 H 0.45717 0.63781 0.92164 0.0
H1600 H 0.45357 0.67134 0.97535 0.0
H1601 H 0.52605 0.66642 0.96581 0.0
H1602 H 0.51468 0.68228 0.95242 0.0
H1603 H 0.51056 0.6592 0.94934 0.0
C1604 C 0.47666 0.67818 0.91781 0.0
C1605 C 0.4686 0.66238 0.91242 0.0
C1606 C 0.48016 0.68125 0.93561 0.0
C1607 C 0.47567 0.66857 0.94828 0.0
C1608 C 0.46697 0.65317 0.94304 0.0
H1609 H 0.51122 0.63811 0.0492 0.0
H1610 H 0.50523 0.64309 0.01806 0.0
C1611 C 0.46349 0.65007 0.92529 0.0
C1612 C 0.4806 0.67082 0.96697 0.0
H1613 H 0.51588 0.67037 -0.00525 0.0
C1614 C 0.46718 0.67137 0.97963 0.0
C1615 C 0.49839 0.67067 0.97242 0.0
C1616 C 0.51331 0.66949 0.95936 0.0
C1617 C 0.47106 0.6713 -0.00232 0.0
C1618 C 0.48884 0.6709 0.00313 0.0
C1619 C 0.50227 0.67082 -0.00953 0.0
C1620 C 0.49369 0.66885 0.02187 0.0
C1621 C 0.4561 0.67081 0.01075 0.0
C1622 C 0.48958 0.68191 0.03426 0.0
C1623 C 0.49296 0.67911 0.05212 0.0
C1624 C 0.50055 0.6632 0.05787 0.0
C1625 C 0.50529 0.65047 0.04528 0.0
C1626 C 0.50191 0.6533 0.02746 0.0
H1627 H 0.44328 0.66799 0.00433 0.0
H1628 H 0.45853 0.66064 0.02097 0.0
H1629 H 0.4551 0.68377 0.01742 0.0
H1630 H 0.48348 0.69413 0.03014 0.0
H1631 H 0.48923 0.68923 0.06145 0.0
H1632 H 0.13732 0.24181 0.51163 0.0
H1633 H 0.1584 0.21753 0.50935 0.0
H1634 H 0.1834 0.24339 0.46536 0.0
H1635 H 0.16292 0.26806 0.46814 0.0
H1636 H 0.16738 0.1941 0.48508 0.0
H1637 H 0.22428 0.23776 0.49785 0.0
H1638 H 0.20188 0.24518 0.50018 0.0
H1639 H 0.21217 0.24458 0.47881 0.0
C1640 C 0.14726 0.24224 0.50141 0.0
C1641 C 0.14869 0.25691 0.49022 0.0
C1642 C 0.15928 0.22837 0.50012 0.0
C1643 C 0.17278 0.22888 0.4875 0.0
C1644 C 0.17347 0.243 0.47559 0.0
H1645 H 0.24076 0.14217 0.45697 0.0
H1646 H 0.21623 0.16276 0.46026 0.0
C1647 C 0.1617 0.25702 0.4771 0.0
C1648 C 0.18647 0.21498 0.48717 0.0
H1649 H 0.23088 0.20881 0.4879 0.0
C1650 C 0.18128 0.19727 0.48582 0.0
C1651 C 0.20457 0.21911 0.48856 0.0
C1652 C 0.21105 0.23767 0.49163 0.0
C1653 C 0.19373 0.18361 0.48542 0.0
C1654 C 0.21187 0.18785 0.4858 0.0
C1655 C 0.217 0.20554 0.48745 0.0
C1656 C 0.2259 0.17431 0.48447 0.0
C1657 C 0.18726 0.16482 0.485 0.0
C1658 C 0.2397 0.17415 0.49675 0.0
C1659 C 0.25396 0.16279 0.49458 0.0
C1660 C 0.25456 0.15117 0.48023 0.0
C1661 C 0.24051 0.15089 0.46825 0.0
C1662 C 0.22641 0.16255 0.47021 0.0
H1663 H 0.17386 0.16367 0.49075 0.0
H1664 H 0.18652 0.16031 0.47114 0.0
H1665 H 0.19622 0.15589 0.49231 0.0
H1666 H 0.23962 0.18311 0.50785 0.0
H1667 H 0.2646 0.16322 0.50405 0.0
H1668 H 0.70159 0.16912 0.47502 0.0
H1669 H 0.72835 0.18671 0.47241 0.0
H1670 H 0.75756 0.14662 0.50001 0.0
H1671 H 0.73073 0.12886 0.50273 0.0
H1672 H 0.76172 0.1812 0.51354 0.0
H1673 H 0.77235 0.17929 0.44147 0.0
H1674 H 0.75018 0.18491 0.44739 0.0
H1675 H 0.75867 0.16349 0.45286 0.0
C1676 C 0.71373 0.16393 0.48038 0.0
C1677 C 0.71406 0.14761 0.48909 0.0
C1678 C 0.72903 0.17395 0.47876 0.0
C1679 C 0.74494 0.16783 0.4858 0.0
C1680 C 0.7454 0.15147 0.49437 0.0
H1681 H 0.83784 0.23467 0.46844 0.0
H1682 H 0.82 0.20794 0.47172 0.0
C1683 C 0.73009 0.14136 0.4959 0.0
C1684 C 0.76067 0.17926 0.48528 0.0
H1685 H 0.78617 0.20316 0.45708 0.0
C1686 C 0.76732 0.18576 0.50122 0.0
C1687 C 0.76809 0.18498 0.4692 0.0
C1688 C 0.76208 0.17767 0.45176 0.0
C1689 C 0.78044 0.19875 0.50145 0.0
C1690 C 0.78687 0.20546 0.48533 0.0
C1691 C 0.78106 0.19811 0.46943 0.0
C1692 C 0.79834 0.22117 0.48461 0.0
C1693 C 0.78698 0.20552 0.51892 0.0
C1694 C 0.79199 0.2374 0.49072 0.0
C1695 C 0.80205 0.25264 0.48879 0.0
C1696 C 0.81864 0.25194 0.48066 0.0
C1697 C 0.82512 0.2356 0.4748 0.0
C1698 C 0.81498 0.22034 0.47666 0.0
H1699 H 0.78493 0.19568 0.52955 0.0
H1700 H 0.80117 0.20892 0.51827 0.0
H1701 H 0.77955 0.21759 0.52248 0.0
H1702 H 0.77902 0.23836 0.49657 0.0
H1703 H 0.79668 0.26502 0.49341 0.0
H1704 H 0.8396 0.73354 0.50108 0.0
H1705 H 0.82118 0.75982 0.49749 0.0
H1706 H 0.77997 0.72783 0.47515 0.0
H1707 H 0.79822 0.7016 0.47857 0.0
H1708 H 0.78726 0.76061 0.45686 0.0
H1709 H 0.777 0.76857 0.52906 0.0
H1710 H 0.79932 0.76717 0.52127 0.0
H1711 H 0.78515 0.74834 0.51959 0.0
C1712 C 0.82666 0.73214 0.49529 0.0
C1713 C 0.82029 0.71549 0.49023 0.0
C1714 C 0.81617 0.74714 0.4933 0.0
C1715 C 0.7992 0.74567 0.48622 0.0
C1716 C 0.79305 0.72918 0.48066 0.0
H1717 H 0.70175 0.79684 0.48999 0.0
H1718 H 0.72832 0.77904 0.49281 0.0
C1719 C 0.80347 0.71421 0.48268 0.0
C1720 C 0.78739 0.76108 0.48517 0.0
H1721 H 0.76129 0.78752 0.5104 0.0
C1722 C 0.78177 0.76674 0.46853 0.0
C1723 C 0.78025 0.76888 0.50047 0.0
C1724 C 0.7856 0.76294 0.51865 0.0
C1725 C 0.76866 0.77962 0.46678 0.0
C1726 C 0.76113 0.78702 0.4821 0.0
C1727 C 0.76723 0.78184 0.49872 0.0
C1728 C 0.74552 0.79854 0.48117 0.0
C1729 C 0.76226 0.78453 0.44864 0.0
C1730 C 0.74651 0.8155 0.47393 0.0
C1731 C 0.73131 0.82576 0.4723 0.0
C1732 C 0.71494 0.81913 0.47788 0.0
C1733 C 0.71414 0.80229 0.4855 0.0
C1734 C 0.7293 0.79212 0.48717 0.0
H1735 H 0.76793 0.77593 0.43826 0.0
H1736 H 0.74768 0.78365 0.44801 0.0
H1737 H 0.76603 0.79835 0.44574 0.0
H1738 H 0.75898 0.82071 0.46939 0.0
H1739 H 0.73232 0.83872 0.46643 0.0
H1740 H 0.13245 0.73242 0.46806 0.0
H1741 H 0.15169 0.75815 0.47129 0.0
H1742 H 0.19208 0.72514 0.49361 0.0
H1743 H 0.173 0.69942 0.49053 0.0
H1744 H 0.18577 0.75835 0.51168 0.0
H1745 H 0.19606 0.76529 0.4394 0.0
H1746 H 0.1737 0.76447 0.44714 0.0
H1747 H 0.18745 0.74538 0.44915 0.0
C1748 C 0.14538 0.73067 0.47377 0.0
C1749 C 0.15128 0.71388 0.47893 0.0
C1750 C 0.15635 0.74536 0.47555 0.0
C1751 C 0.17332 0.74345 0.48251 0.0
C1752 C 0.17901 0.72683 0.48818 0.0
H1753 H 0.27079 0.79675 0.47781 0.0
H1754 H 0.24496 0.77777 0.47531 0.0
C1755 C 0.16811 0.71216 0.48636 0.0
C1756 C 0.18555 0.75854 0.48337 0.0
H1757 H 0.21163 0.7847 0.45777 0.0
C1758 C 0.19127 0.76432 0.49993 0.0
C1759 C 0.19274 0.7661 0.46796 0.0
C1760 C 0.18732 0.75999 0.44986 0.0
C1761 C 0.20439 0.77722 0.5015 0.0
C1762 C 0.21182 0.78454 0.48608 0.0
C1763 C 0.20577 0.77909 0.46953 0.0
C1764 C 0.22702 0.79663 0.48687 0.0
C1765 C 0.21078 0.78237 0.51957 0.0
C1766 C 0.22536 0.81361 0.49393 0.0
C1767 C 0.24011 0.82452 0.49536 0.0
C1768 C 0.25672 0.81857 0.48975 0.0
C1769 C 0.2582 0.80169 0.48231 0.0
C1770 C 0.24346 0.79084 0.48083 0.0
H1771 H 0.20549 0.77359 0.53001 0.0
H1772 H 0.22538 0.78202 0.5201 0.0
H1773 H 0.20655 0.79605 0.52249 0.0
H1774 H 0.2127 0.81833 0.49848 0.0
H1775 H 0.23856 0.83749 0.5011 0.0
H1776 H 0.50065 0.1343 0.23717 0.0
H1777 H 0.49718 0.15274 0.2109 0.0
H1778 H 0.4754 0.19432 0.24284 0.0
H1779 H 0.47872 0.17604 0.26908 0.0
H1780 H 0.45701 0.18718 0.21008 0.0
H1781 H 0.52929 0.19667 0.20211 0.0
H1782 H 0.52136 0.17438 0.20363 0.0
H1783 H 0.51968 0.18869 0.22234 0.0
C1784 C 0.49499 0.14732 0.23856 0.0
C1785 C 0.49007 0.15378 0.25519 0.0
C1786 C 0.49308 0.15783 0.22357 0.0
C1787 C 0.48622 0.17491 0.22502 0.0
C1788 C 0.48075 0.18115 0.2415 0.0
H1789 H 0.491 0.2713 0.1701 0.0
H1790 H 0.49374 0.24561 0.18924 0.0
C1791 C 0.4827 0.17071 0.25647 0.0
C1792 C 0.48531 0.18672 0.2096 0.0
H1793 H 0.51084 0.21202 0.18263 0.0
C1794 C 0.46874 0.19245 0.20386 0.0
C1795 C 0.5007 0.1936 0.20171 0.0
C1796 C 0.51881 0.18817 0.20776 0.0
C1797 C 0.46715 0.20531 0.19071 0.0
C1798 C 0.48254 0.21247 0.18309 0.0
C1799 C 0.4991 0.20637 0.18847 0.0
C1800 C 0.48175 0.22753 0.17081 0.0
C1801 C 0.44907 0.21177 0.18565 0.0
C1802 C 0.47439 0.22573 0.154 0.0
C1803 C 0.47281 0.24041 0.14298 0.0
C1804 C 0.47857 0.25707 0.14868 0.0
C1805 C 0.48637 0.25867 0.16536 0.0
C1806 C 0.48799 0.24401 0.1763 0.0
H1807 H 0.43869 0.20672 0.19463 0.0
H1808 H 0.44866 0.2264 0.18574 0.0
H1809 H 0.44598 0.2073 0.1721 0.0
H1810 H 0.46969 0.21304 0.14949 0.0
H1811 H 0.46679 0.23876 0.13017 0.0
H1812 H 0.8374 0.50219 0.23898 0.0
H1813 H 0.81821 0.49904 0.21327 0.0
H1814 H 0.77818 0.47552 0.24595 0.0
H1815 H 0.79723 0.47853 0.27166 0.0
H1816 H 0.7849 0.45799 0.21252 0.0
H1817 H 0.7733 0.53023 0.20652 0.0
H1818 H 0.79581 0.52293 0.20729 0.0
H1819 H 0.78202 0.52036 0.22629 0.0
C1820 C 0.82456 0.49624 0.24066 0.0
C1821 C 0.81876 0.49071 0.25736 0.0
C1822 C 0.81362 0.49451 0.22599 0.0
C1823 C 0.79676 0.48723 0.22781 0.0
C1824 C 0.79116 0.48121 0.24433 0.0
H1825 H 0.69961 0.49054 0.17394 0.0
H1826 H 0.72523 0.49346 0.19309 0.0
C1827 C 0.80204 0.48298 0.259 0.0
C1828 C 0.78459 0.48634 0.21271 0.0
H1829 H 0.75829 0.5118 0.1867 0.0
C1830 C 0.77922 0.46973 0.20668 0.0
C1831 C 0.77718 0.50172 0.2053 0.0
C1832 C 0.78222 0.51986 0.21169 0.0
C1833 C 0.76626 0.46808 0.19366 0.0
C1834 C 0.75863 0.48346 0.18648 0.0
C1835 C 0.76431 0.50007 0.1922 0.0
C1836 C 0.74357 0.48253 0.17426 0.0
C1837 C 0.76025 0.44993 0.18822 0.0
C1838 C 0.74553 0.4757 0.15723 0.0
C1839 C 0.7309 0.47403 0.14621 0.0
C1840 C 0.71412 0.47915 0.15212 0.0
C1841 C 0.71234 0.4864 0.16903 0.0
C1842 C 0.72695 0.48813 0.17998 0.0
H1843 H 0.76564 0.43947 0.1969 0.0
H1844 H 0.74566 0.44912 0.18842 0.0
H1845 H 0.76468 0.44727 0.17456 0.0
H1846 H 0.75833 0.4715 0.15255 0.0
H1847 H 0.73268 0.46844 0.13322 0.0
H1848 H 0.51376 0.73082 0.13797 0.0
H1849 H 0.51209 0.75584 0.15827 0.0
H1850 H 0.4674 0.73196 0.18396 0.0
H1851 H 0.46954 0.70659 0.16429 0.0
H1852 H 0.48827 0.78024 0.16671 0.0
H1853 H 0.50034 0.7377 0.22457 0.0
H1854 H 0.50248 0.72972 0.20234 0.0
H1855 H 0.48116 0.73088 0.21268 0.0
C1856 C 0.50352 0.73099 0.14789 0.0
C1857 C 0.49195 0.71667 0.14978 0.0
C1858 C 0.50257 0.74528 0.15946 0.0
C1859 C 0.48993 0.74552 0.17294 0.0
C1860 C 0.47764 0.73176 0.17404 0.0
H1861 H 0.45883 0.83309 0.23888 0.0
H1862 H 0.46314 0.81269 0.21436 0.0
C1863 C 0.4788 0.71734 0.16274 0.0
C1864 C 0.48997 0.75976 0.18627 0.0
H1865 H 0.49046 0.76685 0.23054 0.0
C1866 C 0.4889 0.77736 0.18067 0.0
C1867 C 0.49125 0.75602 0.20446 0.0
C1868 C 0.49408 0.73757 0.21136 0.0
C1869 C 0.48855 0.7913 0.19283 0.0
C1870 C 0.48869 0.78745 0.21107 0.0
C1871 C 0.49019 0.76986 0.21658 0.0
C1872 C 0.48707 0.80123 0.22482 0.0
C1873 C 0.48833 0.80995 0.18597 0.0
C1874 C 0.4989 0.80147 0.23902 0.0
C1875 C 0.49611 0.8127 0.25327 0.0
C1876 C 0.48162 0.82414 0.25346 0.0
C1877 C 0.47021 0.82451 0.23895 0.0
C1878 C 0.47276 0.81295 0.22486 0.0
H1879 H 0.49442 0.81078 0.1727 0.0
H1880 H 0.4745 0.81446 0.18477 0.0
H1881 H 0.49543 0.81905 0.19492 0.0
H1882 H 0.51004 0.79257 0.23931 0.0
H1883 H 0.50515 0.81223 0.26428 0.0
H1884 H 0.13994 0.45809 0.23999 0.0
H1885 H 0.16097 0.4603 0.21567 0.0
H1886 H 0.18571 0.5047 0.24108 0.0
H1887 H 0.16529 0.50198 0.26579 0.0
H1888 H 0.1696 0.48449 0.19208 0.0
H1889 H 0.22683 0.47249 0.2354 0.0
H1890 H 0.20449 0.47002 0.24297 0.0
H1891 H 0.21461 0.49149 0.24222 0.0
C1892 C 0.14982 0.46836 0.24031 0.0
C1893 C 0.15119 0.4797 0.25486 0.0
C1894 C 0.16181 0.46962 0.22642 0.0
C1895 C 0.17521 0.48235 0.22679 0.0
C1896 C 0.17586 0.49438 0.24081 0.0
H1897 H 0.24225 0.51427 0.14017 0.0
H1898 H 0.21769 0.51013 0.16055 0.0
C1899 C 0.16413 0.4929 0.25485 0.0
C1900 C 0.18881 0.48273 0.21283 0.0
H1901 H 0.2332 0.48266 0.20646 0.0
C1902 C 0.18352 0.48395 0.19518 0.0
C1903 C 0.20695 0.48158 0.21687 0.0
C1904 C 0.21355 0.47862 0.23537 0.0
C1905 C 0.1959 0.4845 0.18146 0.0
C1906 C 0.21406 0.48444 0.18561 0.0
C1907 C 0.21929 0.48286 0.20325 0.0
C1908 C 0.22801 0.48613 0.17205 0.0
C1909 C 0.18935 0.48479 0.16273 0.0
C1910 C 0.24217 0.47423 0.17189 0.0
C1911 C 0.25645 0.47692 0.16067 0.0
C1912 C 0.2567 0.49138 0.14917 0.0
C1913 C 0.24227 0.50291 0.1488 0.0
C1914 C 0.22815 0.50046 0.16034 0.0
H1915 H 0.1761 0.47869 0.16166 0.0
H1916 H 0.18821 0.49865 0.15826 0.0
H1917 H 0.19846 0.47772 0.15375 0.0
H1918 H 0.24237 0.46308 0.18079 0.0
H1919 H 0.26739 0.46779 0.16114 0.0
H1920 H 0.46661 0.73236 0.83785 0.0
H1921 H 0.46975 0.75825 0.81877 0.0
H1922 H 0.49372 0.72588 0.77877 0.0
H1923 H 0.49073 0.70004 0.79767 0.0
H1924 H 0.51106 0.75926 0.78573 0.0
H1925 H 0.43901 0.76521 0.7736 0.0
H1926 H 0.4462 0.76438 0.79614 0.0
H1927 H 0.44878 0.74538 0.78234 0.0
C1928 C 0.47266 0.7308 0.82503 0.0
C1929 C 0.47832 0.71415 0.8192 0.0
C1930 C 0.47438 0.74557 0.81416 0.0
C1931 C 0.4818 0.74388 0.79734 0.0
C1932 C 0.48793 0.7274 0.79172 0.0
H1933 H 0.47934 0.79654 0.69957 0.0
H1934 H 0.47595 0.77788 0.72554 0.0
C1935 C 0.48617 0.71266 0.80252 0.0
C1936 C 0.48276 0.75904 0.7852 0.0
H1937 H 0.45756 0.78472 0.75834 0.0
C1938 C 0.49939 0.76505 0.77991 0.0
C1939 C 0.46746 0.76636 0.77759 0.0
C1940 C 0.44931 0.76 0.78256 0.0
C1941 C 0.50115 0.7779 0.76677 0.0
C1942 C 0.48586 0.78496 0.75889 0.0
C1943 C 0.46922 0.77932 0.76454 0.0
C1944 C 0.48693 0.79694 0.74361 0.0
C1945 C 0.51934 0.78324 0.76081 0.0
C1946 C 0.49392 0.81395 0.7453 0.0
C1947 C 0.49588 0.82468 0.73046 0.0
C1948 C 0.49086 0.81851 0.71375 0.0
C1949 C 0.4834 0.80164 0.71224 0.0
C1950 C 0.48141 0.79098 0.72706 0.0
H1951 H 0.52971 0.77457 0.76637 0.0
H1952 H 0.52025 0.78289 0.74623 0.0
H1953 H 0.52201 0.79695 0.76512 0.0
H1954 H 0.49807 0.81883 0.75803 0.0
H1955 H 0.50161 0.83765 0.73204 0.0
H1956 H 0.26618 0.50371 0.80824 0.0
H1957 H 0.24098 0.50853 0.78889 0.0
H1958 H 0.21677 0.461 0.80861 0.0
H1959 H 0.24151 0.45672 0.82871 0.0
H1960 H 0.2319 0.48924 0.76302 0.0
H1961 H 0.17487 0.49205 0.80806 0.0
H1962 H 0.19724 0.49314 0.8159 0.0
H1963 H 0.18717 0.47216 0.81119 0.0
C1964 C 0.2553 0.49449 0.80867 0.0
C1965 C 0.25575 0.47985 0.81993 0.0
C1966 C 0.24092 0.49725 0.79762 0.0
C1967 C 0.22684 0.48525 0.7974 0.0
C1968 C 0.22717 0.47074 0.80888 0.0
H1969 H 0.16463 0.46879 0.70383 0.0
H1970 H 0.18478 0.46637 0.72875 0.0
C1971 C 0.24139 0.46821 0.82025 0.0
C1972 C 0.21283 0.48699 0.78392 0.0
H1973 H 0.16836 0.48638 0.77758 0.0
C1974 C 0.21801 0.48882 0.76628 0.0
C1975 C 0.19468 0.48665 0.78812 0.0
C1976 C 0.18817 0.48609 0.80687 0.0
C1977 C 0.20563 0.49003 0.75272 0.0
C1978 C 0.18751 0.48856 0.75679 0.0
C1979 C 0.18226 0.48715 0.77445 0.0
C1980 C 0.17392 0.48866 0.74284 0.0
C1981 C 0.21215 0.4932 0.73421 0.0
C1982 C 0.16039 0.50124 0.74305 0.0
C1983 C 0.14855 0.50235 0.72902 0.0
C1984 C 0.15022 0.491 0.71451 0.0
C1985 C 0.16324 0.47788 0.71473 0.0
C1986 C 0.17482 0.47656 0.72889 0.0
H1987 H 0.22533 0.49955 0.73418 0.0
H1988 H 0.2134 0.48039 0.72729 0.0
H1989 H 0.20294 0.50169 0.72669 0.0
H1990 H 0.15936 0.5106 0.75376 0.0
H1991 H 0.1386 0.51255 0.72918 0.0
H1992 H 0.50304 0.16094 0.70074 0.0
H1993 H 0.5088 0.18059 0.72555 0.0
H1994 H 0.46218 0.16122 0.75168 0.0
H1995 H 0.457 0.14083 0.72735 0.0
H1996 H 0.49017 0.20663 0.73519 0.0
H1997 H 0.49453 0.16201 0.79241 0.0
H1998 H 0.49478 0.15394 0.77009 0.0
H1999 H 0.47422 0.15882 0.7809 0.0
C2000 C 0.49423 0.16066 0.71196 0.0
C2001 C 0.4796 0.1494 0.71219 0.0
C2002 C 0.49752 0.17188 0.72612 0.0
C2003 C 0.48606 0.17227 0.74063 0.0
C2004 C 0.47154 0.16081 0.74094 0.0
H2005 H 0.47112 0.26635 0.80251 0.0
H2006 H 0.46856 0.24143 0.78234 0.0
C2007 C 0.46849 0.14927 0.72696 0.0
C2008 C 0.48834 0.18586 0.75447 0.0
H2009 H 0.48882 0.19256 0.7989 0.0
C2010 C 0.4901 0.20348 0.74911 0.0
C2011 C 0.48848 0.1818 0.77265 0.0
C2012 C 0.4881 0.16309 0.77933 0.0
C2013 C 0.49164 0.21715 0.76136 0.0
C2014 C 0.49056 0.21323 0.77953 0.0
C2015 C 0.48928 0.19559 0.78495 0.0
C2016 C 0.49088 0.2273 0.79303 0.0
C2017 C 0.49472 0.23562 0.75462 0.0
C2018 C 0.50353 0.22707 0.80648 0.0
C2019 C 0.50469 0.24109 0.81835 0.0
C2020 C 0.49334 0.25561 0.81678 0.0
C2021 C 0.48021 0.25544 0.80381 0.0
C2022 C 0.47882 0.24128 0.79222 0.0
H2023 H 0.50089 0.2355 0.74136 0.0
H2024 H 0.48191 0.24252 0.75345 0.0
H2025 H 0.50331 0.24325 0.76364 0.0
H2026 H 0.51287 0.21634 0.80745 0.0
H2027 H 0.51492 0.2409 0.82826 0.0
H2028 H 0.72881 0.51469 0.82993 0.0
H2029 H 0.75293 0.51235 0.80868 0.0
H2030 H 0.72727 0.46781 0.78446 0.0
H2031 H 0.70275 0.47066 0.8051 0.0
H2032 H 0.77643 0.48814 0.80006 0.0
H2033 H 0.73273 0.4996 0.743 0.0
H2034 H 0.7253 0.50224 0.76536 0.0
H2035 H 0.72603 0.48069 0.75543 0.0
C2036 C 0.72838 0.50436 0.82011 0.0
C2037 C 0.71382 0.49302 0.81896 0.0
C2038 C 0.74216 0.50302 0.80799 0.0
C2039 C 0.74167 0.49021 0.79468 0.0
C2040 C 0.72764 0.47819 0.79423 0.0
H2041 H 0.82829 0.45856 0.72725 0.0
H2042 H 0.80784 0.46245 0.7518 0.0
C2043 C 0.7137 0.47974 0.8061 0.0
C2044 C 0.75555 0.48973 0.78097 0.0
H2045 H 0.76167 0.48957 0.73653 0.0
C2046 C 0.77324 0.48858 0.78615 0.0
C2047 C 0.75141 0.49073 0.76284 0.0
C2048 C 0.73285 0.49358 0.75633 0.0
C2049 C 0.78688 0.48801 0.77369 0.0
C2050 C 0.78264 0.48797 0.75555 0.0
C2051 C 0.76496 0.48944 0.75042 0.0
C2052 C 0.79614 0.48636 0.74152 0.0
C2053 C 0.80565 0.48783 0.78013 0.0
C2054 C 0.79619 0.49828 0.72737 0.0
C2055 C 0.80747 0.49575 0.7131 0.0
C2056 C 0.81912 0.48141 0.71283 0.0
C2057 C 0.81955 0.46983 0.72724 0.0
C2058 C 0.80797 0.47213 0.74135 0.0
H2059 H 0.80677 0.49394 0.79337 0.0
H2060 H 0.81021 0.47399 0.78124 0.0
H2061 H 0.81453 0.49496 0.77096 0.0
H2062 H 0.7872 0.50935 0.72719 0.0
H2063 H 0.80693 0.50491 0.70218 0.0
loop_
_geom_bond_atom_site_label_1
_geom_bond_atom_site_label_2
_geom_bond_distance
_geom_bond_site_symmetry_2
_ccdc_geom_bond_type
C0 O1 1.306 . S
C0 O3 1.160 . S
O1 C0 1.306 . S
O1 Cd2 2.228 . S
Cd2 O1 2.228 . S
Cd2 O6 2.273 . S
Cd2 O10 2.277 . S
O3 C0 1.160 . S
O3 Cd4 2.203 . S
Cd4 O3 2.203 . S
Cd4 O6 2.411 . S
Cd4 O7 2.333 . S
Cd4 O8 2.352 . S
Cd4 O12 2.277 . S
Cd4 O13 2.356 . S
C5 O10 1.209 . S
C5 O12 1.226 . S
O6 Cd2 2.273 . S
O6 Cd4 2.411 . S
O6 C9 1.320 . S
O7 Cd4 2.333 . S
O7 C9 1.214 . S
O8 Cd4 2.352 . S
O8 C11 1.258 . S
C9 O6 1.320 . S
C9 O7 1.214 . S
O10 Cd2 2.277 . S
O10 C5 1.209 . S
C11 O8 1.258 . S
C11 O13 1.282 . S
O12 Cd4 2.277 . S
O12 C5 1.226 . S
O13 Cd4 2.356 . S
O13 C11 1.282 . S
C14 O15 1.306 . S
C14 O17 1.160 . S
O15 C14 1.306 . S
O15 Cd16 2.228 . S
Cd16 O15 2.228 . S
Cd16 O20 2.273 . S
Cd16 O24 2.277 . S
O17 C14 1.160 . S
O17 Cd18 2.203 . S
Cd18 O17 2.203 . S
Cd18 O20 2.411 . S
Cd18 O21 2.333 . S
Cd18 O22 2.352 . S
Cd18 O26 2.277 . S
Cd18 O27 2.356 . S
C19 O24 1.209 . S
C19 O26 1.226 . S
O20 Cd16 2.273 . S
O20 Cd18 2.411 . S
O20 C23 1.320 . S
O21 Cd18 2.333 . S
O21 C23 1.214 . S
O22 Cd18 2.352 . S
O22 C25 1.258 . S
C23 O20 1.320 . S
C23 O21 1.214 . S
O24 Cd16 2.277 . S
O24 C19 1.209 . S
C25 O22 1.258 . S
C25 O27 1.282 . S
O26 Cd18 2.277 . S
O26 C19 1.226 . S
O27 Cd18 2.356 . S
O27 C25 1.282 . S
C28 O29 1.306 . S
C28 O31 1.160 . S
O29 C28 1.306 . S
O29 Cd30 2.228 . S
Cd30 O29 2.228 . S
Cd30 O34 2.273 . S
Cd30 O38 2.277 . S
O31 C28 1.160 . S
O31 Cd32 2.203 . S
Cd32 O31 2.203 . S
Cd32 O34 2.411 . S
Cd32 O35 2.333 . S
Cd32 O36 2.352 . S
Cd32 O40 2.277 . S
Cd32 O41 2.356 . S
C33 O38 1.209 . S
C33 O40 1.226 . S
O34 Cd30 2.273 . S
O34 Cd32 2.411 . S
O34 C37 1.320 . S
O35 Cd32 2.333 . S
O35 C37 1.214 . S
O36 Cd32 2.352 . S
O36 C39 1.258 . S
C37 O34 1.320 . S
C37 O35 1.214 . S
O38 Cd30 2.277 . S
O38 C33 1.209 . S
C39 O36 1.258 . S
C39 O41 1.282 . S
O40 Cd32 2.277 . S
O40 C33 1.226 . S
O41 Cd32 2.356 . S
O41 C39 1.282 . S
C42 O43 1.306 . S
C42 O45 1.160 . S
O43 C42 1.306 . S
O43 Cd44 2.228 . S
Cd44 O43 2.228 . S
Cd44 O48 2.273 . S
Cd44 O52 2.277 . S
O45 C42 1.160 . S
O45 Cd46 2.203 . S
Cd46 O45 2.203 . S
Cd46 O48 2.411 . S
Cd46 O49 2.333 . S
Cd46 O50 2.352 . S
Cd46 O54 2.277 . S
Cd46 O55 2.356 . S
C47 O52 1.209 . S
C47 O54 1.226 . S
O48 Cd44 2.273 . S
O48 Cd46 2.411 . S
O48 C51 1.320 . S
O49 Cd46 2.333 . S
O49 C51 1.214 . S
O50 Cd46 2.352 . S
O50 C53 1.258 . S
C51 O48 1.320 . S
C51 O49 1.214 . S
O52 Cd44 2.277 . S
O52 C47 1.209 . S
C53 O50 1.258 . S
C53 O55 1.282 . S
O54 Cd46 2.277 . S
O54 C47 1.226 . S
O55 Cd46 2.356 . S
O55 C53 1.282 . S
C56 O57 1.306 . S
C56 O59 1.160 . S
O57 C56 1.306 . S
O57 Cd58 2.228 . S
Cd58 O57 2.228 . S
Cd58 O62 2.273 . S
Cd58 O66 2.277 . S
O59 C56 1.160 . S
O59 Cd60 2.203 . S
Cd60 O59 2.203 . S
Cd60 O62 2.411 . S
Cd60 O63 2.333 . S
Cd60 O64 2.352 . S
Cd60 O68 2.277 . S
Cd60 O69 2.356 . S
C61 O66 1.209 . S
C61 O68 1.226 . S
O62 Cd58 2.273 . S
O62 Cd60 2.411 . S
O62 C65 1.320 . S
O63 Cd60 2.333 . S
O63 C65 1.214 . S
O64 Cd60 2.352 . S
O64 C67 1.258 . S
C65 O62 1.320 . S
C65 O63 1.214 . S
O66 Cd58 2.277 . S
O66 C61 1.209 . S
C67 O64 1.258 . S
C67 O69 1.282 . S
O68 Cd60 2.277 . S
O68 C61 1.226 . S
O69 Cd60 2.356 . S
O69 C67 1.282 . S
C70 O71 1.306 . S
C70 O73 1.160 . S
O71 C70 1.306 . S
O71 Cd72 2.228 . S
Cd72 O71 2.228 . S
Cd72 O76 2.273 . S
Cd72 O80 2.277 . S
O73 C70 1.160 . S
O73 Cd74 2.203 . S
Cd74 O73 2.203 . S
Cd74 O76 2.411 . S
Cd74 O77 2.333 . S
Cd74 O78 2.352 . S
Cd74 O82 2.277 . S
Cd74 O83 2.356 . S
C75 O80 1.209 . S
C75 O82 1.226 . S
O76 Cd72 2.273 . S
O76 Cd74 2.411 . S
O76 C79 1.320 . S
O77 Cd74 2.333 . S
O77 C79 1.214 . S
O78 Cd74 2.352 . S
O78 C81 1.258 . S
C79 O76 1.320 . S
C79 O77 1.214 . S
O80 Cd72 2.277 . S
O80 C75 1.209 . S
C81 O78 1.258 . S
C81 O83 1.282 . S
O82 Cd74 2.277 . S
O82 C75 1.226 . S
O83 Cd74 2.356 . S
O83 C81 1.282 . S
C84 O85 1.306 . S
C84 O87 1.160 . S
O85 C84 1.306 . S
O85 Cd86 2.228 . S
Cd86 O85 2.228 . S
Cd86 O90 2.273 . S
Cd86 O94 2.277 . S
O87 C84 1.160 . S
O87 Cd88 2.203 . S
Cd88 O87 2.203 . S
Cd88 O90 2.411 . S
Cd88 O91 2.333 . S
Cd88 O92 2.352 . S
Cd88 O96 2.277 . S
Cd88 O97 2.356 . S
C89 O94 1.209 . S
C89 O96 1.226 . S
O90 Cd86 2.273 . S
O90 Cd88 2.411 . S
O90 C93 1.320 . S
O91 Cd88 2.333 . S
O91 C93 1.214 . S
O92 Cd88 2.352 . S
O92 C95 1.258 . S
C93 O90 1.320 . S
C93 O91 1.214 . S
O94 Cd86 2.277 . S
O94 C89 1.209 . S
C95 O92 1.258 . S
C95 O97 1.282 . S
O96 Cd88 2.277 . S
O96 C89 1.226 . S
O97 Cd88 2.356 . S
O97 C95 1.282 . S
C98 O99 1.306 . S
C98 O101 1.160 . S
O99 C98 1.306 . S
O99 Cd100 2.228 . S
Cd100 O99 2.228 . S
Cd100 O104 2.273 . S
Cd100 O108 2.277 . S
O101 C98 1.160 . S
O101 Cd102 2.203 . S
Cd102 O101 2.203 . S
Cd102 O104 2.411 . S
Cd102 O105 2.333 . S
Cd102 O106 2.352 . S
Cd102 O110 2.277 . S
Cd102 O111 2.356 . S
C103 O108 1.209 . S
C103 O110 1.226 . S
O104 Cd100 2.273 . S
O104 Cd102 2.411 . S
O104 C107 1.320 . S
O105 Cd102 2.333 . S
O105 C107 1.214 . S
O106 Cd102 2.352 . S
O106 C109 1.258 . S
C107 O104 1.320 . S
C107 O105 1.214 . S
O108 Cd100 2.277 . S
O108 C103 1.209 . S
C109 O106 1.258 . S
C109 O111 1.282 . S
O110 Cd102 2.277 . S
O110 C103 1.226 . S
O111 Cd102 2.356 . S
O111 C109 1.282 . S
C112 O113 1.306 . S
C112 O115 1.160 . S
O113 C112 1.306 . S
O113 Cd114 2.228 . S
Cd114 O113 2.228 . S
Cd114 O118 2.273 . S
Cd114 O122 2.277 . S
O115 C112 1.160 . S
O115 Cd116 2.203 . S
Cd116 O115 2.203 . S
Cd116 O118 2.411 . S
Cd116 O119 2.333 . S
Cd116 O120 2.352 . S
Cd116 O124 2.277 . S
Cd116 O125 2.356 . S
C117 O122 1.209 . S
C117 O124 1.226 . S
O118 Cd114 2.273 . S
O118 Cd116 2.411 . S
O118 C121 1.320 . S
O119 Cd116 2.333 . S
O119 C121 1.214 . S
O120 Cd116 2.352 . S
O120 C123 1.258 . S
C121 O118 1.320 . S
C121 O119 1.214 . S
O122 Cd114 2.277 . S
O122 C117 1.209 . S
C123 O120 1.258 . S
C123 O125 1.282 . S
O124 Cd116 2.277 . S
O124 C117 1.226 . S
O125 Cd116 2.356 . S
O125 C123 1.282 . S
C126 O127 1.306 . S
C126 O129 1.160 . S
O127 C126 1.306 . S
O127 Cd128 2.228 . S
Cd128 O127 2.228 . S
Cd128 O132 2.273 . S
Cd128 O136 2.277 . S
O129 C126 1.160 . S
O129 Cd130 2.203 . S
Cd130 O129 2.203 . S
Cd130 O132 2.411 . S
Cd130 O133 2.333 . S
Cd130 O134 2.352 . S
Cd130 O138 2.277 . S
Cd130 O139 2.356 . S
C131 O136 1.209 . S
C131 O138 1.226 . S
O132 Cd128 2.273 . S
O132 Cd130 2.411 . S
O132 C135 1.320 . S
O133 Cd130 2.333 . S
O133 C135 1.214 . S
O134 Cd130 2.352 . S
O134 C137 1.258 . S
C135 O132 1.320 . S
C135 O133 1.214 . S
O136 Cd128 2.277 . S
O136 C131 1.209 . S
C137 O134 1.258 . S
C137 O139 1.282 . S
O138 Cd130 2.277 . S
O138 C131 1.226 . S
O139 Cd130 2.356 . S
O139 C137 1.282 . S
C140 O141 1.306 . S
C140 O143 1.160 . S
O141 C140 1.306 . S
O141 Cd142 2.228 . S
Cd142 O141 2.228 . S
Cd142 O146 2.273 . S
Cd142 O150 2.277 . S
O143 C140 1.160 . S
O143 Cd144 2.203 . S
Cd144 O143 2.203 . S
Cd144 O146 2.411 . S
Cd144 O147 2.333 . S
Cd144 O148 2.352 . S
Cd144 O152 2.277 . S
Cd144 O153 2.356 . S
C145 O150 1.209 . S
C145 O152 1.226 . S
O146 Cd142 2.273 . S
O146 Cd144 2.411 . S
O146 C149 1.320 . S
O147 Cd144 2.333 . S
O147 C149 1.214 . S
O148 Cd144 2.352 . S
O148 C151 1.258 . S
C149 O146 1.320 . S
C149 O147 1.214 . S
O150 Cd142 2.277 . S
O150 C145 1.209 . S
C151 O148 1.258 . S
C151 O153 1.282 . S
O152 Cd144 2.277 . S
O152 C145 1.226 . S
O153 Cd144 2.356 . S
O153 C151 1.282 . S
C154 O155 1.306 . S
C154 O157 1.160 . S
O155 C154 1.306 . S
O155 Cd156 2.228 . S
Cd156 O155 2.228 . S
Cd156 O160 2.273 . S
Cd156 O164 2.277 . S
O157 C154 1.160 . S
O157 Cd158 2.203 . S
Cd158 O157 2.203 . S
Cd158 O160 2.411 . S
Cd158 O161 2.333 . S
Cd158 O162 2.352 . S
Cd158 O166 2.277 . S
Cd158 O167 2.356 . S
C159 O164 1.209 . S
C159 O166 1.226 . S
O160 Cd156 2.273 . S
O160 Cd158 2.411 . S
O160 C163 1.320 . S
O161 Cd158 2.333 . S
O161 C163 1.214 . S
O162 Cd158 2.352 . S
O162 C165 1.258 . S
C163 O160 1.320 . S
C163 O161 1.214 . S
O164 Cd156 2.277 . S
O164 C159 1.209 . S
C165 O162 1.258 . S
C165 O167 1.282 . S
O166 Cd158 2.277 . S
O166 C159 1.226 . S
O167 Cd158 2.356 . S
O167 C165 1.282 . S
C168 O169 1.306 . S
C168 O171 1.160 . S
O169 C168 1.306 . S
O169 Cd170 2.228 . S
Cd170 O169 2.228 . S
Cd170 O174 2.273 . S
Cd170 O178 2.277 . S
O171 C168 1.160 . S
O171 Cd172 2.203 . S
Cd172 O171 2.203 . S
Cd172 O174 2.411 . S
Cd172 O175 2.333 . S
Cd172 O176 2.352 . S
Cd172 O180 2.277 . S
Cd172 O181 2.356 . S
C173 O178 1.209 . S
C173 O180 1.226 . S
O174 Cd170 2.273 . S
O174 Cd172 2.411 . S
O174 C177 1.320 . S
O175 Cd172 2.333 . S
O175 C177 1.214 . S
O176 Cd172 2.352 . S
O176 C179 1.258 . S
C177 O174 1.320 . S
C177 O175 1.214 . S
O178 Cd170 2.277 . S
O178 C173 1.209 . S
C179 O176 1.258 . S
C179 O181 1.282 . S
O180 Cd172 2.277 . S
O180 C173 1.226 . S
O181 Cd172 2.356 . S
O181 C179 1.282 . S
C182 O183 1.306 . S
C182 O185 1.160 . S
O183 C182 1.306 . S
O183 Cd184 2.228 . S
Cd184 O183 2.228 . S
Cd184 O188 2.273 . S
Cd184 O192 2.277 . S
O185 C182 1.160 . S
O185 Cd186 2.203 . S
Cd186 O185 2.203 . S
Cd186 O188 2.411 . S
Cd186 O189 2.333 . S
Cd186 O190 2.352 . S
Cd186 O194 2.277 . S
Cd186 O195 2.356 . S
C187 O192 1.209 . S
C187 O194 1.226 . S
O188 Cd184 2.273 . S
O188 Cd186 2.411 . S
O188 C191 1.320 . S
O189 Cd186 2.333 . S
O189 C191 1.214 . S
O190 Cd186 2.352 . S
O190 C193 1.258 . S
C191 O188 1.320 . S
C191 O189 1.214 . S
O192 Cd184 2.277 . S
O192 C187 1.209 . S
C193 O190 1.258 . S
C193 O195 1.282 . S
O194 Cd186 2.277 . S
O194 C187 1.226 . S
O195 Cd186 2.356 . S
O195 C193 1.282 . S
C196 O197 1.306 . S
C196 O199 1.160 . S
O197 C196 1.306 . S
O197 Cd198 2.228 . S
Cd198 O197 2.228 . S
Cd198 O202 2.273 . S
Cd198 O206 2.277 . S
O199 C196 1.160 . S
O199 Cd200 2.203 . S
Cd200 O199 2.203 . S
Cd200 O202 2.411 . S
Cd200 O203 2.333 . S
Cd200 O204 2.352 . S
Cd200 O208 2.277 . S
Cd200 O209 2.356 . S
C201 O206 1.209 . S
C201 O208 1.226 . S
O202 Cd198 2.273 . S
O202 Cd200 2.411 . S
O202 C205 1.320 . S
O203 Cd200 2.333 . S
O203 C205 1.214 . S
O204 Cd200 2.352 . S
O204 C207 1.258 . S
C205 O202 1.320 . S
C205 O203 1.214 . S
O206 Cd198 2.277 . S
O206 C201 1.209 . S
C207 O204 1.258 . S
C207 O209 1.282 . S
O208 Cd200 2.277 . S
O208 C201 1.226 . S
O209 Cd200 2.356 . S
O209 C207 1.282 . S
C210 O211 1.306 . S
C210 O213 1.160 . S
O211 C210 1.306 . S
O211 Cd212 2.228 . S
Cd212 O211 2.228 . S
Cd212 O216 2.273 . S
Cd212 O220 2.277 . S
O213 C210 1.160 . S
O213 Cd214 2.203 . S
Cd214 O213 2.203 . S
Cd214 O216 2.411 . S
Cd214 O217 2.333 . S
Cd214 O218 2.352 . S
Cd214 O222 2.277 . S
Cd214 O223 2.356 . S
C215 O220 1.209 . S
C215 O222 1.226 . S
O216 Cd212 2.273 . S
O216 Cd214 2.411 . S
O216 C219 1.320 . S
O217 Cd214 2.333 . S
O217 C219 1.214 . S
O218 Cd214 2.352 . S
O218 C221 1.258 . S
C219 O216 1.320 . S
C219 O217 1.214 . S
O220 Cd212 2.277 . S
O220 C215 1.209 . S
C221 O218 1.258 . S
C221 O223 1.282 . S
O222 Cd214 2.277 . S
O222 C215 1.226 . S
O223 Cd214 2.356 . S
O223 C221 1.282 . S
C224 O225 1.306 . S
C224 O227 1.160 . S
O225 C224 1.306 . S
O225 Cd226 2.228 . S
Cd226 O225 2.228 . S
Cd226 O230 2.273 . S
Cd226 O234 2.277 . S
O227 C224 1.160 . S
O227 Cd228 2.203 . S
Cd228 O227 2.203 . S
Cd228 O230 2.411 . S
Cd228 O231 2.333 . S
Cd228 O232 2.352 . S
Cd228 O236 2.277 . S
Cd228 O237 2.356 . S
C229 O234 1.209 . S
C229 O236 1.226 . S
O230 Cd226 2.273 . S
O230 Cd228 2.411 . S
O230 C233 1.320 . S
O231 Cd228 2.333 . S
O231 C233 1.214 . S
O232 Cd228 2.352 . S
O232 C235 1.258 . S
C233 O230 1.320 . S
C233 O231 1.214 . S
O234 Cd226 2.277 . S
O234 C229 1.209 . S
C235 O232 1.258 . S
C235 O237 1.282 . S
O236 Cd228 2.277 . S
O236 C229 1.226 . S
O237 Cd228 2.356 . S
O237 C235 1.282 . S
C238 O239 1.306 . S
C238 O241 1.160 . S
O239 C238 1.306 . S
O239 Cd240 2.228 . S
Cd240 O239 2.228 . S
Cd240 O244 2.273 . S
Cd240 O248 2.277 . S
O241 C238 1.160 . S
O241 Cd242 2.203 . S
Cd242 O241 2.203 . S
Cd242 O244 2.411 . S
Cd242 O245 2.333 . S
Cd242 O246 2.352 . S
Cd242 O250 2.277 . S
Cd242 O251 2.356 . S
C243 O248 1.209 . S
C243 O250 1.226 . S
O244 Cd240 2.273 . S
O244 Cd242 2.411 . S
O244 C247 1.320 . S
O245 Cd242 2.333 . S
O245 C247 1.214 . S
O246 Cd242 2.352 . S
O246 C249 1.258 . S
C247 O244 1.320 . S
C247 O245 1.214 . S
O248 Cd240 2.277 . S
O248 C243 1.209 . S
C249 O246 1.258 . S
C249 O251 1.282 . S
O250 Cd242 2.277 . S
O250 C243 1.226 . S
O251 Cd242 2.356 . S
O251 C249 1.282 . S
C252 O253 1.306 . S
C252 O255 1.160 . S
O253 C252 1.306 . S
O253 Cd254 2.228 . S
Cd254 O253 2.228 . S
Cd254 O258 2.273 . S
Cd254 O262 2.277 . S
O255 C252 1.160 . S
O255 Cd256 2.203 . S
Cd256 O255 2.203 . S
Cd256 O258 2.411 . S
Cd256 O259 2.333 . S
Cd256 O260 2.352 . S
Cd256 O264 2.277 . S
Cd256 O265 2.356 . S
C257 O262 1.209 . S
C257 O264 1.226 . S
O258 Cd254 2.273 . S
O258 Cd256 2.411 . S
O258 C261 1.320 . S
O259 Cd256 2.333 . S
O259 C261 1.214 . S
O260 Cd256 2.352 . S
O260 C263 1.258 . S
C261 O258 1.320 . S
C261 O259 1.214 . S
O262 Cd254 2.277 . S
O262 C257 1.209 . S
C263 O260 1.258 . S
C263 O265 1.282 . S
O264 Cd256 2.277 . S
O264 C257 1.226 . S
O265 Cd256 2.356 . S
O265 C263 1.282 . S
C266 O267 1.306 . S
C266 O269 1.160 . S
O267 C266 1.306 . S
O267 Cd268 2.228 . S
Cd268 O267 2.228 . S
Cd268 O272 2.273 . S
Cd268 O276 2.277 . S
O269 C266 1.160 . S
O269 Cd270 2.203 . S
Cd270 O269 2.203 . S
Cd270 O272 2.411 . S
Cd270 O273 2.333 . S
Cd270 O274 2.352 . S
Cd270 O278 2.277 . S
Cd270 O279 2.356 . S
C271 O276 1.209 . S
C271 O278 1.226 . S
O272 Cd268 2.273 . S
O272 Cd270 2.411 . S
O272 C275 1.320 . S
O273 Cd270 2.333 . S
O273 C275 1.214 . S
O274 Cd270 2.352 . S
O274 C277 1.258 . S
C275 O272 1.320 . S
C275 O273 1.214 . S
O276 Cd268 2.277 . S
O276 C271 1.209 . S
C277 O274 1.258 . S
C277 O279 1.282 . S
O278 Cd270 2.277 . S
O278 C271 1.226 . S
O279 Cd270 2.356 . S
O279 C277 1.282 . S
C280 O281 1.306 . S
C280 O283 1.160 . S
O281 C280 1.306 . S
O281 Cd282 2.228 . S
Cd282 O281 2.228 . S
Cd282 O286 2.273 . S
Cd282 O290 2.277 . S
O283 C280 1.160 . S
O283 Cd284 2.203 . S
Cd284 O283 2.203 . S
Cd284 O286 2.411 . S
Cd284 O287 2.333 . S
Cd284 O288 2.352 . S
Cd284 O292 2.277 . S
Cd284 O293 2.356 . S
C285 O290 1.209 . S
C285 O292 1.226 . S
O286 Cd282 2.273 . S
O286 Cd284 2.411 . S
O286 C289 1.320 . S
O287 Cd284 2.333 . S
O287 C289 1.214 . S
O288 Cd284 2.352 . S
O288 C291 1.258 . S
C289 O286 1.320 . S
C289 O287 1.214 . S
O290 Cd282 2.277 . S
O290 C285 1.209 . S
C291 O288 1.258 . S
C291 O293 1.282 . S
O292 Cd284 2.277 . S
O292 C285 1.226 . S
O293 Cd284 2.356 . S
O293 C291 1.282 . S
C294 O295 1.306 . S
C294 O297 1.160 . S
O295 C294 1.306 . S
O295 Cd296 2.228 . S
Cd296 O295 2.228 . S
Cd296 O300 2.273 . S
Cd296 O304 2.277 . S
O297 C294 1.160 . S
O297 Cd298 2.203 . S
Cd298 O297 2.203 . S
Cd298 O300 2.411 . S
Cd298 O301 2.333 . S
Cd298 O302 2.352 . S
Cd298 O306 2.277 . S
Cd298 O307 2.356 . S
C299 O304 1.209 . S
C299 O306 1.226 . S
O300 Cd296 2.273 . S
O300 Cd298 2.411 . S
O300 C303 1.320 . S
O301 Cd298 2.333 . S
O301 C303 1.214 . S
O302 Cd298 2.352 . S
O302 C305 1.258 . S
C303 O300 1.320 . S
C303 O301 1.214 . S
O304 Cd296 2.277 . S
O304 C299 1.209 . S
C305 O302 1.258 . S
C305 O307 1.282 . S
O306 Cd298 2.277 . S
O306 C299 1.226 . S
O307 Cd298 2.356 . S
O307 C305 1.282 . S
C308 O309 1.306 . S
C308 O311 1.160 . S
O309 C308 1.306 . S
O309 Cd310 2.228 . S
Cd310 O309 2.228 . S
Cd310 O314 2.273 . S
Cd310 O318 2.277 . S
O311 C308 1.160 . S
O311 Cd312 2.203 . S
Cd312 O311 2.203 . S
Cd312 O314 2.411 . S
Cd312 O315 2.333 . S
Cd312 O316 2.352 . S
Cd312 O320 2.277 . S
Cd312 O321 2.356 . S
C313 O318 1.209 . S
C313 O320 1.226 . S
O314 Cd310 2.273 . S
O314 Cd312 2.411 . S
O314 C317 1.320 . S
O315 Cd312 2.333 . S
O315 C317 1.214 . S
O316 Cd312 2.352 . S
O316 C319 1.258 . S
C317 O314 1.320 . S
C317 O315 1.214 . S
O318 Cd310 2.277 . S
O318 C313 1.209 . S
C319 O316 1.258 . S
C319 O321 1.282 . S
O320 Cd312 2.277 . S
O320 C313 1.226 . S
O321 Cd312 2.356 . S
O321 C319 1.282 . S
C322 O323 1.306 . S
C322 O325 1.160 . S
O323 C322 1.306 . S
O323 Cd324 2.228 . S
Cd324 O323 2.228 . S
Cd324 O328 2.273 . S
Cd324 O332 2.277 . S
O325 C322 1.160 . S
O325 Cd326 2.203 . S
Cd326 O325 2.203 . S
Cd326 O328 2.411 . S
Cd326 O329 2.333 . S
Cd326 O330 2.352 . S
Cd326 O334 2.277 . S
Cd326 O335 2.356 . S
C327 O332 1.209 . S
C327 O334 1.226 . S
O328 Cd324 2.273 . S
O328 Cd326 2.411 . S
O328 C331 1.320 . S
O329 Cd326 2.333 . S
O329 C331 1.214 . S
O330 Cd326 2.352 . S
O330 C333 1.258 . S
C331 O328 1.320 . S
C331 O329 1.214 . S
O332 Cd324 2.277 . S
O332 C327 1.209 . S
C333 O330 1.258 . S
C333 O335 1.282 . S
O334 Cd326 2.277 . S
O334 C327 1.226 . S
O335 Cd326 2.356 . S
O335 C333 1.282 . S
H336 C344 0.929 . S
H337 C346 0.930 . S
H338 C348 0.930 . S
H339 C351 0.929 . S
H340 C354 0.930 . S
H341 C356 0.960 . S
H342 C356 0.960 . S
H343 C356 0.960 . S
C344 H336 0.929 . S
C344 C345 1.377 . S
C344 C346 1.384 . S
C345 C344 1.377 . S
C345 C351 1.390 . S
C346 H337 0.930 . S
C346 C344 1.384 . S
C346 C347 1.372 . S
C347 C346 1.372 . S
C347 C348 1.400 . S
C347 C352 1.490 . S
C348 H338 0.930 . S
C348 C347 1.400 . S
C348 C351 1.386 . S
H349 C365 0.930 . S
H350 C366 0.931 . S
C351 H339 0.929 . S
C351 C345 1.390 . S
C351 C348 1.386 . S
C352 C347 1.490 . S
C352 C354 1.395 . S
C352 C355 1.403 . S
H353 C359 0.930 . S
C354 H340 0.930 . S
C354 C352 1.395 . S
C354 C357 1.403 . S
C355 C352 1.403 . S
C355 C356 1.524 . S
C355 C359 1.400 . S
C356 H341 0.960 . S
C356 H342 0.960 . S
C356 H343 0.960 . S
C356 C355 1.524 . S
C357 C354 1.403 . S
C357 C358 1.392 . S
C357 C361 1.495 . S
C358 C357 1.392 . S
C358 C359 1.385 . S
C358 C360 1.478 . S
C359 H353 0.930 . S
C359 C355 1.400 . S
C359 C358 1.385 . S
C360 C358 1.478 . S
C360 C362 1.381 . S
C360 C366 1.383 . S
C361 C357 1.495 . S
C361 H367 0.959 . S
C361 H368 0.961 . S
C361 H369 0.960 . S
C362 C360 1.381 . S
C362 C363 1.394 . S
C362 H370 0.930 . S
C363 C362 1.394 . S
C363 C364 1.383 . S
C363 H371 0.929 . S
C364 C363 1.383 . S
C364 C365 1.377 . S
C365 H349 0.930 . S
C365 C364 1.377 . S
C365 C366 1.379 . S
C366 H350 0.931 . S
C366 C360 1.383 . S
C366 C365 1.379 . S
H367 C361 0.959 . S
H368 C361 0.961 . S
H369 C361 0.960 . S
H370 C362 0.930 . S
H371 C363 0.929 . S
H372 C380 0.929 . S
H373 C382 0.930 . S
H374 C384 0.930 . S
H375 C387 0.929 . S
H376 C390 0.930 . S
H377 C392 0.960 . S
H378 C392 0.960 . S
H379 C392 0.960 . S
C380 H372 0.929 . S
C380 C381 1.377 . S
C380 C382 1.384 . S
C381 C380 1.377 . S
C381 C387 1.390 . S
C382 H373 0.930 . S
C382 C380 1.384 . S
C382 C383 1.372 . S
C383 C382 1.372 . S
C383 C384 1.400 . S
C383 C388 1.490 . S
C384 H374 0.930 . S
C384 C383 1.400 . S
C384 C387 1.386 . S
H385 C401 0.930 . S
H386 C402 0.931 . S
C387 H375 0.929 . S
C387 C381 1.390 . S
C387 C384 1.386 . S
C388 C383 1.490 . S
C388 C390 1.395 . S
C388 C391 1.403 . S
H389 C395 0.930 . S
C390 H376 0.930 . S
C390 C388 1.395 . S
C390 C393 1.403 . S
C391 C388 1.403 . S
C391 C392 1.524 . S
C391 C395 1.400 . S
C392 H377 0.960 . S
C392 H378 0.960 . S
C392 H379 0.960 . S
C392 C391 1.524 . S
C393 C390 1.403 . S
C393 C394 1.392 . S
C393 C397 1.495 . S
C394 C393 1.392 . S
C394 C395 1.385 . S
C394 C396 1.478 . S
C395 H389 0.930 . S
C395 C391 1.400 . S
C395 C394 1.385 . S
C396 C394 1.478 . S
C396 C398 1.381 . S
C396 C402 1.383 . S
C397 C393 1.495 . S
C397 H403 0.959 . S
C397 H404 0.961 . S
C397 H405 0.960 . S
C398 C396 1.381 . S
C398 C399 1.394 . S
C398 H406 0.930 . S
C399 C398 1.394 . S
C399 C400 1.383 . S
C399 H407 0.929 . S
C400 C399 1.383 . S
C400 C401 1.377 . S
C401 H385 0.930 . S
C401 C400 1.377 . S
C401 C402 1.379 . S
C402 H386 0.931 . S
C402 C396 1.383 . S
C402 C401 1.379 . S
H403 C397 0.959 . S
H404 C397 0.961 . S
H405 C397 0.960 . S
H406 C398 0.930 . S
H407 C399 0.929 . S
H408 C416 0.929 . S
H409 C418 0.930 . S
H410 C420 0.930 . S
H411 C423 0.929 . S
H412 C426 0.930 . S
H413 C428 0.960 . S
H414 C428 0.960 . S
H415 C428 0.960 . S
C416 H408 0.929 . S
C416 C417 1.377 . S
C416 C418 1.384 . S
C417 C416 1.377 . S
C417 C423 1.390 . S
C418 H409 0.930 . S
C418 C416 1.384 . S
C418 C419 1.372 . S
C419 C418 1.372 . S
C419 C420 1.400 . S
C419 C424 1.490 . S
C420 H410 0.930 . S
C420 C419 1.400 . S
C420 C423 1.386 . S
H421 C437 0.930 . S
H422 C438 0.931 . S
C423 H411 0.929 . S
C423 C417 1.390 . S
C423 C420 1.386 . S
C424 C419 1.490 . S
C424 C426 1.395 . S
C424 C427 1.403 . S
H425 C431 0.930 . S
C426 H412 0.930 . S
C426 C424 1.395 . S
C426 C429 1.403 . S
C427 C424 1.403 . S
C427 C428 1.524 . S
C427 C431 1.400 . S
C428 H413 0.960 . S
C428 H414 0.960 . S
C428 H415 0.960 . S
C428 C427 1.524 . S
C429 C426 1.403 . S
C429 C430 1.392 . S
C429 C433 1.495 . S
C430 C429 1.392 . S
C430 C431 1.385 . S
C430 C432 1.478 . S
C431 H425 0.930 . S
C431 C427 1.400 . S
C431 C430 1.385 . S
C432 C430 1.478 . S
C432 C434 1.381 . S
C432 C438 1.383 . S
C433 C429 1.495 . S
C433 H439 0.959 . S
C433 H440 0.961 . S
C433 H441 0.960 . S
C434 C432 1.381 . S
C434 C435 1.394 . S
C434 H442 0.930 . S
C435 C434 1.394 . S
C435 C436 1.383 . S
C435 H443 0.929 . S
C436 C435 1.383 . S
C436 C437 1.377 . S
C437 H421 0.930 . S
C437 C436 1.377 . S
C437 C438 1.379 . S
C438 H422 0.931 . S
C438 C432 1.383 . S
C438 C437 1.379 . S
H439 C433 0.959 . S
H440 C433 0.961 . S
H441 C433 0.960 . S
H442 C434 0.930 . S
H443 C435 0.929 . S
H444 C452 0.929 . S
H445 C454 0.930 . S
H446 C456 0.930 . S
H447 C459 0.929 . S
H448 C462 0.930 . S
H449 C464 0.960 . S
H450 C464 0.960 . S
H451 C464 0.960 . S
C452 H444 0.929 . S
C452 C453 1.377 . S
C452 C454 1.384 . S
C453 C452 1.377 . S
C453 C459 1.390 . S
C454 H445 0.930 . S
C454 C452 1.384 . S
C454 C455 1.372 . S
C455 C454 1.372 . S
C455 C456 1.400 . S
C455 C460 1.490 . S
C456 H446 0.930 . S
C456 C455 1.400 . S
C456 C459 1.386 . S
H457 C473 0.930 . S
H458 C474 0.931 . S
C459 H447 0.929 . S
C459 C453 1.390 . S
C459 C456 1.386 . S
C460 C455 1.490 . S
C460 C462 1.395 . S
C460 C463 1.403 . S
H461 C467 0.930 . S
C462 H448 0.930 . S
C462 C460 1.395 . S
C462 C465 1.403 . S
C463 C460 1.403 . S
C463 C464 1.524 . S
C463 C467 1.400 . S
C464 H449 0.960 . S
C464 H450 0.960 . S
C464 H451 0.960 . S
C464 C463 1.524 . S
C465 C462 1.403 . S
C465 C466 1.392 . S
C465 C469 1.495 . S
C466 C465 1.392 . S
C466 C467 1.385 . S
C466 C468 1.478 . S
C467 H461 0.930 . S
C467 C463 1.400 . S
C467 C466 1.385 . S
C468 C466 1.478 . S
C468 C470 1.381 . S
C468 C474 1.383 . S
C469 C465 1.495 . S
C469 H475 0.959 . S
C469 H476 0.961 . S
C469 H477 0.960 . S
C470 C468 1.381 . S
C470 C471 1.394 . S
C470 H478 0.930 . S
C471 C470 1.394 . S
C471 C472 1.383 . S
C471 H479 0.929 . S
C472 C471 1.383 . S
C472 C473 1.377 . S
C473 H457 0.930 . S
C473 C472 1.377 . S
C473 C474 1.379 . S
C474 H458 0.931 . S
C474 C468 1.383 . S
C474 C473 1.379 . S
H475 C469 0.959 . S
H476 C469 0.961 . S
H477 C469 0.960 . S
H478 C470 0.930 . S
H479 C471 0.929 . S
H480 C488 0.929 . S
H481 C490 0.930 . S
H482 C492 0.930 . S
H483 C495 0.929 . S
H484 C498 0.930 . S
H485 C500 0.960 . S
H486 C500 0.960 . S
H487 C500 0.960 . S
C488 H480 0.929 . S
C488 C489 1.377 . S
C488 C490 1.384 . S
C489 C488 1.377 . S
C489 C495 1.390 . S
C490 H481 0.930 . S
C490 C488 1.384 . S
C490 C491 1.372 . S
C491 C490 1.372 . S
C491 C492 1.400 . S
C491 C496 1.490 . S
C492 H482 0.930 . S
C492 C491 1.400 . S
C492 C495 1.386 . S
H493 C509 0.930 . S
H494 C510 0.931 . S
C495 H483 0.929 . S
C495 C489 1.390 . S
C495 C492 1.386 . S
C496 C491 1.490 . S
C496 C498 1.395 . S
C496 C499 1.403 . S
H497 C503 0.930 . S
C498 H484 0.930 . S
C498 C496 1.395 . S
C498 C501 1.403 . S
C499 C496 1.403 . S
C499 C500 1.524 . S
C499 C503 1.400 . S
C500 H485 0.960 . S
C500 H486 0.960 . S
C500 H487 0.960 . S
C500 C499 1.524 . S
C501 C498 1.403 . S
C501 C502 1.392 . S
C501 C505 1.495 . S
C502 C501 1.392 . S
C502 C503 1.385 . S
C502 C504 1.478 . S
C503 H497 0.930 . S
C503 C499 1.400 . S
C503 C502 1.385 . S
C504 C502 1.478 . S
C504 C506 1.381 . S
C504 C510 1.383 . S
C505 C501 1.495 . S
C505 H511 0.959 . S
C505 H512 0.961 . S
C505 H513 0.960 . S
C506 C504 1.381 . S
C506 C507 1.394 . S
C506 H514 0.930 . S
C507 C506 1.394 . S
C507 C508 1.383 . S
C507 H515 0.929 . S
C508 C507 1.383 . S
C508 C509 1.377 . S
C509 H493 0.930 . S
C509 C508 1.377 . S
C509 C510 1.379 . S
C510 H494 0.931 . S
C510 C504 1.383 . S
C510 C509 1.379 . S
H511 C505 0.959 . S
H512 C505 0.961 . S
H513 C505 0.960 . S
H514 C506 0.930 . S
H515 C507 0.929 . S
H516 C524 0.929 . S
H517 C526 0.930 . S
H518 C528 0.930 . S
H519 C531 0.929 . S
H520 C534 0.930 . S
H521 C536 0.960 . S
H522 C536 0.960 . S
H523 C536 0.960 . S
C524 H516 0.929 . S
C524 C525 1.377 . S
C524 C526 1.384 . S
C525 C524 1.377 . S
C525 C531 1.390 . S
C526 H517 0.930 . S
C526 C524 1.384 . S
C526 C527 1.372 . S
C527 C526 1.372 . S
C527 C528 1.400 . S
C527 C532 1.490 . S
C528 H518 0.930 . S
C528 C527 1.400 . S
C528 C531 1.386 . S
H529 C545 0.930 . S
H530 C546 0.931 . S
C531 H519 0.929 . S
C531 C525 1.390 . S
C531 C528 1.386 . S
C532 C527 1.490 . S
C532 C534 1.395 . S
C532 C535 1.403 . S
H533 C539 0.930 . S
C534 H520 0.930 . S
C534 C532 1.395 . S
C534 C537 1.403 . S
C535 C532 1.403 . S
C535 C536 1.524 . S
C535 C539 1.400 . S
C536 H521 0.960 . S
C536 H522 0.960 . S
C536 H523 0.960 . S
C536 C535 1.524 . S
C537 C534 1.403 . S
C537 C538 1.392 . S
C537 C541 1.495 . S
C538 C537 1.392 . S
C538 C539 1.385 . S
C538 C540 1.478 . S
C539 H533 0.930 . S
C539 C535 1.400 . S
C539 C538 1.385 . S
C540 C538 1.478 . S
C540 C542 1.381 . S
C540 C546 1.383 . S
C541 C537 1.495 . S
C541 H547 0.959 . S
C541 H548 0.961 . S
C541 H549 0.960 . S
C542 C540 1.381 . S
C542 C543 1.394 . S
C542 H550 0.930 . S
C543 C542 1.394 . S
C543 C544 1.383 . S
C543 H551 0.929 . S
C544 C543 1.383 . S
C544 C545 1.377 . S
C545 H529 0.930 . S
C545 C544 1.377 . S
C545 C546 1.379 . S
C546 H530 0.931 . S
C546 C540 1.383 . S
C546 C545 1.379 . S
H547 C541 0.959 . S
H548 C541 0.961 . S
H549 C541 0.960 . S
H550 C542 0.930 . S
H551 C543 0.929 . S
H552 C560 0.929 . S
H553 C562 0.930 . S
H554 C564 0.930 . S
H555 C567 0.929 . S
H556 C570 0.930 . S
H557 C572 0.960 . S
H558 C572 0.960 . S
H559 C572 0.960 . S
C560 H552 0.929 . S
C560 C561 1.377 . S
C560 C562 1.384 . S
C561 C560 1.377 . S
C561 C567 1.390 . S
C562 H553 0.930 . S
C562 C560 1.384 . S
C562 C563 1.372 . S
C563 C562 1.372 . S
C563 C564 1.400 . S
C563 C568 1.490 . S
C564 H554 0.930 . S
C564 C563 1.400 . S
C564 C567 1.386 . S
H565 C581 0.930 . S
H566 C582 0.931 . S
C567 H555 0.929 . S
C567 C561 1.390 . S
C567 C564 1.386 . S
C568 C563 1.490 . S
C568 C570 1.395 . S
C568 C571 1.403 . S
H569 C575 0.930 . S
C570 H556 0.930 . S
C570 C568 1.395 . S
C570 C573 1.403 . S
C571 C568 1.403 . S
C571 C572 1.524 . S
C571 C575 1.400 . S
C572 H557 0.960 . S
C572 H558 0.960 . S
C572 H559 0.960 . S
C572 C571 1.524 . S
C573 C570 1.403 . S
C573 C574 1.392 . S
C573 C577 1.495 . S
C574 C573 1.392 . S
C574 C575 1.385 . S
C574 C576 1.478 . S
C575 H569 0.930 . S
C575 C571 1.400 . S
C575 C574 1.385 . S
C576 C574 1.478 . S
C576 C578 1.381 . S
C576 C582 1.383 . S
C577 C573 1.495 . S
C577 H583 0.959 . S
C577 H584 0.961 . S
C577 H585 0.960 . S
C578 C576 1.381 . S
C578 C579 1.394 . S
C578 H586 0.930 . S
C579 C578 1.394 . S
C579 C580 1.383 . S
C579 H587 0.929 . S
C580 C579 1.383 . S
C580 C581 1.377 . S
C581 H565 0.930 . S
C581 C580 1.377 . S
C581 C582 1.379 . S
C582 H566 0.931 . S
C582 C576 1.383 . S
C582 C581 1.379 . S
H583 C577 0.959 . S
H584 C577 0.961 . S
H585 C577 0.960 . S
H586 C578 0.930 . S
H587 C579 0.929 . S
H588 C596 0.929 . S
H589 C598 0.930 . S
H590 C600 0.930 . S
H591 C603 0.929 . S
H592 C606 0.930 . S
H593 C608 0.960 . S
H594 C608 0.960 . S
H595 C608 0.960 . S
C596 H588 0.929 . S
C596 C597 1.377 . S
C596 C598 1.384 . S
C597 C596 1.377 . S
C597 C603 1.390 . S
C598 H589 0.930 . S
C598 C596 1.384 . S
C598 C599 1.372 . S
C599 C598 1.372 . S
C599 C600 1.400 . S
C599 C604 1.490 . S
C600 H590 0.930 . S
C600 C599 1.400 . S
C600 C603 1.386 . S
H601 C617 0.930 . S
H602 C618 0.931 . S
C603 H591 0.929 . S
C603 C597 1.390 . S
C603 C600 1.386 . S
C604 C599 1.490 . S
C604 C606 1.395 . S
C604 C607 1.403 . S
H605 C611 0.930 . S
C606 H592 0.930 . S
C606 C604 1.395 . S
C606 C609 1.403 . S
C607 C604 1.403 . S
C607 C608 1.524 . S
C607 C611 1.400 . S
C608 H593 0.960 . S
C608 H594 0.960 . S
C608 H595 0.960 . S
C608 C607 1.524 . S
C609 C606 1.403 . S
C609 C610 1.392 . S
C609 C613 1.495 . S
C610 C609 1.392 . S
C610 C611 1.385 . S
C610 C612 1.478 . S
C611 H605 0.930 . S
C611 C607 1.400 . S
C611 C610 1.385 . S
C612 C610 1.478 . S
C612 C614 1.381 . S
C612 C618 1.383 . S
C613 C609 1.495 . S
C613 H619 0.959 . S
C613 H620 0.961 . S
C613 H621 0.960 . S
C614 C612 1.381 . S
C614 C615 1.394 . S
C614 H622 0.930 . S
C615 C614 1.394 . S
C615 C616 1.383 . S
C615 H623 0.929 . S
C616 C615 1.383 . S
C616 C617 1.377 . S
C617 H601 0.930 . S
C617 C616 1.377 . S
C617 C618 1.379 . S
C618 H602 0.931 . S
C618 C612 1.383 . S
C618 C617 1.379 . S
H619 C613 0.959 . S
H620 C613 0.961 . S
H621 C613 0.960 . S
H622 C614 0.930 . S
H623 C615 0.929 . S
H624 C632 0.929 . S
H625 C634 0.930 . S
H626 C636 0.930 . S
H627 C639 0.929 . S
H628 C642 0.930 . S
H629 C644 0.960 . S
H630 C644 0.960 . S
H631 C644 0.960 . S
C632 H624 0.929 . S
C632 C633 1.377 . S
C632 C634 1.384 . S
C633 C632 1.377 . S
C633 C639 1.390 . S
C634 H625 0.930 . S
C634 C632 1.384 . S
C634 C635 1.372 . S
C635 C634 1.372 . S
C635 C636 1.400 . S
C635 C640 1.490 . S
C636 H626 0.930 . S
C636 C635 1.400 . S
C636 C639 1.386 . S
H637 C653 0.930 . S
H638 C654 0.931 . S
C639 H627 0.929 . S
C639 C633 1.390 . S
C639 C636 1.386 . S
C640 C635 1.490 . S
C640 C642 1.395 . S
C640 C643 1.403 . S
H641 C647 0.930 . S
C642 H628 0.930 . S
C642 C640 1.395 . S
C642 C645 1.403 . S
C643 C640 1.403 . S
C643 C644 1.524 . S
C643 C647 1.400 . S
C644 H629 0.960 . S
C644 H630 0.960 . S
C644 H631 0.960 . S
C644 C643 1.524 . S
C645 C642 1.403 . S
C645 C646 1.392 . S
C645 C649 1.495 . S
C646 C645 1.392 . S
C646 C647 1.385 . S
C646 C648 1.478 . S
C647 H641 0.930 . S
C647 C643 1.400 . S
C647 C646 1.385 . S
C648 C646 1.478 . S
C648 C650 1.381 . S
C648 C654 1.383 . S
C649 C645 1.495 . S
C649 H655 0.959 . S
C649 H656 0.961 . S
C649 H657 0.960 . S
C650 C648 1.381 . S
C650 C651 1.394 . S
C650 H658 0.930 . S
C651 C650 1.394 . S
C651 C652 1.383 . S
C651 H659 0.929 . S
C652 C651 1.383 . S
C652 C653 1.377 . S
C653 H637 0.930 . S
C653 C652 1.377 . S
C653 C654 1.379 . S
C654 H638 0.931 . S
C654 C648 1.383 . S
C654 C653 1.379 . S
H655 C649 0.959 . S
H656 C649 0.961 . S
H657 C649 0.960 . S
H658 C650 0.930 . S
H659 C651 0.929 . S
H660 C668 0.929 . S
H661 C670 0.930 . S
H662 C672 0.930 . S
H663 C675 0.929 . S
H664 C678 0.930 . S
H665 C680 0.960 . S
H666 C680 0.960 . S
H667 C680 0.960 . S
C668 H660 0.929 . S
C668 C669 1.377 . S
C668 C670 1.384 . S
C669 C668 1.377 . S
C669 C675 1.390 . S
C670 H661 0.930 . S
C670 C668 1.384 . S
C670 C671 1.372 . S
C671 C670 1.372 . S
C671 C672 1.400 . S
C671 C676 1.490 . S
C672 H662 0.930 . S
C672 C671 1.400 . S
C672 C675 1.386 . S
H673 C689 0.930 . S
H674 C690 0.931 . S
C675 H663 0.929 . S
C675 C669 1.390 . S
C675 C672 1.386 . S
C676 C671 1.490 . S
C676 C678 1.395 . S
C676 C679 1.403 . S
H677 C683 0.930 . S
C678 H664 0.930 . S
C678 C676 1.395 . S
C678 C681 1.403 . S
C679 C676 1.403 . S
C679 C680 1.524 . S
C679 C683 1.400 . S
C680 H665 0.960 . S
C680 H666 0.960 . S
C680 H667 0.960 . S
C680 C679 1.524 . S
C681 C678 1.403 . S
C681 C682 1.392 . S
C681 C685 1.495 . S
C682 C681 1.392 . S
C682 C683 1.385 . S
C682 C684 1.478 . S
C683 H677 0.930 . S
C683 C679 1.400 . S
C683 C682 1.385 . S
C684 C682 1.478 . S
C684 C686 1.381 . S
C684 C690 1.383 . S
C685 C681 1.495 . S
C685 H691 0.959 . S
C685 H692 0.961 . S
C685 H693 0.960 . S
C686 C684 1.381 . S
C686 C687 1.394 . S
C686 H694 0.930 . S
C687 C686 1.394 . S
C687 C688 1.383 . S
C687 H695 0.929 . S
C688 C687 1.383 . S
C688 C689 1.377 . S
C689 H673 0.930 . S
C689 C688 1.377 . S
C689 C690 1.379 . S
C690 H674 0.931 . S
C690 C684 1.383 . S
C690 C689 1.379 . S
H691 C685 0.959 . S
H692 C685 0.961 . S
H693 C685 0.960 . S
H694 C686 0.930 . S
H695 C687 0.929 . S
H696 C704 0.929 . S
H697 C706 0.930 . S
H698 C708 0.930 . S
H699 C711 0.929 . S
H700 C714 0.930 . S
H701 C716 0.960 . S
H702 C716 0.960 . S
H703 C716 0.960 . S
C704 H696 0.929 . S
C704 C705 1.377 . S
C704 C706 1.384 . S
C705 C704 1.377 . S
C705 C711 1.390 . S
C706 H697 0.930 . S
C706 C704 1.384 . S
C706 C707 1.372 . S
C707 C706 1.372 . S
C707 C708 1.400 . S
C707 C712 1.490 . S
C708 H698 0.930 . S
C708 C707 1.400 . S
C708 C711 1.386 . S
H709 C725 0.930 . S
H710 C726 0.931 . S
C711 H699 0.929 . S
C711 C705 1.390 . S
C711 C708 1.386 . S
C712 C707 1.490 . S
C712 C714 1.395 . S
C712 C715 1.403 . S
H713 C719 0.930 . S
C714 H700 0.930 . S
C714 C712 1.395 . S
C714 C717 1.403 . S
C715 C712 1.403 . S
C715 C716 1.524 . S
C715 C719 1.400 . S
C716 H701 0.960 . S
C716 H702 0.960 . S
C716 H703 0.960 . S
C716 C715 1.524 . S
C717 C714 1.403 . S
C717 C718 1.392 . S
C717 C721 1.495 . S
C718 C717 1.392 . S
C718 C719 1.385 . S
C718 C720 1.478 . S
C719 H713 0.930 . S
C719 C715 1.400 . S
C719 C718 1.385 . S
C720 C718 1.478 . S
C720 C722 1.381 . S
C720 C726 1.383 . S
C721 C717 1.495 . S
C721 H727 0.959 . S
C721 H728 0.961 . S
C721 H729 0.960 . S
C722 C720 1.381 . S
C722 C723 1.394 . S
C722 H730 0.930 . S
C723 C722 1.394 . S
C723 C724 1.383 . S
C723 H731 0.929 . S
C724 C723 1.383 . S
C724 C725 1.377 . S
C725 H709 0.930 . S
C725 C724 1.377 . S
C725 C726 1.379 . S
C726 H710 0.931 . S
C726 C720 1.383 . S
C726 C725 1.379 . S
H727 C721 0.959 . S
H728 C721 0.961 . S
H729 C721 0.960 . S
H730 C722 0.930 . S
H731 C723 0.929 . S
H732 C740 0.929 . S
H733 C742 0.930 . S
H734 C744 0.930 . S
H735 C747 0.929 . S
H736 C750 0.930 . S
H737 C752 0.960 . S
H738 C752 0.960 . S
H739 C752 0.960 . S
C740 H732 0.929 . S
C740 C741 1.377 . S
C740 C742 1.384 . S
C741 C740 1.377 . S
C741 C747 1.390 . S
C742 H733 0.930 . S
C742 C740 1.384 . S
C742 C743 1.372 . S
C743 C742 1.372 . S
C743 C744 1.400 . S
C743 C748 1.490 . S
C744 H734 0.930 . S
C744 C743 1.400 . S
C744 C747 1.386 . S
H745 C761 0.930 . S
H746 C762 0.931 . S
C747 H735 0.929 . S
C747 C741 1.390 . S
C747 C744 1.386 . S
C748 C743 1.490 . S
C748 C750 1.395 . S
C748 C751 1.403 . S
H749 C755 0.930 . S
C750 H736 0.930 . S
C750 C748 1.395 . S
C750 C753 1.403 . S
C751 C748 1.403 . S
C751 C752 1.524 . S
C751 C755 1.400 . S
C752 H737 0.960 . S
C752 H738 0.960 . S
C752 H739 0.960 . S
C752 C751 1.524 . S
C753 C750 1.403 . S
C753 C754 1.392 . S
C753 C757 1.495 . S
C754 C753 1.392 . S
C754 C755 1.385 . S
C754 C756 1.478 . S
C755 H749 0.930 . S
C755 C751 1.400 . S
C755 C754 1.385 . S
C756 C754 1.478 . S
C756 C758 1.381 . S
C756 C762 1.383 . S
C757 C753 1.495 . S
C757 H763 0.959 . S
C757 H764 0.961 . S
C757 H765 0.960 . S
C758 C756 1.381 . S
C758 C759 1.394 . S
C758 H766 0.930 . S
C759 C758 1.394 . S
C759 C760 1.383 . S
C759 H767 0.929 . S
C760 C759 1.383 . S
C760 C761 1.377 . S
C761 H745 0.930 . S
C761 C760 1.377 . S
C761 C762 1.379 . S
C762 H746 0.931 . S
C762 C756 1.383 . S
C762 C761 1.379 . S
H763 C757 0.959 . S
H764 C757 0.961 . S
H765 C757 0.960 . S
H766 C758 0.930 . S
H767 C759 0.929 . S
H768 C776 0.929 . S
H769 C778 0.930 . S
H770 C780 0.930 . S
H771 C783 0.929 . S
H772 C786 0.930 . S
H773 C788 0.960 . S
H774 C788 0.960 . S
H775 C788 0.960 . S
C776 H768 0.929 . S
C776 C777 1.377 . S
C776 C778 1.384 . S
C777 C776 1.377 . S
C777 C783 1.390 . S
C778 H769 0.930 . S
C778 C776 1.384 . S
C778 C779 1.372 . S
C779 C778 1.372 . S
C779 C780 1.400 . S
C779 C784 1.490 . S
C780 H770 0.930 . S
C780 C779 1.400 . S
C780 C783 1.386 . S
H781 C797 0.930 . S
H782 C798 0.931 . S
C783 H771 0.929 . S
C783 C777 1.390 . S
C783 C780 1.386 . S
C784 C779 1.490 . S
C784 C786 1.395 . S
C784 C787 1.403 . S
H785 C791 0.930 . S
C786 H772 0.930 . S
C786 C784 1.395 . S
C786 C789 1.403 . S
C787 C784 1.403 . S
C787 C788 1.524 . S
C787 C791 1.400 . S
C788 H773 0.960 . S
C788 H774 0.960 . S
C788 H775 0.960 . S
C788 C787 1.524 . S
C789 C786 1.403 . S
C789 C790 1.392 . S
C789 C793 1.495 . S
C790 C789 1.392 . S
C790 C791 1.385 . S
C790 C792 1.478 . S
C791 H785 0.930 . S
C791 C787 1.400 . S
C791 C790 1.385 . S
C792 C790 1.478 . S
C792 C794 1.381 . S
C792 C798 1.383 . S
C793 C789 1.495 . S
C793 H799 0.959 . S
C793 H800 0.961 . S
C793 H801 0.960 . S
C794 C792 1.381 . S
C794 C795 1.394 . S
C794 H802 0.930 . S
C795 C794 1.394 . S
C795 C796 1.383 . S
C795 H803 0.929 . S
C796 C795 1.383 . S
C796 C797 1.377 . S
C797 H781 0.930 . S
C797 C796 1.377 . S
C797 C798 1.379 . S
C798 H782 0.931 . S
C798 C792 1.383 . S
C798 C797 1.379 . S
H799 C793 0.959 . S
H800 C793 0.961 . S
H801 C793 0.960 . S
H802 C794 0.930 . S
H803 C795 0.929 . S
H804 C812 0.929 . S
H805 C814 0.930 . S
H806 C816 0.930 . S
H807 C819 0.929 . S
H808 C822 0.930 . S
H809 C824 0.960 . S
H810 C824 0.960 . S
H811 C824 0.960 . S
C812 H804 0.929 . S
C812 C813 1.377 . S
C812 C814 1.384 . S
C813 C812 1.377 . S
C813 C819 1.390 . S
C814 H805 0.930 . S
C814 C812 1.384 . S
C814 C815 1.372 . S
C815 C814 1.372 . S
C815 C816 1.400 . S
C815 C820 1.490 . S
C816 H806 0.930 . S
C816 C815 1.400 . S
C816 C819 1.386 . S
H817 C833 0.930 . S
H818 C834 0.931 . S
C819 H807 0.929 . S
C819 C813 1.390 . S
C819 C816 1.386 . S
C820 C815 1.490 . S
C820 C822 1.395 . S
C820 C823 1.403 . S
H821 C827 0.930 . S
C822 H808 0.930 . S
C822 C820 1.395 . S
C822 C825 1.403 . S
C823 C820 1.403 . S
C823 C824 1.524 . S
C823 C827 1.400 . S
C824 H809 0.960 . S
C824 H810 0.960 . S
C824 H811 0.960 . S
C824 C823 1.524 . S
C825 C822 1.403 . S
C825 C826 1.392 . S
C825 C829 1.495 . S
C826 C825 1.392 . S
C826 C827 1.385 . S
C826 C828 1.478 . S
C827 H821 0.930 . S
C827 C823 1.400 . S
C827 C826 1.385 . S
C828 C826 1.478 . S
C828 C830 1.381 . S
C828 C834 1.383 . S
C829 C825 1.495 . S
C829 H835 0.959 . S
C829 H836 0.961 . S
C829 H837 0.960 . S
C830 C828 1.381 . S
C830 C831 1.394 . S
C830 H838 0.930 . S
C831 C830 1.394 . S
C831 C832 1.383 . S
C831 H839 0.929 . S
C832 C831 1.383 . S
C832 C833 1.377 . S
C833 H817 0.930 . S
C833 C832 1.377 . S
C833 C834 1.379 . S
C834 H818 0.931 . S
C834 C828 1.383 . S
C834 C833 1.379 . S
H835 C829 0.959 . S
H836 C829 0.961 . S
H837 C829 0.960 . S
H838 C830 0.930 . S
H839 C831 0.929 . S
H840 C848 0.929 . S
H841 C850 0.930 . S
H842 C852 0.930 . S
H843 C855 0.929 . S
H844 C858 0.930 . S
H845 C860 0.960 . S
H846 C860 0.960 . S
H847 C860 0.960 . S
C848 H840 0.929 . S
C848 C849 1.377 . S
C848 C850 1.384 . S
C849 C848 1.377 . S
C849 C855 1.390 . S
C850 H841 0.930 . S
C850 C848 1.384 . S
C850 C851 1.372 . S
C851 C850 1.372 . S
C851 C852 1.400 . S
C851 C856 1.490 . S
C852 H842 0.930 . S
C852 C851 1.400 . S
C852 C855 1.386 . S
H853 C869 0.930 . S
H854 C870 0.931 . S
C855 H843 0.929 . S
C855 C849 1.390 . S
C855 C852 1.386 . S
C856 C851 1.490 . S
C856 C858 1.395 . S
C856 C859 1.403 . S
H857 C863 0.930 . S
C858 H844 0.930 . S
C858 C856 1.395 . S
C858 C861 1.403 . S
C859 C856 1.403 . S
C859 C860 1.524 . S
C859 C863 1.400 . S
C860 H845 0.960 . S
C860 H846 0.960 . S
C860 H847 0.960 . S
C860 C859 1.524 . S
C861 C858 1.403 . S
C861 C862 1.392 . S
C861 C865 1.495 . S
C862 C861 1.392 . S
C862 C863 1.385 . S
C862 C864 1.478 . S
C863 H857 0.930 . S
C863 C859 1.400 . S
C863 C862 1.385 . S
C864 C862 1.478 . S
C864 C866 1.381 . S
C864 C870 1.383 . S
C865 C861 1.495 . S
C865 H871 0.959 . S
C865 H872 0.961 . S
C865 H873 0.960 . S
C866 C864 1.381 . S
C866 C867 1.394 . S
C866 H874 0.930 . S
C867 C866 1.394 . S
C867 C868 1.383 . S
C867 H875 0.929 . S
C868 C867 1.383 . S
C868 C869 1.377 . S
C869 H853 0.930 . S
C869 C868 1.377 . S
C869 C870 1.379 . S
C870 H854 0.931 . S
C870 C864 1.383 . S
C870 C869 1.379 . S
H871 C865 0.959 . S
H872 C865 0.961 . S
H873 C865 0.960 . S
H874 C866 0.930 . S
H875 C867 0.929 . S
H876 C884 0.929 . S
H877 C886 0.930 . S
H878 C888 0.930 . S
H879 C891 0.929 . S
H880 C894 0.930 . S
H881 C896 0.960 . S
H882 C896 0.960 . S
H883 C896 0.960 . S
C884 H876 0.929 . S
C884 C885 1.377 . S
C884 C886 1.384 . S
C885 C884 1.377 . S
C885 C891 1.390 . S
C886 H877 0.930 . S
C886 C884 1.384 . S
C886 C887 1.372 . S
C887 C886 1.372 . S
C887 C888 1.400 . S
C887 C892 1.490 . S
C888 H878 0.930 . S
C888 C887 1.400 . S
C888 C891 1.386 . S
H889 C905 0.930 . S
H890 C906 0.931 . S
C891 H879 0.929 . S
C891 C885 1.390 . S
C891 C888 1.386 . S
C892 C887 1.490 . S
C892 C894 1.395 . S
C892 C895 1.403 . S
H893 C899 0.930 . S
C894 H880 0.930 . S
C894 C892 1.395 . S
C894 C897 1.403 . S
C895 C892 1.403 . S
C895 C896 1.524 . S
C895 C899 1.400 . S
C896 H881 0.960 . S
C896 H882 0.960 . S
C896 H883 0.960 . S
C896 C895 1.524 . S
C897 C894 1.403 . S
C897 C898 1.392 . S
C897 C901 1.495 . S
C898 C897 1.392 . S
C898 C899 1.385 . S
C898 C900 1.478 . S
C899 H893 0.930 . S
C899 C895 1.400 . S
C899 C898 1.385 . S
C900 C898 1.478 . S
C900 C902 1.381 . S
C900 C906 1.383 . S
C901 C897 1.495 . S
C901 H907 0.959 . S
C901 H908 0.961 . S
C901 H909 0.960 . S
C902 C900 1.381 . S
C902 C903 1.394 . S
C902 H910 0.930 . S
C903 C902 1.394 . S
C903 C904 1.383 . S
C903 H911 0.929 . S
C904 C903 1.383 . S
C904 C905 1.377 . S
C905 H889 0.930 . S
C905 C904 1.377 . S
C905 C906 1.379 . S
C906 H890 0.931 . S
C906 C900 1.383 . S
C906 C905 1.379 . S
H907 C901 0.959 . S
H908 C901 0.961 . S
H909 C901 0.960 . S
H910 C902 0.930 . S
H911 C903 0.929 . S
H912 C920 0.929 . S
H913 C922 0.930 . S
H914 C924 0.930 . S
H915 C927 0.929 . S
H916 C930 0.930 . S
H917 C932 0.960 . S
H918 C932 0.960 . S
H919 C932 0.960 . S
C920 H912 0.929 . S
C920 C921 1.377 . S
C920 C922 1.384 . S
C921 C920 1.377 . S
C921 C927 1.390 . S
C922 H913 0.930 . S
C922 C920 1.384 . S
C922 C923 1.372 . S
C923 C922 1.372 . S
C923 C924 1.400 . S
C923 C928 1.490 . S
C924 H914 0.930 . S
C924 C923 1.400 . S
C924 C927 1.386 . S
H925 C941 0.930 . S
H926 C942 0.931 . S
C927 H915 0.929 . S
C927 C921 1.390 . S
C927 C924 1.386 . S
C928 C923 1.490 . S
C928 C930 1.395 . S
C928 C931 1.403 . S
H929 C935 0.930 . S
C930 H916 0.930 . S
C930 C928 1.395 . S
C930 C933 1.403 . S
C931 C928 1.403 . S
C931 C932 1.524 . S
C931 C935 1.400 . S
C932 H917 0.960 . S
C932 H918 0.960 . S
C932 H919 0.960 . S
C932 C931 1.524 . S
C933 C930 1.403 . S
C933 C934 1.392 . S
C933 C937 1.495 . S
C934 C933 1.392 . S
C934 C935 1.385 . S
C934 C936 1.478 . S
C935 H929 0.930 . S
C935 C931 1.400 . S
C935 C934 1.385 . S
C936 C934 1.478 . S
C936 C938 1.381 . S
C936 C942 1.383 . S
C937 C933 1.495 . S
C937 H943 0.959 . S
C937 H944 0.961 . S
C937 H945 0.960 . S
C938 C936 1.381 . S
C938 C939 1.394 . S
C938 H946 0.930 . S
C939 C938 1.394 . S
C939 C940 1.383 . S
C939 H947 0.929 . S
C940 C939 1.383 . S
C940 C941 1.377 . S
C941 H925 0.930 . S
C941 C940 1.377 . S
C941 C942 1.379 . S
C942 H926 0.931 . S
C942 C936 1.383 . S
C942 C941 1.379 . S
H943 C937 0.959 . S
H944 C937 0.961 . S
H945 C937 0.960 . S
H946 C938 0.930 . S
H947 C939 0.929 . S
H948 C956 0.929 . S
H949 C958 0.930 . S
H950 C960 0.930 . S
H951 C963 0.929 . S
H952 C966 0.930 . S
H953 C968 0.960 . S
H954 C968 0.960 . S
H955 C968 0.960 . S
C956 H948 0.929 . S
C956 C957 1.377 . S
C956 C958 1.384 . S
C957 C956 1.377 . S
C957 C963 1.390 . S
C958 H949 0.930 . S
C958 C956 1.384 . S
C958 C959 1.372 . S
C959 C958 1.372 . S
C959 C960 1.400 . S
C959 C964 1.490 . S
C960 H950 0.930 . S
C960 C959 1.400 . S
C960 C963 1.386 . S
H961 C977 0.930 . S
H962 C978 0.931 . S
C963 H951 0.929 . S
C963 C957 1.390 . S
C963 C960 1.386 . S
C964 C959 1.490 . S
C964 C966 1.395 . S
C964 C967 1.403 . S
H965 C971 0.930 . S
C966 H952 0.930 . S
C966 C964 1.395 . S
C966 C969 1.403 . S
C967 C964 1.403 . S
C967 C968 1.524 . S
C967 C971 1.400 . S
C968 H953 0.960 . S
C968 H954 0.960 . S
C968 H955 0.960 . S
C968 C967 1.524 . S
C969 C966 1.403 . S
C969 C970 1.392 . S
C969 C973 1.495 . S
C970 C969 1.392 . S
C970 C971 1.385 . S
C970 C972 1.478 . S
C971 H965 0.930 . S
C971 C967 1.400 . S
C971 C970 1.385 . S
C972 C970 1.478 . S
C972 C974 1.381 . S
C972 C978 1.383 . S
C973 C969 1.495 . S
C973 H979 0.959 . S
C973 H980 0.961 . S
C973 H981 0.960 . S
C974 C972 1.381 . S
C974 C975 1.394 . S
C974 H982 0.930 . S
C975 C974 1.394 . S
C975 C976 1.383 . S
C975 H983 0.929 . S
C976 C975 1.383 . S
C976 C977 1.377 . S
C977 H961 0.930 . S
C977 C976 1.377 . S
C977 C978 1.379 . S
C978 H962 0.931 . S
C978 C972 1.383 . S
C978 C977 1.379 . S
H979 C973 0.959 . S
H980 C973 0.961 . S
H981 C973 0.960 . S
H982 C974 0.930 . S
H983 C975 0.929 . S
H984 C992 0.929 . S
H985 C994 0.930 . S
H986 C996 0.930 . S
H987 C999 0.929 . S
H988 C1002 0.930 . S
H989 C1004 0.960 . S
H990 C1004 0.960 . S
H991 C1004 0.960 . S
C992 H984 0.929 . S
C992 C993 1.377 . S
C992 C994 1.384 . S
C993 C992 1.377 . S
C993 C999 1.390 . S
C994 H985 0.930 . S
C994 C992 1.384 . S
C994 C995 1.372 . S
C995 C994 1.372 . S
C995 C996 1.400 . S
C995 C1000 1.490 . S
C996 H986 0.930 . S
C996 C995 1.400 . S
C996 C999 1.386 . S
H997 C1013 0.930 . S
H998 C1014 0.931 . S
C999 H987 0.929 . S
C999 C993 1.390 . S
C999 C996 1.386 . S
C1000 C995 1.490 . S
C1000 C1002 1.395 . S
C1000 C1003 1.403 . S
H1001 C1007 0.930 . S
C1002 H988 0.930 . S
C1002 C1000 1.395 . S
C1002 C1005 1.403 . S
C1003 C1000 1.403 . S
C1003 C1004 1.524 . S
C1003 C1007 1.400 . S
C1004 H989 0.960 . S
C1004 H990 0.960 . S
C1004 H991 0.960 . S
C1004 C1003 1.524 . S
C1005 C1002 1.403 . S
C1005 C1006 1.392 . S
C1005 C1009 1.495 . S
C1006 C1005 1.392 . S
C1006 C1007 1.385 . S
C1006 C1008 1.478 . S
C1007 H1001 0.930 . S
C1007 C1003 1.400 . S
C1007 C1006 1.385 . S
C1008 C1006 1.478 . S
C1008 C1010 1.381 . S
C1008 C1014 1.383 . S
C1009 C1005 1.495 . S
C1009 H1015 0.959 . S
C1009 H1016 0.961 . S
C1009 H1017 0.960 . S
C1010 C1008 1.381 . S
C1010 C1011 1.394 . S
C1010 H1018 0.930 . S
C1011 C1010 1.394 . S
C1011 C1012 1.383 . S
C1011 H1019 0.929 . S
C1012 C1011 1.383 . S
C1012 C1013 1.377 . S
C1013 H997 0.930 . S
C1013 C1012 1.377 . S
C1013 C1014 1.379 . S
C1014 H998 0.931 . S
C1014 C1008 1.383 . S
C1014 C1013 1.379 . S
H1015 C1009 0.959 . S
H1016 C1009 0.961 . S
H1017 C1009 0.960 . S
H1018 C1010 0.930 . S
H1019 C1011 0.929 . S
H1020 C1028 0.929 . S
H1021 C1030 0.930 . S
H1022 C1032 0.930 . S
H1023 C1035 0.929 . S
H1024 C1038 0.930 . S
H1025 C1040 0.960 . S
H1026 C1040 0.960 . S
H1027 C1040 0.960 . S
C1028 H1020 0.929 . S
C1028 C1029 1.377 . S
C1028 C1030 1.384 . S
C1029 C1028 1.377 . S
C1029 C1035 1.390 . S
C1030 H1021 0.930 . S
C1030 C1028 1.384 . S
C1030 C1031 1.372 . S
C1031 C1030 1.372 . S
C1031 C1032 1.400 . S
C1031 C1036 1.490 . S
C1032 H1022 0.930 . S
C1032 C1031 1.400 . S
C1032 C1035 1.386 . S
H1033 C1049 0.930 . S
H1034 C1050 0.931 . S
C1035 H1023 0.929 . S
C1035 C1029 1.390 . S
C1035 C1032 1.386 . S
C1036 C1031 1.490 . S
C1036 C1038 1.395 . S
C1036 C1039 1.403 . S
H1037 C1043 0.930 . S
C1038 H1024 0.930 . S
C1038 C1036 1.395 . S
C1038 C1041 1.403 . S
C1039 C1036 1.403 . S
C1039 C1040 1.524 . S
C1039 C1043 1.400 . S
C1040 H1025 0.960 . S
C1040 H1026 0.960 . S
C1040 H1027 0.960 . S
C1040 C1039 1.524 . S
C1041 C1038 1.403 . S
C1041 C1042 1.392 . S
C1041 C1045 1.495 . S
C1042 C1041 1.392 . S
C1042 C1043 1.385 . S
C1042 C1044 1.478 . S
C1043 H1037 0.930 . S
C1043 C1039 1.400 . S
C1043 C1042 1.385 . S
C1044 C1042 1.478 . S
C1044 C1046 1.381 . S
C1044 C1050 1.383 . S
C1045 C1041 1.495 . S
C1045 H1051 0.959 . S
C1045 H1052 0.961 . S
C1045 H1053 0.960 . S
C1046 C1044 1.381 . S
C1046 C1047 1.394 . S
C1046 H1054 0.930 . S
C1047 C1046 1.394 . S
C1047 C1048 1.383 . S
C1047 H1055 0.929 . S
C1048 C1047 1.383 . S
C1048 C1049 1.377 . S
C1049 H1033 0.930 . S
C1049 C1048 1.377 . S
C1049 C1050 1.379 . S
C1050 H1034 0.931 . S
C1050 C1044 1.383 . S
C1050 C1049 1.379 . S
H1051 C1045 0.959 . S
H1052 C1045 0.961 . S
H1053 C1045 0.960 . S
H1054 C1046 0.930 . S
H1055 C1047 0.929 . S
H1056 C1064 0.929 . S
H1057 C1066 0.930 . S
H1058 C1068 0.930 . S
H1059 C1071 0.929 . S
H1060 C1074 0.930 . S
H1061 C1076 0.960 . S
H1062 C1076 0.960 . S
H1063 C1076 0.960 . S
C1064 H1056 0.929 . S
C1064 C1065 1.377 . S
C1064 C1066 1.384 . S
C1065 C1064 1.377 . S
C1065 C1071 1.390 . S
C1066 H1057 0.930 . S
C1066 C1064 1.384 . S
C1066 C1067 1.372 . S
C1067 C1066 1.372 . S
C1067 C1068 1.400 . S
C1067 C1072 1.490 . S
C1068 H1058 0.930 . S
C1068 C1067 1.400 . S
C1068 C1071 1.386 . S
H1069 C1085 0.930 . S
H1070 C1086 0.931 . S
C1071 H1059 0.929 . S
C1071 C1065 1.390 . S
C1071 C1068 1.386 . S
C1072 C1067 1.490 . S
C1072 C1074 1.395 . S
C1072 C1075 1.403 . S
H1073 C1079 0.930 . S
C1074 H1060 0.930 . S
C1074 C1072 1.395 . S
C1074 C1077 1.403 . S
C1075 C1072 1.403 . S
C1075 C1076 1.524 . S
C1075 C1079 1.400 . S
C1076 H1061 0.960 . S
C1076 H1062 0.960 . S
C1076 H1063 0.960 . S
C1076 C1075 1.524 . S
C1077 C1074 1.403 . S
C1077 C1078 1.392 . S
C1077 C1081 1.495 . S
C1078 C1077 1.392 . S
C1078 C1079 1.385 . S
C1078 C1080 1.478 . S
C1079 H1073 0.930 . S
C1079 C1075 1.400 . S
C1079 C1078 1.385 . S
C1080 C1078 1.478 . S
C1080 C1082 1.381 . S
C1080 C1086 1.383 . S
C1081 C1077 1.495 . S
C1081 H1087 0.959 . S
C1081 H1088 0.961 . S
C1081 H1089 0.960 . S
C1082 C1080 1.381 . S
C1082 C1083 1.394 . S
C1082 H1090 0.930 . S
C1083 C1082 1.394 . S
C1083 C1084 1.383 . S
C1083 H1091 0.929 . S
C1084 C1083 1.383 . S
C1084 C1085 1.377 . S
C1085 H1069 0.930 . S
C1085 C1084 1.377 . S
C1085 C1086 1.379 . S
C1086 H1070 0.931 . S
C1086 C1080 1.383 . S
C1086 C1085 1.379 . S
H1087 C1081 0.959 . S
H1088 C1081 0.961 . S
H1089 C1081 0.960 . S
H1090 C1082 0.930 . S
H1091 C1083 0.929 . S
H1092 C1100 0.929 . S
H1093 C1102 0.930 . S
H1094 C1104 0.930 . S
H1095 C1107 0.929 . S
H1096 C1110 0.930 . S
H1097 C1112 0.960 . S
H1098 C1112 0.960 . S
H1099 C1112 0.960 . S
C1100 H1092 0.929 . S
C1100 C1101 1.377 . S
C1100 C1102 1.384 . S
C1101 C1100 1.377 . S
C1101 C1107 1.390 . S
C1102 H1093 0.930 . S
C1102 C1100 1.384 . S
C1102 C1103 1.372 . S
C1103 C1102 1.372 . S
C1103 C1104 1.400 . S
C1103 C1108 1.490 . S
C1104 H1094 0.930 . S
C1104 C1103 1.400 . S
C1104 C1107 1.386 . S
H1105 C1121 0.930 . S
H1106 C1122 0.931 . S
C1107 H1095 0.929 . S
C1107 C1101 1.390 . S
C1107 C1104 1.386 . S
C1108 C1103 1.490 . S
C1108 C1110 1.395 . S
C1108 C1111 1.403 . S
H1109 C1115 0.930 . S
C1110 H1096 0.930 . S
C1110 C1108 1.395 . S
C1110 C1113 1.403 . S
C1111 C1108 1.403 . S
C1111 C1112 1.524 . S
C1111 C1115 1.400 . S
C1112 H1097 0.960 . S
C1112 H1098 0.960 . S
C1112 H1099 0.960 . S
C1112 C1111 1.524 . S
C1113 C1110 1.403 . S
C1113 C1114 1.392 . S
C1113 C1117 1.495 . S
C1114 C1113 1.392 . S
C1114 C1115 1.385 . S
C1114 C1116 1.478 . S
C1115 H1109 0.930 . S
C1115 C1111 1.400 . S
C1115 C1114 1.385 . S
C1116 C1114 1.478 . S
C1116 C1118 1.381 . S
C1116 C1122 1.383 . S
C1117 C1113 1.495 . S
C1117 H1123 0.959 . S
C1117 H1124 0.961 . S
C1117 H1125 0.960 . S
C1118 C1116 1.381 . S
C1118 C1119 1.394 . S
C1118 H1126 0.930 . S
C1119 C1118 1.394 . S
C1119 C1120 1.383 . S
C1119 H1127 0.929 . S
C1120 C1119 1.383 . S
C1120 C1121 1.377 . S
C1121 H1105 0.930 . S
C1121 C1120 1.377 . S
C1121 C1122 1.379 . S
C1122 H1106 0.931 . S
C1122 C1116 1.383 . S
C1122 C1121 1.379 . S
H1123 C1117 0.959 . S
H1124 C1117 0.961 . S
H1125 C1117 0.960 . S
H1126 C1118 0.930 . S
H1127 C1119 0.929 . S
H1128 C1136 0.929 . S
H1129 C1138 0.930 . S
H1130 C1140 0.930 . S
H1131 C1143 0.929 . S
H1132 C1146 0.930 . S
H1133 C1148 0.960 . S
H1134 C1148 0.960 . S
H1135 C1148 0.960 . S
C1136 H1128 0.929 . S
C1136 C1137 1.377 . S
C1136 C1138 1.384 . S
C1137 C1136 1.377 . S
C1137 C1143 1.390 . S
C1138 H1129 0.930 . S
C1138 C1136 1.384 . S
C1138 C1139 1.372 . S
C1139 C1138 1.372 . S
C1139 C1140 1.400 . S
C1139 C1144 1.490 . S
C1140 H1130 0.930 . S
C1140 C1139 1.400 . S
C1140 C1143 1.386 . S
H1141 C1157 0.930 . S
H1142 C1158 0.931 . S
C1143 H1131 0.929 . S
C1143 C1137 1.390 . S
C1143 C1140 1.386 . S
C1144 C1139 1.490 . S
C1144 C1146 1.395 . S
C1144 C1147 1.403 . S
H1145 C1151 0.930 . S
C1146 H1132 0.930 . S
C1146 C1144 1.395 . S
C1146 C1149 1.403 . S
C1147 C1144 1.403 . S
C1147 C1148 1.524 . S
C1147 C1151 1.400 . S
C1148 H1133 0.960 . S
C1148 H1134 0.960 . S
C1148 H1135 0.960 . S
C1148 C1147 1.524 . S
C1149 C1146 1.403 . S
C1149 C1150 1.392 . S
C1149 C1153 1.495 . S
C1150 C1149 1.392 . S
C1150 C1151 1.385 . S
C1150 C1152 1.478 . S
C1151 H1145 0.930 . S
C1151 C1147 1.400 . S
C1151 C1150 1.385 . S
C1152 C1150 1.478 . S
C1152 C1154 1.381 . S
C1152 C1158 1.383 . S
C1153 C1149 1.495 . S
C1153 H1159 0.959 . S
C1153 H1160 0.961 . S
C1153 H1161 0.960 . S
C1154 C1152 1.381 . S
C1154 C1155 1.394 . S
C1154 H1162 0.930 . S
C1155 C1154 1.394 . S
C1155 C1156 1.383 . S
C1155 H1163 0.929 . S
C1156 C1155 1.383 . S
C1156 C1157 1.377 . S
C1157 H1141 0.930 . S
C1157 C1156 1.377 . S
C1157 C1158 1.379 . S
C1158 H1142 0.931 . S
C1158 C1152 1.383 . S
C1158 C1157 1.379 . S
H1159 C1153 0.959 . S
H1160 C1153 0.961 . S
H1161 C1153 0.960 . S
H1162 C1154 0.930 . S
H1163 C1155 0.929 . S
H1164 C1172 0.929 . S
H1165 C1174 0.930 . S
H1166 C1176 0.930 . S
H1167 C1179 0.929 . S
H1168 C1182 0.930 . S
H1169 C1184 0.960 . S
H1170 C1184 0.960 . S
H1171 C1184 0.960 . S
C1172 H1164 0.929 . S
C1172 C1173 1.377 . S
C1172 C1174 1.384 . S
C1173 C1172 1.377 . S
C1173 C1179 1.390 . S
C1174 H1165 0.930 . S
C1174 C1172 1.384 . S
C1174 C1175 1.372 . S
C1175 C1174 1.372 . S
C1175 C1176 1.400 . S
C1175 C1180 1.490 . S
C1176 H1166 0.930 . S
C1176 C1175 1.400 . S
C1176 C1179 1.386 . S
H1177 C1193 0.930 . S
H1178 C1194 0.931 . S
C1179 H1167 0.929 . S
C1179 C1173 1.390 . S
C1179 C1176 1.386 . S
C1180 C1175 1.490 . S
C1180 C1182 1.395 . S
C1180 C1183 1.403 . S
H1181 C1187 0.930 . S
C1182 H1168 0.930 . S
C1182 C1180 1.395 . S
C1182 C1185 1.403 . S
C1183 C1180 1.403 . S
C1183 C1184 1.524 . S
C1183 C1187 1.400 . S
C1184 H1169 0.960 . S
C1184 H1170 0.960 . S
C1184 H1171 0.960 . S
C1184 C1183 1.524 . S
C1185 C1182 1.403 . S
C1185 C1186 1.392 . S
C1185 C1189 1.495 . S
C1186 C1185 1.392 . S
C1186 C1187 1.385 . S
C1186 C1188 1.478 . S
C1187 H1181 0.930 . S
C1187 C1183 1.400 . S
C1187 C1186 1.385 . S
C1188 C1186 1.478 . S
C1188 C1190 1.381 . S
C1188 C1194 1.383 . S
C1189 C1185 1.495 . S
C1189 H1195 0.959 . S
C1189 H1196 0.961 . S
C1189 H1197 0.960 . S
C1190 C1188 1.381 . S
C1190 C1191 1.394 . S
C1190 H1198 0.930 . S
C1191 C1190 1.394 . S
C1191 C1192 1.383 . S
C1191 H1199 0.929 . S
C1192 C1191 1.383 . S
C1192 C1193 1.377 . S
C1193 H1177 0.930 . S
C1193 C1192 1.377 . S
C1193 C1194 1.379 . S
C1194 H1178 0.931 . S
C1194 C1188 1.383 . S
C1194 C1193 1.379 . S
H1195 C1189 0.959 . S
H1196 C1189 0.961 . S
H1197 C1189 0.960 . S
H1198 C1190 0.930 . S
H1199 C1191 0.929 . S
H1200 C1208 0.929 . S
H1201 C1210 0.930 . S
H1202 C1212 0.930 . S
H1203 C1215 0.929 . S
H1204 C1218 0.930 . S
H1205 C1220 0.960 . S
H1206 C1220 0.960 . S
H1207 C1220 0.960 . S
C1208 H1200 0.929 . S
C1208 C1209 1.377 . S
C1208 C1210 1.384 . S
C1209 C1208 1.377 . S
C1209 C1215 1.390 . S
C1210 H1201 0.930 . S
C1210 C1208 1.384 . S
C1210 C1211 1.372 . S
C1211 C1210 1.372 . S
C1211 C1212 1.400 . S
C1211 C1216 1.490 . S
C1212 H1202 0.930 . S
C1212 C1211 1.400 . S
C1212 C1215 1.386 . S
H1213 C1229 0.930 . S
H1214 C1230 0.931 . S
C1215 H1203 0.929 . S
C1215 C1209 1.390 . S
C1215 C1212 1.386 . S
C1216 C1211 1.490 . S
C1216 C1218 1.395 . S
C1216 C1219 1.403 . S
H1217 C1223 0.930 . S
C1218 H1204 0.930 . S
C1218 C1216 1.395 . S
C1218 C1221 1.403 1_455 S
C1219 C1216 1.403 . S
C1219 C1220 1.524 . S
C1219 C1223 1.400 1_455 S
C1220 H1205 0.960 . S
C1220 H1206 0.960 . S
C1220 H1207 0.960 . S
C1220 C1219 1.524 . S
C1221 C1218 1.403 1_655 S
C1221 C1222 1.392 . S
C1221 C1225 1.495 . S
C1222 C1221 1.392 . S
C1222 C1223 1.385 . S
C1222 C1224 1.478 . S
C1223 H1217 0.930 . S
C1223 C1219 1.400 1_655 S
C1223 C1222 1.385 . S
C1224 C1222 1.478 . S
C1224 C1226 1.381 . S
C1224 C1230 1.383 . S
C1225 C1221 1.495 . S
C1225 H1231 0.959 . S
C1225 H1232 0.961 . S
C1225 H1233 0.960 . S
C1226 C1224 1.381 . S
C1226 C1227 1.394 . S
C1226 H1234 0.930 . S
C1227 C1226 1.394 . S
C1227 C1228 1.383 . S
C1227 H1235 0.929 . S
C1228 C1227 1.383 . S
C1228 C1229 1.377 . S
C1229 H1213 0.930 . S
C1229 C1228 1.377 . S
C1229 C1230 1.379 . S
C1230 H1214 0.931 . S
C1230 C1224 1.383 . S
C1230 C1229 1.379 . S
H1231 C1225 0.959 . S
H1232 C1225 0.961 . S
H1233 C1225 0.960 . S
H1234 C1226 0.930 . S
H1235 C1227 0.929 . S
H1236 C1244 0.929 . S
H1237 C1246 0.930 . S
H1238 C1248 0.930 . S
H1239 C1251 0.929 . S
H1240 C1254 0.930 . S
H1241 C1256 0.960 . S
H1242 C1256 0.960 . S
H1243 C1256 0.960 . S
C1244 H1236 0.929 . S
C1244 C1245 1.377 . S
C1244 C1246 1.384 . S
C1245 C1244 1.377 . S
C1245 C1251 1.390 . S
C1246 H1237 0.930 . S
C1246 C1244 1.384 . S
C1246 C1247 1.372 . S
C1247 C1246 1.372 . S
C1247 C1248 1.400 . S
C1247 C1252 1.490 . S
C1248 H1238 0.930 . S
C1248 C1247 1.400 . S
C1248 C1251 1.386 . S
H1249 C1265 0.930 . S
H1250 C1266 0.931 . S
C1251 H1239 0.929 . S
C1251 C1245 1.390 . S
C1251 C1248 1.386 . S
C1252 C1247 1.490 . S
C1252 C1254 1.395 . S
C1252 C1255 1.403 . S
H1253 C1259 0.930 . S
C1254 H1240 0.930 . S
C1254 C1252 1.395 . S
C1254 C1257 1.403 1_545 S
C1255 C1252 1.403 . S
C1255 C1256 1.524 . S
C1255 C1259 1.400 1_545 S
C1256 H1241 0.960 . S
C1256 H1242 0.960 . S
C1256 H1243 0.960 . S
C1256 C1255 1.524 . S
C1257 C1254 1.403 1_565 S
C1257 C1258 1.392 . S
C1257 C1261 1.495 . S
C1258 C1257 1.392 . S
C1258 C1259 1.385 . S
C1258 C1260 1.478 . S
C1259 H1253 0.930 . S
C1259 C1255 1.400 1_565 S
C1259 C1258 1.385 . S
C1260 C1258 1.478 . S
C1260 C1262 1.381 . S
C1260 C1266 1.383 . S
C1261 C1257 1.495 . S
C1261 H1267 0.959 . S
C1261 H1268 0.961 . S
C1261 H1269 0.960 . S
C1262 C1260 1.381 . S
C1262 C1263 1.394 . S
C1262 H1270 0.930 . S
C1263 C1262 1.394 . S
C1263 C1264 1.383 . S
C1263 H1271 0.929 . S
C1264 C1263 1.383 . S
C1264 C1265 1.377 . S
C1265 H1249 0.930 . S
C1265 C1264 1.377 . S
C1265 C1266 1.379 . S
C1266 H1250 0.931 . S
C1266 C1260 1.383 . S
C1266 C1265 1.379 . S
H1267 C1261 0.959 . S
H1268 C1261 0.961 . S
H1269 C1261 0.960 . S
H1270 C1262 0.930 . S
H1271 C1263 0.929 . S
H1272 C1280 0.929 . S
H1273 C1282 0.930 . S
H1274 C1284 0.930 . S
H1275 C1287 0.929 . S
H1276 C1290 0.930 . S
H1277 C1292 0.960 . S
H1278 C1292 0.960 . S
H1279 C1292 0.960 . S
C1280 H1272 0.929 . S
C1280 C1281 1.377 . S
C1280 C1282 1.384 . S
C1281 C1280 1.377 . S
C1281 C1287 1.390 . S
C1282 H1273 0.930 . S
C1282 C1280 1.384 . S
C1282 C1283 1.372 . S
C1283 C1282 1.372 . S
C1283 C1284 1.400 . S
C1283 C1288 1.490 . S
C1284 H1274 0.930 . S
C1284 C1283 1.400 . S
C1284 C1287 1.386 . S
H1285 C1301 0.930 . S
H1286 C1302 0.931 . S
C1287 H1275 0.929 . S
C1287 C1281 1.390 . S
C1287 C1284 1.386 . S
C1288 C1283 1.490 . S
C1288 C1290 1.395 . S
C1288 C1291 1.403 . S
H1289 C1295 0.930 . S
C1290 H1276 0.930 . S
C1290 C1288 1.395 . S
C1290 C1293 1.403 1_655 S
C1291 C1288 1.403 . S
C1291 C1292 1.524 . S
C1291 C1295 1.400 1_655 S
C1292 H1277 0.960 . S
C1292 H1278 0.960 . S
C1292 H1279 0.960 . S
C1292 C1291 1.524 . S
C1293 C1290 1.403 1_455 S
C1293 C1294 1.392 . S
C1293 C1297 1.495 . S
C1294 C1293 1.392 . S
C1294 C1295 1.385 . S
C1294 C1296 1.478 . S
C1295 H1289 0.930 . S
C1295 C1291 1.400 1_455 S
C1295 C1294 1.385 . S
C1296 C1294 1.478 . S
C1296 C1298 1.381 . S
C1296 C1302 1.383 . S
C1297 C1293 1.495 . S
C1297 H1303 0.959 . S
C1297 H1304 0.961 . S
C1297 H1305 0.960 . S
C1298 C1296 1.381 . S
C1298 C1299 1.394 . S
C1298 H1306 0.930 . S
C1299 C1298 1.394 . S
C1299 C1300 1.383 . S
C1299 H1307 0.929 . S
C1300 C1299 1.383 . S
C1300 C1301 1.377 . S
C1301 H1285 0.930 . S
C1301 C1300 1.377 . S
C1301 C1302 1.379 . S
C1302 H1286 0.931 . S
C1302 C1296 1.383 . S
C1302 C1301 1.379 . S
H1303 C1297 0.959 . S
H1304 C1297 0.961 . S
H1305 C1297 0.960 . S
H1306 C1298 0.930 . S
H1307 C1299 0.929 . S
H1308 C1316 0.929 . S
H1309 C1318 0.930 . S
H1310 C1320 0.930 . S
H1311 C1323 0.929 . S
H1312 C1326 0.930 . S
H1313 C1328 0.960 . S
H1314 C1328 0.960 . S
H1315 C1328 0.960 . S
C1316 H1308 0.929 . S
C1316 C1317 1.377 . S
C1316 C1318 1.384 . S
C1317 C1316 1.377 . S
C1317 C1323 1.390 . S
C1318 H1309 0.930 . S
C1318 C1316 1.384 . S
C1318 C1319 1.372 . S
C1319 C1318 1.372 . S
C1319 C1320 1.400 . S
C1319 C1324 1.490 . S
C1320 H1310 0.930 . S
C1320 C1319 1.400 . S
C1320 C1323 1.386 . S
H1321 C1337 0.930 . S
H1322 C1338 0.931 . S
C1323 H1311 0.929 . S
C1323 C1317 1.390 . S
C1323 C1320 1.386 . S
C1324 C1319 1.490 . S
C1324 C1326 1.395 . S
C1324 C1327 1.403 . S
H1325 C1331 0.930 . S
C1326 H1312 0.930 . S
C1326 C1324 1.395 . S
C1326 C1329 1.403 1_545 S
C1327 C1324 1.403 . S
C1327 C1328 1.524 . S
C1327 C1331 1.400 1_545 S
C1328 H1313 0.960 . S
C1328 H1314 0.960 . S
C1328 H1315 0.960 . S
C1328 C1327 1.524 . S
C1329 C1326 1.403 1_565 S
C1329 C1330 1.392 . S
C1329 C1333 1.495 . S
C1330 C1329 1.392 . S
C1330 C1331 1.385 . S
C1330 C1332 1.478 . S
C1331 H1325 0.930 . S
C1331 C1327 1.400 1_565 S
C1331 C1330 1.385 . S
C1332 C1330 1.478 . S
C1332 C1334 1.381 . S
C1332 C1338 1.383 . S
C1333 C1329 1.495 . S
C1333 H1339 0.959 . S
C1333 H1340 0.961 . S
C1333 H1341 0.960 . S
C1334 C1332 1.381 . S
C1334 C1335 1.394 . S
C1334 H1342 0.930 . S
C1335 C1334 1.394 . S
C1335 C1336 1.383 . S
C1335 H1343 0.929 . S
C1336 C1335 1.383 . S
C1336 C1337 1.377 . S
C1337 H1321 0.930 . S
C1337 C1336 1.377 . S
C1337 C1338 1.379 . S
C1338 H1322 0.931 . S
C1338 C1332 1.383 . S
C1338 C1337 1.379 . S
H1339 C1333 0.959 . S
H1340 C1333 0.961 . S
H1341 C1333 0.960 . S
H1342 C1334 0.930 . S
H1343 C1335 0.929 . S
H1344 C1352 0.929 . S
H1345 C1354 0.930 . S
H1346 C1356 0.930 . S
H1347 C1359 0.929 . S
H1348 C1362 0.930 . S
H1349 C1364 0.960 . S
H1350 C1364 0.960 . S
H1351 C1364 0.960 . S
C1352 H1344 0.929 . S
C1352 C1353 1.377 . S
C1352 C1354 1.384 . S
C1353 C1352 1.377 . S
C1353 C1359 1.390 . S
C1354 H1345 0.930 . S
C1354 C1352 1.384 . S
C1354 C1355 1.372 . S
C1355 C1354 1.372 . S
C1355 C1356 1.400 . S
C1355 C1360 1.490 . S
C1356 H1346 0.930 . S
C1356 C1355 1.400 . S
C1356 C1359 1.386 . S
H1357 C1373 0.930 . S
H1358 C1374 0.931 . S
C1359 H1347 0.929 . S
C1359 C1353 1.390 . S
C1359 C1356 1.386 . S
C1360 C1355 1.490 . S
C1360 C1362 1.395 . S
C1360 C1363 1.403 . S
H1361 C1367 0.930 . S
C1362 H1348 0.930 . S
C1362 C1360 1.395 . S
C1362 C1365 1.403 1_565 S
C1363 C1360 1.403 . S
C1363 C1364 1.524 . S
C1363 C1367 1.400 1_565 S
C1364 H1349 0.960 . S
C1364 H1350 0.960 . S
C1364 H1351 0.960 . S
C1364 C1363 1.524 . S
C1365 C1362 1.403 1_545 S
C1365 C1366 1.392 . S
C1365 C1369 1.495 . S
C1366 C1365 1.392 . S
C1366 C1367 1.385 . S
C1366 C1368 1.478 . S
C1367 H1361 0.930 . S
C1367 C1363 1.400 1_545 S
C1367 C1366 1.385 . S
C1368 C1366 1.478 . S
C1368 C1370 1.381 . S
C1368 C1374 1.383 . S
C1369 C1365 1.495 . S
C1369 H1375 0.959 . S
C1369 H1376 0.961 . S
C1369 H1377 0.960 . S
C1370 C1368 1.381 . S
C1370 C1371 1.394 . S
C1370 H1378 0.930 . S
C1371 C1370 1.394 . S
C1371 C1372 1.383 . S
C1371 H1379 0.929 . S
C1372 C1371 1.383 . S
C1372 C1373 1.377 . S
C1373 H1357 0.930 . S
C1373 C1372 1.377 . S
C1373 C1374 1.379 . S
C1374 H1358 0.931 . S
C1374 C1368 1.383 . S
C1374 C1373 1.379 . S
H1375 C1369 0.959 . S
H1376 C1369 0.961 . S
H1377 C1369 0.960 . S
H1378 C1370 0.930 . S
H1379 C1371 0.929 . S
H1380 C1388 0.929 . S
H1381 C1390 0.930 . S
H1382 C1392 0.930 . S
H1383 C1395 0.929 . S
H1384 C1398 0.930 . S
H1385 C1400 0.960 . S
H1386 C1400 0.960 . S
H1387 C1400 0.960 . S
C1388 H1380 0.929 . S
C1388 C1389 1.377 . S
C1388 C1390 1.384 . S
C1389 C1388 1.377 . S
C1389 C1395 1.390 . S
C1390 H1381 0.930 . S
C1390 C1388 1.384 . S
C1390 C1391 1.372 . S
C1391 C1390 1.372 . S
C1391 C1392 1.400 . S
C1391 C1396 1.490 . S
C1392 H1382 0.930 . S
C1392 C1391 1.400 . S
C1392 C1395 1.386 . S
H1393 C1409 0.930 . S
H1394 C1410 0.931 . S
C1395 H1383 0.929 . S
C1395 C1389 1.390 . S
C1395 C1392 1.386 . S
C1396 C1391 1.490 . S
C1396 C1398 1.395 . S
C1396 C1399 1.403 . S
H1397 C1403 0.930 . S
C1398 H1384 0.930 . S
C1398 C1396 1.395 . S
C1398 C1401 1.403 1_655 S
C1399 C1396 1.403 . S
C1399 C1400 1.524 . S
C1399 C1403 1.400 1_655 S
C1400 H1385 0.960 . S
C1400 H1386 0.960 . S
C1400 H1387 0.960 . S
C1400 C1399 1.524 . S
C1401 C1398 1.403 1_455 S
C1401 C1402 1.392 . S
C1401 C1405 1.495 . S
C1402 C1401 1.392 . S
C1402 C1403 1.385 . S
C1402 C1404 1.478 . S
C1403 H1397 0.930 . S
C1403 C1399 1.400 1_455 S
C1403 C1402 1.385 . S
C1404 C1402 1.478 . S
C1404 C1406 1.381 . S
C1404 C1410 1.383 . S
C1405 C1401 1.495 . S
C1405 H1411 0.959 . S
C1405 H1412 0.961 . S
C1405 H1413 0.960 . S
C1406 C1404 1.381 . S
C1406 C1407 1.394 . S
C1406 H1414 0.930 . S
C1407 C1406 1.394 . S
C1407 C1408 1.383 . S
C1407 H1415 0.929 . S
C1408 C1407 1.383 . S
C1408 C1409 1.377 . S
C1409 H1393 0.930 . S
C1409 C1408 1.377 . S
C1409 C1410 1.379 . S
C1410 H1394 0.931 . S
C1410 C1404 1.383 . S
C1410 C1409 1.379 . S
H1411 C1405 0.959 . S
H1412 C1405 0.961 . S
H1413 C1405 0.960 . S
H1414 C1406 0.930 . S
H1415 C1407 0.929 . S
H1416 C1424 0.929 . S
H1417 C1426 0.930 . S
H1418 C1428 0.930 . S
H1419 C1431 0.929 . S
H1420 C1434 0.930 . S
H1421 C1436 0.960 . S
H1422 C1436 0.960 . S
H1423 C1436 0.960 . S
C1424 H1416 0.929 . S
C1424 C1425 1.377 . S
C1424 C1426 1.384 . S
C1425 C1424 1.377 . S
C1425 C1431 1.390 . S
C1426 H1417 0.930 . S
C1426 C1424 1.384 . S
C1426 C1427 1.372 . S
C1427 C1426 1.372 . S
C1427 C1428 1.400 . S
C1427 C1432 1.490 . S
C1428 H1418 0.930 . S
C1428 C1427 1.400 . S
C1428 C1431 1.386 . S
H1429 C1445 0.930 . S
H1430 C1446 0.931 . S
C1431 H1419 0.929 . S
C1431 C1425 1.390 . S
C1431 C1428 1.386 . S
C1432 C1427 1.490 . S
C1432 C1434 1.395 . S
C1432 C1435 1.403 . S
H1433 C1439 0.930 . S
C1434 H1420 0.930 . S
C1434 C1432 1.395 . S
C1434 C1437 1.403 1_565 S
C1435 C1432 1.403 . S
C1435 C1436 1.524 . S
C1435 C1439 1.400 1_565 S
C1436 H1421 0.960 . S
C1436 H1422 0.960 . S
C1436 H1423 0.960 . S
C1436 C1435 1.524 . S
C1437 C1434 1.403 1_545 S
C1437 C1438 1.392 . S
C1437 C1441 1.495 . S
C1438 C1437 1.392 . S
C1438 C1439 1.385 . S
C1438 C1440 1.478 . S
C1439 H1433 0.930 . S
C1439 C1435 1.400 1_545 S
C1439 C1438 1.385 . S
C1440 C1438 1.478 . S
C1440 C1442 1.381 . S
C1440 C1446 1.383 . S
C1441 C1437 1.495 . S
C1441 H1447 0.959 . S
C1441 H1448 0.961 . S
C1441 H1449 0.960 . S
C1442 C1440 1.381 . S
C1442 C1443 1.394 . S
C1442 H1450 0.930 . S
C1443 C1442 1.394 . S
C1443 C1444 1.383 . S
C1443 H1451 0.929 . S
C1444 C1443 1.383 . S
C1444 C1445 1.377 . S
C1445 H1429 0.930 . S
C1445 C1444 1.377 . S
C1445 C1446 1.379 . S
C1446 H1430 0.931 . S
C1446 C1440 1.383 . S
C1446 C1445 1.379 . S
H1447 C1441 0.959 . S
H1448 C1441 0.961 . S
H1449 C1441 0.960 . S
H1450 C1442 0.930 . S
H1451 C1443 0.929 . S
H1452 C1460 0.929 . S
H1453 C1462 0.930 . S
H1454 C1464 0.930 . S
H1455 C1467 0.929 . S
H1456 C1470 0.930 . S
H1457 C1472 0.960 . S
H1458 C1472 0.960 . S
H1459 C1472 0.960 . S
C1460 H1452 0.929 . S
C1460 C1461 1.377 . S
C1460 C1462 1.384 . S
C1461 C1460 1.377 . S
C1461 C1467 1.390 . S
C1462 H1453 0.930 . S
C1462 C1460 1.384 . S
C1462 C1463 1.372 . S
C1463 C1462 1.372 . S
C1463 C1464 1.400 . S
C1463 C1468 1.490 . S
C1464 H1454 0.930 . S
C1464 C1463 1.400 . S
C1464 C1467 1.386 . S
H1465 C1481 0.930 . S
H1466 C1482 0.931 . S
C1467 H1455 0.929 . S
C1467 C1461 1.390 . S
C1467 C1464 1.386 . S
C1468 C1463 1.490 . S
C1468 C1470 1.395 . S
C1468 C1471 1.403 . S
H1469 C1475 0.930 . S
C1470 H1456 0.930 . S
C1470 C1468 1.395 . S
C1470 C1473 1.403 1_655 S
C1471 C1468 1.403 . S
C1471 C1472 1.524 . S
C1471 C1475 1.400 1_655 S
C1472 H1457 0.960 . S
C1472 H1458 0.960 . S
C1472 H1459 0.960 . S
C1472 C1471 1.524 . S
C1473 C1470 1.403 1_455 S
C1473 C1474 1.392 . S
C1473 C1477 1.495 . S
C1474 C1473 1.392 . S
C1474 C1475 1.385 . S
C1474 C1476 1.478 . S
C1475 H1469 0.930 . S
C1475 C1471 1.400 1_455 S
C1475 C1474 1.385 . S
C1476 C1474 1.478 . S
C1476 C1478 1.381 . S
C1476 C1482 1.383 . S
C1477 C1473 1.495 . S
C1477 H1483 0.959 . S
C1477 H1484 0.961 . S
C1477 H1485 0.960 . S
C1478 C1476 1.381 . S
C1478 C1479 1.394 . S
C1478 H1486 0.930 . S
C1479 C1478 1.394 . S
C1479 C1480 1.383 . S
C1479 H1487 0.929 . S
C1480 C1479 1.383 . S
C1480 C1481 1.377 . S
C1481 H1465 0.930 . S
C1481 C1480 1.377 . S
C1481 C1482 1.379 . S
C1482 H1466 0.931 . S
C1482 C1476 1.383 . S
C1482 C1481 1.379 . S
H1483 C1477 0.959 . S
H1484 C1477 0.961 . S
H1485 C1477 0.960 . S
H1486 C1478 0.930 . S
H1487 C1479 0.929 . S
H1488 C1496 0.929 . S
H1489 C1498 0.930 . S
H1490 C1500 0.930 . S
H1491 C1503 0.929 . S
H1492 C1506 0.930 . S
H1493 C1508 0.960 . S
H1494 C1508 0.960 . S
H1495 C1508 0.960 . S
C1496 H1488 0.929 . S
C1496 C1497 1.377 . S
C1496 C1498 1.384 . S
C1497 C1496 1.377 . S
C1497 C1503 1.390 . S
C1498 H1489 0.930 . S
C1498 C1496 1.384 . S
C1498 C1499 1.372 . S
C1499 C1498 1.372 . S
C1499 C1500 1.400 . S
C1499 C1504 1.490 . S
C1500 H1490 0.930 . S
C1500 C1499 1.400 . S
C1500 C1503 1.386 . S
H1501 C1517 0.930 . S
H1502 C1518 0.931 . S
C1503 H1491 0.929 . S
C1503 C1497 1.390 . S
C1503 C1500 1.386 . S
C1504 C1499 1.490 . S
C1504 C1506 1.395 . S
C1504 C1507 1.403 . S
H1505 C1511 0.930 . S
C1506 H1492 0.930 . S
C1506 C1504 1.395 . S
C1506 C1509 1.403 1_556 S
C1507 C1504 1.403 . S
C1507 C1508 1.524 . S
C1507 C1511 1.400 1_556 S
C1508 H1493 0.960 . S
C1508 H1494 0.960 . S
C1508 H1495 0.960 . S
C1508 C1507 1.524 . S
C1509 C1506 1.403 1_554 S
C1509 C1510 1.392 . S
C1509 C1513 1.495 . S
C1510 C1509 1.392 . S
C1510 C1511 1.385 . S
C1510 C1512 1.478 . S
C1511 H1505 0.930 . S
C1511 C1507 1.400 1_554 S
C1511 C1510 1.385 . S
C1512 C1510 1.478 . S
C1512 C1514 1.381 . S
C1512 C1518 1.383 . S
C1513 C1509 1.495 . S
C1513 H1519 0.959 . S
C1513 H1520 0.961 . S
C1513 H1521 0.960 . S
C1514 C1512 1.381 . S
C1514 C1515 1.394 . S
C1514 H1522 0.930 . S
C1515 C1514 1.394 . S
C1515 C1516 1.383 . S
C1515 H1523 0.929 . S
C1516 C1515 1.383 . S
C1516 C1517 1.377 . S
C1517 H1501 0.930 . S
C1517 C1516 1.377 . S
C1517 C1518 1.379 . S
C1518 H1502 0.931 . S
C1518 C1512 1.383 . S
C1518 C1517 1.379 . S
H1519 C1513 0.959 . S
H1520 C1513 0.961 . S
H1521 C1513 0.960 . S
H1522 C1514 0.930 . S
H1523 C1515 0.929 . S
H1524 C1532 0.929 . S
H1525 C1534 0.930 . S
H1526 C1536 0.930 . S
H1527 C1539 0.929 . S
H1528 C1542 0.930 . S
H1529 C1544 0.960 . S
H1530 C1544 0.960 . S
H1531 C1544 0.960 . S
C1532 H1524 0.929 . S
C1532 C1533 1.377 . S
C1532 C1534 1.384 . S
C1533 C1532 1.377 . S
C1533 C1539 1.390 . S
C1534 H1525 0.930 . S
C1534 C1532 1.384 . S
C1534 C1535 1.372 . S
C1535 C1534 1.372 . S
C1535 C1536 1.400 . S
C1535 C1540 1.490 . S
C1536 H1526 0.930 . S
C1536 C1535 1.400 . S
C1536 C1539 1.386 . S
H1537 C1553 0.930 . S
H1538 C1554 0.931 . S
C1539 H1527 0.929 . S
C1539 C1533 1.390 . S
C1539 C1536 1.386 . S
C1540 C1535 1.490 . S
C1540 C1542 1.395 . S
C1540 C1543 1.403 . S
H1541 C1547 0.930 . S
C1542 H1528 0.930 . S
C1542 C1540 1.395 . S
C1542 C1545 1.403 1_556 S
C1543 C1540 1.403 . S
C1543 C1544 1.524 . S
C1543 C1547 1.400 1_556 S
C1544 H1529 0.960 . S
C1544 H1530 0.960 . S
C1544 H1531 0.960 . S
C1544 C1543 1.524 . S
C1545 C1542 1.403 1_554 S
C1545 C1546 1.392 . S
C1545 C1549 1.495 . S
C1546 C1545 1.392 . S
C1546 C1547 1.385 . S
C1546 C1548 1.478 . S
C1547 H1541 0.930 . S
C1547 C1543 1.400 1_554 S
C1547 C1546 1.385 . S
C1548 C1546 1.478 . S
C1548 C1550 1.381 . S
C1548 C1554 1.383 . S
C1549 C1545 1.495 . S
C1549 H1555 0.959 . S
C1549 H1556 0.961 . S
C1549 H1557 0.960 . S
C1550 C1548 1.381 . S
C1550 C1551 1.394 . S
C1550 H1558 0.930 . S
C1551 C1550 1.394 . S
C1551 C1552 1.383 . S
C1551 H1559 0.929 . S
C1552 C1551 1.383 . S
C1552 C1553 1.377 . S
C1553 H1537 0.930 . S
C1553 C1552 1.377 . S
C1553 C1554 1.379 . S
C1554 H1538 0.931 . S
C1554 C1548 1.383 . S
C1554 C1553 1.379 . S
H1555 C1549 0.959 . S
H1556 C1549 0.961 . S
H1557 C1549 0.960 . S
H1558 C1550 0.930 . S
H1559 C1551 0.929 . S
H1560 C1568 0.929 . S
H1561 C1570 0.930 . S
H1562 C1572 0.930 . S
H1563 C1575 0.929 . S
H1564 C1578 0.930 . S
H1565 C1580 0.960 . S
H1566 C1580 0.960 . S
H1567 C1580 0.960 . S
C1568 H1560 0.929 . S
C1568 C1569 1.377 . S
C1568 C1570 1.384 . S
C1569 C1568 1.377 . S
C1569 C1575 1.390 . S
C1570 H1561 0.930 . S
C1570 C1568 1.384 . S
C1570 C1571 1.372 . S
C1571 C1570 1.372 . S
C1571 C1572 1.400 . S
C1571 C1576 1.490 . S
C1572 H1562 0.930 . S
C1572 C1571 1.400 . S
C1572 C1575 1.386 . S
H1573 C1589 0.930 . S
H1574 C1590 0.931 . S
C1575 H1563 0.929 . S
C1575 C1569 1.390 . S
C1575 C1572 1.386 . S
C1576 C1571 1.490 . S
C1576 C1578 1.395 . S
C1576 C1579 1.403 . S
H1577 C1583 0.930 . S
C1578 H1564 0.930 . S
C1578 C1576 1.395 . S
C1578 C1581 1.403 1_556 S
C1579 C1576 1.403 . S
C1579 C1580 1.524 . S
C1579 C1583 1.400 1_556 S
C1580 H1565 0.960 . S
C1580 H1566 0.960 . S
C1580 H1567 0.960 . S
C1580 C1579 1.524 . S
C1581 C1578 1.403 1_554 S
C1581 C1582 1.392 . S
C1581 C1585 1.495 . S
C1582 C1581 1.392 . S
C1582 C1583 1.385 . S
C1582 C1584 1.478 . S
C1583 H1577 0.930 . S
C1583 C1579 1.400 1_554 S
C1583 C1582 1.385 . S
C1584 C1582 1.478 . S
C1584 C1586 1.381 . S
C1584 C1590 1.383 . S
C1585 C1581 1.495 . S
C1585 H1591 0.959 . S
C1585 H1592 0.961 . S
C1585 H1593 0.960 . S
C1586 C1584 1.381 . S
C1586 C1587 1.394 . S
C1586 H1594 0.930 . S
C1587 C1586 1.394 . S
C1587 C1588 1.383 . S
C1587 H1595 0.929 . S
C1588 C1587 1.383 . S
C1588 C1589 1.377 . S
C1589 H1573 0.930 . S
C1589 C1588 1.377 . S
C1589 C1590 1.379 . S
C1590 H1574 0.931 . S
C1590 C1584 1.383 . S
C1590 C1589 1.379 . S
H1591 C1585 0.959 . S
H1592 C1585 0.961 . S
H1593 C1585 0.960 . S
H1594 C1586 0.930 . S
H1595 C1587 0.929 . S
H1596 C1604 0.929 . S
H1597 C1606 0.930 . S
H1598 C1608 0.930 . S
H1599 C1611 0.929 . S
H1600 C1614 0.930 . S
H1601 C1616 0.960 . S
H1602 C1616 0.960 . S
H1603 C1616 0.960 . S
C1604 H1596 0.929 . S
C1604 C1605 1.377 . S
C1604 C1606 1.384 . S
C1605 C1604 1.377 . S
C1605 C1611 1.390 . S
C1606 H1597 0.930 . S
C1606 C1604 1.384 . S
C1606 C1607 1.372 . S
C1607 C1606 1.372 . S
C1607 C1608 1.400 . S
C1607 C1612 1.490 . S
C1608 H1598 0.930 . S
C1608 C1607 1.400 . S
C1608 C1611 1.386 . S
H1609 C1625 0.930 . S
H1610 C1626 0.931 . S
C1611 H1599 0.929 . S
C1611 C1605 1.390 . S
C1611 C1608 1.386 . S
C1612 C1607 1.490 . S
C1612 C1614 1.395 . S
C1612 C1615 1.403 . S
H1613 C1619 0.930 . S
C1614 H1600 0.930 . S
C1614 C1612 1.395 . S
C1614 C1617 1.403 1_556 S
C1615 C1612 1.403 . S
C1615 C1616 1.524 . S
C1615 C1619 1.400 1_556 S
C1616 H1601 0.960 . S
C1616 H1602 0.960 . S
C1616 H1603 0.960 . S
C1616 C1615 1.524 . S
C1617 C1614 1.403 1_554 S
C1617 C1618 1.392 . S
C1617 C1621 1.495 . S
C1618 C1617 1.392 . S
C1618 C1619 1.385 . S
C1618 C1620 1.478 . S
C1619 H1613 0.930 . S
C1619 C1615 1.400 1_554 S
C1619 C1618 1.385 . S
C1620 C1618 1.478 . S
C1620 C1622 1.381 . S
C1620 C1626 1.383 . S
C1621 C1617 1.495 . S
C1621 H1627 0.959 . S
C1621 H1628 0.961 . S
C1621 H1629 0.960 . S
C1622 C1620 1.381 . S
C1622 C1623 1.394 . S
C1622 H1630 0.930 . S
C1623 C1622 1.394 . S
C1623 C1624 1.383 . S
C1623 H1631 0.929 . S
C1624 C1623 1.383 . S
C1624 C1625 1.377 . S
C1625 H1609 0.930 . S
C1625 C1624 1.377 . S
C1625 C1626 1.379 . S
C1626 H1610 0.931 . S
C1626 C1620 1.383 . S
C1626 C1625 1.379 . S
H1627 C1621 0.959 . S
H1628 C1621 0.961 . S
H1629 C1621 0.960 . S
H1630 C1622 0.930 . S
H1631 C1623 0.929 . S
H1632 C1640 0.929 . S
H1633 C1642 0.930 . S
H1634 C1644 0.930 . S
H1635 C1647 0.929 . S
H1636 C1650 0.930 . S
H1637 C1652 0.960 . S
H1638 C1652 0.960 . S
H1639 C1652 0.960 . S
C1640 H1632 0.929 . S
C1640 C1641 1.377 . S
C1640 C1642 1.384 . S
C1641 C1640 1.377 . S
C1641 C1647 1.390 . S
C1642 H1633 0.930 . S
C1642 C1640 1.384 . S
C1642 C1643 1.372 . S
C1643 C1642 1.372 . S
C1643 C1644 1.400 . S
C1643 C1648 1.490 . S
C1644 H1634 0.930 . S
C1644 C1643 1.400 . S
C1644 C1647 1.386 . S
H1645 C1661 0.930 . S
H1646 C1662 0.931 . S
C1647 H1635 0.929 . S
C1647 C1641 1.390 . S
C1647 C1644 1.386 . S
C1648 C1643 1.490 . S
C1648 C1650 1.395 . S
C1648 C1651 1.403 . S
H1649 C1655 0.930 . S
C1650 H1636 0.930 . S
C1650 C1648 1.395 . S
C1650 C1653 1.403 . S
C1651 C1648 1.403 . S
C1651 C1652 1.524 . S
C1651 C1655 1.400 . S
C1652 H1637 0.960 . S
C1652 H1638 0.960 . S
C1652 H1639 0.960 . S
C1652 C1651 1.524 . S
C1653 C1650 1.403 . S
C1653 C1654 1.392 . S
C1653 C1657 1.495 . S
C1654 C1653 1.392 . S
C1654 C1655 1.385 . S
C1654 C1656 1.478 . S
C1655 H1649 0.930 . S
C1655 C1651 1.400 . S
C1655 C1654 1.385 . S
C1656 C1654 1.478 . S
C1656 C1658 1.381 . S
C1656 C1662 1.383 . S
C1657 C1653 1.495 . S
C1657 H1663 0.959 . S
C1657 H1664 0.961 . S
C1657 H1665 0.960 . S
C1658 C1656 1.381 . S
C1658 C1659 1.394 . S
C1658 H1666 0.930 . S
C1659 C1658 1.394 . S
C1659 C1660 1.383 . S
C1659 H1667 0.929 . S
C1660 C1659 1.383 . S
C1660 C1661 1.377 . S
C1661 H1645 0.930 . S
C1661 C1660 1.377 . S
C1661 C1662 1.379 . S
C1662 H1646 0.931 . S
C1662 C1656 1.383 . S
C1662 C1661 1.379 . S
H1663 C1657 0.959 . S
H1664 C1657 0.961 . S
H1665 C1657 0.960 . S
H1666 C1658 0.930 . S
H1667 C1659 0.929 . S
H1668 C1676 0.929 . S
H1669 C1678 0.930 . S
H1670 C1680 0.930 . S
H1671 C1683 0.929 . S
H1672 C1686 0.930 . S
H1673 C1688 0.960 . S
H1674 C1688 0.960 . S
H1675 C1688 0.960 . S
C1676 H1668 0.929 . S
C1676 C1677 1.377 . S
C1676 C1678 1.384 . S
C1677 C1676 1.377 . S
C1677 C1683 1.390 . S
C1678 H1669 0.930 . S
C1678 C1676 1.384 . S
C1678 C1679 1.372 . S
C1679 C1678 1.372 . S
C1679 C1680 1.400 . S
C1679 C1684 1.490 . S
C1680 H1670 0.930 . S
C1680 C1679 1.400 . S
C1680 C1683 1.386 . S
H1681 C1697 0.930 . S
H1682 C1698 0.931 . S
C1683 H1671 0.929 . S
C1683 C1677 1.390 . S
C1683 C1680 1.386 . S
C1684 C1679 1.490 . S
C1684 C1686 1.395 . S
C1684 C1687 1.403 . S
H1685 C1691 0.930 . S
C1686 H1672 0.930 . S
C1686 C1684 1.395 . S
C1686 C1689 1.403 . S
C1687 C1684 1.403 . S
C1687 C1688 1.524 . S
C1687 C1691 1.400 . S
C1688 H1673 0.960 . S
C1688 H1674 0.960 . S
C1688 H1675 0.960 . S
C1688 C1687 1.524 . S
C1689 C1686 1.403 . S
C1689 C1690 1.392 . S
C1689 C1693 1.495 . S
C1690 C1689 1.392 . S
C1690 C1691 1.385 . S
C1690 C1692 1.478 . S
C1691 H1685 0.930 . S
C1691 C1687 1.400 . S
C1691 C1690 1.385 . S
C1692 C1690 1.478 . S
C1692 C1694 1.381 . S
C1692 C1698 1.383 . S
C1693 C1689 1.495 . S
C1693 H1699 0.959 . S
C1693 H1700 0.961 . S
C1693 H1701 0.960 . S
C1694 C1692 1.381 . S
C1694 C1695 1.394 . S
C1694 H1702 0.930 . S
C1695 C1694 1.394 . S
C1695 C1696 1.383 . S
C1695 H1703 0.929 . S
C1696 C1695 1.383 . S
C1696 C1697 1.377 . S
C1697 H1681 0.930 . S
C1697 C1696 1.377 . S
C1697 C1698 1.379 . S
C1698 H1682 0.931 . S
C1698 C1692 1.383 . S
C1698 C1697 1.379 . S
H1699 C1693 0.959 . S
H1700 C1693 0.961 . S
H1701 C1693 0.960 . S
H1702 C1694 0.930 . S
H1703 C1695 0.929 . S
H1704 C1712 0.929 . S
H1705 C1714 0.930 . S
H1706 C1716 0.930 . S
H1707 C1719 0.929 . S
H1708 C1722 0.930 . S
H1709 C1724 0.960 . S
H1710 C1724 0.960 . S
H1711 C1724 0.960 . S
C1712 H1704 0.929 . S
C1712 C1713 1.377 . S
C1712 C1714 1.384 . S
C1713 C1712 1.377 . S
C1713 C1719 1.390 . S
C1714 H1705 0.930 . S
C1714 C1712 1.384 . S
C1714 C1715 1.372 . S
C1715 C1714 1.372 . S
C1715 C1716 1.400 . S
C1715 C1720 1.490 . S
C1716 H1706 0.930 . S
C1716 C1715 1.400 . S
C1716 C1719 1.386 . S
H1717 C1733 0.930 . S
H1718 C1734 0.931 . S
C1719 H1707 0.929 . S
C1719 C1713 1.390 . S
C1719 C1716 1.386 . S
C1720 C1715 1.490 . S
C1720 C1722 1.395 . S
C1720 C1723 1.403 . S
H1721 C1727 0.930 . S
C1722 H1708 0.930 . S
C1722 C1720 1.395 . S
C1722 C1725 1.403 . S
C1723 C1720 1.403 . S
C1723 C1724 1.524 . S
C1723 C1727 1.400 . S
C1724 H1709 0.960 . S
C1724 H1710 0.960 . S
C1724 H1711 0.960 . S
C1724 C1723 1.524 . S
C1725 C1722 1.403 . S
C1725 C1726 1.392 . S
C1725 C1729 1.495 . S
C1726 C1725 1.392 . S
C1726 C1727 1.385 . S
C1726 C1728 1.478 . S
C1727 H1721 0.930 . S
C1727 C1723 1.400 . S
C1727 C1726 1.385 . S
C1728 C1726 1.478 . S
C1728 C1730 1.381 . S
C1728 C1734 1.383 . S
C1729 C1725 1.495 . S
C1729 H1735 0.959 . S
C1729 H1736 0.961 . S
C1729 H1737 0.960 . S
C1730 C1728 1.381 . S
C1730 C1731 1.394 . S
C1730 H1738 0.930 . S
C1731 C1730 1.394 . S
C1731 C1732 1.383 . S
C1731 H1739 0.929 . S
C1732 C1731 1.383 . S
C1732 C1733 1.377 . S
C1733 H1717 0.930 . S
C1733 C1732 1.377 . S
C1733 C1734 1.379 . S
C1734 H1718 0.931 . S
C1734 C1728 1.383 . S
C1734 C1733 1.379 . S
H1735 C1729 0.959 . S
H1736 C1729 0.961 . S
H1737 C1729 0.960 . S
H1738 C1730 0.930 . S
H1739 C1731 0.929 . S
H1740 C1748 0.929 . S
H1741 C1750 0.930 . S
H1742 C1752 0.930 . S
H1743 C1755 0.929 . S
H1744 C1758 0.930 . S
H1745 C1760 0.960 . S
H1746 C1760 0.960 . S
H1747 C1760 0.960 . S
C1748 H1740 0.929 . S
C1748 C1749 1.377 . S
C1748 C1750 1.384 . S
C1749 C1748 1.377 . S
C1749 C1755 1.390 . S
C1750 H1741 0.930 . S
C1750 C1748 1.384 . S
C1750 C1751 1.372 . S
C1751 C1750 1.372 . S
C1751 C1752 1.400 . S
C1751 C1756 1.490 . S
C1752 H1742 0.930 . S
C1752 C1751 1.400 . S
C1752 C1755 1.386 . S
H1753 C1769 0.930 . S
H1754 C1770 0.931 . S
C1755 H1743 0.929 . S
C1755 C1749 1.390 . S
C1755 C1752 1.386 . S
C1756 C1751 1.490 . S
C1756 C1758 1.395 . S
C1756 C1759 1.403 . S
H1757 C1763 0.930 . S
C1758 H1744 0.930 . S
C1758 C1756 1.395 . S
C1758 C1761 1.403 . S
C1759 C1756 1.403 . S
C1759 C1760 1.524 . S
C1759 C1763 1.400 . S
C1760 H1745 0.960 . S
C1760 H1746 0.960 . S
C1760 H1747 0.960 . S
C1760 C1759 1.524 . S
C1761 C1758 1.403 . S
C1761 C1762 1.392 . S
C1761 C1765 1.495 . S
C1762 C1761 1.392 . S
C1762 C1763 1.385 . S
C1762 C1764 1.478 . S
C1763 H1757 0.930 . S
C1763 C1759 1.400 . S
C1763 C1762 1.385 . S
C1764 C1762 1.478 . S
C1764 C1766 1.381 . S
C1764 C1770 1.383 . S
C1765 C1761 1.495 . S
C1765 H1771 0.959 . S
C1765 H1772 0.961 . S
C1765 H1773 0.960 . S
C1766 C1764 1.381 . S
C1766 C1767 1.394 . S
C1766 H1774 0.930 . S
C1767 C1766 1.394 . S
C1767 C1768 1.383 . S
C1767 H1775 0.929 . S
C1768 C1767 1.383 . S
C1768 C1769 1.377 . S
C1769 H1753 0.930 . S
C1769 C1768 1.377 . S
C1769 C1770 1.379 . S
C1770 H1754 0.931 . S
C1770 C1764 1.383 . S
C1770 C1769 1.379 . S
H1771 C1765 0.959 . S
H1772 C1765 0.961 . S
H1773 C1765 0.960 . S
H1774 C1766 0.930 . S
H1775 C1767 0.929 . S
H1776 C1784 0.929 . S
H1777 C1786 0.930 . S
H1778 C1788 0.930 . S
H1779 C1791 0.929 . S
H1780 C1794 0.930 . S
H1781 C1796 0.960 . S
H1782 C1796 0.960 . S
H1783 C1796 0.960 . S
C1784 H1776 0.929 . S
C1784 C1785 1.377 . S
C1784 C1786 1.384 . S
C1785 C1784 1.377 . S
C1785 C1791 1.390 . S
C1786 H1777 0.930 . S
C1786 C1784 1.384 . S
C1786 C1787 1.372 . S
C1787 C1786 1.372 . S
C1787 C1788 1.400 . S
C1787 C1792 1.490 . S
C1788 H1778 0.930 . S
C1788 C1787 1.400 . S
C1788 C1791 1.386 . S
H1789 C1805 0.930 . S
H1790 C1806 0.931 . S
C1791 H1779 0.929 . S
C1791 C1785 1.390 . S
C1791 C1788 1.386 . S
C1792 C1787 1.490 . S
C1792 C1794 1.395 . S
C1792 C1795 1.403 . S
H1793 C1799 0.930 . S
C1794 H1780 0.930 . S
C1794 C1792 1.395 . S
C1794 C1797 1.403 . S
C1795 C1792 1.403 . S
C1795 C1796 1.524 . S
C1795 C1799 1.400 . S
C1796 H1781 0.960 . S
C1796 H1782 0.960 . S
C1796 H1783 0.960 . S
C1796 C1795 1.524 . S
C1797 C1794 1.403 . S
C1797 C1798 1.392 . S
C1797 C1801 1.495 . S
C1798 C1797 1.392 . S
C1798 C1799 1.385 . S
C1798 C1800 1.478 . S
C1799 H1793 0.930 . S
C1799 C1795 1.400 . S
C1799 C1798 1.385 . S
C1800 C1798 1.478 . S
C1800 C1802 1.381 . S
C1800 C1806 1.383 . S
C1801 C1797 1.495 . S
C1801 H1807 0.959 . S
C1801 H1808 0.961 . S
C1801 H1809 0.960 . S
C1802 C1800 1.381 . S
C1802 C1803 1.394 . S
C1802 H1810 0.930 . S
C1803 C1802 1.394 . S
C1803 C1804 1.383 . S
C1803 H1811 0.929 . S
C1804 C1803 1.383 . S
C1804 C1805 1.377 . S
C1805 H1789 0.930 . S
C1805 C1804 1.377 . S
C1805 C1806 1.379 . S
C1806 H1790 0.931 . S
C1806 C1800 1.383 . S
C1806 C1805 1.379 . S
H1807 C1801 0.959 . S
H1808 C1801 0.961 . S
H1809 C1801 0.960 . S
H1810 C1802 0.930 . S
H1811 C1803 0.929 . S
H1812 C1820 0.929 . S
H1813 C1822 0.930 . S
H1814 C1824 0.930 . S
H1815 C1827 0.929 . S
H1816 C1830 0.930 . S
H1817 C1832 0.960 . S
H1818 C1832 0.960 . S
H1819 C1832 0.960 . S
C1820 H1812 0.929 . S
C1820 C1821 1.377 . S
C1820 C1822 1.384 . S
C1821 C1820 1.377 . S
C1821 C1827 1.390 . S
C1822 H1813 0.930 . S
C1822 C1820 1.384 . S
C1822 C1823 1.372 . S
C1823 C1822 1.372 . S
C1823 C1824 1.400 . S
C1823 C1828 1.490 . S
C1824 H1814 0.930 . S
C1824 C1823 1.400 . S
C1824 C1827 1.386 . S
H1825 C1841 0.930 . S
H1826 C1842 0.931 . S
C1827 H1815 0.929 . S
C1827 C1821 1.390 . S
C1827 C1824 1.386 . S
C1828 C1823 1.490 . S
C1828 C1830 1.395 . S
C1828 C1831 1.403 . S
H1829 C1835 0.930 . S
C1830 H1816 0.930 . S
C1830 C1828 1.395 . S
C1830 C1833 1.403 . S
C1831 C1828 1.403 . S
C1831 C1832 1.524 . S
C1831 C1835 1.400 . S
C1832 H1817 0.960 . S
C1832 H1818 0.960 . S
C1832 H1819 0.960 . S
C1832 C1831 1.524 . S
C1833 C1830 1.403 . S
C1833 C1834 1.392 . S
C1833 C1837 1.495 . S
C1834 C1833 1.392 . S
C1834 C1835 1.385 . S
C1834 C1836 1.478 . S
C1835 H1829 0.930 . S
C1835 C1831 1.400 . S
C1835 C1834 1.385 . S
C1836 C1834 1.478 . S
C1836 C1838 1.381 . S
C1836 C1842 1.383 . S
C1837 C1833 1.495 . S
C1837 H1843 0.959 . S
C1837 H1844 0.961 . S
C1837 H1845 0.960 . S
C1838 C1836 1.381 . S
C1838 C1839 1.394 . S
C1838 H1846 0.930 . S
C1839 C1838 1.394 . S
C1839 C1840 1.383 . S
C1839 H1847 0.929 . S
C1840 C1839 1.383 . S
C1840 C1841 1.377 . S
C1841 H1825 0.930 . S
C1841 C1840 1.377 . S
C1841 C1842 1.379 . S
C1842 H1826 0.931 . S
C1842 C1836 1.383 . S
C1842 C1841 1.379 . S
H1843 C1837 0.959 . S
H1844 C1837 0.961 . S
H1845 C1837 0.960 . S
H1846 C1838 0.930 . S
H1847 C1839 0.929 . S
H1848 C1856 0.929 . S
H1849 C1858 0.930 . S
H1850 C1860 0.930 . S
H1851 C1863 0.929 . S
H1852 C1866 0.930 . S
H1853 C1868 0.960 . S
H1854 C1868 0.960 . S
H1855 C1868 0.960 . S
C1856 H1848 0.929 . S
C1856 C1857 1.377 . S
C1856 C1858 1.384 . S
C1857 C1856 1.377 . S
C1857 C1863 1.390 . S
C1858 H1849 0.930 . S
C1858 C1856 1.384 . S
C1858 C1859 1.372 . S
C1859 C1858 1.372 . S
C1859 C1860 1.400 . S
C1859 C1864 1.490 . S
C1860 H1850 0.930 . S
C1860 C1859 1.400 . S
C1860 C1863 1.386 . S
H1861 C1877 0.930 . S
H1862 C1878 0.931 . S
C1863 H1851 0.929 . S
C1863 C1857 1.390 . S
C1863 C1860 1.386 . S
C1864 C1859 1.490 . S
C1864 C1866 1.395 . S
C1864 C1867 1.403 . S
H1865 C1871 0.930 . S
C1866 H1852 0.930 . S
C1866 C1864 1.395 . S
C1866 C1869 1.403 . S
C1867 C1864 1.403 . S
C1867 C1868 1.524 . S
C1867 C1871 1.400 . S
C1868 H1853 0.960 . S
C1868 H1854 0.960 . S
C1868 H1855 0.960 . S
C1868 C1867 1.524 . S
C1869 C1866 1.403 . S
C1869 C1870 1.392 . S
C1869 C1873 1.495 . S
C1870 C1869 1.392 . S
C1870 C1871 1.385 . S
C1870 C1872 1.478 . S
C1871 H1865 0.930 . S
C1871 C1867 1.400 . S
C1871 C1870 1.385 . S
C1872 C1870 1.478 . S
C1872 C1874 1.381 . S
C1872 C1878 1.383 . S
C1873 C1869 1.495 . S
C1873 H1879 0.959 . S
C1873 H1880 0.961 . S
C1873 H1881 0.960 . S
C1874 C1872 1.381 . S
C1874 C1875 1.394 . S
C1874 H1882 0.930 . S
C1875 C1874 1.394 . S
C1875 C1876 1.383 . S
C1875 H1883 0.929 . S
C1876 C1875 1.383 . S
C1876 C1877 1.377 . S
C1877 H1861 0.930 . S
C1877 C1876 1.377 . S
C1877 C1878 1.379 . S
C1878 H1862 0.931 . S
C1878 C1872 1.383 . S
C1878 C1877 1.379 . S
H1879 C1873 0.959 . S
H1880 C1873 0.961 . S
H1881 C1873 0.960 . S
H1882 C1874 0.930 . S
H1883 C1875 0.929 . S
H1884 C1892 0.929 . S
H1885 C1894 0.930 . S
H1886 C1896 0.930 . S
H1887 C1899 0.929 . S
H1888 C1902 0.930 . S
H1889 C1904 0.960 . S
H1890 C1904 0.960 . S
H1891 C1904 0.960 . S
C1892 H1884 0.929 . S
C1892 C1893 1.377 . S
C1892 C1894 1.384 . S
C1893 C1892 1.377 . S
C1893 C1899 1.390 . S
C1894 H1885 0.930 . S
C1894 C1892 1.384 . S
C1894 C1895 1.372 . S
C1895 C1894 1.372 . S
C1895 C1896 1.400 . S
C1895 C1900 1.490 . S
C1896 H1886 0.930 . S
C1896 C1895 1.400 . S
C1896 C1899 1.386 . S
H1897 C1913 0.930 . S
H1898 C1914 0.931 . S
C1899 H1887 0.929 . S
C1899 C1893 1.390 . S
C1899 C1896 1.386 . S
C1900 C1895 1.490 . S
C1900 C1902 1.395 . S
C1900 C1903 1.403 . S
H1901 C1907 0.930 . S
C1902 H1888 0.930 . S
C1902 C1900 1.395 . S
C1902 C1905 1.403 . S
C1903 C1900 1.403 . S
C1903 C1904 1.524 . S
C1903 C1907 1.400 . S
C1904 H1889 0.960 . S
C1904 H1890 0.960 . S
C1904 H1891 0.960 . S
C1904 C1903 1.524 . S
C1905 C1902 1.403 . S
C1905 C1906 1.392 . S
C1905 C1909 1.495 . S
C1906 C1905 1.392 . S
C1906 C1907 1.385 . S
C1906 C1908 1.478 . S
C1907 H1901 0.930 . S
C1907 C1903 1.400 . S
C1907 C1906 1.385 . S
C1908 C1906 1.478 . S
C1908 C1910 1.381 . S
C1908 C1914 1.383 . S
C1909 C1905 1.495 . S
C1909 H1915 0.959 . S
C1909 H1916 0.961 . S
C1909 H1917 0.960 . S
C1910 C1908 1.381 . S
C1910 C1911 1.394 . S
C1910 H1918 0.930 . S
C1911 C1910 1.394 . S
C1911 C1912 1.383 . S
C1911 H1919 0.929 . S
C1912 C1911 1.383 . S
C1912 C1913 1.377 . S
C1913 H1897 0.930 . S
C1913 C1912 1.377 . S
C1913 C1914 1.379 . S
C1914 H1898 0.931 . S
C1914 C1908 1.383 . S
C1914 C1913 1.379 . S
H1915 C1909 0.959 . S
H1916 C1909 0.961 . S
H1917 C1909 0.960 . S
H1918 C1910 0.930 . S
H1919 C1911 0.929 . S
H1920 C1928 0.929 . S
H1921 C1930 0.930 . S
H1922 C1932 0.930 . S
H1923 C1935 0.929 . S
H1924 C1938 0.930 . S
H1925 C1940 0.960 . S
H1926 C1940 0.960 . S
H1927 C1940 0.960 . S
C1928 H1920 0.929 . S
C1928 C1929 1.377 . S
C1928 C1930 1.384 . S
C1929 C1928 1.377 . S
C1929 C1935 1.390 . S
C1930 H1921 0.930 . S
C1930 C1928 1.384 . S
C1930 C1931 1.372 . S
C1931 C1930 1.372 . S
C1931 C1932 1.400 . S
C1931 C1936 1.490 . S
C1932 H1922 0.930 . S
C1932 C1931 1.400 . S
C1932 C1935 1.386 . S
H1933 C1949 0.930 . S
H1934 C1950 0.931 . S
C1935 H1923 0.929 . S
C1935 C1929 1.390 . S
C1935 C1932 1.386 . S
C1936 C1931 1.490 . S
C1936 C1938 1.395 . S
C1936 C1939 1.403 . S
H1937 C1943 0.930 . S
C1938 H1924 0.930 . S
C1938 C1936 1.395 . S
C1938 C1941 1.403 . S
C1939 C1936 1.403 . S
C1939 C1940 1.524 . S
C1939 C1943 1.400 . S
C1940 H1925 0.960 . S
C1940 H1926 0.960 . S
C1940 H1927 0.960 . S
C1940 C1939 1.524 . S
C1941 C1938 1.403 . S
C1941 C1942 1.392 . S
C1941 C1945 1.495 . S
C1942 C1941 1.392 . S
C1942 C1943 1.385 . S
C1942 C1944 1.478 . S
C1943 H1937 0.930 . S
C1943 C1939 1.400 . S
C1943 C1942 1.385 . S
C1944 C1942 1.478 . S
C1944 C1946 1.381 . S
C1944 C1950 1.383 . S
C1945 C1941 1.495 . S
C1945 H1951 0.959 . S
C1945 H1952 0.961 . S
C1945 H1953 0.960 . S
C1946 C1944 1.381 . S
C1946 C1947 1.394 . S
C1946 H1954 0.930 . S
C1947 C1946 1.394 . S
C1947 C1948 1.383 . S
C1947 H1955 0.929 . S
C1948 C1947 1.383 . S
C1948 C1949 1.377 . S
C1949 H1933 0.930 . S
C1949 C1948 1.377 . S
C1949 C1950 1.379 . S
C1950 H1934 0.931 . S
C1950 C1944 1.383 . S
C1950 C1949 1.379 . S
H1951 C1945 0.959 . S
H1952 C1945 0.961 . S
H1953 C1945 0.960 . S
H1954 C1946 0.930 . S
H1955 C1947 0.929 . S
H1956 C1964 0.929 . S
H1957 C1966 0.930 . S
H1958 C1968 0.930 . S
H1959 C1971 0.929 . S
H1960 C1974 0.930 . S
H1961 C1976 0.960 . S
H1962 C1976 0.960 . S
H1963 C1976 0.960 . S
C1964 H1956 0.929 . S
C1964 C1965 1.377 . S
C1964 C1966 1.384 . S
C1965 C1964 1.377 . S
C1965 C1971 1.390 . S
C1966 H1957 0.930 . S
C1966 C1964 1.384 . S
C1966 C1967 1.372 . S
C1967 C1966 1.372 . S
C1967 C1968 1.400 . S
C1967 C1972 1.490 . S
C1968 H1958 0.930 . S
C1968 C1967 1.400 . S
C1968 C1971 1.386 . S
H1969 C1985 0.930 . S
H1970 C1986 0.931 . S
C1971 H1959 0.929 . S
C1971 C1965 1.390 . S
C1971 C1968 1.386 . S
C1972 C1967 1.490 . S
C1972 C1974 1.395 . S
C1972 C1975 1.403 . S
H1973 C1979 0.930 . S
C1974 H1960 0.930 . S
C1974 C1972 1.395 . S
C1974 C1977 1.403 . S
C1975 C1972 1.403 . S
C1975 C1976 1.524 . S
C1975 C1979 1.400 . S
C1976 H1961 0.960 . S
C1976 H1962 0.960 . S
C1976 H1963 0.960 . S
C1976 C1975 1.524 . S
C1977 C1974 1.403 . S
C1977 C1978 1.392 . S
C1977 C1981 1.495 . S
C1978 C1977 1.392 . S
C1978 C1979 1.385 . S
C1978 C1980 1.478 . S
C1979 H1973 0.930 . S
C1979 C1975 1.400 . S
C1979 C1978 1.385 . S
C1980 C1978 1.478 . S
C1980 C1982 1.381 . S
C1980 C1986 1.383 . S
C1981 C1977 1.495 . S
C1981 H1987 0.959 . S
C1981 H1988 0.961 . S
C1981 H1989 0.960 . S
C1982 C1980 1.381 . S
C1982 C1983 1.394 . S
C1982 H1990 0.930 . S
C1983 C1982 1.394 . S
C1983 C1984 1.383 . S
C1983 H1991 0.929 . S
C1984 C1983 1.383 . S
C1984 C1985 1.377 . S
C1985 H1969 0.930 . S
C1985 C1984 1.377 . S
C1985 C1986 1.379 . S
C1986 H1970 0.931 . S
C1986 C1980 1.383 . S
C1986 C1985 1.379 . S
H1987 C1981 0.959 . S
H1988 C1981 0.961 . S
H1989 C1981 0.960 . S
H1990 C1982 0.930 . S
H1991 C1983 0.929 . S
H1992 C2000 0.929 . S
H1993 C2002 0.930 . S
H1994 C2004 0.930 . S
H1995 C2007 0.929 . S
H1996 C2010 0.930 . S
H1997 C2012 0.960 . S
H1998 C2012 0.960 . S
H1999 C2012 0.960 . S
C2000 H1992 0.929 . S
C2000 C2001 1.377 . S
C2000 C2002 1.384 . S
C2001 C2000 1.377 . S
C2001 C2007 1.390 . S
C2002 H1993 0.930 . S
C2002 C2000 1.384 . S
C2002 C2003 1.372 . S
C2003 C2002 1.372 . S
C2003 C2004 1.400 . S
C2003 C2008 1.490 . S
C2004 H1994 0.930 . S
C2004 C2003 1.400 . S
C2004 C2007 1.386 . S
H2005 C2021 0.930 . S
H2006 C2022 0.931 . S
C2007 H1995 0.929 . S
C2007 C2001 1.390 . S
C2007 C2004 1.386 . S
C2008 C2003 1.490 . S
C2008 C2010 1.395 . S
C2008 C2011 1.403 . S
H2009 C2015 0.930 . S
C2010 H1996 0.930 . S
C2010 C2008 1.395 . S
C2010 C2013 1.403 . S
C2011 C2008 1.403 . S
C2011 C2012 1.524 . S
C2011 C2015 1.400 . S
C2012 H1997 0.960 . S
C2012 H1998 0.960 . S
C2012 H1999 0.960 . S
C2012 C2011 1.524 . S
C2013 C2010 1.403 . S
C2013 C2014 1.392 . S
C2013 C2017 1.495 . S
C2014 C2013 1.392 . S
C2014 C2015 1.385 . S
C2014 C2016 1.478 . S
C2015 H2009 0.930 . S
C2015 C2011 1.400 . S
C2015 C2014 1.385 . S
C2016 C2014 1.478 . S
C2016 C2018 1.381 . S
C2016 C2022 1.383 . S
C2017 C2013 1.495 . S
C2017 H2023 0.959 . S
C2017 H2024 0.961 . S
C2017 H2025 0.960 . S
C2018 C2016 1.381 . S
C2018 C2019 1.394 . S
C2018 H2026 0.930 . S
C2019 C2018 1.394 . S
C2019 C2020 1.383 . S
C2019 H2027 0.929 . S
C2020 C2019 1.383 . S
C2020 C2021 1.377 . S
C2021 H2005 0.930 . S
C2021 C2020 1.377 . S
C2021 C2022 1.379 . S
C2022 H2006 0.931 . S
C2022 C2016 1.383 . S
C2022 C2021 1.379 . S
H2023 C2017 0.959 . S
H2024 C2017 0.961 . S
H2025 C2017 0.960 . S
H2026 C2018 0.930 . S
H2027 C2019 0.929 . S
H2028 C2036 0.929 . S
H2029 C2038 0.930 . S
H2030 C2040 0.930 . S
H2031 C2043 0.929 . S
H2032 C2046 0.930 . S
H2033 C2048 0.960 . S
H2034 C2048 0.960 . S
H2035 C2048 0.960 . S
C2036 H2028 0.929 . S
C2036 C2037 1.377 . S
C2036 C2038 1.384 . S
C2037 C2036 1.377 . S
C2037 C2043 1.390 . S
C2038 H2029 0.930 . S
C2038 C2036 1.384 . S
C2038 C2039 1.372 . S
C2039 C2038 1.372 . S
C2039 C2040 1.400 . S
C2039 C2044 1.490 . S
C2040 H2030 0.930 . S
C2040 C2039 1.400 . S
C2040 C2043 1.386 . S
H2041 C2057 0.930 . S
H2042 C2058 0.931 . S
C2043 H2031 0.929 . S
C2043 C2037 1.390 . S
C2043 C2040 1.386 . S
C2044 C2039 1.490 . S
C2044 C2046 1.395 . S
C2044 C2047 1.403 . S
H2045 C2051 0.930 . S
C2046 H2032 0.930 . S
C2046 C2044 1.395 . S
C2046 C2049 1.403 . S
C2047 C2044 1.403 . S
C2047 C2048 1.524 . S
C2047 C2051 1.400 . S
C2048 H2033 0.960 . S
C2048 H2034 0.960 . S
C2048 H2035 0.960 . S
C2048 C2047 1.524 . S
C2049 C2046 1.403 . S
C2049 C2050 1.392 . S
C2049 C2053 1.495 . S
C2050 C2049 1.392 . S
C2050 C2051 1.385 . S
C2050 C2052 1.478 . S
C2051 H2045 0.930 . S
C2051 C2047 1.400 . S
C2051 C2050 1.385 . S
C2052 C2050 1.478 . S
C2052 C2054 1.381 . S
C2052 C2058 1.383 . S
C2053 C2049 1.495 . S
C2053 H2059 0.959 . S
C2053 H2060 0.961 . S
C2053 H2061 0.960 . S
C2054 C2052 1.381 . S
C2054 C2055 1.394 . S
C2054 H2062 0.930 . S
C2055 C2054 1.394 . S
C2055 C2056 1.383 . S
C2055 H2063 0.929 . S
C2056 C2055 1.383 . S
C2056 C2057 1.377 . S
C2057 H2041 0.930 . S
C2057 C2056 1.377 . S
C2057 C2058 1.379 . S
C2058 H2042 0.931 . S
C2058 C2052 1.383 . S
C2058 C2057 1.379 . S
H2059 C2053 0.959 . S
H2060 C2053 0.961 . S
H2061 C2053 0.960 . S
H2062 C2054 0.930 . S
H2063 C2055 0.929 . S
C345 C163 1.387 . S
C364 C0 1.370 . S
C381 C14 1.341 . S
C400 C121 1.393 . S
C417 C28 1.340 . S
C436 C135 1.386 . S
C453 C42 1.347 . S
C472 C149 1.392 . S
C489 C191 1.389 . S
C508 C56 1.339 . S
C525 C70 1.342 . S
C544 C205 1.394 . S
C561 C219 1.388 . S
C580 C84 1.315 . S
C597 C177 1.387 . S
C616 C98 1.370 . S
C633 C79 1.389 . S
C652 C112 1.341 . S
C669 C93 1.385 . S
C688 C126 1.368 . S
C705 C140 1.346 . S
C724 C107 1.393 . S
C741 C65 1.386 . S
C760 C154 1.371 . S
C777 C51 1.388 . S
C796 C168 1.315 . S
C813 C182 1.340 . S
C832 C9 1.385 . S
C849 C196 1.349 . S
C868 C23 1.389 . S
C885 C210 1.341 . S
C904 C37 1.382 . S
C921 C224 1.351 . S
C940 C331 1.376 . S
C957 C289 1.386 . S
C976 C238 1.371 . S
C993 C252 1.349 . S
C1012 C247 1.389 . S
C1029 C266 1.347 . S
C1048 C261 1.393 . S
C1065 C275 1.386 . S
C1084 C280 1.319 . S
C1101 C294 1.345 . S
C1120 C317 1.395 . S
C1137 C233 1.387 . S
C1156 C308 1.317 . S
C1173 C303 1.389 . S
C1192 C322 1.320 . S
C1209 C5 1.524 . S
C1228 C89 1.518 . S
C1245 C19 1.526 . S
C1264 C103 1.526 . S
C1281 C33 1.527 . S
C1300 C61 1.522 . S
C1317 C75 1.523 . S
C1336 C47 1.520 . S
C1353 C145 1.524 . S
C1372 C117 1.529 . S
C1389 C131 1.527 . S
C1408 C159 1.519 . S
C1425 C173 1.524 . S
C1444 C201 1.529 . S
C1461 C215 1.527 . S
C1480 C187 1.522 . S
C1497 C243 1.526 . S
C1516 C229 1.516 . S
C1533 C257 1.525 . S
C1552 C327 1.529 . S
C1569 C271 1.525 . S
C1588 C299 1.529 . S
C1605 C285 1.526 . S
C1624 C313 1.518 . S
C1641 C11 0.896 . S
C1660 C81 0.883 . S
C1677 C25 0.896 . S
C1696 C95 0.908 . S
C1713 C39 0.893 . S
C1732 C109 0.888 . S
C1749 C67 0.894 . S
C1768 C53 0.881 . S
C1785 C123 0.893 . S
C1804 C333 0.883 . S
C1821 C137 0.893 . S
C1840 C305 0.883 . S
C1857 C319 0.896 . S
C1876 C151 0.883 . S
C1893 C165 0.896 . S
C1912 C235 0.883 . S
C1929 C291 0.893 . S
C1948 C179 0.888 . S
C1965 C249 0.894 . S
C1984 C193 0.903 . S
C2001 C207 0.894 . S
C2020 C263 0.901 . S
C2037 C277 0.895 . S
C2056 C221 0.882 . S
