# Generated by pormake.
# Topology zfr, (5)-cn, num edge types: 1
# Building blocks:
#     Node 0, Type 0, BuildingBlock: XOMCOT_clean_sbu_0, # of connection points: 5
#     Node 1, Type 0, BuildingBlock: XOMCOT_clean_sbu_0, # of connection points: 5
#     Node 2, Type 0, BuildingBlock: XOMCOT_clean_sbu_0, # of connection points: 5
#     Node 3, Type 0, BuildingBlock: XOMCOT_clean_sbu_0, # of connection points: 5
#     Node 4, Type 0, BuildingBlock: XOMCOT_clean_sbu_0, # of connection points: 5
#     Node 5, Type 0, BuildingBlock: XOMCOT_clean_sbu_0, # of connection points: 5
#     Node 6, Type 0, BuildingBlock: XOMCOT_clean_sbu_0, # of connection points: 5
#     Node 7, Type 0, BuildingBlock: XOMCOT_clean_sbu_0, # of connection points: 5
#     Edge 8, Type (0, 0), None
#     Edge 9, Type (0, 0), None
#     Edge 10, Type (0, 0), None
#     Edge 11, Type (0, 0), None
#     Edge 12, Type (0, 0), None
#     Edge 13, Type (0, 0), None
#     Edge 14, Type (0, 0), None
#     Edge 15, Type (0, 0), None
#     Edge 16, Type (0, 0), None
#     Edge 17, Type (0, 0), None
#     Edge 18, Type (0, 0), None
#     Edge 19, Type (0, 0), None
#     Edge 20, Type (0, 0), None
#     Edge 21, Type (0, 0), None
#     Edge 22, Type (0, 0), None
#     Edge 23, Type (0, 0), None
#     Edge 24, Type (0, 0), None
#     Edge 25, Type (0, 0), None
#     Edge 26, Type (0, 0), None
#     Edge 27, Type (0, 0), None
# Relax obj value: 0.192
# Max RMSD: 0.187
# Mean RMSD: 0.187
data_MOF--net-zfr--node1-XOMCOT_clean_sbu_0--edge1-none
_symmetry_space_group_name_H-M    P1
_symmetry_Int_Tables_number       1
_symmetry_cell_setting            triclinic
loop_
_symmetry_equiv_pos_as_xyz
'x, y, z'
_cell_length_a     25.042729
_cell_length_b     25.042729
_cell_length_c     8.8165857
_cell_angle_alpha  89.998104
_cell_angle_beta   90.000508
_cell_angle_gamma 89.999995
loop_
_atom_site_label
_atom_site_type_symbol
_atom_site_fract_x
_atom_site_fract_y
_atom_site_fract_z
_atom_type_partial_charge
Co0 Co 0.13166 0.27931 0.23553 0.0
C1 C 0.11998 0.30416 0.54606 0.0
C2 C 0.06923 0.2391 0.48363 0.0
C3 C 0.08555 0.23165 0.63151 0.0
N4 N 0.09388 0.28273 0.42644 0.0
N5 N 0.11836 0.27218 0.66838 0.0
H6 H 0.14843 0.3362 0.53454 0.0
H7 H 0.05022 0.20875 0.41502 0.0
C8 C 0.01353 0.27302 0.10867 0.0
O9 O 0.98856 0.27854 0.23822 0.0
N10 N 0.16922 0.27427 0.04356 0.0
C11 C 0.19861 0.3132 0.97819 0.0
C12 C 0.18822 0.31389 0.82482 0.0
C13 C 0.1458 0.24867 0.9261 0.0
N14 N 0.15328 0.27444 0.79419 0.0
C15 C 0.17528 0.38392 0.27487 0.0
C16 C 0.08374 0.44191 0.21908 0.0
C17 C 0.12922 0.46888 0.27205 0.0
C18 C 0.17541 0.43883 0.29898 0.0
C19 C 0.08506 0.38639 0.19834 0.0
N20 N 0.13053 0.3577 0.22631 0.0
H21 H 0.2114 0.36234 0.30039 0.0
H22 H 0.04871 0.36723 0.16445 0.0
H23 H 0.22084 0.34346 0.03772 0.0
H24 H 0.11618 0.21768 0.94096 0.0
O25 O 0.19752 0.27102 0.34903 0.0
O26 O 0.14692 0.20335 0.28016 0.0
O27 O 0.06435 0.27384 0.10465 0.0
C28 C 0.18754 0.22063 0.35922 0.0
H29 H 0.07849 0.19646 0.69979 0.0
H30 H 0.20089 0.34458 0.74643 0.0
H31 H 0.04715 0.46329 0.19475 0.0
H32 H 0.21138 0.45713 0.34299 0.0
Co33 Co 0.71731 0.13166 0.48553 0.0
C34 C 0.69246 0.11998 0.79606 0.0
C35 C 0.75751 0.06923 0.73363 0.0
C36 C 0.76497 0.08555 0.8815 0.0
N37 N 0.71389 0.09388 0.67644 0.0
N38 N 0.72444 0.11836 0.91837 0.0
H39 H 0.66042 0.14843 0.78454 0.0
H40 H 0.78786 0.05022 0.66502 0.0
C41 C 0.72359 0.01353 0.3587 0.0
O42 O 0.71807 0.98856 0.48825 0.0
N43 N 0.72235 0.16922 0.29355 0.0
C44 C 0.68343 0.19861 0.22818 0.0
C45 C 0.68273 0.18822 0.07481 0.0
C46 C 0.74795 0.1458 0.17609 0.0
N47 N 0.72218 0.15328 0.04418 0.0
C48 C 0.6127 0.17528 0.52486 0.0
C49 C 0.55471 0.08374 0.46907 0.0
C50 C 0.52774 0.12922 0.52203 0.0
C51 C 0.55778 0.17541 0.54896 0.0
C52 C 0.61023 0.08506 0.44834 0.0
N53 N 0.63892 0.13053 0.47631 0.0
H54 H 0.63428 0.2114 0.55038 0.0
H55 H 0.62939 0.04871 0.41444 0.0
H56 H 0.65316 0.22084 0.28771 0.0
H57 H 0.77894 0.11618 0.19095 0.0
O58 O 0.72559 0.19752 0.59902 0.0
O59 O 0.79327 0.14692 0.53015 0.0
O60 O 0.72278 0.06435 0.35466 0.0
C61 C 0.77598 0.18754 0.60921 0.0
H62 H 0.80016 0.07849 0.94978 0.0
H63 H 0.65204 0.20089 0.99642 0.0
H64 H 0.53333 0.04715 0.44473 0.0
H65 H 0.53948 0.21138 0.59296 0.0
Co66 Co 0.86496 0.71731 0.73558 0.0
C67 C 0.87664 0.69246 0.04612 0.0
C68 C 0.92739 0.75751 0.98367 0.0
C69 C 0.91106 0.76497 0.13154 0.0
N70 N 0.90273 0.71389 0.92649 0.0
N71 N 0.87826 0.72444 0.16842 0.0
H72 H 0.84818 0.66042 1.0346 0.0
H73 H 0.9464 0.78786 0.91505 0.0
C74 C 0.98309 0.72359 0.60875 0.0
O75 O 0.00806 0.71804 0.73829 0.0
N76 N 0.8274 0.72236 0.54361 0.0
C77 C 0.798 0.68343 0.47825 0.0
C78 C 0.80839 0.68274 0.32487 0.0
C79 C 0.85082 0.74795 0.42614 0.0
N80 N 0.84334 0.72218 0.29424 0.0
C81 C 0.82134 0.6127 0.77492 0.0
C82 C 0.91288 0.55471 0.71908 0.0
C83 C 0.8674 0.52774 0.77205 0.0
C84 C 0.82121 0.55778 0.79901 0.0
C85 C 0.91155 0.61023 0.69836 0.0
N86 N 0.86609 0.63892 0.72636 0.0
H87 H 0.78522 0.63428 0.80047 0.0
H88 H 0.9479 0.62939 0.66444 0.0
H89 H 0.77577 0.65317 0.53778 0.0
H90 H 0.88044 0.77894 0.44099 0.0
O91 O 0.7991 0.72559 0.84907 0.0
O92 O 0.84969 0.79327 0.7802 0.0
O93 O 0.93227 0.72279 0.60471 0.0
C94 C 0.80907 0.77598 0.85926 0.0
H95 H 0.91813 0.80016 0.19981 0.0
H96 H 0.79572 0.65204 0.24649 0.0
H97 H 0.94946 0.53333 0.69472 0.0
H98 H 0.78524 0.53948 0.84302 0.0
Co99 Co 0.27931 0.86496 0.98558 0.0
C100 C 0.30416 0.87664 0.29612 0.0
C101 C 0.2391 0.92739 0.23367 0.0
C102 C 0.23165 0.91106 0.38155 0.0
N103 N 0.28273 0.90273 0.17649 0.0
N104 N 0.27218 0.87826 0.41842 0.0
H105 H 0.3362 0.84818 0.2846 0.0
H106 H 0.20875 0.9464 0.16505 0.0
C107 C 0.27303 0.98309 0.85872 0.0
O108 O 0.27857 0.00806 0.98826 0.0
N109 N 0.27426 0.8274 0.79362 0.0
C110 C 0.31319 0.798 0.72826 0.0
C111 C 0.31388 0.8084 0.57488 0.0
C112 C 0.24867 0.85082 0.67615 0.0
N113 N 0.27444 0.84334 0.54424 0.0
C114 C 0.38392 0.82134 1.02493 0.0
C115 C 0.44191 0.91288 0.96909 0.0
C116 C 0.46888 0.8674 1.02207 0.0
C117 C 0.43883 0.82121 0.04903 0.0
C118 C 0.38639 0.91156 0.94836 0.0
N119 N 0.3577 0.86609 0.97636 0.0
H120 H 0.36234 0.78522 0.05048 0.0
H121 H 0.36723 0.9479 0.91445 0.0
H122 H 0.34345 0.77578 0.78779 0.0
H123 H 0.21767 0.88044 0.691 0.0
O124 O 0.27102 0.7991 0.09909 0.0
O125 O 0.20335 0.84969 1.03021 0.0
O126 O 0.27383 0.93226 0.8547 0.0
C127 C 0.22063 0.80908 0.10928 0.0
H128 H 0.19645 0.91813 0.44982 0.0
H129 H 0.34458 0.79573 0.4965 0.0
H130 H 0.46329 0.94946 0.94473 0.0
H131 H 0.45714 0.78524 0.09305 0.0
Co132 Co 0.13166 0.71731 0.33563 0.0
C133 C 0.11998 0.69246 1.0251 0.0
C134 C 0.06923 0.75752 0.08754 0.0
C135 C 0.08555 0.76497 0.93966 0.0
N136 N 0.09388 0.71389 0.14472 0.0
N137 N 0.11836 0.72444 0.90279 0.0
H138 H 0.14843 0.66042 0.03662 0.0
H139 H 0.05021 0.78787 0.15615 0.0
C140 C 0.01353 0.72359 0.46246 0.0
O141 O 0.98856 0.71803 0.33293 0.0
N142 N 0.16922 0.72236 0.52761 0.0
C143 C 0.19861 0.68343 0.59297 0.0
C144 C 0.18822 0.68274 0.74635 0.0
C145 C 0.1458 0.74796 0.64507 0.0
N146 N 0.15328 0.72218 0.77698 0.0
C147 C 0.17528 0.61271 0.2963 0.0
C148 C 0.08374 0.55471 0.35215 0.0
C149 C 0.12922 0.52774 0.29915 0.0
C150 C 0.17541 0.55779 0.27219 0.0
C151 C 0.08506 0.61023 0.37288 0.0
N152 N 0.13053 0.63892 0.34487 0.0
H153 H 0.21139 0.63429 0.27075 0.0
H154 H 0.04872 0.62939 0.40681 0.0
H155 H 0.22084 0.65317 0.53345 0.0
H156 H 0.11618 0.77895 0.63021 0.0
O157 O 0.19752 0.7256 0.22214 0.0
O158 O 0.14693 0.79327 0.29099 0.0
O159 O 0.06435 0.7228 0.4665 0.0
C160 C 0.18754 0.77598 0.21193 0.0
H161 H 0.07849 0.80017 0.87138 0.0
H162 H 0.20089 0.65204 0.82473 0.0
H163 H 0.04716 0.53333 0.37652 0.0
H164 H 0.21137 0.53949 0.22816 0.0
Co165 Co 0.2793 0.13166 0.58559 0.0
C166 C 0.30415 0.11998 0.27506 0.0
C167 C 0.2391 0.06923 0.3375 0.0
C168 C 0.23164 0.08555 0.18963 0.0
N169 N 0.28272 0.09388 0.39468 0.0
N170 N 0.27217 0.11836 0.15275 0.0
H171 H 0.3362 0.14843 0.28657 0.0
H172 H 0.20875 0.05021 0.40612 0.0
C173 C 0.27303 0.01353 0.71243 0.0
O174 O 0.2786 0.98856 0.5829 0.0
N175 N 0.27425 0.16922 0.77756 0.0
C176 C 0.31318 0.19861 0.84291 0.0
C177 C 0.31387 0.18822 0.99629 0.0
C178 C 0.24866 0.1458 0.89502 0.0
N179 N 0.27443 0.15328 1.02693 0.0
C180 C 0.38391 0.17527 0.54624 0.0
C181 C 0.4419 0.08374 0.60213 0.0
C182 C 0.46887 0.12922 0.54912 0.0
C183 C 0.43883 0.17541 0.52213 0.0
C184 C 0.38639 0.08507 0.62286 0.0
N185 N 0.35769 0.13053 0.59482 0.0
H186 H 0.36233 0.21139 0.52068 0.0
H187 H 0.36723 0.04872 0.65681 0.0
H188 H 0.34344 0.22084 0.78338 0.0
H189 H 0.21767 0.11618 0.88017 0.0
O190 O 0.27102 0.19752 0.47208 0.0
O191 O 0.20334 0.14693 0.54095 0.0
O192 O 0.27382 0.06435 0.71646 0.0
C193 C 0.22063 0.18754 0.46188 0.0
H194 H 0.19645 0.07849 0.12135 0.0
H195 H 0.34457 0.20089 0.07467 0.0
H196 H 0.46329 0.04716 0.62652 0.0
H197 H 0.45713 0.21137 0.4781 0.0
Co198 Co 0.86496 0.2793 0.83557 0.0
C199 C 0.87664 0.30415 0.52503 0.0
C200 C 0.92739 0.2391 0.58749 0.0
C201 C 0.91106 0.23164 0.43961 0.0
N202 N 0.90273 0.28272 0.64465 0.0
N203 N 0.87825 0.27217 0.40273 0.0
H204 H 0.84818 0.33619 0.53654 0.0
H205 H 0.94641 0.20875 0.6561 0.0
C206 C 0.98309 0.27304 0.96238 0.0
O207 O 0.00806 0.27863 0.83286 0.0
N208 N 0.8274 0.27425 1.02754 0.0
C209 C 0.798 0.31317 0.09289 0.0
C210 C 0.80839 0.31387 0.24627 0.0
C211 C 0.85082 0.24865 0.145 0.0
N212 N 0.84334 0.27443 0.27691 0.0
C213 C 0.82134 0.38391 0.79621 0.0
C214 C 0.91287 0.4419 0.85214 0.0
C215 C 0.8674 0.46887 0.79913 0.0
C216 C 0.82121 0.43883 0.77213 0.0
C217 C 0.91155 0.38638 0.87286 0.0
N218 N 0.86609 0.35769 0.8448 0.0
H219 H 0.78523 0.36233 0.77064 0.0
H220 H 0.94789 0.36722 0.90682 0.0
H221 H 0.77577 0.34343 1.03335 0.0
H222 H 0.88044 0.21766 0.13016 0.0
O223 O 0.7991 0.27102 0.72207 0.0
O224 O 0.84969 0.20334 0.79093 0.0
O225 O 0.93227 0.27381 0.96642 0.0
C226 C 0.80907 0.22063 0.71186 0.0
H227 H 0.91812 0.19645 0.37134 0.0
H228 H 0.79572 0.34456 0.32465 0.0
H229 H 0.94945 0.46329 0.87654 0.0
H230 H 0.78525 0.45713 0.7281 0.0
Co231 Co 0.71732 0.86496 0.08561 0.0
C232 C 0.69246 0.87663 0.77508 0.0
C233 C 0.75752 0.92739 0.83752 0.0
C234 C 0.76498 0.91106 0.68965 0.0
N235 N 0.71389 0.90273 0.8947 0.0
N236 N 0.72445 0.87825 0.65277 0.0
H237 H 0.66042 0.84818 0.78659 0.0
H238 H 0.78786 0.9464 0.90613 0.0
C239 C 0.72359 0.98309 0.21241 0.0
O240 O 0.71801 0.00806 0.08288 0.0
N241 N 0.72236 0.8274 0.27759 0.0
C242 C 0.68344 0.798 0.34295 0.0
C243 C 0.68275 0.80839 0.49632 0.0
C244 C 0.74796 0.85082 0.39505 0.0
N245 N 0.72219 0.84334 0.52696 0.0
C246 C 0.61271 0.82134 0.04628 0.0
C247 C 0.55472 0.91287 0.10216 0.0
C248 C 0.52774 0.8674 0.04916 0.0
C249 C 0.55779 0.82121 1.02218 0.0
C250 C 0.61023 0.91155 0.12288 0.0
N251 N 0.63892 0.86609 0.09485 0.0
H252 H 0.63429 0.78522 1.02072 0.0
H253 H 0.62939 0.9479 0.15682 0.0
H254 H 0.65318 0.77577 0.28342 0.0
H255 H 0.77895 0.88044 0.38019 0.0
O256 O 0.7256 0.7991 0.97212 0.0
O257 O 0.79327 0.84969 0.04097 0.0
O258 O 0.7228 0.93227 0.21647 0.0
C259 C 0.77598 0.80907 0.96192 0.0
H260 H 0.80017 0.91812 0.62138 0.0
H261 H 0.65205 0.79572 0.57471 0.0
H262 H 0.53333 0.94945 0.12653 0.0
H263 H 0.53949 0.78525 0.97816 0.0
loop_
_geom_bond_atom_site_label_1
_geom_bond_atom_site_label_2
_geom_bond_distance
_geom_bond_site_symmetry_2
_ccdc_geom_bond_type
Co0 N4 2.148 . S
Co0 N10 2.128 1_554 S
Co0 N20 2.194 . S
Co0 O25 2.351 . S
Co0 O26 2.155 . S
Co0 O27 2.096 . S
C1 N4 1.301 . S
C1 N5 1.328 . S
C1 H6 0.930 . S
C2 C3 1.333 . S
C2 N4 1.317 . S
C2 H7 0.930 . S
C3 C2 1.333 . S
C3 N5 1.350 . S
C3 H29 0.931 1_455 S
N4 Co0 2.148 . S
N4 C1 1.301 . S
N4 C2 1.317 . S
N5 C1 1.328 . S
N5 C3 1.350 . S
H6 C1 0.930 . S
H7 C2 0.930 . S
C8 O9 1.224 . S
C8 O27 1.247 . S
O9 C8 1.224 . S
N10 Co0 2.128 1_556 S
N10 C11 1.355 . S
N10 C13 1.311 . S
C11 N10 1.355 . S
C11 C12 1.363 . S
C11 H23 0.929 1_556 S
C12 C11 1.363 . S
C12 N14 1.375 . S
C12 H30 0.931 . S
C13 N10 1.311 . S
C13 N14 1.347 . S
C13 H24 0.929 . S
N14 C12 1.375 . S
N14 C13 1.347 . S
C15 C18 1.365 . S
C15 N20 1.328 . S
C15 H21 0.929 . S
C16 C17 1.362 . S
C16 C19 1.378 . S
C16 H31 0.929 . S
C17 C16 1.362 . S
C17 C18 1.366 . S
C18 C15 1.365 . S
C18 C17 1.366 . S
C18 H32 0.930 . S
C19 C16 1.378 . S
C19 N20 1.315 . S
C19 H22 0.930 . S
N20 Co0 2.194 . S
N20 C15 1.328 . S
N20 C19 1.315 . S
H21 C15 0.929 . S
H22 C19 0.930 . S
H23 C11 0.929 1_554 S
H24 C13 0.929 . S
O25 Co0 2.351 . S
O25 C28 1.244 . S
O26 Co0 2.155 . S
O26 C28 1.240 . S
O27 Co0 2.096 . S
O27 C8 1.247 . S
C28 O25 1.244 . S
C28 O26 1.240 . S
H29 C3 0.931 1_655 S
H30 C12 0.931 . S
H31 C16 0.929 . S
H32 C18 0.930 . S
Co33 N37 2.148 . S
Co33 N43 2.128 . S
Co33 N53 2.194 . S
Co33 O58 2.351 . S
Co33 O59 2.155 . S
Co33 O60 2.096 . S
C34 N37 1.301 . S
C34 N38 1.328 . S
C34 H39 0.930 . S
C35 C36 1.333 . S
C35 N37 1.317 . S
C35 H40 0.930 . S
C36 C35 1.333 . S
C36 N38 1.350 . S
C36 H62 0.931 1_545 S
N37 Co33 2.148 . S
N37 C34 1.301 . S
N37 C35 1.317 . S
N38 C34 1.328 . S
N38 C36 1.350 . S
H39 C34 0.930 . S
H40 C35 0.930 . S
C41 O42 1.224 . S
C41 O60 1.247 . S
O42 C41 1.224 . S
N43 Co33 2.128 . S
N43 C44 1.355 . S
N43 C46 1.311 . S
C44 N43 1.355 . S
C44 C45 1.363 . S
C44 H56 0.929 . S
C45 C44 1.363 . S
C45 N47 1.375 . S
C45 H63 0.931 . S
C46 N43 1.311 . S
C46 N47 1.347 . S
C46 H57 0.929 . S
N47 C45 1.375 . S
N47 C46 1.347 . S
C48 C51 1.365 . S
C48 N53 1.328 . S
C48 H54 0.929 . S
C49 C50 1.362 . S
C49 C52 1.378 . S
C49 H64 0.929 . S
C50 C49 1.362 . S
C50 C51 1.366 . S
C51 C48 1.365 . S
C51 C50 1.366 . S
C51 H65 0.930 . S
C52 C49 1.378 . S
C52 N53 1.315 . S
C52 H55 0.930 . S
N53 Co33 2.194 . S
N53 C48 1.328 . S
N53 C52 1.315 . S
H54 C48 0.929 . S
H55 C52 0.930 . S
H56 C44 0.929 . S
H57 C46 0.929 . S
O58 Co33 2.351 . S
O58 C61 1.244 . S
O59 Co33 2.155 . S
O59 C61 1.240 . S
O60 Co33 2.096 . S
O60 C41 1.247 . S
C61 O58 1.244 . S
C61 O59 1.240 . S
H62 C36 0.931 1_565 S
H63 C45 0.931 . S
H64 C49 0.929 . S
H65 C51 0.930 . S
Co66 N70 2.148 . S
Co66 N76 2.128 . S
Co66 N86 2.194 . S
Co66 O91 2.351 . S
Co66 O92 2.155 . S
Co66 O93 2.096 . S
C67 N70 1.301 1_554 S
C67 N71 1.328 . S
C67 H72 0.930 . S
C68 C69 1.333 1_556 S
C68 N70 1.317 . S
C68 H73 0.930 . S
C69 C68 1.333 1_554 S
C69 N71 1.350 . S
C69 H95 0.931 1_655 S
N70 Co66 2.148 . S
N70 C67 1.301 1_556 S
N70 C68 1.317 . S
N71 C67 1.328 . S
N71 C69 1.350 . S
H72 C67 0.930 . S
H73 C68 0.930 . S
C74 O75 1.224 . S
C74 O93 1.247 . S
O75 C74 1.224 . S
N76 Co66 2.128 . S
N76 C77 1.355 . S
N76 C79 1.311 . S
C77 N76 1.355 . S
C77 C78 1.363 . S
C77 H89 0.929 . S
C78 C77 1.363 . S
C78 N80 1.375 . S
C78 H96 0.931 . S
C79 N76 1.311 . S
C79 N80 1.347 . S
C79 H90 0.929 . S
N80 C78 1.375 . S
N80 C79 1.347 . S
C81 C84 1.365 . S
C81 N86 1.328 . S
C81 H87 0.929 . S
C82 C83 1.362 . S
C82 C85 1.378 . S
C82 H97 0.929 . S
C83 C82 1.362 . S
C83 C84 1.366 . S
C84 C81 1.365 . S
C84 C83 1.366 . S
C84 H98 0.930 . S
C85 C82 1.378 . S
C85 N86 1.315 . S
C85 H88 0.930 . S
N86 Co66 2.194 . S
N86 C81 1.328 . S
N86 C85 1.315 . S
H87 C81 0.929 . S
H88 C85 0.930 . S
H89 C77 0.929 . S
H90 C79 0.929 . S
O91 Co66 2.351 . S
O91 C94 1.244 . S
O92 Co66 2.155 . S
O92 C94 1.240 . S
O93 Co66 2.096 . S
O93 C74 1.247 . S
C94 O91 1.244 . S
C94 O92 1.240 . S
H95 C69 0.931 1_455 S
H96 C78 0.931 . S
H97 C82 0.929 . S
H98 C84 0.930 . S
Co99 N103 2.148 1_556 S
Co99 N109 2.128 . S
Co99 N119 2.194 . S
Co99 O124 2.351 1_556 S
Co99 O125 2.155 . S
Co99 O126 2.096 . S
C100 N103 1.301 . S
C100 N104 1.328 . S
C100 H105 0.930 . S
C101 C102 1.333 . S
C101 N103 1.317 . S
C101 H106 0.930 . S
C102 C101 1.333 . S
C102 N104 1.350 . S
C102 H128 0.931 1_565 S
N103 Co99 2.148 1_554 S
N103 C100 1.301 . S
N103 C101 1.317 . S
N104 C100 1.328 . S
N104 C102 1.350 . S
H105 C100 0.930 . S
H106 C101 0.930 . S
C107 O108 1.224 . S
C107 O126 1.247 . S
O108 C107 1.224 . S
N109 Co99 2.128 . S
N109 C110 1.355 . S
N109 C112 1.311 . S
C110 N109 1.355 . S
C110 C111 1.363 . S
C110 H122 0.929 . S
C111 C110 1.363 . S
C111 N113 1.375 . S
C111 H129 0.931 . S
C112 N109 1.311 . S
C112 N113 1.347 . S
C112 H123 0.929 . S
N113 C111 1.375 . S
N113 C112 1.347 . S
C114 C117 1.365 . S
C114 N119 1.328 1_554 S
C114 H120 0.929 . S
C115 C116 1.362 . S
C115 C118 1.378 . S
C115 H130 0.929 . S
C116 C115 1.362 . S
C116 C117 1.366 1_556 S
C117 C114 1.365 . S
C117 C116 1.366 1_554 S
C117 H131 0.930 . S
C118 C115 1.378 . S
C118 N119 1.315 . S
C118 H121 0.930 . S
N119 Co99 2.194 . S
N119 C114 1.328 1_556 S
N119 C118 1.315 . S
H120 C114 0.929 . S
H121 C118 0.930 . S
H122 C110 0.929 . S
H123 C112 0.929 . S
O124 Co99 2.351 1_554 S
O124 C127 1.244 . S
O125 Co99 2.155 . S
O125 C127 1.240 1_556 S
O126 Co99 2.096 . S
O126 C107 1.247 . S
C127 O124 1.244 . S
C127 O125 1.240 1_554 S
H128 C102 0.931 1_545 S
H129 C111 0.931 . S
H130 C115 0.929 . S
H131 C117 0.930 . S
Co132 N136 2.148 . S
Co132 N142 2.128 . S
Co132 N152 2.194 . S
Co132 O157 2.351 . S
Co132 O158 2.155 . S
Co132 O159 2.096 . S
C133 N136 1.301 1_556 S
C133 N137 1.328 . S
C133 H138 0.930 . S
C134 C135 1.333 1_554 S
C134 N136 1.317 . S
C134 H139 0.930 . S
C135 C134 1.333 1_556 S
C135 N137 1.350 . S
C135 H161 0.931 1_455 S
N136 Co132 2.148 . S
N136 C133 1.301 1_554 S
N136 C134 1.317 . S
N137 C133 1.328 . S
N137 C135 1.350 . S
H138 C133 0.930 . S
H139 C134 0.930 . S
C140 O141 1.224 . S
C140 O159 1.247 . S
O141 C140 1.224 . S
N142 Co132 2.128 . S
N142 C143 1.355 . S
N142 C145 1.311 . S
C143 N142 1.355 . S
C143 C144 1.363 . S
C143 H155 0.929 . S
C144 C143 1.363 . S
C144 N146 1.375 . S
C144 H162 0.931 . S
C145 N142 1.311 . S
C145 N146 1.347 . S
C145 H156 0.929 . S
N146 C144 1.375 . S
N146 C145 1.347 . S
C147 C150 1.365 . S
C147 N152 1.328 . S
C147 H153 0.929 . S
C148 C149 1.362 . S
C148 C151 1.378 . S
C148 H163 0.929 . S
C149 C148 1.362 . S
C149 C150 1.366 . S
C150 C147 1.365 . S
C150 C149 1.366 . S
C150 H164 0.930 . S
C151 C148 1.378 . S
C151 N152 1.315 . S
C151 H154 0.930 . S
N152 Co132 2.194 . S
N152 C147 1.328 . S
N152 C151 1.315 . S
H153 C147 0.929 . S
H154 C151 0.930 . S
H155 C143 0.929 . S
H156 C145 0.929 . S
O157 Co132 2.351 . S
O157 C160 1.244 . S
O158 Co132 2.155 . S
O158 C160 1.240 . S
O159 Co132 2.096 . S
O159 C140 1.247 . S
C160 O157 1.244 . S
C160 O158 1.240 . S
H161 C135 0.931 1_655 S
H162 C144 0.931 . S
H163 C148 0.929 . S
H164 C150 0.930 . S
Co165 N169 2.148 . S
Co165 N175 2.128 . S
Co165 N185 2.194 . S
Co165 O190 2.351 . S
Co165 O191 2.155 . S
Co165 O192 2.096 . S
C166 N169 1.301 . S
C166 N170 1.328 . S
C166 H171 0.930 . S
C167 C168 1.333 . S
C167 N169 1.317 . S
C167 H172 0.930 . S
C168 C167 1.333 . S
C168 N170 1.350 . S
C168 H194 0.931 1_545 S
N169 Co165 2.148 . S
N169 C166 1.301 . S
N169 C167 1.317 . S
N170 C166 1.328 . S
N170 C168 1.350 . S
H171 C166 0.930 . S
H172 C167 0.930 . S
C173 O174 1.224 . S
C173 O192 1.247 . S
O174 C173 1.224 . S
N175 Co165 2.128 . S
N175 C176 1.355 . S
N175 C178 1.311 . S
C176 N175 1.355 . S
C176 C177 1.363 . S
C176 H188 0.929 . S
C177 C176 1.363 . S
C177 N179 1.375 . S
C177 H195 0.931 . S
C178 N175 1.311 . S
C178 N179 1.347 . S
C178 H189 0.929 . S
N179 C177 1.375 . S
N179 C178 1.347 . S
C180 C183 1.365 . S
C180 N185 1.328 . S
C180 H186 0.929 . S
C181 C182 1.362 . S
C181 C184 1.378 . S
C181 H196 0.929 . S
C182 C181 1.362 . S
C182 C183 1.366 . S
C183 C180 1.365 . S
C183 C182 1.366 . S
C183 H197 0.930 . S
C184 C181 1.378 . S
C184 N185 1.315 . S
C184 H187 0.930 . S
N185 Co165 2.194 . S
N185 C180 1.328 . S
N185 C184 1.315 . S
H186 C180 0.929 . S
H187 C184 0.930 . S
H188 C176 0.929 . S
H189 C178 0.929 . S
O190 Co165 2.351 . S
O190 C193 1.244 . S
O191 Co165 2.155 . S
O191 C193 1.240 . S
O192 Co165 2.096 . S
O192 C173 1.247 . S
C193 O190 1.244 . S
C193 O191 1.240 . S
H194 C168 0.931 1_565 S
H195 C177 0.931 . S
H196 C181 0.929 . S
H197 C183 0.930 . S
Co198 N202 2.148 . S
Co198 N208 2.128 1_556 S
Co198 N218 2.194 . S
Co198 O223 2.351 . S
Co198 O224 2.155 . S
Co198 O225 2.096 . S
C199 N202 1.301 . S
C199 N203 1.328 . S
C199 H204 0.930 . S
C200 C201 1.333 . S
C200 N202 1.317 . S
C200 H205 0.930 . S
C201 C200 1.333 . S
C201 N203 1.350 . S
C201 H227 0.931 1_655 S
N202 Co198 2.148 . S
N202 C199 1.301 . S
N202 C200 1.317 . S
N203 C199 1.328 . S
N203 C201 1.350 . S
H204 C199 0.930 . S
H205 C200 0.930 . S
C206 O207 1.224 . S
C206 O225 1.247 . S
O207 C206 1.224 . S
N208 Co198 2.128 1_554 S
N208 C209 1.355 . S
N208 C211 1.311 . S
C209 N208 1.355 . S
C209 C210 1.363 . S
C209 H221 0.929 1_554 S
C210 C209 1.363 . S
C210 N212 1.375 . S
C210 H228 0.931 . S
C211 N208 1.311 . S
C211 N212 1.347 . S
C211 H222 0.929 . S
N212 C210 1.375 . S
N212 C211 1.347 . S
C213 C216 1.365 . S
C213 N218 1.328 . S
C213 H219 0.929 . S
C214 C215 1.362 . S
C214 C217 1.378 . S
C214 H229 0.929 . S
C215 C214 1.362 . S
C215 C216 1.366 . S
C216 C213 1.365 . S
C216 C215 1.366 . S
C216 H230 0.930 . S
C217 C214 1.378 . S
C217 N218 1.315 . S
C217 H220 0.930 . S
N218 Co198 2.194 . S
N218 C213 1.328 . S
N218 C217 1.315 . S
H219 C213 0.929 . S
H220 C217 0.930 . S
H221 C209 0.929 1_556 S
H222 C211 0.929 . S
O223 Co198 2.351 . S
O223 C226 1.244 . S
O224 Co198 2.155 . S
O224 C226 1.240 . S
O225 Co198 2.096 . S
O225 C206 1.247 . S
C226 O223 1.244 . S
C226 O224 1.240 . S
H227 C201 0.931 1_455 S
H228 C210 0.931 . S
H229 C214 0.929 . S
H230 C216 0.930 . S
Co231 N235 2.148 1_554 S
Co231 N241 2.128 . S
Co231 N251 2.194 . S
Co231 O256 2.351 1_554 S
Co231 O257 2.155 . S
Co231 O258 2.096 . S
C232 N235 1.301 . S
C232 N236 1.328 . S
C232 H237 0.930 . S
C233 C234 1.333 . S
C233 N235 1.317 . S
C233 H238 0.930 . S
C234 C233 1.333 . S
C234 N236 1.350 . S
C234 H260 0.931 1_565 S
N235 Co231 2.148 1_556 S
N235 C232 1.301 . S
N235 C233 1.317 . S
N236 C232 1.328 . S
N236 C234 1.350 . S
H237 C232 0.930 . S
H238 C233 0.930 . S
C239 O240 1.224 . S
C239 O258 1.247 . S
O240 C239 1.224 . S
N241 Co231 2.128 . S
N241 C242 1.355 . S
N241 C244 1.311 . S
C242 N241 1.355 . S
C242 C243 1.363 . S
C242 H254 0.929 . S
C243 C242 1.363 . S
C243 N245 1.375 . S
C243 H261 0.931 . S
C244 N241 1.311 . S
C244 N245 1.347 . S
C244 H255 0.929 . S
N245 C243 1.375 . S
N245 C244 1.347 . S
C246 C249 1.365 . S
C246 N251 1.328 1_556 S
C246 H252 0.929 . S
C247 C248 1.362 . S
C247 C250 1.378 . S
C247 H262 0.929 . S
C248 C247 1.362 . S
C248 C249 1.366 1_554 S
C249 C246 1.365 . S
C249 C248 1.366 1_556 S
C249 H263 0.930 . S
C250 C247 1.378 . S
C250 N251 1.315 . S
C250 H253 0.930 . S
N251 Co231 2.194 . S
N251 C246 1.328 1_554 S
N251 C250 1.315 . S
H252 C246 0.929 . S
H253 C250 0.930 . S
H254 C242 0.929 . S
H255 C244 0.929 . S
O256 Co231 2.351 1_556 S
O256 C259 1.244 . S
O257 Co231 2.155 . S
O257 C259 1.240 1_554 S
O258 Co231 2.096 . S
O258 C239 1.247 . S
C259 O256 1.244 . S
C259 O257 1.240 1_556 S
H260 C234 0.931 1_545 S
H261 C243 0.931 . S
H262 C247 0.929 . S
H263 C249 0.930 . S
C193 C28 1.895 . S
C226 C61 1.895 . S
C94 C259 1.895 . S
C160 C127 1.895 . S
N5 N14 2.236 . S
N47 N38 2.236 1_554 S
N71 N80 2.236 . S
N104 N113 2.236 . S
N137 N146 2.236 . S
N170 N179 2.236 1_554 S
N203 N212 2.236 . S
N245 N236 2.236 . S
C8 C206 1.756 1_454 S
C239 C41 1.756 1_565 S
C140 C74 1.756 1_455 S
C107 C173 1.756 1_565 S
C17 C149 1.632 . S
C50 C182 1.632 . S
C83 C215 1.632 . S
C248 C116 1.632 1_554 S
