# Generated by pormake.
# Topology uki, (4)-cn, num edge types: 1
# Building blocks:
#     Node 0, Type 0, BuildingBlock: CEKHIL_clean_sbu_0, # of connection points: 4
#     Node 1, Type 0, BuildingBlock: CEKHIL_clean_sbu_0, # of connection points: 4
#     Node 2, Type 0, BuildingBlock: CEKHIL_clean_sbu_0, # of connection points: 4
#     Node 3, Type 0, BuildingBlock: CEKHIL_clean_sbu_0, # of connection points: 4
#     Node 4, Type 0, BuildingBlock: CEKHIL_clean_sbu_0, # of connection points: 4
#     Node 5, Type 0, BuildingBlock: CEKHIL_clean_sbu_0, # of connection points: 4
#     Node 6, Type 0, BuildingBlock: CEKHIL_clean_sbu_0, # of connection points: 4
#     Node 7, Type 0, BuildingBlock: CEKHIL_clean_sbu_0, # of connection points: 4
#     Node 8, Type 0, BuildingBlock: CEKHIL_clean_sbu_0, # of connection points: 4
#     Node 9, Type 0, BuildingBlock: CEKHIL_clean_sbu_0, # of connection points: 4
#     Node 10, Type 0, BuildingBlock: CEKHIL_clean_sbu_0, # of connection points: 4
#     Node 11, Type 0, BuildingBlock: CEKHIL_clean_sbu_0, # of connection points: 4
#     Node 12, Type 0, BuildingBlock: CEKHIL_clean_sbu_0, # of connection points: 4
#     Node 13, Type 0, BuildingBlock: CEKHIL_clean_sbu_0, # of connection points: 4
#     Node 14, Type 0, BuildingBlock: CEKHIL_clean_sbu_0, # of connection points: 4
#     Node 15, Type 0, BuildingBlock: CEKHIL_clean_sbu_0, # of connection points: 4
#     Edge 16, Type (0, 0), BuildingBlock: AJUNOK_clean_linker_0, # of connection points: 2
#     Edge 17, Type (0, 0), BuildingBlock: AJUNOK_clean_linker_0, # of connection points: 2
#     Edge 18, Type (0, 0), BuildingBlock: AJUNOK_clean_linker_0, # of connection points: 2
#     Edge 19, Type (0, 0), BuildingBlock: AJUNOK_clean_linker_0, # of connection points: 2
#     Edge 20, Type (0, 0), BuildingBlock: AJUNOK_clean_linker_0, # of connection points: 2
#     Edge 21, Type (0, 0), BuildingBlock: AJUNOK_clean_linker_0, # of connection points: 2
#     Edge 22, Type (0, 0), BuildingBlock: AJUNOK_clean_linker_0, # of connection points: 2
#     Edge 23, Type (0, 0), BuildingBlock: AJUNOK_clean_linker_0, # of connection points: 2
#     Edge 24, Type (0, 0), BuildingBlock: AJUNOK_clean_linker_0, # of connection points: 2
#     Edge 25, Type (0, 0), BuildingBlock: AJUNOK_clean_linker_0, # of connection points: 2
#     Edge 26, Type (0, 0), BuildingBlock: AJUNOK_clean_linker_0, # of connection points: 2
#     Edge 27, Type (0, 0), BuildingBlock: AJUNOK_clean_linker_0, # of connection points: 2
#     Edge 28, Type (0, 0), BuildingBlock: AJUNOK_clean_linker_0, # of connection points: 2
#     Edge 29, Type (0, 0), BuildingBlock: AJUNOK_clean_linker_0, # of connection points: 2
#     Edge 30, Type (0, 0), BuildingBlock: AJUNOK_clean_linker_0, # of connection points: 2
#     Edge 31, Type (0, 0), BuildingBlock: AJUNOK_clean_linker_0, # of connection points: 2
#     Edge 32, Type (0, 0), BuildingBlock: AJUNOK_clean_linker_0, # of connection points: 2
#     Edge 33, Type (0, 0), BuildingBlock: AJUNOK_clean_linker_0, # of connection points: 2
#     Edge 34, Type (0, 0), BuildingBlock: AJUNOK_clean_linker_0, # of connection points: 2
#     Edge 35, Type (0, 0), BuildingBlock: AJUNOK_clean_linker_0, # of connection points: 2
#     Edge 36, Type (0, 0), BuildingBlock: AJUNOK_clean_linker_0, # of connection points: 2
#     Edge 37, Type (0, 0), BuildingBlock: AJUNOK_clean_linker_0, # of connection points: 2
#     Edge 38, Type (0, 0), BuildingBlock: AJUNOK_clean_linker_0, # of connection points: 2
#     Edge 39, Type (0, 0), BuildingBlock: AJUNOK_clean_linker_0, # of connection points: 2
#     Edge 40, Type (0, 0), BuildingBlock: AJUNOK_clean_linker_0, # of connection points: 2
#     Edge 41, Type (0, 0), BuildingBlock: AJUNOK_clean_linker_0, # of connection points: 2
#     Edge 42, Type (0, 0), BuildingBlock: AJUNOK_clean_linker_0, # of connection points: 2
#     Edge 43, Type (0, 0), BuildingBlock: AJUNOK_clean_linker_0, # of connection points: 2
#     Edge 44, Type (0, 0), BuildingBlock: AJUNOK_clean_linker_0, # of connection points: 2
#     Edge 45, Type (0, 0), BuildingBlock: AJUNOK_clean_linker_0, # of connection points: 2
#     Edge 46, Type (0, 0), BuildingBlock: AJUNOK_clean_linker_0, # of connection points: 2
#     Edge 47, Type (0, 0), BuildingBlock: AJUNOK_clean_linker_0, # of connection points: 2
# Relax obj value: 0.098
# Max RMSD: 0.194
# Mean RMSD: 0.194
data_MOF--net-uki--node1-CEKHIL_clean_sbu_0--edge1-AJUNOK_clean_linker_0
_symmetry_space_group_name_H-M    P1
_symmetry_Int_Tables_number       1
_symmetry_cell_setting            triclinic
loop_
_symmetry_equiv_pos_as_xyz
'x, y, z'
_cell_length_a     22.213955
_cell_length_b     22.214058
_cell_length_c     53.745475
_cell_angle_alpha  90.001971
_cell_angle_beta   89.999126
_cell_angle_gamma 90.028417
loop_
_atom_site_label
_atom_site_type_symbol
_atom_site_fract_x
_atom_site_fract_y
_atom_site_fract_z
_atom_type_partial_charge
Co0 Co 0.12859 0.21353 0.29543 0.0
O1 O 0.20426 0.19407 0.31104 0.0
O2 O 0.11898 0.20329 0.33146 0.0
C3 C 0.16299 0.29237 0.27273 0.0
O4 O 0.04286 0.23483 0.28405 0.0
Co5 Co 0.12694 0.1971 0.23758 0.0
O6 O 0.04718 0.23493 0.24199 0.0
C7 C 0.09728 0.0938 0.27013 0.0
C8 C 0.177 0.19408 0.33226 0.0
C9 C 0.01858 0.24212 0.26237 0.0
O10 O 0.10794 0.12571 0.28968 0.0
O11 O 0.10604 0.11293 0.24795 0.0
O12 O 0.1485 0.29888 0.2959 0.0
O13 O 0.16476 0.2373 0.26505 0.0
Co14 Co 0.21544 0.87584 0.70881 0.0
O15 O 0.18248 0.80282 0.69494 0.0
O16 O 0.20145 0.88404 0.67296 0.0
C17 C 0.29205 0.83164 0.72979 0.0
O18 O 0.25186 0.95812 0.71789 0.0
Co19 Co 0.21436 0.88763 0.76692 0.0
O20 O 0.27252 0.95227 0.759 0.0
C21 C 0.11013 0.93111 0.73723 0.0
C22 C 0.18483 0.82769 0.67324 0.0
C23 C 0.27599 0.97894 0.73803 0.0
O24 O 0.1329 0.91001 0.71692 0.0
O25 O 0.13399 0.92308 0.75866 0.0
O26 O 0.29626 0.84282 0.70623 0.0
O27 O 0.23907 0.83942 0.73916 0.0
Co28 Co 0.87493 0.78633 0.29822 0.0
O29 O 0.8031 0.81976 0.31303 0.0
O30 O 0.88601 0.80052 0.33392 0.0
C31 C 0.82976 0.70935 0.27776 0.0
O32 O 0.95619 0.74948 0.28792 0.0
Co33 Co 0.88161 0.78932 0.24 0.0
O34 O 0.94698 0.73132 0.2467 0.0
C35 C 0.93217 0.89029 0.26962 0.0
C36 C 0.82985 0.81771 0.33437 0.0
C37 C 0.97531 0.72657 0.26724 0.0
O38 O 0.90961 0.86863 0.28987 0.0
O39 O 0.92299 0.86696 0.24817 0.0
O40 O 0.84158 0.70571 0.30128 0.0
O41 O 0.83629 0.7625 0.26831 0.0
Co42 Co 0.78763 0.13191 0.70813 0.0
O43 O 0.81629 0.20608 0.69362 0.0
O44 O 0.80005 0.12297 0.67232 0.0
C45 C 0.71095 0.17295 0.72996 0.0
O46 O 0.75556 0.04826 0.71768 0.0
Co47 Co 0.79384 0.11956 0.766 0.0
O48 O 0.73653 0.05354 0.7589 0.0
C49 C 0.90041 0.08837 0.73543 0.0
C50 C 0.81466 0.17986 0.67215 0.0
C51 C 0.73295 0.02671 0.73798 0.0
O52 O 0.87221 0.10243 0.71529 0.0
O53 O 0.87815 0.09544 0.75722 0.0
O54 O 0.70532 0.1611 0.70648 0.0
O55 O 0.76483 0.16741 0.73873 0.0
Co56 Co 0.13517 0.2911 0.96055 0.0
O57 O 0.20802 0.3235 0.94629 0.0
O58 O 0.12757 0.3004 0.92445 0.0
C59 C 0.18039 0.21843 0.9834 0.0
O60 O 0.05302 0.25459 0.96997 0.0
Co61 Co 0.1202 0.29862 0.0184 0.0
O62 O 0.05701 0.23826 0.01144 0.0
C63 C 0.07552 0.39772 0.98602 0.0
C64 C 0.18355 0.31821 0.92459 0.0
C65 C 0.03124 0.23259 0.99037 0.0
O66 O 0.09959 0.3739 0.96654 0.0
O67 O 0.08137 0.37601 0.00797 0.0
O68 O 0.16975 0.21084 0.95994 0.0
O69 O 0.17089 0.27225 0.99163 0.0
Co70 Co 0.28821 0.87732 0.04617 0.0
O71 O 0.31716 0.80161 0.0591 0.0
O72 O 0.30229 0.88214 0.08207 0.0
C73 C 0.20985 0.83858 0.02433 0.0
O74 O 0.25658 0.96205 0.03845 0.0
Co75 Co 0.29073 0.89519 0.98844 0.0
O76 O 0.23627 0.96227 0.99726 0.0
C77 C 0.39786 0.92778 0.01872 0.0
C78 C 0.31621 0.82514 0.0811 0.0
C79 C 0.23437 0.98668 0.01871 0.0
O80 O 0.37252 0.90786 0.03871 0.0
O81 O 0.37386 0.92332 0.99711 0.0
O82 O 0.20565 0.84818 0.04802 0.0
O83 O 0.26327 0.84486 0.01518 0.0
Co84 Co 0.87145 0.72149 0.9595 0.0
O85 O 0.79776 0.68982 0.94562 0.0
O86 O 0.87672 0.71493 0.92323 0.0
C87 C 0.82601 0.79082 0.98405 0.0
O88 O 0.95415 0.75776 0.96827 0.0
Co89 Co 0.8905 0.7075 0.01694 0.0
O90 O 0.95789 0.76341 0.01025 0.0
C91 C 0.91898 0.60584 0.98336 0.0
C92 C 0.82097 0.69647 0.92374 0.0
C93 C 0.97967 0.77441 0.98878 0.0
O94 O 0.90659 0.63794 0.96405 0.0
O95 O 0.91065 0.62384 0.00574 0.0
O96 O 0.83561 0.80165 0.96071 0.0
O97 O 0.83798 0.73672 0.99123 0.0
Co98 Co 0.71715 0.13381 0.04632 0.0
O99 O 0.69141 0.21062 0.05939 0.0
O100 O 0.70031 0.12868 0.08202 0.0
C101 C 0.79856 0.16939 0.02544 0.0
O102 O 0.744 0.04752 0.03857 0.0
Co103 Co 0.71798 0.11791 0.98842 0.0
O104 O 0.76072 0.04276 0.99711 0.0
C105 C 0.60838 0.08655 0.01774 0.0
C106 C 0.68907 0.18628 0.08122 0.0
C107 C 0.76127 0.01948 0.01878 0.0
O108 O 0.6319 0.10783 0.03788 0.0
O109 O 0.63446 0.08979 0.99651 0.0
O110 O 0.80117 0.15829 0.04906 0.0
O111 O 0.74547 0.16603 0.01577 0.0
Co112 Co 0.62872 0.71991 0.79643 0.0
O113 O 0.70205 0.69038 0.8114 0.0
O114 O 0.61858 0.70798 0.83222 0.0
C115 C 0.6717 0.79619 0.77483 0.0
O116 O 0.54581 0.75297 0.78647 0.0
Co117 Co 0.61799 0.71491 0.73848 0.0
O118 O 0.55266 0.773 0.7454 0.0
C119 C 0.5784 0.61034 0.76897 0.0
C120 C 0.67533 0.693 0.83276 0.0
C121 C 0.52501 0.77607 0.76615 0.0
O122 O 0.59766 0.6357 0.78907 0.0
O123 O 0.58542 0.63357 0.74734 0.0
O124 O 0.65908 0.8019 0.79822 0.0
O125 O 0.66567 0.7424 0.76601 0.0
Co126 Co 0.7149 0.37499 0.20913 0.0
O127 O 0.68187 0.30363 0.19372 0.0
O128 O 0.70402 0.38656 0.17332 0.0
C129 C 0.78827 0.32606 0.23045 0.0
O130 O 0.75194 0.45622 0.21944 0.0
Co131 Co 0.70812 0.38367 0.26696 0.0
O132 O 0.762 0.45286 0.26122 0.0
C133 C 0.60535 0.42613 0.23644 0.0
C134 C 0.68618 0.33065 0.17249 0.0
C135 C 0.77054 0.47838 0.2403 0.0
O136 O 0.63216 0.40924 0.21634 0.0
O137 O 0.6269 0.41659 0.25819 0.0
O138 O 0.79485 0.34013 0.20724 0.0
O139 O 0.73509 0.33537 0.23945 0.0
Co140 Co 0.37527 0.28663 0.79725 0.0
O141 O 0.30111 0.31485 0.81194 0.0
O142 O 0.38475 0.29972 0.833 0.0
C143 C 0.33504 0.20892 0.77564 0.0
O144 O 0.45899 0.25522 0.78746 0.0
Co145 Co 0.38599 0.29317 0.73935 0.0
O146 O 0.45335 0.23741 0.74615 0.0
C147 C 0.42102 0.39873 0.76988 0.0
C148 C 0.32779 0.31394 0.83333 0.0
C149 C 0.48056 0.23366 0.76698 0.0
O150 O 0.40436 0.37143 0.78992 0.0
O151 O 0.41396 0.37628 0.74812 0.0
O152 O 0.34678 0.20394 0.79915 0.0
O153 O 0.33947 0.26286 0.76679 0.0
Co154 Co 0.28241 0.62803 0.20681 0.0
O155 O 0.31194 0.70237 0.19267 0.0
O156 O 0.29657 0.61959 0.17108 0.0
C157 C 0.20467 0.66831 0.22821 0.0
O158 O 0.24972 0.54412 0.2159 0.0
Co159 Co 0.28606 0.61473 0.26473 0.0
O160 O 0.22981 0.54821 0.25709 0.0
C161 C 0.39315 0.58161 0.23477 0.0
C162 C 0.31136 0.67643 0.17112 0.0
C163 C 0.22685 0.52189 0.23604 0.0
O164 O 0.36655 0.59824 0.21458 0.0
O165 O 0.36982 0.58811 0.2564 0.0
O166 O 0.20027 0.65751 0.2046 0.0
O167 O 0.25819 0.66287 0.23735 0.0
Co168 Co 0.63369 0.79437 0.46066 0.0
O169 O 0.70773 0.82626 0.44715 0.0
O170 O 0.62742 0.80683 0.42466 0.0
C171 C 0.6768 0.71872 0.48261 0.0
O172 O 0.55054 0.75909 0.46916 0.0
Co173 Co 0.61719 0.79656 0.51851 0.0
O174 O 0.55361 0.73755 0.51021 0.0
C175 C 0.57448 0.8993 0.48753 0.0
C176 C 0.68387 0.82306 0.42526 0.0
C177 C 0.52796 0.73515 0.48901 0.0
O178 O 0.59937 0.87734 0.46781 0.0
O179 O 0.57953 0.87532 0.5091 0.0
O180 O 0.66649 0.7134 0.45902 0.0
O181 O 0.66828 0.77199 0.4916 0.0
Co182 Co 0.78916 0.37874 0.54649 0.0
O183 O 0.817 0.30317 0.55986 0.0
O184 O 0.80134 0.38413 0.5825 0.0
C185 C 0.71189 0.34057 0.52397 0.0
O186 O 0.75814 0.4634 0.53798 0.0
Co187 Co 0.79786 0.39453 0.48884 0.0
O188 O 0.74266 0.46196 0.49642 0.0
C189 C 0.9038 0.42209 0.52016 0.0
C190 C 0.81542 0.32713 0.58176 0.0
C191 C 0.7378 0.48705 0.51768 0.0
O192 O 0.87422 0.4081 0.53997 0.0
O193 O 0.88269 0.41582 0.49814 0.0
O194 O 0.70642 0.35024 0.54761 0.0
O195 O 0.766 0.34591 0.51538 0.0
Co196 Co 0.37525 0.2238 0.45829 0.0
O197 O 0.30006 0.19505 0.44483 0.0
O198 O 0.3808 0.21205 0.42223 0.0
C199 C 0.33554 0.30017 0.48077 0.0
O200 O 0.45948 0.25627 0.46703 0.0
Co201 Co 0.39041 0.21491 0.51596 0.0
O202 O 0.457 0.27136 0.50861 0.0
C203 C 0.41848 0.10917 0.48465 0.0
C204 C 0.32392 0.19733 0.42293 0.0
C205 C 0.48223 0.27723 0.48743 0.0
O206 O 0.40544 0.13903 0.4648 0.0
O207 O 0.41134 0.13004 0.50667 0.0
O208 O 0.34575 0.30609 0.45719 0.0
O209 O 0.34172 0.24613 0.48933 0.0
Co210 Co 0.21883 0.63578 0.54632 0.0
O211 O 0.18684 0.70891 0.56068 0.0
O212 O 0.20542 0.62648 0.58206 0.0
C213 C 0.29503 0.67991 0.52493 0.0
O214 O 0.25408 0.55327 0.53713 0.0
Co215 Co 0.21686 0.62291 0.48834 0.0
O216 O 0.27509 0.55826 0.49608 0.0
C217 C 0.11376 0.57856 0.51861 0.0
C218 C 0.18882 0.68279 0.58218 0.0
C219 C 0.2778 0.53168 0.51707 0.0
O220 O 0.13583 0.60205 0.53861 0.0
O221 O 0.13783 0.58493 0.49712 0.0
O222 O 0.3001 0.66827 0.54844 0.0
O223 O 0.24176 0.67215 0.51582 0.0
C224 C 0.13396 0.39599 0.26101 0.0
C225 C 0.17071 0.34567 0.25658 0.0
C226 C 0.14837 0.45244 0.25119 0.0
C227 C 0.20034 0.46091 0.23666 0.0
H228 H 0.09588 0.39261 0.27356 0.0
H229 H 0.12164 0.49082 0.25691 0.0
S230 S 0.30694 0.34191 0.21688 0.0
N231 N 0.25714 0.30603 0.2343 0.0
N232 N 0.28505 0.413 0.21606 0.0
C233 C 0.23421 0.40989 0.23004 0.0
C234 C 0.2192 0.35191 0.24 0.0
C235 C 0.45386 0.85003 0.74871 0.0
C236 C 0.4635 0.80103 0.76478 0.0
C237 C 0.39696 0.86166 0.73878 0.0
C238 C 0.34719 0.82557 0.7449 0.0
H239 H 0.49164 0.87646 0.74209 0.0
H240 H 0.39258 0.89733 0.72514 0.0
S241 S 0.3464 0.69738 0.7889 0.0
N242 N 0.41735 0.71987 0.78839 0.0
N243 N 0.30927 0.74342 0.77023 0.0
C244 C 0.35462 0.78039 0.7629 0.0
C245 C 0.41316 0.76783 0.77282 0.0
C246 C 0.76679 0.59005 0.23412 0.0
C247 C 0.79875 0.53851 0.2418 0.0
C248 C 0.77991 0.64718 0.2443 0.0
C249 C 0.82439 0.65369 0.26277 0.0
H250 H 0.72806 0.58539 0.22201 0.0
H251 H 0.75195 0.6852 0.23926 0.0
S252 S 0.92713 0.53426 0.28577 0.0
N253 N 0.88259 0.4996 0.26579 0.0
N254 N 0.90532 0.60528 0.28574 0.0
C255 C 0.85985 0.60337 0.26881 0.0
C256 C 0.84764 0.5462 0.25802 0.0
C257 C 0.55002 0.15743 0.75015 0.0
C258 C 0.54155 0.20755 0.76574 0.0
C259 C 0.60652 0.14402 0.74023 0.0
C260 C 0.65687 0.17993 0.74563 0.0
H261 H 0.51167 0.13151 0.74377 0.0
H262 H 0.61002 0.10737 0.72699 0.0
S263 S 0.66068 0.31096 0.78819 0.0
N264 N 0.58943 0.28941 0.78829 0.0
N265 N 0.69664 0.26323 0.76985 0.0
C266 C 0.65061 0.22638 0.76317 0.0
C267 C 0.59255 0.24041 0.77323 0.0
C268 C 0.15796 0.06044 0.00581 0.0
C269 C 0.21123 0.04878 0.01905 0.0
C270 C 0.14594 0.11758 0.99622 0.0
C271 C 0.18652 0.16536 0.99963 0.0
H272 H 0.12829 0.02381 1.00066 0.0
H273 H 0.10673 0.12321 0.98446 0.0
S274 S 0.32913 0.16021 0.03518 0.0
N275 N 0.30239 0.09088 0.03699 0.0
N276 N 0.27906 0.19928 0.01914 0.0
C277 C 0.23706 0.15609 0.01482 0.0
C278 C 0.24955 0.09741 0.02457 0.0
C279 C 0.14804 0.78388 0.99228 0.0
C280 C 0.15494 0.83208 0.00903 0.0
C281 C 0.09086 0.76926 0.98254 0.0
C282 C 0.03961 0.80325 0.98894 0.0
H283 H 0.18568 0.75432 0.98845 0.0
H284 H 0.08585 0.72803 0.97197 0.0
S285 S 0.03693 0.94082 0.02793 0.0
N286 N 0.10766 0.91816 0.02885 0.0
N287 N 1.00178 0.89252 0.00967 0.0
C288 C 0.04784 0.85539 0.0033 0.0
C289 C 0.10515 0.8693 0.01364 0.0
C290 C 0.84609 0.87429 0.01386 0.0
C291 C 0.80446 0.83877 1.00071 0.0
C292 C 0.83031 0.93168 0.02279 0.0
C293 C 0.7719 0.9542 0.01927 0.0
H294 H 0.89221 0.85983 0.0154 0.0
H295 H 0.8651 0.96035 0.0305 0.0
S296 S 0.64433 0.87502 0.9892 0.0
N297 N 0.70129 0.82756 0.98678 0.0
N298 N 0.67072 0.93413 0.00434 0.0
C299 C 0.72848 0.91644 0.00839 0.0
C300 C 0.74493 0.8589 0.99888 0.0
C301 C 0.90464 0.14208 0.01661 0.0
C302 C 0.85418 0.17738 0.01071 0.0
C303 C 0.96157 0.1558 0.00701 0.0
C304 C 0.97039 0.2058 0.99135 0.0
H305 H 0.90071 0.10545 0.02984 0.0
H306 H 0.99988 0.13004 0.01354 0.0
S307 S 0.85175 0.30922 0.96854 0.0
N308 N 0.81525 0.26092 0.98644 0.0
N309 N 0.92302 0.28789 0.96882 0.0
C310 C 0.9195 0.23854 0.98368 0.0
C311 C 0.86111 0.22409 0.99331 0.0
C312 C 0.6424 0.90032 0.76392 0.0
C313 C 0.67926 0.85025 0.75916 0.0
C314 C 0.65584 0.95681 0.75391 0.0
C315 C 0.70709 0.96555 0.73898 0.0
H316 H 0.60481 0.8966 0.77669 0.0
H317 H 0.62888 0.99504 0.75967 0.0
S318 S 0.81352 0.84722 0.71837 0.0
N319 N 0.76478 0.81105 0.73619 0.0
N320 N 0.7912 0.91819 0.71774 0.0
C321 C 0.74109 0.91478 0.73214 0.0
C322 C 0.72693 0.85676 0.74222 0.0
C323 C 0.92418 0.22942 0.23871 0.0
C324 C 0.95348 0.25493 0.25943 0.0
C325 C 0.8679 0.24966 0.23093 0.0
C326 C 0.83769 0.29545 0.24376 0.0
H327 H 0.94655 0.19577 0.2274 0.0
H328 H 0.84937 0.23156 0.21382 0.0
S329 S 0.88893 0.36903 0.30198 0.0
N330 N 0.94455 0.32288 0.29465 0.0
N331 N 0.83677 0.35987 0.28035 0.0
C332 C 0.86314 0.31707 0.26604 0.0
C333 C 0.92156 0.29689 0.27386 0.0
C334 C 0.26828 0.09046 0.73286 0.0
C335 C 0.30311 0.03959 0.739 0.0
C336 C 0.28164 0.14742 0.7431 0.0
C337 C 0.32949 0.15444 0.76001 0.0
H338 H 0.22733 0.08518 0.72212 0.0
H339 H 0.25145 0.18468 0.73948 0.0
S340 S 0.44026 0.03757 0.77824 0.0
N341 N 0.39264 1.00224 0.75972 0.0
N342 N 0.41641 0.10787 0.77957 0.0
C343 C 0.36768 0.10515 0.7643 0.0
C344 C 0.35492 0.04806 0.75354 0.0
C345 C 0.08713 0.73129 0.2724 0.0
C346 C 0.03551 0.69887 0.26515 0.0
C347 C 0.14385 0.71834 0.26187 0.0
C348 C 0.14988 0.67325 0.24364 0.0
H349 H 0.08276 0.77029 0.28437 0.0
H350 H 0.18184 0.74683 0.26645 0.0
S351 S 0.03073 0.56874 0.22195 0.0
N352 N 0.99621 0.61439 0.24151 0.0
N353 N 0.10171 0.59068 0.22168 0.0
C354 C 0.09981 0.63705 0.23818 0.0
C355 C 0.04286 0.64961 0.24903 0.0
C356 C 0.66089 0.55734 0.50205 0.0
C357 C 0.71157 0.54805 0.51724 0.0
C358 C 0.64734 0.61429 0.4926 0.0
C359 C 0.6837 0.66428 0.49807 0.0
H360 H 0.63466 0.51933 0.49555 0.0
H361 H 0.61031 0.61843 0.47957 0.0
S362 S 0.81661 0.66581 0.53963 0.0
N363 N 0.79465 0.59468 0.53946 0.0
N364 N 0.76826 0.7027 0.52189 0.0
C365 C 0.73084 0.65712 0.51522 0.0
C366 C 0.74498 0.59862 0.52481 0.0
C367 C 0.65097 0.28662 0.49136 0.0
C368 C 0.65763 0.33464 0.50823 0.0
C369 C 0.59386 0.27193 0.48153 0.0
C370 C 0.54245 0.30546 0.48812 0.0
H371 H 0.68872 0.25721 0.48752 0.0
H372 H 0.58907 0.23095 0.47078 0.0
S373 S 0.53898 0.4422 0.52763 0.0
N374 N 0.60996 0.42027 0.52822 0.0
N375 N 0.50394 0.39373 0.50941 0.0
C376 C 0.55036 0.35734 0.50269 0.0
C377 C 0.60767 0.37159 0.51291 0.0
C378 C 0.35392 0.46054 0.5014 0.0
C379 C 0.30287 0.47022 0.51632 0.0
C380 C 0.3663 0.40378 0.49145 0.0
C381 C 0.3291 0.35416 0.49652 0.0
H382 H 0.38136 0.4983 0.49549 0.0
H383 H 0.40326 0.39954 0.47841 0.0
S384 S 0.19372 0.35397 0.53667 0.0
N385 N 0.21737 0.42452 0.53729 0.0
N386 N 0.2424 0.3167 0.51923 0.0
C387 C 0.2813 0.36165 0.51332 0.0
C388 C 0.26791 0.42006 0.52319 0.0
C389 C 0.45487 0.65909 0.50342 0.0
C390 C 0.46587 0.71149 0.48945 0.0
C391 C 0.39788 0.64723 0.51336 0.0
C392 C 0.34952 0.68688 0.50946 0.0
H393 H 0.49188 0.62982 0.50855 0.0
H394 H 0.39253 0.60851 0.52543 0.0
S395 S 0.35294 0.82694 0.47216 0.0
N396 N 0.42255 0.80094 0.4706 0.0
N397 N 0.31455 0.77753 0.48884 0.0
C398 C 0.35826 0.73644 0.49366 0.0
C399 C 0.41675 0.74894 0.48368 0.0
C400 C 0.31194 0.19195 0.37633 0.0
C401 C 0.28583 0.19007 0.40013 0.0
C402 C 0.27628 0.19116 0.35469 0.0
C403 C 0.21271 0.18911 0.35578 0.0
H404 H 0.36035 0.19529 0.37433 0.0
H405 H 0.29903 0.19389 0.3369 0.0
S406 S 0.12153 0.18051 0.41345 0.0
N407 N 0.19179 0.1832 0.4234 0.0
N408 N 0.12544 0.18267 0.38279 0.0
C409 C 0.18599 0.18563 0.37941 0.0
C410 C 0.2223 0.18584 0.40151 0.0
C411 C 0.18233 0.78203 0.60464 0.0
C412 C 0.1799 0.71849 0.6055 0.0
C413 C 0.18147 0.81724 0.62645 0.0
C414 C 0.17727 0.79061 0.65013 0.0
H415 H 0.18737 0.80497 0.58698 0.0
H416 H 0.18586 0.86562 0.62471 0.0
S417 S 0.16375 0.6262 0.66259 0.0
N418 N 0.16931 0.63078 0.63202 0.0
N419 N 0.16634 0.69619 0.67286 0.0
C420 C 0.17176 0.72715 0.65116 0.0
C421 C 0.17347 0.69135 0.62895 0.0
C422 C 0.69547 0.82854 0.37857 0.0
C423 C 0.72187 0.82966 0.40235 0.0
C424 C 0.73093 0.82756 0.35685 0.0
C425 C 0.79453 0.82674 0.35783 0.0
H426 H 0.64695 0.82691 0.37668 0.0
H427 H 0.70794 0.82513 0.3391 0.0
S428 S 0.88654 0.83295 0.41533 0.0
N429 N 0.81634 0.8334 0.42542 0.0
N430 N 0.88222 0.83028 0.38468 0.0
C431 C 0.82157 0.8298 0.38142 0.0
C432 C 0.78552 0.83161 0.40358 0.0
C433 C 0.82073 0.27942 0.65002 0.0
C434 C 0.8221 0.21588 0.64885 0.0
C435 C 0.82064 0.31516 0.62839 0.0
C436 C 0.82266 0.28908 0.60457 0.0
H437 H 0.81752 0.30202 0.66782 0.0
H438 H 0.81748 0.36357 0.6304 0.0
S439 S 0.83203 0.12486 0.59117 0.0
N440 N 0.82897 0.12868 0.62181 0.0
N441 N 0.82993 0.19516 0.58125 0.0
C442 C 0.82678 0.22559 0.60316 0.0
C443 C 0.82617 0.18923 0.62521 0.0
C444 C 0.19379 0.31955 0.87782 0.0
C445 C 0.22056 0.32472 0.90143 0.0
C446 C 0.22881 0.31866 0.85598 0.0
C447 C 0.29231 0.32206 0.85674 0.0
H448 H 0.14544 0.31468 0.87616 0.0
H449 H 0.20575 0.31309 0.83837 0.0
S450 S 0.38489 0.34016 0.91364 0.0
N451 N 0.31502 0.33694 0.92402 0.0
N452 N 0.38014 0.33406 0.8831 0.0
C453 C 0.31959 0.32915 0.88012 0.0
C454 C 0.28396 0.33083 0.90238 0.0
C455 C 0.32044 0.77621 0.14925 0.0
C456 C 0.32022 0.71267 0.14793 0.0
C457 C 0.32146 0.81228 0.12771 0.0
C458 C 0.32303 0.78656 0.10381 0.0
H459 H 0.31758 0.79861 0.16711 0.0
H460 H 0.31938 0.86072 0.12985 0.0
S461 S 0.32837 0.62237 0.08999 0.0
N462 N 0.3252 0.62578 0.12064 0.0
N463 N 0.32815 0.69286 0.08026 0.0
C464 C 0.32565 0.72301 0.10224 0.0
C465 C 0.32395 0.68633 0.12421 0.0
C466 C 0.80977 0.68967 0.87708 0.0
C467 C 0.78323 0.68919 0.90083 0.0
C468 C 0.77445 0.68812 0.85534 0.0
C469 C 0.71087 0.68695 0.85629 0.0
H470 H 0.85825 0.69233 0.87522 0.0
H471 H 0.79742 0.68996 0.83758 0.0
S472 S 0.6187 0.68259 0.91379 0.0
N473 N 0.68884 0.68479 0.92391 0.0
N474 N 0.62312 0.68303 0.88313 0.0
C475 C 0.68375 0.68493 0.87989 0.0
C476 C 0.71969 0.68574 0.90207 0.0
C477 C 0.67771 0.19731 0.12773 0.0
C478 C 0.68067 0.22413 0.10406 0.0
C479 C 0.67658 0.23235 0.14956 0.0
C480 C 0.67907 0.2959 0.14879 0.0
H481 H 0.6778 0.14874 0.1295 0.0
H482 H 0.67602 0.20904 0.16725 0.0
S483 S 0.68272 0.38899 0.09154 0.0
N484 N 0.68218 0.31898 0.08123 0.0
N485 N 0.68109 0.38411 0.12218 0.0
C486 C 0.67984 0.32341 0.12526 0.0
C487 C 0.68035 0.28779 0.10297 0.0
C488 C 0.97535 0.98355 0.29009 0.0
C489 C 0.97715 0.94009 0.27104 0.0
C490 C 0.01747 0.03106 0.29087 0.0
C491 C 0.06325 0.03647 0.27278 0.0
H492 H 0.94006 0.98202 0.30399 0.0
H493 H 0.01214 0.06546 0.30499 0.0
S494 S 0.09482 0.92809 0.22199 0.0
N495 N 0.03409 0.90121 0.23575 0.0
N496 N 0.11212 0.99018 0.23725 0.0
C497 C 0.06783 0.99111 0.25471 0.0
C498 C 0.02514 0.94309 0.25383 0.0
C499 C 0.9671 0.01108 0.71519 0.0
C500 C 0.9582 0.05505 0.73377 0.0
C501 C 0.01625 0.971 0.71619 0.0
C502 C 0.05791 0.97318 0.73593 0.0
H503 H 0.93445 0.00579 0.70037 0.0
H504 H 0.02073 0.93718 0.70179 0.0
S505 S 0.05957 0.08649 0.78699 0.0
N506 N 0.99848 0.10248 0.77085 0.0
N507 N 0.09045 0.02831 0.77283 0.0
C508 C 0.05093 0.01919 0.75386 0.0
C509 C 1.00125 0.05976 0.75276 0.0
C510 C 0.04181 0.4949 0.96583 0.0
C511 C 0.0323 0.4482 0.98308 0.0
C512 C 1.00209 0.54431 0.96455 0.0
C513 C 0.95148 0.54814 0.98032 0.0
H514 H 0.08136 0.4945 0.95404 0.0
H515 H 0.01294 0.58125 0.95217 0.0
S516 S 0.89982 0.43163 0.02479 0.0
N517 N 0.96336 0.40473 0.01341 0.0
N518 N 0.88986 0.49741 0.01111 0.0
C519 C 0.93931 0.49964 0.99623 0.0
C520 C 0.97939 0.44971 0.99757 0.0
C521 C 0.48859 0.97311 0.99871 0.0
C522 C 0.45421 0.96419 0.02036 0.0
C523 C 0.53632 0.01413 0.99805 0.0
C524 C 0.55281 0.04847 0.01907 0.0
H525 H 0.47809 0.94867 0.98181 0.0
H526 H 0.56098 0.01804 0.98074 0.0
S527 S 0.47701 0.04287 0.08065 0.0
N528 N 0.43944 0.99384 0.06353 0.0
N529 N 0.53032 0.0703 0.06246 0.0
C530 C 0.51924 0.03971 0.04106 0.0
C531 C 0.47 0.99774 0.04169 0.0
C532 C 0.46593 0.48974 0.74986 0.0
C533 C 0.45664 0.45564 0.77158 0.0
C534 C 0.50624 0.53806 0.74932 0.0
C535 C 0.53947 0.55544 0.77051 0.0
H536 H 0.44253 0.4785 0.7328 0.0
H537 H 0.51076 0.56225 0.73192 0.0
S538 S 0.5314 0.48199 0.83251 0.0
N539 N 0.48394 0.44305 0.81516 0.0
N540 N 0.55915 0.53495 0.81423 0.0
C541 C 0.52992 0.52263 0.79262 0.0
C542 C 0.48868 0.47276 0.79315 0.0
C543 C 0.53264 0.49787 0.25592 0.0
C544 C 0.55062 0.46492 0.23477 0.0
C545 C 0.48399 0.53771 0.2552 0.0
C546 C 0.45034 0.54666 0.23334 0.0
H547 H 0.55658 0.49346 0.27338 0.0
H548 H 0.47212 0.56098 0.27223 0.0
S549 S 0.47842 0.47216 0.17251 0.0
N550 N 0.53121 0.44493 0.19098 0.0
N551 N 0.43882 0.51933 0.18971 0.0
C552 C 0.46815 0.51489 0.21182 0.0
C553 C 0.51826 0.47416 0.21254 0.0
C554 C 0.49924 0.04489 0.46556 0.0
C555 C 0.45101 0.05111 0.48244 0.0
C556 C 0.53889 0.99541 0.46688 0.0
C557 C 0.53182 0.95077 0.48524 0.0
H558 H 0.50828 0.08 0.45208 0.0
H559 H 0.57636 0.9932 0.45402 0.0
S560 S 0.40573 0.94088 0.53067 0.0
N561 N 0.39416 0.00495 0.51588 0.0
N562 N 0.46723 0.912 0.51826 0.0
C563 C 0.48125 0.95477 0.5011 0.0
C564 C 0.44128 0.0049 0.49974 0.0
C565 C 0.96795 0.50225 0.53981 0.0
C566 C 0.96176 0.45483 0.52253 0.0
C567 C 0.01744 0.54201 0.53884 0.0
C568 C 0.0621 0.53592 0.52043 0.0
H569 H 0.93286 0.51054 0.55338 0.0
H570 H 0.01966 0.57878 0.55205 0.0
S571 S 0.07182 0.41239 0.47382 0.0
N572 N 0.00779 0.39993 0.48852 0.0
N573 N 0.10073 0.47323 0.48678 0.0
C574 C 0.05801 0.48626 0.50409 0.0
C575 C 0.00788 0.44617 0.5051 0.0
loop_
_geom_bond_atom_site_label_1
_geom_bond_atom_site_label_2
_geom_bond_distance
_geom_bond_site_symmetry_2
_ccdc_geom_bond_type
Co0 O1 2.216 . S
Co0 O2 2.091 . S
Co0 O4 2.004 . S
Co0 O10 2.021 . S
Co0 O12 2.137 . S
Co0 O13 2.244 . S
O1 Co0 2.216 . S
O1 C8 1.247 . S
O2 Co0 2.091 . S
O2 C8 1.261 . S
C3 O12 1.247 . S
C3 O13 1.272 . S
O4 Co0 2.004 . S
O4 C9 1.259 1_455 S
Co5 O6 2.061 . S
Co5 O11 2.052 . S
Co5 O13 2.135 . S
O6 Co5 2.061 . S
O6 C9 1.235 1_455 S
C7 O10 1.238 . S
C7 O11 1.241 . S
C8 O1 1.247 . S
C8 O2 1.261 . S
C9 O4 1.259 1_655 S
C9 O6 1.235 1_655 S
O10 Co0 2.021 . S
O10 C7 1.238 . S
O11 Co5 2.052 . S
O11 C7 1.241 . S
O12 Co0 2.137 . S
O12 C3 1.247 . S
O13 Co0 2.244 . S
O13 C3 1.272 . S
O13 Co5 2.135 . S
Co14 O15 2.216 . S
Co14 O16 2.091 . S
Co14 O18 2.004 . S
Co14 O24 2.021 . S
Co14 O26 2.137 . S
Co14 O27 2.244 . S
O15 Co14 2.216 . S
O15 C22 1.247 . S
O16 Co14 2.091 . S
O16 C22 1.261 . S
C17 O26 1.247 . S
C17 O27 1.272 . S
O18 Co14 2.004 . S
O18 C23 1.259 1_565 S
Co19 O20 2.061 . S
Co19 O25 2.052 . S
Co19 O27 2.135 . S
O20 Co19 2.061 . S
O20 C23 1.235 1_565 S
C21 O24 1.238 . S
C21 O25 1.241 . S
C22 O15 1.247 . S
C22 O16 1.261 . S
C23 O18 1.259 1_545 S
C23 O20 1.235 1_545 S
O24 Co14 2.021 . S
O24 C21 1.238 . S
O25 Co19 2.052 . S
O25 C21 1.241 . S
O26 Co14 2.137 . S
O26 C17 1.247 . S
O27 Co14 2.244 . S
O27 C17 1.272 . S
O27 Co19 2.135 . S
Co28 O29 2.216 . S
Co28 O30 2.091 . S
Co28 O32 2.004 . S
Co28 O38 2.021 . S
Co28 O40 2.137 . S
Co28 O41 2.244 . S
O29 Co28 2.216 . S
O29 C36 1.247 . S
O30 Co28 2.091 . S
O30 C36 1.261 . S
C31 O40 1.247 . S
C31 O41 1.272 . S
O32 Co28 2.004 . S
O32 C37 1.259 1_655 S
Co33 O34 2.061 . S
Co33 O39 2.052 . S
Co33 O41 2.135 . S
O34 Co33 2.061 . S
O34 C37 1.235 1_655 S
C35 O38 1.238 . S
C35 O39 1.241 . S
C36 O29 1.247 . S
C36 O30 1.261 . S
C37 O32 1.259 1_455 S
C37 O34 1.235 1_455 S
O38 Co28 2.021 . S
O38 C35 1.238 . S
O39 Co33 2.052 . S
O39 C35 1.241 . S
O40 Co28 2.137 . S
O40 C31 1.247 . S
O41 Co28 2.244 . S
O41 C31 1.272 . S
O41 Co33 2.135 . S
Co42 O43 2.216 . S
Co42 O44 2.091 . S
Co42 O46 2.004 . S
Co42 O52 2.021 . S
Co42 O54 2.137 . S
Co42 O55 2.244 . S
O43 Co42 2.216 . S
O43 C50 1.247 . S
O44 Co42 2.091 . S
O44 C50 1.261 . S
C45 O54 1.247 . S
C45 O55 1.272 . S
O46 Co42 2.004 . S
O46 C51 1.259 1_545 S
Co47 O48 2.061 . S
Co47 O53 2.052 . S
Co47 O55 2.135 . S
O48 Co47 2.061 . S
O48 C51 1.235 1_545 S
C49 O52 1.238 . S
C49 O53 1.241 . S
C50 O43 1.247 . S
C50 O44 1.261 . S
C51 O46 1.259 1_565 S
C51 O48 1.235 1_565 S
O52 Co42 2.021 . S
O52 C49 1.238 . S
O53 Co47 2.052 . S
O53 C49 1.241 . S
O54 Co42 2.137 . S
O54 C45 1.247 . S
O55 Co42 2.244 . S
O55 C45 1.272 . S
O55 Co47 2.135 . S
Co56 O57 2.216 . S
Co56 O58 2.091 . S
Co56 O60 2.004 . S
Co56 O66 2.021 . S
Co56 O68 2.137 . S
Co56 O69 2.244 . S
O57 Co56 2.216 . S
O57 C64 1.247 . S
O58 Co56 2.091 . S
O58 C64 1.261 . S
C59 O68 1.247 . S
C59 O69 1.272 . S
O60 Co56 2.004 . S
O60 C65 1.259 1_455 S
Co61 O62 2.061 1_554 S
Co61 O67 2.052 1_554 S
Co61 O69 2.135 1_554 S
O62 Co61 2.061 1_556 S
O62 C65 1.235 1_455 S
C63 O66 1.238 . S
C63 O67 1.241 . S
C64 O57 1.247 . S
C64 O58 1.261 . S
C65 O60 1.259 1_655 S
C65 O62 1.235 1_655 S
O66 Co56 2.021 . S
O66 C63 1.238 . S
O67 Co61 2.052 1_556 S
O67 C63 1.241 . S
O68 Co56 2.137 . S
O68 C59 1.247 . S
O69 Co56 2.244 . S
O69 C59 1.272 . S
O69 Co61 2.135 1_556 S
Co70 O71 2.216 . S
Co70 O72 2.091 . S
Co70 O74 2.004 . S
Co70 O80 2.021 . S
Co70 O82 2.137 . S
Co70 O83 2.244 . S
O71 Co70 2.216 . S
O71 C78 1.247 . S
O72 Co70 2.091 . S
O72 C78 1.261 . S
C73 O82 1.247 . S
C73 O83 1.272 . S
O74 Co70 2.004 . S
O74 C79 1.259 1_565 S
Co75 O76 2.061 1_556 S
Co75 O81 2.052 1_556 S
Co75 O83 2.135 1_556 S
O76 Co75 2.061 1_554 S
O76 C79 1.235 1_565 S
C77 O80 1.238 . S
C77 O81 1.241 . S
C78 O71 1.247 . S
C78 O72 1.261 . S
C79 O74 1.259 1_545 S
C79 O76 1.235 1_545 S
O80 Co70 2.021 . S
O80 C77 1.238 . S
O81 Co75 2.052 1_554 S
O81 C77 1.241 . S
O82 Co70 2.137 . S
O82 C73 1.247 . S
O83 Co70 2.244 . S
O83 C73 1.272 . S
O83 Co75 2.135 1_554 S
Co84 O85 2.216 . S
Co84 O86 2.091 . S
Co84 O88 2.004 . S
Co84 O94 2.021 . S
Co84 O96 2.137 . S
Co84 O97 2.244 . S
O85 Co84 2.216 . S
O85 C92 1.247 . S
O86 Co84 2.091 . S
O86 C92 1.261 . S
C87 O96 1.247 . S
C87 O97 1.272 . S
O88 Co84 2.004 . S
O88 C93 1.259 1_655 S
Co89 O90 2.061 1_554 S
Co89 O95 2.052 1_554 S
Co89 O97 2.135 1_554 S
O90 Co89 2.061 1_556 S
O90 C93 1.235 1_655 S
C91 O94 1.238 . S
C91 O95 1.241 . S
C92 O85 1.247 . S
C92 O86 1.261 . S
C93 O88 1.259 1_455 S
C93 O90 1.235 1_455 S
O94 Co84 2.021 . S
O94 C91 1.238 . S
O95 Co89 2.052 1_556 S
O95 C91 1.241 . S
O96 Co84 2.137 . S
O96 C87 1.247 . S
O97 Co84 2.244 . S
O97 C87 1.272 . S
O97 Co89 2.135 1_556 S
Co98 O99 2.216 . S
Co98 O100 2.091 . S
Co98 O102 2.004 . S
Co98 O108 2.021 . S
Co98 O110 2.137 . S
Co98 O111 2.244 . S
O99 Co98 2.216 . S
O99 C106 1.247 . S
O100 Co98 2.091 . S
O100 C106 1.261 . S
C101 O110 1.247 . S
C101 O111 1.272 . S
O102 Co98 2.004 . S
O102 C107 1.259 1_545 S
Co103 O104 2.061 1_556 S
Co103 O109 2.052 1_556 S
Co103 O111 2.135 1_556 S
O104 Co103 2.061 1_554 S
O104 C107 1.235 1_545 S
C105 O108 1.238 . S
C105 O109 1.241 . S
C106 O99 1.247 . S
C106 O100 1.261 . S
C107 O102 1.259 1_565 S
C107 O104 1.235 1_565 S
O108 Co98 2.021 . S
O108 C105 1.238 . S
O109 Co103 2.052 1_554 S
O109 C105 1.241 . S
O110 Co98 2.137 . S
O110 C101 1.247 . S
O111 Co98 2.244 . S
O111 C101 1.272 . S
O111 Co103 2.135 1_554 S
Co112 O113 2.216 . S
Co112 O114 2.091 . S
Co112 O116 2.004 . S
Co112 O122 2.021 . S
Co112 O124 2.137 . S
Co112 O125 2.244 . S
O113 Co112 2.216 . S
O113 C120 1.247 . S
O114 Co112 2.091 . S
O114 C120 1.261 . S
C115 O124 1.247 . S
C115 O125 1.272 . S
O116 Co112 2.004 . S
O116 C121 1.259 . S
Co117 O118 2.061 . S
Co117 O123 2.052 . S
Co117 O125 2.135 . S
O118 Co117 2.061 . S
O118 C121 1.235 . S
C119 O122 1.238 . S
C119 O123 1.241 . S
C120 O113 1.247 . S
C120 O114 1.261 . S
C121 O116 1.259 . S
C121 O118 1.235 . S
O122 Co112 2.021 . S
O122 C119 1.238 . S
O123 Co117 2.052 . S
O123 C119 1.241 . S
O124 Co112 2.137 . S
O124 C115 1.247 . S
O125 Co112 2.244 . S
O125 C115 1.272 . S
O125 Co117 2.135 . S
Co126 O127 2.216 . S
Co126 O128 2.091 . S
Co126 O130 2.004 . S
Co126 O136 2.021 . S
Co126 O138 2.137 . S
Co126 O139 2.244 . S
O127 Co126 2.216 . S
O127 C134 1.247 . S
O128 Co126 2.091 . S
O128 C134 1.261 . S
C129 O138 1.247 . S
C129 O139 1.272 . S
O130 Co126 2.004 . S
O130 C135 1.259 . S
Co131 O132 2.061 . S
Co131 O137 2.052 . S
Co131 O139 2.135 . S
O132 Co131 2.061 . S
O132 C135 1.235 . S
C133 O136 1.238 . S
C133 O137 1.241 . S
C134 O127 1.247 . S
C134 O128 1.261 . S
C135 O130 1.259 . S
C135 O132 1.235 . S
O136 Co126 2.021 . S
O136 C133 1.238 . S
O137 Co131 2.052 . S
O137 C133 1.241 . S
O138 Co126 2.137 . S
O138 C129 1.247 . S
O139 Co126 2.244 . S
O139 C129 1.272 . S
O139 Co131 2.135 . S
Co140 O141 2.216 . S
Co140 O142 2.091 . S
Co140 O144 2.004 . S
Co140 O150 2.021 . S
Co140 O152 2.137 . S
Co140 O153 2.244 . S
O141 Co140 2.216 . S
O141 C148 1.247 . S
O142 Co140 2.091 . S
O142 C148 1.261 . S
C143 O152 1.247 . S
C143 O153 1.272 . S
O144 Co140 2.004 . S
O144 C149 1.259 . S
Co145 O146 2.061 . S
Co145 O151 2.052 . S
Co145 O153 2.135 . S
O146 Co145 2.061 . S
O146 C149 1.235 . S
C147 O150 1.238 . S
C147 O151 1.241 . S
C148 O141 1.247 . S
C148 O142 1.261 . S
C149 O144 1.259 . S
C149 O146 1.235 . S
O150 Co140 2.021 . S
O150 C147 1.238 . S
O151 Co145 2.052 . S
O151 C147 1.241 . S
O152 Co140 2.137 . S
O152 C143 1.247 . S
O153 Co140 2.244 . S
O153 C143 1.272 . S
O153 Co145 2.135 . S
Co154 O155 2.216 . S
Co154 O156 2.091 . S
Co154 O158 2.004 . S
Co154 O164 2.021 . S
Co154 O166 2.137 . S
Co154 O167 2.244 . S
O155 Co154 2.216 . S
O155 C162 1.247 . S
O156 Co154 2.091 . S
O156 C162 1.261 . S
C157 O166 1.247 . S
C157 O167 1.272 . S
O158 Co154 2.004 . S
O158 C163 1.259 . S
Co159 O160 2.061 . S
Co159 O165 2.052 . S
Co159 O167 2.135 . S
O160 Co159 2.061 . S
O160 C163 1.235 . S
C161 O164 1.238 . S
C161 O165 1.241 . S
C162 O155 1.247 . S
C162 O156 1.261 . S
C163 O158 1.259 . S
C163 O160 1.235 . S
O164 Co154 2.021 . S
O164 C161 1.238 . S
O165 Co159 2.052 . S
O165 C161 1.241 . S
O166 Co154 2.137 . S
O166 C157 1.247 . S
O167 Co154 2.244 . S
O167 C157 1.272 . S
O167 Co159 2.135 . S
Co168 O169 2.216 . S
Co168 O170 2.091 . S
Co168 O172 2.004 . S
Co168 O178 2.021 . S
Co168 O180 2.137 . S
Co168 O181 2.244 . S
O169 Co168 2.216 . S
O169 C176 1.247 . S
O170 Co168 2.091 . S
O170 C176 1.261 . S
C171 O180 1.247 . S
C171 O181 1.272 . S
O172 Co168 2.004 . S
O172 C177 1.259 . S
Co173 O174 2.061 . S
Co173 O179 2.052 . S
Co173 O181 2.135 . S
O174 Co173 2.061 . S
O174 C177 1.235 . S
C175 O178 1.238 . S
C175 O179 1.241 . S
C176 O169 1.247 . S
C176 O170 1.261 . S
C177 O172 1.259 . S
C177 O174 1.235 . S
O178 Co168 2.021 . S
O178 C175 1.238 . S
O179 Co173 2.052 . S
O179 C175 1.241 . S
O180 Co168 2.137 . S
O180 C171 1.247 . S
O181 Co168 2.244 . S
O181 C171 1.272 . S
O181 Co173 2.135 . S
Co182 O183 2.216 . S
Co182 O184 2.091 . S
Co182 O186 2.004 . S
Co182 O192 2.021 . S
Co182 O194 2.137 . S
Co182 O195 2.244 . S
O183 Co182 2.216 . S
O183 C190 1.247 . S
O184 Co182 2.091 . S
O184 C190 1.261 . S
C185 O194 1.247 . S
C185 O195 1.272 . S
O186 Co182 2.004 . S
O186 C191 1.259 . S
Co187 O188 2.061 . S
Co187 O193 2.052 . S
Co187 O195 2.135 . S
O188 Co187 2.061 . S
O188 C191 1.235 . S
C189 O192 1.238 . S
C189 O193 1.241 . S
C190 O183 1.247 . S
C190 O184 1.261 . S
C191 O186 1.259 . S
C191 O188 1.235 . S
O192 Co182 2.021 . S
O192 C189 1.238 . S
O193 Co187 2.052 . S
O193 C189 1.241 . S
O194 Co182 2.137 . S
O194 C185 1.247 . S
O195 Co182 2.244 . S
O195 C185 1.272 . S
O195 Co187 2.135 . S
Co196 O197 2.216 . S
Co196 O198 2.091 . S
Co196 O200 2.004 . S
Co196 O206 2.021 . S
Co196 O208 2.137 . S
Co196 O209 2.244 . S
O197 Co196 2.216 . S
O197 C204 1.247 . S
O198 Co196 2.091 . S
O198 C204 1.261 . S
C199 O208 1.247 . S
C199 O209 1.272 . S
O200 Co196 2.004 . S
O200 C205 1.259 . S
Co201 O202 2.061 . S
Co201 O207 2.052 . S
Co201 O209 2.135 . S
O202 Co201 2.061 . S
O202 C205 1.235 . S
C203 O206 1.238 . S
C203 O207 1.241 . S
C204 O197 1.247 . S
C204 O198 1.261 . S
C205 O200 1.259 . S
C205 O202 1.235 . S
O206 Co196 2.021 . S
O206 C203 1.238 . S
O207 Co201 2.052 . S
O207 C203 1.241 . S
O208 Co196 2.137 . S
O208 C199 1.247 . S
O209 Co196 2.244 . S
O209 C199 1.272 . S
O209 Co201 2.135 . S
Co210 O211 2.216 . S
Co210 O212 2.091 . S
Co210 O214 2.004 . S
Co210 O220 2.021 . S
Co210 O222 2.137 . S
Co210 O223 2.244 . S
O211 Co210 2.216 . S
O211 C218 1.247 . S
O212 Co210 2.091 . S
O212 C218 1.261 . S
C213 O222 1.247 . S
C213 O223 1.272 . S
O214 Co210 2.004 . S
O214 C219 1.259 . S
Co215 O216 2.061 . S
Co215 O221 2.052 . S
Co215 O223 2.135 . S
O216 Co215 2.061 . S
O216 C219 1.235 . S
C217 O220 1.238 . S
C217 O221 1.241 . S
C218 O211 1.247 . S
C218 O212 1.261 . S
C219 O214 1.259 . S
C219 O216 1.235 . S
O220 Co210 2.021 . S
O220 C217 1.238 . S
O221 Co215 2.052 . S
O221 C217 1.241 . S
O222 Co210 2.137 . S
O222 C213 1.247 . S
O223 Co210 2.244 . S
O223 C213 1.272 . S
O223 Co215 2.135 . S
C224 C225 1.369 . S
C224 C226 1.419 . S
C224 H228 0.930 . S
C225 C224 1.369 . S
C225 C234 1.429 . S
C226 C224 1.419 . S
C226 C227 1.363 . S
C226 H229 0.929 . S
C227 C226 1.363 . S
C227 C233 1.428 . S
H228 C224 0.930 . S
H229 C226 0.929 . S
S230 N231 1.613 . S
S230 N232 1.610 . S
N231 S230 1.613 . S
N231 C234 1.350 . S
N232 S230 1.610 . S
N232 C233 1.351 . S
C233 C227 1.428 . S
C233 N232 1.351 . S
C233 C234 1.434 . S
C234 C225 1.429 . S
C234 N231 1.350 . S
C234 C233 1.434 . S
C235 C236 1.369 . S
C235 C237 1.419 . S
C235 H239 0.930 . S
C236 C235 1.369 . S
C236 C245 1.429 . S
C237 C235 1.419 . S
C237 C238 1.363 . S
C237 H240 0.929 . S
C238 C237 1.363 . S
C238 C244 1.428 . S
H239 C235 0.930 . S
H240 C237 0.929 . S
S241 N242 1.613 . S
S241 N243 1.610 . S
N242 S241 1.613 . S
N242 C245 1.350 . S
N243 S241 1.610 . S
N243 C244 1.351 . S
C244 C238 1.428 . S
C244 N243 1.351 . S
C244 C245 1.434 . S
C245 C236 1.429 . S
C245 N242 1.350 . S
C245 C244 1.434 . S
C246 C247 1.369 . S
C246 C248 1.419 . S
C246 H250 0.930 . S
C247 C246 1.369 . S
C247 C256 1.429 . S
C248 C246 1.419 . S
C248 C249 1.363 . S
C248 H251 0.929 . S
C249 C248 1.363 . S
C249 C255 1.428 . S
H250 C246 0.930 . S
H251 C248 0.929 . S
S252 N253 1.613 . S
S252 N254 1.610 . S
N253 S252 1.613 . S
N253 C256 1.350 . S
N254 S252 1.610 . S
N254 C255 1.351 . S
C255 C249 1.428 . S
C255 N254 1.351 . S
C255 C256 1.434 . S
C256 C247 1.429 . S
C256 N253 1.350 . S
C256 C255 1.434 . S
C257 C258 1.369 . S
C257 C259 1.419 . S
C257 H261 0.930 . S
C258 C257 1.369 . S
C258 C267 1.429 . S
C259 C257 1.419 . S
C259 C260 1.363 . S
C259 H262 0.929 . S
C260 C259 1.363 . S
C260 C266 1.428 . S
H261 C257 0.930 . S
H262 C259 0.929 . S
S263 N264 1.613 . S
S263 N265 1.610 . S
N264 S263 1.613 . S
N264 C267 1.350 . S
N265 S263 1.610 . S
N265 C266 1.351 . S
C266 C260 1.428 . S
C266 N265 1.351 . S
C266 C267 1.434 . S
C267 C258 1.429 . S
C267 N264 1.350 . S
C267 C266 1.434 . S
C268 C269 1.369 . S
C268 C270 1.419 . S
C268 H272 0.930 . S
C269 C268 1.369 . S
C269 C278 1.429 1_554 S
C270 C268 1.419 . S
C270 C271 1.363 1_554 S
C270 H273 0.929 . S
C271 C270 1.363 1_556 S
C271 C277 1.428 . S
H272 C268 0.930 . S
H273 C270 0.929 . S
S274 N275 1.613 . S
S274 N276 1.610 . S
N275 S274 1.613 . S
N275 C278 1.350 . S
N276 S274 1.610 . S
N276 C277 1.351 . S
C277 C271 1.428 . S
C277 N276 1.351 . S
C277 C278 1.434 . S
C278 C269 1.429 1_556 S
C278 N275 1.350 . S
C278 C277 1.434 . S
C279 C280 1.369 . S
C279 C281 1.419 1_554 S
C279 H283 0.930 . S
C280 C279 1.369 . S
C280 C289 1.429 1_554 S
C281 C279 1.419 1_556 S
C281 C282 1.363 . S
C281 H284 0.923 1_556 S
C282 C281 1.363 . S
C282 C288 1.428 . S
H283 C279 0.930 . S
H284 C281 0.923 1_554 S
S285 N286 1.613 . S
S285 N287 1.610 . S
N286 S285 1.613 . S
N286 C289 1.350 . S
N287 S285 1.610 . S
N287 C288 1.351 . S
C288 C282 1.428 . S
C288 N287 1.351 . S
C288 C289 1.434 . S
C289 C280 1.429 1_556 S
C289 N286 1.350 . S
C289 C288 1.434 . S
C290 C291 1.369 1_554 S
C290 C292 1.419 . S
C290 H294 0.930 . S
C291 C290 1.369 1_556 S
C291 C300 1.429 . S
C292 C290 1.419 . S
C292 C293 1.363 . S
C292 H295 0.929 . S
C293 C292 1.363 . S
C293 C299 1.428 . S
H294 C290 0.930 . S
H295 C292 0.929 . S
S296 N297 1.613 . S
S296 N298 1.610 . S
N297 S296 1.613 . S
N297 C300 1.350 . S
N298 S296 1.610 . S
N298 C299 1.351 1_556 S
C299 C293 1.428 . S
C299 N298 1.351 1_554 S
C299 C300 1.434 1_554 S
C300 C291 1.429 . S
C300 N297 1.350 . S
C300 C299 1.434 1_556 S
C301 C302 1.369 . S
C301 C303 1.419 1_554 S
C301 H305 0.930 . S
C302 C301 1.369 . S
C302 C311 1.429 1_554 S
C303 C301 1.419 1_556 S
C303 C304 1.363 . S
C303 H306 0.929 . S
C304 C303 1.363 . S
C304 C310 1.428 . S
H305 C301 0.930 . S
H306 C303 0.929 . S
S307 N308 1.613 . S
S307 N309 1.610 . S
N308 S307 1.613 . S
N308 C311 1.350 . S
N309 S307 1.610 . S
N309 C310 1.351 . S
C310 C304 1.428 . S
C310 N309 1.351 . S
C310 C311 1.434 . S
C311 C302 1.429 1_556 S
C311 N308 1.350 . S
C311 C310 1.434 . S
C312 C313 1.369 . S
C312 C314 1.419 . S
C312 H316 0.930 . S
C313 C312 1.369 . S
C313 C322 1.429 . S
C314 C312 1.419 . S
C314 C315 1.363 . S
C314 H317 0.929 . S
C315 C314 1.363 . S
C315 C321 1.428 . S
H316 C312 0.930 . S
H317 C314 0.929 . S
S318 N319 1.613 . S
S318 N320 1.610 . S
N319 S318 1.613 . S
N319 C322 1.350 . S
N320 S318 1.610 . S
N320 C321 1.351 . S
C321 C315 1.428 . S
C321 N320 1.351 . S
C321 C322 1.434 . S
C322 C313 1.429 . S
C322 N319 1.350 . S
C322 C321 1.434 . S
C323 C324 1.369 . S
C323 C325 1.419 . S
C323 H327 0.930 . S
C324 C323 1.369 . S
C324 C333 1.429 . S
C325 C323 1.419 . S
C325 C326 1.363 . S
C325 H328 0.929 . S
C326 C325 1.363 . S
C326 C332 1.428 . S
H327 C323 0.930 . S
H328 C325 0.929 . S
S329 N330 1.613 . S
S329 N331 1.610 . S
N330 S329 1.613 . S
N330 C333 1.350 . S
N331 S329 1.610 . S
N331 C332 1.351 . S
C332 C326 1.428 . S
C332 N331 1.351 . S
C332 C333 1.434 . S
C333 C324 1.429 . S
C333 N330 1.350 . S
C333 C332 1.434 . S
C334 C335 1.369 . S
C334 C336 1.419 . S
C334 H338 0.930 . S
C335 C334 1.369 . S
C335 C344 1.429 . S
C336 C334 1.419 . S
C336 C337 1.363 . S
C336 H339 0.929 . S
C337 C336 1.363 . S
C337 C343 1.428 . S
H338 C334 0.930 . S
H339 C336 0.929 . S
S340 N341 1.613 . S
S340 N342 1.610 . S
N341 S340 1.613 . S
N341 C344 1.350 . S
N342 S340 1.610 . S
N342 C343 1.351 . S
C343 C337 1.428 . S
C343 N342 1.351 . S
C343 C344 1.434 . S
C344 C335 1.429 . S
C344 N341 1.350 . S
C344 C343 1.434 . S
C345 C346 1.369 . S
C345 C347 1.419 . S
C345 H349 0.930 . S
C346 C345 1.369 . S
C346 C355 1.429 . S
C347 C345 1.419 . S
C347 C348 1.363 . S
C347 H350 0.929 . S
C348 C347 1.363 . S
C348 C354 1.428 . S
H349 C345 0.930 . S
H350 C347 0.929 . S
S351 N352 1.613 . S
S351 N353 1.610 . S
N352 S351 1.613 . S
N352 C355 1.350 . S
N353 S351 1.610 . S
N353 C354 1.351 . S
C354 C348 1.428 . S
C354 N353 1.351 . S
C354 C355 1.434 . S
C355 C346 1.429 . S
C355 N352 1.350 . S
C355 C354 1.434 . S
C356 C357 1.369 . S
C356 C358 1.419 . S
C356 H360 0.930 . S
C357 C356 1.369 . S
C357 C366 1.429 . S
C358 C356 1.419 . S
C358 C359 1.363 . S
C358 H361 0.929 . S
C359 C358 1.363 . S
C359 C365 1.428 . S
H360 C356 0.930 . S
H361 C358 0.929 . S
S362 N363 1.613 . S
S362 N364 1.610 . S
N363 S362 1.613 . S
N363 C366 1.350 . S
N364 S362 1.610 . S
N364 C365 1.351 . S
C365 C359 1.428 . S
C365 N364 1.351 . S
C365 C366 1.434 . S
C366 C357 1.429 . S
C366 N363 1.350 . S
C366 C365 1.434 . S
C367 C368 1.369 . S
C367 C369 1.419 . S
C367 H371 0.930 . S
C368 C367 1.369 . S
C368 C377 1.429 . S
C369 C367 1.419 . S
C369 C370 1.363 . S
C369 H372 0.929 . S
C370 C369 1.363 . S
C370 C376 1.428 . S
H371 C367 0.930 . S
H372 C369 0.929 . S
S373 N374 1.613 . S
S373 N375 1.610 . S
N374 S373 1.613 . S
N374 C377 1.350 . S
N375 S373 1.610 . S
N375 C376 1.351 . S
C376 C370 1.428 . S
C376 N375 1.351 . S
C376 C377 1.434 . S
C377 C368 1.429 . S
C377 N374 1.350 . S
C377 C376 1.434 . S
C378 C379 1.369 . S
C378 C380 1.419 . S
C378 H382 0.930 . S
C379 C378 1.369 . S
C379 C388 1.429 . S
C380 C378 1.419 . S
C380 C381 1.363 . S
C380 H383 0.929 . S
C381 C380 1.363 . S
C381 C387 1.428 . S
H382 C378 0.930 . S
H383 C380 0.929 . S
S384 N385 1.613 . S
S384 N386 1.610 . S
N385 S384 1.613 . S
N385 C388 1.350 . S
N386 S384 1.610 . S
N386 C387 1.351 . S
C387 C381 1.428 . S
C387 N386 1.351 . S
C387 C388 1.434 . S
C388 C379 1.429 . S
C388 N385 1.350 . S
C388 C387 1.434 . S
C389 C390 1.369 . S
C389 C391 1.419 . S
C389 H393 0.930 . S
C390 C389 1.369 . S
C390 C399 1.429 . S
C391 C389 1.419 . S
C391 C392 1.363 . S
C391 H394 0.929 . S
C392 C391 1.363 . S
C392 C398 1.428 . S
H393 C389 0.930 . S
H394 C391 0.929 . S
S395 N396 1.613 . S
S395 N397 1.610 . S
N396 S395 1.613 . S
N396 C399 1.350 . S
N397 S395 1.610 . S
N397 C398 1.351 . S
C398 C392 1.428 . S
C398 N397 1.351 . S
C398 C399 1.434 . S
C399 C390 1.429 . S
C399 N396 1.350 . S
C399 C398 1.434 . S
C400 C401 1.369 . S
C400 C402 1.419 . S
C400 H404 0.930 . S
C401 C400 1.369 . S
C401 C410 1.429 . S
C402 C400 1.419 . S
C402 C403 1.363 . S
C402 H405 0.929 . S
C403 C402 1.363 . S
C403 C409 1.428 . S
H404 C400 0.930 . S
H405 C402 0.929 . S
S406 N407 1.613 . S
S406 N408 1.610 . S
N407 S406 1.613 . S
N407 C410 1.350 . S
N408 S406 1.610 . S
N408 C409 1.351 . S
C409 C403 1.428 . S
C409 N408 1.351 . S
C409 C410 1.434 . S
C410 C401 1.429 . S
C410 N407 1.350 . S
C410 C409 1.434 . S
C411 C412 1.369 . S
C411 C413 1.419 . S
C411 H415 0.930 . S
C412 C411 1.369 . S
C412 C421 1.429 . S
C413 C411 1.419 . S
C413 C414 1.363 . S
C413 H416 0.929 . S
C414 C413 1.363 . S
C414 C420 1.428 . S
H415 C411 0.930 . S
H416 C413 0.929 . S
S417 N418 1.613 . S
S417 N419 1.610 . S
N418 S417 1.613 . S
N418 C421 1.350 . S
N419 S417 1.610 . S
N419 C420 1.351 . S
C420 C414 1.428 . S
C420 N419 1.351 . S
C420 C421 1.434 . S
C421 C412 1.429 . S
C421 N418 1.350 . S
C421 C420 1.434 . S
C422 C423 1.369 . S
C422 C424 1.419 . S
C422 H426 0.930 . S
C423 C422 1.369 . S
C423 C432 1.429 . S
C424 C422 1.419 . S
C424 C425 1.363 . S
C424 H427 0.929 . S
C425 C424 1.363 . S
C425 C431 1.428 . S
H426 C422 0.930 . S
H427 C424 0.929 . S
S428 N429 1.613 . S
S428 N430 1.610 . S
N429 S428 1.613 . S
N429 C432 1.350 . S
N430 S428 1.610 . S
N430 C431 1.351 . S
C431 C425 1.428 . S
C431 N430 1.351 . S
C431 C432 1.434 . S
C432 C423 1.429 . S
C432 N429 1.350 . S
C432 C431 1.434 . S
C433 C434 1.369 . S
C433 C435 1.419 . S
C433 H437 0.930 . S
C434 C433 1.369 . S
C434 C443 1.429 . S
C435 C433 1.419 . S
C435 C436 1.363 . S
C435 H438 0.929 . S
C436 C435 1.363 . S
C436 C442 1.428 . S
H437 C433 0.930 . S
H438 C435 0.929 . S
S439 N440 1.613 . S
S439 N441 1.610 . S
N440 S439 1.613 . S
N440 C443 1.350 . S
N441 S439 1.610 . S
N441 C442 1.351 . S
C442 C436 1.428 . S
C442 N441 1.351 . S
C442 C443 1.434 . S
C443 C434 1.429 . S
C443 N440 1.350 . S
C443 C442 1.434 . S
C444 C445 1.369 . S
C444 C446 1.419 . S
C444 H448 0.930 . S
C445 C444 1.369 . S
C445 C454 1.429 . S
C446 C444 1.419 . S
C446 C447 1.363 . S
C446 H449 0.929 . S
C447 C446 1.363 . S
C447 C453 1.428 . S
H448 C444 0.930 . S
H449 C446 0.929 . S
S450 N451 1.613 . S
S450 N452 1.610 . S
N451 S450 1.613 . S
N451 C454 1.350 . S
N452 S450 1.610 . S
N452 C453 1.351 . S
C453 C447 1.428 . S
C453 N452 1.351 . S
C453 C454 1.434 . S
C454 C445 1.429 . S
C454 N451 1.350 . S
C454 C453 1.434 . S
C455 C456 1.369 . S
C455 C457 1.419 . S
C455 H459 0.930 . S
C456 C455 1.369 . S
C456 C465 1.429 . S
C457 C455 1.419 . S
C457 C458 1.363 . S
C457 H460 0.929 . S
C458 C457 1.363 . S
C458 C464 1.428 . S
H459 C455 0.930 . S
H460 C457 0.929 . S
S461 N462 1.613 . S
S461 N463 1.610 . S
N462 S461 1.613 . S
N462 C465 1.350 . S
N463 S461 1.610 . S
N463 C464 1.351 . S
C464 C458 1.428 . S
C464 N463 1.351 . S
C464 C465 1.434 . S
C465 C456 1.429 . S
C465 N462 1.350 . S
C465 C464 1.434 . S
C466 C467 1.369 . S
C466 C468 1.419 . S
C466 H470 0.930 . S
C467 C466 1.369 . S
C467 C476 1.429 . S
C468 C466 1.419 . S
C468 C469 1.363 . S
C468 H471 0.929 . S
C469 C468 1.363 . S
C469 C475 1.428 . S
H470 C466 0.930 . S
H471 C468 0.929 . S
S472 N473 1.613 . S
S472 N474 1.610 . S
N473 S472 1.613 . S
N473 C476 1.350 . S
N474 S472 1.610 . S
N474 C475 1.351 . S
C475 C469 1.428 . S
C475 N474 1.351 . S
C475 C476 1.434 . S
C476 C467 1.429 . S
C476 N473 1.350 . S
C476 C475 1.434 . S
C477 C478 1.369 . S
C477 C479 1.419 . S
C477 H481 0.930 . S
C478 C477 1.369 . S
C478 C487 1.429 . S
C479 C477 1.419 . S
C479 C480 1.363 . S
C479 H482 0.929 . S
C480 C479 1.363 . S
C480 C486 1.428 . S
H481 C477 0.930 . S
H482 C479 0.929 . S
S483 N484 1.613 . S
S483 N485 1.610 . S
N484 S483 1.613 . S
N484 C487 1.350 . S
N485 S483 1.610 . S
N485 C486 1.351 . S
C486 C480 1.428 . S
C486 N485 1.351 . S
C486 C487 1.434 . S
C487 C478 1.429 . S
C487 N484 1.350 . S
C487 C486 1.434 . S
C488 C489 1.369 1_545 S
C488 C490 1.419 . S
C488 H492 0.930 . S
C489 C488 1.369 1_565 S
C489 C498 1.429 1_655 S
C490 C488 1.419 . S
C490 C491 1.363 1_655 S
C490 H493 0.929 . S
C491 C490 1.363 1_455 S
C491 C497 1.428 1_545 S
H492 C488 0.930 . S
H493 C490 0.929 . S
S494 N495 1.613 . S
S494 N496 1.610 . S
N495 S494 1.613 . S
N495 C498 1.350 . S
N496 S494 1.610 . S
N496 C497 1.351 . S
C497 C491 1.428 1_565 S
C497 N496 1.351 . S
C497 C498 1.434 . S
C498 C489 1.429 1_455 S
C498 N495 1.350 . S
C498 C497 1.434 . S
C499 C500 1.370 1_565 S
C499 C501 1.417 1_655 S
C499 H503 0.930 . S
C500 C499 1.370 1_545 S
C500 C509 1.429 1_655 S
C501 C499 1.417 1_455 S
C501 C502 1.363 . S
C501 H504 0.929 . S
C502 C501 1.363 . S
C502 C508 1.428 1_565 S
H503 C499 0.930 . S
H504 C501 0.929 . S
S505 N506 1.613 . S
S505 N507 1.610 . S
N506 S505 1.613 . S
N506 C509 1.350 . S
N507 S505 1.610 . S
N507 C508 1.351 . S
C508 C502 1.428 1_545 S
C508 N507 1.351 . S
C508 C509 1.434 . S
C509 C500 1.429 1_455 S
C509 N506 1.350 . S
C509 C508 1.434 . S
C510 C511 1.369 . S
C510 C512 1.419 1_455 S
C510 H514 0.930 . S
C511 C510 1.369 . S
C511 C520 1.429 . S
C512 C510 1.419 1_655 S
C512 C513 1.363 . S
C512 H515 0.929 . S
C513 C512 1.363 . S
C513 C519 1.428 . S
H514 C510 0.930 . S
H515 C512 0.929 . S
S516 N517 1.613 1_655 S
S516 N518 1.610 . S
N517 S516 1.613 1_455 S
N517 C520 1.350 1_554 S
N518 S516 1.610 . S
N518 C519 1.351 1_554 S
C519 C513 1.428 . S
C519 N518 1.351 1_556 S
C519 C520 1.434 1_655 S
C520 C511 1.429 . S
C520 N517 1.350 1_556 S
C520 C519 1.434 1_455 S
C521 C522 1.369 . S
C521 C523 1.419 . S
C521 H525 0.930 . S
C522 C521 1.369 . S
C522 C531 1.429 1_565 S
C523 C521 1.419 . S
C523 C524 1.363 1_565 S
C523 H526 0.929 . S
C524 C523 1.363 1_545 S
C524 C530 1.428 . S
H525 C521 0.930 . S
H526 C523 0.929 . S
S527 N528 1.613 . S
S527 N529 1.610 . S
N528 S527 1.613 . S
N528 C531 1.350 . S
N529 S527 1.610 . S
N529 C530 1.351 . S
C530 C524 1.428 . S
C530 N529 1.351 . S
C530 C531 1.434 . S
C531 C522 1.429 1_545 S
C531 N528 1.350 . S
C531 C530 1.434 . S
C532 C533 1.369 . S
C532 C534 1.419 . S
C532 H536 0.930 . S
C533 C532 1.369 . S
C533 C542 1.429 . S
C534 C532 1.419 . S
C534 C535 1.363 . S
C534 H537 0.929 . S
C535 C534 1.363 . S
C535 C541 1.428 . S
H536 C532 0.930 . S
H537 C534 0.929 . S
S538 N539 1.613 . S
S538 N540 1.610 . S
N539 S538 1.613 . S
N539 C542 1.350 . S
N540 S538 1.610 . S
N540 C541 1.351 . S
C541 C535 1.428 . S
C541 N540 1.351 . S
C541 C542 1.434 . S
C542 C533 1.429 . S
C542 N539 1.350 . S
C542 C541 1.434 . S
C543 C544 1.369 . S
C543 C545 1.419 . S
C543 H547 0.930 . S
C544 C543 1.369 . S
C544 C553 1.429 . S
C545 C543 1.419 . S
C545 C546 1.363 . S
C545 H548 0.929 . S
C546 C545 1.363 . S
C546 C552 1.428 . S
H547 C543 0.930 . S
H548 C545 0.929 . S
S549 N550 1.613 . S
S549 N551 1.610 . S
N550 S549 1.613 . S
N550 C553 1.350 . S
N551 S549 1.610 . S
N551 C552 1.351 . S
C552 C546 1.428 . S
C552 N551 1.351 . S
C552 C553 1.434 . S
C553 C544 1.429 . S
C553 N550 1.350 . S
C553 C552 1.434 . S
C554 C555 1.369 . S
C554 C556 1.419 1_545 S
C554 H558 0.930 . S
C555 C554 1.369 . S
C555 C564 1.429 . S
C556 C554 1.419 1_565 S
C556 C557 1.363 . S
C556 H559 0.929 . S
C557 C556 1.363 . S
C557 C563 1.428 . S
H558 C554 0.930 . S
H559 C556 0.929 . S
S560 N561 1.613 1_565 S
S560 N562 1.610 . S
N561 S560 1.613 1_545 S
N561 C564 1.350 . S
N562 S560 1.610 . S
N562 C563 1.351 . S
C563 C557 1.428 . S
C563 N562 1.351 . S
C563 C564 1.434 1_565 S
C564 C555 1.429 . S
C564 N561 1.350 . S
C564 C563 1.434 1_545 S
C565 C566 1.369 . S
C565 C567 1.419 . S
C565 H569 0.930 . S
C566 C565 1.369 . S
C566 C575 1.429 1_655 S
C567 C565 1.419 . S
C567 C568 1.363 1_655 S
C567 H570 0.929 . S
C568 C567 1.363 1_455 S
C568 C574 1.428 . S
H569 C565 0.930 . S
H570 C567 0.929 . S
S571 N572 1.613 . S
S571 N573 1.610 . S
N572 S571 1.613 . S
N572 C575 1.350 . S
N573 S571 1.610 . S
N573 C574 1.351 . S
C574 C568 1.428 . S
C574 N573 1.351 . S
C574 C575 1.434 . S
C575 C566 1.429 1_455 S
C575 N572 1.350 . S
C575 C574 1.434 . S
C225 C3 1.282 . S
C227 C163 1.294 . S
C236 C121 1.297 . S
C238 C17 1.283 . S
C247 C135 1.293 . S
C249 C31 1.275 . S
C258 C149 1.298 . S
C260 C45 1.282 . S
C269 C79 1.292 . S
C271 C59 1.279 . S
C280 C73 1.275 . S
C282 C93 1.297 . S
C291 C87 1.278 . S
C293 C107 1.292 . S
C302 C101 1.284 . S
C304 C65 1.297 . S
C313 C115 1.283 . S
C315 C51 1.298 . S
C324 C9 1.299 . S
C326 C129 1.278 . S
C335 C23 1.296 . S
C337 C143 1.275 . S
C346 C37 1.295 . S
C348 C157 1.275 . S
C357 C191 1.298 . S
C359 C171 1.282 . S
C368 C185 1.277 . S
C370 C205 1.292 . S
C379 C219 1.298 . S
C381 C199 1.282 . S
C390 C177 1.293 . S
C392 C213 1.281 . S
C401 C204 1.580 . S
C403 C8 1.582 . S
C412 C218 1.581 . S
C414 C22 1.581 . S
C423 C176 1.581 . S
C425 C36 1.581 . S
C434 C50 1.582 . S
C436 C190 1.580 . S
C445 C64 1.581 . S
C447 C148 1.581 . S
C456 C162 1.582 . S
C458 C78 1.578 . S
C467 C92 1.578 . S
C469 C120 1.582 . S
C478 C106 1.579 . S
C480 C134 1.582 . S
C489 C35 1.334 . S
C491 C7 1.344 . S
C500 C49 1.344 . S
C502 C21 1.335 . S
C511 C63 1.334 . S
C513 C91 1.341 . S
C522 C77 1.333 . S
C524 C105 1.344 . S
C533 C147 1.340 . S
C535 C119 1.343 . S
C544 C133 1.345 . S
C546 C161 1.338 . S
C555 C203 1.336 . S
C557 C175 1.338 . S
C566 C189 1.345 . S
C568 C217 1.335 . S
