# Generated by pormake.
# Topology lig, (3)-cn, num edge types: 1
# Building blocks:
#     Node 0, Type 0, BuildingBlock: OLANEW_clean_sbu_2, # of connection points: 3
#     Node 1, Type 0, BuildingBlock: OLANEW_clean_sbu_2, # of connection points: 3
#     Node 2, Type 0, BuildingBlock: OLANEW_clean_sbu_2, # of connection points: 3
#     Node 3, Type 0, BuildingBlock: OLANEW_clean_sbu_2, # of connection points: 3
#     Node 4, Type 0, BuildingBlock: OLANEW_clean_sbu_2, # of connection points: 3
#     Node 5, Type 0, BuildingBlock: OLANEW_clean_sbu_2, # of connection points: 3
#     Node 6, Type 0, BuildingBlock: OLANEW_clean_sbu_2, # of connection points: 3
#     Node 7, Type 0, BuildingBlock: OLANEW_clean_sbu_2, # of connection points: 3
#     Node 8, Type 0, BuildingBlock: OLANEW_clean_sbu_2, # of connection points: 3
#     Node 9, Type 0, BuildingBlock: OLANEW_clean_sbu_2, # of connection points: 3
#     Node 10, Type 0, BuildingBlock: OLANEW_clean_sbu_2, # of connection points: 3
#     Node 11, Type 0, BuildingBlock: OLANEW_clean_sbu_2, # of connection points: 3
#     Node 12, Type 0, BuildingBlock: OLANEW_clean_sbu_2, # of connection points: 3
#     Node 13, Type 0, BuildingBlock: OLANEW_clean_sbu_2, # of connection points: 3
#     Node 14, Type 0, BuildingBlock: OLANEW_clean_sbu_2, # of connection points: 3
#     Node 15, Type 0, BuildingBlock: OLANEW_clean_sbu_2, # of connection points: 3
#     Edge 16, Type (0, 0), BuildingBlock: UVAHIK_clean_linker_0, # of connection points: 2
#     Edge 17, Type (0, 0), BuildingBlock: UVAHIK_clean_linker_0, # of connection points: 2
#     Edge 18, Type (0, 0), BuildingBlock: UVAHIK_clean_linker_0, # of connection points: 2
#     Edge 19, Type (0, 0), BuildingBlock: UVAHIK_clean_linker_0, # of connection points: 2
#     Edge 20, Type (0, 0), BuildingBlock: UVAHIK_clean_linker_0, # of connection points: 2
#     Edge 21, Type (0, 0), BuildingBlock: UVAHIK_clean_linker_0, # of connection points: 2
#     Edge 22, Type (0, 0), BuildingBlock: UVAHIK_clean_linker_0, # of connection points: 2
#     Edge 23, Type (0, 0), BuildingBlock: UVAHIK_clean_linker_0, # of connection points: 2
#     Edge 24, Type (0, 0), BuildingBlock: UVAHIK_clean_linker_0, # of connection points: 2
#     Edge 25, Type (0, 0), BuildingBlock: UVAHIK_clean_linker_0, # of connection points: 2
#     Edge 26, Type (0, 0), BuildingBlock: UVAHIK_clean_linker_0, # of connection points: 2
#     Edge 27, Type (0, 0), BuildingBlock: UVAHIK_clean_linker_0, # of connection points: 2
#     Edge 28, Type (0, 0), BuildingBlock: UVAHIK_clean_linker_0, # of connection points: 2
#     Edge 29, Type (0, 0), BuildingBlock: UVAHIK_clean_linker_0, # of connection points: 2
#     Edge 30, Type (0, 0), BuildingBlock: UVAHIK_clean_linker_0, # of connection points: 2
#     Edge 31, Type (0, 0), BuildingBlock: UVAHIK_clean_linker_0, # of connection points: 2
#     Edge 32, Type (0, 0), BuildingBlock: UVAHIK_clean_linker_0, # of connection points: 2
#     Edge 33, Type (0, 0), BuildingBlock: UVAHIK_clean_linker_0, # of connection points: 2
#     Edge 34, Type (0, 0), BuildingBlock: UVAHIK_clean_linker_0, # of connection points: 2
#     Edge 35, Type (0, 0), BuildingBlock: UVAHIK_clean_linker_0, # of connection points: 2
#     Edge 36, Type (0, 0), BuildingBlock: UVAHIK_clean_linker_0, # of connection points: 2
#     Edge 37, Type (0, 0), BuildingBlock: UVAHIK_clean_linker_0, # of connection points: 2
#     Edge 38, Type (0, 0), BuildingBlock: UVAHIK_clean_linker_0, # of connection points: 2
#     Edge 39, Type (0, 0), BuildingBlock: UVAHIK_clean_linker_0, # of connection points: 2
# Relax obj value: 0.021
# Max RMSD: 0.112
# Mean RMSD: 0.090
data_MOF--net-lig--node1-OLANEW_clean_sbu_2--edge1-UVAHIK_clean_linker_0
_symmetry_space_group_name_H-M    P1
_symmetry_Int_Tables_number       1
_symmetry_cell_setting            triclinic
loop_
_symmetry_equiv_pos_as_xyz
'x, y, z'
_cell_length_a     72.838634
_cell_length_b     64.262295
_cell_length_c     71.372609
_cell_angle_alpha  90.028057
_cell_angle_beta   89.968998
_cell_angle_gamma 113.67716
loop_
_atom_site_label
_atom_site_type_symbol
_atom_site_fract_x
_atom_site_fract_y
_atom_site_fract_z
_atom_type_partial_charge
O0 O 0.1234 0.04756 0.06683 0.0
Cd1 Cd 0.0957 0.02958 0.08872 0.0
O2 O 0.12994 0.08211 0.07704 0.0
Cd3 Cd 0.10248 0.07089 0.09361 0.0
O4 O 0.071 0.0647 0.09762 0.0
C5 C 0.05832 0.05125 0.08627 0.0
O6 O 0.06457 0.04078 0.07357 0.0
C7 C 0.13425 0.06878 0.06647 0.0
C8 C 0.10988 0.01909 0.12209 0.0
O9 O 0.10431 0.00486 0.10849 0.0
O10 O 0.1085 0.03821 0.11998 0.0
O11 O 0.23783 0.90854 0.31151 0.0
Cd12 Cd 0.22561 0.93882 0.31327 0.0
O13 O 0.25767 0.92427 0.28764 0.0
Cd14 Cd 0.2464 0.9507 0.28377 0.0
O15 O 0.23045 0.96864 0.26977 0.0
C16 C 0.21151 0.96128 0.27132 0.0
O17 O 0.20211 0.94377 0.28227 0.0
C18 C 0.25097 0.90851 0.29977 0.0
C19 C 0.23858 0.96373 0.34617 0.0
O20 O 0.22157 0.94676 0.34541 0.0
O21 O 0.24934 0.96905 0.33129 0.0
O22 O 0.3742 0.05934 0.57136 0.0
Cd23 Cd 0.34413 0.06595 0.56427 0.0
O24 O 0.39389 0.08749 0.55368 0.0
Cd25 Cd 0.36857 0.09275 0.54171 0.0
O26 O 0.34467 0.08237 0.52089 0.0
C27 C 0.33797 0.06146 0.51651 0.0
O28 O 0.34514 0.04833 0.52524 0.0
C29 C 0.3916 0.07145 0.5651 0.0
C30 C 0.32848 0.07778 0.59624 0.0
O31 O 0.32263 0.05698 0.59112 0.0
O32 O 0.34175 0.093 0.58621 0.0
O33 O 0.23553 0.17921 0.80304 0.0
Cd34 Cd 0.22372 0.13962 0.79292 0.0
O35 O 0.24082 0.16747 0.83047 0.0
Cd36 Cd 0.24683 0.17018 0.86059 0.0
O37 O 0.24425 0.16475 0.89082 0.0
C38 C 0.24036 0.14483 0.89689 0.0
O39 O 0.23891 0.12879 0.88483 0.0
C40 C 0.24122 0.18361 0.81995 0.0
C41 C 0.24266 0.13346 0.76072 0.0
O42 O 0.22656 0.13696 0.75967 0.0
O43 O 0.24993 0.13315 0.77702 0.0
O44 O 0.88304 0.1005 0.03407 0.0
Cd45 Cd 0.85723 0.11433 0.02666 0.0
O46 O 0.86918 0.09041 0.0616 0.0
Cd47 Cd 0.86563 0.07847 0.09057 0.0
O48 O 0.85604 0.06562 0.11873 0.0
C49 C 0.86782 0.07199 0.13269 0.0
O50 O 0.88643 0.08649 0.13007 0.0
C51 C 0.88297 0.09184 0.05007 0.0
C52 C 0.85499 0.12089 0.98832 0.0
O53 O 0.86748 0.13643 0.99869 0.0
O54 O 0.84353 0.10219 0.9961 0.0
O55 O 0.81355 0.22195 0.77025 0.0
Cd56 Cd 0.81856 0.18722 0.76373 0.0
O57 O 0.78299 0.20394 0.78125 0.0
Cd58 Cd 0.78064 0.17096 0.77114 0.0
O59 O 0.7704 0.14134 0.75279 0.0
C60 C 0.77877 0.14274 0.73693 0.0
O61 O 0.79423 0.16151 0.73263 0.0
C62 C 0.798 0.22243 0.778 0.0
C63 C 0.82761 0.17086 0.7971 0.0
O64 O 0.8414 0.18571 0.78727 0.0
O65 O 0.80959 0.16335 0.79092 0.0
O66 O 0.64271 0.03231 0.58296 0.0
Cd67 Cd 0.6156 0.0261 0.56058 0.0
O68 O 0.62363 0.00979 0.60479 0.0
Cd69 Cd 0.5963 0.00439 0.58934 0.0
O70 O 0.56962 0.00979 0.58154 0.0
C71 C 0.55382 0.00072 0.59134 0.0
O72 O 0.55367 0.9873 0.60527 0.0
C73 C 0.64089 0.02299 0.59897 0.0
C74 C 0.6249 0.01164 0.52643 0.0
O75 O 0.63071 0.03284 0.53014 0.0
O76 O 0.61442 0.99729 0.53876 0.0
O77 O 0.78673 0.9263 0.34863 0.0
Cd78 Cd 0.78097 0.96118 0.34956 0.0
O79 O 0.75456 0.90411 0.3492 0.0
Cd80 Cd 0.7446 0.93148 0.35396 0.0
O81 O 0.72781 0.94779 0.36892 0.0
C82 C 0.7108 0.93452 0.37523 0.0
O83 O 0.70439 0.91268 0.37162 0.0
C84 C 0.77273 0.90652 0.34814 0.0
C85 C 0.7939 0.98408 0.3158 0.0
O86 O 0.80578 0.98807 0.32984 0.0
O87 O 0.77577 0.96964 0.31789 0.0
O88 O 0.6169 0.5148 0.55267 0.0
Cd89 Cd 0.58969 0.50089 0.57557 0.0
O90 O 0.62926 0.54846 0.56609 0.0
Cd91 Cd 0.60144 0.54314 0.58083 0.0
O92 O 0.57317 0.54672 0.58528 0.0
C93 C 0.55646 0.52994 0.58752 0.0
O94 O 0.55598 0.5093 0.58814 0.0
C95 C 0.63088 0.5345 0.55424 0.0
C96 C 0.60537 0.4926 0.60906 0.0
O97 O 0.59737 0.47675 0.59698 0.0
O98 O 0.60545 0.51218 0.60553 0.0
O99 O 0.74668 0.42433 0.79875 0.0
Cd100 Cd 0.73694 0.4565 0.80076 0.0
O101 O 0.7752 0.4445 0.78472 0.0
Cd102 Cd 0.76432 0.47053 0.77752 0.0
O103 O 0.74313 0.47928 0.76114 0.0
C104 C 0.72864 0.46226 0.75438 0.0
O105 O 0.72753 0.44178 0.75818 0.0
C106 C 0.76364 0.42612 0.79255 0.0
C107 C 0.75199 0.47867 0.83448 0.0
O108 O 0.73403 0.46354 0.83332 0.0
O109 O 0.76264 0.48384 0.81953 0.0
O110 O 0.84406 0.48266 0.1098 0.0
Cd111 Cd 0.81121 0.47992 0.12017 0.0
O112 O 0.84141 0.49923 0.08378 0.0
Cd113 Cd 0.84834 0.5116 0.055 0.0
O114 O 0.84316 0.51785 0.0258 0.0
C115 C 0.82519 0.51428 0.02158 0.0
O116 O 0.81151 0.50769 0.03483 0.0
C117 C 0.85127 0.49116 0.09401 0.0
C118 C 0.81275 0.507 0.15113 0.0
O119 O 0.8133 0.48744 0.15311 0.0
O120 O 0.8117 0.51391 0.13448 0.0
O121 O 0.78763 0.68286 0.34307 0.0
Cd122 Cd 0.77792 0.64201 0.34659 0.0
O123 O 0.80286 0.69145 0.37035 0.0
Cd124 Cd 0.79409 0.6562 0.37899 0.0
O125 O 0.77811 0.6299 0.39944 0.0
C126 C 0.78272 0.63514 0.41648 0.0
O127 O 0.79738 0.65481 0.42028 0.0
C128 C 0.79759 0.69768 0.3551 0.0
C129 C 0.78691 0.623 0.31464 0.0
O130 O 0.77074 0.62633 0.31572 0.0
O131 O 0.79887 0.62864 0.32869 0.0
O132 O 0.38181 0.58345 0.53868 0.0
Cd133 Cd 0.35575 0.59677 0.53074 0.0
O134 O 0.36955 0.57736 0.56712 0.0
Cd135 Cd 0.36679 0.56563 0.59617 0.0
O136 O 0.36364 0.55555 0.62558 0.0
C137 C 0.37745 0.55181 0.63388 0.0
O138 O 0.39361 0.55394 0.62446 0.0
C139 C 0.38266 0.57716 0.55541 0.0
C140 C 0.35286 0.60297 0.49238 0.0
O141 O 0.36544 0.61866 0.50256 0.0
O142 O 0.34173 0.58424 0.50032 0.0
O143 O 0.3005 0.70323 0.27712 0.0
Cd144 Cd 0.30665 0.66929 0.27042 0.0
O145 O 0.26971 0.68857 0.26611 0.0
Cd146 Cd 0.27037 0.65685 0.25596 0.0
O147 O 0.25928 0.62839 0.23638 0.0
C148 C 0.26267 0.63296 0.21907 0.0
O149 O 0.27381 0.65399 0.21414 0.0
C150 C 0.284 0.70492 0.27387 0.0
C151 C 0.31692 0.65366 0.30353 0.0
O152 O 0.33029 0.66863 0.29341 0.0
O153 O 0.29872 0.64574 0.29779 0.0
O154 O 0.12459 0.51607 0.06396 0.0
Cd155 Cd 0.09901 0.50141 0.03957 0.0
O156 O 0.107 0.49017 0.08443 0.0
Cd157 Cd 0.07955 0.47904 0.06783 0.0
O158 O 0.04856 0.47439 0.06286 0.0
C159 C 0.04464 0.49053 0.05628 0.0
O160 O 0.05953 0.50951 0.05132 0.0
C161 C 0.12317 0.50672 0.07991 0.0
C162 C 0.11285 0.48058 0.01192 0.0
O163 O 0.11587 0.50161 0.0107 0.0
O164 O 0.1029 0.46929 0.02602 0.0
O165 O 0.33575 0.42952 0.86566 0.0
Cd166 Cd 0.3522 0.47094 0.86532 0.0
O167 O 0.30692 0.43223 0.86892 0.0
Cd168 Cd 0.2747 0.42076 0.87392 0.0
O169 O 0.24729 0.42246 0.88485 0.0
C170 C 0.23591 0.40788 0.89635 0.0
O171 O 0.24017 0.39058 0.90113 0.0
C172 C 0.31679 0.41991 0.86713 0.0
C173 C 0.35718 0.48672 0.8285 0.0
O174 O 0.37079 0.48219 0.83673 0.0
O175 O 0.34132 0.48403 0.83778 0.0
C176 C 0.16187 0.10171 0.05125 0.0
C177 C 0.15085 0.07811 0.05277 0.0
C178 C 0.17588 0.11069 0.03688 0.0
C179 C 0.2048 0.09599 0.00014 0.0
H180 H 0.19868 0.14488 0.9727 0.0
C181 C 0.2287 0.11661 0.92306 0.0
C182 C 0.23554 0.13924 0.91691 0.0
C183 C 0.22215 0.1109 0.94149 0.0
C184 C 0.20095 0.13156 0.98037 0.0
H185 H 0.14673 0.04541 0.04096 0.0
H186 H 0.17103 0.0611 0.01583 0.0
H187 H 0.18062 0.13171 0.00192 0.0
H188 H 0.24194 0.17383 0.92557 0.0
H189 H 0.23078 0.1639 0.95782 0.0
H190 H 0.22479 0.09552 0.97828 0.0
C191 C 0.16894 0.07266 0.02581 0.0
C192 C 0.19055 0.12399 0.99715 0.0
C193 C 0.1549 0.06367 0.04016 0.0
C194 C 0.23657 0.1562 0.92982 0.0
C195 C 0.23008 0.15049 0.94828 0.0
C196 C 0.21526 0.10362 0.98335 0.0
C197 C 0.17922 0.09629 0.02373 0.0
C198 C 0.19206 0.10584 0.00706 0.0
C199 C 0.22237 0.12771 0.95422 0.0
C200 C 0.21315 0.12122 0.97309 0.0
H201 H 0.15924 0.11333 0.0608 0.0
H202 H 0.18379 0.12897 0.03582 0.0
H203 H 0.20648 0.08218 0.00759 0.0
H204 H 0.22774 0.10313 0.91349 0.0
H205 H 0.2161 0.09316 0.9455 0.0
C206 C 0.17901 0.96197 0.26062 0.0
C207 C 0.20001 0.97054 0.25932 0.0
C208 C 0.16797 0.96892 0.24795 0.0
C209 C 0.17239 0.0123 0.21175 0.0
H210 H 0.12542 0.96406 0.19078 0.0
C211 C 0.12411 0.02938 0.15442 0.0
C212 C 0.11813 0.01378 0.13951 0.0
C213 C 0.13266 0.02471 0.17055 0.0
C214 C 0.13853 0.97772 0.19645 0.0
H215 H 0.22595 0.99387 0.24418 0.0
H216 H 0.20671 0.00571 0.22195 0.0
H217 H 0.14343 0.95568 0.21637 0.0
H218 H 0.1162 0.98092 0.12994 0.0
H219 H 0.13134 0.97293 0.1579 0.0
H220 H 0.16796 0.03413 0.19125 0.0
C221 C 0.19874 0.99381 0.23287 0.0
C222 C 0.14871 0.97299 0.21131 0.0
C223 C 0.20978 0.98692 0.24557 0.0
C224 C 0.1206 0.99328 0.14119 0.0
C225 C 0.12916 0.98863 0.15729 0.0
C226 C 0.16221 0.01704 0.19686 0.0
C227 C 0.17768 0.98456 0.23368 0.0
C228 C 0.16593 0.99014 0.21897 0.0
C229 C 0.13542 0.00434 0.17212 0.0
C230 C 0.14534 -0.00028 0.18885 0.0
H231 H 0.17102 0.94946 0.27114 0.0
H232 H 0.15178 0.96178 0.24917 0.0
H233 H 0.18546 0.02597 0.21748 0.0
H234 H 0.12234 0.04531 0.15359 0.0
H235 H 0.13709 0.03705 0.18182 0.0
C236 C 0.26564 0.99275 0.36526 0.0
C237 C 0.24589 0.97633 0.36388 0.0
C238 C 0.273 0.0036 0.38229 0.0
C239 C 0.26405 0.99537 0.43314 0.0
H240 H 0.30356 0.05754 0.43535 0.0
C241 C 0.31769 0.02951 0.49536 0.0
C242 C 0.32375 0.05233 0.50078 0.0
C243 C 0.30564 0.02114 0.47961 0.0
C244 C 0.29231 0.04027 0.43507 0.0
H245 H 0.21811 0.95906 0.37911 0.0
H246 H 0.23082 0.97831 0.40876 0.0
H247 H 0.28705 0.04218 0.40575 0.0
H248 H 0.32126 0.08406 0.49427 0.0
H249 H 0.29992 0.06932 0.46682 0.0
H250 H 0.2692 0.9935 0.46246 0.0
C251 C 0.24077 0.98246 0.39678 0.0
C252 C 0.28304 0.03136 0.41802 0.0
C253 C 0.23346 0.9715 0.37976 0.0
C254 C 0.31693 0.06642 0.49042 0.0
C255 C 0.3048 0.05801 0.47463 0.0
C256 C 0.27324 0.00431 0.45019 0.0
C257 C 0.26073 0.9984 0.39833 0.0
C258 C 0.2691 0.00865 0.41676 0.0
C259 C 0.29926 0.03534 0.46889 0.0
C260 C 0.28781 0.02671 0.45128 0.0
H261 H 0.27563 0.99683 0.35329 0.0
H262 H 0.28852 0.01552 0.38301 0.0
H263 H 0.25352 0.97777 0.4327 0.0
H264 H 0.32268 0.01818 0.50301 0.0
H265 H 0.30193 0.0037 0.47546 0.0
C266 C 0.2701 0.12586 0.74492 0.0
C267 C 0.25227 0.12933 0.74366 0.0
C268 C 0.27876 0.12114 0.72887 0.0
C269 C 0.26614 0.09831 0.68109 0.0
H270 H 0.3237 0.12547 0.67347 0.0
C271 C 0.30488 0.06731 0.62355 0.0
C272 C 0.32011 0.08403 0.61319 0.0
C273 C 0.29684 0.07321 0.63945 0.0
C274 C 0.30759 0.11786 0.67534 0.0
H275 H 0.22974 0.13091 0.72452 0.0
H276 H 0.24491 0.12276 0.69653 0.0
H277 H 0.3093 0.13574 0.70106 0.0
H278 H 0.33892 0.12007 0.61146 0.0
H279 H 0.32481 0.13036 0.6392 0.0
H280 H 0.26438 0.0806 0.6553 0.0
C281 C 0.25207 0.12345 0.70996 0.0
C282 C 0.29937 0.12357 0.69123 0.0
C283 C 0.24344 0.12825 0.72598 0.0
C284 C 0.32721 0.10677 0.61914 0.0
C285 C 0.31921 0.11266 0.63509 0.0
C286 C 0.27436 0.09253 0.66525 0.0
C287 C 0.26975 0.1197 0.71123 0.0
C288 C 0.27854 0.11386 0.69428 0.0
C289 C 0.30388 0.09596 0.64539 0.0
C290 C 0.29518 0.10222 0.66221 0.0
H291 H 0.27727 0.12655 0.75833 0.0
H292 H 0.29229 0.11811 0.73035 0.0
H293 H 0.25006 0.09034 0.68313 0.0
H294 H 0.29911 0.04963 0.61938 0.0
H295 H 0.28522 0.05991 0.64722 0.0
C296 C 0.8212 0.01033 0.29513 0.0
C297 C 0.80112 0.99507 0.29746 0.0
C298 C 0.82834 0.01955 0.27752 0.0
C299 C 0.81768 0.00793 0.22732 0.0
H300 H 0.85415 0.071 0.22102 0.0
C301 C 0.84031 0.04857 0.15443 0.0
C302 C 0.86044 0.06344 0.15168 0.0
C303 C 0.8332 0.04064 0.17234 0.0
C304 C 0.84416 0.05329 0.22258 0.0
H305 H 0.77266 0.978 0.28324 0.0
H306 H 0.78508 0.99424 0.25257 0.0
H307 H 0.84124 0.05684 0.25215 0.0
H308 H 0.8889 0.0816 0.16561 0.0
H309 H 0.87651 0.06752 0.19687 0.0
H310 H 0.82064 0.00429 0.19783 0.0
C311 C 0.79537 0.99882 0.2643 0.0
C312 C 0.83674 0.04519 0.24041 0.0
C313 C 0.78823 0.98963 0.28191 0.0
C314 C 0.87331 0.07019 0.16725 0.0
C315 C 0.86618 0.06224 0.18519 0.0
C316 C 0.82511 0.016 0.20953 0.0
C317 C 0.81556 0.01367 0.26187 0.0
C318 C 0.82338 0.02243 0.24296 0.0
C319 C 0.84604 0.04736 0.18793 0.0
C320 C 0.83839 0.03878 0.20693 0.0
H321 H 0.83153 0.01485 0.30684 0.0
H322 H 0.84401 0.03079 0.27607 0.0
H323 H 0.80771 0.9902 0.22887 0.0
H324 H 0.82996 0.0431 0.14276 0.0
H325 H 0.81754 0.02946 0.17399 0.0
C326 C 0.83745 0.10971 0.95744 0.0
C327 C 0.85369 0.12457 0.96801 0.0
C328 C 0.83585 0.1137 0.93838 0.0
C329 C 0.85423 0.15982 0.90307 0.0
H330 H 0.83131 0.11007 0.86783 0.0
C331 C 0.85103 0.17489 0.82382 0.0
C332 C 0.83217 0.16341 0.81546 0.0
C333 C 0.8548 0.16912 0.84185 0.0
C334 C 0.83768 0.12411 0.87755 0.0
H335 H 0.88134 0.15485 0.96678 0.0
H336 H 0.8789 0.16145 0.93347 0.0
H337 H 0.83606 0.102 0.90048 0.0
H338 H 0.8027 0.1363 0.81917 0.0
H339 H 0.80939 0.1261 0.85061 0.0
H340 H 0.85597 0.18189 0.88007 0.0
C341 C 0.86706 0.14706 0.93996 0.0
C342 C 0.84033 0.11951 0.89627 0.0
C343 C 0.86853 0.14321 0.95905 0.0
C344 C 0.81738 0.1455 0.82524 0.0
C345 C 0.82123 0.13957 0.8432 0.0
C346 C 0.85177 0.16441 0.88434 0.0
C347 C 0.85059 0.13251 0.92941 0.0
C348 C 0.84849 0.13732 0.90931 0.0
C349 C 0.83986 0.15159 0.8518 0.0
C350 C 0.84334 0.1466 0.87143 0.0
H351 H 0.82572 0.09524 0.96397 0.0
H352 H 0.82281 0.10232 0.93081 0.0
H353 H 0.86018 0.17395 0.91274 0.0
H354 H 0.86275 0.18875 0.81664 0.0
H355 H 0.86937 0.1785 0.84809 0.0
C356 C 0.65613 0.02266 0.63037 0.0
C357 C 0.65856 0.02905 0.61139 0.0
C358 C 0.67236 0.03103 0.64271 0.0
C359 C 0.71988 0.0808 0.64781 0.0
H360 H 0.72565 0.04898 0.69208 0.0
C361 C 0.77738 0.12781 0.70432 0.0
C362 C 0.76943 0.12502 0.72255 0.0
C363 C 0.76695 0.11294 0.69 0.0
C364 C 0.72424 0.05806 0.67976 0.0
H365 H 0.68025 0.04788 0.59022 0.0
H366 H 0.70862 0.06212 0.61168 0.0
H367 H 0.70161 0.02818 0.6678 0.0
H368 H 0.74501 0.10349 0.74031 0.0
H369 H 0.72675 0.07772 0.7153 0.0
H370 H 0.742 0.11076 0.65992 0.0
C371 C 0.69406 0.0511 0.61713 0.0
C372 C 0.71046 0.04617 0.66587 0.0
C373 C 0.67781 0.04285 0.6048 0.0
C374 C 0.7515 0.1062 0.7264 0.0
C375 C 0.74108 0.09132 0.71207 0.0
C376 C 0.73367 0.09263 0.66163 0.0
C377 C 0.6914 0.04586 0.63633 0.0
C378 C 0.7078 0.05753 0.64993 0.0
C379 C 0.74839 0.09494 0.6936 0.0
C380 C 0.7357 0.08152 0.67795 0.0
H381 H 0.64151 0.01202 0.6359 0.0
H382 H 0.66969 0.02679 0.65743 0.0
H383 H 0.71802 0.09022 0.63592 0.0
H384 H 0.79126 0.14201 0.70091 0.0
H385 H 0.77313 0.11595 0.67596 0.0
C386 C 0.70625 0.96621 0.39247 0.0
C387 C 0.69923 0.94302 0.38787 0.0
C388 C 0.69613 0.97376 0.40571 0.0
C389 C 0.66366 0.95311 0.44667 0.0
H390 H 0.65518 0.00868 0.44167 0.0
C391 C 0.6227 0.98081 0.50395 0.0
C392 C 0.63079 0.00395 0.50875 0.0
C393 C 0.62922 0.97335 0.48788 0.0
C394 C 0.65759 0.99322 0.44335 0.0
H395 H 0.6756 0.90974 0.39299 0.0
H396 H 0.65803 0.92294 0.41603 0.0
H397 H 0.67007 0.99592 0.41577 0.0
H398 H 0.65172 0.03751 0.50023 0.0
H399 H 0.66345 0.02446 0.47247 0.0
H400 H 0.65181 0.95061 0.47433 0.0
C401 C 0.67147 0.93523 0.40957 0.0
C402 C 0.66608 0.98591 0.4285 0.0
C403 C 0.6815 0.9277 0.39629 0.0
C404 C 0.64516 0.01956 0.4969 0.0
C405 C 0.6518 0.01208 0.4809 0.0
C406 C 0.65533 0.96048 0.46153 0.0
C407 C 0.67887 0.95826 0.41467 0.0
C408 C 0.66924 0.9658 0.43004 0.0
C409 C 0.64411 0.98884 0.47632 0.0
C410 C 0.65224 0.98066 0.4601 0.0
H411 H 0.71983 0.97845 0.3862 0.0
H412 H 0.70225 0.9916 0.40944 0.0
H413 H 0.66624 0.93776 0.4484 0.0
H414 H 0.61147 0.96838 0.51271 0.0
H415 H 0.62266 0.95539 0.48459 0.0
C416 C 0.77405 0.6285 0.45046 0.0
C417 C 0.77017 0.62098 0.43181 0.0
C418 C 0.7608 0.61691 0.46474 0.0
C419 C 0.71879 0.56338 0.47772 0.0
H420 H 0.70272 0.6028 0.50865 0.0
C421 C 0.6482 0.52995 0.52511 0.0
C422 C 0.64863 0.54168 0.54184 0.0
C423 C 0.66437 0.53804 0.51263 0.0
C424 C 0.70726 0.5915 0.50045 0.0
H425 H 0.74994 0.59461 0.4137 0.0
H426 H 0.72678 0.57432 0.43876 0.0
H427 H 0.72889 0.61929 0.4854 0.0
H428 H 0.66679 0.57032 0.55912 0.0
H429 H 0.69516 0.58399 0.53774 0.0
H430 H 0.6971 0.53554 0.49283 0.0
C431 C 0.74009 0.58921 0.44227 0.0
C432 C 0.72226 0.60099 0.48705 0.0
C433 C 0.75332 0.60089 0.42792 0.0
C434 C 0.66588 0.56108 0.54621 0.0
C435 C 0.68211 0.56898 0.53388 0.0
C436 C 0.70386 0.55383 0.49129 0.0
C437 C 0.74343 0.59749 0.46073 0.0
C438 C 0.72813 0.58707 0.47549 0.0
C439 C 0.68139 0.55791 0.51672 0.0
C440 C 0.69784 0.5678 0.50277 0.0
H441 H 0.78697 0.6438 0.45399 0.0
H442 H 0.7639 0.62348 0.47891 0.0
H443 H 0.72311 0.55226 0.46904 0.0
H444 H 0.63509 0.51496 0.52133 0.0
H445 H 0.66317 0.52918 0.49948 0.0
C446 C 0.61382 0.46689 0.63052 0.0
C447 C 0.61517 0.48875 0.62609 0.0
C448 C 0.62436 0.46355 0.64578 0.0
C449 C 0.65212 0.49101 0.68903 0.0
H450 H 0.67807 0.44952 0.68129 0.0
C451 C 0.71482 0.48697 0.73724 0.0
C452 C 0.71393 0.46523 0.74152 0.0
C453 C 0.70151 0.48961 0.72427 0.0
C454 C 0.67074 0.46097 0.68377 0.0
H455 H 0.62823 0.52418 0.63446 0.0
H456 H 0.64692 0.51845 0.6608 0.0
H457 H 0.65694 0.45433 0.65677 0.0
H458 H 0.69799 0.42919 0.73592 0.0
H459 H 0.67488 0.43383 0.71336 0.0
H460 H 0.66641 0.49796 0.71595 0.0
C461 C 0.63748 0.50379 0.65272 0.0
C462 C 0.65856 0.46368 0.66972 0.0
C463 C 0.62683 0.5071 0.63754 0.0
C464 C 0.69918 0.44619 0.73288 0.0
C465 C 0.68598 0.44884 0.71988 0.0
C466 C 0.66444 0.48839 0.70306 0.0
C467 C 0.63661 0.48202 0.65687 0.0
C468 C 0.64908 0.47874 0.67215 0.0
C469 C 0.68714 0.47057 0.71525 0.0
C470 C 0.67386 0.47332 0.70056 0.0
H471 H 0.60485 0.45237 0.62206 0.0
H472 H 0.62301 0.44648 0.64878 0.0
H473 H 0.64486 0.50253 0.69148 0.0
H474 H 0.726 0.50198 0.74368 0.0
H475 H 0.70284 0.50659 0.72089 0.0
C476 C 0.79915 0.50991 0.99732 0.0
C477 C 0.81942 0.51627 0.00198 0.0
C478 C 0.7934 0.51046 0.97874 0.0
C479 C 0.81063 0.50858 0.93045 0.0
H480 H 0.76492 0.5223 0.91776 0.0
C481 C 0.78128 0.5017 0.85465 0.0
C482 C 0.76057 0.48876 0.85277 0.0
C483 C 0.78969 0.50915 0.8723 0.0
C484 C 0.77771 0.51843 0.92111 0.0
H485 H 0.84966 0.52894 0.99084 0.0
H486 H 0.83964 0.53026 0.95837 0.0
H487 H 0.77782 0.52826 0.94976 0.0
H488 H 0.73234 0.47439 0.86779 0.0
H489 H 0.747 0.48749 0.89854 0.0
H490 H 0.81034 0.4985 0.90183 0.0
C491 C 0.82814 0.52444 0.96907 0.0
C492 C 0.78507 0.52177 0.93944 0.0
C493 C 0.83389 0.52379 0.98769 0.0
C494 C 0.74835 0.48428 0.86877 0.0
C495 C 0.75673 0.4919 0.88638 0.0
C496 C 0.80335 0.5054 0.91209 0.0
C497 C 0.80778 0.51751 0.96434 0.0
C498 C 0.80135 0.5164 0.94444 0.0
C499 C 0.77754 0.50401 0.88838 0.0
C500 C 0.78656 0.50984 0.90732 0.0
H501 H 0.7876 0.504 0.00797 0.0
H502 H 0.77757 0.50464 0.97562 0.0
H503 H 0.823 0.50397 0.93381 0.0
H504 H 0.79111 0.50547 0.84258 0.0
H505 H 0.80575 0.51864 0.8734 0.0
C506 C 0.81923 0.51652 0.18514 0.0
C507 C 0.8127 0.52086 0.16764 0.0
C508 C 0.81838 0.52896 0.20093 0.0
C509 C 0.81083 0.58086 0.21573 0.0
H510 H 0.79731 0.54905 0.26327 0.0
C511 C 0.78175 0.61256 0.28069 0.0
C512 C 0.79152 0.61274 0.29771 0.0
C513 C 0.78587 0.60258 0.26473 0.0
C514 C 0.80126 0.55817 0.2501 0.0
H515 H 0.80023 0.54166 0.15291 0.0
H516 H 0.79789 0.56267 0.18052 0.0
H517 H 0.80141 0.52923 0.23555 0.0
H518 H 0.81323 0.60262 0.31138 0.0
H519 H 0.81999 0.58459 0.28352 0.0
H520 H 0.80969 0.60948 0.23038 0.0
C521 C 0.80429 0.5502 0.18206 0.0
C522 C 0.80374 0.54689 0.2342 0.0
C523 C 0.8055 0.53804 0.1662 0.0
C524 C 0.8055 0.60277 0.29845 0.0
C525 C 0.80933 0.5924 0.28256 0.0
C526 C 0.80798 0.59199 0.23159 0.0
C527 C 0.81061 0.54575 0.19969 0.0
C528 C 0.80854 0.55805 0.21676 0.0
C529 C 0.79954 0.59223 0.26558 0.0
C530 C 0.80315 0.58072 0.24889 0.0
H531 H 0.82504 0.50351 0.18663 0.0
H532 H 0.82384 0.52536 0.21412 0.0
H533 H 0.81491 0.59021 0.2027 0.0
H534 H 0.77095 0.62019 0.27969 0.0
H535 H 0.77804 0.60252 0.25181 0.0
C536 C 0.39072 0.54134 0.66317 0.0
C537 C 0.37541 0.54532 0.65391 0.0
C538 C 0.38883 0.53535 0.68212 0.0
C539 C 0.35116 0.51128 0.71953 0.0
H540 H 0.39694 0.53785 0.75262 0.0
C541 C 0.34437 0.49881 0.79971 0.0
C542 C 0.35958 0.49442 0.80876 0.0
C543 C 0.3464 0.50547 0.78092 0.0
C544 C 0.38407 0.53011 0.74352 0.0
H545 H 0.3461 0.54615 0.65733 0.0
H546 H 0.3429 0.53588 0.69039 0.0
H547 H 0.40026 0.54842 0.71958 0.0
H548 H 0.38891 0.49373 0.80519 0.0
H549 H 0.39238 0.50519 0.77239 0.0
H550 H 0.33498 0.49293 0.74346 0.0
C551 C 0.35626 0.53713 0.68295 0.0
C552 C 0.38598 0.53615 0.72459 0.0
C553 C 0.35816 0.54314 0.66402 0.0
C554 C 0.37694 0.49704 0.79865 0.0
C555 C 0.37898 0.50373 0.77987 0.0
C556 C 0.34925 0.50523 0.73846 0.0
C557 C 0.37158 0.53318 0.69223 0.0
C558 C 0.36955 0.52679 0.71237 0.0
C559 C 0.36369 0.50792 0.77076 0.0
C560 C 0.36569 0.51456 0.75068 0.0
H561 H 0.40419 0.54282 0.65579 0.0
H562 H 0.40079 0.53214 0.68879 0.0
H563 H 0.3383 0.50349 0.71044 0.0
H564 H 0.33083 0.497 0.80711 0.0
H565 H 0.33447 0.50887 0.77438 0.0
C566 C 0.34134 0.65821 0.32949 0.0
C567 C 0.32223 0.64642 0.32168 0.0
C568 C 0.34592 0.65245 0.34723 0.0
C569 C 0.33095 0.60696 0.38251 0.0
H570 H 0.35444 0.6564 0.41791 0.0
C571 C 0.33441 0.5916 0.46193 0.0
C572 C 0.35089 0.60662 0.47215 0.0
C573 C 0.33201 0.59572 0.44305 0.0
C574 C 0.34822 0.64239 0.40816 0.0
H575 H 0.29317 0.61885 0.32607 0.0
H576 H 0.30128 0.60867 0.35702 0.0
H577 H 0.34858 0.66465 0.38573 0.0
H578 H 0.37815 0.6373 0.47042 0.0
H579 H 0.37432 0.64413 0.43739 0.0
H580 H 0.33072 0.58467 0.40485 0.0
C581 C 0.31268 0.62238 0.3494 0.0
C582 C 0.34481 0.64715 0.38972 0.0
C583 C 0.30801 0.62829 0.33173 0.0
C584 C 0.36519 0.62552 0.46297 0.0
C585 C 0.36291 0.6295 0.44405 0.0
C586 C 0.33456 0.6022 0.40093 0.0
C587 C 0.33157 0.63463 0.35744 0.0
C588 C 0.336 0.62949 0.37675 0.0
C589 C 0.34615 0.61483 0.43389 0.0
C590 C 0.34309 0.61985 0.41404 0.0
H591 H 0.35264 0.67225 0.3221 0.0
H592 H 0.36068 0.66203 0.35303 0.0
H593 H 0.32432 0.59304 0.37274 0.0
H594 H 0.32308 0.57693 0.46863 0.0
H595 H 0.31876 0.58422 0.4358 0.0
C596 C 0.23824 0.59399 0.20981 0.0
C597 C 0.25206 0.61577 0.20464 0.0
C598 C 0.22633 0.57886 0.19627 0.0
C599 C 0.21994 0.56828 0.14493 0.0
H600 H 0.16346 0.54016 0.15758 0.0
C601 C 0.15714 0.53524 0.0894 0.0
C602 C 0.13988 0.51569 0.09353 0.0
C603 C 0.1722 0.54466 0.10282 0.0
C604 C 0.17921 0.54751 0.15389 0.0
H605 H 0.26497 0.63824 0.18107 0.0
H606 H 0.24409 0.612 0.15755 0.0
H607 H 0.18767 0.5612 0.18137 0.0
H608 H 0.12534 0.49017 0.11476 0.0
H609 H 0.15169 0.50649 0.13805 0.0
H610 H 0.21133 0.555 0.11726 0.0
C611 C 0.24253 0.60651 0.17203 0.0
C612 C 0.19312 0.55958 0.16756 0.0
C613 C 0.25443 0.62162 0.18555 0.0
C614 C 0.13835 0.50535 0.11115 0.0
C615 C 0.15342 0.51475 0.12455 0.0
C616 C 0.20601 0.55618 0.13123 0.0
C617 C 0.22799 0.58516 0.17727 0.0
C618 C 0.21361 0.57041 0.16318 0.0
C619 C 0.17036 0.53473 0.12066 0.0
C620 C 0.18544 0.54595 0.13549 0.0
H621 H 0.23614 0.58888 0.22439 0.0
H622 H 0.2155 0.56239 0.20073 0.0
H623 H 0.23566 0.57616 0.14117 0.0
H624 H 0.15881 0.54363 0.07597 0.0
H625 H 0.18494 0.5602 0.09943 0.0
C626 C 0.13223 0.48252 0.98247 0.0
C627 C 0.1214 0.46996 0.9979 0.0
C628 C 0.14156 0.47307 0.96999 0.0
C629 C 0.16252 0.42989 0.96811 0.0
H630 H 0.16493 0.44125 0.91462 0.0
C631 C 0.20705 0.39609 0.91889 0.0
C632 C 0.21924 0.41161 0.90557 0.0
C633 C 0.19252 0.40068 0.9288 0.0
C634 C 0.16449 0.43803 0.92955 0.0
H635 H 0.11133 0.43736 0.012 0.0
H636 H 0.12758 0.42086 0.99018 0.0
H637 H 0.14417 0.45402 0.93448 0.0
H638 H 0.22522 0.44376 0.89176 0.0
H639 H 0.20018 0.4519 0.9092 0.0
H640 H 0.18323 0.41449 0.96334 0.0
C641 C 0.12902 0.4381 0.98785 0.0
C642 C 0.15259 0.44533 0.94091 0.0
C643 C 0.11963 0.44752 0.00029 0.0
C644 C 0.2161 0.43143 0.90192 0.0
C645 C 0.20163 0.43604 0.91186 0.0
C646 C 0.17447 0.42266 0.95677 0.0
C647 C 0.14032 0.45087 0.9727 0.0
C648 C 0.15167 0.4416 0.96036 0.0
C649 C 0.18988 0.42091 0.92564 0.0
C650 C 0.17582 0.42691 0.93738 0.0
H651 H 0.13388 0.49985 0.98022 0.0
H652 H 0.15032 0.48345 0.95859 0.0
H653 H 0.16238 0.42704 0.98308 0.0
H654 H 0.20898 0.38058 0.92195 0.0
H655 H 0.18351 0.38848 0.9391 0.0
C656 C 0.89631 0.06741 0.06838 0.0
C657 C 0.89922 0.0846 0.0551 0.0
C658 C 0.91192 0.06082 0.07284 0.0
C659 C 0.95914 0.06125 0.05396 0.0
H660 H 0.9721 0.05488 0.10576 0.0
C661 C 0.02394 0.03583 0.07228 0.0
C662 C 0.03749 0.04969 0.08567 0.0
C663 C 0.00516 0.03654 0.06997 0.0
C664 C 0.96863 0.05656 0.09124 0.0
H665 H 0.92064 0.10804 0.03584 0.0
H666 H 0.94774 0.09652 0.04355 0.0
H667 H 0.94312 0.06361 0.0985 0.0
H668 H 0.04149 0.07418 0.1079 0.0
H669 H 0.00877 0.07557 0.10373 0.0
H670 H 0.98488 0.05494 0.04663 0.0
C671 C 0.93343 0.0881 0.05051 0.0
C672 C 0.95196 0.06137 0.08708 0.0
C673 C 0.91791 0.09475 0.04615 0.0
C674 C 0.03142 0.06334 0.0974 0.0
C675 C 0.01262 0.06405 0.09509 0.0
C676 C 0.97569 0.05634 0.0581 0.0
C677 C 0.93062 0.07107 0.06391 0.0
C678 C 0.94727 0.06416 0.0684 0.0
C679 C -0.0005 0.05112 0.081 0.0
C680 C 0.98081 0.05427 0.07678 0.0
H681 H 0.88188 0.05857 0.07494 0.0
H682 H 0.90923 0.04738 0.08299 0.0
H683 H 0.95575 0.06301 0.03942 0.0
H684 H 0.02805 0.02494 0.06313 0.0
H685 H 0.99524 0.02607 0.05922 0.0
C686 C 0.26435 0.72908 0.27245 0.0
C687 C 0.28149 0.72609 0.27851 0.0
C688 C 0.26226 0.74938 0.27595 0.0
C689 C 0.27882 0.79966 0.30619 0.0
H690 H 0.26237 0.82673 0.26438 0.0
C691 C 0.2509 0.87229 0.31306 0.0
C692 C 0.25754 0.88949 0.29939 0.0
C693 C 0.25571 0.85334 0.31166 0.0
C694 C 0.26713 0.81949 0.27616 0.0
H695 H 0.30964 0.74191 0.2935 0.0
H696 H 0.30586 0.77744 0.29974 0.0
H697 H 0.26676 0.79142 0.25981 0.0
H698 H 0.2751 0.90066 0.27393 0.0
H699 H 0.28333 0.86758 0.27148 0.0
H700 H 0.27899 0.82777 0.32256 0.0
C701 C 0.29409 0.76398 0.29224 0.0
C702 C 0.26945 0.79916 0.27359 0.0
C703 C 0.29628 0.7437 0.28859 0.0
C704 C 0.26965 0.88769 0.28466 0.0
C705 C 0.27431 0.8687 0.28319 0.0
C706 C 0.27629 0.81994 0.30883 0.0
C707 C 0.27718 0.76711 0.28573 0.0
C708 C 0.27523 0.78898 0.28858 0.0
C709 C 0.26709 0.85114 0.29648 0.0
C710 C 0.2704 0.83003 0.29382 0.0
H711 H 0.25262 0.71586 0.26471 0.0
H712 H 0.24894 0.75122 0.27098 0.0
H713 H 0.28321 0.79211 0.318 0.0
H714 H 0.24161 0.87319 0.32462 0.0
H715 H 0.24986 0.84 0.32205 0.0
C716 C 0.40654 0.04824 0.58268 0.0
C717 C 0.40884 0.06583 0.56998 0.0
C718 C 0.4223 0.04156 0.58597 0.0
C719 C 0.47719 0.05979 0.57983 0.0
H720 H 0.46422 0.99511 0.58245 0.0
C721 C 0.53774 0.02364 0.57507 0.0
C722 C 0.5365 0.0068 0.58817 0.0
C723 C 0.52197 0.03058 0.57307 0.0
C724 C 0.46805 0.01323 0.58191 0.0
H725 H 0.42972 0.0906 0.55115 0.0
H726 H 0.45706 0.07877 0.55667 0.0
H727 H 0.43735 0.00838 0.57935 0.0
H728 H 0.51749 0.9836 0.60908 0.0
H729 H 0.48993 0.9957 0.60551 0.0
H730 H 0.50793 0.06457 0.58213 0.0
C731 C 0.44317 0.0703 0.56429 0.0
C732 C 0.45266 0.02085 0.58021 0.0
C733 C 0.42744 0.07703 0.56107 0.0
C734 C 0.51893 0.99663 0.59887 0.0
C735 C 0.5031 0.00349 0.59678 0.0
C736 C 0.49258 0.05215 0.58144 0.0
C737 C 0.44071 0.05228 0.57659 0.0
C738 C 0.45705 0.04423 0.57909 0.0
C739 C 0.50457 0.02075 0.58404 0.0
C740 C 0.48818 0.02879 0.58243 0.0
H741 H 0.39244 0.03932 0.58987 0.0
H742 H 0.42002 0.0279 0.59578 0.0
H743 H 0.48109 0.07791 0.57931 0.0
H744 H 0.55105 0.03179 0.56658 0.0
H745 H 0.5234 0.04369 0.56294 0.0
C746 C 0.31671 0.38164 0.87295 0.0
C747 C 0.30674 0.39489 0.86636 0.0
C748 C 0.30839 0.35812 0.87042 0.0
C749 C 0.26164 0.30897 0.85627 0.0
H750 H 0.29928 0.28265 0.84262 0.0
C751 C 0.23877 0.22128 0.82032 0.0
C752 C 0.24758 0.20698 0.82723 0.0
C753 C 0.24504 0.24359 0.82683 0.0
C754 C 0.2886 0.28968 0.84663 0.0
H755 H 0.28026 0.39396 0.85197 0.0
H756 H 0.26586 0.35295 0.84717 0.0
H757 H 0.31172 0.32262 0.85103 0.0
H758 H 0.27028 0.205 0.84588 0.0
H759 H 0.28125 0.244 0.85729 0.0
H760 H 0.2385 0.27597 0.85111 0.0
C761 C 0.27982 0.36057 0.85481 0.0
C762 C 0.29572 0.31261 0.85154 0.0
C763 C 0.28805 0.38411 0.85759 0.0
C764 C 0.26287 0.21544 0.84067 0.0
C765 C 0.26931 0.23784 0.84703 0.0
C766 C 0.25451 0.28605 0.85114 0.0
C767 C 0.29008 0.34731 0.8609 0.0
C768 C 0.28235 0.32261 0.8564 0.0
C769 C 0.26049 0.25215 0.84014 0.0
C770 C 0.26793 0.27621 0.84622 0.0
H771 H 0.33112 0.38953 0.87985 0.0
H772 H 0.3165 0.34845 0.8757 0.0
H773 H 0.25091 0.31595 0.86018 0.0
H774 H 0.227 0.21518 0.80989 0.0
H775 H 0.23815 0.25432 0.82111 0.0
C776 C 0.78827 0.40845 0.78714 0.0
C777 C 0.76954 0.40665 0.79387 0.0
C778 C 0.79336 0.38968 0.78747 0.0
C779 C 0.7793 0.3325 0.80849 0.0
H780 H 0.80384 0.32101 0.76365 0.0
C781 C 0.7798 0.24504 0.79106 0.0
C782 C 0.79698 0.24444 0.78252 0.0
C783 C 0.77826 0.26573 0.79423 0.0
C784 C 0.79729 0.32414 0.7764 0.0
H785 H 0.74168 0.3838 0.80664 0.0
H786 H 0.75046 0.35104 0.80696 0.0
H787 H 0.7979 0.35559 0.76596 0.0
H788 H 0.82629 0.26523 0.77115 0.0
H789 H 0.82361 0.30134 0.77677 0.0
H790 H 0.7783 0.30073 0.81872 0.0
C791 C 0.76132 0.36703 0.80165 0.0
C792 C 0.79389 0.34398 0.77773 0.0
C793 C 0.75623 0.3858 0.80135 0.0
C794 C 0.81281 0.26506 0.77767 0.0
C795 C 0.81124 0.28575 0.7808 0.0
C796 C 0.78267 0.31261 0.80713 0.0
C797 C 0.77985 0.36867 0.79452 0.0
C798 C 0.78465 0.34829 0.79371 0.0
C799 C 0.79384 0.2863 0.78891 0.0
C800 C 0.7915 0.3081 0.79098 0.0
H801 H 0.79893 0.4243 0.7814 0.0
H802 H 0.80788 0.3916 0.78213 0.0
H803 H 0.77244 0.33547 0.82111 0.0
H804 H 0.76733 0.22949 0.79499 0.0
H805 H 0.76457 0.26555 0.80032 0.0
C806 C 0.76256 0.86456 0.35075 0.0
C807 C 0.77749 0.88622 0.34703 0.0
C808 C 0.76714 0.84546 0.35071 0.0
C809 C 0.80182 0.82212 0.33288 0.0
H810 H 0.78407 0.78204 0.37588 0.0
C811 C 0.79541 0.72908 0.33557 0.0
C812 C 0.80107 0.72183 0.35236 0.0
C813 C 0.79583 0.75097 0.33409 0.0
C814 C 0.7893 0.79317 0.36386 0.0
H815 H 0.80881 0.90472 0.33976 0.0
H816 H 0.81672 0.8711 0.33943 0.0
H817 H 0.77766 0.81646 0.37474 0.0
H818 H 0.81281 0.7324 0.38034 0.0
H819 H 0.81336 0.77045 0.37775 0.0
H820 H 0.81307 0.79842 0.32185 0.0
C821 C 0.80152 0.86906 0.34248 0.0
C822 C 0.78546 0.81274 0.36314 0.0
C823 C 0.797 0.88827 0.34276 0.0
C824 C 0.80823 0.73736 0.36724 0.0
C825 C 0.80848 0.75913 0.3658 0.0
C826 C 0.80543 0.8023 0.33348 0.0
C827 C 0.78668 0.84755 0.34673 0.0
C828 C 0.79154 0.82731 0.3476 0.0
C829 C 0.80176 0.76593 0.34941 0.0
C830 C 0.79914 0.78763 0.34898 0.0
H831 H 0.74737 0.86236 0.35407 0.0
H832 H 0.75538 0.82901 0.35384 0.0
H833 H 0.8066 0.83307 0.32072 0.0
H834 H 0.78989 0.71757 0.32381 0.0
H835 H 0.7905 0.75575 0.32131 0.0
C836 C 0.40695 0.55992 0.54765 0.0
C837 C 0.39875 0.56989 0.56092 0.0
C838 C 0.42279 0.55395 0.55248 0.0
C839 C 0.46404 0.56762 0.58665 0.0
H840 H 0.46801 0.51378 0.56595 0.0
C841 C 0.53816 0.55555 0.58542 0.0
C842 C 0.53763 0.5336 0.58778 0.0
C843 C 0.52043 0.55893 0.5842 0.0
C844 C 0.46703 0.52873 0.57208 0.0
H845 H 0.40139 0.58243 0.58941 0.0
H846 H 0.42841 0.57117 0.59811 0.0
H847 H 0.43808 0.52088 0.56008 0.0
H848 H 0.51799 0.49805 0.59135 0.0
H849 H 0.48699 0.50401 0.58951 0.0
H850 H 0.49287 0.57534 0.59881 0.0
C851 C 0.42259 0.56788 0.58396 0.0
C852 C 0.44997 0.53295 0.56849 0.0
C853 C 0.40678 0.57391 0.5791 0.0
C854 C 0.51894 0.51517 0.58944 0.0
C855 C 0.50116 0.51857 0.58826 0.0
C856 C 0.48105 0.56335 0.59028 0.0
C857 C 0.43087 0.55794 0.57069 0.0
C858 C 0.44839 0.55262 0.57552 0.0
C859 C 0.5017 0.54046 0.58539 0.0
C860 C 0.4829 0.54403 0.58281 0.0
H861 H 0.4012 0.55685 0.53346 0.0
H862 H 0.42903 0.54673 0.54179 0.0
H863 H 0.46344 0.58304 0.59215 0.0
H864 H 0.5523 0.57014 0.58405 0.0
H865 H 0.52143 0.57598 0.58172 0.0
C866 C 0.87552 0.47278 0.09372 0.0
C867 C 0.87029 0.49042 0.08759 0.0
C868 C 0.89378 0.47221 0.08853 0.0
C869 C 0.93624 0.49615 0.05509 0.0
H870 H 0.96392 0.47678 0.09321 0.0
C871 C 0.01939 0.50711 0.04986 0.0
C872 C 0.02379 0.48898 0.05641 0.0
C873 C 0.00011 0.50663 0.05187 0.0
C874 C 0.95628 0.48197 0.08233 0.0
H875 H 0.88024 0.52158 0.07148 0.0
H876 H 0.91236 0.52079 0.06252 0.0
H877 H 0.93167 0.47775 0.10037 0.0
H878 H 0.01111 0.45566 0.06941 0.0
H879 H 0.97757 0.45489 0.07291 0.0
H880 H 0.96131 0.50084 0.03722 0.0
C881 C 0.90208 0.50703 0.07095 0.0
C882 C 0.93775 0.4825 0.08642 0.0
C883 C 0.88366 0.50747 0.07603 0.0
C884 C 0.0083 0.46998 0.06431 0.0
C885 C 0.98909 0.46957 0.06642 0.0
C886 C 0.95493 0.49578 0.05104 0.0
C887 C 0.90744 0.48949 0.0773 0.0
C888 C 0.92739 0.48942 0.07282 0.0
C889 C 0.9849 0.48808 0.06058 0.0
C890 C 0.96505 0.48852 0.06459 0.0
H891 H 0.86544 0.45931 0.10254 0.0
H892 H 0.89717 0.45818 0.09336 0.0
H893 H 0.92861 0.50137 0.04423 0.0
H894 H 0.03097 0.52197 0.04365 0.0
H895 H 0.99734 0.52118 0.04731 0.0
loop_
_geom_bond_atom_site_label_1
_geom_bond_atom_site_label_2
_geom_bond_distance
_geom_bond_site_symmetry_2
_ccdc_geom_bond_type
O0 Cd1 2.300 . S
O0 C7 1.275 . S
Cd1 O0 2.300 . S
Cd1 O9 2.381 1_545 S
Cd1 O10 2.378 . S
O2 Cd3 2.385 . S
O2 C7 1.255 . S
Cd3 O2 2.385 . S
Cd3 O4 2.317 . S
O4 Cd3 2.317 . S
O4 C5 1.232 . S
C5 O4 1.232 . S
C5 O6 1.218 . S
O6 C5 1.218 . S
C7 O0 1.275 . S
C7 O2 1.255 . S
C8 O9 1.249 1_545 S
C8 O10 1.291 . S
O9 Cd1 2.381 1_565 S
O9 C8 1.249 1_565 S
O10 Cd1 2.378 . S
O10 C8 1.291 . S
O11 Cd12 2.300 . S
O11 C18 1.275 . S
Cd12 O11 2.300 . S
Cd12 O20 2.381 . S
Cd12 O21 2.378 . S
O13 Cd14 2.385 . S
O13 C18 1.255 . S
Cd14 O13 2.385 . S
Cd14 O15 2.317 . S
O15 Cd14 2.317 . S
O15 C16 1.232 . S
C16 O15 1.232 . S
C16 O17 1.218 . S
O17 C16 1.218 . S
C18 O11 1.275 . S
C18 O13 1.255 . S
C19 O20 1.258 . S
C19 O21 1.256 . S
O20 Cd12 2.381 . S
O20 C19 1.258 . S
O21 Cd12 2.378 . S
O21 C19 1.256 . S
O22 Cd23 2.300 . S
O22 C29 1.275 . S
Cd23 O22 2.300 . S
Cd23 O31 2.381 . S
Cd23 O32 2.378 . S
O24 Cd25 2.385 . S
O24 C29 1.255 . S
Cd25 O24 2.385 . S
Cd25 O26 2.317 . S
O26 Cd25 2.317 . S
O26 C27 1.232 . S
C27 O26 1.232 . S
C27 O28 1.218 . S
O28 C27 1.218 . S
C29 O22 1.275 . S
C29 O24 1.255 . S
C30 O31 1.258 . S
C30 O32 1.256 . S
O31 Cd23 2.381 . S
O31 C30 1.258 . S
O32 Cd23 2.378 . S
O32 C30 1.256 . S
O33 Cd34 2.300 . S
O33 C40 1.275 . S
Cd34 O33 2.300 . S
Cd34 O42 2.381 . S
Cd34 O43 2.378 . S
O35 Cd36 2.385 . S
O35 C40 1.255 . S
Cd36 O35 2.385 . S
Cd36 O37 2.317 . S
O37 Cd36 2.317 . S
O37 C38 1.232 . S
C38 O37 1.232 . S
C38 O39 1.218 . S
O39 C38 1.218 . S
C40 O33 1.275 . S
C40 O35 1.255 . S
C41 O42 1.258 . S
C41 O43 1.256 . S
O42 Cd34 2.381 . S
O42 C41 1.258 . S
O43 Cd34 2.378 . S
O43 C41 1.256 . S
O44 Cd45 2.300 . S
O44 C51 1.275 . S
Cd45 O44 2.300 . S
Cd45 O53 2.381 . S
Cd45 O54 2.378 . S
O46 Cd47 2.385 . S
O46 C51 1.255 . S
Cd47 O46 2.385 . S
Cd47 O48 2.317 . S
O48 Cd47 2.317 . S
O48 C49 1.232 . S
C49 O48 1.232 . S
C49 O50 1.218 . S
O50 C49 1.218 . S
C51 O44 1.275 . S
C51 O46 1.255 . S
C52 O53 1.258 . S
C52 O54 1.256 . S
O53 Cd45 2.381 . S
O53 C52 1.258 . S
O54 Cd45 2.378 . S
O54 C52 1.256 . S
O55 Cd56 2.300 . S
O55 C62 1.275 . S
Cd56 O55 2.300 . S
Cd56 O64 2.381 . S
Cd56 O65 2.378 . S
O57 Cd58 2.385 . S
O57 C62 1.255 . S
Cd58 O57 2.385 . S
Cd58 O59 2.317 . S
O59 Cd58 2.317 . S
O59 C60 1.232 . S
C60 O59 1.232 . S
C60 O61 1.218 . S
O61 C60 1.218 . S
C62 O55 1.275 . S
C62 O57 1.255 . S
C63 O64 1.258 . S
C63 O65 1.256 . S
O64 Cd56 2.381 . S
O64 C63 1.258 . S
O65 Cd56 2.378 . S
O65 C63 1.256 . S
O66 Cd67 2.300 1_545 S
O66 C73 1.275 . S
Cd67 O66 2.300 1_565 S
Cd67 O75 2.381 1_565 S
Cd67 O76 2.378 . S
O68 Cd69 2.385 1_545 S
O68 C73 1.255 . S
Cd69 O68 2.385 1_565 S
Cd69 O70 2.317 1_565 S
O70 Cd69 2.317 1_545 S
O70 C71 1.232 . S
C71 O70 1.232 . S
C71 O72 1.218 . S
O72 C71 1.218 . S
C73 O66 1.275 . S
C73 O68 1.255 . S
C74 O75 1.258 1_565 S
C74 O76 1.256 . S
O75 Cd67 2.381 1_545 S
O75 C74 1.258 1_545 S
O76 Cd67 2.378 . S
O76 C74 1.256 . S
O77 Cd78 2.300 . S
O77 C84 1.275 . S
Cd78 O77 2.300 . S
Cd78 O86 2.381 . S
Cd78 O87 2.378 . S
O79 Cd80 2.385 . S
O79 C84 1.255 . S
Cd80 O79 2.385 . S
Cd80 O81 2.317 . S
O81 Cd80 2.317 . S
O81 C82 1.232 . S
C82 O81 1.232 . S
C82 O83 1.218 . S
O83 C82 1.218 . S
C84 O77 1.275 . S
C84 O79 1.255 . S
C85 O86 1.258 . S
C85 O87 1.256 . S
O86 Cd78 2.381 . S
O86 C85 1.258 . S
O87 Cd78 2.378 . S
O87 C85 1.256 . S
O88 Cd89 2.300 . S
O88 C95 1.275 . S
Cd89 O88 2.300 . S
Cd89 O97 2.381 . S
Cd89 O98 2.378 . S
O90 Cd91 2.385 . S
O90 C95 1.255 . S
Cd91 O90 2.385 . S
Cd91 O92 2.317 . S
O92 Cd91 2.317 . S
O92 C93 1.232 . S
C93 O92 1.232 . S
C93 O94 1.218 . S
O94 C93 1.218 . S
C95 O88 1.275 . S
C95 O90 1.255 . S
C96 O97 1.258 . S
C96 O98 1.256 . S
O97 Cd89 2.381 . S
O97 C96 1.258 . S
O98 Cd89 2.378 . S
O98 C96 1.256 . S
O99 Cd100 2.300 . S
O99 C106 1.275 . S
Cd100 O99 2.300 . S
Cd100 O108 2.381 . S
Cd100 O109 2.378 . S
O101 Cd102 2.385 . S
O101 C106 1.255 . S
Cd102 O101 2.385 . S
Cd102 O103 2.317 . S
O103 Cd102 2.317 . S
O103 C104 1.232 . S
C104 O103 1.232 . S
C104 O105 1.218 . S
O105 C104 1.218 . S
C106 O99 1.275 . S
C106 O101 1.255 . S
C107 O108 1.258 . S
C107 O109 1.256 . S
O108 Cd100 2.381 . S
O108 C107 1.258 . S
O109 Cd100 2.378 . S
O109 C107 1.256 . S
O110 Cd111 2.300 . S
O110 C117 1.275 . S
Cd111 O110 2.300 . S
Cd111 O119 2.381 . S
Cd111 O120 2.378 . S
O112 Cd113 2.385 . S
O112 C117 1.255 . S
Cd113 O112 2.385 . S
Cd113 O114 2.317 . S
O114 Cd113 2.317 . S
O114 C115 1.232 . S
C115 O114 1.232 . S
C115 O116 1.218 . S
O116 C115 1.218 . S
C117 O110 1.275 . S
C117 O112 1.255 . S
C118 O119 1.258 . S
C118 O120 1.256 . S
O119 Cd111 2.381 . S
O119 C118 1.258 . S
O120 Cd111 2.378 . S
O120 C118 1.256 . S
O121 Cd122 2.300 . S
O121 C128 1.275 . S
Cd122 O121 2.300 . S
Cd122 O130 2.381 . S
Cd122 O131 2.378 . S
O123 Cd124 2.385 . S
O123 C128 1.255 . S
Cd124 O123 2.385 . S
Cd124 O125 2.317 . S
O125 Cd124 2.317 . S
O125 C126 1.232 . S
C126 O125 1.232 . S
C126 O127 1.218 . S
O127 C126 1.218 . S
C128 O121 1.275 . S
C128 O123 1.255 . S
C129 O130 1.258 . S
C129 O131 1.256 . S
O130 Cd122 2.381 . S
O130 C129 1.258 . S
O131 Cd122 2.378 . S
O131 C129 1.256 . S
O132 Cd133 2.300 . S
O132 C139 1.275 . S
Cd133 O132 2.300 . S
Cd133 O141 2.381 . S
Cd133 O142 2.378 . S
O134 Cd135 2.385 . S
O134 C139 1.255 . S
Cd135 O134 2.385 . S
Cd135 O136 2.317 . S
O136 Cd135 2.317 . S
O136 C137 1.232 . S
C137 O136 1.232 . S
C137 O138 1.218 . S
O138 C137 1.218 . S
C139 O132 1.275 . S
C139 O134 1.255 . S
C140 O141 1.258 . S
C140 O142 1.256 . S
O141 Cd133 2.381 . S
O141 C140 1.258 . S
O142 Cd133 2.378 . S
O142 C140 1.256 . S
O143 Cd144 2.300 . S
O143 C150 1.275 . S
Cd144 O143 2.300 . S
Cd144 O152 2.381 . S
Cd144 O153 2.378 . S
O145 Cd146 2.385 . S
O145 C150 1.255 . S
Cd146 O145 2.385 . S
Cd146 O147 2.317 . S
O147 Cd146 2.317 . S
O147 C148 1.232 . S
C148 O147 1.232 . S
C148 O149 1.218 . S
O149 C148 1.218 . S
C150 O143 1.275 . S
C150 O145 1.255 . S
C151 O152 1.258 . S
C151 O153 1.256 . S
O152 Cd144 2.381 . S
O152 C151 1.258 . S
O153 Cd144 2.378 . S
O153 C151 1.256 . S
O154 Cd155 2.300 . S
O154 C161 1.275 . S
Cd155 O154 2.300 . S
Cd155 O163 2.381 . S
Cd155 O164 2.378 . S
O156 Cd157 2.385 . S
O156 C161 1.255 . S
Cd157 O156 2.385 . S
Cd157 O158 2.317 . S
O158 Cd157 2.317 . S
O158 C159 1.232 . S
C159 O158 1.232 . S
C159 O160 1.218 . S
O160 C159 1.218 . S
C161 O154 1.275 . S
C161 O156 1.255 . S
C162 O163 1.258 . S
C162 O164 1.256 . S
O163 Cd155 2.381 . S
O163 C162 1.258 . S
O164 Cd155 2.378 . S
O164 C162 1.256 . S
O165 Cd166 2.300 . S
O165 C172 1.275 . S
Cd166 O165 2.300 . S
Cd166 O174 2.381 . S
Cd166 O175 2.378 . S
O167 Cd168 2.385 . S
O167 C172 1.255 . S
Cd168 O167 2.385 . S
Cd168 O169 2.317 . S
O169 Cd168 2.317 . S
O169 C170 1.232 . S
C170 O169 1.232 . S
C170 O171 1.218 . S
O171 C170 1.218 . S
C172 O165 1.275 . S
C172 O167 1.255 . S
C173 O174 1.258 . S
C173 O175 1.256 . S
O174 Cd166 2.381 . S
O174 C173 1.258 . S
O175 Cd166 2.378 . S
O175 C173 1.256 . S
C176 C177 1.349 . S
C176 C178 1.327 . S
C176 H201 0.950 . S
C177 C176 1.349 . S
C177 C193 1.349 . S
C178 C176 1.327 . S
C178 C197 1.429 . S
C178 H202 0.950 . S
C179 C196 1.574 . S
C179 C198 1.368 . S
C179 H203 0.949 . S
H180 C184 0.949 . S
C181 C182 1.349 . S
C181 C183 1.327 . S
C181 H204 0.950 . S
C182 C181 1.349 . S
C182 C194 1.349 . S
C183 C181 1.327 . S
C183 C199 1.429 . S
C183 H205 0.950 . S
C184 H180 0.949 . S
C184 C192 1.574 . S
C184 C200 1.368 . S
H185 C193 0.950 . S
H186 C191 0.950 1_556 S
H187 C192 0.949 1_554 S
H188 C194 0.950 . S
H189 C195 0.950 . S
H190 C196 0.949 . S
C191 H186 0.950 1_554 S
C191 C193 1.327 . S
C191 C197 1.429 . S
C192 C184 1.574 . S
C192 H187 0.949 1_556 S
C192 C198 1.368 . S
C193 C177 1.349 . S
C193 H185 0.950 . S
C193 C191 1.327 . S
C194 C182 1.349 . S
C194 H188 0.950 . S
C194 C195 1.327 . S
C195 H189 0.950 . S
C195 C194 1.327 . S
C195 C199 1.429 . S
C196 C179 1.574 . S
C196 H190 0.949 . S
C196 C200 1.368 . S
C197 C178 1.429 . S
C197 C191 1.429 . S
C197 C198 1.523 1_554 S
C198 C179 1.368 . S
C198 C192 1.368 . S
C198 C197 1.523 1_556 S
C199 C183 1.429 . S
C199 C195 1.429 . S
C199 C200 1.523 . S
C200 C184 1.368 . S
C200 C196 1.368 . S
C200 C199 1.523 . S
H201 C176 0.950 . S
H202 C178 0.950 . S
H203 C179 0.949 . S
H204 C181 0.950 . S
H205 C183 0.950 . S
C206 C207 1.349 . S
C206 C208 1.327 . S
C206 H231 0.950 . S
C207 C206 1.349 . S
C207 C223 1.349 . S
C208 C206 1.327 . S
C208 C227 1.429 . S
C208 H232 0.950 . S
C209 C226 1.574 . S
C209 C228 1.368 . S
C209 H233 0.949 1_565 S
H210 C214 0.949 . S
C211 C212 1.349 1_545 S
C211 C213 1.327 . S
C211 H234 0.950 . S
C212 C211 1.349 1_565 S
C212 C224 1.349 . S
C213 C211 1.327 . S
C213 C229 1.429 1_545 S
C213 H235 0.950 . S
C214 H210 0.949 . S
C214 C222 1.574 . S
C214 C230 1.368 . S
H215 C223 0.950 . S
H216 C221 0.972 . S
H217 C222 0.949 . S
H218 C224 0.950 . S
H219 C225 0.950 . S
H220 C226 0.949 1_545 S
C221 H216 0.972 . S
C221 C223 1.327 . S
C221 C227 1.429 . S
C222 C214 1.574 . S
C222 H217 0.949 . S
C222 C228 1.368 . S
C223 C207 1.349 . S
C223 H215 0.950 . S
C223 C221 1.327 . S
C224 C212 1.349 . S
C224 H218 0.950 . S
C224 C225 1.327 . S
C225 H219 0.950 . S
C225 C224 1.327 . S
C225 C229 1.429 . S
C226 C209 1.574 . S
C226 H220 0.949 1_565 S
C226 C230 1.368 . S
C227 C208 1.429 . S
C227 C221 1.429 . S
C227 C228 1.523 . S
C228 C209 1.368 . S
C228 C222 1.368 . S
C228 C227 1.523 . S
C229 C213 1.429 1_565 S
C229 C225 1.429 . S
C229 C230 1.523 . S
C230 C214 1.368 . S
C230 C226 1.368 . S
C230 C229 1.523 . S
H231 C206 0.950 . S
H232 C208 0.950 . S
H233 C209 0.949 1_545 S
H234 C211 0.950 . S
H235 C213 0.950 . S
C236 C237 1.346 . S
C236 C238 1.328 1_565 S
C236 H261 0.952 1_565 S
C237 C236 1.346 . S
C237 C253 1.349 . S
C238 C236 1.328 1_545 S
C238 C257 1.429 1_545 S
C238 H262 0.950 . S
C239 C256 1.564 1_565 S
C239 C258 1.368 1_565 S
C239 H263 0.949 . S
H240 C244 0.949 . S
C241 C242 1.349 . S
C241 C243 1.327 . S
C241 H264 0.950 . S
C242 C241 1.349 . S
C242 C254 1.349 . S
C243 C241 1.327 . S
C243 C259 1.429 . S
C243 H265 0.950 . S
C244 H240 0.949 . S
C244 C252 1.574 . S
C244 C260 1.368 . S
H245 C253 0.950 . S
H246 C251 0.950 . S
H247 C252 0.949 . S
H248 C254 0.950 . S
H249 C255 0.950 . S
H250 C256 0.916 1_565 S
C251 H246 0.950 . S
C251 C253 1.327 . S
C251 C257 1.429 . S
C252 C244 1.574 . S
C252 H247 0.949 . S
C252 C258 1.368 . S
C253 C237 1.349 . S
C253 H245 0.950 . S
C253 C251 1.327 . S
C254 C242 1.349 . S
C254 H248 0.950 . S
C254 C255 1.327 . S
C255 H249 0.950 . S
C255 C254 1.327 . S
C255 C259 1.429 . S
C256 C239 1.564 1_545 S
C256 H250 0.916 1_545 S
C256 C260 1.417 . S
C257 C238 1.429 1_565 S
C257 C251 1.429 . S
C257 C258 1.523 1_565 S
C258 C239 1.368 1_545 S
C258 C252 1.368 . S
C258 C257 1.523 1_545 S
C259 C243 1.429 . S
C259 C255 1.429 . S
C259 C260 1.523 . S
C260 C244 1.368 . S
C260 C256 1.417 . S
C260 C259 1.523 . S
H261 C236 0.952 1_545 S
H262 C238 0.950 . S
H263 C239 0.949 . S
H264 C241 0.950 . S
H265 C243 0.950 . S
C266 C267 1.349 . S
C266 C268 1.327 . S
C266 H291 0.950 . S
C267 C266 1.349 . S
C267 C283 1.349 . S
C268 C266 1.327 . S
C268 C287 1.429 . S
C268 H292 0.950 . S
C269 C286 1.574 . S
C269 C288 1.368 . S
C269 H293 0.949 . S
H270 C274 0.949 . S
C271 C272 1.349 . S
C271 C273 1.327 . S
C271 H294 0.950 . S
C272 C271 1.349 . S
C272 C284 1.349 . S
C273 C271 1.327 . S
C273 C289 1.429 . S
C273 H295 0.950 . S
C274 H270 0.949 . S
C274 C282 1.574 . S
C274 C290 1.368 . S
H275 C283 0.950 . S
H276 C281 0.950 . S
H277 C282 0.949 . S
H278 C284 0.950 . S
H279 C285 0.950 . S
H280 C286 0.949 . S
C281 H276 0.950 . S
C281 C283 1.327 . S
C281 C287 1.429 . S
C282 C274 1.574 . S
C282 H277 0.949 . S
C282 C288 1.368 . S
C283 C267 1.349 . S
C283 H275 0.950 . S
C283 C281 1.327 . S
C284 C272 1.349 . S
C284 H278 0.950 . S
C284 C285 1.327 . S
C285 H279 0.950 . S
C285 C284 1.327 . S
C285 C289 1.429 . S
C286 C269 1.574 . S
C286 H280 0.949 . S
C286 C290 1.368 . S
C287 C268 1.429 . S
C287 C281 1.429 . S
C287 C288 1.523 . S
C288 C269 1.368 . S
C288 C282 1.368 . S
C288 C287 1.523 . S
C289 C273 1.429 . S
C289 C285 1.429 . S
C289 C290 1.523 . S
C290 C274 1.368 . S
C290 C286 1.368 . S
C290 C289 1.523 . S
H291 C266 0.950 . S
H292 C268 0.950 . S
H293 C269 0.949 . S
H294 C271 0.950 . S
H295 C273 0.950 . S
C296 C297 1.349 . S
C296 C298 1.327 1_565 S
C296 H321 0.950 1_565 S
C297 C296 1.349 . S
C297 C313 1.349 . S
C298 C296 1.327 1_545 S
C298 C317 1.429 1_545 S
C298 H322 0.950 . S
C299 C316 1.574 1_565 S
C299 C318 1.368 1_565 S
C299 H323 0.949 . S
H300 C304 0.949 . S
C301 C302 1.349 . S
C301 C303 1.327 . S
C301 H324 0.950 . S
C302 C301 1.349 . S
C302 C314 1.349 . S
C303 C301 1.327 . S
C303 C319 1.429 . S
C303 H325 0.950 . S
C304 H300 0.949 . S
C304 C312 1.574 . S
C304 C320 1.368 . S
H305 C313 0.950 . S
H306 C311 0.950 . S
H307 C312 0.949 . S
H308 C314 0.950 . S
H309 C315 0.950 . S
H310 C316 0.949 1_565 S
C311 H306 0.950 . S
C311 C313 1.327 . S
C311 C317 1.429 . S
C312 C304 1.574 . S
C312 H307 0.949 . S
C312 C318 1.368 . S
C313 C297 1.349 . S
C313 H305 0.950 . S
C313 C311 1.327 . S
C314 C302 1.349 . S
C314 H308 0.950 . S
C314 C315 1.327 . S
C315 H309 0.950 . S
C315 C314 1.327 . S
C315 C319 1.429 . S
C316 C299 1.574 1_545 S
C316 H310 0.949 1_545 S
C316 C320 1.368 . S
C317 C298 1.429 1_565 S
C317 C311 1.429 . S
C317 C318 1.523 1_565 S
C318 C299 1.368 1_545 S
C318 C312 1.368 . S
C318 C317 1.523 1_545 S
C319 C303 1.429 . S
C319 C315 1.429 . S
C319 C320 1.523 . S
C320 C304 1.368 . S
C320 C316 1.368 . S
C320 C319 1.523 . S
H321 C296 0.950 1_545 S
H322 C298 0.950 . S
H323 C299 0.949 . S
H324 C301 0.950 . S
H325 C303 0.950 . S
C326 C327 1.349 . S
C326 C328 1.327 . S
C326 H351 0.950 . S
C327 C326 1.349 . S
C327 C343 1.349 . S
C328 C326 1.327 . S
C328 C347 1.429 . S
C328 H352 0.950 . S
C329 C346 1.574 . S
C329 C348 1.368 . S
C329 H353 0.949 . S
H330 C334 0.949 . S
C331 C332 1.349 . S
C331 C333 1.327 . S
C331 H354 0.950 . S
C332 C331 1.349 . S
C332 C344 1.349 . S
C333 C331 1.327 . S
C333 C349 1.429 . S
C333 H355 0.950 . S
C334 H330 0.949 . S
C334 C342 1.574 . S
C334 C350 1.368 . S
H335 C343 0.950 . S
H336 C341 0.950 . S
H337 C342 0.949 . S
H338 C344 0.950 . S
H339 C345 0.950 . S
H340 C346 0.949 . S
C341 H336 0.950 . S
C341 C343 1.327 . S
C341 C347 1.429 . S
C342 C334 1.574 . S
C342 H337 0.949 . S
C342 C348 1.368 . S
C343 C327 1.349 . S
C343 H335 0.950 . S
C343 C341 1.327 . S
C344 C332 1.349 . S
C344 H338 0.950 . S
C344 C345 1.327 . S
C345 H339 0.950 . S
C345 C344 1.327 . S
C345 C349 1.429 . S
C346 C329 1.574 . S
C346 H340 0.949 . S
C346 C350 1.368 . S
C347 C328 1.429 . S
C347 C341 1.429 . S
C347 C348 1.523 . S
C348 C329 1.368 . S
C348 C342 1.368 . S
C348 C347 1.523 . S
C349 C333 1.429 . S
C349 C345 1.429 . S
C349 C350 1.523 . S
C350 C334 1.368 . S
C350 C346 1.368 . S
C350 C349 1.523 . S
H351 C326 0.950 . S
H352 C328 0.950 . S
H353 C329 0.949 . S
H354 C331 0.950 . S
H355 C333 0.950 . S
C356 C357 1.349 . S
C356 C358 1.327 . S
C356 H381 0.950 . S
C357 C356 1.349 . S
C357 C373 1.349 . S
C358 C356 1.327 . S
C358 C377 1.429 . S
C358 H382 0.950 . S
C359 C376 1.574 . S
C359 C378 1.368 . S
C359 H383 0.949 . S
H360 C364 0.949 . S
C361 C362 1.349 . S
C361 C363 1.327 . S
C361 H384 0.950 . S
C362 C361 1.349 . S
C362 C374 1.349 . S
C363 C361 1.327 . S
C363 C379 1.429 . S
C363 H385 0.950 . S
C364 H360 0.949 . S
C364 C372 1.574 . S
C364 C380 1.368 . S
H365 C373 0.950 . S
H366 C371 0.950 . S
H367 C372 0.949 . S
H368 C374 0.950 . S
H369 C375 0.950 . S
H370 C376 0.949 . S
C371 H366 0.950 . S
C371 C373 1.327 . S
C371 C377 1.429 . S
C372 C364 1.574 . S
C372 H367 0.949 . S
C372 C378 1.368 . S
C373 C357 1.349 . S
C373 H365 0.950 . S
C373 C371 1.327 . S
C374 C362 1.349 . S
C374 H368 0.950 . S
C374 C375 1.327 . S
C375 H369 0.950 . S
C375 C374 1.327 . S
C375 C379 1.429 . S
C376 C359 1.574 . S
C376 H370 0.949 . S
C376 C380 1.368 . S
C377 C358 1.429 . S
C377 C371 1.429 . S
C377 C378 1.523 . S
C378 C359 1.368 . S
C378 C372 1.368 . S
C378 C377 1.523 . S
C379 C363 1.429 . S
C379 C375 1.429 . S
C379 C380 1.523 . S
C380 C364 1.368 . S
C380 C376 1.368 . S
C380 C379 1.523 . S
H381 C356 0.950 . S
H382 C358 0.950 . S
H383 C359 0.949 . S
H384 C361 0.950 . S
H385 C363 0.950 . S
C386 C387 1.349 . S
C386 C388 1.327 . S
C386 H411 0.950 . S
C387 C386 1.349 . S
C387 C403 1.349 . S
C388 C386 1.327 . S
C388 C407 1.429 . S
C388 H412 0.950 . S
C389 C406 1.574 . S
C389 C408 1.368 . S
C389 H413 0.949 . S
H390 C394 0.952 . S
C391 C392 1.349 . S
C391 C393 1.327 . S
C391 H414 0.950 . S
C392 C391 1.349 . S
C392 C404 1.349 1_565 S
C393 C391 1.327 . S
C393 C409 1.429 . S
C393 H415 0.950 . S
C394 H390 0.952 . S
C394 C402 1.574 . S
C394 C410 1.368 . S
H395 C403 0.950 . S
H396 C401 0.950 . S
H397 C402 0.949 . S
H398 C404 0.950 . S
H399 C405 0.950 1_545 S
H400 C406 0.949 . S
C401 H396 0.950 . S
C401 C403 1.327 . S
C401 C407 1.429 . S
C402 C394 1.574 . S
C402 H397 0.949 . S
C402 C408 1.368 . S
C403 C387 1.349 . S
C403 H395 0.950 . S
C403 C401 1.327 . S
C404 C392 1.349 1_545 S
C404 H398 0.950 . S
C404 C405 1.327 1_545 S
C405 H399 0.950 1_565 S
C405 C404 1.327 1_565 S
C405 C409 1.429 . S
C406 C389 1.574 . S
C406 H400 0.949 . S
C406 C410 1.368 . S
C407 C388 1.429 . S
C407 C401 1.429 . S
C407 C408 1.523 . S
C408 C389 1.368 . S
C408 C402 1.368 . S
C408 C407 1.523 . S
C409 C393 1.429 . S
C409 C405 1.429 . S
C409 C410 1.523 . S
C410 C394 1.368 . S
C410 C406 1.368 . S
C410 C409 1.523 . S
H411 C386 0.950 . S
H412 C388 0.950 . S
H413 C389 0.949 . S
H414 C391 0.950 . S
H415 C393 0.950 . S
C416 C417 1.349 . S
C416 C418 1.327 . S
C416 H441 0.950 . S
C417 C416 1.349 . S
C417 C433 1.349 . S
C418 C416 1.327 . S
C418 C437 1.429 . S
C418 H442 0.950 . S
C419 C436 1.574 . S
C419 C438 1.368 . S
C419 H443 0.949 . S
H420 C424 0.949 . S
C421 C422 1.349 . S
C421 C423 1.327 . S
C421 H444 0.950 . S
C422 C421 1.349 . S
C422 C434 1.349 . S
C423 C421 1.327 . S
C423 C439 1.429 . S
C423 H445 0.950 . S
C424 H420 0.949 . S
C424 C432 1.574 . S
C424 C440 1.368 . S
H425 C433 0.950 . S
H426 C431 0.950 . S
H427 C432 0.949 . S
H428 C434 0.950 . S
H429 C435 0.950 . S
H430 C436 0.949 . S
C431 H426 0.950 . S
C431 C433 1.327 . S
C431 C437 1.429 . S
C432 C424 1.574 . S
C432 H427 0.949 . S
C432 C438 1.368 . S
C433 C417 1.349 . S
C433 H425 0.950 . S
C433 C431 1.327 . S
C434 C422 1.349 . S
C434 H428 0.950 . S
C434 C435 1.327 . S
C435 H429 0.950 . S
C435 C434 1.327 . S
C435 C439 1.429 . S
C436 C419 1.574 . S
C436 H430 0.949 . S
C436 C440 1.368 . S
C437 C418 1.429 . S
C437 C431 1.429 . S
C437 C438 1.523 . S
C438 C419 1.368 . S
C438 C432 1.368 . S
C438 C437 1.523 . S
C439 C423 1.429 . S
C439 C435 1.429 . S
C439 C440 1.523 . S
C440 C424 1.368 . S
C440 C436 1.368 . S
C440 C439 1.523 . S
H441 C416 0.950 . S
H442 C418 0.950 . S
H443 C419 0.949 . S
H444 C421 0.950 . S
H445 C423 0.950 . S
C446 C447 1.349 . S
C446 C448 1.327 . S
C446 H471 0.950 . S
C447 C446 1.349 . S
C447 C463 1.349 . S
C448 C446 1.327 . S
C448 C467 1.429 . S
C448 H472 0.950 . S
C449 C466 1.574 . S
C449 C468 1.368 . S
C449 H473 0.949 . S
H450 C454 0.949 . S
C451 C452 1.349 . S
C451 C453 1.327 . S
C451 H474 0.950 . S
C452 C451 1.349 . S
C452 C464 1.349 . S
C453 C451 1.327 . S
C453 C469 1.429 . S
C453 H475 0.950 . S
C454 H450 0.949 . S
C454 C462 1.574 . S
C454 C470 1.368 . S
H455 C463 0.950 . S
H456 C461 0.950 . S
H457 C462 0.949 . S
H458 C464 0.950 . S
H459 C465 0.950 . S
H460 C466 0.949 . S
C461 H456 0.950 . S
C461 C463 1.327 . S
C461 C467 1.429 . S
C462 C454 1.574 . S
C462 H457 0.949 . S
C462 C468 1.368 . S
C463 C447 1.349 . S
C463 H455 0.950 . S
C463 C461 1.327 . S
C464 C452 1.349 . S
C464 H458 0.950 . S
C464 C465 1.327 . S
C465 H459 0.950 . S
C465 C464 1.327 . S
C465 C469 1.429 . S
C466 C449 1.574 . S
C466 H460 0.949 . S
C466 C470 1.368 . S
C467 C448 1.429 . S
C467 C461 1.429 . S
C467 C468 1.523 . S
C468 C449 1.368 . S
C468 C462 1.368 . S
C468 C467 1.523 . S
C469 C453 1.429 . S
C469 C465 1.429 . S
C469 C470 1.523 . S
C470 C454 1.368 . S
C470 C466 1.368 . S
C470 C469 1.523 . S
H471 C446 0.950 . S
H472 C448 0.950 . S
H473 C449 0.949 . S
H474 C451 0.950 . S
H475 C453 0.950 . S
C476 C477 1.349 . S
C476 C478 1.327 . S
C476 H501 0.950 . S
C477 C476 1.349 . S
C477 C493 1.349 . S
C478 C476 1.327 . S
C478 C497 1.429 1_554 S
C478 H502 0.950 . S
C479 C496 1.574 . S
C479 C498 1.368 . S
C479 H503 0.949 . S
H480 C484 0.949 . S
C481 C482 1.349 . S
C481 C483 1.327 . S
C481 H504 0.950 . S
C482 C481 1.349 . S
C482 C494 1.349 . S
C483 C481 1.327 . S
C483 C499 1.429 . S
C483 H505 0.950 . S
C484 H480 0.949 . S
C484 C492 1.574 . S
C484 C500 1.368 . S
H485 C493 0.950 . S
H486 C491 0.950 . S
H487 C492 0.949 . S
H488 C494 0.950 . S
H489 C495 0.950 . S
H490 C496 0.949 . S
C491 H486 0.950 . S
C491 C493 1.327 1_556 S
C491 C497 1.429 . S
C492 C484 1.574 . S
C492 H487 0.949 . S
C492 C498 1.368 . S
C493 C477 1.349 . S
C493 H485 0.950 . S
C493 C491 1.327 1_554 S
C494 C482 1.349 . S
C494 H488 0.950 . S
C494 C495 1.327 . S
C495 H489 0.950 . S
C495 C494 1.327 . S
C495 C499 1.429 . S
C496 C479 1.574 . S
C496 H490 0.949 . S
C496 C500 1.368 . S
C497 C478 1.429 1_556 S
C497 C491 1.429 . S
C497 C498 1.523 . S
C498 C479 1.368 . S
C498 C492 1.368 . S
C498 C497 1.523 . S
C499 C483 1.429 . S
C499 C495 1.429 . S
C499 C500 1.523 . S
C500 C484 1.368 . S
C500 C496 1.368 . S
C500 C499 1.523 . S
H501 C476 0.950 . S
H502 C478 0.950 . S
H503 C479 0.949 . S
H504 C481 0.950 . S
H505 C483 0.950 . S
C506 C507 1.349 . S
C506 C508 1.327 . S
C506 H531 0.950 . S
C507 C506 1.349 . S
C507 C523 1.349 . S
C508 C506 1.327 . S
C508 C527 1.429 . S
C508 H532 0.950 . S
C509 C526 1.574 . S
C509 C528 1.368 . S
C509 H533 0.949 . S
H510 C514 0.949 . S
C511 C512 1.349 . S
C511 C513 1.327 . S
C511 H534 0.950 . S
C512 C511 1.349 . S
C512 C524 1.349 . S
C513 C511 1.327 . S
C513 C529 1.429 . S
C513 H535 0.950 . S
C514 H510 0.949 . S
C514 C522 1.574 . S
C514 C530 1.368 . S
H515 C523 0.950 . S
H516 C521 0.950 . S
H517 C522 0.949 . S
H518 C524 0.950 . S
H519 C525 0.950 . S
H520 C526 0.949 . S
C521 H516 0.950 . S
C521 C523 1.327 . S
C521 C527 1.429 . S
C522 C514 1.574 . S
C522 H517 0.949 . S
C522 C528 1.368 . S
C523 C507 1.349 . S
C523 H515 0.950 . S
C523 C521 1.327 . S
C524 C512 1.349 . S
C524 H518 0.950 . S
C524 C525 1.327 . S
C525 H519 0.950 . S
C525 C524 1.327 . S
C525 C529 1.429 . S
C526 C509 1.574 . S
C526 H520 0.949 . S
C526 C530 1.368 . S
C527 C508 1.429 . S
C527 C521 1.429 . S
C527 C528 1.523 . S
C528 C509 1.368 . S
C528 C522 1.368 . S
C528 C527 1.523 . S
C529 C513 1.429 . S
C529 C525 1.429 . S
C529 C530 1.523 . S
C530 C514 1.368 . S
C530 C526 1.368 . S
C530 C529 1.523 . S
H531 C506 0.950 . S
H532 C508 0.950 . S
H533 C509 0.949 . S
H534 C511 0.950 . S
H535 C513 0.950 . S
C536 C537 1.349 . S
C536 C538 1.327 . S
C536 H561 0.950 . S
C537 C536 1.349 . S
C537 C553 1.349 . S
C538 C536 1.327 . S
C538 C557 1.429 . S
C538 H562 0.950 . S
C539 C556 1.574 . S
C539 C558 1.368 . S
C539 H563 0.949 . S
H540 C544 0.949 . S
C541 C542 1.349 . S
C541 C543 1.327 . S
C541 H564 0.950 . S
C542 C541 1.349 . S
C542 C554 1.349 . S
C543 C541 1.327 . S
C543 C559 1.429 . S
C543 H565 0.950 . S
C544 H540 0.949 . S
C544 C552 1.574 . S
C544 C560 1.368 . S
H545 C553 0.950 . S
H546 C551 0.950 . S
H547 C552 0.949 . S
H548 C554 0.950 . S
H549 C555 0.950 . S
H550 C556 0.949 . S
C551 H546 0.950 . S
C551 C553 1.327 . S
C551 C557 1.429 . S
C552 C544 1.574 . S
C552 H547 0.949 . S
C552 C558 1.368 . S
C553 C537 1.349 . S
C553 H545 0.950 . S
C553 C551 1.327 . S
C554 C542 1.349 . S
C554 H548 0.950 . S
C554 C555 1.327 . S
C555 H549 0.950 . S
C555 C554 1.327 . S
C555 C559 1.429 . S
C556 C539 1.574 . S
C556 H550 0.949 . S
C556 C560 1.368 . S
C557 C538 1.429 . S
C557 C551 1.429 . S
C557 C558 1.523 . S
C558 C539 1.368 . S
C558 C552 1.368 . S
C558 C557 1.523 . S
C559 C543 1.429 . S
C559 C555 1.429 . S
C559 C560 1.523 . S
C560 C544 1.368 . S
C560 C556 1.368 . S
C560 C559 1.523 . S
H561 C536 0.950 . S
H562 C538 0.950 . S
H563 C539 0.949 . S
H564 C541 0.950 . S
H565 C543 0.950 . S
C566 C567 1.349 . S
C566 C568 1.327 . S
C566 H591 0.950 . S
C567 C566 1.349 . S
C567 C583 1.349 . S
C568 C566 1.327 . S
C568 C587 1.429 . S
C568 H592 0.950 . S
C569 C586 1.574 . S
C569 C588 1.368 . S
C569 H593 0.949 . S
H570 C574 0.949 . S
C571 C572 1.349 . S
C571 C573 1.327 . S
C571 H594 0.950 . S
C572 C571 1.349 . S
C572 C584 1.349 . S
C573 C571 1.327 . S
C573 C589 1.429 . S
C573 H595 0.950 . S
C574 H570 0.949 . S
C574 C582 1.574 . S
C574 C590 1.368 . S
H575 C583 0.950 . S
H576 C581 0.950 . S
H577 C582 0.949 . S
H578 C584 0.950 . S
H579 C585 0.950 . S
H580 C586 0.949 . S
C581 H576 0.950 . S
C581 C583 1.327 . S
C581 C587 1.429 . S
C582 C574 1.574 . S
C582 H577 0.949 . S
C582 C588 1.368 . S
C583 C567 1.349 . S
C583 H575 0.950 . S
C583 C581 1.327 . S
C584 C572 1.349 . S
C584 H578 0.950 . S
C584 C585 1.327 . S
C585 H579 0.950 . S
C585 C584 1.327 . S
C585 C589 1.429 . S
C586 C569 1.574 . S
C586 H580 0.949 . S
C586 C590 1.368 . S
C587 C568 1.429 . S
C587 C581 1.429 . S
C587 C588 1.523 . S
C588 C569 1.368 . S
C588 C582 1.368 . S
C588 C587 1.523 . S
C589 C573 1.429 . S
C589 C585 1.429 . S
C589 C590 1.523 . S
C590 C574 1.368 . S
C590 C586 1.368 . S
C590 C589 1.523 . S
H591 C566 0.950 . S
H592 C568 0.950 . S
H593 C569 0.949 . S
H594 C571 0.950 . S
H595 C573 0.950 . S
C596 C597 1.349 . S
C596 C598 1.327 . S
C596 H621 0.950 . S
C597 C596 1.349 . S
C597 C613 1.349 . S
C598 C596 1.327 . S
C598 C617 1.429 . S
C598 H622 0.950 . S
C599 C616 1.574 . S
C599 C618 1.368 . S
C599 H623 0.949 . S
H600 C604 0.949 . S
C601 C602 1.349 . S
C601 C603 1.327 . S
C601 H624 0.950 . S
C602 C601 1.349 . S
C602 C614 1.349 . S
C603 C601 1.327 . S
C603 C619 1.429 . S
C603 H625 0.950 . S
C604 H600 0.949 . S
C604 C612 1.574 . S
C604 C620 1.368 . S
H605 C613 0.950 . S
H606 C611 0.950 . S
H607 C612 0.949 . S
H608 C614 0.950 . S
H609 C615 0.950 . S
H610 C616 0.949 . S
C611 H606 0.950 . S
C611 C613 1.327 . S
C611 C617 1.429 . S
C612 C604 1.574 . S
C612 H607 0.949 . S
C612 C618 1.368 . S
C613 C597 1.349 . S
C613 H605 0.950 . S
C613 C611 1.327 . S
C614 C602 1.349 . S
C614 H608 0.950 . S
C614 C615 1.327 . S
C615 H609 0.950 . S
C615 C614 1.327 . S
C615 C619 1.429 . S
C616 C599 1.574 . S
C616 H610 0.949 . S
C616 C620 1.368 . S
C617 C598 1.429 . S
C617 C611 1.429 . S
C617 C618 1.523 . S
C618 C599 1.368 . S
C618 C612 1.368 . S
C618 C617 1.523 . S
C619 C603 1.429 . S
C619 C615 1.429 . S
C619 C620 1.523 . S
C620 C604 1.368 . S
C620 C616 1.368 . S
C620 C619 1.523 . S
H621 C596 0.950 . S
H622 C598 0.950 . S
H623 C599 0.949 . S
H624 C601 0.950 . S
H625 C603 0.950 . S
C626 C627 1.349 1_556 S
C626 C628 1.327 . S
C626 H651 0.950 . S
C627 C626 1.349 1_554 S
C627 C643 1.349 . S
C628 C626 1.327 . S
C628 C647 1.429 . S
C628 H652 0.950 . S
C629 C646 1.574 . S
C629 C648 1.368 . S
C629 H653 0.949 . S
H630 C634 0.949 . S
C631 C632 1.349 . S
C631 C633 1.327 . S
C631 H654 0.950 . S
C632 C631 1.349 . S
C632 C644 1.349 . S
C633 C631 1.327 . S
C633 C649 1.429 . S
C633 H655 0.950 . S
C634 H630 0.949 . S
C634 C642 1.574 . S
C634 C650 1.368 . S
H635 C643 0.950 . S
H636 C641 0.950 . S
H637 C642 0.949 . S
H638 C644 0.950 . S
H639 C645 0.950 . S
H640 C646 0.949 . S
C641 H636 0.950 . S
C641 C643 1.327 1_556 S
C641 C647 1.429 . S
C642 C634 1.574 . S
C642 H637 0.949 . S
C642 C648 1.368 . S
C643 C627 1.349 . S
C643 H635 0.950 . S
C643 C641 1.327 1_554 S
C644 C632 1.349 . S
C644 H638 0.950 . S
C644 C645 1.327 . S
C645 H639 0.950 . S
C645 C644 1.327 . S
C645 C649 1.429 . S
C646 C629 1.574 . S
C646 H640 0.949 . S
C646 C650 1.368 . S
C647 C628 1.429 . S
C647 C641 1.429 . S
C647 C648 1.523 . S
C648 C629 1.368 . S
C648 C642 1.368 . S
C648 C647 1.523 . S
C649 C633 1.429 . S
C649 C645 1.429 . S
C649 C650 1.523 . S
C650 C634 1.368 . S
C650 C646 1.368 . S
C650 C649 1.523 . S
H651 C626 0.950 . S
H652 C628 0.950 . S
H653 C629 0.949 . S
H654 C631 0.950 . S
H655 C633 0.950 . S
C656 C657 1.349 . S
C656 C658 1.327 . S
C656 H681 0.950 . S
C657 C656 1.349 . S
C657 C673 1.349 . S
C658 C656 1.327 . S
C658 C677 1.429 . S
C658 H682 0.950 . S
C659 C676 1.626 . S
C659 C678 1.368 . S
C659 H683 0.949 . S
H660 C664 0.949 . S
C661 C662 1.349 . S
C661 C663 1.327 . S
C661 H684 0.950 . S
C662 C661 1.349 . S
C662 C674 1.349 . S
C663 C661 1.327 . S
C663 C679 1.429 . S
C663 H685 0.950 . S
C664 H660 0.949 . S
C664 C672 1.574 . S
C664 C680 1.368 . S
H665 C673 0.950 . S
H666 C671 0.950 . S
H667 C672 0.949 . S
H668 C674 0.950 . S
H669 C675 0.950 . S
H670 C676 0.913 1_455 S
C671 H666 0.950 . S
C671 C673 1.327 . S
C671 C677 1.429 . S
C672 C664 1.574 . S
C672 H667 0.949 . S
C672 C678 1.368 . S
C673 C657 1.349 . S
C673 H665 0.950 . S
C673 C671 1.327 . S
C674 C662 1.349 . S
C674 H668 0.950 . S
C674 C675 1.327 . S
C675 H669 0.950 . S
C675 C674 1.327 . S
C675 C679 1.429 . S
C676 C659 1.626 . S
C676 H670 0.913 1_655 S
C676 C680 1.358 . S
C677 C658 1.429 . S
C677 C671 1.429 . S
C677 C678 1.523 . S
C678 C659 1.368 . S
C678 C672 1.368 . S
C678 C677 1.523 . S
C679 C663 1.429 . S
C679 C675 1.429 . S
C679 C680 1.523 1_455 S
C680 C664 1.368 . S
C680 C676 1.358 . S
C680 C679 1.523 1_655 S
H681 C656 0.950 . S
H682 C658 0.950 . S
H683 C659 0.949 . S
H684 C661 0.950 . S
H685 C663 0.950 . S
C686 C687 1.349 . S
C686 C688 1.327 . S
C686 H711 0.950 . S
C687 C686 1.349 . S
C687 C703 1.349 . S
C688 C686 1.327 . S
C688 C707 1.429 . S
C688 H712 0.950 . S
C689 C706 1.574 . S
C689 C708 1.368 . S
C689 H713 0.949 . S
H690 C694 0.949 . S
C691 C692 1.349 . S
C691 C693 1.327 . S
C691 H714 0.950 . S
C692 C691 1.349 . S
C692 C704 1.349 . S
C693 C691 1.327 . S
C693 C709 1.429 . S
C693 H715 0.950 . S
C694 H690 0.949 . S
C694 C702 1.574 . S
C694 C710 1.368 . S
H695 C703 0.950 . S
H696 C701 0.950 . S
H697 C702 0.949 . S
H698 C704 0.950 . S
H699 C705 0.950 . S
H700 C706 0.949 . S
C701 H696 0.950 . S
C701 C703 1.327 . S
C701 C707 1.429 . S
C702 C694 1.574 . S
C702 H697 0.949 . S
C702 C708 1.368 . S
C703 C687 1.349 . S
C703 H695 0.950 . S
C703 C701 1.327 . S
C704 C692 1.349 . S
C704 H698 0.950 . S
C704 C705 1.327 . S
C705 H699 0.950 . S
C705 C704 1.327 . S
C705 C709 1.429 . S
C706 C689 1.574 . S
C706 H700 0.949 . S
C706 C710 1.368 . S
C707 C688 1.429 . S
C707 C701 1.429 . S
C707 C708 1.523 . S
C708 C689 1.368 . S
C708 C702 1.368 . S
C708 C707 1.523 . S
C709 C693 1.429 . S
C709 C705 1.429 . S
C709 C710 1.523 . S
C710 C694 1.368 . S
C710 C706 1.368 . S
C710 C709 1.523 . S
H711 C686 0.950 . S
H712 C688 0.950 . S
H713 C689 0.949 . S
H714 C691 0.950 . S
H715 C693 0.950 . S
C716 C717 1.349 . S
C716 C718 1.327 . S
C716 H741 0.950 . S
C717 C716 1.349 . S
C717 C733 1.349 . S
C718 C716 1.327 . S
C718 C737 1.429 . S
C718 H742 0.950 . S
C719 C736 1.574 . S
C719 C738 1.368 . S
C719 H743 0.949 . S
H720 C724 0.949 . S
C721 C722 1.349 . S
C721 C723 1.327 . S
C721 H744 0.950 . S
C722 C721 1.349 . S
C722 C734 1.349 . S
C723 C721 1.327 . S
C723 C739 1.429 . S
C723 H745 0.950 . S
C724 H720 0.949 . S
C724 C732 1.574 . S
C724 C740 1.368 . S
H725 C733 0.950 . S
H726 C731 0.950 . S
H727 C732 0.949 . S
H728 C734 0.950 . S
H729 C735 0.950 . S
H730 C736 0.949 . S
C731 H726 0.950 . S
C731 C733 1.327 . S
C731 C737 1.429 . S
C732 C724 1.574 . S
C732 H727 0.949 . S
C732 C738 1.368 . S
C733 C717 1.349 . S
C733 H725 0.950 . S
C733 C731 1.327 . S
C734 C722 1.349 . S
C734 H728 0.950 . S
C734 C735 1.327 . S
C735 H729 0.950 . S
C735 C734 1.327 . S
C735 C739 1.429 . S
C736 C719 1.574 . S
C736 H730 0.949 . S
C736 C740 1.368 . S
C737 C718 1.429 . S
C737 C731 1.429 . S
C737 C738 1.523 . S
C738 C719 1.368 . S
C738 C732 1.368 . S
C738 C737 1.523 . S
C739 C723 1.429 . S
C739 C735 1.429 . S
C739 C740 1.523 . S
C740 C724 1.368 . S
C740 C736 1.368 . S
C740 C739 1.523 . S
H741 C716 0.950 . S
H742 C718 0.950 . S
H743 C719 0.949 . S
H744 C721 0.950 . S
H745 C723 0.950 . S
C746 C747 1.349 . S
C746 C748 1.327 . S
C746 H771 0.950 . S
C747 C746 1.349 . S
C747 C763 1.349 . S
C748 C746 1.327 . S
C748 C767 1.429 . S
C748 H772 0.950 . S
C749 C766 1.574 . S
C749 C768 1.368 . S
C749 H773 0.949 . S
H750 C754 0.949 . S
C751 C752 1.349 . S
C751 C753 1.327 . S
C751 H774 0.950 . S
C752 C751 1.349 . S
C752 C764 1.349 . S
C753 C751 1.327 . S
C753 C769 1.429 . S
C753 H775 0.950 . S
C754 H750 0.949 . S
C754 C762 1.574 . S
C754 C770 1.368 . S
H755 C763 0.950 . S
H756 C761 0.950 . S
H757 C762 0.949 . S
H758 C764 0.950 . S
H759 C765 0.950 . S
H760 C766 0.949 . S
C761 H756 0.950 . S
C761 C763 1.327 . S
C761 C767 1.429 . S
C762 C754 1.574 . S
C762 H757 0.949 . S
C762 C768 1.368 . S
C763 C747 1.349 . S
C763 H755 0.950 . S
C763 C761 1.327 . S
C764 C752 1.349 . S
C764 H758 0.950 . S
C764 C765 1.327 . S
C765 H759 0.950 . S
C765 C764 1.327 . S
C765 C769 1.429 . S
C766 C749 1.574 . S
C766 H760 0.949 . S
C766 C770 1.368 . S
C767 C748 1.429 . S
C767 C761 1.429 . S
C767 C768 1.523 . S
C768 C749 1.368 . S
C768 C762 1.368 . S
C768 C767 1.523 . S
C769 C753 1.429 . S
C769 C765 1.429 . S
C769 C770 1.523 . S
C770 C754 1.368 . S
C770 C766 1.368 . S
C770 C769 1.523 . S
H771 C746 0.950 . S
H772 C748 0.950 . S
H773 C749 0.949 . S
H774 C751 0.950 . S
H775 C753 0.950 . S
C776 C777 1.349 . S
C776 C778 1.327 . S
C776 H801 0.950 . S
C777 C776 1.349 . S
C777 C793 1.349 . S
C778 C776 1.327 . S
C778 C797 1.429 . S
C778 H802 0.950 . S
C779 C796 1.574 . S
C779 C798 1.368 . S
C779 H803 0.949 . S
H780 C784 0.949 . S
C781 C782 1.349 . S
C781 C783 1.327 . S
C781 H804 0.950 . S
C782 C781 1.349 . S
C782 C794 1.349 . S
C783 C781 1.327 . S
C783 C799 1.429 . S
C783 H805 0.950 . S
C784 H780 0.949 . S
C784 C792 1.574 . S
C784 C800 1.368 . S
H785 C793 0.950 . S
H786 C791 0.950 . S
H787 C792 0.949 . S
H788 C794 0.950 . S
H789 C795 0.950 . S
H790 C796 0.949 . S
C791 H786 0.950 . S
C791 C793 1.327 . S
C791 C797 1.429 . S
C792 C784 1.574 . S
C792 H787 0.949 . S
C792 C798 1.368 . S
C793 C777 1.349 . S
C793 H785 0.950 . S
C793 C791 1.327 . S
C794 C782 1.349 . S
C794 H788 0.950 . S
C794 C795 1.327 . S
C795 H789 0.950 . S
C795 C794 1.327 . S
C795 C799 1.429 . S
C796 C779 1.574 . S
C796 H790 0.949 . S
C796 C800 1.368 . S
C797 C778 1.429 . S
C797 C791 1.429 . S
C797 C798 1.523 . S
C798 C779 1.368 . S
C798 C792 1.368 . S
C798 C797 1.523 . S
C799 C783 1.429 . S
C799 C795 1.429 . S
C799 C800 1.523 . S
C800 C784 1.368 . S
C800 C796 1.368 . S
C800 C799 1.523 . S
H801 C776 0.950 . S
H802 C778 0.950 . S
H803 C779 0.949 . S
H804 C781 0.950 . S
H805 C783 0.950 . S
C806 C807 1.349 . S
C806 C808 1.327 . S
C806 H831 0.950 . S
C807 C806 1.349 . S
C807 C823 1.349 . S
C808 C806 1.327 . S
C808 C827 1.429 . S
C808 H832 0.950 . S
C809 C826 1.574 . S
C809 C828 1.368 . S
C809 H833 0.949 . S
H810 C814 0.949 . S
C811 C812 1.349 . S
C811 C813 1.327 . S
C811 H834 0.950 . S
C812 C811 1.349 . S
C812 C824 1.349 . S
C813 C811 1.327 . S
C813 C829 1.429 . S
C813 H835 0.950 . S
C814 H810 0.949 . S
C814 C822 1.574 . S
C814 C830 1.368 . S
H815 C823 0.950 . S
H816 C821 0.950 . S
H817 C822 0.949 . S
H818 C824 0.950 . S
H819 C825 0.950 . S
H820 C826 0.949 . S
C821 H816 0.950 . S
C821 C823 1.327 . S
C821 C827 1.429 . S
C822 C814 1.574 . S
C822 H817 0.949 . S
C822 C828 1.368 . S
C823 C807 1.349 . S
C823 H815 0.950 . S
C823 C821 1.327 . S
C824 C812 1.349 . S
C824 H818 0.950 . S
C824 C825 1.327 . S
C825 H819 0.950 . S
C825 C824 1.327 . S
C825 C829 1.429 . S
C826 C809 1.574 . S
C826 H820 0.949 . S
C826 C830 1.368 . S
C827 C808 1.429 . S
C827 C821 1.429 . S
C827 C828 1.523 . S
C828 C809 1.368 . S
C828 C822 1.368 . S
C828 C827 1.523 . S
C829 C813 1.429 . S
C829 C825 1.429 . S
C829 C830 1.523 . S
C830 C814 1.368 . S
C830 C826 1.368 . S
C830 C829 1.523 . S
H831 C806 0.950 . S
H832 C808 0.950 . S
H833 C809 0.949 . S
H834 C811 0.950 . S
H835 C813 0.950 . S
C836 C837 1.349 . S
C836 C838 1.327 . S
C836 H861 0.950 . S
C837 C836 1.349 . S
C837 C853 1.349 . S
C838 C836 1.327 . S
C838 C857 1.429 . S
C838 H862 0.950 . S
C839 C856 1.574 . S
C839 C858 1.368 . S
C839 H863 0.949 . S
H840 C844 0.949 . S
C841 C842 1.349 . S
C841 C843 1.327 . S
C841 H864 0.950 . S
C842 C841 1.349 . S
C842 C854 1.349 . S
C843 C841 1.327 . S
C843 C859 1.429 . S
C843 H865 0.950 . S
C844 H840 0.949 . S
C844 C852 1.574 . S
C844 C860 1.368 . S
H845 C853 0.950 . S
H846 C851 0.950 . S
H847 C852 0.949 . S
H848 C854 0.950 . S
H849 C855 0.950 . S
H850 C856 0.949 . S
C851 H846 0.950 . S
C851 C853 1.327 . S
C851 C857 1.429 . S
C852 C844 1.574 . S
C852 H847 0.949 . S
C852 C858 1.368 . S
C853 C837 1.349 . S
C853 H845 0.950 . S
C853 C851 1.327 . S
C854 C842 1.349 . S
C854 H848 0.950 . S
C854 C855 1.327 . S
C855 H849 0.950 . S
C855 C854 1.327 . S
C855 C859 1.429 . S
C856 C839 1.574 . S
C856 H850 0.949 . S
C856 C860 1.368 . S
C857 C838 1.429 . S
C857 C851 1.429 . S
C857 C858 1.523 . S
C858 C839 1.368 . S
C858 C852 1.368 . S
C858 C857 1.523 . S
C859 C843 1.429 . S
C859 C855 1.429 . S
C859 C860 1.523 . S
C860 C844 1.368 . S
C860 C856 1.368 . S
C860 C859 1.523 . S
H861 C836 0.950 . S
H862 C838 0.950 . S
H863 C839 0.949 . S
H864 C841 0.950 . S
H865 C843 0.950 . S
C866 C867 1.349 . S
C866 C868 1.327 . S
C866 H891 0.950 . S
C867 C866 1.349 . S
C867 C883 1.349 . S
C868 C866 1.327 . S
C868 C887 1.429 . S
C868 H892 0.950 . S
C869 C886 1.636 . S
C869 C888 1.368 . S
C869 H893 0.949 . S
H870 C874 0.949 . S
C871 C872 1.349 . S
C871 C873 1.327 . S
C871 H894 0.950 . S
C872 C871 1.349 . S
C872 C884 1.349 . S
C873 C871 1.327 . S
C873 C889 1.429 . S
C873 H895 0.950 . S
C874 H870 0.949 . S
C874 C882 1.574 . S
C874 C890 1.368 . S
H875 C883 0.950 . S
H876 C881 0.950 . S
H877 C882 0.949 . S
H878 C884 0.950 . S
H879 C885 0.950 . S
H880 C886 0.913 1_455 S
C881 H876 0.950 . S
C881 C883 1.327 . S
C881 C887 1.429 . S
C882 C874 1.574 . S
C882 H877 0.949 . S
C882 C888 1.368 . S
C883 C867 1.349 . S
C883 H875 0.950 . S
C883 C881 1.327 . S
C884 C872 1.349 . S
C884 H878 0.950 . S
C884 C885 1.327 . S
C885 H879 0.950 . S
C885 C884 1.327 . S
C885 C889 1.429 . S
C886 C869 1.636 . S
C886 H880 0.913 1_655 S
C886 C890 1.350 . S
C887 C868 1.429 . S
C887 C881 1.429 . S
C887 C888 1.523 . S
C888 C869 1.368 . S
C888 C882 1.368 . S
C888 C887 1.523 . S
C889 C873 1.429 . S
C889 C885 1.429 . S
C889 C890 1.523 1_455 S
C890 C874 1.368 . S
C890 C886 1.350 . S
C890 C889 1.523 1_655 S
H891 C866 0.950 . S
H892 C868 0.950 . S
H893 C869 0.949 . S
H894 C871 0.950 . S
H895 C873 0.950 . S
C177 C7 1.460 . S
C182 C38 1.382 . S
C207 C16 1.379 . S
C212 C8 1.518 1_565 S
C237 C19 1.517 . S
C242 C27 1.327 . S
C267 C41 1.513 . S
C272 C30 1.517 . S
C297 C85 1.505 . S
C302 C49 1.308 . S
C327 C52 1.504 1_556 S
C332 C63 1.498 . S
C357 C73 1.501 . S
C362 C60 1.293 . S
C387 C82 1.333 . S
C392 C74 1.559 . S
C417 C126 1.382 . S
C422 C95 1.460 . S
C447 C96 1.539 . S
C452 C104 1.380 . S
C477 C115 1.327 . S
C482 C107 1.517 . S
C507 C118 1.517 . S
C512 C129 1.513 . S
C537 C137 1.308 . S
C542 C173 1.506 . S
C567 C151 1.498 . S
C572 C140 1.504 . S
C597 C148 1.293 . S
C602 C161 1.501 . S
C627 C162 1.558 . S
C632 C170 1.332 . S
C657 C51 1.489 . S
C662 C5 1.285 . S
C687 C150 1.469 . S
C692 C18 1.493 . S
C717 C29 1.511 . S
C722 C71 1.388 . S
C747 C172 1.479 . S
C752 C40 1.494 . S
C777 C106 1.494 . S
C782 C62 1.469 . S
C807 C84 1.478 . S
C812 C128 1.493 . S
C837 C139 1.488 . S
C842 C93 1.284 . S
C867 C117 1.512 . S
C872 C159 1.389 . S
