# Generated by pormake.
# Topology zfj, (5)-cn, num edge types: 1
# Building blocks:
#     Node 0, Type 0, BuildingBlock: BEQFEK_clean_sbu_0, # of connection points: 5
#     Node 1, Type 0, BuildingBlock: BEQFEK_clean_sbu_0, # of connection points: 5
#     Node 2, Type 0, BuildingBlock: BEQFEK_clean_sbu_0, # of connection points: 5
#     Node 3, Type 0, BuildingBlock: BEQFEK_clean_sbu_0, # of connection points: 5
#     Node 4, Type 0, BuildingBlock: BEQFEK_clean_sbu_0, # of connection points: 5
#     Node 5, Type 0, BuildingBlock: BEQFEK_clean_sbu_0, # of connection points: 5
#     Node 6, Type 0, BuildingBlock: BEQFEK_clean_sbu_0, # of connection points: 5
#     Node 7, Type 0, BuildingBlock: BEQFEK_clean_sbu_0, # of connection points: 5
#     Node 8, Type 0, BuildingBlock: BEQFEK_clean_sbu_0, # of connection points: 5
#     Node 9, Type 0, BuildingBlock: BEQFEK_clean_sbu_0, # of connection points: 5
#     Node 10, Type 0, BuildingBlock: BEQFEK_clean_sbu_0, # of connection points: 5
#     Node 11, Type 0, BuildingBlock: BEQFEK_clean_sbu_0, # of connection points: 5
#     Node 12, Type 0, BuildingBlock: BEQFEK_clean_sbu_0, # of connection points: 5
#     Node 13, Type 0, BuildingBlock: BEQFEK_clean_sbu_0, # of connection points: 5
#     Node 14, Type 0, BuildingBlock: BEQFEK_clean_sbu_0, # of connection points: 5
#     Node 15, Type 0, BuildingBlock: BEQFEK_clean_sbu_0, # of connection points: 5
#     Edge 16, Type (0, 0), BuildingBlock: MIFKUJ_clean_linker_0, # of connection points: 2
#     Edge 17, Type (0, 0), BuildingBlock: MIFKUJ_clean_linker_0, # of connection points: 2
#     Edge 18, Type (0, 0), BuildingBlock: MIFKUJ_clean_linker_0, # of connection points: 2
#     Edge 19, Type (0, 0), BuildingBlock: MIFKUJ_clean_linker_0, # of connection points: 2
#     Edge 20, Type (0, 0), BuildingBlock: MIFKUJ_clean_linker_0, # of connection points: 2
#     Edge 21, Type (0, 0), BuildingBlock: MIFKUJ_clean_linker_0, # of connection points: 2
#     Edge 22, Type (0, 0), BuildingBlock: MIFKUJ_clean_linker_0, # of connection points: 2
#     Edge 23, Type (0, 0), BuildingBlock: MIFKUJ_clean_linker_0, # of connection points: 2
#     Edge 24, Type (0, 0), BuildingBlock: MIFKUJ_clean_linker_0, # of connection points: 2
#     Edge 25, Type (0, 0), BuildingBlock: MIFKUJ_clean_linker_0, # of connection points: 2
#     Edge 26, Type (0, 0), BuildingBlock: MIFKUJ_clean_linker_0, # of connection points: 2
#     Edge 27, Type (0, 0), BuildingBlock: MIFKUJ_clean_linker_0, # of connection points: 2
#     Edge 28, Type (0, 0), BuildingBlock: MIFKUJ_clean_linker_0, # of connection points: 2
#     Edge 29, Type (0, 0), BuildingBlock: MIFKUJ_clean_linker_0, # of connection points: 2
#     Edge 30, Type (0, 0), BuildingBlock: MIFKUJ_clean_linker_0, # of connection points: 2
#     Edge 31, Type (0, 0), BuildingBlock: MIFKUJ_clean_linker_0, # of connection points: 2
#     Edge 32, Type (0, 0), BuildingBlock: MIFKUJ_clean_linker_0, # of connection points: 2
#     Edge 33, Type (0, 0), BuildingBlock: MIFKUJ_clean_linker_0, # of connection points: 2
#     Edge 34, Type (0, 0), BuildingBlock: MIFKUJ_clean_linker_0, # of connection points: 2
#     Edge 35, Type (0, 0), BuildingBlock: MIFKUJ_clean_linker_0, # of connection points: 2
#     Edge 36, Type (0, 0), BuildingBlock: MIFKUJ_clean_linker_0, # of connection points: 2
#     Edge 37, Type (0, 0), BuildingBlock: MIFKUJ_clean_linker_0, # of connection points: 2
#     Edge 38, Type (0, 0), BuildingBlock: MIFKUJ_clean_linker_0, # of connection points: 2
#     Edge 39, Type (0, 0), BuildingBlock: MIFKUJ_clean_linker_0, # of connection points: 2
#     Edge 40, Type (0, 0), BuildingBlock: MIFKUJ_clean_linker_0, # of connection points: 2
#     Edge 41, Type (0, 0), BuildingBlock: MIFKUJ_clean_linker_0, # of connection points: 2
#     Edge 42, Type (0, 0), BuildingBlock: MIFKUJ_clean_linker_0, # of connection points: 2
#     Edge 43, Type (0, 0), BuildingBlock: MIFKUJ_clean_linker_0, # of connection points: 2
#     Edge 44, Type (0, 0), BuildingBlock: MIFKUJ_clean_linker_0, # of connection points: 2
#     Edge 45, Type (0, 0), BuildingBlock: MIFKUJ_clean_linker_0, # of connection points: 2
#     Edge 46, Type (0, 0), BuildingBlock: MIFKUJ_clean_linker_0, # of connection points: 2
#     Edge 47, Type (0, 0), BuildingBlock: MIFKUJ_clean_linker_0, # of connection points: 2
#     Edge 48, Type (0, 0), BuildingBlock: MIFKUJ_clean_linker_0, # of connection points: 2
#     Edge 49, Type (0, 0), BuildingBlock: MIFKUJ_clean_linker_0, # of connection points: 2
#     Edge 50, Type (0, 0), BuildingBlock: MIFKUJ_clean_linker_0, # of connection points: 2
#     Edge 51, Type (0, 0), BuildingBlock: MIFKUJ_clean_linker_0, # of connection points: 2
#     Edge 52, Type (0, 0), BuildingBlock: MIFKUJ_clean_linker_0, # of connection points: 2
#     Edge 53, Type (0, 0), BuildingBlock: MIFKUJ_clean_linker_0, # of connection points: 2
#     Edge 54, Type (0, 0), BuildingBlock: MIFKUJ_clean_linker_0, # of connection points: 2
#     Edge 55, Type (0, 0), BuildingBlock: MIFKUJ_clean_linker_0, # of connection points: 2
# Relax obj value: 0.251
# Max RMSD: 0.164
# Mean RMSD: 0.164
data_MOF--net-zfj--node1-BEQFEK_clean_sbu_0--edge1-MIFKUJ_clean_linker_0
_symmetry_space_group_name_H-M    P1
_symmetry_Int_Tables_number       1
_symmetry_cell_setting            triclinic
loop_
_symmetry_equiv_pos_as_xyz
'x, y, z'
_cell_length_a     44.23314
_cell_length_b     44.249168
_cell_length_c     70.335287
_cell_angle_alpha  89.9393
_cell_angle_beta   89.963706
_cell_angle_gamma 90.028409
loop_
_atom_site_label
_atom_site_type_symbol
_atom_site_fract_x
_atom_site_fract_y
_atom_site_fract_z
_atom_type_partial_charge
Co0 Co 0.52689 0.21179 0.14526 0.0
Co1 Co 0.553 0.15001 0.13255 0.0
C2 C 0.52579 0.19145 0.1042 0.0
O3 O 0.52143 0.2105 0.11741 0.0
O4 O 0.53705 0.16559 0.10781 0.0
C5 C 0.4791 0.25279 0.14545 0.0
O6 O 0.46675 0.23131 0.13517 0.0
C7 C 0.55432 0.08627 0.12155 0.0
C8 C 0.60054 0.07324 0.13025 0.0
C9 C 0.57399 0.0619 0.12267 0.0
N10 N 0.56855 0.11071 0.12842 0.0
N11 N 0.59632 0.10291 0.13329 0.0
C12 C 0.52319 0.0871 0.11321 0.0
H13 H 0.50752 0.09895 0.12299 0.0
H14 H 0.51458 0.06419 0.10986 0.0
H15 H 0.52388 0.10051 0.09988 0.0
C16 C 0.49463 0.17294 0.17305 0.0
N17 N 0.51248 0.17649 0.15767 0.0
N18 N 0.52358 0.15008 0.15262 0.0
C19 C 0.51326 0.12885 0.16488 0.0
C20 C 0.49437 0.14261 0.17808 0.0
C21 C 0.47898 0.19843 0.18298 0.0
H22 H 0.49574 0.21612 0.18672 0.0
H23 H 0.46228 0.20869 0.17316 0.0
H24 H 0.46694 0.19082 0.19596 0.0
O25 O 0.57028 0.2183 0.15065 0.0
O26 O 0.58833 0.17445 0.14046 0.0
H27 H 0.54891 0.0961 0.16248 0.0
H28 H 0.52058 0.08685 0.18 0.0
C29 C 0.52443 0.09692 0.16574 0.0
H30 H 0.51209 0.08309 0.15517 0.0
H31 H 0.61212 0.11765 0.13925 0.0
O32 O 0.50473 0.24811 0.15304 0.0
C33 C 0.5924 0.20062 0.14751 0.0
Co34 Co 0.28614 0.53042 0.64398 0.0
Co35 Co 0.34843 0.55682 0.63225 0.0
C36 C 0.30888 0.52921 0.60314 0.0
O37 O 0.28941 0.52449 0.61612 0.0
O38 O 0.33435 0.54125 0.60702 0.0
C39 C 0.24535 0.48193 0.64473 0.0
O40 O 0.2673 0.46873 0.63528 0.0
C41 C 0.41306 0.56299 0.6224 0.0
C42 C 0.42439 0.6039 0.63897 0.0
C43 C 0.4369 0.5815 0.62775 0.0
N44 N 0.38769 0.57383 0.63039 0.0
N45 N 0.39453 0.59868 0.63986 0.0
C46 C 0.41482 0.53374 0.61182 0.0
H47 H 0.3938 0.5204 0.61385 0.0
H48 H 0.4347 0.52045 0.61662 0.0
H49 H 0.41773 0.53856 0.59644 0.0
C50 C 0.32383 0.49813 0.67237 0.0
N51 N 0.3207 0.51613 0.65701 0.0
N52 N 0.34728 0.52712 0.65218 0.0
C53 C 0.36819 0.51654 0.66452 0.0
C54 C 0.35403 0.49777 0.67765 0.0
C55 C 0.29792 0.48411 0.68285 0.0
H56 H 0.27881 0.50029 0.68361 0.0
H57 H 0.29017 0.46384 0.67497 0.0
H58 H 0.30452 0.47721 0.69744 0.0
O59 O 0.27913 0.57373 0.64947 0.0
O60 O 0.32307 0.59167 0.63949 0.0
H61 H 0.41392 0.5135 0.67559 0.0
H62 H 0.41079 0.51788 0.65032 0.0
C63 C 0.401 0.52482 0.66411 0.0
H64 H 0.40345 0.54964 0.66554 0.0
H65 H 0.37907 0.61118 0.64783 0.0
O66 O 0.24952 0.50834 0.65127 0.0
C67 C 0.29681 0.59586 0.64633 0.0
Co68 Co 0.9658 0.2855 0.14727 0.0
Co69 Co 0.94158 0.34703 0.13289 0.0
C70 C 0.96797 0.30433 0.10554 0.0
O71 O 0.97156 0.28593 0.11926 0.0
O72 O 0.95733 0.33066 0.10842 0.0
C73 C 0.01471 0.246 0.14948 0.0
O74 O 0.02748 0.26797 0.13978 0.0
C75 C 0.93587 0.40917 0.11836 0.0
C76 C 0.8959 0.42471 0.13449 0.0
C77 C 0.91759 0.43413 0.12159 0.0
N78 N 0.92563 0.38626 0.12912 0.0
N79 N 0.90142 0.39553 0.13844 0.0
C80 C 0.96195 0.40657 0.10487 0.0
H81 H 0.95657 0.38915 0.09405 0.0
H82 H 0.98238 0.39872 0.11254 0.0
H83 H 0.96666 0.42825 0.0975 0.0
C84 C -0.00218 0.3251 0.17468 0.0
N85 N 0.98041 0.32096 0.1592 0.0
N86 N 0.97127 0.34733 0.15278 0.0
C87 C 0.98321 0.36928 0.16382 0.0
C88 C 0.00044 0.35596 0.17818 0.0
C89 C 0.00867 0.29979 0.18706 0.0
H90 H 0.99253 0.28064 0.18654 0.0
H91 H 0.0309 0.29181 0.18175 0.0
H92 H 0.01127 0.30722 0.20203 0.0
O93 O 0.92259 0.27955 0.15272 0.0
O94 O 0.90584 0.32287 0.14096 0.0
H95 H 0.95496 0.40844 0.165 0.0
H96 H 0.99477 0.41634 0.16851 0.0
C97 C 0.97826 0.40235 0.16058 0.0
H98 H 0.9807 0.40754 0.1453 0.0
H99 H 0.88923 0.3822 0.148 0.0
O100 O 0.98797 0.24957 0.15565 0.0
C101 C 0.90093 0.29733 0.14871 0.0
Co102 Co 0.20997 0.96891 0.64725 0.0
Co103 Co 0.14963 0.93863 0.63518 0.0
C104 C 0.18989 0.96555 0.60608 0.0
O105 O 0.2083 0.97204 0.61931 0.0
O106 O 0.16467 0.95292 0.60981 0.0
C107 C 0.24962 0.01797 0.64514 0.0
O108 O 0.22861 0.02786 0.63349 0.0
C109 C 0.08633 0.93 0.62374 0.0
C110 C 0.07652 0.88573 0.63701 0.0
C111 C 0.0635 0.90899 0.62671 0.0
N112 N 0.1116 0.9196 0.63203 0.0
N113 N 0.10573 0.89288 0.63961 0.0
C114 C 0.08366 0.96065 0.61491 0.0
H115 H 0.10336 0.97493 0.61879 0.0
H116 H 0.06236 0.97175 0.61949 0.0
H117 H 0.08301 0.95823 0.59922 0.0
C118 C 0.16911 0.00146 0.67361 0.0
N119 N 0.17377 0.98248 0.65894 0.0
N120 N 0.14796 0.96986 0.65405 0.0
C121 C 0.126 0.98025 0.66573 0.0
C122 C 0.13866 0.00073 0.67846 0.0
C123 C 0.19368 0.01937 0.68292 0.0
H124 H 0.20504 0.03359 0.67208 0.0
H125 H 0.18489 0.0343 0.69429 0.0
H126 H 0.21083 0.00371 0.68889 0.0
O127 O 0.21898 0.92643 0.65418 0.0
O128 O 0.1759 0.90588 0.64458 0.0
H129 H 0.08292 0.97378 0.67991 0.0
H130 H 0.08126 0.9776 0.65445 0.0
C131 C 0.09446 0.96797 0.66639 0.0
H132 H 0.09488 0.94307 0.6649 0.0
H133 H 0.12137 0.88003 0.64721 0.0
O134 O 0.24505 0.99364 0.65431 0.0
C135 C 0.20208 0.90346 0.65185 0.0
Co136 Co 0.52571 0.28375 0.87019 0.0
Co137 Co 0.55204 0.3441 0.88496 0.0
C138 C 0.52422 0.30075 0.9119 0.0
O139 O 0.51974 0.28275 0.89811 0.0
O140 O 0.53587 0.32668 0.90908 0.0
C141 C 0.47626 0.24532 0.86746 0.0
O142 O 0.46425 0.26686 0.87785 0.0
C143 C 0.55445 0.40577 0.89963 0.0
C144 C 0.59741 0.42204 0.88724 0.0
C145 C 0.57267 0.43116 0.89786 0.0
N146 N 0.56758 0.38301 0.89012 0.0
N147 N 0.59356 0.39266 0.88311 0.0
C148 C 0.5255 0.40265 0.91053 0.0
H149 H 0.528 0.38423 0.92112 0.0
H150 H 0.50695 0.39595 0.90082 0.0
H151 H 0.5195 0.42379 0.9181 0.0
C152 C 0.49387 0.3251 0.84364 0.0
N153 N 0.51166 0.32004 0.85887 0.0
N154 N 0.52284 0.34587 0.86488 0.0
C155 C 0.51272 0.36826 0.85344 0.0
C156 C 0.49382 0.35584 0.83969 0.0
C157 C 0.47998 0.30061 0.83186 0.0
H158 H 0.49591 0.28138 0.83055 0.0
H159 H 0.45919 0.2924 0.83903 0.0
H160 H 0.47391 0.30884 0.81746 0.0
O161 O 0.56915 0.27727 0.86471 0.0
O162 O 0.58726 0.32011 0.87645 0.0
H163 H 0.5469 0.40249 0.85473 0.0
H164 H 0.51203 0.41493 0.84377 0.0
C165 C 0.5219 0.40072 0.85516 0.0
H166 H 0.51403 0.40969 0.86897 0.0
H167 H 0.60808 0.37951 0.87485 0.0
O168 O 0.50288 0.24878 0.86106 0.0
C169 C 0.59132 0.29457 0.86855 0.0
Co170 Co 0.21376 0.53456 0.37065 0.0
Co171 Co 0.15106 0.55769 0.38385 0.0
C172 C 0.19394 0.53582 0.41227 0.0
O173 O 0.21271 0.53263 0.39876 0.0
O174 O 0.16684 0.54394 0.40903 0.0
C175 C 0.25286 0.48627 0.37312 0.0
O176 O 0.2293 0.47539 0.38223 0.0
C177 C 0.08784 0.56093 0.39647 0.0
C178 C 0.07186 0.6006 0.38021 0.0
C179 C 0.06229 0.57799 0.39244 0.0
N180 N 0.1112 0.57266 0.38674 0.0
N181 N 0.10164 0.59672 0.37738 0.0
C182 C 0.09055 0.53454 0.40971 0.0
H183 H 0.10352 0.54175 0.42243 0.0
H184 H 0.10366 0.51614 0.4029 0.0
H185 H 0.06816 0.52614 0.41446 0.0
C186 C 0.1757 0.49997 0.34357 0.0
N187 N 0.17894 0.51785 0.35894 0.0
N188 N 0.15215 0.52684 0.36476 0.0
C189 C 0.13088 0.51455 0.35335 0.0
C190 C 0.14506 0.49722 0.33941 0.0
C191 C 0.20166 0.48891 0.33183 0.0
H192 H 0.2208 0.50506 0.33265 0.0
H193 H 0.20935 0.46682 0.33752 0.0
H194 H 0.19499 0.4859 0.31674 0.0
O195 O 0.21876 0.57723 0.36347 0.0
O196 O 0.17474 0.5933 0.37479 0.0
H197 H 0.09216 0.5435 0.35222 0.0
H198 H 0.08408 0.50442 0.34647 0.0
C199 C 0.09761 0.51963 0.35563 0.0
H200 H 0.09106 0.51521 0.37052 0.0
H201 H 0.1152 0.60979 0.36843 0.0
O202 O 0.25041 0.51153 0.36464 0.0
C203 C 0.20014 0.59848 0.36686 0.0
Co204 Co 0.96502 0.21079 0.87277 0.0
Co205 Co 0.94007 0.14895 0.88643 0.0
C206 C 0.96719 0.19201 0.91401 0.0
O207 O 0.97136 0.21068 0.90054 0.0
O208 O 0.95593 0.16603 0.91078 0.0
C209 C 0.01195 0.25267 0.87112 0.0
O210 O 0.02523 0.2316 0.88131 0.0
C211 C 0.94194 0.08572 0.8984 0.0
C212 C 0.89597 0.07026 0.89087 0.0
C213 C 0.92343 0.0604 0.89799 0.0
N214 N 0.92622 0.10925 0.89154 0.0
N215 N 0.89859 0.10002 0.8874 0.0
C216 C 0.97349 0.08823 0.90595 0.0
H217 H 0.9882 0.09975 0.89543 0.0
H218 H 0.98303 0.0659 0.90984 0.0
H219 H 0.97314 0.10271 0.91882 0.0
C220 C -0.00258 0.17181 0.84526 0.0
N221 N 0.97985 0.17547 0.86074 0.0
N222 N 0.9692 0.14903 0.86616 0.0
C223 C 0.97957 0.12767 0.85405 0.0
C224 C -0.00195 0.14138 0.84059 0.0
C225 C 0.0122 0.19726 0.83473 0.0
H226 H 0.99515 0.21491 0.83147 0.0
H227 H 0.02972 0.20757 0.84394 0.0
H228 H 0.0231 0.18954 0.8214 0.0
O229 O 0.9214 0.2159 0.86772 0.0
O230 O 0.90383 0.17202 0.87832 0.0
H231 H 0.94451 0.0944 0.85728 0.0
H232 H 0.97208 0.08551 0.83923 0.0
C233 C 0.9688 0.09559 0.85352 0.0
H234 H 0.9819 0.082 0.86386 0.0
H235 H 0.88183 0.11381 0.88159 0.0
O236 O 0.986 0.24739 0.86416 0.0
C237 C 0.89948 0.198 0.87103 0.0
Co238 Co 0.28287 0.97162 0.37269 0.0
Co239 Co 0.34374 0.94303 0.38489 0.0
C240 C 0.30227 0.96619 0.41403 0.0
O241 O 0.28345 0.97137 0.40082 0.0
O242 O 0.32873 0.95669 0.41027 0.0
C243 C 0.24561 0.02084 0.37717 0.0
O244 O 0.26779 0.02786 0.38877 0.0
C245 C 0.40731 0.93907 0.39554 0.0
C246 C 0.41885 0.89256 0.3867 0.0
C247 C 0.43093 0.91861 0.39446 0.0
N248 N 0.38244 0.92579 0.38855 0.0
N249 N 0.38933 0.89784 0.38355 0.0
C250 C 0.40782 0.97024 0.4038 0.0
H251 H 0.38653 0.98241 0.40047 0.0
H252 H 0.42741 0.98332 0.39844 0.0
H253 H 0.41025 0.96849 0.41947 0.0
C254 C 0.32286 0.00589 0.3468 0.0
N255 N 0.31881 0.98681 0.36152 0.0
N256 N 0.3449 0.9746 0.3662 0.0
C257 C 0.36643 0.98545 0.35433 0.0
C258 C 0.35321 0.00583 0.34178 0.0
C259 C 0.2977 0.0226 0.33722 0.0
H260 H 0.28042 0.00624 0.33224 0.0
H261 H 0.28672 0.03781 0.34767 0.0
H262 H 0.30585 0.03638 0.32508 0.0
O263 O 0.27527 0.92964 0.36439 0.0
O264 O 0.31786 0.90961 0.37535 0.0
H265 H 0.39812 0.9487 0.35545 0.0
H266 H 0.40825 0.97826 0.33897 0.0
C267 C 0.39801 0.97344 0.35306 0.0
H268 H 0.41209 0.98444 0.36407 0.0
H269 H 0.37409 0.88264 0.37753 0.0
O270 O 0.24806 -0.00243 0.3667 0.0
C271 C 0.29217 0.90681 0.36734 0.0
Co272 Co 0.46711 0.78573 0.87059 0.0
Co273 Co 0.44185 0.84714 0.88412 0.0
C274 C 0.46818 0.80433 0.91199 0.0
O275 O 0.47243 0.78567 0.89854 0.0
O276 O 0.45741 0.83046 0.90865 0.0
C277 C 0.51318 0.74263 0.86978 0.0
O278 O 0.52662 0.76288 0.88051 0.0
C279 C 0.4418 0.91041 0.89584 0.0
C280 C 0.39501 0.92394 0.8888 0.0
C281 C 0.42218 0.93484 0.89573 0.0
N282 N 0.42691 0.88632 0.88905 0.0
N283 N 0.39883 0.89439 0.88518 0.0
C284 C 0.47354 0.90914 0.90318 0.0
H285 H 0.48777 0.8951 0.89367 0.0
H286 H 0.4835 0.93196 0.90492 0.0
H287 H 0.47332 0.89786 0.91728 0.0
C288 C 0.49987 0.82493 0.84321 0.0
N289 N 0.48219 0.82116 0.85865 0.0
N290 N 0.47125 0.84751 0.86395 0.0
C291 C 0.48147 0.86892 0.85178 0.0
C292 C 0.50014 0.85536 0.83834 0.0
C293 C 0.51522 0.79954 0.83302 0.0
H294 H 0.49802 0.78299 0.82818 0.0
H295 H 0.53057 0.78773 0.84301 0.0
H296 H 0.52864 0.80759 0.82069 0.0
O297 O 0.42372 0.78033 0.86487 0.0
O298 O 0.40602 0.82371 0.87595 0.0
H299 H 0.47359 0.91106 0.83695 0.0
H300 H 0.48332 0.91455 0.86162 0.0
C301 C 0.47039 0.90089 0.85124 0.0
H302 H 0.44608 0.90179 0.85498 0.0
H303 H 0.38247 0.87993 0.87953 0.0
O304 O 0.48798 0.74909 0.86217 0.0
C305 C 0.40171 0.798 0.86834 0.0
Co306 Co 0.70945 0.46006 0.3691 0.0
Co307 Co 0.64745 0.43496 0.38255 0.0
C308 C 0.69103 0.46105 0.41038 0.0
O309 O 0.70957 0.46619 0.39696 0.0
O310 O 0.66529 0.44936 0.407 0.0
C311 C 0.75196 0.50684 0.36681 0.0
O312 O 0.73116 0.52086 0.37681 0.0
C313 C 0.58523 0.43656 0.39649 0.0
C314 C 0.56824 0.39163 0.38787 0.0
C315 C 0.55983 0.41823 0.39674 0.0
N316 N 0.60759 0.42153 0.38773 0.0
N317 N 0.59742 0.39458 0.38279 0.0
C318 C 0.5889 0.46711 0.40534 0.0
H319 H 0.61127 0.47691 0.40171 0.0
H320 H 0.57086 0.48269 0.40055 0.0
H321 H 0.58691 0.46494 0.42101 0.0
C322 C 0.67012 0.49414 0.34232 0.0
N323 N 0.67409 0.47563 0.35735 0.0
N324 N 0.6477 0.46489 0.36279 0.0
C325 C 0.62608 0.47601 0.35114 0.0
C326 C 0.63955 0.49511 0.33788 0.0
C327 C 0.69545 0.50801 0.33121 0.0
H328 H 0.71419 0.49155 0.32972 0.0
H329 H 0.70413 0.52795 0.33905 0.0
H330 H 0.68791 0.51539 0.3169 0.0
O331 O 0.71399 0.41632 0.36372 0.0
O332 O 0.66986 0.39879 0.3739 0.0
H333 H 0.59087 0.44284 0.35292 0.0
H334 H 0.58021 0.47672 0.34013 0.0
C335 C 0.59331 0.46776 0.35232 0.0
H336 H 0.58365 0.4774 0.3655 0.0
H337 H 0.61028 0.37832 0.37568 0.0
O338 O 0.74636 0.48059 0.36043 0.0
C339 C 0.69587 0.39443 0.36666 0.0
Co340 Co 0.02835 0.70979 0.86827 0.0
Co341 Co 0.05542 0.64909 0.88234 0.0
C342 C 0.02677 0.69132 0.90971 0.0
O343 O 0.02085 0.70933 0.89613 0.0
O344 O 0.04021 0.66637 0.90666 0.0
C345 C 0.97963 0.74977 0.86577 0.0
O346 O 0.96666 0.72833 0.87583 0.0
C347 C 0.06027 0.58786 0.89803 0.0
C348 C 0.10057 0.57092 0.88282 0.0
C349 C 0.07818 0.56244 0.89552 0.0
N350 N 0.07131 0.61008 0.88702 0.0
N351 N 0.09574 0.60002 0.87827 0.0
C352 C 0.03341 0.59136 0.91082 0.0
H353 H 0.01302 0.59649 0.90224 0.0
H354 H 0.02948 0.57084 0.91955 0.0
H355 H 0.03718 0.61083 0.92045 0.0
C356 C -0.00175 0.66889 0.8406 0.0
N357 N 0.01523 0.67374 0.85621 0.0
N358 N 0.02563 0.64777 0.86254 0.0
C359 C 0.01514 0.62539 0.85126 0.0
C360 C -0.00254 0.638 0.83688 0.0
C361 C 0.9861 0.69374 0.82834 0.0
H362 H 0.00151 0.7135 0.82871 0.0
H363 H 0.96375 0.70088 0.83391 0.0
H364 H 0.98336 0.68624 0.81339 0.0
O365 O 0.07194 0.71689 0.86356 0.0
O366 O 0.09045 0.67315 0.87364 0.0
H367 H 0.04612 0.58829 0.8504 0.0
H368 H 0.0073 0.57782 0.84552 0.0
C369 C 0.02214 0.5926 0.85415 0.0
H370 H 0.01887 0.58661 0.86926 0.0
H371 H 0.10851 0.61271 0.86867 0.0
O372 O 0.00609 0.74541 0.85933 0.0
C373 C 0.09423 0.69935 0.86658 0.0
Co374 Co 0.78285 0.02127 0.36853 0.0
Co375 Co 0.84418 0.04843 0.38145 0.0
C376 C 0.80218 0.02253 0.40996 0.0
O377 O 0.78365 0.0169 0.39661 0.0
O378 O 0.82783 0.03433 0.4064 0.0
C379 C 0.74343 0.97212 0.36827 0.0
O380 O 0.7652 0.96053 0.37867 0.0
C381 C 0.90657 0.05593 0.39559 0.0
C382 C 0.9219 0.09378 0.37744 0.0
C383 C 0.93162 0.07362 0.39122 0.0
N384 N 0.88348 0.06487 0.38451 0.0
N385 N 0.89266 0.08782 0.37397 0.0
C386 C 0.9042 0.03139 0.41019 0.0
H387 H 0.88178 0.03211 0.41717 0.0
H388 H 0.90651 0.00909 0.40315 0.0
H389 H 0.92197 0.03376 0.42121 0.0
C390 C 0.82297 0.98821 0.34177 0.0
N391 N 0.81853 0.00662 0.35678 0.0
N392 N 0.84468 0.01761 0.36238 0.0
C393 C 0.86668 0.00642 0.35107 0.0
C394 C 0.85369 0.98741 0.33761 0.0
C395 C 0.79792 0.97444 0.3304 0.0
H396 H 0.77865 0.9904 0.32948 0.0
H397 H 0.78997 0.95366 0.33769 0.0
H398 H 0.8055 0.96843 0.31585 0.0
O399 O 0.77591 0.06437 0.36227 0.0
O400 O 0.81954 0.08293 0.37248 0.0
H401 H 0.90277 0.03834 0.34873 0.0
H402 H 0.91381 -0.00017 0.34368 0.0
C403 C 0.89945 0.01436 0.35281 0.0
H404 H 0.90671 0.01155 0.36777 0.0
H405 H 0.87919 0.09882 0.36394 0.0
O406 O 0.74725 -0.00201 0.36079 0.0
C407 C 0.79351 0.08667 0.36515 0.0
Co408 Co 0.46691 0.70983 0.14564 0.0
Co409 Co 0.43951 0.64918 0.13178 0.0
C410 C 0.46608 0.69261 0.10409 0.0
O411 O 0.47174 0.71064 0.11767 0.0
O412 O 0.45416 0.6669 0.10728 0.0
C413 C 0.51579 0.74974 0.14732 0.0
O414 O 0.52788 0.72881 0.13648 0.0
C415 C 0.43575 0.58753 0.11675 0.0
C416 C 0.39307 0.57173 0.12977 0.0
C417 C 0.41697 0.56254 0.11845 0.0
N418 N 0.42368 0.61021 0.12689 0.0
N419 N 0.3979 0.60082 0.13433 0.0
C420 C 0.46415 0.59035 0.10527 0.0
H421 H 0.48372 0.594 0.11483 0.0
H422 H 0.46808 0.57007 0.09635 0.0
H423 H 0.46249 0.61046 0.09591 0.0
C424 C 0.50001 0.66846 0.17168 0.0
N425 N 0.48148 0.67348 0.1568 0.0
N426 N 0.46982 0.64762 0.15117 0.0
C427 C 0.48029 0.62531 0.16254 0.0
C428 C 0.50001 0.63776 0.17582 0.0
C429 C 0.51468 0.69305 0.18301 0.0
H430 H 0.49878 0.71221 0.18474 0.0
H431 H 0.53485 0.70135 0.1752 0.0
H432 H 0.52186 0.68491 0.19723 0.0
O433 O 0.4236 0.71627 0.15172 0.0
O434 O 0.40477 0.67288 0.14125 0.0
H435 H 0.44551 0.59164 0.16269 0.0
H436 H 0.48116 0.57874 0.17239 0.0
C437 C 0.47046 0.59298 0.16131 0.0
H438 H 0.47677 0.58375 0.14725 0.0
H439 H 0.38406 0.61398 0.14303 0.0
O440 O 0.48972 0.74523 0.15436 0.0
C441 C 0.40127 0.69871 0.14884 0.0
Co442 Co 0.78985 0.46321 0.64192 0.0
Co443 Co 0.85075 0.43517 0.62885 0.0
C444 C 0.80916 0.46103 0.60041 0.0
O445 O 0.79088 0.46715 0.61379 0.0
O446 O 0.83454 0.44872 0.60388 0.0
C447 C 0.75041 0.51195 0.64018 0.0
O448 O 0.77177 0.52166 0.62871 0.0
C449 C 0.91224 0.42871 0.6139 0.0
C450 C 0.92894 0.39001 0.63075 0.0
C451 C 0.93765 0.41117 0.6173 0.0
N452 N 0.8898 0.4187 0.62513 0.0
N453 N 0.89972 0.39517 0.63487 0.0
C454 C 0.90893 0.45432 0.60011 0.0
H455 H 0.90239 0.4752 0.60779 0.0
H456 H 0.92997 0.45822 0.59188 0.0
H457 H 0.89041 0.44902 0.59003 0.0
C458 C 0.83029 0.49502 0.6689 0.0
N459 N 0.82577 0.47724 0.65363 0.0
N460 N 0.85186 0.46655 0.6477 0.0
C461 C 0.87405 0.47785 0.65885 0.0
C462 C 0.86114 0.49621 0.67281 0.0
C463 C 0.80508 0.50733 0.68081 0.0
H464 H 0.78525 0.49203 0.68021 0.0
H465 H 0.79824 0.52969 0.67512 0.0
H466 H 0.81211 0.51003 0.69585 0.0
O467 O 0.78257 0.42042 0.64856 0.0
O468 O 0.82583 0.40098 0.63831 0.0
H469 H 0.91166 0.44765 0.66101 0.0
H470 H 0.9215 0.4871 0.66408 0.0
C471 C 0.90694 0.47105 0.65618 0.0
H472 H 0.9128 0.47271 0.64095 0.0
H473 H 0.88685 0.38333 0.64484 0.0
O474 O 0.7544 0.48744 0.64926 0.0
C475 C 0.79982 0.3978 0.64583 0.0
Co476 Co 0.02823 0.78732 0.13959 0.0
Co477 Co 0.05638 0.8486 0.12782 0.0
C478 C 0.0267 0.80926 0.09899 0.0
O479 O 0.0208 0.79 0.11189 0.0
O480 O 0.04038 0.8338 0.10292 0.0
C481 C 0.98013 0.74567 0.14133 0.0
O482 O 0.96628 0.76658 0.13132 0.0
C483 C 0.05861 0.91217 0.11679 0.0
C484 C 0.10378 0.92551 0.1273 0.0
C485 C 0.07792 0.93669 0.11874 0.0
N486 N 0.07232 0.88781 0.12417 0.0
N487 N 0.09952 0.89577 0.13009 0.0
C488 C 0.02825 0.9112 0.10741 0.0
H489 H 0.03036 0.8986 0.09384 0.0
H490 H 0.01201 0.89848 0.11639 0.0
H491 H 0.01947 0.93411 0.10422 0.0
C492 C 0.99647 0.82596 0.16773 0.0
N493 N 0.01479 0.8223 0.15259 0.0
N494 N 0.027 0.84847 0.14803 0.0
C495 C 0.0172 0.86957 0.1605 0.0
C496 C 0.99724 0.85605 0.17324 0.0
C497 C 0.98092 0.80054 0.17783 0.0
H498 H 0.99653 0.78106 0.17919 0.0
H499 H 0.96113 0.79321 0.16932 0.0
H500 H 0.97304 0.8074 0.19217 0.0
O501 O 0.07188 0.77998 0.14453 0.0
O502 O 0.09134 0.82372 0.13531 0.0
H503 H 0.05251 0.90274 0.15934 0.0
H504 H 0.02056 0.91372 0.17382 0.0
C505 C 0.02756 0.90179 0.16069 0.0
H506 H 0.01748 0.91387 0.14847 0.0
H507 H 0.11478 0.88112 0.13667 0.0
O508 O 0.00648 0.75092 0.14767 0.0
C509 C 0.0946 0.79714 0.14186 0.0
Co510 Co 0.71222 0.0272 0.64348 0.0
Co511 Co 0.65043 0.05434 0.63162 0.0
C512 C 0.69219 0.03217 0.60227 0.0
O513 O 0.71105 0.02708 0.61545 0.0
O514 O 0.66572 0.04156 0.6061 0.0
C515 C 0.75182 0.97985 0.63828 0.0
O516 O 0.72987 0.9719 0.62675 0.0
C517 C 0.58694 0.05631 0.62071 0.0
C518 C 0.57359 0.10209 0.63006 0.0
C519 C 0.56257 0.07587 0.62187 0.0
N520 N 0.61119 0.07027 0.62805 0.0
N521 N 0.60322 0.09777 0.63335 0.0
C522 C 0.58788 0.02551 0.61194 0.0
H523 H 0.60795 0.01282 0.61704 0.0
H524 H 0.56699 0.01257 0.615 0.0
H525 H 0.58964 0.02803 0.59628 0.0
C526 C 0.6732 0.99183 0.66954 0.0
N527 N 0.67676 0.01104 0.65483 0.0
N528 N 0.65032 0.02246 0.65013 0.0
C529 C 0.62905 0.01092 0.66191 0.0
C530 C 0.64281 0.99094 0.6745 0.0
C531 C 0.69882 0.97593 0.67918 0.0
H532 H 0.71507 0.99291 0.68469 0.0
H533 H 0.71095 0.96182 0.66863 0.0
H534 H 0.69089 0.96127 0.69097 0.0
O535 O 0.71876 0.06945 0.65158 0.0
O536 O 0.67512 0.08841 0.64146 0.0
H537 H 0.58651 0.01608 0.67689 0.0
H538 H 0.58366 0.01114 0.65161 0.0
C539 C 0.59707 0.0219 0.66305 0.0
H540 H 0.59632 0.04674 0.66116 0.0
H541 H 0.61783 0.11335 0.63966 0.0
O542 O 0.74817 0.00254 0.64912 0.0
C543 C 0.70097 0.09175 0.64916 0.0
H544 H 0.52368 0.15611 0.07202 0.0
H545 H 0.51747 0.17315 0.0391 0.0
H546 H 0.50995 0.26535 0.05845 0.0
H547 H 0.51454 0.24844 0.09122 0.0
H548 H 0.47356 0.25919 0.03107 0.0
H549 H 0.57792 0.23308 0.03971 0.0
H550 H 0.62098 0.20024 0.048 0.0
H551 H 0.59472 0.1373 1.00461 0.0
H552 H 0.55125 0.16962 0.99622 0.0
H553 H 0.52528 0.33337 0.94522 0.0
H554 H 0.51953 0.31385 0.9777 0.0
H555 H 0.50431 0.22434 0.95553 0.0
H556 H 0.50954 0.24353 0.92318 0.0
H557 H 0.55013 0.22775 0.98352 0.0
H558 H 0.44731 0.26005 0.97369 0.0
H559 H 0.40673 0.29626 0.96609 0.0
H560 H 0.43413 0.35246 0.01275 0.0
H561 H 0.4753 0.31691 0.02037 0.0
C562 C 0.52038 0.17997 0.06925 0.0
C563 C 0.51985 0.20088 0.08428 0.0
C564 C 0.51704 0.18975 0.0504 0.0
C565 C 0.51389 0.2207 0.04617 0.0
C566 C 0.51236 0.2414 0.06124 0.0
C567 C 0.51511 0.23163 0.08004 0.0
C568 C 0.51317 0.23189 0.02615 0.0
C569 C 0.49053 0.25251 0.02076 0.0
C570 C 0.53502 0.22303 0.0125 0.0
C571 C 0.56115 0.20359 0.01749 0.0
C572 C 0.58121 0.21213 0.03203 0.0
C573 C 0.60571 0.19363 0.03673 0.0
C574 C 0.61053 0.16666 0.02688 0.0
C575 C 0.59091 0.15817 0.01226 0.0
C576 C 0.56636 0.17658 1.00751 0.0
C577 C 0.52032 0.30962 0.94725 0.0
C578 C 0.51799 0.29004 0.93155 0.0
C579 C 0.51698 0.29851 0.96581 0.0
C580 C 0.51152 0.26763 0.96901 0.0
C581 C 0.50855 0.24823 0.95338 0.0
C582 C 0.51148 0.25932 0.93487 0.0
C583 C 0.51073 0.2551 0.9886 0.0
C584 C 0.53313 0.23428 0.99386 0.0
C585 C 0.48912 0.26435 1.00223 0.0
C586 C 0.46461 0.28595 0.99748 0.0
C587 C 0.44493 0.2803 0.98219 0.0
C588 C 0.42177 0.30069 0.9779 0.0
C589 C 0.41791 0.32669 0.98889 0.0
C590 C 0.43718 0.33235 1.00421 0.0
C591 C 0.46043 0.31209 0.00852 0.0
H592 H 0.39993 0.34241 0.98557 0.0
H593 H 0.62951 0.15237 0.03054 0.0
H594 H 0.2499 0.5486 0.42546 0.0
H595 H 0.26938 0.54259 0.45756 0.0
H596 H 0.18347 0.50602 0.47559 0.0
H597 H 0.16315 0.51423 0.44348 0.0
H598 H 0.20182 0.53975 0.50156 0.0
H599 H 0.25277 0.46196 0.46709 0.0
H600 H 0.2833 0.43998 0.4412 0.0
H601 H 0.35848 0.49601 0.45689 0.0
H602 H 0.32828 0.51873 0.48266 0.0
H603 H 0.26045 0.4964 0.59065 0.0
H604 H 0.24197 0.49143 0.55814 0.0
H605 H 0.31809 0.54294 0.53765 0.0
H606 H 0.33719 0.5476 0.57024 0.0
H607 H 0.30363 0.49671 0.51341 0.0
H608 H 0.24965 0.57624 0.54648 0.0
H609 H 0.21833 0.59706 0.57236 0.0
H610 H 0.14754 0.53412 0.55904 0.0
H611 H 0.1787 0.5125 0.53333 0.0
C612 C 0.23514 0.5392 0.43626 0.0
C613 C 0.20505 0.53167 0.43195 0.0
C614 C 0.24644 0.53545 0.45463 0.0
C615 C 0.22834 0.52288 0.46903 0.0
C616 C 0.19808 0.51554 0.46476 0.0
C617 C 0.18643 0.52019 0.44643 0.0
C618 C 0.24072 0.51878 0.48865 0.0
C619 C 0.22382 0.5297 0.5041 0.0
C620 C 0.26975 0.50619 0.49213 0.0
C621 C 0.28814 0.4922 0.47677 0.0
C622 C 0.27575 0.46972 0.46497 0.0
C623 C 0.29301 0.45712 0.45031 0.0
C624 C 0.32279 0.46661 0.4474 0.0
C625 C 0.3354 0.48868 0.45916 0.0
C626 C 0.31824 0.50141 0.47381 0.0
C627 C 0.27357 0.50638 0.57924 0.0
C628 C 0.30019 0.52275 0.58312 0.0
C629 C 0.26285 0.50357 0.56064 0.0
C630 C 0.27824 0.51737 0.54548 0.0
C631 C 0.30572 0.53225 0.54914 0.0
C632 C 0.31662 0.53491 0.56778 0.0
C633 C 0.26475 0.51784 0.52607 0.0
C634 C 0.28147 0.50631 0.51074 0.0
C635 C 0.2354 0.52946 0.52268 0.0
C636 C 0.21663 0.54257 0.5381 0.0
C637 C 0.2275 0.56669 0.54917 0.0
C638 C 0.20977 0.57864 0.5638 0.0
C639 C 0.18099 0.56689 0.56736 0.0
C640 C 0.16983 0.54322 0.55625 0.0
C641 C 0.18754 0.53108 0.54167 0.0
H642 H 0.16731 0.57616 0.57871 0.0
H643 H 0.33615 0.45682 0.43608 0.0
H644 H 0.96649 0.15808 0.94683 0.0
H645 H 0.97219 0.17627 0.97951 0.0
H646 H 0.98586 0.26696 0.95863 0.0
H647 H 0.98156 0.24888 0.92608 0.0
H648 H 0.02062 0.25962 0.98712 0.0
H649 H 0.91562 0.24054 0.97611 0.0
H650 H 0.8708 0.21071 0.96703 0.0
H651 H 0.88919 0.14748 0.0119 0.0
H652 H 0.93439 0.17674 0.0211 0.0
H653 H 0.96953 0.33744 0.07232 0.0
H654 H 0.97518 0.318 0.03979 0.0
H655 H 0.98473 0.22756 0.06179 0.0
H656 H 0.9797 0.2466 0.09414 0.0
H657 H 0.93943 0.2346 0.03319 0.0
H658 H 0.04381 0.25953 0.04502 0.0
H659 H 0.08651 0.29283 0.05326 0.0
H660 H 0.06583 0.3501 1.0057 0.0
H661 H 0.02261 0.31747 0.99738 0.0
C662 C 0.97106 0.18183 0.9492 0.0
C663 C 0.97327 0.20201 0.9338 0.0
C664 C 0.97412 0.19228 0.96791 0.0
C665 C 0.97878 0.22319 0.97161 0.0
C666 C 0.98219 0.24308 0.95621 0.0
C667 C 0.9796 0.23263 0.93755 0.0
C668 C 0.979 0.23517 0.99143 0.0
C669 C 0.00267 0.25436 0.99711 0.0
C670 C 0.95574 0.22826 1.00461 0.0
C671 C 0.92856 0.21064 0.99915 0.0
C672 C 0.91023 0.22015 0.98395 0.0
C673 C 0.88474 0.20337 0.97879 0.0
C674 C 0.8772 0.17717 0.98884 0.0
C675 C 0.8951 0.16775 1.00411 0.0
C676 C 0.92064 0.18443 0.0093 0.0
C677 C 0.97322 0.31348 0.07023 0.0
C678 C 0.97405 0.29362 0.08587 0.0
C679 C 0.9765 0.30242 0.05166 0.0
C680 C 0.98033 0.27133 0.04841 0.0
C681 C 0.98177 0.25161 0.06399 0.0
C682 C 0.97895 0.26263 0.0825 0.0
C683 C 0.98101 0.25891 0.02881 0.0
C684 C 0.95739 0.23972 0.02318 0.0
C685 C 0.00393 0.26641 0.01559 0.0
C686 C 0.0297 0.28626 0.02074 0.0
C687 C 0.0481 0.27944 0.03646 0.0
C688 C 0.07246 0.29816 0.04112 0.0
C689 C 0.07881 0.32363 0.03006 0.0
C690 C 0.06084 0.33042 0.01429 0.0
C691 C 0.0364 0.31182 0.00961 0.0
H692 H 0.09771 0.33806 0.03367 0.0
H693 H 0.85746 0.16421 0.98483 0.0
H694 H 0.3358 0.98057 0.44572 0.0
H695 H 0.31737 0.98616 0.47845 0.0
H696 H 0.22728 0.96277 0.45991 0.0
H697 H 0.24516 0.95942 0.42728 0.0
H698 H 0.22112 0.00328 0.48389 0.0
H699 H 0.28137 0.91194 0.48424 0.0
H700 H 0.32766 0.88166 0.47981 0.0
H701 H 0.37457 0.93749 0.52006 0.0
H702 H 0.32865 0.96832 0.52457 0.0
H703 H 0.16003 0.95106 0.57289 0.0
H704 H 0.1792 0.95616 0.54029 0.0
H705 H 0.26069 -0.00256 0.56161 0.0
H706 H 0.242 0.99249 0.594 0.0
H707 H 0.27282 0.95136 0.53721 0.0
H708 H 0.20952 0.0394 0.53855 0.0
H709 H 0.16208 0.06768 0.5432 0.0
H710 H 0.11909 0.01476 0.4998 0.0
H711 H 0.16616 0.98584 0.49507 0.0
C712 C 0.31207 0.97675 0.44871 0.0
C713 C 0.29195 0.9695 0.43397 0.0
C714 C 0.30154 0.97973 0.46744 0.0
C715 C 0.27092 0.9743 0.47188 0.0
C716 C 0.25093 0.9672 0.45703 0.0
C717 C 0.26123 0.96515 0.43832 0.0
C718 C 0.25935 0.97575 0.49185 0.0
C719 C 0.23231 0.99154 0.49545 0.0
C720 C 0.27414 0.96119 0.50722 0.0
C721 C 0.3017 0.94262 0.50457 0.0
C722 C 0.30162 0.91786 0.49205 0.0
C723 C 0.32778 0.90059 0.48954 0.0
C724 C 0.35407 0.90771 0.4996 0.0
C725 C 0.35422 0.93205 0.51225 0.0
C726 C 0.32814 0.94941 0.51479 0.0
C727 C 0.18186 0.96157 0.57061 0.0
C728 C 0.19948 0.97117 0.58612 0.0
C729 C 0.19277 0.96451 0.55197 0.0
C730 C 0.22145 0.97715 0.54852 0.0
C731 C 0.23863 0.98748 0.56393 0.0
C732 C 0.22777 0.98466 0.58247 0.0
C733 C 0.23438 0.97817 0.529 0.0
C734 C 0.26171 0.96301 0.52557 0.0
C735 C 0.21962 0.99288 0.51376 0.0
C736 C 0.19129 0.01025 0.51659 0.0
C737 C 0.18987 0.0336 0.53011 0.0
C738 C 0.16306 0.04979 0.53274 0.0
C739 C 0.13756 0.04297 0.52184 0.0
C740 C 0.13884 0.01999 0.50825 0.0
C741 C 0.16559 0.00371 0.50558 0.0
H742 H 0.11683 0.05554 0.52389 0.0
H743 H 0.37429 0.89431 0.49764 0.0
H744 H 0.4791 0.74686 0.9243 0.0
H745 H 0.48256 0.72872 0.95697 0.0
H746 H 0.47282 0.81985 0.97764 0.0
H747 H 0.46872 0.83838 0.94478 0.0
H748 H 0.51978 0.78182 0.99655 0.0
H749 H 0.41426 0.782 0.97975 0.0
H750 H 0.36981 0.77013 0.95997 0.0
H751 H 0.38781 0.67526 0.96594 0.0
H752 H 0.4327 0.68658 0.98551 0.0
H753 H 0.48097 0.74946 0.09218 0.0
H754 H 0.48548 0.768 0.05974 0.0
H755 H 0.46871 0.67815 0.03839 0.0
H756 H 0.46291 0.65957 0.07101 0.0
H757 H 0.43654 0.71582 0.01933 0.0
H758 H 0.54102 0.71438 0.03672 0.0
H759 H 0.58559 0.72524 0.05662 0.0
H760 H 0.57113 0.82052 0.04942 0.0
H761 H 0.52624 0.81023 0.02965 0.0
C762 C 0.478 0.76322 0.93572 0.0
C763 C 0.47345 0.79414 0.93187 0.0
C764 C 0.47994 0.75273 0.95441 0.0
C765 C 0.47775 0.7729 0.9697 0.0
C766 C 0.47455 0.80393 0.966 0.0
C767 C 0.47214 0.81446 0.94723 0.0
C768 C 0.47725 0.76114 0.98948 0.0
C769 C 0.50145 0.76769 1.00168 0.0
C770 C 0.45374 0.74201 0.99591 0.0
C771 C 0.42703 0.73515 0.98392 0.0
C772 C 0.40896 0.75862 0.97666 0.0
C773 C 0.38364 0.75199 0.96553 0.0
C774 C 0.37603 0.72197 0.96169 0.0
C775 C 0.39377 0.6985 0.96892 0.0
C776 C 0.41914 0.70501 0.98003 0.0
C777 C 0.47854 0.73347 0.08063 0.0
C778 C 0.47156 0.70295 0.08426 0.0
C779 C 0.48133 0.74414 0.062 0.0
C780 C 0.4779 0.72447 0.0465 0.0
C781 C 0.47151 0.69383 0.05007 0.0
C782 C 0.46829 0.68318 0.06875 0.0
C783 C 0.47922 0.73627 0.02662 0.0
C784 C 0.45508 0.72978 0.01432 0.0
C785 C 0.50296 0.75524 0.02008 0.0
C786 C 0.5301 0.76152 0.03183 0.0
C787 C 0.54723 0.73765 0.03948 0.0
C788 C 0.57257 0.7437 0.05072 0.0
C789 C 0.58114 0.77355 0.05432 0.0
C790 C 0.56445 0.79741 0.04663 0.0
C791 C 0.53908 0.79148 0.03538 0.0
H792 H 0.60075 0.77819 0.06303 0.0
H793 H 0.35629 0.71688 0.95322 0.0
H794 H 0.66064 0.44777 0.44347 0.0
H795 H 0.6794 0.45266 0.47607 0.0
H796 H 0.76264 0.49085 0.45494 0.0
H797 H 0.74401 0.48651 0.42246 0.0
H798 H 0.72693 0.42548 0.49192 0.0
H799 H 0.79268 0.53846 0.48778 0.0
H800 H 0.78972 0.58745 0.47111 0.0
H801 H 0.69369 0.57696 0.46509 0.0
H802 H 0.69602 0.52811 0.48194 0.0
H803 H 0.83217 0.4362 0.56774 0.0
H804 H 0.81153 0.4405 0.5355 0.0
H805 H 0.74338 0.50215 0.55585 0.0
H806 H 0.76356 0.49775 0.58808 0.0
H807 H 0.76857 0.51928 0.52036 0.0
H808 H 0.72334 0.43315 0.55093 0.0
H809 H 0.72382 0.38486 0.56845 0.0
H810 H 0.77315 0.34314 0.5229 0.0
H811 H 0.77335 0.39136 0.50523 0.0
C812 C 0.68276 0.45762 0.44576 0.0
C813 C 0.7008 0.46668 0.43029 0.0
C814 C 0.69352 0.46027 0.46442 0.0
C815 C 0.7224 0.47223 0.468 0.0
C816 C 0.74013 0.48194 0.45261 0.0
C817 C 0.72944 0.47931 0.43399 0.0
C818 C 0.73467 0.47311 0.4877 0.0
C819 C 0.73596 0.44604 0.49811 0.0
C820 C 0.74634 0.49994 0.4959 0.0
C821 C 0.74459 0.52949 0.48598 0.0
C822 C 0.77092 0.54667 0.48298 0.0
C823 C 0.76935 0.5744 0.47348 0.0
C824 C 0.74154 0.58527 0.467 0.0
C825 C 0.71523 0.56846 0.47006 0.0
C826 C 0.71667 0.54073 0.47956 0.0
C827 C 0.81309 0.45102 0.5653 0.0
C828 C 0.7994 0.46646 0.58051 0.0
C829 C 0.80125 0.45338 0.5469 0.0
C830 C 0.77577 0.47146 0.54333 0.0
C831 C 0.76303 0.48808 0.55829 0.0
C832 C 0.77456 0.48543 0.57672 0.0
C833 C 0.76123 0.4716 0.52431 0.0
C834 C 0.75955 0.49879 0.51408 0.0
C835 C 0.74888 0.44499 0.51632 0.0
C836 C 0.74863 0.41594 0.52685 0.0
C837 C 0.73451 0.41375 0.54472 0.0
C838 C 0.73462 0.38638 0.55466 0.0
C839 C 0.74857 0.36097 0.54681 0.0
C840 C 0.76238 0.36286 0.52897 0.0
C841 C 0.76238 0.39019 0.51898 0.0
H842 H 0.74863 0.33979 0.55453 0.0
H843 H 0.74038 0.60672 0.45964 0.0
H844 H 0.05441 0.82959 0.06656 0.0
H845 H 0.0474 0.81066 0.03421 0.0
H846 H 0.97523 0.75274 0.05385 0.0
H847 H 0.98328 0.77048 0.08629 0.0
H848 H 0.00747 0.7212 0.03321 0.0
H849 H 0.96434 0.8175 0.02386 0.0
H850 H 0.95892 0.87295 0.02418 0.0
H851 H 0.03622 0.88168 0.98764 0.0
H852 H 0.04244 0.82629 0.98734 0.0
H853 H 0.98456 0.73231 0.92144 0.0
H854 H 0.97673 0.7519 0.95354 0.0
H855 H 0.04783 0.69382 0.97435 0.0
H856 H 0.05446 0.67299 0.94249 0.0
H857 H 0.0084 0.78353 0.97463 0.0
H858 H 0.04211 0.67841 0.02045 0.0
H859 H 0.03626 0.62299 0.01961 0.0
H860 H 0.95909 0.63202 0.98305 0.0
H861 H 0.9642 0.68749 0.98387 0.0
C862 C 0.03672 0.8132 0.0639 0.0
C863 C 0.01948 0.80146 0.07899 0.0
C864 C 0.03261 0.80242 0.04535 0.0
C865 C 0.01063 0.78026 0.04141 0.0
C866 C 0.99251 0.76959 0.05641 0.0
C867 C 0.99703 0.77988 0.07499 0.0
C868 C 0.00802 0.76661 0.02204 0.0
C869 C 0.0075 0.73493 0.02043 0.0
C870 C 0.00717 0.78429 1.00524 0.0
C871 C 0.00403 0.8177 1.00574 0.0
C872 C 0.9804 0.83124 0.01606 0.0
C873 C 0.97714 0.86267 0.0162 0.0
C874 C 0.99726 0.88082 1.00597 0.0
C875 C 0.02069 0.86759 0.99558 0.0
C876 C 0.02408 0.83617 0.99542 0.0
C877 C -0.00187 0.72332 0.93295 0.0
C878 C 0.02003 0.70098 0.92944 0.0
C879 C 0.99376 0.73468 0.95131 0.0
C880 C 0.01151 0.72432 0.96655 0.0
C881 C 0.03323 0.70176 0.96305 0.0
C882 C 0.03713 0.6899 0.94477 0.0
C883 C 0.00843 0.73817 0.98584 0.0
C884 C 0.00805 0.76985 0.98743 0.0
C885 C 0.00698 0.72052 1.00263 0.0
C886 C 0.00374 0.68713 1.00208 0.0
C887 C 0.02383 0.66858 0.01228 0.0
C888 C 0.02065 0.63715 0.0118 0.0
C889 C -0.00262 0.62399 1.00124 0.0
C890 C 0.97718 0.64223 0.99116 0.0
C891 C 0.98024 0.67367 0.99161 0.0
H892 H 0.99496 0.59965 1.00088 0.0
H893 H 0.99467 0.90514 1.00607 0.0
H894 H 0.74714 0.00246 0.42236 0.0
H895 H 0.72872 -0.00049 0.45499 0.0
H896 H 0.8159 0.02794 0.47569 0.0
H897 H 0.83468 0.03123 0.44291 0.0
H898 H 0.78745 0.98006 0.49768 0.0
H899 H 0.76486 0.07915 0.47216 0.0
H900 H 0.74385 0.11417 0.44828 0.0
H901 H 0.65549 0.07611 0.45656 0.0
H902 H 0.67608 0.04054 0.4803 0.0
H903 H 0.75005 0.02984 0.5894 0.0
H904 H 0.76777 0.02429 0.55692 0.0
H905 H 0.67552 0.01847 0.53726 0.0
H906 H 0.65748 0.02568 0.56998 0.0
H907 H 0.70525 0.05179 0.51411 0.0
H908 H 0.72534 0.95474 0.54069 0.0
H909 H 0.74483 0.91889 0.56458 0.0
H910 H 0.83533 0.9499 0.55424 0.0
H911 H 0.81636 0.98627 0.53043 0.0
C912 C 0.76263 0.00779 0.4338 0.0
C913 C 0.79238 0.0174 0.42994 0.0
C914 C 0.75198 0.00608 0.45247 0.0
C915 C 0.77083 0.0138 0.46774 0.0
C916 C 0.80098 0.02191 0.46408 0.0
C917 C 0.81164 0.02387 0.44534 0.0
C918 C 0.75834 0.01536 0.48734 0.0
C919 C 0.76969 0.9959 0.50138 0.0
C920 C 0.73452 0.0354 0.49197 0.0
C921 C 0.72207 0.05699 0.47786 0.0
C922 C 0.74099 0.07809 0.46878 0.0
C923 C 0.72916 0.09807 0.45529 0.0
C924 C 0.69837 0.09731 0.45087 0.0
C925 C 0.67934 0.07664 0.45998 0.0
C926 C 0.69108 0.05659 0.47346 0.0
C927 C 0.73342 0.02726 0.57821 0.0
C928 C 0.70229 0.02805 0.58232 0.0
C929 C 0.74366 0.02383 0.55958 0.0
C930 C 0.72309 0.02015 0.54457 0.0
C931 C 0.6919 0.02107 0.54859 0.0
C932 C 0.68158 0.02514 0.56728 0.0
C933 C 0.73433 0.01651 0.5247 0.0
C934 C 0.7228 0.03565 0.51052 0.0
C935 C 0.75771 0.99585 0.51993 0.0
C936 C 0.76937 0.9734 0.53385 0.0
C937 C 0.74939 0.95401 0.54354 0.0
C938 C 0.76035 0.93359 0.55707 0.0
C939 C 0.79128 0.93216 0.56094 0.0
C940 C 0.81136 0.95105 0.55121 0.0
C941 C 0.80052 0.97154 0.53767 0.0
H942 H 0.79968 0.91641 0.57146 0.0
H943 H 0.68925 0.11279 0.44042 0.0
H944 H 0.56724 0.76968 0.12974 0.0
H945 H 0.58359 0.82216 0.12609 0.0
H946 H 0.51 0.85127 0.16197 0.0
H947 H 0.494 0.79907 0.16605 0.0
H948 H 0.55177 0.86466 0.10905 0.0
H949 H 0.52509 0.91671 0.18333 0.0
H950 H 0.52929 0.90278 0.21718 0.0
H951 H 0.60037 0.84023 0.20385 0.0
H952 H 0.59691 0.85408 0.16996 0.0
H953 H 0.5255 0.03233 0.13733 0.0
H954 H 0.5192 0.97768 0.1404 0.0
H955 H 0.60228 0.9636 0.1095 0.0
H956 H 0.6086 0.0185 0.10631 0.0
H957 H 0.56214 0.94215 0.15951 0.0
H958 H 0.59229 0.89237 0.08609 0.0
H959 H 0.58872 0.90565 0.05209 0.0
H960 H 0.51268 0.96299 0.06379 0.0
H961 H 0.51546 0.94966 0.09778 0.0
C962 C 0.55502 0.7872 0.13725 0.0
C963 C 0.52917 0.78026 0.14806 0.0
C964 C 0.56431 0.81717 0.13507 0.0
C965 C 0.54803 0.84061 0.14375 0.0
C966 C 0.5232 0.83354 0.15536 0.0
C967 C 0.51398 0.80364 0.15762 0.0
C968 C 0.55489 0.87255 0.13924 0.0
C969 C 0.55474 0.88153 0.12008 0.0
C970 C 0.55813 0.89459 0.15365 0.0
C971 C 0.56056 0.88629 0.17406 0.0
C972 C 0.54172 0.90009 0.18762 0.0
C973 C 0.54395 0.89219 0.20682 0.0
C974 C 0.56503 0.87058 0.21265 0.0
C975 C 0.58398 0.85689 0.1993 0.0
C976 C 0.58185 0.86472 0.18009 0.0
C977 C 0.54177 0.01759 0.13054 0.0
C978 C 0.56718 0.02948 0.1212 0.0
C979 C 0.53838 0.98643 0.13253 0.0
C980 C 0.56026 0.96675 0.12515 0.0
C981 C 0.58504 0.9785 0.11513 0.0
C982 C 0.58859 0.00973 0.11329 0.0
C983 C 0.55839 0.93415 0.12941 0.0
C984 C 0.55957 0.92515 0.14852 0.0
C985 C 0.55634 0.91211 0.11496 0.0
C986 C 0.55441 0.92036 0.09454 0.0
C987 C 0.5748 0.9078 0.0814 0.0
C988 C 0.57289 0.91531 0.06213 0.0
C989 C 0.55059 0.93527 0.0558 0.0
C990 C 0.53006 0.94767 0.06873 0.0
C991 C 0.53184 0.94019 0.08801 0.0
H992 H 0.54915 0.94106 0.04087 0.0
H993 H 0.56671 0.86449 0.22752 0.0
H994 H 0.72599 0.54272 0.61052 0.0
H995 H 0.67308 0.55621 0.60611 0.0
H996 H 0.65291 0.5244 0.6628 0.0
H997 H 0.70573 0.50928 0.66683 0.0
H998 H 0.61407 0.50233 0.64 0.0
H999 H 0.65376 0.60269 0.64885 0.0
H1000 H 0.68747 0.646 0.64261 0.0
H1001 H 0.65563 0.65059 0.58502 0.0
H1002 H 0.62198 0.60706 0.59086 0.0
H1003 H 0.47664 0.58153 0.65671 0.0
H1004 H 0.53069 0.57028 0.65551 0.0
H1005 H 0.52479 0.5564 0.59495 0.0
H1006 H 0.47006 0.56696 0.59614 0.0
H1007 H 0.57568 0.60043 0.6158 0.0
H1008 H 0.53434 0.49967 0.60855 0.0
H1009 H 0.49939 0.45823 0.61674 0.0
H1010 H 0.53397 0.45675 0.67376 0.0
H1011 H 0.56873 0.49865 0.666 0.0
C1012 C 0.7104 0.53921 0.6222 0.0
C1013 C 0.7199 0.52503 0.63905 0.0
C1014 C 0.68012 0.54697 0.61967 0.0
C1015 C 0.65897 0.54155 0.63417 0.0
C1016 C 0.66878 0.52866 0.65137 0.0
C1017 C 0.69894 0.52022 0.65373 0.0
C1018 C 0.62634 0.54737 0.631 0.0
C1019 C 0.60579 0.52392 0.63486 0.0
C1020 C 0.61543 0.57521 0.62374 0.0
C1021 C 0.63559 0.60143 0.62024 0.0
C1022 C 0.65412 0.6128 0.63482 0.0
C1023 C 0.67318 0.63741 0.63136 0.0
C1024 C 0.67375 0.65099 0.61342 0.0
C1025 C 0.65519 0.64003 0.59891 0.0
C1026 C 0.6361 0.61541 0.60229 0.0
C1027 C 0.48688 0.57616 0.64313 0.0
C1028 C 0.46941 0.57504 0.6265 0.0
C1029 C 0.51763 0.5697 0.64249 0.0
C1030 C 0.53145 0.56254 0.62517 0.0
C1031 C 0.51426 0.56187 0.60842 0.0
C1032 C 0.48319 0.56774 0.60912 0.0
C1033 C 0.56394 0.55559 0.62502 0.0
C1034 C 0.58431 0.57881 0.62066 0.0
C1035 C 0.57472 0.52773 0.63202 0.0
C1036 C 0.55388 0.50253 0.63675 0.0
C1037 C 0.53423 0.49077 0.6229 0.0
C1038 C 0.51451 0.46715 0.62745 0.0
C1039 C 0.51441 0.45492 0.64576 0.0
C1040 C 0.53405 0.46628 0.65958 0.0
C1041 C 0.55377 0.48996 0.65511 0.0
H1042 H 0.49919 0.43657 0.64922 0.0
H1043 H 0.68853 0.67004 0.61077 0.0
H1044 H 0.87723 0.47689 0.11069 0.0
H1045 H 0.88485 0.53182 0.1117 0.0
H1046 H 0.97867 0.51809 0.12594 0.0
H1047 H 0.97121 0.46343 0.12495 0.0
H1048 H 0.94347 0.55146 0.15292 0.0
H1049 H 0.96492 0.54838 0.08563 0.0
H1050 H 0.9542 0.53674 0.05203 0.0
H1051 H 0.87475 0.59236 0.05409 0.0
H1052 H 0.88478 0.60401 0.0878 0.0
H1053 H 0.00856 0.69537 0.15461 0.0
H1054 H 0.99291 0.64321 0.15051 0.0
H1055 H 0.90879 0.67293 0.12567 0.0
H1056 H 0.92494 0.72558 0.12905 0.0
H1057 H 0.93304 0.63182 0.10417 0.0
H1058 H 0.91207 0.63785 0.17037 0.0
H1059 H 0.92123 0.64964 0.20413 0.0
H1060 H 0.99641 0.58831 0.20491 0.0
H1061 H 0.98798 0.57645 0.17108 0.0
C1062 C 0.89969 0.48572 0.11334 0.0
C1063 C 0.92376 0.46608 0.11741 0.0
C1064 C 0.90399 0.51697 0.11394 0.0
C1065 C 0.9323 0.52881 0.1189 0.0
C1066 C 0.95673 0.50923 0.12197 0.0
C1067 C 0.95252 0.47805 0.12117 0.0
C1068 C 0.93556 0.56118 0.12334 0.0
C1069 C 0.94155 0.56911 0.14226 0.0
C1070 C 0.93158 0.58398 0.10953 0.0
C1071 C 0.9254 0.57676 0.08932 0.0
C1072 C 0.94497 0.55786 0.07899 0.0
C1073 C 0.93907 0.55133 0.0599 0.0
C1074 C 0.91375 0.56372 0.05095 0.0
C1075 C 0.89432 0.58273 0.06106 0.0
C1076 C 0.90011 0.58932 0.08015 0.0
C1077 C 0.98646 0.69093 0.1486 0.0
C1078 C 0.96805 0.71462 0.14205 0.0
C1079 C 0.97746 0.66101 0.14634 0.0
C1080 C 0.94955 0.65412 0.13792 0.0
C1081 C 0.93044 0.67776 0.13218 0.0
C1082 C 0.93963 0.7078 0.13422 0.0
C1083 C 0.94172 0.62227 0.13377 0.0
C1084 C 0.93468 0.61432 0.11493 0.0
C1085 C 0.94436 0.59938 0.14773 0.0
C1086 C 0.94949 0.60641 0.16813 0.0
C1087 C 0.93069 0.62703 0.1777 0.0
C1088 C 0.93573 0.6337 0.19686 0.0
C1089 C 0.95941 0.61977 0.20665 0.0
C1090 C 0.97807 0.59909 0.19731 0.0
C1091 C 0.97314 0.59235 0.17814 0.0
H1092 H 0.96328 0.62497 0.22148 0.0
H1093 H 0.90924 0.55867 0.03617 0.0
H1094 H 0.77556 0.95828 0.60545 0.0
H1095 H 0.82813 0.94492 0.59935 0.0
H1096 H 0.84923 0.95952 0.65858 0.0
H1097 H 0.79687 0.97484 0.66446 0.0
H1098 H 0.88939 0.98552 0.6383 0.0
H1099 H 0.84357 0.88586 0.63609 0.0
H1100 H 0.80716 0.84785 0.62451 0.0
H1101 H 0.8407 0.85896 0.56762 0.0
H1102 H 0.87707 0.89729 0.57884 0.0
H1103 H 0.01928 0.89682 0.65196 0.0
H1104 H 0.96528 0.907 0.64869 0.0
H1105 H 0.97974 0.93936 0.59156 0.0
H1106 H 0.03431 0.92965 0.59485 0.0
H1107 H 0.92301 0.89209 0.60552 0.0
H1108 H 0.97052 0.99131 0.60895 0.0
H1109 H 0.00842 0.02647 0.62203 0.0
H1110 H 0.97124 0.0145 0.67789 0.0
H1111 H 0.93376 0.97844 0.66526 0.0
C1112 C 0.79131 0.95809 0.61725 0.0
C1113 C 0.78225 0.96736 0.63548 0.0
C1114 C 0.82136 0.95039 0.61373 0.0
C1115 C 0.84261 0.95083 0.62854 0.0
C1116 C 0.83325 0.95911 0.64692 0.0
C1117 C 0.80337 0.96763 0.65032 0.0
C1118 C 0.8749 0.94417 0.62479 0.0
C1119 C 0.89659 0.965 0.63118 0.0
C1120 C 0.88446 0.91789 0.61496 0.0
C1121 C 0.86286 0.89458 0.60828 0.0
C1122 C 0.84307 0.88029 0.6211 0.0
C1123 C 0.82246 0.85868 0.6146 0.0
C1124 C 0.82158 0.85103 0.59534 0.0
C1125 C 0.84141 0.86489 0.58254 0.0
C1126 C 0.86204 0.88653 0.58896 0.0
C1127 C 0.01093 0.90574 0.6386 0.0
C1128 C 0.03085 0.91287 0.62373 0.0
C1129 C 0.98016 0.91148 0.63677 0.0
C1130 C 0.96882 0.92395 0.61993 0.0
C1131 C 0.98834 0.92974 0.60465 0.0
C1132 C 0.01936 0.92448 0.6066 0.0
C1133 C 0.93693 0.93314 0.61933 0.0
C1134 C 0.91547 0.91281 0.61225 0.0
C1135 C 0.92749 0.95979 0.62856 0.0
C1136 C 0.9496 0.98188 0.63619 0.0
C1137 C 0.9707 0.99586 0.62407 0.0
C1138 C 0.9921 0.01596 0.63141 0.0
C1139 C 0.99237 0.02257 0.65082 0.0
C1140 C 0.97115 0.00918 0.6629 0.0
C1141 C 0.94983 0.9889 0.65566 0.0
H1142 H 0.00893 0.03815 0.65649 0.0
H1143 H 0.80558 0.83434 0.59033 0.0
H1144 H 0.56645 0.72051 0.88371 0.0
H1145 H 0.57936 0.66739 0.88902 0.0
H1146 H 0.49496 0.64047 0.8633 0.0
H1147 H 0.48255 0.69309 0.8573 0.0
H1148 H 0.55138 0.62884 0.91111 0.0
H1149 H 0.49812 0.5718 0.84476 0.0
H1150 H 0.49066 0.58231 0.81065 0.0
H1151 H 0.56773 0.64135 0.81078 0.0
H1152 H 0.57591 0.63088 0.84483 0.0
H1153 H 0.51865 0.45812 0.89062 0.0
H1154 H 0.50899 0.51225 0.88859 0.0
H1155 H 0.59969 0.53054 0.90794 0.0
H1156 H 0.60939 0.47611 0.91027 0.0
H1157 H 0.5429 0.54653 0.86361 0.0
H1158 H 0.59752 0.60235 0.92948 0.0
H1159 H 0.60535 0.59171 0.96357 0.0
H1160 H 0.52681 0.53464 0.96405 0.0
H1161 H 0.51826 0.54527 0.93007 0.0
C1162 C 0.55104 0.70319 0.87877 0.0
C1163 C 0.52351 0.71097 0.87008 0.0
C1164 C 0.55834 0.6729 0.88192 0.0
C1165 C 0.5382 0.64996 0.87649 0.0
C1166 C 0.51116 0.65771 0.86728 0.0
C1167 C 0.50406 0.68788 0.86388 0.0
C1168 C 0.54431 0.61807 0.88153 0.0
C1169 C 0.55011 0.61088 0.90066 0.0
C1170 C 0.54188 0.5946 0.86798 0.0
C1171 C 0.53746 0.60072 0.8474 0.0
C1172 C 0.51357 0.5869 0.83749 0.0
C1173 C 0.50919 0.59289 0.81817 0.0
C1174 C 0.52866 0.61255 0.80857 0.0
C1175 C 0.55261 0.6262 0.81825 0.0
C1176 C 0.5571 0.62028 0.83758 0.0
C1177 C 0.53607 0.4736 0.89532 0.0
C1178 C 0.56461 0.463 0.90096 0.0
C1179 C 0.53063 0.50452 0.8939 0.0
C1180 C 0.55362 0.52527 0.89812 0.0
C1181 C 0.58158 0.51481 0.90482 0.0
C1182 C 0.58709 0.48382 0.90614 0.0
C1183 C 0.54962 0.5574 0.89315 0.0
C1184 C 0.54433 0.56457 0.87402 0.0
C1185 C 0.5527 0.58076 0.90667 0.0
C1186 C 0.55749 0.57434 0.92716 0.0
C1187 C 0.58188 0.58759 0.93688 0.0
C1188 C 0.58644 0.58156 0.95618 0.0
C1189 C 0.56666 0.56242 0.96595 0.0
C1190 C 0.54221 0.54935 0.95645 0.0
C1191 C 0.53754 0.55532 0.93715 0.0
H1192 H 0.57023 0.55778 0.9809 0.0
H1193 H 0.52521 0.61718 0.79361 0.0
H1194 H 0.77223 0.5619 0.37899 0.0
H1195 H 0.82486 0.57766 0.38292 0.0
H1196 H 0.85473 0.49321 0.35867 0.0
H1197 H 0.80245 0.47783 0.35411 0.0
H1198 H 0.86501 0.55281 0.40509 0.0
H1199 H 0.92321 0.49875 0.3391 0.0
H1200 H 0.91258 0.48971 0.30516 0.0
H1201 H 0.84999 0.56385 0.30475 0.0
H1202 H 0.86055 0.57361 0.3386 0.0
H1203 H 0.03633 0.52334 0.3861 0.0
H1204 H 0.98229 0.51279 0.38329 0.0
H1205 H 0.96204 0.60446 0.39976 0.0
H1206 H 0.0163 0.61509 0.40267 0.0
H1207 H 0.94686 0.54479 0.35714 0.0
H1208 H 0.89033 0.6013 0.42199 0.0
H1209 H 0.90106 0.61155 0.4558 0.0
H1210 H 0.96033 0.53479 0.45792 0.0
H1211 H 0.94961 0.52383 0.42423 0.0
C1212 C 0.79003 0.54702 0.37408 0.0
C1213 C 0.78319 0.51859 0.36629 0.0
C1214 C 0.82008 0.55598 0.37643 0.0
C1215 C 0.84375 0.53667 0.37106 0.0
C1216 C 0.8369 0.50877 0.36262 0.0
C1217 C 0.80692 0.49994 0.36007 0.0
C1218 C 0.87551 0.54446 0.3756 0.0
C1219 C 0.88283 0.55165 0.39451 0.0
C1220 C 0.89885 0.54226 0.3619 0.0
C1221 C 0.8925 0.53673 0.34146 0.0
C1222 C 0.90728 0.51321 0.33175 0.0
C1223 C 0.90124 0.50794 0.31253 0.0
C1224 C 0.88055 0.52614 0.30282 0.0
C1225 C 0.86592 0.5497 0.3123 0.0
C1226 C 0.87189 0.55508 0.33152 0.0
C1227 C 0.02035 0.54084 0.38993 0.0
C1228 C 0.03034 0.56984 0.39503 0.0
C1229 C 0.98954 0.53492 0.38806 0.0
C1230 C 0.9683 0.55784 0.39134 0.0
C1231 C 0.97814 0.58641 0.39736 0.0
C1232 C 0.00902 0.59244 0.39905 0.0
C1233 C 0.93621 0.55273 0.38659 0.0
C1234 C 0.92892 0.54614 0.36764 0.0
C1235 C 0.91293 0.55574 0.4002 0.0
C1236 C 0.91945 0.562 0.42051 0.0
C1237 C 0.90561 0.58658 0.42968 0.0
C1238 C 0.91168 0.59251 0.44883 0.0
C1239 C 0.93146 0.57391 0.45897 0.0
C1240 C 0.94513 0.54927 0.45002 0.0
C1241 C 0.93911 0.54323 0.43088 0.0
H1242 H 0.93613 0.57854 0.47379 0.0
H1243 H 0.8759 0.52201 0.28794 0.0
H1244 H 0.89201 0.01524 0.91513 0.0
H1245 H 0.90046 0.96075 0.91132 0.0
H1246 H 0.98096 0.97913 0.87866 0.0
H1247 H 0.97266 0.03335 0.88243 0.0
H1248 H 0.93707 0.94404 0.85985 0.0
H1249 H 0.98954 0.94773 0.91938 0.0
H1250 H 0.99709 0.95791 0.95349 0.0
H1251 H 0.92362 0.8984 0.96737 0.0
H1252 H 0.91524 0.88826 0.93329 0.0
H1253 H 0.00195 0.7995 0.8476 0.0
H1254 H 0.98813 0.85195 0.85342 0.0
H1255 H 0.91569 0.82285 0.89027 0.0
H1256 H 0.9297 0.77014 0.88476 0.0
H1257 H 0.95172 0.86291 0.90764 0.0
H1258 H 0.90044 0.85758 0.84811 0.0
H1259 H 0.89404 0.84627 0.81404 0.0
H1260 H 0.96536 0.90838 0.80018 0.0
H1261 H 0.9725 0.91976 0.8342 0.0
C1262 C 0.91201 0.00752 0.90769 0.0
C1263 C 0.932 0.02836 0.89939 0.0
C1264 C 0.91679 0.97651 0.90551 0.0
C1265 C 0.94134 0.96607 0.89474 0.0
C1266 C 0.96201 0.98685 0.88712 0.0
C1267 C 0.95744 0.01779 0.88948 0.0
C1268 C 0.94355 0.93387 0.88952 0.0
C1269 C 0.94062 0.92627 0.87025 0.0
C1270 C 0.94706 0.91082 0.90325 0.0
C1271 C 0.95147 0.91758 0.92373 0.0
C1272 C 0.97468 0.93716 0.92967 0.0
C1273 C 0.97919 0.94283 0.94902 0.0
C1274 C 0.96078 0.9289 0.96259 0.0
C1275 C 0.93781 0.90925 0.95684 0.0
C1276 C 0.93317 0.90354 0.93751 0.0
C1277 C 0.98263 0.80418 0.8566 0.0
C1278 C 0.96711 0.78068 0.86588 0.0
C1279 C 0.9747 0.83421 0.85988 0.0
C1280 C 0.95092 0.84127 0.87231 0.0
C1281 C 0.9342 0.81782 0.88068 0.0
C1282 C 0.94213 0.78773 0.87742 0.0
C1283 C 0.94556 0.87303 0.8779 0.0
C1284 C 0.94784 0.88061 0.89724 0.0
C1285 C 0.94138 0.89611 0.86425 0.0
C1286 C 0.93716 0.88934 0.84374 0.0
C1287 C 0.91493 0.86865 0.83782 0.0
C1288 C 0.91114 0.86226 0.8185 0.0
C1289 C 0.92932 0.87655 0.80495 0.0
C1290 C 0.9513 0.89731 0.81069 0.0
C1291 C 0.9552 0.90377 0.82999 0.0
H1292 H 0.92635 0.87158 0.79001 0.0
H1293 H 0.96436 0.93325 0.97756 0.0
H1294 H 0.4722 0.88607 0.41444 0.0
H1295 H 0.52742 0.89241 0.41388 0.0
H1296 H 0.51735 0.96874 0.3761 0.0
H1297 H 0.46271 0.96274 0.37698 0.0
H1298 H 0.564 0.88691 0.38505 0.0
H1299 H 0.57225 0.01848 0.38017 0.0
H1300 H 0.54695 0.06319 0.39372 0.0
H1301 H 0.51832 0.01077 0.44188 0.0
H1302 H 0.54381 0.96584 0.42878 0.0
H1303 H 0.69362 0.99089 0.34879 0.0
H1304 H 0.64125 0.97703 0.3553 0.0
H1305 H 0.67114 0.91093 0.39629 0.0
H1306 H 0.72374 0.92452 0.38982 0.0
H1307 H 0.6169 0.98526 0.39114 0.0
H1308 H 0.61337 0.85637 0.39913 0.0
H1309 H 0.63913 0.811 0.38677 0.0
H1310 H 0.65896 0.85757 0.33464 0.0
H1311 H 0.63299 0.90306 0.34659 0.0
C1312 C 0.48196 0.90465 0.40649 0.0
C1313 C 0.4634 0.9246 0.3963 0.0
C1314 C 0.51336 0.90816 0.40608 0.0
C1315 C 0.52648 0.93141 0.39525 0.0
C1316 C 0.50776 0.9513 0.38509 0.0
C1317 C 0.4765 0.948 0.38568 0.0
C1318 C 0.55969 0.93371 0.39318 0.0
C1319 C 0.57572 0.90827 0.38679 0.0
C1320 C 0.5749 0.96164 0.39527 0.0
C1321 C 0.55981 0.98871 0.40341 0.0
C1322 C 0.56072 0.01652 0.39371 0.0
C1323 C 0.54631 0.0419 0.4013 0.0
C1324 C 0.53098 0.0398 0.41863 0.0
C1325 C 0.53012 0.01234 0.42843 0.0
C1326 C 0.54451 0.98689 0.42091 0.0
C1327 C 0.68913 0.97291 0.35888 0.0
C1328 C 0.71277 0.95908 0.36899 0.0
C1329 C 0.65921 0.96511 0.36262 0.0
C1330 C 0.65243 0.94323 0.37641 0.0
C1331 C 0.67599 0.92783 0.38556 0.0
C1332 C 0.70601 0.93562 0.38182 0.0
C1333 C 0.62075 0.9388 0.38238 0.0
C1334 C 0.60517 0.96385 0.38964 0.0
C1335 C 0.60613 0.91048 0.38133 0.0
C1336 C 0.62156 0.88321 0.37386 0.0
C1337 C 0.62317 0.85689 0.38501 0.0
C1338 C 0.63781 0.83116 0.37808 0.0
C1339 C 0.65078 0.83144 0.35996 0.0
C1340 C 0.64903 0.85742 0.34871 0.0
C1341 C 0.63441 0.88321 0.35557 0.0
H1342 H 0.66211 0.8115 0.35462 0.0
H1343 H 0.51981 0.05947 0.42447 0.0
H1344 H 0.49551 0.19606 0.84765 0.0
H1345 H 0.47936 0.14399 0.85233 0.0
H1346 H 0.40928 0.17393 0.89064 0.0
H1347 H 0.42564 0.22625 0.88625 0.0
H1348 H 0.4447 0.13236 0.9069 0.0
H1349 H 0.39093 0.14061 0.84863 0.0
H1350 H 0.38259 0.15327 0.8149 0.0
H1351 H 0.45205 0.09076 0.79848 0.0
H1352 H 0.46113 0.07802 0.83213 0.0
H1353 H 0.39007 0.978 0.91416 0.0
H1354 H 0.39567 0.0329 0.91048 0.0
H1355 H 0.47433 0.01893 0.87527 0.0
H1356 H 0.46874 0.96432 0.87883 0.0
H1357 H 0.42798 0.05309 0.85823 0.0
H1358 H 0.48451 0.04868 0.91664 0.0
H1359 H 0.49319 0.03639 0.95039 0.0
H1360 H 0.41784 0.09197 0.96641 0.0
H1361 H 0.40842 0.10425 0.93269 0.0
C1362 C 0.47619 0.19168 0.85671 0.0
C1363 C 0.46212 0.21519 0.86679 0.0
C1364 C 0.46688 0.16189 0.85931 0.0
C1365 C 0.44316 0.15514 0.87187 0.0
C1366 C 0.4277 0.17874 0.88093 0.0
C1367 C 0.437 0.2086 0.87834 0.0
C1368 C 0.43714 0.12339 0.87713 0.0
C1369 C 0.44031 0.11509 0.89631 0.0
C1370 C 0.43217 0.10088 0.86324 0.0
C1371 C 0.42684 0.10851 0.84295 0.0
C1372 C 0.4046 0.12973 0.83784 0.0
C1373 C 0.39971 0.13689 0.81873 0.0
C1374 C 0.41682 0.12286 0.80456 0.0
C1375 C 0.43882 0.10161 0.80947 0.0
C1376 C 0.44382 0.09438 0.82857 0.0
C1377 C 0.40907 0.98681 0.90617 0.0
C1378 C 0.42937 0.96713 0.89713 0.0
C1379 C 0.41221 0.01803 0.90404 0.0
C1380 C 0.4354 0.02977 0.89261 0.0
C1381 C 0.45639 0.01016 0.88421 0.0
C1382 C 0.45343 0.97903 0.88648 0.0
C1383 C 0.43615 0.06218 0.88786 0.0
C1384 C 0.43192 0.0705 0.8688 0.0
C1385 C 0.44006 0.08467 0.90186 0.0
C1386 C 0.4455 0.07705 0.92211 0.0
C1387 C 0.46956 0.058 0.92733 0.0
C1388 C 0.47467 0.05111 0.94646 0.0
C1389 C 0.45601 0.0633 0.96053 0.0
C1390 C 0.43223 0.08248 0.95549 0.0
C1391 C 0.427 0.08942 0.93638 0.0
H1392 H 0.46003 0.05797 0.97533 0.0
H1393 H 0.41299 0.12843 0.78976 0.0
H1394 H 0.3066 0.50544 0.3584 0.0
H1395 H 0.35709 0.4903 0.36855 0.0
H1396 H 0.31844 0.42379 0.40629 0.0
H1397 H 0.26769 0.43875 0.39622 0.0
H1398 H 0.37805 0.49462 0.40584 0.0
H1399 H 0.37324 0.36644 0.41023 0.0
H1400 H 0.34525 0.32332 0.3966 0.0
H1401 H 0.33202 0.37284 0.34473 0.0
H1402 H 0.36021 0.41608 0.35798 0.0
H1403 H 0.52048 0.38627 0.41859 0.0
H1404 H 0.46612 0.39584 0.42249 0.0
H1405 H 0.47452 0.47615 0.38795 0.0
H1406 H 0.52833 0.46678 0.38429 0.0
H1407 H 0.42619 0.39469 0.39587 0.0
H1408 H 0.42283 0.52718 0.39634 0.0
H1409 H 0.45052 0.56929 0.41124 0.0
H1410 H 0.4803 0.51037 0.45599 0.0
H1411 H 0.45244 0.46797 0.44153 0.0
C1412 C 0.30879 0.48723 0.36861 0.0
C1413 C 0.28314 0.47341 0.37657 0.0
C1414 C 0.33764 0.47877 0.37449 0.0
C1415 C 0.34139 0.45619 0.38829 0.0
C1416 C 0.31595 0.44126 0.39561 0.0
C1417 C 0.287 0.44978 0.38977 0.0
C1418 C 0.37205 0.44934 0.39535 0.0
C1419 C 0.38875 0.47285 0.40361 0.0
C1420 C 0.38521 0.42044 0.39344 0.0
C1421 C 0.36849 0.39458 0.38519 0.0
C1422 C 0.36439 0.36807 0.3959 0.0
C1423 C 0.3485 0.34363 0.38825 0.0
C1424 C 0.33676 0.34539 0.36984 0.0
C1425 C 0.341 0.37156 0.35902 0.0
C1426 C 0.35689 0.39606 0.3666 0.0
C1427 C 0.51069 0.40643 0.41238 0.0
C1428 C 0.5286 0.42634 0.40167 0.0
C1429 C 0.47974 0.41183 0.41455 0.0
C1430 C 0.4663 0.43703 0.40583 0.0
C1431 C 0.48446 0.45718 0.39542 0.0
C1432 C 0.51533 0.45192 0.3934 0.0
C1433 C 0.433 0.44055 0.4054 0.0
C1434 C 0.41555 0.41636 0.39855 0.0
C1435 C 0.41903 0.46878 0.40886 0.0
C1436 C 0.43561 0.49431 0.41777 0.0
C1437 C 0.4351 0.52322 0.40943 0.0
C1438 C 0.45089 0.54715 0.41778 0.0
C1439 C 0.4672 0.5425 0.43453 0.0
C1440 C 0.46772 0.51392 0.44298 0.0
C1441 C 0.45197 0.48991 0.43469 0.0
H1442 H 0.47942 0.56105 0.44097 0.0
H1443 H 0.32446 0.32645 0.36394 0.0
H1444 H 0.06538 0.27266 0.88603 0.0
H1445 H 0.08 0.32517 0.89168 0.0
H1446 H -0.00092 0.35552 0.86322 0.0
H1447 H 0.98477 0.3033 0.85705 0.0
H1448 H 0.04318 0.39194 0.85517 0.0
H1449 H 0.00237 0.34848 0.91164 0.0
H1450 H -0.00264 0.31176 0.9378 0.0
H1451 H 0.08681 0.33361 0.9571 0.0
H1452 H 0.09256 0.37016 0.93079 0.0
H1453 H 0.02353 0.53461 0.89306 0.0
H1454 H 0.01449 0.48028 0.8926 0.0
H1455 H 0.10823 0.46406 0.90591 0.0
H1456 H 0.11743 0.51874 0.90662 0.0
H1457 H 0.06043 0.4207 0.92256 0.0
H1458 H 0.09709 0.46684 0.86342 0.0
H1459 H 0.09416 0.50694 0.83911 0.0
H1460 H 0.0026 0.48159 0.82657 0.0
H1461 H 0.00484 0.44169 0.85109 0.0
C1462 C 0.05103 0.29054 0.88063 0.0
C1463 C 0.02372 0.28385 0.87132 0.0
C1464 C 0.0593 0.3205 0.884 0.0
C1465 C 0.04022 0.34417 0.8783 0.0
C1466 C 0.01403 0.33758 0.86786 0.0
C1467 C 0.00588 0.30768 0.86435 0.0
C1468 C 0.04654 0.37571 0.88402 0.0
C1469 C 0.04686 0.39813 0.86992 0.0
C1470 C 0.05127 0.38387 0.9033 0.0
C1471 C 0.04805 0.36176 0.91908 0.0
C1472 C 0.02111 0.34523 0.92134 0.0
C1473 C 0.01812 0.32447 0.93622 0.0
C1474 C 0.0418 0.32024 0.94908 0.0
C1475 C 0.06852 0.33684 0.94709 0.0
C1476 C 0.07166 0.35758 0.93219 0.0
C1477 C 0.04188 0.5196 0.89688 0.0
C1478 C 0.07112 0.53081 0.90016 0.0
C1479 C 0.03672 0.48856 0.89645 0.0
C1480 C 0.06075 0.46838 0.89913 0.0
C1481 C 0.08943 0.47943 0.90394 0.0
C1482 C 0.09466 0.51055 0.90427 0.0
C1483 C 0.05703 0.43647 0.89371 0.0
C1484 C 0.05717 0.41417 0.90784 0.0
C1485 C 0.0519 0.42843 0.87454 0.0
C1486 C 0.05107 0.45144 0.85917 0.0
C1487 C 0.07631 0.4699 0.85553 0.0
C1488 C 0.07476 0.49261 0.84173 0.0
C1489 C 0.04818 0.49686 0.83133 0.0
C1490 C 0.02316 0.47829 0.83465 0.0
C1491 C 0.02457 0.45561 0.84848 0.0
H1492 H 0.04699 0.51451 0.82069 0.0
H1493 H 0.03942 0.30418 0.9606 0.0
H1494 H 0.96156 0.02072 0.39926 0.0
H1495 H 0.01563 0.014 0.40321 0.0
H1496 H 0.02898 0.11002 0.39622 0.0
H1497 H 0.97449 0.11718 0.39384 0.0
H1498 H 0.05356 0.02153 0.3775 0.0
H1499 H 0.09537 0.13348 0.41363 0.0
H1500 H 0.08014 0.16683 0.44004 0.0
H1501 H 0.03034 0.09403 0.46558 0.0
H1502 H 0.04559 0.06013 0.4395 0.0
H1503 H 0.20347 0.03533 0.35044 0.0
H1504 H 0.15069 0.0493 0.35638 0.0
H1505 H 0.1672 0.04607 0.4169 0.0
H1506 H 0.22026 0.03476 0.41089 0.0
H1507 H 0.12783 0.08492 0.41208 0.0
H1508 H 0.13782 0.98367 0.38995 0.0
H1509 H 0.15359 0.94265 0.36839 0.0
H1510 H 0.09963 0.98068 0.32364 0.0
H1511 H 0.08386 0.02216 0.34486 0.0
C1512 C 0.97567 0.04064 0.39966 0.0
C1513 C 0.96357 0.06962 0.39673 0.0
C1514 C 0.00679 0.03668 0.40155 0.0
C1515 C 0.02645 0.06148 0.40007 0.0
C1516 C 0.01433 0.09057 0.39781 0.0
C1517 C 0.98316 0.09461 0.39629 0.0
C1518 C 0.05947 0.05659 0.39846 0.0
C1519 C 0.06976 0.03525 0.38521 0.0
C1520 C 0.0807 0.074 0.40875 0.0
C1521 C 0.0714 0.09435 0.42448 0.0
C1522 C 0.08125 0.12456 0.42491 0.0
C1523 C 0.0726 0.14356 0.43982 0.0
C1524 C 0.05421 0.13258 0.45444 0.0
C1525 C 0.04447 0.10255 0.4542 0.0
C1526 C 0.05307 0.08344 0.43934 0.0
C1527 C 0.19584 0.03849 0.36495 0.0
C1528 C 0.21564 0.03399 0.38022 0.0
C1529 C 0.16571 0.04613 0.36837 0.0
C1530 C 0.15469 0.04774 0.38712 0.0
C1531 C 0.17503 0.04489 0.40233 0.0
C1532 C 0.20536 0.03841 0.39888 0.0
C1533 C 0.12181 0.05015 0.39095 0.0
C1534 C 0.11157 0.07107 0.40452 0.0
C1535 C 0.10061 0.03118 0.38172 0.0
C1536 C 0.10988 0.00616 0.36894 0.0
C1537 C 0.12945 0.98336 0.37548 0.0
C1538 C 0.13838 0.96003 0.36332 0.0
C1539 C 0.12767 0.9591 0.34465 0.0
C1540 C 0.10794 0.98146 0.3381 0.0
C1541 C 0.09898 0.00487 0.35019 0.0
H1542 H 0.13461 0.94102 0.33526 0.0
H1543 H 0.04755 0.14733 0.46597 0.0
H1544 H 0.42689 0.27185 0.12844 0.0
H1545 H 0.41201 0.3241 0.12211 0.0
H1546 H 0.48945 0.35583 0.15362 0.0
H1547 H 0.50398 0.30388 0.16044 0.0
H1548 H 0.44376 0.3913 0.15993 0.0
H1549 H 0.49083 0.34795 0.10512 0.0
H1550 H 0.49807 0.31096 0.07936 0.0
H1551 H 0.41075 0.33309 0.05665 0.0
H1552 H 0.40273 0.36987 0.08255 0.0
H1553 H 0.47052 0.5333 0.12308 0.0
H1554 H 0.47808 0.47876 0.12379 0.0
H1555 H 0.38553 0.46494 0.10668 0.0
H1556 H 0.3778 0.51985 0.10576 0.0
H1557 H 0.43462 0.42041 0.09194 0.0
H1558 H 0.39089 0.46609 0.14912 0.0
H1559 H 0.39066 0.50593 0.17363 0.0
H1560 H 0.48043 0.48073 0.19058 0.0
H1561 H 0.48136 0.44107 0.16593 0.0
C1562 C 0.44038 0.28997 0.13436 0.0
C1563 C 0.46683 0.28376 0.14473 0.0
C1564 C 0.43197 0.31979 0.13061 0.0
C1565 C 0.45006 0.34378 0.13699 0.0
C1566 C 0.47528 0.33764 0.14845 0.0
C1567 C 0.48356 0.30789 0.15233 0.0
C1568 C 0.44388 0.37522 0.13099 0.0
C1569 C 0.44181 0.39756 0.14506 0.0
C1570 C 0.44129 0.38345 0.11155 0.0
C1571 C 0.446 0.36135 0.09595 0.0
C1572 C 0.47303 0.34472 0.09475 0.0
C1573 C 0.47729 0.32381 0.08011 0.0
C1574 C 0.45482 0.31956 0.06642 0.0
C1575 C 0.42808 0.33632 0.06731 0.0
C1576 C 0.42366 0.35719 0.08198 0.0
C1577 C 0.45221 0.51878 0.11851 0.0
C1578 C 0.42366 0.53073 0.11411 0.0
C1579 C 0.45651 0.48762 0.11907 0.0
C1580 C 0.43231 0.46805 0.11535 0.0
C1581 C 0.40447 0.47984 0.10945 0.0
C1582 C 0.40008 0.51108 0.109 0.0
C1583 C 0.4347 0.43604 0.12088 0.0
C1584 C 0.43608 0.4138 0.10677 0.0
C1585 C 0.43735 0.42787 0.14023 0.0
C1586 C 0.43626 0.45078 0.15561 0.0
C1587 C 0.41062 0.46914 0.15803 0.0
C1588 C 0.41037 0.49169 0.17193 0.0
C1589 C 0.43554 0.4959 0.18363 0.0
C1590 C 0.46095 0.47745 0.18151 0.0
C1591 C 0.46134 0.45492 0.16758 0.0
H1592 H 0.43534 0.51342 0.19436 0.0
H1593 H 0.45815 0.30334 0.05511 0.0
H1594 H 0.22716 0.4276 0.63013 0.0
H1595 H 0.17514 0.41147 0.62412 0.0
H1596 H 0.14201 0.49219 0.65149 0.0
H1597 H 0.19367 0.50796 0.65805 0.0
H1598 H 0.10605 0.4475 0.65923 0.0
H1599 H 0.15268 0.48793 0.60369 0.0
H1600 H 0.19167 0.4921 0.57881 0.0
H1601 H 0.16934 0.4033 0.55867 0.0
H1602 H 0.131 0.39806 0.58397 0.0
H1603 H 0.96526 0.46598 0.61849 0.0
H1604 H 0.01957 0.47523 0.61928 0.0
H1605 H 0.03639 0.38078 0.60865 0.0
H1606 H 0.98173 0.37133 0.60767 0.0
H1607 H 0.08046 0.4295 0.59141 0.0
H1608 H 0.03277 0.39246 0.65035 0.0
H1609 H 0.99127 0.39539 0.67373 0.0
H1610 H 0.01367 0.48803 0.68521 0.0
H1611 H 0.05498 0.48576 0.66162 0.0
C1612 C 0.20877 0.44157 0.63523 0.0
C1613 C 0.21451 0.46927 0.6443 0.0
C1614 C 0.17909 0.43242 0.63169 0.0
C1615 C 0.15479 0.45103 0.63694 0.0
C1616 C 0.16044 0.47758 0.6472 0.0
C1617 C 0.19003 0.48659 0.65091 0.0
C1618 C 0.12361 0.4441 0.63069 0.0
C1619 C 0.10058 0.44359 0.6444 0.0
C1620 C 0.11636 0.43924 0.61128 0.0
C1621 C 0.1392 0.44243 0.59591 0.0
C1622 C 0.15627 0.46914 0.59409 0.0
C1623 C 0.17825 0.47172 0.57989 0.0
C1624 C 0.18292 0.44803 0.56712 0.0
C1625 C 0.16571 0.42164 0.56859 0.0
C1626 C 0.14392 0.41879 0.5829 0.0
C1627 C 0.98042 0.44746 0.6153 0.0
C1628 C 0.96938 0.41799 0.61273 0.0
C1629 C 0.01144 0.45276 0.6159 0.0
C1630 C 0.03177 0.42865 0.61406 0.0
C1631 C 0.02091 0.39964 0.60992 0.0
C1632 C 0.9898 0.39428 0.60945 0.0
C1633 C 0.06342 0.43278 0.61997 0.0
C1634 C 0.08631 0.43292 0.60623 0.0
C1635 C 0.07055 0.43815 0.63925 0.0
C1636 C 0.04681 0.43899 0.65416 0.0
C1637 C 0.02878 0.41347 0.65783 0.0
C1638 C 0.00528 0.41502 0.6711 0.0
C1639 C -0.0002 0.4419 0.68092 0.0
C1640 C 0.01794 0.46723 0.67758 0.0
C1641 C 0.04141 0.46581 0.66428 0.0
H1642 H 0.98153 0.4431 0.69114 0.0
H1643 H 0.19985 0.45013 0.55608 0.0
H1644 H 0.02796 0.96476 0.13244 0.0
H1645 H 0.02079 0.01908 0.13651 0.0
H1646 H 0.10571 0.03597 0.10824 0.0
H1647 H 0.11298 0.98135 0.10407 0.0
H1648 H 0.06275 0.05356 0.15763 0.0
H1649 H 0.09574 0.10791 0.08601 0.0
H1650 H 0.09367 0.09652 0.05169 0.0
H1651 H 0.01702 0.03872 0.06085 0.0
H1652 H 0.01835 0.0501 0.09514 0.0
H1653 H 0.06746 0.22792 0.1327 0.0
H1654 H 0.08456 0.17591 0.12798 0.0
H1655 H 0.0091 0.14346 0.16116 0.0
H1656 H 0.99229 0.19516 0.16627 0.0
H1657 H 0.0537 0.13428 0.109 0.0
H1658 H 0.02407 0.0769 0.18127 0.0
H1659 H 0.02627 0.08857 0.21552 0.0
H1660 H 0.09723 0.15283 0.20533 0.0
H1661 H 0.09578 0.14125 0.17106 0.0
C1662 C 0.0445 0.98007 0.1264 0.0
C1663 C 0.07071 0.96904 0.11755 0.0
C1664 C 0.04057 0.01102 0.12897 0.0
C1665 C 0.06272 0.03136 0.12266 0.0
C1666 C 0.08829 0.02053 0.11304 0.0
C1667 C 0.09237 0.98947 0.11064 0.0
C1668 C 0.06026 0.06358 0.12771 0.0
C1669 C 0.06048 0.07127 0.14705 0.0
C1670 C 0.05853 0.08652 0.1138 0.0
C1671 C 0.05745 0.07954 0.09318 0.0
C1672 C 0.07843 0.09279 0.08069 0.0
C1673 C 0.07737 0.08636 0.06124 0.0
C1674 C 0.05532 0.06681 0.05411 0.0
C1675 C 0.0342 0.05373 0.0664 0.0
C1676 C 0.03514 0.06011 0.08585 0.0
C1677 C 0.05497 0.20974 0.1394 0.0
C1678 C 0.02838 0.21561 0.14972 0.0
C1679 C 0.06469 0.18006 0.13661 0.0
C1680 C 0.0481 0.15586 0.14421 0.0
C1681 C 0.0225 0.1618 0.15538 0.0
C1682 C 0.01284 0.19141 0.15823 0.0
C1683 C 0.05558 0.12437 0.13902 0.0
C1684 C 0.05638 0.11671 0.11964 0.0
C1685 C 0.05839 0.10142 0.15291 0.0
C1686 C 0.05963 0.10835 0.17355 0.0
C1687 C 0.04025 0.09341 0.18634 0.0
C1688 C 0.04134 0.10004 0.20576 0.0
C1689 C 0.06182 0.12148 0.21259 0.0
C1690 C 0.08131 0.1363 0.20001 0.0
C1691 C 0.08032 0.12975 0.18058 0.0
H1692 H 0.06262 0.12659 0.22762 0.0
H1693 H 0.05453 0.06186 0.03905 0.0
H1694 H 0.26996 0.06409 0.6226 0.0
H1695 H 0.32258 0.0788 0.61733 0.0
H1696 H 0.35121 0.01527 0.66029 0.0
H1697 H 0.29878 0.00087 0.6659 0.0
H1698 H 0.38388 0.06511 0.66212 0.0
H1699 H 0.35062 0.99687 0.61335 0.0
H1700 H 0.31913 0.97851 0.58684 0.0
H1701 H 0.34376 0.0561 0.55357 0.0
H1702 H 0.37494 0.07526 0.58003 0.0
H1703 H 0.53195 0.02937 0.63786 0.0
H1704 H 0.47718 0.02301 0.63933 0.0
H1705 H 0.4654 0.10214 0.60425 0.0
H1706 H 0.52059 0.10847 0.6026 0.0
H1707 H 0.42394 0.04964 0.59688 0.0
H1708 H 0.46074 0.11489 0.64687 0.0
H1709 H 0.49522 0.12783 0.67317 0.0
H1710 H 0.46523 0.04991 0.70434 0.0
H1711 H 0.43112 0.03604 0.678 0.0
C1712 C 0.2874 0.05372 0.63122 0.0
C1713 C 0.28028 0.03104 0.6445 0.0
C1714 C 0.31745 0.062 0.62808 0.0
C1715 C 0.34076 0.04761 0.63812 0.0
C1716 C 0.33353 0.0265 0.6523 0.0
C1717 C 0.30354 0.01828 0.65548 0.0
C1718 C 0.3728 0.05314 0.63326 0.0
C1719 C 0.3926 0.06165 0.64786 0.0
C1720 C 0.38409 0.04891 0.61457 0.0
C1721 C 0.36481 0.03772 0.59879 0.0
C1722 C 0.34903 0.01022 0.60048 0.0
C1723 C 0.33129 -0.00037 0.58544 0.0
C1724 C 0.32942 0.01615 0.56854 0.0
C1725 C 0.3452 0.04336 0.56668 0.0
C1726 C 0.36288 0.05411 0.5817 0.0
C1727 C 0.51777 0.0446 0.62977 0.0
C1728 C 0.53032 0.06896 0.61971 0.0
C1729 C 0.48652 0.04117 0.63081 0.0
C1730 C 0.46745 0.06217 0.62194 0.0
C1731 C 0.47991 0.08566 0.61107 0.0
C1732 C 0.51126 0.08926 0.61016 0.0
C1733 C 0.43474 0.06124 0.62577 0.0
C1734 C 0.41495 0.05357 0.61102 0.0
C1735 C 0.42346 0.06572 0.64437 0.0
C1736 C 0.44355 0.07431 0.66039 0.0
C1737 C 0.46169 0.10036 0.65926 0.0
C1738 C 0.48117 0.10785 0.67417 0.0
C1739 C 0.4825 0.08963 0.69038 0.0
C1740 C 0.46425 0.06393 0.69174 0.0
C1741 C 0.44484 0.05625 0.67683 0.0
H1742 H 0.4976 0.09546 0.70191 0.0
H1743 H 0.31589 0.00781 0.55686 0.0
H1744 H 0.8804 0.24114 0.15878 0.0
H1745 H 0.82781 0.22481 0.16207 0.0
H1746 H 0.7975 0.31543 0.15003 0.0
H1747 H 0.84993 0.33203 0.14671 0.0
H1748 H 0.76502 0.28728 0.17962 0.0
H1749 H 0.79756 0.26672 0.11535 0.0
H1750 H 0.83122 0.24495 0.09099 0.0
H1751 H 0.81375 0.15583 0.1126 0.0
H1752 H 0.7803 0.17714 0.13728 0.0
H1753 H 0.6132 0.25859 0.15114 0.0
H1754 H 0.6657 0.27494 0.15472 0.0
H1755 H 0.69443 0.18177 0.15681 0.0
H1756 H 0.64223 0.16537 0.15251 0.0
H1757 H 0.72852 0.21065 0.13357 0.0
H1758 H 0.69414 0.22997 0.19699 0.0
H1759 H 0.66088 0.25114 0.22177 0.0
H1760 H 0.68183 0.34104 0.20287 0.0
H1761 H 0.71492 0.3204 0.1778 0.0
C1762 C 0.86258 0.25769 0.15704 0.0
C1763 C 0.86936 0.28783 0.15232 0.0
C1764 C 0.83256 0.24829 0.15889 0.0
C1765 C 0.80884 0.26888 0.15612 0.0
C1766 C 0.81552 0.29923 0.15221 0.0
C1767 C 0.8455 0.3086 0.15022 0.0
C1768 C 0.77706 0.25846 0.15617 0.0
C1769 C 0.75687 0.27069 0.16949 0.0
C1770 C 0.76674 0.2364 0.14318 0.0
C1771 C 0.7867 0.22355 0.12828 0.0
C1772 C 0.8011 0.2425 0.115 0.0
C1773 C 0.8201 0.23025 0.10112 0.0
C1774 C 0.82469 0.19903 0.10028 0.0
C1775 C 0.81021 0.18001 0.11329 0.0
C1776 C 0.79122 0.19216 0.12722 0.0
C1777 C 0.63069 0.24162 0.15259 0.0
C1778 C 0.62362 0.21071 0.15146 0.0
C1779 C 0.66069 0.25098 0.15473 0.0
C1780 C 0.68406 0.22959 0.15622 0.0
C1781 C 0.67685 0.19871 0.15563 0.0
C1782 C 0.64698 0.18936 0.15319 0.0
C1783 C 0.71619 0.23924 0.15716 0.0
C1784 C 0.73653 0.22699 0.1439 0.0
C1785 C 0.72662 0.26112 0.17031 0.0
C1786 C 0.70681 0.27361 0.18541 0.0
C1787 C 0.69148 0.25424 0.19803 0.0
C1788 C 0.67269 0.26615 0.21214 0.0
C1789 C 0.66919 0.29741 0.21386 0.0
C1790 C 0.68454 0.31683 0.20151 0.0
C1791 C 0.70335 0.30504 0.18736 0.0
H1792 H 0.65463 0.30658 0.2248 0.0
H1793 H 0.8394 0.18958 0.08952 0.0
H1794 H 0.32999 0.64757 0.64277 0.0
H1795 H 0.31359 0.69935 0.64816 0.0
H1796 H 0.2252 0.66738 0.66458 0.0
H1797 H 0.24134 0.61518 0.659 0.0
H1798 H 0.22235 0.71302 0.63888 0.0
H1799 H 0.27392 0.69487 0.6978 0.0
H1800 H 0.31663 0.67893 0.71796 0.0
H1801 H 0.37278 0.7474 0.69287 0.0
H1802 H 0.33052 0.76349 0.67236 0.0
H1803 H 0.16839 0.85569 0.66351 0.0
H1804 H 0.18481 0.80342 0.66738 0.0
H1805 H 0.27647 0.82966 0.65423 0.0
H1806 H 0.26024 0.88245 0.65111 0.0
H1807 H 0.27638 0.78608 0.68021 0.0
H1808 H 0.22833 0.80151 0.61973 0.0
H1809 H 0.18734 0.81773 0.59827 0.0
H1810 H 0.1268 0.75436 0.6246 0.0
H1811 H 0.16735 0.73804 0.64639 0.0
C1812 C 0.30709 0.65141 0.64764 0.0
C1813 C 0.28695 0.62716 0.65042 0.0
C1814 C 0.29783 0.68109 0.65084 0.0
C1815 C 0.26831 0.68719 0.657 0.0
C1816 C 0.24815 0.6631 0.65992 0.0
C1817 C 0.25741 0.63331 0.65674 0.0
C1818 C 0.25812 0.71886 0.6593 0.0
C1819 C 0.23377 0.72885 0.64821 0.0
C1820 C 0.27371 0.7397 0.671 0.0
C1821 C 0.29909 0.73024 0.68344 0.0
C1822 C 0.29543 0.7064 0.69648 0.0
C1823 C 0.31956 0.69736 0.70799 0.0
C1824 C 0.34742 0.7121 0.70667 0.0
C1825 C 0.35119 0.73598 0.69387 0.0
C1826 C 0.32714 0.7451 0.68232 0.0
C1827 C 0.19213 0.85038 0.66172 0.0
C1828 C 0.21301 0.87298 0.65675 0.0
C1829 C 0.20147 0.8205 0.66388 0.0
C1830 C 0.2317 0.8125 0.66056 0.0
C1831 C 0.25297 0.83531 0.65672 0.0
C1832 C 0.24371 0.86542 0.65493 0.0
C1833 C 0.24059 0.7802 0.65981 0.0
C1834 C 0.26476 0.77015 0.67106 0.0
C1835 C 0.22509 0.75929 0.64807 0.0
C1836 C 0.20079 0.76877 0.63481 0.0
C1837 C 0.20623 0.79116 0.62101 0.0
C1838 C 0.18308 0.80036 0.60879 0.0
C1839 C 0.15446 0.78714 0.61011 0.0
C1840 C 0.14896 0.76461 0.62361 0.0
C1841 C 0.17203 0.75536 0.63589 0.0
H1842 H 0.13656 0.79431 0.60064 0.0
H1843 H 0.36607 0.70506 0.71559 0.0
H1844 H 0.84896 0.16276 0.86803 0.0
H1845 H 0.79671 0.17952 0.86372 0.0
H1846 H 0.82677 0.27215 0.86117 0.0
H1847 H 0.87918 0.25563 0.86526 0.0
H1848 H 0.7799 0.2604 0.88792 0.0
H1849 H 0.80337 0.24226 0.82217 0.0
H1850 H 0.82151 0.21223 0.79496 0.0
H1851 H 0.75246 0.14598 0.80534 0.0
H1852 H 0.73417 0.17542 0.8328 0.0
H1853 H 0.64203 0.32947 0.86737 0.0
H1854 H 0.69427 0.31277 0.86417 0.0
H1855 H 0.66413 0.22051 0.85827 0.0
H1856 H 0.61149 0.2372 0.86098 0.0
H1857 H 0.71129 0.23157 0.83515 0.0
H1858 H 0.68873 0.24649 0.90091 0.0
H1859 H 0.67026 0.27402 0.92907 0.0
H1860 H 0.73735 0.34278 0.9202 0.0
H1861 H 0.75595 0.31586 0.8918 0.0
C1862 C 0.8445 0.18669 0.86637 0.0
C1863 C 0.86819 0.20789 0.86706 0.0
C1864 C 0.81467 0.19618 0.86382 0.0
C1865 C 0.808 0.22703 0.86208 0.0
C1866 C 0.83157 0.24823 0.86245 0.0
C1867 C 0.86146 0.23873 0.86474 0.0
C1868 C 0.77623 0.23729 0.86111 0.0
C1869 C 0.765 0.25456 0.87623 0.0
C1870 C 0.75666 0.22862 0.84619 0.0
C1871 C 0.76759 0.2109 0.82967 0.0
C1872 C 0.79223 0.22115 0.81877 0.0
C1873 C 0.8025 0.20426 0.80327 0.0
C1874 C 0.7882 0.17717 0.79845 0.0
C1875 C 0.76354 0.16695 0.8091 0.0
C1876 C 0.75319 0.18374 0.82462 0.0
C1877 C 0.64643 0.30564 0.86522 0.0
C1878 C 0.62263 0.28459 0.86468 0.0
C1879 C 0.67634 0.29613 0.86342 0.0
C1880 C 0.68312 0.26533 0.8614 0.0
C1881 C 0.65939 0.24438 0.85992 0.0
C1882 C 0.62934 0.25394 0.86151 0.0
C1883 C 0.715 0.25501 0.86188 0.0
C1884 C 0.72621 0.23757 0.84678 0.0
C1885 C 0.73455 0.26312 0.87698 0.0
C1886 C 0.72354 0.27931 0.89412 0.0
C1887 C 0.6994 0.2676 0.90488 0.0
C1888 C 0.68893 0.28307 0.9209 0.0
C1889 C 0.70257 0.31017 0.92639 0.0
C1890 C 0.72678 0.32181 0.91591 0.0
C1891 C 0.73731 0.30644 0.89985 0.0
H1892 H 0.69443 0.32212 0.9388 0.0
H1893 H 0.79618 0.16413 0.78645 0.0
H1894 H 0.32538 0.85491 0.3662 0.0
H1895 H 0.30723 0.80358 0.36107 0.0
H1896 H 0.21687 0.83735 0.35223 0.0
H1897 H 0.23485 0.88908 0.35744 0.0
H1898 H 0.21962 0.79141 0.37865 0.0
H1899 H 0.25562 0.80909 0.31529 0.0
H1900 H 0.29277 0.82468 0.29104 0.0
H1901 H 0.35392 0.7557 0.31011 0.0
H1902 H 0.3173 0.73995 0.33466 0.0
H1903 H 0.16205 0.64606 0.36128 0.0
H1904 H 0.17555 0.69899 0.35635 0.0
H1905 H 0.2702 0.67542 0.358 0.0
H1906 H 0.25676 0.62217 0.36212 0.0
H1907 H 0.262 0.71772 0.33269 0.0
H1908 H 0.23144 0.70372 0.39767 0.0
H1909 H 0.19734 0.68814 0.42366 0.0
H1910 H 0.1298 0.75019 0.40371 0.0
H1911 H 0.16337 0.76586 0.37744 0.0
C1912 C 0.30169 0.85155 0.36295 0.0
C1913 C 0.28153 0.87612 0.36232 0.0
C1914 C 0.29139 0.82216 0.3599 0.0
C1915 C 0.26076 0.81669 0.35614 0.0
C1916 C 0.24064 0.84116 0.35505 0.0
C1917 C 0.25097 0.87068 0.35798 0.0
C1918 C 0.24954 0.78522 0.35483 0.0
C1919 C 0.22837 0.77543 0.36833 0.0
C1920 C 0.26179 0.76421 0.34178 0.0
C1921 C 0.28376 0.77347 0.32691 0.0
C1922 C 0.27707 0.79737 0.3144 0.0
C1923 C 0.29802 0.80622 0.30059 0.0
C1924 C 0.32571 0.79122 0.29906 0.0
C1925 C 0.33246 0.7673 0.31131 0.0
C1926 C 0.3116 0.75837 0.32516 0.0
C1927 C 0.18574 0.65212 0.36041 0.0
C1928 C 0.20837 0.63002 0.36229 0.0
C1929 C 0.19343 0.6824 0.35766 0.0
C1930 C 0.2239 0.69131 0.35726 0.0
C1931 C 0.24653 0.66911 0.35834 0.0
C1932 C 0.23884 0.6387 0.36073 0.0
C1933 C 0.23218 0.72383 0.35661 0.0
C1934 C 0.2529 0.73378 0.34282 0.0
C1935 C 0.21993 0.74496 0.36963 0.0
C1936 C 0.19978 0.73571 0.38548 0.0
C1937 C 0.20923 0.71388 0.39875 0.0
C1938 C 0.19001 0.70506 0.41354 0.0
C1939 C 0.16139 0.7181 0.4153 0.0
C1940 C 0.15195 0.74007 0.40231 0.0
C1941 C 0.17107 0.74894 0.38748 0.0
H1942 H 0.14654 0.71123 0.42676 0.0
H1943 H 0.3419 0.79812 0.28835 0.0
H1944 H 0.11473 0.75751 0.86328 0.0
H1945 H 0.16718 0.77416 0.85987 0.0
H1946 H 0.19627 0.68116 0.85694 0.0
H1947 H 0.14413 0.66445 0.86111 0.0
H1948 H 0.22993 0.70936 0.8806 0.0
H1949 H 0.19634 0.73064 0.81728 0.0
H1950 H 0.16341 0.75251 0.79256 0.0
H1951 H 0.18388 0.84186 0.81255 0.0
H1952 H 0.21663 0.82051 0.83756 0.0
H1953 H 0.38218 0.74185 0.85745 0.0
H1954 H 0.3299 0.72511 0.8532 0.0
H1955 H 0.29822 0.8151 0.86563 0.0
H1956 H 0.35029 0.83211 0.86985 0.0
H1957 H 0.2668 0.78766 0.83567 0.0
H1958 H 0.29857 0.76491 0.89989 0.0
H1959 H 0.33247 0.74238 0.92382 0.0
H1960 H 0.31555 0.65407 0.90089 0.0
H1961 H 0.28193 0.67618 0.87659 0.0
C1962 C 0.13229 0.74065 0.86167 0.0
C1963 C 0.12535 0.70969 0.86255 0.0
C1964 C 0.16226 0.75018 0.85962 0.0
C1965 C 0.18572 0.72891 0.85798 0.0
C1966 C 0.17862 0.698 0.85825 0.0
C1967 C 0.14879 0.68848 0.86061 0.0
C1968 C 0.21783 0.73868 0.85729 0.0
C1969 C 0.23802 0.72608 0.87051 0.0
C1970 C 0.22836 0.76103 0.84445 0.0
C1971 C 0.20873 0.77395 0.8294 0.0
C1972 C 0.19364 0.75494 0.81649 0.0
C1973 C 0.17504 0.76725 0.80241 0.0
C1974 C 0.1715 0.79855 0.80101 0.0
C1975 C 0.18662 0.81762 0.81366 0.0
C1976 C 0.20523 0.80543 0.82778 0.0
C1977 C 0.36413 0.75817 0.85908 0.0
C1978 C 0.37041 0.78825 0.86418 0.0
C1979 C 0.33429 0.74856 0.85666 0.0
C1980 C 0.31026 0.76884 0.85929 0.0
C1981 C 0.31648 0.79913 0.86355 0.0
C1982 C 0.34626 0.80874 0.86607 0.0
C1983 C 0.27859 0.75811 0.85883 0.0
C1984 C 0.25857 0.77069 0.84555 0.0
C1985 C 0.26818 0.73557 0.8715 0.0
C1986 C 0.288 0.72223 0.8863 0.0
C1987 C 0.30225 0.74071 0.89986 0.0
C1988 C 0.3214 0.72801 0.91351 0.0
C1989 C 0.32623 0.69681 0.91384 0.0
C1990 C 0.31183 0.67824 0.90059 0.0
C1991 C 0.29272 0.69084 0.88688 0.0
H1992 H 0.34109 0.68698 0.92438 0.0
H1993 H 0.15708 0.80803 0.79011 0.0
H1994 H 0.73559 0.10701 0.35987 0.0
H1995 H 0.71909 0.15949 0.35635 0.0
H1996 H 0.81212 0.18897 0.35696 0.0
H1997 H 0.82864 0.13682 0.36107 0.0
H1998 H 0.78119 0.22134 0.38049 0.0
H1999 H 0.76699 0.19053 0.31584 0.0
H2000 H 0.74786 0.15873 0.28971 0.0
H2001 H 0.65651 0.17844 0.30621 0.0
H2002 H 0.67509 0.21005 0.33261 0.0
H2003 H 0.75275 0.37441 0.35779 0.0
H2004 H 0.76924 0.32204 0.35376 0.0
H2005 H 0.67769 0.29124 0.36214 0.0
H2006 H 0.66093 0.34345 0.36619 0.0
H2007 H 0.70821 0.26029 0.33287 0.0
H2008 H 0.72326 0.28902 0.39834 0.0
H2009 H 0.74273 0.3212 0.42419 0.0
H2010 H 0.8337 0.3053 0.40535 0.0
H2011 H 0.81471 0.27336 0.3792 0.0
C2012 C 0.75252 0.12465 0.35898 0.0
C2013 C 0.7834 0.11779 0.36086 0.0
C2014 C 0.74307 0.15465 0.3569 0.0
C2015 C 0.76437 0.17822 0.35628 0.0
C2016 C 0.79525 0.17122 0.35748 0.0
C2017 C 0.80466 0.14136 0.35981 0.0
C2018 C 0.75458 0.21032 0.35575 0.0
C2019 C 0.76566 0.2299 0.36983 0.0
C2020 C 0.7337 0.22142 0.34218 0.0
C2021 C 0.72245 0.20244 0.32631 0.0
C2022 C 0.74282 0.1879 0.31399 0.0
C2023 C 0.73208 0.16994 0.29911 0.0
C2024 C 0.70099 0.16651 0.29633 0.0
C2025 C 0.68058 0.18109 0.3084 0.0
C2026 C 0.69121 0.19906 0.32331 0.0
C2027 C 0.73604 0.35655 0.35855 0.0
C2028 C 0.70556 0.36311 0.36249 0.0
C2029 C 0.74552 0.32665 0.35628 0.0
C2030 C 0.7247 0.30282 0.35783 0.0
C2031 C 0.69408 0.30934 0.3609 0.0
C2032 C 0.6846 0.33919 0.36332 0.0
C2033 C 0.73511 0.27104 0.35745 0.0
C2034 C 0.72399 0.2516 0.34334 0.0
C2035 C 0.75608 0.26001 0.37092 0.0
C2036 C 0.76754 0.27908 0.38669 0.0
C2037 C 0.7474 0.29259 0.39961 0.0
C2038 C 0.75835 0.31075 0.41433 0.0
C2039 C 0.78943 0.31536 0.41637 0.0
C2040 C 0.80963 0.30175 0.40373 0.0
C2041 C 0.79879 0.2836 0.38896 0.0
H2042 H 0.79787 0.32942 0.42778 0.0
H2043 H 0.69272 0.1526 0.2848 0.0
H2044 H 0.35337 0.66354 0.15878 0.0
H2045 H 0.3008 0.67918 0.16272 0.0
H2046 H 0.32635 0.77182 0.15198 0.0
H2047 H 0.37931 0.75639 0.14902 0.0
H2048 H 0.28342 0.7709 0.17721 0.0
H2049 H 0.29776 0.72324 0.11626 0.0
H2050 H 0.3131 0.68211 0.09466 0.0
H2051 H 0.24933 0.62234 0.12131 0.0
H2052 H 0.23388 0.66303 0.14323 0.0
H2053 H 0.1475 0.8286 0.13885 0.0
H2054 H 0.19861 0.81046 0.14469 0.0
H2055 H 0.16336 0.72308 0.16055 0.0
H2056 H 0.11184 0.74097 0.1545 0.0
H2057 H 0.20963 0.71877 0.13544 0.0
H2058 H 0.19174 0.7706 0.19422 0.0
H2059 H 0.17658 0.8136 0.21435 0.0
H2060 H 0.24708 0.86797 0.18994 0.0
H2061 H 0.26242 0.82542 0.16947 0.0
C2062 C 0.3478 0.6873 0.15753 0.0
C2063 C 0.3703 0.70874 0.15339 0.0
C2064 C 0.31774 0.6962 0.15969 0.0
C2065 C 0.30945 0.72656 0.15711 0.0
C2066 C 0.33215 0.74823 0.15393 0.0
C2067 C 0.36239 0.73942 0.15221 0.0
C2068 C 0.27708 0.73547 0.15662 0.0
C2069 C 0.26735 0.75965 0.16797 0.0
C2070 C 0.25589 0.72044 0.14483 0.0
C2071 C 0.2649 0.69607 0.1315 0.0
C2072 C 0.28714 0.70127 0.11758 0.0
C2073 C 0.29584 0.67805 0.10528 0.0
C2074 C 0.28226 0.64961 0.10665 0.0
C2075 C 0.25986 0.64437 0.12028 0.0
C2076 C 0.25111 0.6675 0.13264 0.0
C2077 C 0.15048 0.80555 0.14369 0.0
C2078 C 0.1255 0.78622 0.14618 0.0
C2079 C 0.17977 0.79529 0.14715 0.0
C2080 C 0.18476 0.76555 0.15329 0.0
C2081 C 0.15995 0.74618 0.1559 0.0
C2082 C 0.13054 0.75645 0.15245 0.0
C2083 C 0.21606 0.75434 0.15591 0.0
C2084 C 0.22562 0.72977 0.14488 0.0
C2085 C 0.23711 0.7693 0.16779 0.0
C2086 C 0.2281 0.79485 0.18021 0.0
C2087 C 0.20389 0.79178 0.19305 0.0
C2088 C 0.19528 0.81607 0.20454 0.0
C2089 C 0.21082 0.84352 0.2034 0.0
C2090 C 0.23506 0.8467 0.1908 0.0
C2091 C 0.24374 0.82249 0.17928 0.0
H2092 H 0.20412 0.8623 0.2123 0.0
H2093 H 0.28904 0.63166 0.09712 0.0
H2094 H 0.66533 0.13983 0.65806 0.0
H2095 H 0.68104 0.19217 0.66285 0.0
H2096 H 0.77434 0.166 0.65568 0.0
H2097 H 0.75877 0.11328 0.65171 0.0
H2098 H 0.7708 0.20877 0.68137 0.0
H2099 H 0.73084 0.19504 0.6183 0.0
H2100 H 0.6926 0.18005 0.5946 0.0
H2101 H 0.62987 0.24391 0.61815 0.0
H2102 H 0.66763 0.259 0.64216 0.0
H2103 H 0.83244 0.3454 0.64514 0.0
H2104 H 0.81425 0.29417 0.65085 0.0
H2105 H 0.72529 0.32882 0.66328 0.0
H2106 H 0.74324 0.38034 0.65745 0.0
H2107 H 0.72418 0.28309 0.6374 0.0
H2108 H 0.76837 0.30028 0.69861 0.0
H2109 H 0.80861 0.31518 0.72096 0.0
H2110 H 0.86594 0.24495 0.69922 0.0
H2111 H 0.82619 0.22988 0.67655 0.0
C2112 C 0.68922 0.14518 0.65776 0.0
C2113 C 0.71082 0.12257 0.65428 0.0
C2114 C 0.69817 0.17511 0.66043 0.0
C2115 C 0.72881 0.18316 0.65912 0.0
C2116 C 0.75055 0.16036 0.65665 0.0
C2117 C 0.74164 0.13025 0.65436 0.0
C2118 C 0.73801 0.21544 0.65912 0.0
C2119 C 0.76077 0.22498 0.67166 0.0
C2120 C 0.72456 0.23676 0.64668 0.0
C2121 C 0.70194 0.22792 0.63214 0.0
C2122 C 0.70882 0.20575 0.6185 0.0
C2123 C 0.68725 0.19725 0.605 0.0
C2124 C 0.65879 0.21095 0.60491 0.0
C2125 C 0.6519 0.23327 0.61827 0.0
C2126 C 0.67338 0.24182 0.63181 0.0
C2127 C 0.80905 0.34224 0.64926 0.0
C2128 C 0.78925 0.36701 0.65076 0.0
C2129 C 0.79875 0.31291 0.65264 0.0
C2130 C 0.76849 0.30772 0.65764 0.0
C2131 C 0.74877 0.33238 0.6595 0.0
C2132 C 0.75908 0.3618 0.65619 0.0
C2133 C 0.75705 0.27639 0.65957 0.0
C2134 C 0.73393 0.26699 0.64729 0.0
C2135 C 0.77047 0.2552 0.67206 0.0
C2136 C 0.79436 0.2641 0.68578 0.0
C2137 C 0.78963 0.28815 0.6985 0.0
C2138 C 0.81234 0.2966 0.71124 0.0
C2139 C 0.83983 0.28106 0.71149 0.0
C2140 C 0.84464 0.25698 0.69901 0.0
C2141 C 0.82201 0.24845 0.68623 0.0
H2142 H 0.85739 0.28764 0.72137 0.0
H2143 H 0.64211 0.20433 0.59446 0.0
H2144 H 0.33812 -0.00087 0.30449 0.0
H2145 H 0.36256 0.02246 0.27676 0.0
H2146 H 0.42529 0.06821 0.31382 0.0
H2147 H 0.4009 0.04468 0.34158 0.0
H2148 H 0.39983 0.10588 0.28512 0.0
H2149 H 0.4491 0.00932 0.29099 0.0
H2150 H 0.4508 0.95379 0.29368 0.0
H2151 H 0.40643 0.94537 0.23966 0.0
H2152 H 0.40401 0.00089 0.23679 0.0
H2153 H 0.50366 0.15641 0.21534 0.0
H2154 H 0.48013 0.13295 0.24325 0.0
H2155 H 0.42924 0.07364 0.20653 0.0
H2156 H 0.4537 0.09651 0.17866 0.0
H2157 H 0.44823 0.04286 0.23537 0.0
H2158 H 0.39752 0.13766 0.2289 0.0
H2159 H 0.39337 0.19298 0.2256 0.0
H2160 H 0.43668 0.20483 0.2797 0.0
H2161 H 0.44152 0.14955 0.28319 0.0
C2162 C 0.35699 0.01435 0.30666 0.0
C2163 C 0.36754 0.02041 0.32509 0.0
C2164 C 0.37101 0.02751 0.29086 0.0
C2165 C 0.39579 0.04702 0.29323 0.0
C2166 C 0.40617 0.0533 0.31168 0.0
C2167 C 0.39233 0.03984 0.32748 0.0
C2168 C 0.41099 0.06065 0.27643 0.0
C2169 C 0.41079 0.09218 0.27435 0.0
C2170 C 0.42447 0.04267 0.26212 0.0
C2171 C 0.4261 0.00928 0.26376 0.0
C2172 C 0.43947 0.99564 0.27975 0.0
C2173 C 0.4406 0.96416 0.2813 0.0
C2174 C 0.42867 0.94606 0.26687 0.0
C2175 C 0.41563 0.95941 0.25084 0.0
C2176 C 0.41439 0.99089 0.24924 0.0
C2177 C 0.48732 0.13846 0.21331 0.0
C2178 C 0.48005 0.1285 0.19493 0.0
C2179 C 0.47381 0.12511 0.22922 0.0
C2180 C 0.45235 0.10189 0.22705 0.0
C2181 C 0.44557 0.09157 0.20863 0.0
C2182 C 0.45942 0.10468 0.19272 0.0
C2183 C 0.43714 0.08828 0.24396 0.0
C2184 C 0.4373 0.05669 0.24609 0.0
C2185 C 0.42323 0.10621 0.2582 0.0
C2186 C 0.42014 0.13946 0.25622 0.0
C2187 C 0.40635 0.15206 0.24003 0.0
C2188 C 0.40385 0.18342 0.23813 0.0
C2189 C 0.41482 0.20241 0.25241 0.0
C2190 C 0.42824 0.19009 0.26864 0.0
C2191 C 0.43084 0.15875 0.27059 0.0
H2192 H 0.41287 0.22668 0.25091 0.0
H2193 H 0.42958 0.92169 0.26809 0.0
H2194 H 0.52093 0.38952 0.81201 0.0
H2195 H 0.49679 0.41444 0.78477 0.0
H2196 H 0.41006 0.3802 0.80288 0.0
H2197 H 0.43421 0.35559 0.83025 0.0
H2198 H 0.46504 0.39179 0.75506 0.0
H2199 H 0.3563 0.43381 0.7923 0.0
H2200 H 0.3394 0.44947 0.82424 0.0
H2201 H 0.43009 0.4757 0.83843 0.0
H2202 H 0.44744 0.4606 0.8065 0.0
H2203 H 0.35477 0.438 0.68684 0.0
H2204 H 0.37817 0.41426 0.71483 0.0
H2205 H 0.40601 0.502 0.73499 0.0
H2206 H 0.38282 0.52565 0.70696 0.0
H2207 H 0.38173 0.4656 0.76376 0.0
H2208 H 0.4561 0.46048 0.71442 0.0
H2209 H 0.47512 0.44813 0.68246 0.0
H2210 H 0.45853 0.35387 0.69267 0.0
H2211 H 0.43871 0.36576 0.72461 0.0
C2212 C 0.49668 0.38764 0.81023 0.0
C2213 C 0.47929 0.37112 0.82333 0.0
C2214 C 0.48295 0.40163 0.79462 0.0
C2215 C 0.45157 0.39945 0.79187 0.0
C2216 C 0.43424 0.38255 0.80484 0.0
C2217 C 0.44801 0.36846 0.82041 0.0
C2218 C 0.437 0.41488 0.77545 0.0
C2219 C 0.44677 0.40784 0.75698 0.0
C2220 C 0.41345 0.4362 0.77792 0.0
C2221 C 0.40319 0.44577 0.79707 0.0
C2222 C 0.3726 0.44302 0.80222 0.0
C2223 C 0.36295 0.45179 0.82032 0.0
C2224 C 0.38367 0.46348 0.83338 0.0
C2225 C 0.41408 0.46654 0.82833 0.0
C2226 C 0.42384 0.45784 0.81024 0.0
C2227 C 0.36586 0.4521 0.69731 0.0
C2228 C 0.3674 0.48351 0.69474 0.0
C2229 C 0.37921 0.43859 0.71324 0.0
C2230 C 0.39399 0.45637 0.72693 0.0
C2231 C 0.39475 0.48788 0.7246 0.0
C2232 C 0.3817 0.50132 0.70858 0.0
C2233 C 0.40942 0.44207 0.74341 0.0
C2234 C 0.39984 0.44936 0.76187 0.0
C2235 C 0.43345 0.42134 0.74094 0.0
C2236 C 0.44563 0.41405 0.72183 0.0
C2237 C 0.45625 0.43714 0.7098 0.0
C2238 C 0.46723 0.43021 0.69169 0.0
C2239 C 0.46803 0.40022 0.68552 0.0
C2240 C 0.45787 0.37709 0.69747 0.0
C2241 C 0.44675 0.38391 0.71557 0.0
H2242 H 0.47656 0.39489 0.67149 0.0
H2243 H 0.37616 0.47023 0.84739 0.0
H2244 H 0.15666 0.44081 0.32526 0.0
H2245 H 0.13351 0.4165 0.29743 0.0
H2246 H 0.07846 0.49549 0.28816 0.0
H2247 H 0.10261 0.52046 0.31524 0.0
H2248 H 0.04692 0.4357 0.28871 0.0
H2249 H 0.13182 0.48871 0.26026 0.0
H2250 H 0.18593 0.50123 0.25723 0.0
H2251 H 0.20641 0.40806 0.24613 0.0
H2252 H 0.15243 0.3949 0.24941 0.0
H2253 H 0.97992 0.40236 0.20058 0.0
H2254 H 0.00575 0.42667 0.22707 0.0
H2255 H 0.08062 0.36494 0.22066 0.0
H2256 H 0.05617 0.34281 0.1928 0.0
H2257 H 0.1031 0.41462 0.22912 0.0
H2258 H 0.02173 0.35928 0.25695 0.0
H2259 H 0.9691 0.34259 0.2619 0.0
H2260 H 0.94335 0.43315 0.27664 0.0
H2261 H 0.99575 0.45047 0.27151 0.0
C2262 C 0.13982 0.45306 0.31717 0.0
C2263 C 0.1311 0.48235 0.32261 0.0
C2264 C 0.12655 0.43912 0.30135 0.0
C2265 C 0.10414 0.45415 0.29084 0.0
C2266 C 0.09549 0.48341 0.29621 0.0
C2267 C 0.10914 0.49754 0.31176 0.0
C2268 C 0.08958 0.43943 0.27425 0.0
C2269 C 0.05902 0.43132 0.27557 0.0
C2270 C 0.10575 0.43281 0.25744 0.0
C2271 C 0.13814 0.44078 0.2553 0.0
C2272 C 0.14789 0.47085 0.25736 0.0
C2273 C 0.17853 0.47807 0.25556 0.0
C2274 C 0.19961 0.45544 0.25155 0.0
C2275 C 0.19007 0.42555 0.24927 0.0
C2276 C 0.15945 0.41821 0.25109 0.0
C2277 C 0.00221 0.39445 0.2045 0.0
C2278 C 0.01606 0.37076 0.19446 0.0
C2279 C 0.01675 0.40797 0.21998 0.0
C2280 C 0.04495 0.39727 0.22633 0.0
C2281 C 0.05887 0.37366 0.21621 0.0
C2282 C 0.0447 0.36075 0.20038 0.0
C2283 C 0.06001 0.41078 0.24336 0.0
C2284 C 0.09077 0.41873 0.2422 0.0
C2285 C 0.04417 0.41655 0.26055 0.0
C2286 C 0.01262 0.40622 0.26366 0.0
C2287 C 0.0048 0.37567 0.26111 0.0
C2288 C 0.97501 0.3661 0.26397 0.0
C2289 C 0.95288 0.38681 0.26953 0.0
C2290 C 0.96051 0.41714 0.2723 0.0
C2291 C 0.99025 0.42684 0.26943 0.0
H2292 H 0.92984 0.37935 0.27174 0.0
H2293 H 0.22332 0.46108 0.25015 0.0
H2294 H 0.04174 0.0983 0.8403 0.0
H2295 H 0.06556 0.07465 0.81243 0.0
H2296 H 0.00893 0.12789 0.77541 0.0
H2297 H 0.98554 0.15193 0.80328 0.0
H2298 H 0.01253 0.06391 0.76631 0.0
H2299 H 0.07674 0.14946 0.77918 0.0
H2300 H 0.10879 0.1818 0.79936 0.0
H2301 H 0.16881 0.10726 0.80949 0.0
H2302 H 0.13681 0.07432 0.78961 0.0
H2303 H 0.08798 0.03578 0.67855 0.0
H2304 H 0.06343 0.05967 0.70601 0.0
H2305 H 0.13114 0.02143 0.74306 0.0
H2306 H 0.1557 -0.00221 0.71562 0.0
H2307 H 0.12158 0.07822 0.75238 0.0
H2308 H 0.05977 0.99254 0.73963 0.0
H2309 H 0.02758 0.95804 0.72103 0.0
H2310 H 0.96278 0.02903 0.71268 0.0
H2311 H 0.99504 0.06425 0.7307 0.0
C2312 C 0.03455 0.10493 0.82618 0.0
C2313 C 0.01218 0.12708 0.82381 0.0
C2314 C 0.0481 0.09149 0.81032 0.0
C2315 C 0.0391 0.09967 0.79187 0.0
C2316 C 0.01622 0.12134 0.78952 0.0
C2317 C 0.00303 0.13512 0.80538 0.0
C2318 C 0.05369 0.08572 0.77502 0.0
C2319 C 0.03627 0.06733 0.76305 0.0
C2320 C 0.08485 0.08953 0.77119 0.0
C2321 C 0.1042 0.10934 0.78307 0.0
C2322 C 0.09661 0.13989 0.78586 0.0
C2323 C 0.1148 0.15834 0.79722 0.0
C2324 C 0.14078 0.14657 0.80575 0.0
C2325 C 0.14865 0.11634 0.8029 0.0
C2326 C 0.13051 0.09777 0.79158 0.0
C2327 C 0.09751 0.03254 0.69259 0.0
C2328 C 0.12382 0.01523 0.69501 0.0
C2329 C 0.08347 0.04608 0.70827 0.0
C2330 C 0.09531 0.04222 0.72667 0.0
C2331 C 0.12165 0.02489 0.72903 0.0
C2332 C 0.13569 0.01144 0.71337 0.0
C2333 C 0.08042 0.05632 0.74347 0.0
C2334 C 0.09781 0.07475 0.75551 0.0
C2335 C 0.04927 0.05221 0.74749 0.0
C2336 C 0.03006 0.03118 0.73632 0.0
C2337 C 0.03887 0.00094 0.7336 0.0
C2338 C 0.02059 0.98123 0.72317 0.0
C2339 C 0.99321 0.99136 0.71561 0.0
C2340 C 0.98406 0.02124 0.71846 0.0
C2341 C 0.00238 0.04111 0.72874 0.0
H2342 H 0.97904 0.97604 0.70759 0.0
H2343 H 0.15484 0.1609 0.81453 0.0
H2344 H 0.59641 0.95059 0.67469 0.0
H2345 H 0.57205 0.92712 0.70235 0.0
H2346 H 0.63231 0.97594 0.73958 0.0
H2347 H 0.65732 -0.00158 0.71183 0.0
H2348 H 0.6262 0.92169 0.75251 0.0
H2349 H 0.5561 0.99711 0.73117 0.0
H2350 H 0.52402 0.0232 0.70765 0.0
H2351 H 0.47204 0.94222 0.69973 0.0
H2352 H 0.50411 0.91548 0.72298 0.0
H2353 H 0.53983 0.90236 0.83757 0.0
H2354 H 0.56373 0.9256 0.80957 0.0
H2355 H 0.51505 0.86432 0.77305 0.0
H2356 H 0.49132 0.84099 0.80105 0.0
H2357 H 0.51471 0.92489 0.76001 0.0
H2358 H 0.58587 0.85006 0.78155 0.0
H2359 H 0.61844 0.82474 0.80512 0.0
H2360 H 0.66834 0.90698 0.81323 0.0
H2361 H 0.63574 0.93294 0.78991 0.0
C2362 C 0.60447 0.95606 0.68881 0.0
C2363 C 0.62877 0.97609 0.6912 0.0
C2364 C 0.59044 0.94287 0.70462 0.0
C2365 C 0.59993 0.9501 0.72317 0.0
C2366 C 0.62451 0.96993 0.72549 0.0
C2367 C 0.63881 0.98277 0.70966 0.0
C2368 C 0.58435 0.93704 0.74015 0.0
C2369 C 0.60185 0.92284 0.75423 0.0
C2370 C 0.55247 0.93795 0.74236 0.0
C2371 C 0.5327 0.9542 0.7287 0.0
C2372 C 0.53792 0.98481 0.72435 0.0
C2373 C 0.51974 -0.00028 0.71106 0.0
C2374 C 0.49607 0.98434 0.70215 0.0
C2375 C 0.49042 0.95408 0.70661 0.0
C2376 C 0.50857 0.93905 0.71986 0.0
C2377 C 0.53431 0.89394 0.82354 0.0
C2378 C 0.51413 0.86968 0.82141 0.0
C2379 C 0.54794 0.90715 0.80758 0.0
C2380 C 0.54135 0.89654 0.78921 0.0
C2381 C 0.52052 0.87282 0.78707 0.0
C2382 C 0.50716 0.85939 0.80304 0.0
C2383 C 0.55663 0.90977 0.77227 0.0
C2384 C 0.53905 0.92394 0.75824 0.0
C2385 C 0.58844 0.90913 0.77018 0.0
C2386 C 0.60816 0.89353 0.78413 0.0
C2387 C 0.60362 0.86282 0.78848 0.0
C2388 C 0.62211 0.84834 0.80177 0.0
C2389 C 0.64539 0.86426 0.81071 0.0
C2390 C 0.65027 0.89469 0.80632 0.0
C2391 C 0.6318 0.90929 0.79306 0.0
H2392 H 0.65969 0.85301 0.82099 0.0
H2393 H 0.48209 0.99585 0.69181 0.0
H2394 H 0.47375 0.60499 0.20428 0.0
H2395 H 0.49866 0.58142 0.23172 0.0
H2396 H 0.58499 0.61383 0.21167 0.0
H2397 H 0.56005 0.63723 0.18414 0.0
H2398 H 0.58812 0.55484 0.22389 0.0
H2399 H 0.55104 0.64961 0.24702 0.0
H2400 H 0.51261 0.68886 0.25287 0.0
H2401 H 0.46097 0.62638 0.28653 0.0
H2402 H 0.49889 0.58659 0.28063 0.0
H2403 H 0.63948 0.55526 0.3298 0.0
H2404 H 0.61688 0.5806 0.30212 0.0
H2405 H 0.5857 0.4945 0.28111 0.0
H2406 H 0.60833 0.46923 0.30874 0.0
H2407 H 0.55773 0.58307 0.28945 0.0
H2408 H 0.59276 0.49598 0.23219 0.0
H2409 H 0.63352 0.45909 0.22631 0.0
H2410 H 0.69399 0.51108 0.26109 0.0
H2411 H 0.65376 0.54849 0.26691 0.0
C2412 C 0.49808 0.60674 0.20567 0.0
C2413 C 0.51509 0.62264 0.19207 0.0
C2414 C 0.51226 0.59349 0.22138 0.0
C2415 C 0.5437 0.59597 0.22382 0.0
C2416 C 0.56074 0.61155 0.21008 0.0
C2417 C 0.54652 0.62496 0.19442 0.0
C2418 C 0.55872 0.58274 0.24083 0.0
C2419 C 0.58142 0.56097 0.23822 0.0
C2420 C 0.55039 0.5911 0.25955 0.0
C2421 C 0.52767 0.61504 0.26324 0.0
C2422 C 0.53138 0.64417 0.25555 0.0
C2423 C 0.5097 0.66652 0.25889 0.0
C2424 C 0.48433 0.6601 0.27003 0.0
C2425 C 0.48062 0.63132 0.27789 0.0
C2426 C 0.50221 0.60886 0.27456 0.0
C2427 C 0.62767 0.54187 0.31927 0.0
C2428 C 0.62532 0.51042 0.32141 0.0
C2429 C 0.61472 0.55631 0.30352 0.0
C2430 C 0.59967 0.53945 0.2895 0.0
C2431 C 0.59734 0.50796 0.29168 0.0
C2432 C 0.61007 0.49357 0.30749 0.0
C2433 C 0.58665 0.5547 0.27251 0.0
C2434 C 0.56434 0.57686 0.27512 0.0
C2435 C 0.59561 0.54698 0.2538 0.0
C2436 C 0.62013 0.52486 0.25014 0.0
C2437 C 0.61479 0.4996 0.23851 0.0
C2438 C 0.6378 0.47859 0.2352 0.0
C2439 C 0.66629 0.48269 0.24337 0.0
C2440 C 0.67188 0.50787 0.25482 0.0
C2441 C 0.64897 0.52896 0.25815 0.0
H2442 H 0.68406 0.46638 0.24081 0.0
H2443 H 0.46758 0.67744 0.27261 0.0
H2444 H 0.90574 0.47339 0.69587 0.0
H2445 H 0.93015 0.49778 0.72283 0.0
H2446 H 0.87219 0.57547 0.71575 0.0
H2447 H 0.85022 0.55245 0.68738 0.0
H2448 H 0.92197 0.59566 0.72547 0.0
H2449 H 0.86233 0.51584 0.75159 0.0
H2450 H 0.84358 0.46375 0.7557 0.0
H2451 H 0.9325 0.43443 0.77178 0.0
H2452 H 0.95188 0.48629 0.76753 0.0
H2453 H 0.94096 0.64702 0.82222 0.0
H2454 H 0.91838 0.62318 0.7941 0.0
H2455 H -0.00112 0.56974 0.78638 0.0
H2456 H 0.02226 0.59475 0.81375 0.0
H2457 H 0.93765 0.53773 0.78508 0.0
H2458 H 0.99468 0.62191 0.75867 0.0
H2459 H 0.00849 0.67582 0.75672 0.0
H2460 H 0.91647 0.69867 0.74368 0.0
H2461 H 0.90202 0.6449 0.74587 0.0
C2462 C 0.89874 0.496 0.69972 0.0
C2463 C 0.87614 0.51104 0.68933 0.0
C2464 C 0.91228 0.50973 0.71548 0.0
C2465 C 0.90259 0.53829 0.72182 0.0
C2466 C 0.88012 0.55341 0.71134 0.0
C2467 C 0.86727 0.54007 0.69521 0.0
C2468 C 0.91591 0.55245 0.73924 0.0
C2469 C 0.92493 0.58294 0.73852 0.0
C2470 C 0.9202 0.5361 0.75643 0.0
C2471 C 0.90861 0.5049 0.75906 0.0
C2472 C 0.87793 0.49824 0.75588 0.0
C2473 C 0.86718 0.46876 0.75826 0.0
C2474 C 0.88685 0.44578 0.76395 0.0
C2475 C 0.9173 0.45225 0.76734 0.0
C2476 C 0.92817 0.48168 0.76497 0.0
C2477 C 0.95392 0.63035 0.81444 0.0
C2478 C 0.98331 0.62261 0.8203 0.0
C2479 C 0.94094 0.61666 0.79847 0.0
C2480 C 0.95695 0.59464 0.78823 0.0
C2481 C 0.98608 0.58651 0.79419 0.0
C2482 C -0.00069 0.60066 0.80992 0.0
C2483 C 0.94349 0.58052 0.77107 0.0
C2484 C 0.9345 0.55018 0.77193 0.0
C2485 C 0.93844 0.59718 0.75422 0.0
C2486 C 0.94722 0.62942 0.75263 0.0
C2487 C 0.97735 0.63845 0.75555 0.0
C2488 C 0.9853 0.66898 0.75437 0.0
C2489 C 0.96336 0.69066 0.75013 0.0
C2490 C 0.93343 0.68185 0.74699 0.0
C2491 C 0.92536 0.65135 0.74819 0.0
H2492 H 0.96956 0.71429 0.74922 0.0
H2493 H 0.87849 0.42297 0.76578 0.0
H2494 H 0.0233 0.883 0.20402 0.0
H2495 H -0.00218 0.90433 0.23198 0.0
H2496 H 0.9113 0.88016 0.20811 0.0
H2497 H 0.93686 0.85898 0.18009 0.0
H2498 H 0.91083 0.93747 0.223 0.0
H2499 H 0.94042 0.83809 0.24257 0.0
H2500 H 0.97597 0.79594 0.24761 0.0
H2501 H 0.02841 0.85093 0.28555 0.0
H2502 H 0.99341 0.89359 0.2805 0.0
H2503 H 0.85106 0.92822 0.32699 0.0
H2504 H 0.87444 0.9046 0.29898 0.0
H2505 H 0.91253 0.99064 0.28282 0.0
H2506 H 0.88909 0.01422 0.31071 0.0
H2507 H 0.9343 0.89974 0.28781 0.0
H2508 H 0.9092 0.99537 0.2339 0.0
H2509 H 0.87131 0.03541 0.22865 0.0
H2510 H 0.80506 0.98353 0.25916 0.0
H2511 H 0.84239 0.94299 0.26433 0.0
C2512 C -0.00116 0.88257 0.20471 0.0
C2513 C 0.98194 0.86972 0.18989 0.0
C2514 C 0.98432 0.89454 0.22071 0.0
C2515 C 0.95263 0.89374 0.22219 0.0
C2516 C 0.93574 0.88111 0.20726 0.0
C2517 C 0.9503 0.86897 0.19132 0.0
C2518 C 0.93713 0.90584 0.23936 0.0
C2519 C 0.91601 0.92925 0.23717 0.0
C2520 C 0.94348 0.89479 0.25784 0.0
C2521 C 0.96444 0.86912 0.26102 0.0
C2522 C 0.95966 0.84127 0.25187 0.0
C2523 C 0.97969 0.81727 0.25475 0.0
C2524 C 0.00447 0.82077 0.26686 0.0
C2525 C 0.00922 0.84826 0.27616 0.0
C2526 C 0.98928 0.87235 0.2733 0.0
C2527 C 0.86451 0.94197 0.31744 0.0
C2528 C 0.86846 0.97294 0.32101 0.0
C2529 C 0.87792 0.92849 0.30152 0.0
C2530 C 0.89512 0.94587 0.28875 0.0
C2531 C 0.8992 0.97682 0.2924 0.0
C2532 C 0.88599 0.99022 0.30838 0.0
C2533 C 0.90849 0.93181 0.27147 0.0
C2534 C 0.9292 0.90802 0.27365 0.0
C2535 C 0.90149 0.94225 0.25295 0.0
C2536 C 0.87871 0.96629 0.24966 0.0
C2537 C 0.88651 0.99246 0.23942 0.0
C2538 C 0.86513 0.01525 0.23646 0.0
C2539 C 0.83583 0.01206 0.24362 0.0
C2540 C 0.8278 0.98602 0.25368 0.0
C2541 C 0.84907 0.96315 0.25665 0.0
H2542 H 0.81932 0.02974 0.24134 0.0
H2543 H 0.01995 0.80217 0.26907 0.0
loop_
_geom_bond_atom_site_label_1
_geom_bond_atom_site_label_2
_geom_bond_distance
_geom_bond_site_symmetry_2
_ccdc_geom_bond_type
Co0 O3 1.970 . S
Co0 N17 1.989 . S
Co0 O25 1.967 . S
Co0 O32 1.920 . S
Co1 O4 1.966 . S
Co1 N10 2.022 . S
Co1 N18 1.993 . S
Co1 O26 1.941 . S
C2 O3 1.258 . S
C2 O4 1.263 . S
O3 Co0 1.970 . S
O3 C2 1.258 . S
O4 Co1 1.966 . S
O4 C2 1.263 . S
C5 O6 1.235 . S
C5 O32 1.289 . S
O6 C5 1.235 . S
C7 C9 1.400 . S
C7 N10 1.351 . S
C7 C12 1.501 . S
C8 C9 1.387 . S
C8 N11 1.341 . S
C9 C7 1.400 . S
C9 C8 1.387 . S
N10 Co1 2.022 . S
N10 C7 1.351 . S
N10 N11 1.365 . S
N11 C8 1.341 . S
N11 N10 1.365 . S
N11 H31 0.862 . S
C12 C7 1.501 . S
C12 H13 0.961 . S
C12 H14 0.961 . S
C12 H15 0.960 . S
H13 C12 0.961 . S
H14 C12 0.961 . S
H15 C12 0.960 . S
C16 N17 1.342 . S
C16 C20 1.401 . S
C16 C21 1.499 . S
N17 Co0 1.989 . S
N17 C16 1.342 . S
N17 N18 1.388 . S
N18 Co1 1.993 . S
N18 N17 1.388 . S
N18 C19 1.346 . S
C19 N18 1.346 . S
C19 C20 1.396 . S
C19 C29 1.510 . S
C20 C16 1.401 . S
C20 C19 1.396 . S
C21 C16 1.499 . S
C21 H22 0.959 . S
C21 H23 0.960 . S
C21 H24 0.961 . S
H22 C21 0.959 . S
H23 C21 0.960 . S
H24 C21 0.961 . S
O25 Co0 1.967 . S
O25 C33 1.258 . S
O26 Co1 1.941 . S
O26 C33 1.266 . S
H27 C29 0.959 . S
H28 C29 0.961 . S
C29 C19 1.510 . S
C29 H27 0.959 . S
C29 H28 0.961 . S
C29 H30 0.960 . S
H30 C29 0.960 . S
H31 N11 0.862 . S
O32 Co0 1.920 . S
O32 C5 1.289 . S
C33 O25 1.258 . S
C33 O26 1.266 . S
Co34 O37 1.970 . S
Co34 N51 1.989 . S
Co34 O59 1.967 . S
Co34 O66 1.920 . S
Co35 O38 1.966 . S
Co35 N44 2.022 . S
Co35 N52 1.993 . S
Co35 O60 1.941 . S
C36 O37 1.258 . S
C36 O38 1.263 . S
O37 Co34 1.970 . S
O37 C36 1.258 . S
O38 Co35 1.966 . S
O38 C36 1.263 . S
C39 O40 1.235 . S
C39 O66 1.289 . S
O40 C39 1.235 . S
C41 C43 1.400 . S
C41 N44 1.351 . S
C41 C46 1.501 . S
C42 C43 1.387 . S
C42 N45 1.341 . S
C43 C41 1.400 . S
C43 C42 1.387 . S
N44 Co35 2.022 . S
N44 C41 1.351 . S
N44 N45 1.365 . S
N45 C42 1.341 . S
N45 N44 1.365 . S
N45 H65 0.862 . S
C46 C41 1.501 . S
C46 H47 0.961 . S
C46 H48 0.961 . S
C46 H49 0.960 . S
H47 C46 0.961 . S
H48 C46 0.961 . S
H49 C46 0.960 . S
C50 N51 1.342 . S
C50 C54 1.401 . S
C50 C55 1.499 . S
N51 Co34 1.989 . S
N51 C50 1.342 . S
N51 N52 1.388 . S
N52 Co35 1.993 . S
N52 N51 1.388 . S
N52 C53 1.346 . S
C53 N52 1.346 . S
C53 C54 1.396 . S
C53 C63 1.510 . S
C54 C50 1.401 . S
C54 C53 1.396 . S
C55 C50 1.499 . S
C55 H56 0.959 . S
C55 H57 0.960 . S
C55 H58 0.961 . S
H56 C55 0.959 . S
H57 C55 0.960 . S
H58 C55 0.961 . S
O59 Co34 1.967 . S
O59 C67 1.258 . S
O60 Co35 1.941 . S
O60 C67 1.266 . S
H61 C63 0.959 . S
H62 C63 0.961 . S
C63 C53 1.510 . S
C63 H61 0.959 . S
C63 H62 0.961 . S
C63 H64 0.960 . S
H64 C63 0.960 . S
H65 N45 0.862 . S
O66 Co34 1.920 . S
O66 C39 1.289 . S
C67 O59 1.258 . S
C67 O60 1.266 . S
Co68 O71 1.970 . S
Co68 N85 1.989 1_655 S
Co68 O93 1.967 . S
Co68 O100 1.920 . S
Co69 O72 1.966 . S
Co69 N78 2.022 . S
Co69 N86 1.993 1_655 S
Co69 O94 1.941 . S
C70 O71 1.258 . S
C70 O72 1.263 . S
O71 Co68 1.970 . S
O71 C70 1.258 . S
O72 Co69 1.966 . S
O72 C70 1.263 . S
C73 O74 1.235 . S
C73 O100 1.289 1_455 S
O74 C73 1.235 . S
C75 C77 1.400 . S
C75 N78 1.351 . S
C75 C80 1.501 1_655 S
C76 C77 1.387 . S
C76 N79 1.341 . S
C77 C75 1.400 . S
C77 C76 1.387 . S
N78 Co69 2.022 . S
N78 C75 1.351 . S
N78 N79 1.365 . S
N79 C76 1.341 . S
N79 N78 1.365 . S
N79 H99 0.862 . S
C80 C75 1.501 1_455 S
C80 H81 0.961 . S
C80 H82 0.961 . S
C80 H83 0.960 1_455 S
H81 C80 0.961 . S
H82 C80 0.961 . S
H83 C80 0.960 1_655 S
C84 N85 1.342 . S
C84 C88 1.401 . S
C84 C89 1.499 . S
N85 Co68 1.989 1_455 S
N85 C84 1.342 . S
N85 N86 1.388 . S
N86 Co69 1.993 1_455 S
N86 N85 1.388 . S
N86 C87 1.346 . S
C87 N86 1.346 . S
C87 C88 1.396 . S
C87 C97 1.510 . S
C88 C84 1.401 . S
C88 C87 1.396 . S
C89 C84 1.499 . S
C89 H90 0.959 . S
C89 H91 0.960 . S
C89 H92 0.961 . S
H90 C89 0.959 . S
H91 C89 0.960 . S
H92 C89 0.961 . S
O93 Co68 1.967 . S
O93 C101 1.258 . S
O94 Co69 1.941 . S
O94 C101 1.266 . S
H95 C97 0.959 . S
H96 C97 0.961 . S
C97 C87 1.510 . S
C97 H95 0.959 . S
C97 H96 0.961 . S
C97 H98 0.960 . S
H98 C97 0.960 . S
H99 N79 0.862 . S
O100 Co68 1.920 . S
O100 C73 1.289 1_655 S
C101 O93 1.258 . S
C101 O94 1.266 . S
Co102 O105 1.970 . S
Co102 N119 1.989 1_565 S
Co102 O127 1.967 . S
Co102 O134 1.920 . S
Co103 O106 1.966 . S
Co103 N112 2.022 . S
Co103 N120 1.993 1_565 S
Co103 O128 1.941 . S
C104 O105 1.258 . S
C104 O106 1.263 . S
O105 Co102 1.970 . S
O105 C104 1.258 . S
O106 Co103 1.966 . S
O106 C104 1.263 . S
C107 O108 1.235 . S
C107 O134 1.289 1_545 S
O108 C107 1.235 . S
C109 C111 1.400 . S
C109 N112 1.351 . S
C109 C114 1.501 1_565 S
C110 C111 1.387 . S
C110 N113 1.341 . S
C111 C109 1.400 . S
C111 C110 1.387 . S
N112 Co103 2.022 . S
N112 C109 1.351 . S
N112 N113 1.365 . S
N113 C110 1.341 . S
N113 N112 1.365 . S
N113 H133 0.862 . S
C114 C109 1.501 1_545 S
C114 H115 0.961 . S
C114 H116 0.961 . S
C114 H117 0.960 1_545 S
H115 C114 0.961 . S
H116 C114 0.961 . S
H117 C114 0.960 1_565 S
C118 N119 1.342 . S
C118 C122 1.401 . S
C118 C123 1.499 . S
N119 Co102 1.989 1_545 S
N119 C118 1.342 . S
N119 N120 1.388 . S
N120 Co103 1.993 1_545 S
N120 N119 1.388 . S
N120 C121 1.346 . S
C121 N120 1.346 . S
C121 C122 1.396 . S
C121 C131 1.510 . S
C122 C118 1.401 . S
C122 C121 1.396 . S
C123 C118 1.499 . S
C123 H124 0.959 . S
C123 H125 0.960 . S
C123 H126 0.961 . S
H124 C123 0.959 . S
H125 C123 0.960 . S
H126 C123 0.961 . S
O127 Co102 1.967 . S
O127 C135 1.258 . S
O128 Co103 1.941 . S
O128 C135 1.266 . S
H129 C131 0.959 . S
H130 C131 0.961 . S
C131 C121 1.510 . S
C131 H129 0.959 . S
C131 H130 0.961 . S
C131 H132 0.960 . S
H132 C131 0.960 . S
H133 N113 0.862 . S
O134 Co102 1.920 . S
O134 C107 1.289 1_565 S
C135 O127 1.258 . S
C135 O128 1.266 . S
Co136 O139 1.970 . S
Co136 N153 1.989 . S
Co136 O161 1.967 . S
Co136 O168 1.920 . S
Co137 O140 1.966 . S
Co137 N146 2.022 . S
Co137 N154 1.993 . S
Co137 O162 1.941 . S
C138 O139 1.258 . S
C138 O140 1.263 . S
O139 Co136 1.970 . S
O139 C138 1.258 . S
O140 Co137 1.966 . S
O140 C138 1.263 . S
C141 O142 1.235 . S
C141 O168 1.289 . S
O142 C141 1.235 . S
C143 C145 1.400 . S
C143 N146 1.351 . S
C143 C148 1.501 . S
C144 C145 1.387 . S
C144 N147 1.341 . S
C145 C143 1.400 . S
C145 C144 1.387 . S
N146 Co137 2.022 . S
N146 C143 1.351 . S
N146 N147 1.365 . S
N147 C144 1.341 . S
N147 N146 1.365 . S
N147 H167 0.862 . S
C148 C143 1.501 . S
C148 H149 0.961 . S
C148 H150 0.961 . S
C148 H151 0.960 . S
H149 C148 0.961 . S
H150 C148 0.961 . S
H151 C148 0.960 . S
C152 N153 1.342 . S
C152 C156 1.401 . S
C152 C157 1.499 . S
N153 Co136 1.989 . S
N153 C152 1.342 . S
N153 N154 1.388 . S
N154 Co137 1.993 . S
N154 N153 1.388 . S
N154 C155 1.346 . S
C155 N154 1.346 . S
C155 C156 1.396 . S
C155 C165 1.510 . S
C156 C152 1.401 . S
C156 C155 1.396 . S
C157 C152 1.499 . S
C157 H158 0.959 . S
C157 H159 0.960 . S
C157 H160 0.961 . S
H158 C157 0.959 . S
H159 C157 0.960 . S
H160 C157 0.961 . S
O161 Co136 1.967 . S
O161 C169 1.258 . S
O162 Co137 1.941 . S
O162 C169 1.266 . S
H163 C165 0.959 . S
H164 C165 0.961 . S
C165 C155 1.510 . S
C165 H163 0.959 . S
C165 H164 0.961 . S
C165 H166 0.960 . S
H166 C165 0.960 . S
H167 N147 0.862 . S
O168 Co136 1.920 . S
O168 C141 1.289 . S
C169 O161 1.258 . S
C169 O162 1.266 . S
Co170 O173 1.970 . S
Co170 N187 1.989 . S
Co170 O195 1.967 . S
Co170 O202 1.920 . S
Co171 O174 1.966 . S
Co171 N180 2.022 . S
Co171 N188 1.993 . S
Co171 O196 1.941 . S
C172 O173 1.258 . S
C172 O174 1.263 . S
O173 Co170 1.970 . S
O173 C172 1.258 . S
O174 Co171 1.966 . S
O174 C172 1.263 . S
C175 O176 1.235 . S
C175 O202 1.289 . S
O176 C175 1.235 . S
C177 C179 1.400 . S
C177 N180 1.351 . S
C177 C182 1.501 . S
C178 C179 1.387 . S
C178 N181 1.341 . S
C179 C177 1.400 . S
C179 C178 1.387 . S
N180 Co171 2.022 . S
N180 C177 1.351 . S
N180 N181 1.365 . S
N181 C178 1.341 . S
N181 N180 1.365 . S
N181 H201 0.862 . S
C182 C177 1.501 . S
C182 H183 0.961 . S
C182 H184 0.961 . S
C182 H185 0.960 . S
H183 C182 0.961 . S
H184 C182 0.961 . S
H185 C182 0.960 . S
C186 N187 1.342 . S
C186 C190 1.401 . S
C186 C191 1.499 . S
N187 Co170 1.989 . S
N187 C186 1.342 . S
N187 N188 1.388 . S
N188 Co171 1.993 . S
N188 N187 1.388 . S
N188 C189 1.346 . S
C189 N188 1.346 . S
C189 C190 1.396 . S
C189 C199 1.510 . S
C190 C186 1.401 . S
C190 C189 1.396 . S
C191 C186 1.499 . S
C191 H192 0.959 . S
C191 H193 0.960 . S
C191 H194 0.961 . S
H192 C191 0.959 . S
H193 C191 0.960 . S
H194 C191 0.961 . S
O195 Co170 1.967 . S
O195 C203 1.258 . S
O196 Co171 1.941 . S
O196 C203 1.266 . S
H197 C199 0.959 . S
H198 C199 0.961 . S
C199 C189 1.510 . S
C199 H197 0.959 . S
C199 H198 0.961 . S
C199 H200 0.960 . S
H200 C199 0.960 . S
H201 N181 0.862 . S
O202 Co170 1.920 . S
O202 C175 1.289 . S
C203 O195 1.258 . S
C203 O196 1.266 . S
Co204 O207 1.970 . S
Co204 N221 1.989 1_655 S
Co204 O229 1.967 . S
Co204 O236 1.920 . S
Co205 O208 1.966 . S
Co205 N214 2.022 . S
Co205 N222 1.993 1_655 S
Co205 O230 1.941 . S
C206 O207 1.258 . S
C206 O208 1.263 . S
O207 Co204 1.970 . S
O207 C206 1.258 . S
O208 Co205 1.966 . S
O208 C206 1.263 . S
C209 O210 1.235 . S
C209 O236 1.289 1_455 S
O210 C209 1.235 . S
C211 C213 1.400 . S
C211 N214 1.351 . S
C211 C216 1.501 1_655 S
C212 C213 1.387 . S
C212 N215 1.341 . S
C213 C211 1.400 . S
C213 C212 1.387 . S
N214 Co205 2.022 . S
N214 C211 1.351 . S
N214 N215 1.365 . S
N215 C212 1.341 . S
N215 N214 1.365 . S
N215 H235 0.862 . S
C216 C211 1.501 1_455 S
C216 H217 0.961 . S
C216 H218 0.961 . S
C216 H219 0.960 1_455 S
H217 C216 0.961 . S
H218 C216 0.961 . S
H219 C216 0.960 1_655 S
C220 N221 1.342 . S
C220 C224 1.401 . S
C220 C225 1.499 . S
N221 Co204 1.989 1_455 S
N221 C220 1.342 . S
N221 N222 1.388 . S
N222 Co205 1.993 1_455 S
N222 N221 1.388 . S
N222 C223 1.346 . S
C223 N222 1.346 . S
C223 C224 1.396 . S
C223 C233 1.510 . S
C224 C220 1.401 . S
C224 C223 1.396 . S
C225 C220 1.499 . S
C225 H226 0.959 . S
C225 H227 0.960 . S
C225 H228 0.961 . S
H226 C225 0.959 . S
H227 C225 0.960 . S
H228 C225 0.961 . S
O229 Co204 1.967 . S
O229 C237 1.258 . S
O230 Co205 1.941 . S
O230 C237 1.266 . S
H231 C233 0.959 . S
H232 C233 0.961 . S
C233 C223 1.510 . S
C233 H231 0.959 . S
C233 H232 0.961 . S
C233 H234 0.960 . S
H234 C233 0.960 . S
H235 N215 0.862 . S
O236 Co204 1.920 . S
O236 C209 1.289 1_655 S
C237 O229 1.258 . S
C237 O230 1.266 . S
Co238 O241 1.970 . S
Co238 N255 1.989 1_565 S
Co238 O263 1.967 . S
Co238 O270 1.920 . S
Co239 O242 1.966 . S
Co239 N248 2.022 . S
Co239 N256 1.993 1_565 S
Co239 O264 1.941 . S
C240 O241 1.258 . S
C240 O242 1.263 . S
O241 Co238 1.970 . S
O241 C240 1.258 . S
O242 Co239 1.966 . S
O242 C240 1.263 . S
C243 O244 1.235 . S
C243 O270 1.289 1_545 S
O244 C243 1.235 . S
C245 C247 1.400 . S
C245 N248 1.351 . S
C245 C250 1.501 1_565 S
C246 C247 1.387 . S
C246 N249 1.341 . S
C247 C245 1.400 . S
C247 C246 1.387 . S
N248 Co239 2.022 . S
N248 C245 1.351 . S
N248 N249 1.365 . S
N249 C246 1.341 . S
N249 N248 1.365 . S
N249 H269 0.862 . S
C250 C245 1.501 1_545 S
C250 H251 0.961 . S
C250 H252 0.961 . S
C250 H253 0.960 1_545 S
H251 C250 0.961 . S
H252 C250 0.961 . S
H253 C250 0.960 1_565 S
C254 N255 1.342 . S
C254 C258 1.401 . S
C254 C259 1.499 . S
N255 Co238 1.989 1_545 S
N255 C254 1.342 . S
N255 N256 1.388 . S
N256 Co239 1.993 1_545 S
N256 N255 1.388 . S
N256 C257 1.346 . S
C257 N256 1.346 . S
C257 C258 1.396 . S
C257 C267 1.510 . S
C258 C254 1.401 . S
C258 C257 1.396 . S
C259 C254 1.499 . S
C259 H260 0.959 . S
C259 H261 0.960 . S
C259 H262 0.961 . S
H260 C259 0.959 . S
H261 C259 0.960 . S
H262 C259 0.961 . S
O263 Co238 1.967 . S
O263 C271 1.258 . S
O264 Co239 1.941 . S
O264 C271 1.266 . S
H265 C267 0.959 . S
H266 C267 0.961 . S
C267 C257 1.510 . S
C267 H265 0.959 . S
C267 H266 0.961 . S
C267 H268 0.960 . S
H268 C267 0.960 . S
H269 N249 0.862 . S
O270 Co238 1.920 . S
O270 C243 1.289 1_565 S
C271 O263 1.258 . S
C271 O264 1.266 . S
Co272 O275 1.970 . S
Co272 N289 1.989 . S
Co272 O297 1.967 . S
Co272 O304 1.920 . S
Co273 O276 1.966 . S
Co273 N282 2.022 . S
Co273 N290 1.993 . S
Co273 O298 1.941 . S
C274 O275 1.258 . S
C274 O276 1.263 . S
O275 Co272 1.970 . S
O275 C274 1.258 . S
O276 Co273 1.966 . S
O276 C274 1.263 . S
C277 O278 1.235 . S
C277 O304 1.289 . S
O278 C277 1.235 . S
C279 C281 1.400 . S
C279 N282 1.351 . S
C279 C284 1.501 . S
C280 C281 1.387 . S
C280 N283 1.341 . S
C281 C279 1.400 . S
C281 C280 1.387 . S
N282 Co273 2.022 . S
N282 C279 1.351 . S
N282 N283 1.365 . S
N283 C280 1.341 . S
N283 N282 1.365 . S
N283 H303 0.862 . S
C284 C279 1.501 . S
C284 H285 0.961 . S
C284 H286 0.961 . S
C284 H287 0.960 . S
H285 C284 0.961 . S
H286 C284 0.961 . S
H287 C284 0.960 . S
C288 N289 1.342 . S
C288 C292 1.401 . S
C288 C293 1.499 . S
N289 Co272 1.989 . S
N289 C288 1.342 . S
N289 N290 1.388 . S
N290 Co273 1.993 . S
N290 N289 1.388 . S
N290 C291 1.346 . S
C291 N290 1.346 . S
C291 C292 1.396 . S
C291 C301 1.510 . S
C292 C288 1.401 . S
C292 C291 1.396 . S
C293 C288 1.499 . S
C293 H294 0.959 . S
C293 H295 0.960 . S
C293 H296 0.961 . S
H294 C293 0.959 . S
H295 C293 0.960 . S
H296 C293 0.961 . S
O297 Co272 1.967 . S
O297 C305 1.258 . S
O298 Co273 1.941 . S
O298 C305 1.266 . S
H299 C301 0.959 . S
H300 C301 0.961 . S
C301 C291 1.510 . S
C301 H299 0.959 . S
C301 H300 0.961 . S
C301 H302 0.960 . S
H302 C301 0.960 . S
H303 N283 0.862 . S
O304 Co272 1.920 . S
O304 C277 1.289 . S
C305 O297 1.258 . S
C305 O298 1.266 . S
Co306 O309 1.970 . S
Co306 N323 1.989 . S
Co306 O331 1.967 . S
Co306 O338 1.920 . S
Co307 O310 1.966 . S
Co307 N316 2.022 . S
Co307 N324 1.993 . S
Co307 O332 1.941 . S
C308 O309 1.258 . S
C308 O310 1.263 . S
O309 Co306 1.970 . S
O309 C308 1.258 . S
O310 Co307 1.966 . S
O310 C308 1.263 . S
C311 O312 1.235 . S
C311 O338 1.289 . S
O312 C311 1.235 . S
C313 C315 1.400 . S
C313 N316 1.351 . S
C313 C318 1.501 . S
C314 C315 1.387 . S
C314 N317 1.341 . S
C315 C313 1.400 . S
C315 C314 1.387 . S
N316 Co307 2.022 . S
N316 C313 1.351 . S
N316 N317 1.365 . S
N317 C314 1.341 . S
N317 N316 1.365 . S
N317 H337 0.862 . S
C318 C313 1.501 . S
C318 H319 0.961 . S
C318 H320 0.961 . S
C318 H321 0.960 . S
H319 C318 0.961 . S
H320 C318 0.961 . S
H321 C318 0.960 . S
C322 N323 1.342 . S
C322 C326 1.401 . S
C322 C327 1.499 . S
N323 Co306 1.989 . S
N323 C322 1.342 . S
N323 N324 1.388 . S
N324 Co307 1.993 . S
N324 N323 1.388 . S
N324 C325 1.346 . S
C325 N324 1.346 . S
C325 C326 1.396 . S
C325 C335 1.510 . S
C326 C322 1.401 . S
C326 C325 1.396 . S
C327 C322 1.499 . S
C327 H328 0.959 . S
C327 H329 0.960 . S
C327 H330 0.961 . S
H328 C327 0.959 . S
H329 C327 0.960 . S
H330 C327 0.961 . S
O331 Co306 1.967 . S
O331 C339 1.258 . S
O332 Co307 1.941 . S
O332 C339 1.266 . S
H333 C335 0.959 . S
H334 C335 0.961 . S
C335 C325 1.510 . S
C335 H333 0.959 . S
C335 H334 0.961 . S
C335 H336 0.960 . S
H336 C335 0.960 . S
H337 N317 0.862 . S
O338 Co306 1.920 . S
O338 C311 1.289 . S
C339 O331 1.258 . S
C339 O332 1.266 . S
Co340 O343 1.970 . S
Co340 N357 1.989 1_455 S
Co340 O365 1.967 . S
Co340 O372 1.920 . S
Co341 O344 1.966 . S
Co341 N350 2.022 . S
Co341 N358 1.993 1_455 S
Co341 O366 1.941 . S
C342 O343 1.258 . S
C342 O344 1.263 . S
O343 Co340 1.970 . S
O343 C342 1.258 . S
O344 Co341 1.966 . S
O344 C342 1.263 . S
C345 O346 1.235 . S
C345 O372 1.289 1_655 S
O346 C345 1.235 . S
C347 C349 1.400 . S
C347 N350 1.351 . S
C347 C352 1.501 1_455 S
C348 C349 1.387 . S
C348 N351 1.341 . S
C349 C347 1.400 . S
C349 C348 1.387 . S
N350 Co341 2.022 . S
N350 C347 1.351 . S
N350 N351 1.365 . S
N351 C348 1.341 . S
N351 N350 1.365 . S
N351 H371 0.862 . S
C352 C347 1.501 1_655 S
C352 H353 0.961 . S
C352 H354 0.961 . S
C352 H355 0.960 1_655 S
H353 C352 0.961 . S
H354 C352 0.961 . S
H355 C352 0.960 1_455 S
C356 N357 1.342 . S
C356 C360 1.401 . S
C356 C361 1.499 . S
N357 Co340 1.989 1_655 S
N357 C356 1.342 . S
N357 N358 1.388 . S
N358 Co341 1.993 1_655 S
N358 N357 1.388 . S
N358 C359 1.346 . S
C359 N358 1.346 . S
C359 C360 1.396 . S
C359 C369 1.510 . S
C360 C356 1.401 . S
C360 C359 1.396 . S
C361 C356 1.499 . S
C361 H362 0.959 . S
C361 H363 0.960 . S
C361 H364 0.961 . S
H362 C361 0.959 . S
H363 C361 0.960 . S
H364 C361 0.961 . S
O365 Co340 1.967 . S
O365 C373 1.258 . S
O366 Co341 1.941 . S
O366 C373 1.266 . S
H367 C369 0.959 . S
H368 C369 0.961 . S
C369 C359 1.510 . S
C369 H367 0.959 . S
C369 H368 0.961 . S
C369 H370 0.960 . S
H370 C369 0.960 . S
H371 N351 0.862 . S
O372 Co340 1.920 . S
O372 C345 1.289 1_455 S
C373 O365 1.258 . S
C373 O366 1.266 . S
Co374 O377 1.970 . S
Co374 N391 1.989 1_545 S
Co374 O399 1.967 . S
Co374 O406 1.920 . S
Co375 O378 1.966 . S
Co375 N384 2.022 . S
Co375 N392 1.993 1_545 S
Co375 O400 1.941 . S
C376 O377 1.258 . S
C376 O378 1.263 . S
O377 Co374 1.970 . S
O377 C376 1.258 . S
O378 Co375 1.966 . S
O378 C376 1.263 . S
C379 O380 1.235 . S
C379 O406 1.289 1_565 S
O380 C379 1.235 . S
C381 C383 1.400 . S
C381 N384 1.351 . S
C381 C386 1.501 1_545 S
C382 C383 1.387 . S
C382 N385 1.341 . S
C383 C381 1.400 . S
C383 C382 1.387 . S
N384 Co375 2.022 . S
N384 C381 1.351 . S
N384 N385 1.365 . S
N385 C382 1.341 . S
N385 N384 1.365 . S
N385 H405 0.862 . S
C386 C381 1.501 1_565 S
C386 H387 0.961 . S
C386 H388 0.961 . S
C386 H389 0.960 1_565 S
H387 C386 0.961 . S
H388 C386 0.961 . S
H389 C386 0.960 1_545 S
C390 N391 1.342 . S
C390 C394 1.401 . S
C390 C395 1.499 . S
N391 Co374 1.989 1_565 S
N391 C390 1.342 . S
N391 N392 1.388 . S
N392 Co375 1.993 1_565 S
N392 N391 1.388 . S
N392 C393 1.346 . S
C393 N392 1.346 . S
C393 C394 1.396 . S
C393 C403 1.510 . S
C394 C390 1.401 . S
C394 C393 1.396 . S
C395 C390 1.499 . S
C395 H396 0.959 . S
C395 H397 0.960 . S
C395 H398 0.961 . S
H396 C395 0.959 . S
H397 C395 0.960 . S
H398 C395 0.961 . S
O399 Co374 1.967 . S
O399 C407 1.258 . S
O400 Co375 1.941 . S
O400 C407 1.266 . S
H401 C403 0.959 . S
H402 C403 0.961 . S
C403 C393 1.510 . S
C403 H401 0.959 . S
C403 H402 0.961 . S
C403 H404 0.960 . S
H404 C403 0.960 . S
H405 N385 0.862 . S
O406 Co374 1.920 . S
O406 C379 1.289 1_545 S
C407 O399 1.258 . S
C407 O400 1.266 . S
Co408 O411 1.970 . S
Co408 N425 1.989 . S
Co408 O433 1.967 . S
Co408 O440 1.920 . S
Co409 O412 1.966 . S
Co409 N418 2.022 . S
Co409 N426 1.993 . S
Co409 O434 1.941 . S
C410 O411 1.258 . S
C410 O412 1.263 . S
O411 Co408 1.970 . S
O411 C410 1.258 . S
O412 Co409 1.966 . S
O412 C410 1.263 . S
C413 O414 1.235 . S
C413 O440 1.289 . S
O414 C413 1.235 . S
C415 C417 1.400 . S
C415 N418 1.351 . S
C415 C420 1.501 . S
C416 C417 1.387 . S
C416 N419 1.341 . S
C417 C415 1.400 . S
C417 C416 1.387 . S
N418 Co409 2.022 . S
N418 C415 1.351 . S
N418 N419 1.365 . S
N419 C416 1.341 . S
N419 N418 1.365 . S
N419 H439 0.862 . S
C420 C415 1.501 . S
C420 H421 0.961 . S
C420 H422 0.961 . S
C420 H423 0.960 . S
H421 C420 0.961 . S
H422 C420 0.961 . S
H423 C420 0.960 . S
C424 N425 1.342 . S
C424 C428 1.401 . S
C424 C429 1.499 . S
N425 Co408 1.989 . S
N425 C424 1.342 . S
N425 N426 1.388 . S
N426 Co409 1.993 . S
N426 N425 1.388 . S
N426 C427 1.346 . S
C427 N426 1.346 . S
C427 C428 1.396 . S
C427 C437 1.510 . S
C428 C424 1.401 . S
C428 C427 1.396 . S
C429 C424 1.499 . S
C429 H430 0.959 . S
C429 H431 0.960 . S
C429 H432 0.961 . S
H430 C429 0.959 . S
H431 C429 0.960 . S
H432 C429 0.961 . S
O433 Co408 1.967 . S
O433 C441 1.258 . S
O434 Co409 1.941 . S
O434 C441 1.266 . S
H435 C437 0.959 . S
H436 C437 0.961 . S
C437 C427 1.510 . S
C437 H435 0.959 . S
C437 H436 0.961 . S
C437 H438 0.960 . S
H438 C437 0.960 . S
H439 N419 0.862 . S
O440 Co408 1.920 . S
O440 C413 1.289 . S
C441 O433 1.258 . S
C441 O434 1.266 . S
Co442 O445 1.970 . S
Co442 N459 1.989 . S
Co442 O467 1.967 . S
Co442 O474 1.920 . S
Co443 O446 1.966 . S
Co443 N452 2.022 . S
Co443 N460 1.993 . S
Co443 O468 1.941 . S
C444 O445 1.258 . S
C444 O446 1.263 . S
O445 Co442 1.970 . S
O445 C444 1.258 . S
O446 Co443 1.966 . S
O446 C444 1.263 . S
C447 O448 1.235 . S
C447 O474 1.289 . S
O448 C447 1.235 . S
C449 C451 1.400 . S
C449 N452 1.351 . S
C449 C454 1.501 . S
C450 C451 1.387 . S
C450 N453 1.341 . S
C451 C449 1.400 . S
C451 C450 1.387 . S
N452 Co443 2.022 . S
N452 C449 1.351 . S
N452 N453 1.365 . S
N453 C450 1.341 . S
N453 N452 1.365 . S
N453 H473 0.862 . S
C454 C449 1.501 . S
C454 H455 0.961 . S
C454 H456 0.961 . S
C454 H457 0.960 . S
H455 C454 0.961 . S
H456 C454 0.961 . S
H457 C454 0.960 . S
C458 N459 1.342 . S
C458 C462 1.401 . S
C458 C463 1.499 . S
N459 Co442 1.989 . S
N459 C458 1.342 . S
N459 N460 1.388 . S
N460 Co443 1.993 . S
N460 N459 1.388 . S
N460 C461 1.346 . S
C461 N460 1.346 . S
C461 C462 1.396 . S
C461 C471 1.510 . S
C462 C458 1.401 . S
C462 C461 1.396 . S
C463 C458 1.499 . S
C463 H464 0.959 . S
C463 H465 0.960 . S
C463 H466 0.961 . S
H464 C463 0.959 . S
H465 C463 0.960 . S
H466 C463 0.961 . S
O467 Co442 1.967 . S
O467 C475 1.258 . S
O468 Co443 1.941 . S
O468 C475 1.266 . S
H469 C471 0.959 . S
H470 C471 0.961 . S
C471 C461 1.510 . S
C471 H469 0.959 . S
C471 H470 0.961 . S
C471 H472 0.960 . S
H472 C471 0.960 . S
H473 N453 0.862 . S
O474 Co442 1.920 . S
O474 C447 1.289 . S
C475 O467 1.258 . S
C475 O468 1.266 . S
Co476 O479 1.970 . S
Co476 N493 1.989 1_455 S
Co476 O501 1.967 . S
Co476 O508 1.920 . S
Co477 O480 1.966 . S
Co477 N486 2.022 . S
Co477 N494 1.993 1_455 S
Co477 O502 1.941 . S
C478 O479 1.258 . S
C478 O480 1.263 . S
O479 Co476 1.970 . S
O479 C478 1.258 . S
O480 Co477 1.966 . S
O480 C478 1.263 . S
C481 O482 1.235 . S
C481 O508 1.289 1_655 S
O482 C481 1.235 . S
C483 C485 1.400 . S
C483 N486 1.351 . S
C483 C488 1.501 1_455 S
C484 C485 1.387 . S
C484 N487 1.341 . S
C485 C483 1.400 . S
C485 C484 1.387 . S
N486 Co477 2.022 . S
N486 C483 1.351 . S
N486 N487 1.365 . S
N487 C484 1.341 . S
N487 N486 1.365 . S
N487 H507 0.862 . S
C488 C483 1.501 1_655 S
C488 H489 0.961 . S
C488 H490 0.961 . S
C488 H491 0.960 1_655 S
H489 C488 0.961 . S
H490 C488 0.961 . S
H491 C488 0.960 1_455 S
C492 N493 1.342 . S
C492 C496 1.401 . S
C492 C497 1.499 . S
N493 Co476 1.989 1_655 S
N493 C492 1.342 . S
N493 N494 1.388 . S
N494 Co477 1.993 1_655 S
N494 N493 1.388 . S
N494 C495 1.346 . S
C495 N494 1.346 . S
C495 C496 1.396 . S
C495 C505 1.510 . S
C496 C492 1.401 . S
C496 C495 1.396 . S
C497 C492 1.499 . S
C497 H498 0.959 . S
C497 H499 0.960 . S
C497 H500 0.961 . S
H498 C497 0.959 . S
H499 C497 0.960 . S
H500 C497 0.961 . S
O501 Co476 1.967 . S
O501 C509 1.258 . S
O502 Co477 1.941 . S
O502 C509 1.266 . S
H503 C505 0.959 . S
H504 C505 0.961 . S
C505 C495 1.510 . S
C505 H503 0.959 . S
C505 H504 0.961 . S
C505 H506 0.960 . S
H506 C505 0.960 . S
H507 N487 0.862 . S
O508 Co476 1.920 . S
O508 C481 1.289 1_455 S
C509 O501 1.258 . S
C509 O502 1.266 . S
Co510 O513 1.970 . S
Co510 N527 1.989 1_545 S
Co510 O535 1.967 . S
Co510 O542 1.920 . S
Co511 O514 1.966 . S
Co511 N520 2.022 . S
Co511 N528 1.993 1_545 S
Co511 O536 1.941 . S
C512 O513 1.258 . S
C512 O514 1.263 . S
O513 Co510 1.970 . S
O513 C512 1.258 . S
O514 Co511 1.966 . S
O514 C512 1.263 . S
C515 O516 1.235 . S
C515 O542 1.289 1_565 S
O516 C515 1.235 . S
C517 C519 1.400 . S
C517 N520 1.351 . S
C517 C522 1.501 1_545 S
C518 C519 1.387 . S
C518 N521 1.341 . S
C519 C517 1.400 . S
C519 C518 1.387 . S
N520 Co511 2.022 . S
N520 C517 1.351 . S
N520 N521 1.365 . S
N521 C518 1.341 . S
N521 N520 1.365 . S
N521 H541 0.862 . S
C522 C517 1.501 1_565 S
C522 H523 0.961 . S
C522 H524 0.961 . S
C522 H525 0.960 1_565 S
H523 C522 0.961 . S
H524 C522 0.961 . S
H525 C522 0.960 1_545 S
C526 N527 1.342 . S
C526 C530 1.401 . S
C526 C531 1.499 . S
N527 Co510 1.989 1_565 S
N527 C526 1.342 . S
N527 N528 1.388 . S
N528 Co511 1.993 1_565 S
N528 N527 1.388 . S
N528 C529 1.346 . S
C529 N528 1.346 . S
C529 C530 1.396 . S
C529 C539 1.510 . S
C530 C526 1.401 . S
C530 C529 1.396 . S
C531 C526 1.499 . S
C531 H532 0.959 . S
C531 H533 0.960 . S
C531 H534 0.961 . S
H532 C531 0.959 . S
H533 C531 0.960 . S
H534 C531 0.961 . S
O535 Co510 1.967 . S
O535 C543 1.258 . S
O536 Co511 1.941 . S
O536 C543 1.266 . S
H537 C539 0.959 . S
H538 C539 0.961 . S
C539 C529 1.510 . S
C539 H537 0.959 . S
C539 H538 0.961 . S
C539 H540 0.960 . S
H540 C539 0.960 . S
H541 N521 0.862 . S
O542 Co510 1.920 . S
O542 C515 1.289 1_545 S
C543 O535 1.258 . S
C543 O536 1.266 . S
H544 C562 0.951 . S
H545 C564 0.951 . S
H546 C566 0.950 . S
H547 C567 0.950 . S
H548 C569 0.950 . S
H549 C572 0.950 . S
H550 C573 0.950 . S
H551 C575 0.950 . S
H552 C576 0.950 1_556 S
H553 C577 0.951 . S
H554 C579 0.951 . S
H555 C581 0.950 . S
H556 C582 0.950 . S
H557 C584 0.950 . S
H558 C587 0.950 . S
H559 C588 0.950 . S
H560 C590 0.950 . S
H561 C591 0.950 1_554 S
C562 H544 0.951 . S
C562 C563 1.366 . S
C562 C564 1.388 . S
C563 C562 1.366 . S
C563 C567 1.385 . S
C564 H545 0.951 . S
C564 C562 1.388 . S
C564 C565 1.366 . S
C565 C564 1.366 . S
C565 C566 1.414 . S
C565 C568 1.499 . S
C566 H546 0.950 . S
C566 C565 1.414 . S
C566 C567 1.374 . S
C567 H547 0.950 . S
C567 C563 1.385 . S
C567 C566 1.374 . S
C568 C565 1.499 . S
C568 C569 1.373 . S
C568 C570 1.389 . S
C569 H548 0.950 . S
C569 C568 1.373 . S
C569 C585 1.377 1_554 S
C570 C568 1.389 . S
C570 C571 1.524 . S
C570 C584 1.377 1_554 S
C571 C570 1.524 . S
C571 C572 1.397 . S
C571 C576 1.363 . S
C572 H549 0.950 . S
C572 C571 1.397 . S
C572 C573 1.334 . S
C573 H550 0.950 . S
C573 C572 1.334 . S
C573 C574 1.287 . S
C574 C573 1.287 . S
C574 C575 1.524 . S
C574 H593 0.913 . S
C575 H551 0.950 . S
C575 C574 1.524 . S
C575 C576 1.415 . S
C576 H552 0.950 1_554 S
C576 C571 1.363 . S
C576 C575 1.415 . S
C577 H553 0.951 . S
C577 C578 1.366 . S
C577 C579 1.388 . S
C578 C577 1.366 . S
C578 C582 1.385 . S
C579 H554 0.951 . S
C579 C577 1.388 . S
C579 C580 1.366 . S
C580 C579 1.366 . S
C580 C581 1.414 . S
C580 C583 1.499 . S
C581 H555 0.950 . S
C581 C580 1.414 . S
C581 C582 1.374 . S
C582 H556 0.950 . S
C582 C578 1.385 . S
C582 C581 1.374 . S
C583 C580 1.499 . S
C583 C584 1.373 . S
C583 C585 1.389 . S
C584 H557 0.950 . S
C584 C570 1.377 1_556 S
C584 C583 1.373 . S
C585 C569 1.377 1_556 S
C585 C583 1.389 . S
C585 C586 1.524 . S
C586 C585 1.524 . S
C586 C587 1.397 . S
C586 C591 1.363 . S
C587 H558 0.950 . S
C587 C586 1.397 . S
C587 C588 1.334 . S
C588 H559 0.950 . S
C588 C587 1.334 . S
C588 C589 1.287 . S
C589 C588 1.287 . S
C589 C590 1.524 . S
C589 H592 0.999 . S
C590 H560 0.950 . S
C590 C589 1.524 . S
C590 C591 1.415 . S
C591 H561 0.950 1_556 S
C591 C586 1.363 . S
C591 C590 1.415 . S
H592 C589 0.999 . S
H593 C574 0.913 . S
H594 C612 0.951 . S
H595 C614 0.951 . S
H596 C616 0.950 . S
H597 C617 0.950 . S
H598 C619 0.950 . S
H599 C622 0.950 . S
H600 C623 0.950 . S
H601 C625 0.950 . S
H602 C626 0.950 . S
H603 C627 0.951 . S
H604 C629 0.951 . S
H605 C631 0.950 . S
H606 C632 0.950 . S
H607 C634 0.950 . S
H608 C637 0.950 . S
H609 C638 0.950 . S
H610 C640 0.950 . S
H611 C641 0.950 . S
C612 H594 0.951 . S
C612 C613 1.366 . S
C612 C614 1.388 . S
C613 C612 1.366 . S
C613 C617 1.385 . S
C614 H595 0.951 . S
C614 C612 1.388 . S
C614 C615 1.366 . S
C615 C614 1.366 . S
C615 C616 1.414 . S
C615 C618 1.499 . S
C616 H596 0.950 . S
C616 C615 1.414 . S
C616 C617 1.374 . S
C617 H597 0.950 . S
C617 C613 1.385 . S
C617 C616 1.374 . S
C618 C615 1.499 . S
C618 C619 1.373 . S
C618 C620 1.389 . S
C619 H598 0.950 . S
C619 C618 1.373 . S
C619 C635 1.377 . S
C620 C618 1.389 . S
C620 C621 1.524 . S
C620 C634 1.377 . S
C621 C620 1.524 . S
C621 C622 1.397 . S
C621 C626 1.363 . S
C622 H599 0.950 . S
C622 C621 1.397 . S
C622 C623 1.334 . S
C623 H600 0.950 . S
C623 C622 1.334 . S
C623 C624 1.287 . S
C624 C623 1.287 . S
C624 C625 1.524 . S
C624 H643 0.913 . S
C625 H601 0.950 . S
C625 C624 1.524 . S
C625 C626 1.415 . S
C626 H602 0.950 . S
C626 C621 1.363 . S
C626 C625 1.415 . S
C627 H603 0.951 . S
C627 C628 1.366 . S
C627 C629 1.388 . S
C628 C627 1.366 . S
C628 C632 1.385 . S
C629 H604 0.951 . S
C629 C627 1.388 . S
C629 C630 1.366 . S
C630 C629 1.366 . S
C630 C631 1.414 . S
C630 C633 1.499 . S
C631 H605 0.950 . S
C631 C630 1.414 . S
C631 C632 1.374 . S
C632 H606 0.950 . S
C632 C628 1.385 . S
C632 C631 1.374 . S
C633 C630 1.499 . S
C633 C634 1.373 . S
C633 C635 1.389 . S
C634 H607 0.950 . S
C634 C620 1.377 . S
C634 C633 1.373 . S
C635 C619 1.377 . S
C635 C633 1.389 . S
C635 C636 1.524 . S
C636 C635 1.524 . S
C636 C637 1.397 . S
C636 C641 1.363 . S
C637 H608 0.950 . S
C637 C636 1.397 . S
C637 C638 1.334 . S
C638 H609 0.950 . S
C638 C637 1.334 . S
C638 C639 1.287 . S
C639 C638 1.287 . S
C639 C640 1.524 . S
C639 H642 0.999 . S
C640 H610 0.950 . S
C640 C639 1.524 . S
C640 C641 1.415 . S
C641 H611 0.950 . S
C641 C636 1.363 . S
C641 C640 1.415 . S
H642 C639 0.999 . S
H643 C624 0.913 . S
H644 C662 0.951 . S
H645 C664 0.951 . S
H646 C666 0.950 . S
H647 C667 0.950 . S
H648 C669 0.950 . S
H649 C672 0.950 . S
H650 C673 0.950 . S
H651 C675 0.950 . S
H652 C676 0.950 1_554 S
H653 C677 0.951 . S
H654 C679 0.951 . S
H655 C681 0.950 . S
H656 C682 0.950 . S
H657 C684 0.950 . S
H658 C687 0.950 . S
H659 C688 0.950 . S
H660 C690 0.950 . S
H661 C691 0.950 1_556 S
C662 H644 0.951 . S
C662 C663 1.366 . S
C662 C664 1.388 . S
C663 C662 1.366 . S
C663 C667 1.385 1_655 S
C664 H645 0.951 . S
C664 C662 1.388 . S
C664 C665 1.366 . S
C665 C664 1.366 . S
C665 C666 1.414 1_655 S
C665 C668 1.499 . S
C666 H646 0.950 . S
C666 C665 1.414 1_455 S
C666 C667 1.374 . S
C667 H647 0.950 . S
C667 C663 1.385 1_455 S
C667 C666 1.374 . S
C668 C665 1.499 . S
C668 C669 1.373 1_655 S
C668 C670 1.389 . S
C669 H648 0.950 . S
C669 C668 1.373 1_455 S
C669 C685 1.377 1_556 S
C670 C668 1.389 . S
C670 C671 1.524 . S
C670 C684 1.377 1_556 S
C671 C670 1.524 . S
C671 C672 1.397 . S
C671 C676 1.363 . S
C672 H649 0.950 . S
C672 C671 1.397 . S
C672 C673 1.334 . S
C673 H650 0.950 . S
C673 C672 1.334 . S
C673 C674 1.287 . S
C674 C673 1.287 . S
C674 C675 1.524 . S
C674 H693 0.913 . S
C675 H651 0.950 . S
C675 C674 1.524 . S
C675 C676 1.415 . S
C676 H652 0.950 1_556 S
C676 C671 1.363 . S
C676 C675 1.415 . S
C677 H653 0.951 . S
C677 C678 1.366 1_455 S
C677 C679 1.388 . S
C678 C677 1.366 1_655 S
C678 C682 1.385 . S
C679 H654 0.951 . S
C679 C677 1.388 . S
C679 C680 1.366 1_455 S
C680 C679 1.366 1_655 S
C680 C681 1.414 . S
C680 C683 1.499 . S
C681 H655 0.950 . S
C681 C680 1.414 . S
C681 C682 1.374 . S
C682 H656 0.950 . S
C682 C678 1.385 . S
C682 C681 1.374 . S
C683 C680 1.499 . S
C683 C684 1.373 . S
C683 C685 1.389 1_655 S
C684 H657 0.950 . S
C684 C670 1.377 1_554 S
C684 C683 1.373 . S
C685 C669 1.377 1_554 S
C685 C683 1.389 1_455 S
C685 C686 1.524 . S
C686 C685 1.524 . S
C686 C687 1.397 . S
C686 C691 1.363 . S
C687 H658 0.950 . S
C687 C686 1.397 . S
C687 C688 1.334 . S
C688 H659 0.950 . S
C688 C687 1.334 . S
C688 C689 1.287 . S
C689 C688 1.287 . S
C689 C690 1.524 . S
C689 H692 0.999 . S
C690 H660 0.950 . S
C690 C689 1.524 . S
C690 C691 1.415 . S
C691 H661 0.950 1_554 S
C691 C686 1.363 . S
C691 C690 1.415 . S
H692 C689 0.999 . S
H693 C674 0.913 . S
H694 C712 0.951 . S
H695 C714 0.951 . S
H696 C716 0.950 . S
H697 C717 0.950 . S
H698 C719 0.950 . S
H699 C722 0.950 . S
H700 C723 0.950 1_565 S
H701 C725 0.950 . S
H702 C726 0.950 . S
H703 C727 0.951 . S
H704 C729 0.951 . S
H705 C731 0.950 . S
H706 C732 0.950 . S
H707 C734 0.950 . S
H708 C737 0.950 1_545 S
H709 C738 0.964 . S
H710 C740 0.950 . S
H711 C741 0.950 . S
C712 H694 0.951 . S
C712 C713 1.366 1_545 S
C712 C714 1.388 . S
C713 C712 1.366 1_565 S
C713 C717 1.385 . S
C714 H695 0.951 . S
C714 C712 1.388 . S
C714 C715 1.366 1_545 S
C715 C714 1.366 1_565 S
C715 C716 1.414 . S
C715 C718 1.499 . S
C716 H696 0.950 . S
C716 C715 1.414 . S
C716 C717 1.374 . S
C717 H697 0.950 . S
C717 C713 1.385 . S
C717 C716 1.374 . S
C718 C715 1.499 . S
C718 C719 1.373 . S
C718 C720 1.389 1_565 S
C719 H698 0.950 . S
C719 C718 1.373 . S
C719 C735 1.377 . S
C720 C718 1.389 1_545 S
C720 C721 1.524 . S
C720 C734 1.377 . S
C721 C720 1.524 . S
C721 C722 1.397 1_545 S
C721 C726 1.363 . S
C722 H699 0.950 . S
C722 C721 1.397 1_565 S
C722 C723 1.334 1_565 S
C723 H700 0.950 1_545 S
C723 C722 1.334 1_545 S
C723 C724 1.287 . S
C724 C723 1.287 . S
C724 C725 1.524 . S
C724 H743 0.913 . S
C725 H701 0.950 . S
C725 C724 1.524 . S
C725 C726 1.415 . S
C726 H702 0.950 . S
C726 C721 1.363 . S
C726 C725 1.415 . S
C727 H703 0.951 . S
C727 C728 1.366 . S
C727 C729 1.388 . S
C728 C727 1.366 . S
C728 C732 1.385 1_565 S
C729 H704 0.951 . S
C729 C727 1.388 . S
C729 C730 1.366 . S
C730 C729 1.366 . S
C730 C731 1.414 1_565 S
C730 C733 1.499 . S
C731 H705 0.950 . S
C731 C730 1.414 1_545 S
C731 C732 1.374 . S
C732 H706 0.950 . S
C732 C728 1.385 1_545 S
C732 C731 1.374 . S
C733 C730 1.499 . S
C733 C734 1.373 1_565 S
C733 C735 1.389 . S
C734 H707 0.950 . S
C734 C720 1.377 . S
C734 C733 1.373 1_545 S
C735 C719 1.377 . S
C735 C733 1.389 . S
C735 C736 1.524 . S
C736 C735 1.524 . S
C736 C737 1.397 . S
C736 C741 1.363 . S
C737 H708 0.950 1_565 S
C737 C736 1.397 . S
C737 C738 1.334 . S
C738 H709 0.964 . S
C738 C737 1.334 . S
C738 C739 1.287 . S
C739 C738 1.287 . S
C739 C740 1.524 . S
C739 H742 0.999 . S
C740 H710 0.950 . S
C740 C739 1.524 . S
C740 C741 1.415 . S
C741 H711 0.950 . S
C741 C736 1.363 . S
C741 C740 1.415 . S
H742 C739 0.999 . S
H743 C724 0.913 . S
H744 C762 0.951 . S
H745 C764 0.951 . S
H746 C766 0.950 . S
H747 C767 0.950 . S
H748 C769 0.950 . S
H749 C772 0.950 . S
H750 C773 0.950 . S
H751 C775 0.950 . S
H752 C776 0.950 . S
H753 C777 0.951 . S
H754 C779 0.951 . S
H755 C781 0.950 . S
H756 C782 0.950 . S
H757 C784 0.950 . S
H758 C787 0.950 . S
H759 C788 0.950 . S
H760 C790 0.950 . S
H761 C791 0.950 . S
C762 H744 0.951 . S
C762 C763 1.366 . S
C762 C764 1.388 . S
C763 C762 1.366 . S
C763 C767 1.385 . S
C764 H745 0.951 . S
C764 C762 1.388 . S
C764 C765 1.366 . S
C765 C764 1.366 . S
C765 C766 1.414 . S
C765 C768 1.499 . S
C766 H746 0.950 . S
C766 C765 1.414 . S
C766 C767 1.374 . S
C767 H747 0.950 . S
C767 C763 1.385 . S
C767 C766 1.374 . S
C768 C765 1.499 . S
C768 C769 1.373 . S
C768 C770 1.389 . S
C769 H748 0.950 . S
C769 C768 1.373 . S
C769 C785 1.377 1_556 S
C770 C768 1.389 . S
C770 C771 1.524 . S
C770 C784 1.377 1_556 S
C771 C770 1.524 . S
C771 C772 1.397 . S
C771 C776 1.363 . S
C772 H749 0.950 . S
C772 C771 1.397 . S
C772 C773 1.334 . S
C773 H750 0.950 . S
C773 C772 1.334 . S
C773 C774 1.287 . S
C774 C773 1.287 . S
C774 C775 1.524 . S
C774 H793 0.913 . S
C775 H751 0.950 . S
C775 C774 1.524 . S
C775 C776 1.415 . S
C776 H752 0.950 . S
C776 C771 1.363 . S
C776 C775 1.415 . S
C777 H753 0.951 . S
C777 C778 1.366 . S
C777 C779 1.388 . S
C778 C777 1.366 . S
C778 C782 1.385 . S
C779 H754 0.951 . S
C779 C777 1.388 . S
C779 C780 1.366 . S
C780 C779 1.366 . S
C780 C781 1.414 . S
C780 C783 1.499 . S
C781 H755 0.950 . S
C781 C780 1.414 . S
C781 C782 1.374 . S
C782 H756 0.950 . S
C782 C778 1.385 . S
C782 C781 1.374 . S
C783 C780 1.499 . S
C783 C784 1.373 . S
C783 C785 1.389 . S
C784 H757 0.950 . S
C784 C770 1.377 1_554 S
C784 C783 1.373 . S
C785 C769 1.377 1_554 S
C785 C783 1.389 . S
C785 C786 1.524 . S
C786 C785 1.524 . S
C786 C787 1.397 . S
C786 C791 1.363 . S
C787 H758 0.950 . S
C787 C786 1.397 . S
C787 C788 1.334 . S
C788 H759 0.950 . S
C788 C787 1.334 . S
C788 C789 1.287 . S
C789 C788 1.287 . S
C789 C790 1.524 . S
C789 H792 0.999 . S
C790 H760 0.950 . S
C790 C789 1.524 . S
C790 C791 1.415 . S
C791 H761 0.950 . S
C791 C786 1.363 . S
C791 C790 1.415 . S
H792 C789 0.999 . S
H793 C774 0.913 . S
H794 C812 0.951 . S
H795 C814 0.951 . S
H796 C816 0.950 . S
H797 C817 0.950 . S
H798 C819 0.950 . S
H799 C822 0.950 . S
H800 C823 0.950 . S
H801 C825 0.950 . S
H802 C826 0.950 . S
H803 C827 0.951 . S
H804 C829 0.951 . S
H805 C831 0.950 . S
H806 C832 0.950 . S
H807 C834 0.950 . S
H808 C837 0.950 . S
H809 C838 0.950 . S
H810 C840 0.950 . S
H811 C841 0.950 . S
C812 H794 0.951 . S
C812 C813 1.366 . S
C812 C814 1.388 . S
C813 C812 1.366 . S
C813 C817 1.385 . S
C814 H795 0.951 . S
C814 C812 1.388 . S
C814 C815 1.366 . S
C815 C814 1.366 . S
C815 C816 1.414 . S
C815 C818 1.499 . S
C816 H796 0.950 . S
C816 C815 1.414 . S
C816 C817 1.374 . S
C817 H797 0.950 . S
C817 C813 1.385 . S
C817 C816 1.374 . S
C818 C815 1.499 . S
C818 C819 1.373 . S
C818 C820 1.389 . S
C819 H798 0.950 . S
C819 C818 1.373 . S
C819 C835 1.377 . S
C820 C818 1.389 . S
C820 C821 1.524 . S
C820 C834 1.377 . S
C821 C820 1.524 . S
C821 C822 1.397 . S
C821 C826 1.363 . S
C822 H799 0.950 . S
C822 C821 1.397 . S
C822 C823 1.334 . S
C823 H800 0.950 . S
C823 C822 1.334 . S
C823 C824 1.287 . S
C824 C823 1.287 . S
C824 C825 1.524 . S
C824 H843 0.913 . S
C825 H801 0.950 . S
C825 C824 1.524 . S
C825 C826 1.415 . S
C826 H802 0.950 . S
C826 C821 1.363 . S
C826 C825 1.415 . S
C827 H803 0.951 . S
C827 C828 1.366 . S
C827 C829 1.388 . S
C828 C827 1.366 . S
C828 C832 1.385 . S
C829 H804 0.951 . S
C829 C827 1.388 . S
C829 C830 1.366 . S
C830 C829 1.366 . S
C830 C831 1.414 . S
C830 C833 1.499 . S
C831 H805 0.950 . S
C831 C830 1.414 . S
C831 C832 1.374 . S
C832 H806 0.950 . S
C832 C828 1.385 . S
C832 C831 1.374 . S
C833 C830 1.499 . S
C833 C834 1.373 . S
C833 C835 1.389 . S
C834 H807 0.950 . S
C834 C820 1.377 . S
C834 C833 1.373 . S
C835 C819 1.377 . S
C835 C833 1.389 . S
C835 C836 1.524 . S
C836 C835 1.524 . S
C836 C837 1.397 . S
C836 C841 1.363 . S
C837 H808 0.950 . S
C837 C836 1.397 . S
C837 C838 1.334 . S
C838 H809 0.950 . S
C838 C837 1.334 . S
C838 C839 1.287 . S
C839 C838 1.287 . S
C839 C840 1.524 . S
C839 H842 0.999 . S
C840 H810 0.950 . S
C840 C839 1.524 . S
C840 C841 1.415 . S
C841 H811 0.950 . S
C841 C836 1.363 . S
C841 C840 1.415 . S
H842 C839 0.999 . S
H843 C824 0.913 . S
H844 C862 0.951 . S
H845 C864 0.951 . S
H846 C866 0.950 . S
H847 C867 0.950 . S
H848 C869 0.950 . S
H849 C872 0.950 1_655 S
H850 C873 0.950 . S
H851 C875 0.950 . S
H852 C876 0.950 1_556 S
H853 C877 0.951 . S
H854 C879 0.951 . S
H855 C881 0.950 . S
H856 C882 0.950 . S
H857 C884 0.950 . S
H858 C887 0.950 1_455 S
H859 C888 0.954 . S
H860 C890 0.950 . S
H861 C891 0.950 1_554 S
C862 H844 0.951 . S
C862 C863 1.366 . S
C862 C864 1.388 . S
C863 C862 1.366 . S
C863 C867 1.385 1_455 S
C864 H845 0.951 . S
C864 C862 1.388 . S
C864 C865 1.366 . S
C865 C864 1.366 . S
C865 C866 1.414 1_455 S
C865 C868 1.499 . S
C866 H846 0.950 . S
C866 C865 1.414 1_655 S
C866 C867 1.374 . S
C867 H847 0.950 . S
C867 C863 1.385 1_655 S
C867 C866 1.374 . S
C868 C865 1.499 . S
C868 C869 1.373 1_455 S
C868 C870 1.389 . S
C869 H848 0.950 . S
C869 C868 1.373 1_655 S
C869 C885 1.377 1_554 S
C870 C868 1.389 . S
C870 C871 1.524 . S
C870 C884 1.377 1_554 S
C871 C870 1.524 . S
C871 C872 1.397 . S
C871 C876 1.363 . S
C872 H849 0.950 1_455 S
C872 C871 1.397 . S
C872 C873 1.334 . S
C873 H850 0.950 . S
C873 C872 1.334 . S
C873 C874 1.287 . S
C874 C873 1.287 . S
C874 C875 1.524 . S
C874 H893 0.913 . S
C875 H851 0.950 . S
C875 C874 1.524 . S
C875 C876 1.415 . S
C876 H852 0.950 1_554 S
C876 C871 1.363 . S
C876 C875 1.415 . S
C877 H853 0.951 . S
C877 C878 1.366 1_655 S
C877 C879 1.388 . S
C878 C877 1.366 1_455 S
C878 C882 1.385 . S
C879 H854 0.951 . S
C879 C877 1.388 . S
C879 C880 1.366 1_655 S
C880 C879 1.366 1_455 S
C880 C881 1.414 . S
C880 C883 1.499 . S
C881 H855 0.950 . S
C881 C880 1.414 . S
C881 C882 1.374 . S
C882 H856 0.950 . S
C882 C878 1.385 . S
C882 C881 1.374 . S
C883 C880 1.499 . S
C883 C884 1.373 . S
C883 C885 1.389 1_455 S
C884 H857 0.950 . S
C884 C870 1.377 1_556 S
C884 C883 1.373 . S
C885 C869 1.377 1_556 S
C885 C883 1.389 1_655 S
C885 C886 1.524 . S
C886 C885 1.524 . S
C886 C887 1.397 . S
C886 C891 1.363 . S
C887 H858 0.950 1_655 S
C887 C886 1.397 . S
C887 C888 1.334 . S
C888 H859 0.954 . S
C888 C887 1.334 . S
C888 C889 1.287 . S
C889 C888 1.287 . S
C889 C890 1.524 . S
C889 H892 0.999 . S
C890 H860 0.950 . S
C890 C889 1.524 . S
C890 C891 1.415 . S
C891 H861 0.950 1_556 S
C891 C886 1.363 . S
C891 C890 1.415 . S
H892 C889 0.999 . S
H893 C874 0.913 . S
H894 C912 0.951 . S
H895 C914 0.951 . S
H896 C916 0.950 . S
H897 C917 0.950 . S
H898 C919 0.950 . S
H899 C922 0.950 . S
H900 C923 0.950 . S
H901 C925 0.950 . S
H902 C926 0.950 . S
H903 C927 0.951 . S
H904 C929 0.951 . S
H905 C931 0.950 . S
H906 C932 0.950 . S
H907 C934 0.950 . S
H908 C937 0.950 . S
H909 C938 0.950 . S
H910 C940 0.950 . S
H911 C941 0.950 . S
C912 H894 0.951 . S
C912 C913 1.366 . S
C912 C914 1.388 . S
C913 C912 1.366 . S
C913 C917 1.385 1_545 S
C914 H895 0.951 . S
C914 C912 1.388 . S
C914 C915 1.366 . S
C915 C914 1.366 . S
C915 C916 1.414 1_545 S
C915 C918 1.499 . S
C916 H896 0.950 . S
C916 C915 1.414 1_565 S
C916 C917 1.374 . S
C917 H897 0.950 . S
C917 C913 1.385 1_565 S
C917 C916 1.374 . S
C918 C915 1.499 . S
C918 C919 1.373 1_545 S
C918 C920 1.389 . S
C919 H898 0.950 . S
C919 C918 1.373 1_565 S
C919 C935 1.377 . S
C920 C918 1.389 . S
C920 C921 1.524 . S
C920 C934 1.377 . S
C921 C920 1.524 . S
C921 C922 1.397 . S
C921 C926 1.363 . S
C922 H899 0.950 . S
C922 C921 1.397 . S
C922 C923 1.334 . S
C923 H900 0.950 . S
C923 C922 1.334 . S
C923 C924 1.287 . S
C924 C923 1.287 . S
C924 C925 1.524 . S
C924 H943 0.913 . S
C925 H901 0.950 . S
C925 C924 1.524 . S
C925 C926 1.415 . S
C926 H902 0.950 . S
C926 C921 1.363 . S
C926 C925 1.415 . S
C927 H903 0.951 . S
C927 C928 1.366 1_565 S
C927 C929 1.388 . S
C928 C927 1.366 1_545 S
C928 C932 1.385 . S
C929 H904 0.951 . S
C929 C927 1.388 . S
C929 C930 1.366 1_565 S
C930 C929 1.366 1_545 S
C930 C931 1.414 . S
C930 C933 1.499 . S
C931 H905 0.950 . S
C931 C930 1.414 . S
C931 C932 1.374 . S
C932 H906 0.950 . S
C932 C928 1.385 . S
C932 C931 1.374 . S
C933 C930 1.499 . S
C933 C934 1.373 . S
C933 C935 1.389 1_545 S
C934 H907 0.950 . S
C934 C920 1.377 . S
C934 C933 1.373 . S
C935 C919 1.377 . S
C935 C933 1.389 1_565 S
C935 C936 1.524 . S
C936 C935 1.524 . S
C936 C937 1.397 . S
C936 C941 1.363 . S
C937 H908 0.950 . S
C937 C936 1.397 . S
C937 C938 1.334 . S
C938 H909 0.950 . S
C938 C937 1.334 . S
C938 C939 1.287 . S
C939 C938 1.287 . S
C939 C940 1.524 . S
C939 H942 0.999 . S
C940 H910 0.950 . S
C940 C939 1.524 . S
C940 C941 1.415 . S
C941 H911 0.950 . S
C941 C936 1.363 . S
C941 C940 1.415 . S
H942 C939 0.999 . S
H943 C924 0.913 . S
H944 C962 0.951 . S
H945 C964 0.951 . S
H946 C966 0.950 . S
H947 C967 0.950 . S
H948 C969 0.950 . S
H949 C972 0.950 . S
H950 C973 0.950 . S
H951 C975 0.950 . S
H952 C976 0.950 . S
H953 C977 0.951 . S
H954 C979 0.951 . S
H955 C981 0.950 . S
H956 C982 0.950 . S
H957 C984 0.950 . S
H958 C987 0.950 . S
H959 C988 0.950 1_545 S
H960 C990 0.950 . S
H961 C991 0.950 . S
C962 H944 0.951 . S
C962 C963 1.366 . S
C962 C964 1.388 . S
C963 C962 1.366 . S
C963 C967 1.385 . S
C964 H945 0.951 . S
C964 C962 1.388 . S
C964 C965 1.366 . S
C965 C964 1.366 . S
C965 C966 1.414 . S
C965 C968 1.499 . S
C966 H946 0.950 . S
C966 C965 1.414 . S
C966 C967 1.374 . S
C967 H947 0.950 . S
C967 C963 1.385 . S
C967 C966 1.374 . S
C968 C965 1.499 . S
C968 C969 1.373 . S
C968 C970 1.389 . S
C969 H948 0.950 . S
C969 C968 1.373 . S
C969 C985 1.377 . S
C970 C968 1.389 . S
C970 C971 1.524 . S
C970 C984 1.377 . S
C971 C970 1.524 . S
C971 C972 1.397 . S
C971 C976 1.363 . S
C972 H949 0.950 . S
C972 C971 1.397 . S
C972 C973 1.334 . S
C973 H950 0.950 . S
C973 C972 1.334 . S
C973 C974 1.287 . S
C974 C973 1.287 . S
C974 C975 1.524 . S
C974 H993 0.913 . S
C975 H951 0.950 . S
C975 C974 1.524 . S
C975 C976 1.415 . S
C976 H952 0.950 . S
C976 C971 1.363 . S
C976 C975 1.415 . S
C977 H953 0.951 . S
C977 C978 1.366 . S
C977 C979 1.388 . S
C978 C977 1.366 . S
C978 C982 1.385 . S
C979 H954 0.951 . S
C979 C977 1.388 . S
C979 C980 1.366 . S
C980 C979 1.366 . S
C980 C981 1.414 . S
C980 C983 1.499 1_545 S
C981 H955 0.950 . S
C981 C980 1.414 . S
C981 C982 1.374 . S
C982 H956 0.950 . S
C982 C978 1.385 . S
C982 C981 1.374 . S
C983 C980 1.499 1_565 S
C983 C984 1.373 . S
C983 C985 1.389 . S
C984 H957 0.950 . S
C984 C970 1.377 . S
C984 C983 1.373 . S
C985 C969 1.377 . S
C985 C983 1.389 . S
C985 C986 1.524 . S
C986 C985 1.524 . S
C986 C987 1.397 . S
C986 C991 1.363 . S
C987 H958 0.950 . S
C987 C986 1.397 . S
C987 C988 1.334 . S
C988 H959 0.950 1_565 S
C988 C987 1.334 . S
C988 C989 1.287 . S
C989 C988 1.287 . S
C989 C990 1.524 . S
C989 H992 0.999 . S
C990 H960 0.950 . S
C990 C989 1.524 . S
C990 C991 1.415 . S
C991 H961 0.950 . S
C991 C986 1.363 . S
C991 C990 1.415 . S
H992 C989 0.999 . S
H993 C974 0.913 . S
H994 C1012 0.951 . S
H995 C1014 0.951 . S
H996 C1016 0.950 . S
H997 C1017 0.950 . S
H998 C1019 0.950 . S
H999 C1022 0.950 . S
H1000 C1023 0.950 . S
H1001 C1025 0.950 . S
H1002 C1026 0.950 . S
H1003 C1027 0.951 . S
H1004 C1029 0.951 . S
H1005 C1031 0.950 . S
H1006 C1032 0.950 . S
H1007 C1034 0.950 . S
H1008 C1037 0.950 . S
H1009 C1038 0.950 . S
H1010 C1040 0.950 . S
H1011 C1041 0.950 . S
C1012 H994 0.951 . S
C1012 C1013 1.366 . S
C1012 C1014 1.388 . S
C1013 C1012 1.366 . S
C1013 C1017 1.385 . S
C1014 H995 0.951 . S
C1014 C1012 1.388 . S
C1014 C1015 1.366 . S
C1015 C1014 1.366 . S
C1015 C1016 1.414 . S
C1015 C1018 1.499 . S
C1016 H996 0.950 . S
C1016 C1015 1.414 . S
C1016 C1017 1.374 . S
C1017 H997 0.950 . S
C1017 C1013 1.385 . S
C1017 C1016 1.374 . S
C1018 C1015 1.499 . S
C1018 C1019 1.373 . S
C1018 C1020 1.389 . S
C1019 H998 0.950 . S
C1019 C1018 1.373 . S
C1019 C1035 1.377 . S
C1020 C1018 1.389 . S
C1020 C1021 1.524 . S
C1020 C1034 1.377 . S
C1021 C1020 1.524 . S
C1021 C1022 1.397 . S
C1021 C1026 1.363 . S
C1022 H999 0.950 . S
C1022 C1021 1.397 . S
C1022 C1023 1.334 . S
C1023 H1000 0.950 . S
C1023 C1022 1.334 . S
C1023 C1024 1.287 . S
C1024 C1023 1.287 . S
C1024 C1025 1.524 . S
C1024 H1043 0.913 . S
C1025 H1001 0.950 . S
C1025 C1024 1.524 . S
C1025 C1026 1.415 . S
C1026 H1002 0.950 . S
C1026 C1021 1.363 . S
C1026 C1025 1.415 . S
C1027 H1003 0.951 . S
C1027 C1028 1.366 . S
C1027 C1029 1.388 . S
C1028 C1027 1.366 . S
C1028 C1032 1.385 . S
C1029 H1004 0.951 . S
C1029 C1027 1.388 . S
C1029 C1030 1.366 . S
C1030 C1029 1.366 . S
C1030 C1031 1.414 . S
C1030 C1033 1.499 . S
C1031 H1005 0.950 . S
C1031 C1030 1.414 . S
C1031 C1032 1.374 . S
C1032 H1006 0.950 . S
C1032 C1028 1.385 . S
C1032 C1031 1.374 . S
C1033 C1030 1.499 . S
C1033 C1034 1.373 . S
C1033 C1035 1.389 . S
C1034 H1007 0.950 . S
C1034 C1020 1.377 . S
C1034 C1033 1.373 . S
C1035 C1019 1.377 . S
C1035 C1033 1.389 . S
C1035 C1036 1.524 . S
C1036 C1035 1.524 . S
C1036 C1037 1.397 . S
C1036 C1041 1.363 . S
C1037 H1008 0.950 . S
C1037 C1036 1.397 . S
C1037 C1038 1.334 . S
C1038 H1009 0.950 . S
C1038 C1037 1.334 . S
C1038 C1039 1.287 . S
C1039 C1038 1.287 . S
C1039 C1040 1.524 . S
C1039 H1042 0.999 . S
C1040 H1010 0.950 . S
C1040 C1039 1.524 . S
C1040 C1041 1.415 . S
C1041 H1011 0.950 . S
C1041 C1036 1.363 . S
C1041 C1040 1.415 . S
H1042 C1039 0.999 . S
H1043 C1024 0.913 . S
H1044 C1062 0.951 . S
H1045 C1064 0.951 . S
H1046 C1066 0.950 . S
H1047 C1067 0.950 . S
H1048 C1069 0.950 . S
H1049 C1072 0.950 . S
H1050 C1073 0.950 . S
H1051 C1075 0.950 . S
H1052 C1076 0.950 . S
H1053 C1077 0.951 . S
H1054 C1079 0.951 . S
H1055 C1081 0.950 . S
H1056 C1082 0.950 . S
H1057 C1084 0.950 . S
H1058 C1087 0.950 . S
H1059 C1088 0.950 . S
H1060 C1090 0.950 . S
H1061 C1091 0.950 . S
C1062 H1044 0.951 . S
C1062 C1063 1.366 . S
C1062 C1064 1.388 . S
C1063 C1062 1.366 . S
C1063 C1067 1.385 1_655 S
C1064 H1045 0.951 . S
C1064 C1062 1.388 . S
C1064 C1065 1.366 . S
C1065 C1064 1.366 . S
C1065 C1066 1.414 1_655 S
C1065 C1068 1.499 . S
C1066 H1046 0.950 . S
C1066 C1065 1.414 1_455 S
C1066 C1067 1.374 . S
C1067 H1047 0.950 . S
C1067 C1063 1.385 1_455 S
C1067 C1066 1.374 . S
C1068 C1065 1.499 . S
C1068 C1069 1.373 1_655 S
C1068 C1070 1.389 . S
C1069 H1048 0.950 . S
C1069 C1068 1.373 1_455 S
C1069 C1085 1.377 . S
C1070 C1068 1.389 . S
C1070 C1071 1.524 . S
C1070 C1084 1.377 . S
C1071 C1070 1.524 . S
C1071 C1072 1.397 . S
C1071 C1076 1.363 . S
C1072 H1049 0.950 . S
C1072 C1071 1.397 . S
C1072 C1073 1.334 . S
C1073 H1050 0.950 . S
C1073 C1072 1.334 . S
C1073 C1074 1.287 . S
C1074 C1073 1.287 . S
C1074 C1075 1.524 . S
C1074 H1093 0.913 . S
C1075 H1051 0.950 . S
C1075 C1074 1.524 . S
C1075 C1076 1.415 . S
C1076 H1052 0.950 . S
C1076 C1071 1.363 . S
C1076 C1075 1.415 . S
C1077 H1053 0.951 . S
C1077 C1078 1.366 1_455 S
C1077 C1079 1.388 . S
C1078 C1077 1.366 1_655 S
C1078 C1082 1.385 . S
C1079 H1054 0.951 . S
C1079 C1077 1.388 . S
C1079 C1080 1.366 1_455 S
C1080 C1079 1.366 1_655 S
C1080 C1081 1.414 . S
C1080 C1083 1.499 . S
C1081 H1055 0.950 . S
C1081 C1080 1.414 . S
C1081 C1082 1.374 . S
C1082 H1056 0.950 . S
C1082 C1078 1.385 . S
C1082 C1081 1.374 . S
C1083 C1080 1.499 . S
C1083 C1084 1.373 . S
C1083 C1085 1.389 1_655 S
C1084 H1057 0.950 . S
C1084 C1070 1.377 . S
C1084 C1083 1.373 . S
C1085 C1069 1.377 . S
C1085 C1083 1.389 1_455 S
C1085 C1086 1.524 . S
C1086 C1085 1.524 . S
C1086 C1087 1.397 . S
C1086 C1091 1.363 . S
C1087 H1058 0.950 . S
C1087 C1086 1.397 . S
C1087 C1088 1.334 . S
C1088 H1059 0.950 . S
C1088 C1087 1.334 . S
C1088 C1089 1.287 . S
C1089 C1088 1.287 . S
C1089 C1090 1.524 . S
C1089 H1092 0.999 . S
C1090 H1060 0.950 . S
C1090 C1089 1.524 . S
C1090 C1091 1.415 . S
C1091 H1061 0.950 . S
C1091 C1086 1.363 . S
C1091 C1090 1.415 . S
H1092 C1089 0.999 . S
H1093 C1074 0.913 . S
H1094 C1112 0.951 . S
H1095 C1114 0.951 . S
H1096 C1116 0.950 . S
H1097 C1117 0.950 . S
H1098 C1119 0.950 . S
H1099 C1122 0.950 . S
H1100 C1123 0.950 . S
H1101 C1125 0.950 . S
H1102 C1126 0.950 . S
H1103 C1127 0.953 . S
H1104 C1129 0.949 1_545 S
H1105 C1131 0.950 . S
H1106 C1132 0.950 . S
H1107 C1134 0.950 . S
H1108 C1137 0.950 . S
H1109 C1138 0.950 . S
H1110 C1140 0.950 . S
H1111 C1141 0.950 . S
C1112 H1094 0.951 . S
C1112 C1113 1.366 . S
C1112 C1114 1.388 . S
C1113 C1112 1.366 . S
C1113 C1117 1.385 . S
C1114 H1095 0.951 . S
C1114 C1112 1.388 . S
C1114 C1115 1.366 . S
C1115 C1114 1.366 . S
C1115 C1116 1.414 . S
C1115 C1118 1.499 . S
C1116 H1096 0.950 . S
C1116 C1115 1.414 . S
C1116 C1117 1.374 . S
C1117 H1097 0.950 . S
C1117 C1113 1.385 . S
C1117 C1116 1.374 . S
C1118 C1115 1.499 . S
C1118 C1119 1.373 1_565 S
C1118 C1120 1.389 . S
C1119 H1098 0.950 . S
C1119 C1118 1.373 1_545 S
C1119 C1135 1.377 . S
C1120 C1118 1.389 . S
C1120 C1121 1.524 . S
C1120 C1134 1.377 . S
C1121 C1120 1.524 . S
C1121 C1122 1.397 . S
C1121 C1126 1.363 . S
C1122 H1099 0.950 . S
C1122 C1121 1.397 . S
C1122 C1123 1.334 . S
C1123 H1100 0.950 . S
C1123 C1122 1.334 . S
C1123 C1124 1.287 . S
C1124 C1123 1.287 . S
C1124 C1125 1.524 . S
C1124 H1143 0.913 . S
C1125 H1101 0.950 . S
C1125 C1124 1.524 . S
C1125 C1126 1.415 . S
C1126 H1102 0.950 . S
C1126 C1121 1.363 . S
C1126 C1125 1.415 . S
C1127 H1103 0.953 . S
C1127 C1128 1.365 1_545 S
C1127 C1129 1.387 1_545 S
C1128 C1127 1.365 1_565 S
C1128 C1132 1.385 . S
C1129 H1104 0.949 1_565 S
C1129 C1127 1.387 1_565 S
C1129 C1130 1.366 . S
C1130 C1129 1.366 . S
C1130 C1131 1.414 . S
C1130 C1133 1.499 1_455 S
C1131 H1105 0.950 . S
C1131 C1130 1.414 . S
C1131 C1132 1.374 . S
C1132 H1106 0.950 . S
C1132 C1128 1.385 . S
C1132 C1131 1.374 . S
C1133 C1130 1.499 1_655 S
C1133 C1134 1.373 . S
C1133 C1135 1.389 1_565 S
C1134 H1107 0.950 . S
C1134 C1120 1.377 . S
C1134 C1133 1.373 . S
C1135 C1119 1.377 . S
C1135 C1133 1.389 1_545 S
C1135 C1136 1.524 . S
C1136 C1135 1.524 . S
C1136 C1137 1.397 . S
C1136 C1141 1.363 . S
C1137 H1108 0.950 . S
C1137 C1136 1.397 . S
C1137 C1138 1.334 1_655 S
C1138 H1109 0.950 . S
C1138 C1137 1.334 1_455 S
C1138 C1139 1.287 1_455 S
C1139 C1138 1.287 1_655 S
C1139 C1140 1.524 . S
C1139 H1142 0.999 1_655 S
C1140 H1110 0.950 . S
C1140 C1139 1.524 . S
C1140 C1141 1.415 . S
C1141 H1111 0.950 . S
C1141 C1136 1.363 . S
C1141 C1140 1.415 . S
H1142 C1139 0.999 1_455 S
H1143 C1124 0.913 . S
H1144 C1162 0.951 . S
H1145 C1164 0.951 . S
H1146 C1166 0.950 . S
H1147 C1167 0.950 . S
H1148 C1169 0.950 . S
H1149 C1172 0.950 . S
H1150 C1173 0.950 . S
H1151 C1175 0.950 . S
H1152 C1176 0.950 . S
H1153 C1177 0.951 . S
H1154 C1179 0.951 . S
H1155 C1181 0.950 . S
H1156 C1182 0.950 . S
H1157 C1184 0.950 . S
H1158 C1187 0.950 . S
H1159 C1188 0.950 . S
H1160 C1190 0.950 . S
H1161 C1191 0.950 . S
C1162 H1144 0.951 . S
C1162 C1163 1.366 . S
C1162 C1164 1.388 . S
C1163 C1162 1.366 . S
C1163 C1167 1.385 . S
C1164 H1145 0.951 . S
C1164 C1162 1.388 . S
C1164 C1165 1.366 . S
C1165 C1164 1.366 . S
C1165 C1166 1.414 . S
C1165 C1168 1.499 . S
C1166 H1146 0.950 . S
C1166 C1165 1.414 . S
C1166 C1167 1.374 . S
C1167 H1147 0.950 . S
C1167 C1163 1.385 . S
C1167 C1166 1.374 . S
C1168 C1165 1.499 . S
C1168 C1169 1.373 . S
C1168 C1170 1.389 . S
C1169 H1148 0.950 . S
C1169 C1168 1.373 . S
C1169 C1185 1.377 . S
C1170 C1168 1.389 . S
C1170 C1171 1.524 . S
C1170 C1184 1.377 . S
C1171 C1170 1.524 . S
C1171 C1172 1.397 . S
C1171 C1176 1.363 . S
C1172 H1149 0.950 . S
C1172 C1171 1.397 . S
C1172 C1173 1.334 . S
C1173 H1150 0.950 . S
C1173 C1172 1.334 . S
C1173 C1174 1.287 . S
C1174 C1173 1.287 . S
C1174 C1175 1.524 . S
C1174 H1193 0.913 . S
C1175 H1151 0.950 . S
C1175 C1174 1.524 . S
C1175 C1176 1.415 . S
C1176 H1152 0.950 . S
C1176 C1171 1.363 . S
C1176 C1175 1.415 . S
C1177 H1153 0.951 . S
C1177 C1178 1.366 . S
C1177 C1179 1.388 . S
C1178 C1177 1.366 . S
C1178 C1182 1.385 . S
C1179 H1154 0.951 . S
C1179 C1177 1.388 . S
C1179 C1180 1.366 . S
C1180 C1179 1.366 . S
C1180 C1181 1.414 . S
C1180 C1183 1.499 . S
C1181 H1155 0.950 . S
C1181 C1180 1.414 . S
C1181 C1182 1.374 . S
C1182 H1156 0.950 . S
C1182 C1178 1.385 . S
C1182 C1181 1.374 . S
C1183 C1180 1.499 . S
C1183 C1184 1.373 . S
C1183 C1185 1.389 . S
C1184 H1157 0.950 . S
C1184 C1170 1.377 . S
C1184 C1183 1.373 . S
C1185 C1169 1.377 . S
C1185 C1183 1.389 . S
C1185 C1186 1.524 . S
C1186 C1185 1.524 . S
C1186 C1187 1.397 . S
C1186 C1191 1.363 . S
C1187 H1158 0.950 . S
C1187 C1186 1.397 . S
C1187 C1188 1.334 . S
C1188 H1159 0.950 . S
C1188 C1187 1.334 . S
C1188 C1189 1.287 . S
C1189 C1188 1.287 . S
C1189 C1190 1.524 . S
C1189 H1192 0.999 . S
C1190 H1160 0.950 . S
C1190 C1189 1.524 . S
C1190 C1191 1.415 . S
C1191 H1161 0.950 . S
C1191 C1186 1.363 . S
C1191 C1190 1.415 . S
H1192 C1189 0.999 . S
H1193 C1174 0.913 . S
H1194 C1212 0.951 . S
H1195 C1214 0.951 . S
H1196 C1216 0.950 . S
H1197 C1217 0.950 . S
H1198 C1219 0.950 . S
H1199 C1222 0.950 . S
H1200 C1223 0.950 . S
H1201 C1225 0.950 . S
H1202 C1226 0.950 . S
H1203 C1227 0.951 . S
H1204 C1229 0.951 . S
H1205 C1231 0.950 . S
H1206 C1232 0.950 . S
H1207 C1234 0.950 . S
H1208 C1237 0.950 . S
H1209 C1238 0.950 1_455 S
H1210 C1240 0.950 . S
H1211 C1241 0.950 . S
C1212 H1194 0.951 . S
C1212 C1213 1.366 . S
C1212 C1214 1.388 . S
C1213 C1212 1.366 . S
C1213 C1217 1.385 . S
C1214 H1195 0.951 . S
C1214 C1212 1.388 . S
C1214 C1215 1.366 . S
C1215 C1214 1.366 . S
C1215 C1216 1.414 . S
C1215 C1218 1.499 . S
C1216 H1196 0.950 . S
C1216 C1215 1.414 . S
C1216 C1217 1.374 . S
C1217 H1197 0.950 . S
C1217 C1213 1.385 . S
C1217 C1216 1.374 . S
C1218 C1215 1.499 . S
C1218 C1219 1.373 . S
C1218 C1220 1.389 . S
C1219 H1198 0.950 . S
C1219 C1218 1.373 . S
C1219 C1235 1.377 . S
C1220 C1218 1.389 . S
C1220 C1221 1.524 . S
C1220 C1234 1.377 . S
C1221 C1220 1.524 . S
C1221 C1222 1.397 . S
C1221 C1226 1.363 . S
C1222 H1199 0.950 . S
C1222 C1221 1.397 . S
C1222 C1223 1.334 . S
C1223 H1200 0.950 . S
C1223 C1222 1.334 . S
C1223 C1224 1.287 . S
C1224 C1223 1.287 . S
C1224 C1225 1.524 . S
C1224 H1243 0.913 . S
C1225 H1201 0.950 . S
C1225 C1224 1.524 . S
C1225 C1226 1.415 . S
C1226 H1202 0.950 . S
C1226 C1221 1.363 . S
C1226 C1225 1.415 . S
C1227 H1203 0.951 . S
C1227 C1228 1.366 . S
C1227 C1229 1.388 . S
C1228 C1227 1.366 . S
C1228 C1232 1.385 . S
C1229 H1204 0.951 . S
C1229 C1227 1.388 . S
C1229 C1230 1.366 . S
C1230 C1229 1.366 . S
C1230 C1231 1.414 . S
C1230 C1233 1.499 1_455 S
C1231 H1205 0.950 . S
C1231 C1230 1.414 . S
C1231 C1232 1.374 . S
C1232 H1206 0.950 . S
C1232 C1228 1.385 . S
C1232 C1231 1.374 . S
C1233 C1230 1.499 1_655 S
C1233 C1234 1.373 . S
C1233 C1235 1.389 . S
C1234 H1207 0.950 . S
C1234 C1220 1.377 . S
C1234 C1233 1.373 . S
C1235 C1219 1.377 . S
C1235 C1233 1.389 . S
C1235 C1236 1.524 . S
C1236 C1235 1.524 . S
C1236 C1237 1.397 . S
C1236 C1241 1.363 . S
C1237 H1208 0.950 . S
C1237 C1236 1.397 . S
C1237 C1238 1.334 . S
C1238 H1209 0.950 1_655 S
C1238 C1237 1.334 . S
C1238 C1239 1.287 . S
C1239 C1238 1.287 . S
C1239 C1240 1.524 . S
C1239 H1242 0.999 . S
C1240 H1210 0.950 . S
C1240 C1239 1.524 . S
C1240 C1241 1.415 . S
C1241 H1211 0.950 . S
C1241 C1236 1.363 . S
C1241 C1240 1.415 . S
H1242 C1239 0.999 . S
H1243 C1224 0.913 . S
H1244 C1262 0.951 . S
H1245 C1264 0.951 . S
H1246 C1266 0.950 . S
H1247 C1267 0.950 . S
H1248 C1269 0.950 . S
H1249 C1272 0.950 . S
H1250 C1273 0.945 1_545 S
H1251 C1275 0.950 . S
H1252 C1276 0.950 . S
H1253 C1277 0.951 . S
H1254 C1279 0.951 . S
H1255 C1281 0.950 . S
H1256 C1282 0.950 . S
H1257 C1284 0.950 . S
H1258 C1287 0.950 . S
H1259 C1288 0.950 . S
H1260 C1290 0.950 1_455 S
H1261 C1291 0.950 . S
C1262 H1244 0.951 . S
C1262 C1263 1.366 . S
C1262 C1264 1.388 . S
C1263 C1262 1.366 . S
C1263 C1267 1.385 1_655 S
C1264 H1245 0.951 . S
C1264 C1262 1.388 . S
C1264 C1265 1.366 . S
C1265 C1264 1.366 . S
C1265 C1266 1.414 1_655 S
C1265 C1268 1.499 1_545 S
C1266 H1246 0.950 . S
C1266 C1265 1.414 1_455 S
C1266 C1267 1.374 . S
C1267 H1247 0.950 . S
C1267 C1263 1.385 1_455 S
C1267 C1266 1.374 . S
C1268 C1265 1.499 1_565 S
C1268 C1269 1.373 . S
C1268 C1270 1.389 . S
C1269 H1248 0.950 . S
C1269 C1268 1.373 . S
C1269 C1285 1.377 . S
C1270 C1268 1.389 . S
C1270 C1271 1.520 1_655 S
C1270 C1284 1.377 . S
C1271 C1270 1.520 1_455 S
C1271 C1272 1.420 . S
C1271 C1276 1.346 1_455 S
C1272 H1249 0.950 . S
C1272 C1271 1.420 . S
C1272 C1273 1.334 . S
C1273 H1250 0.945 1_565 S
C1273 C1272 1.334 . S
C1273 C1274 1.287 . S
C1274 C1273 1.287 . S
C1274 C1275 1.524 1_455 S
C1274 H1293 0.913 . S
C1275 H1251 0.950 . S
C1275 C1274 1.524 1_655 S
C1275 C1276 1.415 . S
C1276 H1252 0.950 . S
C1276 C1271 1.346 1_655 S
C1276 C1275 1.415 . S
C1277 H1253 0.951 . S
C1277 C1278 1.366 1_455 S
C1277 C1279 1.388 . S
C1278 C1277 1.366 1_655 S
C1278 C1282 1.385 . S
C1279 H1254 0.951 . S
C1279 C1277 1.388 . S
C1279 C1280 1.366 1_455 S
C1280 C1279 1.366 1_655 S
C1280 C1281 1.414 . S
C1280 C1283 1.499 . S
C1281 H1255 0.950 . S
C1281 C1280 1.414 . S
C1281 C1282 1.374 . S
C1282 H1256 0.950 . S
C1282 C1278 1.385 . S
C1282 C1281 1.374 . S
C1283 C1280 1.499 . S
C1283 C1284 1.373 . S
C1283 C1285 1.389 . S
C1284 H1257 0.950 . S
C1284 C1270 1.377 . S
C1284 C1283 1.373 . S
C1285 C1269 1.377 . S
C1285 C1283 1.389 . S
C1285 C1286 1.524 . S
C1286 C1285 1.524 . S
C1286 C1287 1.397 . S
C1286 C1291 1.363 1_655 S
C1287 H1258 0.950 . S
C1287 C1286 1.397 . S
C1287 C1288 1.334 . S
C1288 H1259 0.950 . S
C1288 C1287 1.334 . S
C1288 C1289 1.287 . S
C1289 C1288 1.287 . S
C1289 C1290 1.524 . S
C1289 H1292 0.999 . S
C1290 H1260 0.950 1_655 S
C1290 C1289 1.524 . S
C1290 C1291 1.415 1_655 S
C1291 H1261 0.950 . S
C1291 C1286 1.363 1_455 S
C1291 C1290 1.415 1_455 S
H1292 C1289 0.999 . S
H1293 C1274 0.913 . S
H1294 C1312 0.951 . S
H1295 C1314 0.951 . S
H1296 C1316 0.950 . S
H1297 C1317 0.950 . S
H1298 C1319 0.950 . S
H1299 C1322 0.950 . S
H1300 C1323 0.950 . S
H1301 C1325 0.950 . S
H1302 C1326 0.950 . S
H1303 C1327 0.951 . S
H1304 C1329 0.951 . S
H1305 C1331 0.950 . S
H1306 C1332 0.950 . S
H1307 C1334 0.950 . S
H1308 C1337 0.950 . S
H1309 C1338 0.950 . S
H1310 C1340 0.950 . S
H1311 C1341 0.950 . S
C1312 H1294 0.951 . S
C1312 C1313 1.366 1_545 S
C1312 C1314 1.388 . S
C1313 C1312 1.366 1_565 S
C1313 C1317 1.385 . S
C1314 H1295 0.951 . S
C1314 C1312 1.388 . S
C1314 C1315 1.366 1_545 S
C1315 C1314 1.366 1_565 S
C1315 C1316 1.414 . S
C1315 C1318 1.499 . S
C1316 H1296 0.950 . S
C1316 C1315 1.414 . S
C1316 C1317 1.374 . S
C1317 H1297 0.950 . S
C1317 C1313 1.385 . S
C1317 C1316 1.374 . S
C1318 C1315 1.499 . S
C1318 C1319 1.373 . S
C1318 C1320 1.389 1_565 S
C1319 H1298 0.950 . S
C1319 C1318 1.373 . S
C1319 C1335 1.377 . S
C1320 C1318 1.389 1_545 S
C1320 C1321 1.524 . S
C1320 C1334 1.377 . S
C1321 C1320 1.524 . S
C1321 C1322 1.397 . S
C1321 C1326 1.363 . S
C1322 H1299 0.950 . S
C1322 C1321 1.397 . S
C1322 C1323 1.334 . S
C1323 H1300 0.950 . S
C1323 C1322 1.334 . S
C1323 C1324 1.287 . S
C1324 C1323 1.287 . S
C1324 C1325 1.524 . S
C1324 H1343 0.913 . S
C1325 H1301 0.950 . S
C1325 C1324 1.524 . S
C1325 C1326 1.415 . S
C1326 H1302 0.950 . S
C1326 C1321 1.363 . S
C1326 C1325 1.415 . S
C1327 H1303 0.951 . S
C1327 C1328 1.366 . S
C1327 C1329 1.388 . S
C1328 C1327 1.366 . S
C1328 C1332 1.385 1_565 S
C1329 H1304 0.951 . S
C1329 C1327 1.388 . S
C1329 C1330 1.366 . S
C1330 C1329 1.366 . S
C1330 C1331 1.414 1_565 S
C1330 C1333 1.499 . S
C1331 H1305 0.950 . S
C1331 C1330 1.414 1_545 S
C1331 C1332 1.374 . S
C1332 H1306 0.950 . S
C1332 C1328 1.385 1_545 S
C1332 C1331 1.374 . S
C1333 C1330 1.499 . S
C1333 C1334 1.373 1_565 S
C1333 C1335 1.389 . S
C1334 H1307 0.950 . S
C1334 C1320 1.377 . S
C1334 C1333 1.373 1_545 S
C1335 C1319 1.377 . S
C1335 C1333 1.389 . S
C1335 C1336 1.524 . S
C1336 C1335 1.524 . S
C1336 C1337 1.397 . S
C1336 C1341 1.363 . S
C1337 H1308 0.950 . S
C1337 C1336 1.397 . S
C1337 C1338 1.334 . S
C1338 H1309 0.950 . S
C1338 C1337 1.334 . S
C1338 C1339 1.287 . S
C1339 C1338 1.287 . S
C1339 C1340 1.524 . S
C1339 H1342 0.999 . S
C1340 H1310 0.950 . S
C1340 C1339 1.524 . S
C1340 C1341 1.415 . S
C1341 H1311 0.950 . S
C1341 C1336 1.363 . S
C1341 C1340 1.415 . S
H1342 C1339 0.999 . S
H1343 C1324 0.913 . S
H1344 C1362 0.951 . S
H1345 C1364 0.951 . S
H1346 C1366 0.950 . S
H1347 C1367 0.950 . S
H1348 C1369 0.950 . S
H1349 C1372 0.950 . S
H1350 C1373 0.950 . S
H1351 C1375 0.950 . S
H1352 C1376 0.950 . S
H1353 C1377 0.951 . S
H1354 C1379 0.951 . S
H1355 C1381 0.950 . S
H1356 C1382 0.950 . S
H1357 C1384 0.950 . S
H1358 C1387 0.950 . S
H1359 C1388 0.950 1_565 S
H1360 C1390 0.950 . S
H1361 C1391 0.950 . S
C1362 H1344 0.951 . S
C1362 C1363 1.366 . S
C1362 C1364 1.388 . S
C1363 C1362 1.366 . S
C1363 C1367 1.385 . S
C1364 H1345 0.951 . S
C1364 C1362 1.388 . S
C1364 C1365 1.366 . S
C1365 C1364 1.366 . S
C1365 C1366 1.414 . S
C1365 C1368 1.499 . S
C1366 H1346 0.950 . S
C1366 C1365 1.414 . S
C1366 C1367 1.374 . S
C1367 H1347 0.950 . S
C1367 C1363 1.385 . S
C1367 C1366 1.374 . S
C1368 C1365 1.499 . S
C1368 C1369 1.373 . S
C1368 C1370 1.389 . S
C1369 H1348 0.950 . S
C1369 C1368 1.373 . S
C1369 C1385 1.377 . S
C1370 C1368 1.389 . S
C1370 C1371 1.524 . S
C1370 C1384 1.377 . S
C1371 C1370 1.524 . S
C1371 C1372 1.397 . S
C1371 C1376 1.363 . S
C1372 H1349 0.950 . S
C1372 C1371 1.397 . S
C1372 C1373 1.334 . S
C1373 H1350 0.950 . S
C1373 C1372 1.334 . S
C1373 C1374 1.287 . S
C1374 C1373 1.287 . S
C1374 C1375 1.524 . S
C1374 H1393 0.913 . S
C1375 H1351 0.950 . S
C1375 C1374 1.524 . S
C1375 C1376 1.415 . S
C1376 H1352 0.950 . S
C1376 C1371 1.363 . S
C1376 C1375 1.415 . S
C1377 H1353 0.951 . S
C1377 C1378 1.366 . S
C1377 C1379 1.388 . S
C1378 C1377 1.366 . S
C1378 C1382 1.385 . S
C1379 H1354 0.951 . S
C1379 C1377 1.388 . S
C1379 C1380 1.366 . S
C1380 C1379 1.366 . S
C1380 C1381 1.414 . S
C1380 C1383 1.499 1_565 S
C1381 H1355 0.950 . S
C1381 C1380 1.414 . S
C1381 C1382 1.374 . S
C1382 H1356 0.950 . S
C1382 C1378 1.385 . S
C1382 C1381 1.374 . S
C1383 C1380 1.499 1_545 S
C1383 C1384 1.373 . S
C1383 C1385 1.389 . S
C1384 H1357 0.950 . S
C1384 C1370 1.377 . S
C1384 C1383 1.373 . S
C1385 C1369 1.377 . S
C1385 C1383 1.389 . S
C1385 C1386 1.524 . S
C1386 C1385 1.524 . S
C1386 C1387 1.397 . S
C1386 C1391 1.363 . S
C1387 H1358 0.950 . S
C1387 C1386 1.397 . S
C1387 C1388 1.334 . S
C1388 H1359 0.950 1_545 S
C1388 C1387 1.334 . S
C1388 C1389 1.287 . S
C1389 C1388 1.287 . S
C1389 C1390 1.524 . S
C1389 H1392 0.999 . S
C1390 H1360 0.950 . S
C1390 C1389 1.524 . S
C1390 C1391 1.415 . S
C1391 H1361 0.950 . S
C1391 C1386 1.363 . S
C1391 C1390 1.415 . S
H1392 C1389 0.999 . S
H1393 C1374 0.913 . S
H1394 C1412 0.951 . S
H1395 C1414 0.951 . S
H1396 C1416 0.950 . S
H1397 C1417 0.950 . S
H1398 C1419 0.950 . S
H1399 C1422 0.950 . S
H1400 C1423 0.950 . S
H1401 C1425 0.950 . S
H1402 C1426 0.950 . S
H1403 C1427 0.951 . S
H1404 C1429 0.951 . S
H1405 C1431 0.950 . S
H1406 C1432 0.950 . S
H1407 C1434 0.950 . S
H1408 C1437 0.950 . S
H1409 C1438 0.950 . S
H1410 C1440 0.950 . S
H1411 C1441 0.950 . S
C1412 H1394 0.951 . S
C1412 C1413 1.366 . S
C1412 C1414 1.388 . S
C1413 C1412 1.366 . S
C1413 C1417 1.385 . S
C1414 H1395 0.951 . S
C1414 C1412 1.388 . S
C1414 C1415 1.366 . S
C1415 C1414 1.366 . S
C1415 C1416 1.414 . S
C1415 C1418 1.499 . S
C1416 H1396 0.950 . S
C1416 C1415 1.414 . S
C1416 C1417 1.374 . S
C1417 H1397 0.950 . S
C1417 C1413 1.385 . S
C1417 C1416 1.374 . S
C1418 C1415 1.499 . S
C1418 C1419 1.373 . S
C1418 C1420 1.389 . S
C1419 H1398 0.950 . S
C1419 C1418 1.373 . S
C1419 C1435 1.377 . S
C1420 C1418 1.389 . S
C1420 C1421 1.524 . S
C1420 C1434 1.377 . S
C1421 C1420 1.524 . S
C1421 C1422 1.397 . S
C1421 C1426 1.363 . S
C1422 H1399 0.950 . S
C1422 C1421 1.397 . S
C1422 C1423 1.334 . S
C1423 H1400 0.950 . S
C1423 C1422 1.334 . S
C1423 C1424 1.287 . S
C1424 C1423 1.287 . S
C1424 C1425 1.524 . S
C1424 H1443 0.913 . S
C1425 H1401 0.950 . S
C1425 C1424 1.524 . S
C1425 C1426 1.415 . S
C1426 H1402 0.950 . S
C1426 C1421 1.363 . S
C1426 C1425 1.415 . S
C1427 H1403 0.951 . S
C1427 C1428 1.366 . S
C1427 C1429 1.388 . S
C1428 C1427 1.366 . S
C1428 C1432 1.385 . S
C1429 H1404 0.951 . S
C1429 C1427 1.388 . S
C1429 C1430 1.366 . S
C1430 C1429 1.366 . S
C1430 C1431 1.414 . S
C1430 C1433 1.499 . S
C1431 H1405 0.950 . S
C1431 C1430 1.414 . S
C1431 C1432 1.374 . S
C1432 H1406 0.950 . S
C1432 C1428 1.385 . S
C1432 C1431 1.374 . S
C1433 C1430 1.499 . S
C1433 C1434 1.373 . S
C1433 C1435 1.389 . S
C1434 H1407 0.950 . S
C1434 C1420 1.377 . S
C1434 C1433 1.373 . S
C1435 C1419 1.377 . S
C1435 C1433 1.389 . S
C1435 C1436 1.524 . S
C1436 C1435 1.524 . S
C1436 C1437 1.397 . S
C1436 C1441 1.363 . S
C1437 H1408 0.950 . S
C1437 C1436 1.397 . S
C1437 C1438 1.334 . S
C1438 H1409 0.950 . S
C1438 C1437 1.334 . S
C1438 C1439 1.287 . S
C1439 C1438 1.287 . S
C1439 C1440 1.524 . S
C1439 H1442 0.999 . S
C1440 H1410 0.950 . S
C1440 C1439 1.524 . S
C1440 C1441 1.415 . S
C1441 H1411 0.950 . S
C1441 C1436 1.363 . S
C1441 C1440 1.415 . S
H1442 C1439 0.999 . S
H1443 C1424 0.913 . S
H1444 C1462 0.951 . S
H1445 C1464 0.951 . S
H1446 C1466 0.950 . S
H1447 C1467 0.950 . S
H1448 C1469 0.950 . S
H1449 C1472 0.950 . S
H1450 C1473 0.950 . S
H1451 C1475 0.950 . S
H1452 C1476 0.950 . S
H1453 C1477 0.951 . S
H1454 C1479 0.951 . S
H1455 C1481 0.950 . S
H1456 C1482 0.950 . S
H1457 C1484 0.950 . S
H1458 C1487 0.951 . S
H1459 C1488 0.950 . S
H1460 C1490 0.950 . S
H1461 C1491 0.950 . S
C1462 H1444 0.951 . S
C1462 C1463 1.366 . S
C1462 C1464 1.388 . S
C1463 C1462 1.366 . S
C1463 C1467 1.385 1_455 S
C1464 H1445 0.951 . S
C1464 C1462 1.388 . S
C1464 C1465 1.366 . S
C1465 C1464 1.366 . S
C1465 C1466 1.414 1_455 S
C1465 C1468 1.499 . S
C1466 H1446 0.950 . S
C1466 C1465 1.414 1_655 S
C1466 C1467 1.374 . S
C1467 H1447 0.950 . S
C1467 C1463 1.385 1_655 S
C1467 C1466 1.374 . S
C1468 C1465 1.499 . S
C1468 C1469 1.373 1_455 S
C1468 C1470 1.389 . S
C1469 H1448 0.950 . S
C1469 C1468 1.373 1_655 S
C1469 C1485 1.377 . S
C1470 C1468 1.389 . S
C1470 C1471 1.524 . S
C1470 C1484 1.377 . S
C1471 C1470 1.524 . S
C1471 C1472 1.397 . S
C1471 C1476 1.363 . S
C1472 H1449 0.950 . S
C1472 C1471 1.397 . S
C1472 C1473 1.334 . S
C1473 H1450 0.950 . S
C1473 C1472 1.334 . S
C1473 C1474 1.287 . S
C1474 C1473 1.287 . S
C1474 C1475 1.524 . S
C1474 H1493 0.913 . S
C1475 H1451 0.950 . S
C1475 C1474 1.524 . S
C1475 C1476 1.415 . S
C1476 H1452 0.950 . S
C1476 C1471 1.363 . S
C1476 C1475 1.415 . S
C1477 H1453 0.951 . S
C1477 C1478 1.366 1_655 S
C1477 C1479 1.388 . S
C1478 C1477 1.366 1_455 S
C1478 C1482 1.385 . S
C1479 H1454 0.951 . S
C1479 C1477 1.388 . S
C1479 C1480 1.366 1_655 S
C1480 C1479 1.366 1_455 S
C1480 C1481 1.414 . S
C1480 C1483 1.499 . S
C1481 H1455 0.950 . S
C1481 C1480 1.414 . S
C1481 C1482 1.374 . S
C1482 H1456 0.950 . S
C1482 C1478 1.385 . S
C1482 C1481 1.374 . S
C1483 C1480 1.499 . S
C1483 C1484 1.373 . S
C1483 C1485 1.389 1_455 S
C1484 H1457 0.950 . S
C1484 C1470 1.377 . S
C1484 C1483 1.373 . S
C1485 C1469 1.377 . S
C1485 C1483 1.389 1_655 S
C1485 C1486 1.524 . S
C1486 C1485 1.524 . S
C1486 C1487 1.397 . S
C1486 C1491 1.363 . S
C1487 H1458 0.951 . S
C1487 C1486 1.397 . S
C1487 C1488 1.334 . S
C1488 H1459 0.950 . S
C1488 C1487 1.334 . S
C1488 C1489 1.287 . S
C1489 C1488 1.287 . S
C1489 C1490 1.524 . S
C1489 H1492 0.999 . S
C1490 H1460 0.950 . S
C1490 C1489 1.524 . S
C1490 C1491 1.415 . S
C1491 H1461 0.950 . S
C1491 C1486 1.363 . S
C1491 C1490 1.415 . S
H1492 C1489 0.999 . S
H1493 C1474 0.913 . S
H1494 C1512 0.951 . S
H1495 C1514 0.951 . S
H1496 C1516 0.950 . S
H1497 C1517 0.950 . S
H1498 C1519 0.950 . S
H1499 C1522 0.950 . S
H1500 C1523 0.950 1_655 S
H1501 C1525 0.950 1_565 S
H1502 C1526 0.950 1_565 S
H1503 C1527 0.951 . S
H1504 C1529 0.951 . S
H1505 C1531 0.950 . S
H1506 C1532 0.950 . S
H1507 C1534 0.950 . S
H1508 C1537 0.950 . S
H1509 C1538 0.950 . S
H1510 C1540 0.950 . S
H1511 C1541 0.950 . S
C1512 H1494 0.951 . S
C1512 C1513 1.366 1_565 S
C1512 C1514 1.388 . S
C1513 C1512 1.366 1_545 S
C1513 C1517 1.385 . S
C1514 H1495 0.951 . S
C1514 C1512 1.388 . S
C1514 C1515 1.366 1_565 S
C1515 C1514 1.366 1_545 S
C1515 C1516 1.414 . S
C1515 C1518 1.499 1_655 S
C1516 H1496 0.950 . S
C1516 C1515 1.414 . S
C1516 C1517 1.374 . S
C1517 H1497 0.950 . S
C1517 C1513 1.385 . S
C1517 C1516 1.374 . S
C1518 C1515 1.499 1_455 S
C1518 C1519 1.373 . S
C1518 C1520 1.389 . S
C1519 H1498 0.950 . S
C1519 C1518 1.373 . S
C1519 C1535 1.377 . S
C1520 C1518 1.389 . S
C1520 C1521 1.524 . S
C1520 C1534 1.377 . S
C1521 C1520 1.524 . S
C1521 C1522 1.397 . S
C1521 C1526 1.363 . S
C1522 H1499 0.950 . S
C1522 C1521 1.397 . S
C1522 C1523 1.334 . S
C1523 H1500 0.950 1_455 S
C1523 C1522 1.334 . S
C1523 C1524 1.287 . S
C1524 C1523 1.287 . S
C1524 C1525 1.524 . S
C1524 H1543 0.913 . S
C1525 H1501 0.950 1_545 S
C1525 C1524 1.524 . S
C1525 C1526 1.415 . S
C1526 H1502 0.950 1_545 S
C1526 C1521 1.363 . S
C1526 C1525 1.415 . S
C1527 H1503 0.951 . S
C1527 C1528 1.366 . S
C1527 C1529 1.388 . S
C1528 C1527 1.366 . S
C1528 C1532 1.385 1_545 S
C1529 H1504 0.951 . S
C1529 C1527 1.388 . S
C1529 C1530 1.366 . S
C1530 C1529 1.366 . S
C1530 C1531 1.414 1_545 S
C1530 C1533 1.499 . S
C1531 H1505 0.950 . S
C1531 C1530 1.414 1_565 S
C1531 C1532 1.374 . S
C1532 H1506 0.950 . S
C1532 C1528 1.385 1_565 S
C1532 C1531 1.374 . S
C1533 C1530 1.499 . S
C1533 C1534 1.373 . S
C1533 C1535 1.389 . S
C1534 H1507 0.950 . S
C1534 C1520 1.377 . S
C1534 C1533 1.373 . S
C1535 C1519 1.377 . S
C1535 C1533 1.389 . S
C1535 C1536 1.524 1_545 S
C1536 C1535 1.524 1_565 S
C1536 C1537 1.397 . S
C1536 C1541 1.363 1_565 S
C1537 H1508 0.950 . S
C1537 C1536 1.397 . S
C1537 C1538 1.334 . S
C1538 H1509 0.950 . S
C1538 C1537 1.334 . S
C1538 C1539 1.287 . S
C1539 C1538 1.287 . S
C1539 C1540 1.524 1_565 S
C1539 H1542 0.999 . S
C1540 H1510 0.950 . S
C1540 C1539 1.524 1_545 S
C1540 C1541 1.415 . S
C1541 H1511 0.950 . S
C1541 C1536 1.363 1_545 S
C1541 C1540 1.415 . S
H1542 C1539 0.999 . S
H1543 C1524 0.913 . S
H1544 C1562 0.951 . S
H1545 C1564 0.951 . S
H1546 C1566 0.950 . S
H1547 C1567 0.950 . S
H1548 C1569 0.950 . S
H1549 C1572 0.950 . S
H1550 C1573 0.950 . S
H1551 C1575 0.950 . S
H1552 C1576 0.950 . S
H1553 C1577 0.951 . S
H1554 C1579 0.951 . S
H1555 C1581 0.950 . S
H1556 C1582 0.950 . S
H1557 C1584 0.950 . S
H1558 C1587 0.950 . S
H1559 C1588 0.950 . S
H1560 C1590 0.950 . S
H1561 C1591 0.950 . S
C1562 H1544 0.951 . S
C1562 C1563 1.366 . S
C1562 C1564 1.388 . S
C1563 C1562 1.366 . S
C1563 C1567 1.385 . S
C1564 H1545 0.951 . S
C1564 C1562 1.388 . S
C1564 C1565 1.366 . S
C1565 C1564 1.366 . S
C1565 C1566 1.414 . S
C1565 C1568 1.499 . S
C1566 H1546 0.950 . S
C1566 C1565 1.414 . S
C1566 C1567 1.374 . S
C1567 H1547 0.950 . S
C1567 C1563 1.385 . S
C1567 C1566 1.374 . S
C1568 C1565 1.499 . S
C1568 C1569 1.373 . S
C1568 C1570 1.389 . S
C1569 H1548 0.950 . S
C1569 C1568 1.373 . S
C1569 C1585 1.377 . S
C1570 C1568 1.389 . S
C1570 C1571 1.524 . S
C1570 C1584 1.377 . S
C1571 C1570 1.524 . S
C1571 C1572 1.397 . S
C1571 C1576 1.363 . S
C1572 H1549 0.950 . S
C1572 C1571 1.397 . S
C1572 C1573 1.334 . S
C1573 H1550 0.950 . S
C1573 C1572 1.334 . S
C1573 C1574 1.287 . S
C1574 C1573 1.287 . S
C1574 C1575 1.524 . S
C1574 H1593 0.913 . S
C1575 H1551 0.950 . S
C1575 C1574 1.524 . S
C1575 C1576 1.415 . S
C1576 H1552 0.950 . S
C1576 C1571 1.363 . S
C1576 C1575 1.415 . S
C1577 H1553 0.951 . S
C1577 C1578 1.366 . S
C1577 C1579 1.388 . S
C1578 C1577 1.366 . S
C1578 C1582 1.385 . S
C1579 H1554 0.951 . S
C1579 C1577 1.388 . S
C1579 C1580 1.366 . S
C1580 C1579 1.366 . S
C1580 C1581 1.414 . S
C1580 C1583 1.499 . S
C1581 H1555 0.950 . S
C1581 C1580 1.414 . S
C1581 C1582 1.374 . S
C1582 H1556 0.950 . S
C1582 C1578 1.385 . S
C1582 C1581 1.374 . S
C1583 C1580 1.499 . S
C1583 C1584 1.373 . S
C1583 C1585 1.389 . S
C1584 H1557 0.950 . S
C1584 C1570 1.377 . S
C1584 C1583 1.373 . S
C1585 C1569 1.377 . S
C1585 C1583 1.389 . S
C1585 C1586 1.524 . S
C1586 C1585 1.524 . S
C1586 C1587 1.397 . S
C1586 C1591 1.363 . S
C1587 H1558 0.950 . S
C1587 C1586 1.397 . S
C1587 C1588 1.334 . S
C1588 H1559 0.950 . S
C1588 C1587 1.334 . S
C1588 C1589 1.287 . S
C1589 C1588 1.287 . S
C1589 C1590 1.524 . S
C1589 H1592 0.999 . S
C1590 H1560 0.950 . S
C1590 C1589 1.524 . S
C1590 C1591 1.415 . S
C1591 H1561 0.950 . S
C1591 C1586 1.363 . S
C1591 C1590 1.415 . S
H1592 C1589 0.999 . S
H1593 C1574 0.913 . S
H1594 C1612 0.951 . S
H1595 C1614 0.951 . S
H1596 C1616 0.950 . S
H1597 C1617 0.950 . S
H1598 C1619 0.950 . S
H1599 C1622 0.950 . S
H1600 C1623 0.950 . S
H1601 C1625 0.950 . S
H1602 C1626 0.950 . S
H1603 C1627 0.951 . S
H1604 C1629 0.951 . S
H1605 C1631 0.950 . S
H1606 C1632 0.950 . S
H1607 C1634 0.950 . S
H1608 C1637 0.952 . S
H1609 C1638 0.950 . S
H1610 C1640 0.950 . S
H1611 C1641 0.950 . S
C1612 H1594 0.951 . S
C1612 C1613 1.366 . S
C1612 C1614 1.388 . S
C1613 C1612 1.366 . S
C1613 C1617 1.385 . S
C1614 H1595 0.951 . S
C1614 C1612 1.388 . S
C1614 C1615 1.366 . S
C1615 C1614 1.366 . S
C1615 C1616 1.414 . S
C1615 C1618 1.499 . S
C1616 H1596 0.950 . S
C1616 C1615 1.414 . S
C1616 C1617 1.374 . S
C1617 H1597 0.950 . S
C1617 C1613 1.385 . S
C1617 C1616 1.374 . S
C1618 C1615 1.499 . S
C1618 C1619 1.373 . S
C1618 C1620 1.389 . S
C1619 H1598 0.950 . S
C1619 C1618 1.373 . S
C1619 C1635 1.377 . S
C1620 C1618 1.389 . S
C1620 C1621 1.524 . S
C1620 C1634 1.377 . S
C1621 C1620 1.524 . S
C1621 C1622 1.397 . S
C1621 C1626 1.363 . S
C1622 H1599 0.950 . S
C1622 C1621 1.397 . S
C1622 C1623 1.334 . S
C1623 H1600 0.950 . S
C1623 C1622 1.334 . S
C1623 C1624 1.287 . S
C1624 C1623 1.287 . S
C1624 C1625 1.524 . S
C1624 H1643 0.913 . S
C1625 H1601 0.950 . S
C1625 C1624 1.524 . S
C1625 C1626 1.415 . S
C1626 H1602 0.950 . S
C1626 C1621 1.363 . S
C1626 C1625 1.415 . S
C1627 H1603 0.951 . S
C1627 C1628 1.366 . S
C1627 C1629 1.388 . S
C1628 C1627 1.366 . S
C1628 C1632 1.385 . S
C1629 H1604 0.951 . S
C1629 C1627 1.388 . S
C1629 C1630 1.366 . S
C1630 C1629 1.366 . S
C1630 C1631 1.414 . S
C1630 C1633 1.499 1_655 S
C1631 H1605 0.950 . S
C1631 C1630 1.414 . S
C1631 C1632 1.374 . S
C1632 H1606 0.950 . S
C1632 C1628 1.385 . S
C1632 C1631 1.374 . S
C1633 C1630 1.499 1_455 S
C1633 C1634 1.373 . S
C1633 C1635 1.389 . S
C1634 H1607 0.950 . S
C1634 C1620 1.377 . S
C1634 C1633 1.373 . S
C1635 C1619 1.377 . S
C1635 C1633 1.389 . S
C1635 C1636 1.524 . S
C1636 C1635 1.524 . S
C1636 C1637 1.385 1_455 S
C1636 C1641 1.363 . S
C1637 H1608 0.952 . S
C1637 C1636 1.385 1_655 S
C1637 C1638 1.344 . S
C1638 H1609 0.950 . S
C1638 C1637 1.344 . S
C1638 C1639 1.287 . S
C1639 C1638 1.287 . S
C1639 C1640 1.524 1_655 S
C1639 H1642 0.999 . S
C1640 H1610 0.950 . S
C1640 C1639 1.524 1_455 S
C1640 C1641 1.415 . S
C1641 H1611 0.950 . S
C1641 C1636 1.363 . S
C1641 C1640 1.415 . S
H1642 C1639 0.999 . S
H1643 C1624 0.913 . S
H1644 C1662 0.951 . S
H1645 C1664 0.951 . S
H1646 C1666 0.950 . S
H1647 C1667 0.950 . S
H1648 C1669 0.950 . S
H1649 C1672 0.950 . S
H1650 C1673 0.950 1_565 S
H1651 C1675 0.950 . S
H1652 C1676 0.950 . S
H1653 C1677 0.951 . S
H1654 C1679 0.951 . S
H1655 C1681 0.950 . S
H1656 C1682 0.950 . S
H1657 C1684 0.948 1_655 S
H1658 C1687 0.974 . S
H1659 C1688 0.950 1_655 S
H1660 C1690 0.950 . S
H1661 C1691 0.950 . S
C1662 H1644 0.951 . S
C1662 C1663 1.366 1_655 S
C1662 C1664 1.388 . S
C1663 C1662 1.366 1_455 S
C1663 C1667 1.385 . S
C1664 H1645 0.951 . S
C1664 C1662 1.388 . S
C1664 C1665 1.366 1_655 S
C1665 C1664 1.366 1_455 S
C1665 C1666 1.414 . S
C1665 C1668 1.499 1_565 S
C1666 H1646 0.950 . S
C1666 C1665 1.414 . S
C1666 C1667 1.374 . S
C1667 H1647 0.950 . S
C1667 C1663 1.385 . S
C1667 C1666 1.374 . S
C1668 C1665 1.499 1_545 S
C1668 C1669 1.373 . S
C1668 C1670 1.394 . S
C1669 H1648 0.950 . S
C1669 C1668 1.373 . S
C1669 C1685 1.377 . S
C1670 C1668 1.394 . S
C1670 C1671 1.521 1_455 S
C1670 C1684 1.376 . S
C1671 C1670 1.521 1_655 S
C1671 C1672 1.397 1_655 S
C1671 C1676 1.363 . S
C1672 H1649 0.950 . S
C1672 C1671 1.397 1_455 S
C1672 C1673 1.334 . S
C1673 H1650 0.950 1_545 S
C1673 C1672 1.334 . S
C1673 C1674 1.287 1_455 S
C1674 C1673 1.287 1_655 S
C1674 C1675 1.524 . S
C1674 H1693 0.913 . S
C1675 H1651 0.950 . S
C1675 C1674 1.524 . S
C1675 C1676 1.415 . S
C1676 H1652 0.950 . S
C1676 C1671 1.363 . S
C1676 C1675 1.415 . S
C1677 H1653 0.951 . S
C1677 C1678 1.366 . S
C1677 C1679 1.388 . S
C1678 C1677 1.366 . S
C1678 C1682 1.385 1_455 S
C1679 H1654 0.951 . S
C1679 C1677 1.388 . S
C1679 C1680 1.366 . S
C1680 C1679 1.366 . S
C1680 C1681 1.414 1_455 S
C1680 C1683 1.499 . S
C1681 H1655 0.950 . S
C1681 C1680 1.414 1_655 S
C1681 C1682 1.374 . S
C1682 H1656 0.950 . S
C1682 C1678 1.385 1_655 S
C1682 C1681 1.374 . S
C1683 C1680 1.499 . S
C1683 C1684 1.376 . S
C1683 C1685 1.389 . S
C1684 H1657 0.948 1_455 S
C1684 C1670 1.376 . S
C1684 C1683 1.376 . S
C1685 C1669 1.377 . S
C1685 C1683 1.389 . S
C1685 C1686 1.524 . S
C1686 C1685 1.524 . S
C1686 C1687 1.376 1_455 S
C1686 C1691 1.363 . S
C1687 H1658 0.974 . S
C1687 C1686 1.376 1_655 S
C1687 C1688 1.332 1_655 S
C1688 H1659 0.950 1_455 S
C1688 C1687 1.332 1_455 S
C1688 C1689 1.287 . S
C1689 C1688 1.287 . S
C1689 C1690 1.524 . S
C1689 H1692 0.999 . S
C1690 H1660 0.950 . S
C1690 C1689 1.524 . S
C1690 C1691 1.415 . S
C1691 H1661 0.950 . S
C1691 C1686 1.363 . S
C1691 C1690 1.415 . S
H1692 C1689 0.999 . S
H1693 C1674 0.913 . S
H1694 C1712 0.951 . S
H1695 C1714 0.951 . S
H1696 C1716 0.950 . S
H1697 C1717 0.950 . S
H1698 C1719 0.950 . S
H1699 C1722 0.950 . S
H1700 C1723 0.950 . S
H1701 C1725 0.950 . S
H1702 C1726 0.950 . S
H1703 C1727 0.951 . S
H1704 C1729 0.951 . S
H1705 C1731 0.950 . S
H1706 C1732 0.950 . S
H1707 C1734 0.950 . S
H1708 C1737 0.950 . S
H1709 C1738 0.950 . S
H1710 C1740 0.950 . S
H1711 C1741 0.950 . S
C1712 H1694 0.951 . S
C1712 C1713 1.366 . S
C1712 C1714 1.388 . S
C1713 C1712 1.366 . S
C1713 C1717 1.385 . S
C1714 H1695 0.951 . S
C1714 C1712 1.388 . S
C1714 C1715 1.366 . S
C1715 C1714 1.366 . S
C1715 C1716 1.414 . S
C1715 C1718 1.499 . S
C1716 H1696 0.950 . S
C1716 C1715 1.414 . S
C1716 C1717 1.374 . S
C1717 H1697 0.950 . S
C1717 C1713 1.385 . S
C1717 C1716 1.374 . S
C1718 C1715 1.499 . S
C1718 C1719 1.373 . S
C1718 C1720 1.389 1_545 S
C1719 H1698 0.950 . S
C1719 C1718 1.373 . S
C1719 C1735 1.377 . S
C1720 C1718 1.389 1_565 S
C1720 C1721 1.524 . S
C1720 C1734 1.377 . S
C1721 C1720 1.524 . S
C1721 C1722 1.397 . S
C1721 C1726 1.363 . S
C1722 H1699 0.950 . S
C1722 C1721 1.397 . S
C1722 C1723 1.334 . S
C1723 H1700 0.950 . S
C1723 C1722 1.334 . S
C1723 C1724 1.287 . S
C1724 C1723 1.287 . S
C1724 C1725 1.524 . S
C1724 H1743 0.913 . S
C1725 H1701 0.950 . S
C1725 C1724 1.524 . S
C1725 C1726 1.415 . S
C1726 H1702 0.950 . S
C1726 C1721 1.363 . S
C1726 C1725 1.415 . S
C1727 H1703 0.951 . S
C1727 C1728 1.366 . S
C1727 C1729 1.388 . S
C1728 C1727 1.366 . S
C1728 C1732 1.385 . S
C1729 H1704 0.951 . S
C1729 C1727 1.388 . S
C1729 C1730 1.366 . S
C1730 C1729 1.366 . S
C1730 C1731 1.414 . S
C1730 C1733 1.499 . S
C1731 H1705 0.950 . S
C1731 C1730 1.414 . S
C1731 C1732 1.374 . S
C1732 H1706 0.950 . S
C1732 C1728 1.385 . S
C1732 C1731 1.374 . S
C1733 C1730 1.499 . S
C1733 C1734 1.373 1_545 S
C1733 C1735 1.389 . S
C1734 H1707 0.950 . S
C1734 C1720 1.377 . S
C1734 C1733 1.373 1_565 S
C1735 C1719 1.377 . S
C1735 C1733 1.389 . S
C1735 C1736 1.524 . S
C1736 C1735 1.524 . S
C1736 C1737 1.397 . S
C1736 C1741 1.363 . S
C1737 H1708 0.950 . S
C1737 C1736 1.397 . S
C1737 C1738 1.334 . S
C1738 H1709 0.950 . S
C1738 C1737 1.334 . S
C1738 C1739 1.287 . S
C1739 C1738 1.287 . S
C1739 C1740 1.524 . S
C1739 H1742 0.999 . S
C1740 H1710 0.950 . S
C1740 C1739 1.524 . S
C1740 C1741 1.415 . S
C1741 H1711 0.950 . S
C1741 C1736 1.363 . S
C1741 C1740 1.415 . S
H1742 C1739 0.999 . S
H1743 C1724 0.913 . S
H1744 C1762 0.951 . S
H1745 C1764 0.951 . S
H1746 C1766 0.950 . S
H1747 C1767 0.950 . S
H1748 C1769 0.950 . S
H1749 C1772 0.950 . S
H1750 C1773 0.950 . S
H1751 C1775 0.950 . S
H1752 C1776 0.950 . S
H1753 C1777 0.951 . S
H1754 C1779 0.951 . S
H1755 C1781 0.950 . S
H1756 C1782 0.950 . S
H1757 C1784 0.950 . S
H1758 C1787 0.950 . S
H1759 C1788 0.950 . S
H1760 C1790 0.950 . S
H1761 C1791 0.950 . S
C1762 H1744 0.951 . S
C1762 C1763 1.366 . S
C1762 C1764 1.388 . S
C1763 C1762 1.366 . S
C1763 C1767 1.385 . S
C1764 H1745 0.951 . S
C1764 C1762 1.388 . S
C1764 C1765 1.366 . S
C1765 C1764 1.366 . S
C1765 C1766 1.414 . S
C1765 C1768 1.499 . S
C1766 H1746 0.950 . S
C1766 C1765 1.414 . S
C1766 C1767 1.374 . S
C1767 H1747 0.950 . S
C1767 C1763 1.385 . S
C1767 C1766 1.374 . S
C1768 C1765 1.499 . S
C1768 C1769 1.373 . S
C1768 C1770 1.389 . S
C1769 H1748 0.950 . S
C1769 C1768 1.373 . S
C1769 C1785 1.377 . S
C1770 C1768 1.389 . S
C1770 C1771 1.524 . S
C1770 C1784 1.377 . S
C1771 C1770 1.524 . S
C1771 C1772 1.397 . S
C1771 C1776 1.363 . S
C1772 H1749 0.950 . S
C1772 C1771 1.397 . S
C1772 C1773 1.334 . S
C1773 H1750 0.950 . S
C1773 C1772 1.334 . S
C1773 C1774 1.287 . S
C1774 C1773 1.287 . S
C1774 C1775 1.524 . S
C1774 H1793 0.913 . S
C1775 H1751 0.950 . S
C1775 C1774 1.524 . S
C1775 C1776 1.415 . S
C1776 H1752 0.950 . S
C1776 C1771 1.363 . S
C1776 C1775 1.415 . S
C1777 H1753 0.951 . S
C1777 C1778 1.366 . S
C1777 C1779 1.388 . S
C1778 C1777 1.366 . S
C1778 C1782 1.385 . S
C1779 H1754 0.951 . S
C1779 C1777 1.388 . S
C1779 C1780 1.366 . S
C1780 C1779 1.366 . S
C1780 C1781 1.414 . S
C1780 C1783 1.499 . S
C1781 H1755 0.950 . S
C1781 C1780 1.414 . S
C1781 C1782 1.374 . S
C1782 H1756 0.950 . S
C1782 C1778 1.385 . S
C1782 C1781 1.374 . S
C1783 C1780 1.499 . S
C1783 C1784 1.373 . S
C1783 C1785 1.389 . S
C1784 H1757 0.950 . S
C1784 C1770 1.377 . S
C1784 C1783 1.373 . S
C1785 C1769 1.377 . S
C1785 C1783 1.389 . S
C1785 C1786 1.524 . S
C1786 C1785 1.524 . S
C1786 C1787 1.397 . S
C1786 C1791 1.363 . S
C1787 H1758 0.950 . S
C1787 C1786 1.397 . S
C1787 C1788 1.334 . S
C1788 H1759 0.950 . S
C1788 C1787 1.334 . S
C1788 C1789 1.287 . S
C1789 C1788 1.287 . S
C1789 C1790 1.524 . S
C1789 H1792 0.999 . S
C1790 H1760 0.950 . S
C1790 C1789 1.524 . S
C1790 C1791 1.415 . S
C1791 H1761 0.950 . S
C1791 C1786 1.363 . S
C1791 C1790 1.415 . S
H1792 C1789 0.999 . S
H1793 C1774 0.913 . S
H1794 C1812 0.951 . S
H1795 C1814 0.951 . S
H1796 C1816 0.950 . S
H1797 C1817 0.950 . S
H1798 C1819 0.950 . S
H1799 C1822 0.950 . S
H1800 C1823 0.950 . S
H1801 C1825 0.950 . S
H1802 C1826 0.950 . S
H1803 C1827 0.951 . S
H1804 C1829 0.951 . S
H1805 C1831 0.950 . S
H1806 C1832 0.950 . S
H1807 C1834 0.950 . S
H1808 C1837 0.950 . S
H1809 C1838 0.950 . S
H1810 C1840 0.950 . S
H1811 C1841 0.950 . S
C1812 H1794 0.951 . S
C1812 C1813 1.366 . S
C1812 C1814 1.388 . S
C1813 C1812 1.366 . S
C1813 C1817 1.385 . S
C1814 H1795 0.951 . S
C1814 C1812 1.388 . S
C1814 C1815 1.366 . S
C1815 C1814 1.366 . S
C1815 C1816 1.414 . S
C1815 C1818 1.499 . S
C1816 H1796 0.950 . S
C1816 C1815 1.414 . S
C1816 C1817 1.374 . S
C1817 H1797 0.950 . S
C1817 C1813 1.385 . S
C1817 C1816 1.374 . S
C1818 C1815 1.499 . S
C1818 C1819 1.373 . S
C1818 C1820 1.389 . S
C1819 H1798 0.950 . S
C1819 C1818 1.373 . S
C1819 C1835 1.377 . S
C1820 C1818 1.389 . S
C1820 C1821 1.524 . S
C1820 C1834 1.377 . S
C1821 C1820 1.524 . S
C1821 C1822 1.397 . S
C1821 C1826 1.363 . S
C1822 H1799 0.950 . S
C1822 C1821 1.397 . S
C1822 C1823 1.334 . S
C1823 H1800 0.950 . S
C1823 C1822 1.334 . S
C1823 C1824 1.287 . S
C1824 C1823 1.287 . S
C1824 C1825 1.524 . S
C1824 H1843 0.913 . S
C1825 H1801 0.950 . S
C1825 C1824 1.524 . S
C1825 C1826 1.415 . S
C1826 H1802 0.950 . S
C1826 C1821 1.363 . S
C1826 C1825 1.415 . S
C1827 H1803 0.951 . S
C1827 C1828 1.366 . S
C1827 C1829 1.388 . S
C1828 C1827 1.366 . S
C1828 C1832 1.385 . S
C1829 H1804 0.951 . S
C1829 C1827 1.388 . S
C1829 C1830 1.366 . S
C1830 C1829 1.366 . S
C1830 C1831 1.414 . S
C1830 C1833 1.499 . S
C1831 H1805 0.950 . S
C1831 C1830 1.414 . S
C1831 C1832 1.374 . S
C1832 H1806 0.950 . S
C1832 C1828 1.385 . S
C1832 C1831 1.374 . S
C1833 C1830 1.499 . S
C1833 C1834 1.373 . S
C1833 C1835 1.389 . S
C1834 H1807 0.950 . S
C1834 C1820 1.377 . S
C1834 C1833 1.373 . S
C1835 C1819 1.377 . S
C1835 C1833 1.389 . S
C1835 C1836 1.524 . S
C1836 C1835 1.524 . S
C1836 C1837 1.397 . S
C1836 C1841 1.363 . S
C1837 H1808 0.950 . S
C1837 C1836 1.397 . S
C1837 C1838 1.334 . S
C1838 H1809 0.950 . S
C1838 C1837 1.334 . S
C1838 C1839 1.287 . S
C1839 C1838 1.287 . S
C1839 C1840 1.524 . S
C1839 H1842 0.999 . S
C1840 H1810 0.950 . S
C1840 C1839 1.524 . S
C1840 C1841 1.415 . S
C1841 H1811 0.950 . S
C1841 C1836 1.363 . S
C1841 C1840 1.415 . S
H1842 C1839 0.999 . S
H1843 C1824 0.913 . S
H1844 C1862 0.951 . S
H1845 C1864 0.951 . S
H1846 C1866 0.950 . S
H1847 C1867 0.950 . S
H1848 C1869 0.950 . S
H1849 C1872 0.950 . S
H1850 C1873 0.950 . S
H1851 C1875 0.950 . S
H1852 C1876 0.950 . S
H1853 C1877 0.951 . S
H1854 C1879 0.951 . S
H1855 C1881 0.950 . S
H1856 C1882 0.950 . S
H1857 C1884 0.950 . S
H1858 C1887 0.950 . S
H1859 C1888 0.950 . S
H1860 C1890 0.950 . S
H1861 C1891 0.950 . S
C1862 H1844 0.951 . S
C1862 C1863 1.366 . S
C1862 C1864 1.388 . S
C1863 C1862 1.366 . S
C1863 C1867 1.385 . S
C1864 H1845 0.951 . S
C1864 C1862 1.388 . S
C1864 C1865 1.366 . S
C1865 C1864 1.366 . S
C1865 C1866 1.414 . S
C1865 C1868 1.499 . S
C1866 H1846 0.950 . S
C1866 C1865 1.414 . S
C1866 C1867 1.374 . S
C1867 H1847 0.950 . S
C1867 C1863 1.385 . S
C1867 C1866 1.374 . S
C1868 C1865 1.499 . S
C1868 C1869 1.373 . S
C1868 C1870 1.389 . S
C1869 H1848 0.950 . S
C1869 C1868 1.373 . S
C1869 C1885 1.377 . S
C1870 C1868 1.389 . S
C1870 C1871 1.524 . S
C1870 C1884 1.377 . S
C1871 C1870 1.524 . S
C1871 C1872 1.397 . S
C1871 C1876 1.363 . S
C1872 H1849 0.950 . S
C1872 C1871 1.397 . S
C1872 C1873 1.334 . S
C1873 H1850 0.950 . S
C1873 C1872 1.334 . S
C1873 C1874 1.287 . S
C1874 C1873 1.287 . S
C1874 C1875 1.524 . S
C1874 H1893 0.913 . S
C1875 H1851 0.950 . S
C1875 C1874 1.524 . S
C1875 C1876 1.415 . S
C1876 H1852 0.950 . S
C1876 C1871 1.363 . S
C1876 C1875 1.415 . S
C1877 H1853 0.951 . S
C1877 C1878 1.366 . S
C1877 C1879 1.388 . S
C1878 C1877 1.366 . S
C1878 C1882 1.385 . S
C1879 H1854 0.951 . S
C1879 C1877 1.388 . S
C1879 C1880 1.366 . S
C1880 C1879 1.366 . S
C1880 C1881 1.414 . S
C1880 C1883 1.499 . S
C1881 H1855 0.950 . S
C1881 C1880 1.414 . S
C1881 C1882 1.374 . S
C1882 H1856 0.950 . S
C1882 C1878 1.385 . S
C1882 C1881 1.374 . S
C1883 C1880 1.499 . S
C1883 C1884 1.373 . S
C1883 C1885 1.389 . S
C1884 H1857 0.950 . S
C1884 C1870 1.377 . S
C1884 C1883 1.373 . S
C1885 C1869 1.377 . S
C1885 C1883 1.389 . S
C1885 C1886 1.524 . S
C1886 C1885 1.524 . S
C1886 C1887 1.397 . S
C1886 C1891 1.363 . S
C1887 H1858 0.950 . S
C1887 C1886 1.397 . S
C1887 C1888 1.334 . S
C1888 H1859 0.950 . S
C1888 C1887 1.334 . S
C1888 C1889 1.287 . S
C1889 C1888 1.287 . S
C1889 C1890 1.524 . S
C1889 H1892 0.999 . S
C1890 H1860 0.950 . S
C1890 C1889 1.524 . S
C1890 C1891 1.415 . S
C1891 H1861 0.950 . S
C1891 C1886 1.363 . S
C1891 C1890 1.415 . S
H1892 C1889 0.999 . S
H1893 C1874 0.913 . S
H1894 C1912 0.951 . S
H1895 C1914 0.951 . S
H1896 C1916 0.950 . S
H1897 C1917 0.950 . S
H1898 C1919 0.950 . S
H1899 C1922 0.950 . S
H1900 C1923 0.950 . S
H1901 C1925 0.950 . S
H1902 C1926 0.950 . S
H1903 C1927 0.951 . S
H1904 C1929 0.951 . S
H1905 C1931 0.950 . S
H1906 C1932 0.950 . S
H1907 C1934 0.950 . S
H1908 C1937 0.950 . S
H1909 C1938 0.950 . S
H1910 C1940 0.950 . S
H1911 C1941 0.950 . S
C1912 H1894 0.951 . S
C1912 C1913 1.366 . S
C1912 C1914 1.388 . S
C1913 C1912 1.366 . S
C1913 C1917 1.385 . S
C1914 H1895 0.951 . S
C1914 C1912 1.388 . S
C1914 C1915 1.366 . S
C1915 C1914 1.366 . S
C1915 C1916 1.414 . S
C1915 C1918 1.499 . S
C1916 H1896 0.950 . S
C1916 C1915 1.414 . S
C1916 C1917 1.374 . S
C1917 H1897 0.950 . S
C1917 C1913 1.385 . S
C1917 C1916 1.374 . S
C1918 C1915 1.499 . S
C1918 C1919 1.373 . S
C1918 C1920 1.389 . S
C1919 H1898 0.950 . S
C1919 C1918 1.373 . S
C1919 C1935 1.377 . S
C1920 C1918 1.389 . S
C1920 C1921 1.524 . S
C1920 C1934 1.377 . S
C1921 C1920 1.524 . S
C1921 C1922 1.397 . S
C1921 C1926 1.363 . S
C1922 H1899 0.950 . S
C1922 C1921 1.397 . S
C1922 C1923 1.334 . S
C1923 H1900 0.950 . S
C1923 C1922 1.334 . S
C1923 C1924 1.287 . S
C1924 C1923 1.287 . S
C1924 C1925 1.524 . S
C1924 H1943 0.913 . S
C1925 H1901 0.950 . S
C1925 C1924 1.524 . S
C1925 C1926 1.415 . S
C1926 H1902 0.950 . S
C1926 C1921 1.363 . S
C1926 C1925 1.415 . S
C1927 H1903 0.951 . S
C1927 C1928 1.366 . S
C1927 C1929 1.388 . S
C1928 C1927 1.366 . S
C1928 C1932 1.385 . S
C1929 H1904 0.951 . S
C1929 C1927 1.388 . S
C1929 C1930 1.366 . S
C1930 C1929 1.366 . S
C1930 C1931 1.414 . S
C1930 C1933 1.499 . S
C1931 H1905 0.950 . S
C1931 C1930 1.414 . S
C1931 C1932 1.374 . S
C1932 H1906 0.950 . S
C1932 C1928 1.385 . S
C1932 C1931 1.374 . S
C1933 C1930 1.499 . S
C1933 C1934 1.373 . S
C1933 C1935 1.389 . S
C1934 H1907 0.950 . S
C1934 C1920 1.377 . S
C1934 C1933 1.373 . S
C1935 C1919 1.377 . S
C1935 C1933 1.389 . S
C1935 C1936 1.524 . S
C1936 C1935 1.524 . S
C1936 C1937 1.397 . S
C1936 C1941 1.363 . S
C1937 H1908 0.950 . S
C1937 C1936 1.397 . S
C1937 C1938 1.334 . S
C1938 H1909 0.950 . S
C1938 C1937 1.334 . S
C1938 C1939 1.287 . S
C1939 C1938 1.287 . S
C1939 C1940 1.524 . S
C1939 H1942 0.999 . S
C1940 H1910 0.950 . S
C1940 C1939 1.524 . S
C1940 C1941 1.415 . S
C1941 H1911 0.950 . S
C1941 C1936 1.363 . S
C1941 C1940 1.415 . S
H1942 C1939 0.999 . S
H1943 C1924 0.913 . S
H1944 C1962 0.951 . S
H1945 C1964 0.951 . S
H1946 C1966 0.950 . S
H1947 C1967 0.950 . S
H1948 C1969 0.950 . S
H1949 C1972 0.950 . S
H1950 C1973 0.950 . S
H1951 C1975 0.950 . S
H1952 C1976 0.950 . S
H1953 C1977 0.951 . S
H1954 C1979 0.951 . S
H1955 C1981 0.950 . S
H1956 C1982 0.950 . S
H1957 C1984 0.950 . S
H1958 C1987 0.950 . S
H1959 C1988 0.950 . S
H1960 C1990 0.950 . S
H1961 C1991 0.950 . S
C1962 H1944 0.951 . S
C1962 C1963 1.366 . S
C1962 C1964 1.388 . S
C1963 C1962 1.366 . S
C1963 C1967 1.385 . S
C1964 H1945 0.951 . S
C1964 C1962 1.388 . S
C1964 C1965 1.366 . S
C1965 C1964 1.366 . S
C1965 C1966 1.414 . S
C1965 C1968 1.499 . S
C1966 H1946 0.950 . S
C1966 C1965 1.414 . S
C1966 C1967 1.374 . S
C1967 H1947 0.950 . S
C1967 C1963 1.385 . S
C1967 C1966 1.374 . S
C1968 C1965 1.499 . S
C1968 C1969 1.373 . S
C1968 C1970 1.389 . S
C1969 H1948 0.950 . S
C1969 C1968 1.373 . S
C1969 C1985 1.377 . S
C1970 C1968 1.389 . S
C1970 C1971 1.524 . S
C1970 C1984 1.377 . S
C1971 C1970 1.524 . S
C1971 C1972 1.397 . S
C1971 C1976 1.363 . S
C1972 H1949 0.950 . S
C1972 C1971 1.397 . S
C1972 C1973 1.334 . S
C1973 H1950 0.950 . S
C1973 C1972 1.334 . S
C1973 C1974 1.287 . S
C1974 C1973 1.287 . S
C1974 C1975 1.524 . S
C1974 H1993 0.913 . S
C1975 H1951 0.950 . S
C1975 C1974 1.524 . S
C1975 C1976 1.415 . S
C1976 H1952 0.950 . S
C1976 C1971 1.363 . S
C1976 C1975 1.415 . S
C1977 H1953 0.951 . S
C1977 C1978 1.366 . S
C1977 C1979 1.388 . S
C1978 C1977 1.366 . S
C1978 C1982 1.385 . S
C1979 H1954 0.951 . S
C1979 C1977 1.388 . S
C1979 C1980 1.366 . S
C1980 C1979 1.366 . S
C1980 C1981 1.414 . S
C1980 C1983 1.499 . S
C1981 H1955 0.950 . S
C1981 C1980 1.414 . S
C1981 C1982 1.374 . S
C1982 H1956 0.950 . S
C1982 C1978 1.385 . S
C1982 C1981 1.374 . S
C1983 C1980 1.499 . S
C1983 C1984 1.373 . S
C1983 C1985 1.389 . S
C1984 H1957 0.950 . S
C1984 C1970 1.377 . S
C1984 C1983 1.373 . S
C1985 C1969 1.377 . S
C1985 C1983 1.389 . S
C1985 C1986 1.524 . S
C1986 C1985 1.524 . S
C1986 C1987 1.397 . S
C1986 C1991 1.363 . S
C1987 H1958 0.950 . S
C1987 C1986 1.397 . S
C1987 C1988 1.334 . S
C1988 H1959 0.950 . S
C1988 C1987 1.334 . S
C1988 C1989 1.287 . S
C1989 C1988 1.287 . S
C1989 C1990 1.524 . S
C1989 H1992 0.999 . S
C1990 H1960 0.950 . S
C1990 C1989 1.524 . S
C1990 C1991 1.415 . S
C1991 H1961 0.950 . S
C1991 C1986 1.363 . S
C1991 C1990 1.415 . S
H1992 C1989 0.999 . S
H1993 C1974 0.913 . S
H1994 C2012 0.951 . S
H1995 C2014 0.951 . S
H1996 C2016 0.950 . S
H1997 C2017 0.950 . S
H1998 C2019 0.950 . S
H1999 C2022 0.950 . S
H2000 C2023 0.950 . S
H2001 C2025 0.950 . S
H2002 C2026 0.950 . S
H2003 C2027 0.951 . S
H2004 C2029 0.951 . S
H2005 C2031 0.950 . S
H2006 C2032 0.950 . S
H2007 C2034 0.950 . S
H2008 C2037 0.950 . S
H2009 C2038 0.950 . S
H2010 C2040 0.950 . S
H2011 C2041 0.950 . S
C2012 H1994 0.951 . S
C2012 C2013 1.366 . S
C2012 C2014 1.388 . S
C2013 C2012 1.366 . S
C2013 C2017 1.385 . S
C2014 H1995 0.951 . S
C2014 C2012 1.388 . S
C2014 C2015 1.366 . S
C2015 C2014 1.366 . S
C2015 C2016 1.414 . S
C2015 C2018 1.499 . S
C2016 H1996 0.950 . S
C2016 C2015 1.414 . S
C2016 C2017 1.374 . S
C2017 H1997 0.950 . S
C2017 C2013 1.385 . S
C2017 C2016 1.374 . S
C2018 C2015 1.499 . S
C2018 C2019 1.373 . S
C2018 C2020 1.389 . S
C2019 H1998 0.950 . S
C2019 C2018 1.373 . S
C2019 C2035 1.377 . S
C2020 C2018 1.389 . S
C2020 C2021 1.524 . S
C2020 C2034 1.377 . S
C2021 C2020 1.524 . S
C2021 C2022 1.397 . S
C2021 C2026 1.363 . S
C2022 H1999 0.950 . S
C2022 C2021 1.397 . S
C2022 C2023 1.334 . S
C2023 H2000 0.950 . S
C2023 C2022 1.334 . S
C2023 C2024 1.287 . S
C2024 C2023 1.287 . S
C2024 C2025 1.524 . S
C2024 H2043 0.913 . S
C2025 H2001 0.950 . S
C2025 C2024 1.524 . S
C2025 C2026 1.415 . S
C2026 H2002 0.950 . S
C2026 C2021 1.363 . S
C2026 C2025 1.415 . S
C2027 H2003 0.951 . S
C2027 C2028 1.366 . S
C2027 C2029 1.388 . S
C2028 C2027 1.366 . S
C2028 C2032 1.385 . S
C2029 H2004 0.951 . S
C2029 C2027 1.388 . S
C2029 C2030 1.366 . S
C2030 C2029 1.366 . S
C2030 C2031 1.414 . S
C2030 C2033 1.499 . S
C2031 H2005 0.950 . S
C2031 C2030 1.414 . S
C2031 C2032 1.374 . S
C2032 H2006 0.950 . S
C2032 C2028 1.385 . S
C2032 C2031 1.374 . S
C2033 C2030 1.499 . S
C2033 C2034 1.373 . S
C2033 C2035 1.389 . S
C2034 H2007 0.950 . S
C2034 C2020 1.377 . S
C2034 C2033 1.373 . S
C2035 C2019 1.377 . S
C2035 C2033 1.389 . S
C2035 C2036 1.524 . S
C2036 C2035 1.524 . S
C2036 C2037 1.397 . S
C2036 C2041 1.363 . S
C2037 H2008 0.950 . S
C2037 C2036 1.397 . S
C2037 C2038 1.334 . S
C2038 H2009 0.950 . S
C2038 C2037 1.334 . S
C2038 C2039 1.287 . S
C2039 C2038 1.287 . S
C2039 C2040 1.524 . S
C2039 H2042 0.999 . S
C2040 H2010 0.950 . S
C2040 C2039 1.524 . S
C2040 C2041 1.415 . S
C2041 H2011 0.950 . S
C2041 C2036 1.363 . S
C2041 C2040 1.415 . S
H2042 C2039 0.999 . S
H2043 C2024 0.913 . S
H2044 C2062 0.951 . S
H2045 C2064 0.951 . S
H2046 C2066 0.950 . S
H2047 C2067 0.950 . S
H2048 C2069 0.950 . S
H2049 C2072 0.950 . S
H2050 C2073 0.950 . S
H2051 C2075 0.950 . S
H2052 C2076 0.950 . S
H2053 C2077 0.951 . S
H2054 C2079 0.951 . S
H2055 C2081 0.950 . S
H2056 C2082 0.950 . S
H2057 C2084 0.950 . S
H2058 C2087 0.950 . S
H2059 C2088 0.950 . S
H2060 C2090 0.950 . S
H2061 C2091 0.950 . S
C2062 H2044 0.951 . S
C2062 C2063 1.366 . S
C2062 C2064 1.388 . S
C2063 C2062 1.366 . S
C2063 C2067 1.385 . S
C2064 H2045 0.951 . S
C2064 C2062 1.388 . S
C2064 C2065 1.366 . S
C2065 C2064 1.366 . S
C2065 C2066 1.414 . S
C2065 C2068 1.499 . S
C2066 H2046 0.950 . S
C2066 C2065 1.414 . S
C2066 C2067 1.374 . S
C2067 H2047 0.950 . S
C2067 C2063 1.385 . S
C2067 C2066 1.374 . S
C2068 C2065 1.499 . S
C2068 C2069 1.373 . S
C2068 C2070 1.389 . S
C2069 H2048 0.950 . S
C2069 C2068 1.373 . S
C2069 C2085 1.377 . S
C2070 C2068 1.389 . S
C2070 C2071 1.524 . S
C2070 C2084 1.377 . S
C2071 C2070 1.524 . S
C2071 C2072 1.397 . S
C2071 C2076 1.363 . S
C2072 H2049 0.950 . S
C2072 C2071 1.397 . S
C2072 C2073 1.334 . S
C2073 H2050 0.950 . S
C2073 C2072 1.334 . S
C2073 C2074 1.287 . S
C2074 C2073 1.287 . S
C2074 C2075 1.524 . S
C2074 H2093 0.913 . S
C2075 H2051 0.950 . S
C2075 C2074 1.524 . S
C2075 C2076 1.415 . S
C2076 H2052 0.950 . S
C2076 C2071 1.363 . S
C2076 C2075 1.415 . S
C2077 H2053 0.951 . S
C2077 C2078 1.366 . S
C2077 C2079 1.388 . S
C2078 C2077 1.366 . S
C2078 C2082 1.385 . S
C2079 H2054 0.951 . S
C2079 C2077 1.388 . S
C2079 C2080 1.366 . S
C2080 C2079 1.366 . S
C2080 C2081 1.414 . S
C2080 C2083 1.499 . S
C2081 H2055 0.950 . S
C2081 C2080 1.414 . S
C2081 C2082 1.374 . S
C2082 H2056 0.950 . S
C2082 C2078 1.385 . S
C2082 C2081 1.374 . S
C2083 C2080 1.499 . S
C2083 C2084 1.373 . S
C2083 C2085 1.389 . S
C2084 H2057 0.950 . S
C2084 C2070 1.377 . S
C2084 C2083 1.373 . S
C2085 C2069 1.377 . S
C2085 C2083 1.389 . S
C2085 C2086 1.524 . S
C2086 C2085 1.524 . S
C2086 C2087 1.397 . S
C2086 C2091 1.363 . S
C2087 H2058 0.950 . S
C2087 C2086 1.397 . S
C2087 C2088 1.334 . S
C2088 H2059 0.950 . S
C2088 C2087 1.334 . S
C2088 C2089 1.287 . S
C2089 C2088 1.287 . S
C2089 C2090 1.524 . S
C2089 H2092 0.999 . S
C2090 H2060 0.950 . S
C2090 C2089 1.524 . S
C2090 C2091 1.415 . S
C2091 H2061 0.950 . S
C2091 C2086 1.363 . S
C2091 C2090 1.415 . S
H2092 C2089 0.999 . S
H2093 C2074 0.913 . S
H2094 C2112 0.951 . S
H2095 C2114 0.951 . S
H2096 C2116 0.950 . S
H2097 C2117 0.950 . S
H2098 C2119 0.950 . S
H2099 C2122 0.950 . S
H2100 C2123 0.950 . S
H2101 C2125 0.950 . S
H2102 C2126 0.950 . S
H2103 C2127 0.951 . S
H2104 C2129 0.951 . S
H2105 C2131 0.950 . S
H2106 C2132 0.950 . S
H2107 C2134 0.950 . S
H2108 C2137 0.950 . S
H2109 C2138 0.950 . S
H2110 C2140 0.950 . S
H2111 C2141 0.950 . S
C2112 H2094 0.951 . S
C2112 C2113 1.366 . S
C2112 C2114 1.388 . S
C2113 C2112 1.366 . S
C2113 C2117 1.385 . S
C2114 H2095 0.951 . S
C2114 C2112 1.388 . S
C2114 C2115 1.366 . S
C2115 C2114 1.366 . S
C2115 C2116 1.414 . S
C2115 C2118 1.499 . S
C2116 H2096 0.950 . S
C2116 C2115 1.414 . S
C2116 C2117 1.374 . S
C2117 H2097 0.950 . S
C2117 C2113 1.385 . S
C2117 C2116 1.374 . S
C2118 C2115 1.499 . S
C2118 C2119 1.373 . S
C2118 C2120 1.389 . S
C2119 H2098 0.950 . S
C2119 C2118 1.373 . S
C2119 C2135 1.377 . S
C2120 C2118 1.389 . S
C2120 C2121 1.524 . S
C2120 C2134 1.377 . S
C2121 C2120 1.524 . S
C2121 C2122 1.397 . S
C2121 C2126 1.363 . S
C2122 H2099 0.950 . S
C2122 C2121 1.397 . S
C2122 C2123 1.334 . S
C2123 H2100 0.950 . S
C2123 C2122 1.334 . S
C2123 C2124 1.287 . S
C2124 C2123 1.287 . S
C2124 C2125 1.524 . S
C2124 H2143 0.913 . S
C2125 H2101 0.950 . S
C2125 C2124 1.524 . S
C2125 C2126 1.415 . S
C2126 H2102 0.950 . S
C2126 C2121 1.363 . S
C2126 C2125 1.415 . S
C2127 H2103 0.951 . S
C2127 C2128 1.366 . S
C2127 C2129 1.388 . S
C2128 C2127 1.366 . S
C2128 C2132 1.385 . S
C2129 H2104 0.951 . S
C2129 C2127 1.388 . S
C2129 C2130 1.366 . S
C2130 C2129 1.366 . S
C2130 C2131 1.414 . S
C2130 C2133 1.499 . S
C2131 H2105 0.950 . S
C2131 C2130 1.414 . S
C2131 C2132 1.374 . S
C2132 H2106 0.950 . S
C2132 C2128 1.385 . S
C2132 C2131 1.374 . S
C2133 C2130 1.499 . S
C2133 C2134 1.373 . S
C2133 C2135 1.389 . S
C2134 H2107 0.950 . S
C2134 C2120 1.377 . S
C2134 C2133 1.373 . S
C2135 C2119 1.377 . S
C2135 C2133 1.389 . S
C2135 C2136 1.524 . S
C2136 C2135 1.524 . S
C2136 C2137 1.397 . S
C2136 C2141 1.363 . S
C2137 H2108 0.950 . S
C2137 C2136 1.397 . S
C2137 C2138 1.334 . S
C2138 H2109 0.950 . S
C2138 C2137 1.334 . S
C2138 C2139 1.287 . S
C2139 C2138 1.287 . S
C2139 C2140 1.524 . S
C2139 H2142 0.999 . S
C2140 H2110 0.950 . S
C2140 C2139 1.524 . S
C2140 C2141 1.415 . S
C2141 H2111 0.950 . S
C2141 C2136 1.363 . S
C2141 C2140 1.415 . S
H2142 C2139 0.999 . S
H2143 C2124 0.913 . S
H2144 C2162 0.951 . S
H2145 C2164 0.951 . S
H2146 C2166 0.950 . S
H2147 C2167 0.950 . S
H2148 C2169 0.950 . S
H2149 C2172 0.950 . S
H2150 C2173 0.955 . S
H2151 C2175 0.950 1_565 S
H2152 C2176 0.950 . S
H2153 C2177 0.951 . S
H2154 C2179 0.951 . S
H2155 C2181 0.950 . S
H2156 C2182 0.950 . S
H2157 C2184 0.950 . S
H2158 C2187 0.950 . S
H2159 C2188 0.950 . S
H2160 C2190 0.950 . S
H2161 C2191 0.950 . S
C2162 H2144 0.951 . S
C2162 C2163 1.366 . S
C2162 C2164 1.388 . S
C2163 C2162 1.366 . S
C2163 C2167 1.385 . S
C2164 H2145 0.951 . S
C2164 C2162 1.388 . S
C2164 C2165 1.366 . S
C2165 C2164 1.366 . S
C2165 C2166 1.414 . S
C2165 C2168 1.499 . S
C2166 H2146 0.950 . S
C2166 C2165 1.414 . S
C2166 C2167 1.374 . S
C2167 H2147 0.950 . S
C2167 C2163 1.385 . S
C2167 C2166 1.374 . S
C2168 C2165 1.499 . S
C2168 C2169 1.373 . S
C2168 C2170 1.389 . S
C2169 H2148 0.950 . S
C2169 C2168 1.373 . S
C2169 C2185 1.377 . S
C2170 C2168 1.389 . S
C2170 C2171 1.524 . S
C2170 C2184 1.377 . S
C2171 C2170 1.524 . S
C2171 C2172 1.397 . S
C2171 C2176 1.363 . S
C2172 H2149 0.950 . S
C2172 C2171 1.397 . S
C2172 C2173 1.326 1_545 S
C2173 H2150 0.955 . S
C2173 C2172 1.326 1_565 S
C2173 C2174 1.290 . S
C2174 C2173 1.290 . S
C2174 C2175 1.524 1_565 S
C2174 H2193 0.913 . S
C2175 H2151 0.950 1_545 S
C2175 C2174 1.524 1_545 S
C2175 C2176 1.415 . S
C2176 H2152 0.950 . S
C2176 C2171 1.363 . S
C2176 C2175 1.415 . S
C2177 H2153 0.951 . S
C2177 C2178 1.366 . S
C2177 C2179 1.388 . S
C2178 C2177 1.366 . S
C2178 C2182 1.385 . S
C2179 H2154 0.951 . S
C2179 C2177 1.388 . S
C2179 C2180 1.366 . S
C2180 C2179 1.366 . S
C2180 C2181 1.414 . S
C2180 C2183 1.499 . S
C2181 H2155 0.950 . S
C2181 C2180 1.414 . S
C2181 C2182 1.374 . S
C2182 H2156 0.950 . S
C2182 C2178 1.385 . S
C2182 C2181 1.374 . S
C2183 C2180 1.499 . S
C2183 C2184 1.373 . S
C2183 C2185 1.389 . S
C2184 H2157 0.950 . S
C2184 C2170 1.377 . S
C2184 C2183 1.373 . S
C2185 C2169 1.377 . S
C2185 C2183 1.389 . S
C2185 C2186 1.524 . S
C2186 C2185 1.524 . S
C2186 C2187 1.397 . S
C2186 C2191 1.363 . S
C2187 H2158 0.950 . S
C2187 C2186 1.397 . S
C2187 C2188 1.334 . S
C2188 H2159 0.950 . S
C2188 C2187 1.334 . S
C2188 C2189 1.287 . S
C2189 C2188 1.287 . S
C2189 C2190 1.524 . S
C2189 H2192 0.999 . S
C2190 H2160 0.950 . S
C2190 C2189 1.524 . S
C2190 C2191 1.415 . S
C2191 H2161 0.950 . S
C2191 C2186 1.363 . S
C2191 C2190 1.415 . S
H2192 C2189 0.999 . S
H2193 C2174 0.913 . S
H2194 C2212 0.951 . S
H2195 C2214 0.951 . S
H2196 C2216 0.950 . S
H2197 C2217 0.950 . S
H2198 C2219 0.950 . S
H2199 C2222 0.950 . S
H2200 C2223 0.950 . S
H2201 C2225 0.950 . S
H2202 C2226 0.950 . S
H2203 C2227 0.951 . S
H2204 C2229 0.951 . S
H2205 C2231 0.950 . S
H2206 C2232 0.950 . S
H2207 C2234 0.950 . S
H2208 C2237 0.950 . S
H2209 C2238 0.950 . S
H2210 C2240 0.950 . S
H2211 C2241 0.950 . S
C2212 H2194 0.951 . S
C2212 C2213 1.366 . S
C2212 C2214 1.388 . S
C2213 C2212 1.366 . S
C2213 C2217 1.385 . S
C2214 H2195 0.951 . S
C2214 C2212 1.388 . S
C2214 C2215 1.366 . S
C2215 C2214 1.366 . S
C2215 C2216 1.414 . S
C2215 C2218 1.499 . S
C2216 H2196 0.950 . S
C2216 C2215 1.414 . S
C2216 C2217 1.374 . S
C2217 H2197 0.950 . S
C2217 C2213 1.385 . S
C2217 C2216 1.374 . S
C2218 C2215 1.499 . S
C2218 C2219 1.373 . S
C2218 C2220 1.389 . S
C2219 H2198 0.950 . S
C2219 C2218 1.373 . S
C2219 C2235 1.377 . S
C2220 C2218 1.389 . S
C2220 C2221 1.524 . S
C2220 C2234 1.377 . S
C2221 C2220 1.524 . S
C2221 C2222 1.397 . S
C2221 C2226 1.363 . S
C2222 H2199 0.950 . S
C2222 C2221 1.397 . S
C2222 C2223 1.334 . S
C2223 H2200 0.950 . S
C2223 C2222 1.334 . S
C2223 C2224 1.287 . S
C2224 C2223 1.287 . S
C2224 C2225 1.524 . S
C2224 H2243 0.913 . S
C2225 H2201 0.950 . S
C2225 C2224 1.524 . S
C2225 C2226 1.415 . S
C2226 H2202 0.950 . S
C2226 C2221 1.363 . S
C2226 C2225 1.415 . S
C2227 H2203 0.951 . S
C2227 C2228 1.366 . S
C2227 C2229 1.388 . S
C2228 C2227 1.366 . S
C2228 C2232 1.385 . S
C2229 H2204 0.951 . S
C2229 C2227 1.388 . S
C2229 C2230 1.366 . S
C2230 C2229 1.366 . S
C2230 C2231 1.414 . S
C2230 C2233 1.499 . S
C2231 H2205 0.950 . S
C2231 C2230 1.414 . S
C2231 C2232 1.374 . S
C2232 H2206 0.950 . S
C2232 C2228 1.385 . S
C2232 C2231 1.374 . S
C2233 C2230 1.499 . S
C2233 C2234 1.373 . S
C2233 C2235 1.389 . S
C2234 H2207 0.950 . S
C2234 C2220 1.377 . S
C2234 C2233 1.373 . S
C2235 C2219 1.377 . S
C2235 C2233 1.389 . S
C2235 C2236 1.524 . S
C2236 C2235 1.524 . S
C2236 C2237 1.397 . S
C2236 C2241 1.363 . S
C2237 H2208 0.950 . S
C2237 C2236 1.397 . S
C2237 C2238 1.334 . S
C2238 H2209 0.950 . S
C2238 C2237 1.334 . S
C2238 C2239 1.287 . S
C2239 C2238 1.287 . S
C2239 C2240 1.524 . S
C2239 H2242 0.999 . S
C2240 H2210 0.950 . S
C2240 C2239 1.524 . S
C2240 C2241 1.415 . S
C2241 H2211 0.950 . S
C2241 C2236 1.363 . S
C2241 C2240 1.415 . S
H2242 C2239 0.999 . S
H2243 C2224 0.913 . S
H2244 C2262 0.951 . S
H2245 C2264 0.951 . S
H2246 C2266 0.950 . S
H2247 C2267 0.950 . S
H2248 C2269 0.950 . S
H2249 C2272 0.950 . S
H2250 C2273 0.950 . S
H2251 C2275 0.950 . S
H2252 C2276 0.950 . S
H2253 C2277 0.951 . S
H2254 C2279 0.951 . S
H2255 C2281 0.950 . S
H2256 C2282 0.950 . S
H2257 C2284 0.950 . S
H2258 C2287 0.950 . S
H2259 C2288 0.950 . S
H2260 C2290 0.947 1_655 S
H2261 C2291 0.950 . S
C2262 H2244 0.951 . S
C2262 C2263 1.366 . S
C2262 C2264 1.388 . S
C2263 C2262 1.366 . S
C2263 C2267 1.385 . S
C2264 H2245 0.951 . S
C2264 C2262 1.388 . S
C2264 C2265 1.366 . S
C2265 C2264 1.366 . S
C2265 C2266 1.414 . S
C2265 C2268 1.499 . S
C2266 H2246 0.950 . S
C2266 C2265 1.414 . S
C2266 C2267 1.374 . S
C2267 H2247 0.950 . S
C2267 C2263 1.385 . S
C2267 C2266 1.374 . S
C2268 C2265 1.499 . S
C2268 C2269 1.373 . S
C2268 C2270 1.389 . S
C2269 H2248 0.950 . S
C2269 C2268 1.373 . S
C2269 C2285 1.377 . S
C2270 C2268 1.389 . S
C2270 C2271 1.524 . S
C2270 C2284 1.377 . S
C2271 C2270 1.524 . S
C2271 C2272 1.397 . S
C2271 C2276 1.363 . S
C2272 H2249 0.950 . S
C2272 C2271 1.397 . S
C2272 C2273 1.334 . S
C2273 H2250 0.950 . S
C2273 C2272 1.334 . S
C2273 C2274 1.287 . S
C2274 C2273 1.287 . S
C2274 C2275 1.524 . S
C2274 H2293 0.913 . S
C2275 H2251 0.950 . S
C2275 C2274 1.524 . S
C2275 C2276 1.415 . S
C2276 H2252 0.950 . S
C2276 C2271 1.363 . S
C2276 C2275 1.415 . S
C2277 H2253 0.951 . S
C2277 C2278 1.366 . S
C2277 C2279 1.388 . S
C2278 C2277 1.366 . S
C2278 C2282 1.385 . S
C2279 H2254 0.951 . S
C2279 C2277 1.388 . S
C2279 C2280 1.366 . S
C2280 C2279 1.366 . S
C2280 C2281 1.414 . S
C2280 C2283 1.499 . S
C2281 H2255 0.950 . S
C2281 C2280 1.414 . S
C2281 C2282 1.374 . S
C2282 H2256 0.950 . S
C2282 C2278 1.385 . S
C2282 C2281 1.374 . S
C2283 C2280 1.499 . S
C2283 C2284 1.373 . S
C2283 C2285 1.389 . S
C2284 H2257 0.950 . S
C2284 C2270 1.377 . S
C2284 C2283 1.373 . S
C2285 C2269 1.377 . S
C2285 C2283 1.389 . S
C2285 C2286 1.524 . S
C2286 C2285 1.524 . S
C2286 C2287 1.397 . S
C2286 C2291 1.363 . S
C2287 H2258 0.950 . S
C2287 C2286 1.397 . S
C2287 C2288 1.334 . S
C2288 H2259 0.950 . S
C2288 C2287 1.334 . S
C2288 C2289 1.287 1_455 S
C2289 C2288 1.287 1_655 S
C2289 C2290 1.523 1_655 S
C2289 H2292 0.999 . S
C2290 H2260 0.947 1_455 S
C2290 C2289 1.523 1_455 S
C2290 C2291 1.419 . S
C2291 H2261 0.950 . S
C2291 C2286 1.363 . S
C2291 C2290 1.419 . S
H2292 C2289 0.999 . S
H2293 C2274 0.913 . S
H2294 C2312 0.951 . S
H2295 C2314 0.951 . S
H2296 C2316 0.950 . S
H2297 C2317 0.950 . S
H2298 C2319 0.950 . S
H2299 C2322 0.950 . S
H2300 C2323 0.950 . S
H2301 C2325 0.950 . S
H2302 C2326 0.950 . S
H2303 C2327 0.951 . S
H2304 C2329 0.951 . S
H2305 C2331 0.950 . S
H2306 C2332 0.950 . S
H2307 C2334 0.950 . S
H2308 C2337 0.950 . S
H2309 C2338 0.950 1_565 S
H2310 C2340 0.950 . S
H2311 C2341 0.950 . S
C2312 H2294 0.951 . S
C2312 C2313 1.366 . S
C2312 C2314 1.388 . S
C2313 C2312 1.366 . S
C2313 C2317 1.385 . S
C2314 H2295 0.951 . S
C2314 C2312 1.388 . S
C2314 C2315 1.366 . S
C2315 C2314 1.366 . S
C2315 C2316 1.414 . S
C2315 C2318 1.499 . S
C2316 H2296 0.950 . S
C2316 C2315 1.414 . S
C2316 C2317 1.374 . S
C2317 H2297 0.950 . S
C2317 C2313 1.385 . S
C2317 C2316 1.374 . S
C2318 C2315 1.499 . S
C2318 C2319 1.373 . S
C2318 C2320 1.389 . S
C2319 H2298 0.950 . S
C2319 C2318 1.373 . S
C2319 C2335 1.377 . S
C2320 C2318 1.389 . S
C2320 C2321 1.524 . S
C2320 C2334 1.377 . S
C2321 C2320 1.524 . S
C2321 C2322 1.397 . S
C2321 C2326 1.363 . S
C2322 H2299 0.950 . S
C2322 C2321 1.397 . S
C2322 C2323 1.334 . S
C2323 H2300 0.950 . S
C2323 C2322 1.334 . S
C2323 C2324 1.287 . S
C2324 C2323 1.287 . S
C2324 C2325 1.524 . S
C2324 H2343 0.913 . S
C2325 H2301 0.950 . S
C2325 C2324 1.524 . S
C2325 C2326 1.415 . S
C2326 H2302 0.950 . S
C2326 C2321 1.363 . S
C2326 C2325 1.415 . S
C2327 H2303 0.951 . S
C2327 C2328 1.366 . S
C2327 C2329 1.388 . S
C2328 C2327 1.366 . S
C2328 C2332 1.385 . S
C2329 H2304 0.951 . S
C2329 C2327 1.388 . S
C2329 C2330 1.366 . S
C2330 C2329 1.366 . S
C2330 C2331 1.414 . S
C2330 C2333 1.499 . S
C2331 H2305 0.950 . S
C2331 C2330 1.414 . S
C2331 C2332 1.374 . S
C2332 H2306 0.950 . S
C2332 C2328 1.385 . S
C2332 C2331 1.374 . S
C2333 C2330 1.499 . S
C2333 C2334 1.373 . S
C2333 C2335 1.389 . S
C2334 H2307 0.950 . S
C2334 C2320 1.377 . S
C2334 C2333 1.373 . S
C2335 C2319 1.377 . S
C2335 C2333 1.389 . S
C2335 C2336 1.524 . S
C2336 C2335 1.524 . S
C2336 C2337 1.397 . S
C2336 C2341 1.363 . S
C2337 H2308 0.950 . S
C2337 C2336 1.397 . S
C2337 C2338 1.334 . S
C2338 H2309 0.950 1_545 S
C2338 C2337 1.334 . S
C2338 C2339 1.287 . S
C2339 C2338 1.287 . S
C2339 C2340 1.524 . S
C2339 H2342 0.999 1_545 S
C2340 H2310 0.950 . S
C2340 C2339 1.524 . S
C2340 C2341 1.415 . S
C2341 H2311 0.950 . S
C2341 C2336 1.363 . S
C2341 C2340 1.415 . S
H2342 C2339 0.999 1_565 S
H2343 C2324 0.913 . S
H2344 C2362 0.951 . S
H2345 C2364 0.951 . S
H2346 C2366 0.950 . S
H2347 C2367 0.950 . S
H2348 C2369 0.950 . S
H2349 C2372 0.950 . S
H2350 C2373 0.950 . S
H2351 C2375 0.950 . S
H2352 C2376 0.950 . S
H2353 C2377 0.951 . S
H2354 C2379 0.951 . S
H2355 C2381 0.950 . S
H2356 C2382 0.950 . S
H2357 C2384 0.950 . S
H2358 C2387 0.950 . S
H2359 C2388 0.950 . S
H2360 C2390 0.950 . S
H2361 C2391 0.950 . S
C2362 H2344 0.951 . S
C2362 C2363 1.366 . S
C2362 C2364 1.388 . S
C2363 C2362 1.366 . S
C2363 C2367 1.385 . S
C2364 H2345 0.951 . S
C2364 C2362 1.388 . S
C2364 C2365 1.366 . S
C2365 C2364 1.366 . S
C2365 C2366 1.414 . S
C2365 C2368 1.499 . S
C2366 H2346 0.950 . S
C2366 C2365 1.414 . S
C2366 C2367 1.374 . S
C2367 H2347 0.950 . S
C2367 C2363 1.385 . S
C2367 C2366 1.374 . S
C2368 C2365 1.499 . S
C2368 C2369 1.373 . S
C2368 C2370 1.389 . S
C2369 H2348 0.950 . S
C2369 C2368 1.373 . S
C2369 C2385 1.377 . S
C2370 C2368 1.389 . S
C2370 C2371 1.524 . S
C2370 C2384 1.377 . S
C2371 C2370 1.524 . S
C2371 C2372 1.397 . S
C2371 C2376 1.363 . S
C2372 H2349 0.950 . S
C2372 C2371 1.397 . S
C2372 C2373 1.334 . S
C2373 H2350 0.950 . S
C2373 C2372 1.334 . S
C2373 C2374 1.287 . S
C2374 C2373 1.287 . S
C2374 C2375 1.524 . S
C2374 H2393 0.913 . S
C2375 H2351 0.950 . S
C2375 C2374 1.524 . S
C2375 C2376 1.415 . S
C2376 H2352 0.950 . S
C2376 C2371 1.363 . S
C2376 C2375 1.415 . S
C2377 H2353 0.951 . S
C2377 C2378 1.366 . S
C2377 C2379 1.388 . S
C2378 C2377 1.366 . S
C2378 C2382 1.385 . S
C2379 H2354 0.951 . S
C2379 C2377 1.388 . S
C2379 C2380 1.366 . S
C2380 C2379 1.366 . S
C2380 C2381 1.414 . S
C2380 C2383 1.499 . S
C2381 H2355 0.950 . S
C2381 C2380 1.414 . S
C2381 C2382 1.374 . S
C2382 H2356 0.950 . S
C2382 C2378 1.385 . S
C2382 C2381 1.374 . S
C2383 C2380 1.499 . S
C2383 C2384 1.373 . S
C2383 C2385 1.389 . S
C2384 H2357 0.950 . S
C2384 C2370 1.377 . S
C2384 C2383 1.373 . S
C2385 C2369 1.377 . S
C2385 C2383 1.389 . S
C2385 C2386 1.524 . S
C2386 C2385 1.524 . S
C2386 C2387 1.397 . S
C2386 C2391 1.363 . S
C2387 H2358 0.950 . S
C2387 C2386 1.397 . S
C2387 C2388 1.334 . S
C2388 H2359 0.950 . S
C2388 C2387 1.334 . S
C2388 C2389 1.287 . S
C2389 C2388 1.287 . S
C2389 C2390 1.524 . S
C2389 H2392 0.999 . S
C2390 H2360 0.950 . S
C2390 C2389 1.524 . S
C2390 C2391 1.415 . S
C2391 H2361 0.950 . S
C2391 C2386 1.363 . S
C2391 C2390 1.415 . S
H2392 C2389 0.999 . S
H2393 C2374 0.913 . S
H2394 C2412 0.951 . S
H2395 C2414 0.951 . S
H2396 C2416 0.950 . S
H2397 C2417 0.950 . S
H2398 C2419 0.950 . S
H2399 C2422 0.950 . S
H2400 C2423 0.950 . S
H2401 C2425 0.950 . S
H2402 C2426 0.950 . S
H2403 C2427 0.951 . S
H2404 C2429 0.951 . S
H2405 C2431 0.950 . S
H2406 C2432 0.950 . S
H2407 C2434 0.950 . S
H2408 C2437 0.950 . S
H2409 C2438 0.950 . S
H2410 C2440 0.950 . S
H2411 C2441 0.950 . S
C2412 H2394 0.951 . S
C2412 C2413 1.366 . S
C2412 C2414 1.388 . S
C2413 C2412 1.366 . S
C2413 C2417 1.385 . S
C2414 H2395 0.951 . S
C2414 C2412 1.388 . S
C2414 C2415 1.366 . S
C2415 C2414 1.366 . S
C2415 C2416 1.414 . S
C2415 C2418 1.499 . S
C2416 H2396 0.950 . S
C2416 C2415 1.414 . S
C2416 C2417 1.374 . S
C2417 H2397 0.950 . S
C2417 C2413 1.385 . S
C2417 C2416 1.374 . S
C2418 C2415 1.499 . S
C2418 C2419 1.373 . S
C2418 C2420 1.389 . S
C2419 H2398 0.950 . S
C2419 C2418 1.373 . S
C2419 C2435 1.377 . S
C2420 C2418 1.389 . S
C2420 C2421 1.524 . S
C2420 C2434 1.377 . S
C2421 C2420 1.524 . S
C2421 C2422 1.397 . S
C2421 C2426 1.363 . S
C2422 H2399 0.950 . S
C2422 C2421 1.397 . S
C2422 C2423 1.334 . S
C2423 H2400 0.950 . S
C2423 C2422 1.334 . S
C2423 C2424 1.287 . S
C2424 C2423 1.287 . S
C2424 C2425 1.524 . S
C2424 H2443 0.913 . S
C2425 H2401 0.950 . S
C2425 C2424 1.524 . S
C2425 C2426 1.415 . S
C2426 H2402 0.950 . S
C2426 C2421 1.363 . S
C2426 C2425 1.415 . S
C2427 H2403 0.951 . S
C2427 C2428 1.366 . S
C2427 C2429 1.388 . S
C2428 C2427 1.366 . S
C2428 C2432 1.385 . S
C2429 H2404 0.951 . S
C2429 C2427 1.388 . S
C2429 C2430 1.366 . S
C2430 C2429 1.366 . S
C2430 C2431 1.414 . S
C2430 C2433 1.499 . S
C2431 H2405 0.950 . S
C2431 C2430 1.414 . S
C2431 C2432 1.374 . S
C2432 H2406 0.950 . S
C2432 C2428 1.385 . S
C2432 C2431 1.374 . S
C2433 C2430 1.499 . S
C2433 C2434 1.373 . S
C2433 C2435 1.389 . S
C2434 H2407 0.950 . S
C2434 C2420 1.377 . S
C2434 C2433 1.373 . S
C2435 C2419 1.377 . S
C2435 C2433 1.389 . S
C2435 C2436 1.524 . S
C2436 C2435 1.524 . S
C2436 C2437 1.397 . S
C2436 C2441 1.363 . S
C2437 H2408 0.950 . S
C2437 C2436 1.397 . S
C2437 C2438 1.334 . S
C2438 H2409 0.950 . S
C2438 C2437 1.334 . S
C2438 C2439 1.287 . S
C2439 C2438 1.287 . S
C2439 C2440 1.524 . S
C2439 H2442 0.999 . S
C2440 H2410 0.950 . S
C2440 C2439 1.524 . S
C2440 C2441 1.415 . S
C2441 H2411 0.950 . S
C2441 C2436 1.363 . S
C2441 C2440 1.415 . S
H2442 C2439 0.999 . S
H2443 C2424 0.913 . S
H2444 C2462 0.951 . S
H2445 C2464 0.951 . S
H2446 C2466 0.950 . S
H2447 C2467 0.950 . S
H2448 C2469 0.950 . S
H2449 C2472 0.950 . S
H2450 C2473 0.950 . S
H2451 C2475 0.950 . S
H2452 C2476 0.950 . S
H2453 C2477 0.951 . S
H2454 C2479 0.951 . S
H2455 C2481 0.950 . S
H2456 C2482 0.950 . S
H2457 C2484 0.950 . S
H2458 C2487 0.950 . S
H2459 C2488 0.950 . S
H2460 C2490 0.950 . S
H2461 C2491 0.950 . S
C2462 H2444 0.951 . S
C2462 C2463 1.366 . S
C2462 C2464 1.388 . S
C2463 C2462 1.366 . S
C2463 C2467 1.385 . S
C2464 H2445 0.951 . S
C2464 C2462 1.388 . S
C2464 C2465 1.366 . S
C2465 C2464 1.366 . S
C2465 C2466 1.414 . S
C2465 C2468 1.499 . S
C2466 H2446 0.950 . S
C2466 C2465 1.414 . S
C2466 C2467 1.374 . S
C2467 H2447 0.950 . S
C2467 C2463 1.385 . S
C2467 C2466 1.374 . S
C2468 C2465 1.499 . S
C2468 C2469 1.373 . S
C2468 C2470 1.389 . S
C2469 H2448 0.950 . S
C2469 C2468 1.373 . S
C2469 C2485 1.377 . S
C2470 C2468 1.389 . S
C2470 C2471 1.524 . S
C2470 C2484 1.377 . S
C2471 C2470 1.524 . S
C2471 C2472 1.397 . S
C2471 C2476 1.363 . S
C2472 H2449 0.950 . S
C2472 C2471 1.397 . S
C2472 C2473 1.334 . S
C2473 H2450 0.950 . S
C2473 C2472 1.334 . S
C2473 C2474 1.287 . S
C2474 C2473 1.287 . S
C2474 C2475 1.524 . S
C2474 H2493 0.913 . S
C2475 H2451 0.950 . S
C2475 C2474 1.524 . S
C2475 C2476 1.415 . S
C2476 H2452 0.950 . S
C2476 C2471 1.363 . S
C2476 C2475 1.415 . S
C2477 H2453 0.951 . S
C2477 C2478 1.366 . S
C2477 C2479 1.388 . S
C2478 C2477 1.366 . S
C2478 C2482 1.385 . S
C2479 H2454 0.951 . S
C2479 C2477 1.388 . S
C2479 C2480 1.366 . S
C2480 C2479 1.366 . S
C2480 C2481 1.414 . S
C2480 C2483 1.499 . S
C2481 H2455 0.950 . S
C2481 C2480 1.414 . S
C2481 C2482 1.374 . S
C2482 H2456 0.950 . S
C2482 C2478 1.385 . S
C2482 C2481 1.374 . S
C2483 C2480 1.499 . S
C2483 C2484 1.373 . S
C2483 C2485 1.389 . S
C2484 H2457 0.950 . S
C2484 C2470 1.377 . S
C2484 C2483 1.373 . S
C2485 C2469 1.377 . S
C2485 C2483 1.389 . S
C2485 C2486 1.524 . S
C2486 C2485 1.524 . S
C2486 C2487 1.397 . S
C2486 C2491 1.363 . S
C2487 H2458 0.950 . S
C2487 C2486 1.397 . S
C2487 C2488 1.334 . S
C2488 H2459 0.950 . S
C2488 C2487 1.334 . S
C2488 C2489 1.287 . S
C2489 C2488 1.287 . S
C2489 C2490 1.524 . S
C2489 H2492 0.999 . S
C2490 H2460 0.950 . S
C2490 C2489 1.524 . S
C2490 C2491 1.415 . S
C2491 H2461 0.950 . S
C2491 C2486 1.363 . S
C2491 C2490 1.415 . S
H2492 C2489 0.999 . S
H2493 C2474 0.913 . S
H2494 C2512 0.951 . S
H2495 C2514 0.951 . S
H2496 C2516 0.950 . S
H2497 C2517 0.950 . S
H2498 C2519 0.950 . S
H2499 C2522 0.950 . S
H2500 C2523 0.950 . S
H2501 C2525 0.950 . S
H2502 C2526 0.950 . S
H2503 C2527 0.951 . S
H2504 C2529 0.951 . S
H2505 C2531 0.950 . S
H2506 C2532 0.950 . S
H2507 C2534 0.950 . S
H2508 C2537 0.950 . S
H2509 C2538 0.950 1_545 S
H2510 C2540 0.950 . S
H2511 C2541 0.950 . S
C2512 H2494 0.951 . S
C2512 C2513 1.366 . S
C2512 C2514 1.388 . S
C2513 C2512 1.366 . S
C2513 C2517 1.385 . S
C2514 H2495 0.951 . S
C2514 C2512 1.388 . S
C2514 C2515 1.366 . S
C2515 C2514 1.366 . S
C2515 C2516 1.414 . S
C2515 C2518 1.499 . S
C2516 H2496 0.950 . S
C2516 C2515 1.414 . S
C2516 C2517 1.374 . S
C2517 H2497 0.950 . S
C2517 C2513 1.385 . S
C2517 C2516 1.374 . S
C2518 C2515 1.499 . S
C2518 C2519 1.373 . S
C2518 C2520 1.389 . S
C2519 H2498 0.950 . S
C2519 C2518 1.373 . S
C2519 C2535 1.377 . S
C2520 C2518 1.389 . S
C2520 C2521 1.524 . S
C2520 C2534 1.377 . S
C2521 C2520 1.524 . S
C2521 C2522 1.397 . S
C2521 C2526 1.363 . S
C2522 H2499 0.950 . S
C2522 C2521 1.397 . S
C2522 C2523 1.334 . S
C2523 H2500 0.950 . S
C2523 C2522 1.334 . S
C2523 C2524 1.287 . S
C2524 C2523 1.287 . S
C2524 C2525 1.524 . S
C2524 H2543 0.913 . S
C2525 H2501 0.950 . S
C2525 C2524 1.524 . S
C2525 C2526 1.415 . S
C2526 H2502 0.950 . S
C2526 C2521 1.363 . S
C2526 C2525 1.415 . S
C2527 H2503 0.951 . S
C2527 C2528 1.366 . S
C2527 C2529 1.388 . S
C2528 C2527 1.366 . S
C2528 C2532 1.385 . S
C2529 H2504 0.951 . S
C2529 C2527 1.388 . S
C2529 C2530 1.366 . S
C2530 C2529 1.366 . S
C2530 C2531 1.414 . S
C2530 C2533 1.499 . S
C2531 H2505 0.950 . S
C2531 C2530 1.414 . S
C2531 C2532 1.374 . S
C2532 H2506 0.950 . S
C2532 C2528 1.385 . S
C2532 C2531 1.374 . S
C2533 C2530 1.499 . S
C2533 C2534 1.373 . S
C2533 C2535 1.389 . S
C2534 H2507 0.950 . S
C2534 C2520 1.377 . S
C2534 C2533 1.373 . S
C2535 C2519 1.377 . S
C2535 C2533 1.389 . S
C2535 C2536 1.524 . S
C2536 C2535 1.524 . S
C2536 C2537 1.397 . S
C2536 C2541 1.363 . S
C2537 H2508 0.950 . S
C2537 C2536 1.397 . S
C2537 C2538 1.334 . S
C2538 H2509 0.950 1_565 S
C2538 C2537 1.334 . S
C2538 C2539 1.287 . S
C2539 C2538 1.287 . S
C2539 C2540 1.524 . S
C2539 H2542 0.999 1_565 S
C2540 H2510 0.950 . S
C2540 C2539 1.524 . S
C2540 C2541 1.415 . S
C2541 H2511 0.950 . S
C2541 C2536 1.363 . S
C2541 C2540 1.415 . S
H2542 C2539 0.999 1_545 S
H2543 C2524 0.913 . S
C563 C2 1.471 . S
C578 C138 1.470 . S
C613 C172 1.471 . S
C628 C36 1.471 . S
C663 C206 1.471 . S
C678 C70 1.471 . S
C713 C240 1.470 . S
C728 C104 1.470 . S
C763 C274 1.471 . S
C778 C410 1.470 . S
C813 C308 1.471 . S
C828 C444 1.471 . S
C863 C478 1.470 . S
C878 C342 1.470 . S
C913 C376 1.471 . S
C928 C512 1.470 . S
C963 C413 0.615 . S
C978 C9 0.659 . S
C1013 C447 0.617 . S
C1028 C43 0.659 . S
C1063 C77 0.659 . S
C1078 C481 0.615 . S
C1113 C515 0.616 . S
C1128 C111 0.659 . S
C1163 C277 0.615 . S
C1178 C145 0.659 . S
C1213 C311 0.615 . S
C1228 C179 0.659 . S
C1263 C213 0.658 . S
C1278 C345 0.615 . S
C1313 C247 0.659 . S
C1328 C379 0.617 . S
C1363 C141 0.616 . S
C1378 C281 0.658 . S
C1413 C175 0.617 . S
C1428 C315 0.659 . S
C1463 C209 0.617 . S
C1478 C349 0.660 . S
C1513 C383 0.659 . S
C1528 C243 0.615 . S
C1563 C5 0.617 . S
C1578 C417 0.661 . S
C1613 C39 0.617 . S
C1628 C451 0.661 . S
C1663 C485 0.659 . S
C1678 C73 0.615 . S
C1713 C107 0.617 . S
C1728 C519 0.661 . S
C1763 C101 2.201 . S
C1778 C33 2.200 . S
C1813 C67 2.201 . S
C1828 C135 2.201 . S
C1863 C237 2.201 . S
C1878 C169 2.201 . S
C1913 C271 2.200 . S
C1928 C203 2.201 . S
C1963 C373 2.200 . S
C1978 C305 2.201 . S
C2013 C407 2.201 . S
C2028 C339 2.201 . S
C2063 C441 2.201 . S
C2078 C509 2.201 . S
C2113 C543 2.201 . S
C2128 C475 2.200 . S
C2163 C258 1.683 . S
C2178 C20 1.682 . S
C2213 C156 1.682 . S
C2228 C54 1.683 . S
C2263 C190 1.682 . S
C2278 C88 1.682 . S
C2313 C224 1.682 . S
C2328 C122 1.683 . S
C2363 C530 1.683 . S
C2378 C292 1.683 . S
C2413 C428 1.682 . S
C2428 C326 1.682 . S
C2463 C462 1.682 . S
C2478 C360 1.682 . S
C2513 C496 1.682 . S
C2528 C394 1.682 . S
