# Generated by pormake.
# Topology wgl, (5)-cn, num edge types: 1
# Building blocks:
#     Node 0, Type 0, BuildingBlock: XOMCOT_clean_sbu_0, # of connection points: 5
#     Node 1, Type 0, BuildingBlock: XOMCOT_clean_sbu_0, # of connection points: 5
#     Node 2, Type 0, BuildingBlock: XOMCOT_clean_sbu_0, # of connection points: 5
#     Node 3, Type 0, BuildingBlock: XOMCOT_clean_sbu_0, # of connection points: 5
#     Node 4, Type 0, BuildingBlock: XOMCOT_clean_sbu_0, # of connection points: 5
#     Node 5, Type 0, BuildingBlock: XOMCOT_clean_sbu_0, # of connection points: 5
#     Node 6, Type 0, BuildingBlock: XOMCOT_clean_sbu_0, # of connection points: 5
#     Node 7, Type 0, BuildingBlock: XOMCOT_clean_sbu_0, # of connection points: 5
#     Node 8, Type 0, BuildingBlock: XOMCOT_clean_sbu_0, # of connection points: 5
#     Node 9, Type 0, BuildingBlock: XOMCOT_clean_sbu_0, # of connection points: 5
#     Node 10, Type 0, BuildingBlock: XOMCOT_clean_sbu_0, # of connection points: 5
#     Node 11, Type 0, BuildingBlock: XOMCOT_clean_sbu_0, # of connection points: 5
#     Node 12, Type 0, BuildingBlock: XOMCOT_clean_sbu_0, # of connection points: 5
#     Node 13, Type 0, BuildingBlock: XOMCOT_clean_sbu_0, # of connection points: 5
#     Node 14, Type 0, BuildingBlock: XOMCOT_clean_sbu_0, # of connection points: 5
#     Node 15, Type 0, BuildingBlock: XOMCOT_clean_sbu_0, # of connection points: 5
#     Node 16, Type 0, BuildingBlock: XOMCOT_clean_sbu_0, # of connection points: 5
#     Node 17, Type 0, BuildingBlock: XOMCOT_clean_sbu_0, # of connection points: 5
#     Node 18, Type 0, BuildingBlock: XOMCOT_clean_sbu_0, # of connection points: 5
#     Node 19, Type 0, BuildingBlock: XOMCOT_clean_sbu_0, # of connection points: 5
#     Node 20, Type 0, BuildingBlock: XOMCOT_clean_sbu_0, # of connection points: 5
#     Node 21, Type 0, BuildingBlock: XOMCOT_clean_sbu_0, # of connection points: 5
#     Node 22, Type 0, BuildingBlock: XOMCOT_clean_sbu_0, # of connection points: 5
#     Node 23, Type 0, BuildingBlock: XOMCOT_clean_sbu_0, # of connection points: 5
#     Node 24, Type 0, BuildingBlock: XOMCOT_clean_sbu_0, # of connection points: 5
#     Node 25, Type 0, BuildingBlock: XOMCOT_clean_sbu_0, # of connection points: 5
#     Node 26, Type 0, BuildingBlock: XOMCOT_clean_sbu_0, # of connection points: 5
#     Node 27, Type 0, BuildingBlock: XOMCOT_clean_sbu_0, # of connection points: 5
#     Node 28, Type 0, BuildingBlock: XOMCOT_clean_sbu_0, # of connection points: 5
#     Node 29, Type 0, BuildingBlock: XOMCOT_clean_sbu_0, # of connection points: 5
#     Node 30, Type 0, BuildingBlock: XOMCOT_clean_sbu_0, # of connection points: 5
#     Node 31, Type 0, BuildingBlock: XOMCOT_clean_sbu_0, # of connection points: 5
#     Edge 32, Type (0, 0), BuildingBlock: KIFKEQ_clean_linker_1, # of connection points: 2
#     Edge 33, Type (0, 0), BuildingBlock: KIFKEQ_clean_linker_1, # of connection points: 2
#     Edge 34, Type (0, 0), BuildingBlock: KIFKEQ_clean_linker_1, # of connection points: 2
#     Edge 35, Type (0, 0), BuildingBlock: KIFKEQ_clean_linker_1, # of connection points: 2
#     Edge 36, Type (0, 0), BuildingBlock: KIFKEQ_clean_linker_1, # of connection points: 2
#     Edge 37, Type (0, 0), BuildingBlock: KIFKEQ_clean_linker_1, # of connection points: 2
#     Edge 38, Type (0, 0), BuildingBlock: KIFKEQ_clean_linker_1, # of connection points: 2
#     Edge 39, Type (0, 0), BuildingBlock: KIFKEQ_clean_linker_1, # of connection points: 2
#     Edge 40, Type (0, 0), BuildingBlock: KIFKEQ_clean_linker_1, # of connection points: 2
#     Edge 41, Type (0, 0), BuildingBlock: KIFKEQ_clean_linker_1, # of connection points: 2
#     Edge 42, Type (0, 0), BuildingBlock: KIFKEQ_clean_linker_1, # of connection points: 2
#     Edge 43, Type (0, 0), BuildingBlock: KIFKEQ_clean_linker_1, # of connection points: 2
#     Edge 44, Type (0, 0), BuildingBlock: KIFKEQ_clean_linker_1, # of connection points: 2
#     Edge 45, Type (0, 0), BuildingBlock: KIFKEQ_clean_linker_1, # of connection points: 2
#     Edge 46, Type (0, 0), BuildingBlock: KIFKEQ_clean_linker_1, # of connection points: 2
#     Edge 47, Type (0, 0), BuildingBlock: KIFKEQ_clean_linker_1, # of connection points: 2
#     Edge 48, Type (0, 0), BuildingBlock: KIFKEQ_clean_linker_1, # of connection points: 2
#     Edge 49, Type (0, 0), BuildingBlock: KIFKEQ_clean_linker_1, # of connection points: 2
#     Edge 50, Type (0, 0), BuildingBlock: KIFKEQ_clean_linker_1, # of connection points: 2
#     Edge 51, Type (0, 0), BuildingBlock: KIFKEQ_clean_linker_1, # of connection points: 2
#     Edge 52, Type (0, 0), BuildingBlock: KIFKEQ_clean_linker_1, # of connection points: 2
#     Edge 53, Type (0, 0), BuildingBlock: KIFKEQ_clean_linker_1, # of connection points: 2
#     Edge 54, Type (0, 0), BuildingBlock: KIFKEQ_clean_linker_1, # of connection points: 2
#     Edge 55, Type (0, 0), BuildingBlock: KIFKEQ_clean_linker_1, # of connection points: 2
#     Edge 56, Type (0, 0), BuildingBlock: KIFKEQ_clean_linker_1, # of connection points: 2
#     Edge 57, Type (0, 0), BuildingBlock: KIFKEQ_clean_linker_1, # of connection points: 2
#     Edge 58, Type (0, 0), BuildingBlock: KIFKEQ_clean_linker_1, # of connection points: 2
#     Edge 59, Type (0, 0), BuildingBlock: KIFKEQ_clean_linker_1, # of connection points: 2
#     Edge 60, Type (0, 0), BuildingBlock: KIFKEQ_clean_linker_1, # of connection points: 2
#     Edge 61, Type (0, 0), BuildingBlock: KIFKEQ_clean_linker_1, # of connection points: 2
#     Edge 62, Type (0, 0), BuildingBlock: KIFKEQ_clean_linker_1, # of connection points: 2
#     Edge 63, Type (0, 0), BuildingBlock: KIFKEQ_clean_linker_1, # of connection points: 2
#     Edge 64, Type (0, 0), BuildingBlock: KIFKEQ_clean_linker_1, # of connection points: 2
#     Edge 65, Type (0, 0), BuildingBlock: KIFKEQ_clean_linker_1, # of connection points: 2
#     Edge 66, Type (0, 0), BuildingBlock: KIFKEQ_clean_linker_1, # of connection points: 2
#     Edge 67, Type (0, 0), BuildingBlock: KIFKEQ_clean_linker_1, # of connection points: 2
#     Edge 68, Type (0, 0), BuildingBlock: KIFKEQ_clean_linker_1, # of connection points: 2
#     Edge 69, Type (0, 0), BuildingBlock: KIFKEQ_clean_linker_1, # of connection points: 2
#     Edge 70, Type (0, 0), BuildingBlock: KIFKEQ_clean_linker_1, # of connection points: 2
#     Edge 71, Type (0, 0), BuildingBlock: KIFKEQ_clean_linker_1, # of connection points: 2
#     Edge 72, Type (0, 0), BuildingBlock: KIFKEQ_clean_linker_1, # of connection points: 2
#     Edge 73, Type (0, 0), BuildingBlock: KIFKEQ_clean_linker_1, # of connection points: 2
#     Edge 74, Type (0, 0), BuildingBlock: KIFKEQ_clean_linker_1, # of connection points: 2
#     Edge 75, Type (0, 0), BuildingBlock: KIFKEQ_clean_linker_1, # of connection points: 2
#     Edge 76, Type (0, 0), BuildingBlock: KIFKEQ_clean_linker_1, # of connection points: 2
#     Edge 77, Type (0, 0), BuildingBlock: KIFKEQ_clean_linker_1, # of connection points: 2
#     Edge 78, Type (0, 0), BuildingBlock: KIFKEQ_clean_linker_1, # of connection points: 2
#     Edge 79, Type (0, 0), BuildingBlock: KIFKEQ_clean_linker_1, # of connection points: 2
#     Edge 80, Type (0, 0), BuildingBlock: KIFKEQ_clean_linker_1, # of connection points: 2
#     Edge 81, Type (0, 0), BuildingBlock: KIFKEQ_clean_linker_1, # of connection points: 2
#     Edge 82, Type (0, 0), BuildingBlock: KIFKEQ_clean_linker_1, # of connection points: 2
#     Edge 83, Type (0, 0), BuildingBlock: KIFKEQ_clean_linker_1, # of connection points: 2
#     Edge 84, Type (0, 0), BuildingBlock: KIFKEQ_clean_linker_1, # of connection points: 2
#     Edge 85, Type (0, 0), BuildingBlock: KIFKEQ_clean_linker_1, # of connection points: 2
#     Edge 86, Type (0, 0), BuildingBlock: KIFKEQ_clean_linker_1, # of connection points: 2
#     Edge 87, Type (0, 0), BuildingBlock: KIFKEQ_clean_linker_1, # of connection points: 2
#     Edge 88, Type (0, 0), BuildingBlock: KIFKEQ_clean_linker_1, # of connection points: 2
#     Edge 89, Type (0, 0), BuildingBlock: KIFKEQ_clean_linker_1, # of connection points: 2
#     Edge 90, Type (0, 0), BuildingBlock: KIFKEQ_clean_linker_1, # of connection points: 2
#     Edge 91, Type (0, 0), BuildingBlock: KIFKEQ_clean_linker_1, # of connection points: 2
#     Edge 92, Type (0, 0), BuildingBlock: KIFKEQ_clean_linker_1, # of connection points: 2
#     Edge 93, Type (0, 0), BuildingBlock: KIFKEQ_clean_linker_1, # of connection points: 2
#     Edge 94, Type (0, 0), BuildingBlock: KIFKEQ_clean_linker_1, # of connection points: 2
#     Edge 95, Type (0, 0), BuildingBlock: KIFKEQ_clean_linker_1, # of connection points: 2
#     Edge 96, Type (0, 0), BuildingBlock: KIFKEQ_clean_linker_1, # of connection points: 2
#     Edge 97, Type (0, 0), BuildingBlock: KIFKEQ_clean_linker_1, # of connection points: 2
#     Edge 98, Type (0, 0), BuildingBlock: KIFKEQ_clean_linker_1, # of connection points: 2
#     Edge 99, Type (0, 0), BuildingBlock: KIFKEQ_clean_linker_1, # of connection points: 2
#     Edge 100, Type (0, 0), BuildingBlock: KIFKEQ_clean_linker_1, # of connection points: 2
#     Edge 101, Type (0, 0), BuildingBlock: KIFKEQ_clean_linker_1, # of connection points: 2
#     Edge 102, Type (0, 0), BuildingBlock: KIFKEQ_clean_linker_1, # of connection points: 2
#     Edge 103, Type (0, 0), BuildingBlock: KIFKEQ_clean_linker_1, # of connection points: 2
#     Edge 104, Type (0, 0), BuildingBlock: KIFKEQ_clean_linker_1, # of connection points: 2
#     Edge 105, Type (0, 0), BuildingBlock: KIFKEQ_clean_linker_1, # of connection points: 2
#     Edge 106, Type (0, 0), BuildingBlock: KIFKEQ_clean_linker_1, # of connection points: 2
#     Edge 107, Type (0, 0), BuildingBlock: KIFKEQ_clean_linker_1, # of connection points: 2
#     Edge 108, Type (0, 0), BuildingBlock: KIFKEQ_clean_linker_1, # of connection points: 2
#     Edge 109, Type (0, 0), BuildingBlock: KIFKEQ_clean_linker_1, # of connection points: 2
#     Edge 110, Type (0, 0), BuildingBlock: KIFKEQ_clean_linker_1, # of connection points: 2
#     Edge 111, Type (0, 0), BuildingBlock: KIFKEQ_clean_linker_1, # of connection points: 2
# Relax obj value: 0.050
# Max RMSD: 0.097
# Mean RMSD: 0.097
data_MOF--net-wgl--node1-XOMCOT_clean_sbu_0--edge1-KIFKEQ_clean_linker_1
_symmetry_space_group_name_H-M    P1
_symmetry_Int_Tables_number       1
_symmetry_cell_setting            triclinic
loop_
_symmetry_equiv_pos_as_xyz
'x, y, z'
_cell_length_a     58.145782
_cell_length_b     58.088239
_cell_length_c     52.903253
_cell_angle_alpha  90.020224
_cell_angle_beta   90.019213
_cell_angle_gamma 90.041042
loop_
_atom_site_label
_atom_site_type_symbol
_atom_site_fract_x
_atom_site_fract_y
_atom_site_fract_z
_atom_type_partial_charge
Co0 Co 0.30043 0.33698 0.14763 0.0
C1 C 0.32719 0.29188 0.14865 0.0
C2 C 0.29503 0.29081 0.12884 0.0
C3 C 0.3038 0.269 0.12948 0.0
N4 N 0.30966 0.30539 0.14051 0.0
N5 N 0.32393 0.26962 0.14197 0.0
H6 H 0.3413 0.29754 0.1603 0.0
H7 H 0.2785 0.29565 0.12111 0.0
C8 C 0.30009 0.33279 0.09196 0.0
O9 O 0.32057 0.32351 0.09458 0.0
N10 N 0.28938 0.36778 0.15427 0.0
C11 C 0.29882 0.38411 0.16903 0.0
C12 C 0.28541 0.4037 0.1675 0.0
C13 C 0.27043 0.37749 0.1441 0.0
N14 N 0.26756 0.39954 0.15174 0.0
C15 C 0.34896 0.34432 0.15311 0.0
C16 C 0.35413 0.37559 0.1142 0.0
C17 C 0.37368 0.36895 0.12799 0.0
C18 C 0.37067 0.3534 0.148 0.0
C19 C 0.3326 0.36622 0.12016 0.0
N20 N 0.33041 0.34976 0.13851 0.0
H21 H 0.347 0.33352 0.16949 0.0
H22 H 0.31767 0.37239 0.11009 0.0
H23 H 0.31449 0.38204 0.17981 0.0
H24 H 0.25892 0.36847 0.13144 0.0
O25 O 0.30632 0.33211 0.183 0.0
O26 O 0.27329 0.32416 0.16418 0.0
O27 O 0.28901 0.33958 0.11153 0.0
C28 C 0.28584 0.3234 0.18465 0.0
H29 H 0.29581 0.25372 0.12168 0.0
H30 H 0.2889 0.41989 0.17686 0.0
H31 H 0.35535 0.38794 0.09894 0.0
H32 H 0.38485 0.34874 0.16025 0.0
Co33 Co 0.94786 0.05076 0.39651 0.0
C34 C 0.98945 0.08102 0.39186 0.0
C35 C 0.98966 0.05212 0.36647 0.0
C36 C 1.00935 0.06462 0.36263 0.0
N37 N 0.97704 0.06247 0.3845 0.0
N38 N 1.00926 0.08277 0.37851 0.0
H39 H 0.98406 0.09297 0.40639 0.0
H40 H 0.98504 0.03631 0.35695 0.0
C41 C 0.92311 0.0424 0.3478 0.0
O42 O 0.90521 0.05305 0.35747 0.0
N43 N 0.91877 0.03732 0.40823 0.0
C44 C 0.90645 0.04217 0.42921 0.0
C45 C 0.88756 0.02782 0.43023 0.0
C46 C 0.90782 0.01895 0.39788 0.0
N47 N 0.88833 1.01329 0.41038 0.0
C48 C 0.92364 0.09251 0.40854 0.0
C49 C 0.92663 0.11252 0.36127 0.0
C50 C 0.91428 0.12392 0.38029 0.0
C51 C 0.91339 0.11387 0.40434 0.0
C52 C 0.9366 0.09106 0.36633 0.0
N53 N 0.93384 0.08065 0.38935 0.0
H54 H 0.92389 0.08593 0.42749 0.0
H55 H 0.94645 0.08277 0.3516 0.0
H56 H 0.91112 0.05446 0.44359 0.0
H57 H 0.91397 1.00981 0.38144 0.0
O58 O 0.95713 0.05667 0.43083 0.0
O59 O 0.964 0.02422 0.41007 0.0
O60 O 0.94126 0.03946 0.36109 0.0
C61 C 0.9664 0.03634 0.43069 0.0
H62 H 0.02301 0.06038 0.34952 0.0
H63 H 0.87458 0.02772 0.4449 0.0
H64 H 0.92824 0.11988 0.34255 0.0
H65 H 0.9051 0.1226 0.41997 0.0
Co66 Co 0.22976 0.6975 0.64165 0.0
C67 C 0.20312 0.74159 0.64282 0.0
C68 C 0.21177 0.73152 0.60501 0.0
C69 C 0.19894 0.75131 0.60387 0.0
N70 N 0.21436 0.72518 0.62941 0.0
N71 N 0.1936 0.75763 0.6276 0.0
H72 H 0.2015 0.74173 0.66317 0.0
H73 H 0.21833 0.72237 0.58885 0.0
C74 C 0.24301 0.67251 0.59403 0.0
O75 O 0.23546 0.65333 0.6043 0.0
N76 N 0.24578 0.67001 0.65383 0.0
C77 C 0.23918 0.65504 0.67192 0.0
C78 C 0.25473 0.63721 0.673 0.0
C79 C 0.26609 0.66158 0.64526 0.0
N80 N 0.27151 0.64112 0.65594 0.0
C81 C 0.18849 0.67353 0.65555 0.0
C82 C 0.17078 0.66767 0.60755 0.0
C83 C 0.15836 0.65913 0.62819 0.0
C84 C 0.16736 0.66248 0.65246 0.0
C85 C 0.19195 0.67857 0.6115 0.0
N86 N 0.20122 0.68045 0.63523 0.0
H87 H 0.19412 0.67712 0.67452 0.0
H88 H 0.20045 0.68582 0.59529 0.0
H89 H 0.2242 0.65661 0.68373 0.0
H90 H 0.27611 0.66966 0.63049 0.0
O91 O 0.22365 0.70658 0.67604 0.0
O92 O 0.25489 0.7163 0.65471 0.0
O93 O 0.24194 0.69149 0.60631 0.0
C94 C 0.24301 0.71769 0.67557 0.0
H95 H 0.19411 0.76056 0.58691 0.0
H96 H 0.25357 0.62233 0.68524 0.0
H97 H 0.16428 0.66591 0.58846 0.0
H98 H 0.15788 0.65713 0.66907 0.0
Co99 Co 0.58701 0.98398 0.89638 0.0
C100 C 0.54186 0.95712 0.89653 0.0
C101 C 0.54094 0.98949 0.87708 0.0
C102 C 0.51916 0.98054 0.87723 0.0
N103 N 0.55539 0.97488 0.88895 0.0
N104 N 0.5197 0.96025 0.88946 0.0
H105 H 0.54742 0.94281 0.90791 0.0
H106 H 0.54587 1.00604 0.86944 0.0
C107 C 0.58373 0.98273 0.84063 0.0
O108 O 0.57357 0.9627 0.84368 0.0
N109 N 0.6179 0.99465 0.90341 0.0
C110 C 0.63324 0.98547 0.91955 0.0
C111 C 0.65331 0.99812 0.91828 0.0
C112 C 0.62871 1.01278 0.89267 0.0
N113 N 0.6505 1.01531 0.90131 0.0
C114 C 0.59368 0.93572 0.90457 0.0
C115 C 0.62541 0.92847 0.86651 0.0
C116 C 0.61869 0.90982 0.88162 0.0
C117 C 0.60269 0.91375 0.90095 0.0
C118 C 0.61597 0.95029 0.87089 0.0
N119 N 0.5994 0.95348 0.88894 0.0
H120 H 0.58262 0.93853 0.92059 0.0
H121 H 0.62241 0.96468 0.86008 0.0
H122 H 0.63009 0.97056 0.9313 0.0
H123 H 0.62085 0.02363 0.87848 0.0
O124 O 0.58141 0.9797 0.93195 0.0
O125 O 0.57445 1.01199 0.91108 0.0
O126 O 0.59061 0.99408 0.85996 0.0
C127 C 0.57328 1.00049 0.93223 0.0
H128 H 0.50398 0.98846 0.8692 0.0
H129 H 0.6687 0.99494 0.92922 0.0
H130 H 0.63842 0.92641 0.85205 0.0
H131 H 0.59733 0.9 0.91345 0.0
Co132 Co 0.30154 0.69671 0.36241 0.0
C133 C 0.33089 0.7388 0.3674 0.0
C134 C 0.30358 0.73717 0.39472 0.0
C135 C 0.31569 0.75707 0.39864 0.0
N136 N 0.31322 0.72553 0.37542 0.0
N137 N 0.33281 0.75814 0.38153 0.0
H138 H 0.34193 0.73452 0.35162 0.0
H139 H 0.28833 0.73195 0.40489 0.0
C140 C 0.28902 0.67093 0.40969 0.0
O141 O 0.29748 0.65203 0.39971 0.0
N142 N 0.28818 0.66796 0.34994 0.0
C143 C 0.29682 0.65173 0.33436 0.0
C144 C 0.28172 0.63341 0.33339 0.0
C145 C 0.26743 0.65959 0.35716 0.0
N146 N 0.26334 0.63823 0.34802 0.0
C147 C 0.34501 0.67628 0.35066 0.0
C148 C 0.36227 0.67433 0.39927 0.0
C149 C 0.37627 0.66722 0.37917 0.0
C150 C 0.36732 0.66833 0.35464 0.0
C151 C 0.33998 0.68245 0.39439 0.0
N152 N 0.33115 0.68241 0.37037 0.0
H153 H 0.33933 0.67835 0.33143 0.0
H154 H 0.33034 0.68965 0.4099 0.0
H155 H 0.31295 0.65256 0.32447 0.0
H156 H 0.25618 0.66845 0.37022 0.0
O157 O 0.30867 0.70643 0.32858 0.0
O158 O 0.27563 0.71349 0.34771 0.0
O159 O 0.28898 0.68978 0.39723 0.0
C160 C 0.28868 0.71623 0.32784 0.0
H161 H 0.31169 0.77023 0.41246 0.0
H162 H 0.28434 0.61758 0.32299 0.0
H163 H 0.3688 0.67452 0.41844 0.0
H164 H 0.37761 0.66335 0.33847 0.0
Co165 Co 0.58552 0.04898 0.61089 0.0
C166 C 0.54452 0.08029 0.61437 0.0
C167 C 0.5417 0.04967 0.63698 0.0
C168 C 0.52226 0.06259 0.64051 0.0
N169 N 0.55581 0.06082 0.62094 0.0
N170 N 0.524 0.0818 0.62639 0.0
H171 H 0.55127 0.09314 0.60153 0.0
H172 H 0.54524 0.03311 0.64545 0.0
C173 C 0.60607 0.03958 0.66197 0.0
O174 O 0.62489 0.05037 0.65492 0.0
N175 N 0.6151 0.0353 0.60116 0.0
C176 C 0.6279 0.03925 0.58031 0.0
C177 C 0.64652 0.02454 0.58024 0.0
C178 C 0.62559 0.01719 0.61252 0.0
N179 N 0.64517 1.01071 0.60067 0.0
C180 C 0.61185 0.09003 0.60191 0.0
C181 C 0.60454 0.11036 0.64847 0.0
C182 C 0.61855 0.12165 0.63081 0.0
C183 C 0.62178 0.11136 0.60713 0.0
C184 C 0.595 0.08888 0.64247 0.0
N185 N 0.5996 0.07844 0.61981 0.0
H186 H 0.61348 0.08327 0.58312 0.0
H187 H 0.58385 0.08066 0.65609 0.0
H188 H 0.62371 0.05119 0.56539 0.0
H189 H 0.61855 1.00818 0.6286 0.0
O190 O 0.57844 0.05566 0.57605 0.0
O191 O 0.56986 0.02298 0.59555 0.0
O192 O 0.58942 0.03692 0.64643 0.0
C193 C 0.56875 0.03552 0.57512 0.0
H194 H 0.50773 0.05805 0.65229 0.0
H195 H 0.65991 0.02407 0.56605 0.0
H196 H 0.6012 0.11789 0.66683 0.0
H197 H 0.63156 0.11995 0.59247 0.0
Co198 Co 0.23301 0.33594 0.86071 0.0
C199 C 0.20504 0.29145 0.86142 0.0
C200 C 0.23957 0.28852 0.87531 0.0
C201 C 0.22995 0.26699 0.87508 0.0
N202 N 0.22411 0.30401 0.86675 0.0
N203 N 0.20832 0.26885 0.86639 0.0
H204 H 0.18938 0.2981 0.8534 0.0
H205 H 0.25699 0.29264 0.88088 0.0
C206 C 0.23392 0.32977 0.91617 0.0
O207 O 0.21386 0.31964 0.91343 0.0
N208 N 0.24354 0.36713 0.85504 0.0
C209 C 0.23364 0.38351 0.84075 0.0
C210 C 0.24646 0.40345 0.84281 0.0
C211 C 0.26227 0.37718 0.86542 0.0
N212 N 0.26448 0.39949 0.85838 0.0
C213 C 0.1846 0.34338 0.8547 0.0
C214 C 0.17848 0.37239 0.89552 0.0
C215 C 0.15926 0.36644 0.8808 0.0
C216 C 0.16274 0.35203 0.85987 0.0
C217 C 0.20017 0.36341 0.88952 0.0
N218 N 0.20281 0.34801 0.87015 0.0
H219 H 0.1869 0.33328 0.83779 0.0
H220 H 0.21485 0.36916 0.90031 0.0
H221 H 0.21809 0.38119 0.8298 0.0
H222 H 0.27376 0.36842 0.87831 0.0
O223 O 0.22732 0.3318 0.82515 0.0
O224 O 0.26041 0.32407 0.84388 0.0
O225 O 0.24445 0.33775 0.89679 0.0
C226 C 0.24794 0.32347 0.82337 0.0
H227 H 0.2382 0.25113 0.88084 0.0
H228 H 0.2428 0.41957 0.8334 0.0
H229 H 0.17687 0.38393 0.91149 0.0
H230 H 0.14882 0.34794 0.84703 0.0
Co231 Co 0.94921 0.98346 0.1168 0.0
C232 C 0.99125 0.95382 0.11845 0.0
C233 C 0.9869 0.97366 0.15237 0.0
C234 C 1.00647 0.96068 0.15479 0.0
N235 N 0.9771 0.9692 0.12976 0.0
N236 N 1.00923 0.94833 0.1335 0.0
H237 H 0.98854 0.94681 0.09973 0.0
H238 H 0.98062 0.98574 0.16625 0.0
C239 C 0.92368 0.99368 0.16464 0.0
O240 O 0.90541 0.98401 0.15452 0.0
N241 N 0.92156 0.99903 0.10406 0.0
C242 C 0.90962 0.99512 0.08259 0.0
C243 C 0.89157 1.01047 0.08115 0.0
C244 C 0.91129 0.01778 0.11437 0.0
N245 N 0.89245 0.02461 0.10136 0.0
C246 C 0.92253 0.94341 0.10378 0.0
C247 C 0.92356 0.92296 0.15093 0.0
C248 C 0.91162 0.91195 0.13134 0.0
C249 C 0.91153 0.92231 0.10742 0.0
C250 C 0.93432 0.94412 0.14645 0.0
N251 N 0.93278 0.95471 0.12339 0.0
H252 H 0.9235 0.95011 0.08491 0.0
H253 H 0.94395 0.95193 0.16165 0.0
H254 H 0.91388 0.98258 0.06833 0.0
H255 H 0.91772 0.02665 0.13086 0.0
O256 O 0.95886 0.97693 0.08273 0.0
O257 O 0.96782 1.00863 0.10394 0.0
O258 O 0.9423 0.99542 0.15189 0.0
C259 C 0.9698 0.99641 0.08334 0.0
H260 H 0.01821 0.96079 0.17069 0.0
H261 H 0.8787 1.01096 0.06639 0.0
H262 H 0.92445 0.91544 0.16963 0.0
H263 H 0.90348 0.91391 0.09141 0.0
Co264 Co 0.73223 0.69766 0.86386 0.0
C265 C 0.70126 0.73877 0.8639 0.0
C266 C 0.72054 0.73554 0.89837 0.0
C267 C 0.70669 0.75451 0.9003 0.0
N268 N 0.71701 0.7254 0.87572 0.0
N269 N 0.6947 0.75655 0.87871 0.0
H270 H 0.69468 0.73559 0.84508 0.0
H271 H 0.73246 0.72987 0.91269 0.0
C272 C 0.74364 0.67462 0.91347 0.0
O273 O 0.73476 0.65518 0.90529 0.0
N274 N 0.74866 0.67012 0.85247 0.0
C275 C 0.74472 0.65661 0.83217 0.0
C276 C 0.76092 0.63929 0.83156 0.0
C277 C 0.76805 0.66142 0.86296 0.0
N278 N 0.77553 0.64218 0.85112 0.0
C279 C 0.69264 0.67083 0.85049 0.0
C280 C 0.67193 0.6707 0.89749 0.0
C281 C 0.66089 0.65947 0.8774 0.0
C282 C 0.67147 0.65991 0.8536 0.0
C283 C 0.69323 0.68144 0.89352 0.0
N284 N 0.70389 0.68054 0.87046 0.0
H285 H 0.69933 0.67239 0.83166 0.0
H286 H 0.70085 0.69088 0.90898 0.0
H287 H 0.73157 0.65923 0.81813 0.0
H288 H 0.77685 0.6693 0.87873 0.0
O289 O 0.72612 0.7063 0.82927 0.0
O290 O 0.75712 0.71655 0.85089 0.0
O291 O 0.74414 0.69236 0.89919 0.0
C292 C 0.74535 0.71767 0.82993 0.0
H293 H 0.70584 0.7663 0.91613 0.0
H294 H 0.76164 0.62554 0.81779 0.0
H295 H 0.6642 0.67129 0.9161 0.0
H296 H 0.66307 0.65258 0.83718 0.0
Co297 Co 0.08649 0.98324 0.61431 0.0
C298 C 0.04561 0.95169 0.6171 0.0
C299 C 0.04286 0.98149 0.64102 0.0
C300 C 0.0234 0.96847 0.64399 0.0
N301 N 0.05697 0.97089 0.62454 0.0
N302 N 0.02509 0.94977 0.62903 0.0
H303 H 0.05226 0.93937 0.6036 0.0
H304 H 0.04633 0.99782 0.65005 0.0
C305 C 0.1066 0.99297 0.66547 0.0
O306 O 0.12545 0.98217 0.65862 0.0
N307 N 0.11572 0.99745 0.60422 0.0
C308 C 0.12768 0.99448 0.58258 0.0
C309 C 0.14602 1.00954 0.58217 0.0
C310 C 0.12635 1.01541 0.61574 0.0
N311 N 0.14527 0.02268 0.60317 0.0
C312 C 0.11549 0.94358 0.60707 0.0
C313 C 0.10512 0.92206 0.65226 0.0
C314 C 0.12067 0.91156 0.63568 0.0
C315 C 0.12578 0.92255 0.61284 0.0
C316 C 0.09558 0.94344 0.64599 0.0
N317 N 0.10126 0.95429 0.62387 0.0
H318 H 0.11843 0.95074 0.58868 0.0
H319 H 0.08346 0.95121 0.65891 0.0
H320 H 0.12303 0.98291 0.56743 0.0
H321 H 0.11975 0.0239 0.63236 0.0
O322 O 0.07941 0.97568 0.57974 0.0
O323 O 0.07037 1.00865 0.59841 0.0
O324 O 0.09018 0.99582 0.64968 0.0
C325 C 0.06932 0.9956 0.57835 0.0
H326 H 1.00884 0.97265 0.65588 0.0
H327 H 0.15873 1.01078 0.56731 0.0
H328 H 0.10042 0.91384 0.6699 0.0
H329 H 0.13704 0.91452 0.59911 0.0
Co330 Co 0.80098 0.33742 0.36156 0.0
C331 C 0.82799 0.29244 0.36185 0.0
C332 C 0.79576 0.29154 0.3815 0.0
C333 C 0.80469 0.26978 0.38141 0.0
N334 N 0.81034 0.30601 0.36959 0.0
N335 N 0.82488 0.27028 0.36903 0.0
H336 H 0.84208 0.29794 0.3501 0.0
H337 H 0.77916 0.29642 0.389 0.0
C338 C 0.79996 0.33456 0.41729 0.0
O339 O 0.82031 0.32488 0.41524 0.0
N340 N 0.78985 0.36803 0.35399 0.0
C341 C 0.79977 0.38437 0.33962 0.0
C342 C 0.78644 0.40403 0.34081 0.0
C343 C 0.77062 0.3778 0.36348 0.0
N344 N 0.7681 0.39988 0.35586 0.0
C345 C 0.84952 0.34479 0.35646 0.0
C346 C 0.85438 0.37672 0.3948 0.0
C347 C 0.87404 0.36975 0.38143 0.0
C348 C 0.87121 0.35387 0.36169 0.0
C349 C 0.83289 0.36728 0.38876 0.0
N350 N 0.83085 0.3505 0.37073 0.0
H351 H 0.84771 0.33373 0.34026 0.0
H352 H 0.81787 0.37366 0.39851 0.0
H353 H 0.81573 0.38226 0.32939 0.0
H354 H 0.75906 0.36906 0.37631 0.0
O355 O 0.8072 0.3318 0.32643 0.0
O356 O 0.77403 0.32413 0.34512 0.0
O357 O 0.78917 0.34092 0.39738 0.0
C358 C 0.78677 0.32296 0.32483 0.0
H359 H 0.79675 0.25459 0.38947 0.0
H360 H 0.79003 0.42012 0.33129 0.0
H361 H 0.85549 0.38937 0.40978 0.0
H362 H 0.88551 0.34894 0.34977 0.0
Co363 Co 0.44799 0.05139 0.11259 0.0
C364 C 0.48969 0.08123 0.11637 0.0
C365 C 0.48711 0.05714 0.14706 0.0
C366 C 0.50669 0.06998 0.15037 0.0
N367 N 0.47621 0.06438 0.126 0.0
N368 N 0.50832 0.08498 0.13109 0.0
H369 H 0.48607 0.09041 0.09902 0.0
H370 H 0.48163 0.04308 0.15898 0.0
C371 C 0.42202 0.04024 0.15987 0.0
O372 O 0.40351 0.04916 0.14955 0.0
N373 N 0.41997 0.03692 0.09931 0.0
C374 C 0.4077 0.0422 0.07842 0.0
C375 C 0.38928 0.02733 0.07648 0.0
C376 C 0.4096 0.01776 0.10855 0.0
N377 N 0.39033 1.01208 0.09564 0.0
C378 C 0.42251 0.09256 0.10131 0.0
C379 C 0.42374 0.11113 0.14939 0.0
C380 C 0.41202 0.12301 0.1303 0.0
C381 C 0.41185 0.11364 0.10591 0.0
C382 C 0.43408 0.08995 0.14396 0.0
N383 N 0.43236 0.08029 0.12042 0.0
H384 H 0.42353 0.08664 0.08213 0.0
H385 H 0.44364 0.08145 0.15876 0.0
H386 H 0.41199 0.05532 0.06482 0.0
H387 H 0.41581 1.0083 0.12474 0.0
O388 O 0.45785 0.05896 0.07896 0.0
O389 O 0.46586 0.02614 0.0984 0.0
O390 O 0.44085 0.03892 0.14743 0.0
C391 C 0.46833 0.03926 0.07851 0.0
H392 H 0.51927 0.06793 0.1653 0.0
H393 H 0.37632 0.02756 0.0618 0.0
H394 H 0.42475 0.11799 0.1684 0.0
H395 H 0.40396 0.12279 0.09031 0.0
Co396 Co 0.73039 0.33503 0.64534 0.0
C397 C 0.70073 0.29296 0.64581 0.0
C398 C 0.72827 0.29139 0.61874 0.0
C399 C 0.71741 0.27046 0.6191 0.0
N400 N 0.71789 0.30554 0.63539 0.0
N401 N 0.70018 0.27145 0.63605 0.0
H402 H 0.68993 0.29888 0.66114 0.0
H403 H 0.74362 0.29551 0.60817 0.0
C404 C 0.73838 0.35607 0.59403 0.0
O405 O 0.7279 0.37497 0.60136 0.0
N406 N 0.74456 0.36439 0.65507 0.0
C407 C 0.74123 0.37677 0.67637 0.0
C408 C 0.75576 0.39553 0.67628 0.0
C409 C 0.76221 0.37522 0.64324 0.0
N410 N 0.7689 0.39463 0.65533 0.0
C411 C 0.68988 0.36114 0.65695 0.0
C412 C 0.66827 0.35591 0.61077 0.0
C413 C 0.65778 0.3696 0.62933 0.0
C414 C 0.66866 0.37162 0.65287 0.0
C415 C 0.68961 0.34565 0.61572 0.0
N416 N 0.70078 0.34942 0.63812 0.0
H417 H 0.69716 0.36198 0.67557 0.0
H418 H 0.6972 0.33475 0.60143 0.0
H419 H 0.72991 0.37215 0.69171 0.0
H420 H 0.77034 0.36892 0.62625 0.0
O421 O 0.72511 0.3274 0.68033 0.0
O422 O 0.75681 0.31895 0.65897 0.0
O423 O 0.74119 0.33935 0.60942 0.0
C424 C 0.74511 0.31745 0.67994 0.0
H425 H 0.72236 0.25528 0.60854 0.0
H426 H 0.75704 0.40843 0.69099 0.0
H427 H 0.66027 0.35341 0.59248 0.0
H428 H 0.66067 0.38098 0.66824 0.0
Co429 Co 0.44586 0.9843 0.392 0.0
C430 C 0.49247 0.9617 0.39018 0.0
C431 C 0.47891 0.96879 0.35332 0.0
C432 C 0.50056 0.95995 0.35057 0.0
N433 N 0.47366 0.97018 0.37814 0.0
N434 N 0.50918 0.95564 0.37368 0.0
H435 H 0.49435 0.96064 0.41048 0.0
H436 H 0.46802 0.97395 0.33789 0.0
C437 C 0.41995 0.99843 0.34516 0.0
O438 O 0.40093 0.99023 0.35515 0.0
N439 N 0.4183 0.99933 0.40543 0.0
C440 C 0.40372 0.99202 0.42357 0.0
C441 C 0.38559 1.0072 0.4253 0.0
C442 C 0.40932 0.01964 0.39751 0.0
N443 N 0.3889 0.02443 0.4086 0.0
C444 C 0.42323 0.94227 0.40528 0.0
C445 C 0.41633 0.92524 0.35716 0.0
C446 C 0.40891 0.91217 0.37787 0.0
C447 C 0.41276 0.9209 0.40216 0.0
C448 C 0.42673 0.94671 0.36116 0.0
N449 N 0.42927 0.95555 0.38504 0.0
H450 H 0.42714 0.94766 0.42426 0.0
H451 H 0.43307 0.95578 0.34488 0.0
H452 H 0.40572 0.97678 0.43492 0.0
H453 H 0.41701 0.03012 0.3829 0.0
O454 O 0.45586 0.97714 0.42577 0.0
O455 O 0.46437 1.00944 0.40574 0.0
O456 O 0.43889 0.99753 0.35744 0.0
C457 C 0.46643 0.9968 0.426 0.0
H458 H 0.50938 0.95698 0.33285 0.0
H459 H 0.37093 1.00545 0.43775 0.0
H460 H 0.41417 0.91894 0.33804 0.0
H461 H 0.40834 0.91097 0.4188 0.0
Co462 Co 0.79972 0.6973 0.1473 0.0
C463 C 0.82661 0.74234 0.1472 0.0
C464 C 0.79605 0.74216 0.12453 0.0
C465 C 0.8048 0.76401 0.12447 0.0
N466 N 0.80973 0.7283 0.13842 0.0
N467 N 0.82394 0.76416 0.13873 0.0
H468 H 0.83967 0.73747 0.16061 0.0
H469 H 0.78005 0.73689 0.11584 0.0
C470 C 0.80179 0.69776 0.09141 0.0
O471 O 0.82211 0.70738 0.09421 0.0
N472 N 0.78792 0.66708 0.15553 0.0
C473 C 0.79703 0.65111 0.17099 0.0
C474 C 0.78346 0.63159 0.16995 0.0
C475 C 0.76892 0.65726 0.14555 0.0
N476 N 0.76578 0.63548 0.15391 0.0
C477 C 0.84785 0.69007 0.15611 0.0
C478 C 0.8546 0.65643 0.11993 0.0
C479 C 0.87339 0.66371 0.13452 0.0
C480 C 0.8697 0.68058 0.15299 0.0
C481 C 0.8329 0.66627 0.12388 0.0
N482 N 0.82997 0.68377 0.14091 0.0
H483 H 0.84525 0.70198 0.17143 0.0
H484 H 0.81842 0.65952 0.11346 0.0
H485 H 0.81262 0.65336 0.18189 0.0
H486 H 0.75798 0.66572 0.13186 0.0
O487 O 0.80385 0.70419 0.18263 0.0
O488 O 0.77204 0.71141 0.16103 0.0
O489 O 0.78994 0.69236 0.11093 0.0
C490 C 0.7834 0.71308 0.18224 0.0
H491 H 0.79739 0.77882 0.11511 0.0
H492 H 0.78643 0.61577 0.18023 0.0
H493 H 0.85649 0.64277 0.10615 0.0
H494 H 0.88357 0.68635 0.16512 0.0
Co495 Co 0.08804 0.04883 0.90008 0.0
C496 C 0.04299 0.07599 0.89842 0.0
C497 C 0.04121 0.04152 0.88407 0.0
C498 C 0.01952 0.05065 0.88359 0.0
N499 N 0.05612 0.05725 0.89332 0.0
N500 N 0.02065 0.07226 0.89258 0.0
H501 H 0.04899 0.09174 0.90685 0.0
H502 H 0.04585 0.02424 0.87844 0.0
C503 C 0.08309 0.04829 0.84464 0.0
O504 O 0.07284 0.06827 0.84758 0.0
N505 N 0.11914 0.03854 0.9064 0.0
C506 C 0.13555 0.04875 0.92042 0.0
C507 C 0.1554 0.03575 0.91877 0.0
C508 C 0.12903 0.01947 0.89667 0.0
N509 N 0.15127 0.01733 0.90381 0.0
C510 C 0.09438 0.09758 0.90547 0.0
C511 C 0.1262 0.10307 0.86725 0.0
C512 C 0.1194 0.12255 0.88113 0.0
C513 C 0.1032 0.11944 0.90048 0.0
C514 C 0.11654 0.08153 0.87257 0.0
N515 N 0.10003 0.07912 0.89079 0.0
H516 H 0.08343 0.09545 0.92173 0.0
H517 H 0.12289 0.06666 0.86249 0.0
H518 H 0.13334 0.06462 0.93083 0.0
H519 H 0.12021 1.00769 0.88413 0.0
O520 O 0.08344 0.05473 0.93544 0.0
O521 O 0.0762 0.02137 0.91688 0.0
O522 O 0.09061 0.03743 0.86401 0.0
C523 C 0.07541 0.03398 0.9373 0.0
H524 H 1.00405 0.04209 0.87713 0.0
H525 H 0.17157 0.03957 0.928 0.0
H526 H 0.13944 0.10421 0.85292 0.0
H527 H 0.09746 0.13369 0.91205 0.0
Co528 Co 0.80287 0.8358 0.64616 0.0
C529 C 0.83254 0.7937 0.64382 0.0
C530 C 0.8028 0.79197 0.61972 0.0
C531 C 0.81514 0.77205 0.61681 0.0
N532 N 0.81378 0.80568 0.63634 0.0
N533 N 0.83379 0.77311 0.63189 0.0
H534 H 0.84508 0.8 0.65729 0.0
H535 H 0.78675 0.79609 0.61046 0.0
C536 C 0.79254 0.85738 0.59579 0.0
O537 O 0.80298 0.87627 0.60327 0.0
N538 N 0.79026 0.86587 0.65542 0.0
C539 C 0.79776 0.88175 0.67213 0.0
C540 C 0.78289 0.90027 0.67195 0.0
C541 C 0.77038 0.87471 0.64622 0.0
N542 N 0.76572 0.89594 0.65543 0.0
C543 C 0.84641 0.85664 0.65687 0.0
C544 C 0.865 0.85341 0.60895 0.0
C545 C 0.87848 0.86256 0.62849 0.0
C546 C 0.8689 0.864 0.6527 0.0
C547 C 0.84254 0.8459 0.61407 0.0
N548 N 0.83304 0.84858 0.63759 0.0
H549 H 0.84021 0.8565 0.67602 0.0
H550 H 0.83317 0.83723 0.59925 0.0
H551 H 0.81266 0.88024 0.68408 0.0
H552 H 0.75946 0.86565 0.63299 0.0
O553 O 0.80899 0.82856 0.68101 0.0
O554 O 0.77612 0.8212 0.66152 0.0
O555 O 0.79093 0.8401 0.61065 0.0
C556 C 0.78857 0.81959 0.68197 0.0
H557 H 0.81059 0.75766 0.60479 0.0
H558 H 0.78488 0.91587 0.68291 0.0
H559 H 0.87205 0.85126 0.59015 0.0
H560 H 0.87883 0.87054 0.66848 0.0
Co561 Co 0.44562 0.55063 0.89482 0.0
C562 C 0.48877 0.57847 0.88908 0.0
C563 C 0.48742 0.54872 0.86494 0.0
C564 C 0.50779 0.55992 0.8607 0.0
N565 N 0.47534 0.56041 0.88243 0.0
N566 N 0.50869 0.5786 0.87579 0.0
H567 H 0.48409 0.59115 0.90317 0.0
H568 H 0.48202 0.5328 0.85618 0.0
C569 C 0.42085 0.54086 0.84639 0.0
O570 O 0.40323 0.55233 0.85551 0.0
N571 N 0.41591 0.53901 0.90686 0.0
C572 C 0.40291 0.54581 0.92664 0.0
C573 C 0.38377 0.53181 0.92826 0.0
C574 C 0.40501 0.52005 0.89786 0.0
N575 N 0.385 0.51566 0.90998 0.0
C576 C 0.42489 0.59439 0.90488 0.0
C577 C 0.4288 0.61255 0.8568 0.0
C578 C 0.41965 0.6263 0.87611 0.0
C579 C 0.41783 0.61693 0.90038 0.0
C580 C 0.43601 0.59005 0.86225 0.0
N581 N 0.43309 0.58081 0.88587 0.0
H582 H 0.42479 0.58838 0.92407 0.0
H583 H 0.44451 0.58032 0.84758 0.0
H584 H 0.40717 0.55928 0.93983 0.0
H585 H 0.41158 0.50964 0.88255 0.0
O586 O 0.45492 0.55806 0.92871 0.0
O587 O 0.46055 0.52418 0.91064 0.0
O588 O 0.43883 0.53787 0.85996 0.0
C589 C 0.46346 0.53751 0.93029 0.0
H590 H 0.52127 0.55435 0.84799 0.0
H591 H 0.3703 0.53313 0.94229 0.0
H592 H 0.43114 0.6194 0.83794 0.0
H593 H 0.41124 0.62706 0.91597 0.0
Co594 Co 0.73333 0.1986 0.14565 0.0
C595 C 0.70293 0.24137 0.14189 0.0
C596 C 0.73567 0.24387 0.12343 0.0
C597 C 0.72426 0.2642 0.11996 0.0
N598 N 0.72227 0.22921 0.13665 0.0
N599 N 0.7037 0.26265 0.13149 0.0
H600 H 0.68857 0.23518 0.15281 0.0
H601 H 0.75277 0.23992 0.11666 0.0
C602 C 0.73203 0.1995 0.0896 0.0
O603 O 0.71136 0.20842 0.09179 0.0
N604 N 0.74605 0.16877 0.15391 0.0
C605 C 0.73765 0.15276 0.16979 0.0
C606 C 0.75186 0.13372 0.16897 0.0
C607 C 0.7652 0.15939 0.14378 0.0
N608 N 0.7692 0.13786 0.15253 0.0
C609 C 0.68562 0.1893 0.15466 0.0
C610 C 0.67939 0.15741 0.11652 0.0
C611 C 0.66027 0.16411 0.13099 0.0
C612 C 0.66387 0.17982 0.15075 0.0
C613 C 0.701 0.16716 0.12135 0.0
N614 N 0.70358 0.18408 0.13911 0.0
H615 H 0.68803 0.20071 0.17052 0.0
H616 H 0.71561 0.16105 0.1107 0.0
H617 H 0.72211 0.15464 0.18082 0.0
H618 H 0.77599 0.16828 0.13028 0.0
O619 O 0.72898 0.20545 0.18097 0.0
O620 O 0.76056 0.21356 0.15934 0.0
O621 O 0.74349 0.19414 0.10941 0.0
C622 C 0.74918 0.21494 0.18054 0.0
H623 H 0.73069 0.27916 0.11002 0.0
H624 H 0.74922 0.11785 0.17927 0.0
H625 H 0.67777 0.1449 0.10147 0.0
H626 H 0.65009 0.18454 0.1635 0.0
Co627 Co 0.08494 0.48541 0.3932 0.0
C628 C 0.04323 0.45535 0.39237 0.0
C629 C 0.04651 0.47563 0.35862 0.0
C630 C 0.02708 0.46236 0.35655 0.0
N631 N 0.05688 0.47108 0.3809 0.0
N632 N 0.025 0.44975 0.37774 0.0
H633 H 0.04648 0.44816 0.4109 0.0
H634 H 0.05233 0.48795 0.34476 0.0
C635 C 0.10968 0.4952 0.34474 0.0
O636 O 0.12805 0.48565 0.35473 0.0
N637 N 0.11279 0.50107 0.40529 0.0
C638 C 0.12514 0.49712 0.42648 0.0
C639 C 0.14338 0.51227 0.4274 0.0
C640 C 0.123 0.51975 0.3947 0.0
N641 N 0.14216 0.5264 0.40723 0.0
C642 C 0.11164 0.44539 0.40601 0.0
C643 C 0.10995 0.42456 0.35908 0.0
C644 C 0.12203 0.41362 0.37862 0.0
C645 C 0.12243 0.4242 0.40244 0.0
C646 C 0.09935 0.44581 0.36352 0.0
N647 N 0.10124 0.4566 0.38646 0.0
H648 H 0.1109 0.45221 0.42485 0.0
H649 H 0.08953 0.45352 0.34841 0.0
H650 H 0.121 0.48471 0.44093 0.0
H651 H 0.1167 0.52828 0.37795 0.0
O652 O 0.07589 0.47897 0.42751 0.0
O653 O 0.06652 0.51061 0.40654 0.0
O654 O 0.09126 0.49717 0.35781 0.0
C655 C 0.06495 0.49843 0.42722 0.0
H656 H 1.01499 0.46242 0.34098 0.0
H657 H 0.15634 0.51303 0.44207 0.0
H658 H 0.10878 0.41687 0.34048 0.0
H659 H 0.13051 0.41588 0.41846 0.0
Co660 Co 0.80195 0.19581 0.86028 0.0
C661 C 0.82727 0.2417 0.86106 0.0
C662 C 0.79755 0.24005 0.88489 0.0
C663 C 0.8057 0.26213 0.88532 0.0
N664 N 0.81124 0.22686 0.8702 0.0
N665 N 0.82433 0.26321 0.87034 0.0
H666 H 0.83966 0.2377 0.84658 0.0
H667 H 0.78184 0.23425 0.89378 0.0
C668 C 0.80188 0.19515 0.91607 0.0
O669 O 0.82268 0.20388 0.91429 0.0
N670 N 0.79084 0.16557 0.85083 0.0
C671 C 0.80005 0.15071 0.83416 0.0
C672 C 0.78695 0.13085 0.83412 0.0
C673 C 0.77226 0.15474 0.8605 0.0
N674 N 0.76946 0.13337 0.85075 0.0
C675 C 0.85091 0.1899 0.85598 0.0
C676 C 0.85469 0.15335 0.88906 0.0
C677 C 0.87475 0.16194 0.87764 0.0
C678 C 0.87252 0.18044 0.86078 0.0
C679 C 0.83342 0.16359 0.88398 0.0
N680 N 0.83182 0.18233 0.86844 0.0
H681 H 0.84951 0.20274 0.84148 0.0
H682 H 0.81814 0.15621 0.89233 0.0
H683 H 0.81534 0.15396 0.82309 0.0
H684 H 0.76133 0.16221 0.87485 0.0
O685 O 0.80802 0.20314 0.82555 0.0
O686 O 0.77488 0.2097 0.84491 0.0
O687 O 0.79048 0.1905 0.89597 0.0
C688 C 0.78744 0.21173 0.82456 0.0
H689 H 0.79815 0.27649 0.8954 0.0
H690 H 0.79011 0.11578 0.82262 0.0
H691 H 0.85525 0.13845 0.90134 0.0
H692 H 0.88729 0.18756 0.85109 0.0
Co693 Co 0.08663 0.55137 0.11186 0.0
C694 C 0.04457 0.58078 0.11451 0.0
C695 C 0.04505 0.55415 0.14272 0.0
C696 C 0.02515 0.56658 0.14552 0.0
N697 N 0.05737 0.56317 0.12353 0.0
N698 N 0.02489 0.58318 0.12782 0.0
H699 H 0.04947 0.5915 0.09867 0.0
H700 H 0.04995 0.53928 0.15374 0.0
C701 C 0.11058 0.5427 0.16097 0.0
O702 O 0.12849 0.55363 0.1517 0.0
N703 N 0.11578 0.53794 0.10043 0.0
C704 C 0.12805 0.5423 0.07928 0.0
C705 C 0.14674 0.52768 0.07839 0.0
C706 C 0.12658 0.51967 0.11107 0.0
N707 N 0.14593 0.51357 0.0986 0.0
C708 C 0.11083 0.5931 0.10057 0.0
C709 C 0.10518 0.61406 0.14706 0.0
C710 C 0.11623 0.62623 0.12767 0.0
C711 C 0.11902 0.6154 0.10422 0.0
C712 C 0.09707 0.5917 0.14251 0.0
N713 N 0.10065 0.58113 0.11969 0.0
H714 H 0.11176 0.58602 0.08187 0.0
H715 H 0.08743 0.58312 0.1572 0.0
H716 H 0.12348 0.55447 0.06474 0.0
H717 H 0.12004 0.51042 0.12725 0.0
O718 O 0.07791 0.55807 0.07765 0.0
O719 O 0.0705 0.52515 0.0971 0.0
O720 O 0.0927 0.53954 0.14727 0.0
C721 C 0.06841 0.53789 0.07687 0.0
H722 H 1.01163 0.56345 0.15916 0.0
H723 H 0.15986 0.52752 0.0639 0.0
H724 H 0.10213 0.62201 0.16528 0.0
H725 H 0.12725 0.62418 0.08859 0.0
Co726 Co 0.73266 0.8377 0.3624 0.0
C727 C 0.70509 0.79314 0.362 0.0
C728 C 0.73534 0.79262 0.38515 0.0
C729 C 0.72631 0.77088 0.38469 0.0
N730 N 0.72197 0.80689 0.37136 0.0
N731 N 0.70736 0.77118 0.37015 0.0
H732 H 0.69251 0.79823 0.34815 0.0
H733 H 0.75143 0.79746 0.39392 0.0
C734 C 0.73229 0.83695 0.4182 0.0
O735 O 0.71147 0.82838 0.41584 0.0
N736 N 0.74506 0.86766 0.35391 0.0
C737 C 0.73608 0.88362 0.33835 0.0
C738 C 0.74969 0.9031 0.3394 0.0
C739 C 0.76406 0.87746 0.36397 0.0
N740 N 0.76728 0.89923 0.35557 0.0
C741 C 0.68445 0.84642 0.3564 0.0
C742 C 0.68105 0.8819 0.39102 0.0
C743 C 0.66148 0.87556 0.37717 0.0
C744 C 0.66341 0.85748 0.35977 0.0
C745 C 0.70188 0.87034 0.387 0.0
N746 N 0.70323 0.85223 0.37047 0.0
H747 H 0.68579 0.83398 0.34145 0.0
H748 H 0.71707 0.87645 0.39666 0.0
H749 H 0.72047 0.88143 0.32748 0.0
H750 H 0.77488 0.86906 0.37781 0.0
O751 O 0.72665 0.83132 0.32739 0.0
O752 O 0.75925 0.82287 0.34684 0.0
O753 O 0.74396 0.8419 0.39839 0.0
C754 C 0.74673 0.82169 0.32637 0.0
H755 H 0.7335 0.75579 0.39372 0.0
H756 H 0.74677 0.91892 0.32909 0.0
H757 H 0.68055 0.8963 0.40401 0.0
H758 H 0.64888 0.85224 0.34831 0.0
Co759 Co 0.44678 0.48562 0.61334 0.0
C760 C 0.48896 0.45649 0.61576 0.0
C761 C 0.48928 0.48468 0.64212 0.0
C762 C 0.51033 0.47407 0.64289 0.0
N763 N 0.47589 0.47374 0.62516 0.0
N764 N 0.51012 0.45645 0.62635 0.0
H765 H 0.4837 0.44527 0.60047 0.0
H766 H 0.48459 0.50019 0.65215 0.0
C767 C 0.42249 0.4953 0.66189 0.0
O768 O 0.40442 0.48499 0.65211 0.0
N769 N 0.41788 0.49933 0.60166 0.0
C770 C 0.40497 0.49421 0.58118 0.0
C771 C 0.38672 0.50932 0.57987 0.0
C772 C 0.40798 0.51853 0.61135 0.0
N773 N 0.38855 0.52455 0.59898 0.0
C774 C 0.42203 0.44401 0.60256 0.0
C775 C 0.42515 0.42466 0.65014 0.0
C776 C 0.41272 0.41301 0.63134 0.0
C777 C 0.41175 0.42275 0.60715 0.0
C778 C 0.43519 0.44604 0.64468 0.0
N779 N 0.43238 0.45612 0.62149 0.0
H780 H 0.42227 0.45026 0.58349 0.0
H781 H 0.4452 0.4545 0.65919 0.0
H782 H 0.40883 0.48122 0.56727 0.0
H783 H 0.41482 0.52797 0.62726 0.0
O784 O 0.45549 0.47853 0.57919 0.0
O785 O 0.46324 0.51153 0.59835 0.0
O786 O 0.44076 0.49779 0.64865 0.0
C787 C 0.46529 0.49857 0.57828 0.0
H788 H 0.52505 0.47944 0.65397 0.0
H789 H 0.37346 0.50942 0.56551 0.0
H790 H 0.42687 0.4175 0.66895 0.0
H791 H 0.40346 0.4138 0.59166 0.0
Co792 Co 0.23233 0.19899 0.36468 0.0
C793 C 0.2047 0.2423 0.36629 0.0
C794 C 0.23179 0.24121 0.39394 0.0
C795 C 0.22199 0.26264 0.39458 0.0
N796 N 0.22103 0.22843 0.37626 0.0
N797 N 0.20508 0.26335 0.37722 0.0
H798 H 0.19387 0.23765 0.35044 0.0
H799 H 0.2467 0.23582 0.40461 0.0
C800 C 0.2415 0.17406 0.41318 0.0
O801 O 0.23125 0.15594 0.40341 0.0
N802 N 0.24543 0.16966 0.35355 0.0
C803 C 0.23841 0.15487 0.33544 0.0
C804 C 0.2533 0.13639 0.33472 0.0
C805 C 0.26518 0.16038 0.36256 0.0
N806 N 0.27007 0.13976 0.35197 0.0
C807 C 0.18917 0.1782 0.35162 0.0
C808 C 0.16976 0.1789 0.39927 0.0
C809 C 0.1568 0.17024 0.37904 0.0
C810 C 0.16678 0.17015 0.35495 0.0
C811 C 0.19213 0.18708 0.395 0.0
N812 N 0.20209 0.18556 0.3716 0.0
H813 H 0.19565 0.17941 0.33263 0.0
H814 H 0.20112 0.19521 0.41047 0.0
H815 H 0.22391 0.15717 0.32307 0.0
H816 H 0.27549 0.16834 0.37716 0.0
O817 O 0.22693 0.20801 0.33014 0.0
O818 O 0.25917 0.21482 0.35112 0.0
O819 O 0.24351 0.19252 0.40019 0.0
C820 C 0.24722 0.21729 0.33041 0.0
H821 H 0.22746 0.27698 0.40622 0.0
H822 H 0.25193 0.12171 0.32222 0.0
H823 H 0.1624 0.18009 0.41803 0.0
H824 H 0.15728 0.16406 0.33864 0.0
Co825 Co 0.58491 0.48405 0.11349 0.0
C826 C 0.54271 0.45484 0.1151 0.0
C827 C 0.54502 0.47786 0.14681 0.0
C828 C 0.52537 0.46497 0.14931 0.0
N829 N 0.5561 0.47134 0.12557 0.0
N830 N 0.52392 0.45064 0.1294 0.0
H831 H 0.54662 0.44605 0.09758 0.0
H832 H 0.55058 0.49125 0.15958 0.0
C833 C 0.60965 0.49287 0.16223 0.0
O834 O 0.62762 0.48233 0.15257 0.0
N835 N 0.61363 0.49813 0.10158 0.0
C836 C 0.62575 0.49356 0.08039 0.0
C837 C 0.64455 0.508 0.07929 0.0
C838 C 0.6246 0.51643 0.11203 0.0
N839 N 0.64393 0.5223 0.09935 0.0
C840 C 0.60906 0.4425 0.10092 0.0
C841 C 0.60518 0.42149 0.14759 0.0
C842 C 0.61557 0.40938 0.12773 0.0
C843 C 0.61746 0.42023 0.10419 0.0
C844 C 0.59684 0.44379 0.14343 0.0
N845 N 0.59957 0.45444 0.12052 0.0
H846 H 0.6092 0.44956 0.08219 0.0
H847 H 0.58763 0.45222 0.15854 0.0
H848 H 0.62101 0.48134 0.06595 0.0
H849 H 0.61863 0.52536 0.12868 0.0
O850 O 0.57575 0.47786 0.07918 0.0
O851 O 0.56794 0.51012 0.09979 0.0
O852 O 0.59148 0.49565 0.1489 0.0
C853 C 0.56587 0.49787 0.0792 0.0
H854 H 0.51275 0.46638 0.16429 0.0
H855 H 0.65738 0.50829 0.06448 0.0
H856 H 0.60276 0.41351 0.1659 0.0
H857 H 0.62511 0.41147 0.08819 0.0
Co858 Co 0.30146 0.83531 0.8598 0.0
C859 C 0.33239 0.79409 0.86291 0.0
C860 C 0.30258 0.79186 0.88684 0.0
C861 C 0.31537 0.77229 0.89005 0.0
N862 N 0.31332 0.80568 0.87016 0.0
N863 N 0.33407 0.77365 0.87509 0.0
H864 H 0.34479 0.80052 0.84939 0.0
H865 H 0.28635 0.79564 0.89587 0.0
C866 C 0.29279 0.8563 0.91112 0.0
O867 O 0.3037 0.87507 0.90411 0.0
N868 N 0.28798 0.86487 0.84966 0.0
C869 C 0.29178 0.87696 0.82825 0.0
C870 C 0.27777 0.89608 0.82802 0.0
C871 C 0.27055 0.87627 0.86123 0.0
N872 N 0.26447 0.89573 0.84887 0.0
C873 C 0.34242 0.8612 0.84936 0.0
C874 C 0.36308 0.85583 0.89603 0.0
C875 C 0.37392 0.86965 0.87783 0.0
C876 C 0.36354 0.87173 0.85404 0.0
C877 C 0.34183 0.84557 0.8905 0.0
N878 N 0.33111 0.84942 0.86784 0.0
H879 H 0.33552 0.86214 0.83057 0.0
H880 H 0.3339 0.83466 0.90457 0.0
H881 H 0.30311 0.87192 0.81309 0.0
H882 H 0.26213 0.87034 0.8782 0.0
O883 O 0.30749 0.82759 0.82495 0.0
O884 O 0.27513 0.81959 0.84527 0.0
O885 O 0.28988 0.83973 0.89551 0.0
C886 C 0.28725 0.81812 0.82458 0.0
H887 H 0.31104 0.75788 0.90213 0.0
H888 H 0.27693 0.90885 0.81315 0.0
H889 H 0.3707 0.85329 0.9145 0.0
H890 H 0.37182 0.88123 0.83895 0.0
Co891 Co 0.94371 0.54935 0.61107 0.0
C892 C 0.9882 0.57514 0.6138 0.0
C893 C 0.98641 0.54618 0.63902 0.0
C894 C 1.00813 0.55521 0.64025 0.0
N895 N 0.97387 0.5586 0.62253 0.0
N896 N 1.00933 0.57326 0.62433 0.0
H897 H 0.9837 0.58734 0.59915 0.0
H898 H 0.98057 0.5308 0.64856 0.0
C899 C 0.91942 0.53774 0.65949 0.0
O900 O 0.90078 0.54761 0.65058 0.0
N901 N 0.91361 0.53822 0.60006 0.0
C902 C 0.8974 0.54807 0.58536 0.0
C903 C 0.87837 0.53388 0.58456 0.0
C904 C 0.90445 0.51772 0.60696 0.0
N905 N 0.88271 0.51487 0.5984 0.0
C906 C 0.92569 0.59425 0.60122 0.0
C907 C 0.9263 0.6107 0.65021 0.0
C908 C 0.9189 0.62531 0.63074 0.0
C909 C 0.91881 0.61679 0.606 0.0
C910 C 0.93334 0.58817 0.6445 0.0
N911 N 0.9319 0.57976 0.62035 0.0
H912 H 0.92667 0.58879 0.58181 0.0
H913 H 0.94065 0.5779 0.65946 0.0
H914 H 0.8988 0.56435 0.5758 0.0
H915 H 0.91318 0.50564 0.61921 0.0
O916 O 0.95222 0.55642 0.57684 0.0
O917 O 0.95789 0.5226 0.59487 0.0
O918 O 0.93767 0.53665 0.64605 0.0
C919 C 0.96054 0.53581 0.57511 0.0
H920 H 0.02222 0.5486 0.65148 0.0
H921 H 0.86249 0.53745 0.57466 0.0
H922 H 0.92739 0.61687 0.66949 0.0
H923 H 0.91356 0.62753 0.59029 0.0
Co924 Co 0.23484 0.83659 0.14524 0.0
C925 C 0.20497 0.79339 0.14208 0.0
C926 C 0.23823 0.79066 0.12484 0.0
C927 C 0.22703 0.77013 0.12168 0.0
N928 N 0.22438 0.80555 0.13713 0.0
N929 N 0.20615 0.77184 0.13245 0.0
H930 H 0.19021 0.79979 0.15217 0.0
H931 H 0.25544 0.7946 0.11841 0.0
C932 C 0.23396 0.83414 0.08927 0.0
O933 O 0.21349 0.82481 0.09188 0.0
N934 N 0.24691 0.86687 0.15275 0.0
C935 C 0.23789 0.88307 0.16799 0.0
C936 C 0.25145 0.90257 0.16653 0.0
C937 C 0.26585 0.87655 0.14246 0.0
N938 N 0.26904 0.89845 0.15044 0.0
C939 C 0.18691 0.84539 0.15341 0.0
C940 C 0.18069 0.87665 0.11468 0.0
C941 C 0.16156 0.87013 0.12923 0.0
C942 C 0.16513 0.85468 0.14922 0.0
C943 C 0.2023 0.86701 0.1197 0.0
N944 N 0.20492 0.85044 0.13786 0.0
H945 H 0.1893 0.83432 0.16955 0.0
H946 H 0.21693 0.87301 0.10898 0.0
H947 H 0.22237 0.88099 0.17902 0.0
H948 H 0.2767 0.8679 0.12884 0.0
O949 O 0.23015 0.83065 0.18073 0.0
O950 O 0.26215 0.82252 0.15995 0.0
O951 O 0.24534 0.84027 0.10889 0.0
C952 C 0.25051 0.82156 0.18102 0.0
H953 H 0.23379 0.75497 0.11237 0.0
H954 H 0.24854 0.91852 0.17659 0.0
H955 H 0.17904 0.889 0.09947 0.0
H956 H 0.1513 0.8501 0.16198 0.0
Co957 Co 0.94913 0.48288 0.8923 0.0
C958 C 0.99015 0.45203 0.8912 0.0
C959 C 0.98863 0.47465 0.85912 0.0
C960 C 1.00792 0.46121 0.85693 0.0
N961 N 0.97727 0.46872 0.88036 0.0
N962 N 1.00889 0.44712 0.87708 0.0
H963 H 0.98601 0.44374 0.90894 0.0
H964 H 0.98369 0.48822 0.84629 0.0
C965 C 0.92401 0.49469 0.84455 0.0
O966 O 0.90502 0.48705 0.85509 0.0
N967 N 0.9212 0.49837 0.90398 0.0
C968 C 0.90586 0.4921 0.92183 0.0
C969 C 0.88848 0.50821 0.92274 0.0
C970 C 0.9134 0.51889 0.89534 0.0
N971 N 0.89306 0.52496 0.90581 0.0
C972 C 0.9247 0.44153 0.90526 0.0
C973 C 0.92229 0.42326 0.85712 0.0
C974 C 0.91186 0.4113 0.87707 0.0
C975 C 0.91364 0.4205 0.90148 0.0
C976 C 0.93318 0.44434 0.86179 0.0
N977 N 0.93303 0.45399 0.88541 0.0
H978 H 0.92719 0.44734 0.92438 0.0
H979 H 0.94202 0.45265 0.84635 0.0
H980 H 0.90689 0.4771 0.93369 0.0
H981 H 0.92232 0.52898 0.88124 0.0
O982 O 0.95791 0.47673 0.92674 0.0
O983 O 0.96725 0.50832 0.90568 0.0
O984 O 0.94301 0.49451 0.85679 0.0
C985 C 0.9686 0.49633 0.9265 0.0
H986 H 0.02073 0.46222 0.84212 0.0
H987 H 0.8733 0.5072 0.93451 0.0
H988 H 0.92195 0.4165 0.83804 0.0
H989 H 0.90699 0.41126 0.91769 0.0
Co990 Co 0.30248 0.19868 0.64425 0.0
C991 C 0.33017 0.2419 0.64335 0.0
C992 C 0.30278 0.2415 0.61602 0.0
C993 C 0.31265 0.26294 0.61589 0.0
N994 N 0.31367 0.22831 0.6332 0.0
N995 N 0.32977 0.26319 0.63304 0.0
H996 H 0.34113 0.23686 0.65893 0.0
H997 H 0.28775 0.23636 0.6054 0.0
C998 C 0.29293 0.174 0.59571 0.0
O999 O 0.30303 0.15579 0.60541 0.0
N1000 N 0.28961 0.16912 0.65489 0.0
C1001 C 0.29758 0.15322 0.67128 0.0
C1002 C 0.28257 0.13481 0.67173 0.0
C1003 C 0.26939 0.16041 0.64649 0.0
N1004 N 0.2649 0.13922 0.65591 0.0
C1005 C 0.34605 0.17868 0.65704 0.0
C1006 C 0.36493 0.17923 0.60913 0.0
C1007 C 0.3782 0.17088 0.62925 0.0
C1008 C 0.3685 0.17088 0.65348 0.0
C1009 C 0.34252 0.18711 0.61361 0.0
N1010 N 0.33282 0.18563 0.63714 0.0
H1011 H 0.3397 0.17991 0.67611 0.0
H1012 H 0.3333 0.19504 0.59819 0.0
H1013 H 0.31305 0.15448 0.68235 0.0
H1014 H 0.2583 0.1694 0.63339 0.0
O1015 O 0.30769 0.2074 0.67897 0.0
O1016 O 0.2755 0.21413 0.65786 0.0
O1017 O 0.29131 0.19253 0.60867 0.0
C1018 C 0.28736 0.21658 0.67864 0.0
H1019 H 0.30712 0.27758 0.60478 0.0
H1020 H 0.28492 0.11913 0.68246 0.0
H1021 H 0.37205 0.18038 0.59025 0.0
H1022 H 0.37823 0.16502 0.66971 0.0
Co1023 Co 0.58641 0.5507 0.39468 0.0
C1024 C 0.54485 0.5809 0.39066 0.0
C1025 C 0.54475 0.55278 0.36424 0.0
C1026 C 0.52504 0.56532 0.36079 0.0
N1027 N 0.55734 0.56265 0.38266 0.0
N1028 N 0.52506 0.58295 0.37735 0.0
H1029 H 0.55013 0.5924 0.40569 0.0
H1030 H 0.54935 0.53723 0.35424 0.0
C1031 C 0.61058 0.54159 0.34571 0.0
O1032 O 0.62862 0.55228 0.35503 0.0
N1033 N 0.61538 0.53708 0.40653 0.0
C1034 C 0.62729 0.54162 0.42789 0.0
C1035 C 0.64618 0.52732 0.42911 0.0
C1036 C 0.62654 0.51888 0.39613 0.0
N1037 N 0.64581 0.5131 0.40897 0.0
C1038 C 0.6117 0.59202 0.40572 0.0
C1039 C 0.60789 0.61194 0.35847 0.0
C1040 C 0.62073 0.62328 0.37715 0.0
C1041 C 0.62207 0.61326 0.40119 0.0
C1042 C 0.59778 0.59059 0.36386 0.0
N1043 N 0.60085 0.58025 0.38687 0.0
H1044 H 0.61187 0.58547 0.42468 0.0
H1045 H 0.58756 0.58232 0.3494 0.0
H1046 H 0.6223 0.55369 0.44238 0.0
H1047 H 0.62069 0.50989 0.37946 0.0
O1048 O 0.57747 0.55739 0.42893 0.0
O1049 O 0.56988 0.52467 0.40901 0.0
O1050 O 0.59262 0.53874 0.35934 0.0
C1051 C 0.56784 0.53723 0.42937 0.0
H1052 H 0.51138 0.56141 0.34755 0.0
H1053 H 0.65885 0.52704 0.44409 0.0
H1054 H 0.60595 0.61927 0.33978 0.0
H1055 H 0.63078 0.62195 0.41659 0.0
H1056 H 0.24394 0.30377 0.19597 0.0
H1057 H 0.31292 0.31238 0.22467 0.0
H1058 H 0.23488 0.27875 0.23175 0.0
H1059 H 0.30447 0.28659 0.25936 0.0
H1060 H 0.27802 0.25294 0.33124 0.0
H1061 H 0.28603 0.2803 0.29738 0.0
H1062 H 0.24131 0.24188 0.24741 0.0
H1063 H 0.23248 0.21543 0.28171 0.0
C1064 C 0.25711 0.30043 0.20997 0.0
C1065 C 0.27909 0.31018 0.20749 0.0
C1066 C 0.25206 0.28582 0.23037 0.0
C1067 C 0.26898 0.28032 0.24855 0.0
C1068 C 0.2908 0.29056 0.24618 0.0
C1069 C 0.2957 0.30538 0.22609 0.0
C1070 C 0.27017 0.25024 0.3129 0.0
C1071 C 0.25473 0.23199 0.30909 0.0
C1072 C 0.27472 0.26595 0.2934 0.0
C1073 C 0.26422 0.26356 0.26947 0.0
C1074 C 0.2493 0.24478 0.26561 0.0
C1075 C 0.24447 0.22936 0.28522 0.0
H1076 H 0.05561 0.9673 0.54024 0.0
H1077 H 0.05138 0.03774 0.5658 0.0
H1078 H 0.03028 0.97612 0.50506 0.0
H1079 H 0.02689 0.04703 0.52975 0.0
H1080 H 0.9647 0.05215 0.47897 0.0
H1081 H 0.98972 0.04219 0.51412 0.0
H1082 H 0.02616 0.99425 0.46607 0.0
H1083 H 1.0002 1.00353 0.43127 0.0
C1084 C 0.04958 0.98483 0.53807 0.0
C1085 C 0.05551 1.00184 0.55583 0.0
C1086 C 0.03508 0.98994 0.51775 0.0
C1087 C 0.02633 1.0123 0.5144 0.0
C1088 C 0.0328 0.02947 0.5319 0.0
C1089 C 0.04706 0.02425 0.55248 0.0
C1090 C 0.97791 0.03929 0.47602 0.0
C1091 C 0.98044 0.02856 0.45239 0.0
C1092 C 0.99249 0.03375 0.49613 0.0
C1093 C 1.01029 0.01759 0.49304 0.0
C1094 C 1.01254 1.00657 0.4694 0.0
C1095 C 0.99767 1.01187 0.44937 0.0
H1096 H 0.25383 0.78507 0.82253 0.0
H1097 H 0.30359 0.82069 0.77638 0.0
H1098 H 0.24385 0.76054 0.78682 0.0
H1099 H 0.29286 0.79709 0.74018 0.0
H1100 H 0.2855 0.73613 0.68632 0.0
H1101 H 0.29587 0.76053 0.72225 0.0
H1102 H 0.22538 0.75832 0.74826 0.0
H1103 H 0.21556 0.73311 0.71337 0.0
C1104 C 0.26229 0.78796 0.80457 0.0
C1105 C 0.27944 0.80483 0.80226 0.0
C1106 C 0.25655 0.77392 0.78397 0.0
C1107 C 0.26754 0.77666 0.76038 0.0
C1108 C 0.28433 0.79401 0.75805 0.0
C1109 C 0.29033 0.80776 0.77877 0.0
C1110 C 0.27233 0.74081 0.69986 0.0
C1111 C 0.24979 0.73252 0.69713 0.0
C1112 C 0.27818 0.75498 0.72039 0.0
C1113 C 0.26151 0.7615 0.73842 0.0
C1114 C 0.2389 0.75334 0.7353 0.0
C1115 C 0.23319 0.73892 0.71511 0.0
H1116 H 0.48804 0.99752 0.06668 0.0
H1117 H 0.48412 0.06836 0.04242 0.0
H1118 H 0.51416 0.98918 0.03159 0.0
H1119 H 0.51084 0.06047 0.00838 0.0
H1120 H 0.54032 0.03396 0.93392 0.0
H1121 H 0.51478 0.04292 0.96909 0.0
H1122 H 0.55168 0.99461 0.01623 0.0
H1123 H 0.57643 0.98499 0.98063 0.0
C1124 C 0.49282 1.0113 0.05391 0.0
C1125 C 0.48384 0.03351 0.0572 0.0
C1126 C 0.50797 1.00662 0.03391 0.0
C1127 C 0.51473 0.02415 0.01698 0.0
C1128 C 0.50576 0.04638 0.02055 0.0
C1129 C 0.49045 0.05094 0.04024 0.0
C1130 C 0.54319 0.02559 0.95194 0.0
C1131 C 0.56042 1.00886 0.95454 0.0
C1132 C 0.52852 0.03068 0.97219 0.0
C1133 C 0.53094 0.01937 0.99564 0.0
C1134 C 0.54885 1.00328 0.99839 0.0
C1135 C 0.56327 0.99799 0.97806 0.0
H1136 H 0.28351 0.78806 0.18284 0.0
H1137 H 0.23421 0.82403 0.22921 0.0
H1138 H 0.29196 0.7622 0.21789 0.0
H1139 H 0.24332 0.79896 0.26472 0.0
H1140 H 0.24674 0.73568 0.3159 0.0
H1141 H 0.23819 0.76154 0.28058 0.0
H1142 H 0.30933 0.75818 0.25708 0.0
H1143 H 0.3174 0.73174 0.29127 0.0
C1144 C 0.27491 0.7908 0.20075 0.0
C1145 C 0.25829 0.80815 0.20327 0.0
C1146 C 0.27972 0.77595 0.22095 0.0
C1147 C 0.26825 0.77827 0.24433 0.0
C1148 C 0.25215 0.79619 0.24697 0.0
C1149 C 0.24713 0.81081 0.22667 0.0
C1150 C 0.26043 0.74036 0.303 0.0
C1151 C 0.28266 0.73146 0.30629 0.0
C1152 C 0.25563 0.75538 0.28285 0.0
C1153 C 0.27306 0.76208 0.26575 0.0
C1154 C 0.29529 0.75316 0.26932 0.0
C1155 C 0.29996 0.73799 0.28914 0.0
H1156 H 0.48518 0.03898 0.43808 0.0
H1157 H 0.48233 0.96811 0.46235 0.0
H1158 H 0.51018 0.04804 0.47399 0.0
H1159 H 0.50803 0.97666 0.49711 0.0
H1160 H 0.53543 1.00246 0.57214 0.0
H1161 H 0.51046 0.99394 0.53638 0.0
H1162 H 0.54711 0.04401 0.4912 0.0
H1163 H 0.57123 0.05325 0.52749 0.0
C1164 C 0.49 0.02535 0.451 0.0
C1165 C 0.4816 1.00292 0.44751 0.0
C1166 C 0.5045 0.03044 0.4715 0.0
C1167 C 0.51119 1.01312 0.48872 0.0
C1168 C 0.50292 0.99064 0.48481 0.0
C1169 C 0.48821 0.98568 0.46468 0.0
C1170 C 0.53828 1.01144 0.55447 0.0
C1171 C 0.55534 0.02845 0.55261 0.0
C1172 C 0.52397 1.00656 0.53386 0.0
C1173 C 0.52661 0.01829 0.51068 0.0
C1174 C 0.54414 0.03493 0.50876 0.0
C1175 C 0.55819 0.04005 0.52951 0.0
H1176 H 0.302 0.21527 0.72744 0.0
H1177 H 0.25649 0.25205 0.67733 0.0
H1178 H 0.29301 0.24207 0.76138 0.0
H1179 H 0.24834 0.27977 0.71077 0.0
H1180 H 0.22113 0.31248 0.78306 0.0
H1181 H 0.2298 0.28651 0.74859 0.0
H1182 H 0.29929 0.27911 0.77661 0.0
H1183 H 0.29 0.30428 0.81218 0.0
C1184 C 0.28998 0.22911 0.72373 0.0
C1185 C 0.27977 0.23143 0.6998 0.0
C1186 C 0.28506 0.24474 0.74312 0.0
C1187 C 0.27011 0.26343 0.73897 0.0
C1188 C 0.25967 0.2655 0.71499 0.0
C1189 C 0.26429 0.24958 0.69572 0.0
C1190 C 0.23838 0.30556 0.78176 0.0
C1191 C 0.25489 0.31049 0.80044 0.0
C1192 C 0.24341 0.29063 0.7618 0.0
C1193 C 0.26524 0.28041 0.75964 0.0
C1194 C 0.28209 0.28613 0.77783 0.0
C1195 C 0.27691 0.30084 0.7981 0.0
H1196 H 0.06558 0.06053 0.9781 0.0
H1197 H 0.05614 0.99188 0.94853 0.0
H1198 H 0.04043 0.05175 0.01318 0.0
H1199 H 0.03174 0.98247 0.98473 0.0
H1200 H 0.96815 0.98124 0.03478 0.0
H1201 H 0.99499 0.98935 1.00066 0.0
H1202 H 0.03449 0.0328 0.05099 0.0
H1203 H 1.00677 0.02553 0.08466 0.0
C1204 C 0.05855 0.0433 0.97941 0.0
C1205 C 0.06287 0.02689 0.96043 0.0
C1206 C 0.04412 0.0382 0.99973 0.0
C1207 C 0.0338 1.0164 1.00195 0.0
C1208 C 0.03891 0.99963 0.98346 0.0
C1209 C 0.05315 1.00488 0.96283 0.0
C1210 C 0.98246 0.99273 0.03843 0.0
C1211 C 0.98526 1.00293 0.06231 0.0
C1212 C 0.99808 0.99716 0.01893 0.0
C1213 C 0.01718 1.01161 0.02292 0.0
C1214 C 0.01986 0.02187 0.04692 0.0
C1215 C 1.00397 0.01774 0.06631 0.0
H1216 H 0.77658 0.75292 0.8298 0.0
H1217 H 0.72943 0.71601 0.78153 0.0
H1218 H 0.7857 0.77895 0.79508 0.0
H1219 H 0.73929 0.74119 0.7464 0.0
H1220 H 0.74578 0.80196 0.69302 0.0
H1221 H 0.7351 0.77813 0.72928 0.0
H1222 H 0.80502 0.78199 0.75688 0.0
H1223 H 0.81518 0.80653 0.72161 0.0
C1224 C 0.76846 0.75014 0.81162 0.0
C1225 C 0.75237 0.73237 0.80839 0.0
C1226 C 0.77371 0.76504 0.79161 0.0
C1227 C 0.76325 0.76232 0.76773 0.0
C1228 C 0.74737 0.74425 0.76453 0.0
C1229 C 0.74189 0.72959 0.78464 0.0
C1230 C 0.75872 0.79789 0.70705 0.0
C1231 C 0.78126 0.80625 0.70448 0.0
C1232 C 0.75271 0.78403 0.72775 0.0
C1233 C 0.76919 0.77794 0.74617 0.0
C1234 C 0.79167 0.78656 0.74353 0.0
C1235 C 0.79756 0.80061 0.72312 0.0
H1236 H 0.74517 0.30257 0.3138 0.0
H1237 H 0.81422 0.31132 0.28536 0.0
H1238 H 0.7366 0.27662 0.27863 0.0
H1239 H 0.80624 0.28467 0.25133 0.0
H1240 H 0.77994 0.25049 0.17967 0.0
H1241 H 0.78783 0.27801 0.21334 0.0
H1242 H 0.74362 0.23944 0.26366 0.0
H1243 H 0.7349 0.21274 0.22947 0.0
C1244 C 0.75845 0.29907 0.29998 0.0
C1245 C 0.78029 0.30914 0.30233 0.0
C1246 C 0.75368 0.28393 0.27995 0.0
C1247 C 0.77077 0.27826 0.26204 0.0
C1248 C 0.79246 0.28877 0.26431 0.0
C1249 C 0.79708 0.30409 0.28402 0.0
C1250 C 0.77222 0.24774 0.19806 0.0
C1251 C 0.75691 0.22939 0.20197 0.0
C1252 C 0.77669 0.26355 0.21745 0.0
C1253 C 0.76625 0.2612 0.24138 0.0
C1254 C 0.75156 0.24228 0.24542 0.0
C1255 C 0.7468 0.22672 0.2259 0.0
H1256 H 0.77677 0.28281 0.67938 0.0
H1257 H 0.72974 0.31876 0.72857 0.0
H1258 H 0.78572 0.25596 0.71331 0.0
H1259 H 0.73948 0.29271 0.76303 0.0
H1260 H 0.74482 0.22992 0.81384 0.0
H1261 H 0.73468 0.25518 0.77856 0.0
H1262 H 0.80474 0.25156 0.75142 0.0
H1263 H 0.81434 0.22562 0.78558 0.0
C1264 C 0.76874 0.28528 0.69766 0.0
C1265 C 0.75267 0.30296 0.70136 0.0
C1266 C 0.77386 0.26987 0.7172 0.0
C1267 C 0.76331 0.272 0.74109 0.0
C1268 C 0.74761 0.29011 0.74485 0.0
C1269 C 0.74222 0.30527 0.72517 0.0
C1270 C 0.75789 0.23431 0.80007 0.0
C1271 C 0.78031 0.22563 0.80243 0.0
C1272 C 0.75219 0.24901 0.77997 0.0
C1273 C 0.76889 0.2556 0.76201 0.0
C1274 C 0.79124 0.24663 0.76442 0.0
C1275 C 0.7968 0.23175 0.7842 0.0
H1276 H 0.7192 0.81015 0.28692 0.0
H1277 H 0.78783 0.79999 0.31599 0.0
H1278 H 0.72676 0.78324 0.25305 0.0
H1279 H 0.79602 0.77374 0.28097 0.0
H1280 H 0.79701 0.71022 0.23132 0.0
H1281 H 0.78844 0.73681 0.26563 0.0
H1282 H 0.74521 0.7763 0.21518 0.0
H1283 H 0.75296 0.74888 0.18135 0.0
C1284 C 0.73616 0.80252 0.28577 0.0
C1285 C 0.75296 0.80731 0.3042 0.0
C1286 C 0.74055 0.78705 0.26615 0.0
C1287 C 0.76201 0.7761 0.26405 0.0
C1288 C 0.77909 0.78141 0.28214 0.0
C1289 C 0.77455 0.7967 0.30209 0.0
C1290 C 0.78532 0.72436 0.22776 0.0
C1291 C 0.77545 0.72733 0.20373 0.0
C1292 C 0.78066 0.73987 0.24735 0.0
C1293 C 0.76631 0.75903 0.24332 0.0
C1294 C 0.75607 0.76165 0.2193 0.0
C1295 C 0.76044 0.74589 0.19982 0.0
H1296 H 0.48092 0.49492 0.94309 0.0
H1297 H 0.47797 0.56564 0.96801 0.0
H1298 H 0.50514 0.48552 0.97951 0.0
H1299 H 0.5028 0.55669 1.00338 0.0
H1300 H 0.53178 0.53047 0.07776 0.0
H1301 H 0.50588 0.53899 0.04265 0.0
H1302 H 0.54233 0.48998 0.99595 0.0
H1303 H 0.56735 0.48085 0.03138 0.0
C1304 C 0.48545 0.50843 0.95631 0.0
C1305 C 0.4774 0.53097 0.95268 0.0
C1306 C 0.49951 0.50314 0.97711 0.0
C1307 C 0.5061 0.52034 0.99456 0.0
C1308 C 0.49785 0.54282 0.99082 0.0
C1309 C 0.48364 0.54801 0.97031 0.0
C1310 C 0.53433 0.52172 0.0599 0.0
C1311 C 0.55163 0.50506 0.05733 0.0
C1312 C 0.51949 0.52658 0.03968 0.0
C1313 C 0.52181 0.51511 0.01628 0.0
C1314 C 0.53954 0.49881 0.01371 0.0
C1315 C 0.55412 0.49376 0.03399 0.0
H1316 H 0.97375 0.5637 0.53667 0.0
H1317 H 0.97912 0.49351 0.56283 0.0
H1318 H 0.99889 0.5551 0.50153 0.0
H1319 H 1.00367 0.48441 0.52657 0.0
H1320 H 0.06652 0.48162 0.47517 0.0
H1321 H 0.04076 0.48996 0.51021 0.0
H1322 H 1.00283 0.53709 0.46263 0.0
H1323 H 0.02943 0.52944 0.42795 0.0
C1324 C 0.97998 0.54623 0.53467 0.0
C1325 C 0.97434 0.52926 0.55261 0.0
C1326 C 0.99439 0.54124 0.51428 0.0
C1327 C 1.00344 0.51902 0.51094 0.0
C1328 C 0.9974 0.50185 0.52865 0.0
C1329 C 0.98313 0.50695 0.54935 0.0
C1330 C 0.05279 0.49395 0.47228 0.0
C1331 C 0.05012 0.50502 0.44883 0.0
C1332 C 0.0378 0.49853 0.49234 0.0
C1333 C 0.01946 0.5141 0.48942 0.0
C1334 C 0.0169 0.52526 0.46588 0.0
C1335 C 0.03215 0.5209 0.4459 0.0
H1336 H 0.05057 0.49526 0.06491 0.0
H1337 H 0.05451 0.56545 0.03846 0.0
H1338 H 0.02699 0.48526 0.02817 0.0
H1339 H 0.03028 0.55593 1.00273 0.0
H1340 H 1.00318 0.52841 0.92816 0.0
H1341 H 0.02828 0.53738 0.96382 0.0
H1342 H 0.99026 0.48954 0.01048 0.0
H1343 H 0.96603 0.47992 0.97453 0.0
C1344 C 0.04636 0.50853 0.0513 0.0
C1345 C 0.05454 0.53107 0.05454 0.0
C1346 C 0.03268 0.5029 0.03031 0.0
C1347 C 0.02661 0.51977 0.01228 0.0
C1348 C 0.03488 0.5423 0.01573 0.0
C1349 C 0.04874 0.54781 0.03643 0.0
C1350 C 1.00014 0.51998 0.94611 0.0
C1351 C 0.98262 0.50351 0.94853 0.0
C1352 C 1.0145 0.52512 0.96664 0.0
C1353 C 1.01146 0.51415 0.99022 0.0
C1354 C 0.99357 0.49799 0.99262 0.0
C1355 C 0.97946 0.49265 0.97202 0.0
H1356 H 0.56984 0.55444 0.47712 0.0
H1357 H 0.53383 0.50463 0.43129 0.0
H1358 H 0.54511 0.54537 0.51285 0.0
H1359 H 0.50821 0.49625 0.46662 0.0
H1360 H 0.47991 0.47014 0.54098 0.0
H1361 H 0.50511 0.47875 0.50583 0.0
H1362 H 0.50815 0.54994 0.52956 0.0
H1363 H 0.48362 0.54084 0.5658 0.0
C1364 C 0.55658 0.54151 0.4747 0.0
C1365 C 0.55386 0.53014 0.45143 0.0
C1366 C 0.54218 0.53649 0.49515 0.0
C1367 C 0.5244 0.52018 0.49278 0.0
C1368 C 0.52188 0.50865 0.46945 0.0
C1369 C 0.53655 0.51344 0.44909 0.0
C1370 C 0.48583 0.4877 0.53868 0.0
C1371 C 0.47967 0.50485 0.55618 0.0
C1372 C 0.50026 0.49268 0.51832 0.0
C1373 C 0.50875 0.51509 0.51456 0.0
C1374 C 0.50233 0.53238 0.53196 0.0
C1375 C 0.48808 0.52727 0.55266 0.0
H1376 H 0.30921 0.22774 0.15599 0.0
H1377 H 0.37041 0.26688 0.13952 0.0
H1378 H 0.33168 0.19239 0.15696 0.0
H1379 H 0.39319 0.23122 0.14019 0.0
H1380 H 0.42726 0.16014 0.15796 0.0
H1381 H 0.407 0.19658 0.16551 0.0
H1382 H 0.34957 0.17177 0.1214 0.0
H1383 H 0.36946 0.13556 0.11432 0.0
C1384 C 0.32759 0.22874 0.15288 0.0
C1385 C 0.33806 0.2499 0.14726 0.0
C1386 C 0.34045 0.20853 0.15337 0.0
C1387 C 0.36411 0.20896 0.14809 0.0
C1388 C 0.37497 0.23036 0.14432 0.0
C1389 C 0.36201 0.25074 0.14395 0.0
C1390 C 0.41021 0.16248 0.15013 0.0
C1391 C 0.39993 0.14501 0.13552 0.0
C1392 C 0.39872 0.18336 0.15428 0.0
C1393 C 0.37664 0.18697 0.14421 0.0
C1394 C 0.36641 0.16941 0.12976 0.0
C1395 C 0.37791 0.14873 0.12546 0.0
H1396 H 0.0257 0.10326 0.42108 0.0
H1397 H 0.0339 0.10026 0.34015 0.0
H1398 H 0.05977 0.12826 0.42404 0.0
H1399 H 0.0678 0.12455 0.34293 0.0
H1400 H 0.11927 0.18009 0.35006 0.0
H1401 H 0.08114 0.16284 0.35229 0.0
H1402 H 0.10188 0.12385 0.41796 0.0
H1403 H 0.1401 0.1415 0.41589 0.0
C1404 C 0.03456 0.10827 0.40394 0.0
C1405 C 0.02727 0.09974 0.3804 0.0
C1406 C 0.05416 0.12236 0.40562 0.0
C1407 C 0.06658 0.12841 0.38373 0.0
C1408 C 0.05858 0.12055 0.36017 0.0
C1409 C 0.03925 0.10643 0.35856 0.0
C1410 C 0.11565 0.16796 0.36509 0.0
C1411 C 0.13282 0.16184 0.38253 0.0
C1412 C 0.09378 0.15806 0.36639 0.0
C1413 C 0.08852 0.14166 0.38506 0.0
C1414 C 0.10529 0.13652 0.40342 0.0
C1415 C 0.12721 0.14656 0.4022 0.0
H1416 H 0.09797 0.87183 0.64719 0.0
H1417 H 0.16595 0.89978 0.63584 0.0
H1418 H 0.11436 0.833 0.65033 0.0
H1419 H 0.18237 0.8611 0.63948 0.0
H1420 H 0.20454 0.7883 0.66407 0.0
H1421 H 0.18588 0.82573 0.67147 0.0
H1422 H 0.13554 0.80976 0.61409 0.0
H1423 H 0.1545 0.77281 0.6064 0.0
C1424 C 0.11645 0.86969 0.64599 0.0
C1425 C 0.13074 0.8887 0.6412 0.0
C1426 C 0.12579 0.84754 0.6477 0.0
C1427 C 0.14961 0.84411 0.64518 0.0
C1428 C 0.16399 0.8633 0.64174 0.0
C1429 C 0.15461 0.88536 0.63951 0.0
C1430 C 0.18922 0.79272 0.65348 0.0
C1431 C 0.18092 0.77786 0.63462 0.0
C1432 C 0.17865 0.81408 0.65759 0.0
C1433 C 0.15927 0.82056 0.64336 0.0
C1434 C 0.15031 0.8051 0.62548 0.0
C1435 C 0.16118 0.78407 0.62098 0.0
H1436 H 0.51724 0.91374 0.886 0.0
H1437 H 0.47765 0.97438 0.90346 0.0
H1438 H 0.48189 0.89051 0.88664 0.0
H1439 H 0.44261 0.95144 0.90475 0.0
H1440 H 0.38475 0.91359 0.86475 0.0
H1441 H 0.42062 0.93402 0.87135 0.0
H1442 H 0.44843 0.87511 0.91068 0.0
H1443 H 0.41237 0.85417 0.90326 0.0
C1444 C 0.50105 0.92193 0.89061 0.0
C1445 C 0.50003 0.94586 0.89426 0.0
C1446 C 0.48083 0.90869 0.891 0.0
C1447 C 0.45933 0.91921 0.89521 0.0
C1448 C 0.45875 0.94288 0.90073 0.0
C1449 C 0.4788 0.95603 0.9001 0.0
C1450 C 0.3985 0.90488 0.87471 0.0
C1451 C 0.39571 0.88218 0.88332 0.0
C1452 C 0.41903 0.91673 0.8788 0.0
C1453 C 0.4374 0.9063 0.89174 0.0
C1454 C 0.43464 0.88361 0.90057 0.0
C1455 C 0.41393 0.8717 0.89652 0.0
H1456 H 0.42074 0.87713 0.34519 0.0
H1457 H 0.37195 0.89537 0.4034 0.0
H1458 H 0.40461 0.83806 0.34381 0.0
H1459 H 0.35618 0.85664 0.40217 0.0
H1460 H 0.35283 0.78186 0.41896 0.0
H1461 H 0.37251 0.81872 0.41547 0.0
H1462 H 0.36706 0.81533 0.33415 0.0
H1463 H 0.34725 0.77798 0.33781 0.0
C1464 C 0.4064 0.87292 0.3574 0.0
C1465 C 0.39785 0.88924 0.3747 0.0
C1466 C 0.39725 0.85057 0.35665 0.0
C1467 C 0.37949 0.84419 0.37325 0.0
C1468 C 0.37028 0.86086 0.38961 0.0
C1469 C 0.37931 0.88307 0.39031 0.0
C1470 C 0.35615 0.78883 0.40034 0.0
C1471 C 0.34828 0.77729 0.37869 0.0
C1472 C 0.3673 0.80996 0.39832 0.0
C1473 C 0.37081 0.82016 0.37457 0.0
C1474 C 0.36449 0.80788 0.3527 0.0
C1475 C 0.35327 0.78653 0.35476 0.0
H1476 H 0.41603 0.1804 0.65805 0.0
H1477 H 0.39462 0.14272 0.59173 0.0
H1478 H 0.45413 0.1632 0.65509 0.0
H1479 H 0.43283 0.12526 0.58887 0.0
H1480 H 0.50861 0.10422 0.58465 0.0
H1481 H 0.47509 0.13005 0.58255 0.0
H1482 H 0.46703 0.12434 0.66351 0.0
H1483 H 0.50028 0.09909 0.66539 0.0
C1484 C 0.41951 0.1685 0.64276 0.0
C1485 C 0.40217 0.16259 0.6254 0.0
C1486 C 0.44137 0.15867 0.64102 0.0
C1487 C 0.44646 0.1426 0.62195 0.0
C1488 C 0.42954 0.1377 0.60369 0.0
C1489 C 0.40762 0.14763 0.60537 0.0
C1490 C 0.49989 0.10904 0.60194 0.0
C1491 C 0.50689 0.09966 0.62517 0.0
C1492 C 0.48062 0.12358 0.60076 0.0
C1493 C 0.46832 0.12923 0.62286 0.0
C1494 C 0.47617 0.12064 0.64615 0.0
C1495 C 0.49514 0.10603 0.64725 0.0
H1496 H 0.16416 0.26702 0.88198 0.0
H1497 H 0.21726 0.22809 0.84462 0.0
H1498 H 0.13964 0.23247 0.88314 0.0
H1499 H 0.19281 0.19378 0.84525 0.0
H1500 H 0.13408 0.14105 0.8359 0.0
H1501 H 0.15316 0.178 0.82893 0.0
H1502 H 0.14682 0.19391 0.90824 0.0
H1503 H 0.129 0.15671 0.91569 0.0
C1504 C 0.17026 0.25122 0.87344 0.0
C1505 C 0.19251 0.25005 0.8633 0.0
C1506 C 0.15638 0.23149 0.87423 0.0
C1507 C 0.1644 0.21048 0.86434 0.0
C1508 C 0.18614 0.20976 0.85284 0.0
C1509 C 0.20014 0.2293 0.85256 0.0
C1510 C 0.13688 0.15228 0.85195 0.0
C1511 C 0.12992 0.14566 0.8764 0.0
C1512 C 0.14761 0.17354 0.84785 0.0
C1513 C 0.15124 0.18886 0.868 0.0
C1514 C 0.14382 0.1826 0.89227 0.0
C1515 C 0.13351 0.16122 0.89648 0.0
H1516 H 0.12 0.84818 0.13331 0.0
H1517 H 0.14991 0.91411 0.11438 0.0
H1518 H 0.08168 0.86493 0.13041 0.0
H1519 H 0.1114 0.93057 0.11069 0.0
H1520 H 0.03584 0.94841 0.09157 0.0
H1521 H 0.0725 0.92774 0.08613 0.0
H1522 H 0.06271 0.89512 0.15867 0.0
H1523 H 0.02657 0.91599 0.16407 0.0
C1524 C 0.11846 0.86621 0.12841 0.0
C1525 C 0.13817 0.87985 0.12452 0.0
C1526 C 0.09646 0.87573 0.12657 0.0
C1527 C 0.09356 0.89906 0.12044 0.0
C1528 C 0.11312 0.91246 0.11521 0.0
C1529 C 0.1352 0.903 0.11733 0.0
C1530 C 0.04141 0.93639 0.10597 0.0
C1531 C 0.02851 0.93364 0.1282 0.0
C1532 C 0.06238 0.92477 0.103 0.0
C1533 C 0.07045 0.90985 0.122 0.0
C1534 C 0.05687 0.90632 0.14362 0.0
C1535 C 0.03625 0.91826 0.14677 0.0
H1536 H 0.69808 0.78725 0.84064 0.0
H1537 H 0.65762 0.76823 0.90546 0.0
H1538 H 0.67807 0.82447 0.83862 0.0
H1539 H 0.63695 0.80472 0.90314 0.0
H1540 H 0.63424 0.88118 0.91852 0.0
H1541 H 0.64981 0.84267 0.9141 0.0
H1542 H 0.64256 0.84717 0.83296 0.0
H1543 H 0.62698 0.88621 0.83748 0.0
C1544 C 0.68424 0.79076 0.85378 0.0
C1545 C 0.67927 0.77511 0.87321 0.0
C1546 C 0.67284 0.81203 0.85274 0.0
C1547 C 0.65627 0.81778 0.8711 0.0
C1548 C 0.65006 0.80112 0.88915 0.0
C1549 C 0.66161 0.78014 0.89034 0.0
C1550 C 0.63573 0.87392 0.89973 0.0
C1551 C 0.62907 0.88663 0.87839 0.0
C1552 C 0.64459 0.85177 0.89717 0.0
C1553 C 0.64699 0.84159 0.87318 0.0
C1554 C 0.64089 0.85449 0.8517 0.0
C1555 C 0.63202 0.87682 0.85428 0.0
H1556 H 1.00975 0.92901 0.58619 0.0
H1557 H 1.00097 0.93123 0.66702 0.0
H1558 H 0.9761 0.90341 0.5827 0.0
H1559 H 0.96759 0.90626 0.66379 0.0
H1560 H 0.91616 0.85137 0.65645 0.0
H1561 H 0.95459 0.86793 0.65382 0.0
H1562 H 0.93381 0.90775 0.58877 0.0
H1563 H 0.8953 0.89069 0.59118 0.0
C1564 C 1.00091 0.9236 0.60319 0.0
C1565 C 1.00784 0.93209 0.62687 0.0
C1566 C 0.98156 0.90919 0.60122 0.0
C1567 C 0.9691 0.90278 0.62297 0.0
C1568 C 0.97686 0.91052 0.64667 0.0
C1569 C 0.99591 0.92498 0.64855 0.0
C1570 C 0.91989 0.86345 0.6414 0.0
C1571 C 0.90262 0.87007 0.6243 0.0
C1572 C 0.9419 0.87295 0.63989 0.0
C1573 C 0.9472 0.88949 0.62137 0.0
C1574 C 0.93036 0.89499 0.6032 0.0
C1575 C 0.90828 0.8853 0.60461 0.0
H1576 H 0.92938 0.1617 0.35345 0.0
H1577 H 0.87142 0.13589 0.39591 0.0
H1578 H 0.90876 0.19799 0.34625 0.0
H1579 H 0.85126 0.17196 0.38933 0.0
H1580 H 0.8104 0.22808 0.35576 0.0
H1581 H 0.83313 0.19291 0.3548 0.0
H1582 H 0.89445 0.2323 0.37094 0.0
H1583 H 0.8714 0.26779 0.37147 0.0
C1584 C 0.91224 0.16373 0.36113 0.0
C1585 C 0.90204 0.14594 0.37531 0.0
C1586 C 0.90053 0.18455 0.35718 0.0
C1587 C 0.87831 0.18781 0.36707 0.0
C1588 C 0.86819 0.16992 0.3811 0.0
C1589 C 0.87987 0.1493 0.38514 0.0
C1590 C 0.82878 0.22924 0.35877 0.0
C1591 C 0.83912 0.25054 0.36411 0.0
C1592 C 0.8418 0.20912 0.35831 0.0
C1593 C 0.86552 0.20974 0.36338 0.0
C1594 C 0.87621 0.23126 0.36697 0.0
C1595 C 0.86308 0.25155 0.36727 0.0
H1596 H 0.52571 0.11515 0.1642 0.0
H1597 H 0.53434 0.08812 0.08899 0.0
H1598 H 0.56177 0.13661 0.16017 0.0
H1599 H 0.57097 0.1092 0.08498 0.0
H1600 H 0.64854 0.12031 0.11532 0.0
H1601 H 0.61004 0.10402 0.11085 0.0
H1602 H 0.58031 0.1691 0.13249 0.0
H1603 H 0.61862 0.18586 0.13586 0.0
C1604 C 0.53522 0.11424 0.14663 0.0
C1605 C 0.52735 0.10023 0.12684 0.0
C1606 C 0.55577 0.12647 0.14428 0.0
C1607 C 0.56915 0.1245 0.12229 0.0
C1608 C 0.56096 0.11096 0.10214 0.0
C1609 C 0.54003 0.09912 0.1043 0.0
C1610 C 0.63387 0.13139 0.11851 0.0
C1611 C 0.63685 0.1544 0.1263 0.0
C1612 C 0.61179 0.122 0.11596 0.0
C1613 C 0.59225 0.1353 0.12144 0.0
C1614 C 0.59512 0.15843 0.12837 0.0
C1615 C 0.61712 0.16793 0.13053 0.0
H1616 H 0.65411 0.26664 0.63292 0.0
H1617 H 0.71633 0.23228 0.65556 0.0
H1618 H 0.63292 0.2301 0.63623 0.0
H1619 H 0.69542 0.19602 0.65973 0.0
H1620 H 0.66254 0.13421 0.62027 0.0
H1621 H 0.68078 0.17131 0.62685 0.0
H1622 H 0.61872 0.19701 0.66174 0.0
H1623 H 0.6001 0.15966 0.65444 0.0
C1624 C 0.66296 0.25138 0.63951 0.0
C1625 C 0.68674 0.25203 0.6439 0.0
C1626 C 0.65094 0.23049 0.64139 0.0
C1627 C 0.66259 0.21003 0.64776 0.0
C1628 C 0.68603 0.21131 0.65418 0.0
C1629 C 0.69798 0.23203 0.65205 0.0
C1630 C 0.65274 0.14774 0.62935 0.0
C1631 C 0.62983 0.14402 0.63668 0.0
C1632 C 0.6633 0.16897 0.63343 0.0
C1633 C 0.65128 0.18714 0.64501 0.0
C1634 C 0.62842 0.18339 0.65271 0.0
C1635 C 0.61784 0.16197 0.64872 0.0
H1636 H 0.63416 0.89016 0.33866 0.0
H1637 H 0.63947 0.89089 0.42009 0.0
H1638 H 0.59803 0.91088 0.34113 0.0
H1639 H 0.60314 0.91239 0.42256 0.0
H1640 H 0.52247 0.92528 0.40993 0.0
H1641 H 0.56051 0.907 0.4135 0.0
H1642 H 0.58537 0.9496 0.35242 0.0
H1643 H 0.54767 0.96737 0.34878 0.0
C1644 C 0.62756 0.8947 0.35714 0.0
C1645 C 0.63963 0.88872 0.37919 0.0
C1646 C 0.60694 0.90684 0.35856 0.0
C1647 C 0.59778 0.91346 0.38204 0.0
C1648 C 0.60974 0.90747 0.4042 0.0
C1649 C 0.63059 0.89534 0.40277 0.0
C1650 C 0.53627 0.93092 0.39766 0.0
C1651 C 0.53206 0.94736 0.37874 0.0
C1652 C 0.558 0.92052 0.39968 0.0
C1653 C 0.57579 0.92652 0.38286 0.0
C1654 C 0.57187 0.94413 0.36519 0.0
C1655 C 0.55029 0.95434 0.36312 0.0
H1656 H 0.92589 0.8743 0.15878 0.0
H1657 H 0.86951 0.89952 0.11341 0.0
H1658 H 0.90534 0.8379 0.16506 0.0
H1659 H 0.84948 0.86319 0.11895 0.0
H1660 H 0.80794 0.80624 0.15002 0.0
H1661 H 0.82995 0.84188 0.1518 0.0
H1662 H 0.89274 0.80346 0.14066 0.0
H1663 H 0.8704 0.76752 0.13944 0.0
C1664 C 0.90909 0.87212 0.15026 0.0
C1665 C 0.89933 0.88981 0.13558 0.0
C1666 C 0.89744 0.85121 0.15367 0.0
C1667 C 0.8757 0.84768 0.14267 0.0
C1668 C 0.86601 0.86543 0.12807 0.0
C1669 C 0.87763 0.8862 0.12461 0.0
C1670 C 0.82649 0.80542 0.14832 0.0
C1671 C 0.8375 0.78426 0.14423 0.0
C1672 C 0.83909 0.82581 0.14921 0.0
C1673 C 0.86305 0.82558 0.14577 0.0
C1674 C 0.8743 0.80422 0.14338 0.0
C1675 C 0.86159 0.78367 0.1427 0.0
H1676 H 0.97881 0.06165 0.91067 0.0
H1677 H 0.01909 0.11729 0.8799 0.0
H1678 H 0.94447 0.08589 0.90981 0.0
H1679 H 0.98454 0.14169 0.87869 0.0
H1680 H 0.91052 0.15614 0.84419 0.0
H1681 H 0.94738 0.13757 0.85158 0.0
H1682 H 0.92769 0.12329 0.9286 0.0
H1683 H 0.89105 0.14284 0.92175 0.0
C1684 C 0.98029 0.07923 0.90405 0.0
C1685 C 1.00146 0.08765 0.89525 0.0
C1686 C 0.96072 0.09312 0.90368 0.0
C1687 C 0.96185 0.11562 0.89409 0.0
C1688 C 0.98322 0.12435 0.88608 0.0
C1689 C 1.00295 0.11053 0.88692 0.0
C1690 C 0.91414 0.14963 0.86294 0.0
C1691 C 0.89763 0.15108 0.88236 0.0
C1692 C 0.93532 0.13892 0.86711 0.0
C1693 C 0.94041 0.12907 0.89067 0.0
C1694 C 0.92414 0.13067 0.91021 0.0
C1695 C 0.90306 0.1417 0.90617 0.0
H1696 H 0.93172 0.66382 0.60494 0.0
H1697 H 0.88963 0.64135 0.66743 0.0
H1698 H 0.91531 0.7023 0.6081 0.0
H1699 H 0.87295 0.68 0.67051 0.0
H1700 H 0.85354 0.7568 0.6748 0.0
H1701 H 0.87844 0.72262 0.67817 0.0
H1702 H 0.87661 0.71515 0.59693 0.0
H1703 H 0.85214 0.74896 0.59381 0.0
C1704 C 0.91909 0.66719 0.61953 0.0
C1705 C 0.91163 0.64945 0.63562 0.0
C1706 C 0.90971 0.68924 0.62136 0.0
C1707 C 0.89254 0.69413 0.63928 0.0
C1708 C 0.88622 0.67683 0.65657 0.0
C1709 C 0.89571 0.65468 0.65478 0.0
C1710 C 0.85899 0.74804 0.65776 0.0
C1711 C 0.85095 0.75539 0.63405 0.0
C1712 C 0.87301 0.72841 0.65966 0.0
C1713 C 0.87952 0.71616 0.63782 0.0
C1714 C 0.87221 0.72429 0.61412 0.0
C1715 C 0.85807 0.74357 0.61229 0.0
H1716 H 0.64691 0.61869 0.85707 0.0
H1717 H 0.62334 0.67413 0.90493 0.0
H1718 H 0.6088 0.60151 0.85825 0.0
H1719 H 0.58496 0.65658 0.90635 0.0
H1720 H 0.52608 0.59922 0.91787 0.0
H1721 H 0.56285 0.62016 0.92069 0.0
H1722 H 0.57126 0.61371 0.83991 0.0
H1723 H 0.53495 0.59304 0.83723 0.0
C1724 C 0.63358 0.62724 0.86785 0.0
C1725 C 0.63813 0.64799 0.88056 0.0
C1726 C 0.61172 0.61738 0.86854 0.0
C1727 C 0.59376 0.62792 0.88202 0.0
C1728 C 0.59847 0.64809 0.89579 0.0
C1729 C 0.62046 0.65808 0.89501 0.0
C1730 C 0.53563 0.60278 0.90075 0.0
C1731 C 0.5279 0.59421 0.87738 0.0
C1732 C 0.55666 0.61466 0.90234 0.0
C1733 C 0.57018 0.61808 0.88058 0.0
C1734 C 0.56157 0.6108 0.8571 0.0
C1735 C 0.54074 0.59903 0.85554 0.0
H1736 H 0.64033 0.39128 0.1672 0.0
H1737 H 0.60937 0.37307 0.09572 0.0
H1738 H 0.65781 0.353 0.16969 0.0
H1739 H 0.62671 0.33499 0.09823 0.0
H1740 H 0.69197 0.28987 0.09273 0.0
H1741 H 0.66703 0.32343 0.09389 0.0
H1742 H 0.6518 0.30992 0.17244 0.0
H1743 H 0.67725 0.27605 0.17112 0.0
C1744 C 0.6369 0.37897 0.15228 0.0
C1745 C 0.62387 0.38535 0.13101 0.0
C1746 C 0.64685 0.35702 0.15375 0.0
C1747 C 0.64389 0.34107 0.13399 0.0
C1748 C 0.62969 0.34705 0.11351 0.0
C1749 C 0.61983 0.3689 0.11204 0.0
C1750 C 0.68308 0.29393 0.11016 0.0
C1751 C 0.68658 0.2805 0.13185 0.0
C1752 C 0.66865 0.31305 0.11081 0.0
C1753 C 0.6574 0.31936 0.13326 0.0
C1754 C 0.66034 0.30553 0.15489 0.0
C1755 C 0.67468 0.2861 0.15412 0.0
H1756 H 1.0085 0.41642 0.3479 0.0
H1757 H 0.9984 0.45007 0.41959 0.0
H1758 H 0.97271 0.39493 0.35367 0.0
H1759 H 0.96206 0.42885 0.42535 0.0
H1760 H 0.88508 0.41413 0.39537 0.0
H1761 H 0.92338 0.43095 0.3996 0.0
H1762 H 0.95392 0.36498 0.38313 0.0
H1763 H 0.91576 0.34784 0.37977 0.0
C1764 C 0.99873 0.41879 0.36513 0.0
C1765 C 1.00611 0.43469 0.38337 0.0
C1766 C 0.97833 0.40653 0.36848 0.0
C1767 C 0.9646 0.41026 0.38994 0.0
C1768 C 0.97232 0.42569 0.40863 0.0
C1769 C 0.9931 0.43764 0.40548 0.0
C1770 C 0.8999 0.40302 0.39332 0.0
C1771 C 0.89723 0.37965 0.38685 0.0
C1772 C 0.92186 0.4127 0.39574 0.0
C1773 C 0.94159 0.39929 0.39152 0.0
C1774 C 0.93898 0.37576 0.38621 0.0
C1775 C 0.91709 0.36602 0.38409 0.0
H1776 H 0.92394 0.37487 0.84647 0.0
H1777 H 0.87125 0.39804 0.89808 0.0
H1778 H 0.90301 0.33864 0.84041 0.0
H1779 H 0.85091 0.36186 0.89272 0.0
H1780 H 0.8073 0.3057 0.86304 0.0
H1781 H 0.82891 0.34156 0.86104 0.0
H1782 H 0.89253 0.30328 0.86428 0.0
H1783 H 0.87057 0.26716 0.86579 0.0
C1784 C 0.90786 0.37229 0.8564 0.0
C1785 C 0.89927 0.38934 0.87278 0.0
C1786 C 0.896 0.35147 0.8531 0.0
C1787 C 0.87521 0.3474 0.86595 0.0
C1788 C 0.86666 0.36454 0.88219 0.0
C1789 C 0.87849 0.3852 0.88553 0.0
C1790 C 0.8259 0.30496 0.86303 0.0
C1791 C 0.8373 0.28374 0.86498 0.0
C1792 C 0.8383 0.32548 0.86198 0.0
C1793 C 0.86244 0.32533 0.86309 0.0
C1794 C 0.87394 0.30399 0.86338 0.0
C1795 C 0.86143 0.28333 0.86423 0.0
H1796 H 0.90215 0.64873 0.17168 0.0
H1797 H 0.89675 0.65457 0.09057 0.0
H1798 H 0.94016 0.63196 0.16734 0.0
H1799 H 0.93532 0.6382 0.08608 0.0
H1800 H 0.99329 0.5822 0.0908 0.0
H1801 H 0.95676 0.60329 0.09054 0.0
H1802 H 0.97853 0.64077 0.15706 0.0
H1803 H 1.01434 0.61873 0.15762 0.0
C1804 C 0.90926 0.6467 0.15289 0.0
C1805 C 0.8965 0.65312 0.13149 0.0
C1806 C 0.93117 0.63719 0.15036 0.0
C1807 C 0.94109 0.634 0.12635 0.0
C1808 C 0.92823 0.64026 0.10486 0.0
C1809 C 0.90613 0.64964 0.10741 0.0
C1810 C 0.99032 0.59544 0.10483 0.0
C1811 C 1.00645 0.59913 0.1241 0.0
C1812 C 0.96944 0.6075 0.1048 0.0
C1813 C 0.96444 0.62352 0.12405 0.0
C1814 C 0.98146 0.62817 0.14232 0.0
C1815 C 1.0021 0.61589 0.14249 0.0
H1816 H 0.72336 0.72983 0.35611 0.0
H1817 H 0.66096 0.76759 0.37035 0.0
H1818 H 0.70153 0.69411 0.35318 0.0
H1819 H 0.63881 0.73157 0.36816 0.0
H1820 H 0.60523 0.66102 0.35053 0.0
H1821 H 0.62544 0.69758 0.3436 0.0
H1822 H 0.68351 0.67174 0.3859 0.0
H1823 H 0.66382 0.63537 0.39205 0.0
C1824 C 0.70485 0.73042 0.3583 0.0
C1825 C 0.69381 0.7513 0.36378 0.0
C1826 C 0.69235 0.70999 0.35678 0.0
C1827 C 0.66849 0.70988 0.36106 0.0
C1828 C 0.65717 0.73105 0.36476 0.0
C1829 C 0.66976 0.75165 0.36601 0.0
C1830 C 0.62244 0.66312 0.35802 0.0
C1831 C 0.63289 0.64532 0.37193 0.0
C1832 C 0.63392 0.68411 0.35424 0.0
C1833 C 0.65615 0.68757 0.36406 0.0
C1834 C 0.66659 0.6696 0.37768 0.0
C1835 C 0.65516 0.64879 0.3815 0.0
H1836 H 0.64657 0.41315 0.64359 0.0
H1837 H 0.61918 0.354 0.60426 0.0
H1838 H 0.61022 0.43294 0.63857 0.0
H1839 H 0.58267 0.37438 0.59821 0.0
H1840 H 0.51365 0.41007 0.62611 0.0
H1841 H 0.54959 0.38795 0.62292 0.0
H1842 H 0.5867 0.45095 0.60763 0.0
H1843 H 0.55107 0.47271 0.61188 0.0
C1844 C 0.63277 0.40438 0.63374 0.0
C1845 C 0.63576 0.3819 0.62453 0.0
C1846 C 0.61196 0.41588 0.63051 0.0
C1847 C 0.59349 0.40536 0.61778 0.0
C1848 C 0.5965 0.38295 0.60821 0.0
C1849 C 0.61747 0.37136 0.61146 0.0
C1850 C 0.52951 0.41892 0.62153 0.0
C1851 C 0.52984 0.44299 0.61951 0.0
C1852 C 0.55006 0.40635 0.61968 0.0
C1853 C 0.57114 0.41774 0.61555 0.0
C1854 C 0.57093 0.44168 0.61155 0.0
C1855 C 0.55057 0.45415 0.61377 0.0
H1856 H 0.10737 0.37598 0.35122 0.0
H1857 H 0.16385 0.40062 0.39692 0.0
H1858 H 0.12712 0.33907 0.34586 0.0
H1859 H 0.18295 0.36376 0.39251 0.0
H1860 H 0.22316 0.30446 0.36611 0.0
H1861 H 0.20262 0.34083 0.36205 0.0
H1862 H 0.13798 0.3048 0.37034 0.0
H1863 H 0.15894 0.26814 0.37349 0.0
C1864 C 0.12403 0.37359 0.35999 0.0
C1865 C 0.13401 0.39127 0.37456 0.0
C1866 C 0.13522 0.35236 0.35712 0.0
C1867 C 0.15669 0.34844 0.36862 0.0
C1868 C 0.16665 0.36624 0.38298 0.0
C1869 C 0.15552 0.38734 0.38583 0.0
C1870 C 0.20454 0.30436 0.36654 0.0
C1871 C 0.19256 0.2837 0.37032 0.0
C1872 C 0.19275 0.32515 0.36443 0.0
C1873 C 0.16866 0.32584 0.3665 0.0
C1874 C 0.15654 0.3049 0.36863 0.0
C1875 C 0.16844 0.28394 0.37043 0.0
H1876 H 0.50722 0.4191 0.16135 0.0
H1877 H 0.49793 0.44823 0.0872 0.0
H1878 H 0.47168 0.39694 0.15647 0.0
H1879 H 0.46181 0.42643 0.08235 0.0
H1880 H 0.38455 0.41297 0.11255 0.0
H1881 H 0.42274 0.42995 0.10808 0.0
H1882 H 0.45367 0.36497 0.12798 0.0
H1883 H 0.41564 0.34757 0.13142 0.0
C1884 C 0.49769 0.42033 0.14381 0.0
C1885 C 0.50521 0.43513 0.12458 0.0
C1886 C 0.47743 0.40769 0.14097 0.0
C1887 C 0.464 0.41002 0.11905 0.0
C1888 C 0.47186 0.42436 0.09944 0.0
C1889 C 0.49251 0.43664 0.10208 0.0
C1890 C 0.39942 0.40206 0.1153 0.0
C1891 C 0.39687 0.37891 0.1227 0.0
C1892 C 0.42132 0.41184 0.11275 0.0
C1893 C 0.44111 0.39879 0.11782 0.0
C1894 C 0.43867 0.37547 0.1242 0.0
C1895 C 0.41684 0.36559 0.12638 0.0
H1896 H 0.35213 0.7495 0.91334 0.0
H1897 H 0.35493 0.75801 0.83248 0.0
H1898 H 0.37682 0.71591 0.91044 0.0
H1899 H 0.38025 0.72415 0.82934 0.0
H1900 H 0.39196 0.64315 0.83845 0.0
H1901 H 0.37537 0.68184 0.83565 0.0
H1902 H 0.41515 0.70268 0.90074 0.0
H1903 H 0.43124 0.66407 0.90375 0.0
C1904 C 0.35843 0.74432 0.89494 0.0
C1905 C 0.35157 0.75623 0.87315 0.0
C1906 C 0.37275 0.72517 0.89325 0.0
C1907 C 0.38056 0.71728 0.86964 0.0
C1908 C 0.3744 0.72971 0.84779 0.0
C1909 C 0.36015 0.74917 0.84956 0.0
C1910 C 0.39746 0.65618 0.85179 0.0
C1911 C 0.41252 0.65051 0.87161 0.0
C1912 C 0.38804 0.67837 0.85016 0.0
C1913 C 0.39364 0.69527 0.86823 0.0
C1914 C 0.41005 0.68994 0.88687 0.0
C1915 C 0.41929 0.66783 0.8886 0.0
H1916 H 0.14379 0.62039 0.65224 0.0
H1917 H 0.12259 0.67025 0.59635 0.0
H1918 H 0.10723 0.60056 0.64778 0.0
H1919 H 0.08592 0.64985 0.59133 0.0
H1920 H 1.0135 0.61941 0.6179 0.0
H1921 H 0.04981 0.64115 0.61593 0.0
H1922 H 0.08766 0.57717 0.61613 0.0
H1923 H 0.0517 0.55584 0.61847 0.0
C1924 C 0.1313 0.62712 0.63898 0.0
C1925 C 0.13611 0.64692 0.62469 0.0
C1926 C 0.11041 0.6156 0.63619 0.0
C1927 C 0.09373 0.62351 0.61902 0.0
C1928 C 0.09842 0.64338 0.60475 0.0
C1929 C 0.11947 0.65491 0.60746 0.0
C1930 C 0.02963 0.61015 0.61701 0.0
C1931 C 0.02992 0.58604 0.61881 0.0
C1932 C 0.05038 0.62251 0.6159 0.0
C1933 C 0.07162 0.61085 0.61644 0.0
C1934 C 0.07164 0.58668 0.6164 0.0
C1935 C 0.05107 0.57446 0.61766 0.0
H1936 H 0.11103 0.66248 0.09546 0.0
H1937 H 0.13989 0.64435 0.16798 0.0
H1938 H 0.12896 0.70031 0.09816 0.0
H1939 H 0.15791 0.68243 0.17071 0.0
H1940 H 0.17827 0.75955 0.17132 0.0
H1941 H 0.15229 0.72603 0.17246 0.0
H1942 H 0.17014 0.71044 0.09506 0.0
H1943 H 0.19568 0.7436 0.09408 0.0
C1944 C 0.1211 0.66665 0.11207 0.0
C1945 C 0.12445 0.65026 0.13126 0.0
C1946 C 0.1313 0.68834 0.11365 0.0
C1947 C 0.14511 0.69423 0.13447 0.0
C1948 C 0.14727 0.67843 0.15448 0.0
C1949 C 0.137 0.65662 0.1529 0.0
C1950 C 0.1762 0.74909 0.15453 0.0
C1951 C 0.18898 0.75401 0.13265 0.0
C1952 C 0.16155 0.72988 0.15521 0.0
C1953 C 0.15915 0.71562 0.13384 0.0
C1954 C 0.17136 0.72119 0.11175 0.0
C1955 C 0.18612 0.74007 0.11121 0.0
H1956 H 0.03391 0.44454 0.92001 0.0
H1957 H 0.02613 0.41551 0.84558 0.0
H1958 H 0.0699 0.42275 0.9257 0.0
H1959 H 0.06156 0.39346 0.85122 0.0
H1960 H 0.11762 0.34477 0.87563 0.0
H1961 H 0.07938 0.3617 0.87882 0.0
H1962 H 0.10937 0.42628 0.90202 0.0
H1963 H 0.14778 0.40972 0.89801 0.0
C1964 C 0.03961 0.43296 0.90524 0.0
C1965 C 0.02738 0.4315 0.88242 0.0
C1966 C 0.0602 0.4207 0.90836 0.0
C1967 C 0.06849 0.40643 0.88889 0.0
C1968 C 0.05549 0.40413 0.86664 0.0
C1969 C 0.03528 0.41672 0.86336 0.0
C1970 C 0.11615 0.3626 0.88141 0.0
C1971 C 0.13591 0.37596 0.88612 0.0
C1972 C 0.0942 0.37221 0.88342 0.0
C1973 C 0.09142 0.39531 0.89056 0.0
C1974 C 0.11101 0.40834 0.89672 0.0
C1975 C 0.13304 0.39881 0.89442 0.0
H1976 H 0.42823 0.37553 0.65841 0.0
H1977 H 0.37004 0.4004 0.61569 0.0
H1978 H 0.40862 0.33851 0.66441 0.0
H1979 H 0.35099 0.36359 0.62083 0.0
H1980 H 0.31195 0.30372 0.64676 0.0
H1981 H 0.33256 0.34002 0.65169 0.0
H1982 H 0.39695 0.30463 0.63927 0.0
H1983 H 0.37596 0.26802 0.63532 0.0
C1984 C 0.41121 0.37316 0.6505 0.0
C1985 C 0.40073 0.39086 0.63646 0.0
C1986 C 0.40008 0.35191 0.65374 0.0
C1987 C 0.37818 0.34807 0.64321 0.0
C1988 C 0.36765 0.36599 0.6296 0.0
C1989 C 0.37872 0.38706 0.62635 0.0
C1990 C 0.33055 0.30374 0.64566 0.0
C1991 C 0.34244 0.2833 0.64045 0.0
C1992 C 0.34237 0.32448 0.64828 0.0
C1993 C 0.36638 0.32536 0.64527 0.0
C1994 C 0.37846 0.30457 0.64175 0.0
C1995 C 0.36654 0.28364 0.63947 0.0
H1996 H 0.39241 0.63655 0.41442 0.0
H1997 H 0.41451 0.68023 0.35307 0.0
H1998 H 0.431 0.61975 0.4167 0.0
H1999 H 0.45296 0.66378 0.3555 0.0
H2000 H 0.50107 0.60236 0.33969 0.0
H2001 H 0.46681 0.62604 0.34332 0.0
H2002 H 0.47312 0.62498 0.4247 0.0
H2003 H 0.50765 0.60072 0.42083 0.0
C2004 C 0.40564 0.6429 0.40181 0.0
C2005 C 0.40032 0.65935 0.38323 0.0
C2006 C 0.42777 0.63335 0.40316 0.0
C2007 C 0.44498 0.64017 0.38601 0.0
C2008 C 0.43998 0.65775 0.3686 0.0
C2009 C 0.41794 0.66717 0.36719 0.0
C2010 C 0.4953 0.60742 0.35834 0.0
C2011 C 0.50691 0.59964 0.37996 0.0
C2012 C 0.47575 0.62115 0.36046 0.0
C2013 C 0.46717 0.62744 0.38432 0.0
C2014 C 0.47922 0.6203 0.40606 0.0
C2015 C 0.49907 0.60665 0.40388 0.0
H2016 H 0.25691 0.34754 0.07847 0.0
H2017 H 0.32138 0.32386 0.04723 0.0
H2018 H 0.2408 0.34972 0.03578 0.0
H2019 H 0.30527 0.32578 0.00494 0.0
H2020 H 0.21388 0.31788 0.96085 0.0
H2021 H 0.22967 0.32148 1.0032 0.0
H2022 H 0.29114 0.35251 0.97248 0.0
H2023 H 0.27541 0.34866 0.92981 0.0
C2024 C 0.26766 0.34291 0.06254 0.0
C2025 C 0.29035 0.33535 0.06627 0.0
C2026 C 0.25843 0.34408 0.03812 0.0
C2027 C 0.27177 0.33788 0.01699 0.0
C2028 C 0.29463 0.33094 0.02075 0.0
C2029 C 0.30379 0.32966 0.04508 0.0
C2030 C 0.23074 0.32556 0.96305 0.0
C2031 C 0.24348 0.3328 0.94189 0.0
C2032 C 0.23969 0.32781 0.9874 0.0
C2033 C 0.26163 0.33729 0.99122 0.0
C2034 C 0.27425 0.34493 0.97011 0.0
C2035 C 0.26523 0.34276 0.94569 0.0
H2036 H 0.88805 0.9902 0.19813 0.0
H2037 H 0.95775 1.01534 0.19123 0.0
H2038 H 0.88764 1.00161 0.24247 0.0
H2039 H 0.95718 0.02704 0.23543 0.0
H2040 H 0.88797 0.04682 0.31379 0.0
H2041 H 0.88782 0.0357 0.26936 0.0
H2042 H 0.95687 1.00918 0.27712 0.0
H2043 H 0.9572 0.02066 0.3214 0.0
C2044 C 0.90323 0.99831 0.206 0.0
C2045 C 0.92299 1.00173 0.19116 0.0
C2046 C 0.90295 1.00493 0.2314 0.0
C2047 C 0.92242 1.01511 0.24252 0.0
C2048 C 0.94204 0.01887 0.22756 0.0
C2049 C 0.94231 1.01227 0.20217 0.0
C2050 C 0.9031 0.03855 0.30606 0.0
C2051 C 0.92262 0.03468 0.32115 0.0
C2052 C 0.90297 0.0321 0.2806 0.0
C2053 C 0.92236 0.02164 0.26968 0.0
C2054 C 0.94178 0.01753 0.28486 0.0
C2055 C 0.94191 0.02397 0.3103 0.0
H2056 H 0.24685 0.70906 0.56174 0.0
H2057 H 0.25741 0.63563 0.56623 0.0
H2058 H 0.25682 0.70841 0.51735 0.0
H2059 H 0.26932 0.63509 0.52214 0.0
H2060 H 0.26831 0.63652 0.43638 0.0
H2061 H 0.25722 0.63694 0.48085 0.0
H2062 H 0.28535 0.70566 0.48815 0.0
H2063 H 0.29475 0.70561 0.44347 0.0
C2064 C 0.25158 0.69278 0.55331 0.0
C2065 C 0.25101 0.67236 0.56747 0.0
C2066 C 0.2576 0.6924 0.52776 0.0
C2067 C 0.26393 0.67167 0.5158 0.0
C2068 C 0.26402 0.65133 0.5303 0.0
C2069 C 0.2574 0.65164 0.55573 0.0
C2070 C 0.27189 0.65172 0.44759 0.0
C2071 C 0.28211 0.67111 0.4365 0.0
C2072 C 0.26576 0.65194 0.47318 0.0
C2073 C 0.27031 0.67136 0.48841 0.0
C2074 C 0.28092 0.6906 0.47714 0.0
C2075 C 0.28645 0.69058 0.45146 0.0
H2076 H 0.60436 0.02323 0.82611 0.0
H2077 H 0.57277 0.9615 0.7964 0.0
H2078 H 0.61048 0.03713 0.78295 0.0
H2079 H 0.5793 0.97508 0.75365 0.0
H2080 H 0.56919 0.0176 0.68277 0.0
H2081 H 0.56444 1.00465 0.72607 0.0
H2082 H 0.63269 0.02907 0.74417 0.0
H2083 H 0.63733 0.04256 0.7007 0.0
C2084 C 0.5988 1.01261 0.81042 0.0
C2085 C 0.58792 0.99135 0.81471 0.0
C2086 C 0.60244 0.02049 0.78571 0.0
C2087 C 0.59523 1.00727 0.76487 0.0
C2088 C 0.58467 0.98589 0.76926 0.0
C2089 C 0.58103 0.97805 0.79384 0.0
C2090 C 0.58325 0.0202 0.69589 0.0
C2091 C 0.60367 0.03107 0.68821 0.0
C2092 C 0.58055 1.01267 0.72075 0.0
C2093 C 0.59822 1.01573 0.73857 0.0
C2094 C 0.61867 0.02665 0.73094 0.0
C2095 C 0.62138 0.03422 0.706 0.0
H2096 H 0.82357 0.70648 0.04695 0.0
H2097 H 0.76094 0.6775 0.0774 0.0
H2098 H 0.80992 0.69915 0.00437 0.0
H2099 H 0.74702 0.6705 0.03436 0.0
H2100 H 0.74064 0.64302 0.952 0.0
H2101 H 0.75469 0.64728 0.99542 0.0
H2102 H 0.78024 0.71513 0.97726 0.0
H2103 H 0.76678 0.71077 0.93414 0.0
C2104 C 0.80683 0.69858 0.04459 0.0
C2105 C 0.79326 0.69276 0.06562 0.0
C2106 C 0.79897 0.69445 0.02012 0.0
C2107 C 0.7773 0.68444 0.01597 0.0
C2108 C 0.76386 0.67812 0.03697 0.0
C2109 C 0.77176 0.68228 0.06159 0.0
C2110 C 0.74938 0.65877 0.95729 0.0
C2111 C 0.75258 0.67654 0.93959 0.0
C2112 C 0.75726 0.66127 0.98218 0.0
C2113 C 0.76862 0.68152 0.98975 0.0
C2114 C 0.77185 0.69918 0.97197 0.0
C2115 C 0.76397 0.69673 0.94724 0.0
H2116 H 0.10418 1.00802 0.82998 0.0
H2117 H 0.07121 0.06906 0.80051 0.0
H2118 H 0.11038 0.9943 0.78672 0.0
H2119 H 0.07787 0.05574 0.75775 0.0
H2120 H 0.06928 1.01424 0.68622 0.0
H2121 H 0.06394 0.02641 0.7297 0.0
H2122 H 0.13237 1.00281 0.7481 0.0
H2123 H 0.13756 0.98999 0.70447 0.0
C2124 C 0.0983 0.01851 0.81433 0.0
C2125 C 0.08705 0.03955 0.81872 0.0
C2126 C 0.10199 1.01074 0.78957 0.0
C2127 C 0.09449 0.02387 0.76878 0.0
C2128 C 0.08348 0.04498 0.77329 0.0
C2129 C 0.07976 0.05268 0.7979 0.0
C2130 C 0.08325 1.01165 0.69945 0.0
C2131 C 0.10388 1.00119 0.6918 0.0
C2132 C 0.08021 0.01873 0.72442 0.0
C2133 C 0.09776 1.01568 0.74239 0.0
C2134 C 0.11842 1.00519 0.73479 0.0
C2135 C 0.12146 0.99803 0.70974 0.0
H2136 H 0.76092 0.31952 0.57341 0.0
H2137 H 0.73501 0.38725 0.55515 0.0
H2138 H 0.77466 0.31508 0.53043 0.0
H2139 H 0.74936 0.38292 0.51191 0.0
H2140 H 0.75847 0.35421 0.42994 0.0
H2141 H 0.74301 0.36026 0.47252 0.0
H2142 H 0.80489 0.33119 0.50448 0.0
H2143 H 0.82002 0.32474 0.4624 0.0
C2144 C 0.75822 0.33354 0.56026 0.0
C2145 C 0.74693 0.35379 0.56779 0.0
C2146 C 0.76623 0.33102 0.5356 0.0
C2147 C 0.76326 0.34871 0.51779 0.0
C2148 C 0.75176 0.36892 0.52516 0.0
C2149 C 0.7437 0.37145 0.54996 0.0
C2150 C 0.76871 0.3491 0.4461 0.0
C2151 C 0.79037 0.33879 0.44277 0.0
C2152 C 0.75993 0.3527 0.47046 0.0
C2153 C 0.77266 0.34601 0.49186 0.0
C2154 C 0.79446 0.33612 0.48841 0.0
C2155 C 0.80317 0.33251 0.46421 0.0
H2156 H 0.38296 1.00922 0.31543 0.0
H2157 H 0.45714 1.006 0.31475 0.0
H2158 H 0.38315 0.02044 0.2711 0.0
H2159 H 0.4574 1.01495 0.27022 0.0
H2160 H 0.45462 0.0498 0.19486 0.0
H2161 H 0.45345 0.04199 0.23989 0.0
H2162 H 0.38775 1.00784 0.23038 0.0
H2163 H 0.38839 0.01751 0.1855 0.0
C2164 C 0.3993 1.01068 0.30574 0.0
C2165 C 0.42001 1.00643 0.31859 0.0
C2166 C 0.39944 1.01686 0.28018 0.0
C2167 C 0.42029 0.01844 0.26668 0.0
C2168 C 0.44097 1.01439 0.27979 0.0
C2169 C 0.44084 1.00888 0.30545 0.0
C2170 C 0.44004 0.04049 0.20247 0.0
C2171 C 0.42172 0.03401 0.1868 0.0
C2172 C 0.43934 0.03588 0.22835 0.0
C2173 C 0.42058 0.02404 0.23909 0.0
C2174 C 0.40231 0.01737 0.22312 0.0
C2175 C 0.40274 0.02264 0.19732 0.0
H2176 H 0.76945 0.8212 0.57497 0.0
H2177 H 0.79607 0.88878 0.55718 0.0
H2178 H 0.7559 0.81703 0.53181 0.0
H2179 H 0.78204 0.88468 0.51378 0.0
H2180 H 0.77405 0.85576 0.43161 0.0
H2181 H 0.78897 0.8616 0.47449 0.0
H2182 H 0.72605 0.83379 0.50533 0.0
H2183 H 0.71138 0.82765 0.46297 0.0
C2184 C 0.77234 0.83524 0.56189 0.0
C2185 C 0.7838 0.85536 0.56959 0.0
C2186 C 0.76446 0.83288 0.53713 0.0
C2187 C 0.7678 0.85057 0.51939 0.0
C2188 C 0.77938 0.87067 0.52697 0.0
C2189 C 0.78725 0.87308 0.55187 0.0
C2190 C 0.76346 0.8509 0.44758 0.0
C2191 C 0.74161 0.84107 0.44385 0.0
C2192 C 0.77194 0.85437 0.47211 0.0
C2193 C 0.75875 0.84798 0.49328 0.0
C2194 C 0.7368 0.83851 0.48944 0.0
C2195 C 0.72836 0.8351 0.46508 0.0
H2196 H 0.38633 0.54595 0.81177 0.0
H2197 H 0.455 0.51862 0.82035 0.0
H2198 H 0.3868 0.53558 0.76718 0.0
H2199 H 0.45527 0.50784 0.7758 0.0
H2200 H 0.3867 0.49206 0.6951 0.0
H2201 H 0.38628 0.5023 0.73969 0.0
H2202 H 0.45662 0.52573 0.73413 0.0
H2203 H 0.45723 0.51503 0.68951 0.0
C2204 C 0.40146 0.53754 0.80422 0.0
C2205 C 0.42063 0.53315 0.81967 0.0
C2206 C 0.40169 0.53151 0.77864 0.0
C2207 C 0.42111 0.52094 0.76786 0.0
C2208 C 0.44018 0.51628 0.78339 0.0
C2209 C 0.43994 0.52229 0.809 0.0
C2210 C 0.40208 0.49948 0.70332 0.0
C2211 C 0.42201 0.50272 0.68869 0.0
C2212 C 0.40179 0.50544 0.7289 0.0
C2213 C 0.42142 0.51481 0.74053 0.0
C2214 C 0.44131 0.51825 0.72585 0.0
C2215 C 0.44159 0.51229 0.70022 0.0
H2216 H 0.71266 0.21035 0.04422 0.0
H2217 H 0.77331 0.17966 0.07733 0.0
H2218 H 0.72927 0.20597 1.00234 0.0
H2219 H 0.78976 0.17484 0.03521 0.0
H2220 H 0.75815 0.18087 0.92794 0.0
H2221 H 0.74092 0.17845 0.97003 0.0
H2222 H 0.8052 0.2004 1.00326 0.0
H2223 H 0.82244 0.20236 0.96158 0.0
C2224 C 0.72945 0.20244 0.04256 0.0
C2225 C 0.74176 0.19557 0.06415 0.0
C2226 C 0.73889 0.19974 0.01848 0.0
C2227 C 0.76085 0.19009 0.01541 0.0
C2228 C 0.77291 0.18262 0.03697 0.0
C2229 C 0.76347 0.18534 0.06109 0.0
C2230 C 0.76862 0.18494 0.94427 0.0
C2231 C 0.79159 0.19198 0.94139 0.0
C2232 C 0.75875 0.18365 0.96836 0.0
C2233 C 0.77168 0.18931 0.99 0.0
C2234 C 0.79483 0.19564 0.98707 0.0
C2235 C 0.80466 0.19695 0.96308 0.0
H2236 H 0.14509 0.49144 0.31106 0.0
H2237 H 0.07523 0.51606 0.31782 0.0
H2238 H 0.14535 0.50229 0.26662 0.0
H2239 H 0.07565 0.52723 0.2734 0.0
H2240 H 0.07622 0.52089 0.18712 0.0
H2241 H 0.07619 0.50957 0.2315 0.0
H2242 H 0.1452 0.53616 0.23974 0.0
H2243 H 0.1454 0.54711 0.19532 0.0
C2244 C 0.12983 0.49931 0.30314 0.0
C2245 C 0.11011 0.50281 0.31802 0.0
C2246 C 0.13002 0.50561 0.27765 0.0
C2247 C 0.1105 0.51556 0.26641 0.0
C2248 C 0.09085 0.51927 0.28137 0.0
C2249 C 0.09067 0.51299 0.30688 0.0
C2250 C 0.09142 0.52424 0.19836 0.0
C2251 C 0.1108 0.53493 0.18764 0.0
C2252 C 0.09134 0.5179 0.22385 0.0
C2253 C 0.11066 0.52205 0.23921 0.0
C2254 C 0.13013 0.53249 0.2284 0.0
C2255 C 0.1302 0.53886 0.20293 0.0
H2256 H 0.29545 0.13836 0.562 0.0
H2257 H 0.27192 0.20861 0.56934 0.0
H2258 H 0.28345 0.13815 0.51787 0.0
H2259 H 0.25947 0.20821 0.52538 0.0
H2260 H 0.23755 0.13885 0.44725 0.0
H2261 H 0.2494 0.13863 0.49145 0.0
H2262 H 0.27588 0.20775 0.48333 0.0
H2263 H 0.26361 0.20817 0.43932 0.0
C2264 C 0.28758 0.15372 0.55427 0.0
C2265 C 0.28474 0.17354 0.5692 0.0
C2266 C 0.28059 0.15355 0.52898 0.0
C2267 C 0.27057 0.17319 0.51803 0.0
C2268 C 0.26747 0.19291 0.53308 0.0
C2269 C 0.27447 0.19308 0.55836 0.0
C2270 C 0.24595 0.15398 0.45486 0.0
C2271 C 0.24956 0.17355 0.43974 0.0
C2272 C 0.25284 0.15382 0.48019 0.0
C2273 C 0.26352 0.1732 0.49098 0.0
C2274 C 0.26736 0.19266 0.47575 0.0
C2275 C 0.26045 0.19284 0.45044 0.0
H2276 H 0.57581 0.52064 0.31933 0.0
H2277 H 0.64576 0.54486 0.31165 0.0
H2278 H 0.57581 0.50902 0.27504 0.0
H2279 H 0.6456 0.53357 0.2673 0.0
H2280 H 0.57572 0.51503 0.18866 0.0
H2281 H 0.57615 0.5265 0.23299 0.0
H2282 H 0.64495 0.49939 0.24069 0.0
H2283 H 0.64468 0.4882 0.19632 0.0
C2284 C 0.59119 0.52348 0.30823 0.0
C2285 C 0.61078 0.53369 0.31907 0.0
C2286 C 0.59113 0.51696 0.28278 0.0
C2287 C 0.61068 0.52045 0.26759 0.0
C2288 C 0.63034 0.53042 0.27852 0.0
C2289 C 0.63039 0.53698 0.30395 0.0
C2290 C 0.59096 0.51155 0.19977 0.0
C2291 C 0.61015 0.50065 0.18891 0.0
C2292 C 0.59115 0.518 0.22524 0.0
C2293 C 0.61054 0.51377 0.24043 0.0
C2294 C 0.62982 0.50311 0.22948 0.0
C2295 C 0.62962 0.49662 0.20403 0.0
H2296 H 0.26976 0.81984 0.93154 0.0
H2297 H 0.29673 0.88706 0.95034 0.0
H2298 H 0.25655 0.81506 0.97473 0.0
H2299 H 0.28295 0.88242 0.99372 0.0
H2300 H 0.27522 0.85373 0.07547 0.0
H2301 H 0.28978 0.85975 0.03253 0.0
H2302 H 0.22728 0.83054 1.00212 0.0
H2303 H 0.21304 0.82411 0.04461 0.0
C2304 C 0.27277 0.83369 0.94484 0.0
C2305 C 0.28425 0.85388 0.93739 0.0
C2306 C 0.26508 0.83098 0.96964 0.0
C2307 C 0.26858 0.84841 0.98768 0.0
C2308 C 0.28017 0.86858 0.98033 0.0
C2309 C 0.2879 0.87131 0.95542 0.0
C2310 C 0.26465 0.84857 0.05958 0.0
C2311 C 0.24304 0.83827 0.0635 0.0
C2312 C 0.27292 0.85216 0.035 0.0
C2313 C 0.25976 0.84548 0.01389 0.0
C2314 C 0.23805 0.8355 0.01792 0.0
C2315 C 0.22983 0.83191 0.04236 0.0
H2316 H 0.8838 0.52305 0.68893 0.0
H2317 H 0.95677 0.53649 0.69046 0.0
H2318 H 0.88498 0.5122 0.73343 0.0
H2319 H 0.9579 0.52713 0.73517 0.0
H2320 H 0.95798 0.48921 0.8097 0.0
H2321 H 0.95669 0.49837 0.7649 0.0
H2322 H 0.88806 0.5259 0.7743 0.0
H2323 H 0.88907 0.51531 0.81888 0.0
C2324 C 0.90007 0.52379 0.69888 0.0
C2325 C 0.9202 0.53043 0.68622 0.0
C2326 C 0.90076 0.51779 0.72449 0.0
C2327 C 0.92154 0.51882 0.73819 0.0
C2328 C 0.94165 0.52558 0.72533 0.0
C2329 C 0.94103 0.53106 0.69963 0.0
C2330 C 0.94272 0.49738 0.80217 0.0
C2331 C 0.92367 0.50165 0.81773 0.0
C2332 C 0.94195 0.50273 0.77643 0.0
C2333 C 0.92227 0.51298 0.76571 0.0
C2334 C 0.90335 0.51758 0.78157 0.0
C2335 C 0.90396 0.51173 0.80721 0.0
H2336 H 0.24141 0.39797 0.10901 0.0
H2337 H 0.25269 0.4375 0.17706 0.0
H2338 H 0.21126 0.42465 0.09635 0.0
H2339 H 0.22318 0.46468 0.16391 0.0
H2340 H 0.15374 0.49681 0.14583 0.0
H2341 H 0.18234 0.46855 0.15855 0.0
H2342 H 0.20569 0.46336 0.08127 0.0
H2343 H 0.17643 0.49099 0.06836 0.0
C2344 C 0.23747 0.41228 0.12137 0.0
C2345 C 0.2496 0.41543 0.14416 0.0
C2346 C 0.2203 0.42779 0.11391 0.0
C2347 C 0.21469 0.44693 0.12904 0.0
C2348 C 0.22677 0.45004 0.15187 0.0
C2349 C 0.24395 0.43454 0.1593 0.0
C2350 C 0.16469 0.48943 0.13142 0.0
C2351 C 0.16259 0.49625 0.10598 0.0
C2352 C 0.18138 0.47339 0.13881 0.0
C2353 C 0.1965 0.46365 0.12101 0.0
C2354 C 0.19425 0.47027 0.09552 0.0
C2355 C 0.17757 0.48636 0.08812 0.0
H2356 H 0.84273 1.01357 0.4213 0.0
H2357 H 0.8951 0.97409 0.38305 0.0
H2358 H 0.81379 0.98558 0.40833 0.0
H2359 H 0.866 0.94631 0.36958 0.0
H2360 H 0.81031 0.88925 0.37253 0.0
H2361 H 0.83986 0.91642 0.38638 0.0
H2362 H 0.79431 0.97304 0.3696 0.0
H2363 H 0.76467 0.94592 0.35629 0.0
C2364 C 0.84814 0.99884 0.41028 0.0
C2365 C 0.87135 0.99617 0.4033 0.0
C2366 C 0.83146 0.9829 0.40257 0.0
C2367 C 0.83748 0.96369 0.38778 0.0
C2368 C 0.86073 0.96079 0.38109 0.0
C2369 C 0.87742 0.97687 0.38864 0.0
C2370 C 0.80654 0.90748 0.37192 0.0
C2371 C 0.78502 0.91532 0.36327 0.0
C2372 C 0.82358 0.92309 0.37965 0.0
C2373 C 0.81951 0.94697 0.37918 0.0
C2374 C 0.798 0.95479 0.37049 0.0
C2375 C 0.78105 0.93921 0.36258 0.0
H2376 H 0.31327 0.65119 0.63537 0.0
H2377 H 0.26997 0.59456 0.65836 0.0
H2378 H 0.34235 0.62374 0.62056 0.0
H2379 H 0.29893 0.56737 0.64402 0.0
H2380 H 0.3427 0.52531 0.58986 0.0
H2381 H 0.31507 0.55442 0.60315 0.0
H2382 H 0.36984 0.59372 0.63745 0.0
H2383 H 0.39765 0.56468 0.62374 0.0
C2384 C 0.30997 0.63294 0.63734 0.0
C2385 C 0.28928 0.62515 0.64819 0.0
C2386 C 0.32668 0.61721 0.62901 0.0
C2387 C 0.32292 0.59333 0.63098 0.0
C2388 C 0.3023 0.58561 0.64194 0.0
C2389 C 0.28578 0.60126 0.65048 0.0
C2390 C 0.34895 0.54028 0.59992 0.0
C2391 C 0.37245 0.54255 0.60574 0.0
C2392 C 0.33305 0.55688 0.60779 0.0
C2393 C 0.34019 0.57635 0.62154 0.0
C2394 C 0.36377 0.57899 0.62681 0.0
C2395 C 0.37968 0.56223 0.61914 0.0
H2396 H 0.64256 0.05735 0.88012 0.0
H2397 H 0.69708 1.01234 0.90517 0.0
H2398 H 0.67103 0.08579 0.86708 0.0
H2399 H 0.72542 0.04108 0.89307 0.0
H2400 H 0.77171 0.08682 0.84519 0.0
H2401 H 0.74263 0.05854 0.85657 0.0
H2402 H 0.69859 0.11297 0.88384 0.0
H2403 H 0.72733 0.14137 0.87154 0.0
C2404 C 0.66057 0.05344 0.88285 0.0
C2405 C 0.66737 0.0324 0.89376 0.0
C2406 C 0.67695 0.06992 0.87561 0.0
C2407 C 0.70063 0.06583 0.87898 0.0
C2408 C 0.70741 0.04479 0.88986 0.0
C2409 C 0.69105 0.02835 0.89713 0.0
C2410 C 0.75576 0.09287 0.85333 0.0
C2411 C 0.75203 0.11653 0.85738 0.0
C2412 C 0.73912 0.07655 0.86017 0.0
C2413 C 0.7182 0.08336 0.87126 0.0
C2414 C 0.71436 0.10703 0.87514 0.0
C2415 C 0.73103 0.12336 0.86833 0.0
H2416 H 0.13474 0.56468 0.37855 0.0
H2417 H 0.18777 0.52712 0.41804 0.0
H2418 H 0.16354 0.5922 0.36358 0.0
H2419 H 0.21634 0.55478 0.40355 0.0
H2420 H 0.26486 0.59151 0.34927 0.0
H2421 H 0.23494 0.56526 0.36351 0.0
H2422 H 0.19026 0.62293 0.37872 0.0
H2423 H 0.22019 0.64934 0.36391 0.0
C2424 C 0.15249 0.56229 0.38412 0.0
C2425 C 0.15885 0.54358 0.39953 0.0
C2426 C 0.16899 0.5782 0.37569 0.0
C2427 C 0.19232 0.57567 0.38221 0.0
C2428 C 0.1986 0.55713 0.39787 0.0
C2429 C 0.18212 0.54138 0.40646 0.0
C2430 C 0.24859 0.59868 0.35528 0.0
C2431 C 0.24502 0.62264 0.35533 0.0
C2432 C 0.23148 0.58358 0.36378 0.0
C2433 C 0.2102 0.59194 0.37246 0.0
C2434 C 0.20639 0.61587 0.37206 0.0
C2435 C 0.22363 0.63103 0.36374 0.0
H2436 H 0.6509 0.99276 0.64784 0.0
H2437 H 0.67673 0.98839 0.57144 0.0
H2438 H 0.67868 0.96391 0.66117 0.0
H2439 H 0.7052 0.96035 0.58502 0.0
H2440 H 0.74093 0.8952 0.6117 0.0
H2441 H 0.71071 0.92169 0.59883 0.0
H2442 H 0.71878 0.95909 0.66885 0.0
H2443 H 0.74825 0.93198 0.68221 0.0
C2444 C 0.66237 0.98562 0.63379 0.0
C2445 C 0.66137 0.99306 0.60846 0.0
C2446 C 0.67859 0.96921 0.64155 0.0
C2447 C 0.69438 0.95973 0.62426 0.0
C2448 C 0.69322 0.96698 0.59889 0.0
C2449 C 0.67698 0.98336 0.59112 0.0
C2450 C 0.73606 0.90881 0.62459 0.0
C2451 C 0.74718 0.91129 0.6481 0.0
C2452 C 0.71886 0.92427 0.61702 0.0
C2453 C 0.71223 0.94272 0.63268 0.0
C2454 C 0.72315 0.94501 0.65632 0.0
C2455 C 0.74033 0.92955 0.66391 0.0
H2456 H 0.33928 0.51622 0.92086 0.0
H2457 H 0.39182 0.47518 0.88487 0.0
H2458 H 0.31048 0.48767 0.90932 0.0
H2459 H 0.36282 0.44699 0.87256 0.0
H2460 H 0.30776 0.39012 0.8753 0.0
H2461 H 0.33698 0.41766 0.88891 0.0
H2462 H 0.29059 0.47367 0.87233 0.0
H2463 H 0.2612 0.4462 0.85956 0.0
C2464 C 0.34479 0.50107 0.91063 0.0
C2465 C 0.36803 0.49817 0.90386 0.0
C2466 C 0.32815 0.48477 0.90371 0.0
C2467 C 0.3342 0.465 0.88983 0.0
C2468 C 0.35748 0.46188 0.88339 0.0
C2469 C 0.37414 0.47823 0.89025 0.0
C2470 C 0.30368 0.40828 0.87476 0.0
C2471 C 0.28199 0.41581 0.86627 0.0
C2472 C 0.32058 0.42413 0.88233 0.0
C2473 C 0.31624 0.44798 0.88178 0.0
C2474 C 0.29454 0.45548 0.87334 0.0
C2475 C 0.2777 0.43966 0.86568 0.0
H2476 H 0.88462 0.04205 0.14838 0.0
H2477 H 0.86225 0.04719 0.07072 0.0
H2478 H 0.85589 0.07033 0.16065 0.0
H2479 H 0.8328 0.0747 0.0832 0.0
H2480 H 0.79524 0.13918 0.10964 0.0
H2481 H 0.82603 0.11307 0.09756 0.0
H2482 H 0.81539 0.0742 0.16615 0.0
H2483 H 0.78534 0.1009 0.17879 0.0
C2484 C 0.87373 0.04928 0.13383 0.0
C2485 C 0.87595 0.04221 0.10847 0.0
C2486 C 0.85695 0.06534 0.14097 0.0
C2487 C 0.8418 0.07482 0.123 0.0
C2488 C 0.84424 0.06801 0.09759 0.0
C2489 C 0.86104 0.05197 0.09044 0.0
C2490 C 0.7996 0.12528 0.12237 0.0
C2491 C 0.78763 0.12233 0.1453 0.0
C2492 C 0.81716 0.11006 0.11524 0.0
C2493 C 0.82332 0.09138 0.13079 0.0
C2494 C 0.81143 0.08849 0.15376 0.0
C2495 C 0.79389 0.10372 0.16091 0.0
H2496 H 0.859 0.54452 0.93375 0.0
H2497 H 0.89268 0.54829 0.86111 0.0
H2498 H 0.83167 0.57367 0.92027 0.0
H2499 H 0.86608 0.57833 0.84808 0.0
H2500 H 0.79788 0.61036 0.82225 0.0
H2501 H 0.82714 0.58322 0.83583 0.0
H2502 H 0.82608 0.61305 0.91063 0.0
H2503 H 0.79592 0.63935 0.89746 0.0
C2504 C 0.86075 0.55166 0.91497 0.0
C2505 C 0.87812 0.54383 0.89857 0.0
C2506 C 0.84517 0.56867 0.9073 0.0
C2507 C 0.84651 0.57846 0.883 0.0
C2508 C 0.86422 0.57102 0.8668 0.0
C2509 C 0.87977 0.55395 0.87444 0.0
C2510 C 0.80373 0.61114 0.84163 0.0
C2511 C 0.79426 0.62716 0.85868 0.0
C2512 C 0.82083 0.59567 0.84938 0.0
C2513 C 0.82908 0.59578 0.87441 0.0
C2514 C 0.81999 0.61214 0.89131 0.0
C2515 C 0.80281 0.62753 0.8836 0.0
H2516 H 0.17555 0.04614 0.57331 0.0
H2517 H 0.15187 0.04018 0.65044 0.0
H2518 H 0.20371 0.07467 0.58645 0.0
H2519 H 0.17922 0.06958 0.66332 0.0
H2520 H 0.24843 0.10285 0.68287 0.0
H2521 H 0.21916 0.07533 0.66998 0.0
H2522 H 0.20894 0.11315 0.6006 0.0
H2523 H 0.23904 0.14 0.61292 0.0
C2524 C 0.17619 0.05091 0.59306 0.0
C2525 C 0.16128 0.04061 0.61073 0.0
C2526 C 0.19224 0.06759 0.60058 0.0
C2527 C 0.19388 0.07457 0.62601 0.0
C2528 C 0.17877 0.06451 0.64363 0.0
C2529 C 0.16277 0.04777 0.63613 0.0
C2530 C 0.24008 0.10529 0.6648 0.0
C2531 C 0.24632 0.12375 0.64898 0.0
C2532 C 0.223 0.08958 0.6575 0.0
C2533 C 0.21156 0.09187 0.63417 0.0
C2534 C 0.21752 0.11056 0.61854 0.0
C2535 C 0.23465 0.12624 0.62581 0.0
H2536 H 0.69112 0.51313 0.42138 0.0
H2537 H 0.63974 0.47446 0.38046 0.0
H2538 H 0.72033 0.48539 0.40873 0.0
H2539 H 0.66914 0.44697 0.36726 0.0
H2540 H 0.7244 0.38978 0.37054 0.0
H2541 H 0.69458 0.41675 0.38392 0.0
H2542 H 0.74102 0.47351 0.37075 0.0
H2543 H 0.77096 0.44656 0.358 0.0
C2544 C 0.68597 0.49864 0.40983 0.0
C2545 C 0.66296 0.49612 0.40202 0.0
C2546 C 0.70283 0.48285 0.4023 0.0
C2547 C 0.69719 0.46395 0.38684 0.0
C2548 C 0.67412 0.46121 0.3793 0.0
C2549 C 0.65726 0.47713 0.38669 0.0
C2550 C 0.72832 0.40799 0.37064 0.0
C2551 C 0.75019 0.41591 0.36319 0.0
C2552 C 0.71112 0.4235 0.37809 0.0
C2553 C 0.71535 0.44736 0.37849 0.0
C2554 C 0.73719 0.45526 0.37096 0.0
C2555 C 0.75432 0.43978 0.36336 0.0
H2556 H 0.34479 1.0122 0.08426 0.0
H2557 H 0.3971 0.97263 0.12255 0.0
H2558 H 0.31585 0.98423 0.09706 0.0
H2559 H 0.36795 0.94489 0.13591 0.0
H2560 H 0.31201 0.88814 0.13355 0.0
H2561 H 0.34166 0.91506 0.11945 0.0
H2562 H 0.29637 0.97202 0.13575 0.0
H2563 H 0.26662 0.94515 0.14925 0.0
C2564 C 0.35021 0.99745 0.09521 0.0
C2565 C 0.3734 0.99476 0.10229 0.0
C2566 C 0.33351 0.98152 0.10284 0.0
C2567 C 0.33948 0.96233 0.11768 0.0
C2568 C 0.36272 0.95937 0.12438 0.0
C2569 C 0.37944 0.97542 0.11688 0.0
C2570 C 0.30831 0.90638 0.13398 0.0
C2571 C 0.28683 0.9144 0.14255 0.0
C2572 C 0.32542 0.92185 0.12611 0.0
C2573 C 0.32144 0.94575 0.12638 0.0
C2574 C 0.29998 0.95374 0.13499 0.0
C2575 C 0.28296 0.9383 0.14303 0.0
H2576 H 0.77023 0.44012 0.66669 0.0
H2577 H 0.80639 0.3872 0.62544 0.0
H2578 H 0.79823 0.46851 0.65254 0.0
H2579 H 0.8342 0.41582 0.61076 0.0
H2580 H 0.89264 0.47086 0.61244 0.0
H2581 H 0.86552 0.44123 0.6263 0.0
H2582 H 0.80912 0.48808 0.61342 0.0
H2583 H 0.83612 0.51773 0.60021 0.0
C2584 C 0.78422 0.43447 0.65472 0.0
C2585 C 0.78597 0.41128 0.64727 0.0
C2586 C 0.80017 0.45085 0.64635 0.0
C2587 C 0.81843 0.44454 0.63036 0.0
C2588 C 0.82042 0.42129 0.62316 0.0
C2589 C 0.80433 0.4049 0.6314 0.0
C2590 C 0.87446 0.47485 0.6126 0.0
C2591 C 0.86666 0.49678 0.60518 0.0
C2592 C 0.85888 0.45779 0.62036 0.0
C2593 C 0.8351 0.46227 0.62113 0.0
C2594 C 0.82731 0.48408 0.61339 0.0
C2595 C 0.84283 0.50105 0.60549 0.0
H2596 H 0.31134 0.14983 0.37388 0.0
H2597 H 0.26999 0.09327 0.34657 0.0
H2598 H 0.34068 0.12258 0.38804 0.0
H2599 H 0.29945 0.06623 0.36008 0.0
H2600 H 0.34244 0.02291 0.4136 0.0
H2601 H 0.31462 0.05144 0.39986 0.0
H2602 H 0.3697 0.09455 0.3724 0.0
H2603 H 0.39781 0.06606 0.38682 0.0
C2604 C 0.30849 0.13164 0.37081 0.0
C2605 C 0.28816 0.12384 0.35909 0.0
C2606 C 0.32544 0.11601 0.37874 0.0
C2607 C 0.32241 0.09216 0.37538 0.0
C2608 C 0.30226 0.08443 0.36332 0.0
C2609 C 0.28543 0.10002 0.35527 0.0
C2610 C 0.34877 0.03858 0.40502 0.0
C2611 C 0.37252 0.0421 0.40146 0.0
C2612 C 0.33271 0.05486 0.39679 0.0
C2613 C 0.33984 0.07526 0.3848 0.0
C2614 C 0.36359 0.07908 0.38165 0.0
C2615 C 0.37971 0.06265 0.38976 0.0
H2616 H 0.72261 0.64569 0.13763 0.0
H2617 H 0.76823 0.58879 0.15296 0.0
H2618 H 0.69284 0.6187 0.12395 0.0
H2619 H 0.73836 0.56183 0.1398 0.0
H2620 H 0.68942 0.52202 0.08795 0.0
H2621 H 0.71854 0.54976 0.10101 0.0
H2622 H 0.66679 0.58873 0.14086 0.0
H2623 H 0.63749 0.56118 0.1273 0.0
C2624 C 0.72633 0.62744 0.13807 0.0
C2625 C 0.7479 0.61948 0.14639 0.0
C2626 C 0.70916 0.61194 0.13045 0.0
C2627 C 0.71317 0.58805 0.1307 0.0
C2628 C 0.73472 0.5801 0.13909 0.0
C2629 C 0.75181 0.59558 0.14691 0.0
C2630 C 0.68414 0.53663 0.09923 0.0
C2631 C 0.66101 0.53929 0.10649 0.0
C2632 C 0.70093 0.55243 0.10699 0.0
C2633 C 0.69509 0.57147 0.12212 0.0
C2634 C 0.67191 0.57436 0.1291 0.0
C2635 C 0.65511 0.55843 0.12149 0.0
H2636 H 0.19781 0.02074 0.90084 0.0
H2637 H 0.14148 0.97336 0.88967 0.0
H2638 H 0.22491 0.99098 0.88794 0.0
H2639 H 0.16858 0.94373 0.87613 0.0
H2640 H 0.22673 0.88948 0.87869 0.0
H2641 H 0.19932 0.91874 0.89248 0.0
H2642 H 0.23642 0.97015 0.84992 0.0
H2643 H 0.26409 0.94109 0.83669 0.0
C2644 C 0.19117 1.00396 0.89575 0.0
C2645 C 0.16738 0.99954 0.89634 0.0
C2646 C 0.20673 0.98693 0.88806 0.0
C2647 C 0.19898 0.96491 0.88088 0.0
C2648 C 0.17521 0.9604 0.8817 0.0
C2649 C 0.15962 0.9775 0.88923 0.0
C2650 C 0.22915 0.90703 0.87238 0.0
C2651 C 0.24772 0.91284 0.85653 0.0
C2652 C 0.21327 0.9238 0.8801 0.0
C2653 C 0.21563 0.94688 0.87238 0.0
C2654 C 0.23416 0.95264 0.85649 0.0
C2655 C 0.24992 0.93587 0.84864 0.0
loop_
_geom_bond_atom_site_label_1
_geom_bond_atom_site_label_2
_geom_bond_distance
_geom_bond_site_symmetry_2
_ccdc_geom_bond_type
Co0 N4 2.148 . S
Co0 N10 2.128 . S
Co0 N20 2.194 . S
Co0 O25 2.351 . S
Co0 O26 2.155 . S
Co0 O27 2.096 . S
C1 N4 1.301 . S
C1 N5 1.328 . S
C1 H6 0.930 . S
C2 C3 1.333 . S
C2 N4 1.317 . S
C2 H7 0.930 . S
C3 C2 1.333 . S
C3 N5 1.350 . S
C3 H29 0.931 . S
N4 Co0 2.148 . S
N4 C1 1.301 . S
N4 C2 1.317 . S
N5 C1 1.328 . S
N5 C3 1.350 . S
H6 C1 0.930 . S
H7 C2 0.930 . S
C8 O9 1.224 . S
C8 O27 1.247 . S
O9 C8 1.224 . S
N10 Co0 2.128 . S
N10 C11 1.355 . S
N10 C13 1.311 . S
C11 N10 1.355 . S
C11 C12 1.363 . S
C11 H23 0.929 . S
C12 C11 1.363 . S
C12 N14 1.375 . S
C12 H30 0.931 . S
C13 N10 1.311 . S
C13 N14 1.347 . S
C13 H24 0.929 . S
N14 C12 1.375 . S
N14 C13 1.347 . S
C15 C18 1.365 . S
C15 N20 1.328 . S
C15 H21 0.929 . S
C16 C17 1.362 . S
C16 C19 1.378 . S
C16 H31 0.929 . S
C17 C16 1.362 . S
C17 C18 1.366 . S
C18 C15 1.365 . S
C18 C17 1.366 . S
C18 H32 0.930 . S
C19 C16 1.378 . S
C19 N20 1.315 . S
C19 H22 0.930 . S
N20 Co0 2.194 . S
N20 C15 1.328 . S
N20 C19 1.315 . S
H21 C15 0.929 . S
H22 C19 0.930 . S
H23 C11 0.929 . S
H24 C13 0.929 . S
O25 Co0 2.351 . S
O25 C28 1.244 . S
O26 Co0 2.155 . S
O26 C28 1.240 . S
O27 Co0 2.096 . S
O27 C8 1.247 . S
C28 O25 1.244 . S
C28 O26 1.240 . S
H29 C3 0.931 . S
H30 C12 0.931 . S
H31 C16 0.929 . S
H32 C18 0.930 . S
Co33 N37 2.148 . S
Co33 N43 2.128 . S
Co33 N53 2.194 . S
Co33 O58 2.351 . S
Co33 O59 2.155 . S
Co33 O60 2.096 . S
C34 N37 1.301 . S
C34 N38 1.328 . S
C34 H39 0.930 . S
C35 C36 1.333 . S
C35 N37 1.317 . S
C35 H40 0.930 . S
C36 C35 1.333 . S
C36 N38 1.350 . S
C36 H62 0.931 1_655 S
N37 Co33 2.148 . S
N37 C34 1.301 . S
N37 C35 1.317 . S
N38 C34 1.328 . S
N38 C36 1.350 . S
H39 C34 0.930 . S
H40 C35 0.930 . S
C41 O42 1.224 . S
C41 O60 1.247 . S
O42 C41 1.224 . S
N43 Co33 2.128 . S
N43 C44 1.355 . S
N43 C46 1.311 . S
C44 N43 1.355 . S
C44 C45 1.363 . S
C44 H56 0.929 . S
C45 C44 1.363 . S
C45 N47 1.375 . S
C45 H63 0.931 . S
C46 N43 1.311 . S
C46 N47 1.347 . S
C46 H57 0.929 1_545 S
N47 C45 1.375 . S
N47 C46 1.347 . S
C48 C51 1.365 . S
C48 N53 1.328 . S
C48 H54 0.929 . S
C49 C50 1.362 . S
C49 C52 1.378 . S
C49 H64 0.929 . S
C50 C49 1.362 . S
C50 C51 1.366 . S
C51 C48 1.365 . S
C51 C50 1.366 . S
C51 H65 0.930 . S
C52 C49 1.378 . S
C52 N53 1.315 . S
C52 H55 0.930 . S
N53 Co33 2.194 . S
N53 C48 1.328 . S
N53 C52 1.315 . S
H54 C48 0.929 . S
H55 C52 0.930 . S
H56 C44 0.929 . S
H57 C46 0.929 1_565 S
O58 Co33 2.351 . S
O58 C61 1.244 . S
O59 Co33 2.155 . S
O59 C61 1.240 . S
O60 Co33 2.096 . S
O60 C41 1.247 . S
C61 O58 1.244 . S
C61 O59 1.240 . S
H62 C36 0.931 1_455 S
H63 C45 0.931 . S
H64 C49 0.929 . S
H65 C51 0.930 . S
Co66 N70 2.148 . S
Co66 N76 2.128 . S
Co66 N86 2.194 . S
Co66 O91 2.351 . S
Co66 O92 2.155 . S
Co66 O93 2.096 . S
C67 N70 1.301 . S
C67 N71 1.328 . S
C67 H72 0.930 . S
C68 C69 1.333 . S
C68 N70 1.317 . S
C68 H73 0.930 . S
C69 C68 1.333 . S
C69 N71 1.350 . S
C69 H95 0.931 . S
N70 Co66 2.148 . S
N70 C67 1.301 . S
N70 C68 1.317 . S
N71 C67 1.328 . S
N71 C69 1.350 . S
H72 C67 0.930 . S
H73 C68 0.930 . S
C74 O75 1.224 . S
C74 O93 1.247 . S
O75 C74 1.224 . S
N76 Co66 2.128 . S
N76 C77 1.355 . S
N76 C79 1.311 . S
C77 N76 1.355 . S
C77 C78 1.363 . S
C77 H89 0.929 . S
C78 C77 1.363 . S
C78 N80 1.375 . S
C78 H96 0.931 . S
C79 N76 1.311 . S
C79 N80 1.347 . S
C79 H90 0.929 . S
N80 C78 1.375 . S
N80 C79 1.347 . S
C81 C84 1.365 . S
C81 N86 1.328 . S
C81 H87 0.929 . S
C82 C83 1.362 . S
C82 C85 1.378 . S
C82 H97 0.929 . S
C83 C82 1.362 . S
C83 C84 1.366 . S
C84 C81 1.365 . S
C84 C83 1.366 . S
C84 H98 0.930 . S
C85 C82 1.378 . S
C85 N86 1.315 . S
C85 H88 0.930 . S
N86 Co66 2.194 . S
N86 C81 1.328 . S
N86 C85 1.315 . S
H87 C81 0.929 . S
H88 C85 0.930 . S
H89 C77 0.929 . S
H90 C79 0.929 . S
O91 Co66 2.351 . S
O91 C94 1.244 . S
O92 Co66 2.155 . S
O92 C94 1.240 . S
O93 Co66 2.096 . S
O93 C74 1.247 . S
C94 O91 1.244 . S
C94 O92 1.240 . S
H95 C69 0.931 . S
H96 C78 0.931 . S
H97 C82 0.929 . S
H98 C84 0.930 . S
Co99 N103 2.148 . S
Co99 N109 2.128 . S
Co99 N119 2.194 . S
Co99 O124 2.351 . S
Co99 O125 2.155 . S
Co99 O126 2.096 . S
C100 N103 1.301 . S
C100 N104 1.328 . S
C100 H105 0.930 . S
C101 C102 1.333 . S
C101 N103 1.317 . S
C101 H106 0.930 . S
C102 C101 1.333 . S
C102 N104 1.350 . S
C102 H128 0.931 . S
N103 Co99 2.148 . S
N103 C100 1.301 . S
N103 C101 1.317 . S
N104 C100 1.328 . S
N104 C102 1.350 . S
H105 C100 0.930 . S
H106 C101 0.930 . S
C107 O108 1.224 . S
C107 O126 1.247 . S
O108 C107 1.224 . S
N109 Co99 2.128 . S
N109 C110 1.355 . S
N109 C112 1.311 . S
C110 N109 1.355 . S
C110 C111 1.363 . S
C110 H122 0.929 . S
C111 C110 1.363 . S
C111 N113 1.375 . S
C111 H129 0.931 . S
C112 N109 1.311 . S
C112 N113 1.347 . S
C112 H123 0.929 1_565 S
N113 C111 1.375 . S
N113 C112 1.347 . S
C114 C117 1.365 . S
C114 N119 1.328 . S
C114 H120 0.929 . S
C115 C116 1.362 . S
C115 C118 1.378 . S
C115 H130 0.929 . S
C116 C115 1.362 . S
C116 C117 1.366 . S
C117 C114 1.365 . S
C117 C116 1.366 . S
C117 H131 0.930 . S
C118 C115 1.378 . S
C118 N119 1.315 . S
C118 H121 0.930 . S
N119 Co99 2.194 . S
N119 C114 1.328 . S
N119 C118 1.315 . S
H120 C114 0.929 . S
H121 C118 0.930 . S
H122 C110 0.929 . S
H123 C112 0.929 1_545 S
O124 Co99 2.351 . S
O124 C127 1.244 . S
O125 Co99 2.155 . S
O125 C127 1.240 . S
O126 Co99 2.096 . S
O126 C107 1.247 . S
C127 O124 1.244 . S
C127 O125 1.240 . S
H128 C102 0.931 . S
H129 C111 0.931 . S
H130 C115 0.929 . S
H131 C117 0.930 . S
Co132 N136 2.148 . S
Co132 N142 2.128 . S
Co132 N152 2.194 . S
Co132 O157 2.351 . S
Co132 O158 2.155 . S
Co132 O159 2.096 . S
C133 N136 1.301 . S
C133 N137 1.328 . S
C133 H138 0.930 . S
C134 C135 1.333 . S
C134 N136 1.317 . S
C134 H139 0.930 . S
C135 C134 1.333 . S
C135 N137 1.350 . S
C135 H161 0.931 . S
N136 Co132 2.148 . S
N136 C133 1.301 . S
N136 C134 1.317 . S
N137 C133 1.328 . S
N137 C135 1.350 . S
H138 C133 0.930 . S
H139 C134 0.930 . S
C140 O141 1.224 . S
C140 O159 1.247 . S
O141 C140 1.224 . S
N142 Co132 2.128 . S
N142 C143 1.355 . S
N142 C145 1.311 . S
C143 N142 1.355 . S
C143 C144 1.363 . S
C143 H155 0.929 . S
C144 C143 1.363 . S
C144 N146 1.375 . S
C144 H162 0.931 . S
C145 N142 1.311 . S
C145 N146 1.347 . S
C145 H156 0.929 . S
N146 C144 1.375 . S
N146 C145 1.347 . S
C147 C150 1.365 . S
C147 N152 1.328 . S
C147 H153 0.929 . S
C148 C149 1.362 . S
C148 C151 1.378 . S
C148 H163 0.929 . S
C149 C148 1.362 . S
C149 C150 1.366 . S
C150 C147 1.365 . S
C150 C149 1.366 . S
C150 H164 0.930 . S
C151 C148 1.378 . S
C151 N152 1.315 . S
C151 H154 0.930 . S
N152 Co132 2.194 . S
N152 C147 1.328 . S
N152 C151 1.315 . S
H153 C147 0.929 . S
H154 C151 0.930 . S
H155 C143 0.929 . S
H156 C145 0.929 . S
O157 Co132 2.351 . S
O157 C160 1.244 . S
O158 Co132 2.155 . S
O158 C160 1.240 . S
O159 Co132 2.096 . S
O159 C140 1.247 . S
C160 O157 1.244 . S
C160 O158 1.240 . S
H161 C135 0.931 . S
H162 C144 0.931 . S
H163 C148 0.929 . S
H164 C150 0.930 . S
Co165 N169 2.148 . S
Co165 N175 2.128 . S
Co165 N185 2.194 . S
Co165 O190 2.351 . S
Co165 O191 2.155 . S
Co165 O192 2.096 . S
C166 N169 1.301 . S
C166 N170 1.328 . S
C166 H171 0.930 . S
C167 C168 1.333 . S
C167 N169 1.317 . S
C167 H172 0.930 . S
C168 C167 1.333 . S
C168 N170 1.350 . S
C168 H194 0.931 . S
N169 Co165 2.148 . S
N169 C166 1.301 . S
N169 C167 1.317 . S
N170 C166 1.328 . S
N170 C168 1.350 . S
H171 C166 0.930 . S
H172 C167 0.930 . S
C173 O174 1.224 . S
C173 O192 1.247 . S
O174 C173 1.224 . S
N175 Co165 2.128 . S
N175 C176 1.355 . S
N175 C178 1.311 . S
C176 N175 1.355 . S
C176 C177 1.363 . S
C176 H188 0.929 . S
C177 C176 1.363 . S
C177 N179 1.375 . S
C177 H195 0.931 . S
C178 N175 1.311 . S
C178 N179 1.347 . S
C178 H189 0.929 1_545 S
N179 C177 1.375 . S
N179 C178 1.347 . S
C180 C183 1.365 . S
C180 N185 1.328 . S
C180 H186 0.929 . S
C181 C182 1.362 . S
C181 C184 1.378 . S
C181 H196 0.929 . S
C182 C181 1.362 . S
C182 C183 1.366 . S
C183 C180 1.365 . S
C183 C182 1.366 . S
C183 H197 0.930 . S
C184 C181 1.378 . S
C184 N185 1.315 . S
C184 H187 0.930 . S
N185 Co165 2.194 . S
N185 C180 1.328 . S
N185 C184 1.315 . S
H186 C180 0.929 . S
H187 C184 0.930 . S
H188 C176 0.929 . S
H189 C178 0.929 1_565 S
O190 Co165 2.351 . S
O190 C193 1.244 . S
O191 Co165 2.155 . S
O191 C193 1.240 . S
O192 Co165 2.096 . S
O192 C173 1.247 . S
C193 O190 1.244 . S
C193 O191 1.240 . S
H194 C168 0.931 . S
H195 C177 0.931 . S
H196 C181 0.929 . S
H197 C183 0.930 . S
Co198 N202 2.148 . S
Co198 N208 2.128 . S
Co198 N218 2.194 . S
Co198 O223 2.351 . S
Co198 O224 2.155 . S
Co198 O225 2.096 . S
C199 N202 1.301 . S
C199 N203 1.328 . S
C199 H204 0.930 . S
C200 C201 1.333 . S
C200 N202 1.317 . S
C200 H205 0.930 . S
C201 C200 1.333 . S
C201 N203 1.350 . S
C201 H227 0.931 . S
N202 Co198 2.148 . S
N202 C199 1.301 . S
N202 C200 1.317 . S
N203 C199 1.328 . S
N203 C201 1.350 . S
H204 C199 0.930 . S
H205 C200 0.930 . S
C206 O207 1.224 . S
C206 O225 1.247 . S
O207 C206 1.224 . S
N208 Co198 2.128 . S
N208 C209 1.355 . S
N208 C211 1.311 . S
C209 N208 1.355 . S
C209 C210 1.363 . S
C209 H221 0.929 . S
C210 C209 1.363 . S
C210 N212 1.375 . S
C210 H228 0.931 . S
C211 N208 1.311 . S
C211 N212 1.347 . S
C211 H222 0.929 . S
N212 C210 1.375 . S
N212 C211 1.347 . S
C213 C216 1.365 . S
C213 N218 1.328 . S
C213 H219 0.929 . S
C214 C215 1.362 . S
C214 C217 1.378 . S
C214 H229 0.929 . S
C215 C214 1.362 . S
C215 C216 1.366 . S
C216 C213 1.365 . S
C216 C215 1.366 . S
C216 H230 0.930 . S
C217 C214 1.378 . S
C217 N218 1.315 . S
C217 H220 0.930 . S
N218 Co198 2.194 . S
N218 C213 1.328 . S
N218 C217 1.315 . S
H219 C213 0.929 . S
H220 C217 0.930 . S
H221 C209 0.929 . S
H222 C211 0.929 . S
O223 Co198 2.351 . S
O223 C226 1.244 . S
O224 Co198 2.155 . S
O224 C226 1.240 . S
O225 Co198 2.096 . S
O225 C206 1.247 . S
C226 O223 1.244 . S
C226 O224 1.240 . S
H227 C201 0.931 . S
H228 C210 0.931 . S
H229 C214 0.929 . S
H230 C216 0.930 . S
Co231 N235 2.148 . S
Co231 N241 2.128 . S
Co231 N251 2.194 . S
Co231 O256 2.351 . S
Co231 O257 2.155 . S
Co231 O258 2.096 . S
C232 N235 1.301 . S
C232 N236 1.328 . S
C232 H237 0.930 . S
C233 C234 1.333 . S
C233 N235 1.317 . S
C233 H238 0.930 . S
C234 C233 1.333 . S
C234 N236 1.350 . S
C234 H260 0.931 1_655 S
N235 Co231 2.148 . S
N235 C232 1.301 . S
N235 C233 1.317 . S
N236 C232 1.328 . S
N236 C234 1.350 . S
H237 C232 0.930 . S
H238 C233 0.930 . S
C239 O240 1.224 . S
C239 O258 1.247 . S
O240 C239 1.224 . S
N241 Co231 2.128 . S
N241 C242 1.355 . S
N241 C244 1.311 . S
C242 N241 1.355 . S
C242 C243 1.363 . S
C242 H254 0.929 . S
C243 C242 1.363 . S
C243 N245 1.375 . S
C243 H261 0.931 . S
C244 N241 1.311 . S
C244 N245 1.347 . S
C244 H255 0.929 1_565 S
N245 C243 1.375 . S
N245 C244 1.347 . S
C246 C249 1.365 . S
C246 N251 1.328 . S
C246 H252 0.929 . S
C247 C248 1.362 . S
C247 C250 1.378 . S
C247 H262 0.929 . S
C248 C247 1.362 . S
C248 C249 1.366 . S
C249 C246 1.365 . S
C249 C248 1.366 . S
C249 H263 0.930 . S
C250 C247 1.378 . S
C250 N251 1.315 . S
C250 H253 0.930 . S
N251 Co231 2.194 . S
N251 C246 1.328 . S
N251 C250 1.315 . S
H252 C246 0.929 . S
H253 C250 0.930 . S
H254 C242 0.929 . S
H255 C244 0.929 1_545 S
O256 Co231 2.351 . S
O256 C259 1.244 . S
O257 Co231 2.155 . S
O257 C259 1.240 . S
O258 Co231 2.096 . S
O258 C239 1.247 . S
C259 O256 1.244 . S
C259 O257 1.240 . S
H260 C234 0.931 1_455 S
H261 C243 0.931 . S
H262 C247 0.929 . S
H263 C249 0.930 . S
Co264 N268 2.148 . S
Co264 N274 2.128 . S
Co264 N284 2.194 . S
Co264 O289 2.351 . S
Co264 O290 2.155 . S
Co264 O291 2.096 . S
C265 N268 1.301 . S
C265 N269 1.328 . S
C265 H270 0.930 . S
C266 C267 1.333 . S
C266 N268 1.317 . S
C266 H271 0.930 . S
C267 C266 1.333 . S
C267 N269 1.350 . S
C267 H293 0.931 . S
N268 Co264 2.148 . S
N268 C265 1.301 . S
N268 C266 1.317 . S
N269 C265 1.328 . S
N269 C267 1.350 . S
H270 C265 0.930 . S
H271 C266 0.930 . S
C272 O273 1.224 . S
C272 O291 1.247 . S
O273 C272 1.224 . S
N274 Co264 2.128 . S
N274 C275 1.355 . S
N274 C277 1.311 . S
C275 N274 1.355 . S
C275 C276 1.363 . S
C275 H287 0.929 . S
C276 C275 1.363 . S
C276 N278 1.375 . S
C276 H294 0.931 . S
C277 N274 1.311 . S
C277 N278 1.347 . S
C277 H288 0.929 . S
N278 C276 1.375 . S
N278 C277 1.347 . S
C279 C282 1.365 . S
C279 N284 1.328 . S
C279 H285 0.929 . S
C280 C281 1.362 . S
C280 C283 1.378 . S
C280 H295 0.929 . S
C281 C280 1.362 . S
C281 C282 1.366 . S
C282 C279 1.365 . S
C282 C281 1.366 . S
C282 H296 0.930 . S
C283 C280 1.378 . S
C283 N284 1.315 . S
C283 H286 0.930 . S
N284 Co264 2.194 . S
N284 C279 1.328 . S
N284 C283 1.315 . S
H285 C279 0.929 . S
H286 C283 0.930 . S
H287 C275 0.929 . S
H288 C277 0.929 . S
O289 Co264 2.351 . S
O289 C292 1.244 . S
O290 Co264 2.155 . S
O290 C292 1.240 . S
O291 Co264 2.096 . S
O291 C272 1.247 . S
C292 O289 1.244 . S
C292 O290 1.240 . S
H293 C267 0.931 . S
H294 C276 0.931 . S
H295 C280 0.929 . S
H296 C282 0.930 . S
Co297 N301 2.148 . S
Co297 N307 2.128 . S
Co297 N317 2.194 . S
Co297 O322 2.351 . S
Co297 O323 2.155 . S
Co297 O324 2.096 . S
C298 N301 1.301 . S
C298 N302 1.328 . S
C298 H303 0.930 . S
C299 C300 1.333 . S
C299 N301 1.317 . S
C299 H304 0.930 . S
C300 C299 1.333 . S
C300 N302 1.350 . S
C300 H326 0.931 1_455 S
N301 Co297 2.148 . S
N301 C298 1.301 . S
N301 C299 1.317 . S
N302 C298 1.328 . S
N302 C300 1.350 . S
H303 C298 0.930 . S
H304 C299 0.930 . S
C305 O306 1.224 . S
C305 O324 1.247 . S
O306 C305 1.224 . S
N307 Co297 2.128 . S
N307 C308 1.355 . S
N307 C310 1.311 . S
C308 N307 1.355 . S
C308 C309 1.363 . S
C308 H320 0.929 . S
C309 C308 1.363 . S
C309 N311 1.375 . S
C309 H327 0.931 . S
C310 N307 1.311 . S
C310 N311 1.347 . S
C310 H321 0.929 1_565 S
N311 C309 1.375 . S
N311 C310 1.347 . S
C312 C315 1.365 . S
C312 N317 1.328 . S
C312 H318 0.929 . S
C313 C314 1.362 . S
C313 C316 1.378 . S
C313 H328 0.929 . S
C314 C313 1.362 . S
C314 C315 1.366 . S
C315 C312 1.365 . S
C315 C314 1.366 . S
C315 H329 0.930 . S
C316 C313 1.378 . S
C316 N317 1.315 . S
C316 H319 0.930 . S
N317 Co297 2.194 . S
N317 C312 1.328 . S
N317 C316 1.315 . S
H318 C312 0.929 . S
H319 C316 0.930 . S
H320 C308 0.929 . S
H321 C310 0.929 1_545 S
O322 Co297 2.351 . S
O322 C325 1.244 . S
O323 Co297 2.155 . S
O323 C325 1.240 . S
O324 Co297 2.096 . S
O324 C305 1.247 . S
C325 O322 1.244 . S
C325 O323 1.240 . S
H326 C300 0.931 1_655 S
H327 C309 0.931 . S
H328 C313 0.929 . S
H329 C315 0.930 . S
Co330 N334 2.148 . S
Co330 N340 2.128 . S
Co330 N350 2.194 . S
Co330 O355 2.351 . S
Co330 O356 2.155 . S
Co330 O357 2.096 . S
C331 N334 1.301 . S
C331 N335 1.328 . S
C331 H336 0.930 . S
C332 C333 1.333 . S
C332 N334 1.317 . S
C332 H337 0.930 . S
C333 C332 1.333 . S
C333 N335 1.350 . S
C333 H359 0.931 . S
N334 Co330 2.148 . S
N334 C331 1.301 . S
N334 C332 1.317 . S
N335 C331 1.328 . S
N335 C333 1.350 . S
H336 C331 0.930 . S
H337 C332 0.930 . S
C338 O339 1.224 . S
C338 O357 1.247 . S
O339 C338 1.224 . S
N340 Co330 2.128 . S
N340 C341 1.355 . S
N340 C343 1.311 . S
C341 N340 1.355 . S
C341 C342 1.363 . S
C341 H353 0.929 . S
C342 C341 1.363 . S
C342 N344 1.375 . S
C342 H360 0.931 . S
C343 N340 1.311 . S
C343 N344 1.347 . S
C343 H354 0.929 . S
N344 C342 1.375 . S
N344 C343 1.347 . S
C345 C348 1.365 . S
C345 N350 1.328 . S
C345 H351 0.929 . S
C346 C347 1.362 . S
C346 C349 1.378 . S
C346 H361 0.929 . S
C347 C346 1.362 . S
C347 C348 1.366 . S
C348 C345 1.365 . S
C348 C347 1.366 . S
C348 H362 0.930 . S
C349 C346 1.378 . S
C349 N350 1.315 . S
C349 H352 0.930 . S
N350 Co330 2.194 . S
N350 C345 1.328 . S
N350 C349 1.315 . S
H351 C345 0.929 . S
H352 C349 0.930 . S
H353 C341 0.929 . S
H354 C343 0.929 . S
O355 Co330 2.351 . S
O355 C358 1.244 . S
O356 Co330 2.155 . S
O356 C358 1.240 . S
O357 Co330 2.096 . S
O357 C338 1.247 . S
C358 O355 1.244 . S
C358 O356 1.240 . S
H359 C333 0.931 . S
H360 C342 0.931 . S
H361 C346 0.929 . S
H362 C348 0.930 . S
Co363 N367 2.148 . S
Co363 N373 2.128 . S
Co363 N383 2.194 . S
Co363 O388 2.351 . S
Co363 O389 2.155 . S
Co363 O390 2.096 . S
C364 N367 1.301 . S
C364 N368 1.328 . S
C364 H369 0.930 . S
C365 C366 1.333 . S
C365 N367 1.317 . S
C365 H370 0.930 . S
C366 C365 1.333 . S
C366 N368 1.350 . S
C366 H392 0.931 . S
N367 Co363 2.148 . S
N367 C364 1.301 . S
N367 C365 1.317 . S
N368 C364 1.328 . S
N368 C366 1.350 . S
H369 C364 0.930 . S
H370 C365 0.930 . S
C371 O372 1.224 . S
C371 O390 1.247 . S
O372 C371 1.224 . S
N373 Co363 2.128 . S
N373 C374 1.355 . S
N373 C376 1.311 . S
C374 N373 1.355 . S
C374 C375 1.363 . S
C374 H386 0.929 . S
C375 C374 1.363 . S
C375 N377 1.375 . S
C375 H393 0.931 . S
C376 N373 1.311 . S
C376 N377 1.347 . S
C376 H387 0.929 1_545 S
N377 C375 1.375 . S
N377 C376 1.347 . S
C378 C381 1.365 . S
C378 N383 1.328 . S
C378 H384 0.929 . S
C379 C380 1.362 . S
C379 C382 1.378 . S
C379 H394 0.929 . S
C380 C379 1.362 . S
C380 C381 1.366 . S
C381 C378 1.365 . S
C381 C380 1.366 . S
C381 H395 0.930 . S
C382 C379 1.378 . S
C382 N383 1.315 . S
C382 H385 0.930 . S
N383 Co363 2.194 . S
N383 C378 1.328 . S
N383 C382 1.315 . S
H384 C378 0.929 . S
H385 C382 0.930 . S
H386 C374 0.929 . S
H387 C376 0.929 1_565 S
O388 Co363 2.351 . S
O388 C391 1.244 . S
O389 Co363 2.155 . S
O389 C391 1.240 . S
O390 Co363 2.096 . S
O390 C371 1.247 . S
C391 O388 1.244 . S
C391 O389 1.240 . S
H392 C366 0.931 . S
H393 C375 0.931 . S
H394 C379 0.929 . S
H395 C381 0.930 . S
Co396 N400 2.148 . S
Co396 N406 2.128 . S
Co396 N416 2.194 . S
Co396 O421 2.351 . S
Co396 O422 2.155 . S
Co396 O423 2.096 . S
C397 N400 1.301 . S
C397 N401 1.328 . S
C397 H402 0.930 . S
C398 C399 1.333 . S
C398 N400 1.317 . S
C398 H403 0.930 . S
C399 C398 1.333 . S
C399 N401 1.350 . S
C399 H425 0.931 . S
N400 Co396 2.148 . S
N400 C397 1.301 . S
N400 C398 1.317 . S
N401 C397 1.328 . S
N401 C399 1.350 . S
H402 C397 0.930 . S
H403 C398 0.930 . S
C404 O405 1.224 . S
C404 O423 1.247 . S
O405 C404 1.224 . S
N406 Co396 2.128 . S
N406 C407 1.355 . S
N406 C409 1.311 . S
C407 N406 1.355 . S
C407 C408 1.363 . S
C407 H419 0.929 . S
C408 C407 1.363 . S
C408 N410 1.375 . S
C408 H426 0.931 . S
C409 N406 1.311 . S
C409 N410 1.347 . S
C409 H420 0.929 . S
N410 C408 1.375 . S
N410 C409 1.347 . S
C411 C414 1.365 . S
C411 N416 1.328 . S
C411 H417 0.929 . S
C412 C413 1.362 . S
C412 C415 1.378 . S
C412 H427 0.929 . S
C413 C412 1.362 . S
C413 C414 1.366 . S
C414 C411 1.365 . S
C414 C413 1.366 . S
C414 H428 0.930 . S
C415 C412 1.378 . S
C415 N416 1.315 . S
C415 H418 0.930 . S
N416 Co396 2.194 . S
N416 C411 1.328 . S
N416 C415 1.315 . S
H417 C411 0.929 . S
H418 C415 0.930 . S
H419 C407 0.929 . S
H420 C409 0.929 . S
O421 Co396 2.351 . S
O421 C424 1.244 . S
O422 Co396 2.155 . S
O422 C424 1.240 . S
O423 Co396 2.096 . S
O423 C404 1.247 . S
C424 O421 1.244 . S
C424 O422 1.240 . S
H425 C399 0.931 . S
H426 C408 0.931 . S
H427 C412 0.929 . S
H428 C414 0.930 . S
Co429 N433 2.148 . S
Co429 N439 2.128 . S
Co429 N449 2.194 . S
Co429 O454 2.351 . S
Co429 O455 2.155 . S
Co429 O456 2.096 . S
C430 N433 1.301 . S
C430 N434 1.328 . S
C430 H435 0.930 . S
C431 C432 1.333 . S
C431 N433 1.317 . S
C431 H436 0.930 . S
C432 C431 1.333 . S
C432 N434 1.350 . S
C432 H458 0.931 . S
N433 Co429 2.148 . S
N433 C430 1.301 . S
N433 C431 1.317 . S
N434 C430 1.328 . S
N434 C432 1.350 . S
H435 C430 0.930 . S
H436 C431 0.930 . S
C437 O438 1.224 . S
C437 O456 1.247 . S
O438 C437 1.224 . S
N439 Co429 2.128 . S
N439 C440 1.355 . S
N439 C442 1.311 . S
C440 N439 1.355 . S
C440 C441 1.363 . S
C440 H452 0.929 . S
C441 C440 1.363 . S
C441 N443 1.375 . S
C441 H459 0.931 . S
C442 N439 1.311 . S
C442 N443 1.347 . S
C442 H453 0.929 1_565 S
N443 C441 1.375 . S
N443 C442 1.347 . S
C444 C447 1.365 . S
C444 N449 1.328 . S
C444 H450 0.929 . S
C445 C446 1.362 . S
C445 C448 1.378 . S
C445 H460 0.929 . S
C446 C445 1.362 . S
C446 C447 1.366 . S
C447 C444 1.365 . S
C447 C446 1.366 . S
C447 H461 0.930 . S
C448 C445 1.378 . S
C448 N449 1.315 . S
C448 H451 0.930 . S
N449 Co429 2.194 . S
N449 C444 1.328 . S
N449 C448 1.315 . S
H450 C444 0.929 . S
H451 C448 0.930 . S
H452 C440 0.929 . S
H453 C442 0.929 1_545 S
O454 Co429 2.351 . S
O454 C457 1.244 . S
O455 Co429 2.155 . S
O455 C457 1.240 . S
O456 Co429 2.096 . S
O456 C437 1.247 . S
C457 O454 1.244 . S
C457 O455 1.240 . S
H458 C432 0.931 . S
H459 C441 0.931 . S
H460 C445 0.929 . S
H461 C447 0.930 . S
Co462 N466 2.148 . S
Co462 N472 2.128 . S
Co462 N482 2.194 . S
Co462 O487 2.351 . S
Co462 O488 2.155 . S
Co462 O489 2.096 . S
C463 N466 1.301 . S
C463 N467 1.328 . S
C463 H468 0.930 . S
C464 C465 1.333 . S
C464 N466 1.317 . S
C464 H469 0.930 . S
C465 C464 1.333 . S
C465 N467 1.350 . S
C465 H491 0.931 . S
N466 Co462 2.148 . S
N466 C463 1.301 . S
N466 C464 1.317 . S
N467 C463 1.328 . S
N467 C465 1.350 . S
H468 C463 0.930 . S
H469 C464 0.930 . S
C470 O471 1.224 . S
C470 O489 1.247 . S
O471 C470 1.224 . S
N472 Co462 2.128 . S
N472 C473 1.355 . S
N472 C475 1.311 . S
C473 N472 1.355 . S
C473 C474 1.363 . S
C473 H485 0.929 . S
C474 C473 1.363 . S
C474 N476 1.375 . S
C474 H492 0.931 . S
C475 N472 1.311 . S
C475 N476 1.347 . S
C475 H486 0.929 . S
N476 C474 1.375 . S
N476 C475 1.347 . S
C477 C480 1.365 . S
C477 N482 1.328 . S
C477 H483 0.929 . S
C478 C479 1.362 . S
C478 C481 1.378 . S
C478 H493 0.929 . S
C479 C478 1.362 . S
C479 C480 1.366 . S
C480 C477 1.365 . S
C480 C479 1.366 . S
C480 H494 0.930 . S
C481 C478 1.378 . S
C481 N482 1.315 . S
C481 H484 0.930 . S
N482 Co462 2.194 . S
N482 C477 1.328 . S
N482 C481 1.315 . S
H483 C477 0.929 . S
H484 C481 0.930 . S
H485 C473 0.929 . S
H486 C475 0.929 . S
O487 Co462 2.351 . S
O487 C490 1.244 . S
O488 Co462 2.155 . S
O488 C490 1.240 . S
O489 Co462 2.096 . S
O489 C470 1.247 . S
C490 O487 1.244 . S
C490 O488 1.240 . S
H491 C465 0.931 . S
H492 C474 0.931 . S
H493 C478 0.929 . S
H494 C480 0.930 . S
Co495 N499 2.148 . S
Co495 N505 2.128 . S
Co495 N515 2.194 . S
Co495 O520 2.351 . S
Co495 O521 2.155 . S
Co495 O522 2.096 . S
C496 N499 1.301 . S
C496 N500 1.328 . S
C496 H501 0.930 . S
C497 C498 1.333 . S
C497 N499 1.317 . S
C497 H502 0.930 . S
C498 C497 1.333 . S
C498 N500 1.350 . S
C498 H524 0.931 1_455 S
N499 Co495 2.148 . S
N499 C496 1.301 . S
N499 C497 1.317 . S
N500 C496 1.328 . S
N500 C498 1.350 . S
H501 C496 0.930 . S
H502 C497 0.930 . S
C503 O504 1.224 . S
C503 O522 1.247 . S
O504 C503 1.224 . S
N505 Co495 2.128 . S
N505 C506 1.355 . S
N505 C508 1.311 . S
C506 N505 1.355 . S
C506 C507 1.363 . S
C506 H518 0.929 . S
C507 C506 1.363 . S
C507 N509 1.375 . S
C507 H525 0.931 . S
C508 N505 1.311 . S
C508 N509 1.347 . S
C508 H519 0.929 1_545 S
N509 C507 1.375 . S
N509 C508 1.347 . S
C510 C513 1.365 . S
C510 N515 1.328 . S
C510 H516 0.929 . S
C511 C512 1.362 . S
C511 C514 1.378 . S
C511 H526 0.929 . S
C512 C511 1.362 . S
C512 C513 1.366 . S
C513 C510 1.365 . S
C513 C512 1.366 . S
C513 H527 0.930 . S
C514 C511 1.378 . S
C514 N515 1.315 . S
C514 H517 0.930 . S
N515 Co495 2.194 . S
N515 C510 1.328 . S
N515 C514 1.315 . S
H516 C510 0.929 . S
H517 C514 0.930 . S
H518 C506 0.929 . S
H519 C508 0.929 1_565 S
O520 Co495 2.351 . S
O520 C523 1.244 . S
O521 Co495 2.155 . S
O521 C523 1.240 . S
O522 Co495 2.096 . S
O522 C503 1.247 . S
C523 O520 1.244 . S
C523 O521 1.240 . S
H524 C498 0.931 1_655 S
H525 C507 0.931 . S
H526 C511 0.929 . S
H527 C513 0.930 . S
Co528 N532 2.148 . S
Co528 N538 2.128 . S
Co528 N548 2.194 . S
Co528 O553 2.351 . S
Co528 O554 2.155 . S
Co528 O555 2.096 . S
C529 N532 1.301 . S
C529 N533 1.328 . S
C529 H534 0.930 . S
C530 C531 1.333 . S
C530 N532 1.317 . S
C530 H535 0.930 . S
C531 C530 1.333 . S
C531 N533 1.350 . S
C531 H557 0.931 . S
N532 Co528 2.148 . S
N532 C529 1.301 . S
N532 C530 1.317 . S
N533 C529 1.328 . S
N533 C531 1.350 . S
H534 C529 0.930 . S
H535 C530 0.930 . S
C536 O537 1.224 . S
C536 O555 1.247 . S
O537 C536 1.224 . S
N538 Co528 2.128 . S
N538 C539 1.355 . S
N538 C541 1.311 . S
C539 N538 1.355 . S
C539 C540 1.363 . S
C539 H551 0.929 . S
C540 C539 1.363 . S
C540 N542 1.375 . S
C540 H558 0.931 . S
C541 N538 1.311 . S
C541 N542 1.347 . S
C541 H552 0.929 . S
N542 C540 1.375 . S
N542 C541 1.347 . S
C543 C546 1.365 . S
C543 N548 1.328 . S
C543 H549 0.929 . S
C544 C545 1.362 . S
C544 C547 1.378 . S
C544 H559 0.929 . S
C545 C544 1.362 . S
C545 C546 1.366 . S
C546 C543 1.365 . S
C546 C545 1.366 . S
C546 H560 0.930 . S
C547 C544 1.378 . S
C547 N548 1.315 . S
C547 H550 0.930 . S
N548 Co528 2.194 . S
N548 C543 1.328 . S
N548 C547 1.315 . S
H549 C543 0.929 . S
H550 C547 0.930 . S
H551 C539 0.929 . S
H552 C541 0.929 . S
O553 Co528 2.351 . S
O553 C556 1.244 . S
O554 Co528 2.155 . S
O554 C556 1.240 . S
O555 Co528 2.096 . S
O555 C536 1.247 . S
C556 O553 1.244 . S
C556 O554 1.240 . S
H557 C531 0.931 . S
H558 C540 0.931 . S
H559 C544 0.929 . S
H560 C546 0.930 . S
Co561 N565 2.148 . S
Co561 N571 2.128 . S
Co561 N581 2.194 . S
Co561 O586 2.351 . S
Co561 O587 2.155 . S
Co561 O588 2.096 . S
C562 N565 1.301 . S
C562 N566 1.328 . S
C562 H567 0.930 . S
C563 C564 1.333 . S
C563 N565 1.317 . S
C563 H568 0.930 . S
C564 C563 1.333 . S
C564 N566 1.350 . S
C564 H590 0.931 . S
N565 Co561 2.148 . S
N565 C562 1.301 . S
N565 C563 1.317 . S
N566 C562 1.328 . S
N566 C564 1.350 . S
H567 C562 0.930 . S
H568 C563 0.930 . S
C569 O570 1.224 . S
C569 O588 1.247 . S
O570 C569 1.224 . S
N571 Co561 2.128 . S
N571 C572 1.355 . S
N571 C574 1.311 . S
C572 N571 1.355 . S
C572 C573 1.363 . S
C572 H584 0.929 . S
C573 C572 1.363 . S
C573 N575 1.375 . S
C573 H591 0.931 . S
C574 N571 1.311 . S
C574 N575 1.347 . S
C574 H585 0.929 . S
N575 C573 1.375 . S
N575 C574 1.347 . S
C576 C579 1.365 . S
C576 N581 1.328 . S
C576 H582 0.929 . S
C577 C578 1.362 . S
C577 C580 1.378 . S
C577 H592 0.929 . S
C578 C577 1.362 . S
C578 C579 1.366 . S
C579 C576 1.365 . S
C579 C578 1.366 . S
C579 H593 0.930 . S
C580 C577 1.378 . S
C580 N581 1.315 . S
C580 H583 0.930 . S
N581 Co561 2.194 . S
N581 C576 1.328 . S
N581 C580 1.315 . S
H582 C576 0.929 . S
H583 C580 0.930 . S
H584 C572 0.929 . S
H585 C574 0.929 . S
O586 Co561 2.351 . S
O586 C589 1.244 . S
O587 Co561 2.155 . S
O587 C589 1.240 . S
O588 Co561 2.096 . S
O588 C569 1.247 . S
C589 O586 1.244 . S
C589 O587 1.240 . S
H590 C564 0.931 . S
H591 C573 0.931 . S
H592 C577 0.929 . S
H593 C579 0.930 . S
Co594 N598 2.148 . S
Co594 N604 2.128 . S
Co594 N614 2.194 . S
Co594 O619 2.351 . S
Co594 O620 2.155 . S
Co594 O621 2.096 . S
C595 N598 1.301 . S
C595 N599 1.328 . S
C595 H600 0.930 . S
C596 C597 1.333 . S
C596 N598 1.317 . S
C596 H601 0.930 . S
C597 C596 1.333 . S
C597 N599 1.350 . S
C597 H623 0.931 . S
N598 Co594 2.148 . S
N598 C595 1.301 . S
N598 C596 1.317 . S
N599 C595 1.328 . S
N599 C597 1.350 . S
H600 C595 0.930 . S
H601 C596 0.930 . S
C602 O603 1.224 . S
C602 O621 1.247 . S
O603 C602 1.224 . S
N604 Co594 2.128 . S
N604 C605 1.355 . S
N604 C607 1.311 . S
C605 N604 1.355 . S
C605 C606 1.363 . S
C605 H617 0.929 . S
C606 C605 1.363 . S
C606 N608 1.375 . S
C606 H624 0.931 . S
C607 N604 1.311 . S
C607 N608 1.347 . S
C607 H618 0.929 . S
N608 C606 1.375 . S
N608 C607 1.347 . S
C609 C612 1.365 . S
C609 N614 1.328 . S
C609 H615 0.929 . S
C610 C611 1.362 . S
C610 C613 1.378 . S
C610 H625 0.929 . S
C611 C610 1.362 . S
C611 C612 1.366 . S
C612 C609 1.365 . S
C612 C611 1.366 . S
C612 H626 0.930 . S
C613 C610 1.378 . S
C613 N614 1.315 . S
C613 H616 0.930 . S
N614 Co594 2.194 . S
N614 C609 1.328 . S
N614 C613 1.315 . S
H615 C609 0.929 . S
H616 C613 0.930 . S
H617 C605 0.929 . S
H618 C607 0.929 . S
O619 Co594 2.351 . S
O619 C622 1.244 . S
O620 Co594 2.155 . S
O620 C622 1.240 . S
O621 Co594 2.096 . S
O621 C602 1.247 . S
C622 O619 1.244 . S
C622 O620 1.240 . S
H623 C597 0.931 . S
H624 C606 0.931 . S
H625 C610 0.929 . S
H626 C612 0.930 . S
Co627 N631 2.148 . S
Co627 N637 2.128 . S
Co627 N647 2.194 . S
Co627 O652 2.351 . S
Co627 O653 2.155 . S
Co627 O654 2.096 . S
C628 N631 1.301 . S
C628 N632 1.328 . S
C628 H633 0.930 . S
C629 C630 1.333 . S
C629 N631 1.317 . S
C629 H634 0.930 . S
C630 C629 1.333 . S
C630 N632 1.350 . S
C630 H656 0.931 1_455 S
N631 Co627 2.148 . S
N631 C628 1.301 . S
N631 C629 1.317 . S
N632 C628 1.328 . S
N632 C630 1.350 . S
H633 C628 0.930 . S
H634 C629 0.930 . S
C635 O636 1.224 . S
C635 O654 1.247 . S
O636 C635 1.224 . S
N637 Co627 2.128 . S
N637 C638 1.355 . S
N637 C640 1.311 . S
C638 N637 1.355 . S
C638 C639 1.363 . S
C638 H650 0.929 . S
C639 C638 1.363 . S
C639 N641 1.375 . S
C639 H657 0.931 . S
C640 N637 1.311 . S
C640 N641 1.347 . S
C640 H651 0.929 . S
N641 C639 1.375 . S
N641 C640 1.347 . S
C642 C645 1.365 . S
C642 N647 1.328 . S
C642 H648 0.929 . S
C643 C644 1.362 . S
C643 C646 1.378 . S
C643 H658 0.929 . S
C644 C643 1.362 . S
C644 C645 1.366 . S
C645 C642 1.365 . S
C645 C644 1.366 . S
C645 H659 0.930 . S
C646 C643 1.378 . S
C646 N647 1.315 . S
C646 H649 0.930 . S
N647 Co627 2.194 . S
N647 C642 1.328 . S
N647 C646 1.315 . S
H648 C642 0.929 . S
H649 C646 0.930 . S
H650 C638 0.929 . S
H651 C640 0.929 . S
O652 Co627 2.351 . S
O652 C655 1.244 . S
O653 Co627 2.155 . S
O653 C655 1.240 . S
O654 Co627 2.096 . S
O654 C635 1.247 . S
C655 O652 1.244 . S
C655 O653 1.240 . S
H656 C630 0.931 1_655 S
H657 C639 0.931 . S
H658 C643 0.929 . S
H659 C645 0.930 . S
Co660 N664 2.148 . S
Co660 N670 2.128 . S
Co660 N680 2.194 . S
Co660 O685 2.351 . S
Co660 O686 2.155 . S
Co660 O687 2.096 . S
C661 N664 1.301 . S
C661 N665 1.328 . S
C661 H666 0.930 . S
C662 C663 1.333 . S
C662 N664 1.317 . S
C662 H667 0.930 . S
C663 C662 1.333 . S
C663 N665 1.350 . S
C663 H689 0.931 . S
N664 Co660 2.148 . S
N664 C661 1.301 . S
N664 C662 1.317 . S
N665 C661 1.328 . S
N665 C663 1.350 . S
H666 C661 0.930 . S
H667 C662 0.930 . S
C668 O669 1.224 . S
C668 O687 1.247 . S
O669 C668 1.224 . S
N670 Co660 2.128 . S
N670 C671 1.355 . S
N670 C673 1.311 . S
C671 N670 1.355 . S
C671 C672 1.363 . S
C671 H683 0.929 . S
C672 C671 1.363 . S
C672 N674 1.375 . S
C672 H690 0.931 . S
C673 N670 1.311 . S
C673 N674 1.347 . S
C673 H684 0.929 . S
N674 C672 1.375 . S
N674 C673 1.347 . S
C675 C678 1.365 . S
C675 N680 1.328 . S
C675 H681 0.929 . S
C676 C677 1.362 . S
C676 C679 1.378 . S
C676 H691 0.929 . S
C677 C676 1.362 . S
C677 C678 1.366 . S
C678 C675 1.365 . S
C678 C677 1.366 . S
C678 H692 0.930 . S
C679 C676 1.378 . S
C679 N680 1.315 . S
C679 H682 0.930 . S
N680 Co660 2.194 . S
N680 C675 1.328 . S
N680 C679 1.315 . S
H681 C675 0.929 . S
H682 C679 0.930 . S
H683 C671 0.929 . S
H684 C673 0.929 . S
O685 Co660 2.351 . S
O685 C688 1.244 . S
O686 Co660 2.155 . S
O686 C688 1.240 . S
O687 Co660 2.096 . S
O687 C668 1.247 . S
C688 O685 1.244 . S
C688 O686 1.240 . S
H689 C663 0.931 . S
H690 C672 0.931 . S
H691 C676 0.929 . S
H692 C678 0.930 . S
Co693 N697 2.148 . S
Co693 N703 2.128 . S
Co693 N713 2.194 . S
Co693 O718 2.351 . S
Co693 O719 2.155 . S
Co693 O720 2.096 . S
C694 N697 1.301 . S
C694 N698 1.328 . S
C694 H699 0.930 . S
C695 C696 1.333 . S
C695 N697 1.317 . S
C695 H700 0.930 . S
C696 C695 1.333 . S
C696 N698 1.350 . S
C696 H722 0.931 1_455 S
N697 Co693 2.148 . S
N697 C694 1.301 . S
N697 C695 1.317 . S
N698 C694 1.328 . S
N698 C696 1.350 . S
H699 C694 0.930 . S
H700 C695 0.930 . S
C701 O702 1.224 . S
C701 O720 1.247 . S
O702 C701 1.224 . S
N703 Co693 2.128 . S
N703 C704 1.355 . S
N703 C706 1.311 . S
C704 N703 1.355 . S
C704 C705 1.363 . S
C704 H716 0.929 . S
C705 C704 1.363 . S
C705 N707 1.375 . S
C705 H723 0.931 . S
C706 N703 1.311 . S
C706 N707 1.347 . S
C706 H717 0.929 . S
N707 C705 1.375 . S
N707 C706 1.347 . S
C708 C711 1.365 . S
C708 N713 1.328 . S
C708 H714 0.929 . S
C709 C710 1.362 . S
C709 C712 1.378 . S
C709 H724 0.929 . S
C710 C709 1.362 . S
C710 C711 1.366 . S
C711 C708 1.365 . S
C711 C710 1.366 . S
C711 H725 0.930 . S
C712 C709 1.378 . S
C712 N713 1.315 . S
C712 H715 0.930 . S
N713 Co693 2.194 . S
N713 C708 1.328 . S
N713 C712 1.315 . S
H714 C708 0.929 . S
H715 C712 0.930 . S
H716 C704 0.929 . S
H717 C706 0.929 . S
O718 Co693 2.351 . S
O718 C721 1.244 . S
O719 Co693 2.155 . S
O719 C721 1.240 . S
O720 Co693 2.096 . S
O720 C701 1.247 . S
C721 O718 1.244 . S
C721 O719 1.240 . S
H722 C696 0.931 1_655 S
H723 C705 0.931 . S
H724 C709 0.929 . S
H725 C711 0.930 . S
Co726 N730 2.148 . S
Co726 N736 2.128 . S
Co726 N746 2.194 . S
Co726 O751 2.351 . S
Co726 O752 2.155 . S
Co726 O753 2.096 . S
C727 N730 1.301 . S
C727 N731 1.328 . S
C727 H732 0.930 . S
C728 C729 1.333 . S
C728 N730 1.317 . S
C728 H733 0.930 . S
C729 C728 1.333 . S
C729 N731 1.350 . S
C729 H755 0.931 . S
N730 Co726 2.148 . S
N730 C727 1.301 . S
N730 C728 1.317 . S
N731 C727 1.328 . S
N731 C729 1.350 . S
H732 C727 0.930 . S
H733 C728 0.930 . S
C734 O735 1.224 . S
C734 O753 1.247 . S
O735 C734 1.224 . S
N736 Co726 2.128 . S
N736 C737 1.355 . S
N736 C739 1.311 . S
C737 N736 1.355 . S
C737 C738 1.363 . S
C737 H749 0.929 . S
C738 C737 1.363 . S
C738 N740 1.375 . S
C738 H756 0.931 . S
C739 N736 1.311 . S
C739 N740 1.347 . S
C739 H750 0.929 . S
N740 C738 1.375 . S
N740 C739 1.347 . S
C741 C744 1.365 . S
C741 N746 1.328 . S
C741 H747 0.929 . S
C742 C743 1.362 . S
C742 C745 1.378 . S
C742 H757 0.929 . S
C743 C742 1.362 . S
C743 C744 1.366 . S
C744 C741 1.365 . S
C744 C743 1.366 . S
C744 H758 0.930 . S
C745 C742 1.378 . S
C745 N746 1.315 . S
C745 H748 0.930 . S
N746 Co726 2.194 . S
N746 C741 1.328 . S
N746 C745 1.315 . S
H747 C741 0.929 . S
H748 C745 0.930 . S
H749 C737 0.929 . S
H750 C739 0.929 . S
O751 Co726 2.351 . S
O751 C754 1.244 . S
O752 Co726 2.155 . S
O752 C754 1.240 . S
O753 Co726 2.096 . S
O753 C734 1.247 . S
C754 O751 1.244 . S
C754 O752 1.240 . S
H755 C729 0.931 . S
H756 C738 0.931 . S
H757 C742 0.929 . S
H758 C744 0.930 . S
Co759 N763 2.148 . S
Co759 N769 2.128 . S
Co759 N779 2.194 . S
Co759 O784 2.351 . S
Co759 O785 2.155 . S
Co759 O786 2.096 . S
C760 N763 1.301 . S
C760 N764 1.328 . S
C760 H765 0.930 . S
C761 C762 1.333 . S
C761 N763 1.317 . S
C761 H766 0.930 . S
C762 C761 1.333 . S
C762 N764 1.350 . S
C762 H788 0.931 . S
N763 Co759 2.148 . S
N763 C760 1.301 . S
N763 C761 1.317 . S
N764 C760 1.328 . S
N764 C762 1.350 . S
H765 C760 0.930 . S
H766 C761 0.930 . S
C767 O768 1.224 . S
C767 O786 1.247 . S
O768 C767 1.224 . S
N769 Co759 2.128 . S
N769 C770 1.355 . S
N769 C772 1.311 . S
C770 N769 1.355 . S
C770 C771 1.363 . S
C770 H782 0.929 . S
C771 C770 1.363 . S
C771 N773 1.375 . S
C771 H789 0.931 . S
C772 N769 1.311 . S
C772 N773 1.347 . S
C772 H783 0.929 . S
N773 C771 1.375 . S
N773 C772 1.347 . S
C774 C777 1.365 . S
C774 N779 1.328 . S
C774 H780 0.929 . S
C775 C776 1.362 . S
C775 C778 1.378 . S
C775 H790 0.929 . S
C776 C775 1.362 . S
C776 C777 1.366 . S
C777 C774 1.365 . S
C777 C776 1.366 . S
C777 H791 0.930 . S
C778 C775 1.378 . S
C778 N779 1.315 . S
C778 H781 0.930 . S
N779 Co759 2.194 . S
N779 C774 1.328 . S
N779 C778 1.315 . S
H780 C774 0.929 . S
H781 C778 0.930 . S
H782 C770 0.929 . S
H783 C772 0.929 . S
O784 Co759 2.351 . S
O784 C787 1.244 . S
O785 Co759 2.155 . S
O785 C787 1.240 . S
O786 Co759 2.096 . S
O786 C767 1.247 . S
C787 O784 1.244 . S
C787 O785 1.240 . S
H788 C762 0.931 . S
H789 C771 0.931 . S
H790 C775 0.929 . S
H791 C777 0.930 . S
Co792 N796 2.148 . S
Co792 N802 2.128 . S
Co792 N812 2.194 . S
Co792 O817 2.351 . S
Co792 O818 2.155 . S
Co792 O819 2.096 . S
C793 N796 1.301 . S
C793 N797 1.328 . S
C793 H798 0.930 . S
C794 C795 1.333 . S
C794 N796 1.317 . S
C794 H799 0.930 . S
C795 C794 1.333 . S
C795 N797 1.350 . S
C795 H821 0.931 . S
N796 Co792 2.148 . S
N796 C793 1.301 . S
N796 C794 1.317 . S
N797 C793 1.328 . S
N797 C795 1.350 . S
H798 C793 0.930 . S
H799 C794 0.930 . S
C800 O801 1.224 . S
C800 O819 1.247 . S
O801 C800 1.224 . S
N802 Co792 2.128 . S
N802 C803 1.355 . S
N802 C805 1.311 . S
C803 N802 1.355 . S
C803 C804 1.363 . S
C803 H815 0.929 . S
C804 C803 1.363 . S
C804 N806 1.375 . S
C804 H822 0.931 . S
C805 N802 1.311 . S
C805 N806 1.347 . S
C805 H816 0.929 . S
N806 C804 1.375 . S
N806 C805 1.347 . S
C807 C810 1.365 . S
C807 N812 1.328 . S
C807 H813 0.929 . S
C808 C809 1.362 . S
C808 C811 1.378 . S
C808 H823 0.929 . S
C809 C808 1.362 . S
C809 C810 1.366 . S
C810 C807 1.365 . S
C810 C809 1.366 . S
C810 H824 0.930 . S
C811 C808 1.378 . S
C811 N812 1.315 . S
C811 H814 0.930 . S
N812 Co792 2.194 . S
N812 C807 1.328 . S
N812 C811 1.315 . S
H813 C807 0.929 . S
H814 C811 0.930 . S
H815 C803 0.929 . S
H816 C805 0.929 . S
O817 Co792 2.351 . S
O817 C820 1.244 . S
O818 Co792 2.155 . S
O818 C820 1.240 . S
O819 Co792 2.096 . S
O819 C800 1.247 . S
C820 O817 1.244 . S
C820 O818 1.240 . S
H821 C795 0.931 . S
H822 C804 0.931 . S
H823 C808 0.929 . S
H824 C810 0.930 . S
Co825 N829 2.148 . S
Co825 N835 2.128 . S
Co825 N845 2.194 . S
Co825 O850 2.351 . S
Co825 O851 2.155 . S
Co825 O852 2.096 . S
C826 N829 1.301 . S
C826 N830 1.328 . S
C826 H831 0.930 . S
C827 C828 1.333 . S
C827 N829 1.317 . S
C827 H832 0.930 . S
C828 C827 1.333 . S
C828 N830 1.350 . S
C828 H854 0.931 . S
N829 Co825 2.148 . S
N829 C826 1.301 . S
N829 C827 1.317 . S
N830 C826 1.328 . S
N830 C828 1.350 . S
H831 C826 0.930 . S
H832 C827 0.930 . S
C833 O834 1.224 . S
C833 O852 1.247 . S
O834 C833 1.224 . S
N835 Co825 2.128 . S
N835 C836 1.355 . S
N835 C838 1.311 . S
C836 N835 1.355 . S
C836 C837 1.363 . S
C836 H848 0.929 . S
C837 C836 1.363 . S
C837 N839 1.375 . S
C837 H855 0.931 . S
C838 N835 1.311 . S
C838 N839 1.347 . S
C838 H849 0.929 . S
N839 C837 1.375 . S
N839 C838 1.347 . S
C840 C843 1.365 . S
C840 N845 1.328 . S
C840 H846 0.929 . S
C841 C842 1.362 . S
C841 C844 1.378 . S
C841 H856 0.929 . S
C842 C841 1.362 . S
C842 C843 1.366 . S
C843 C840 1.365 . S
C843 C842 1.366 . S
C843 H857 0.930 . S
C844 C841 1.378 . S
C844 N845 1.315 . S
C844 H847 0.930 . S
N845 Co825 2.194 . S
N845 C840 1.328 . S
N845 C844 1.315 . S
H846 C840 0.929 . S
H847 C844 0.930 . S
H848 C836 0.929 . S
H849 C838 0.929 . S
O850 Co825 2.351 . S
O850 C853 1.244 . S
O851 Co825 2.155 . S
O851 C853 1.240 . S
O852 Co825 2.096 . S
O852 C833 1.247 . S
C853 O850 1.244 . S
C853 O851 1.240 . S
H854 C828 0.931 . S
H855 C837 0.931 . S
H856 C841 0.929 . S
H857 C843 0.930 . S
Co858 N862 2.148 . S
Co858 N868 2.128 . S
Co858 N878 2.194 . S
Co858 O883 2.351 . S
Co858 O884 2.155 . S
Co858 O885 2.096 . S
C859 N862 1.301 . S
C859 N863 1.328 . S
C859 H864 0.930 . S
C860 C861 1.333 . S
C860 N862 1.317 . S
C860 H865 0.930 . S
C861 C860 1.333 . S
C861 N863 1.350 . S
C861 H887 0.931 . S
N862 Co858 2.148 . S
N862 C859 1.301 . S
N862 C860 1.317 . S
N863 C859 1.328 . S
N863 C861 1.350 . S
H864 C859 0.930 . S
H865 C860 0.930 . S
C866 O867 1.224 . S
C866 O885 1.247 . S
O867 C866 1.224 . S
N868 Co858 2.128 . S
N868 C869 1.355 . S
N868 C871 1.311 . S
C869 N868 1.355 . S
C869 C870 1.363 . S
C869 H881 0.929 . S
C870 C869 1.363 . S
C870 N872 1.375 . S
C870 H888 0.931 . S
C871 N868 1.311 . S
C871 N872 1.347 . S
C871 H882 0.929 . S
N872 C870 1.375 . S
N872 C871 1.347 . S
C873 C876 1.365 . S
C873 N878 1.328 . S
C873 H879 0.929 . S
C874 C875 1.362 . S
C874 C877 1.378 . S
C874 H889 0.929 . S
C875 C874 1.362 . S
C875 C876 1.366 . S
C876 C873 1.365 . S
C876 C875 1.366 . S
C876 H890 0.930 . S
C877 C874 1.378 . S
C877 N878 1.315 . S
C877 H880 0.930 . S
N878 Co858 2.194 . S
N878 C873 1.328 . S
N878 C877 1.315 . S
H879 C873 0.929 . S
H880 C877 0.930 . S
H881 C869 0.929 . S
H882 C871 0.929 . S
O883 Co858 2.351 . S
O883 C886 1.244 . S
O884 Co858 2.155 . S
O884 C886 1.240 . S
O885 Co858 2.096 . S
O885 C866 1.247 . S
C886 O883 1.244 . S
C886 O884 1.240 . S
H887 C861 0.931 . S
H888 C870 0.931 . S
H889 C874 0.929 . S
H890 C876 0.930 . S
Co891 N895 2.148 . S
Co891 N901 2.128 . S
Co891 N911 2.194 . S
Co891 O916 2.351 . S
Co891 O917 2.155 . S
Co891 O918 2.096 . S
C892 N895 1.301 . S
C892 N896 1.328 . S
C892 H897 0.930 . S
C893 C894 1.333 . S
C893 N895 1.317 . S
C893 H898 0.930 . S
C894 C893 1.333 . S
C894 N896 1.350 . S
C894 H920 0.931 1_655 S
N895 Co891 2.148 . S
N895 C892 1.301 . S
N895 C893 1.317 . S
N896 C892 1.328 . S
N896 C894 1.350 . S
H897 C892 0.930 . S
H898 C893 0.930 . S
C899 O900 1.224 . S
C899 O918 1.247 . S
O900 C899 1.224 . S
N901 Co891 2.128 . S
N901 C902 1.355 . S
N901 C904 1.311 . S
C902 N901 1.355 . S
C902 C903 1.363 . S
C902 H914 0.929 . S
C903 C902 1.363 . S
C903 N905 1.375 . S
C903 H921 0.931 . S
C904 N901 1.311 . S
C904 N905 1.347 . S
C904 H915 0.929 . S
N905 C903 1.375 . S
N905 C904 1.347 . S
C906 C909 1.365 . S
C906 N911 1.328 . S
C906 H912 0.929 . S
C907 C908 1.362 . S
C907 C910 1.378 . S
C907 H922 0.929 . S
C908 C907 1.362 . S
C908 C909 1.366 . S
C909 C906 1.365 . S
C909 C908 1.366 . S
C909 H923 0.930 . S
C910 C907 1.378 . S
C910 N911 1.315 . S
C910 H913 0.930 . S
N911 Co891 2.194 . S
N911 C906 1.328 . S
N911 C910 1.315 . S
H912 C906 0.929 . S
H913 C910 0.930 . S
H914 C902 0.929 . S
H915 C904 0.929 . S
O916 Co891 2.351 . S
O916 C919 1.244 . S
O917 Co891 2.155 . S
O917 C919 1.240 . S
O918 Co891 2.096 . S
O918 C899 1.247 . S
C919 O916 1.244 . S
C919 O917 1.240 . S
H920 C894 0.931 1_455 S
H921 C903 0.931 . S
H922 C907 0.929 . S
H923 C909 0.930 . S
Co924 N928 2.148 . S
Co924 N934 2.128 . S
Co924 N944 2.194 . S
Co924 O949 2.351 . S
Co924 O950 2.155 . S
Co924 O951 2.096 . S
C925 N928 1.301 . S
C925 N929 1.328 . S
C925 H930 0.930 . S
C926 C927 1.333 . S
C926 N928 1.317 . S
C926 H931 0.930 . S
C927 C926 1.333 . S
C927 N929 1.350 . S
C927 H953 0.931 . S
N928 Co924 2.148 . S
N928 C925 1.301 . S
N928 C926 1.317 . S
N929 C925 1.328 . S
N929 C927 1.350 . S
H930 C925 0.930 . S
H931 C926 0.930 . S
C932 O933 1.224 . S
C932 O951 1.247 . S
O933 C932 1.224 . S
N934 Co924 2.128 . S
N934 C935 1.355 . S
N934 C937 1.311 . S
C935 N934 1.355 . S
C935 C936 1.363 . S
C935 H947 0.929 . S
C936 C935 1.363 . S
C936 N938 1.375 . S
C936 H954 0.931 . S
C937 N934 1.311 . S
C937 N938 1.347 . S
C937 H948 0.929 . S
N938 C936 1.375 . S
N938 C937 1.347 . S
C939 C942 1.365 . S
C939 N944 1.328 . S
C939 H945 0.929 . S
C940 C941 1.362 . S
C940 C943 1.378 . S
C940 H955 0.929 . S
C941 C940 1.362 . S
C941 C942 1.366 . S
C942 C939 1.365 . S
C942 C941 1.366 . S
C942 H956 0.930 . S
C943 C940 1.378 . S
C943 N944 1.315 . S
C943 H946 0.930 . S
N944 Co924 2.194 . S
N944 C939 1.328 . S
N944 C943 1.315 . S
H945 C939 0.929 . S
H946 C943 0.930 . S
H947 C935 0.929 . S
H948 C937 0.929 . S
O949 Co924 2.351 . S
O949 C952 1.244 . S
O950 Co924 2.155 . S
O950 C952 1.240 . S
O951 Co924 2.096 . S
O951 C932 1.247 . S
C952 O949 1.244 . S
C952 O950 1.240 . S
H953 C927 0.931 . S
H954 C936 0.931 . S
H955 C940 0.929 . S
H956 C942 0.930 . S
Co957 N961 2.148 . S
Co957 N967 2.128 . S
Co957 N977 2.194 . S
Co957 O982 2.351 . S
Co957 O983 2.155 . S
Co957 O984 2.096 . S
C958 N961 1.301 . S
C958 N962 1.328 . S
C958 H963 0.930 . S
C959 C960 1.333 . S
C959 N961 1.317 . S
C959 H964 0.930 . S
C960 C959 1.333 . S
C960 N962 1.350 . S
C960 H986 0.931 1_655 S
N961 Co957 2.148 . S
N961 C958 1.301 . S
N961 C959 1.317 . S
N962 C958 1.328 . S
N962 C960 1.350 . S
H963 C958 0.930 . S
H964 C959 0.930 . S
C965 O966 1.224 . S
C965 O984 1.247 . S
O966 C965 1.224 . S
N967 Co957 2.128 . S
N967 C968 1.355 . S
N967 C970 1.311 . S
C968 N967 1.355 . S
C968 C969 1.363 . S
C968 H980 0.929 . S
C969 C968 1.363 . S
C969 N971 1.375 . S
C969 H987 0.931 . S
C970 N967 1.311 . S
C970 N971 1.347 . S
C970 H981 0.929 . S
N971 C969 1.375 . S
N971 C970 1.347 . S
C972 C975 1.365 . S
C972 N977 1.328 . S
C972 H978 0.929 . S
C973 C974 1.362 . S
C973 C976 1.378 . S
C973 H988 0.929 . S
C974 C973 1.362 . S
C974 C975 1.366 . S
C975 C972 1.365 . S
C975 C974 1.366 . S
C975 H989 0.930 . S
C976 C973 1.378 . S
C976 N977 1.315 . S
C976 H979 0.930 . S
N977 Co957 2.194 . S
N977 C972 1.328 . S
N977 C976 1.315 . S
H978 C972 0.929 . S
H979 C976 0.930 . S
H980 C968 0.929 . S
H981 C970 0.929 . S
O982 Co957 2.351 . S
O982 C985 1.244 . S
O983 Co957 2.155 . S
O983 C985 1.240 . S
O984 Co957 2.096 . S
O984 C965 1.247 . S
C985 O982 1.244 . S
C985 O983 1.240 . S
H986 C960 0.931 1_455 S
H987 C969 0.931 . S
H988 C973 0.929 . S
H989 C975 0.930 . S
Co990 N994 2.148 . S
Co990 N1000 2.128 . S
Co990 N1010 2.194 . S
Co990 O1015 2.351 . S
Co990 O1016 2.155 . S
Co990 O1017 2.096 . S
C991 N994 1.301 . S
C991 N995 1.328 . S
C991 H996 0.930 . S
C992 C993 1.333 . S
C992 N994 1.317 . S
C992 H997 0.930 . S
C993 C992 1.333 . S
C993 N995 1.350 . S
C993 H1019 0.931 . S
N994 Co990 2.148 . S
N994 C991 1.301 . S
N994 C992 1.317 . S
N995 C991 1.328 . S
N995 C993 1.350 . S
H996 C991 0.930 . S
H997 C992 0.930 . S
C998 O999 1.224 . S
C998 O1017 1.247 . S
O999 C998 1.224 . S
N1000 Co990 2.128 . S
N1000 C1001 1.355 . S
N1000 C1003 1.311 . S
C1001 N1000 1.355 . S
C1001 C1002 1.363 . S
C1001 H1013 0.929 . S
C1002 C1001 1.363 . S
C1002 N1004 1.375 . S
C1002 H1020 0.931 . S
C1003 N1000 1.311 . S
C1003 N1004 1.347 . S
C1003 H1014 0.929 . S
N1004 C1002 1.375 . S
N1004 C1003 1.347 . S
C1005 C1008 1.365 . S
C1005 N1010 1.328 . S
C1005 H1011 0.929 . S
C1006 C1007 1.362 . S
C1006 C1009 1.378 . S
C1006 H1021 0.929 . S
C1007 C1006 1.362 . S
C1007 C1008 1.366 . S
C1008 C1005 1.365 . S
C1008 C1007 1.366 . S
C1008 H1022 0.930 . S
C1009 C1006 1.378 . S
C1009 N1010 1.315 . S
C1009 H1012 0.930 . S
N1010 Co990 2.194 . S
N1010 C1005 1.328 . S
N1010 C1009 1.315 . S
H1011 C1005 0.929 . S
H1012 C1009 0.930 . S
H1013 C1001 0.929 . S
H1014 C1003 0.929 . S
O1015 Co990 2.351 . S
O1015 C1018 1.244 . S
O1016 Co990 2.155 . S
O1016 C1018 1.240 . S
O1017 Co990 2.096 . S
O1017 C998 1.247 . S
C1018 O1015 1.244 . S
C1018 O1016 1.240 . S
H1019 C993 0.931 . S
H1020 C1002 0.931 . S
H1021 C1006 0.929 . S
H1022 C1008 0.930 . S
Co1023 N1027 2.148 . S
Co1023 N1033 2.128 . S
Co1023 N1043 2.194 . S
Co1023 O1048 2.351 . S
Co1023 O1049 2.155 . S
Co1023 O1050 2.096 . S
C1024 N1027 1.301 . S
C1024 N1028 1.328 . S
C1024 H1029 0.930 . S
C1025 C1026 1.333 . S
C1025 N1027 1.317 . S
C1025 H1030 0.930 . S
C1026 C1025 1.333 . S
C1026 N1028 1.350 . S
C1026 H1052 0.931 . S
N1027 Co1023 2.148 . S
N1027 C1024 1.301 . S
N1027 C1025 1.317 . S
N1028 C1024 1.328 . S
N1028 C1026 1.350 . S
H1029 C1024 0.930 . S
H1030 C1025 0.930 . S
C1031 O1032 1.224 . S
C1031 O1050 1.247 . S
O1032 C1031 1.224 . S
N1033 Co1023 2.128 . S
N1033 C1034 1.355 . S
N1033 C1036 1.311 . S
C1034 N1033 1.355 . S
C1034 C1035 1.363 . S
C1034 H1046 0.929 . S
C1035 C1034 1.363 . S
C1035 N1037 1.375 . S
C1035 H1053 0.931 . S
C1036 N1033 1.311 . S
C1036 N1037 1.347 . S
C1036 H1047 0.929 . S
N1037 C1035 1.375 . S
N1037 C1036 1.347 . S
C1038 C1041 1.365 . S
C1038 N1043 1.328 . S
C1038 H1044 0.929 . S
C1039 C1040 1.362 . S
C1039 C1042 1.378 . S
C1039 H1054 0.929 . S
C1040 C1039 1.362 . S
C1040 C1041 1.366 . S
C1041 C1038 1.365 . S
C1041 C1040 1.366 . S
C1041 H1055 0.930 . S
C1042 C1039 1.378 . S
C1042 N1043 1.315 . S
C1042 H1045 0.930 . S
N1043 Co1023 2.194 . S
N1043 C1038 1.328 . S
N1043 C1042 1.315 . S
H1044 C1038 0.929 . S
H1045 C1042 0.930 . S
H1046 C1034 0.929 . S
H1047 C1036 0.929 . S
O1048 Co1023 2.351 . S
O1048 C1051 1.244 . S
O1049 Co1023 2.155 . S
O1049 C1051 1.240 . S
O1050 Co1023 2.096 . S
O1050 C1031 1.247 . S
C1051 O1048 1.244 . S
C1051 O1049 1.240 . S
H1052 C1026 0.931 . S
H1053 C1035 0.931 . S
H1054 C1039 0.929 . S
H1055 C1041 0.930 . S
H1056 C1064 0.950 . S
H1057 C1069 0.950 . S
H1058 C1066 0.950 . S
H1059 C1068 0.950 . S
H1060 C1070 0.950 . S
H1061 C1072 0.950 . S
H1062 C1074 0.950 . S
H1063 C1075 0.950 . S
C1064 H1056 0.950 . S
C1064 C1065 1.386 . S
C1064 C1066 1.391 . S
C1065 C1064 1.386 . S
C1065 C1069 1.393 . S
C1066 H1058 0.950 . S
C1066 C1064 1.391 . S
C1066 C1067 1.400 . S
C1067 C1066 1.400 . S
C1067 C1068 1.398 . S
C1067 C1073 1.491 . S
C1068 H1059 0.950 . S
C1068 C1067 1.398 . S
C1068 C1069 1.391 . S
C1069 H1057 0.950 . S
C1069 C1065 1.393 . S
C1069 C1068 1.391 . S
C1070 H1060 0.950 . S
C1070 C1071 1.386 . S
C1070 C1072 1.391 . S
C1071 C1070 1.386 . S
C1071 C1075 1.393 . S
C1072 H1061 0.950 . S
C1072 C1070 1.391 . S
C1072 C1073 1.400 . S
C1073 C1067 1.491 . S
C1073 C1072 1.400 . S
C1073 C1074 1.398 . S
C1074 H1062 0.950 . S
C1074 C1073 1.398 . S
C1074 C1075 1.391 . S
C1075 H1063 0.950 . S
C1075 C1071 1.393 . S
C1075 C1074 1.391 . S
H1076 C1084 0.950 . S
H1077 C1089 0.950 . S
H1078 C1086 0.950 1_655 S
H1079 C1088 0.950 . S
H1080 C1090 0.950 . S
H1081 C1092 0.950 1_455 S
H1082 C1094 0.950 . S
H1083 C1095 0.950 . S
C1084 H1076 0.950 . S
C1084 C1085 1.386 . S
C1084 C1086 1.391 . S
C1085 C1084 1.386 . S
C1085 C1089 1.393 1_565 S
C1086 H1078 0.950 1_455 S
C1086 C1084 1.391 . S
C1086 C1087 1.400 . S
C1087 C1086 1.400 . S
C1087 C1088 1.398 1_565 S
C1087 C1093 1.491 1_465 S
C1088 H1079 0.950 . S
C1088 C1087 1.398 1_545 S
C1088 C1089 1.391 . S
C1089 H1077 0.950 . S
C1089 C1085 1.393 1_545 S
C1089 C1088 1.391 . S
C1090 H1080 0.950 . S
C1090 C1091 1.386 . S
C1090 C1092 1.391 . S
C1091 C1090 1.386 . S
C1091 C1095 1.393 1_545 S
C1092 H1081 0.950 1_655 S
C1092 C1090 1.391 . S
C1092 C1093 1.400 . S
C1093 C1087 1.491 1_645 S
C1093 C1092 1.400 . S
C1093 C1094 1.398 1_545 S
C1094 H1082 0.950 . S
C1094 C1093 1.398 1_565 S
C1094 C1095 1.391 . S
C1095 H1083 0.950 . S
C1095 C1091 1.393 1_565 S
C1095 C1094 1.391 . S
H1096 C1104 0.950 . S
H1097 C1109 0.950 . S
H1098 C1106 0.950 . S
H1099 C1108 0.950 . S
H1100 C1110 0.950 . S
H1101 C1112 0.950 . S
H1102 C1114 0.950 . S
H1103 C1115 0.950 . S
C1104 H1096 0.950 . S
C1104 C1105 1.386 . S
C1104 C1106 1.391 . S
C1105 C1104 1.386 . S
C1105 C1109 1.393 . S
C1106 H1098 0.950 . S
C1106 C1104 1.391 . S
C1106 C1107 1.400 . S
C1107 C1106 1.400 . S
C1107 C1108 1.398 . S
C1107 C1113 1.491 . S
C1108 H1099 0.950 . S
C1108 C1107 1.398 . S
C1108 C1109 1.391 . S
C1109 H1097 0.950 . S
C1109 C1105 1.393 . S
C1109 C1108 1.391 . S
C1110 H1100 0.950 . S
C1110 C1111 1.386 . S
C1110 C1112 1.391 . S
C1111 C1110 1.386 . S
C1111 C1115 1.393 . S
C1112 H1101 0.950 . S
C1112 C1110 1.391 . S
C1112 C1113 1.400 . S
C1113 C1107 1.491 . S
C1113 C1112 1.400 . S
C1113 C1114 1.398 . S
C1114 H1102 0.950 . S
C1114 C1113 1.398 . S
C1114 C1115 1.391 . S
C1115 H1103 0.950 . S
C1115 C1111 1.393 . S
C1115 C1114 1.391 . S
H1116 C1124 0.950 1_565 S
H1117 C1129 0.950 . S
H1118 C1126 0.950 . S
H1119 C1128 0.950 . S
H1120 C1130 0.950 1_545 S
H1121 C1132 0.950 . S
H1122 C1134 0.950 . S
H1123 C1135 0.950 . S
C1124 H1116 0.950 1_545 S
C1124 C1125 1.386 . S
C1124 C1126 1.391 1_545 S
C1125 C1124 1.386 . S
C1125 C1129 1.393 . S
C1126 H1118 0.950 . S
C1126 C1124 1.391 1_565 S
C1126 C1127 1.400 1_565 S
C1127 C1126 1.400 1_545 S
C1127 C1128 1.398 . S
C1127 C1133 1.491 1_544 S
C1128 H1119 0.950 . S
C1128 C1127 1.398 . S
C1128 C1129 1.391 . S
C1129 H1117 0.950 . S
C1129 C1125 1.393 . S
C1129 C1128 1.391 . S
C1130 H1120 0.950 1_565 S
C1130 C1131 1.386 . S
C1130 C1132 1.391 1_565 S
C1131 C1130 1.386 . S
C1131 C1135 1.393 . S
C1132 H1121 0.950 . S
C1132 C1130 1.391 1_545 S
C1132 C1133 1.400 1_545 S
C1133 C1127 1.491 1_566 S
C1133 C1132 1.400 1_565 S
C1133 C1134 1.398 . S
C1134 H1122 0.950 . S
C1134 C1133 1.398 . S
C1134 C1135 1.391 . S
C1135 H1123 0.950 . S
C1135 C1131 1.393 . S
C1135 C1134 1.391 . S
H1136 C1144 0.950 . S
H1137 C1149 0.950 . S
H1138 C1146 0.950 . S
H1139 C1148 0.950 . S
H1140 C1150 0.950 . S
H1141 C1152 0.950 . S
H1142 C1154 0.950 . S
H1143 C1155 0.950 . S
C1144 H1136 0.950 . S
C1144 C1145 1.386 . S
C1144 C1146 1.391 . S
C1145 C1144 1.386 . S
C1145 C1149 1.393 . S
C1146 H1138 0.950 . S
C1146 C1144 1.391 . S
C1146 C1147 1.400 . S
C1147 C1146 1.400 . S
C1147 C1148 1.398 . S
C1147 C1153 1.491 . S
C1148 H1139 0.950 . S
C1148 C1147 1.398 . S
C1148 C1149 1.391 . S
C1149 H1137 0.950 . S
C1149 C1145 1.393 . S
C1149 C1148 1.391 . S
C1150 H1140 0.950 . S
C1150 C1151 1.386 . S
C1150 C1152 1.391 . S
C1151 C1150 1.386 . S
C1151 C1155 1.393 . S
C1152 H1141 0.950 . S
C1152 C1150 1.391 . S
C1152 C1153 1.400 . S
C1153 C1147 1.491 . S
C1153 C1152 1.400 . S
C1153 C1154 1.398 . S
C1154 H1142 0.950 . S
C1154 C1153 1.398 . S
C1154 C1155 1.391 . S
C1155 H1143 0.950 . S
C1155 C1151 1.393 . S
C1155 C1154 1.391 . S
H1156 C1164 0.950 . S
H1157 C1169 0.950 . S
H1158 C1166 0.950 . S
H1159 C1168 0.950 . S
H1160 C1170 0.950 . S
H1161 C1172 0.950 . S
H1162 C1174 0.950 . S
H1163 C1175 0.950 . S
C1164 H1156 0.950 . S
C1164 C1165 1.386 1_545 S
C1164 C1166 1.391 . S
C1165 C1164 1.386 1_565 S
C1165 C1169 1.393 . S
C1166 H1158 0.950 . S
C1166 C1164 1.391 . S
C1166 C1167 1.400 1_545 S
C1167 C1166 1.400 1_565 S
C1167 C1168 1.398 . S
C1167 C1173 1.491 1_565 S
C1168 H1159 0.950 . S
C1168 C1167 1.398 . S
C1168 C1169 1.391 . S
C1169 H1157 0.950 . S
C1169 C1165 1.393 . S
C1169 C1168 1.391 . S
C1170 H1160 0.950 . S
C1170 C1171 1.386 1_565 S
C1170 C1172 1.391 . S
C1171 C1170 1.386 1_545 S
C1171 C1175 1.393 . S
C1172 H1161 0.950 . S
C1172 C1170 1.391 . S
C1172 C1173 1.400 1_565 S
C1173 C1167 1.491 1_545 S
C1173 C1172 1.400 1_545 S
C1173 C1174 1.398 . S
C1174 H1162 0.950 . S
C1174 C1173 1.398 . S
C1174 C1175 1.391 . S
C1175 H1163 0.950 . S
C1175 C1171 1.393 . S
C1175 C1174 1.391 . S
H1176 C1184 0.950 . S
H1177 C1189 0.950 . S
H1178 C1186 0.950 . S
H1179 C1188 0.950 . S
H1180 C1190 0.950 . S
H1181 C1192 0.950 . S
H1182 C1194 0.950 . S
H1183 C1195 0.950 . S
C1184 H1176 0.950 . S
C1184 C1185 1.386 . S
C1184 C1186 1.391 . S
C1185 C1184 1.386 . S
C1185 C1189 1.393 . S
C1186 H1178 0.950 . S
C1186 C1184 1.391 . S
C1186 C1187 1.400 . S
C1187 C1186 1.400 . S
C1187 C1188 1.398 . S
C1187 C1193 1.491 . S
C1188 H1179 0.950 . S
C1188 C1187 1.398 . S
C1188 C1189 1.391 . S
C1189 H1177 0.950 . S
C1189 C1185 1.393 . S
C1189 C1188 1.391 . S
C1190 H1180 0.950 . S
C1190 C1191 1.386 . S
C1190 C1192 1.391 . S
C1191 C1190 1.386 . S
C1191 C1195 1.393 . S
C1192 H1181 0.950 . S
C1192 C1190 1.391 . S
C1192 C1193 1.400 . S
C1193 C1187 1.491 . S
C1193 C1192 1.400 . S
C1193 C1194 1.398 . S
C1194 H1182 0.950 . S
C1194 C1193 1.398 . S
C1194 C1195 1.391 . S
C1195 H1183 0.950 . S
C1195 C1191 1.393 . S
C1195 C1194 1.391 . S
H1196 C1204 0.950 . S
H1197 C1209 0.950 . S
H1198 C1206 0.950 1_554 S
H1199 C1208 0.949 . S
H1200 C1210 0.950 . S
H1201 C1212 0.950 1_556 S
H1202 C1214 0.949 . S
H1203 C1215 0.950 . S
C1204 H1196 0.950 . S
C1204 C1205 1.386 . S
C1204 C1206 1.391 . S
C1205 C1204 1.386 . S
C1205 C1209 1.393 . S
C1206 H1198 0.950 1_556 S
C1206 C1204 1.391 . S
C1206 C1207 1.400 . S
C1207 C1206 1.400 . S
C1207 C1208 1.398 1_455 S
C1207 C1213 1.491 1_446 S
C1208 H1199 0.949 . S
C1208 C1207 1.398 1_655 S
C1208 C1209 1.391 1_655 S
C1209 H1197 0.950 . S
C1209 C1205 1.393 . S
C1209 C1208 1.391 1_455 S
C1210 H1200 0.950 . S
C1210 C1211 1.386 . S
C1210 C1212 1.391 . S
C1211 C1210 1.386 . S
C1211 C1215 1.393 . S
C1212 H1201 0.950 1_554 S
C1212 C1210 1.391 . S
C1212 C1213 1.400 . S
C1213 C1207 1.491 1_664 S
C1213 C1212 1.400 . S
C1213 C1214 1.398 1_655 S
C1214 H1202 0.949 . S
C1214 C1213 1.398 1_455 S
C1214 C1215 1.391 1_455 S
C1215 H1203 0.950 . S
C1215 C1211 1.393 . S
C1215 C1214 1.391 1_655 S
H1216 C1224 0.950 . S
H1217 C1229 0.950 . S
H1218 C1226 0.950 . S
H1219 C1228 0.950 . S
H1220 C1230 0.950 . S
H1221 C1232 0.950 . S
H1222 C1234 0.950 . S
H1223 C1235 0.950 . S
C1224 H1216 0.950 . S
C1224 C1225 1.386 . S
C1224 C1226 1.391 . S
C1225 C1224 1.386 . S
C1225 C1229 1.393 . S
C1226 H1218 0.950 . S
C1226 C1224 1.391 . S
C1226 C1227 1.400 . S
C1227 C1226 1.400 . S
C1227 C1228 1.398 . S
C1227 C1233 1.491 . S
C1228 H1219 0.950 . S
C1228 C1227 1.398 . S
C1228 C1229 1.391 . S
C1229 H1217 0.950 . S
C1229 C1225 1.393 . S
C1229 C1228 1.391 . S
C1230 H1220 0.950 . S
C1230 C1231 1.386 . S
C1230 C1232 1.391 . S
C1231 C1230 1.386 . S
C1231 C1235 1.393 . S
C1232 H1221 0.950 . S
C1232 C1230 1.391 . S
C1232 C1233 1.400 . S
C1233 C1227 1.491 . S
C1233 C1232 1.400 . S
C1233 C1234 1.398 . S
C1234 H1222 0.950 . S
C1234 C1233 1.398 . S
C1234 C1235 1.391 . S
C1235 H1223 0.950 . S
C1235 C1231 1.393 . S
C1235 C1234 1.391 . S
H1236 C1244 0.950 . S
H1237 C1249 0.950 . S
H1238 C1246 0.950 . S
H1239 C1248 0.950 . S
H1240 C1250 0.950 . S
H1241 C1252 0.950 . S
H1242 C1254 0.950 . S
H1243 C1255 0.950 . S
C1244 H1236 0.950 . S
C1244 C1245 1.386 . S
C1244 C1246 1.391 . S
C1245 C1244 1.386 . S
C1245 C1249 1.393 . S
C1246 H1238 0.950 . S
C1246 C1244 1.391 . S
C1246 C1247 1.400 . S
C1247 C1246 1.400 . S
C1247 C1248 1.398 . S
C1247 C1253 1.491 . S
C1248 H1239 0.950 . S
C1248 C1247 1.398 . S
C1248 C1249 1.391 . S
C1249 H1237 0.950 . S
C1249 C1245 1.393 . S
C1249 C1248 1.391 . S
C1250 H1240 0.950 . S
C1250 C1251 1.386 . S
C1250 C1252 1.391 . S
C1251 C1250 1.386 . S
C1251 C1255 1.393 . S
C1252 H1241 0.950 . S
C1252 C1250 1.391 . S
C1252 C1253 1.400 . S
C1253 C1247 1.491 . S
C1253 C1252 1.400 . S
C1253 C1254 1.398 . S
C1254 H1242 0.950 . S
C1254 C1253 1.398 . S
C1254 C1255 1.391 . S
C1255 H1243 0.950 . S
C1255 C1251 1.393 . S
C1255 C1254 1.391 . S
H1256 C1264 0.950 . S
H1257 C1269 0.950 . S
H1258 C1266 0.950 . S
H1259 C1268 0.950 . S
H1260 C1270 0.950 . S
H1261 C1272 0.950 . S
H1262 C1274 0.950 . S
H1263 C1275 0.950 . S
C1264 H1256 0.950 . S
C1264 C1265 1.386 . S
C1264 C1266 1.391 . S
C1265 C1264 1.386 . S
C1265 C1269 1.393 . S
C1266 H1258 0.950 . S
C1266 C1264 1.391 . S
C1266 C1267 1.400 . S
C1267 C1266 1.400 . S
C1267 C1268 1.398 . S
C1267 C1273 1.491 . S
C1268 H1259 0.950 . S
C1268 C1267 1.398 . S
C1268 C1269 1.391 . S
C1269 H1257 0.950 . S
C1269 C1265 1.393 . S
C1269 C1268 1.391 . S
C1270 H1260 0.950 . S
C1270 C1271 1.386 . S
C1270 C1272 1.391 . S
C1271 C1270 1.386 . S
C1271 C1275 1.393 . S
C1272 H1261 0.950 . S
C1272 C1270 1.391 . S
C1272 C1273 1.400 . S
C1273 C1267 1.491 . S
C1273 C1272 1.400 . S
C1273 C1274 1.398 . S
C1274 H1262 0.950 . S
C1274 C1273 1.398 . S
C1274 C1275 1.391 . S
C1275 H1263 0.950 . S
C1275 C1271 1.393 . S
C1275 C1274 1.391 . S
H1276 C1284 0.950 . S
H1277 C1289 0.950 . S
H1278 C1286 0.950 . S
H1279 C1288 0.950 . S
H1280 C1290 0.950 . S
H1281 C1292 0.950 . S
H1282 C1294 0.950 . S
H1283 C1295 0.950 . S
C1284 H1276 0.950 . S
C1284 C1285 1.386 . S
C1284 C1286 1.391 . S
C1285 C1284 1.386 . S
C1285 C1289 1.393 . S
C1286 H1278 0.950 . S
C1286 C1284 1.391 . S
C1286 C1287 1.400 . S
C1287 C1286 1.400 . S
C1287 C1288 1.398 . S
C1287 C1293 1.491 . S
C1288 H1279 0.950 . S
C1288 C1287 1.398 . S
C1288 C1289 1.391 . S
C1289 H1277 0.950 . S
C1289 C1285 1.393 . S
C1289 C1288 1.391 . S
C1290 H1280 0.950 . S
C1290 C1291 1.386 . S
C1290 C1292 1.391 . S
C1291 C1290 1.386 . S
C1291 C1295 1.393 . S
C1292 H1281 0.950 . S
C1292 C1290 1.391 . S
C1292 C1293 1.400 . S
C1293 C1287 1.491 . S
C1293 C1292 1.400 . S
C1293 C1294 1.398 . S
C1294 H1282 0.950 . S
C1294 C1293 1.398 . S
C1294 C1295 1.391 . S
C1295 H1283 0.950 . S
C1295 C1291 1.393 . S
C1295 C1294 1.391 . S
H1296 C1304 0.950 . S
H1297 C1309 0.950 . S
H1298 C1306 0.950 . S
H1299 C1308 0.950 1_554 S
H1300 C1310 0.950 . S
H1301 C1312 0.950 . S
H1302 C1314 0.950 1_556 S
H1303 C1315 0.950 . S
C1304 H1296 0.950 . S
C1304 C1305 1.386 . S
C1304 C1306 1.391 . S
C1305 C1304 1.386 . S
C1305 C1309 1.393 . S
C1306 H1298 0.950 . S
C1306 C1304 1.391 . S
C1306 C1307 1.400 . S
C1307 C1306 1.400 . S
C1307 C1308 1.398 . S
C1307 C1313 1.491 1_556 S
C1308 H1299 0.950 1_556 S
C1308 C1307 1.398 . S
C1308 C1309 1.391 . S
C1309 H1297 0.950 . S
C1309 C1305 1.393 . S
C1309 C1308 1.391 . S
C1310 H1300 0.950 . S
C1310 C1311 1.386 . S
C1310 C1312 1.391 . S
C1311 C1310 1.386 . S
C1311 C1315 1.393 . S
C1312 H1301 0.950 . S
C1312 C1310 1.391 . S
C1312 C1313 1.400 . S
C1313 C1307 1.491 1_554 S
C1313 C1312 1.400 . S
C1313 C1314 1.398 . S
C1314 H1302 0.950 1_554 S
C1314 C1313 1.398 . S
C1314 C1315 1.391 . S
C1315 H1303 0.950 . S
C1315 C1311 1.393 . S
C1315 C1314 1.391 . S
H1316 C1324 0.950 . S
H1317 C1329 0.950 . S
H1318 C1326 0.950 . S
H1319 C1328 0.978 . S
H1320 C1330 0.950 . S
H1321 C1332 0.950 . S
H1322 C1334 0.978 . S
H1323 C1335 0.950 . S
C1324 H1316 0.950 . S
C1324 C1325 1.386 . S
C1324 C1326 1.391 . S
C1325 C1324 1.386 . S
C1325 C1329 1.393 . S
C1326 H1318 0.950 . S
C1326 C1324 1.391 . S
C1326 C1327 1.400 . S
C1327 C1326 1.400 . S
C1327 C1328 1.389 1_655 S
C1327 C1333 1.491 1_655 S
C1328 H1319 0.978 . S
C1328 C1327 1.389 1_455 S
C1328 C1329 1.373 1_455 S
C1329 H1317 0.950 . S
C1329 C1325 1.393 . S
C1329 C1328 1.373 1_655 S
C1330 H1320 0.950 . S
C1330 C1331 1.386 . S
C1330 C1332 1.391 . S
C1331 C1330 1.386 . S
C1331 C1335 1.393 . S
C1332 H1321 0.950 . S
C1332 C1330 1.391 . S
C1332 C1333 1.400 . S
C1333 C1327 1.491 1_455 S
C1333 C1332 1.400 . S
C1333 C1334 1.389 1_455 S
C1334 H1322 0.978 . S
C1334 C1333 1.389 1_655 S
C1334 C1335 1.373 1_655 S
C1335 H1323 0.950 . S
C1335 C1331 1.393 . S
C1335 C1334 1.373 1_455 S
H1336 C1344 0.950 . S
H1337 C1349 0.950 . S
H1338 C1346 0.950 . S
H1339 C1348 0.950 1_556 S
H1340 C1350 0.950 . S
H1341 C1352 0.950 . S
H1342 C1354 0.950 1_554 S
H1343 C1355 0.950 . S
C1344 H1336 0.950 . S
C1344 C1345 1.386 . S
C1344 C1346 1.391 1_455 S
C1345 C1344 1.386 . S
C1345 C1349 1.393 . S
C1346 H1338 0.950 . S
C1346 C1344 1.391 1_655 S
C1346 C1347 1.400 1_655 S
C1347 C1346 1.400 1_455 S
C1347 C1348 1.398 . S
C1347 C1353 1.491 1_454 S
C1348 H1339 0.950 1_554 S
C1348 C1347 1.398 . S
C1348 C1349 1.391 . S
C1349 H1337 0.950 . S
C1349 C1345 1.393 . S
C1349 C1348 1.391 . S
C1350 H1340 0.950 . S
C1350 C1351 1.386 . S
C1350 C1352 1.391 1_655 S
C1351 C1350 1.386 . S
C1351 C1355 1.393 . S
C1352 H1341 0.950 . S
C1352 C1350 1.391 1_455 S
C1352 C1353 1.400 1_455 S
C1353 C1347 1.491 1_656 S
C1353 C1352 1.400 1_655 S
C1353 C1354 1.398 . S
C1354 H1342 0.950 1_556 S
C1354 C1353 1.398 . S
C1354 C1355 1.391 . S
C1355 H1343 0.950 . S
C1355 C1351 1.393 . S
C1355 C1354 1.391 . S
H1356 C1364 0.950 . S
H1357 C1369 0.950 . S
H1358 C1366 0.950 . S
H1359 C1368 0.950 . S
H1360 C1370 0.950 . S
H1361 C1372 0.950 . S
H1362 C1374 0.950 . S
H1363 C1375 0.950 . S
C1364 H1356 0.950 . S
C1364 C1365 1.386 . S
C1364 C1366 1.391 . S
C1365 C1364 1.386 . S
C1365 C1369 1.393 . S
C1366 H1358 0.950 . S
C1366 C1364 1.391 . S
C1366 C1367 1.400 . S
C1367 C1366 1.400 . S
C1367 C1368 1.398 . S
C1367 C1373 1.491 . S
C1368 H1359 0.950 . S
C1368 C1367 1.398 . S
C1368 C1369 1.391 . S
C1369 H1357 0.950 . S
C1369 C1365 1.393 . S
C1369 C1368 1.391 . S
C1370 H1360 0.950 . S
C1370 C1371 1.386 . S
C1370 C1372 1.391 . S
C1371 C1370 1.386 . S
C1371 C1375 1.393 . S
C1372 H1361 0.950 . S
C1372 C1370 1.391 . S
C1372 C1373 1.400 . S
C1373 C1367 1.491 . S
C1373 C1372 1.400 . S
C1373 C1374 1.398 . S
C1374 H1362 0.950 . S
C1374 C1373 1.398 . S
C1374 C1375 1.391 . S
C1375 H1363 0.950 . S
C1375 C1371 1.393 . S
C1375 C1374 1.391 . S
H1376 C1384 0.950 . S
H1377 C1389 0.950 . S
H1378 C1386 0.950 . S
H1379 C1388 0.950 . S
H1380 C1390 0.950 . S
H1381 C1392 0.950 . S
H1382 C1394 0.950 . S
H1383 C1395 0.950 . S
C1384 H1376 0.950 . S
C1384 C1385 1.386 . S
C1384 C1386 1.391 . S
C1385 C1384 1.386 . S
C1385 C1389 1.393 . S
C1386 H1378 0.950 . S
C1386 C1384 1.391 . S
C1386 C1387 1.400 . S
C1387 C1386 1.400 . S
C1387 C1388 1.398 . S
C1387 C1393 1.491 . S
C1388 H1379 0.950 . S
C1388 C1387 1.398 . S
C1388 C1389 1.391 . S
C1389 H1377 0.950 . S
C1389 C1385 1.393 . S
C1389 C1388 1.391 . S
C1390 H1380 0.950 . S
C1390 C1391 1.386 . S
C1390 C1392 1.391 . S
C1391 C1390 1.386 . S
C1391 C1395 1.393 . S
C1392 H1381 0.950 . S
C1392 C1390 1.391 . S
C1392 C1393 1.400 . S
C1393 C1387 1.491 . S
C1393 C1392 1.400 . S
C1393 C1394 1.398 . S
C1394 H1382 0.950 . S
C1394 C1393 1.398 . S
C1394 C1395 1.391 . S
C1395 H1383 0.950 . S
C1395 C1391 1.393 . S
C1395 C1394 1.391 . S
H1396 C1404 0.950 . S
H1397 C1409 0.950 . S
H1398 C1406 0.950 . S
H1399 C1408 0.950 . S
H1400 C1410 0.950 . S
H1401 C1412 0.950 . S
H1402 C1414 0.950 . S
H1403 C1415 0.950 . S
C1404 H1396 0.950 . S
C1404 C1405 1.386 . S
C1404 C1406 1.391 . S
C1405 C1404 1.386 . S
C1405 C1409 1.393 . S
C1406 H1398 0.950 . S
C1406 C1404 1.391 . S
C1406 C1407 1.400 . S
C1407 C1406 1.400 . S
C1407 C1408 1.398 . S
C1407 C1413 1.491 . S
C1408 H1399 0.950 . S
C1408 C1407 1.398 . S
C1408 C1409 1.391 . S
C1409 H1397 0.950 . S
C1409 C1405 1.393 . S
C1409 C1408 1.391 . S
C1410 H1400 0.950 . S
C1410 C1411 1.386 . S
C1410 C1412 1.391 . S
C1411 C1410 1.386 . S
C1411 C1415 1.393 . S
C1412 H1401 0.950 . S
C1412 C1410 1.391 . S
C1412 C1413 1.400 . S
C1413 C1407 1.491 . S
C1413 C1412 1.400 . S
C1413 C1414 1.398 . S
C1414 H1402 0.950 . S
C1414 C1413 1.398 . S
C1414 C1415 1.391 . S
C1415 H1403 0.950 . S
C1415 C1411 1.393 . S
C1415 C1414 1.391 . S
H1416 C1424 0.950 . S
H1417 C1429 0.950 . S
H1418 C1426 0.950 . S
H1419 C1428 0.950 . S
H1420 C1430 0.950 . S
H1421 C1432 0.950 . S
H1422 C1434 0.950 . S
H1423 C1435 0.950 . S
C1424 H1416 0.950 . S
C1424 C1425 1.386 . S
C1424 C1426 1.391 . S
C1425 C1424 1.386 . S
C1425 C1429 1.393 . S
C1426 H1418 0.950 . S
C1426 C1424 1.391 . S
C1426 C1427 1.400 . S
C1427 C1426 1.400 . S
C1427 C1428 1.398 . S
C1427 C1433 1.491 . S
C1428 H1419 0.950 . S
C1428 C1427 1.398 . S
C1428 C1429 1.391 . S
C1429 H1417 0.950 . S
C1429 C1425 1.393 . S
C1429 C1428 1.391 . S
C1430 H1420 0.950 . S
C1430 C1431 1.386 . S
C1430 C1432 1.391 . S
C1431 C1430 1.386 . S
C1431 C1435 1.393 . S
C1432 H1421 0.950 . S
C1432 C1430 1.391 . S
C1432 C1433 1.400 . S
C1433 C1427 1.491 . S
C1433 C1432 1.400 . S
C1433 C1434 1.398 . S
C1434 H1422 0.950 . S
C1434 C1433 1.398 . S
C1434 C1435 1.391 . S
C1435 H1423 0.950 . S
C1435 C1431 1.393 . S
C1435 C1434 1.391 . S
H1436 C1444 0.950 . S
H1437 C1449 0.950 . S
H1438 C1446 0.950 . S
H1439 C1448 0.950 . S
H1440 C1450 0.950 . S
H1441 C1452 0.950 . S
H1442 C1454 0.950 . S
H1443 C1455 0.950 . S
C1444 H1436 0.950 . S
C1444 C1445 1.386 . S
C1444 C1446 1.391 . S
C1445 C1444 1.386 . S
C1445 C1449 1.393 . S
C1446 H1438 0.950 . S
C1446 C1444 1.391 . S
C1446 C1447 1.400 . S
C1447 C1446 1.400 . S
C1447 C1448 1.398 . S
C1447 C1453 1.491 . S
C1448 H1439 0.950 . S
C1448 C1447 1.398 . S
C1448 C1449 1.391 . S
C1449 H1437 0.950 . S
C1449 C1445 1.393 . S
C1449 C1448 1.391 . S
C1450 H1440 0.950 . S
C1450 C1451 1.386 . S
C1450 C1452 1.391 . S
C1451 C1450 1.386 . S
C1451 C1455 1.393 . S
C1452 H1441 0.950 . S
C1452 C1450 1.391 . S
C1452 C1453 1.400 . S
C1453 C1447 1.491 . S
C1453 C1452 1.400 . S
C1453 C1454 1.398 . S
C1454 H1442 0.950 . S
C1454 C1453 1.398 . S
C1454 C1455 1.391 . S
C1455 H1443 0.950 . S
C1455 C1451 1.393 . S
C1455 C1454 1.391 . S
H1456 C1464 0.950 . S
H1457 C1469 0.950 . S
H1458 C1466 0.950 . S
H1459 C1468 0.950 . S
H1460 C1470 0.950 . S
H1461 C1472 0.950 . S
H1462 C1474 0.950 . S
H1463 C1475 0.950 . S
C1464 H1456 0.950 . S
C1464 C1465 1.386 . S
C1464 C1466 1.391 . S
C1465 C1464 1.386 . S
C1465 C1469 1.393 . S
C1466 H1458 0.950 . S
C1466 C1464 1.391 . S
C1466 C1467 1.400 . S
C1467 C1466 1.400 . S
C1467 C1468 1.398 . S
C1467 C1473 1.491 . S
C1468 H1459 0.950 . S
C1468 C1467 1.398 . S
C1468 C1469 1.391 . S
C1469 H1457 0.950 . S
C1469 C1465 1.393 . S
C1469 C1468 1.391 . S
C1470 H1460 0.950 . S
C1470 C1471 1.386 . S
C1470 C1472 1.391 . S
C1471 C1470 1.386 . S
C1471 C1475 1.393 . S
C1472 H1461 0.950 . S
C1472 C1470 1.391 . S
C1472 C1473 1.400 . S
C1473 C1467 1.491 . S
C1473 C1472 1.400 . S
C1473 C1474 1.398 . S
C1474 H1462 0.950 . S
C1474 C1473 1.398 . S
C1474 C1475 1.391 . S
C1475 H1463 0.950 . S
C1475 C1471 1.393 . S
C1475 C1474 1.391 . S
H1476 C1484 0.950 . S
H1477 C1489 0.950 . S
H1478 C1486 0.950 . S
H1479 C1488 0.950 . S
H1480 C1490 0.950 . S
H1481 C1492 0.950 . S
H1482 C1494 0.950 . S
H1483 C1495 0.950 . S
C1484 H1476 0.950 . S
C1484 C1485 1.386 . S
C1484 C1486 1.391 . S
C1485 C1484 1.386 . S
C1485 C1489 1.393 . S
C1486 H1478 0.950 . S
C1486 C1484 1.391 . S
C1486 C1487 1.400 . S
C1487 C1486 1.400 . S
C1487 C1488 1.398 . S
C1487 C1493 1.491 . S
C1488 H1479 0.950 . S
C1488 C1487 1.398 . S
C1488 C1489 1.391 . S
C1489 H1477 0.950 . S
C1489 C1485 1.393 . S
C1489 C1488 1.391 . S
C1490 H1480 0.950 . S
C1490 C1491 1.386 . S
C1490 C1492 1.391 . S
C1491 C1490 1.386 . S
C1491 C1495 1.393 . S
C1492 H1481 0.950 . S
C1492 C1490 1.391 . S
C1492 C1493 1.400 . S
C1493 C1487 1.491 . S
C1493 C1492 1.400 . S
C1493 C1494 1.398 . S
C1494 H1482 0.950 . S
C1494 C1493 1.398 . S
C1494 C1495 1.391 . S
C1495 H1483 0.950 . S
C1495 C1491 1.393 . S
C1495 C1494 1.391 . S
H1496 C1504 0.950 . S
H1497 C1509 0.950 . S
H1498 C1506 0.950 . S
H1499 C1508 0.950 . S
H1500 C1510 0.950 . S
H1501 C1512 0.950 . S
H1502 C1514 0.950 . S
H1503 C1515 0.950 . S
C1504 H1496 0.950 . S
C1504 C1505 1.386 . S
C1504 C1506 1.391 . S
C1505 C1504 1.386 . S
C1505 C1509 1.393 . S
C1506 H1498 0.950 . S
C1506 C1504 1.391 . S
C1506 C1507 1.400 . S
C1507 C1506 1.400 . S
C1507 C1508 1.398 . S
C1507 C1513 1.491 . S
C1508 H1499 0.950 . S
C1508 C1507 1.398 . S
C1508 C1509 1.391 . S
C1509 H1497 0.950 . S
C1509 C1505 1.393 . S
C1509 C1508 1.391 . S
C1510 H1500 0.950 . S
C1510 C1511 1.386 . S
C1510 C1512 1.391 . S
C1511 C1510 1.386 . S
C1511 C1515 1.393 . S
C1512 H1501 0.950 . S
C1512 C1510 1.391 . S
C1512 C1513 1.400 . S
C1513 C1507 1.491 . S
C1513 C1512 1.400 . S
C1513 C1514 1.398 . S
C1514 H1502 0.950 . S
C1514 C1513 1.398 . S
C1514 C1515 1.391 . S
C1515 H1503 0.950 . S
C1515 C1511 1.393 . S
C1515 C1514 1.391 . S
H1516 C1524 0.950 . S
H1517 C1529 0.950 . S
H1518 C1526 0.950 . S
H1519 C1528 0.950 . S
H1520 C1530 0.950 . S
H1521 C1532 0.950 . S
H1522 C1534 0.950 . S
H1523 C1535 0.950 . S
C1524 H1516 0.950 . S
C1524 C1525 1.386 . S
C1524 C1526 1.391 . S
C1525 C1524 1.386 . S
C1525 C1529 1.393 . S
C1526 H1518 0.950 . S
C1526 C1524 1.391 . S
C1526 C1527 1.400 . S
C1527 C1526 1.400 . S
C1527 C1528 1.398 . S
C1527 C1533 1.491 . S
C1528 H1519 0.950 . S
C1528 C1527 1.398 . S
C1528 C1529 1.391 . S
C1529 H1517 0.950 . S
C1529 C1525 1.393 . S
C1529 C1528 1.391 . S
C1530 H1520 0.950 . S
C1530 C1531 1.386 . S
C1530 C1532 1.391 . S
C1531 C1530 1.386 . S
C1531 C1535 1.393 . S
C1532 H1521 0.950 . S
C1532 C1530 1.391 . S
C1532 C1533 1.400 . S
C1533 C1527 1.491 . S
C1533 C1532 1.400 . S
C1533 C1534 1.398 . S
C1534 H1522 0.950 . S
C1534 C1533 1.398 . S
C1534 C1535 1.391 . S
C1535 H1523 0.950 . S
C1535 C1531 1.393 . S
C1535 C1534 1.391 . S
H1536 C1544 0.950 . S
H1537 C1549 0.950 . S
H1538 C1546 0.950 . S
H1539 C1548 0.950 . S
H1540 C1550 0.950 . S
H1541 C1552 0.950 . S
H1542 C1554 0.950 . S
H1543 C1555 0.950 . S
C1544 H1536 0.950 . S
C1544 C1545 1.386 . S
C1544 C1546 1.391 . S
C1545 C1544 1.386 . S
C1545 C1549 1.393 . S
C1546 H1538 0.950 . S
C1546 C1544 1.391 . S
C1546 C1547 1.400 . S
C1547 C1546 1.400 . S
C1547 C1548 1.398 . S
C1547 C1553 1.491 . S
C1548 H1539 0.950 . S
C1548 C1547 1.398 . S
C1548 C1549 1.391 . S
C1549 H1537 0.950 . S
C1549 C1545 1.393 . S
C1549 C1548 1.391 . S
C1550 H1540 0.950 . S
C1550 C1551 1.386 . S
C1550 C1552 1.391 . S
C1551 C1550 1.386 . S
C1551 C1555 1.393 . S
C1552 H1541 0.950 . S
C1552 C1550 1.391 . S
C1552 C1553 1.400 . S
C1553 C1547 1.491 . S
C1553 C1552 1.400 . S
C1553 C1554 1.398 . S
C1554 H1542 0.950 . S
C1554 C1553 1.398 . S
C1554 C1555 1.391 . S
C1555 H1543 0.950 . S
C1555 C1551 1.393 . S
C1555 C1554 1.391 . S
H1556 C1564 0.950 . S
H1557 C1569 0.950 . S
H1558 C1566 0.950 . S
H1559 C1568 0.950 . S
H1560 C1570 0.950 . S
H1561 C1572 0.950 . S
H1562 C1574 0.950 . S
H1563 C1575 0.950 . S
C1564 H1556 0.950 . S
C1564 C1565 1.386 . S
C1564 C1566 1.391 . S
C1565 C1564 1.386 . S
C1565 C1569 1.393 . S
C1566 H1558 0.950 . S
C1566 C1564 1.391 . S
C1566 C1567 1.400 . S
C1567 C1566 1.400 . S
C1567 C1568 1.398 . S
C1567 C1573 1.491 . S
C1568 H1559 0.950 . S
C1568 C1567 1.398 . S
C1568 C1569 1.391 . S
C1569 H1557 0.950 . S
C1569 C1565 1.393 . S
C1569 C1568 1.391 . S
C1570 H1560 0.950 . S
C1570 C1571 1.386 . S
C1570 C1572 1.391 . S
C1571 C1570 1.386 . S
C1571 C1575 1.393 . S
C1572 H1561 0.950 . S
C1572 C1570 1.391 . S
C1572 C1573 1.400 . S
C1573 C1567 1.491 . S
C1573 C1572 1.400 . S
C1573 C1574 1.398 . S
C1574 H1562 0.950 . S
C1574 C1573 1.398 . S
C1574 C1575 1.391 . S
C1575 H1563 0.950 . S
C1575 C1571 1.393 . S
C1575 C1574 1.391 . S
H1576 C1584 0.950 . S
H1577 C1589 0.950 . S
H1578 C1586 0.950 . S
H1579 C1588 0.950 . S
H1580 C1590 0.950 . S
H1581 C1592 0.950 . S
H1582 C1594 0.950 . S
H1583 C1595 0.950 . S
C1584 H1576 0.950 . S
C1584 C1585 1.386 . S
C1584 C1586 1.391 . S
C1585 C1584 1.386 . S
C1585 C1589 1.393 . S
C1586 H1578 0.950 . S
C1586 C1584 1.391 . S
C1586 C1587 1.400 . S
C1587 C1586 1.400 . S
C1587 C1588 1.398 . S
C1587 C1593 1.491 . S
C1588 H1579 0.950 . S
C1588 C1587 1.398 . S
C1588 C1589 1.391 . S
C1589 H1577 0.950 . S
C1589 C1585 1.393 . S
C1589 C1588 1.391 . S
C1590 H1580 0.950 . S
C1590 C1591 1.386 . S
C1590 C1592 1.391 . S
C1591 C1590 1.386 . S
C1591 C1595 1.393 . S
C1592 H1581 0.950 . S
C1592 C1590 1.391 . S
C1592 C1593 1.400 . S
C1593 C1587 1.491 . S
C1593 C1592 1.400 . S
C1593 C1594 1.398 . S
C1594 H1582 0.950 . S
C1594 C1593 1.398 . S
C1594 C1595 1.391 . S
C1595 H1583 0.950 . S
C1595 C1591 1.393 . S
C1595 C1594 1.391 . S
H1596 C1604 0.950 . S
H1597 C1609 0.950 . S
H1598 C1606 0.950 . S
H1599 C1608 0.950 . S
H1600 C1610 0.950 . S
H1601 C1612 0.950 . S
H1602 C1614 0.950 . S
H1603 C1615 0.950 . S
C1604 H1596 0.950 . S
C1604 C1605 1.386 . S
C1604 C1606 1.391 . S
C1605 C1604 1.386 . S
C1605 C1609 1.393 . S
C1606 H1598 0.950 . S
C1606 C1604 1.391 . S
C1606 C1607 1.400 . S
C1607 C1606 1.400 . S
C1607 C1608 1.398 . S
C1607 C1613 1.491 . S
C1608 H1599 0.950 . S
C1608 C1607 1.398 . S
C1608 C1609 1.391 . S
C1609 H1597 0.950 . S
C1609 C1605 1.393 . S
C1609 C1608 1.391 . S
C1610 H1600 0.950 . S
C1610 C1611 1.386 . S
C1610 C1612 1.391 . S
C1611 C1610 1.386 . S
C1611 C1615 1.393 . S
C1612 H1601 0.950 . S
C1612 C1610 1.391 . S
C1612 C1613 1.400 . S
C1613 C1607 1.491 . S
C1613 C1612 1.400 . S
C1613 C1614 1.398 . S
C1614 H1602 0.950 . S
C1614 C1613 1.398 . S
C1614 C1615 1.391 . S
C1615 H1603 0.950 . S
C1615 C1611 1.393 . S
C1615 C1614 1.391 . S
H1616 C1624 0.950 . S
H1617 C1629 0.950 . S
H1618 C1626 0.950 . S
H1619 C1628 0.950 . S
H1620 C1630 0.950 . S
H1621 C1632 0.950 . S
H1622 C1634 0.950 . S
H1623 C1635 0.950 . S
C1624 H1616 0.950 . S
C1624 C1625 1.386 . S
C1624 C1626 1.391 . S
C1625 C1624 1.386 . S
C1625 C1629 1.393 . S
C1626 H1618 0.950 . S
C1626 C1624 1.391 . S
C1626 C1627 1.400 . S
C1627 C1626 1.400 . S
C1627 C1628 1.398 . S
C1627 C1633 1.491 . S
C1628 H1619 0.950 . S
C1628 C1627 1.398 . S
C1628 C1629 1.391 . S
C1629 H1617 0.950 . S
C1629 C1625 1.393 . S
C1629 C1628 1.391 . S
C1630 H1620 0.950 . S
C1630 C1631 1.386 . S
C1630 C1632 1.391 . S
C1631 C1630 1.386 . S
C1631 C1635 1.393 . S
C1632 H1621 0.950 . S
C1632 C1630 1.391 . S
C1632 C1633 1.400 . S
C1633 C1627 1.491 . S
C1633 C1632 1.400 . S
C1633 C1634 1.398 . S
C1634 H1622 0.950 . S
C1634 C1633 1.398 . S
C1634 C1635 1.391 . S
C1635 H1623 0.950 . S
C1635 C1631 1.393 . S
C1635 C1634 1.391 . S
H1636 C1644 0.950 . S
H1637 C1649 0.950 . S
H1638 C1646 0.950 . S
H1639 C1648 0.950 . S
H1640 C1650 0.950 . S
H1641 C1652 0.950 . S
H1642 C1654 0.950 . S
H1643 C1655 0.950 . S
C1644 H1636 0.950 . S
C1644 C1645 1.386 . S
C1644 C1646 1.391 . S
C1645 C1644 1.386 . S
C1645 C1649 1.393 . S
C1646 H1638 0.950 . S
C1646 C1644 1.391 . S
C1646 C1647 1.400 . S
C1647 C1646 1.400 . S
C1647 C1648 1.398 . S
C1647 C1653 1.491 . S
C1648 H1639 0.950 . S
C1648 C1647 1.398 . S
C1648 C1649 1.391 . S
C1649 H1637 0.950 . S
C1649 C1645 1.393 . S
C1649 C1648 1.391 . S
C1650 H1640 0.950 . S
C1650 C1651 1.386 . S
C1650 C1652 1.391 . S
C1651 C1650 1.386 . S
C1651 C1655 1.393 . S
C1652 H1641 0.950 . S
C1652 C1650 1.391 . S
C1652 C1653 1.400 . S
C1653 C1647 1.491 . S
C1653 C1652 1.400 . S
C1653 C1654 1.398 . S
C1654 H1642 0.950 . S
C1654 C1653 1.398 . S
C1654 C1655 1.391 . S
C1655 H1643 0.950 . S
C1655 C1651 1.393 . S
C1655 C1654 1.391 . S
H1656 C1664 0.950 . S
H1657 C1669 0.950 . S
H1658 C1666 0.950 . S
H1659 C1668 0.950 . S
H1660 C1670 0.950 . S
H1661 C1672 0.950 . S
H1662 C1674 0.950 . S
H1663 C1675 0.950 . S
C1664 H1656 0.950 . S
C1664 C1665 1.386 . S
C1664 C1666 1.391 . S
C1665 C1664 1.386 . S
C1665 C1669 1.393 . S
C1666 H1658 0.950 . S
C1666 C1664 1.391 . S
C1666 C1667 1.400 . S
C1667 C1666 1.400 . S
C1667 C1668 1.398 . S
C1667 C1673 1.491 . S
C1668 H1659 0.950 . S
C1668 C1667 1.398 . S
C1668 C1669 1.391 . S
C1669 H1657 0.950 . S
C1669 C1665 1.393 . S
C1669 C1668 1.391 . S
C1670 H1660 0.950 . S
C1670 C1671 1.386 . S
C1670 C1672 1.391 . S
C1671 C1670 1.386 . S
C1671 C1675 1.393 . S
C1672 H1661 0.950 . S
C1672 C1670 1.391 . S
C1672 C1673 1.400 . S
C1673 C1667 1.491 . S
C1673 C1672 1.400 . S
C1673 C1674 1.398 . S
C1674 H1662 0.950 . S
C1674 C1673 1.398 . S
C1674 C1675 1.391 . S
C1675 H1663 0.950 . S
C1675 C1671 1.393 . S
C1675 C1674 1.391 . S
H1676 C1684 0.950 . S
H1677 C1689 0.950 . S
H1678 C1686 0.950 . S
H1679 C1688 0.950 . S
H1680 C1690 0.950 . S
H1681 C1692 0.950 . S
H1682 C1694 0.950 . S
H1683 C1695 0.950 . S
C1684 H1676 0.950 . S
C1684 C1685 1.386 . S
C1684 C1686 1.391 . S
C1685 C1684 1.386 . S
C1685 C1689 1.393 . S
C1686 H1678 0.950 . S
C1686 C1684 1.391 . S
C1686 C1687 1.400 . S
C1687 C1686 1.400 . S
C1687 C1688 1.398 . S
C1687 C1693 1.491 . S
C1688 H1679 0.950 . S
C1688 C1687 1.398 . S
C1688 C1689 1.391 . S
C1689 H1677 0.950 . S
C1689 C1685 1.393 . S
C1689 C1688 1.391 . S
C1690 H1680 0.950 . S
C1690 C1691 1.386 . S
C1690 C1692 1.391 . S
C1691 C1690 1.386 . S
C1691 C1695 1.393 . S
C1692 H1681 0.950 . S
C1692 C1690 1.391 . S
C1692 C1693 1.400 . S
C1693 C1687 1.491 . S
C1693 C1692 1.400 . S
C1693 C1694 1.398 . S
C1694 H1682 0.950 . S
C1694 C1693 1.398 . S
C1694 C1695 1.391 . S
C1695 H1683 0.950 . S
C1695 C1691 1.393 . S
C1695 C1694 1.391 . S
H1696 C1704 0.950 . S
H1697 C1709 0.950 . S
H1698 C1706 0.950 . S
H1699 C1708 0.950 . S
H1700 C1710 0.950 . S
H1701 C1712 0.950 . S
H1702 C1714 0.950 . S
H1703 C1715 0.950 . S
C1704 H1696 0.950 . S
C1704 C1705 1.386 . S
C1704 C1706 1.391 . S
C1705 C1704 1.386 . S
C1705 C1709 1.393 . S
C1706 H1698 0.950 . S
C1706 C1704 1.391 . S
C1706 C1707 1.400 . S
C1707 C1706 1.400 . S
C1707 C1708 1.398 . S
C1707 C1713 1.491 . S
C1708 H1699 0.950 . S
C1708 C1707 1.398 . S
C1708 C1709 1.391 . S
C1709 H1697 0.950 . S
C1709 C1705 1.393 . S
C1709 C1708 1.391 . S
C1710 H1700 0.950 . S
C1710 C1711 1.386 . S
C1710 C1712 1.391 . S
C1711 C1710 1.386 . S
C1711 C1715 1.393 . S
C1712 H1701 0.950 . S
C1712 C1710 1.391 . S
C1712 C1713 1.400 . S
C1713 C1707 1.491 . S
C1713 C1712 1.400 . S
C1713 C1714 1.398 . S
C1714 H1702 0.950 . S
C1714 C1713 1.398 . S
C1714 C1715 1.391 . S
C1715 H1703 0.950 . S
C1715 C1711 1.393 . S
C1715 C1714 1.391 . S
H1716 C1724 0.950 . S
H1717 C1729 0.950 . S
H1718 C1726 0.950 . S
H1719 C1728 0.950 . S
H1720 C1730 0.950 . S
H1721 C1732 0.950 . S
H1722 C1734 0.950 . S
H1723 C1735 0.950 . S
C1724 H1716 0.950 . S
C1724 C1725 1.386 . S
C1724 C1726 1.391 . S
C1725 C1724 1.386 . S
C1725 C1729 1.393 . S
C1726 H1718 0.950 . S
C1726 C1724 1.391 . S
C1726 C1727 1.400 . S
C1727 C1726 1.400 . S
C1727 C1728 1.398 . S
C1727 C1733 1.491 . S
C1728 H1719 0.950 . S
C1728 C1727 1.398 . S
C1728 C1729 1.391 . S
C1729 H1717 0.950 . S
C1729 C1725 1.393 . S
C1729 C1728 1.391 . S
C1730 H1720 0.950 . S
C1730 C1731 1.386 . S
C1730 C1732 1.391 . S
C1731 C1730 1.386 . S
C1731 C1735 1.393 . S
C1732 H1721 0.950 . S
C1732 C1730 1.391 . S
C1732 C1733 1.400 . S
C1733 C1727 1.491 . S
C1733 C1732 1.400 . S
C1733 C1734 1.398 . S
C1734 H1722 0.950 . S
C1734 C1733 1.398 . S
C1734 C1735 1.391 . S
C1735 H1723 0.950 . S
C1735 C1731 1.393 . S
C1735 C1734 1.391 . S
H1736 C1744 0.950 . S
H1737 C1749 0.950 . S
H1738 C1746 0.950 . S
H1739 C1748 0.950 . S
H1740 C1750 0.950 . S
H1741 C1752 0.950 . S
H1742 C1754 0.950 . S
H1743 C1755 0.950 . S
C1744 H1736 0.950 . S
C1744 C1745 1.386 . S
C1744 C1746 1.391 . S
C1745 C1744 1.386 . S
C1745 C1749 1.393 . S
C1746 H1738 0.950 . S
C1746 C1744 1.391 . S
C1746 C1747 1.400 . S
C1747 C1746 1.400 . S
C1747 C1748 1.398 . S
C1747 C1753 1.491 . S
C1748 H1739 0.950 . S
C1748 C1747 1.398 . S
C1748 C1749 1.391 . S
C1749 H1737 0.950 . S
C1749 C1745 1.393 . S
C1749 C1748 1.391 . S
C1750 H1740 0.950 . S
C1750 C1751 1.386 . S
C1750 C1752 1.391 . S
C1751 C1750 1.386 . S
C1751 C1755 1.393 . S
C1752 H1741 0.950 . S
C1752 C1750 1.391 . S
C1752 C1753 1.400 . S
C1753 C1747 1.491 . S
C1753 C1752 1.400 . S
C1753 C1754 1.398 . S
C1754 H1742 0.950 . S
C1754 C1753 1.398 . S
C1754 C1755 1.391 . S
C1755 H1743 0.950 . S
C1755 C1751 1.393 . S
C1755 C1754 1.391 . S
H1756 C1764 0.950 . S
H1757 C1769 0.950 . S
H1758 C1766 0.950 . S
H1759 C1768 0.950 . S
H1760 C1770 0.950 . S
H1761 C1772 0.950 . S
H1762 C1774 0.950 . S
H1763 C1775 0.950 . S
C1764 H1756 0.950 . S
C1764 C1765 1.386 . S
C1764 C1766 1.391 . S
C1765 C1764 1.386 . S
C1765 C1769 1.393 . S
C1766 H1758 0.950 . S
C1766 C1764 1.391 . S
C1766 C1767 1.400 . S
C1767 C1766 1.400 . S
C1767 C1768 1.398 . S
C1767 C1773 1.491 . S
C1768 H1759 0.950 . S
C1768 C1767 1.398 . S
C1768 C1769 1.391 . S
C1769 H1757 0.950 . S
C1769 C1765 1.393 . S
C1769 C1768 1.391 . S
C1770 H1760 0.950 . S
C1770 C1771 1.386 . S
C1770 C1772 1.391 . S
C1771 C1770 1.386 . S
C1771 C1775 1.393 . S
C1772 H1761 0.950 . S
C1772 C1770 1.391 . S
C1772 C1773 1.400 . S
C1773 C1767 1.491 . S
C1773 C1772 1.400 . S
C1773 C1774 1.398 . S
C1774 H1762 0.950 . S
C1774 C1773 1.398 . S
C1774 C1775 1.391 . S
C1775 H1763 0.950 . S
C1775 C1771 1.393 . S
C1775 C1774 1.391 . S
H1776 C1784 0.950 . S
H1777 C1789 0.950 . S
H1778 C1786 0.950 . S
H1779 C1788 0.950 . S
H1780 C1790 0.950 . S
H1781 C1792 0.950 . S
H1782 C1794 0.950 . S
H1783 C1795 0.950 . S
C1784 H1776 0.950 . S
C1784 C1785 1.386 . S
C1784 C1786 1.391 . S
C1785 C1784 1.386 . S
C1785 C1789 1.393 . S
C1786 H1778 0.950 . S
C1786 C1784 1.391 . S
C1786 C1787 1.400 . S
C1787 C1786 1.400 . S
C1787 C1788 1.398 . S
C1787 C1793 1.491 . S
C1788 H1779 0.950 . S
C1788 C1787 1.398 . S
C1788 C1789 1.391 . S
C1789 H1777 0.950 . S
C1789 C1785 1.393 . S
C1789 C1788 1.391 . S
C1790 H1780 0.950 . S
C1790 C1791 1.386 . S
C1790 C1792 1.391 . S
C1791 C1790 1.386 . S
C1791 C1795 1.393 . S
C1792 H1781 0.950 . S
C1792 C1790 1.391 . S
C1792 C1793 1.400 . S
C1793 C1787 1.491 . S
C1793 C1792 1.400 . S
C1793 C1794 1.398 . S
C1794 H1782 0.950 . S
C1794 C1793 1.398 . S
C1794 C1795 1.391 . S
C1795 H1783 0.950 . S
C1795 C1791 1.393 . S
C1795 C1794 1.391 . S
H1796 C1804 0.950 . S
H1797 C1809 0.950 . S
H1798 C1806 0.950 . S
H1799 C1808 0.950 . S
H1800 C1810 0.950 . S
H1801 C1812 0.950 . S
H1802 C1814 0.950 . S
H1803 C1815 0.950 . S
C1804 H1796 0.950 . S
C1804 C1805 1.386 . S
C1804 C1806 1.391 . S
C1805 C1804 1.386 . S
C1805 C1809 1.393 . S
C1806 H1798 0.950 . S
C1806 C1804 1.391 . S
C1806 C1807 1.400 . S
C1807 C1806 1.400 . S
C1807 C1808 1.398 . S
C1807 C1813 1.491 . S
C1808 H1799 0.950 . S
C1808 C1807 1.398 . S
C1808 C1809 1.391 . S
C1809 H1797 0.950 . S
C1809 C1805 1.393 . S
C1809 C1808 1.391 . S
C1810 H1800 0.950 . S
C1810 C1811 1.386 . S
C1810 C1812 1.391 . S
C1811 C1810 1.386 . S
C1811 C1815 1.393 . S
C1812 H1801 0.950 . S
C1812 C1810 1.391 . S
C1812 C1813 1.400 . S
C1813 C1807 1.491 . S
C1813 C1812 1.400 . S
C1813 C1814 1.398 . S
C1814 H1802 0.950 . S
C1814 C1813 1.398 . S
C1814 C1815 1.391 . S
C1815 H1803 0.950 . S
C1815 C1811 1.393 . S
C1815 C1814 1.391 . S
H1816 C1824 0.950 . S
H1817 C1829 0.950 . S
H1818 C1826 0.950 . S
H1819 C1828 0.950 . S
H1820 C1830 0.950 . S
H1821 C1832 0.950 . S
H1822 C1834 0.950 . S
H1823 C1835 0.950 . S
C1824 H1816 0.950 . S
C1824 C1825 1.386 . S
C1824 C1826 1.391 . S
C1825 C1824 1.386 . S
C1825 C1829 1.393 . S
C1826 H1818 0.950 . S
C1826 C1824 1.391 . S
C1826 C1827 1.400 . S
C1827 C1826 1.400 . S
C1827 C1828 1.398 . S
C1827 C1833 1.491 . S
C1828 H1819 0.950 . S
C1828 C1827 1.398 . S
C1828 C1829 1.391 . S
C1829 H1817 0.950 . S
C1829 C1825 1.393 . S
C1829 C1828 1.391 . S
C1830 H1820 0.950 . S
C1830 C1831 1.386 . S
C1830 C1832 1.391 . S
C1831 C1830 1.386 . S
C1831 C1835 1.393 . S
C1832 H1821 0.950 . S
C1832 C1830 1.391 . S
C1832 C1833 1.400 . S
C1833 C1827 1.491 . S
C1833 C1832 1.400 . S
C1833 C1834 1.398 . S
C1834 H1822 0.950 . S
C1834 C1833 1.398 . S
C1834 C1835 1.391 . S
C1835 H1823 0.950 . S
C1835 C1831 1.393 . S
C1835 C1834 1.391 . S
H1836 C1844 0.950 . S
H1837 C1849 0.950 . S
H1838 C1846 0.950 . S
H1839 C1848 0.950 . S
H1840 C1850 0.950 . S
H1841 C1852 0.950 . S
H1842 C1854 0.950 . S
H1843 C1855 0.950 . S
C1844 H1836 0.950 . S
C1844 C1845 1.386 . S
C1844 C1846 1.391 . S
C1845 C1844 1.386 . S
C1845 C1849 1.393 . S
C1846 H1838 0.950 . S
C1846 C1844 1.391 . S
C1846 C1847 1.400 . S
C1847 C1846 1.400 . S
C1847 C1848 1.398 . S
C1847 C1853 1.491 . S
C1848 H1839 0.950 . S
C1848 C1847 1.398 . S
C1848 C1849 1.391 . S
C1849 H1837 0.950 . S
C1849 C1845 1.393 . S
C1849 C1848 1.391 . S
C1850 H1840 0.950 . S
C1850 C1851 1.386 . S
C1850 C1852 1.391 . S
C1851 C1850 1.386 . S
C1851 C1855 1.393 . S
C1852 H1841 0.950 . S
C1852 C1850 1.391 . S
C1852 C1853 1.400 . S
C1853 C1847 1.491 . S
C1853 C1852 1.400 . S
C1853 C1854 1.398 . S
C1854 H1842 0.950 . S
C1854 C1853 1.398 . S
C1854 C1855 1.391 . S
C1855 H1843 0.950 . S
C1855 C1851 1.393 . S
C1855 C1854 1.391 . S
H1856 C1864 0.950 . S
H1857 C1869 0.950 . S
H1858 C1866 0.950 . S
H1859 C1868 0.950 . S
H1860 C1870 0.950 . S
H1861 C1872 0.950 . S
H1862 C1874 0.950 . S
H1863 C1875 0.950 . S
C1864 H1856 0.950 . S
C1864 C1865 1.386 . S
C1864 C1866 1.391 . S
C1865 C1864 1.386 . S
C1865 C1869 1.393 . S
C1866 H1858 0.950 . S
C1866 C1864 1.391 . S
C1866 C1867 1.400 . S
C1867 C1866 1.400 . S
C1867 C1868 1.398 . S
C1867 C1873 1.491 . S
C1868 H1859 0.950 . S
C1868 C1867 1.398 . S
C1868 C1869 1.391 . S
C1869 H1857 0.950 . S
C1869 C1865 1.393 . S
C1869 C1868 1.391 . S
C1870 H1860 0.950 . S
C1870 C1871 1.386 . S
C1870 C1872 1.391 . S
C1871 C1870 1.386 . S
C1871 C1875 1.393 . S
C1872 H1861 0.950 . S
C1872 C1870 1.391 . S
C1872 C1873 1.400 . S
C1873 C1867 1.491 . S
C1873 C1872 1.400 . S
C1873 C1874 1.398 . S
C1874 H1862 0.950 . S
C1874 C1873 1.398 . S
C1874 C1875 1.391 . S
C1875 H1863 0.950 . S
C1875 C1871 1.393 . S
C1875 C1874 1.391 . S
H1876 C1884 0.950 . S
H1877 C1889 0.950 . S
H1878 C1886 0.950 . S
H1879 C1888 0.950 . S
H1880 C1890 0.950 . S
H1881 C1892 0.950 . S
H1882 C1894 0.950 . S
H1883 C1895 0.950 . S
C1884 H1876 0.950 . S
C1884 C1885 1.386 . S
C1884 C1886 1.391 . S
C1885 C1884 1.386 . S
C1885 C1889 1.393 . S
C1886 H1878 0.950 . S
C1886 C1884 1.391 . S
C1886 C1887 1.400 . S
C1887 C1886 1.400 . S
C1887 C1888 1.398 . S
C1887 C1893 1.491 . S
C1888 H1879 0.950 . S
C1888 C1887 1.398 . S
C1888 C1889 1.391 . S
C1889 H1877 0.950 . S
C1889 C1885 1.393 . S
C1889 C1888 1.391 . S
C1890 H1880 0.950 . S
C1890 C1891 1.386 . S
C1890 C1892 1.391 . S
C1891 C1890 1.386 . S
C1891 C1895 1.393 . S
C1892 H1881 0.950 . S
C1892 C1890 1.391 . S
C1892 C1893 1.400 . S
C1893 C1887 1.491 . S
C1893 C1892 1.400 . S
C1893 C1894 1.398 . S
C1894 H1882 0.950 . S
C1894 C1893 1.398 . S
C1894 C1895 1.391 . S
C1895 H1883 0.950 . S
C1895 C1891 1.393 . S
C1895 C1894 1.391 . S
H1896 C1904 0.950 . S
H1897 C1909 0.950 . S
H1898 C1906 0.950 . S
H1899 C1908 0.950 . S
H1900 C1910 0.950 . S
H1901 C1912 0.950 . S
H1902 C1914 0.950 . S
H1903 C1915 0.950 . S
C1904 H1896 0.950 . S
C1904 C1905 1.386 . S
C1904 C1906 1.391 . S
C1905 C1904 1.386 . S
C1905 C1909 1.393 . S
C1906 H1898 0.950 . S
C1906 C1904 1.391 . S
C1906 C1907 1.400 . S
C1907 C1906 1.400 . S
C1907 C1908 1.398 . S
C1907 C1913 1.491 . S
C1908 H1899 0.950 . S
C1908 C1907 1.398 . S
C1908 C1909 1.391 . S
C1909 H1897 0.950 . S
C1909 C1905 1.393 . S
C1909 C1908 1.391 . S
C1910 H1900 0.950 . S
C1910 C1911 1.386 . S
C1910 C1912 1.391 . S
C1911 C1910 1.386 . S
C1911 C1915 1.393 . S
C1912 H1901 0.950 . S
C1912 C1910 1.391 . S
C1912 C1913 1.400 . S
C1913 C1907 1.491 . S
C1913 C1912 1.400 . S
C1913 C1914 1.398 . S
C1914 H1902 0.950 . S
C1914 C1913 1.398 . S
C1914 C1915 1.391 . S
C1915 H1903 0.950 . S
C1915 C1911 1.393 . S
C1915 C1914 1.391 . S
H1916 C1924 0.950 . S
H1917 C1929 0.950 . S
H1918 C1926 0.950 . S
H1919 C1928 0.950 . S
H1920 C1930 0.950 . S
H1921 C1932 0.950 . S
H1922 C1934 0.950 . S
H1923 C1935 0.950 . S
C1924 H1916 0.950 . S
C1924 C1925 1.386 . S
C1924 C1926 1.391 . S
C1925 C1924 1.386 . S
C1925 C1929 1.393 . S
C1926 H1918 0.950 . S
C1926 C1924 1.391 . S
C1926 C1927 1.400 . S
C1927 C1926 1.400 . S
C1927 C1928 1.398 . S
C1927 C1933 1.491 . S
C1928 H1919 0.950 . S
C1928 C1927 1.398 . S
C1928 C1929 1.391 . S
C1929 H1917 0.950 . S
C1929 C1925 1.393 . S
C1929 C1928 1.391 . S
C1930 H1920 0.950 . S
C1930 C1931 1.386 . S
C1930 C1932 1.391 . S
C1931 C1930 1.386 . S
C1931 C1935 1.393 . S
C1932 H1921 0.950 . S
C1932 C1930 1.391 . S
C1932 C1933 1.400 . S
C1933 C1927 1.491 . S
C1933 C1932 1.400 . S
C1933 C1934 1.398 . S
C1934 H1922 0.950 . S
C1934 C1933 1.398 . S
C1934 C1935 1.391 . S
C1935 H1923 0.950 . S
C1935 C1931 1.393 . S
C1935 C1934 1.391 . S
H1936 C1944 0.950 . S
H1937 C1949 0.950 . S
H1938 C1946 0.950 . S
H1939 C1948 0.950 . S
H1940 C1950 0.950 . S
H1941 C1952 0.950 . S
H1942 C1954 0.950 . S
H1943 C1955 0.950 . S
C1944 H1936 0.950 . S
C1944 C1945 1.386 . S
C1944 C1946 1.391 . S
C1945 C1944 1.386 . S
C1945 C1949 1.393 . S
C1946 H1938 0.950 . S
C1946 C1944 1.391 . S
C1946 C1947 1.400 . S
C1947 C1946 1.400 . S
C1947 C1948 1.398 . S
C1947 C1953 1.491 . S
C1948 H1939 0.950 . S
C1948 C1947 1.398 . S
C1948 C1949 1.391 . S
C1949 H1937 0.950 . S
C1949 C1945 1.393 . S
C1949 C1948 1.391 . S
C1950 H1940 0.950 . S
C1950 C1951 1.386 . S
C1950 C1952 1.391 . S
C1951 C1950 1.386 . S
C1951 C1955 1.393 . S
C1952 H1941 0.950 . S
C1952 C1950 1.391 . S
C1952 C1953 1.400 . S
C1953 C1947 1.491 . S
C1953 C1952 1.400 . S
C1953 C1954 1.398 . S
C1954 H1942 0.950 . S
C1954 C1953 1.398 . S
C1954 C1955 1.391 . S
C1955 H1943 0.950 . S
C1955 C1951 1.393 . S
C1955 C1954 1.391 . S
H1956 C1964 0.950 . S
H1957 C1969 0.950 . S
H1958 C1966 0.950 . S
H1959 C1968 0.950 . S
H1960 C1970 0.950 . S
H1961 C1972 0.950 . S
H1962 C1974 0.950 . S
H1963 C1975 0.950 . S
C1964 H1956 0.950 . S
C1964 C1965 1.386 . S
C1964 C1966 1.391 . S
C1965 C1964 1.386 . S
C1965 C1969 1.393 . S
C1966 H1958 0.950 . S
C1966 C1964 1.391 . S
C1966 C1967 1.400 . S
C1967 C1966 1.400 . S
C1967 C1968 1.398 . S
C1967 C1973 1.491 . S
C1968 H1959 0.950 . S
C1968 C1967 1.398 . S
C1968 C1969 1.391 . S
C1969 H1957 0.950 . S
C1969 C1965 1.393 . S
C1969 C1968 1.391 . S
C1970 H1960 0.950 . S
C1970 C1971 1.386 . S
C1970 C1972 1.391 . S
C1971 C1970 1.386 . S
C1971 C1975 1.393 . S
C1972 H1961 0.950 . S
C1972 C1970 1.391 . S
C1972 C1973 1.400 . S
C1973 C1967 1.491 . S
C1973 C1972 1.400 . S
C1973 C1974 1.398 . S
C1974 H1962 0.950 . S
C1974 C1973 1.398 . S
C1974 C1975 1.391 . S
C1975 H1963 0.950 . S
C1975 C1971 1.393 . S
C1975 C1974 1.391 . S
H1976 C1984 0.950 . S
H1977 C1989 0.950 . S
H1978 C1986 0.950 . S
H1979 C1988 0.950 . S
H1980 C1990 0.950 . S
H1981 C1992 0.950 . S
H1982 C1994 0.950 . S
H1983 C1995 0.950 . S
C1984 H1976 0.950 . S
C1984 C1985 1.386 . S
C1984 C1986 1.391 . S
C1985 C1984 1.386 . S
C1985 C1989 1.393 . S
C1986 H1978 0.950 . S
C1986 C1984 1.391 . S
C1986 C1987 1.400 . S
C1987 C1986 1.400 . S
C1987 C1988 1.398 . S
C1987 C1993 1.491 . S
C1988 H1979 0.950 . S
C1988 C1987 1.398 . S
C1988 C1989 1.391 . S
C1989 H1977 0.950 . S
C1989 C1985 1.393 . S
C1989 C1988 1.391 . S
C1990 H1980 0.950 . S
C1990 C1991 1.386 . S
C1990 C1992 1.391 . S
C1991 C1990 1.386 . S
C1991 C1995 1.393 . S
C1992 H1981 0.950 . S
C1992 C1990 1.391 . S
C1992 C1993 1.400 . S
C1993 C1987 1.491 . S
C1993 C1992 1.400 . S
C1993 C1994 1.398 . S
C1994 H1982 0.950 . S
C1994 C1993 1.398 . S
C1994 C1995 1.391 . S
C1995 H1983 0.950 . S
C1995 C1991 1.393 . S
C1995 C1994 1.391 . S
H1996 C2004 0.950 . S
H1997 C2009 0.950 . S
H1998 C2006 0.950 . S
H1999 C2008 0.950 . S
H2000 C2010 0.950 . S
H2001 C2012 0.950 . S
H2002 C2014 0.950 . S
H2003 C2015 0.950 . S
C2004 H1996 0.950 . S
C2004 C2005 1.386 . S
C2004 C2006 1.391 . S
C2005 C2004 1.386 . S
C2005 C2009 1.393 . S
C2006 H1998 0.950 . S
C2006 C2004 1.391 . S
C2006 C2007 1.400 . S
C2007 C2006 1.400 . S
C2007 C2008 1.398 . S
C2007 C2013 1.491 . S
C2008 H1999 0.950 . S
C2008 C2007 1.398 . S
C2008 C2009 1.391 . S
C2009 H1997 0.950 . S
C2009 C2005 1.393 . S
C2009 C2008 1.391 . S
C2010 H2000 0.950 . S
C2010 C2011 1.386 . S
C2010 C2012 1.391 . S
C2011 C2010 1.386 . S
C2011 C2015 1.393 . S
C2012 H2001 0.950 . S
C2012 C2010 1.391 . S
C2012 C2013 1.400 . S
C2013 C2007 1.491 . S
C2013 C2012 1.400 . S
C2013 C2014 1.398 . S
C2014 H2002 0.950 . S
C2014 C2013 1.398 . S
C2014 C2015 1.391 . S
C2015 H2003 0.950 . S
C2015 C2011 1.393 . S
C2015 C2014 1.391 . S
H2016 C2024 0.950 . S
H2017 C2029 0.950 . S
H2018 C2026 0.950 . S
H2019 C2028 0.950 . S
H2020 C2030 0.950 . S
H2021 C2032 0.950 . S
H2022 C2034 0.950 . S
H2023 C2035 0.950 . S
C2024 H2016 0.950 . S
C2024 C2025 1.386 . S
C2024 C2026 1.391 . S
C2025 C2024 1.386 . S
C2025 C2029 1.393 . S
C2026 H2018 0.950 . S
C2026 C2024 1.391 . S
C2026 C2027 1.400 . S
C2027 C2026 1.400 . S
C2027 C2028 1.398 . S
C2027 C2033 1.491 1_554 S
C2028 H2019 0.950 . S
C2028 C2027 1.398 . S
C2028 C2029 1.391 . S
C2029 H2017 0.950 . S
C2029 C2025 1.393 . S
C2029 C2028 1.391 . S
C2030 H2020 0.950 . S
C2030 C2031 1.386 . S
C2030 C2032 1.391 . S
C2031 C2030 1.386 . S
C2031 C2035 1.393 . S
C2032 H2021 0.950 . S
C2032 C2030 1.391 . S
C2032 C2033 1.400 . S
C2033 C2027 1.491 1_556 S
C2033 C2032 1.400 . S
C2033 C2034 1.398 . S
C2034 H2022 0.950 . S
C2034 C2033 1.398 . S
C2034 C2035 1.391 . S
C2035 H2023 0.950 . S
C2035 C2031 1.393 . S
C2035 C2034 1.391 . S
H2036 C2044 0.950 . S
H2037 C2049 0.950 . S
H2038 C2046 0.950 . S
H2039 C2048 0.950 . S
H2040 C2050 0.950 . S
H2041 C2052 0.950 . S
H2042 C2054 0.950 . S
H2043 C2055 0.950 . S
C2044 H2036 0.950 . S
C2044 C2045 1.386 . S
C2044 C2046 1.391 . S
C2045 C2044 1.386 . S
C2045 C2049 1.393 1_565 S
C2046 H2038 0.950 . S
C2046 C2044 1.391 . S
C2046 C2047 1.400 . S
C2047 C2046 1.400 . S
C2047 C2048 1.398 1_565 S
C2047 C2053 1.491 1_565 S
C2048 H2039 0.950 . S
C2048 C2047 1.398 1_545 S
C2048 C2049 1.391 . S
C2049 H2037 0.950 . S
C2049 C2045 1.393 1_545 S
C2049 C2048 1.391 . S
C2050 H2040 0.950 . S
C2050 C2051 1.386 . S
C2050 C2052 1.391 . S
C2051 C2050 1.386 . S
C2051 C2055 1.393 1_545 S
C2052 H2041 0.950 . S
C2052 C2050 1.391 . S
C2052 C2053 1.400 . S
C2053 C2047 1.491 1_545 S
C2053 C2052 1.400 . S
C2053 C2054 1.398 1_545 S
C2054 H2042 0.950 . S
C2054 C2053 1.398 1_565 S
C2054 C2055 1.391 . S
C2055 H2043 0.950 . S
C2055 C2051 1.393 1_565 S
C2055 C2054 1.391 . S
H2056 C2064 0.950 . S
H2057 C2069 0.950 . S
H2058 C2066 0.950 . S
H2059 C2068 0.950 . S
H2060 C2070 0.950 . S
H2061 C2072 0.950 . S
H2062 C2074 0.950 . S
H2063 C2075 0.950 . S
C2064 H2056 0.950 . S
C2064 C2065 1.386 . S
C2064 C2066 1.391 . S
C2065 C2064 1.386 . S
C2065 C2069 1.393 . S
C2066 H2058 0.950 . S
C2066 C2064 1.391 . S
C2066 C2067 1.400 . S
C2067 C2066 1.400 . S
C2067 C2068 1.398 . S
C2067 C2073 1.491 . S
C2068 H2059 0.950 . S
C2068 C2067 1.398 . S
C2068 C2069 1.391 . S
C2069 H2057 0.950 . S
C2069 C2065 1.393 . S
C2069 C2068 1.391 . S
C2070 H2060 0.950 . S
C2070 C2071 1.386 . S
C2070 C2072 1.391 . S
C2071 C2070 1.386 . S
C2071 C2075 1.393 . S
C2072 H2061 0.950 . S
C2072 C2070 1.391 . S
C2072 C2073 1.400 . S
C2073 C2067 1.491 . S
C2073 C2072 1.400 . S
C2073 C2074 1.398 . S
C2074 H2062 0.950 . S
C2074 C2073 1.398 . S
C2074 C2075 1.391 . S
C2075 H2063 0.950 . S
C2075 C2071 1.393 . S
C2075 C2074 1.391 . S
H2076 C2084 0.950 . S
H2077 C2089 0.943 1_545 S
H2078 C2086 0.950 . S
H2079 C2088 0.950 . S
H2080 C2090 0.950 . S
H2081 C2092 0.950 . S
H2082 C2094 0.950 . S
H2083 C2095 0.943 1_565 S
C2084 H2076 0.950 . S
C2084 C2085 1.386 . S
C2084 C2086 1.391 . S
C2085 C2084 1.386 . S
C2085 C2089 1.393 . S
C2086 H2078 0.950 . S
C2086 C2084 1.391 . S
C2086 C2087 1.400 . S
C2087 C2086 1.400 . S
C2087 C2088 1.398 1_565 S
C2087 C2093 1.491 1_565 S
C2088 H2079 0.950 . S
C2088 C2087 1.398 1_545 S
C2088 C2089 1.391 1_545 S
C2089 H2077 0.943 1_565 S
C2089 C2085 1.393 . S
C2089 C2088 1.391 1_565 S
C2090 H2080 0.950 . S
C2090 C2091 1.386 . S
C2090 C2092 1.391 . S
C2091 C2090 1.386 . S
C2091 C2095 1.393 . S
C2092 H2081 0.950 . S
C2092 C2090 1.391 . S
C2092 C2093 1.400 . S
C2093 C2087 1.491 1_545 S
C2093 C2092 1.400 . S
C2093 C2094 1.398 1_545 S
C2094 H2082 0.950 . S
C2094 C2093 1.398 1_565 S
C2094 C2095 1.391 1_565 S
C2095 H2083 0.943 1_545 S
C2095 C2091 1.393 . S
C2095 C2094 1.391 1_545 S
H2096 C2104 0.950 . S
H2097 C2109 0.950 . S
H2098 C2106 0.950 . S
H2099 C2108 0.950 . S
H2100 C2110 0.950 . S
H2101 C2112 0.950 . S
H2102 C2114 0.950 . S
H2103 C2115 0.950 . S
C2104 H2096 0.950 . S
C2104 C2105 1.386 . S
C2104 C2106 1.391 . S
C2105 C2104 1.386 . S
C2105 C2109 1.393 . S
C2106 H2098 0.950 . S
C2106 C2104 1.391 . S
C2106 C2107 1.400 . S
C2107 C2106 1.400 . S
C2107 C2108 1.398 . S
C2107 C2113 1.491 1_554 S
C2108 H2099 0.950 . S
C2108 C2107 1.398 . S
C2108 C2109 1.391 . S
C2109 H2097 0.950 . S
C2109 C2105 1.393 . S
C2109 C2108 1.391 . S
C2110 H2100 0.950 . S
C2110 C2111 1.386 . S
C2110 C2112 1.391 . S
C2111 C2110 1.386 . S
C2111 C2115 1.393 . S
C2112 H2101 0.950 . S
C2112 C2110 1.391 . S
C2112 C2113 1.400 . S
C2113 C2107 1.491 1_556 S
C2113 C2112 1.400 . S
C2113 C2114 1.398 . S
C2114 H2102 0.950 . S
C2114 C2113 1.398 . S
C2114 C2115 1.391 . S
C2115 H2103 0.950 . S
C2115 C2111 1.393 . S
C2115 C2114 1.391 . S
H2116 C2124 0.950 . S
H2117 C2129 0.950 . S
H2118 C2126 0.950 . S
H2119 C2128 0.950 . S
H2120 C2130 0.950 . S
H2121 C2132 0.950 . S
H2122 C2134 0.950 . S
H2123 C2135 0.950 . S
C2124 H2116 0.950 . S
C2124 C2125 1.386 . S
C2124 C2126 1.391 . S
C2125 C2124 1.386 . S
C2125 C2129 1.393 . S
C2126 H2118 0.950 . S
C2126 C2124 1.391 . S
C2126 C2127 1.400 . S
C2127 C2126 1.400 . S
C2127 C2128 1.398 1_545 S
C2127 C2133 1.491 1_545 S
C2128 H2119 0.950 . S
C2128 C2127 1.398 1_565 S
C2128 C2129 1.391 1_565 S
C2129 H2117 0.950 . S
C2129 C2125 1.393 . S
C2129 C2128 1.391 1_545 S
C2130 H2120 0.950 . S
C2130 C2131 1.386 . S
C2130 C2132 1.391 . S
C2131 C2130 1.386 . S
C2131 C2135 1.393 . S
C2132 H2121 0.950 . S
C2132 C2130 1.391 . S
C2132 C2133 1.400 . S
C2133 C2127 1.491 1_565 S
C2133 C2132 1.400 . S
C2133 C2134 1.398 1_565 S
C2134 H2122 0.950 . S
C2134 C2133 1.398 1_545 S
C2134 C2135 1.391 1_545 S
C2135 H2123 0.950 . S
C2135 C2131 1.393 . S
C2135 C2134 1.391 1_565 S
H2136 C2144 0.950 . S
H2137 C2149 0.950 . S
H2138 C2146 0.950 . S
H2139 C2148 0.950 . S
H2140 C2150 0.950 . S
H2141 C2152 0.950 . S
H2142 C2154 0.950 . S
H2143 C2155 0.950 . S
C2144 H2136 0.950 . S
C2144 C2145 1.386 . S
C2144 C2146 1.391 . S
C2145 C2144 1.386 . S
C2145 C2149 1.393 . S
C2146 H2138 0.950 . S
C2146 C2144 1.391 . S
C2146 C2147 1.400 . S
C2147 C2146 1.400 . S
C2147 C2148 1.398 . S
C2147 C2153 1.491 . S
C2148 H2139 0.950 . S
C2148 C2147 1.398 . S
C2148 C2149 1.391 . S
C2149 H2137 0.950 . S
C2149 C2145 1.393 . S
C2149 C2148 1.391 . S
C2150 H2140 0.950 . S
C2150 C2151 1.386 . S
C2150 C2152 1.391 . S
C2151 C2150 1.386 . S
C2151 C2155 1.393 . S
C2152 H2141 0.950 . S
C2152 C2150 1.391 . S
C2152 C2153 1.400 . S
C2153 C2147 1.491 . S
C2153 C2152 1.400 . S
C2153 C2154 1.398 . S
C2154 H2142 0.950 . S
C2154 C2153 1.398 . S
C2154 C2155 1.391 . S
C2155 H2143 0.950 . S
C2155 C2151 1.393 . S
C2155 C2154 1.391 . S
H2156 C2164 0.950 . S
H2157 C2169 0.950 . S
H2158 C2166 0.950 . S
H2159 C2168 0.950 . S
H2160 C2170 0.950 . S
H2161 C2172 0.950 . S
H2162 C2174 0.950 . S
H2163 C2175 0.950 . S
C2164 H2156 0.950 . S
C2164 C2165 1.386 . S
C2164 C2166 1.391 . S
C2165 C2164 1.386 . S
C2165 C2169 1.393 1_565 S
C2166 H2158 0.950 . S
C2166 C2164 1.391 . S
C2166 C2167 1.400 . S
C2167 C2166 1.400 . S
C2167 C2168 1.398 1_565 S
C2167 C2173 1.491 1_565 S
C2168 H2159 0.950 . S
C2168 C2167 1.398 1_545 S
C2168 C2169 1.391 . S
C2169 H2157 0.950 . S
C2169 C2165 1.393 1_545 S
C2169 C2168 1.391 . S
C2170 H2160 0.950 . S
C2170 C2171 1.386 . S
C2170 C2172 1.391 . S
C2171 C2170 1.386 . S
C2171 C2175 1.393 1_545 S
C2172 H2161 0.950 . S
C2172 C2170 1.391 . S
C2172 C2173 1.400 . S
C2173 C2167 1.491 1_545 S
C2173 C2172 1.400 . S
C2173 C2174 1.398 1_545 S
C2174 H2162 0.950 . S
C2174 C2173 1.398 1_565 S
C2174 C2175 1.391 . S
C2175 H2163 0.950 . S
C2175 C2171 1.393 1_565 S
C2175 C2174 1.391 . S
H2176 C2184 0.950 . S
H2177 C2189 0.950 . S
H2178 C2186 0.950 . S
H2179 C2188 0.950 . S
H2180 C2190 0.950 . S
H2181 C2192 0.950 . S
H2182 C2194 0.950 . S
H2183 C2195 0.950 . S
C2184 H2176 0.950 . S
C2184 C2185 1.386 . S
C2184 C2186 1.391 . S
C2185 C2184 1.386 . S
C2185 C2189 1.393 . S
C2186 H2178 0.950 . S
C2186 C2184 1.391 . S
C2186 C2187 1.400 . S
C2187 C2186 1.400 . S
C2187 C2188 1.398 . S
C2187 C2193 1.491 . S
C2188 H2179 0.950 . S
C2188 C2187 1.398 . S
C2188 C2189 1.391 . S
C2189 H2177 0.950 . S
C2189 C2185 1.393 . S
C2189 C2188 1.391 . S
C2190 H2180 0.950 . S
C2190 C2191 1.386 . S
C2190 C2192 1.391 . S
C2191 C2190 1.386 . S
C2191 C2195 1.393 . S
C2192 H2181 0.950 . S
C2192 C2190 1.391 . S
C2192 C2193 1.400 . S
C2193 C2187 1.491 . S
C2193 C2192 1.400 . S
C2193 C2194 1.398 . S
C2194 H2182 0.950 . S
C2194 C2193 1.398 . S
C2194 C2195 1.391 . S
C2195 H2183 0.950 . S
C2195 C2191 1.393 . S
C2195 C2194 1.391 . S
H2196 C2204 0.950 . S
H2197 C2209 0.950 . S
H2198 C2206 0.950 . S
H2199 C2208 0.950 . S
H2200 C2210 0.950 . S
H2201 C2212 0.950 . S
H2202 C2214 0.950 . S
H2203 C2215 0.950 . S
C2204 H2196 0.950 . S
C2204 C2205 1.386 . S
C2204 C2206 1.391 . S
C2205 C2204 1.386 . S
C2205 C2209 1.393 . S
C2206 H2198 0.950 . S
C2206 C2204 1.391 . S
C2206 C2207 1.400 . S
C2207 C2206 1.400 . S
C2207 C2208 1.398 . S
C2207 C2213 1.491 . S
C2208 H2199 0.950 . S
C2208 C2207 1.398 . S
C2208 C2209 1.391 . S
C2209 H2197 0.950 . S
C2209 C2205 1.393 . S
C2209 C2208 1.391 . S
C2210 H2200 0.950 . S
C2210 C2211 1.386 . S
C2210 C2212 1.391 . S
C2211 C2210 1.386 . S
C2211 C2215 1.393 . S
C2212 H2201 0.950 . S
C2212 C2210 1.391 . S
C2212 C2213 1.400 . S
C2213 C2207 1.491 . S
C2213 C2212 1.400 . S
C2213 C2214 1.398 . S
C2214 H2202 0.950 . S
C2214 C2213 1.398 . S
C2214 C2215 1.391 . S
C2215 H2203 0.950 . S
C2215 C2211 1.393 . S
C2215 C2214 1.391 . S
H2216 C2224 0.950 . S
H2217 C2229 0.950 . S
H2218 C2226 0.950 . S
H2219 C2228 0.950 . S
H2220 C2230 0.950 . S
H2221 C2232 0.950 . S
H2222 C2234 0.950 . S
H2223 C2235 0.950 . S
C2224 H2216 0.950 . S
C2224 C2225 1.386 . S
C2224 C2226 1.391 . S
C2225 C2224 1.386 . S
C2225 C2229 1.393 . S
C2226 H2218 0.950 . S
C2226 C2224 1.391 . S
C2226 C2227 1.400 . S
C2227 C2226 1.400 . S
C2227 C2228 1.398 . S
C2227 C2233 1.491 1_554 S
C2228 H2219 0.950 . S
C2228 C2227 1.398 . S
C2228 C2229 1.391 . S
C2229 H2217 0.950 . S
C2229 C2225 1.393 . S
C2229 C2228 1.391 . S
C2230 H2220 0.950 . S
C2230 C2231 1.386 . S
C2230 C2232 1.391 . S
C2231 C2230 1.386 . S
C2231 C2235 1.393 . S
C2232 H2221 0.950 . S
C2232 C2230 1.391 . S
C2232 C2233 1.400 . S
C2233 C2227 1.491 1_556 S
C2233 C2232 1.400 . S
C2233 C2234 1.398 . S
C2234 H2222 0.950 . S
C2234 C2233 1.398 . S
C2234 C2235 1.391 . S
C2235 H2223 0.950 . S
C2235 C2231 1.393 . S
C2235 C2234 1.391 . S
H2236 C2244 0.950 . S
H2237 C2249 0.950 . S
H2238 C2246 0.950 . S
H2239 C2248 0.950 . S
H2240 C2250 0.950 . S
H2241 C2252 0.950 . S
H2242 C2254 0.950 . S
H2243 C2255 0.950 . S
C2244 H2236 0.950 . S
C2244 C2245 1.386 . S
C2244 C2246 1.391 . S
C2245 C2244 1.386 . S
C2245 C2249 1.393 . S
C2246 H2238 0.950 . S
C2246 C2244 1.391 . S
C2246 C2247 1.400 . S
C2247 C2246 1.400 . S
C2247 C2248 1.398 . S
C2247 C2253 1.491 . S
C2248 H2239 0.950 . S
C2248 C2247 1.398 . S
C2248 C2249 1.391 . S
C2249 H2237 0.950 . S
C2249 C2245 1.393 . S
C2249 C2248 1.391 . S
C2250 H2240 0.950 . S
C2250 C2251 1.386 . S
C2250 C2252 1.391 . S
C2251 C2250 1.386 . S
C2251 C2255 1.393 . S
C2252 H2241 0.950 . S
C2252 C2250 1.391 . S
C2252 C2253 1.400 . S
C2253 C2247 1.491 . S
C2253 C2252 1.400 . S
C2253 C2254 1.398 . S
C2254 H2242 0.950 . S
C2254 C2253 1.398 . S
C2254 C2255 1.391 . S
C2255 H2243 0.950 . S
C2255 C2251 1.393 . S
C2255 C2254 1.391 . S
H2256 C2264 0.950 . S
H2257 C2269 0.950 . S
H2258 C2266 0.950 . S
H2259 C2268 0.950 . S
H2260 C2270 0.950 . S
H2261 C2272 0.950 . S
H2262 C2274 0.950 . S
H2263 C2275 0.950 . S
C2264 H2256 0.950 . S
C2264 C2265 1.386 . S
C2264 C2266 1.391 . S
C2265 C2264 1.386 . S
C2265 C2269 1.393 . S
C2266 H2258 0.950 . S
C2266 C2264 1.391 . S
C2266 C2267 1.400 . S
C2267 C2266 1.400 . S
C2267 C2268 1.398 . S
C2267 C2273 1.491 . S
C2268 H2259 0.950 . S
C2268 C2267 1.398 . S
C2268 C2269 1.391 . S
C2269 H2257 0.950 . S
C2269 C2265 1.393 . S
C2269 C2268 1.391 . S
C2270 H2260 0.950 . S
C2270 C2271 1.386 . S
C2270 C2272 1.391 . S
C2271 C2270 1.386 . S
C2271 C2275 1.393 . S
C2272 H2261 0.950 . S
C2272 C2270 1.391 . S
C2272 C2273 1.400 . S
C2273 C2267 1.491 . S
C2273 C2272 1.400 . S
C2273 C2274 1.398 . S
C2274 H2262 0.950 . S
C2274 C2273 1.398 . S
C2274 C2275 1.391 . S
C2275 H2263 0.950 . S
C2275 C2271 1.393 . S
C2275 C2274 1.391 . S
H2276 C2284 0.950 . S
H2277 C2289 0.950 . S
H2278 C2286 0.950 . S
H2279 C2288 0.950 . S
H2280 C2290 0.950 . S
H2281 C2292 0.950 . S
H2282 C2294 0.950 . S
H2283 C2295 0.950 . S
C2284 H2276 0.950 . S
C2284 C2285 1.386 . S
C2284 C2286 1.391 . S
C2285 C2284 1.386 . S
C2285 C2289 1.393 . S
C2286 H2278 0.950 . S
C2286 C2284 1.391 . S
C2286 C2287 1.400 . S
C2287 C2286 1.400 . S
C2287 C2288 1.398 . S
C2287 C2293 1.491 . S
C2288 H2279 0.950 . S
C2288 C2287 1.398 . S
C2288 C2289 1.391 . S
C2289 H2277 0.950 . S
C2289 C2285 1.393 . S
C2289 C2288 1.391 . S
C2290 H2280 0.950 . S
C2290 C2291 1.386 . S
C2290 C2292 1.391 . S
C2291 C2290 1.386 . S
C2291 C2295 1.393 . S
C2292 H2281 0.950 . S
C2292 C2290 1.391 . S
C2292 C2293 1.400 . S
C2293 C2287 1.491 . S
C2293 C2292 1.400 . S
C2293 C2294 1.398 . S
C2294 H2282 0.950 . S
C2294 C2293 1.398 . S
C2294 C2295 1.391 . S
C2295 H2283 0.950 . S
C2295 C2291 1.393 . S
C2295 C2294 1.391 . S
H2296 C2304 0.950 . S
H2297 C2309 0.950 . S
H2298 C2306 0.950 . S
H2299 C2308 0.950 . S
H2300 C2310 0.950 . S
H2301 C2312 0.950 . S
H2302 C2314 0.950 . S
H2303 C2315 0.950 . S
C2304 H2296 0.950 . S
C2304 C2305 1.386 . S
C2304 C2306 1.391 . S
C2305 C2304 1.386 . S
C2305 C2309 1.393 . S
C2306 H2298 0.950 . S
C2306 C2304 1.391 . S
C2306 C2307 1.400 . S
C2307 C2306 1.400 . S
C2307 C2308 1.398 . S
C2307 C2313 1.491 1_556 S
C2308 H2299 0.950 . S
C2308 C2307 1.398 . S
C2308 C2309 1.391 . S
C2309 H2297 0.950 . S
C2309 C2305 1.393 . S
C2309 C2308 1.391 . S
C2310 H2300 0.950 . S
C2310 C2311 1.386 . S
C2310 C2312 1.391 . S
C2311 C2310 1.386 . S
C2311 C2315 1.393 . S
C2312 H2301 0.950 . S
C2312 C2310 1.391 . S
C2312 C2313 1.400 . S
C2313 C2307 1.491 1_554 S
C2313 C2312 1.400 . S
C2313 C2314 1.398 . S
C2314 H2302 0.950 . S
C2314 C2313 1.398 . S
C2314 C2315 1.391 . S
C2315 H2303 0.950 . S
C2315 C2311 1.393 . S
C2315 C2314 1.391 . S
H2316 C2324 0.950 . S
H2317 C2329 0.950 . S
H2318 C2326 0.950 . S
H2319 C2328 0.950 . S
H2320 C2330 0.950 . S
H2321 C2332 0.950 . S
H2322 C2334 0.950 . S
H2323 C2335 0.950 . S
C2324 H2316 0.950 . S
C2324 C2325 1.386 . S
C2324 C2326 1.391 . S
C2325 C2324 1.386 . S
C2325 C2329 1.393 . S
C2326 H2318 0.950 . S
C2326 C2324 1.391 . S
C2326 C2327 1.400 . S
C2327 C2326 1.400 . S
C2327 C2328 1.398 . S
C2327 C2333 1.491 . S
C2328 H2319 0.950 . S
C2328 C2327 1.398 . S
C2328 C2329 1.391 . S
C2329 H2317 0.950 . S
C2329 C2325 1.393 . S
C2329 C2328 1.391 . S
C2330 H2320 0.950 . S
C2330 C2331 1.386 . S
C2330 C2332 1.391 . S
C2331 C2330 1.386 . S
C2331 C2335 1.393 . S
C2332 H2321 0.950 . S
C2332 C2330 1.391 . S
C2332 C2333 1.400 . S
C2333 C2327 1.491 . S
C2333 C2332 1.400 . S
C2333 C2334 1.398 . S
C2334 H2322 0.950 . S
C2334 C2333 1.398 . S
C2334 C2335 1.391 . S
C2335 H2323 0.950 . S
C2335 C2331 1.393 . S
C2335 C2334 1.391 . S
H2336 C2344 0.950 . S
H2337 C2349 0.950 . S
H2338 C2346 0.950 . S
H2339 C2348 0.950 . S
H2340 C2350 0.950 . S
H2341 C2352 0.950 . S
H2342 C2354 0.950 . S
H2343 C2355 0.950 . S
C2344 H2336 0.950 . S
C2344 C2345 1.386 . S
C2344 C2346 1.391 . S
C2345 C2344 1.386 . S
C2345 C2349 1.393 . S
C2346 H2338 0.950 . S
C2346 C2344 1.391 . S
C2346 C2347 1.400 . S
C2347 C2346 1.400 . S
C2347 C2348 1.398 . S
C2347 C2353 1.491 . S
C2348 H2339 0.950 . S
C2348 C2347 1.398 . S
C2348 C2349 1.391 . S
C2349 H2337 0.950 . S
C2349 C2345 1.393 . S
C2349 C2348 1.391 . S
C2350 H2340 0.950 . S
C2350 C2351 1.386 . S
C2350 C2352 1.391 . S
C2351 C2350 1.386 . S
C2351 C2355 1.393 . S
C2352 H2341 0.950 . S
C2352 C2350 1.391 . S
C2352 C2353 1.400 . S
C2353 C2347 1.491 . S
C2353 C2352 1.400 . S
C2353 C2354 1.398 . S
C2354 H2342 0.950 . S
C2354 C2353 1.398 . S
C2354 C2355 1.391 . S
C2355 H2343 0.950 . S
C2355 C2351 1.393 . S
C2355 C2354 1.391 . S
H2356 C2364 0.949 1_545 S
H2357 C2369 0.950 . S
H2358 C2366 0.950 . S
H2359 C2368 0.950 . S
H2360 C2370 0.950 . S
H2361 C2372 0.950 . S
H2362 C2374 0.950 . S
H2363 C2375 0.950 . S
C2364 H2356 0.949 1_565 S
C2364 C2365 1.386 . S
C2364 C2366 1.391 . S
C2365 C2364 1.386 . S
C2365 C2369 1.393 . S
C2366 H2358 0.950 . S
C2366 C2364 1.391 . S
C2366 C2367 1.400 . S
C2367 C2366 1.400 . S
C2367 C2368 1.398 . S
C2367 C2373 1.491 . S
C2368 H2359 0.950 . S
C2368 C2367 1.398 . S
C2368 C2369 1.391 . S
C2369 H2357 0.950 . S
C2369 C2365 1.393 . S
C2369 C2368 1.391 . S
C2370 H2360 0.950 . S
C2370 C2371 1.386 . S
C2370 C2372 1.391 . S
C2371 C2370 1.386 . S
C2371 C2375 1.393 . S
C2372 H2361 0.950 . S
C2372 C2370 1.391 . S
C2372 C2373 1.400 . S
C2373 C2367 1.491 . S
C2373 C2372 1.400 . S
C2373 C2374 1.398 . S
C2374 H2362 0.950 . S
C2374 C2373 1.398 . S
C2374 C2375 1.391 . S
C2375 H2363 0.950 . S
C2375 C2371 1.393 . S
C2375 C2374 1.391 . S
H2376 C2384 0.950 . S
H2377 C2389 0.950 . S
H2378 C2386 0.950 . S
H2379 C2388 0.950 . S
H2380 C2390 0.950 . S
H2381 C2392 0.950 . S
H2382 C2394 0.950 . S
H2383 C2395 0.950 . S
C2384 H2376 0.950 . S
C2384 C2385 1.386 . S
C2384 C2386 1.391 . S
C2385 C2384 1.386 . S
C2385 C2389 1.393 . S
C2386 H2378 0.950 . S
C2386 C2384 1.391 . S
C2386 C2387 1.400 . S
C2387 C2386 1.400 . S
C2387 C2388 1.398 . S
C2387 C2393 1.491 . S
C2388 H2379 0.950 . S
C2388 C2387 1.398 . S
C2388 C2389 1.391 . S
C2389 H2377 0.950 . S
C2389 C2385 1.393 . S
C2389 C2388 1.391 . S
C2390 H2380 0.950 . S
C2390 C2391 1.386 . S
C2390 C2392 1.391 . S
C2391 C2390 1.386 . S
C2391 C2395 1.393 . S
C2392 H2381 0.950 . S
C2392 C2390 1.391 . S
C2392 C2393 1.400 . S
C2393 C2387 1.491 . S
C2393 C2392 1.400 . S
C2393 C2394 1.398 . S
C2394 H2382 0.950 . S
C2394 C2393 1.398 . S
C2394 C2395 1.391 . S
C2395 H2383 0.950 . S
C2395 C2391 1.393 . S
C2395 C2394 1.391 . S
H2396 C2404 0.950 . S
H2397 C2409 0.950 1_565 S
H2398 C2406 0.950 . S
H2399 C2408 0.950 . S
H2400 C2410 0.950 . S
H2401 C2412 0.950 . S
H2402 C2414 0.950 . S
H2403 C2415 0.950 . S
C2404 H2396 0.950 . S
C2404 C2405 1.386 . S
C2404 C2406 1.391 . S
C2405 C2404 1.386 . S
C2405 C2409 1.393 . S
C2406 H2398 0.950 . S
C2406 C2404 1.391 . S
C2406 C2407 1.400 . S
C2407 C2406 1.400 . S
C2407 C2408 1.398 . S
C2407 C2413 1.491 . S
C2408 H2399 0.950 . S
C2408 C2407 1.398 . S
C2408 C2409 1.391 . S
C2409 H2397 0.950 1_545 S
C2409 C2405 1.393 . S
C2409 C2408 1.391 . S
C2410 H2400 0.950 . S
C2410 C2411 1.386 . S
C2410 C2412 1.391 . S
C2411 C2410 1.386 . S
C2411 C2415 1.393 . S
C2412 H2401 0.950 . S
C2412 C2410 1.391 . S
C2412 C2413 1.400 . S
C2413 C2407 1.491 . S
C2413 C2412 1.400 . S
C2413 C2414 1.398 . S
C2414 H2402 0.950 . S
C2414 C2413 1.398 . S
C2414 C2415 1.391 . S
C2415 H2403 0.950 . S
C2415 C2411 1.393 . S
C2415 C2414 1.391 . S
H2416 C2424 0.950 . S
H2417 C2429 0.950 . S
H2418 C2426 0.950 . S
H2419 C2428 0.950 . S
H2420 C2430 0.950 . S
H2421 C2432 0.950 . S
H2422 C2434 0.950 . S
H2423 C2435 0.950 . S
C2424 H2416 0.950 . S
C2424 C2425 1.386 . S
C2424 C2426 1.391 . S
C2425 C2424 1.386 . S
C2425 C2429 1.393 . S
C2426 H2418 0.950 . S
C2426 C2424 1.391 . S
C2426 C2427 1.400 . S
C2427 C2426 1.400 . S
C2427 C2428 1.398 . S
C2427 C2433 1.491 . S
C2428 H2419 0.950 . S
C2428 C2427 1.398 . S
C2428 C2429 1.391 . S
C2429 H2417 0.950 . S
C2429 C2425 1.393 . S
C2429 C2428 1.391 . S
C2430 H2420 0.950 . S
C2430 C2431 1.386 . S
C2430 C2432 1.391 . S
C2431 C2430 1.386 . S
C2431 C2435 1.393 . S
C2432 H2421 0.950 . S
C2432 C2430 1.391 . S
C2432 C2433 1.400 . S
C2433 C2427 1.491 . S
C2433 C2432 1.400 . S
C2433 C2434 1.398 . S
C2434 H2422 0.950 . S
C2434 C2433 1.398 . S
C2434 C2435 1.391 . S
C2435 H2423 0.950 . S
C2435 C2431 1.393 . S
C2435 C2434 1.391 . S
H2436 C2444 0.950 . S
H2437 C2449 0.950 . S
H2438 C2446 0.950 . S
H2439 C2448 0.950 . S
H2440 C2450 0.950 . S
H2441 C2452 0.950 . S
H2442 C2454 0.950 . S
H2443 C2455 0.950 . S
C2444 H2436 0.950 . S
C2444 C2445 1.386 . S
C2444 C2446 1.391 . S
C2445 C2444 1.386 . S
C2445 C2449 1.393 . S
C2446 H2438 0.950 . S
C2446 C2444 1.391 . S
C2446 C2447 1.400 . S
C2447 C2446 1.400 . S
C2447 C2448 1.398 . S
C2447 C2453 1.491 . S
C2448 H2439 0.950 . S
C2448 C2447 1.398 . S
C2448 C2449 1.391 . S
C2449 H2437 0.950 . S
C2449 C2445 1.393 . S
C2449 C2448 1.391 . S
C2450 H2440 0.950 . S
C2450 C2451 1.386 . S
C2450 C2452 1.391 . S
C2451 C2450 1.386 . S
C2451 C2455 1.393 . S
C2452 H2441 0.950 . S
C2452 C2450 1.391 . S
C2452 C2453 1.400 . S
C2453 C2447 1.491 . S
C2453 C2452 1.400 . S
C2453 C2454 1.398 . S
C2454 H2442 0.950 . S
C2454 C2453 1.398 . S
C2454 C2455 1.391 . S
C2455 H2443 0.950 . S
C2455 C2451 1.393 . S
C2455 C2454 1.391 . S
H2456 C2464 0.950 . S
H2457 C2469 0.950 . S
H2458 C2466 0.950 . S
H2459 C2468 0.950 . S
H2460 C2470 0.950 . S
H2461 C2472 0.950 . S
H2462 C2474 0.950 . S
H2463 C2475 0.950 . S
C2464 H2456 0.950 . S
C2464 C2465 1.386 . S
C2464 C2466 1.391 . S
C2465 C2464 1.386 . S
C2465 C2469 1.393 . S
C2466 H2458 0.950 . S
C2466 C2464 1.391 . S
C2466 C2467 1.400 . S
C2467 C2466 1.400 . S
C2467 C2468 1.398 . S
C2467 C2473 1.491 . S
C2468 H2459 0.950 . S
C2468 C2467 1.398 . S
C2468 C2469 1.391 . S
C2469 H2457 0.950 . S
C2469 C2465 1.393 . S
C2469 C2468 1.391 . S
C2470 H2460 0.950 . S
C2470 C2471 1.386 . S
C2470 C2472 1.391 . S
C2471 C2470 1.386 . S
C2471 C2475 1.393 . S
C2472 H2461 0.950 . S
C2472 C2470 1.391 . S
C2472 C2473 1.400 . S
C2473 C2467 1.491 . S
C2473 C2472 1.400 . S
C2473 C2474 1.398 . S
C2474 H2462 0.950 . S
C2474 C2473 1.398 . S
C2474 C2475 1.391 . S
C2475 H2463 0.950 . S
C2475 C2471 1.393 . S
C2475 C2474 1.391 . S
H2476 C2484 0.950 . S
H2477 C2489 0.950 . S
H2478 C2486 0.950 . S
H2479 C2488 0.950 . S
H2480 C2490 0.950 . S
H2481 C2492 0.950 . S
H2482 C2494 0.950 . S
H2483 C2495 0.950 . S
C2484 H2476 0.950 . S
C2484 C2485 1.386 . S
C2484 C2486 1.391 . S
C2485 C2484 1.386 . S
C2485 C2489 1.393 . S
C2486 H2478 0.950 . S
C2486 C2484 1.391 . S
C2486 C2487 1.400 . S
C2487 C2486 1.400 . S
C2487 C2488 1.398 . S
C2487 C2493 1.491 . S
C2488 H2479 0.950 . S
C2488 C2487 1.398 . S
C2488 C2489 1.391 . S
C2489 H2477 0.950 . S
C2489 C2485 1.393 . S
C2489 C2488 1.391 . S
C2490 H2480 0.950 . S
C2490 C2491 1.386 . S
C2490 C2492 1.391 . S
C2491 C2490 1.386 . S
C2491 C2495 1.393 . S
C2492 H2481 0.950 . S
C2492 C2490 1.391 . S
C2492 C2493 1.400 . S
C2493 C2487 1.491 . S
C2493 C2492 1.400 . S
C2493 C2494 1.398 . S
C2494 H2482 0.950 . S
C2494 C2493 1.398 . S
C2494 C2495 1.391 . S
C2495 H2483 0.950 . S
C2495 C2491 1.393 . S
C2495 C2494 1.391 . S
H2496 C2504 0.950 . S
H2497 C2509 0.950 . S
H2498 C2506 0.950 . S
H2499 C2508 0.950 . S
H2500 C2510 0.950 . S
H2501 C2512 0.950 . S
H2502 C2514 0.950 . S
H2503 C2515 0.950 . S
C2504 H2496 0.950 . S
C2504 C2505 1.386 . S
C2504 C2506 1.391 . S
C2505 C2504 1.386 . S
C2505 C2509 1.393 . S
C2506 H2498 0.950 . S
C2506 C2504 1.391 . S
C2506 C2507 1.400 . S
C2507 C2506 1.400 . S
C2507 C2508 1.398 . S
C2507 C2513 1.491 . S
C2508 H2499 0.950 . S
C2508 C2507 1.398 . S
C2508 C2509 1.391 . S
C2509 H2497 0.950 . S
C2509 C2505 1.393 . S
C2509 C2508 1.391 . S
C2510 H2500 0.950 . S
C2510 C2511 1.386 . S
C2510 C2512 1.391 . S
C2511 C2510 1.386 . S
C2511 C2515 1.393 . S
C2512 H2501 0.950 . S
C2512 C2510 1.391 . S
C2512 C2513 1.400 . S
C2513 C2507 1.491 . S
C2513 C2512 1.400 . S
C2513 C2514 1.398 . S
C2514 H2502 0.950 . S
C2514 C2513 1.398 . S
C2514 C2515 1.391 . S
C2515 H2503 0.950 . S
C2515 C2511 1.393 . S
C2515 C2514 1.391 . S
H2516 C2524 0.950 . S
H2517 C2529 0.950 . S
H2518 C2526 0.950 . S
H2519 C2528 0.950 . S
H2520 C2530 0.950 . S
H2521 C2532 0.950 . S
H2522 C2534 0.950 . S
H2523 C2535 0.950 . S
C2524 H2516 0.950 . S
C2524 C2525 1.386 . S
C2524 C2526 1.391 . S
C2525 C2524 1.386 . S
C2525 C2529 1.393 . S
C2526 H2518 0.950 . S
C2526 C2524 1.391 . S
C2526 C2527 1.400 . S
C2527 C2526 1.400 . S
C2527 C2528 1.398 . S
C2527 C2533 1.491 . S
C2528 H2519 0.950 . S
C2528 C2527 1.398 . S
C2528 C2529 1.391 . S
C2529 H2517 0.950 . S
C2529 C2525 1.393 . S
C2529 C2528 1.391 . S
C2530 H2520 0.950 . S
C2530 C2531 1.386 . S
C2530 C2532 1.391 . S
C2531 C2530 1.386 . S
C2531 C2535 1.393 . S
C2532 H2521 0.950 . S
C2532 C2530 1.391 . S
C2532 C2533 1.400 . S
C2533 C2527 1.491 . S
C2533 C2532 1.400 . S
C2533 C2534 1.398 . S
C2534 H2522 0.950 . S
C2534 C2533 1.398 . S
C2534 C2535 1.391 . S
C2535 H2523 0.950 . S
C2535 C2531 1.393 . S
C2535 C2534 1.391 . S
H2536 C2544 0.950 . S
H2537 C2549 0.950 . S
H2538 C2546 0.950 . S
H2539 C2548 0.950 . S
H2540 C2550 0.950 . S
H2541 C2552 0.950 . S
H2542 C2554 0.950 . S
H2543 C2555 0.950 . S
C2544 H2536 0.950 . S
C2544 C2545 1.386 . S
C2544 C2546 1.391 . S
C2545 C2544 1.386 . S
C2545 C2549 1.393 . S
C2546 H2538 0.950 . S
C2546 C2544 1.391 . S
C2546 C2547 1.400 . S
C2547 C2546 1.400 . S
C2547 C2548 1.398 . S
C2547 C2553 1.491 . S
C2548 H2539 0.950 . S
C2548 C2547 1.398 . S
C2548 C2549 1.391 . S
C2549 H2537 0.950 . S
C2549 C2545 1.393 . S
C2549 C2548 1.391 . S
C2550 H2540 0.950 . S
C2550 C2551 1.386 . S
C2550 C2552 1.391 . S
C2551 C2550 1.386 . S
C2551 C2555 1.393 . S
C2552 H2541 0.950 . S
C2552 C2550 1.391 . S
C2552 C2553 1.400 . S
C2553 C2547 1.491 . S
C2553 C2552 1.400 . S
C2553 C2554 1.398 . S
C2554 H2542 0.950 . S
C2554 C2553 1.398 . S
C2554 C2555 1.391 . S
C2555 H2543 0.950 . S
C2555 C2551 1.393 . S
C2555 C2554 1.391 . S
H2556 C2564 0.950 . S
H2557 C2569 0.950 . S
H2558 C2566 0.950 . S
H2559 C2568 0.950 . S
H2560 C2570 0.950 . S
H2561 C2572 0.950 . S
H2562 C2574 0.950 . S
H2563 C2575 0.950 . S
C2564 H2556 0.950 . S
C2564 C2565 1.386 . S
C2564 C2566 1.391 . S
C2565 C2564 1.386 . S
C2565 C2569 1.393 . S
C2566 H2558 0.950 . S
C2566 C2564 1.391 . S
C2566 C2567 1.400 . S
C2567 C2566 1.400 . S
C2567 C2568 1.398 . S
C2567 C2573 1.491 . S
C2568 H2559 0.950 . S
C2568 C2567 1.398 . S
C2568 C2569 1.391 . S
C2569 H2557 0.950 . S
C2569 C2565 1.393 . S
C2569 C2568 1.391 . S
C2570 H2560 0.950 . S
C2570 C2571 1.386 . S
C2570 C2572 1.391 . S
C2571 C2570 1.386 . S
C2571 C2575 1.393 . S
C2572 H2561 0.950 . S
C2572 C2570 1.391 . S
C2572 C2573 1.400 . S
C2573 C2567 1.491 . S
C2573 C2572 1.400 . S
C2573 C2574 1.398 . S
C2574 H2562 0.950 . S
C2574 C2573 1.398 . S
C2574 C2575 1.391 . S
C2575 H2563 0.950 . S
C2575 C2571 1.393 . S
C2575 C2574 1.391 . S
H2576 C2584 0.950 . S
H2577 C2589 0.950 . S
H2578 C2586 0.950 . S
H2579 C2588 0.950 . S
H2580 C2590 0.950 . S
H2581 C2592 0.950 . S
H2582 C2594 0.950 . S
H2583 C2595 0.950 . S
C2584 H2576 0.950 . S
C2584 C2585 1.386 . S
C2584 C2586 1.391 . S
C2585 C2584 1.386 . S
C2585 C2589 1.393 . S
C2586 H2578 0.950 . S
C2586 C2584 1.391 . S
C2586 C2587 1.400 . S
C2587 C2586 1.400 . S
C2587 C2588 1.398 . S
C2587 C2593 1.491 . S
C2588 H2579 0.950 . S
C2588 C2587 1.398 . S
C2588 C2589 1.391 . S
C2589 H2577 0.950 . S
C2589 C2585 1.393 . S
C2589 C2588 1.391 . S
C2590 H2580 0.950 . S
C2590 C2591 1.386 . S
C2590 C2592 1.391 . S
C2591 C2590 1.386 . S
C2591 C2595 1.393 . S
C2592 H2581 0.950 . S
C2592 C2590 1.391 . S
C2592 C2593 1.400 . S
C2593 C2587 1.491 . S
C2593 C2592 1.400 . S
C2593 C2594 1.398 . S
C2594 H2582 0.950 . S
C2594 C2593 1.398 . S
C2594 C2595 1.391 . S
C2595 H2583 0.950 . S
C2595 C2591 1.393 . S
C2595 C2594 1.391 . S
H2596 C2604 0.950 . S
H2597 C2609 0.950 . S
H2598 C2606 0.950 . S
H2599 C2608 0.950 . S
H2600 C2610 0.917 1_565 S
H2601 C2612 0.950 . S
H2602 C2614 0.950 . S
H2603 C2615 0.950 . S
C2604 H2596 0.950 . S
C2604 C2605 1.386 . S
C2604 C2606 1.391 . S
C2605 C2604 1.386 . S
C2605 C2609 1.393 . S
C2606 H2598 0.950 . S
C2606 C2604 1.391 . S
C2606 C2607 1.400 . S
C2607 C2606 1.400 . S
C2607 C2608 1.398 . S
C2607 C2613 1.491 . S
C2608 H2599 0.950 . S
C2608 C2607 1.398 . S
C2608 C2609 1.391 . S
C2609 H2597 0.950 . S
C2609 C2605 1.393 . S
C2609 C2608 1.391 . S
C2610 H2600 0.917 1_545 S
C2610 C2611 1.386 . S
C2610 C2612 1.391 . S
C2611 C2610 1.386 . S
C2611 C2615 1.393 . S
C2612 H2601 0.950 . S
C2612 C2610 1.391 . S
C2612 C2613 1.400 . S
C2613 C2607 1.491 . S
C2613 C2612 1.400 . S
C2613 C2614 1.398 . S
C2614 H2602 0.950 . S
C2614 C2613 1.398 . S
C2614 C2615 1.391 . S
C2615 H2603 0.950 . S
C2615 C2611 1.393 . S
C2615 C2614 1.391 . S
H2616 C2624 0.950 . S
H2617 C2629 0.950 . S
H2618 C2626 0.950 . S
H2619 C2628 0.950 . S
H2620 C2630 0.950 . S
H2621 C2632 0.950 . S
H2622 C2634 0.950 . S
H2623 C2635 0.950 . S
C2624 H2616 0.950 . S
C2624 C2625 1.386 . S
C2624 C2626 1.391 . S
C2625 C2624 1.386 . S
C2625 C2629 1.393 . S
C2626 H2618 0.950 . S
C2626 C2624 1.391 . S
C2626 C2627 1.400 . S
C2627 C2626 1.400 . S
C2627 C2628 1.398 . S
C2627 C2633 1.491 . S
C2628 H2619 0.950 . S
C2628 C2627 1.398 . S
C2628 C2629 1.391 . S
C2629 H2617 0.950 . S
C2629 C2625 1.393 . S
C2629 C2628 1.391 . S
C2630 H2620 0.950 . S
C2630 C2631 1.386 . S
C2630 C2632 1.391 . S
C2631 C2630 1.386 . S
C2631 C2635 1.393 . S
C2632 H2621 0.950 . S
C2632 C2630 1.391 . S
C2632 C2633 1.400 . S
C2633 C2627 1.491 . S
C2633 C2632 1.400 . S
C2633 C2634 1.398 . S
C2634 H2622 0.950 . S
C2634 C2633 1.398 . S
C2634 C2635 1.391 . S
C2635 H2623 0.950 . S
C2635 C2631 1.393 . S
C2635 C2634 1.391 . S
H2636 C2644 0.953 . S
H2637 C2649 0.950 . S
H2638 C2646 0.950 . S
H2639 C2648 0.950 . S
H2640 C2650 0.950 . S
H2641 C2652 0.950 . S
H2642 C2654 0.950 . S
H2643 C2655 0.950 . S
C2644 H2636 0.953 . S
C2644 C2645 1.386 . S
C2644 C2646 1.391 . S
C2645 C2644 1.386 . S
C2645 C2649 1.393 . S
C2646 H2638 0.950 . S
C2646 C2644 1.391 . S
C2646 C2647 1.400 . S
C2647 C2646 1.400 . S
C2647 C2648 1.398 . S
C2647 C2653 1.491 . S
C2648 H2639 0.950 . S
C2648 C2647 1.398 . S
C2648 C2649 1.391 . S
C2649 H2637 0.950 . S
C2649 C2645 1.393 . S
C2649 C2648 1.391 . S
C2650 H2640 0.950 . S
C2650 C2651 1.386 . S
C2650 C2652 1.391 . S
C2651 C2650 1.386 . S
C2651 C2655 1.393 . S
C2652 H2641 0.950 . S
C2652 C2650 1.391 . S
C2652 C2653 1.400 . S
C2653 C2647 1.491 . S
C2653 C2652 1.400 . S
C2653 C2654 1.398 . S
C2654 H2642 0.950 . S
C2654 C2653 1.398 . S
C2654 C2655 1.391 . S
C2655 H2643 0.950 . S
C2655 C2651 1.393 . S
C2655 C2654 1.391 . S
C1065 C28 1.573 . S
C1071 C820 1.573 . S
C1085 C325 1.573 . S
C1091 C61 1.573 . S
C1105 C886 1.575 . S
C1111 C94 1.575 . S
C1125 C391 1.574 . S
C1131 C127 1.574 . S
C1145 C952 1.574 . S
C1151 C160 1.574 . S
C1165 C457 1.575 . S
C1171 C193 1.575 . S
C1185 C1018 1.573 . S
C1191 C226 1.573 . S
C1205 C523 1.573 . S
C1211 C259 1.573 . S
C1225 C292 1.575 . S
C1231 C556 1.575 . S
C1245 C358 1.574 . S
C1251 C622 1.574 . S
C1265 C424 1.575 . S
C1271 C688 1.575 . S
C1285 C754 1.575 . S
C1291 C490 1.575 . S
C1305 C589 1.574 . S
C1311 C853 1.574 . S
C1325 C919 1.573 . S
C1331 C655 1.573 . S
C1345 C721 1.573 . S
C1351 C985 1.573 . S
C1365 C1051 1.574 . S
C1371 C787 1.574 . S
C1385 N5 1.267 . S
C1391 C380 1.303 . S
C1405 N38 1.256 1_455 S
C1411 C809 1.296 . S
C1425 C314 1.299 . S
C1431 N71 1.272 . S
C1445 N104 1.273 . S
C1451 C875 1.299 . S
C1465 C446 1.297 . S
C1471 N137 1.267 . S
C1485 C1007 1.310 . S
C1491 N170 1.285 . S
C1505 N203 1.283 . S
C1511 C512 1.310 . S
C1525 C941 1.309 . S
C1531 N236 1.285 1_455 S
C1545 N269 1.271 . S
C1551 C116 1.305 . S
C1565 N302 1.284 1_655 S
C1571 C545 1.310 . S
C1585 C50 1.299 . S
C1591 N335 1.260 . S
C1605 N368 1.256 . S
C1611 C611 1.295 . S
C1625 N401 1.255 . S
C1631 C182 1.295 . S
C1645 C743 1.296 . S
C1651 N434 1.265 . S
C1665 C248 1.303 . S
C1671 N467 1.267 . S
C1685 N500 1.277 1_655 S
C1691 C677 1.308 . S
C1705 C908 1.310 . S
C1711 N533 1.283 . S
C1725 C281 1.307 . S
C1731 N566 1.274 . S
C1745 C842 1.292 . S
C1751 N599 1.256 . S
C1765 N632 1.274 1_655 S
C1771 C347 1.300 . S
C1785 C974 1.308 . S
C1791 N665 1.284 . S
C1805 C479 1.308 . S
C1811 N698 1.277 1_655 S
C1825 N731 1.272 . S
C1831 C1040 1.306 . S
C1845 C413 1.297 . S
C1851 N764 1.257 . S
C1865 C644 1.303 . S
C1871 N797 1.267 . S
C1885 N830 1.255 . S
C1891 C17 1.293 . S
C1905 N863 1.255 . S
C1911 C578 1.293 . S
C1925 C83 1.303 . S
C1931 N896 1.278 1_455 S
C1945 C710 1.293 . S
C1951 N929 1.255 . S
C1965 N962 1.284 1_455 S
C1971 C215 1.310 . S
C1985 C776 1.305 . S
C1991 N995 1.270 . S
C2005 C149 1.309 . S
C2011 N1028 1.285 . S
C2025 C8 1.001 . S
C2031 C206 1.000 . S
C2045 C239 1.017 . S
C2051 C41 1.012 . S
C2065 C74 1.010 . S
C2071 C140 1.016 . S
C2085 C107 1.004 . S
C2091 C173 1.000 . S
C2105 C470 1.001 . S
C2111 C272 1.000 . S
C2125 C503 1.017 . S
C2131 C305 1.019 . S
C2145 C404 1.017 . S
C2151 C338 1.012 . S
C2165 C437 1.013 . S
C2171 C371 1.018 . S
C2185 C536 1.019 . S
C2191 C734 1.015 . S
C2205 C569 1.017 . S
C2211 C767 1.011 . S
C2225 C602 1.018 . S
C2231 C668 1.019 . S
C2245 C635 1.001 . S
C2251 C701 1.006 . S
C2265 C998 1.010 . S
C2271 C800 1.016 . S
C2285 C1031 1.011 . S
C2291 C833 1.005 . S
C2305 C866 1.000 . S
C2311 C932 1.004 . S
C2325 C899 1.013 . S
C2331 C965 1.018 . S
C2345 N14 1.897 . S
C2351 N707 1.897 . S
C2365 N47 1.902 1_565 S
C2371 N740 1.902 . S
C2385 N80 1.891 . S
C2391 N773 1.891 . S
C2405 N113 1.891 1_545 S
C2411 N674 1.891 . S
C2425 N641 1.891 . S
C2431 N146 1.891 . S
C2445 N179 1.899 1_565 S
C2451 N542 1.899 . S
C2465 N575 1.902 . S
C2471 N212 1.902 . S
C2485 N245 1.898 1_545 S
C2491 N608 1.899 . S
C2505 N971 1.894 . S
C2511 N278 1.894 . S
C2525 N311 1.896 1_545 S
C2531 N1004 1.896 . S
C2545 N1037 1.891 . S
C2551 N344 1.891 . S
C2565 N377 1.893 1_565 S
C2571 N938 1.893 . S
C2585 N410 1.891 . S
C2591 N905 1.891 . S
C2605 N806 1.902 . S
C2611 N443 1.902 1_545 S
C2625 N476 1.901 . S
C2631 N839 1.901 . S
C2645 N509 1.891 1_565 S
C2651 N872 1.891 . S
