# Generated by pormake.
# Topology umn, (4)-cn, num edge types: 1
# Building blocks:
#     Node 0, Type 0, BuildingBlock: CEKHIL_clean_sbu_0, # of connection points: 4
#     Node 1, Type 0, BuildingBlock: CEKHIL_clean_sbu_0, # of connection points: 4
#     Node 2, Type 0, BuildingBlock: CEKHIL_clean_sbu_0, # of connection points: 4
#     Node 3, Type 0, BuildingBlock: CEKHIL_clean_sbu_0, # of connection points: 4
#     Node 4, Type 0, BuildingBlock: CEKHIL_clean_sbu_0, # of connection points: 4
#     Node 5, Type 0, BuildingBlock: CEKHIL_clean_sbu_0, # of connection points: 4
#     Node 6, Type 0, BuildingBlock: CEKHIL_clean_sbu_0, # of connection points: 4
#     Node 7, Type 0, BuildingBlock: CEKHIL_clean_sbu_0, # of connection points: 4
#     Node 8, Type 0, BuildingBlock: CEKHIL_clean_sbu_0, # of connection points: 4
#     Node 9, Type 0, BuildingBlock: CEKHIL_clean_sbu_0, # of connection points: 4
#     Node 10, Type 0, BuildingBlock: CEKHIL_clean_sbu_0, # of connection points: 4
#     Node 11, Type 0, BuildingBlock: CEKHIL_clean_sbu_0, # of connection points: 4
#     Node 12, Type 0, BuildingBlock: CEKHIL_clean_sbu_0, # of connection points: 4
#     Node 13, Type 0, BuildingBlock: CEKHIL_clean_sbu_0, # of connection points: 4
#     Node 14, Type 0, BuildingBlock: CEKHIL_clean_sbu_0, # of connection points: 4
#     Node 15, Type 0, BuildingBlock: CEKHIL_clean_sbu_0, # of connection points: 4
#     Node 16, Type 0, BuildingBlock: CEKHIL_clean_sbu_0, # of connection points: 4
#     Node 17, Type 0, BuildingBlock: CEKHIL_clean_sbu_0, # of connection points: 4
#     Node 18, Type 0, BuildingBlock: CEKHIL_clean_sbu_0, # of connection points: 4
#     Node 19, Type 0, BuildingBlock: CEKHIL_clean_sbu_0, # of connection points: 4
#     Node 20, Type 0, BuildingBlock: CEKHIL_clean_sbu_0, # of connection points: 4
#     Node 21, Type 0, BuildingBlock: CEKHIL_clean_sbu_0, # of connection points: 4
#     Node 22, Type 0, BuildingBlock: CEKHIL_clean_sbu_0, # of connection points: 4
#     Node 23, Type 0, BuildingBlock: CEKHIL_clean_sbu_0, # of connection points: 4
#     Node 24, Type 0, BuildingBlock: CEKHIL_clean_sbu_0, # of connection points: 4
#     Node 25, Type 0, BuildingBlock: CEKHIL_clean_sbu_0, # of connection points: 4
#     Node 26, Type 0, BuildingBlock: CEKHIL_clean_sbu_0, # of connection points: 4
#     Node 27, Type 0, BuildingBlock: CEKHIL_clean_sbu_0, # of connection points: 4
#     Node 28, Type 0, BuildingBlock: CEKHIL_clean_sbu_0, # of connection points: 4
#     Node 29, Type 0, BuildingBlock: CEKHIL_clean_sbu_0, # of connection points: 4
#     Node 30, Type 0, BuildingBlock: CEKHIL_clean_sbu_0, # of connection points: 4
#     Node 31, Type 0, BuildingBlock: CEKHIL_clean_sbu_0, # of connection points: 4
#     Node 32, Type 0, BuildingBlock: CEKHIL_clean_sbu_0, # of connection points: 4
#     Node 33, Type 0, BuildingBlock: CEKHIL_clean_sbu_0, # of connection points: 4
#     Node 34, Type 0, BuildingBlock: CEKHIL_clean_sbu_0, # of connection points: 4
#     Node 35, Type 0, BuildingBlock: CEKHIL_clean_sbu_0, # of connection points: 4
#     Edge 36, Type (0, 0), BuildingBlock: OJICUG_clean_linker_0, # of connection points: 2
#     Edge 37, Type (0, 0), BuildingBlock: OJICUG_clean_linker_0, # of connection points: 2
#     Edge 38, Type (0, 0), BuildingBlock: OJICUG_clean_linker_0, # of connection points: 2
#     Edge 39, Type (0, 0), BuildingBlock: OJICUG_clean_linker_0, # of connection points: 2
#     Edge 40, Type (0, 0), BuildingBlock: OJICUG_clean_linker_0, # of connection points: 2
#     Edge 41, Type (0, 0), BuildingBlock: OJICUG_clean_linker_0, # of connection points: 2
#     Edge 42, Type (0, 0), BuildingBlock: OJICUG_clean_linker_0, # of connection points: 2
#     Edge 43, Type (0, 0), BuildingBlock: OJICUG_clean_linker_0, # of connection points: 2
#     Edge 44, Type (0, 0), BuildingBlock: OJICUG_clean_linker_0, # of connection points: 2
#     Edge 45, Type (0, 0), BuildingBlock: OJICUG_clean_linker_0, # of connection points: 2
#     Edge 46, Type (0, 0), BuildingBlock: OJICUG_clean_linker_0, # of connection points: 2
#     Edge 47, Type (0, 0), BuildingBlock: OJICUG_clean_linker_0, # of connection points: 2
#     Edge 48, Type (0, 0), BuildingBlock: OJICUG_clean_linker_0, # of connection points: 2
#     Edge 49, Type (0, 0), BuildingBlock: OJICUG_clean_linker_0, # of connection points: 2
#     Edge 50, Type (0, 0), BuildingBlock: OJICUG_clean_linker_0, # of connection points: 2
#     Edge 51, Type (0, 0), BuildingBlock: OJICUG_clean_linker_0, # of connection points: 2
#     Edge 52, Type (0, 0), BuildingBlock: OJICUG_clean_linker_0, # of connection points: 2
#     Edge 53, Type (0, 0), BuildingBlock: OJICUG_clean_linker_0, # of connection points: 2
#     Edge 54, Type (0, 0), BuildingBlock: OJICUG_clean_linker_0, # of connection points: 2
#     Edge 55, Type (0, 0), BuildingBlock: OJICUG_clean_linker_0, # of connection points: 2
#     Edge 56, Type (0, 0), BuildingBlock: OJICUG_clean_linker_0, # of connection points: 2
#     Edge 57, Type (0, 0), BuildingBlock: OJICUG_clean_linker_0, # of connection points: 2
#     Edge 58, Type (0, 0), BuildingBlock: OJICUG_clean_linker_0, # of connection points: 2
#     Edge 59, Type (0, 0), BuildingBlock: OJICUG_clean_linker_0, # of connection points: 2
#     Edge 60, Type (0, 0), BuildingBlock: OJICUG_clean_linker_0, # of connection points: 2
#     Edge 61, Type (0, 0), BuildingBlock: OJICUG_clean_linker_0, # of connection points: 2
#     Edge 62, Type (0, 0), BuildingBlock: OJICUG_clean_linker_0, # of connection points: 2
#     Edge 63, Type (0, 0), BuildingBlock: OJICUG_clean_linker_0, # of connection points: 2
#     Edge 64, Type (0, 0), BuildingBlock: OJICUG_clean_linker_0, # of connection points: 2
#     Edge 65, Type (0, 0), BuildingBlock: OJICUG_clean_linker_0, # of connection points: 2
#     Edge 66, Type (0, 0), BuildingBlock: OJICUG_clean_linker_0, # of connection points: 2
#     Edge 67, Type (0, 0), BuildingBlock: OJICUG_clean_linker_0, # of connection points: 2
#     Edge 68, Type (0, 0), BuildingBlock: OJICUG_clean_linker_0, # of connection points: 2
#     Edge 69, Type (0, 0), BuildingBlock: OJICUG_clean_linker_0, # of connection points: 2
#     Edge 70, Type (0, 0), BuildingBlock: OJICUG_clean_linker_0, # of connection points: 2
#     Edge 71, Type (0, 0), BuildingBlock: OJICUG_clean_linker_0, # of connection points: 2
#     Edge 72, Type (0, 0), BuildingBlock: OJICUG_clean_linker_0, # of connection points: 2
#     Edge 73, Type (0, 0), BuildingBlock: OJICUG_clean_linker_0, # of connection points: 2
#     Edge 74, Type (0, 0), BuildingBlock: OJICUG_clean_linker_0, # of connection points: 2
#     Edge 75, Type (0, 0), BuildingBlock: OJICUG_clean_linker_0, # of connection points: 2
#     Edge 76, Type (0, 0), BuildingBlock: OJICUG_clean_linker_0, # of connection points: 2
#     Edge 77, Type (0, 0), BuildingBlock: OJICUG_clean_linker_0, # of connection points: 2
#     Edge 78, Type (0, 0), BuildingBlock: OJICUG_clean_linker_0, # of connection points: 2
#     Edge 79, Type (0, 0), BuildingBlock: OJICUG_clean_linker_0, # of connection points: 2
#     Edge 80, Type (0, 0), BuildingBlock: OJICUG_clean_linker_0, # of connection points: 2
#     Edge 81, Type (0, 0), BuildingBlock: OJICUG_clean_linker_0, # of connection points: 2
#     Edge 82, Type (0, 0), BuildingBlock: OJICUG_clean_linker_0, # of connection points: 2
#     Edge 83, Type (0, 0), BuildingBlock: OJICUG_clean_linker_0, # of connection points: 2
#     Edge 84, Type (0, 0), BuildingBlock: OJICUG_clean_linker_0, # of connection points: 2
#     Edge 85, Type (0, 0), BuildingBlock: OJICUG_clean_linker_0, # of connection points: 2
#     Edge 86, Type (0, 0), BuildingBlock: OJICUG_clean_linker_0, # of connection points: 2
#     Edge 87, Type (0, 0), BuildingBlock: OJICUG_clean_linker_0, # of connection points: 2
#     Edge 88, Type (0, 0), BuildingBlock: OJICUG_clean_linker_0, # of connection points: 2
#     Edge 89, Type (0, 0), BuildingBlock: OJICUG_clean_linker_0, # of connection points: 2
#     Edge 90, Type (0, 0), BuildingBlock: OJICUG_clean_linker_0, # of connection points: 2
#     Edge 91, Type (0, 0), BuildingBlock: OJICUG_clean_linker_0, # of connection points: 2
#     Edge 92, Type (0, 0), BuildingBlock: OJICUG_clean_linker_0, # of connection points: 2
#     Edge 93, Type (0, 0), BuildingBlock: OJICUG_clean_linker_0, # of connection points: 2
#     Edge 94, Type (0, 0), BuildingBlock: OJICUG_clean_linker_0, # of connection points: 2
#     Edge 95, Type (0, 0), BuildingBlock: OJICUG_clean_linker_0, # of connection points: 2
#     Edge 96, Type (0, 0), BuildingBlock: OJICUG_clean_linker_0, # of connection points: 2
#     Edge 97, Type (0, 0), BuildingBlock: OJICUG_clean_linker_0, # of connection points: 2
#     Edge 98, Type (0, 0), BuildingBlock: OJICUG_clean_linker_0, # of connection points: 2
#     Edge 99, Type (0, 0), BuildingBlock: OJICUG_clean_linker_0, # of connection points: 2
#     Edge 100, Type (0, 0), BuildingBlock: OJICUG_clean_linker_0, # of connection points: 2
#     Edge 101, Type (0, 0), BuildingBlock: OJICUG_clean_linker_0, # of connection points: 2
#     Edge 102, Type (0, 0), BuildingBlock: OJICUG_clean_linker_0, # of connection points: 2
#     Edge 103, Type (0, 0), BuildingBlock: OJICUG_clean_linker_0, # of connection points: 2
#     Edge 104, Type (0, 0), BuildingBlock: OJICUG_clean_linker_0, # of connection points: 2
#     Edge 105, Type (0, 0), BuildingBlock: OJICUG_clean_linker_0, # of connection points: 2
#     Edge 106, Type (0, 0), BuildingBlock: OJICUG_clean_linker_0, # of connection points: 2
#     Edge 107, Type (0, 0), BuildingBlock: OJICUG_clean_linker_0, # of connection points: 2
# Relax obj value: 0.182
# Max RMSD: 0.213
# Mean RMSD: 0.213
data_MOF--net-umn--node1-CEKHIL_clean_sbu_0--edge1-OJICUG_clean_linker_0
_symmetry_space_group_name_H-M    P1
_symmetry_Int_Tables_number       1
_symmetry_cell_setting            triclinic
loop_
_symmetry_equiv_pos_as_xyz
'x, y, z'
_cell_length_a     60.123849
_cell_length_b     60.156834
_cell_length_c     25.589382
_cell_angle_alpha  89.777666
_cell_angle_beta   90.040069
_cell_angle_gamma 119.88845
loop_
_atom_site_label
_atom_site_type_symbol
_atom_site_fract_x
_atom_site_fract_y
_atom_site_fract_z
_atom_type_partial_charge
Co0 Co 0.36893 0.10483 0.23326 0.0
O1 O 0.37775 0.13967 0.22033 0.0
O2 O 0.33808 0.10681 0.22707 0.0
C3 C 0.39559 0.10299 0.17253 0.0
O4 O 0.353 0.06643 0.24626 0.0
Co5 Co 0.41072 0.09574 0.28035 0.0
O6 O 0.38483 0.05947 0.27202 0.0
C7 C 0.37287 0.09878 0.34941 0.0
C8 C 0.35328 0.13128 0.21949 0.0
C9 C 0.36134 0.05154 0.26185 0.0
O10 O 0.36774 0.10944 0.31134 0.0
O11 O 0.38976 0.09182 0.34544 0.0
O12 O 0.37351 0.10016 0.15971 0.0
O13 O 0.40257 0.11032 0.22052 0.0
Co14 Co 0.88681 0.25673 0.23125 0.0
O15 O 0.85152 0.23152 0.2215 0.0
O16 O 0.88432 0.22444 0.21517 0.0
C17 C 0.88739 0.28795 0.18025 0.0
O18 O 0.92536 0.27849 0.23885 0.0
Co19 Co 0.89638 0.30383 0.29469 0.0
O20 O 0.93235 0.31177 0.29029 0.0
C21 C 0.88968 0.25859 0.35181 0.0
C22 C 0.85966 0.21555 0.21316 0.0
C23 C 0.94009 0.29853 0.2657 0.0
O24 O 0.88522 0.24728 0.30752 0.0
O25 O 0.89329 0.28134 0.35658 0.0
O26 O 0.88903 0.26908 0.1604 0.0
O27 O 0.88149 0.28547 0.22978 0.0
Co28 Co 0.73077 0.62771 0.23423 0.0
O29 O 0.75731 0.61919 0.22677 0.0
O30 O 0.76308 0.65858 0.22273 0.0
C31 C 0.70243 0.59777 0.17755 0.0
O32 O 0.70757 0.6432 0.2391 0.0
Co33 Co 0.67993 0.58822 0.28504 0.0
O34 O 0.66782 0.61014 0.25332 0.0
C35 C 0.72142 0.62656 0.35189 0.0
C36 C 0.77276 0.6435 0.21948 0.0
C37 C 0.68317 0.63364 0.24297 0.0
O38 O 0.73675 0.63278 0.3126 0.0
O39 O 0.69777 0.60911 0.34919 0.0
O40 O 0.72134 0.61929 0.16122 0.0
O41 O 0.70302 0.5934 0.22733 0.0
Co42 Co 0.10159 0.36222 0.31462 0.0
O43 O 0.13687 0.37154 0.3244 0.0
O44 O 0.10376 0.33187 0.3269 0.0
C45 C 0.10101 0.39155 0.36985 0.0
O46 O 0.06297 0.34552 0.30749 0.0
Co47 Co 0.09003 0.40111 0.26015 0.0
O48 O 0.05407 0.37366 0.26739 0.0
C49 C 0.09515 0.36305 0.19608 0.0
C50 C 0.12838 0.3472 0.3309 0.0
C51 C 0.04731 0.35177 0.28714 0.0
O52 O 0.10364 0.35704 0.23672 0.0
O53 O 0.08899 0.38059 0.19687 0.0
O54 O 0.09921 0.37047 0.38707 0.0
O55 O 0.10678 0.39615 0.32045 0.0
Co56 Co 0.62418 0.73278 0.31689 0.0
O57 O 0.6164 0.759 0.33233 0.0
O58 O 0.65569 0.76443 0.33105 0.0
C59 C 0.5943 0.70283 0.37125 0.0
O60 O 0.63784 0.7086 0.3014 0.0
Co61 Co 0.58133 0.68774 0.25693 0.0
O62 O 0.60454 0.67377 0.26531 0.0
C63 C 0.6211 0.73105 0.19682 0.0
C64 C 0.64077 0.77415 0.33805 0.0
C65 C 0.62779 0.68621 0.28038 0.0
O66 O 0.62937 0.74263 0.24054 0.0
O67 O 0.60099 0.70887 0.19368 0.0
O68 O 0.6164 0.72027 0.38824 0.0
O69 O 0.58941 0.70601 0.32302 0.0
Co70 Co 0.25221 0.89186 0.31008 0.0
O71 O 0.22644 0.85663 0.31589 0.0
O72 O 0.22 0.88956 0.32757 0.0
C73 C 0.28251 0.88993 0.35996 0.0
O74 O 0.2752 0.93043 0.30718 0.0
Co75 Co 0.29967 0.9017 0.24626 0.0
O76 O 0.31279 0.93642 0.2751 0.0
C77 C 0.2551 0.89683 0.18947 0.0
C78 C 0.21078 0.86483 0.32706 0.0
C79 C 0.29893 0.94479 0.29482 0.0
O80 O 0.24381 0.89286 0.23387 0.0
O81 O 0.27743 0.8993 0.18457 0.0
O82 O 0.2637 0.89139 0.3808 0.0
O83 O 0.28031 0.8857 0.30975 0.0
Co84 Co 0.62427 0.89023 0.82063 0.0
O85 O 0.61581 0.85542 0.82948 0.0
O86 O 0.65518 0.88886 0.83456 0.0
C87 C 0.59351 0.8889 0.87438 0.0
O88 O 0.63863 0.92861 0.8129 0.0
Co89 Co 0.58314 0.89615 0.76047 0.0
O90 O 0.60557 0.93221 0.78083 0.0
C91 C 0.62266 0.89265 0.69998 0.0
C92 C 0.64004 0.86408 0.83687 0.0
C93 C 0.62848 0.94203 0.79778 0.0
O94 O 0.63111 0.88929 0.7436 0.0
O95 O 0.60233 0.89442 0.69691 0.0
O96 O 0.61477 0.89158 0.89263 0.0
O97 O 0.58982 0.88317 0.82487 0.0
Co98 Co 0.09995 0.73439 0.81512 0.0
O99 O 0.13393 0.76086 0.83061 0.0
O100 O 0.09989 0.76602 0.82798 0.0
C101 C 0.09958 0.70435 0.86994 0.0
O102 O 0.06219 0.71028 0.79942 0.0
Co103 Co 0.0977 0.68901 0.75592 0.0
O104 O 0.06058 0.67557 0.76232 0.0
C105 C 0.10072 0.73203 0.69518 0.0
C106 C 0.12453 0.77598 0.83495 0.0
C107 C 0.04986 0.68809 0.77757 0.0
O108 O 0.10463 0.74397 0.73861 0.0
O109 O 0.09845 0.70973 0.6924 0.0
O110 O 0.09516 0.72202 0.88672 0.0
O111 O 0.10775 0.70747 0.82182 0.0
Co112 Co 0.25127 0.36063 0.8088 0.0
O113 O 0.22583 0.37092 0.81317 0.0
O114 O 0.21839 0.33099 0.82097 0.0
C115 C 0.28025 0.39077 0.86396 0.0
O116 O 0.27273 0.34317 0.80802 0.0
Co117 Co 0.30299 0.39612 0.75759 0.0
O118 O 0.31345 0.3746 0.79679 0.0
C119 C 0.26065 0.35785 0.69249 0.0
C120 C 0.20962 0.34686 0.82168 0.0
C121 C 0.29698 0.35153 0.80782 0.0
O122 O 0.24536 0.35413 0.73083 0.0
O123 O 0.28476 0.37385 0.69507 0.0
O124 O 0.26055 0.37014 0.88129 0.0
O125 O 0.28027 0.39439 0.81362 0.0
Co126 Co 0.88835 0.62873 0.73293 0.0
O127 O 0.85309 0.6196 0.72613 0.0
O128 O 0.88615 0.65921 0.72099 0.0
C129 C 0.88715 0.59871 0.67685 0.0
O130 O 0.92708 0.64488 0.73694 0.0
Co131 Co 0.90113 0.59027 0.78437 0.0
O132 O 0.93468 0.61236 0.75123 0.0
C133 C 0.89727 0.62842 0.85063 0.0
C134 C 0.86147 0.64382 0.71848 0.0
C135 C 0.94229 0.63572 0.7404 0.0
O136 O 0.88781 0.63423 0.81124 0.0
O137 O 0.9039 0.61125 0.84821 0.0
O138 O 0.88912 0.61992 0.66005 0.0
O139 O 0.88253 0.59461 0.72678 0.0
Co140 Co 0.35656 0.25445 0.72735 0.0
O141 O 0.36444 0.22894 0.70666 0.0
O142 O 0.32509 0.22326 0.71027 0.0
C143 C 0.38649 0.28595 0.67553 0.0
O144 O 0.34255 0.27775 0.74772 0.0
Co145 Co 0.39886 0.29794 0.79079 0.0
O146 O 0.37457 0.31087 0.79073 0.0
C147 C 0.35993 0.2525 0.84716 0.0
C148 C 0.3401 0.21396 0.69999 0.0
C149 C 0.35165 0.29881 0.77369 0.0
O150 O 0.35145 0.24226 0.80236 0.0
O151 O 0.37988 0.27468 0.85204 0.0
O152 O 0.36429 0.26916 0.65773 0.0
O153 O 0.39146 0.28144 0.72273 0.0
Co154 Co 0.73137 0.10136 0.73435 0.0
O155 O 0.75777 0.13569 0.72152 0.0
O156 O 0.76289 0.10168 0.71747 0.0
C157 C 0.70098 0.10245 0.68325 0.0
O158 O 0.70685 0.0633 0.74623 0.0
Co159 Co 0.68723 0.09869 0.79963 0.0
O160 O 0.67228 0.06195 0.784 0.0
C161 C 0.73117 0.10159 0.85528 0.0
C162 C 0.77281 0.12646 0.71333 0.0
C163 C 0.684 0.05097 0.76553 0.0
O164 O 0.74144 0.10378 0.8103 0.0
O165 O 0.70956 0.10066 0.86091 0.0
O166 O 0.71863 0.09871 0.66359 0.0
O167 O 0.70449 0.10933 0.7322 0.0
Co168 Co 0.03018 0.43503 0.57072 0.0
O169 O 0.04126 0.47108 0.56765 0.0
O170 O 0.00098 0.43937 0.56143 0.0
C171 C 0.05943 0.43542 0.51363 0.0
O172 O 0.01161 0.39611 0.57084 0.0
Co173 Co 0.06532 0.41682 0.61786 0.0
O174 O 0.04169 0.38474 0.58157 0.0
C175 C 0.02843 0.42185 0.68635 0.0
C176 C 0.01717 0.46388 0.56132 0.0
C177 C 0.01884 0.37933 0.57138 0.0
O178 O 0.02453 0.4339 0.64909 0.0
O179 O 0.04411 0.41336 0.68197 0.0
O180 O 0.03907 0.43551 0.49744 0.0
O181 O 0.06338 0.43858 0.56382 0.0
Co182 Co 0.5527 0.58805 0.56713 0.0
O183 O 0.51896 0.56215 0.54944 0.0
O184 O 0.55279 0.55663 0.55139 0.0
C185 C 0.55331 0.61875 0.51416 0.0
O186 O 0.59031 0.6118 0.58472 0.0
Co187 Co 0.55448 0.63223 0.62922 0.0
O188 O 0.59168 0.64577 0.62477 0.0
C189 C 0.55006 0.58794 0.68714 0.0
C190 C 0.52828 0.54708 0.5432 0.0
C191 C 0.60249 0.63352 0.6084 0.0
O192 O 0.5471 0.57698 0.6428 0.0
O193 O 0.55229 0.61017 0.6914 0.0
O194 O 0.5583 0.6016 0.49664 0.0
O195 O 0.54465 0.61494 0.56199 0.0
Co196 Co 0.39735 0.95861 0.56096 0.0
O197 O 0.42357 0.95035 0.54559 0.0
O198 O 0.42984 0.98978 0.55318 0.0
C199 C 0.36826 0.93164 0.50125 0.0
O200 O 0.37463 0.97403 0.57651 0.0
Co201 Co 0.34733 0.91567 0.60957 0.0
O202 O 0.33747 0.9423 0.60939 0.0
C203 C 0.38889 0.95304 0.67807 0.0
C204 C 0.43931 0.97485 0.54414 0.0
C205 C 0.3523 0.9657 0.59709 0.0
O206 O 0.40424 0.95967 0.6388 0.0
O207 O 0.36528 0.93553 0.67483 0.0
O208 O 0.3869 0.95397 0.48784 0.0
O209 O 0.36954 0.92481 0.54896 0.0
Co210 Co 0.76433 0.69405 0.6498 0.0
O211 O 0.79972 0.70345 0.65584 0.0
O212 O 0.76685 0.66374 0.66108 0.0
C213 C 0.76546 0.72387 0.70629 0.0
O214 O 0.72555 0.67752 0.6466 0.0
Co215 Co 0.75053 0.73206 0.59974 0.0
O216 O 0.71726 0.70967 0.63373 0.0
C217 C 0.75481 0.69444 0.53244 0.0
C218 C 0.79151 0.67924 0.66325 0.0
C219 C 0.71005 0.68636 0.64413 0.0
O220 O 0.76459 0.68871 0.57139 0.0
O221 O 0.74789 0.71138 0.53549 0.0
O222 O 0.76379 0.70275 0.72286 0.0
O223 O 0.76981 0.72801 0.65631 0.0
Co224 Co 0.2935 0.06818 0.63386 0.0
O225 O 0.28235 0.093 0.63588 0.0
O226 O 0.32256 0.10143 0.64525 0.0
C227 C 0.26318 0.03926 0.68907 0.0
O228 O 0.31182 0.04747 0.63529 0.0
Co229 Co 0.25959 0.01605 0.58408 0.0
O230 O 0.28093 0.00647 0.62631 0.0
C231 C 0.29806 0.05837 0.51886 0.0
C232 C 0.30626 0.10969 0.64416 0.0
C233 C 0.30389 0.02333 0.63681 0.0
O234 O 0.30057 0.07372 0.55607 0.0
O235 O 0.28265 0.03416 0.52207 0.0
O236 O 0.28349 0.05925 0.70633 0.0
O237 O 0.25999 0.03879 0.63854 0.0
Co238 Co 0.92052 0.22169 0.6474 0.0
O239 O 0.89491 0.18742 0.6642 0.0
O240 O 0.88838 0.2206 0.66076 0.0
C241 C 0.95122 0.22344 0.70172 0.0
O242 O 0.94348 0.2596 0.63033 0.0
Co243 Co 0.96659 0.22555 0.58768 0.0
O244 O 0.97793 0.26234 0.58912 0.0
C245 C 0.9227 0.22085 0.52781 0.0
C246 C 0.87919 0.19611 0.66853 0.0
C247 C 0.96493 0.27234 0.60559 0.0
O248 O 0.91063 0.21622 0.57133 0.0
O249 O 0.94544 0.22421 0.52464 0.0
O250 O 0.93316 0.22729 0.71859 0.0
O251 O 0.94826 0.21504 0.65391 0.0
Co252 Co 0.29543 0.22171 0.14865 0.0
O253 O 0.28909 0.18841 0.16721 0.0
O254 O 0.32762 0.22317 0.16517 0.0
C255 C 0.26447 0.22132 0.20032 0.0
O256 O 0.30758 0.25901 0.13039 0.0
Co257 Co 0.25196 0.22097 0.08448 0.0
O258 O 0.2737 0.25838 0.09106 0.0
C259 C 0.2926 0.21742 0.0283 0.0
C260 C 0.31356 0.19856 0.17359 0.0
C261 C 0.29672 0.2703 0.10766 0.0
O262 O 0.30157 0.21646 0.07321 0.0
O263 O 0.27168 0.21797 1.02322 0.0
O264 O 0.28663 0.22684 0.21882 0.0
O265 O 0.26022 0.21255 0.15268 0.0
Co266 Co 0.76487 0.06776 0.15258 0.0
O267 O 0.79869 0.09376 0.16965 0.0
O268 O 0.76489 0.09933 0.16689 0.0
C269 C 0.76396 0.03707 0.20601 0.0
O270 O 0.72726 0.04406 0.13536 0.0
Co271 Co 0.76283 0.02312 0.09125 0.0
O272 O 0.72568 0.00979 0.0962 0.0
C273 C 0.76695 0.06711 0.03262 0.0
C274 C 0.78945 0.10899 0.17445 0.0
C275 C 0.71499 0.02222 0.1122 0.0
O276 O 0.77035 0.07837 0.07671 0.0
O277 O 0.76454 0.04479 0.02869 0.0
O278 O 0.75935 0.05451 0.22343 0.0
O279 O 0.77258 0.04071 0.15818 0.0
Co280 Co 0.91991 0.69583 0.14816 0.0
O281 O 0.89345 0.70461 0.15377 0.0
O282 O 0.88744 0.66515 0.15894 0.0
C283 C 0.94791 0.72575 0.20522 0.0
O284 O 0.94283 0.67997 0.14541 0.0
Co285 Co 0.97148 0.73448 0.09903 0.0
O286 O 0.98297 0.71268 0.13374 0.0
C287 C 0.93033 0.69647 0.03105 0.0
C288 C 0.87785 0.68032 0.16113 0.0
C289 C 0.96723 0.68922 0.14364 0.0
O290 O 0.91465 0.69058 0.06966 0.0
O291 O 0.95406 0.71362 0.03455 0.0
O292 O 0.9287 0.7044 0.22133 0.0
O293 O 0.94785 0.73002 0.15523 0.0
Co294 Co 0.55359 0.96331 0.07096 0.0
O295 O 0.51833 0.9539 0.06428 0.0
O296 O 0.55134 0.99353 0.05722 0.0
C297 C 0.55209 0.93278 1.0164 0.0
O298 O 0.59233 0.97967 0.07429 0.0
Co299 Co 0.56723 0.92631 0.12458 0.0
O300 O 0.60002 0.94722 0.08791 0.0
C301 C 0.56355 0.96523 0.18826 0.0
C302 C 0.52668 0.97799 0.05498 0.0
C303 C 0.60754 0.9705 0.07657 0.0
O304 O 0.55321 0.96976 0.14872 0.0
O305 O 0.57084 0.94852 0.18692 0.0
O306 O 0.5541 0.95386 0.99878 0.0
O307 O 0.54777 0.92908 0.06656 0.0
Co308 Co 0.02275 0.58835 0.06284 0.0
O309 O 0.02937 0.56192 0.04245 0.0
O310 O 0.99061 0.55769 0.04607 0.0
C311 C 0.05326 0.61918 1.01058 0.0
O312 O 0.01019 0.61291 0.08284 0.0
Co313 Co 0.06618 0.63108 0.12584 0.0
O314 O 0.04368 0.6461 0.12254 0.0
C315 C 0.0264 0.58645 0.18287 0.0
C316 C 0.00494 0.54761 0.03575 0.0
C317 C 0.02055 0.63465 0.10661 0.0
O318 O 0.01735 0.57638 0.13815 0.0
O319 O 0.04698 0.60817 0.18738 0.0
O320 O 0.03086 0.60282 0.99294 0.0
O321 O 0.05798 0.61448 0.05785 0.0
Co322 Co 0.39534 0.43213 0.05984 0.0
O323 O 0.42115 0.46752 0.05461 0.0
O324 O 0.42806 0.43474 0.04639 0.0
C325 C 0.36584 0.43354 1.00642 0.0
O326 O 0.37263 0.39345 0.06299 0.0
Co327 Co 0.34623 0.42138 0.11817 0.0
O328 O 0.33403 0.3867 0.08995 0.0
C329 C 0.38958 0.42626 0.17993 0.0
C330 C 0.4372 0.45945 0.04654 0.0
C331 C 0.34871 0.37863 0.07337 0.0
O332 O 0.40221 0.43136 0.13696 0.0
O333 O 0.36683 0.42296 0.18223 0.0
O334 O 0.38517 0.43227 0.98781 0.0
O335 O 0.36703 0.43792 0.05651 0.0
Co336 Co 0.69049 0.76627 0.89648 0.0
O337 O 0.69957 0.80132 0.88772 0.0
O338 O 0.66018 0.76815 0.8798 0.0
C339 C 0.72198 0.76724 0.84554 0.0
O340 O 0.67541 0.72778 0.9032 0.0
Co341 Co 0.72955 0.75865 0.96035 0.0
O342 O 0.70772 0.72312 0.93601 0.0
C343 C 0.68987 0.76339 1.0174 0.0
C344 C 0.67552 0.7929 0.87834 0.0
C345 C 0.68515 0.71393 0.91753 0.0
O346 O 0.6822 0.76685 0.9729 0.0
O347 O 0.70988 0.76116 1.02221 0.0
O348 O 0.70131 0.7652 0.82544 0.0
O349 O 0.72483 0.77269 0.89526 0.0
Co350 Co 0.21831 0.92485 0.8908 0.0
O351 O 0.18404 0.89883 0.87522 0.0
O352 O 0.21752 0.89278 0.87955 0.0
C353 C 0.21996 0.95502 0.83479 0.0
O354 O 0.25621 0.94798 0.90659 0.0
Co355 Co 0.22262 0.9717 0.94765 0.0
O356 O 0.2595 0.98334 0.94415 0.0
C357 C 0.21778 0.92841 1.0103 0.0
C358 C 0.19297 0.88325 0.87211 0.0
C359 C 0.26928 0.96994 0.92897 0.0
O360 O 0.21311 0.91586 0.9675 0.0
O361 O 0.22119 0.95119 1.012 0.0
O362 O 0.2237 0.93677 0.81891 0.0
O363 O 0.21163 0.9525 0.88269 0.0
Co364 Co 0.0641 0.29549 0.90502 0.0
O365 O 0.08978 0.28729 0.88627 0.0
O366 O 0.09623 0.32682 0.89322 0.0
C367 C 0.03411 0.26769 0.84792 0.0
O368 O 0.04126 0.31046 0.92358 0.0
Co369 Co 0.01634 0.25286 0.95896 0.0
O370 O 0.00498 0.27828 0.95831 0.0
C371 C 0.05941 0.29098 1.02291 0.0
C372 C 0.10534 0.31172 0.88249 0.0
C373 C 0.01908 0.30168 0.94522 0.0
O374 O 0.07342 0.29745 0.98166 0.0
O375 O 0.03575 0.27349 1.02246 0.0
O376 O 0.05188 0.29023 0.83346 0.0
O377 O 0.03653 0.26116 0.89529 0.0
Co378 Co 0.43052 0.02634 0.96976 0.0
O379 O 0.46574 0.03567 0.97684 0.0
O380 O 0.43266 -0.00391 0.98403 0.0
C381 C 0.43215 0.05705 0.02385 0.0
O382 O 0.39175 0.01004 0.96614 0.0
Co383 Co 0.41714 0.06335 0.9154 0.0
O384 O 0.38414 0.04247 0.95134 0.0
C385 C 0.42113 0.02448 0.85226 0.0
C386 C 0.45733 0.01159 0.98639 0.0
C387 C 0.37658 0.01925 0.96328 0.0
O388 O 0.4311 0.01978 0.89219 0.0
O389 O 0.41389 0.04122 0.85317 0.0
O390 O 0.42993 0.03591 0.04172 0.0
O391 O 0.43652 0.06067 0.9737 0.0
Co392 Co 0.95601 0.40069 0.97717 0.0
O393 O 0.9448 0.42556 0.97788 0.0
O394 O 0.98519 0.43423 0.98441 0.0
C395 C 0.92701 0.37284 0.03587 0.0
O396 O 0.97458 0.38029 0.97931 0.0
Co397 Co 0.92092 0.34687 0.93386 0.0
O398 O 0.94409 0.33888 0.97394 0.0
C399 C 0.9576 0.38763 0.86288 0.0
C400 C 0.96887 0.44246 0.98362 0.0
C401 C 0.96713 0.35628 0.98227 0.0
O402 O 0.96134 0.40409 0.89862 0.0
O403 O 0.94211 0.36357 0.86903 0.0
O404 O 0.94746 0.39339 0.05086 0.0
O405 O 0.92286 0.37134 0.98566 0.0
Co406 Co 0.58546 0.55531 0.98638 0.0
O407 O 0.55927 0.52119 1.00159 0.0
O408 O 0.55386 0.55504 1.00288 0.0
C409 C 0.6163 0.55522 0.03781 0.0
O410 O 0.60967 0.59316 0.97156 0.0
Co411 Co 0.62948 0.55728 0.92171 0.0
O412 O 0.64396 0.59431 0.93295 0.0
C413 C 0.58521 0.55359 0.86564 0.0
C414 C 0.54409 0.53035 1.00861 0.0
C415 C 0.63211 0.60537 0.95036 0.0
O416 O 0.57488 0.5515 0.91053 0.0
O417 O 0.60699 0.55482 0.86034 0.0
O418 O 0.59878 0.5593 0.05701 0.0
O419 O 0.61244 0.5475 0.98941 0.0
Co420 Co 0.96308 0.55713 0.48678 0.0
O421 O 0.95636 0.52366 0.50455 0.0
O422 O -0.00492 0.55814 0.5038 0.0
C423 C 0.93205 0.55687 0.53828 0.0
O424 O 0.97546 0.59449 0.4697 0.0
Co425 Co 0.9198 0.557 0.42237 0.0
O426 O 0.94141 0.59428 0.43207 0.0
C427 C 0.9602 0.55304 0.36611 0.0
C428 C 0.98074 0.53355 0.51191 0.0
C429 C 0.96444 0.606 0.44869 0.0
O430 O 0.96938 0.55231 0.411 0.0
O431 O 0.93924 0.55352 0.36119 0.0
O432 O 0.95401 0.56191 0.55711 0.0
O433 O 0.92801 0.5484 0.49042 0.0
Co434 Co 0.43174 0.4 0.4806 0.0
O435 O 0.46705 0.42598 0.48399 0.0
O436 O 0.43399 0.43246 0.49383 0.0
C437 C 0.43409 0.37112 0.5344 0.0
O438 O 0.39311 0.37703 0.47976 0.0
Co439 Co 0.42076 0.35061 0.42373 0.0
O440 O 0.38658 0.33827 0.45516 0.0
C441 C 0.42461 0.39335 0.36098 0.0
C442 C 0.45874 0.44176 0.49303 0.0
C443 C 0.37848 0.35292 0.47158 0.0
O444 O 0.43008 0.40632 0.40342 0.0
O445 O 0.42147 0.37068 0.35931 0.0
O446 O 0.43278 0.39044 0.5527 0.0
O447 O 0.43791 0.37198 0.48407 0.0
Co448 Co 0.58831 0.03171 0.47978 0.0
O449 O 0.56156 0.03912 0.49493 0.0
O450 O 0.55618 2e-05 0.48817 0.0
C451 C 0.61686 0.05941 0.53936 0.0
O452 O 0.61211 0.01742 0.46452 0.0
Co453 Co 0.63733 0.07514 0.4304 0.0
O454 O 0.64962 0.05054 0.43685 0.0
C455 C 0.59634 0.03676 0.3626 0.0
C456 C 0.54624 0.01458 0.49692 0.0
C457 C 0.63525 0.02686 0.44736 0.0
O458 O 0.58112 0.03013 0.40203 0.0
O459 O 0.61984 0.05456 0.36547 0.0
O460 O 0.59878 0.0368 0.55277 0.0
O461 O 0.61538 0.06601 0.49152 0.0
Co462 Co 0.22005 0.29045 0.40129 0.0
O463 O 0.18613 0.28334 0.38533 0.0
O464 O 0.21999 0.32234 0.39165 0.0
C465 C 0.2209 0.26234 0.34275 0.0
O466 O 0.25791 0.30437 0.41722 0.0
Co467 Co 0.22491 0.24684 0.45258 0.0
O468 O 0.26181 0.2711 0.44634 0.0
C469 C 0.22247 0.28582 0.51886 0.0
C470 C 0.19554 0.30791 0.38262 0.0
C471 C 0.27135 0.29475 0.43514 0.0
O472 O 0.21427 0.29251 0.47879 0.0
O473 O 0.22787 0.26776 0.5169 0.0
O474 O 0.22555 0.28493 0.32868 0.0
O475 O 0.21263 0.25599 0.39054 0.0
Co476 Co 0.69081 0.9216 0.3987 0.0
O477 O 0.70031 0.89571 0.39402 0.0
O478 O 0.66077 0.88917 0.38441 0.0
C479 C 0.72211 0.95095 0.34584 0.0
O480 O 0.67493 0.94448 0.40084 0.0
Co481 Co 0.72877 0.97053 0.45709 0.0
O482 O 0.70691 0.98312 0.42646 0.0
C483 C 0.6902 0.92706 0.51862 0.0
C484 C 0.6763 0.87992 0.38475 0.0
C485 C 0.6842 0.9685 0.40991 0.0
O486 O 0.68276 0.91451 0.47569 0.0
O487 O 0.70958 0.94978 0.52094 0.0
O488 O 0.70152 0.93189 0.3269 0.0
O489 O 0.72495 0.94966 0.3961 0.0
Co490 Co 0.06429 0.76685 0.39611 0.0
O491 O 0.09017 0.8018 0.3876 0.0
O492 O 0.09628 0.76854 0.37839 0.0
C493 C 0.03381 0.76828 0.34592 0.0
O494 O 0.0409 0.72842 0.40232 0.0
Co495 Co 0.01796 0.75906 0.46085 0.0
O496 O 0.00397 0.72368 0.43525 0.0
C497 C 0.06256 0.76363 0.51699 0.0
C498 C 0.10564 0.79329 0.37714 0.0
C499 C 0.01732 0.71453 0.41638 0.0
O500 O 0.07348 0.76716 0.47227 0.0
O501 O 0.04035 0.7614 0.5223 0.0
O502 O 0.05225 0.76608 0.32542 0.0
O503 O 0.03649 0.77353 0.39575 0.0
C504 C 0.30174 0.98578 0.26823 0.0
C505 C 0.31101 0.97256 0.2983 0.0
H506 H 0.31078 0.0216 0.23187 0.0
C507 C 0.33552 0.98582 0.32009 0.0
H508 H 0.28296 0.97558 0.25026 0.0
C509 C 0.3514 0.01158 0.30888 0.0
C510 C 0.34314 0.02463 0.27535 0.0
H511 H 0.343 0.97582 0.34303 0.0
H512 H 0.37053 0.02102 0.32538 0.0
C513 C 0.31777 0.01185 0.2569 0.0
C514 C 0.0047 0.32486 0.32709 0.0
C515 C 0.02032 0.33262 0.28271 0.0
H516 H 0.96619 0.30755 0.35576 0.0
C517 C 0.00936 0.32561 0.23274 0.0
H518 H 0.01297 0.33039 0.36577 0.0
C519 C 0.98278 0.31229 0.22692 0.0
C520 C 0.96718 0.30656 0.2711 0.0
H521 H 0.02137 0.33171 0.19815 0.0
H522 H 0.97456 0.30832 0.18805 0.0
C523 C 0.97816 0.31202 0.32125 0.0
C524 C 0.68334 0.67309 0.27307 0.0
C525 C 0.67207 0.65042 0.24354 0.0
H526 H 0.67789 0.70224 0.3092 0.0
C527 C 0.64733 0.64087 0.22371 0.0
H528 H 0.70234 0.68049 0.28949 0.0
C529 C 0.63334 0.65278 0.23565 0.0
C530 C 0.64375 0.67462 0.26785 0.0
H531 H 0.63829 0.62338 0.20094 0.0
H532 H 0.61405 0.64437 0.22024 0.0
C533 C 0.66922 0.6852 0.28515 0.0
C534 C 0.6705 0.98277 0.7849 0.0
C535 C 0.64393 0.97011 0.79447 0.0
H536 H 0.70431 0.01866 0.76672 0.0
C537 C 0.63103 0.98412 0.79305 0.0
H538 H 0.68078 0.97224 0.78488 0.0
C539 C 0.64408 0.01001 0.78118 0.0
C540 C 0.67059 0.02288 0.77128 0.0
H541 H 0.61055 0.97494 0.80009 0.0
H542 H 0.63325 0.01998 0.78013 0.0
C543 C 0.6838 0.00909 0.77332 0.0
C544 C 0.00742 0.68696 0.78365 0.0
C545 C 0.02246 0.67689 0.76441 0.0
H546 H 0.96947 0.68177 0.7897 0.0
C547 C 0.01127 0.65584 0.73013 0.0
H548 H 0.01562 0.70341 0.80934 0.0
C549 C 0.98539 0.64398 0.71833 0.0
C550 C 0.97003 0.65287 0.74028 0.0
H551 H 0.02232 0.64793 0.71315 0.0
H552 H 0.97706 0.62694 0.69418 0.0
C553 C 0.98123 0.67493 0.77164 0.0
C554 C 0.31078 0.3004 0.76483 0.0
C555 C 0.335 0.30936 0.78772 0.0
H556 H 0.27892 0.30674 0.75483 0.0
C557 C 0.3437 0.32905 0.82514 0.0
H558 H 0.30341 0.28499 0.7366 0.0
C559 C 0.32967 0.34108 0.83591 0.0
C560 C 0.30657 0.33356 0.80993 0.0
H561 H 0.36191 0.33597 0.84486 0.0
H562 H 0.33767 0.35738 0.8621 0.0
C563 C 0.29659 0.31249 0.77594 0.0
C564 C 0.00522 0.33606 0.5398 0.0
C565 C -0.00019 0.35212 0.5698 0.0
H566 H -0.00191 0.29823 0.52729 0.0
C567 C 0.98026 0.34154 0.60765 0.0
H568 H 0.02033 0.34395 0.51065 0.0
C569 C 0.96776 0.3152 0.61844 0.0
C570 C 0.97489 0.29945 0.59142 0.0
H571 H 0.97621 0.35387 0.63182 0.0
H572 H 0.95378 0.3075 0.64975 0.0
C573 C -0.00724 0.30997 0.55021 0.0
C574 C 0.64512 0.63529 0.59998 0.0
C575 C 0.62985 0.64455 0.62166 0.0
H576 H 0.68329 0.64131 0.59152 0.0
C577 C 0.64086 0.6648 0.65788 0.0
H578 H 0.63708 0.61947 0.57269 0.0
C579 C 0.66684 0.67683 0.66904 0.0
C580 C 0.6824 0.66883 0.64465 0.0
H581 H 0.6296 0.67201 0.67671 0.0
H582 H 0.67506 0.69336 0.69462 0.0
C583 C 0.67137 0.64743 0.61145 0.0
C584 C 0.34185 0.02276 0.60106 0.0
C585 C 0.32222 0.01415 0.63869 0.0
H586 H 0.3668 0.01371 0.55723 0.0
C587 C 0.31543 0.99177 0.66705 0.0
H588 H 0.34699 0.03983 0.57811 0.0
C589 C 0.32621 0.97678 0.65454 0.0
C590 C 0.34396 0.98385 0.61327 0.0
H591 H 0.30023 0.98481 0.696 0.0
H592 H 0.3197 0.95898 0.67582 0.0
C593 C 0.35279 0.00764 0.58845 0.0
C594 C 0.31167 0.33563 0.06031 0.0
C595 C 0.33764 0.35077 0.07289 0.0
H596 H 0.27845 0.29885 0.06243 0.0
C597 C 0.35086 0.33925 0.09493 0.0
H598 H 0.30107 0.34415 0.04353 0.0
C599 C 0.33775 0.31298 0.10667 0.0
C600 C 0.31135 0.29807 0.09631 0.0
H601 H 0.37086 0.35077 0.10581 0.0
H602 H 0.34811 0.30451 0.12462 0.0
C603 C 0.29868 0.30967 0.07187 0.0
C604 C 0.64658 0.0095 0.10749 0.0
C605 C 0.63523 0.98764 0.0756 0.0
H606 H 0.68107 0.03758 0.14539 0.0
C607 C 0.65045 0.97885 0.05256 0.0
H608 H 0.63492 0.01625 0.12635 0.0
C609 C 0.67637 0.99057 0.06395 0.0
C610 C 0.68767 0.01132 0.09894 0.0
H611 H 0.64197 0.96195 0.02801 0.0
H612 H 0.68734 0.98274 0.04628 0.0
C613 C 0.67278 0.02135 0.11913 0.0
C614 C 0.00248 0.68105 0.1637 0.0
C615 C 0.97782 0.67201 0.14369 0.0
H616 H 0.03524 0.67657 0.16736 0.0
C617 C 0.96611 0.64926 0.11445 0.0
H618 H 0.01185 0.69859 0.18628 0.0
C619 C 0.97972 0.63664 0.10255 0.0
C620 C 0.00512 0.64671 0.1199 0.0
H621 H 0.94717 0.64222 0.09795 0.0
H622 H 0.97071 0.61962 0.0785 0.0
C623 C 0.01596 0.66856 0.15205 0.0
C624 C 0.66984 0.64597 0.92106 0.0
C625 C 0.64469 0.63326 0.9411 0.0
H626 H 0.70169 0.68118 0.89556 0.0
C627 C 0.63173 0.64711 0.94781 0.0
H628 H 0.68045 0.63601 0.91473 0.0
C629 C 0.64416 0.6734 0.93619 0.0
C630 C 0.66959 0.68594 0.91788 0.0
H631 H 0.61221 0.63775 0.96232 0.0
H632 H 0.63442 0.6841 0.94391 0.0
C633 C 0.68203 0.67188 0.90941 0.0
C634 C 0.33712 0.98097 0.93145 0.0
C635 C 0.34887 0.00224 0.96487 0.0
H636 H 0.30233 0.95406 0.89265 0.0
C637 C 0.33402 0.01092 0.98993 0.0
H638 H 0.34851 0.97436 0.91101 0.0
C639 C 0.30808 -0.00021 0.97898 0.0
C640 C 0.29644 0.9798 0.94235 0.0
H641 H 0.34283 0.02739 1.01563 0.0
H642 H 0.29739 0.00754 0.99817 0.0
C643 C 0.31091 0.96973 0.92024 0.0
C644 C 0.01773 0.34262 0.93508 0.0
C645 C 0.00985 0.3192 0.96076 0.0
H646 H 0.01027 0.37365 0.92323 0.0
C647 C 0.99195 0.31174 1.00187 0.0
H648 H 0.03181 0.34899 0.90394 0.0
C649 C 0.98009 0.32585 1.0133 0.0
C650 C 0.986 0.34779 0.98414 0.0
H651 H 0.98617 0.29425 0.02384 0.0
H652 H 0.96489 0.31857 0.04225 0.0
C653 C 0.00576 0.35689 0.94671 0.0
C654 C 0.97851 0.67218 0.41125 0.0
C655 C 0.00518 0.68657 0.41677 0.0
H656 H 0.94483 0.63593 0.41867 0.0
C657 C 0.0189 0.67433 0.43183 0.0
H658 H 0.96751 0.68123 0.39988 0.0
C659 C 0.00579 0.64805 0.44323 0.0
C660 C 0.97891 0.63387 0.4394 0.0
H661 H 0.0395 0.68525 0.43717 0.0
H662 H 0.01662 0.63893 0.45523 0.0
C663 C 0.96552 0.64621 0.42257 0.0
C664 C 0.31232 0.33736 0.43289 0.0
C665 C 0.29846 0.31164 0.44927 0.0
H666 H 0.34936 0.3714 0.4288 0.0
C667 C 0.31055 0.30182 0.48151 0.0
H668 H 0.30335 0.34558 0.40894 0.0
C669 C 0.33635 0.31657 0.49355 0.0
C670 C 0.35066 0.3415 0.47386 0.0
H671 H 0.30033 0.28236 0.49641 0.0
H672 H 0.34554 0.30794 0.51562 0.0
C673 C 0.33841 0.35226 0.4451 0.0
C674 C 0.64498 0.96928 0.43777 0.0
C675 C 0.66769 0.97988 0.40815 0.0
H676 H 0.61685 0.97613 0.4747 0.0
C677 C 0.67798 0.00466 0.38785 0.0
H678 H 0.63706 0.95026 0.45457 0.0
C679 C 0.66692 0.01943 0.39998 0.0
C680 C 0.64532 0.0098 0.43301 0.0
H681 H 0.69555 0.01318 0.36514 0.0
H682 H 0.67589 0.03878 0.3845 0.0
C683 C 0.63376 0.9842 0.45009 0.0
C684 C 0.32755 0.05476 0.45453 0.0
C685 C 0.31639 0.06879 0.47402 0.0
H686 H 0.35472 0.05366 0.4019 0.0
C687 C 0.32503 0.09362 0.45397 0.0
H688 H 0.32177 0.03581 0.46978 0.0
C689 C 0.34376 0.10377 0.41422 0.0
C690 C 0.35516 0.08982 0.39536 0.0
H691 H 0.31707 0.10506 0.46861 0.0
H692 H 0.34939 0.12256 0.39833 0.0
C693 C 0.34685 0.06523 0.41631 0.0
C694 C 0.91666 0.22353 0.43047 0.0
C695 C 0.9114 0.22722 0.48212 0.0
H696 H 0.91307 0.22978 0.34908 0.0
C697 C 0.89734 0.23998 0.49047 0.0
H698 H 0.92765 0.21412 0.42262 0.0
C699 C 0.88969 0.24973 0.44848 0.0
C700 C 0.89509 0.24619 0.39688 0.0
H701 H 0.89334 0.24362 0.52981 0.0
H702 H 0.87989 0.26035 0.45643 0.0
C703 C 0.9082 0.23249 0.3884 0.0
C704 C 0.76317 0.66883 0.46414 0.0
C705 C 0.74753 0.67799 0.48482 0.0
H706 H 0.76756 0.64582 0.40494 0.0
C707 C 0.72325 0.66938 0.46233 0.0
H708 H 0.78185 0.67487 0.48095 0.0
C709 C 0.71465 0.65193 0.42083 0.0
C710 C 0.73034 0.64308 0.39939 0.0
H711 H 0.71051 0.67564 0.47779 0.0
H712 H 0.69584 0.64583 0.40455 0.0
C713 C 0.75491 0.65204 0.42099 0.0
C714 C 0.10045 0.33209 0.13683 0.0
C715 C 0.08799 0.34601 0.1493 0.0
H716 H 0.10165 0.30403 0.08619 0.0
C717 C 0.06616 0.34114 0.12021 0.0
H718 H 0.11716 0.33516 0.15876 0.0
C719 C 0.05663 0.32252 0.08098 0.0
C720 C 0.06905 0.30872 0.06827 0.0
H721 H 0.05581 0.35115 0.12891 0.0
H722 H 0.03966 0.31922 0.05977 0.0
C723 C 0.09143 0.31407 0.09579 0.0
C724 C 0.66516 0.75619 0.15734 0.0
C725 C 0.63828 0.74221 0.1503 0.0
H726 H 0.70251 0.77342 0.12155 0.0
C727 C 0.62876 0.73691 0.09902 0.0
H728 H 0.67327 0.7603 0.19629 0.0
C729 C 0.64565 0.74514 0.0561 0.0
C730 C 0.67252 0.75812 0.06328 0.0
H731 H 0.60829 0.72602 0.09209 0.0
H732 H 0.6376 0.74021 1.01717 0.0
C733 C 0.68203 0.76366 0.11451 0.0
C734 C 0.24617 0.89589 0.09273 0.0
C735 C 0.24297 0.90218 0.14383 0.0
H736 H 0.23986 0.89841 1.01107 0.0
C737 C 0.22962 0.91572 0.15107 0.0
H738 H 0.25647 0.88567 0.08572 0.0
C739 C 0.22069 0.92373 0.10817 0.0
C740 C 0.22406 0.91759 0.057 0.0
H741 H 0.22711 0.9212 0.18995 0.0
H742 H 0.21154 0.93506 0.11499 0.0
C743 C 0.23647 0.90311 0.05 0.0
C744 C 0.62978 0.89324 0.60228 0.0
C745 C 0.63965 0.89871 0.65327 0.0
H746 H 0.63807 0.89717 0.52014 0.0
C747 C 0.66656 0.9124 0.65965 0.0
H748 H 0.60924 0.88297 0.5959 0.0
C749 C 0.68312 0.92125 0.61629 0.0
C750 C 0.67325 0.91589 0.56532 0.0
H751 H 0.67489 0.91733 0.69837 0.0
H752 H 0.70362 0.93253 0.62266 0.0
C753 C 0.64637 0.90134 0.55892 0.0
C754 C 0.08875 0.74534 0.55482 0.0
C755 C 0.07493 0.75839 0.56249 0.0
H756 H 0.10738 0.72637 0.59016 0.0
C757 C 0.07144 0.76417 0.61386 0.0
H758 H 0.09151 0.74023 0.51578 0.0
C759 C 0.0813 0.75692 0.65633 0.0
C760 C 0.09417 0.74291 0.64884 0.0
H761 H 0.0608 0.774 0.62127 0.0
H762 H 0.07768 0.76123 0.69542 0.0
C763 C 0.09785 0.73731 0.59743 0.0
C764 C 0.21673 0.31442 0.5839 0.0
C765 C 0.23069 0.3029 0.5656 0.0
H766 H 0.21488 0.34043 0.63922 0.0
C767 C 0.25468 0.3103 0.58843 0.0
H768 H 0.1984 0.30944 0.56659 0.0
C769 C 0.26462 0.32887 0.62787 0.0
C770 C 0.2506 0.34013 0.64686 0.0
H771 H 0.26623 0.3023 0.57456 0.0
H772 H 0.28316 0.33401 0.64445 0.0
C773 C 0.2263 0.33236 0.62502 0.0
C774 C 0.89698 0.67088 0.96177 0.0
C775 C 0.92156 0.67998 0.98344 0.0
H776 H 0.87008 0.64789 0.90187 0.0
C777 C 0.93737 0.67128 0.96197 0.0
H778 H 0.88423 0.67699 0.97778 0.0
C779 C 0.92886 0.6538 0.9205 0.0
C780 C 0.90453 0.64501 0.89805 0.0
H781 H 0.95621 0.67749 0.97823 0.0
H782 H 0.94167 0.64763 0.90505 0.0
C783 C 0.8888 0.65406 0.91866 0.0
C784 C 0.29973 0.217 0.93082 0.0
C785 C 0.3096 0.22242 0.98183 0.0
H786 H 0.30788 0.22143 0.84872 0.0
C787 C 0.33653 0.23575 0.9881 0.0
H788 H 0.2792 0.207 0.92439 0.0
C789 C 0.35307 0.24469 0.94468 0.0
C790 C 0.34319 0.23986 0.89367 0.0
H791 H 0.34492 0.2406 0.02677 0.0
H792 H 0.37357 0.256 0.95108 0.0
C793 C 0.31629 0.22525 0.8874 0.0
C794 C 0.75648 0.08228 0.89275 0.0
C795 C 0.74325 0.09591 0.9007 0.0
H796 H 0.774 0.06213 0.92757 0.0
C797 C 0.73981 0.10156 0.95219 0.0
H798 H 0.75919 0.07723 0.85362 0.0
C799 C 0.74903 0.09352 0.9945 0.0
C800 C 0.76123 0.07888 0.98665 0.0
H801 H 0.72959 0.11179 0.95985 0.0
H802 H 0.74541 0.0977 0.03369 0.0
C803 C 0.76497 0.07352 0.93512 0.0
C804 C 0.00228 0.38978 0.75553 0.0
C805 C 0.01131 0.4142 0.73316 0.0
H806 H 0.97771 0.36206 0.81217 0.0
C807 C 0.00169 0.42965 0.75261 0.0
H808 H 0.00883 0.37714 0.74091 0.0
C809 C 0.98401 0.42109 0.79434 0.0
C810 C 0.97469 0.39644 0.81599 0.0
H811 H 0.008 0.44842 0.73583 0.0
H812 H 0.97747 0.43365 0.8094 0.0
C813 C 0.98403 0.38092 0.79581 0.0
C814 C 0.57699 0.55356 0.76847 0.0
C815 C 0.57309 0.55897 0.81985 0.0
H816 H 0.57196 0.55763 0.68677 0.0
C817 C 0.55952 0.5723 0.82732 0.0
H818 H 0.58749 0.54357 0.76117 0.0
C819 C 0.55121 0.58106 0.78465 0.0
C820 C 0.55547 0.57599 0.73324 0.0
H821 H 0.55646 0.57718 0.86634 0.0
H822 H 0.54195 0.59225 0.79189 0.0
C823 C 0.56794 0.56158 0.72583 0.0
C824 C 0.3887 -0.00463 0.7874 0.0
C825 C 0.41392 0.00689 0.80662 0.0
H826 H 0.36093 0.96866 0.7339 0.0
C827 C 0.43077 -0.00054 0.7851 0.0
H828 H 0.37508 0.00025 0.80383 0.0
C829 C 0.42278 0.98162 0.74383 0.0
C830 C 0.39738 0.96987 0.72517 0.0
H831 H 0.45021 0.00774 0.79961 0.0
H832 H 0.43639 0.97694 0.72667 0.0
C833 C 0.38046 0.97688 0.7479 0.0
C834 C 0.59577 0.99329 0.25485 0.0
C835 C 0.5709 0.98279 0.2341 0.0
H836 H 0.62344 0.01919 0.30971 0.0
C837 C 0.55457 0.99119 0.25437 0.0
H838 H 0.60902 0.98765 0.23951 0.0
C839 C 0.56271 0.00901 0.29569 0.0
C840 C 0.5878 0.0198 0.31572 0.0
H841 H 0.53541 0.9837 0.23878 0.0
H842 H 0.54948 0.01448 0.31176 0.0
C843 C 0.60421 0.01176 0.29447 0.0
C844 C 0.96667 0.55197 0.26844 0.0
C845 C 0.97689 0.55765 0.31919 0.0
H846 H 0.97423 0.55577 0.1861 0.0
C847 C 0.00386 0.57081 0.32465 0.0
H848 H 0.9461 0.54208 0.2626 0.0
C849 C 0.02009 0.57931 0.28071 0.0
C850 C 0.00987 0.57423 0.22994 0.0
H851 H 0.01252 0.57587 0.36306 0.0
H852 H 0.04064 0.59048 0.28653 0.0
C853 C 0.98292 0.5598 0.22452 0.0
C854 C 0.41468 0.40741 0.22001 0.0
C855 C 0.40066 0.42031 0.22656 0.0
H856 H 0.43279 0.38829 0.25683 0.0
C857 C 0.39586 0.42532 0.27759 0.0
H858 H 0.41839 0.40286 0.1812 0.0
C859 C 0.40485 0.41764 0.32086 0.0
C860 C 0.41808 0.40394 0.3143 0.0
H861 H 0.38498 0.43499 0.28406 0.0
H862 H 0.40046 0.42149 0.35969 0.0
C863 C 0.42288 0.39893 0.26328 0.0
C864 C 0.30744 0.15592 0.19822 0.0
C865 C 0.32426 0.18209 0.18793 0.0
H866 H 0.30341 0.1194 0.21622 0.0
C867 C 0.3508 0.19164 0.18961 0.0
H868 H 0.28683 0.14795 0.19736 0.0
C869 C 0.36029 0.17512 0.20048 0.0
C870 C 0.34337 0.14886 0.20981 0.0
H871 H 0.36415 0.21169 0.18177 0.0
H872 H 0.38087 0.18287 0.20097 0.0
C873 C 0.31689 0.13949 0.20902 0.0
C874 C 0.83331 0.14514 0.19059 0.0
C875 C 0.80688 0.13622 0.18562 0.0
H876 H 0.87068 0.17722 0.20284 0.0
C877 C 0.79785 0.15358 0.18982 0.0
H878 H 0.84089 0.13221 0.18746 0.0
C879 C 0.81507 0.17951 0.19873 0.0
C880 C 0.84151 0.18837 0.20329 0.0
H881 H 0.7776 0.14719 0.18599 0.0
H882 H 0.80768 0.1926 0.20184 0.0
C883 C 0.85045 0.17096 0.19923 0.0
C884 C 0.8091 0.63595 0.2006 0.0
C885 C 0.79976 0.65312 0.20534 0.0
H886 H 0.8411 0.63106 0.18236 0.0
C887 C 0.81614 0.6792 0.19444 0.0
H888 H 0.79686 0.61568 0.20853 0.0
C889 C 0.84145 0.68797 0.17917 0.0
C890 C 0.85079 0.67079 0.17459 0.0
H891 H 0.8094 0.69283 0.19751 0.0
H892 H 0.85372 0.70824 0.17131 0.0
C893 C 0.83439 0.6447 0.18535 0.0
C894 C 0.13615 0.311 0.34882 0.0
C895 C 0.14585 0.33744 0.34337 0.0
H896 H 0.14426 0.28105 0.36557 0.0
C897 C 0.17222 0.35436 0.35086 0.0
H898 H 0.11593 0.2975 0.3433 0.0
C899 C 0.18858 0.34492 0.36386 0.0
C900 C 0.17877 0.31843 0.36939 0.0
H901 H 0.18021 0.37489 0.34697 0.0
H902 H 0.20881 0.3583 0.3695 0.0
C903 C 0.15243 0.3016 0.36165 0.0
C904 C 0.64121 0.83565 0.36678 0.0
C905 C 0.66736 0.8528 0.37413 0.0
H906 H 0.61241 0.79737 0.34977 0.0
C907 C 0.68498 0.84391 0.37035 0.0
H908 H 0.62722 0.84195 0.36956 0.0
C909 C 0.67653 0.81825 0.35878 0.0
C910 C 0.65034 0.80118 0.35108 0.0
H911 H 0.70533 0.85681 0.37585 0.0
H912 H 0.69042 0.81185 0.35568 0.0
C913 C 0.63278 0.81009 0.35545 0.0
C914 C 0.14955 0.80259 0.35197 0.0
C915 C 0.13256 0.81137 0.36424 0.0
H916 H 0.18776 0.81277 0.33033 0.0
C917 C 0.14139 0.83787 0.36384 0.0
H918 H 0.14321 0.78228 0.35195 0.0
C919 C 0.16682 0.85532 0.35148 0.0
C920 C 0.18383 0.84656 0.3393 0.0
H921 H 0.12868 0.84522 0.37312 0.0
H922 H 0.17312 0.87562 0.35159 0.0
C923 C 0.175 0.82006 0.33956 0.0
C924 C 0.63191 0.81955 0.84851 0.0
C925 C 0.6494 0.84609 0.84714 0.0
H926 H 0.62645 0.78187 0.85941 0.0
C927 C 0.6755 0.85495 0.8557 0.0
H928 H 0.61162 0.81212 0.84198 0.0
C929 C 0.68394 0.83756 0.86568 0.0
C930 C 0.66642 0.81103 0.8672 0.0
H931 H 0.68936 0.87527 0.85481 0.0
H932 H 0.70422 0.84494 0.87229 0.0
C933 C 0.64035 0.80218 0.85844 0.0
C934 C 0.16813 0.8127 0.85246 0.0
C935 C 0.14172 0.80337 0.84539 0.0
H936 H 0.20511 0.84533 0.86624 0.0
C937 C 0.13233 0.8205 0.84698 0.0
H938 H 0.17596 0.79992 0.85136 0.0
C939 C 0.14912 0.84654 0.85537 0.0
C940 C 0.17554 0.85585 0.86229 0.0
H941 H 0.11211 0.81383 0.84149 0.0
H942 H 0.14135 0.85937 0.85646 0.0
C943 C 0.18489 0.8387 0.86083 0.0
C944 C 0.14037 0.30356 0.85685 0.0
C945 C 0.13198 0.32124 0.86596 0.0
H946 H 0.17141 0.29783 0.83531 0.0
C947 C 0.14908 0.34748 0.85855 0.0
H948 H 0.1276 0.28316 0.862 0.0
C949 C 0.17431 0.35589 0.84285 0.0
C950 C 0.18271 0.33814 0.83462 0.0
H951 H 0.14303 0.36146 0.86505 0.0
H952 H 0.1873 0.37627 0.838 0.0
C953 C 0.16548 0.31193 0.84141 0.0
C954 C 0.81722 0.63559 0.70096 0.0
C955 C 0.84364 0.65306 0.70511 0.0
H956 H 0.77999 0.63016 0.68398 0.0
C957 C 0.85283 0.67911 0.69462 0.0
H958 H 0.80958 0.61535 0.70861 0.0
C959 C 0.83587 0.68755 0.68028 0.0
C960 C 0.80944 0.67008 0.67622 0.0
H961 H 0.87311 0.69296 0.6973 0.0
H962 H 0.84348 0.70779 0.67266 0.0
C963 C 0.80027 0.64403 0.68662 0.0
C964 C 0.34869 0.17971 0.67149 0.0
C965 C 0.33072 0.18756 0.68242 0.0
H966 H 0.35498 0.14903 0.65057 0.0
C967 C 0.30446 0.1699 0.67773 0.0
H968 H 0.36912 0.19292 0.67434 0.0
C969 C 0.29634 0.14455 0.66368 0.0
C970 C 0.31444 0.13666 0.65448 0.0
H971 H 0.29026 0.17552 0.6858 0.0
H972 H 0.27597 0.13104 0.66136 0.0
C973 C 0.34063 0.15454 0.65779 0.0
C974 C 0.83472 0.18746 0.68504 0.0
C975 C 0.852 0.1784 0.68022 0.0
H976 H 0.79604 0.17801 0.69914 0.0
C977 C 0.84306 0.15197 0.68581 0.0
H978 H 0.84107 0.20768 0.68078 0.0
C979 C 0.81724 0.13488 0.69614 0.0
C980 C 0.79998 0.14398 0.70114 0.0
H981 H 0.856 0.14442 0.68213 0.0
H982 H 0.81086 0.11466 0.70047 0.0
C983 C 0.80894 0.1704 0.69547 0.0
C984 C 0.98216 0.47389 0.55033 0.0
C985 C 0.00849 0.48252 0.55233 0.0
H986 H 0.95295 0.48327 0.5365 0.0
C987 C 0.02609 0.50866 0.54345 0.0
H988 H 0.96814 0.45394 0.55733 0.0
C989 C 0.01733 0.52571 0.53118 0.0
C990 C 0.9909 0.51677 0.52782 0.0
H991 H 0.04655 0.5158 0.5448 0.0
H992 H 0.03114 0.54564 0.52337 0.0
C993 C 0.97348 0.49079 0.53831 0.0
C994 C 0.48466 0.51144 0.52312 0.0
C995 C 0.51106 0.52027 0.52855 0.0
H996 H 0.44745 0.4797 0.50754 0.0
C997 C 0.52028 0.50327 0.52064 0.0
H998 H 0.47694 0.52412 0.52888 0.0
C999 C 0.50325 0.47772 0.50812 0.0
C1000 C 0.4768 0.46888 0.50363 0.0
H1001 H 0.54052 0.50963 0.52451 0.0
H1002 H 0.51077 0.46484 0.50271 0.0
C1003 C 0.4677 0.48598 0.51088 0.0
C1004 C 0.50944 0.02099 0.51852 0.0
C1005 C 0.51885 0.00416 0.50892 0.0
H1006 H 0.4769 0.02493 0.5373 0.0
C1007 C 0.50195 0.97764 0.51119 0.0
H1008 H 0.52202 0.04158 0.5171 0.0
C1009 C 0.47607 0.96813 0.52281 0.0
C1010 C 0.46668 0.985 0.53235 0.0
H1011 H 0.50869 0.96425 0.504 0.0
H1012 H 0.46343 0.94756 0.52424 0.0
C1013 C 0.4836 0.0115 0.53015 0.0
C1014 C 0.50141 0.02044 1.00712 0.0
C1015 C 0.47505 0.00279 1.00272 0.0
H1016 H 0.53846 0.02646 0.02782 0.0
C1017 C 0.46575 0.97708 1.01659 0.0
H1018 H 0.50909 0.04044 0.99693 0.0
C1019 C 0.48256 0.96914 0.03459 0.0
C1020 C 0.50892 0.98679 0.03893 0.0
H1021 H 0.4455 0.96313 1.01386 0.0
H1022 H 0.47488 0.94914 0.04476 0.0
C1023 C 0.51821 0.0125 0.02512 0.0
C1024 C 0.96836 0.50344 1.01687 0.0
C1025 C -0.00524 0.52106 1.01804 0.0
H1026 H 0.93926 0.46431 1.00453 0.0
C1027 C 0.01219 0.51297 1.00396 0.0
H1028 H 0.95455 0.50924 0.02739 0.0
C1029 C 0.00359 0.48757 0.99116 0.0
C1030 C 0.97734 0.46968 0.99189 0.0
H1031 H 0.03269 0.52614 1.00383 0.0
H1032 H 0.01761 0.4819 0.98171 0.0
C1033 C 0.95967 0.47783 1.00374 0.0
C1034 C 0.48205 0.46895 0.03272 0.0
C1035 C 0.46459 0.47777 0.03807 0.0
H1036 H 0.52085 0.47873 1.01968 0.0
C1037 C 0.47349 0.50427 0.03511 0.0
H1038 H 0.47576 0.44867 0.03504 0.0
C1039 C 0.49945 0.52164 0.02618 0.0
C1040 C 0.51684 0.51272 1.02031 0.0
H1041 H 0.46039 0.51161 0.03921 0.0
H1042 H 0.50582 0.54192 0.02343 0.0
C1043 C 0.5079 0.48624 0.02402 0.0
C1044 C 0.43264 0.07339 0.11384 0.0
C1045 C 0.42786 0.07391 0.05992 0.0
H1046 H 0.4269 0.08279 0.19186 0.0
C1047 C 0.4156 0.08733 0.04337 0.0
H1048 H 0.44212 0.06322 0.12788 0.0
C1049 C 0.40641 0.09804 0.08029 0.0
C1050 C 0.4099 0.09621 0.1344 0.0
H1051 H 0.41159 0.08807 1.00235 0.0
H1052 H 0.39561 0.10691 0.06655 0.0
C1053 C 0.42403 0.08467 0.15064 0.0
C1054 C 0.88712 0.30587 0.0924 0.0
C1055 C 0.89266 0.31012 0.14623 0.0
H1056 H 0.89297 0.32219 1.0154 0.0
C1057 C 0.90689 0.33542 0.16398 0.0
H1058 H 0.8762 0.28651 0.0775 0.0
C1059 C 0.9169 0.35589 0.12804 0.0
C1060 C 0.9126 0.3515 0.07377 0.0
H1061 H 0.91176 0.33929 0.20496 0.0
H1062 H 0.92897 0.37515 0.14263 0.0
C1063 C 0.89674 0.3263 0.05666 0.0
C1064 C 0.66385 0.57435 0.05183 0.0
C1065 C 0.63871 0.56039 0.07091 0.0
H1066 H 0.70374 0.5972 0.07102 0.0
C1067 C 0.635 0.55575 0.12521 0.0
H1068 H 0.66735 0.57856 1.01048 0.0
C1069 C 0.65581 0.5661 0.16001 0.0
C1070 C 0.6808 0.58191 0.14138 0.0
H1071 H 0.61577 0.54513 0.14113 0.0
H1072 H 0.65212 0.56315 0.20159 0.0
C1073 C 0.68465 0.58519 0.08675 0.0
C1074 C 0.08192 0.41988 0.38691 0.0
C1075 C 0.09463 0.40718 0.4052 0.0
H1076 H 0.06074 0.43864 0.40712 0.0
C1077 C 0.09824 0.40649 0.45956 0.0
H1078 H 0.0786 0.42053 0.34546 0.0
C1079 C 0.08841 0.41721 0.49497 0.0
C1080 C 0.07414 0.42832 0.47693 0.0
H1081 H 0.10799 0.39682 0.47492 0.0
H1082 H 0.0908 0.41551 0.53647 0.0
C1083 C 0.07157 0.4301 0.42241 0.0
C1084 C 0.55392 0.63568 0.42465 0.0
C1085 C 0.5572 0.64011 0.47905 0.0
H1086 H 0.56241 0.65209 0.34732 0.0
C1087 C 0.5687 0.66538 0.497 0.0
H1088 H 0.54512 0.61631 0.40966 0.0
C1089 C 0.57888 0.68581 0.46112 0.0
C1090 C 0.57735 0.6814 0.40667 0.0
H1091 H 0.57177 0.6694 0.53843 0.0
H1092 H 0.58939 0.70519 0.47608 0.0
C1093 C 0.56368 0.65612 0.38877 0.0
C1094 C 0.32194 0.89999 0.48206 0.0
C1095 C 0.34688 0.91662 0.46414 0.0
H1096 H 0.28204 0.87839 0.46248 0.0
C1097 C 0.3509 0.92113 0.40983 0.0
H1098 H 0.31816 0.89618 0.52346 0.0
C1099 C 0.33026 0.91041 0.37453 0.0
C1100 C 0.30508 0.89551 0.39301 0.0
H1101 H 0.36998 0.93378 0.39473 0.0
H1102 H 0.33389 0.91525 0.33347 0.0
C1103 C 0.30127 0.88981 0.44696 0.0
C1104 C 0.57766 0.89096 0.96349 0.0
C1105 C 0.57713 0.89461 0.90902 0.0
H1106 H 0.56952 0.89939 0.04039 0.0
C1107 C 0.56481 0.90763 0.89053 0.0
H1108 H 0.58705 0.88096 0.97899 0.0
C1109 C 0.55526 0.91864 0.92594 0.0
C1110 C 0.55734 0.91646 0.98053 0.0
H1111 H 0.56421 0.91091 0.84906 0.0
H1112 H 0.54726 0.92994 0.91046 0.0
C1113 C 0.56763 0.9015 0.99885 0.0
C1114 C 0.07013 0.63651 0.9215 0.0
C1115 C 0.07124 0.64055 0.97604 0.0
H1116 H 0.07896 0.65349 0.84469 0.0
C1117 C 0.08568 0.66563 0.99474 0.0
H1118 H 0.05902 0.61731 0.9059 0.0
C1119 C 0.09674 0.68634 0.95948 0.0
C1120 C 0.09405 0.68238 0.9049 0.0
H1121 H 0.08663 0.66939 0.03629 0.0
H1122 H 0.10617 0.70563 0.97502 0.0
C1123 C 0.08164 0.65718 0.88627 0.0
C1124 C 0.29779 0.40403 0.95468 0.0
C1125 C 0.30198 0.40636 0.90008 0.0
H1126 H 0.3145 0.41149 0.03152 0.0
C1127 C 0.32722 0.42098 0.88179 0.0
H1128 H 0.2785 0.39299 0.97017 0.0
C1129 C 0.34782 0.43116 0.91709 0.0
C1130 C 0.34369 0.42749 0.97155 0.0
H1131 H 0.33118 0.42323 0.84024 0.0
H1132 H 0.36715 0.44104 0.90152 0.0
C1133 C 0.31838 0.4147 0.99004 0.0
C1134 C 0.90314 0.56769 0.66011 0.0
C1135 C 0.89337 0.583 0.64107 0.0
H1136 H 0.92295 0.54733 0.64185 0.0
C1137 C 0.89258 0.58591 0.58635 0.0
H1138 H 0.90405 0.56501 0.70176 0.0
C1139 C 0.90284 0.57522 0.55174 0.0
C1140 C 0.91455 0.56177 0.5712 0.0
H1141 H 0.88507 0.59753 0.57028 0.0
H1142 H 0.90333 0.57915 0.5103 0.0
C1143 C 0.9139 0.55751 0.62562 0.0
C1144 C 0.41904 0.33232 0.65949 0.0
C1145 C 0.40433 0.30727 0.64083 0.0
H1146 H 0.44019 0.37225 0.63976 0.0
C1147 C 0.40319 0.30315 0.58634 0.0
H1148 H 0.42008 0.33611 0.70104 0.0
C1149 C 0.41503 0.32375 0.55108 0.0
C1150 C 0.42769 0.34897 0.5696 0.0
H1151 H 0.39199 0.28395 0.57079 0.0
H1152 H 0.41262 0.31997 0.50954 0.0
C1153 C 0.43042 0.35297 0.6242 0.0
C1154 C 0.66249 0.09278 0.56033 0.0
C1155 C 0.63762 0.07521 0.57721 0.0
H1156 H 0.70212 0.11546 0.58159 0.0
C1157 C 0.63319 0.07038 0.63139 0.0
H1158 H 0.66658 0.09684 0.51907 0.0
C1159 C 0.65345 0.08153 0.66751 0.0
C1160 C 0.67865 0.09736 0.65004 0.0
H1161 H 0.61416 0.05698 0.64573 0.0
H1162 H 0.64963 0.07612 0.70831 0.0
C1163 C 0.6828 0.10349 0.5963 0.0
C1164 C 0.74987 0.75514 0.7234 0.0
C1165 C 0.75922 0.73946 0.74232 0.0
H1166 H 0.7309 0.77629 0.74174 0.0
C1167 C 0.75984 0.73635 0.797 0.0
H1168 H 0.74912 0.758 0.68178 0.0
C1169 C 0.74993 0.74735 0.8317 0.0
C1170 C 0.73867 0.76126 0.81236 0.0
H1171 H 0.76708 0.72449 0.81299 0.0
H1172 H 0.74954 0.74349 0.87314 0.0
C1173 C 0.73947 0.76564 0.75795 0.0
C1174 C 0.23307 0.99244 0.70837 0.0
C1175 C 0.24732 0.01781 0.72576 0.0
H1176 H 0.21321 0.95267 0.72984 0.0
C1177 C 0.24903 0.02243 0.78015 0.0
H1178 H 0.23133 0.98817 0.66701 0.0
C1179 C 0.23816 0.0021 0.81632 0.0
C1180 C 0.22575 0.9767 0.79882 0.0
H1181 H 0.25979 0.04183 0.7949 0.0
H1182 H 0.24108 0.00624 0.85772 0.0
C1183 C 0.2227 0.97213 0.74451 0.0
C1184 C 0.96826 0.22406 0.79092 0.0
C1185 C 0.97299 0.22898 0.73688 0.0
H1186 H 0.98391 0.23186 0.86872 0.0
C1187 C -0.0016 0.24366 0.71974 0.0
H1188 H 0.94875 0.21293 0.80524 0.0
C1189 C 0.01841 0.25494 0.75627 0.0
C1190 C 0.01349 0.25134 0.81053 0.0
H1191 H 0.00259 0.24812 0.67862 0.0
H1192 H 0.0377 0.26753 0.74207 0.0
C1193 C 0.98833 0.23487 0.82738 0.0
C1194 C 0.24569 0.22028 0.2878 0.0
C1195 C 0.24672 0.22555 0.23375 0.0
H1196 H 0.2361 0.22714 0.36483 0.0
C1197 C 0.23563 0.23981 0.21564 0.0
H1198 H 0.25436 0.20953 0.30295 0.0
C1199 C 0.22573 0.25038 0.25135 0.0
C1200 C 0.22623 0.2465 0.30575 0.0
H1201 H 0.23652 0.24457 0.17455 0.0
H1202 H 0.21881 0.26271 0.23649 0.0
C1203 C 0.23527 0.23037 0.32338 0.0
C1204 C 0.7481 0.99017 0.22164 0.0
C1205 C 0.75912 0.01523 0.24068 0.0
H1206 H 0.72779 0.95012 0.2406 0.0
C1207 C 0.7615 0.01904 0.2953 0.0
H1208 H 0.74576 0.9866 0.17998 0.0
C1209 C 0.75157 -0.00179 0.33021 0.0
C1210 C 0.7385 0.97309 0.31118 0.0
H1211 H 0.76996 0.03822 0.31117 0.0
H1212 H 0.75253 0.00181 0.3718 0.0
C1213 C 0.7377 0.96932 0.25655 0.0
C1214 C 0.0151 0.76785 0.25856 0.0
C1215 C 0.01131 0.76286 0.31277 0.0
H1216 H -0.0018 0.76074 0.18204 0.0
C1217 C 0.98612 0.74864 0.33154 0.0
H1218 H 0.03435 0.77876 0.24281 0.0
C1219 C 0.96542 0.73783 0.29637 0.0
C1220 C 0.9694 0.74141 0.24181 0.0
H1221 H 0.98251 0.74431 0.37279 0.0
H1222 H 0.94631 0.72565 0.31185 0.0
C1223 C -0.0056 0.7575 0.22355 0.0
loop_
_geom_bond_atom_site_label_1
_geom_bond_atom_site_label_2
_geom_bond_distance
_geom_bond_site_symmetry_2
_ccdc_geom_bond_type
Co0 O1 2.216 . S
Co0 O2 2.091 . S
Co0 O4 2.004 . S
Co0 O10 2.021 . S
Co0 O12 2.137 . S
Co0 O13 2.244 . S
O1 Co0 2.216 . S
O1 C8 1.247 . S
O2 Co0 2.091 . S
O2 C8 1.261 . S
C3 O12 1.247 . S
C3 O13 1.272 . S
O4 Co0 2.004 . S
O4 C9 1.259 . S
Co5 O6 2.061 . S
Co5 O11 2.052 . S
Co5 O13 2.135 . S
O6 Co5 2.061 . S
O6 C9 1.235 . S
C7 O10 1.238 . S
C7 O11 1.241 . S
C8 O1 1.247 . S
C8 O2 1.261 . S
C9 O4 1.259 . S
C9 O6 1.235 . S
O10 Co0 2.021 . S
O10 C7 1.238 . S
O11 Co5 2.052 . S
O11 C7 1.241 . S
O12 Co0 2.137 . S
O12 C3 1.247 . S
O13 Co0 2.244 . S
O13 C3 1.272 . S
O13 Co5 2.135 . S
Co14 O15 2.216 . S
Co14 O16 2.091 . S
Co14 O18 2.004 . S
Co14 O24 2.021 . S
Co14 O26 2.137 . S
Co14 O27 2.244 . S
O15 Co14 2.216 . S
O15 C22 1.247 . S
O16 Co14 2.091 . S
O16 C22 1.261 . S
C17 O26 1.247 . S
C17 O27 1.272 . S
O18 Co14 2.004 . S
O18 C23 1.259 . S
Co19 O20 2.061 . S
Co19 O25 2.052 . S
Co19 O27 2.135 . S
O20 Co19 2.061 . S
O20 C23 1.235 . S
C21 O24 1.238 . S
C21 O25 1.241 . S
C22 O15 1.247 . S
C22 O16 1.261 . S
C23 O18 1.259 . S
C23 O20 1.235 . S
O24 Co14 2.021 . S
O24 C21 1.238 . S
O25 Co19 2.052 . S
O25 C21 1.241 . S
O26 Co14 2.137 . S
O26 C17 1.247 . S
O27 Co14 2.244 . S
O27 C17 1.272 . S
O27 Co19 2.135 . S
Co28 O29 2.216 . S
Co28 O30 2.091 . S
Co28 O32 2.004 . S
Co28 O38 2.021 . S
Co28 O40 2.137 . S
Co28 O41 2.244 . S
O29 Co28 2.216 . S
O29 C36 1.247 . S
O30 Co28 2.091 . S
O30 C36 1.261 . S
C31 O40 1.247 . S
C31 O41 1.272 . S
O32 Co28 2.004 . S
O32 C37 1.259 . S
Co33 O34 2.061 . S
Co33 O39 2.052 . S
Co33 O41 2.135 . S
O34 Co33 2.061 . S
O34 C37 1.235 . S
C35 O38 1.238 . S
C35 O39 1.241 . S
C36 O29 1.247 . S
C36 O30 1.261 . S
C37 O32 1.259 . S
C37 O34 1.235 . S
O38 Co28 2.021 . S
O38 C35 1.238 . S
O39 Co33 2.052 . S
O39 C35 1.241 . S
O40 Co28 2.137 . S
O40 C31 1.247 . S
O41 Co28 2.244 . S
O41 C31 1.272 . S
O41 Co33 2.135 . S
Co42 O43 2.216 . S
Co42 O44 2.091 . S
Co42 O46 2.004 . S
Co42 O52 2.021 . S
Co42 O54 2.137 . S
Co42 O55 2.244 . S
O43 Co42 2.216 . S
O43 C50 1.247 . S
O44 Co42 2.091 . S
O44 C50 1.261 . S
C45 O54 1.247 . S
C45 O55 1.272 . S
O46 Co42 2.004 . S
O46 C51 1.259 . S
Co47 O48 2.061 . S
Co47 O53 2.052 . S
Co47 O55 2.135 . S
O48 Co47 2.061 . S
O48 C51 1.235 . S
C49 O52 1.238 . S
C49 O53 1.241 . S
C50 O43 1.247 . S
C50 O44 1.261 . S
C51 O46 1.259 . S
C51 O48 1.235 . S
O52 Co42 2.021 . S
O52 C49 1.238 . S
O53 Co47 2.052 . S
O53 C49 1.241 . S
O54 Co42 2.137 . S
O54 C45 1.247 . S
O55 Co42 2.244 . S
O55 C45 1.272 . S
O55 Co47 2.135 . S
Co56 O57 2.216 . S
Co56 O58 2.091 . S
Co56 O60 2.004 . S
Co56 O66 2.021 . S
Co56 O68 2.137 . S
Co56 O69 2.244 . S
O57 Co56 2.216 . S
O57 C64 1.247 . S
O58 Co56 2.091 . S
O58 C64 1.261 . S
C59 O68 1.247 . S
C59 O69 1.272 . S
O60 Co56 2.004 . S
O60 C65 1.259 . S
Co61 O62 2.061 . S
Co61 O67 2.052 . S
Co61 O69 2.135 . S
O62 Co61 2.061 . S
O62 C65 1.235 . S
C63 O66 1.238 . S
C63 O67 1.241 . S
C64 O57 1.247 . S
C64 O58 1.261 . S
C65 O60 1.259 . S
C65 O62 1.235 . S
O66 Co56 2.021 . S
O66 C63 1.238 . S
O67 Co61 2.052 . S
O67 C63 1.241 . S
O68 Co56 2.137 . S
O68 C59 1.247 . S
O69 Co56 2.244 . S
O69 C59 1.272 . S
O69 Co61 2.135 . S
Co70 O71 2.216 . S
Co70 O72 2.091 . S
Co70 O74 2.004 . S
Co70 O80 2.021 . S
Co70 O82 2.137 . S
Co70 O83 2.244 . S
O71 Co70 2.216 . S
O71 C78 1.247 . S
O72 Co70 2.091 . S
O72 C78 1.261 . S
C73 O82 1.247 . S
C73 O83 1.272 . S
O74 Co70 2.004 . S
O74 C79 1.259 . S
Co75 O76 2.061 . S
Co75 O81 2.052 . S
Co75 O83 2.135 . S
O76 Co75 2.061 . S
O76 C79 1.235 . S
C77 O80 1.238 . S
C77 O81 1.241 . S
C78 O71 1.247 . S
C78 O72 1.261 . S
C79 O74 1.259 . S
C79 O76 1.235 . S
O80 Co70 2.021 . S
O80 C77 1.238 . S
O81 Co75 2.052 . S
O81 C77 1.241 . S
O82 Co70 2.137 . S
O82 C73 1.247 . S
O83 Co70 2.244 . S
O83 C73 1.272 . S
O83 Co75 2.135 . S
Co84 O85 2.216 . S
Co84 O86 2.091 . S
Co84 O88 2.004 . S
Co84 O94 2.021 . S
Co84 O96 2.137 . S
Co84 O97 2.244 . S
O85 Co84 2.216 . S
O85 C92 1.247 . S
O86 Co84 2.091 . S
O86 C92 1.261 . S
C87 O96 1.247 . S
C87 O97 1.272 . S
O88 Co84 2.004 . S
O88 C93 1.259 . S
Co89 O90 2.061 . S
Co89 O95 2.052 . S
Co89 O97 2.135 . S
O90 Co89 2.061 . S
O90 C93 1.235 . S
C91 O94 1.238 . S
C91 O95 1.241 . S
C92 O85 1.247 . S
C92 O86 1.261 . S
C93 O88 1.259 . S
C93 O90 1.235 . S
O94 Co84 2.021 . S
O94 C91 1.238 . S
O95 Co89 2.052 . S
O95 C91 1.241 . S
O96 Co84 2.137 . S
O96 C87 1.247 . S
O97 Co84 2.244 . S
O97 C87 1.272 . S
O97 Co89 2.135 . S
Co98 O99 2.216 . S
Co98 O100 2.091 . S
Co98 O102 2.004 . S
Co98 O108 2.021 . S
Co98 O110 2.137 . S
Co98 O111 2.244 . S
O99 Co98 2.216 . S
O99 C106 1.247 . S
O100 Co98 2.091 . S
O100 C106 1.261 . S
C101 O110 1.247 . S
C101 O111 1.272 . S
O102 Co98 2.004 . S
O102 C107 1.259 . S
Co103 O104 2.061 . S
Co103 O109 2.052 . S
Co103 O111 2.135 . S
O104 Co103 2.061 . S
O104 C107 1.235 . S
C105 O108 1.238 . S
C105 O109 1.241 . S
C106 O99 1.247 . S
C106 O100 1.261 . S
C107 O102 1.259 . S
C107 O104 1.235 . S
O108 Co98 2.021 . S
O108 C105 1.238 . S
O109 Co103 2.052 . S
O109 C105 1.241 . S
O110 Co98 2.137 . S
O110 C101 1.247 . S
O111 Co98 2.244 . S
O111 C101 1.272 . S
O111 Co103 2.135 . S
Co112 O113 2.216 . S
Co112 O114 2.091 . S
Co112 O116 2.004 . S
Co112 O122 2.021 . S
Co112 O124 2.137 . S
Co112 O125 2.244 . S
O113 Co112 2.216 . S
O113 C120 1.247 . S
O114 Co112 2.091 . S
O114 C120 1.261 . S
C115 O124 1.247 . S
C115 O125 1.272 . S
O116 Co112 2.004 . S
O116 C121 1.259 . S
Co117 O118 2.061 . S
Co117 O123 2.052 . S
Co117 O125 2.135 . S
O118 Co117 2.061 . S
O118 C121 1.235 . S
C119 O122 1.238 . S
C119 O123 1.241 . S
C120 O113 1.247 . S
C120 O114 1.261 . S
C121 O116 1.259 . S
C121 O118 1.235 . S
O122 Co112 2.021 . S
O122 C119 1.238 . S
O123 Co117 2.052 . S
O123 C119 1.241 . S
O124 Co112 2.137 . S
O124 C115 1.247 . S
O125 Co112 2.244 . S
O125 C115 1.272 . S
O125 Co117 2.135 . S
Co126 O127 2.216 . S
Co126 O128 2.091 . S
Co126 O130 2.004 . S
Co126 O136 2.021 . S
Co126 O138 2.137 . S
Co126 O139 2.244 . S
O127 Co126 2.216 . S
O127 C134 1.247 . S
O128 Co126 2.091 . S
O128 C134 1.261 . S
C129 O138 1.247 . S
C129 O139 1.272 . S
O130 Co126 2.004 . S
O130 C135 1.259 . S
Co131 O132 2.061 . S
Co131 O137 2.052 . S
Co131 O139 2.135 . S
O132 Co131 2.061 . S
O132 C135 1.235 . S
C133 O136 1.238 . S
C133 O137 1.241 . S
C134 O127 1.247 . S
C134 O128 1.261 . S
C135 O130 1.259 . S
C135 O132 1.235 . S
O136 Co126 2.021 . S
O136 C133 1.238 . S
O137 Co131 2.052 . S
O137 C133 1.241 . S
O138 Co126 2.137 . S
O138 C129 1.247 . S
O139 Co126 2.244 . S
O139 C129 1.272 . S
O139 Co131 2.135 . S
Co140 O141 2.216 . S
Co140 O142 2.091 . S
Co140 O144 2.004 . S
Co140 O150 2.021 . S
Co140 O152 2.137 . S
Co140 O153 2.244 . S
O141 Co140 2.216 . S
O141 C148 1.247 . S
O142 Co140 2.091 . S
O142 C148 1.261 . S
C143 O152 1.247 . S
C143 O153 1.272 . S
O144 Co140 2.004 . S
O144 C149 1.259 . S
Co145 O146 2.061 . S
Co145 O151 2.052 . S
Co145 O153 2.135 . S
O146 Co145 2.061 . S
O146 C149 1.235 . S
C147 O150 1.238 . S
C147 O151 1.241 . S
C148 O141 1.247 . S
C148 O142 1.261 . S
C149 O144 1.259 . S
C149 O146 1.235 . S
O150 Co140 2.021 . S
O150 C147 1.238 . S
O151 Co145 2.052 . S
O151 C147 1.241 . S
O152 Co140 2.137 . S
O152 C143 1.247 . S
O153 Co140 2.244 . S
O153 C143 1.272 . S
O153 Co145 2.135 . S
Co154 O155 2.216 . S
Co154 O156 2.091 . S
Co154 O158 2.004 . S
Co154 O164 2.021 . S
Co154 O166 2.137 . S
Co154 O167 2.244 . S
O155 Co154 2.216 . S
O155 C162 1.247 . S
O156 Co154 2.091 . S
O156 C162 1.261 . S
C157 O166 1.247 . S
C157 O167 1.272 . S
O158 Co154 2.004 . S
O158 C163 1.259 . S
Co159 O160 2.061 . S
Co159 O165 2.052 . S
Co159 O167 2.135 . S
O160 Co159 2.061 . S
O160 C163 1.235 . S
C161 O164 1.238 . S
C161 O165 1.241 . S
C162 O155 1.247 . S
C162 O156 1.261 . S
C163 O158 1.259 . S
C163 O160 1.235 . S
O164 Co154 2.021 . S
O164 C161 1.238 . S
O165 Co159 2.052 . S
O165 C161 1.241 . S
O166 Co154 2.137 . S
O166 C157 1.247 . S
O167 Co154 2.244 . S
O167 C157 1.272 . S
O167 Co159 2.135 . S
Co168 O169 2.216 . S
Co168 O170 2.091 . S
Co168 O172 2.004 . S
Co168 O178 2.021 . S
Co168 O180 2.137 . S
Co168 O181 2.244 . S
O169 Co168 2.216 . S
O169 C176 1.247 . S
O170 Co168 2.091 . S
O170 C176 1.261 . S
C171 O180 1.247 . S
C171 O181 1.272 . S
O172 Co168 2.004 . S
O172 C177 1.259 . S
Co173 O174 2.061 . S
Co173 O179 2.052 . S
Co173 O181 2.135 . S
O174 Co173 2.061 . S
O174 C177 1.235 . S
C175 O178 1.238 . S
C175 O179 1.241 . S
C176 O169 1.247 . S
C176 O170 1.261 . S
C177 O172 1.259 . S
C177 O174 1.235 . S
O178 Co168 2.021 . S
O178 C175 1.238 . S
O179 Co173 2.052 . S
O179 C175 1.241 . S
O180 Co168 2.137 . S
O180 C171 1.247 . S
O181 Co168 2.244 . S
O181 C171 1.272 . S
O181 Co173 2.135 . S
Co182 O183 2.216 . S
Co182 O184 2.091 . S
Co182 O186 2.004 . S
Co182 O192 2.021 . S
Co182 O194 2.137 . S
Co182 O195 2.244 . S
O183 Co182 2.216 . S
O183 C190 1.247 . S
O184 Co182 2.091 . S
O184 C190 1.261 . S
C185 O194 1.247 . S
C185 O195 1.272 . S
O186 Co182 2.004 . S
O186 C191 1.259 . S
Co187 O188 2.061 . S
Co187 O193 2.052 . S
Co187 O195 2.135 . S
O188 Co187 2.061 . S
O188 C191 1.235 . S
C189 O192 1.238 . S
C189 O193 1.241 . S
C190 O183 1.247 . S
C190 O184 1.261 . S
C191 O186 1.259 . S
C191 O188 1.235 . S
O192 Co182 2.021 . S
O192 C189 1.238 . S
O193 Co187 2.052 . S
O193 C189 1.241 . S
O194 Co182 2.137 . S
O194 C185 1.247 . S
O195 Co182 2.244 . S
O195 C185 1.272 . S
O195 Co187 2.135 . S
Co196 O197 2.216 . S
Co196 O198 2.091 . S
Co196 O200 2.004 . S
Co196 O206 2.021 . S
Co196 O208 2.137 . S
Co196 O209 2.244 . S
O197 Co196 2.216 . S
O197 C204 1.247 . S
O198 Co196 2.091 . S
O198 C204 1.261 . S
C199 O208 1.247 . S
C199 O209 1.272 . S
O200 Co196 2.004 . S
O200 C205 1.259 . S
Co201 O202 2.061 . S
Co201 O207 2.052 . S
Co201 O209 2.135 . S
O202 Co201 2.061 . S
O202 C205 1.235 . S
C203 O206 1.238 . S
C203 O207 1.241 . S
C204 O197 1.247 . S
C204 O198 1.261 . S
C205 O200 1.259 . S
C205 O202 1.235 . S
O206 Co196 2.021 . S
O206 C203 1.238 . S
O207 Co201 2.052 . S
O207 C203 1.241 . S
O208 Co196 2.137 . S
O208 C199 1.247 . S
O209 Co196 2.244 . S
O209 C199 1.272 . S
O209 Co201 2.135 . S
Co210 O211 2.216 . S
Co210 O212 2.091 . S
Co210 O214 2.004 . S
Co210 O220 2.021 . S
Co210 O222 2.137 . S
Co210 O223 2.244 . S
O211 Co210 2.216 . S
O211 C218 1.247 . S
O212 Co210 2.091 . S
O212 C218 1.261 . S
C213 O222 1.247 . S
C213 O223 1.272 . S
O214 Co210 2.004 . S
O214 C219 1.259 . S
Co215 O216 2.061 . S
Co215 O221 2.052 . S
Co215 O223 2.135 . S
O216 Co215 2.061 . S
O216 C219 1.235 . S
C217 O220 1.238 . S
C217 O221 1.241 . S
C218 O211 1.247 . S
C218 O212 1.261 . S
C219 O214 1.259 . S
C219 O216 1.235 . S
O220 Co210 2.021 . S
O220 C217 1.238 . S
O221 Co215 2.052 . S
O221 C217 1.241 . S
O222 Co210 2.137 . S
O222 C213 1.247 . S
O223 Co210 2.244 . S
O223 C213 1.272 . S
O223 Co215 2.135 . S
Co224 O225 2.216 . S
Co224 O226 2.091 . S
Co224 O228 2.004 . S
Co224 O234 2.021 . S
Co224 O236 2.137 . S
Co224 O237 2.244 . S
O225 Co224 2.216 . S
O225 C232 1.247 . S
O226 Co224 2.091 . S
O226 C232 1.261 . S
C227 O236 1.247 . S
C227 O237 1.272 . S
O228 Co224 2.004 . S
O228 C233 1.259 . S
Co229 O230 2.061 . S
Co229 O235 2.052 . S
Co229 O237 2.135 . S
O230 Co229 2.061 . S
O230 C233 1.235 . S
C231 O234 1.238 . S
C231 O235 1.241 . S
C232 O225 1.247 . S
C232 O226 1.261 . S
C233 O228 1.259 . S
C233 O230 1.235 . S
O234 Co224 2.021 . S
O234 C231 1.238 . S
O235 Co229 2.052 . S
O235 C231 1.241 . S
O236 Co224 2.137 . S
O236 C227 1.247 . S
O237 Co224 2.244 . S
O237 C227 1.272 . S
O237 Co229 2.135 . S
Co238 O239 2.216 . S
Co238 O240 2.091 . S
Co238 O242 2.004 . S
Co238 O248 2.021 . S
Co238 O250 2.137 . S
Co238 O251 2.244 . S
O239 Co238 2.216 . S
O239 C246 1.247 . S
O240 Co238 2.091 . S
O240 C246 1.261 . S
C241 O250 1.247 . S
C241 O251 1.272 . S
O242 Co238 2.004 . S
O242 C247 1.259 . S
Co243 O244 2.061 . S
Co243 O249 2.052 . S
Co243 O251 2.135 . S
O244 Co243 2.061 . S
O244 C247 1.235 . S
C245 O248 1.238 . S
C245 O249 1.241 . S
C246 O239 1.247 . S
C246 O240 1.261 . S
C247 O242 1.259 . S
C247 O244 1.235 . S
O248 Co238 2.021 . S
O248 C245 1.238 . S
O249 Co243 2.052 . S
O249 C245 1.241 . S
O250 Co238 2.137 . S
O250 C241 1.247 . S
O251 Co238 2.244 . S
O251 C241 1.272 . S
O251 Co243 2.135 . S
Co252 O253 2.216 . S
Co252 O254 2.091 . S
Co252 O256 2.004 . S
Co252 O262 2.021 . S
Co252 O264 2.137 . S
Co252 O265 2.244 . S
O253 Co252 2.216 . S
O253 C260 1.247 . S
O254 Co252 2.091 . S
O254 C260 1.261 . S
C255 O264 1.247 . S
C255 O265 1.272 . S
O256 Co252 2.004 . S
O256 C261 1.259 . S
Co257 O258 2.061 . S
Co257 O263 2.052 . S
Co257 O265 2.135 . S
O258 Co257 2.061 . S
O258 C261 1.235 . S
C259 O262 1.253 . S
C259 O263 1.243 . S
C260 O253 1.247 . S
C260 O254 1.261 . S
C261 O256 1.259 . S
C261 O258 1.235 . S
O262 Co252 2.021 . S
O262 C259 1.253 . S
O263 Co257 2.052 . S
O263 C259 1.243 . S
O264 Co252 2.137 . S
O264 C255 1.247 . S
O265 Co252 2.244 . S
O265 C255 1.272 . S
O265 Co257 2.135 . S
Co266 O267 2.216 . S
Co266 O268 2.091 . S
Co266 O270 2.004 . S
Co266 O276 2.021 . S
Co266 O278 2.137 . S
Co266 O279 2.244 . S
O267 Co266 2.216 . S
O267 C274 1.247 . S
O268 Co266 2.091 . S
O268 C274 1.261 . S
C269 O278 1.247 . S
C269 O279 1.272 . S
O270 Co266 2.004 . S
O270 C275 1.259 . S
Co271 O272 2.061 . S
Co271 O277 2.052 . S
Co271 O279 2.135 . S
O272 Co271 2.061 . S
O272 C275 1.235 . S
C273 O276 1.253 . S
C273 O277 1.243 . S
C274 O267 1.247 . S
C274 O268 1.261 . S
C275 O270 1.259 . S
C275 O272 1.235 . S
O276 Co266 2.021 . S
O276 C273 1.253 . S
O277 Co271 2.052 . S
O277 C273 1.243 . S
O278 Co266 2.137 . S
O278 C269 1.247 . S
O279 Co266 2.244 . S
O279 C269 1.272 . S
O279 Co271 2.135 . S
Co280 O281 2.216 . S
Co280 O282 2.091 . S
Co280 O284 2.004 . S
Co280 O290 2.021 . S
Co280 O292 2.137 . S
Co280 O293 2.244 . S
O281 Co280 2.216 . S
O281 C288 1.247 . S
O282 Co280 2.091 . S
O282 C288 1.261 . S
C283 O292 1.247 . S
C283 O293 1.272 . S
O284 Co280 2.004 . S
O284 C289 1.259 . S
Co285 O286 2.061 . S
Co285 O291 2.052 . S
Co285 O293 2.135 . S
O286 Co285 2.061 . S
O286 C289 1.235 . S
C287 O290 1.253 . S
C287 O291 1.243 . S
C288 O281 1.247 . S
C288 O282 1.261 . S
C289 O284 1.259 . S
C289 O286 1.235 . S
O290 Co280 2.021 . S
O290 C287 1.253 . S
O291 Co285 2.052 . S
O291 C287 1.243 . S
O292 Co280 2.137 . S
O292 C283 1.247 . S
O293 Co280 2.244 . S
O293 C283 1.272 . S
O293 Co285 2.135 . S
Co294 O295 2.216 . S
Co294 O296 2.091 . S
Co294 O298 2.004 . S
Co294 O304 2.021 . S
Co294 O306 2.137 1_554 S
Co294 O307 2.244 . S
O295 Co294 2.216 . S
O295 C302 1.247 . S
O296 Co294 2.091 . S
O296 C302 1.261 . S
C297 O306 1.247 1_554 S
C297 O307 1.272 . S
O298 Co294 2.004 . S
O298 C303 1.259 . S
Co299 O300 2.061 . S
Co299 O305 2.052 . S
Co299 O307 2.135 . S
O300 Co299 2.061 . S
O300 C303 1.235 . S
C301 O304 1.238 . S
C301 O305 1.241 . S
C302 O295 1.247 . S
C302 O296 1.261 . S
C303 O298 1.259 . S
C303 O300 1.235 . S
O304 Co294 2.021 . S
O304 C301 1.238 . S
O305 Co299 2.052 . S
O305 C301 1.241 . S
O306 Co294 2.137 1_556 S
O306 C297 1.247 1_556 S
O307 Co294 2.244 . S
O307 C297 1.272 . S
O307 Co299 2.135 . S
Co308 O309 2.216 . S
Co308 O310 2.091 . S
Co308 O312 2.004 . S
Co308 O318 2.021 . S
Co308 O320 2.137 1_554 S
Co308 O321 2.244 . S
O309 Co308 2.216 . S
O309 C316 1.247 . S
O310 Co308 2.091 . S
O310 C316 1.261 . S
C311 O320 1.247 1_554 S
C311 O321 1.272 . S
O312 Co308 2.004 . S
O312 C317 1.259 . S
Co313 O314 2.061 . S
Co313 O319 2.052 . S
Co313 O321 2.135 . S
O314 Co313 2.061 . S
O314 C317 1.235 . S
C315 O318 1.238 . S
C315 O319 1.241 . S
C316 O309 1.247 . S
C316 O310 1.261 . S
C317 O312 1.259 . S
C317 O314 1.235 . S
O318 Co308 2.021 . S
O318 C315 1.238 . S
O319 Co313 2.052 . S
O319 C315 1.241 . S
O320 Co308 2.137 1_556 S
O320 C311 1.247 1_556 S
O321 Co308 2.244 . S
O321 C311 1.272 . S
O321 Co313 2.135 . S
Co322 O323 2.216 . S
Co322 O324 2.091 . S
Co322 O326 2.004 . S
Co322 O332 2.021 . S
Co322 O334 2.137 1_554 S
Co322 O335 2.244 . S
O323 Co322 2.216 . S
O323 C330 1.247 . S
O324 Co322 2.091 . S
O324 C330 1.261 . S
C325 O334 1.247 1_554 S
C325 O335 1.272 . S
O326 Co322 2.004 . S
O326 C331 1.259 . S
Co327 O328 2.061 . S
Co327 O333 2.052 . S
Co327 O335 2.135 . S
O328 Co327 2.061 . S
O328 C331 1.235 . S
C329 O332 1.238 . S
C329 O333 1.241 . S
C330 O323 1.247 . S
C330 O324 1.261 . S
C331 O326 1.259 . S
C331 O328 1.235 . S
O332 Co322 2.021 . S
O332 C329 1.238 . S
O333 Co327 2.052 . S
O333 C329 1.241 . S
O334 Co322 2.137 1_556 S
O334 C325 1.247 1_556 S
O335 Co322 2.244 . S
O335 C325 1.272 . S
O335 Co327 2.135 . S
Co336 O337 2.216 . S
Co336 O338 2.091 . S
Co336 O340 2.004 . S
Co336 O346 2.021 . S
Co336 O348 2.137 . S
Co336 O349 2.244 . S
O337 Co336 2.216 . S
O337 C344 1.247 . S
O338 Co336 2.091 . S
O338 C344 1.261 . S
C339 O348 1.247 . S
C339 O349 1.272 . S
O340 Co336 2.004 . S
O340 C345 1.259 . S
Co341 O342 2.061 . S
Co341 O347 2.052 . S
Co341 O349 2.135 . S
O342 Co341 2.061 . S
O342 C345 1.235 . S
C343 O346 1.253 . S
C343 O347 1.243 . S
C344 O337 1.247 . S
C344 O338 1.261 . S
C345 O340 1.259 . S
C345 O342 1.235 . S
O346 Co336 2.021 . S
O346 C343 1.253 . S
O347 Co341 2.052 . S
O347 C343 1.243 . S
O348 Co336 2.137 . S
O348 C339 1.247 . S
O349 Co336 2.244 . S
O349 C339 1.272 . S
O349 Co341 2.135 . S
Co350 O351 2.216 . S
Co350 O352 2.091 . S
Co350 O354 2.004 . S
Co350 O360 2.021 . S
Co350 O362 2.137 . S
Co350 O363 2.244 . S
O351 Co350 2.216 . S
O351 C358 1.247 . S
O352 Co350 2.091 . S
O352 C358 1.261 . S
C353 O362 1.247 . S
C353 O363 1.272 . S
O354 Co350 2.004 . S
O354 C359 1.259 . S
Co355 O356 2.061 . S
Co355 O361 2.052 . S
Co355 O363 2.135 . S
O356 Co355 2.061 . S
O356 C359 1.235 . S
C357 O360 1.253 . S
C357 O361 1.243 . S
C358 O351 1.247 . S
C358 O352 1.261 . S
C359 O354 1.259 . S
C359 O356 1.235 . S
O360 Co350 2.021 . S
O360 C357 1.253 . S
O361 Co355 2.052 . S
O361 C357 1.243 . S
O362 Co350 2.137 . S
O362 C353 1.247 . S
O363 Co350 2.244 . S
O363 C353 1.272 . S
O363 Co355 2.135 . S
Co364 O365 2.216 . S
Co364 O366 2.091 . S
Co364 O368 2.004 . S
Co364 O374 2.021 . S
Co364 O376 2.137 . S
Co364 O377 2.244 . S
O365 Co364 2.216 . S
O365 C372 1.247 . S
O366 Co364 2.091 . S
O366 C372 1.261 . S
C367 O376 1.247 . S
C367 O377 1.272 . S
O368 Co364 2.004 . S
O368 C373 1.259 . S
Co369 O370 2.061 . S
Co369 O375 2.052 . S
Co369 O377 2.135 . S
O370 Co369 2.061 . S
O370 C373 1.235 . S
C371 O374 1.253 . S
C371 O375 1.243 . S
C372 O365 1.247 . S
C372 O366 1.261 . S
C373 O368 1.259 . S
C373 O370 1.235 . S
O374 Co364 2.021 . S
O374 C371 1.253 . S
O375 Co369 2.052 . S
O375 C371 1.243 . S
O376 Co364 2.137 . S
O376 C367 1.247 . S
O377 Co364 2.244 . S
O377 C367 1.272 . S
O377 Co369 2.135 . S
Co378 O379 2.216 . S
Co378 O380 2.091 . S
Co378 O382 2.004 . S
Co378 O388 2.021 . S
Co378 O390 2.137 1_556 S
Co378 O391 2.244 . S
O379 Co378 2.216 . S
O379 C386 1.247 . S
O380 Co378 2.091 . S
O380 C386 1.261 . S
C381 O390 1.247 1_556 S
C381 O391 1.272 . S
O382 Co378 2.004 . S
O382 C387 1.259 . S
Co383 O384 2.061 . S
Co383 O389 2.052 . S
Co383 O391 2.135 . S
O384 Co383 2.061 . S
O384 C387 1.235 . S
C385 O388 1.238 . S
C385 O389 1.241 . S
C386 O379 1.247 . S
C386 O380 1.261 . S
C387 O382 1.259 . S
C387 O384 1.235 . S
O388 Co378 2.021 . S
O388 C385 1.238 . S
O389 Co383 2.052 . S
O389 C385 1.241 . S
O390 Co378 2.137 1_554 S
O390 C381 1.247 1_554 S
O391 Co378 2.244 . S
O391 C381 1.272 . S
O391 Co383 2.135 . S
Co392 O393 2.216 . S
Co392 O394 2.091 . S
Co392 O396 2.004 . S
Co392 O402 2.021 . S
Co392 O404 2.137 1_556 S
Co392 O405 2.244 . S
O393 Co392 2.216 . S
O393 C400 1.247 . S
O394 Co392 2.091 . S
O394 C400 1.261 . S
C395 O404 1.247 1_556 S
C395 O405 1.272 . S
O396 Co392 2.004 . S
O396 C401 1.259 . S
Co397 O398 2.061 . S
Co397 O403 2.052 . S
Co397 O405 2.135 . S
O398 Co397 2.061 . S
O398 C401 1.235 . S
C399 O402 1.238 . S
C399 O403 1.241 . S
C400 O393 1.247 . S
C400 O394 1.261 . S
C401 O396 1.259 . S
C401 O398 1.235 . S
O402 Co392 2.021 . S
O402 C399 1.238 . S
O403 Co397 2.052 . S
O403 C399 1.241 . S
O404 Co392 2.137 1_554 S
O404 C395 1.247 1_554 S
O405 Co392 2.244 . S
O405 C395 1.272 . S
O405 Co397 2.135 . S
Co406 O407 2.216 . S
Co406 O408 2.091 . S
Co406 O410 2.004 . S
Co406 O416 2.021 . S
Co406 O418 2.137 1_556 S
Co406 O419 2.244 . S
O407 Co406 2.216 . S
O407 C414 1.247 . S
O408 Co406 2.091 . S
O408 C414 1.261 . S
C409 O418 1.247 1_556 S
C409 O419 1.272 . S
O410 Co406 2.004 . S
O410 C415 1.259 . S
Co411 O412 2.061 . S
Co411 O417 2.052 . S
Co411 O419 2.135 . S
O412 Co411 2.061 . S
O412 C415 1.235 . S
C413 O416 1.238 . S
C413 O417 1.241 . S
C414 O407 1.247 . S
C414 O408 1.261 . S
C415 O410 1.259 . S
C415 O412 1.235 . S
O416 Co406 2.021 . S
O416 C413 1.238 . S
O417 Co411 2.052 . S
O417 C413 1.241 . S
O418 Co406 2.137 1_554 S
O418 C409 1.247 1_554 S
O419 Co406 2.244 . S
O419 C409 1.272 . S
O419 Co411 2.135 . S
Co420 O421 2.216 . S
Co420 O422 2.091 . S
Co420 O424 2.004 . S
Co420 O430 2.021 . S
Co420 O432 2.137 . S
Co420 O433 2.244 . S
O421 Co420 2.216 . S
O421 C428 1.247 . S
O422 Co420 2.091 . S
O422 C428 1.261 . S
C423 O432 1.247 . S
C423 O433 1.272 . S
O424 Co420 2.004 . S
O424 C429 1.259 . S
Co425 O426 2.061 . S
Co425 O431 2.052 . S
Co425 O433 2.135 . S
O426 Co425 2.061 . S
O426 C429 1.235 . S
C427 O430 1.238 . S
C427 O431 1.241 . S
C428 O421 1.247 . S
C428 O422 1.261 . S
C429 O424 1.259 . S
C429 O426 1.235 . S
O430 Co420 2.021 . S
O430 C427 1.238 . S
O431 Co425 2.052 . S
O431 C427 1.241 . S
O432 Co420 2.137 . S
O432 C423 1.247 . S
O433 Co420 2.244 . S
O433 C423 1.272 . S
O433 Co425 2.135 . S
Co434 O435 2.216 . S
Co434 O436 2.091 . S
Co434 O438 2.004 . S
Co434 O444 2.021 . S
Co434 O446 2.137 . S
Co434 O447 2.244 . S
O435 Co434 2.216 . S
O435 C442 1.247 . S
O436 Co434 2.091 . S
O436 C442 1.261 . S
C437 O446 1.247 . S
C437 O447 1.272 . S
O438 Co434 2.004 . S
O438 C443 1.259 . S
Co439 O440 2.061 . S
Co439 O445 2.052 . S
Co439 O447 2.135 . S
O440 Co439 2.061 . S
O440 C443 1.235 . S
C441 O444 1.238 . S
C441 O445 1.241 . S
C442 O435 1.247 . S
C442 O436 1.261 . S
C443 O438 1.259 . S
C443 O440 1.235 . S
O444 Co434 2.021 . S
O444 C441 1.238 . S
O445 Co439 2.052 . S
O445 C441 1.241 . S
O446 Co434 2.137 . S
O446 C437 1.247 . S
O447 Co434 2.244 . S
O447 C437 1.272 . S
O447 Co439 2.135 . S
Co448 O449 2.216 . S
Co448 O450 2.091 . S
Co448 O452 2.004 . S
Co448 O458 2.021 . S
Co448 O460 2.137 . S
Co448 O461 2.244 . S
O449 Co448 2.216 . S
O449 C456 1.247 . S
O450 Co448 2.091 . S
O450 C456 1.261 . S
C451 O460 1.247 . S
C451 O461 1.272 . S
O452 Co448 2.004 . S
O452 C457 1.259 . S
Co453 O454 2.061 . S
Co453 O459 2.052 . S
Co453 O461 2.135 . S
O454 Co453 2.061 . S
O454 C457 1.235 . S
C455 O458 1.238 . S
C455 O459 1.241 . S
C456 O449 1.247 . S
C456 O450 1.261 . S
C457 O452 1.259 . S
C457 O454 1.235 . S
O458 Co448 2.021 . S
O458 C455 1.238 . S
O459 Co453 2.052 . S
O459 C455 1.241 . S
O460 Co448 2.137 . S
O460 C451 1.247 . S
O461 Co448 2.244 . S
O461 C451 1.272 . S
O461 Co453 2.135 . S
Co462 O463 2.216 . S
Co462 O464 2.091 . S
Co462 O466 2.004 . S
Co462 O472 2.021 . S
Co462 O474 2.137 . S
Co462 O475 2.244 . S
O463 Co462 2.216 . S
O463 C470 1.247 . S
O464 Co462 2.091 . S
O464 C470 1.261 . S
C465 O474 1.247 . S
C465 O475 1.272 . S
O466 Co462 2.004 . S
O466 C471 1.259 . S
Co467 O468 2.061 . S
Co467 O473 2.052 . S
Co467 O475 2.135 . S
O468 Co467 2.061 . S
O468 C471 1.235 . S
C469 O472 1.238 . S
C469 O473 1.241 . S
C470 O463 1.247 . S
C470 O464 1.261 . S
C471 O466 1.259 . S
C471 O468 1.235 . S
O472 Co462 2.021 . S
O472 C469 1.238 . S
O473 Co467 2.052 . S
O473 C469 1.241 . S
O474 Co462 2.137 . S
O474 C465 1.247 . S
O475 Co462 2.244 . S
O475 C465 1.272 . S
O475 Co467 2.135 . S
Co476 O477 2.216 . S
Co476 O478 2.091 . S
Co476 O480 2.004 . S
Co476 O486 2.021 . S
Co476 O488 2.137 . S
Co476 O489 2.244 . S
O477 Co476 2.216 . S
O477 C484 1.247 . S
O478 Co476 2.091 . S
O478 C484 1.261 . S
C479 O488 1.247 . S
C479 O489 1.272 . S
O480 Co476 2.004 . S
O480 C485 1.259 . S
Co481 O482 2.061 . S
Co481 O487 2.052 . S
Co481 O489 2.135 . S
O482 Co481 2.061 . S
O482 C485 1.235 . S
C483 O486 1.238 . S
C483 O487 1.241 . S
C484 O477 1.247 . S
C484 O478 1.261 . S
C485 O480 1.259 . S
C485 O482 1.235 . S
O486 Co476 2.021 . S
O486 C483 1.238 . S
O487 Co481 2.052 . S
O487 C483 1.241 . S
O488 Co476 2.137 . S
O488 C479 1.247 . S
O489 Co476 2.244 . S
O489 C479 1.272 . S
O489 Co481 2.135 . S
Co490 O491 2.216 . S
Co490 O492 2.091 . S
Co490 O494 2.004 . S
Co490 O500 2.021 . S
Co490 O502 2.137 . S
Co490 O503 2.244 . S
O491 Co490 2.216 . S
O491 C498 1.247 . S
O492 Co490 2.091 . S
O492 C498 1.261 . S
C493 O502 1.247 . S
C493 O503 1.272 . S
O494 Co490 2.004 . S
O494 C499 1.259 . S
Co495 O496 2.061 . S
Co495 O501 2.052 . S
Co495 O503 2.135 . S
O496 Co495 2.061 . S
O496 C499 1.235 . S
C497 O500 1.238 . S
C497 O501 1.241 . S
C498 O491 1.247 . S
C498 O492 1.261 . S
C499 O494 1.259 . S
C499 O496 1.235 . S
O500 Co490 2.021 . S
O500 C497 1.238 . S
O501 Co495 2.052 . S
O501 C497 1.241 . S
O502 Co490 2.137 . S
O502 C493 1.247 . S
O503 Co490 2.244 . S
O503 C493 1.272 . S
O503 Co495 2.135 . S
C504 C505 1.387 . S
C504 H508 0.950 . S
C504 C513 1.390 1_565 S
C505 C504 1.387 . S
C505 C507 1.387 . S
H506 C513 0.950 . S
C507 C505 1.387 . S
C507 C509 1.390 1_565 S
C507 H511 0.950 . S
H508 C504 0.950 . S
C509 C507 1.390 1_545 S
C509 C510 1.387 . S
C509 H512 0.950 . S
C510 C509 1.387 . S
C510 C513 1.387 . S
H511 C507 0.950 . S
H512 C509 0.950 . S
C513 C504 1.390 1_545 S
C513 H506 0.950 . S
C513 C510 1.387 . S
C514 C515 1.387 . S
C514 H518 0.950 . S
C514 C523 1.390 1_455 S
C515 C514 1.387 . S
C515 C517 1.387 . S
H516 C523 0.950 . S
C517 C515 1.387 . S
C517 C519 1.390 1_455 S
C517 H521 0.950 . S
H518 C514 0.950 . S
C519 C517 1.390 1_655 S
C519 C520 1.387 . S
C519 H522 0.950 . S
C520 C519 1.387 . S
C520 C523 1.387 . S
H521 C517 0.950 . S
H522 C519 0.950 . S
C523 C514 1.390 1_655 S
C523 H516 0.950 . S
C523 C520 1.387 . S
C524 C525 1.387 . S
C524 H528 0.950 . S
C524 C533 1.390 . S
C525 C524 1.387 . S
C525 C527 1.387 . S
H526 C533 0.950 . S
C527 C525 1.387 . S
C527 C529 1.390 . S
C527 H531 0.950 . S
H528 C524 0.950 . S
C529 C527 1.390 . S
C529 C530 1.387 . S
C529 H532 0.950 . S
C530 C529 1.387 . S
C530 C533 1.387 . S
H531 C527 0.950 . S
H532 C529 0.950 . S
C533 C524 1.390 . S
C533 H526 0.950 . S
C533 C530 1.387 . S
C534 C535 1.387 . S
C534 H538 0.950 . S
C534 C543 1.390 1_565 S
C535 C534 1.387 . S
C535 C537 1.387 . S
H536 C543 0.950 . S
C537 C535 1.387 . S
C537 C539 1.390 1_565 S
C537 H541 0.950 . S
H538 C534 0.950 . S
C539 C537 1.390 1_545 S
C539 C540 1.387 . S
C539 H542 0.950 . S
C540 C539 1.387 . S
C540 C543 1.387 . S
H541 C537 0.950 . S
H542 C539 0.950 . S
C543 C534 1.390 1_545 S
C543 H536 0.950 . S
C543 C540 1.387 . S
C544 C545 1.387 . S
C544 H548 0.950 . S
C544 C553 1.390 1_455 S
C545 C544 1.387 . S
C545 C547 1.387 . S
H546 C553 0.950 . S
C547 C545 1.387 . S
C547 C549 1.390 1_455 S
C547 H551 0.950 . S
H548 C544 0.950 . S
C549 C547 1.390 1_655 S
C549 C550 1.387 . S
C549 H552 0.950 . S
C550 C549 1.387 . S
C550 C553 1.387 . S
H551 C547 0.950 . S
H552 C549 0.950 . S
C553 C544 1.390 1_655 S
C553 H546 0.950 . S
C553 C550 1.387 . S
C554 C555 1.387 . S
C554 H558 0.950 . S
C554 C563 1.390 . S
C555 C554 1.387 . S
C555 C557 1.387 . S
H556 C563 0.950 . S
C557 C555 1.387 . S
C557 C559 1.390 . S
C557 H561 0.950 . S
H558 C554 0.950 . S
C559 C557 1.390 . S
C559 C560 1.387 . S
C559 H562 0.950 . S
C560 C559 1.387 . S
C560 C563 1.387 . S
H561 C557 0.950 . S
H562 C559 0.950 . S
C563 C554 1.390 . S
C563 H556 0.950 . S
C563 C560 1.387 . S
C564 C565 1.387 1_455 S
C564 H568 0.950 . S
C564 C573 1.390 1_455 S
C565 C564 1.387 1_655 S
C565 C567 1.387 . S
H566 C573 0.950 1_455 S
C567 C565 1.387 . S
C567 C569 1.390 . S
C567 H571 0.950 . S
H568 C564 0.950 . S
C569 C567 1.390 . S
C569 C570 1.387 . S
C569 H572 0.950 . S
C570 C569 1.387 . S
C570 C573 1.387 . S
H571 C567 0.950 . S
H572 C569 0.950 . S
C573 C564 1.390 1_655 S
C573 H566 0.950 1_655 S
C573 C570 1.387 . S
C574 C575 1.387 . S
C574 H578 0.950 . S
C574 C583 1.390 . S
C575 C574 1.387 . S
C575 C577 1.387 . S
H576 C583 0.950 . S
C577 C575 1.387 . S
C577 C579 1.390 . S
C577 H581 0.950 . S
H578 C574 0.950 . S
C579 C577 1.390 . S
C579 C580 1.387 . S
C579 H582 0.950 . S
C580 C579 1.387 . S
C580 C583 1.387 . S
H581 C577 0.950 . S
H582 C579 0.950 . S
C583 C574 1.390 . S
C583 H576 0.950 . S
C583 C580 1.387 . S
C584 C585 1.387 . S
C584 H588 0.950 . S
C584 C593 1.390 . S
C585 C584 1.387 . S
C585 C587 1.387 . S
H586 C593 0.950 . S
C587 C585 1.387 . S
C587 C589 1.390 . S
C587 H591 0.950 . S
H588 C584 0.950 . S
C589 C587 1.390 . S
C589 C590 1.387 . S
C589 H592 0.950 1_545 S
C590 C589 1.387 . S
C590 C593 1.387 . S
H591 C587 0.950 . S
H592 C589 0.950 1_565 S
C593 C584 1.390 . S
C593 H586 0.950 . S
C593 C590 1.387 . S
C594 C595 1.387 . S
C594 H598 0.950 . S
C594 C603 1.390 . S
C595 C594 1.387 . S
C595 C597 1.387 . S
H596 C603 0.950 . S
C597 C595 1.387 . S
C597 C599 1.390 . S
C597 H601 0.950 . S
H598 C594 0.950 . S
C599 C597 1.390 . S
C599 C600 1.387 . S
C599 H602 0.950 . S
C600 C599 1.387 . S
C600 C603 1.387 . S
H601 C597 0.950 . S
H602 C599 0.950 . S
C603 C594 1.390 . S
C603 H596 0.950 . S
C603 C600 1.387 . S
C604 C605 1.387 . S
C604 H608 0.950 1_545 S
C604 C613 1.390 . S
C605 C604 1.387 . S
C605 C607 1.387 . S
H606 C613 0.950 . S
C607 C605 1.387 . S
C607 C609 1.390 . S
C607 H611 0.950 . S
H608 C604 0.950 1_565 S
C609 C607 1.390 . S
C609 C610 1.387 . S
C609 H612 0.950 . S
C610 C609 1.387 . S
C610 C613 1.387 . S
H611 C607 0.950 . S
H612 C609 0.950 . S
C613 C604 1.390 . S
C613 H606 0.950 . S
C613 C610 1.387 . S
C614 C615 1.387 . S
C614 H618 0.950 . S
C614 C623 1.390 . S
C615 C614 1.387 . S
C615 C617 1.387 . S
H616 C623 0.950 . S
C617 C615 1.387 . S
C617 C619 1.390 . S
C617 H621 0.950 . S
H618 C614 0.950 . S
C619 C617 1.390 . S
C619 C620 1.387 . S
C619 H622 0.950 . S
C620 C619 1.387 . S
C620 C623 1.387 . S
H621 C617 0.950 . S
H622 C619 0.950 . S
C623 C614 1.390 . S
C623 H616 0.950 . S
C623 C620 1.387 . S
C624 C625 1.387 . S
C624 H628 0.950 . S
C624 C633 1.390 . S
C625 C624 1.387 . S
C625 C627 1.387 . S
H626 C633 0.950 . S
C627 C625 1.387 . S
C627 C629 1.390 . S
C627 H631 0.950 . S
H628 C624 0.950 . S
C629 C627 1.390 . S
C629 C630 1.387 . S
C629 H632 0.950 . S
C630 C629 1.387 . S
C630 C633 1.387 . S
H631 C627 0.950 . S
H632 C629 0.950 . S
C633 C624 1.390 . S
C633 H626 0.950 . S
C633 C630 1.387 . S
C634 C635 1.387 . S
C634 H638 0.950 1_565 S
C634 C643 1.390 . S
C635 C634 1.387 . S
C635 C637 1.387 . S
H636 C643 0.950 . S
C637 C635 1.387 . S
C637 C639 1.390 . S
C637 H641 0.950 . S
H638 C634 0.950 1_545 S
C639 C637 1.390 . S
C639 C640 1.387 . S
C639 H642 0.950 . S
C640 C639 1.387 . S
C640 C643 1.387 . S
H641 C637 0.950 . S
H642 C639 0.950 . S
C643 C634 1.390 . S
C643 H636 0.950 . S
C643 C640 1.387 . S
C644 C645 1.387 . S
C644 H648 0.950 . S
C644 C653 1.390 . S
C645 C644 1.387 . S
C645 C647 1.387 . S
H646 C653 0.950 . S
C647 C645 1.387 . S
C647 C649 1.390 . S
C647 H651 0.950 . S
H648 C644 0.950 . S
C649 C647 1.390 . S
C649 C650 1.387 . S
C649 H652 0.956 . S
C650 C649 1.387 . S
C650 C653 1.387 . S
H651 C647 0.950 . S
H652 C649 0.956 . S
C653 C644 1.390 . S
C653 H646 0.950 . S
C653 C650 1.387 . S
C654 C655 1.387 . S
C654 H658 0.950 1_455 S
C654 C663 1.390 1_455 S
C655 C654 1.387 . S
C655 C657 1.387 . S
H656 C663 0.950 . S
C657 C655 1.387 . S
C657 C659 1.390 . S
C657 H661 0.950 . S
H658 C654 0.950 1_655 S
C659 C657 1.390 . S
C659 C660 1.387 . S
C659 H662 0.950 . S
C660 C659 1.387 . S
C660 C663 1.387 1_455 S
H661 C657 0.950 . S
H662 C659 0.950 . S
C663 C654 1.390 1_655 S
C663 H656 0.950 . S
C663 C660 1.387 1_655 S
C664 C665 1.387 . S
C664 H668 0.950 . S
C664 C673 1.390 . S
C665 C664 1.387 . S
C665 C667 1.387 . S
H666 C673 0.950 . S
C667 C665 1.387 . S
C667 C669 1.390 . S
C667 H671 0.950 . S
H668 C664 0.950 . S
C669 C667 1.390 . S
C669 C670 1.387 . S
C669 H672 0.950 . S
C670 C669 1.387 . S
C670 C673 1.387 . S
H671 C667 0.950 . S
H672 C669 0.950 . S
C673 C664 1.390 . S
C673 H666 0.950 . S
C673 C670 1.387 . S
C674 C675 1.387 . S
C674 H678 0.950 . S
C674 C683 1.390 . S
C675 C674 1.387 . S
C675 C677 1.387 . S
H676 C683 0.950 . S
C677 C675 1.387 . S
C677 C679 1.390 1_565 S
C677 H681 0.950 . S
H678 C674 0.950 . S
C679 C677 1.390 1_545 S
C679 C680 1.387 1_545 S
C679 H682 0.950 . S
C680 C679 1.387 1_565 S
C680 C683 1.387 . S
H681 C677 0.950 . S
H682 C679 0.950 . S
C683 C674 1.390 . S
C683 H676 0.950 . S
C683 C680 1.387 . S
C684 C685 1.387 . S
C684 H688 0.950 . S
C684 C693 1.390 . S
C685 C684 1.387 . S
C685 C687 1.387 . S
H686 C693 0.950 . S
C687 C685 1.387 . S
C687 C689 1.390 . S
C687 H691 0.950 . S
H688 C684 0.950 . S
C689 C687 1.390 . S
C689 C690 1.387 . S
C689 H692 0.950 . S
C690 C689 1.387 . S
C690 C693 1.387 . S
H691 C687 0.950 . S
H692 C689 0.950 . S
C693 C684 1.390 . S
C693 H686 0.950 . S
C693 C690 1.387 . S
C694 C695 1.387 . S
C694 H698 0.950 . S
C694 C703 1.390 . S
C695 C694 1.387 . S
C695 C697 1.387 . S
H696 C703 0.950 . S
C697 C695 1.387 . S
C697 C699 1.390 . S
C697 H701 0.950 . S
H698 C694 0.950 . S
C699 C697 1.390 . S
C699 C700 1.387 . S
C699 H702 0.950 . S
C700 C699 1.387 . S
C700 C703 1.387 . S
H701 C697 0.950 . S
H702 C699 0.950 . S
C703 C694 1.390 . S
C703 H696 0.950 . S
C703 C700 1.387 . S
C704 C705 1.387 . S
C704 H708 0.950 . S
C704 C713 1.390 . S
C705 C704 1.387 . S
C705 C707 1.387 . S
H706 C713 0.950 . S
C707 C705 1.387 . S
C707 C709 1.390 . S
C707 H711 0.950 . S
H708 C704 0.950 . S
C709 C707 1.390 . S
C709 C710 1.387 . S
C709 H712 0.950 . S
C710 C709 1.387 . S
C710 C713 1.387 . S
H711 C707 0.950 . S
H712 C709 0.950 . S
C713 C704 1.390 . S
C713 H706 0.950 . S
C713 C710 1.387 . S
C714 C715 1.387 . S
C714 H718 0.950 . S
C714 C723 1.390 . S
C715 C714 1.387 . S
C715 C717 1.387 . S
H716 C723 0.950 . S
C717 C715 1.387 . S
C717 C719 1.390 . S
C717 H721 0.950 . S
H718 C714 0.950 . S
C719 C717 1.390 . S
C719 C720 1.387 . S
C719 H722 0.950 . S
C720 C719 1.387 . S
C720 C723 1.387 . S
H721 C717 0.950 . S
H722 C719 0.950 . S
C723 C714 1.390 . S
C723 H716 0.950 . S
C723 C720 1.387 . S
C724 C725 1.387 . S
C724 H728 0.950 . S
C724 C733 1.390 . S
C725 C724 1.387 . S
C725 C727 1.387 . S
H726 C733 0.950 . S
C727 C725 1.387 . S
C727 C729 1.390 . S
C727 H731 0.950 . S
H728 C724 0.950 . S
C729 C727 1.390 . S
C729 C730 1.387 . S
C729 H732 0.950 . S
C730 C729 1.387 . S
C730 C733 1.387 . S
H731 C727 0.950 . S
H732 C729 0.950 . S
C733 C724 1.390 . S
C733 H726 0.950 . S
C733 C730 1.387 . S
C734 C735 1.387 . S
C734 H738 0.950 . S
C734 C743 1.390 . S
C735 C734 1.387 . S
C735 C737 1.387 . S
H736 C743 0.950 . S
C737 C735 1.387 . S
C737 C739 1.390 . S
C737 H741 0.950 . S
H738 C734 0.950 . S
C739 C737 1.390 . S
C739 C740 1.387 . S
C739 H742 0.950 . S
C740 C739 1.387 . S
C740 C743 1.387 . S
H741 C737 0.950 . S
H742 C739 0.950 . S
C743 C734 1.390 . S
C743 H736 0.950 . S
C743 C740 1.387 . S
C744 C745 1.387 . S
C744 H748 0.950 . S
C744 C753 1.390 . S
C745 C744 1.387 . S
C745 C747 1.387 . S
H746 C753 0.950 . S
C747 C745 1.387 . S
C747 C749 1.390 . S
C747 H751 0.950 . S
H748 C744 0.950 . S
C749 C747 1.390 . S
C749 C750 1.387 . S
C749 H752 0.950 . S
C750 C749 1.387 . S
C750 C753 1.387 . S
H751 C747 0.950 . S
H752 C749 0.950 . S
C753 C744 1.390 . S
C753 H746 0.950 . S
C753 C750 1.387 . S
C754 C755 1.387 . S
C754 H758 0.950 . S
C754 C763 1.390 . S
C755 C754 1.387 . S
C755 C757 1.387 . S
H756 C763 0.950 . S
C757 C755 1.387 . S
C757 C759 1.390 . S
C757 H761 0.950 . S
H758 C754 0.950 . S
C759 C757 1.390 . S
C759 C760 1.387 . S
C759 H762 0.950 . S
C760 C759 1.387 . S
C760 C763 1.387 . S
H761 C757 0.950 . S
H762 C759 0.950 . S
C763 C754 1.390 . S
C763 H756 0.950 . S
C763 C760 1.387 . S
C764 C765 1.387 . S
C764 H768 0.950 . S
C764 C773 1.390 . S
C765 C764 1.387 . S
C765 C767 1.387 . S
H766 C773 0.950 . S
C767 C765 1.387 . S
C767 C769 1.390 . S
C767 H771 0.950 . S
H768 C764 0.950 . S
C769 C767 1.390 . S
C769 C770 1.387 . S
C769 H772 0.950 . S
C770 C769 1.387 . S
C770 C773 1.387 . S
H771 C767 0.950 . S
H772 C769 0.950 . S
C773 C764 1.390 . S
C773 H766 0.950 . S
C773 C770 1.387 . S
C774 C775 1.387 . S
C774 H778 0.950 . S
C774 C783 1.390 . S
C775 C774 1.387 . S
C775 C777 1.387 . S
H776 C783 0.950 . S
C777 C775 1.387 . S
C777 C779 1.390 . S
C777 H781 0.950 . S
H778 C774 0.950 . S
C779 C777 1.390 . S
C779 C780 1.387 . S
C779 H782 0.950 . S
C780 C779 1.387 . S
C780 C783 1.387 . S
H781 C777 0.950 . S
H782 C779 0.950 . S
C783 C774 1.390 . S
C783 H776 0.950 . S
C783 C780 1.387 . S
C784 C785 1.387 . S
C784 H788 0.950 . S
C784 C793 1.390 . S
C785 C784 1.387 . S
C785 C787 1.387 . S
H786 C793 0.950 . S
C787 C785 1.387 . S
C787 C789 1.390 . S
C787 H791 0.950 . S
H788 C784 0.950 . S
C789 C787 1.390 . S
C789 C790 1.387 . S
C789 H792 0.950 . S
C790 C789 1.387 . S
C790 C793 1.387 . S
H791 C787 0.950 . S
H792 C789 0.950 . S
C793 C784 1.390 . S
C793 H786 0.950 . S
C793 C790 1.387 . S
C794 C795 1.387 . S
C794 H798 0.950 . S
C794 C803 1.390 . S
C795 C794 1.387 . S
C795 C797 1.387 . S
H796 C803 0.950 . S
C797 C795 1.387 . S
C797 C799 1.390 . S
C797 H801 0.950 . S
H798 C794 0.950 . S
C799 C797 1.390 . S
C799 C800 1.387 . S
C799 H802 0.950 . S
C800 C799 1.387 . S
C800 C803 1.387 . S
H801 C797 0.950 . S
H802 C799 0.950 . S
C803 C794 1.390 . S
C803 H796 0.950 . S
C803 C800 1.387 . S
C804 C805 1.387 . S
C804 H808 0.950 . S
C804 C813 1.390 1_455 S
C805 C804 1.387 . S
C805 C807 1.387 . S
H806 C813 0.950 . S
C807 C805 1.387 . S
C807 C809 1.390 1_455 S
C807 H811 0.950 . S
H808 C804 0.950 . S
C809 C807 1.390 1_655 S
C809 C810 1.387 . S
C809 H812 0.950 . S
C810 C809 1.387 . S
C810 C813 1.387 . S
H811 C807 0.950 . S
H812 C809 0.950 . S
C813 C804 1.390 1_655 S
C813 H806 0.950 . S
C813 C810 1.387 . S
C814 C815 1.387 . S
C814 H818 0.950 . S
C814 C823 1.390 . S
C815 C814 1.387 . S
C815 C817 1.387 . S
H816 C823 0.950 . S
C817 C815 1.387 . S
C817 C819 1.390 . S
C817 H821 0.950 . S
H818 C814 0.950 . S
C819 C817 1.390 . S
C819 C820 1.387 . S
C819 H822 0.950 . S
C820 C819 1.387 . S
C820 C823 1.387 . S
H821 C817 0.950 . S
H822 C819 0.950 . S
C823 C814 1.390 . S
C823 H816 0.950 . S
C823 C820 1.387 . S
C824 C825 1.387 . S
C824 H828 0.950 . S
C824 C833 1.390 1_545 S
C825 C824 1.387 . S
C825 C827 1.387 . S
H826 C833 0.950 . S
C827 C825 1.387 . S
C827 C829 1.390 1_545 S
C827 H831 0.950 . S
H828 C824 0.950 . S
C829 C827 1.390 1_565 S
C829 C830 1.387 . S
C829 H832 0.950 . S
C830 C829 1.387 . S
C830 C833 1.387 . S
H831 C827 0.950 . S
H832 C829 0.950 . S
C833 C824 1.390 1_565 S
C833 H826 0.950 . S
C833 C830 1.387 . S
C834 C835 1.387 . S
C834 H838 0.950 . S
C834 C843 1.390 1_565 S
C835 C834 1.387 . S
C835 C837 1.387 . S
H836 C843 0.950 . S
C837 C835 1.387 . S
C837 C839 1.390 1_565 S
C837 H841 0.950 . S
H838 C834 0.950 . S
C839 C837 1.390 1_545 S
C839 C840 1.387 . S
C839 H842 0.950 . S
C840 C839 1.387 . S
C840 C843 1.387 . S
H841 C837 0.950 . S
H842 C839 0.950 . S
C843 C834 1.390 1_545 S
C843 H836 0.950 . S
C843 C840 1.387 . S
C844 C845 1.387 . S
C844 H848 0.950 . S
C844 C853 1.390 1_655 S
C845 C844 1.387 . S
C845 C847 1.387 . S
H846 C853 0.950 . S
C847 C845 1.387 . S
C847 C849 1.390 1_655 S
C847 H851 0.950 . S
H848 C844 0.950 . S
C849 C847 1.390 1_455 S
C849 C850 1.387 . S
C849 H852 0.950 . S
C850 C849 1.387 . S
C850 C853 1.387 . S
H851 C847 0.950 . S
H852 C849 0.950 . S
C853 C844 1.390 1_455 S
C853 H846 0.950 . S
C853 C850 1.387 . S
C854 C855 1.387 . S
C854 H858 0.950 . S
C854 C863 1.390 . S
C855 C854 1.387 . S
C855 C857 1.387 . S
H856 C863 0.950 . S
C857 C855 1.387 . S
C857 C859 1.390 . S
C857 H861 0.950 . S
H858 C854 0.950 . S
C859 C857 1.390 . S
C859 C860 1.387 . S
C859 H862 0.950 . S
C860 C859 1.387 . S
C860 C863 1.387 . S
H861 C857 0.950 . S
H862 C859 0.950 . S
C863 C854 1.390 . S
C863 H856 0.950 . S
C863 C860 1.387 . S
C864 C865 1.387 . S
C864 H868 0.950 . S
C864 C873 1.390 . S
C865 C864 1.387 . S
C865 C867 1.387 . S
H866 C873 0.950 . S
C867 C865 1.387 . S
C867 C869 1.390 . S
C867 H871 0.950 . S
H868 C864 0.950 . S
C869 C867 1.390 . S
C869 C870 1.387 . S
C869 H872 0.950 . S
C870 C869 1.387 . S
C870 C873 1.387 . S
H871 C867 0.950 . S
H872 C869 0.950 . S
C873 C864 1.390 . S
C873 H866 0.950 . S
C873 C870 1.387 . S
C874 C875 1.387 . S
C874 H878 0.950 . S
C874 C883 1.390 . S
C875 C874 1.387 . S
C875 C877 1.387 . S
H876 C883 0.950 . S
C877 C875 1.387 . S
C877 C879 1.390 . S
C877 H881 0.950 . S
H878 C874 0.950 . S
C879 C877 1.390 . S
C879 C880 1.387 . S
C879 H882 0.950 . S
C880 C879 1.387 . S
C880 C883 1.387 . S
H881 C877 0.950 . S
H882 C879 0.950 . S
C883 C874 1.390 . S
C883 H876 0.950 . S
C883 C880 1.387 . S
C884 C885 1.387 . S
C884 H888 0.950 . S
C884 C893 1.390 . S
C885 C884 1.387 . S
C885 C887 1.387 . S
H886 C893 0.950 . S
C887 C885 1.387 . S
C887 C889 1.390 . S
C887 H891 0.950 . S
H888 C884 0.950 . S
C889 C887 1.390 . S
C889 C890 1.387 . S
C889 H892 0.950 . S
C890 C889 1.387 . S
C890 C893 1.387 . S
H891 C887 0.950 . S
H892 C889 0.950 . S
C893 C884 1.390 . S
C893 H886 0.950 . S
C893 C890 1.387 . S
C894 C895 1.387 . S
C894 H898 0.950 . S
C894 C903 1.390 . S
C895 C894 1.387 . S
C895 C897 1.387 . S
H896 C903 0.950 . S
C897 C895 1.387 . S
C897 C899 1.390 . S
C897 H901 0.950 . S
H898 C894 0.950 . S
C899 C897 1.390 . S
C899 C900 1.387 . S
C899 H902 0.950 . S
C900 C899 1.387 . S
C900 C903 1.387 . S
H901 C897 0.950 . S
H902 C899 0.950 . S
C903 C894 1.390 . S
C903 H896 0.950 . S
C903 C900 1.387 . S
C904 C905 1.387 . S
C904 H908 0.950 . S
C904 C913 1.390 . S
C905 C904 1.387 . S
C905 C907 1.387 . S
H906 C913 0.950 . S
C907 C905 1.387 . S
C907 C909 1.390 . S
C907 H911 0.950 . S
H908 C904 0.950 . S
C909 C907 1.390 . S
C909 C910 1.387 . S
C909 H912 0.950 . S
C910 C909 1.387 . S
C910 C913 1.387 . S
H911 C907 0.950 . S
H912 C909 0.950 . S
C913 C904 1.390 . S
C913 H906 0.950 . S
C913 C910 1.387 . S
C914 C915 1.387 . S
C914 H918 0.950 . S
C914 C923 1.390 . S
C915 C914 1.387 . S
C915 C917 1.387 . S
H916 C923 0.950 . S
C917 C915 1.387 . S
C917 C919 1.390 . S
C917 H921 0.950 . S
H918 C914 0.950 . S
C919 C917 1.390 . S
C919 C920 1.387 . S
C919 H922 0.950 . S
C920 C919 1.387 . S
C920 C923 1.387 . S
H921 C917 0.950 . S
H922 C919 0.950 . S
C923 C914 1.390 . S
C923 H916 0.950 . S
C923 C920 1.387 . S
C924 C925 1.387 . S
C924 H928 0.950 . S
C924 C933 1.390 . S
C925 C924 1.387 . S
C925 C927 1.387 . S
H926 C933 0.950 . S
C927 C925 1.387 . S
C927 C929 1.390 . S
C927 H931 0.950 . S
H928 C924 0.950 . S
C929 C927 1.390 . S
C929 C930 1.387 . S
C929 H932 0.950 . S
C930 C929 1.387 . S
C930 C933 1.387 . S
H931 C927 0.950 . S
H932 C929 0.950 . S
C933 C924 1.390 . S
C933 H926 0.950 . S
C933 C930 1.387 . S
C934 C935 1.387 . S
C934 H938 0.950 . S
C934 C943 1.390 . S
C935 C934 1.387 . S
C935 C937 1.387 . S
H936 C943 0.950 . S
C937 C935 1.387 . S
C937 C939 1.390 . S
C937 H941 0.950 . S
H938 C934 0.950 . S
C939 C937 1.390 . S
C939 C940 1.387 . S
C939 H942 0.950 . S
C940 C939 1.387 . S
C940 C943 1.387 . S
H941 C937 0.950 . S
H942 C939 0.950 . S
C943 C934 1.390 . S
C943 H936 0.950 . S
C943 C940 1.387 . S
C944 C945 1.387 . S
C944 H948 0.950 . S
C944 C953 1.390 . S
C945 C944 1.387 . S
C945 C947 1.387 . S
H946 C953 0.950 . S
C947 C945 1.387 . S
C947 C949 1.390 . S
C947 H951 0.950 . S
H948 C944 0.950 . S
C949 C947 1.390 . S
C949 C950 1.387 . S
C949 H952 0.950 . S
C950 C949 1.387 . S
C950 C953 1.387 . S
H951 C947 0.950 . S
H952 C949 0.950 . S
C953 C944 1.390 . S
C953 H946 0.950 . S
C953 C950 1.387 . S
C954 C955 1.387 . S
C954 H958 0.950 . S
C954 C963 1.390 . S
C955 C954 1.387 . S
C955 C957 1.387 . S
H956 C963 0.950 . S
C957 C955 1.387 . S
C957 C959 1.390 . S
C957 H961 0.950 . S
H958 C954 0.950 . S
C959 C957 1.390 . S
C959 C960 1.387 . S
C959 H962 0.950 . S
C960 C959 1.387 . S
C960 C963 1.387 . S
H961 C957 0.950 . S
H962 C959 0.950 . S
C963 C954 1.390 . S
C963 H956 0.950 . S
C963 C960 1.387 . S
C964 C965 1.387 . S
C964 H968 0.950 . S
C964 C973 1.390 . S
C965 C964 1.387 . S
C965 C967 1.387 . S
H966 C973 0.950 . S
C967 C965 1.387 . S
C967 C969 1.390 . S
C967 H971 0.950 . S
H968 C964 0.950 . S
C969 C967 1.390 . S
C969 C970 1.387 . S
C969 H972 0.950 . S
C970 C969 1.387 . S
C970 C973 1.387 . S
H971 C967 0.950 . S
H972 C969 0.950 . S
C973 C964 1.390 . S
C973 H966 0.950 . S
C973 C970 1.387 . S
C974 C975 1.387 . S
C974 H978 0.950 . S
C974 C983 1.390 . S
C975 C974 1.387 . S
C975 C977 1.387 . S
H976 C983 0.950 . S
C977 C975 1.387 . S
C977 C979 1.390 . S
C977 H981 0.950 . S
H978 C974 0.950 . S
C979 C977 1.390 . S
C979 C980 1.387 . S
C979 H982 0.950 . S
C980 C979 1.387 . S
C980 C983 1.387 . S
H981 C977 0.950 . S
H982 C979 0.950 . S
C983 C974 1.390 . S
C983 H976 0.950 . S
C983 C980 1.387 . S
C984 C985 1.387 . S
C984 H988 0.950 . S
C984 C993 1.390 1_455 S
C985 C984 1.387 . S
C985 C987 1.387 . S
H986 C993 0.950 . S
C987 C985 1.387 . S
C987 C989 1.390 1_455 S
C987 H991 0.950 . S
H988 C984 0.950 . S
C989 C987 1.390 1_655 S
C989 C990 1.387 . S
C989 H992 0.950 . S
C990 C989 1.387 . S
C990 C993 1.387 . S
H991 C987 0.950 . S
H992 C989 0.950 . S
C993 C984 1.390 1_655 S
C993 H986 0.950 . S
C993 C990 1.387 . S
C994 C995 1.387 . S
C994 H998 0.950 . S
C994 C1003 1.390 . S
C995 C994 1.387 . S
C995 C997 1.387 . S
H996 C1003 0.950 . S
C997 C995 1.387 . S
C997 C999 1.390 . S
C997 H1001 0.950 . S
H998 C994 0.950 . S
C999 C997 1.390 . S
C999 C1000 1.387 . S
C999 H1002 0.950 . S
C1000 C999 1.387 . S
C1000 C1003 1.387 . S
H1001 C997 0.950 . S
H1002 C999 0.950 . S
C1003 C994 1.390 . S
C1003 H996 0.950 . S
C1003 C1000 1.387 . S
C1004 C1005 1.387 . S
C1004 H1008 0.950 . S
C1004 C1013 1.390 . S
C1005 C1004 1.387 . S
C1005 C1007 1.387 1_545 S
H1006 C1013 0.950 . S
C1007 C1005 1.387 1_565 S
C1007 C1009 1.390 . S
C1007 H1011 0.950 . S
H1008 C1004 0.950 . S
C1009 C1007 1.390 . S
C1009 C1010 1.387 . S
C1009 H1012 0.950 . S
C1010 C1009 1.387 . S
C1010 C1013 1.387 1_565 S
H1011 C1007 0.950 . S
H1012 C1009 0.950 . S
C1013 C1004 1.390 . S
C1013 H1006 0.950 . S
C1013 C1010 1.387 1_545 S
C1014 C1015 1.387 1_554 S
C1014 H1018 0.950 . S
C1014 C1023 1.390 . S
C1015 C1014 1.387 1_556 S
C1015 C1017 1.387 1_545 S
H1016 C1023 0.950 . S
C1017 C1015 1.387 1_565 S
C1017 C1019 1.390 . S
C1017 H1021 0.950 . S
H1018 C1014 0.950 . S
C1019 C1017 1.390 . S
C1019 C1020 1.387 1_556 S
C1019 H1022 0.950 . S
C1020 C1019 1.387 1_554 S
C1020 C1023 1.387 1_565 S
H1021 C1017 0.950 . S
H1022 C1019 0.950 . S
C1023 C1014 1.390 . S
C1023 H1016 0.950 . S
C1023 C1020 1.387 1_545 S
C1024 C1025 1.387 1_656 S
C1024 H1028 0.950 . S
C1024 C1033 1.390 . S
C1025 C1024 1.387 1_454 S
C1025 C1027 1.387 . S
H1026 C1033 0.950 . S
C1027 C1025 1.387 . S
C1027 C1029 1.390 . S
C1027 H1031 0.950 . S
H1028 C1024 0.950 . S
C1029 C1027 1.390 . S
C1029 C1030 1.387 1_454 S
C1029 H1032 0.950 . S
C1030 C1029 1.387 1_656 S
C1030 C1033 1.387 . S
H1031 C1027 0.950 . S
H1032 C1029 0.950 . S
C1033 C1024 1.390 . S
C1033 H1026 0.950 . S
C1033 C1030 1.387 . S
C1034 C1035 1.387 . S
C1034 H1038 0.950 . S
C1034 C1043 1.390 1_554 S
C1035 C1034 1.387 . S
C1035 C1037 1.387 . S
H1036 C1043 0.950 . S
C1037 C1035 1.387 . S
C1037 C1039 1.390 1_554 S
C1037 H1041 0.950 . S
H1038 C1034 0.950 . S
C1039 C1037 1.390 1_556 S
C1039 C1040 1.387 . S
C1039 H1042 0.950 . S
C1040 C1039 1.387 . S
C1040 C1043 1.387 . S
H1041 C1037 0.950 . S
H1042 C1039 0.950 . S
C1043 C1034 1.390 1_556 S
C1043 H1036 0.950 . S
C1043 C1040 1.387 . S
C1044 C1045 1.387 . S
C1044 H1048 0.950 . S
C1044 C1053 1.390 . S
C1045 C1044 1.387 . S
C1045 C1047 1.387 . S
H1046 C1053 0.950 . S
C1047 C1045 1.387 . S
C1047 C1049 1.390 . S
C1047 H1051 0.950 . S
H1048 C1044 0.950 . S
C1049 C1047 1.390 . S
C1049 C1050 1.387 . S
C1049 H1052 0.950 . S
C1050 C1049 1.387 . S
C1050 C1053 1.387 . S
H1051 C1047 0.950 . S
H1052 C1049 0.950 . S
C1053 C1044 1.390 . S
C1053 H1046 0.950 . S
C1053 C1050 1.387 . S
C1054 C1055 1.387 . S
C1054 H1058 0.950 . S
C1054 C1063 1.390 . S
C1055 C1054 1.387 . S
C1055 C1057 1.387 . S
H1056 C1063 0.950 . S
C1057 C1055 1.387 . S
C1057 C1059 1.390 . S
C1057 H1061 0.950 . S
H1058 C1054 0.950 . S
C1059 C1057 1.390 . S
C1059 C1060 1.387 . S
C1059 H1062 0.950 . S
C1060 C1059 1.387 . S
C1060 C1063 1.387 . S
H1061 C1057 0.950 . S
H1062 C1059 0.950 . S
C1063 C1054 1.390 . S
C1063 H1056 0.950 . S
C1063 C1060 1.387 . S
C1064 C1065 1.387 . S
C1064 H1068 0.950 . S
C1064 C1073 1.390 . S
C1065 C1064 1.387 . S
C1065 C1067 1.387 . S
H1066 C1073 0.950 . S
C1067 C1065 1.387 . S
C1067 C1069 1.390 . S
C1067 H1071 0.950 . S
H1068 C1064 0.950 . S
C1069 C1067 1.390 . S
C1069 C1070 1.387 . S
C1069 H1072 0.950 . S
C1070 C1069 1.387 . S
C1070 C1073 1.387 . S
H1071 C1067 0.950 . S
H1072 C1069 0.950 . S
C1073 C1064 1.390 . S
C1073 H1066 0.950 . S
C1073 C1070 1.387 . S
C1074 C1075 1.387 . S
C1074 H1078 0.950 . S
C1074 C1083 1.390 . S
C1075 C1074 1.387 . S
C1075 C1077 1.387 . S
H1076 C1083 0.950 . S
C1077 C1075 1.387 . S
C1077 C1079 1.390 . S
C1077 H1081 0.950 . S
H1078 C1074 0.950 . S
C1079 C1077 1.390 . S
C1079 C1080 1.387 . S
C1079 H1082 0.950 . S
C1080 C1079 1.387 . S
C1080 C1083 1.387 . S
H1081 C1077 0.950 . S
H1082 C1079 0.950 . S
C1083 C1074 1.390 . S
C1083 H1076 0.950 . S
C1083 C1080 1.387 . S
C1084 C1085 1.387 . S
C1084 H1088 0.950 . S
C1084 C1093 1.390 . S
C1085 C1084 1.387 . S
C1085 C1087 1.387 . S
H1086 C1093 0.950 . S
C1087 C1085 1.387 . S
C1087 C1089 1.390 . S
C1087 H1091 0.950 . S
H1088 C1084 0.950 . S
C1089 C1087 1.390 . S
C1089 C1090 1.387 . S
C1089 H1092 0.950 . S
C1090 C1089 1.387 . S
C1090 C1093 1.387 . S
H1091 C1087 0.950 . S
H1092 C1089 0.950 . S
C1093 C1084 1.390 . S
C1093 H1086 0.950 . S
C1093 C1090 1.387 . S
C1094 C1095 1.387 . S
C1094 H1098 0.950 . S
C1094 C1103 1.390 . S
C1095 C1094 1.387 . S
C1095 C1097 1.387 . S
H1096 C1103 0.950 . S
C1097 C1095 1.387 . S
C1097 C1099 1.390 . S
C1097 H1101 0.950 . S
H1098 C1094 0.950 . S
C1099 C1097 1.390 . S
C1099 C1100 1.387 . S
C1099 H1102 0.950 . S
C1100 C1099 1.387 . S
C1100 C1103 1.387 . S
H1101 C1097 0.950 . S
H1102 C1099 0.950 . S
C1103 C1094 1.390 . S
C1103 H1096 0.950 . S
C1103 C1100 1.387 . S
C1104 C1105 1.387 . S
C1104 H1108 0.950 . S
C1104 C1113 1.390 . S
C1105 C1104 1.387 . S
C1105 C1107 1.387 . S
H1106 C1113 0.950 . S
C1107 C1105 1.387 . S
C1107 C1109 1.390 . S
C1107 H1111 0.950 . S
H1108 C1104 0.950 . S
C1109 C1107 1.390 . S
C1109 C1110 1.387 . S
C1109 H1112 0.950 . S
C1110 C1109 1.387 . S
C1110 C1113 1.387 . S
H1111 C1107 0.950 . S
H1112 C1109 0.950 . S
C1113 C1104 1.390 . S
C1113 H1106 0.950 . S
C1113 C1110 1.387 . S
C1114 C1115 1.387 . S
C1114 H1118 0.950 . S
C1114 C1123 1.390 . S
C1115 C1114 1.387 . S
C1115 C1117 1.387 . S
H1116 C1123 0.950 . S
C1117 C1115 1.387 . S
C1117 C1119 1.390 . S
C1117 H1121 0.950 . S
H1118 C1114 0.950 . S
C1119 C1117 1.390 . S
C1119 C1120 1.387 . S
C1119 H1122 0.950 . S
C1120 C1119 1.387 . S
C1120 C1123 1.387 . S
H1121 C1117 0.950 . S
H1122 C1119 0.950 . S
C1123 C1114 1.390 . S
C1123 H1116 0.950 . S
C1123 C1120 1.387 . S
C1124 C1125 1.387 . S
C1124 H1128 0.950 . S
C1124 C1133 1.390 . S
C1125 C1124 1.387 . S
C1125 C1127 1.387 . S
H1126 C1133 0.950 . S
C1127 C1125 1.387 . S
C1127 C1129 1.390 . S
C1127 H1131 0.950 . S
H1128 C1124 0.950 . S
C1129 C1127 1.390 . S
C1129 C1130 1.387 . S
C1129 H1132 0.950 . S
C1130 C1129 1.387 . S
C1130 C1133 1.387 . S
H1131 C1127 0.950 . S
H1132 C1129 0.950 . S
C1133 C1124 1.390 . S
C1133 H1126 0.950 . S
C1133 C1130 1.387 . S
C1134 C1135 1.387 . S
C1134 H1138 0.950 . S
C1134 C1143 1.390 . S
C1135 C1134 1.387 . S
C1135 C1137 1.387 . S
H1136 C1143 0.950 . S
C1137 C1135 1.387 . S
C1137 C1139 1.390 . S
C1137 H1141 0.950 . S
H1138 C1134 0.950 . S
C1139 C1137 1.390 . S
C1139 C1140 1.387 . S
C1139 H1142 0.950 . S
C1140 C1139 1.387 . S
C1140 C1143 1.387 . S
H1141 C1137 0.950 . S
H1142 C1139 0.950 . S
C1143 C1134 1.390 . S
C1143 H1136 0.950 . S
C1143 C1140 1.387 . S
C1144 C1145 1.387 . S
C1144 H1148 0.950 . S
C1144 C1153 1.390 . S
C1145 C1144 1.387 . S
C1145 C1147 1.387 . S
H1146 C1153 0.950 . S
C1147 C1145 1.387 . S
C1147 C1149 1.390 . S
C1147 H1151 0.950 . S
H1148 C1144 0.950 . S
C1149 C1147 1.390 . S
C1149 C1150 1.387 . S
C1149 H1152 0.950 . S
C1150 C1149 1.387 . S
C1150 C1153 1.387 . S
H1151 C1147 0.950 . S
H1152 C1149 0.950 . S
C1153 C1144 1.390 . S
C1153 H1146 0.950 . S
C1153 C1150 1.387 . S
C1154 C1155 1.387 . S
C1154 H1158 0.950 . S
C1154 C1163 1.390 . S
C1155 C1154 1.387 . S
C1155 C1157 1.387 . S
H1156 C1163 0.950 . S
C1157 C1155 1.387 . S
C1157 C1159 1.390 . S
C1157 H1161 0.950 . S
H1158 C1154 0.950 . S
C1159 C1157 1.390 . S
C1159 C1160 1.387 . S
C1159 H1162 0.950 . S
C1160 C1159 1.387 . S
C1160 C1163 1.387 . S
H1161 C1157 0.950 . S
H1162 C1159 0.950 . S
C1163 C1154 1.390 . S
C1163 H1156 0.950 . S
C1163 C1160 1.387 . S
C1164 C1165 1.387 . S
C1164 H1168 0.950 . S
C1164 C1173 1.390 . S
C1165 C1164 1.387 . S
C1165 C1167 1.387 . S
H1166 C1173 0.950 . S
C1167 C1165 1.387 . S
C1167 C1169 1.390 . S
C1167 H1171 0.950 . S
H1168 C1164 0.950 . S
C1169 C1167 1.390 . S
C1169 C1170 1.387 . S
C1169 H1172 0.950 . S
C1170 C1169 1.387 . S
C1170 C1173 1.387 . S
H1171 C1167 0.950 . S
H1172 C1169 0.950 . S
C1173 C1164 1.390 . S
C1173 H1166 0.950 . S
C1173 C1170 1.387 . S
C1174 C1175 1.387 . S
C1174 H1178 0.950 . S
C1174 C1183 1.390 1_545 S
C1175 C1174 1.387 . S
C1175 C1177 1.387 . S
H1176 C1183 0.950 . S
C1177 C1175 1.387 . S
C1177 C1179 1.390 1_545 S
C1177 H1181 0.950 . S
H1178 C1174 0.950 . S
C1179 C1177 1.390 1_565 S
C1179 C1180 1.387 . S
C1179 H1182 0.950 . S
C1180 C1179 1.387 . S
C1180 C1183 1.387 . S
H1181 C1177 0.950 . S
H1182 C1179 0.950 . S
C1183 C1174 1.390 1_565 S
C1183 H1176 0.950 . S
C1183 C1180 1.387 . S
C1184 C1185 1.387 . S
C1184 H1188 0.950 . S
C1184 C1193 1.390 . S
C1185 C1184 1.387 . S
C1185 C1187 1.387 1_655 S
H1186 C1193 0.950 . S
C1187 C1185 1.387 1_455 S
C1187 C1189 1.390 . S
C1187 H1191 0.950 . S
H1188 C1184 0.950 . S
C1189 C1187 1.390 . S
C1189 C1190 1.387 . S
C1189 H1192 0.950 . S
C1190 C1189 1.387 . S
C1190 C1193 1.387 1_455 S
H1191 C1187 0.950 . S
H1192 C1189 0.950 . S
C1193 C1184 1.390 . S
C1193 H1186 0.950 . S
C1193 C1190 1.387 1_655 S
C1194 C1195 1.387 . S
C1194 H1198 0.950 . S
C1194 C1203 1.390 . S
C1195 C1194 1.387 . S
C1195 C1197 1.387 . S
H1196 C1203 0.950 . S
C1197 C1195 1.387 . S
C1197 C1199 1.390 . S
C1197 H1201 0.950 . S
H1198 C1194 0.950 . S
C1199 C1197 1.390 . S
C1199 C1200 1.387 . S
C1199 H1202 0.950 . S
C1200 C1199 1.387 . S
C1200 C1203 1.387 . S
H1201 C1197 0.950 . S
H1202 C1199 0.950 . S
C1203 C1194 1.390 . S
C1203 H1196 0.950 . S
C1203 C1200 1.387 . S
C1204 C1205 1.387 . S
C1204 H1208 0.950 . S
C1204 C1213 1.390 1_545 S
C1205 C1204 1.387 . S
C1205 C1207 1.387 . S
H1206 C1213 0.950 . S
C1207 C1205 1.387 . S
C1207 C1209 1.390 1_545 S
C1207 H1211 0.950 . S
H1208 C1204 0.950 . S
C1209 C1207 1.390 1_565 S
C1209 C1210 1.387 . S
C1209 H1212 0.950 . S
C1210 C1209 1.387 . S
C1210 C1213 1.387 . S
H1211 C1207 0.950 . S
H1212 C1209 0.950 . S
C1213 C1204 1.390 1_565 S
C1213 H1206 0.950 . S
C1213 C1210 1.387 . S
C1214 C1215 1.387 . S
C1214 H1218 0.950 . S
C1214 C1223 1.390 . S
C1215 C1214 1.387 . S
C1215 C1217 1.387 1_455 S
H1216 C1223 0.950 . S
C1217 C1215 1.387 1_655 S
C1217 C1219 1.390 . S
C1217 H1221 0.950 . S
H1218 C1214 0.950 . S
C1219 C1217 1.390 . S
C1219 C1220 1.387 . S
C1219 H1222 0.950 . S
C1220 C1219 1.387 . S
C1220 C1223 1.387 1_655 S
H1221 C1217 0.950 . S
H1222 C1219 0.950 . S
C1223 C1214 1.390 . S
C1223 H1216 0.950 . S
C1223 C1220 1.387 1_455 S
C505 C79 0.979 . S
C510 C9 0.979 . S
C515 C51 0.981 . S
C520 C23 0.978 . S
C525 C37 0.978 . S
C530 C65 0.979 . S
C535 C93 0.980 . S
C540 C163 0.980 . S
C545 C107 0.978 . S
C550 C135 0.981 . S
C555 C149 0.978 . S
C560 C121 0.981 . S
C565 C177 0.980 1_655 S
C570 C247 0.980 . S
C575 C191 0.981 . S
C580 C219 0.978 . S
C585 C233 0.978 . S
C590 C205 0.981 1_545 S
C595 C331 0.979 . S
C600 C261 0.979 . S
C605 C303 0.981 1_545 S
C610 C275 0.978 . S
C615 C289 0.978 . S
C620 C317 0.981 1_655 S
C625 C415 0.980 . S
C630 C345 0.980 . S
C635 C387 0.978 1_565 S
C640 C359 0.981 . S
C645 C373 0.981 . S
C650 C401 0.978 1_455 S
C655 C499 0.979 . S
C660 C429 0.979 1_455 S
C665 C471 0.978 . S
C670 C443 0.981 . S
C675 C485 0.981 . S
C680 C457 0.979 1_565 S
C685 C231 1.822 . S
C690 C7 1.823 . S
C695 C245 1.824 . S
C700 C21 1.826 . S
C705 C217 1.826 . S
C710 C35 1.826 . S
C715 C49 1.826 . S
C720 C371 1.810 1_554 S
C725 C63 1.826 . S
C730 C343 1.808 1_554 S
C735 C77 1.824 . S
C740 C357 1.810 1_554 S
C745 C91 1.826 . S
C750 C483 1.823 . S
C755 C497 1.825 . S
C760 C105 1.826 . S
C765 C469 1.823 . S
C770 C119 1.823 . S
C775 C287 1.807 1_556 S
C780 C133 1.823 . S
C785 C259 1.809 1_556 S
C790 C147 1.822 . S
C795 C161 1.825 . S
C800 C273 1.810 1_556 S
C805 C175 1.823 . S
C810 C399 1.823 . S
C815 C413 1.823 . S
C820 C189 1.825 . S
C825 C385 1.823 . S
C830 C203 1.823 . S
C835 C301 1.826 . S
C840 C455 1.826 . S
C845 C427 1.824 . S
C850 C315 1.822 . S
C855 C329 1.822 . S
C860 C441 1.825 . S
C865 C260 1.602 . S
C870 C8 1.602 . S
C875 C274 1.601 . S
C880 C22 1.601 . S
C885 C36 1.602 . S
C890 C288 1.602 . S
C895 C50 1.600 . S
C900 C470 1.600 . S
C905 C484 1.601 . S
C910 C64 1.601 . S
C915 C498 1.601 . S
C920 C78 1.601 . S
C925 C92 1.602 . S
C930 C344 1.602 . S
C935 C106 1.601 . S
C940 C358 1.601 . S
C945 C372 1.602 . S
C950 C120 1.602 . S
C955 C134 1.600 . S
C960 C218 1.600 . S
C965 C148 1.601 . S
C970 C232 1.601 . S
C975 C246 1.601 . S
C980 C162 1.601 . S
C985 C176 1.602 . S
C990 C428 1.602 . S
C995 C190 1.601 . S
C1000 C442 1.601 . S
C1005 C456 1.600 . S
C1010 C204 1.600 . S
C1015 C386 1.602 . S
C1020 C302 1.602 . S
C1025 C316 1.601 . S
C1030 C400 1.601 . S
C1035 C330 1.601 . S
C1040 C414 1.601 . S
C1045 C381 1.698 1_554 S
C1050 C3 1.699 . S
C1055 C17 1.698 . S
C1060 C395 1.698 1_554 S
C1065 C409 1.700 1_554 S
C1070 C31 1.699 . S
C1075 C45 1.700 . S
C1080 C171 1.698 . S
C1085 C185 1.698 . S
C1090 C59 1.698 . S
C1095 C199 1.699 . S
C1100 C73 1.698 . S
C1105 C87 1.700 . S
C1110 C297 1.698 1_556 S
C1115 C311 1.698 1_556 S
C1120 C101 1.698 . S
C1125 C115 1.700 . S
C1130 C325 1.698 1_556 S
C1135 C129 1.698 . S
C1140 C423 1.701 . S
C1145 C143 1.698 . S
C1150 C437 1.698 . S
C1155 C451 1.699 . S
C1160 C157 1.700 . S
C1165 C213 1.699 . S
C1170 C339 1.698 . S
C1175 C227 1.698 . S
C1180 C353 1.698 . S
C1185 C241 1.698 . S
C1190 C367 1.699 . S
C1195 C255 1.699 . S
C1200 C465 1.698 . S
C1205 C269 1.698 . S
C1210 C479 1.698 . S
C1215 C493 1.699 . S
C1220 C283 1.697 . S
