# Generated by pormake.
# Topology why, (6)-cn, num edge types: 1
# Building blocks:
#     Node 0, Type 0, BuildingBlock: INOVEN_clean_sbu_0, # of connection points: 6
#     Node 1, Type 0, BuildingBlock: INOVEN_clean_sbu_0, # of connection points: 6
#     Node 2, Type 0, BuildingBlock: INOVEN_clean_sbu_0, # of connection points: 6
#     Node 3, Type 0, BuildingBlock: INOVEN_clean_sbu_0, # of connection points: 6
#     Node 4, Type 0, BuildingBlock: INOVEN_clean_sbu_0, # of connection points: 6
#     Node 5, Type 0, BuildingBlock: INOVEN_clean_sbu_0, # of connection points: 6
#     Node 6, Type 0, BuildingBlock: INOVEN_clean_sbu_0, # of connection points: 6
#     Node 7, Type 0, BuildingBlock: INOVEN_clean_sbu_0, # of connection points: 6
#     Node 8, Type 0, BuildingBlock: INOVEN_clean_sbu_0, # of connection points: 6
#     Node 9, Type 0, BuildingBlock: INOVEN_clean_sbu_0, # of connection points: 6
#     Node 10, Type 0, BuildingBlock: INOVEN_clean_sbu_0, # of connection points: 6
#     Node 11, Type 0, BuildingBlock: INOVEN_clean_sbu_0, # of connection points: 6
#     Node 12, Type 0, BuildingBlock: INOVEN_clean_sbu_0, # of connection points: 6
#     Node 13, Type 0, BuildingBlock: INOVEN_clean_sbu_0, # of connection points: 6
#     Node 14, Type 0, BuildingBlock: INOVEN_clean_sbu_0, # of connection points: 6
#     Node 15, Type 0, BuildingBlock: INOVEN_clean_sbu_0, # of connection points: 6
#     Edge 16, Type (0, 0), BuildingBlock: CIFDUS_clean_linker_0, # of connection points: 2
#     Edge 17, Type (0, 0), BuildingBlock: CIFDUS_clean_linker_0, # of connection points: 2
#     Edge 18, Type (0, 0), BuildingBlock: CIFDUS_clean_linker_0, # of connection points: 2
#     Edge 19, Type (0, 0), BuildingBlock: CIFDUS_clean_linker_0, # of connection points: 2
#     Edge 20, Type (0, 0), BuildingBlock: CIFDUS_clean_linker_0, # of connection points: 2
#     Edge 21, Type (0, 0), BuildingBlock: CIFDUS_clean_linker_0, # of connection points: 2
#     Edge 22, Type (0, 0), BuildingBlock: CIFDUS_clean_linker_0, # of connection points: 2
#     Edge 23, Type (0, 0), BuildingBlock: CIFDUS_clean_linker_0, # of connection points: 2
#     Edge 24, Type (0, 0), BuildingBlock: CIFDUS_clean_linker_0, # of connection points: 2
#     Edge 25, Type (0, 0), BuildingBlock: CIFDUS_clean_linker_0, # of connection points: 2
#     Edge 26, Type (0, 0), BuildingBlock: CIFDUS_clean_linker_0, # of connection points: 2
#     Edge 27, Type (0, 0), BuildingBlock: CIFDUS_clean_linker_0, # of connection points: 2
#     Edge 28, Type (0, 0), BuildingBlock: CIFDUS_clean_linker_0, # of connection points: 2
#     Edge 29, Type (0, 0), BuildingBlock: CIFDUS_clean_linker_0, # of connection points: 2
#     Edge 30, Type (0, 0), BuildingBlock: CIFDUS_clean_linker_0, # of connection points: 2
#     Edge 31, Type (0, 0), BuildingBlock: CIFDUS_clean_linker_0, # of connection points: 2
#     Edge 32, Type (0, 0), BuildingBlock: CIFDUS_clean_linker_0, # of connection points: 2
#     Edge 33, Type (0, 0), BuildingBlock: CIFDUS_clean_linker_0, # of connection points: 2
#     Edge 34, Type (0, 0), BuildingBlock: CIFDUS_clean_linker_0, # of connection points: 2
#     Edge 35, Type (0, 0), BuildingBlock: CIFDUS_clean_linker_0, # of connection points: 2
#     Edge 36, Type (0, 0), BuildingBlock: CIFDUS_clean_linker_0, # of connection points: 2
#     Edge 37, Type (0, 0), BuildingBlock: CIFDUS_clean_linker_0, # of connection points: 2
#     Edge 38, Type (0, 0), BuildingBlock: CIFDUS_clean_linker_0, # of connection points: 2
#     Edge 39, Type (0, 0), BuildingBlock: CIFDUS_clean_linker_0, # of connection points: 2
#     Edge 40, Type (0, 0), BuildingBlock: CIFDUS_clean_linker_0, # of connection points: 2
#     Edge 41, Type (0, 0), BuildingBlock: CIFDUS_clean_linker_0, # of connection points: 2
#     Edge 42, Type (0, 0), BuildingBlock: CIFDUS_clean_linker_0, # of connection points: 2
#     Edge 43, Type (0, 0), BuildingBlock: CIFDUS_clean_linker_0, # of connection points: 2
#     Edge 44, Type (0, 0), BuildingBlock: CIFDUS_clean_linker_0, # of connection points: 2
#     Edge 45, Type (0, 0), BuildingBlock: CIFDUS_clean_linker_0, # of connection points: 2
#     Edge 46, Type (0, 0), BuildingBlock: CIFDUS_clean_linker_0, # of connection points: 2
#     Edge 47, Type (0, 0), BuildingBlock: CIFDUS_clean_linker_0, # of connection points: 2
#     Edge 48, Type (0, 0), BuildingBlock: CIFDUS_clean_linker_0, # of connection points: 2
#     Edge 49, Type (0, 0), BuildingBlock: CIFDUS_clean_linker_0, # of connection points: 2
#     Edge 50, Type (0, 0), BuildingBlock: CIFDUS_clean_linker_0, # of connection points: 2
#     Edge 51, Type (0, 0), BuildingBlock: CIFDUS_clean_linker_0, # of connection points: 2
#     Edge 52, Type (0, 0), BuildingBlock: CIFDUS_clean_linker_0, # of connection points: 2
#     Edge 53, Type (0, 0), BuildingBlock: CIFDUS_clean_linker_0, # of connection points: 2
#     Edge 54, Type (0, 0), BuildingBlock: CIFDUS_clean_linker_0, # of connection points: 2
#     Edge 55, Type (0, 0), BuildingBlock: CIFDUS_clean_linker_0, # of connection points: 2
#     Edge 56, Type (0, 0), BuildingBlock: CIFDUS_clean_linker_0, # of connection points: 2
#     Edge 57, Type (0, 0), BuildingBlock: CIFDUS_clean_linker_0, # of connection points: 2
#     Edge 58, Type (0, 0), BuildingBlock: CIFDUS_clean_linker_0, # of connection points: 2
#     Edge 59, Type (0, 0), BuildingBlock: CIFDUS_clean_linker_0, # of connection points: 2
#     Edge 60, Type (0, 0), BuildingBlock: CIFDUS_clean_linker_0, # of connection points: 2
#     Edge 61, Type (0, 0), BuildingBlock: CIFDUS_clean_linker_0, # of connection points: 2
#     Edge 62, Type (0, 0), BuildingBlock: CIFDUS_clean_linker_0, # of connection points: 2
#     Edge 63, Type (0, 0), BuildingBlock: CIFDUS_clean_linker_0, # of connection points: 2
# Relax obj value: 0.441
# Max RMSD: 0.239
# Mean RMSD: 0.239
data_MOF--net-why--node1-INOVEN_clean_sbu_0--edge1-CIFDUS_clean_linker_0
_symmetry_space_group_name_H-M    P1
_symmetry_Int_Tables_number       1
_symmetry_cell_setting            triclinic
loop_
_symmetry_equiv_pos_as_xyz
'x, y, z'
_cell_length_a     42.411072
_cell_length_b     42.172686
_cell_length_c     35.37588
_cell_angle_alpha  89.758719
_cell_angle_beta   89.923268
_cell_angle_gamma 90.802763
loop_
_atom_site_label
_atom_site_type_symbol
_atom_site_fract_x
_atom_site_fract_y
_atom_site_fract_z
_atom_type_partial_charge
Gd0 Gd 0.51489 0.24867 0.06874 0.0
Gd1 Gd 0.48393 0.28119 0.11574 0.0
C2 C 0.55708 0.30895 0.10045 0.0
C3 C 0.53983 0.21769 0.01357 0.0
C4 C 0.55506 0.22746 0.97814 0.0
C5 C 0.55377 0.20724 0.94698 0.0
C6 C 0.57114 0.25674 0.97522 0.0
C7 C 0.58734 0.24388 0.9113 0.0
C8 C 0.5873 0.26484 0.94205 0.0
C9 C 0.56961 0.21545 0.91374 0.0
C10 C 0.50527 0.2123 0.13532 0.0
C11 C 0.43866 0.25588 0.04928 0.0
C12 C 0.47082 0.29349 0.18507 0.0
C13 C 0.45503 0.27657 0.21657 0.0
C14 C 0.42211 0.27625 0.21965 0.0
C15 C 0.47295 0.26222 0.24521 0.0
C16 C 0.42558 0.25296 0.28267 0.0
C17 C 0.45834 0.25028 0.27784 0.0
C18 C 0.40755 0.26452 0.25218 0.0
C19 C 0.48149 0.31567 0.0535 0.0
O20 O 0.55704 0.28423 0.07728 0.0
O21 O 0.53027 0.31311 0.1194 0.0
O22 O 0.55496 0.22508 0.04438 0.0
O23 O 0.50973 0.22301 0.01596 0.0
O24 O 0.5322 0.21907 0.12004 0.0
O25 O 0.48519 0.22775 0.11616 0.0
O26 O 0.43793 0.26578 0.085 0.0
O27 O 0.46699 0.24898 0.03562 0.0
O28 O 0.45329 0.30296 0.1568 0.0
O29 O 0.49788 0.282 0.17431 0.0
O30 O 0.45949 0.31528 0.07923 0.0
O31 O 0.50587 0.30022 0.06312 0.0
H32 H 0.54097 0.18485 0.94859 0.0
H33 H 0.57189 0.27295 0.99889 0.0
H34 H 0.60073 0.28687 0.94107 0.0
H35 H 0.56851 0.19918 0.89015 0.0
H36 H 0.40756 0.28674 0.19792 0.0
H37 H 0.49844 0.26169 0.24332 0.0
H38 H 0.47292 0.24114 0.30039 0.0
H39 H 0.38232 0.26746 0.25453 0.0
Gd40 Gd 0.76177 0.77183 0.31777 0.0
Gd41 Gd 0.72183 0.74197 0.36142 0.0
C42 C 0.7001 0.81369 0.35035 0.0
C43 C 0.79333 0.81064 0.27451 0.0
C44 C 0.7866 0.8299 0.24063 0.0
C45 C 0.80399 0.82488 0.20748 0.0
C46 C 0.76293 0.85294 0.24064 0.0
C47 C 0.77428 0.86554 0.17482 0.0
C48 C 0.75695 0.87071 0.20805 0.0
C49 C 0.7978 0.84242 0.17483 0.0
C50 C 0.79446 0.75406 0.38378 0.0
C51 C 0.7502 0.69818 0.29104 0.0
C52 C 0.6966 0.70279 0.40884 0.0
C53 C 0.66887 0.68215 0.40269 0.0
C54 C 0.66603 0.66374 0.36972 0.0
C55 C 0.64317 0.68417 0.42734 0.0
C56 C 0.61196 0.65006 0.38605 0.0
C57 C 0.61499 0.66831 0.41913 0.0
C58 C 0.63785 0.64765 0.3616 0.0
C59 C 0.6895 0.75652 0.29822 0.0
O60 O 0.72376 0.81204 0.32541 0.0
O61 O 0.69622 0.78884 0.37294 0.0
O62 O 0.7801 0.8191 0.30616 0.0
O63 O 0.79287 0.78001 0.26985 0.0
O64 O 0.80312 0.74926 0.34932 0.0
O65 O 0.76688 0.7662 0.38194 0.0
O66 O 0.7334 0.69864 0.32288 0.0
O67 O 0.76368 0.72566 0.281 0.0
O68 O 0.69063 0.73299 0.40892 0.0
O69 O 0.72201 0.6962 0.38971 0.0
O70 O 0.67709 0.75448 0.33153 0.0
O71 O 0.71796 0.74826 0.299 0.0
H72 H 0.82239 0.80732 0.20684 0.0
H73 H 0.74897 0.85724 0.26572 0.0
H74 H 0.73854 0.88825 0.2087 0.0
H75 H 0.81178 0.83824 0.14974 0.0
H76 H 0.68536 0.66211 0.34989 0.0
H77 H 0.64472 0.69851 0.45264 0.0
H78 H 0.59573 0.66982 0.43915 0.0
H79 H 0.63625 0.63344 0.33621 0.0
Gd80 Gd 0.23295 1.01719 0.5667 0.0
Gd81 Gd 0.26654 0.97728 0.60618 0.0
C82 C 0.19403 0.95224 0.59949 0.0
C83 C 0.19315 1.04847 0.52588 0.0
C84 C 0.17644 1.04257 0.49029 0.0
C85 C 0.15071 1.06133 0.48063 0.0
C86 C 0.18563 1.01804 0.46611 0.0
C87 C 0.14314 1.03102 0.42286 0.0
C88 C 0.16919 1.01239 0.4325 0.0
C89 C 0.13416 1.05561 0.44721 0.0
C90 C 0.25367 1.05003 0.63146 0.0
C91 C 0.30597 1.01003 0.53535 0.0
C92 C 0.30264 0.94753 0.65191 0.0
C93 C 0.30775 0.91311 0.65244 0.0
C94 C 0.31252 0.89651 0.61847 0.0
C95 C 0.30484 0.89618 0.68637 0.0
C96 C 0.31328 0.84668 0.65284 0.0
C97 C 0.30754 0.86324 0.68659 0.0
C98 C 0.31551 0.86361 0.61873 0.0
C99 C 0.24791 0.94662 0.543 0.0
O100 O 0.19301 0.9785 0.57824 0.0
O101 O 0.22117 0.94688 0.61684 0.0
O102 O 0.18479 1.03042 0.55428 0.0
O103 O 0.22363 1.05215 0.52328 0.0
O104 O 0.25539 1.05977 0.59694 0.0
O105 O 0.24289 1.02139 0.63011 0.0
O106 O 0.30909 0.9962 0.56906 0.0
O107 O 0.27666 1.0184 0.52637 0.0
O108 O 0.27435 0.95627 0.66149 0.0
O109 O 0.31343 0.96281 0.62237 0.0
O110 O 0.25162 0.93312 0.5755 0.0
O111 O 0.25634 0.97531 0.54447 0.0
H112 H 0.14335 1.08035 0.49901 0.0
H113 H 0.20537 1.00319 0.47338 0.0
H114 H 0.17646 0.99313 0.41445 0.0
H115 H 1.11443 1.07059 0.44028 0.0
H116 H 0.31406 0.90893 0.59165 0.0
H117 H 0.30058 0.90844 0.71271 0.0
H118 H 0.30648 0.85086 0.71347 0.0
H119 H 0.32017 0.85144 0.59244 0.0
Gd120 Gd 0.99451 0.48701 0.81723 0.0
Gd121 Gd 1.03255 0.51744 0.86447 0.0
C122 C 1.05637 0.44642 0.85184 0.0
C123 C 0.96575 0.44822 0.77198 0.0
C124 C 0.97429 0.43101 0.73749 0.0
C125 C 1.00274 0.41445 0.73483 0.0
C126 C 0.95391 0.43176 0.70638 0.0
C127 C 0.98985 0.39906 0.67052 0.0
C128 C 0.96166 0.41602 0.6731 0.0
C129 C 1.01035 0.3984 0.70166 0.0
C130 C 0.96043 0.50135 0.88331 0.0
C131 C 1.00281 0.56178 0.79387 0.0
C132 C 1.04532 0.55811 0.91638 0.0
C133 C 1.04382 0.59307 0.91544 0.0
C134 C 1.07157 0.61101 0.91069 0.0
C135 C 1.01477 0.6088 0.91782 0.0
C136 C 1.0417 0.65987 0.91305 0.0
C137 C 1.01375 0.64192 0.91673 0.0
C138 C 1.07053 0.64395 0.90936 0.0
C139 C 1.06617 0.5063 0.80193 0.0
O140 O 1.03537 0.44986 0.82393 0.0
O141 O 1.05683 0.46935 0.87768 0.0
O142 O 0.97923 0.43929 0.80335 0.0
O143 O 0.96433 0.47896 0.76866 0.0
O144 O 0.95195 0.5072 0.84899 0.0
O145 O 0.98827 0.48979 0.8811 0.0
O146 O 1.01711 0.5615 0.82757 0.0
O147 O 0.99272 0.53367 0.78144 0.0
O148 O 1.06713 0.54524 0.8956 0.0
O149 O 1.01837 0.54288 0.91449 0.0
O150 O 1.0783 0.5068 0.83568 0.0
O151 O 1.03741 0.51383 0.80245 0.0
H152 H 1.01909 0.41383 0.7583 0.0
H153 H 0.93193 0.44451 0.70786 0.0
H154 H 0.9453 0.41659 0.64962 0.0
H155 H 1.03231 0.38565 0.70023 0.0
H156 H 1.09424 0.59961 0.9087 0.0
H157 H 0.99283 0.59563 0.92116 0.0
H158 H 0.99129 0.6535 0.92005 0.0
H159 H 1.09271 0.65694 0.90768 0.0
Gd160 Gd 0.7708 0.9795 0.90907 0.0
Gd161 Gd 0.73969 1.01613 0.95539 0.0
C162 C 0.81372 1.00903 0.98078 0.0
C163 C 0.81299 0.96488 0.86024 0.0
C164 C 0.84565 0.95581 0.86732 0.0
C165 C 0.85433 0.9435 0.90274 0.0
C166 C 0.8686 0.9608 0.83956 0.0
C167 C 0.90834 0.9382 0.88118 0.0
C168 C 0.89965 0.95197 0.84631 0.0
C169 C 0.88545 0.93493 0.90969 0.0
C170 C 0.75843 0.9444 0.9711 0.0
C171 C 0.69969 0.95509 0.91765 0.0
C172 C 0.6994 1.04483 0.99805 0.0
C173 C 0.67966 1.03688 0.03082 0.0
C174 C 0.65486 1.05684 0.04042 0.0
C175 C 0.68488 1.00932 0.05214 0.0
C176 C 0.64079 1.02223 0.09313 0.0
C177 C 0.66565 1.00211 0.08322 0.0
C178 C 0.63554 1.04959 0.07131 0.0
C179 C 0.75472 1.05096 0.88926 0.0
O180 O 0.81378 0.99493 0.94713 0.0
O181 O 0.78561 1.01881 0.99263 0.0
O182 O 0.7914 0.94473 0.87199 0.0
O183 O 0.80664 0.99421 0.86875 0.0
O184 O 0.76002 0.93277 0.93728 0.0
O185 O 0.76566 0.97352 0.97114 0.0
O186 O 0.70274 0.97395 0.94771 0.0
O187 O 0.72269 0.95737 0.89215 0.0
O188 O 0.69179 1.03055 0.9667 0.0
O189 O 0.72977 1.04578 1.00374 0.0
O190 O 0.7604 1.0595 0.92364 0.0
O191 O 0.74337 1.02266 0.89141 0.0
H192 H 0.8369 0.93991 0.92481 0.0
H193 H 0.86235 0.97072 0.81232 0.0
H194 H 0.91635 0.95423 0.82324 0.0
H195 H 0.89131 0.92456 0.93681 0.0
H196 H 0.6505 1.07814 0.0241 0.0
H197 H 0.70379 0.99348 0.04475 0.0
H198 H 0.67008 0.98075 0.09936 0.0
H199 H 0.61688 1.06576 0.07857 0.0
Gd200 Gd 0.52637 0.52275 0.65887 0.0
Gd201 Gd 0.49393 0.49135 0.70483 0.0
C202 C 0.50291 0.56777 0.72604 0.0
C203 C 0.53742 0.53556 0.58901 0.0
C204 C 0.51889 0.54866 0.55742 0.0
C205 C 0.51604 0.58151 0.55265 0.0
C206 C 0.50549 0.52826 0.53027 0.0
C207 C 0.49306 0.57336 0.49033 0.0
C208 C 0.49242 0.54051 0.49715 0.0
C209 C 0.50308 0.59373 0.51958 0.0
C210 C 0.56195 0.52562 0.71963 0.0
C211 C 0.5541 0.45013 0.67361 0.0
C212 C 0.46234 0.46428 0.75903 0.0
C213 C 0.47111 0.44776 0.7941 0.0
C214 C 0.4559 0.45545 0.8279 0.0
C215 C 0.4946 0.42455 0.79437 0.0
C216 C 0.48591 0.41541 0.86152 0.0
C217 C 0.50184 0.40842 0.82777 0.0
C218 C 0.46334 0.43959 0.86133 0.0
C219 C 0.458 0.50165 0.63837 0.0
O220 O 0.51377 0.56875 0.6907 0.0
O221 O 0.49425 0.53922 0.73892 0.0
O222 O 0.54562 0.55479 0.61645 0.0
O223 O 0.52848 0.50743 0.60095 0.0
O224 O 0.56168 0.54746 0.69348 0.0
O225 O 0.54538 0.50103 0.71151 0.0
O226 O 0.52914 0.44956 0.69641 0.0
O227 O 0.55851 0.47731 0.65489 0.0
O228 O 0.4693 0.4502 0.72746 0.0
O229 O 0.46833 0.49465 0.75792 0.0
O230 O 0.46495 0.47435 0.65252 0.0
O231 O 0.47324 0.52162 0.65841 0.0
H232 H 0.52563 0.59789 0.5733 0.0
H233 H 0.5068 0.50276 0.5335 0.0
H234 H 0.48457 0.52422 0.4754 0.0
H235 H 0.50419 0.61918 0.51549 0.0
H236 H 0.43806 0.4736 0.82838 0.0
H237 H 0.50706 0.41848 0.76871 0.0
H238 H 0.51919 0.38985 0.82685 0.0
H239 H 0.45116 0.44611 0.88702 0.0
Gd240 Gd 0.98776 0.28298 0.40792 0.0
Gd241 Gd 1.01678 0.24812 0.45599 0.0
C242 C 0.9434 0.25751 0.48069 0.0
C243 C 0.94634 0.30048 0.35953 0.0
C244 C 0.91899 0.31989 0.36847 0.0
C245 C 0.91813 0.336 0.40317 0.0
C246 C 0.89412 0.32306 0.34293 0.0
C247 C 0.86975 0.36142 0.38477 0.0
C248 C 0.86953 0.34368 0.3511 0.0
C249 C 0.89382 0.3568 0.41116 0.0
C250 C 0.99985 0.3204 0.46794 0.0
C251 C 1.05853 0.30778 0.4172 0.0
C252 C 1.05349 0.21953 0.50323 0.0
C253 C 1.06616 0.22663 0.5409 0.0
C254 C 1.06672 0.20239 0.56808 0.0
C255 C 1.07587 0.25747 0.55087 0.0
C256 C 1.08729 0.23937 0.61468 0.0
C257 C 1.08665 0.26372 0.58747 0.0
C258 C 1.07708 0.20871 0.60472 0.0
C259 C 1.00034 0.20999 0.39324 0.0
O260 O 0.94406 0.27097 0.44655 0.0
O261 O 0.97111 0.24766 0.49336 0.0
O262 O 0.97352 0.315 0.36332 0.0
O263 O 0.94595 0.27223 0.37477 0.0
O264 O 0.99869 0.33074 0.43351 0.0
O265 O 0.99201 0.29156 0.46976 0.0
O266 O 1.05512 0.28899 0.44742 0.0
O267 O 1.03596 0.3052 0.39139 0.0
O268 O 1.06397 0.23663 0.47491 0.0
O269 O 1.02312 0.21491 0.50203 0.0
O270 O 0.99398 0.20484 0.42837 0.0
O271 O 1.01321 0.23774 0.39207 0.0
H272 H 0.93691 0.3334 0.42358 0.0
H273 H 0.89429 0.31055 0.31625 0.0
H274 H 0.85144 0.34731 0.32998 0.0
H275 H 0.89456 0.37033 0.43712 0.0
H276 H 1.05899 0.17855 0.56098 0.0
H277 H 1.07503 0.2767 0.5305 0.0
H278 H 1.09429 0.28757 0.5946 0.0
H279 H 1.07772 0.18947 0.62509 0.0
Gd280 Gd 0.22515 0.74427 0.15536 0.0
Gd281 Gd 0.26262 0.77294 0.20396 0.0
C282 C 0.25314 0.69819 0.22515 0.0
C283 C 0.2059 0.71671 0.0946 0.0
C284 C 0.18667 0.72969 0.06398 0.0
C285 C 0.1654 0.75423 0.07111 0.0
C286 C 0.19074 0.7189 0.02704 0.0
C287 C 0.14984 0.75461 1.00509 0.0
C288 C 0.17247 0.73119 0.99783 0.0
C289 C 0.14716 0.76663 0.0419 0.0
C290 C 0.19032 0.75578 0.21701 0.0
C291 C 0.20218 0.81609 0.17158 0.0
C292 C 0.2935 0.81075 0.24827 0.0
C293 C 0.28558 0.83196 0.27963 0.0
C294 C 0.29963 0.82698 0.31493 0.0
C295 C 0.26372 0.8565 0.27525 0.0
C296 C 0.26965 0.87016 0.34141 0.0
C297 C 0.25597 0.87562 0.30593 0.0
C298 C 0.29164 0.84582 0.34561 0.0
C299 C 0.29887 0.75514 0.14106 0.0
O300 O 0.24076 0.69882 0.19018 0.0
O301 O 0.26228 0.72613 0.239 0.0
O302 O 0.23387 0.72962 0.09768 0.0
O303 O 0.19188 0.7129 0.12717 0.0
O304 O 0.17908 0.75645 0.18286 0.0
O305 O 0.21876 0.74742 0.21729 0.0
O306 O 0.22344 0.81198 0.19894 0.0
O307 O 0.20119 0.7934 0.14556 0.0
O308 O 0.28389 0.81894 0.21462 0.0
O309 O 0.28979 0.78049 0.25501 0.0
O310 O 0.30402 0.74845 0.17612 0.0
O311 O 0.27194 0.7689 0.14053 0.0
H312 H 0.1623 0.76331 0.09942 0.0
H313 H 0.20747 0.70041 0.02096 0.0
H314 H 0.17475 0.72084 0.97001 0.0
H315 H 0.12997 0.78457 0.04839 0.0
H316 H 0.31661 0.80828 0.31885 0.0
H317 H 0.25241 0.86079 0.24832 0.0
H318 H 0.23889 0.89423 0.30216 0.0
H319 H 0.30279 0.84148 0.37265 0.0
Gd320 Gd 1.02055 0.74 0.56308 0.0
Gd321 Gd 0.98754 0.77739 0.60768 0.0
C322 C 1.0603 0.80203 0.59963 0.0
C323 C 1.05952 0.71105 0.51916 0.0
C324 C 1.07831 0.71974 0.48555 0.0
C325 C 1.07353 0.70293 0.45188 0.0
C326 C 1.10043 0.7449 0.48625 0.0
C327 C 1.1127 0.7361 0.42005 0.0
C328 C 1.11761 0.75288 0.45379 0.0
C329 C 1.09046 0.71112 0.41936 0.0
C330 C 1.00087 0.70379 0.62576 0.0
C331 C 0.94668 0.74798 0.5355 0.0
C332 C 0.95699 0.79667 0.6657 0.0
C333 C 0.9696 0.81452 0.69831 0.0
C334 C 0.96607 0.84748 0.69977 0.0
C335 C 0.98752 0.79941 0.7265 0.0
C336 C 0.99716 0.8499 0.75748 0.0
C337 C 1.00108 0.81695 0.75586 0.0
C338 C 0.97978 0.86497 0.72886 0.0
C339 C 1.00455 0.81133 0.54638 0.0
O340 O 1.05982 0.77899 0.5739 0.0
O341 O 1.03466 0.80428 0.62115 0.0
O342 O 1.0678 0.72387 0.55124 0.0
O343 O 1.02906 0.71023 0.51443 0.0
O344 O 0.99726 0.69697 0.59054 0.0
O345 O 1.01282 0.73207 0.6264 0.0
O346 O 0.94426 0.76131 0.56965 0.0
O347 O 0.97565 0.73941 0.52533 0.0
O348 O 0.96641 0.76746 0.66231 0.0
O349 O 0.95683 0.81184 0.63347 0.0
O350 O 1.00247 0.82335 0.58003 0.0
O351 O 0.99573 0.78266 0.54628 0.0
H352 H 1.05662 0.68346 0.45072 0.0
H353 H 1.10444 0.75847 0.51176 0.0
H354 H 0.13453 0.77233 0.45494 0.0
H355 H 1.08654 0.69756 0.39381 0.0
H356 H 0.95254 0.8598 0.67845 0.0
H357 H 0.99099 0.77402 0.72605 0.0
H358 H 1.01392 0.8047 0.77784 0.0
H359 H 0.97537 0.89019 0.72991 0.0
Gd360 Gd 0.26287 0.27475 0.81786 0.0
Gd361 Gd 0.22687 0.23855 0.85932 0.0
C362 C 0.20066 0.30957 0.85693 0.0
C363 C 0.29105 0.31816 0.77775 0.0
C364 C 0.28299 0.33708 0.74416 0.0
C365 C 0.25507 0.35463 0.74233 0.0
C366 C 0.30312 0.33652 0.71271 0.0
C367 C 0.26761 0.37055 0.67788 0.0
C368 C 0.29544 0.35297 0.67979 0.0
C369 C 0.24758 0.37145 0.70949 0.0
C370 C 0.29889 0.25478 0.88024 0.0
C371 C 0.25724 0.20203 0.78432 0.0
C372 C 0.21066 0.1919 0.90242 0.0
C373 C 0.19767 0.16102 0.89096 0.0
C374 C 0.18235 0.15779 0.85593 0.0
C375 C 0.20103 0.13452 0.91434 0.0
C376 C 0.17009 1.10267 0.87016 0.0
C377 C 0.18738 1.10552 0.90402 0.0
C378 C 0.16854 0.12886 0.84566 0.0
C379 C 0.19299 0.25466 0.79796 0.0
O380 O 0.22074 0.30987 0.82791 0.0
O381 O 0.20255 0.28451 0.87985 0.0
O382 O 0.27594 0.32413 0.80905 0.0
O383 O 0.2943 0.2879 0.77194 0.0
O384 O 0.30579 0.25247 0.84488 0.0
O385 O 0.27051 0.26525 0.88139 0.0
O386 O 0.24187 0.19824 0.81691 0.0
O387 O 0.26671 0.23169 0.77666 0.0
O388 O 0.19247 0.21614 0.89635 0.0
O389 O 0.23985 0.19726 0.89221 0.0
O390 O 0.18053 0.24922 0.83086 0.0
O391 O 0.22185 0.24833 0.79805 0.0
H392 H 0.23893 0.35519 0.76606 0.0
H393 H 0.32471 0.32309 0.71352 0.0
H394 H 0.31143 0.35223 0.65592 0.0
H395 H 0.22591 0.38474 0.70857 0.0
H396 H 0.18015 0.17795 0.83706 0.0
H397 H 0.21326 0.13651 0.94112 0.0
H398 H 0.18851 1.08596 0.92389 0.0
H399 H 0.15529 1.12736 0.81955 0.0
Gd400 Gd 0.73501 0.51618 0.06698 0.0
Gd401 Gd 0.77007 0.48198 0.10912 0.0
C402 C 0.69586 0.45411 0.09988 0.0
C403 C 0.70632 0.5483 0.01527 0.0
C404 C 0.68971 0.53945 0.9802 0.0
C405 C 0.70175 0.54973 0.94526 0.0
C406 C 0.66219 0.52043 0.98107 0.0
C407 C 0.65836 0.52326 0.91261 0.0
C408 C 0.64664 0.51249 0.9476 0.0
C409 C 0.68636 0.54156 0.91179 0.0
C410 C 0.74677 0.54959 0.13456 0.0
C411 C 0.8103 0.50865 0.03883 0.0
C412 C 0.78833 0.46537 0.17561 0.0
C413 C 0.79851 0.48149 0.21058 0.0
C414 C 0.8299 0.47934 0.22241 0.0
C415 C 0.7763 0.49542 0.23485 0.0
C416 C 0.8149 0.49677 0.28528 0.0
C417 C 0.78447 0.50301 0.27197 0.0
C418 C 0.83813 0.48727 0.25935 0.0
C419 C 0.76687 0.44987 0.04521 0.0
O420 O 0.6941 0.47963 0.07786 0.0
O421 O 0.724 0.44953 0.11584 0.0
O422 O 0.6931 0.53951 0.04695 0.0
O423 O 0.73675 0.54433 0.01543 0.0
O424 O 0.71942 0.54324 0.12041 0.0
O425 O 0.76647 0.53535 0.11353 0.0
O426 O 0.81405 0.49602 0.07301 0.0
O427 O 0.78107 0.51752 0.0301 0.0
O428 O 0.80744 0.46615 0.14655 0.0
O429 O 0.75879 0.46871 0.16628 0.0
O430 O 0.7908 0.44877 0.06813 0.0
O431 O 0.74388 0.46516 0.05867 0.0
H432 H 0.72307 0.56415 0.94384 0.0
H433 H 0.65241 0.51189 0.00758 0.0
H434 H 0.62496 0.49867 0.94926 0.0
H435 H 0.69631 0.54978 0.88523 0.0
H436 H 0.84754 0.46904 0.2042 0.0
H437 H 0.75194 0.49803 0.22634 0.0
H438 H 0.76618 0.51036 0.29134 0.0
H439 H 0.8618 0.48202 0.26875 0.0
Gd440 Gd 0.49133 0.98788 0.31762 0.0
Gd441 Gd 0.53178 1.01881 0.36036 0.0
C442 C 0.55404 0.94677 0.34976 0.0
C443 C 0.46057 0.94868 0.27459 0.0
C444 C 0.46868 0.93102 0.24043 0.0
C445 C 0.44571 0.91219 0.22277 0.0
C446 C 0.49918 0.93315 0.22503 0.0
C447 C 0.48324 0.89846 0.17352 0.0
C448 C 0.50645 0.91689 0.19181 0.0
C449 C 0.45291 0.89601 0.18959 0.0
C450 C 0.45834 1.00654 0.38295 0.0
C451 C 0.50142 1.0623 0.29177 0.0
C452 C 0.56161 1.05356 0.40813 0.0
C453 C 0.59576 1.06003 0.40791 0.0
C454 C 0.6116 1.06676 0.37372 0.0
C455 C 0.61321 1.0563 0.4411 0.0
C456 C 0.66178 1.06766 0.40646 0.0
C457 C 0.64595 1.06006 0.44041 0.0
C458 C 0.64431 1.07079 0.37307 0.0
C459 C 0.56271 1.00306 0.29632 0.0
O460 O 0.52881 0.94728 0.3271 0.0
O461 O 0.55961 0.97275 0.36961 0.0
O462 O 0.47511 0.94008 0.30533 0.0
O463 O 0.45953 0.97939 0.27071 0.0
O464 O 0.44931 1.00974 0.34835 0.0
O465 O 0.48628 0.99511 0.38155 0.0
O466 O 0.51549 1.06267 0.32541 0.0
O467 O 0.49096 1.03401 0.28012 0.0
O468 O 0.55345 1.02426 0.4156 0.0
O469 O 0.54574 1.0655 0.38004 0.0
O470 O 0.57579 1.00517 0.32918 0.0
O471 O 0.5345 1.01179 0.29802 0.0
H472 H 0.42213 0.91021 0.23446 0.0
H473 H 0.5172 0.94766 0.23846 0.0
H474 H 0.52991 0.91941 0.17993 0.0
H475 H 0.43468 0.88162 0.17642 0.0
H476 H 0.59875 1.06895 0.34741 0.0
H477 H 0.60152 1.05054 0.46756 0.0
H478 H 0.65874 1.05829 0.4668 0.0
H479 H 0.65591 1.07688 0.34666 0.0
Gd480 Gd 0.26451 0.48075 0.4105 0.0
Gd481 Gd 0.23688 0.51866 0.45597 0.0
C482 C 0.31014 0.508 0.48058 0.0
C483 C 0.29871 0.45369 0.36058 0.0
C484 C 0.30919 0.42073 0.36313 0.0
C485 C 0.31811 0.40789 0.39828 0.0
C486 C 0.30579 0.40069 0.33196 0.0
C487 C 0.32066 0.35546 0.37074 0.0
C488 C 0.31148 0.36832 0.3357 0.0
C489 C 0.32402 0.37556 0.40197 0.0
C490 C 0.25155 0.44584 0.47305 0.0
C491 C 0.19342 0.45666 0.42478 0.0
C492 C 0.19928 0.54946 0.4999 0.0
C493 C 0.17973 0.54166 0.53328 0.0
C494 C 0.18516 0.55799 0.56716 0.0
C495 C 0.15618 0.51784 0.53216 0.0
C496 C 0.14394 0.52692 0.5984 0.0
C497 C 0.13832 0.51068 0.56443 0.0
C498 C 0.16755 0.5506 0.59946 0.0
C499 C 0.25613 0.55476 0.39222 0.0
O500 O 0.30926 0.49404 0.44674 0.0
O501 O 0.28275 0.51912 0.49279 0.0
O502 O 0.26838 0.45672 0.35662 0.0
O503 O 0.31053 0.4733 0.3854 0.0
O504 O 0.25263 0.43437 0.4393 0.0
O505 O 0.25965 0.47463 0.47299 0.0
O506 O 0.19702 0.47906 0.45106 0.0
O507 O 0.2167 0.45483 0.39998 0.0
O508 O 0.19055 0.53742 0.46754 0.0
O509 O 0.22969 0.54847 0.50494 0.0
O510 O 0.26205 0.56043 0.42734 0.0
O511 O 0.24238 0.52738 0.39182 0.0
H512 H 0.32003 0.42273 0.42313 0.0
H513 H 0.29829 0.41 0.30488 0.0
H514 H 0.30949 0.35347 0.31088 0.0
H515 H 0.33129 0.36628 0.42915 0.0
H516 H 0.20314 0.57645 0.56867 0.0
H517 H 0.15158 0.50466 0.5065 0.0
H518 H 1.12039 0.49218 0.56295 0.0
H519 H 0.17209 0.56377 0.62516 0.0
Gd520 Gd 1.03112 1.02272 0.1569 0.0
Gd521 Gd 0.99676 0.99157 0.20628 0.0
C522 C 1.00385 1.06656 0.22862 0.0
C523 C 1.04422 1.05581 0.09735 0.0
C524 C 1.04705 1.0473 0.05705 0.0
C525 C 1.07703 1.04248 0.04168 0.0
C526 C 1.02035 1.04362 0.0337 0.0
C527 C 1.05406 1.03248 0.97979 0.0
C528 C 1.02386 1.03638 0.99533 0.0
C529 C 1.08049 1.03501 1.00371 0.0
C530 C 1.06778 1.01257 0.21802 0.0
C531 C 1.05627 0.95184 0.16759 0.0
C532 C 0.96867 0.95148 0.25112 0.0
C533 C 0.97742 0.93075 0.28254 0.0
C534 C 0.95808 0.90461 0.29134 0.0
C535 C 1.00465 0.93682 0.30398 0.0
C536 C 0.99235 0.89121 0.34386 0.0
C537 C 1.01199 0.91725 0.3346 0.0
C538 C 0.96549 0.88493 0.32173 0.0
C539 C 0.95809 1.00843 0.14479 0.0
O540 O 1.01695 1.06673 0.19413 0.0
O541 O 0.99505 1.03814 0.24189 0.0
O542 O 1.01603 1.05443 0.11222 0.0
O543 O 1.06574 1.04443 0.11976 0.0
O544 O 1.07863 1.01332 0.18372 0.0
O545 O 1.03906 1.01945 0.21858 0.0
O546 O 1.0385 0.9552 0.19846 0.0
O547 O 1.05257 0.97409 0.14129 0.0
O548 O 0.97975 0.94381 0.21804 0.0
O549 O 0.97044 0.98188 0.25753 0.0
O550 O 0.95343 1.0141 0.18015 0.0
O551 O 0.9856 0.99593 0.14297 0.0
H552 H 1.09804 1.04522 0.05883 0.0
H553 H 0.99683 1.047 0.04481 0.0
H554 H 1.00311 1.03493 0.97757 0.0
H555 H 1.10425 1.03324 0.99271 0.0
H556 H 0.93702 0.89963 0.27496 0.0
H557 H 1.02 0.95682 0.29725 0.0
H558 H 1.03294 0.92246 0.35105 0.0
H559 H 0.94972 0.8653 0.32853 0.0
Gd560 Gd 0.48724 0.7827 0.90816 0.0
Gd561 Gd 0.51733 0.749 0.95419 0.0
C562 C 0.44147 0.75675 0.97449 0.0
C563 C 0.47211 0.79612 0.83966 0.0
C564 C 0.45431 0.77917 0.80993 0.0
C565 C 0.42142 0.78126 0.80828 0.0
C566 C 0.47012 0.76158 0.78216 0.0
C567 C 0.42078 0.75241 0.74874 0.0
C568 C 0.45349 0.7482 0.75192 0.0
C569 C 0.40487 0.76799 0.77821 0.0
C570 C 0.48487 0.81663 0.97088 0.0
C571 C 0.55968 0.81068 0.92514 0.0
C572 C 0.54401 0.71372 1.00487 0.0
C573 C 0.5624 0.71887 0.03937 0.0
C574 C 0.58252 0.69504 0.05197 0.0
C575 C 0.56179 0.74801 0.05834 0.0
C576 C 0.6019 0.7295 0.10199 0.0
C577 C 0.5813 0.75324 0.08959 0.0
C578 C 0.60213 0.70028 0.08302 0.0
C579 C 0.50762 0.71506 0.88585 0.0
O580 O 0.4411 0.76734 0.93896 0.0
O581 O 0.46961 0.7488 0.98794 0.0
O582 O 0.45614 0.80615 0.86889 0.0
O583 O 0.4993 0.78404 0.84887 0.0
O584 O 0.4634 0.8171 0.94468 0.0
O585 O 0.50886 0.80042 0.96181 0.0
O586 O 0.5575 0.78761 0.95087 0.0
O587 O 0.53477 0.81275 0.90238 0.0
O588 O 0.55781 0.723 0.97378 0.0
O589 O 0.5143 0.72128 1.00597 0.0
O590 O 0.53465 0.72276 0.90021 0.0
O591 O 0.48761 0.72931 0.90635 0.0
H592 H 0.40845 0.79441 0.82929 0.0
H593 H 0.49551 0.75921 0.78294 0.0
H594 H 0.46645 0.73623 0.72992 0.0
H595 H 0.37982 0.77243 0.77674 0.0
H596 H 0.58338 0.67249 0.03744 0.0
H597 H 0.54662 0.76681 0.04862 0.0
H598 H 0.5808 0.77606 0.10351 0.0
H599 H 0.61743 0.68142 0.09226 0.0
Gd600 Gd 0.72754 0.24113 0.66424 0.0
Gd601 Gd 0.76134 0.27653 0.70243 0.0
C602 C 0.75618 0.20187 0.73312 0.0
C603 C 0.71202 0.22232 0.59777 0.0
C604 C 0.72897 0.20581 0.56731 0.0
C605 C 0.72552 0.17293 0.56348 0.0
C606 C 0.74777 0.22273 0.54101 0.0
C607 C 0.75573 0.17462 0.50487 0.0
C608 C 0.76106 0.20725 0.51008 0.0
C609 C 0.73884 0.1575 0.53282 0.0
C610 C 0.69606 0.24107 0.72821 0.0
C611 C 0.69885 0.31424 0.67372 0.0
C612 C 0.79834 0.30631 0.74897 0.0
C613 C 0.79581 0.32197 0.78585 0.0
C614 C 0.77642 0.34835 0.79096 0.0
C615 C 0.81356 0.31065 0.81632 0.0
C616 C 0.79322 0.35231 0.85641 0.0
C617 C 0.81217 0.32557 0.85135 0.0
C618 C 0.77522 0.36344 0.82591 0.0
C619 C 0.79367 0.26316 0.63481 0.0
O620 O 0.74428 0.19734 0.69878 0.0
O621 O 0.76311 0.23188 0.74181 0.0
O622 O 0.70536 0.20589 0.62834 0.0
O623 O 0.72157 0.25131 0.60493 0.0
O624 O 0.69596 0.21749 0.70461 0.0
O625 O 0.71085 0.26579 0.71625 0.0
O626 O 0.72527 0.31716 0.69351 0.0
O627 O 0.69396 0.28562 0.65872 0.0
O628 O 0.78454 0.31986 0.72041 0.0
O629 O 0.79464 0.27561 0.74893 0.0
O630 O 0.78547 0.29097 0.64586 0.0
O631 O 0.78049 0.24394 0.65795 0.0
H632 H 0.7113 0.15921 0.58327 0.0
H633 H 0.75121 0.24814 0.54341 0.0
H634 H 0.7739 0.22108 0.48911 0.0
H635 H 0.73352 0.13247 0.52961 0.0
H636 H 0.76242 0.35761 0.76794 0.0
H637 H 0.82861 0.2903 0.81298 0.0
H638 H 0.82593 0.31615 0.87448 0.0
H639 H 0.76073 0.38423 0.82878 0.0
H640 H 0.56064 0.37672 0.10884 0.0
H641 H 0.62061 0.29617 0.09409 0.0
H642 H 0.66721 0.33119 0.09496 0.0
H643 H 0.69285 0.38588 0.09879 0.0
H644 H 0.63244 0.46681 0.10616 0.0
H645 H 0.58606 0.43156 0.10924 0.0
C646 C 0.58383 0.36653 0.1061 0.0
C647 C 0.58601 0.33269 0.10206 0.0
C648 C 0.61141 0.38753 0.10523 0.0
C649 C 0.61709 0.32136 0.09761 0.0
C650 C 0.64422 0.34175 0.09807 0.0
C651 C 0.66964 0.39605 0.10145 0.0
C652 C 0.6673 0.43004 0.103 0.0
C653 C 0.64204 0.37507 0.1018 0.0
C654 C 0.63611 0.44147 0.10531 0.0
C655 C 0.6091 0.42096 0.10702 0.0
H656 H 0.63292 0.81402 0.35443 0.0
H657 H 0.71218 0.87849 0.34509 0.0
H658 H 0.6762 0.92362 0.34591 0.0
H659 H 0.62122 0.94641 0.34937 0.0
H660 H 0.54174 0.88178 0.3502 0.0
H661 H 0.57779 0.8367 0.35246 0.0
C662 C 0.64259 0.8379 0.35273 0.0
C663 C 0.67631 0.84189 0.35046 0.0
C664 C 0.6211 0.86448 0.35164 0.0
C665 C 0.68709 0.87369 0.34728 0.0
C666 C 0.66617 0.8999 0.34773 0.0
C667 C 0.61152 0.92252 0.35016 0.0
C668 C 0.57774 0.9185 0.35026 0.0
C669 C 0.63296 0.8959 0.34998 0.0
C670 C 0.56688 0.88663 0.35037 0.0
C671 C 0.58785 0.86045 0.3517 0.0
H672 H 0.19305 0.88433 0.60072 0.0
H673 H 0.12945 0.96299 0.60038 0.0
H674 H 1.08432 0.92591 0.60275 0.0
H675 H 1.06109 0.86997 0.60439 0.0
H676 H 1.12465 0.79155 0.59681 0.0
H677 H 0.1698 0.82857 0.5981 0.0
C678 C 0.16939 0.89366 0.60141 0.0
C679 C 0.16577 0.92759 0.60105 0.0
C680 C 0.14266 0.87156 0.60138 0.0
C681 C 0.1341 0.93782 0.60095 0.0
C682 C 1.10784 0.91622 0.60232 0.0
C683 C 1.08476 0.86069 0.60338 0.0
C684 C 1.08841 0.8268 0.60141 0.0
C685 C 1.11148 0.88284 0.60259 0.0
C686 C 1.12003 0.81667 0.5989 0.0
C687 C 0.1463 0.83823 0.59956 0.0
H688 H 1.0941 0.41354 0.90818 0.0
H689 H 1.08071 0.41942 0.78763 0.0
H690 H 1.12278 0.38128 0.77804 0.0
H691 H 0.16496 0.34469 0.80269 0.0
H692 H 0.17496 0.33399 0.9231 0.0
H693 H 0.13428 0.37398 0.93308 0.0
C694 C 1.1001 0.40659 0.87966 0.0
C695 C 1.08294 0.42058 0.84872 0.0
C696 C 1.12465 0.38304 0.87398 0.0
C697 C 1.09224 0.40993 0.81244 0.0
C698 C 1.11688 0.38776 0.80677 0.0
C699 C 0.15857 0.35104 0.83131 0.0
C700 C 0.17458 0.3356 0.86204 0.0
C701 C 0.13356 0.37392 0.83713 0.0
C702 C 0.16424 0.34471 0.89849 0.0
C703 C 0.1405 0.36799 0.90431 0.0
H704 H 0.66874 0.91518 0.97242 0.0
H705 H 0.66807 0.93532 0.85306 0.0
H706 H 0.62599 0.89553 0.8441 0.0
H707 H 0.58794 0.85323 0.86956 0.0
H708 H 0.59307 0.8296 0.98799 0.0
H709 H 0.63324 0.87096 0.99709 0.0
C710 C 0.65939 0.91123 0.94432 0.0
C711 C 0.67226 0.92977 0.91358 0.0
C712 C 0.63526 0.88675 0.93889 0.0
C713 C 0.65937 0.92255 0.87765 0.0
C714 C 0.63491 0.89935 0.87242 0.0
C715 C 0.59772 0.85688 0.8975 0.0
C716 C 0.58624 0.83712 0.92803 0.0
C717 C 0.62239 0.88097 0.90269 0.0
C718 C 0.60051 0.84331 0.96352 0.0
C719 C 0.62386 0.8675 0.96892 0.0
H720 H 0.62161 0.44821 0.66445 0.0
H721 H 0.54156 0.38582 0.68129 0.0
H722 H 0.57639 0.33992 0.68067 0.0
H723 H 0.6308 0.31553 0.67629 0.0
H724 H 0.71123 0.37847 0.66667 0.0
H725 H 0.67616 0.42409 0.66361 0.0
C726 C 0.61147 0.42464 0.66772 0.0
C727 C 0.57779 0.42161 0.67226 0.0
C728 C 0.63238 0.39746 0.66871 0.0
C729 C 0.5666 0.39005 0.67736 0.0
C730 C 0.58689 0.3633 0.67705 0.0
C731 C 0.64092 0.33911 0.67318 0.0
C732 C 0.67476 0.34234 0.67102 0.0
C733 C 0.62002 0.36633 0.67279 0.0
C734 C 0.68604 0.37405 0.66808 0.0
C735 C 0.66562 0.40064 0.66635 0.0
H736 H 1.08521 0.35056 0.47158 0.0
H737 H 1.09264 0.32644 0.35382 0.0
H738 H 0.13345 0.36767 0.34523 0.0
H739 H 0.16848 0.41211 0.37051 0.0
H740 H 0.15703 0.43959 0.48683 0.0
H741 H 1.1178 0.3971 0.49585 0.0
C742 C 1.09583 0.35393 0.44395 0.0
C743 C 1.08532 0.33381 0.41357 0.0
C744 C 1.11917 0.37925 0.43864 0.0
C745 C 1.09962 0.34037 0.37814 0.0
C746 C 1.12331 0.36442 0.37312 0.0
C747 C 0.1574 0.40917 0.39793 0.0
C748 C 0.16677 0.43034 0.42787 0.0
C749 C 0.1335 0.38433 0.40301 0.0
C750 C 0.15112 0.42486 0.46278 0.0
C751 C 0.12836 0.40001 0.46813 0.0
H752 H 0.15672 0.84126 0.118 0.0
H753 H 0.18682 0.8526 0.23352 0.0
H754 H 0.14591 0.89194 0.24352 0.0
H755 H 1.09994 0.92482 0.22065 0.0
H756 H 1.07289 0.91762 0.10375 0.0
H757 H 1.1126 0.87665 0.09403 0.0
C758 C 0.15473 0.8523 0.14547 0.0
C759 C 0.17626 0.84272 0.17486 0.0
C760 C 0.13068 0.87639 0.15121 0.0
C761 C 0.17183 0.85847 0.20982 0.0
C762 C 0.14785 0.88138 0.21577 0.0
C763 C 1.10233 0.91429 0.19293 0.0
C764 C 1.08178 0.92505 0.1632 0.0
C765 C 1.12679 0.89076 0.18689 0.0
C766 C 1.08716 0.91064 0.12766 0.0
C767 C 1.11036 0.88679 0.12197 0.0
H768 H 0.30287 0.27137 0.96118 0.0
H769 H 0.35804 0.23339 0.86976 0.0
H770 H 0.4036 0.23009 0.91069 0.0
H771 H 0.43059 0.23816 0.97259 0.0
H772 H 0.3773 0.27505 0.06576 0.0
H773 H 0.33041 0.27823 0.02532 0.0
C774 C 0.32468 0.26218 0.95 0.0
C775 C 0.32567 0.25278 0.9109 0.0
C776 C 0.35224 0.26003 0.97466 0.0
C777 C 0.35521 0.24111 0.8987 0.0
C778 C 0.38194 0.23912 0.92251 0.0
C779 C 0.40878 0.24673 0.98453 0.0
C780 C 0.40861 0.25608 0.02341 0.0
C781 C 0.38114 0.24853 0.9606 0.0
C782 C 0.37924 0.26729 0.03674 0.0
C783 C 0.35194 0.26923 0.01317 0.0
H784 H 0.70696 0.57729 0.18848 0.0
H785 H 0.80161 0.58597 0.14532 0.0
H786 H 0.81133 0.63168 0.18688 0.0
H787 H 0.79283 0.67124 0.23637 0.0
H788 H 0.69921 0.65863 0.28209 0.0
H789 H 0.68982 0.61396 0.2399 0.0
C790 C 0.72989 0.58894 0.18806 0.0
C791 C 0.75336 0.57731 0.16268 0.0
C792 C 0.7357 0.61535 0.21317 0.0
C793 C 0.7828 0.59349 0.16382 0.0
C794 C 0.7884 0.62008 0.18788 0.0
C795 C 0.77035 0.65877 0.23737 0.0
C796 C 0.74686 0.66933 0.26364 0.0
C797 C 0.76505 0.63161 0.21283 0.0
C798 C 0.71816 0.6518 0.26343 0.0
C799 C 0.71259 0.6259 0.23877 0.0
H800 H 0.39516 1.02574 0.38571 0.0
H801 H 0.46574 0.98563 0.45818 0.0
H802 H 0.42725 0.98318 0.51037 0.0
H803 H 0.37174 0.9917 0.53681 0.0
H804 H 0.30257 1.03273 0.46264 0.0
H805 H 0.34129 1.03529 0.41181 0.0
C806 C 0.4025 1.01649 0.41288 0.0
C807 C 0.43437 1.0059 0.41679 0.0
C808 C 0.3798 1.01522 0.44347 0.0
C809 C 0.44214 0.99412 0.45311 0.0
C810 C 0.41973 0.99267 0.4834 0.0
C811 C 0.36496 1.00147 0.5097 0.0
C812 C 0.33305 1.01219 0.50498 0.0
C813 C 0.38819 1.00307 0.47925 0.0
C814 C 0.32607 1.02437 0.46861 0.0
C815 C 0.34859 1.02581 0.43888 0.0
H816 H 1.02112 0.69861 0.70538 0.0
H817 H 0.97519 0.6453 0.61677 0.0
H818 H 0.97127 0.59924 0.65773 0.0
H819 H 0.98109 0.57121 0.71877 0.0
H820 H 1.02609 0.62268 0.80911 0.0
H821 H 1.02969 0.67011 0.76877 0.0
C822 C 1.01006 0.67711 0.69484 0.0
C823 C 0.99861 0.67677 0.65651 0.0
C824 C 1.00757 0.64925 0.71951 0.0
C825 C 0.98455 0.6476 0.64511 0.0
C826 C 0.98218 0.6206 0.66893 0.0
C827 C 0.99153 0.59274 0.73012 0.0
C828 C 1.00309 0.5922 0.76813 0.0
C829 C 0.99364 0.62072 0.70624 0.0
C830 C 1.01666 0.62125 0.78072 0.0
C831 C 1.01884 0.64887 0.75722 0.0
H832 H 0.82332 1.02597 0.05828 0.0
H833 H 0.8745 0.99062 0.96252 0.0
H834 H 0.92219 0.98662 1.00109 0.0
H835 H 0.9514 0.9925 0.06405 0.0
H836 H 0.89881 1.02873 0.15862 0.0
H837 H 0.85209 1.03274 0.11963 0.0
C838 C 0.84483 1.01759 0.0454 0.0
C839 C 0.84405 1.00878 1.00632 0.0
C840 C 0.87311 1.01523 0.06833 0.0
C841 C 0.87313 0.99775 0.99181 0.0
C842 C 0.90097 0.99538 0.01427 0.0
C843 C 0.92987 1.00129 0.07641 0.0
C844 C 0.93002 1.01006 0.11572 0.0
C845 C 0.90163 1.0039 0.05294 0.0
C846 C 0.90081 1.02147 0.1294 0.0
C847 C 0.8734 1.0239 0.10672 0.0
H848 H 0.5432 0.69388 0.82284 0.0
H849 H 0.45799 0.67118 0.88397 0.0
H850 H 0.44907 0.62488 0.84323 0.0
H851 H 0.4657 0.58856 0.78954 0.0
H852 H 0.5477 0.61553 0.72428 0.0
H853 H 0.55708 0.66072 0.76606 0.0
C854 C 0.5225 0.67901 0.82741 0.0
C855 C 0.50154 0.68695 0.85777 0.0
C856 C 0.51677 0.6523 0.80244 0.0
C857 C 0.47483 0.66667 0.86167 0.0
C858 C 0.4697 0.63971 0.83804 0.0
C859 C 0.48558 0.60432 0.78405 0.0
C860 C 0.50593 0.59743 0.7526 0.0
C861 C 0.49049 0.63187 0.80818 0.0
C862 C 0.53125 0.61924 0.74722 0.0
C863 C 0.53679 0.6455 0.7716 0.0
H864 H 0.81693 0.29815 0.5723 0.0
H865 H 0.8358 0.21317 0.63562 0.0
H866 H 0.88271 0.20394 0.59655 0.0
H867 H 0.92051 0.22036 0.54379 0.0
H868 H 0.89768 0.30267 0.47714 0.0
H869 H 0.85177 0.31202 0.51697 0.0
C870 C 0.83109 0.27743 0.57766 0.0
C871 C 0.82199 0.2566 0.60796 0.0
C872 C 0.85818 0.27163 0.5539 0.0
C873 C 0.84133 0.22987 0.61316 0.0
C874 C 0.8686 0.22457 0.59055 0.0
C875 C 0.90553 0.24033 0.53769 0.0
C876 C 0.91372 0.26076 0.50649 0.0
C877 C 0.87766 0.24532 0.56073 0.0
C878 C 0.89293 0.28619 0.50005 0.0
C879 C 0.86626 0.29172 0.52326 0.0
H880 H 0.23526 0.56066 0.3129 0.0
H881 H 0.28064 0.61388 0.40198 0.0
H882 H 0.28407 0.66021 0.36133 0.0
H883 H 0.27428 0.68838 0.30032 0.0
H884 H 0.23005 0.637 0.20941 0.0
H885 H 0.22654 0.5894 0.24961 0.0
C886 C 0.24604 0.58223 0.32366 0.0
C887 C 0.25755 0.58239 0.36203 0.0
C888 C 0.24833 0.61022 0.29912 0.0
C889 C 0.27128 0.61165 0.37364 0.0
C890 C 0.27337 0.63881 0.34998 0.0
C891 C 0.26399 0.66685 0.28879 0.0
C892 C 0.25267 0.66749 0.25061 0.0
C893 C 0.26199 0.63878 0.31259 0.0
C894 C 0.23934 0.63839 0.23785 0.0
C895 C 0.2372 0.61068 0.2613 0.0
H896 H 0.85675 0.73267 0.38716 0.0
H897 H 0.7877 0.77675 0.45817 0.0
H898 H 0.82621 0.77877 0.51024 0.0
H899 H 0.88142 0.76872 0.53691 0.0
H900 H 0.94886 0.72376 0.46388 0.0
H901 H 0.91009 0.72166 0.41341 0.0
C902 C 0.84975 0.74272 0.41398 0.0
C903 C 0.81835 0.75455 0.41754 0.0
C904 C 0.87244 0.74374 0.44447 0.0
C905 C 0.81097 0.76731 0.45341 0.0
C906 C 0.83339 0.76851 0.48363 0.0
C907 C 0.88779 0.75819 0.51015 0.0
C908 C 0.91928 0.74626 0.50565 0.0
C909 C 0.86451 0.75687 0.47982 0.0
C910 C 0.92572 0.73313 0.46969 0.0
C911 C 0.90318 0.73192 0.44015 0.0
H912 H 0.23792 0.13594 0.78494 0.0
H913 H 0.28125 0.20643 0.71218 0.0
H914 H 0.28399 0.16778 0.66128 0.0
H915 H 0.27386 1.11366 0.63481 0.0
H916 H 0.23205 1.04169 0.70629 0.0
H917 H 0.22927 1.08014 0.7584 0.0
C918 C 0.24822 0.14303 0.75811 0.0
C919 C 0.25948 0.17527 0.75373 0.0
C920 C 0.25003 1.11985 0.72776 0.0
C921 C 0.2724 0.18266 0.71779 0.0
C922 C 0.27397 0.1602 0.68807 0.0
C923 C 0.2642 1.106 0.66177 0.0
C924 C 0.25321 1.07378 0.66544 0.0
C925 C 0.26284 1.12865 0.69234 0.0
C926 C 0.2409 1.06557 0.70146 0.0
C927 C 0.23924 1.08795 0.73168 0.0
H928 H 0.87532 0.48774 0.03858 0.0
H929 H 0.80684 0.53238 0.96653 0.0
H930 H 0.8449 0.53399 0.91495 0.0
H931 H 0.898 0.52271 0.88759 0.0
H932 H 0.96788 0.47892 0.95791 0.0
H933 H 0.93004 0.47729 0.01082 0.0
C934 C 0.86856 0.49811 0.01179 0.0
C935 C 0.83704 0.51016 0.00794 0.0
C936 C 0.89139 0.49911 0.98087 0.0
C937 C 0.83005 0.52299 0.97188 0.0
C938 C 0.85218 0.5239 0.94171 0.0
C939 C 0.90532 0.51278 0.91443 0.0
C940 C 0.93678 0.5009 0.9175 0.0
C941 C 0.883 0.51202 0.94547 0.0
C942 C 0.94456 0.48834 0.95345 0.0
C943 C 0.92253 0.48739 0.98417 0.0
H944 H 0.46068 1.08731 0.23365 0.0
H945 H 0.55015 1.10529 0.28769 0.0
H946 H 0.55967 0.15059 0.24584 0.0
H947 H 0.5438 0.18636 0.19237 0.0
H948 H 0.45222 0.1729 0.14225 0.0
H949 H 0.44278 1.12633 0.18297 0.0
C950 C 0.48227 1.1011 0.23657 0.0
C951 C 0.50463 1.09173 0.26488 0.0
C952 C 0.48746 0.12874 0.21246 0.0
C953 C 0.53214 1.11103 0.26718 0.0
C954 C 0.53777 0.13733 0.24279 0.0
C955 C 0.52161 0.17346 0.19023 0.0
C956 C 0.49896 0.18399 0.16307 0.0
C957 C 0.51578 0.14664 0.21509 0.0
C958 C 0.47039 0.16626 0.16213 0.0
C959 C 0.46496 0.13917 0.18571 0.0
H960 H 0.33424 0.54647 0.54174 0.0
H961 H 0.35412 0.4608 0.48072 0.0
H962 H 0.39891 0.45077 0.52225 0.0
H963 H 0.43358 0.46501 0.57767 0.0
H964 H 0.41795 0.55332 0.63477 0.0
H965 H 0.37212 0.56313 0.59416 0.0
C966 C 0.34835 0.52563 0.53715 0.0
C967 C 0.33961 0.50449 0.50696 0.0
C968 C 0.37563 0.52019 0.56118 0.0
C969 C 0.35932 0.47791 0.50267 0.0
C970 C 0.38533 0.47197 0.52691 0.0
C971 C 0.42035 0.48656 0.5814 0.0
C972 C 0.43008 0.50813 0.61056 0.0
C973 C 0.39392 0.49274 0.55654 0.0
C974 C 0.41195 0.53595 0.6134 0.0
C975 C 0.38527 0.54162 0.58985 0.0
H976 H 1.02006 0.20422 0.31384 0.0
H977 H 0.97774 0.15038 0.40516 0.0
H978 H 0.97465 1.10375 0.36544 0.0
H979 H 0.98385 1.0756 0.30449 0.0
H980 H 1.02518 1.12784 0.21166 0.0
H981 H 1.02835 0.17554 0.251 0.0
C982 C 1.01006 0.18244 0.32528 0.0
C983 C 0.99929 0.18214 0.36388 0.0
C984 C 1.00798 0.15433 0.30136 0.0
C985 C 0.9865 0.15266 0.3765 0.0
C986 C 0.98461 1.12534 0.35341 0.0
C987 C 0.99341 1.09735 0.29241 0.0
C988 C 1.00404 1.09697 0.25398 0.0
C989 C 0.99525 1.1255 0.3157 0.0
C990 C 1.01648 1.12629 0.2404 0.0
C991 C 1.01842 0.15407 0.26331 0.0
H992 H 0.30488 0.77367 0.06078 0.0
H993 H 0.35791 0.73337 0.15281 0.0
H994 H 0.40407 0.72996 0.11272 0.0
H995 H 0.43214 0.73823 0.05121 0.0
H996 H 0.38075 0.77725 0.95752 0.0
H997 H 0.33348 0.78092 0.99727 0.0
C998 C 0.32638 0.76408 0.07233 0.0
C999 C 0.32653 0.75399 0.11131 0.0
C1000 C 0.35427 0.76173 0.04813 0.0
C1001 C 0.35568 0.74164 0.12393 0.0
C1002 C 0.38276 0.73955 0.1006 0.0
C1003 C 0.41067 0.74738 0.03901 0.0
C1004 C 0.41119 0.75716 1.00016 0.0
C1005 C 0.38274 0.74947 0.06256 0.0
C1006 C 0.38221 0.76913 0.98652 0.0
C1007 C 0.35467 0.77137 0.0097 0.0
H1008 H 0.73802 0.13523 0.73383 0.0
H1009 H 0.77967 0.20716 0.80509 0.0
H1010 H 0.78282 0.16918 0.85691 0.0
H1011 H 0.77373 1.11513 0.88469 0.0
H1012 H 0.73269 1.04201 0.81514 0.0
H1013 H 0.72967 1.07974 0.76201 0.0
C1014 C 0.74807 0.14276 0.76049 0.0
C1015 C 0.75878 0.1752 0.76409 0.0
C1016 C 0.74994 1.12002 0.79155 0.0
C1017 C 0.77126 0.1832 0.79999 0.0
C1018 C 0.77307 0.16112 0.83028 0.0
C1019 C 0.76412 1.1071 0.85798 0.0
C1020 C 0.75347 1.07475 0.85514 0.0
C1021 C 0.76248 0.12939 0.82681 0.0
C1022 C 0.74122 1.06605 0.81937 0.0
C1023 C 0.73945 1.088 0.78852 0.0
H1024 H 0.62323 0.20171 0.87496 0.0
H1025 H 0.59779 0.30037 0.87344 0.0
H1026 H 0.63146 0.30938 0.81786 0.0
H1027 H 0.66642 0.28802 0.76762 0.0
H1028 H 0.68748 0.18818 0.76871 0.0
H1029 H 0.65711 0.18078 0.8264 0.0
C1030 C 0.62461 0.22513 0.86221 0.0
C1031 C 0.60765 0.25017 0.87789 0.0
C1032 C 0.64332 0.22992 0.83018 0.0
C1033 C 0.61064 0.28064 0.86182 0.0
C1034 C 0.62978 0.28578 0.83 0.0
C1035 C 0.66441 0.26482 0.78084 0.0
C1036 C 0.67893 0.23864 0.76411 0.0
C1037 C 0.64604 0.26048 0.81369 0.0
C1038 C 0.67621 0.20859 0.78108 0.0
C1039 C 0.65888 0.2043 0.81403 0.0
H1040 H 0.76734 0.84417 0.10301 0.0
H1041 H 0.76796 0.92964 0.16956 0.0
H1042 H 0.76147 0.96155 0.11229 0.0
H1043 H 0.75862 0.96524 0.04315 0.0
H1044 H 0.75756 0.87985 0.97642 0.0
H1045 H 0.76127 0.84772 0.03396 0.0
C1046 C 0.76606 0.86979 0.10489 0.0
C1047 C 0.76837 0.88459 0.14033 0.0
C1048 C 0.76239 0.88793 0.07189 0.0
C1049 C 0.7661 0.91773 0.14257 0.0
C1050 C 0.76255 0.93598 0.10986 0.0
C1051 C 0.759 0.93958 0.04126 0.0
C1052 C 0.75819 0.92488 1.00571 0.0
C1053 C 0.76109 0.92134 0.07436 0.0
C1054 C 0.75838 0.89166 1.00355 0.0
C1055 C 0.76055 0.87331 0.03639 0.0
H1056 H 1.04647 1.01582 0.28929 0.0
H1057 H 0.13216 1.00853 0.22434 0.0
H1058 H 0.16336 1.01182 0.28268 0.0
H1059 H 0.16593 1.02003 0.35193 0.0
H1060 H 1.07942 1.02793 0.41542 0.0
H1061 H 1.04877 1.02128 0.35766 0.0
C1062 C 1.072 1.01485 0.28784 0.0
C1063 C 1.0871 1.01234 0.25263 0.0
C1064 C 1.08955 1.01707 0.32118 0.0
C1065 C 1.1201 1.01072 0.25119 0.0
C1066 C 0.13788 1.01263 0.28449 0.0
C1067 C 0.14037 1.01991 0.35309 0.0
C1068 C 1.12495 1.0248 0.38783 0.0
C1069 C 1.12284 1.01628 0.31962 0.0
C1070 C 1.09183 1.02477 0.38894 0.0
C1071 C 1.07429 1.02084 0.35598 0.0
H1072 H 1.01152 0.30182 0.53911 0.0
H1073 H 0.99117 0.38434 0.47149 0.0
H1074 H 0.98804 0.41669 0.52871 0.0
H1075 H 0.98743 0.42036 0.59818 0.0
H1076 H 1.00853 0.33777 0.66539 0.0
H1077 H 1.01559 0.30654 0.60799 0.0
C1078 C 1.0066 0.32696 0.53699 0.0
C1079 C 1.00109 0.34073 0.50147 0.0
C1080 C 1.00496 0.34526 0.56982 0.0
C1081 C 0.99531 0.37332 0.49872 0.0
C1082 C 0.99342 0.39174 0.53137 0.0
C1083 C 0.99368 0.39555 0.60013 0.0
C1084 C 0.99712 0.38122 0.6358 0.0
C1085 C 0.99759 0.37779 0.56709 0.0
C1086 C 1.00582 0.34926 0.63815 0.0
C1087 C 1.00967 0.33139 0.60542 0.0
H1088 H 0.66054 1.00389 0.16268 0.0
H1089 H 0.57677 1.02599 0.0993 0.0
H1090 H 0.54472 1.01998 0.15643 0.0
H1091 H 0.5411 1.01178 0.22507 0.0
H1092 H 0.62504 0.99064 0.2886 0.0
H1093 H 0.65641 0.99237 0.23059 0.0
C1094 C 0.6352 1.00684 0.16126 0.0
C1095 C 0.62106 1.01556 0.12692 0.0
C1096 C 0.61701 1.00367 0.19424 0.0
C1097 C 0.58824 1.0197 0.12557 0.0
C1098 C 0.56991 1.01618 0.15816 0.0
C1099 C 0.56622 1.00734 0.2261 0.0
C1100 C 0.58089 1.00149 0.26095 0.0
C1101 C 0.58413 1.00876 0.19277 0.0
C1102 C 0.61335 0.9955 0.26203 0.0
C1103 C 0.63128 0.9965 0.22892 0.0
H1104 H 0.44191 0.39455 0.91128 0.0
H1105 H 0.542 0.39295 0.8895 0.0
H1106 H 0.54982 0.36086 0.94652 0.0
H1107 H 0.52784 0.33395 1.00356 0.0
H1108 H 0.42777 0.33864 0.02504 0.0
H1109 H 0.42046 0.3693 0.9675 0.0
C1110 C 0.46556 0.38773 0.91925 0.0
C1111 C 0.49132 0.39644 0.89633 0.0
C1112 C 0.46991 0.36988 0.95217 0.0
C1113 C 0.52168 0.38643 0.90655 0.0
C1114 C 0.5262 0.36822 0.93925 0.0
C1115 C 0.50454 0.34184 0.99555 0.0
C1116 C 0.47844 0.3344 0.01861 0.0
C1117 C 0.50045 0.35987 0.96239 0.0
C1118 C 0.4483 0.3445 0.00798 0.0
C1119 C 0.44403 0.36193 0.97501 0.0
H1120 H 0.13152 0.23937 0.7846 0.0
H1121 H 0.21527 0.27901 0.73251 0.0
H1122 H 0.18852 0.2812 0.67148 0.0
H1123 H 0.14313 0.26709 0.63186 0.0
H1124 H 1.0606 0.22385 0.68258 0.0
H1125 H 1.08484 0.22783 0.74522 0.0
C1126 C 0.14364 0.24887 0.75993 0.0
C1127 C 0.17524 0.25882 0.76273 0.0
C1128 C 0.12841 0.24914 0.72469 0.0
C1129 C 0.19094 0.27095 0.73071 0.0
C1130 C 0.17569 0.27221 0.69588 0.0
C1131 C 0.13028 0.25912 0.65677 0.0
C1132 C 1.10024 0.2452 0.65282 0.0
C1133 C 0.1447 0.26067 0.69236 0.0
C1134 C 1.0839 0.23448 0.68511 0.0
C1135 C 1.09773 0.23675 0.72083 0.0
H1136 H 0.25403 0.96942 0.47167 0.0
H1137 H 0.23711 0.88346 0.53563 0.0
H1138 H 0.23984 0.85224 0.47777 0.0
H1139 H 0.25157 0.84908 0.41012 0.0
H1140 H 0.26896 0.93468 0.34594 0.0
H1141 H 0.26091 0.96661 0.40277 0.0
C1142 C 0.25049 0.94391 0.47279 0.0
C1143 C 0.24581 0.92861 0.50771 0.0
C1144 C 0.25229 0.92615 0.43951 0.0
C1145 C 0.24111 0.89562 0.50897 0.0
C1146 C 0.24268 0.87779 0.47598 0.0
C1147 C 0.25339 0.87475 0.40866 0.0
C1148 C 0.26124 0.88962 0.37431 0.0
C1149 C 0.24904 0.89274 0.4413 0.0
C1150 C 0.26295 0.92285 0.37227 0.0
C1151 C 0.25852 0.94103 0.4047 0.0
H1152 H 1.09095 0.74453 0.34871 0.0
H1153 H 0.17624 0.7449 0.41501 0.0
H1154 H 0.20774 0.75317 0.35781 0.0
H1155 H 0.21114 0.75653 0.28879 0.0
H1156 H 1.12608 0.75634 0.22208 0.0
H1157 H 1.09421 0.7519 0.2797 0.0
C1158 C 1.11643 0.74652 0.35052 0.0
C1159 C 0.13135 0.74384 0.38583 0.0
C1160 C 0.13434 0.75116 0.31756 0.0
C1161 C 0.16429 0.74701 0.38808 0.0
C1162 C 0.18229 0.75156 0.35542 0.0
C1163 C 0.1856 0.75569 0.28693 0.0
C1164 C 0.17088 0.75623 0.25141 0.0
C1165 C 0.16758 0.75311 0.32001 0.0
C1166 C 0.13785 0.75568 0.24922 0.0
C1167 C 1.11967 0.75308 0.28209 0.0
H1168 H 0.26712 0.34819 0.60628 0.0
H1169 H 0.251 0.43247 0.67172 0.0
H1170 H 0.24281 0.463 0.61365 0.0
H1171 H 0.24381 0.46631 0.54432 0.0
H1172 H 0.25904 0.38188 0.47875 0.0
H1173 H 0.26393 0.35063 0.53687 0.0
C1174 C 0.26171 0.37322 0.6077 0.0
C1175 C 0.25996 0.38823 0.64301 0.0
C1176 C 0.25703 0.39051 0.5743 0.0
C1177 C 0.25239 0.4205 0.64475 0.0
C1178 C 0.24788 0.43794 0.61162 0.0
C1179 C 0.24799 0.44101 0.54287 0.0
C1180 C 0.25146 0.42637 0.50757 0.0
C1181 C 0.25067 0.4233 0.57627 0.0
C1182 C 0.25641 0.39359 0.50576 0.0
C1183 C 0.25931 0.37578 0.53892 0.0
H1184 H 0.57315 0.48113 0.77426 0.0
H1185 H 0.59634 0.57701 0.73973 0.0
H1186 H 0.62851 0.58431 0.79584 0.0
H1187 H 0.64852 0.56458 0.85551 0.0
H1188 H 0.62731 0.46859 0.89092 0.0
H1189 H 0.59557 0.46035 0.83394 0.0
C1190 C 0.58549 0.50346 0.779 0.0
C1191 C 0.58252 0.52843 0.75289 0.0
C1192 C 0.60411 0.50759 0.81152 0.0
C1193 C 0.59842 0.55734 0.75932 0.0
C1194 C 0.61678 0.56162 0.79146 0.0
C1195 C 0.63752 0.54161 0.85051 0.0
C1196 C 0.64042 0.51723 0.87734 0.0
C1197 C 0.61965 0.537 0.81777 0.0
C1198 C 0.62522 0.48789 0.87082 0.0
C1199 C 0.6072 0.4831 0.83818 0.0
H1200 H 0.52642 0.82094 0.02984 0.0
H1201 H 0.4369 0.85489 0.98959 0.0
H1202 H 0.42921 0.88383 0.04806 0.0
H1203 H 0.44663 0.89817 0.11127 0.0
H1204 H 0.53515 0.86394 0.15376 0.0
H1205 H 0.54469 0.83668 0.09378 0.0
C1206 C 0.5054 0.83487 0.0339 0.0
C1207 C 0.48229 0.8358 1.00546 0.0
C1208 C 0.50088 0.85131 0.068 0.0
C1209 C 0.45511 0.85387 0.01099 0.0
C1210 C 0.4506 0.87038 0.04448 0.0
C1211 C 0.46793 0.88458 0.10752 0.0
C1212 C 0.48996 0.88276 0.13699 0.0
C1213 C 0.4731 0.86896 0.07329 0.0
C1214 C 0.51785 0.86572 0.1314 0.0
C1215 C 0.52324 0.85006 0.09719 0.0
H1216 H 0.16526 0.51698 0.66965 0.0
H1217 H 1.07999 0.52084 0.6036 0.0
H1218 H 1.04827 0.51297 0.66078 0.0
H1219 H 1.04485 0.50827 0.72994 0.0
H1220 H 0.13015 0.50416 0.79598 0.0
H1221 H 0.16187 0.50877 0.73839 0.0
C1222 C 0.13972 0.51606 0.66786 0.0
C1223 C 1.12493 0.51976 0.63261 0.0
C1224 C 1.12171 0.51162 0.70079 0.0
C1225 C 1.09187 0.51793 0.63045 0.0
C1226 C 1.07376 0.5136 0.66312 0.0
C1227 C 1.07039 0.50823 0.73165 0.0
C1228 C 1.08521 0.50637 0.76708 0.0
C1229 C 1.08842 0.5109 0.69848 0.0
C1230 C 1.11826 0.50587 0.76899 0.0
C1231 C 0.13639 0.50854 0.73611 0.0
H1232 H 1.00808 0.91136 0.41415 0.0
H1233 H 0.99045 0.82671 0.34897 0.0
H1234 H 0.99494 0.79422 0.406 0.0
H1235 H 1.00002 0.79036 0.4747 0.0
H1236 H 1.01644 0.87488 0.5405 0.0
H1237 H 1.01689 0.90703 0.48269 0.0
C1238 C 1.00583 0.88575 0.41237 0.0
C1239 C 0.99874 0.87142 0.37754 0.0
C1240 C 1.00804 0.8673 0.44531 0.0
C1241 C 0.99551 0.83826 0.37562 0.0
C1242 C 0.99814 0.8197 0.40814 0.0
C1243 C 1.00391 0.8158 0.47635 0.0
C1244 C 1.00772 0.8304 0.51168 0.0
C1245 C 1.00372 0.83405 0.44321 0.0
C1246 C 1.0131 0.86326 0.51352 0.0
C1247 C 1.01335 0.8816 0.48053 0.0
H1248 H 0.58725 0.75593 0.16954 0.0
H1249 H 0.66425 0.71526 0.10737 0.0
H1250 H 0.69883 0.72168 0.16207 0.0
H1251 H 0.70655 0.73691 0.22834 0.0
H1252 H 0.62919 0.77614 0.29116 0.0
H1253 H 0.59548 0.77281 0.23522 0.0
C1254 C 0.61171 0.74887 0.16786 0.0
C1255 C 0.62316 0.73502 0.13458 0.0
C1256 C 0.63136 0.7524 0.19948 0.0
C1257 C 0.6548 0.7256 0.13289 0.0
C1258 C 0.67461 0.72939 0.16406 0.0
C1259 C 0.6824 0.74499 0.22962 0.0
C1260 C 0.67023 0.75662 0.2637 0.0
C1261 C 0.66305 0.74245 0.19762 0.0
C1262 C 0.63891 0.76691 0.26516 0.0
C1263 C 0.61967 0.765 0.23325 0.0
H1264 H 0.81555 0.42244 0.01081 0.0
H1265 H 0.71546 0.43718 1.00085 0.0
H1266 H 0.71462 0.40737 0.94148 0.0
H1267 H 0.7427 0.37731 0.89271 0.0
H1268 H 0.84339 0.36533 0.90208 0.0
H1269 H 0.84353 0.39348 0.96204 0.0
C1270 C 0.7935 0.41889 0.99579 0.0
C1271 C 0.76556 0.43155 0.01013 0.0
C1272 C 0.79332 0.40219 0.96179 0.0
C1273 C 0.73721 0.42738 0.99025 0.0
C1274 C 0.73675 0.4104 0.9564 0.0
C1275 C 0.7647 0.38107 0.90774 0.0
C1276 C 0.79296 0.36909 0.89305 0.0
C1277 C 0.76472 0.39778 0.9419 0.0
C1278 C 0.82122 0.37379 0.9131 0.0
C1279 C 0.82138 0.39009 0.94723 0.0
H1280 H 0.36626 0.23305 0.30365 0.0
H1281 H 0.45242 0.27219 0.34962 0.0
H1282 H 0.4227 0.30261 0.3948 0.0
H1283 H 0.37486 0.33394 0.40024 0.0
H1284 H 0.2897 0.30258 0.34464 0.0
H1285 H 0.3157 0.25426 0.32415 0.0
C1286 C 0.3785 0.24737 0.32457 0.0
C1287 C 0.41124 0.25241 0.32111 0.0
C1288 C 0.3611 0.26766 0.34761 0.0
C1289 C 0.42706 0.26891 0.35014 0.0
C1290 C 0.40998 0.28697 0.37574 0.0
C1291 C 0.36156 0.31579 0.38525 0.0
C1292 C 0.33092 0.32215 0.37262 0.0
C1293 C 0.37725 0.28921 0.37153 0.0
C1294 C 0.31371 0.29842 0.3536 0.0
C1295 C 0.32861 0.27086 0.34183 0.0
H1296 H 0.55125 0.66908 0.39191 0.0
H1297 H 0.6079 0.58748 0.36781 0.0
H1298 H 0.56427 0.55235 0.38545 0.0
H1299 H 0.5206 0.54673 0.42947 0.0
H1300 H 0.4675 0.62857 0.46224 0.0
H1301 H 0.49781 0.66143 0.41796 0.0
C1302 C 0.55349 0.64359 0.38916 0.0
C1303 C 0.58301 0.63076 0.38033 0.0
C1304 C 0.52896 0.62356 0.40161 0.0
C1305 C 0.58555 0.59788 0.37537 0.0
C1306 C 0.56065 0.57774 0.38581 0.0
C1307 C 0.51435 0.57137 0.42554 0.0
C1308 C 0.49348 0.58579 0.451 0.0
C1309 C 0.53357 0.59043 0.40237 0.0
C1310 C 0.48463 0.61731 0.44414 0.0
C1311 C 0.50232 0.63622 0.41923 0.0
H1312 H 0.36485 0.82058 0.62226 0.0
H1313 H 0.28252 0.79775 0.68905 0.0
H1314 H 0.30889 0.75158 0.71548 0.0
H1315 H 0.36022 0.73212 0.73588 0.0
H1316 H 0.44425 0.76402 0.67762 0.0
H1317 H 0.41256 0.78943 0.62968 0.0
C1318 C 0.35212 0.80456 0.64111 0.0
C1319 C 0.32235 0.81302 0.6549 0.0
C1320 C 0.36824 0.77954 0.65814 0.0
C1321 C 0.30587 0.792 0.67896 0.0
C1322 C 0.32103 0.76572 0.69418 0.0
C1323 C 0.37148 0.7436 0.71179 0.0
C1324 C 0.40439 0.7483 0.71192 0.0
C1325 C 0.35314 0.76128 0.68669 0.0
C1326 C 0.41888 0.76115 0.67936 0.0
C1327 C 0.40069 0.77633 0.6521 0.0
H1328 H 1.08701 0.75687 0.01714 0.0
H1329 H 0.15664 0.76488 0.92861 0.0
H1330 H 1.11841 0.74489 0.88277 0.0
H1331 H 1.07503 0.70623 0.87615 0.0
H1332 H 1.01047 0.69108 0.96885 0.0
H1333 H 1.03517 0.73425 1.00355 0.0
C1334 C 1.09339 0.75597 0.98747 0.0
C1335 C 1.12502 0.76052 0.97654 0.0
C1336 C 1.07198 0.7424 0.96196 0.0
C1337 C 0.13267 0.76015 0.93786 0.0
C1338 C 1.11085 0.74849 0.91169 0.0
C1339 C 1.0655 0.71351 0.9032 0.0
C1340 C 1.04247 0.69433 0.92102 0.0
C1341 C 1.08176 0.73639 0.92447 0.0
C1342 C 1.029 0.70476 0.95502 0.0
C1343 C 1.04352 0.7292 0.97526 0.0
H1344 H 0.96619 0.95784 0.85541 0.0
H1345 H 0.91927 0.88021 0.91319 0.0
H1346 H 0.9568 0.84334 0.88747 0.0
H1347 H 0.98524 0.83201 0.82935 0.0
H1348 H 1.02545 0.90866 0.76349 0.0
H1349 H 1.0093 0.94666 0.81134 0.0
C1350 C 0.96504 0.93301 0.8635 0.0
C1351 C 0.93882 0.92149 0.884 0.0
C1352 C 0.98505 0.91144 0.84586 0.0
C1353 C 0.93854 0.88971 0.89631 0.0
C1354 C 0.95984 0.86836 0.8811 0.0
C1355 C 0.99209 0.85678 0.82647 0.0
C1356 C 1.00483 0.8679 0.79217 0.0
C1357 C 0.98065 0.87859 0.85266 0.0
C1358 C 1.01446 0.89986 0.78921 0.0
C1359 C 1.00493 0.92162 0.8164 0.0
H1360 H 0.77806 0.45889 0.32779 0.0
H1361 H 0.86367 0.51495 0.332 0.0
H1362 H 0.88583 0.47809 0.37797 0.0
H1363 H 0.88755 0.42196 0.39569 0.0
H1364 H 0.80552 0.36212 0.37956 0.0
H1365 H 0.77496 0.40808 0.36008 0.0
C1366 C 0.80089 0.46403 0.34036 0.0
C1367 C 0.81979 0.48879 0.32555 0.0
C1368 C 0.81451 0.44107 0.36356 0.0
C1369 C 0.84903 0.49557 0.34249 0.0
C1370 C 0.86188 0.47414 0.36823 0.0
C1371 C 0.86257 0.41932 0.38964 0.0
C1372 C 0.8488 0.38885 0.38812 0.0
C1373 C 0.84599 0.44538 0.37582 0.0
C1374 C 0.81654 0.38544 0.38025 0.0
C1375 C 0.7992 0.41168 0.36894 0.0
H1376 H 1.10815 1.10488 0.85421 0.0
H1377 H 0.18268 1.03926 0.87759 0.0
H1378 H 0.14435 1.00094 0.90277 0.0
H1379 H 1.09546 0.99711 0.93949 0.0
H1380 H 1.02505 1.06898 0.9265 0.0
H1381 H 1.05434 1.09226 0.87405 0.0
C1382 C 1.11581 1.08151 0.86286 0.0
C1383 C 0.14821 1.0753 0.86567 0.0
C1384 C 1.09398 1.06079 0.88 0.0
C1385 C 0.15784 1.0448 0.8763 0.0
C1386 C 0.13592 1.02302 0.89099 0.0
C1387 C 1.08591 1.01701 0.92391 0.0
C1388 C 1.05939 1.03261 0.93833 0.0
C1389 C 1.10461 1.03227 0.8965 0.0
C1390 C 1.0461 1.05717 0.91691 0.0
C1391 C 1.06321 1.07092 0.88722 0.0
H1392 H 0.77616 1.11498 0.48925 0.0
H1393 H 0.74452 0.20053 0.43518 0.0
H1394 H 0.71884 0.16964 0.38616 0.0
H1395 H 0.68755 1.12114 0.37737 0.0
H1396 H 0.71088 1.0367 0.43973 0.0
H1397 H 0.75706 1.06354 0.46644 0.0
C1398 C 0.76483 1.12678 0.46569 0.0
C1399 C 0.76018 0.1597 0.46733 0.0
C1400 C 0.74716 1.10873 0.43995 0.0
C1401 C 0.74734 0.17505 0.43562 0.0
C1402 C 0.73202 0.1573 0.4078 0.0
C1403 C 0.70367 1.10813 0.39524 0.0
C1404 C 0.69533 1.07753 0.40789 0.0
C1405 C 0.72879 1.12439 0.41243 0.0
C1406 C 0.71651 1.06067 0.43062 0.0
C1407 C 0.7428 1.07608 0.44601 0.0
loop_
_geom_bond_atom_site_label_1
_geom_bond_atom_site_label_2
_geom_bond_distance
_geom_bond_site_symmetry_2
_ccdc_geom_bond_type
Gd0 C3 2.818 . S
Gd0 O20 2.377 1_556 S
Gd0 O22 2.448 . S
Gd0 O23 2.506 . S
Gd0 O24 2.435 1_556 S
Gd0 O25 2.717 1_556 S
Gd0 O27 2.395 . S
Gd0 O31 2.327 . S
Gd1 C12 2.818 . S
Gd1 O21 2.395 . S
Gd1 O25 2.327 . S
Gd1 O26 2.377 . S
Gd1 O28 2.448 . S
Gd1 O29 2.506 . S
Gd1 O30 2.435 . S
Gd1 O31 2.717 1_554 S
C2 O20 1.240 . S
C2 O21 1.240 . S
C3 Gd0 2.818 . S
C3 C4 1.510 . S
C3 O22 1.249 . S
C3 O23 1.252 . S
C4 C3 1.510 . S
C4 C5 1.404 . S
C4 C6 1.352 . S
C5 C4 1.404 . S
C5 C9 1.389 . S
C5 H32 0.930 . S
C6 C4 1.352 . S
C6 C8 1.374 . S
C6 H33 0.931 . S
C7 C8 1.359 . S
C7 C9 1.364 . S
C8 C6 1.374 . S
C8 C7 1.359 . S
C8 H34 0.931 . S
C9 C5 1.389 . S
C9 C7 1.364 . S
C9 H35 0.931 . S
C10 O24 1.256 . S
C10 O25 1.257 . S
C11 O26 1.240 . S
C11 O27 1.240 1_554 S
C12 Gd1 2.818 . S
C12 C13 1.510 . S
C12 O28 1.249 . S
C12 O29 1.252 . S
C13 C12 1.510 . S
C13 C14 1.404 . S
C13 C15 1.352 . S
C14 C13 1.404 . S
C14 C18 1.389 . S
C14 H36 0.930 . S
C15 C13 1.352 . S
C15 C17 1.374 . S
C15 H37 0.931 . S
C16 C17 1.359 . S
C16 C18 1.364 . S
C17 C15 1.374 . S
C17 C16 1.359 . S
C17 H38 0.931 . S
C18 C14 1.389 . S
C18 C16 1.364 . S
C18 H39 0.931 . S
C19 O30 1.256 1_556 S
C19 O31 1.257 . S
O20 Gd0 2.377 1_554 S
O20 C2 1.240 . S
O21 Gd1 2.395 . S
O21 C2 1.240 . S
O22 Gd0 2.448 . S
O22 C3 1.249 . S
O23 Gd0 2.506 . S
O23 C3 1.252 . S
O24 Gd0 2.435 1_554 S
O24 C10 1.256 . S
O25 Gd0 2.717 1_554 S
O25 Gd1 2.327 . S
O25 C10 1.257 . S
O26 Gd1 2.377 . S
O26 C11 1.240 . S
O27 Gd0 2.395 . S
O27 C11 1.240 1_556 S
O28 Gd1 2.448 . S
O28 C12 1.249 . S
O29 Gd1 2.506 . S
O29 C12 1.252 . S
O30 Gd1 2.435 . S
O30 C19 1.256 1_554 S
O31 Gd0 2.327 . S
O31 Gd1 2.717 1_556 S
O31 C19 1.257 . S
H32 C5 0.930 . S
H33 C6 0.931 . S
H34 C8 0.931 . S
H35 C9 0.931 . S
H36 C14 0.930 . S
H37 C15 0.931 . S
H38 C17 0.931 . S
H39 C18 0.931 . S
Gd40 C43 2.818 . S
Gd40 O60 2.377 . S
Gd40 O62 2.448 . S
Gd40 O63 2.506 . S
Gd40 O64 2.435 . S
Gd40 O65 2.717 . S
Gd40 O67 2.395 . S
Gd40 O71 2.327 . S
Gd41 C52 2.818 . S
Gd41 O61 2.395 . S
Gd41 O65 2.327 . S
Gd41 O66 2.377 . S
Gd41 O68 2.448 . S
Gd41 O69 2.506 . S
Gd41 O70 2.435 . S
Gd41 O71 2.717 . S
C42 O60 1.240 . S
C42 O61 1.240 . S
C43 Gd40 2.818 . S
C43 C44 1.510 . S
C43 O62 1.249 . S
C43 O63 1.252 . S
C44 C43 1.510 . S
C44 C45 1.404 . S
C44 C46 1.352 . S
C45 C44 1.404 . S
C45 C49 1.389 . S
C45 H72 0.930 . S
C46 C44 1.352 . S
C46 C48 1.374 . S
C46 H73 0.931 . S
C47 C48 1.359 . S
C47 C49 1.364 . S
C48 C46 1.374 . S
C48 C47 1.359 . S
C48 H74 0.931 . S
C49 C45 1.389 . S
C49 C47 1.364 . S
C49 H75 0.931 . S
C50 O64 1.256 . S
C50 O65 1.257 . S
C51 O66 1.240 . S
C51 O67 1.240 . S
C52 Gd41 2.818 . S
C52 C53 1.510 . S
C52 O68 1.249 . S
C52 O69 1.252 . S
C53 C52 1.510 . S
C53 C54 1.404 . S
C53 C55 1.352 . S
C54 C53 1.404 . S
C54 C58 1.389 . S
C54 H76 0.930 . S
C55 C53 1.352 . S
C55 C57 1.374 . S
C55 H77 0.931 . S
C56 C57 1.359 . S
C56 C58 1.364 . S
C57 C55 1.374 . S
C57 C56 1.359 . S
C57 H78 0.931 . S
C58 C54 1.389 . S
C58 C56 1.364 . S
C58 H79 0.931 . S
C59 O70 1.256 . S
C59 O71 1.257 . S
O60 Gd40 2.377 . S
O60 C42 1.240 . S
O61 Gd41 2.395 . S
O61 C42 1.240 . S
O62 Gd40 2.448 . S
O62 C43 1.249 . S
O63 Gd40 2.506 . S
O63 C43 1.252 . S
O64 Gd40 2.435 . S
O64 C50 1.256 . S
O65 Gd40 2.717 . S
O65 Gd41 2.327 . S
O65 C50 1.257 . S
O66 Gd41 2.377 . S
O66 C51 1.240 . S
O67 Gd40 2.395 . S
O67 C51 1.240 . S
O68 Gd41 2.448 . S
O68 C52 1.249 . S
O69 Gd41 2.506 . S
O69 C52 1.252 . S
O70 Gd41 2.435 . S
O70 C59 1.256 . S
O71 Gd40 2.327 . S
O71 Gd41 2.717 . S
O71 C59 1.257 . S
H72 C45 0.930 . S
H73 C46 0.931 . S
H74 C48 0.931 . S
H75 C49 0.931 . S
H76 C54 0.930 . S
H77 C55 0.931 . S
H78 C57 0.931 . S
H79 C58 0.931 . S
Gd80 C83 2.818 . S
Gd80 O100 2.377 . S
Gd80 O102 2.448 . S
Gd80 O103 2.506 . S
Gd80 O104 2.435 . S
Gd80 O105 2.717 . S
Gd80 O107 2.395 . S
Gd80 O111 2.327 . S
Gd81 C92 2.818 . S
Gd81 O101 2.395 . S
Gd81 O105 2.327 . S
Gd81 O106 2.377 . S
Gd81 O108 2.448 . S
Gd81 O109 2.506 . S
Gd81 O110 2.435 . S
Gd81 O111 2.717 . S
C82 O100 1.240 . S
C82 O101 1.240 . S
C83 Gd80 2.818 . S
C83 C84 1.510 . S
C83 O102 1.249 . S
C83 O103 1.252 . S
C84 C83 1.510 . S
C84 C85 1.404 . S
C84 C86 1.352 . S
C85 C84 1.404 . S
C85 C89 1.389 . S
C85 H112 0.930 . S
C86 C84 1.352 . S
C86 C88 1.374 . S
C86 H113 0.931 . S
C87 C88 1.359 1_655 S
C87 C89 1.364 1_655 S
C88 C86 1.374 . S
C88 C87 1.359 1_455 S
C88 H114 0.931 1_455 S
C89 C85 1.389 . S
C89 C87 1.364 1_455 S
C89 H115 0.931 1_455 S
C90 O104 1.256 . S
C90 O105 1.257 . S
C91 O106 1.240 . S
C91 O107 1.240 . S
C92 Gd81 2.818 . S
C92 C93 1.510 . S
C92 O108 1.249 . S
C92 O109 1.252 . S
C93 C92 1.510 . S
C93 C94 1.404 . S
C93 C95 1.352 . S
C94 C93 1.404 . S
C94 C98 1.389 . S
C94 H116 0.930 . S
C95 C93 1.352 . S
C95 C97 1.374 . S
C95 H117 0.931 . S
C96 C97 1.359 . S
C96 C98 1.364 . S
C97 C95 1.374 . S
C97 C96 1.359 . S
C97 H118 0.931 . S
C98 C94 1.389 . S
C98 C96 1.364 . S
C98 H119 0.931 . S
C99 O110 1.256 . S
C99 O111 1.257 . S
O100 Gd80 2.377 . S
O100 C82 1.240 . S
O101 Gd81 2.395 . S
O101 C82 1.240 . S
O102 Gd80 2.448 . S
O102 C83 1.249 . S
O103 Gd80 2.506 . S
O103 C83 1.252 . S
O104 Gd80 2.435 . S
O104 C90 1.256 . S
O105 Gd80 2.717 . S
O105 Gd81 2.327 . S
O105 C90 1.257 . S
O106 Gd81 2.377 . S
O106 C91 1.240 . S
O107 Gd80 2.395 . S
O107 C91 1.240 . S
O108 Gd81 2.448 . S
O108 C92 1.249 . S
O109 Gd81 2.506 . S
O109 C92 1.252 . S
O110 Gd81 2.435 . S
O110 C99 1.256 . S
O111 Gd80 2.327 . S
O111 Gd81 2.717 . S
O111 C99 1.257 . S
H112 C85 0.930 . S
H113 C86 0.931 . S
H114 C88 0.931 1_655 S
H115 C89 0.931 1_655 S
H116 C94 0.930 . S
H117 C95 0.931 . S
H118 C97 0.931 . S
H119 C98 0.931 . S
Gd120 C123 2.818 . S
Gd120 O140 2.377 . S
Gd120 O142 2.448 . S
Gd120 O143 2.506 . S
Gd120 O144 2.435 . S
Gd120 O145 2.717 . S
Gd120 O147 2.395 . S
Gd120 O151 2.327 . S
Gd121 C132 2.818 . S
Gd121 O141 2.395 . S
Gd121 O145 2.327 . S
Gd121 O146 2.377 . S
Gd121 O148 2.448 . S
Gd121 O149 2.506 . S
Gd121 O150 2.435 . S
Gd121 O151 2.717 . S
C122 O140 1.240 . S
C122 O141 1.240 . S
C123 Gd120 2.818 . S
C123 C124 1.510 . S
C123 O142 1.249 . S
C123 O143 1.252 . S
C124 C123 1.510 . S
C124 C125 1.404 . S
C124 C126 1.352 . S
C125 C124 1.404 . S
C125 C129 1.389 . S
C125 H152 0.930 . S
C126 C124 1.352 . S
C126 C128 1.374 . S
C126 H153 0.931 . S
C127 C128 1.359 . S
C127 C129 1.364 . S
C128 C126 1.374 . S
C128 C127 1.359 . S
C128 H154 0.931 . S
C129 C125 1.389 . S
C129 C127 1.364 . S
C129 H155 0.931 . S
C130 O144 1.256 . S
C130 O145 1.257 . S
C131 O146 1.240 . S
C131 O147 1.240 . S
C132 Gd121 2.818 . S
C132 C133 1.510 . S
C132 O148 1.249 . S
C132 O149 1.252 . S
C133 C132 1.510 . S
C133 C134 1.404 . S
C133 C135 1.352 . S
C134 C133 1.404 . S
C134 C138 1.389 . S
C134 H156 0.930 . S
C135 C133 1.352 . S
C135 C137 1.374 . S
C135 H157 0.931 . S
C136 C137 1.359 . S
C136 C138 1.364 . S
C137 C135 1.374 . S
C137 C136 1.359 . S
C137 H158 0.931 . S
C138 C134 1.389 . S
C138 C136 1.364 . S
C138 H159 0.931 . S
C139 O150 1.256 . S
C139 O151 1.257 . S
O140 Gd120 2.377 . S
O140 C122 1.240 . S
O141 Gd121 2.395 . S
O141 C122 1.240 . S
O142 Gd120 2.448 . S
O142 C123 1.249 . S
O143 Gd120 2.506 . S
O143 C123 1.252 . S
O144 Gd120 2.435 . S
O144 C130 1.256 . S
O145 Gd120 2.717 . S
O145 Gd121 2.327 . S
O145 C130 1.257 . S
O146 Gd121 2.377 . S
O146 C131 1.240 . S
O147 Gd120 2.395 . S
O147 C131 1.240 . S
O148 Gd121 2.448 . S
O148 C132 1.249 . S
O149 Gd121 2.506 . S
O149 C132 1.252 . S
O150 Gd121 2.435 . S
O150 C139 1.256 . S
O151 Gd120 2.327 . S
O151 Gd121 2.717 . S
O151 C139 1.257 . S
H152 C125 0.930 . S
H153 C126 0.931 . S
H154 C128 0.931 . S
H155 C129 0.931 . S
H156 C134 0.930 . S
H157 C135 0.931 . S
H158 C137 0.931 . S
H159 C138 0.931 . S
Gd160 C163 2.818 . S
Gd160 O180 2.377 . S
Gd160 O182 2.448 . S
Gd160 O183 2.506 . S
Gd160 O184 2.435 . S
Gd160 O185 2.717 1_556 S
Gd160 O187 2.395 . S
Gd160 O191 2.327 . S
Gd161 C172 2.818 . S
Gd161 O181 2.395 . S
Gd161 O185 2.327 . S
Gd161 O186 2.377 1_554 S
Gd161 O188 2.448 . S
Gd161 O189 2.506 . S
Gd161 O190 2.435 1_554 S
Gd161 O191 2.717 1_554 S
C162 O180 1.240 . S
C162 O181 1.240 1_556 S
C163 Gd160 2.818 . S
C163 C164 1.510 . S
C163 O182 1.249 . S
C163 O183 1.252 . S
C164 C163 1.510 . S
C164 C165 1.404 . S
C164 C166 1.352 . S
C165 C164 1.404 . S
C165 C169 1.389 . S
C165 H192 0.930 . S
C166 C164 1.352 . S
C166 C168 1.374 . S
C166 H193 0.931 . S
C167 C168 1.359 . S
C167 C169 1.364 . S
C168 C166 1.374 . S
C168 C167 1.359 . S
C168 H194 0.931 . S
C169 C165 1.389 . S
C169 C167 1.364 . S
C169 H195 0.931 . S
C170 O184 1.256 1_554 S
C170 O185 1.257 . S
C171 O186 1.240 . S
C171 O187 1.240 . S
C172 Gd161 2.818 . S
C172 C173 1.510 . S
C172 O188 1.249 . S
C172 O189 1.252 . S
C173 C172 1.510 . S
C173 C174 1.404 . S
C173 C175 1.352 . S
C174 C173 1.404 . S
C174 C178 1.389 . S
C174 H196 0.930 . S
C175 C173 1.352 . S
C175 C177 1.374 . S
C175 H197 0.931 . S
C176 C177 1.359 . S
C176 C178 1.364 . S
C177 C175 1.374 . S
C177 C176 1.359 . S
C177 H198 0.931 . S
C178 C174 1.389 . S
C178 C176 1.364 . S
C178 H199 0.931 . S
C179 O190 1.256 . S
C179 O191 1.257 . S
O180 Gd160 2.377 . S
O180 C162 1.240 . S
O181 Gd161 2.395 . S
O181 C162 1.240 1_554 S
O182 Gd160 2.448 . S
O182 C163 1.249 . S
O183 Gd160 2.506 . S
O183 C163 1.252 . S
O184 Gd160 2.435 . S
O184 C170 1.256 1_556 S
O185 Gd160 2.717 1_554 S
O185 Gd161 2.327 . S
O185 C170 1.257 . S
O186 Gd161 2.377 1_556 S
O186 C171 1.240 . S
O187 Gd160 2.395 . S
O187 C171 1.240 . S
O188 Gd161 2.448 . S
O188 C172 1.249 . S
O189 Gd161 2.506 . S
O189 C172 1.252 . S
O190 Gd161 2.435 1_556 S
O190 C179 1.256 . S
O191 Gd160 2.327 . S
O191 Gd161 2.717 1_556 S
O191 C179 1.257 . S
H192 C165 0.930 . S
H193 C166 0.931 . S
H194 C168 0.931 . S
H195 C169 0.931 . S
H196 C174 0.930 . S
H197 C175 0.931 . S
H198 C177 0.931 . S
H199 C178 0.931 . S
Gd200 C203 2.818 . S
Gd200 O220 2.377 . S
Gd200 O222 2.448 . S
Gd200 O223 2.506 . S
Gd200 O224 2.435 . S
Gd200 O225 2.717 . S
Gd200 O227 2.395 . S
Gd200 O231 2.327 . S
Gd201 C212 2.818 . S
Gd201 O221 2.395 . S
Gd201 O225 2.327 . S
Gd201 O226 2.377 . S
Gd201 O228 2.448 . S
Gd201 O229 2.506 . S
Gd201 O230 2.435 . S
Gd201 O231 2.717 . S
C202 O220 1.240 . S
C202 O221 1.240 . S
C203 Gd200 2.818 . S
C203 C204 1.510 . S
C203 O222 1.249 . S
C203 O223 1.252 . S
C204 C203 1.510 . S
C204 C205 1.404 . S
C204 C206 1.352 . S
C205 C204 1.404 . S
C205 C209 1.389 . S
C205 H232 0.930 . S
C206 C204 1.352 . S
C206 C208 1.374 . S
C206 H233 0.931 . S
C207 C208 1.359 . S
C207 C209 1.364 . S
C208 C206 1.374 . S
C208 C207 1.359 . S
C208 H234 0.931 . S
C209 C205 1.389 . S
C209 C207 1.364 . S
C209 H235 0.931 . S
C210 O224 1.256 . S
C210 O225 1.257 . S
C211 O226 1.240 . S
C211 O227 1.240 . S
C212 Gd201 2.818 . S
C212 C213 1.510 . S
C212 O228 1.249 . S
C212 O229 1.252 . S
C213 C212 1.510 . S
C213 C214 1.404 . S
C213 C215 1.352 . S
C214 C213 1.404 . S
C214 C218 1.389 . S
C214 H236 0.930 . S
C215 C213 1.352 . S
C215 C217 1.374 . S
C215 H237 0.931 . S
C216 C217 1.359 . S
C216 C218 1.364 . S
C217 C215 1.374 . S
C217 C216 1.359 . S
C217 H238 0.931 . S
C218 C214 1.389 . S
C218 C216 1.364 . S
C218 H239 0.931 . S
C219 O230 1.256 . S
C219 O231 1.257 . S
O220 Gd200 2.377 . S
O220 C202 1.240 . S
O221 Gd201 2.395 . S
O221 C202 1.240 . S
O222 Gd200 2.448 . S
O222 C203 1.249 . S
O223 Gd200 2.506 . S
O223 C203 1.252 . S
O224 Gd200 2.435 . S
O224 C210 1.256 . S
O225 Gd200 2.717 . S
O225 Gd201 2.327 . S
O225 C210 1.257 . S
O226 Gd201 2.377 . S
O226 C211 1.240 . S
O227 Gd200 2.395 . S
O227 C211 1.240 . S
O228 Gd201 2.448 . S
O228 C212 1.249 . S
O229 Gd201 2.506 . S
O229 C212 1.252 . S
O230 Gd201 2.435 . S
O230 C219 1.256 . S
O231 Gd200 2.327 . S
O231 Gd201 2.717 . S
O231 C219 1.257 . S
H232 C205 0.930 . S
H233 C206 0.931 . S
H234 C208 0.931 . S
H235 C209 0.931 . S
H236 C214 0.930 . S
H237 C215 0.931 . S
H238 C217 0.931 . S
H239 C218 0.931 . S
Gd240 C243 2.818 . S
Gd240 O260 2.377 . S
Gd240 O262 2.448 . S
Gd240 O263 2.506 . S
Gd240 O264 2.435 . S
Gd240 O265 2.717 . S
Gd240 O267 2.395 . S
Gd240 O271 2.327 . S
Gd241 C252 2.818 . S
Gd241 O261 2.395 . S
Gd241 O265 2.327 . S
Gd241 O266 2.377 . S
Gd241 O268 2.448 . S
Gd241 O269 2.506 . S
Gd241 O270 2.435 . S
Gd241 O271 2.717 . S
C242 O260 1.240 . S
C242 O261 1.240 . S
C243 Gd240 2.818 . S
C243 C244 1.510 . S
C243 O262 1.249 . S
C243 O263 1.252 . S
C244 C243 1.510 . S
C244 C245 1.404 . S
C244 C246 1.352 . S
C245 C244 1.404 . S
C245 C249 1.389 . S
C245 H272 0.930 . S
C246 C244 1.352 . S
C246 C248 1.374 . S
C246 H273 0.931 . S
C247 C248 1.359 . S
C247 C249 1.364 . S
C248 C246 1.374 . S
C248 C247 1.359 . S
C248 H274 0.931 . S
C249 C245 1.389 . S
C249 C247 1.364 . S
C249 H275 0.931 . S
C250 O264 1.256 . S
C250 O265 1.257 . S
C251 O266 1.240 . S
C251 O267 1.240 . S
C252 Gd241 2.818 . S
C252 C253 1.510 . S
C252 O268 1.249 . S
C252 O269 1.252 . S
C253 C252 1.510 . S
C253 C254 1.404 . S
C253 C255 1.352 . S
C254 C253 1.404 . S
C254 C258 1.389 . S
C254 H276 0.930 . S
C255 C253 1.352 . S
C255 C257 1.374 . S
C255 H277 0.931 . S
C256 C257 1.359 1_455 S
C256 C258 1.364 1_455 S
C257 C255 1.374 . S
C257 C256 1.359 1_655 S
C257 H278 0.931 1_655 S
C258 C254 1.389 . S
C258 C256 1.364 1_655 S
C258 H279 0.931 1_655 S
C259 O270 1.256 . S
C259 O271 1.257 . S
O260 Gd240 2.377 . S
O260 C242 1.240 . S
O261 Gd241 2.395 . S
O261 C242 1.240 . S
O262 Gd240 2.448 . S
O262 C243 1.249 . S
O263 Gd240 2.506 . S
O263 C243 1.252 . S
O264 Gd240 2.435 . S
O264 C250 1.256 . S
O265 Gd240 2.717 . S
O265 Gd241 2.327 . S
O265 C250 1.257 . S
O266 Gd241 2.377 . S
O266 C251 1.240 . S
O267 Gd240 2.395 . S
O267 C251 1.240 . S
O268 Gd241 2.448 . S
O268 C252 1.249 . S
O269 Gd241 2.506 . S
O269 C252 1.252 . S
O270 Gd241 2.435 . S
O270 C259 1.256 . S
O271 Gd240 2.327 . S
O271 Gd241 2.717 . S
O271 C259 1.257 . S
H272 C245 0.930 . S
H273 C246 0.931 . S
H274 C248 0.931 . S
H275 C249 0.931 . S
H276 C254 0.930 . S
H277 C255 0.931 . S
H278 C257 0.931 1_455 S
H279 C258 0.931 1_455 S
Gd280 C283 2.818 . S
Gd280 O300 2.377 . S
Gd280 O302 2.448 . S
Gd280 O303 2.506 . S
Gd280 O304 2.435 . S
Gd280 O305 2.717 . S
Gd280 O307 2.395 . S
Gd280 O311 2.327 . S
Gd281 C292 2.818 . S
Gd281 O301 2.395 . S
Gd281 O305 2.327 . S
Gd281 O306 2.377 . S
Gd281 O308 2.448 . S
Gd281 O309 2.506 . S
Gd281 O310 2.435 . S
Gd281 O311 2.717 . S
C282 O300 1.240 . S
C282 O301 1.240 . S
C283 Gd280 2.818 . S
C283 C284 1.510 . S
C283 O302 1.249 . S
C283 O303 1.252 . S
C284 C283 1.510 . S
C284 C285 1.404 . S
C284 C286 1.352 . S
C285 C284 1.404 . S
C285 C289 1.389 . S
C285 H312 0.930 . S
C286 C284 1.352 . S
C286 C288 1.374 . S
C286 H313 0.931 . S
C287 C288 1.359 . S
C287 C289 1.364 . S
C288 C286 1.374 . S
C288 C287 1.359 . S
C288 H314 0.931 . S
C289 C285 1.389 . S
C289 C287 1.364 . S
C289 H315 0.931 . S
C290 O304 1.256 . S
C290 O305 1.257 . S
C291 O306 1.240 . S
C291 O307 1.240 . S
C292 Gd281 2.818 . S
C292 C293 1.510 . S
C292 O308 1.249 . S
C292 O309 1.252 . S
C293 C292 1.510 . S
C293 C294 1.404 . S
C293 C295 1.352 . S
C294 C293 1.404 . S
C294 C298 1.389 . S
C294 H316 0.930 . S
C295 C293 1.352 . S
C295 C297 1.374 . S
C295 H317 0.931 . S
C296 C297 1.359 . S
C296 C298 1.364 . S
C297 C295 1.374 . S
C297 C296 1.359 . S
C297 H318 0.931 . S
C298 C294 1.389 . S
C298 C296 1.364 . S
C298 H319 0.931 . S
C299 O310 1.256 . S
C299 O311 1.257 . S
O300 Gd280 2.377 . S
O300 C282 1.240 . S
O301 Gd281 2.395 . S
O301 C282 1.240 . S
O302 Gd280 2.448 . S
O302 C283 1.249 . S
O303 Gd280 2.506 . S
O303 C283 1.252 . S
O304 Gd280 2.435 . S
O304 C290 1.256 . S
O305 Gd280 2.717 . S
O305 Gd281 2.327 . S
O305 C290 1.257 . S
O306 Gd281 2.377 . S
O306 C291 1.240 . S
O307 Gd280 2.395 . S
O307 C291 1.240 . S
O308 Gd281 2.448 . S
O308 C292 1.249 . S
O309 Gd281 2.506 . S
O309 C292 1.252 . S
O310 Gd281 2.435 . S
O310 C299 1.256 . S
O311 Gd280 2.327 . S
O311 Gd281 2.717 . S
O311 C299 1.257 . S
H312 C285 0.930 . S
H313 C286 0.931 . S
H314 C288 0.931 . S
H315 C289 0.931 . S
H316 C294 0.930 . S
H317 C295 0.931 . S
H318 C297 0.931 . S
H319 C298 0.931 . S
Gd320 C323 2.818 . S
Gd320 O340 2.377 . S
Gd320 O342 2.448 . S
Gd320 O343 2.506 . S
Gd320 O344 2.435 . S
Gd320 O345 2.717 . S
Gd320 O347 2.395 . S
Gd320 O351 2.327 . S
Gd321 C332 2.818 . S
Gd321 O341 2.395 . S
Gd321 O345 2.327 . S
Gd321 O346 2.377 . S
Gd321 O348 2.448 . S
Gd321 O349 2.506 . S
Gd321 O350 2.435 . S
Gd321 O351 2.717 . S
C322 O340 1.240 . S
C322 O341 1.240 . S
C323 Gd320 2.818 . S
C323 C324 1.510 . S
C323 O342 1.249 . S
C323 O343 1.252 . S
C324 C323 1.510 . S
C324 C325 1.404 . S
C324 C326 1.352 . S
C325 C324 1.404 . S
C325 C329 1.389 . S
C325 H352 0.930 . S
C326 C324 1.352 . S
C326 C328 1.374 . S
C326 H353 0.931 . S
C327 C328 1.359 1_455 S
C327 C329 1.364 1_455 S
C328 C326 1.374 . S
C328 C327 1.359 1_655 S
C328 H354 0.931 1_655 S
C329 C325 1.389 . S
C329 C327 1.364 1_655 S
C329 H355 0.931 1_655 S
C330 O344 1.256 . S
C330 O345 1.257 . S
C331 O346 1.240 . S
C331 O347 1.240 . S
C332 Gd321 2.818 . S
C332 C333 1.510 . S
C332 O348 1.249 . S
C332 O349 1.252 . S
C333 C332 1.510 . S
C333 C334 1.404 . S
C333 C335 1.352 . S
C334 C333 1.404 . S
C334 C338 1.389 . S
C334 H356 0.930 . S
C335 C333 1.352 . S
C335 C337 1.374 . S
C335 H357 0.931 . S
C336 C337 1.359 . S
C336 C338 1.364 . S
C337 C335 1.374 . S
C337 C336 1.359 . S
C337 H358 0.931 . S
C338 C334 1.389 . S
C338 C336 1.364 . S
C338 H359 0.931 . S
C339 O350 1.256 . S
C339 O351 1.257 . S
O340 Gd320 2.377 . S
O340 C322 1.240 . S
O341 Gd321 2.395 . S
O341 C322 1.240 . S
O342 Gd320 2.448 . S
O342 C323 1.249 . S
O343 Gd320 2.506 . S
O343 C323 1.252 . S
O344 Gd320 2.435 . S
O344 C330 1.256 . S
O345 Gd320 2.717 . S
O345 Gd321 2.327 . S
O345 C330 1.257 . S
O346 Gd321 2.377 . S
O346 C331 1.240 . S
O347 Gd320 2.395 . S
O347 C331 1.240 . S
O348 Gd321 2.448 . S
O348 C332 1.249 . S
O349 Gd321 2.506 . S
O349 C332 1.252 . S
O350 Gd321 2.435 . S
O350 C339 1.256 . S
O351 Gd320 2.327 . S
O351 Gd321 2.717 . S
O351 C339 1.257 . S
H352 C325 0.930 . S
H353 C326 0.931 . S
H354 C328 0.931 1_455 S
H355 C329 0.931 1_455 S
H356 C334 0.930 . S
H357 C335 0.931 . S
H358 C337 0.931 . S
H359 C338 0.931 . S
Gd360 C363 2.818 . S
Gd360 O380 2.377 . S
Gd360 O382 2.448 . S
Gd360 O383 2.506 . S
Gd360 O384 2.435 . S
Gd360 O385 2.717 . S
Gd360 O387 2.395 . S
Gd360 O391 2.327 . S
Gd361 C372 2.818 . S
Gd361 O381 2.395 . S
Gd361 O385 2.327 . S
Gd361 O386 2.377 . S
Gd361 O388 2.448 . S
Gd361 O389 2.506 . S
Gd361 O390 2.435 . S
Gd361 O391 2.717 . S
C362 O380 1.240 . S
C362 O381 1.240 . S
C363 Gd360 2.818 . S
C363 C364 1.510 . S
C363 O382 1.249 . S
C363 O383 1.252 . S
C364 C363 1.510 . S
C364 C365 1.404 . S
C364 C366 1.352 . S
C365 C364 1.404 . S
C365 C369 1.389 . S
C365 H392 0.930 . S
C366 C364 1.352 . S
C366 C368 1.374 . S
C366 H393 0.931 . S
C367 C368 1.359 . S
C367 C369 1.364 . S
C368 C366 1.374 . S
C368 C367 1.359 . S
C368 H394 0.931 . S
C369 C365 1.389 . S
C369 C367 1.364 . S
C369 H395 0.931 . S
C370 O384 1.256 . S
C370 O385 1.257 . S
C371 O386 1.240 . S
C371 O387 1.240 . S
C372 Gd361 2.818 . S
C372 C373 1.510 . S
C372 O388 1.249 . S
C372 O389 1.252 . S
C373 C372 1.510 . S
C373 C374 1.404 . S
C373 C375 1.352 . S
C374 C373 1.404 . S
C374 C378 1.389 . S
C374 H396 0.930 . S
C375 C373 1.352 . S
C375 C377 1.374 . S
C375 H397 0.931 . S
C376 C377 1.359 . S
C376 C378 1.364 . S
C377 C375 1.374 . S
C377 C376 1.359 . S
C377 H398 0.931 . S
C378 C374 1.389 . S
C378 C376 1.364 . S
C378 H399 0.931 . S
C379 O390 1.256 . S
C379 O391 1.257 . S
O380 Gd360 2.377 . S
O380 C362 1.240 . S
O381 Gd361 2.395 . S
O381 C362 1.240 . S
O382 Gd360 2.448 . S
O382 C363 1.249 . S
O383 Gd360 2.506 . S
O383 C363 1.252 . S
O384 Gd360 2.435 . S
O384 C370 1.256 . S
O385 Gd360 2.717 . S
O385 Gd361 2.327 . S
O385 C370 1.257 . S
O386 Gd361 2.377 . S
O386 C371 1.240 . S
O387 Gd360 2.395 . S
O387 C371 1.240 . S
O388 Gd361 2.448 . S
O388 C372 1.249 . S
O389 Gd361 2.506 . S
O389 C372 1.252 . S
O390 Gd361 2.435 . S
O390 C379 1.256 . S
O391 Gd360 2.327 . S
O391 Gd361 2.717 . S
O391 C379 1.257 . S
H392 C365 0.930 . S
H393 C366 0.931 . S
H394 C368 0.931 . S
H395 C369 0.931 . S
H396 C374 0.930 . S
H397 C375 0.931 . S
H398 C377 0.931 . S
H399 C378 0.931 . S
Gd400 C403 2.818 . S
Gd400 O420 2.377 1_556 S
Gd400 O422 2.448 . S
Gd400 O423 2.506 . S
Gd400 O424 2.435 1_556 S
Gd400 O425 2.717 1_556 S
Gd400 O427 2.395 . S
Gd400 O431 2.327 . S
Gd401 C412 2.818 . S
Gd401 O421 2.395 . S
Gd401 O425 2.327 . S
Gd401 O426 2.377 . S
Gd401 O428 2.448 . S
Gd401 O429 2.506 . S
Gd401 O430 2.435 . S
Gd401 O431 2.717 1_554 S
C402 O420 1.240 . S
C402 O421 1.240 . S
C403 Gd400 2.818 . S
C403 C404 1.510 . S
C403 O422 1.249 . S
C403 O423 1.252 . S
C404 C403 1.510 . S
C404 C405 1.404 . S
C404 C406 1.352 . S
C405 C404 1.404 . S
C405 C409 1.389 . S
C405 H432 0.930 . S
C406 C404 1.352 . S
C406 C408 1.374 . S
C406 H433 0.931 . S
C407 C408 1.359 . S
C407 C409 1.364 . S
C408 C406 1.374 . S
C408 C407 1.359 . S
C408 H434 0.931 . S
C409 C405 1.389 . S
C409 C407 1.364 . S
C409 H435 0.931 . S
C410 O424 1.256 . S
C410 O425 1.257 . S
C411 O426 1.240 . S
C411 O427 1.240 1_554 S
C412 Gd401 2.818 . S
C412 C413 1.510 . S
C412 O428 1.249 . S
C412 O429 1.252 . S
C413 C412 1.510 . S
C413 C414 1.404 . S
C413 C415 1.352 . S
C414 C413 1.404 . S
C414 C418 1.389 . S
C414 H436 0.930 . S
C415 C413 1.352 . S
C415 C417 1.374 . S
C415 H437 0.931 . S
C416 C417 1.359 . S
C416 C418 1.364 . S
C417 C415 1.374 . S
C417 C416 1.359 . S
C417 H438 0.931 . S
C418 C414 1.389 . S
C418 C416 1.364 . S
C418 H439 0.931 . S
C419 O430 1.256 1_556 S
C419 O431 1.257 . S
O420 Gd400 2.377 1_554 S
O420 C402 1.240 . S
O421 Gd401 2.395 . S
O421 C402 1.240 . S
O422 Gd400 2.448 . S
O422 C403 1.249 . S
O423 Gd400 2.506 . S
O423 C403 1.252 . S
O424 Gd400 2.435 1_554 S
O424 C410 1.256 . S
O425 Gd400 2.717 1_554 S
O425 Gd401 2.327 . S
O425 C410 1.257 . S
O426 Gd401 2.377 . S
O426 C411 1.240 . S
O427 Gd400 2.395 . S
O427 C411 1.240 1_556 S
O428 Gd401 2.448 . S
O428 C412 1.249 . S
O429 Gd401 2.506 . S
O429 C412 1.252 . S
O430 Gd401 2.435 . S
O430 C419 1.256 1_554 S
O431 Gd400 2.327 . S
O431 Gd401 2.717 1_556 S
O431 C419 1.257 . S
H432 C405 0.930 . S
H433 C406 0.931 . S
H434 C408 0.931 . S
H435 C409 0.931 . S
H436 C414 0.930 . S
H437 C415 0.931 . S
H438 C417 0.931 . S
H439 C418 0.931 . S
Gd440 C443 2.818 . S
Gd440 O460 2.377 . S
Gd440 O462 2.448 . S
Gd440 O463 2.506 . S
Gd440 O464 2.435 . S
Gd440 O465 2.717 . S
Gd440 O467 2.395 . S
Gd440 O471 2.327 . S
Gd441 C452 2.818 . S
Gd441 O461 2.395 . S
Gd441 O465 2.327 . S
Gd441 O466 2.377 . S
Gd441 O468 2.448 . S
Gd441 O469 2.506 . S
Gd441 O470 2.435 . S
Gd441 O471 2.717 . S
C442 O460 1.240 . S
C442 O461 1.240 . S
C443 Gd440 2.818 . S
C443 C444 1.510 . S
C443 O462 1.249 . S
C443 O463 1.252 . S
C444 C443 1.510 . S
C444 C445 1.404 . S
C444 C446 1.352 . S
C445 C444 1.404 . S
C445 C449 1.389 . S
C445 H472 0.930 . S
C446 C444 1.352 . S
C446 C448 1.374 . S
C446 H473 0.931 . S
C447 C448 1.359 . S
C447 C449 1.364 . S
C448 C446 1.374 . S
C448 C447 1.359 . S
C448 H474 0.931 . S
C449 C445 1.389 . S
C449 C447 1.364 . S
C449 H475 0.931 . S
C450 O464 1.256 . S
C450 O465 1.257 . S
C451 O466 1.240 . S
C451 O467 1.240 . S
C452 Gd441 2.818 . S
C452 C453 1.510 . S
C452 O468 1.249 . S
C452 O469 1.252 . S
C453 C452 1.510 . S
C453 C454 1.404 . S
C453 C455 1.352 . S
C454 C453 1.404 . S
C454 C458 1.389 . S
C454 H476 0.930 . S
C455 C453 1.352 . S
C455 C457 1.374 . S
C455 H477 0.931 . S
C456 C457 1.359 . S
C456 C458 1.364 . S
C457 C455 1.374 . S
C457 C456 1.359 . S
C457 H478 0.931 . S
C458 C454 1.389 . S
C458 C456 1.364 . S
C458 H479 0.931 . S
C459 O470 1.256 . S
C459 O471 1.257 . S
O460 Gd440 2.377 . S
O460 C442 1.240 . S
O461 Gd441 2.395 . S
O461 C442 1.240 . S
O462 Gd440 2.448 . S
O462 C443 1.249 . S
O463 Gd440 2.506 . S
O463 C443 1.252 . S
O464 Gd440 2.435 . S
O464 C450 1.256 . S
O465 Gd440 2.717 . S
O465 Gd441 2.327 . S
O465 C450 1.257 . S
O466 Gd441 2.377 . S
O466 C451 1.240 . S
O467 Gd440 2.395 . S
O467 C451 1.240 . S
O468 Gd441 2.448 . S
O468 C452 1.249 . S
O469 Gd441 2.506 . S
O469 C452 1.252 . S
O470 Gd441 2.435 . S
O470 C459 1.256 . S
O471 Gd440 2.327 . S
O471 Gd441 2.717 . S
O471 C459 1.257 . S
H472 C445 0.930 . S
H473 C446 0.931 . S
H474 C448 0.931 . S
H475 C449 0.931 . S
H476 C454 0.930 . S
H477 C455 0.931 . S
H478 C457 0.931 . S
H479 C458 0.931 . S
Gd480 C483 2.818 . S
Gd480 O500 2.377 . S
Gd480 O502 2.448 . S
Gd480 O503 2.506 . S
Gd480 O504 2.435 . S
Gd480 O505 2.717 . S
Gd480 O507 2.395 . S
Gd480 O511 2.327 . S
Gd481 C492 2.818 . S
Gd481 O501 2.395 . S
Gd481 O505 2.327 . S
Gd481 O506 2.377 . S
Gd481 O508 2.448 . S
Gd481 O509 2.506 . S
Gd481 O510 2.435 . S
Gd481 O511 2.717 . S
C482 O500 1.240 . S
C482 O501 1.240 . S
C483 Gd480 2.818 . S
C483 C484 1.510 . S
C483 O502 1.249 . S
C483 O503 1.252 . S
C484 C483 1.510 . S
C484 C485 1.404 . S
C484 C486 1.352 . S
C485 C484 1.404 . S
C485 C489 1.389 . S
C485 H512 0.930 . S
C486 C484 1.352 . S
C486 C488 1.374 . S
C486 H513 0.931 . S
C487 C488 1.359 . S
C487 C489 1.364 . S
C488 C486 1.374 . S
C488 C487 1.359 . S
C488 H514 0.931 . S
C489 C485 1.389 . S
C489 C487 1.364 . S
C489 H515 0.931 . S
C490 O504 1.256 . S
C490 O505 1.257 . S
C491 O506 1.240 . S
C491 O507 1.240 . S
C492 Gd481 2.818 . S
C492 C493 1.510 . S
C492 O508 1.249 . S
C492 O509 1.252 . S
C493 C492 1.510 . S
C493 C494 1.404 . S
C493 C495 1.352 . S
C494 C493 1.404 . S
C494 C498 1.389 . S
C494 H516 0.930 . S
C495 C493 1.352 . S
C495 C497 1.374 . S
C495 H517 0.931 . S
C496 C497 1.359 1_655 S
C496 C498 1.364 1_655 S
C497 C495 1.374 . S
C497 C496 1.359 1_455 S
C497 H518 0.931 1_455 S
C498 C494 1.389 . S
C498 C496 1.364 1_455 S
C498 H519 0.931 1_455 S
C499 O510 1.256 . S
C499 O511 1.257 . S
O500 Gd480 2.377 . S
O500 C482 1.240 . S
O501 Gd481 2.395 . S
O501 C482 1.240 . S
O502 Gd480 2.448 . S
O502 C483 1.249 . S
O503 Gd480 2.506 . S
O503 C483 1.252 . S
O504 Gd480 2.435 . S
O504 C490 1.256 . S
O505 Gd480 2.717 . S
O505 Gd481 2.327 . S
O505 C490 1.257 . S
O506 Gd481 2.377 . S
O506 C491 1.240 . S
O507 Gd480 2.395 . S
O507 C491 1.240 . S
O508 Gd481 2.448 . S
O508 C492 1.249 . S
O509 Gd481 2.506 . S
O509 C492 1.252 . S
O510 Gd481 2.435 . S
O510 C499 1.256 . S
O511 Gd480 2.327 . S
O511 Gd481 2.717 . S
O511 C499 1.257 . S
H512 C485 0.930 . S
H513 C486 0.931 . S
H514 C488 0.931 . S
H515 C489 0.931 . S
H516 C494 0.930 . S
H517 C495 0.931 . S
H518 C497 0.931 1_655 S
H519 C498 0.931 1_655 S
Gd520 C523 2.818 . S
Gd520 O540 2.377 . S
Gd520 O542 2.448 . S
Gd520 O543 2.506 . S
Gd520 O544 2.435 . S
Gd520 O545 2.717 . S
Gd520 O547 2.395 . S
Gd520 O551 2.327 . S
Gd521 C532 2.818 . S
Gd521 O541 2.395 . S
Gd521 O545 2.327 . S
Gd521 O546 2.377 . S
Gd521 O548 2.448 . S
Gd521 O549 2.506 . S
Gd521 O550 2.435 . S
Gd521 O551 2.717 . S
C522 O540 1.240 . S
C522 O541 1.240 . S
C523 Gd520 2.818 . S
C523 C524 1.510 . S
C523 O542 1.249 . S
C523 O543 1.252 . S
C524 C523 1.510 . S
C524 C525 1.404 . S
C524 C526 1.352 . S
C525 C524 1.404 . S
C525 C529 1.389 . S
C525 H552 0.930 . S
C526 C524 1.352 . S
C526 C528 1.374 . S
C526 H553 0.931 . S
C527 C528 1.359 . S
C527 C529 1.364 . S
C528 C526 1.374 . S
C528 C527 1.359 . S
C528 H554 0.931 . S
C529 C525 1.389 . S
C529 C527 1.364 . S
C529 H555 0.931 . S
C530 O544 1.256 . S
C530 O545 1.257 . S
C531 O546 1.240 . S
C531 O547 1.240 . S
C532 Gd521 2.818 . S
C532 C533 1.510 . S
C532 O548 1.249 . S
C532 O549 1.252 . S
C533 C532 1.510 . S
C533 C534 1.404 . S
C533 C535 1.352 . S
C534 C533 1.404 . S
C534 C538 1.389 . S
C534 H556 0.930 . S
C535 C533 1.352 . S
C535 C537 1.374 . S
C535 H557 0.931 . S
C536 C537 1.359 . S
C536 C538 1.364 . S
C537 C535 1.374 . S
C537 C536 1.359 . S
C537 H558 0.931 . S
C538 C534 1.389 . S
C538 C536 1.364 . S
C538 H559 0.931 . S
C539 O550 1.256 . S
C539 O551 1.257 . S
O540 Gd520 2.377 . S
O540 C522 1.240 . S
O541 Gd521 2.395 . S
O541 C522 1.240 . S
O542 Gd520 2.448 . S
O542 C523 1.249 . S
O543 Gd520 2.506 . S
O543 C523 1.252 . S
O544 Gd520 2.435 . S
O544 C530 1.256 . S
O545 Gd520 2.717 . S
O545 Gd521 2.327 . S
O545 C530 1.257 . S
O546 Gd521 2.377 . S
O546 C531 1.240 . S
O547 Gd520 2.395 . S
O547 C531 1.240 . S
O548 Gd521 2.448 . S
O548 C532 1.249 . S
O549 Gd521 2.506 . S
O549 C532 1.252 . S
O550 Gd521 2.435 . S
O550 C539 1.256 . S
O551 Gd520 2.327 . S
O551 Gd521 2.717 . S
O551 C539 1.257 . S
H552 C525 0.930 . S
H553 C526 0.931 . S
H554 C528 0.931 . S
H555 C529 0.931 . S
H556 C534 0.930 . S
H557 C535 0.931 . S
H558 C537 0.931 . S
H559 C538 0.931 . S
Gd560 C563 2.818 . S
Gd560 O580 2.377 . S
Gd560 O582 2.448 . S
Gd560 O583 2.506 . S
Gd560 O584 2.435 . S
Gd560 O585 2.717 1_556 S
Gd560 O587 2.395 . S
Gd560 O591 2.327 . S
Gd561 C572 2.818 . S
Gd561 O581 2.395 . S
Gd561 O585 2.327 . S
Gd561 O586 2.377 1_554 S
Gd561 O588 2.448 . S
Gd561 O589 2.506 . S
Gd561 O590 2.435 1_554 S
Gd561 O591 2.717 1_554 S
C562 O580 1.240 . S
C562 O581 1.240 1_556 S
C563 Gd560 2.818 . S
C563 C564 1.510 . S
C563 O582 1.249 . S
C563 O583 1.252 . S
C564 C563 1.510 . S
C564 C565 1.404 . S
C564 C566 1.352 . S
C565 C564 1.404 . S
C565 C569 1.389 . S
C565 H592 0.930 . S
C566 C564 1.352 . S
C566 C568 1.374 . S
C566 H593 0.931 . S
C567 C568 1.359 . S
C567 C569 1.364 . S
C568 C566 1.374 . S
C568 C567 1.359 . S
C568 H594 0.931 . S
C569 C565 1.389 . S
C569 C567 1.364 . S
C569 H595 0.931 . S
C570 O584 1.256 1_554 S
C570 O585 1.257 . S
C571 O586 1.240 . S
C571 O587 1.240 . S
C572 Gd561 2.818 . S
C572 C573 1.510 . S
C572 O588 1.249 . S
C572 O589 1.252 . S
C573 C572 1.510 . S
C573 C574 1.404 . S
C573 C575 1.352 . S
C574 C573 1.404 . S
C574 C578 1.389 . S
C574 H596 0.930 . S
C575 C573 1.352 . S
C575 C577 1.374 . S
C575 H597 0.931 . S
C576 C577 1.359 . S
C576 C578 1.364 . S
C577 C575 1.374 . S
C577 C576 1.359 . S
C577 H598 0.931 . S
C578 C574 1.389 . S
C578 C576 1.364 . S
C578 H599 0.931 . S
C579 O590 1.256 . S
C579 O591 1.257 . S
O580 Gd560 2.377 . S
O580 C562 1.240 . S
O581 Gd561 2.395 . S
O581 C562 1.240 1_554 S
O582 Gd560 2.448 . S
O582 C563 1.249 . S
O583 Gd560 2.506 . S
O583 C563 1.252 . S
O584 Gd560 2.435 . S
O584 C570 1.256 1_556 S
O585 Gd560 2.717 1_554 S
O585 Gd561 2.327 . S
O585 C570 1.257 . S
O586 Gd561 2.377 1_556 S
O586 C571 1.240 . S
O587 Gd560 2.395 . S
O587 C571 1.240 . S
O588 Gd561 2.448 . S
O588 C572 1.249 . S
O589 Gd561 2.506 . S
O589 C572 1.252 . S
O590 Gd561 2.435 1_556 S
O590 C579 1.256 . S
O591 Gd560 2.327 . S
O591 Gd561 2.717 1_556 S
O591 C579 1.257 . S
H592 C565 0.930 . S
H593 C566 0.931 . S
H594 C568 0.931 . S
H595 C569 0.931 . S
H596 C574 0.930 . S
H597 C575 0.931 . S
H598 C577 0.931 . S
H599 C578 0.931 . S
Gd600 C603 2.818 . S
Gd600 O620 2.377 . S
Gd600 O622 2.448 . S
Gd600 O623 2.506 . S
Gd600 O624 2.435 . S
Gd600 O625 2.717 . S
Gd600 O627 2.395 . S
Gd600 O631 2.327 . S
Gd601 C612 2.818 . S
Gd601 O621 2.395 . S
Gd601 O625 2.327 . S
Gd601 O626 2.377 . S
Gd601 O628 2.448 . S
Gd601 O629 2.506 . S
Gd601 O630 2.435 . S
Gd601 O631 2.717 . S
C602 O620 1.240 . S
C602 O621 1.240 . S
C603 Gd600 2.818 . S
C603 C604 1.510 . S
C603 O622 1.249 . S
C603 O623 1.252 . S
C604 C603 1.510 . S
C604 C605 1.404 . S
C604 C606 1.352 . S
C605 C604 1.404 . S
C605 C609 1.389 . S
C605 H632 0.930 . S
C606 C604 1.352 . S
C606 C608 1.374 . S
C606 H633 0.931 . S
C607 C608 1.359 . S
C607 C609 1.364 . S
C608 C606 1.374 . S
C608 C607 1.359 . S
C608 H634 0.931 . S
C609 C605 1.389 . S
C609 C607 1.364 . S
C609 H635 0.931 . S
C610 O624 1.256 . S
C610 O625 1.257 . S
C611 O626 1.240 . S
C611 O627 1.240 . S
C612 Gd601 2.818 . S
C612 C613 1.510 . S
C612 O628 1.249 . S
C612 O629 1.252 . S
C613 C612 1.510 . S
C613 C614 1.404 . S
C613 C615 1.352 . S
C614 C613 1.404 . S
C614 C618 1.389 . S
C614 H636 0.930 . S
C615 C613 1.352 . S
C615 C617 1.374 . S
C615 H637 0.931 . S
C616 C617 1.359 . S
C616 C618 1.364 . S
C617 C615 1.374 . S
C617 C616 1.359 . S
C617 H638 0.931 . S
C618 C614 1.389 . S
C618 C616 1.364 . S
C618 H639 0.931 . S
C619 O630 1.256 . S
C619 O631 1.257 . S
O620 Gd600 2.377 . S
O620 C602 1.240 . S
O621 Gd601 2.395 . S
O621 C602 1.240 . S
O622 Gd600 2.448 . S
O622 C603 1.249 . S
O623 Gd600 2.506 . S
O623 C603 1.252 . S
O624 Gd600 2.435 . S
O624 C610 1.256 . S
O625 Gd600 2.717 . S
O625 Gd601 2.327 . S
O625 C610 1.257 . S
O626 Gd601 2.377 . S
O626 C611 1.240 . S
O627 Gd600 2.395 . S
O627 C611 1.240 . S
O628 Gd601 2.448 . S
O628 C612 1.249 . S
O629 Gd601 2.506 . S
O629 C612 1.252 . S
O630 Gd601 2.435 . S
O630 C619 1.256 . S
O631 Gd600 2.327 . S
O631 Gd601 2.717 . S
O631 C619 1.257 . S
H632 C605 0.930 . S
H633 C606 0.931 . S
H634 C608 0.931 . S
H635 C609 0.931 . S
H636 C614 0.930 . S
H637 C615 0.931 . S
H638 C617 0.931 . S
H639 C618 0.931 . S
H640 C646 0.930 . S
H641 C649 0.930 . S
H642 C650 0.930 . S
H643 C651 0.930 . S
H644 C654 0.930 . S
H645 C655 0.930 . S
C646 H640 0.930 . S
C646 C647 1.355 . S
C646 C648 1.415 . S
C647 C646 1.355 . S
C647 C649 1.419 . S
C648 C646 1.415 . S
C648 C653 1.425 . S
C648 C655 1.409 . S
C649 H641 0.930 . S
C649 C647 1.419 . S
C649 C650 1.362 . S
C650 H642 0.930 . S
C650 C649 1.362 . S
C650 C653 1.409 . S
C651 H643 0.930 . S
C651 C652 1.355 . S
C651 C653 1.415 . S
C652 C651 1.355 . S
C652 C654 1.419 . S
C653 C648 1.425 . S
C653 C650 1.409 . S
C653 C651 1.415 . S
C654 H644 0.930 . S
C654 C652 1.419 . S
C654 C655 1.362 . S
C655 H645 0.930 . S
C655 C648 1.409 . S
C655 C654 1.362 . S
H656 C662 0.930 . S
H657 C665 0.930 . S
H658 C666 0.930 . S
H659 C667 0.930 . S
H660 C670 0.930 . S
H661 C671 0.930 . S
C662 H656 0.930 . S
C662 C663 1.355 . S
C662 C664 1.415 . S
C663 C662 1.355 . S
C663 C665 1.419 . S
C664 C662 1.415 . S
C664 C669 1.425 . S
C664 C671 1.409 . S
C665 H657 0.930 . S
C665 C663 1.419 . S
C665 C666 1.362 . S
C666 H658 0.930 . S
C666 C665 1.362 . S
C666 C669 1.409 . S
C667 H659 0.930 . S
C667 C668 1.355 . S
C667 C669 1.415 . S
C668 C667 1.355 . S
C668 C670 1.419 . S
C669 C664 1.425 . S
C669 C666 1.409 . S
C669 C667 1.415 . S
C670 H660 0.930 . S
C670 C668 1.419 . S
C670 C671 1.362 . S
C671 H661 0.930 . S
C671 C664 1.409 . S
C671 C670 1.362 . S
H672 C678 0.930 . S
H673 C681 0.930 1_655 S
H674 C682 0.930 . S
H675 C683 0.930 . S
H676 C686 0.930 1_455 S
H677 C687 0.930 . S
C678 H672 0.930 . S
C678 C679 1.355 . S
C678 C680 1.415 . S
C679 C678 1.355 . S
C679 C681 1.419 . S
C680 C678 1.415 . S
C680 C685 1.425 1_455 S
C680 C687 1.409 . S
C681 H673 0.930 1_455 S
C681 C679 1.419 . S
C681 C682 1.362 1_455 S
C682 H674 0.930 . S
C682 C681 1.362 1_655 S
C682 C685 1.409 . S
C683 H675 0.930 . S
C683 C684 1.355 . S
C683 C685 1.415 . S
C684 C683 1.355 . S
C684 C686 1.419 . S
C685 C680 1.425 1_655 S
C685 C682 1.409 . S
C685 C683 1.415 . S
C686 H676 0.930 1_655 S
C686 C684 1.419 . S
C686 C687 1.362 1_655 S
C687 H677 0.930 . S
C687 C680 1.409 . S
C687 C686 1.362 1_455 S
H688 C694 0.930 . S
H689 C697 0.930 . S
H690 C698 0.930 . S
H691 C699 0.930 . S
H692 C702 0.930 . S
H693 C703 0.930 . S
C694 H688 0.930 . S
C694 C695 1.355 . S
C694 C696 1.415 . S
C695 C694 1.355 . S
C695 C697 1.419 . S
C696 C694 1.415 . S
C696 C701 1.425 1_655 S
C696 C703 1.409 . S
C697 H689 0.930 . S
C697 C695 1.419 . S
C697 C698 1.362 1_655 S
C698 H690 0.930 . S
C698 C697 1.362 1_455 S
C698 C701 1.409 . S
C699 H691 0.930 . S
C699 C700 1.355 . S
C699 C701 1.415 . S
C700 C699 1.355 . S
C700 C702 1.419 . S
C701 C696 1.425 1_455 S
C701 C698 1.409 . S
C701 C699 1.415 . S
C702 H692 0.930 . S
C702 C700 1.419 . S
C702 C703 1.362 1_455 S
C703 H693 0.930 . S
C703 C696 1.409 . S
C703 C702 1.362 1_655 S
H704 C710 0.930 . S
H705 C713 0.930 . S
H706 C714 0.930 . S
H707 C715 0.930 . S
H708 C718 0.930 . S
H709 C719 0.930 1_554 S
C710 H704 0.930 . S
C710 C711 1.355 . S
C710 C712 1.415 . S
C711 C710 1.355 . S
C711 C713 1.419 . S
C712 C710 1.415 . S
C712 C717 1.425 . S
C712 C719 1.409 . S
C713 H705 0.930 . S
C713 C711 1.419 . S
C713 C714 1.362 . S
C714 H706 0.930 . S
C714 C713 1.362 . S
C714 C717 1.409 . S
C715 H707 0.930 . S
C715 C716 1.355 . S
C715 C717 1.415 . S
C716 C715 1.355 . S
C716 C718 1.419 . S
C717 C712 1.425 . S
C717 C714 1.409 . S
C717 C715 1.415 . S
C718 H708 0.930 . S
C718 C716 1.419 . S
C718 C719 1.362 . S
C719 H709 0.930 1_556 S
C719 C712 1.409 . S
C719 C718 1.362 . S
H720 C726 0.930 . S
H721 C729 0.930 . S
H722 C730 0.930 . S
H723 C731 0.930 . S
H724 C734 0.930 . S
H725 C735 0.930 . S
C726 H720 0.930 . S
C726 C727 1.355 . S
C726 C728 1.415 . S
C727 C726 1.355 . S
C727 C729 1.419 . S
C728 C726 1.415 . S
C728 C733 1.425 . S
C728 C735 1.409 . S
C729 H721 0.930 . S
C729 C727 1.419 . S
C729 C730 1.362 . S
C730 H722 0.930 . S
C730 C729 1.362 . S
C730 C733 1.409 . S
C731 H723 0.930 . S
C731 C732 1.355 . S
C731 C733 1.415 . S
C732 C731 1.355 . S
C732 C734 1.419 . S
C733 C728 1.425 . S
C733 C730 1.409 . S
C733 C731 1.415 . S
C734 H724 0.930 . S
C734 C732 1.419 . S
C734 C735 1.362 . S
C735 H725 0.930 . S
C735 C728 1.409 . S
C735 C734 1.362 . S
H736 C742 0.930 . S
H737 C745 0.930 . S
H738 C746 0.930 . S
H739 C747 0.930 . S
H740 C750 0.930 . S
H741 C751 0.930 . S
C742 H736 0.930 . S
C742 C743 1.355 . S
C742 C744 1.415 . S
C743 C742 1.355 . S
C743 C745 1.419 . S
C744 C742 1.415 . S
C744 C749 1.425 1_655 S
C744 C751 1.409 . S
C745 H737 0.930 . S
C745 C743 1.419 . S
C745 C746 1.362 1_655 S
C746 H738 0.930 . S
C746 C745 1.362 1_455 S
C746 C749 1.409 . S
C747 H739 0.930 . S
C747 C748 1.355 . S
C747 C749 1.415 . S
C748 C747 1.355 . S
C748 C750 1.419 . S
C749 C744 1.425 1_455 S
C749 C746 1.409 . S
C749 C747 1.415 . S
C750 H740 0.930 . S
C750 C748 1.419 . S
C750 C751 1.362 1_455 S
C751 H741 0.930 . S
C751 C744 1.409 . S
C751 C750 1.362 1_655 S
H752 C758 0.930 . S
H753 C761 0.930 . S
H754 C762 0.930 . S
H755 C763 0.930 . S
H756 C766 0.930 . S
H757 C767 0.930 . S
C758 H752 0.930 . S
C758 C759 1.355 . S
C758 C760 1.415 1_455 S
C759 C758 1.355 . S
C759 C761 1.419 . S
C760 C758 1.415 1_655 S
C760 C765 1.425 1_655 S
C760 C767 1.409 . S
C761 H753 0.930 . S
C761 C759 1.419 . S
C761 C762 1.362 . S
C762 H754 0.930 . S
C762 C761 1.362 . S
C762 C765 1.409 . S
C763 H755 0.930 . S
C763 C764 1.355 . S
C763 C765 1.415 1_655 S
C764 C763 1.355 . S
C764 C766 1.419 . S
C765 C760 1.425 1_455 S
C765 C762 1.409 . S
C765 C763 1.415 1_455 S
C766 H756 0.930 . S
C766 C764 1.419 . S
C766 C767 1.362 . S
C767 H757 0.930 . S
C767 C760 1.409 . S
C767 C766 1.362 . S
H768 C774 0.930 . S
H769 C777 0.930 . S
H770 C778 0.930 . S
H771 C779 0.930 . S
H772 C782 0.930 . S
H773 C783 0.930 . S
C774 H768 0.930 . S
C774 C775 1.355 . S
C774 C776 1.415 . S
C775 C774 1.355 . S
C775 C777 1.419 . S
C776 C774 1.415 . S
C776 C781 1.425 . S
C776 C783 1.409 . S
C777 H769 0.930 . S
C777 C775 1.419 . S
C777 C778 1.362 . S
C778 H770 0.930 . S
C778 C777 1.362 . S
C778 C781 1.409 . S
C779 H771 0.930 . S
C779 C780 1.355 . S
C779 C781 1.415 . S
C780 C779 1.355 . S
C780 C782 1.419 . S
C781 C776 1.425 . S
C781 C778 1.409 . S
C781 C779 1.415 . S
C782 H772 0.930 . S
C782 C780 1.419 . S
C782 C783 1.362 . S
C783 H773 0.930 . S
C783 C776 1.409 . S
C783 C782 1.362 . S
H784 C790 0.930 . S
H785 C793 0.930 . S
H786 C794 0.930 . S
H787 C795 0.930 . S
H788 C798 0.930 . S
H789 C799 0.930 . S
C790 H784 0.930 . S
C790 C791 1.355 . S
C790 C792 1.415 . S
C791 C790 1.355 . S
C791 C793 1.419 . S
C792 C790 1.415 . S
C792 C797 1.425 . S
C792 C799 1.409 . S
C793 H785 0.930 . S
C793 C791 1.419 . S
C793 C794 1.362 . S
C794 H786 0.930 . S
C794 C793 1.362 . S
C794 C797 1.409 . S
C795 H787 0.930 . S
C795 C796 1.355 . S
C795 C797 1.415 . S
C796 C795 1.355 . S
C796 C798 1.419 . S
C797 C792 1.425 . S
C797 C794 1.409 . S
C797 C795 1.415 . S
C798 H788 0.930 . S
C798 C796 1.419 . S
C798 C799 1.362 . S
C799 H789 0.930 . S
C799 C792 1.409 . S
C799 C798 1.362 . S
H800 C806 0.930 . S
H801 C809 0.930 . S
H802 C810 0.930 . S
H803 C811 0.930 . S
H804 C814 0.930 . S
H805 C815 0.930 . S
C806 H800 0.930 . S
C806 C807 1.355 . S
C806 C808 1.415 . S
C807 C806 1.355 . S
C807 C809 1.419 . S
C808 C806 1.415 . S
C808 C813 1.425 . S
C808 C815 1.409 . S
C809 H801 0.930 . S
C809 C807 1.419 . S
C809 C810 1.362 . S
C810 H802 0.930 . S
C810 C809 1.362 . S
C810 C813 1.409 . S
C811 H803 0.930 . S
C811 C812 1.355 . S
C811 C813 1.415 . S
C812 C811 1.355 . S
C812 C814 1.419 . S
C813 C808 1.425 . S
C813 C810 1.409 . S
C813 C811 1.415 . S
C814 H804 0.930 . S
C814 C812 1.419 . S
C814 C815 1.362 . S
C815 H805 0.930 . S
C815 C808 1.409 . S
C815 C814 1.362 . S
H816 C822 0.930 . S
H817 C825 0.930 . S
H818 C826 0.930 . S
H819 C827 0.930 . S
H820 C830 0.930 . S
H821 C831 0.930 . S
C822 H816 0.930 . S
C822 C823 1.355 . S
C822 C824 1.415 . S
C823 C822 1.355 . S
C823 C825 1.419 . S
C824 C822 1.415 . S
C824 C829 1.425 . S
C824 C831 1.409 . S
C825 H817 0.930 . S
C825 C823 1.419 . S
C825 C826 1.362 . S
C826 H818 0.930 . S
C826 C825 1.362 . S
C826 C829 1.409 . S
C827 H819 0.930 . S
C827 C828 1.355 . S
C827 C829 1.415 . S
C828 C827 1.355 . S
C828 C830 1.419 . S
C829 C824 1.425 . S
C829 C826 1.409 . S
C829 C827 1.415 . S
C830 H820 0.930 . S
C830 C828 1.419 . S
C830 C831 1.362 . S
C831 H821 0.930 . S
C831 C824 1.409 . S
C831 C830 1.362 . S
H832 C838 0.930 . S
H833 C841 0.930 1_556 S
H834 C842 0.930 . S
H835 C843 0.930 . S
H836 C846 0.930 . S
H837 C847 0.930 . S
C838 H832 0.930 . S
C838 C839 1.355 . S
C838 C840 1.415 . S
C839 C838 1.355 . S
C839 C841 1.419 . S
C840 C838 1.415 . S
C840 C845 1.425 . S
C840 C847 1.409 . S
C841 H833 0.930 1_554 S
C841 C839 1.419 . S
C841 C842 1.362 . S
C842 H834 0.930 . S
C842 C841 1.362 . S
C842 C845 1.409 . S
C843 H835 0.930 . S
C843 C844 1.355 . S
C843 C845 1.415 . S
C844 C843 1.355 . S
C844 C846 1.419 . S
C845 C840 1.425 . S
C845 C842 1.409 . S
C845 C843 1.415 . S
C846 H836 0.930 . S
C846 C844 1.419 . S
C846 C847 1.362 . S
C847 H837 0.930 . S
C847 C840 1.409 . S
C847 C846 1.362 . S
H848 C854 0.930 . S
H849 C857 0.930 . S
H850 C858 0.930 . S
H851 C859 0.930 . S
H852 C862 0.930 . S
H853 C863 0.930 . S
C854 H848 0.930 . S
C854 C855 1.355 . S
C854 C856 1.415 . S
C855 C854 1.355 . S
C855 C857 1.419 . S
C856 C854 1.415 . S
C856 C861 1.425 . S
C856 C863 1.409 . S
C857 H849 0.930 . S
C857 C855 1.419 . S
C857 C858 1.362 . S
C858 H850 0.930 . S
C858 C857 1.362 . S
C858 C861 1.409 . S
C859 H851 0.930 . S
C859 C860 1.355 . S
C859 C861 1.415 . S
C860 C859 1.355 . S
C860 C862 1.419 . S
C861 C856 1.425 . S
C861 C858 1.409 . S
C861 C859 1.415 . S
C862 H852 0.930 . S
C862 C860 1.419 . S
C862 C863 1.362 . S
C863 H853 0.930 . S
C863 C856 1.409 . S
C863 C862 1.362 . S
H864 C870 0.930 . S
H865 C873 0.930 . S
H866 C874 0.930 . S
H867 C875 0.930 . S
H868 C878 0.930 . S
H869 C879 0.930 . S
C870 H864 0.930 . S
C870 C871 1.355 . S
C870 C872 1.415 . S
C871 C870 1.355 . S
C871 C873 1.419 . S
C872 C870 1.415 . S
C872 C877 1.425 . S
C872 C879 1.409 . S
C873 H865 0.930 . S
C873 C871 1.419 . S
C873 C874 1.362 . S
C874 H866 0.930 . S
C874 C873 1.362 . S
C874 C877 1.409 . S
C875 H867 0.930 . S
C875 C876 1.355 . S
C875 C877 1.415 . S
C876 C875 1.355 . S
C876 C878 1.419 . S
C877 C872 1.425 . S
C877 C874 1.409 . S
C877 C875 1.415 . S
C878 H868 0.930 . S
C878 C876 1.419 . S
C878 C879 1.362 . S
C879 H869 0.930 . S
C879 C872 1.409 . S
C879 C878 1.362 . S
H880 C886 0.930 . S
H881 C889 0.930 . S
H882 C890 0.930 . S
H883 C891 0.930 . S
H884 C894 0.930 . S
H885 C895 0.930 . S
C886 H880 0.930 . S
C886 C887 1.355 . S
C886 C888 1.415 . S
C887 C886 1.355 . S
C887 C889 1.419 . S
C888 C886 1.415 . S
C888 C893 1.425 . S
C888 C895 1.409 . S
C889 H881 0.930 . S
C889 C887 1.419 . S
C889 C890 1.362 . S
C890 H882 0.930 . S
C890 C889 1.362 . S
C890 C893 1.409 . S
C891 H883 0.930 . S
C891 C892 1.355 . S
C891 C893 1.415 . S
C892 C891 1.355 . S
C892 C894 1.419 . S
C893 C888 1.425 . S
C893 C890 1.409 . S
C893 C891 1.415 . S
C894 H884 0.930 . S
C894 C892 1.419 . S
C894 C895 1.362 . S
C895 H885 0.930 . S
C895 C888 1.409 . S
C895 C894 1.362 . S
H896 C902 0.930 . S
H897 C905 0.930 . S
H898 C906 0.930 . S
H899 C907 0.930 . S
H900 C910 0.930 . S
H901 C911 0.930 . S
C902 H896 0.930 . S
C902 C903 1.355 . S
C902 C904 1.415 . S
C903 C902 1.355 . S
C903 C905 1.419 . S
C904 C902 1.415 . S
C904 C909 1.425 . S
C904 C911 1.409 . S
C905 H897 0.930 . S
C905 C903 1.419 . S
C905 C906 1.362 . S
C906 H898 0.930 . S
C906 C905 1.362 . S
C906 C909 1.409 . S
C907 H899 0.930 . S
C907 C908 1.355 . S
C907 C909 1.415 . S
C908 C907 1.355 . S
C908 C910 1.419 . S
C909 C904 1.425 . S
C909 C906 1.409 . S
C909 C907 1.415 . S
C910 H900 0.930 . S
C910 C908 1.419 . S
C910 C911 1.362 . S
C911 H901 0.930 . S
C911 C904 1.409 . S
C911 C910 1.362 . S
H912 C918 0.930 . S
H913 C921 0.930 . S
H914 C922 0.930 . S
H915 C923 0.930 . S
H916 C926 0.930 . S
H917 C927 0.930 . S
C918 H912 0.930 . S
C918 C919 1.355 1_565 S
C918 C920 1.415 . S
C919 C918 1.355 1_545 S
C919 C921 1.419 . S
C920 C918 1.415 . S
C920 C925 1.425 . S
C920 C927 1.409 . S
C921 H913 0.930 . S
C921 C919 1.419 . S
C921 C922 1.362 . S
C922 H914 0.930 . S
C922 C921 1.362 . S
C922 C925 1.409 1_545 S
C923 H915 0.930 . S
C923 C924 1.355 . S
C923 C925 1.415 . S
C924 C923 1.355 . S
C924 C926 1.419 . S
C925 C920 1.425 . S
C925 C922 1.409 1_565 S
C925 C923 1.415 . S
C926 H916 0.930 . S
C926 C924 1.419 . S
C926 C927 1.362 . S
C927 H917 0.930 . S
C927 C920 1.409 . S
C927 C926 1.362 . S
H928 C934 0.930 . S
H929 C937 0.930 . S
H930 C938 0.930 . S
H931 C939 0.930 . S
H932 C942 0.930 . S
H933 C943 0.930 . S
C934 H928 0.930 . S
C934 C935 1.355 . S
C934 C936 1.415 . S
C935 C934 1.355 . S
C935 C937 1.419 . S
C936 C934 1.415 . S
C936 C941 1.425 . S
C936 C943 1.409 . S
C937 H929 0.930 . S
C937 C935 1.419 . S
C937 C938 1.362 . S
C938 H930 0.930 . S
C938 C937 1.362 . S
C938 C941 1.409 . S
C939 H931 0.930 . S
C939 C940 1.355 . S
C939 C941 1.415 . S
C940 C939 1.355 . S
C940 C942 1.419 . S
C941 C936 1.425 . S
C941 C938 1.409 . S
C941 C939 1.415 . S
C942 H932 0.930 . S
C942 C940 1.419 . S
C942 C943 1.362 . S
C943 H933 0.930 . S
C943 C936 1.409 . S
C943 C942 1.362 . S
H944 C950 0.930 . S
H945 C953 0.930 . S
H946 C954 0.930 . S
H947 C955 0.930 . S
H948 C958 0.930 . S
H949 C959 0.930 1_565 S
C950 H944 0.930 . S
C950 C951 1.355 . S
C950 C952 1.415 1_565 S
C951 C950 1.355 . S
C951 C953 1.419 1_565 S
C952 C950 1.415 1_545 S
C952 C957 1.425 . S
C952 C959 1.409 . S
C953 H945 0.930 . S
C953 C951 1.419 1_545 S
C953 C954 1.362 . S
C954 H946 0.930 . S
C954 C953 1.362 . S
C954 C957 1.409 . S
C955 H947 0.930 . S
C955 C956 1.355 . S
C955 C957 1.415 . S
C956 C955 1.355 . S
C956 C958 1.419 . S
C957 C952 1.425 . S
C957 C954 1.409 . S
C957 C955 1.415 . S
C958 H948 0.930 . S
C958 C956 1.419 . S
C958 C959 1.362 . S
C959 H949 0.930 1_545 S
C959 C952 1.409 . S
C959 C958 1.362 . S
H960 C966 0.930 . S
H961 C969 0.930 . S
H962 C970 0.930 . S
H963 C971 0.930 . S
H964 C974 0.930 . S
H965 C975 0.930 . S
C966 H960 0.930 . S
C966 C967 1.355 . S
C966 C968 1.415 . S
C967 C966 1.355 . S
C967 C969 1.419 . S
C968 C966 1.415 . S
C968 C973 1.425 . S
C968 C975 1.409 . S
C969 H961 0.930 . S
C969 C967 1.419 . S
C969 C970 1.362 . S
C970 H962 0.930 . S
C970 C969 1.362 . S
C970 C973 1.409 . S
C971 H963 0.930 . S
C971 C972 1.355 . S
C971 C973 1.415 . S
C972 C971 1.355 . S
C972 C974 1.419 . S
C973 C968 1.425 . S
C973 C970 1.409 . S
C973 C971 1.415 . S
C974 H964 0.930 . S
C974 C972 1.419 . S
C974 C975 1.362 . S
C975 H965 0.930 . S
C975 C968 1.409 . S
C975 C974 1.362 . S
H976 C982 0.930 . S
H977 C985 0.930 . S
H978 C986 0.930 1_565 S
H979 C987 0.930 . S
H980 C990 0.930 . S
H981 C991 0.930 . S
C982 H976 0.930 . S
C982 C983 1.355 . S
C982 C984 1.415 . S
C983 C982 1.355 . S
C983 C985 1.419 . S
C984 C982 1.415 . S
C984 C989 1.425 . S
C984 C991 1.409 . S
C985 H977 0.930 . S
C985 C983 1.419 . S
C985 C986 1.362 . S
C986 H978 0.930 1_545 S
C986 C985 1.362 . S
C986 C989 1.409 . S
C987 H979 0.930 . S
C987 C988 1.355 . S
C987 C989 1.415 1_565 S
C988 C987 1.355 . S
C988 C990 1.419 1_565 S
C989 C984 1.425 . S
C989 C986 1.409 . S
C989 C987 1.415 1_545 S
C990 H980 0.930 . S
C990 C988 1.419 1_545 S
C990 C991 1.362 . S
C991 H981 0.930 . S
C991 C984 1.409 . S
C991 C990 1.362 . S
H992 C998 0.930 . S
H993 C1001 0.930 . S
H994 C1002 0.930 . S
H995 C1003 0.930 . S
H996 C1006 0.930 1_556 S
H997 C1007 0.930 . S
C998 H992 0.930 . S
C998 C999 1.355 . S
C998 C1000 1.415 . S
C999 C998 1.355 . S
C999 C1001 1.419 . S
C1000 C998 1.415 . S
C1000 C1005 1.425 . S
C1000 C1007 1.409 . S
C1001 H993 0.930 . S
C1001 C999 1.419 . S
C1001 C1002 1.362 . S
C1002 H994 0.930 . S
C1002 C1001 1.362 . S
C1002 C1005 1.409 . S
C1003 H995 0.930 . S
C1003 C1004 1.355 . S
C1003 C1005 1.415 . S
C1004 C1003 1.355 . S
C1004 C1006 1.419 . S
C1005 C1000 1.425 . S
C1005 C1002 1.409 . S
C1005 C1003 1.415 . S
C1006 H996 0.930 1_554 S
C1006 C1004 1.419 . S
C1006 C1007 1.362 . S
C1007 H997 0.930 . S
C1007 C1000 1.409 . S
C1007 C1006 1.362 . S
H1008 C1014 0.930 . S
H1009 C1017 0.930 . S
H1010 C1018 0.930 . S
H1011 C1019 0.930 . S
H1012 C1022 0.930 . S
H1013 C1023 0.930 . S
C1014 H1008 0.930 . S
C1014 C1015 1.355 . S
C1014 C1016 1.415 1_545 S
C1015 C1014 1.355 . S
C1015 C1017 1.419 . S
C1016 C1014 1.415 1_565 S
C1016 C1021 1.425 . S
C1016 C1023 1.409 . S
C1017 H1009 0.930 . S
C1017 C1015 1.419 . S
C1017 C1018 1.362 1_545 S
C1018 H1010 0.930 . S
C1018 C1017 1.362 1_565 S
C1018 C1021 1.409 . S
C1019 H1011 0.930 . S
C1019 C1020 1.355 . S
C1019 C1021 1.415 . S
C1020 C1019 1.355 . S
C1020 C1022 1.419 . S
C1021 C1016 1.425 . S
C1021 C1018 1.409 . S
C1021 C1019 1.415 . S
C1022 H1012 0.930 . S
C1022 C1020 1.419 . S
C1022 C1023 1.362 . S
C1023 H1013 0.930 . S
C1023 C1016 1.409 . S
C1023 C1022 1.362 . S
H1024 C1030 0.930 . S
H1025 C1033 0.930 . S
H1026 C1034 0.930 . S
H1027 C1035 0.930 . S
H1028 C1038 0.930 . S
H1029 C1039 0.930 . S
C1030 H1024 0.930 . S
C1030 C1031 1.355 . S
C1030 C1032 1.415 . S
C1031 C1030 1.355 . S
C1031 C1033 1.419 . S
C1032 C1030 1.415 . S
C1032 C1037 1.425 . S
C1032 C1039 1.409 . S
C1033 H1025 0.930 . S
C1033 C1031 1.419 . S
C1033 C1034 1.362 . S
C1034 H1026 0.930 . S
C1034 C1033 1.362 . S
C1034 C1037 1.409 . S
C1035 H1027 0.930 . S
C1035 C1036 1.355 . S
C1035 C1037 1.415 . S
C1036 C1035 1.355 . S
C1036 C1038 1.419 . S
C1037 C1032 1.425 . S
C1037 C1034 1.409 . S
C1037 C1035 1.415 . S
C1038 H1028 0.930 . S
C1038 C1036 1.419 . S
C1038 C1039 1.362 . S
C1039 H1029 0.930 . S
C1039 C1032 1.409 . S
C1039 C1038 1.362 . S
H1040 C1046 0.930 . S
H1041 C1049 0.930 . S
H1042 C1050 0.930 . S
H1043 C1051 0.930 . S
H1044 C1054 0.930 1_556 S
H1045 C1055 0.930 . S
C1046 H1040 0.930 . S
C1046 C1047 1.355 . S
C1046 C1048 1.415 . S
C1047 C1046 1.355 . S
C1047 C1049 1.419 . S
C1048 C1046 1.415 . S
C1048 C1053 1.425 . S
C1048 C1055 1.409 . S
C1049 H1041 0.930 . S
C1049 C1047 1.419 . S
C1049 C1050 1.362 . S
C1050 H1042 0.930 . S
C1050 C1049 1.362 . S
C1050 C1053 1.409 . S
C1051 H1043 0.930 . S
C1051 C1052 1.355 . S
C1051 C1053 1.415 . S
C1052 C1051 1.355 . S
C1052 C1054 1.419 . S
C1053 C1048 1.425 . S
C1053 C1050 1.409 . S
C1053 C1051 1.415 . S
C1054 H1044 0.930 1_554 S
C1054 C1052 1.419 . S
C1054 C1055 1.362 . S
C1055 H1045 0.930 . S
C1055 C1048 1.409 . S
C1055 C1054 1.362 . S
H1056 C1062 0.930 . S
H1057 C1065 0.930 . S
H1058 C1066 0.930 1_455 S
H1059 C1067 0.930 1_455 S
H1060 C1070 0.930 . S
H1061 C1071 0.930 . S
C1062 H1056 0.930 . S
C1062 C1063 1.355 . S
C1062 C1064 1.415 . S
C1063 C1062 1.355 . S
C1063 C1065 1.419 . S
C1064 C1062 1.415 . S
C1064 C1069 1.425 . S
C1064 C1071 1.409 . S
C1065 H1057 0.930 . S
C1065 C1063 1.419 . S
C1065 C1066 1.362 . S
C1066 H1058 0.930 1_655 S
C1066 C1065 1.362 . S
C1066 C1069 1.409 . S
C1067 H1059 0.930 1_655 S
C1067 C1068 1.355 . S
C1067 C1069 1.415 . S
C1068 C1067 1.355 . S
C1068 C1070 1.419 . S
C1069 C1064 1.425 . S
C1069 C1066 1.409 . S
C1069 C1067 1.415 . S
C1070 H1060 0.930 . S
C1070 C1068 1.419 . S
C1070 C1071 1.362 . S
C1071 H1061 0.930 . S
C1071 C1064 1.409 . S
C1071 C1070 1.362 . S
H1072 C1078 0.930 . S
H1073 C1081 0.930 . S
H1074 C1082 0.930 . S
H1075 C1083 0.930 . S
H1076 C1086 0.930 . S
H1077 C1087 0.930 . S
C1078 H1072 0.930 . S
C1078 C1079 1.355 . S
C1078 C1080 1.415 . S
C1079 C1078 1.355 . S
C1079 C1081 1.419 . S
C1080 C1078 1.415 . S
C1080 C1085 1.425 . S
C1080 C1087 1.409 . S
C1081 H1073 0.930 . S
C1081 C1079 1.419 . S
C1081 C1082 1.362 . S
C1082 H1074 0.930 . S
C1082 C1081 1.362 . S
C1082 C1085 1.409 . S
C1083 H1075 0.930 . S
C1083 C1084 1.355 . S
C1083 C1085 1.415 . S
C1084 C1083 1.355 . S
C1084 C1086 1.419 . S
C1085 C1080 1.425 . S
C1085 C1082 1.409 . S
C1085 C1083 1.415 . S
C1086 H1076 0.930 . S
C1086 C1084 1.419 . S
C1086 C1087 1.362 . S
C1087 H1077 0.930 . S
C1087 C1080 1.409 . S
C1087 C1086 1.362 . S
H1088 C1094 0.930 . S
H1089 C1097 0.930 . S
H1090 C1098 0.930 . S
H1091 C1099 0.930 . S
H1092 C1102 0.930 . S
H1093 C1103 0.930 . S
C1094 H1088 0.930 . S
C1094 C1095 1.355 . S
C1094 C1096 1.415 . S
C1095 C1094 1.355 . S
C1095 C1097 1.419 . S
C1096 C1094 1.415 . S
C1096 C1101 1.425 . S
C1096 C1103 1.409 . S
C1097 H1089 0.930 . S
C1097 C1095 1.419 . S
C1097 C1098 1.362 . S
C1098 H1090 0.930 . S
C1098 C1097 1.362 . S
C1098 C1101 1.409 . S
C1099 H1091 0.930 . S
C1099 C1100 1.355 . S
C1099 C1101 1.415 . S
C1100 C1099 1.355 . S
C1100 C1102 1.419 . S
C1101 C1096 1.425 . S
C1101 C1098 1.409 . S
C1101 C1099 1.415 . S
C1102 H1092 0.930 . S
C1102 C1100 1.419 . S
C1102 C1103 1.362 . S
C1103 H1093 0.930 . S
C1103 C1096 1.409 . S
C1103 C1102 1.362 . S
H1104 C1110 0.930 . S
H1105 C1113 0.930 . S
H1106 C1114 0.930 . S
H1107 C1115 0.930 . S
H1108 C1118 0.930 . S
H1109 C1119 0.930 . S
C1110 H1104 0.930 . S
C1110 C1111 1.355 . S
C1110 C1112 1.415 . S
C1111 C1110 1.355 . S
C1111 C1113 1.419 . S
C1112 C1110 1.415 . S
C1112 C1117 1.425 . S
C1112 C1119 1.409 . S
C1113 H1105 0.930 . S
C1113 C1111 1.419 . S
C1113 C1114 1.362 . S
C1114 H1106 0.930 . S
C1114 C1113 1.362 . S
C1114 C1117 1.409 . S
C1115 H1107 0.930 . S
C1115 C1116 1.355 . S
C1115 C1117 1.415 . S
C1116 C1115 1.355 . S
C1116 C1118 1.419 . S
C1117 C1112 1.425 . S
C1117 C1114 1.409 . S
C1117 C1115 1.415 . S
C1118 H1108 0.930 . S
C1118 C1116 1.419 . S
C1118 C1119 1.362 . S
C1119 H1109 0.930 . S
C1119 C1112 1.409 . S
C1119 C1118 1.362 . S
H1120 C1126 0.930 . S
H1121 C1129 0.930 . S
H1122 C1130 0.930 . S
H1123 C1131 0.930 . S
H1124 C1134 0.930 1_655 S
H1125 C1135 0.930 . S
C1126 H1120 0.930 . S
C1126 C1127 1.355 . S
C1126 C1128 1.415 . S
C1127 C1126 1.355 . S
C1127 C1129 1.419 . S
C1128 C1126 1.415 . S
C1128 C1133 1.425 . S
C1128 C1135 1.409 . S
C1129 H1121 0.930 . S
C1129 C1127 1.419 . S
C1129 C1130 1.362 . S
C1130 H1122 0.930 . S
C1130 C1129 1.362 . S
C1130 C1133 1.409 . S
C1131 H1123 0.930 . S
C1131 C1132 1.355 . S
C1131 C1133 1.415 . S
C1132 C1131 1.355 . S
C1132 C1134 1.419 . S
C1133 C1128 1.425 . S
C1133 C1130 1.409 . S
C1133 C1131 1.415 . S
C1134 H1124 0.930 1_455 S
C1134 C1132 1.419 . S
C1134 C1135 1.362 . S
C1135 H1125 0.930 . S
C1135 C1128 1.409 . S
C1135 C1134 1.362 . S
H1136 C1142 0.930 . S
H1137 C1145 0.930 . S
H1138 C1146 0.930 . S
H1139 C1147 0.930 . S
H1140 C1150 0.930 . S
H1141 C1151 0.930 . S
C1142 H1136 0.930 . S
C1142 C1143 1.355 . S
C1142 C1144 1.415 . S
C1143 C1142 1.355 . S
C1143 C1145 1.419 . S
C1144 C1142 1.415 . S
C1144 C1149 1.425 . S
C1144 C1151 1.409 . S
C1145 H1137 0.930 . S
C1145 C1143 1.419 . S
C1145 C1146 1.362 . S
C1146 H1138 0.930 . S
C1146 C1145 1.362 . S
C1146 C1149 1.409 . S
C1147 H1139 0.930 . S
C1147 C1148 1.355 . S
C1147 C1149 1.415 . S
C1148 C1147 1.355 . S
C1148 C1150 1.419 . S
C1149 C1144 1.425 . S
C1149 C1146 1.409 . S
C1149 C1147 1.415 . S
C1150 H1140 0.930 . S
C1150 C1148 1.419 . S
C1150 C1151 1.362 . S
C1151 H1141 0.930 . S
C1151 C1144 1.409 . S
C1151 C1150 1.362 . S
H1152 C1158 0.930 . S
H1153 C1161 0.930 1_655 S
H1154 C1162 0.930 . S
H1155 C1163 0.930 . S
H1156 C1166 0.930 . S
H1157 C1167 0.930 . S
C1158 H1152 0.930 . S
C1158 C1159 1.355 . S
C1158 C1160 1.415 . S
C1159 C1158 1.355 . S
C1159 C1161 1.419 . S
C1160 C1158 1.415 . S
C1160 C1165 1.425 . S
C1160 C1167 1.409 . S
C1161 H1153 0.930 1_455 S
C1161 C1159 1.419 . S
C1161 C1162 1.362 . S
C1162 H1154 0.930 . S
C1162 C1161 1.362 . S
C1162 C1165 1.409 . S
C1163 H1155 0.930 . S
C1163 C1164 1.355 . S
C1163 C1165 1.415 . S
C1164 C1163 1.355 . S
C1164 C1166 1.419 . S
C1165 C1160 1.425 . S
C1165 C1162 1.409 . S
C1165 C1163 1.415 . S
C1166 H1156 0.930 . S
C1166 C1164 1.419 . S
C1166 C1167 1.362 . S
C1167 H1157 0.930 . S
C1167 C1160 1.409 . S
C1167 C1166 1.362 . S
H1168 C1174 0.930 . S
H1169 C1177 0.930 . S
H1170 C1178 0.930 . S
H1171 C1179 0.930 . S
H1172 C1182 0.930 . S
H1173 C1183 0.930 . S
C1174 H1168 0.930 . S
C1174 C1175 1.355 . S
C1174 C1176 1.415 . S
C1175 C1174 1.355 . S
C1175 C1177 1.419 . S
C1176 C1174 1.415 . S
C1176 C1181 1.425 . S
C1176 C1183 1.409 . S
C1177 H1169 0.930 . S
C1177 C1175 1.419 . S
C1177 C1178 1.362 . S
C1178 H1170 0.930 . S
C1178 C1177 1.362 . S
C1178 C1181 1.409 . S
C1179 H1171 0.930 . S
C1179 C1180 1.355 . S
C1179 C1181 1.415 . S
C1180 C1179 1.355 . S
C1180 C1182 1.419 . S
C1181 C1176 1.425 . S
C1181 C1178 1.409 . S
C1181 C1179 1.415 . S
C1182 H1172 0.930 . S
C1182 C1180 1.419 . S
C1182 C1183 1.362 . S
C1183 H1173 0.930 . S
C1183 C1176 1.409 . S
C1183 C1182 1.362 . S
H1184 C1190 0.930 . S
H1185 C1193 0.930 . S
H1186 C1194 0.930 . S
H1187 C1195 0.930 . S
H1188 C1198 0.930 . S
H1189 C1199 0.930 . S
C1190 H1184 0.930 . S
C1190 C1191 1.355 . S
C1190 C1192 1.415 . S
C1191 C1190 1.355 . S
C1191 C1193 1.419 . S
C1192 C1190 1.415 . S
C1192 C1197 1.425 . S
C1192 C1199 1.409 . S
C1193 H1185 0.930 . S
C1193 C1191 1.419 . S
C1193 C1194 1.362 . S
C1194 H1186 0.930 . S
C1194 C1193 1.362 . S
C1194 C1197 1.409 . S
C1195 H1187 0.930 . S
C1195 C1196 1.355 . S
C1195 C1197 1.415 . S
C1196 C1195 1.355 . S
C1196 C1198 1.419 . S
C1197 C1192 1.425 . S
C1197 C1194 1.409 . S
C1197 C1195 1.415 . S
C1198 H1188 0.930 . S
C1198 C1196 1.419 . S
C1198 C1199 1.362 . S
C1199 H1189 0.930 . S
C1199 C1192 1.409 . S
C1199 C1198 1.362 . S
H1200 C1206 0.930 . S
H1201 C1209 0.930 1_556 S
H1202 C1210 0.930 . S
H1203 C1211 0.930 . S
H1204 C1214 0.930 . S
H1205 C1215 0.930 . S
C1206 H1200 0.930 . S
C1206 C1207 1.355 . S
C1206 C1208 1.415 . S
C1207 C1206 1.355 . S
C1207 C1209 1.419 . S
C1208 C1206 1.415 . S
C1208 C1213 1.425 . S
C1208 C1215 1.409 . S
C1209 H1201 0.930 1_554 S
C1209 C1207 1.419 . S
C1209 C1210 1.362 . S
C1210 H1202 0.930 . S
C1210 C1209 1.362 . S
C1210 C1213 1.409 . S
C1211 H1203 0.930 . S
C1211 C1212 1.355 . S
C1211 C1213 1.415 . S
C1212 C1211 1.355 . S
C1212 C1214 1.419 . S
C1213 C1208 1.425 . S
C1213 C1210 1.409 . S
C1213 C1211 1.415 . S
C1214 H1204 0.930 . S
C1214 C1212 1.419 . S
C1214 C1215 1.362 . S
C1215 H1205 0.930 . S
C1215 C1208 1.409 . S
C1215 C1214 1.362 . S
H1216 C1222 0.930 . S
H1217 C1225 0.930 . S
H1218 C1226 0.930 . S
H1219 C1227 0.930 . S
H1220 C1230 0.930 . S
H1221 C1231 0.930 . S
C1222 H1216 0.930 . S
C1222 C1223 1.355 . S
C1222 C1224 1.415 . S
C1223 C1222 1.355 . S
C1223 C1225 1.419 . S
C1224 C1222 1.415 . S
C1224 C1229 1.425 . S
C1224 C1231 1.409 . S
C1225 H1217 0.930 . S
C1225 C1223 1.419 . S
C1225 C1226 1.362 . S
C1226 H1218 0.930 . S
C1226 C1225 1.362 . S
C1226 C1229 1.409 . S
C1227 H1219 0.930 . S
C1227 C1228 1.355 . S
C1227 C1229 1.415 . S
C1228 C1227 1.355 . S
C1228 C1230 1.419 . S
C1229 C1224 1.425 . S
C1229 C1226 1.409 . S
C1229 C1227 1.415 . S
C1230 H1220 0.930 . S
C1230 C1228 1.419 . S
C1230 C1231 1.362 . S
C1231 H1221 0.930 . S
C1231 C1224 1.409 . S
C1231 C1230 1.362 . S
H1232 C1238 0.930 . S
H1233 C1241 0.930 . S
H1234 C1242 0.930 . S
H1235 C1243 0.930 . S
H1236 C1246 0.930 . S
H1237 C1247 0.930 . S
C1238 H1232 0.930 . S
C1238 C1239 1.355 . S
C1238 C1240 1.415 . S
C1239 C1238 1.355 . S
C1239 C1241 1.419 . S
C1240 C1238 1.415 . S
C1240 C1245 1.425 . S
C1240 C1247 1.409 . S
C1241 H1233 0.930 . S
C1241 C1239 1.419 . S
C1241 C1242 1.362 . S
C1242 H1234 0.930 . S
C1242 C1241 1.362 . S
C1242 C1245 1.409 . S
C1243 H1235 0.930 . S
C1243 C1244 1.355 . S
C1243 C1245 1.415 . S
C1244 C1243 1.355 . S
C1244 C1246 1.419 . S
C1245 C1240 1.425 . S
C1245 C1242 1.409 . S
C1245 C1243 1.415 . S
C1246 H1236 0.930 . S
C1246 C1244 1.419 . S
C1246 C1247 1.362 . S
C1247 H1237 0.930 . S
C1247 C1240 1.409 . S
C1247 C1246 1.362 . S
H1248 C1254 0.930 . S
H1249 C1257 0.930 . S
H1250 C1258 0.930 . S
H1251 C1259 0.930 . S
H1252 C1262 0.930 . S
H1253 C1263 0.930 . S
C1254 H1248 0.930 . S
C1254 C1255 1.355 . S
C1254 C1256 1.415 . S
C1255 C1254 1.355 . S
C1255 C1257 1.419 . S
C1256 C1254 1.415 . S
C1256 C1261 1.425 . S
C1256 C1263 1.409 . S
C1257 H1249 0.930 . S
C1257 C1255 1.419 . S
C1257 C1258 1.362 . S
C1258 H1250 0.930 . S
C1258 C1257 1.362 . S
C1258 C1261 1.409 . S
C1259 H1251 0.930 . S
C1259 C1260 1.355 . S
C1259 C1261 1.415 . S
C1260 C1259 1.355 . S
C1260 C1262 1.419 . S
C1261 C1256 1.425 . S
C1261 C1258 1.409 . S
C1261 C1259 1.415 . S
C1262 H1252 0.930 . S
C1262 C1260 1.419 . S
C1262 C1263 1.362 . S
C1263 H1253 0.930 . S
C1263 C1256 1.409 . S
C1263 C1262 1.362 . S
H1264 C1270 0.930 . S
H1265 C1273 0.930 . S
H1266 C1274 0.930 . S
H1267 C1275 0.930 . S
H1268 C1278 0.930 . S
H1269 C1279 0.930 . S
C1270 H1264 0.930 . S
C1270 C1271 1.355 . S
C1270 C1272 1.415 . S
C1271 C1270 1.355 . S
C1271 C1273 1.419 . S
C1272 C1270 1.415 . S
C1272 C1277 1.425 . S
C1272 C1279 1.409 . S
C1273 H1265 0.930 . S
C1273 C1271 1.419 . S
C1273 C1274 1.362 . S
C1274 H1266 0.930 . S
C1274 C1273 1.362 . S
C1274 C1277 1.409 . S
C1275 H1267 0.930 . S
C1275 C1276 1.355 . S
C1275 C1277 1.415 . S
C1276 C1275 1.355 . S
C1276 C1278 1.419 . S
C1277 C1272 1.425 . S
C1277 C1274 1.409 . S
C1277 C1275 1.415 . S
C1278 H1268 0.930 . S
C1278 C1276 1.419 . S
C1278 C1279 1.362 . S
C1279 H1269 0.930 . S
C1279 C1272 1.409 . S
C1279 C1278 1.362 . S
H1280 C1286 0.930 . S
H1281 C1289 0.930 . S
H1282 C1290 0.930 . S
H1283 C1291 0.930 . S
H1284 C1294 0.930 . S
H1285 C1295 0.930 . S
C1286 H1280 0.930 . S
C1286 C1287 1.355 . S
C1286 C1288 1.415 . S
C1287 C1286 1.355 . S
C1287 C1289 1.419 . S
C1288 C1286 1.415 . S
C1288 C1293 1.425 . S
C1288 C1295 1.409 . S
C1289 H1281 0.930 . S
C1289 C1287 1.419 . S
C1289 C1290 1.362 . S
C1290 H1282 0.930 . S
C1290 C1289 1.362 . S
C1290 C1293 1.409 . S
C1291 H1283 0.930 . S
C1291 C1292 1.355 . S
C1291 C1293 1.415 . S
C1292 C1291 1.355 . S
C1292 C1294 1.419 . S
C1293 C1288 1.425 . S
C1293 C1290 1.409 . S
C1293 C1291 1.415 . S
C1294 H1284 0.930 . S
C1294 C1292 1.419 . S
C1294 C1295 1.362 . S
C1295 H1285 0.930 . S
C1295 C1288 1.409 . S
C1295 C1294 1.362 . S
H1296 C1302 0.930 . S
H1297 C1305 0.930 . S
H1298 C1306 0.930 . S
H1299 C1307 0.930 . S
H1300 C1310 0.930 . S
H1301 C1311 0.930 . S
C1302 H1296 0.930 . S
C1302 C1303 1.355 . S
C1302 C1304 1.415 . S
C1303 C1302 1.355 . S
C1303 C1305 1.419 . S
C1304 C1302 1.415 . S
C1304 C1309 1.425 . S
C1304 C1311 1.409 . S
C1305 H1297 0.930 . S
C1305 C1303 1.419 . S
C1305 C1306 1.362 . S
C1306 H1298 0.930 . S
C1306 C1305 1.362 . S
C1306 C1309 1.409 . S
C1307 H1299 0.930 . S
C1307 C1308 1.355 . S
C1307 C1309 1.415 . S
C1308 C1307 1.355 . S
C1308 C1310 1.419 . S
C1309 C1304 1.425 . S
C1309 C1306 1.409 . S
C1309 C1307 1.415 . S
C1310 H1300 0.930 . S
C1310 C1308 1.419 . S
C1310 C1311 1.362 . S
C1311 H1301 0.930 . S
C1311 C1304 1.409 . S
C1311 C1310 1.362 . S
H1312 C1318 0.930 . S
H1313 C1321 0.930 . S
H1314 C1322 0.930 . S
H1315 C1323 0.930 . S
H1316 C1326 0.930 . S
H1317 C1327 0.930 . S
C1318 H1312 0.930 . S
C1318 C1319 1.355 . S
C1318 C1320 1.415 . S
C1319 C1318 1.355 . S
C1319 C1321 1.419 . S
C1320 C1318 1.415 . S
C1320 C1325 1.425 . S
C1320 C1327 1.409 . S
C1321 H1313 0.930 . S
C1321 C1319 1.419 . S
C1321 C1322 1.362 . S
C1322 H1314 0.930 . S
C1322 C1321 1.362 . S
C1322 C1325 1.409 . S
C1323 H1315 0.930 . S
C1323 C1324 1.355 . S
C1323 C1325 1.415 . S
C1324 C1323 1.355 . S
C1324 C1326 1.419 . S
C1325 C1320 1.425 . S
C1325 C1322 1.409 . S
C1325 C1323 1.415 . S
C1326 H1316 0.930 . S
C1326 C1324 1.419 . S
C1326 C1327 1.362 . S
C1327 H1317 0.930 . S
C1327 C1320 1.409 . S
C1327 C1326 1.362 . S
H1328 C1334 0.930 . S
H1329 C1337 0.930 . S
H1330 C1338 0.930 . S
H1331 C1339 0.930 . S
H1332 C1342 0.930 . S
H1333 C1343 0.930 . S
C1334 H1328 0.930 . S
C1334 C1335 1.355 . S
C1334 C1336 1.415 1_455 S
C1335 C1334 1.355 . S
C1335 C1337 1.419 . S
C1336 C1334 1.415 1_655 S
C1336 C1341 1.425 1_654 S
C1336 C1343 1.409 . S
C1337 H1329 0.930 . S
C1337 C1335 1.419 . S
C1337 C1338 1.362 1_554 S
C1338 H1330 0.930 . S
C1338 C1337 1.362 1_556 S
C1338 C1341 1.409 . S
C1339 H1331 0.930 . S
C1339 C1340 1.355 . S
C1339 C1341 1.415 1_655 S
C1340 C1339 1.355 . S
C1340 C1342 1.419 . S
C1341 C1336 1.425 1_456 S
C1341 C1338 1.409 . S
C1341 C1339 1.415 1_455 S
C1342 H1332 0.930 . S
C1342 C1340 1.419 . S
C1342 C1343 1.362 1_556 S
C1343 H1333 0.930 . S
C1343 C1336 1.409 . S
C1343 C1342 1.362 1_554 S
H1344 C1350 0.930 . S
H1345 C1353 0.930 . S
H1346 C1354 0.930 . S
H1347 C1355 0.930 . S
H1348 C1358 0.930 . S
H1349 C1359 0.930 . S
C1350 H1344 0.930 . S
C1350 C1351 1.355 . S
C1350 C1352 1.415 . S
C1351 C1350 1.355 . S
C1351 C1353 1.419 . S
C1352 C1350 1.415 . S
C1352 C1357 1.425 . S
C1352 C1359 1.409 . S
C1353 H1345 0.930 . S
C1353 C1351 1.419 . S
C1353 C1354 1.362 . S
C1354 H1346 0.930 . S
C1354 C1353 1.362 . S
C1354 C1357 1.409 . S
C1355 H1347 0.930 . S
C1355 C1356 1.355 . S
C1355 C1357 1.415 . S
C1356 C1355 1.355 . S
C1356 C1358 1.419 . S
C1357 C1352 1.425 . S
C1357 C1354 1.409 . S
C1357 C1355 1.415 . S
C1358 H1348 0.930 . S
C1358 C1356 1.419 . S
C1358 C1359 1.362 . S
C1359 H1349 0.930 . S
C1359 C1352 1.409 . S
C1359 C1358 1.362 . S
H1360 C1366 0.930 . S
H1361 C1369 0.930 . S
H1362 C1370 0.930 . S
H1363 C1371 0.930 . S
H1364 C1374 0.930 . S
H1365 C1375 0.930 . S
C1366 H1360 0.930 . S
C1366 C1367 1.355 . S
C1366 C1368 1.415 . S
C1367 C1366 1.355 . S
C1367 C1369 1.419 . S
C1368 C1366 1.415 . S
C1368 C1373 1.425 . S
C1368 C1375 1.409 . S
C1369 H1361 0.930 . S
C1369 C1367 1.419 . S
C1369 C1370 1.362 . S
C1370 H1362 0.930 . S
C1370 C1369 1.362 . S
C1370 C1373 1.409 . S
C1371 H1363 0.930 . S
C1371 C1372 1.355 . S
C1371 C1373 1.415 . S
C1372 C1371 1.355 . S
C1372 C1374 1.419 . S
C1373 C1368 1.425 . S
C1373 C1370 1.409 . S
C1373 C1371 1.415 . S
C1374 H1364 0.930 . S
C1374 C1372 1.419 . S
C1374 C1375 1.362 . S
C1375 H1365 0.930 . S
C1375 C1368 1.409 . S
C1375 C1374 1.362 . S
H1376 C1382 0.930 . S
H1377 C1385 0.930 . S
H1378 C1386 0.930 . S
H1379 C1387 0.930 . S
H1380 C1390 0.930 . S
H1381 C1391 0.930 . S
C1382 H1376 0.930 . S
C1382 C1383 1.355 1_545 S
C1382 C1384 1.415 1_455 S
C1383 C1382 1.355 1_565 S
C1383 C1385 1.419 . S
C1384 C1382 1.415 1_655 S
C1384 C1389 1.425 1_646 S
C1384 C1391 1.409 . S
C1385 H1377 0.930 . S
C1385 C1383 1.419 . S
C1385 C1386 1.362 1_556 S
C1386 H1378 0.930 . S
C1386 C1385 1.362 1_554 S
C1386 C1389 1.409 . S
C1387 H1379 0.930 . S
C1387 C1388 1.355 1_565 S
C1387 C1389 1.415 1_655 S
C1388 C1387 1.355 1_545 S
C1388 C1390 1.419 . S
C1389 C1384 1.425 1_464 S
C1389 C1386 1.409 . S
C1389 C1387 1.415 1_455 S
C1390 H1380 0.930 . S
C1390 C1388 1.419 . S
C1390 C1391 1.362 1_554 S
C1391 H1381 0.930 . S
C1391 C1384 1.409 . S
C1391 C1390 1.362 1_556 S
H1392 C1398 0.930 . S
H1393 C1401 0.930 . S
H1394 C1402 0.930 . S
H1395 C1403 0.930 . S
H1396 C1406 0.930 . S
H1397 C1407 0.930 . S
C1398 H1392 0.930 . S
C1398 C1399 1.355 . S
C1398 C1400 1.415 . S
C1399 C1398 1.355 . S
C1399 C1401 1.419 1_565 S
C1400 C1398 1.415 . S
C1400 C1405 1.425 1_565 S
C1400 C1407 1.409 . S
C1401 H1393 0.930 . S
C1401 C1399 1.419 1_545 S
C1401 C1402 1.362 . S
C1402 H1394 0.930 . S
C1402 C1401 1.362 . S
C1402 C1405 1.409 . S
C1403 H1395 0.930 . S
C1403 C1404 1.355 . S
C1403 C1405 1.415 . S
C1404 C1403 1.355 . S
C1404 C1406 1.419 1_545 S
C1405 C1400 1.425 1_545 S
C1405 C1402 1.409 . S
C1405 C1403 1.415 . S
C1406 H1396 0.930 . S
C1406 C1404 1.419 1_565 S
C1406 C1407 1.362 . S
C1407 H1397 0.930 . S
C1407 C1400 1.409 . S
C1407 C1406 1.362 . S
C647 C2 3.307 . S
C652 C402 3.307 . S
C663 C42 3.310 . S
C668 C442 3.310 . S
C679 C82 3.306 . S
C684 C322 3.306 . S
C695 C122 3.276 . S
C700 C362 3.276 . S
C711 C171 3.277 . S
C716 C571 3.277 . S
C727 C211 3.309 . S
C732 C611 3.309 . S
C743 C251 3.301 . S
C748 C491 3.300 . S
C759 C291 3.309 . S
C764 C531 3.309 . S
C775 C370 3.789 . S
C780 C11 3.741 1_556 S
C791 C410 3.785 . S
C796 C51 3.752 . S
C807 C450 3.801 . S
C812 C91 3.732 . S
C823 C330 3.786 . S
C828 C131 3.746 . S
C839 C162 3.747 1_554 S
C844 C539 3.785 . S
C855 C579 3.804 . S
C860 C202 3.723 . S
C871 C619 3.790 . S
C876 C242 3.740 . S
C887 C499 3.798 . S
C892 C282 3.729 . S
C903 C50 3.805 . S
C908 C331 3.727 . S
C919 C371 3.733 . S
C924 C90 3.801 . S
C935 C411 3.731 1_556 S
C940 C130 3.802 . S
C951 C451 3.749 . S
C956 C10 3.785 . S
C967 C482 3.745 . S
C972 C219 3.787 . S
C983 C259 3.785 . S
C988 C522 3.748 . S
C999 C299 3.788 . S
C1004 C562 3.743 1_554 S
C1015 C602 3.748 . S
C1020 C179 3.789 . S
C1031 C7 0.388 . S
C1036 C610 0.262 . S
C1047 C47 0.612 . S
C1052 C170 0.360 . S
C1063 C530 0.409 . S
C1068 C87 0.646 . S
C1079 C250 0.454 . S
C1084 C127 0.601 . S
C1095 C176 0.592 . S
C1100 C459 0.338 . S
C1111 C216 0.384 . S
C1116 C19 0.290 . S
C1127 C379 0.400 . S
C1132 C256 0.483 . S
C1143 C99 0.273 . S
C1148 C296 0.512 . S
C1159 C327 0.447 . S
C1164 C290 0.246 . S
C1175 C367 0.545 . S
C1180 C490 0.435 . S
C1191 C210 0.310 . S
C1196 C407 0.391 . S
C1207 C570 0.321 . S
C1212 C447 0.574 . S
C1223 C496 0.479 . S
C1228 C139 0.256 . S
C1239 C536 0.603 . S
C1244 C339 0.350 . S
C1255 C576 0.652 . S
C1260 C59 0.443 . S
C1271 C419 0.260 . S
C1276 C616 0.389 . S
C1287 C16 1.824 . S
C1292 C487 1.824 . S
C1303 C56 1.890 . S
C1308 C207 1.890 . S
C1319 C96 1.843 . S
C1324 C567 1.843 . S
C1335 C287 1.900 . S
C1340 C136 1.900 . S
C1351 C167 1.826 . S
C1356 C336 1.826 . S
C1367 C416 1.892 . S
C1372 C247 1.892 . S
C1383 C376 1.905 1_565 S
C1388 C527 1.905 1_545 S
C1399 C607 1.828 1_565 S
C1404 C456 1.828 1_545 S
