# Generated by pormake.
# Topology sxb, (6)-cn, num edge types: 1
# Building blocks:
#     Node 0, Type 0, BuildingBlock: FUNLAD_clean_sbu_0, # of connection points: 6
#     Node 1, Type 0, BuildingBlock: FUNLAD_clean_sbu_0, # of connection points: 6
#     Node 2, Type 0, BuildingBlock: FUNLAD_clean_sbu_0, # of connection points: 6
#     Node 3, Type 0, BuildingBlock: FUNLAD_clean_sbu_0, # of connection points: 6
#     Edge 4, Type (0, 0), BuildingBlock: MIFKUJ_clean_linker_0, # of connection points: 2
#     Edge 5, Type (0, 0), BuildingBlock: MIFKUJ_clean_linker_0, # of connection points: 2
#     Edge 6, Type (0, 0), BuildingBlock: MIFKUJ_clean_linker_0, # of connection points: 2
#     Edge 7, Type (0, 0), BuildingBlock: MIFKUJ_clean_linker_0, # of connection points: 2
#     Edge 8, Type (0, 0), BuildingBlock: MIFKUJ_clean_linker_0, # of connection points: 2
#     Edge 9, Type (0, 0), BuildingBlock: MIFKUJ_clean_linker_0, # of connection points: 2
#     Edge 10, Type (0, 0), BuildingBlock: MIFKUJ_clean_linker_0, # of connection points: 2
#     Edge 11, Type (0, 0), BuildingBlock: MIFKUJ_clean_linker_0, # of connection points: 2
#     Edge 12, Type (0, 0), BuildingBlock: MIFKUJ_clean_linker_0, # of connection points: 2
#     Edge 13, Type (0, 0), BuildingBlock: MIFKUJ_clean_linker_0, # of connection points: 2
#     Edge 14, Type (0, 0), BuildingBlock: MIFKUJ_clean_linker_0, # of connection points: 2
#     Edge 15, Type (0, 0), BuildingBlock: MIFKUJ_clean_linker_0, # of connection points: 2
# Relax obj value: 0.125
# Max RMSD: 0.152
# Mean RMSD: 0.152
data_MOF--net-sxb--node1-FUNLAD_clean_sbu_0--edge1-MIFKUJ_clean_linker_0
_symmetry_space_group_name_H-M    P1
_symmetry_Int_Tables_number       1
_symmetry_cell_setting            triclinic
loop_
_symmetry_equiv_pos_as_xyz
'x, y, z'
_cell_length_a     18.14441
_cell_length_b     35.239209
_cell_length_c     52.518848
_cell_angle_alpha  89.978928
_cell_angle_beta   93.30216
_cell_angle_gamma 89.653388
loop_
_atom_site_label
_atom_site_type_symbol
_atom_site_fract_x
_atom_site_fract_y
_atom_site_fract_z
_atom_type_partial_charge
C0 C 0.12571 0.03357 0.02493 0.0
N1 N -0.0055 -0.00164 0.9614 0.0
C2 C 0.05929 0.99224 0.95018 0.0
C3 C 0.0614 0.99234 0.92365 0.0
C4 C -0.00402 -0.00176 0.90857 0.0
C5 C 0.92991 0.00446 0.92059 0.0
C6 C 0.93051 0.00471 0.94718 0.0
Zn7 Zn -0.00675 -0.00242 1.00028 0.0
C8 C 0.06308 0.92782 0.02241 0.0
N9 N -0.00774 -0.00432 0.08154 0.0
C10 C 0.05528 0.98754 0.09583 0.0
C11 C 0.92784 0.00306 0.09265 0.0
C12 C 0.92498 0.00224 0.11914 0.0
C13 C -0.01073 0.99408 0.13445 0.0
C14 C 0.05511 0.98679 0.1224 0.0
Zn15 Zn -0.00612 -0.00344 0.04269 0.0
O16 O 0.09437 0.02587 1.00334 0.0
C17 C 0.92373 0.06619 0.02041 0.0
O18 O 0.09537 0.02398 0.0451 0.0
H19 H 0.87839 0.00936 0.08093 0.0
H20 H 0.10938 0.98716 0.96183 0.0
H21 H 0.10589 0.98166 0.08661 0.0
O22 O 0.93859 0.05012 0.99968 0.0
O23 O 0.94067 0.04986 0.04154 0.0
H24 H 0.87974 0.00993 0.95645 0.0
O25 O 0.89217 0.96902 0.03967 0.0
O26 O 0.89226 0.96959 0.99793 0.0
O27 O 0.0472 0.94348 0.04318 0.0
O28 O 0.04756 0.94471 1.00139 0.0
C29 C 0.86119 0.96083 0.01812 0.0
H30 H 0.11333 0.98719 0.91502 0.0
H31 H 0.87852 0.0095 0.90954 0.0
H32 H 0.87265 0.00745 0.12747 0.0
H33 H 0.10632 0.98094 0.13334 0.0
C34 C 0.8551 0.02752 0.52148 0.0
N35 N -0.00223 0.99238 0.58201 0.0
C36 C -0.01552 0.02551 0.5943 0.0
C37 C -0.01374 0.02668 0.62089 0.0
C38 C 0.00078 0.99332 0.63494 0.0
C39 C 0.01427 0.95953 0.62182 0.0
C40 C 0.01299 0.95974 0.59521 0.0
Zn41 Zn -0.00745 0.99162 0.54302 0.0
C42 C 0.91874 0.92221 0.52215 0.0
N43 N 0.97885 0.99073 0.46157 0.0
C44 C 0.96218 0.02318 0.44838 0.0
C45 C -0.00635 0.95782 0.44927 0.0
C46 C -0.00769 0.95675 0.42268 0.0
C47 C 0.97634 0.98995 0.40853 0.0
C48 C 0.96094 0.02348 0.42178 0.0
Zn49 Zn -0.01591 0.99145 0.50055 0.0
O50 O 0.89061 0.01925 0.54229 0.0
C51 C 0.05754 0.06095 0.52139 0.0
O52 O 0.882 0.01894 0.50044 0.0
H53 H 0.0069 0.93233 0.4601 0.0
H54 H 0.97185 0.05106 0.58347 0.0
H55 H 0.95058 0.04905 0.45852 0.0
O56 O 0.04625 0.04469 0.54239 0.0
O57 O 0.03753 0.04468 0.50057 0.0
H58 H 0.0238 0.93376 0.58509 0.0
O59 O 0.08625 0.96396 0.5013 0.0
O60 O 0.09444 0.96396 0.54316 0.0
O61 O 0.9306 0.93833 0.50115 0.0
O62 O 0.93863 0.93852 0.54298 0.0
C63 C 0.12153 0.95551 0.52213 0.0
H64 H 0.97491 0.05321 0.63036 0.0
H65 H 0.02632 0.93331 0.63204 0.0
H66 H 0.00335 0.93008 0.41336 0.0
H67 H 0.9494 0.0499 0.41177 0.0
C68 C 0.60653 0.52924 0.02115 0.0
N69 N 0.46375 0.49179 0.96141 0.0
C70 C 0.52722 0.48591 0.94933 0.0
C71 C 0.52676 0.48679 0.92278 0.0
C72 C 0.46017 0.4931 0.90849 0.0
C73 C 0.39515 0.49834 0.92132 0.0
C74 C 0.3983 0.49791 0.94798 0.0
Zn75 Zn 0.46926 0.49186 1.00043 0.0
C76 C 0.54999 0.42438 0.02153 0.0
N77 N 0.48648 0.49222 0.08191 0.0
C78 C 0.5117 0.52352 0.09473 0.0
C79 C 0.46318 0.46126 0.09459 0.0
C80 C 0.46315 0.46132 0.12116 0.0
C81 C 0.48854 0.49331 0.13498 0.0
C82 C 0.51382 0.52455 0.12134 0.0
Zn83 Zn 0.48036 0.49214 0.0429 0.0
O84 O 0.56942 0.52123 1.00067 0.0
C85 C 0.40015 0.55977 0.02181 0.0
O86 O 0.58149 0.52038 0.04241 0.0
H87 H 0.44352 0.4366 0.08407 0.0
H88 H 0.57853 0.48064 0.96029 0.0
H89 H 0.52979 0.5479 0.0843 0.0
O90 O 0.4117 0.54372 1.00074 0.0
O91 O 0.42367 0.54431 0.0426 0.0
H92 H 0.34855 0.50266 0.95795 0.0
O93 O 0.37901 0.46388 0.04265 0.0
O94 O 0.36919 0.46254 1.00086 0.0
O95 O 0.53721 0.44003 0.04263 0.0
O96 O 0.52702 0.44003 1.00076 0.0
C97 C 0.3431 0.45471 0.02214 0.0
H98 H 0.57785 0.48218 0.91349 0.0
H99 H 0.34282 0.50344 0.91086 0.0
H100 H 0.4419 0.43676 0.13065 0.0
H101 H 0.53523 0.5496 0.13104 0.0
C102 C 0.33783 0.53137 0.52243 0.0
N103 N 0.48147 0.49535 0.58231 0.0
C104 C 0.46723 0.52804 0.59496 0.0
C105 C 0.46767 0.52839 0.62155 0.0
C106 C 0.48192 0.49467 0.63521 0.0
C107 C 0.49672 0.46137 0.62173 0.0
C108 C 0.4967 0.4624 0.59514 0.0
Zn109 Zn 0.47636 0.49563 0.54331 0.0
C110 C 0.40485 0.4261 0.52159 0.0
N111 N 0.46155 0.49688 0.4618 0.0
C112 C 0.43328 0.5275 0.44873 0.0
C113 C 0.48812 0.46631 0.44935 0.0
C114 C 0.48825 0.46605 0.4228 0.0
C115 C 0.45949 0.49727 0.40871 0.0
C116 C 0.43115 0.52816 0.4221 0.0
Zn117 Zn 0.4668 0.49672 0.50082 0.0
O118 O 0.37421 0.52288 0.54302 0.0
C119 C 0.53863 0.56615 0.52234 0.0
O120 O 0.36368 0.52299 0.50119 0.0
H121 H 0.51013 0.44216 0.46004 0.0
H122 H 0.45458 0.55385 0.58442 0.0
H123 H 0.41255 0.55156 0.45897 0.0
O124 O 0.52913 0.54899 0.54317 0.0
O125 O 0.51767 0.55056 0.50136 0.0
H126 H 0.50822 0.43676 0.58475 0.0
O127 O 0.57012 0.47059 0.50135 0.0
O128 O 0.57858 0.46843 0.54316 0.0
O129 O 0.41615 0.44285 0.50075 0.0
O130 O 0.42358 0.44222 0.54259 0.0
C131 C 0.60563 0.46123 0.52193 0.0
H132 H 0.45529 0.55456 0.63128 0.0
H133 H 0.5086 0.43488 0.63164 0.0
H134 H 0.51199 0.44183 0.41352 0.0
H135 H 0.40719 0.55261 0.41219 0.0
H136 H 0.34799 0.60189 0.98097 0.0
H137 H 0.28712 0.66384 0.98173 0.0
H138 H 0.30241 0.66238 0.06401 0.0
H139 H 0.36283 0.60025 0.0635 0.0
H140 H 0.16745 0.68785 0.04458 0.0
H141 H 0.42324 0.71236 0.03373 0.0
H142 H 0.54241 0.70574 0.01382 0.0
H143 H 0.44378 0.74774 0.94296 0.0
H144 H 0.32365 0.75407 0.96236 0.0
H145 H 0.10884 0.88528 0.06389 0.0
H146 H 0.16296 0.8216 0.06401 0.0
H147 H 0.14795 0.8207 0.98172 0.0
H148 H 0.094 0.88435 0.98135 0.0
H149 H 0.28259 0.79633 1.00181 0.0
H150 H 0.02544 0.77028 0.01321 0.0
H151 H 0.90765 0.7775 0.03398 0.0
H152 H 0.01193 0.73987 0.1051 0.0
H153 H 0.13051 0.73266 0.08476 0.0
C154 C 0.33815 0.61465 0.99923 0.0
C155 C 0.36075 0.59639 0.02218 0.0
C156 C 0.30352 0.65003 0.99962 0.0
C157 C 0.29126 0.66772 0.02292 0.0
C158 C 0.31168 0.6491 0.04585 0.0
C159 C 0.34642 0.61374 0.0455 0.0
C160 C 0.25901 0.70617 0.02334 0.0
C161 C 0.19301 0.7117 0.03551 0.0
C162 C 0.29205 0.73699 1.01115 0.0
C163 C 0.36426 0.7333 0.99943 0.0
C164 C 0.42679 0.71987 0.01384 0.0
C165 C 0.49455 0.71622 1.00266 0.0
C166 C 0.50062 0.72621 0.97712 0.0
C167 C 0.43897 0.73995 0.96273 0.0
C168 C 0.37104 0.7436 0.97381 0.0
C169 C 0.11701 0.87153 0.04581 0.0
C170 C 0.09717 0.88978 0.0226 0.0
C171 C 0.14763 0.83514 0.04593 0.0
C172 C 0.15855 0.81646 0.02288 0.0
C173 C 0.13965 0.83474 0.9997 0.0
C174 C 0.10883 0.87104 0.99954 0.0
C175 C 0.19083 0.77798 0.02288 0.0
C176 C 0.25699 0.77247 1.01084 0.0
C177 C 0.1582 0.74728 0.03532 0.0
C178 C 0.08691 0.75128 0.04753 0.0
C179 C 0.02332 0.76378 0.03332 0.0
C180 C 0.95641 0.76781 0.045 0.0
C181 C 0.95237 0.75929 0.07087 0.0
C182 C 0.01519 0.74657 0.08509 0.0
C183 C 0.08222 0.74242 0.07348 0.0
H184 H 0.90051 0.76242 0.07988 0.0
H185 H 0.55313 0.72338 0.9685 0.0
H186 H 0.57509 0.38047 0.98016 0.0
H187 H 0.64338 0.32058 0.9795 0.0
H188 H 0.6885 0.32754 0.06091 0.0
H189 H 0.62025 0.38756 0.06182 0.0
H190 H 0.81176 0.30628 0.03398 0.0
H191 H 0.55726 0.27184 0.04013 0.0
H192 H 0.4243 0.27258 0.02745 0.0
H193 H 0.46983 0.22741 0.95403 0.0
H194 H 0.60328 0.22695 0.96615 0.0
H195 H 0.90729 0.11398 0.06055 0.0
H196 H 0.84801 0.17647 0.05962 0.0
H197 H 0.80057 0.16581 0.9785 0.0
H198 H 0.85938 0.10318 0.97923 0.0
H199 H 0.68072 0.1897 1.0043 0.0
H200 H 0.93577 0.22221 0.99898 0.0
H201 H 0.06833 0.22079 0.01223 0.0
H202 H 0.02156 0.2687 0.08475 0.0
H203 H 0.88853 0.27008 0.07201 0.0
C204 C 0.5996 0.36932 0.99793 0.0
C205 C 0.59185 0.38851 0.02109 0.0
C206 C 0.63852 0.33515 0.9975 0.0
C207 C 0.67029 0.31972 0.02018 0.0
C208 C 0.66419 0.33917 0.04324 0.0
C209 C 0.62488 0.37325 0.04373 0.0
C210 C 0.708 0.28263 0.01992 0.0
C211 C 0.78307 0.28066 0.02779 0.0
C212 C 0.67055 0.24959 1.01128 0.0
C213 C 0.59032 0.24977 1.00395 0.0
C214 C 0.53899 0.2624 0.0212 0.0
C215 C 0.46352 0.2627 0.01413 0.0
C216 C 0.43864 0.25016 0.98992 0.0
C217 C 0.48919 0.23719 0.97276 0.0
C218 C 0.56474 0.23688 0.97972 0.0
C219 C 0.88434 0.12497 0.04251 0.0
C220 C 0.88803 0.10379 0.01994 0.0
C221 C 0.85085 0.16067 0.042 0.0
C222 C 0.82079 0.17573 0.01895 0.0
C223 C 0.82383 0.15458 0.99644 0.0
C224 C 0.85756 0.11893 0.99689 0.0
C225 C 0.78447 0.21323 0.01845 0.0
C226 C 0.70956 0.21531 1.01042 0.0
C227 C 0.82206 0.24629 0.02701 0.0
C228 C 0.9021 0.24586 0.03464 0.0
C229 C 0.95367 0.23213 0.01784 0.0
C230 C 0.02892 0.23141 0.02523 0.0
C231 C 0.05333 0.24447 0.04936 0.0
C232 C 0.00255 0.25848 0.0661 0.0
C233 C 0.92723 0.25934 0.05877 0.0
H234 H 0.11161 0.2439 0.05505 0.0
H235 H 0.38019 0.25039 0.98448 0.0
H236 H 0.08585 0.10439 0.47996 0.0
H237 H 0.14444 0.16672 0.4798 0.0
H238 H 0.16482 0.1657 0.56203 0.0
H239 H 0.10689 0.1033 0.56242 0.0
H240 H 0.10656 0.23572 0.50108 0.0
H241 H 0.33925 0.20627 0.57949 0.0
H242 H 0.40433 0.1509 0.59898 0.0
H243 H 0.35927 0.08669 0.53047 0.0
H244 H 0.29878 0.14233 0.50993 0.0
H245 H 0.37749 0.38163 0.56261 0.0
H246 H 0.32083 0.31882 0.56221 0.0
H247 H 0.30186 0.32105 0.47997 0.0
H248 H 0.35789 0.38396 0.48014 0.0
H249 H 0.36007 0.25025 0.54055 0.0
H250 H 0.12816 0.28004 0.46206 0.0
H251 H 0.06275 0.33545 0.44275 0.0
H252 H 0.10574 0.39891 0.5117 0.0
H253 H 0.16674 0.34322 0.53202 0.0
C254 C 0.10277 0.11742 0.49802 0.0
C255 C 0.09234 0.09875 0.52121 0.0
C256 C 0.13575 0.15313 0.49788 0.0
C257 C 0.15932 0.17063 0.52088 0.0
C258 C 0.14761 0.15245 0.54407 0.0
C259 C 0.11462 0.11678 0.54424 0.0
C260 C 0.19876 0.20725 0.5206 0.0
C261 C 0.16229 0.23885 0.50943 0.0
C262 C 0.27107 0.21124 0.53192 0.0
C263 C 0.31307 0.17842 0.54332 0.0
C264 C 0.34427 0.18055 0.56841 0.0
C265 C 0.38077 0.14913 0.57961 0.0
C266 C 0.386 0.11529 0.56596 0.0
C267 C 0.35556 0.11295 0.54099 0.0
C268 C 0.32062 0.14453 0.52949 0.0
C269 C 0.36134 0.36876 0.54442 0.0
C270 C 0.3715 0.38794 0.52141 0.0
C271 C 0.32949 0.33277 0.54424 0.0
C272 C 0.30681 0.31547 0.52108 0.0
C273 C 0.31844 0.33412 0.49806 0.0
C274 C 0.35031 0.37009 0.49821 0.0
C275 C 0.26782 0.27871 0.52106 0.0
C276 C 0.30438 0.24709 0.53218 0.0
C277 C 0.19557 0.27469 0.50971 0.0
C278 C 0.15343 0.30753 0.49841 0.0
C279 C 0.12267 0.30561 0.47325 0.0
C280 C 0.08597 0.33705 0.46216 0.0
C281 C 0.08008 0.37069 0.47599 0.0
C282 C 0.11006 0.37281 0.50103 0.0
C283 C 0.14524 0.34121 0.51241 0.0
H284 H 0.05222 0.39511 0.46731 0.0
H285 H 0.41368 0.09088 0.57473 0.0
H286 H 0.86889 0.88001 0.48112 0.0
H287 H 0.80566 0.81899 0.48155 0.0
H288 H 0.82297 0.81876 0.56381 0.0
H289 H 0.88689 0.87966 0.56362 0.0
H290 H 0.85365 0.7484 0.54306 0.0
H291 H 0.67294 0.84756 0.53281 0.0
H292 H 0.61944 0.90446 0.51162 0.0
H293 H 0.56868 0.84014 0.44355 0.0
H294 H 0.62677 0.78335 0.46369 0.0
H295 H 0.58648 0.60802 0.56379 0.0
H296 H 0.64781 0.66959 0.56397 0.0
H297 H 0.63129 0.67132 0.48171 0.0
H298 H 0.56914 0.60993 0.48131 0.0
H299 H 0.59973 0.74114 0.50283 0.0
H300 H 0.78096 0.64198 0.51319 0.0
H301 H 0.83419 0.58513 0.53451 0.0
H302 H 0.88391 0.64958 0.60259 0.0
H303 H 0.82604 0.70632 0.58232 0.0
C304 C 0.85954 0.86694 0.49932 0.0
C305 C 0.88228 0.88484 0.52235 0.0
C306 C 0.8235 0.83207 0.49951 0.0
C307 C 0.80915 0.81461 0.52271 0.0
C308 C 0.83362 0.83182 0.54571 0.0
C309 C 0.86968 0.86672 0.54555 0.0
C310 C 0.76551 0.77929 0.52301 0.0
C311 C 0.79784 0.74685 0.53454 0.0
C312 C 0.69308 0.77738 0.51149 0.0
C313 C 0.65534 0.8112 0.49969 0.0
C314 C 0.65143 0.84558 0.5132 0.0
C315 C 0.62048 0.8779 0.50133 0.0
C316 C 0.59038 0.87591 0.4763 0.0
C317 C 0.59198 0.84165 0.46296 0.0
C318 C 0.62452 0.80944 0.47452 0.0
C319 C 0.59557 0.62155 0.54573 0.0
C320 C 0.57365 0.60391 0.52252 0.0
C321 C 0.63047 0.65675 0.54588 0.0
C322 C 0.64462 0.67477 0.52285 0.0
C323 C 0.62078 0.65784 0.49968 0.0
C324 C 0.58575 0.62265 0.4995 0.0
C325 C 0.68789 0.71023 0.52286 0.0
C326 C 0.65551 0.74269 0.51138 0.0
C327 C 0.76026 0.71217 0.53445 0.0
C328 C 0.798 0.6784 0.5463 0.0
C329 C 0.80217 0.64399 0.53283 0.0
C330 C 0.83294 0.6117 0.54477 0.0
C331 C 0.86266 0.61374 0.56985 0.0
C332 C 0.86088 0.64803 0.58315 0.0
C333 C 0.82848 0.68021 0.57151 0.0
H334 H 0.88719 0.58876 0.57895 0.0
H335 H 0.56574 0.90091 0.46726 0.0
H336 H 0.20507 0.06063 0.98632 0.0
H337 H 0.3388 0.05439 0.98512 0.0
H338 H 0.35369 0.0261 0.06521 0.0
H339 H 0.22099 0.03359 0.06684 0.0
H340 H 0.4812 0.05405 0.05075 0.0
H341 H 0.30303 0.95921 0.02077 0.0
H342 H 0.1981 0.93611 0.99344 0.0
H343 H 0.31643 0.9582 0.92665 0.0
H344 H 0.42174 0.9825 0.95361 0.0
H345 H 0.78002 0.93556 0.05677 0.0
H346 H 0.64674 0.94429 0.05786 0.0
H347 H 0.63421 0.97166 0.97762 0.0
H348 H 0.76635 0.96163 0.97611 0.0
H349 H 0.5061 0.9449 0.9919 0.0
H350 H 0.68598 0.0389 0.02262 0.0
H351 H 0.7905 0.06109 0.0506 0.0
H352 H 0.66861 0.03933 0.1166 0.0
H353 H 0.5636 0.01613 0.08904 0.0
C354 C 0.23728 0.05489 1.00393 0.0
C355 C 0.20281 0.04586 0.02641 0.0
C356 C 0.31354 0.05128 1.00319 0.0
C357 C 0.35491 0.03801 0.02478 0.0
C358 C 0.32212 0.03561 0.04823 0.0
C359 C 0.24611 0.0398 0.04909 0.0
C360 C 0.42628 0.01901 0.02207 0.0
C361 C 0.48674 0.03016 0.03795 0.0
C362 C 0.43296 0.98773 1.00536 0.0
C363 C 0.36986 0.97302 0.98918 0.0
C364 C 0.30651 0.95937 1.00025 0.0
C365 C 0.247 0.94599 0.98483 0.0
C366 C 0.25057 0.94548 0.95833 0.0
C367 C 0.31372 0.95857 0.94718 0.0
C368 C 0.37329 0.97223 0.96251 0.0
C369 C 0.74829 0.94163 0.03912 0.0
C370 C 0.78349 0.94959 0.0166 0.0
C371 C 0.67234 0.94676 0.0398 0.0
C372 C 0.632 0.96043 0.01811 0.0
C373 C 0.66507 0.9619 0.99468 0.0
C374 C 0.74073 0.95618 0.99387 0.0
C375 C 0.56104 0.97995 0.02056 0.0
C376 C 0.50066 0.96888 1.00464 0.0
C377 C 0.55441 0.01122 0.03728 0.0
C378 C 0.61727 0.02547 0.05379 0.0
C379 C 0.68159 0.03867 0.0431 0.0
C380 C 0.74089 0.05147 0.05888 0.0
C381 C 0.73624 0.05176 0.08534 0.0
C382 C 0.67217 0.03912 0.0961 0.0
C383 C 0.61275 0.02609 0.08042 0.0
H384 H 0.7823 0.06174 0.09749 0.0
H385 H 0.2044 0.93499 0.94645 0.0
H386 H 0.20039 0.94219 0.48042 0.0
H387 H 0.33358 0.94971 0.47967 0.0
H388 H 0.35162 0.95063 0.56193 0.0
H389 H 0.21853 0.94321 0.56296 0.0
H390 H 0.37428 0.01944 0.50154 0.0
H391 H 0.54303 0.92995 0.57916 0.0
H392 H 0.55093 0.86424 0.59518 0.0
H393 H 0.44635 0.82396 0.52501 0.0
H394 H 0.43898 0.88923 0.50834 0.0
H395 H 0.77671 0.04106 0.56326 0.0
H396 H 0.64361 0.0334 0.56425 0.0
H397 H 0.62454 0.0317 0.48201 0.0
H398 H 0.75754 0.03926 0.48073 0.0
H399 H 0.60225 0.96352 0.54269 0.0
H400 H 0.43355 0.05237 0.46485 0.0
H401 H 0.42675 0.11782 0.44832 0.0
H402 H 0.53229 0.15884 0.51812 0.0
H403 H 0.53847 0.09386 0.53532 0.0
C404 C 0.23296 0.94234 0.49837 0.0
C405 C 0.19913 0.94377 0.52176 0.0
C406 C 0.30895 0.94662 0.49787 0.0
C407 C 0.35137 0.95167 0.52072 0.0
C408 C 0.31924 0.94698 0.54412 0.0
C409 C 0.24315 0.94285 0.54466 0.0
C410 C 0.42339 0.97014 0.52024 0.0
C411 C 0.42475 0.00698 0.51002 0.0
C412 C 0.48747 0.95422 0.53244 0.0
C413 C 0.48946 0.91478 0.54262 0.0
C414 C 0.52159 0.90713 0.56713 0.0
C415 C 0.52609 0.86989 0.57632 0.0
C416 C 0.49882 0.83997 0.56118 0.0
C417 C 0.46683 0.84721 0.53682 0.0
C418 C 0.46213 0.88438 0.52754 0.0
C419 C 0.74393 0.04071 0.54536 0.0
C420 C 0.77746 0.03914 0.52192 0.0
C421 C 0.66799 0.03633 0.546 0.0
C422 C 0.62531 0.03106 0.52324 0.0
C423 C 0.65713 0.03554 0.49976 0.0
C424 C 0.73316 0.03976 0.49908 0.0
C425 C 0.5532 0.01273 0.52389 0.0
C426 C 0.55178 0.97595 0.53419 0.0
C427 C 0.48914 0.02865 0.51168 0.0
C428 C 0.48742 0.06794 0.50126 0.0
C429 C 0.45537 0.07531 0.47671 0.0
C430 C 0.45151 0.11239 0.46722 0.0
C431 C 0.47939 0.14245 0.48211 0.0
C432 C 0.51131 0.13549 0.50651 0.0
C433 C 0.51532 0.09847 0.51609 0.0
H434 H 0.47606 0.17115 0.47477 0.0
H435 H 0.50271 0.81115 0.56828 0.0
H436 H 0.70508 0.54481 0.061 0.0
H437 H 0.83833 0.53644 0.05982 0.0
H438 H 0.81748 0.52835 0.9778 0.0
H439 H 0.68445 0.53715 0.97866 0.0
H440 H 0.85973 0.46037 1.00423 0.0
H441 H 0.92763 0.59028 1.00009 0.0
H442 H 0.93351 0.65789 0.01198 0.0
H443 H 0.03352 0.62836 0.08543 0.0
H444 H 0.02719 0.56044 0.07417 0.0
H445 H 0.24525 0.43938 0.98202 0.0
H446 H 0.11172 0.44635 0.98315 0.0
H447 H 0.13166 0.45255 0.06525 0.0
H448 H 0.26502 0.44507 0.06444 0.0
H449 H 0.08959 0.52121 0.03892 0.0
H450 H 0.02303 0.391 0.04257 0.0
H451 H 0.01684 0.3236 0.03042 0.0
H452 H 0.91395 0.35369 0.95751 0.0
H453 H 0.92091 0.42147 0.96898 0.0
C454 C 0.72915 0.54304 0.04263 0.0
C455 C 0.6843 0.54021 0.01999 0.0
C456 C 0.80532 0.53834 0.042 0.0
C457 C 0.83683 0.53094 0.01877 0.0
C458 C 0.7935 0.53368 0.9959 0.0
C459 C 0.71751 0.53873 0.99647 0.0
C460 C 0.90915 0.51202 0.01893 0.0
C461 C 0.91052 0.47381 1.01132 0.0
C462 C 0.97394 0.52937 0.02922 0.0
C463 C 0.97605 0.57015 0.03638 0.0
C464 C 0.94993 0.59811 0.01892 0.0
C465 C 0.95361 0.63651 0.0255 0.0
C466 C -0.01636 0.64737 0.04946 0.0
C467 C 0.01013 0.61986 0.06689 0.0
C468 C 0.00654 0.5814 0.06041 0.0
C469 C 0.22101 0.44041 1.00038 0.0
C470 C 0.26558 0.44315 0.02309 0.0
C471 C 0.14465 0.44428 1.00098 0.0
C472 C 0.1127 0.45078 0.02425 0.0
C473 C 0.15595 0.44788 0.04713 0.0
C474 C 0.23213 0.44366 0.04658 0.0
C475 C 0.04024 0.46954 0.02419 0.0
C476 C 0.03882 0.50775 0.03183 0.0
C477 C 0.97546 0.45219 0.01387 0.0
C478 C 0.97336 0.41147 1.00655 0.0
C479 C 6e-05 0.38335 0.0238 0.0
C480 C -0.0039 0.34501 0.01707 0.0
C481 C 0.96508 0.33433 0.9932 0.0
C482 C 0.93805 0.362 0.97599 0.0
C483 C 0.94202 0.4004 0.98259 0.0
H484 H 0.9619 0.30463 0.98805 0.0
H485 H -0.01353 0.67708 0.05448 0.0
H486 H 0.24026 0.54675 0.48225 0.0
H487 H 0.10688 0.54077 0.48361 0.0
H488 H 0.12752 0.53665 0.5658 0.0
H489 H 0.26084 0.54299 0.56475 0.0
H490 H 0.08699 0.46759 0.54058 0.0
H491 H 0.02252 0.5979 0.54142 0.0
H492 H 0.01432 0.66497 0.52847 0.0
H493 H 0.90404 0.63332 0.45721 0.0
H494 H 0.9129 0.56586 0.46944 0.0
H495 H 0.70306 0.44667 0.5623 0.0
H496 H 0.83621 0.45415 0.56123 0.0
H497 H 0.8169 0.45845 0.47904 0.0
H498 H 0.68383 0.45061 0.47979 0.0
H499 H 0.85665 0.52755 0.50431 0.0
H500 H 0.92114 0.39699 0.50398 0.0
H501 H 0.92791 0.33017 0.51757 0.0
H502 H 0.03758 0.36282 0.58873 0.0
H503 H 0.02995 0.43005 0.57587 0.0
C504 C 0.21618 0.54634 0.50065 0.0
C505 C 0.26075 0.54363 0.52335 0.0
C506 C 0.13999 0.54309 0.50138 0.0
C507 C 0.1085 0.53733 0.52478 0.0
C508 C 0.1517 0.54065 0.5476 0.0
C509 C 0.22777 0.54418 0.54691 0.0
C510 C 0.03663 0.51881 0.52499 0.0
C511 C 0.03601 0.48086 0.5332 0.0
C512 C 0.97191 0.536 0.51421 0.0
C513 C 0.96941 0.57655 0.50624 0.0
C514 C -0.00198 0.60504 0.52273 0.0
C515 C -0.00715 0.64323 0.51558 0.0
C516 C 0.959 0.6534 0.49198 0.0
C517 C 0.93038 0.62539 0.47547 0.0
C518 C 0.93543 0.58715 0.48252 0.0
C519 C 0.72744 0.44743 0.54395 0.0
C520 C 0.68317 0.44971 0.52116 0.0
C521 C 0.8035 0.4516 0.54339 0.0
C522 C 0.8352 0.45778 0.52008 0.0
C523 C 0.79253 0.45416 0.49717 0.0
C524 C 0.71662 0.44972 0.49768 0.0
C525 C 0.90698 0.47641 0.52001 0.0
C526 C 0.90761 0.51434 0.51177 0.0
C527 C 0.97166 0.45926 0.53084 0.0
C528 C 0.97397 0.41883 0.53906 0.0
C529 C 0.94525 0.39013 0.52277 0.0
C530 C 0.94958 0.35208 0.53029 0.0
C531 C -0.01714 0.34226 0.55404 0.0
C532 C 0.01172 0.37047 0.57034 0.0
C533 C 0.0074 0.40858 0.56294 0.0
H534 H -0.01344 0.31277 0.55976 0.0
H535 H 0.95465 0.68299 0.48655 0.0
H536 H 0.06943 0.95066 0.37854 0.0
H537 H 0.06986 0.95026 0.33215 0.0
H538 H 0.88792 0.02984 0.32779 0.0
H539 H 0.88406 0.02861 0.37416 0.0
H540 H 0.86641 0.9781 0.29274 0.0
H541 H 0.06995 0.05721 0.31971 0.0
H542 H 0.18569 0.07401 0.34388 0.0
H543 H 0.29826 0.98227 0.3085 0.0
H544 H 0.18289 0.96458 0.28436 0.0
H545 H 0.91049 0.04017 0.16524 0.0
H546 H 0.90706 0.03795 0.21164 0.0
H547 H 0.06258 0.94487 0.2144 0.0
H548 H 0.06452 0.94585 0.16793 0.0
H549 H 0.09778 0.00327 0.24982 0.0
H550 H 0.89096 0.9256 0.22238 0.0
H551 H 0.77464 0.91138 0.19774 0.0
H552 H 0.66764 0.00439 0.23376 0.0
H553 H 0.78372 0.01952 0.25835 0.0
C554 C 0.02871 0.96768 0.36776 0.0
C555 C 0.97678 0.98974 0.38019 0.0
C556 C 0.02972 0.96781 0.34119 0.0
C557 C 0.97979 0.99055 0.32647 0.0
C558 C 0.9273 0.01224 0.33875 0.0
C559 C 0.9257 0.01181 0.36532 0.0
C560 C -0.01801 0.99155 0.29825 0.0
C561 C 0.91683 0.98413 0.28339 0.0
C562 C 0.04805 -0.00128 0.28598 0.0
C563 C 0.11758 0.00935 0.30041 0.0
C564 C 0.11925 0.04044 0.31722 0.0
C565 C 0.18481 0.05015 0.3309 0.0
C566 C 0.24924 0.02916 0.32778 0.0
C567 C 0.24828 -0.00153 0.31092 0.0
C568 C 0.18284 0.98861 0.29722 0.0
C569 C 0.94323 0.01884 0.17562 0.0
C570 C -0.01234 0.99312 0.16275 0.0
C571 C 0.94148 0.01778 0.20216 0.0
C572 C -0.01568 0.99114 0.21638 0.0
C573 C 0.02933 0.96572 0.20373 0.0
C574 C 0.03061 0.9665 0.17716 0.0
C575 C -0.01765 0.98991 0.2445 0.0
C576 C 0.0475 -0.00272 0.25927 0.0
C577 C 0.9162 0.98311 0.25668 0.0
C578 C 0.84624 0.97393 0.24202 0.0
C579 C 0.84281 0.94323 0.22489 0.0
C580 C 0.77689 0.93496 0.21096 0.0
C581 C 0.71384 0.95703 0.21413 0.0
C582 C 0.71655 0.98735 0.23129 0.0
C583 C 0.78237 -0.00424 0.24525 0.0
H584 H 0.66285 0.95059 0.20333 0.0
H585 H 0.29994 0.03673 0.33838 0.0
H586 H 0.0882 0.03652 0.87853 0.0
H587 H 0.08812 0.03589 0.8318 0.0
H588 H 0.90573 0.9578 0.82859 0.0
H589 H 0.90497 0.95868 0.87529 0.0
H590 H 0.02822 0.93779 0.79775 0.0
H591 H 0.86565 0.04253 0.81442 0.0
H592 H 0.83169 0.10281 0.83462 0.0
H593 H 0.01109 0.15877 0.80052 0.0
H594 H 0.04682 0.09863 0.78042 0.0
H595 H 0.93036 0.94469 0.66561 0.0
H596 H 0.92945 0.94574 0.71215 0.0
H597 H 0.07211 0.04344 0.71434 0.0
H598 H 0.07104 0.04314 0.6677 0.0
H599 H 0.97076 0.05351 0.74634 0.0
H600 H 0.13589 0.95131 0.72979 0.0
H601 H 0.17604 0.89168 0.71015 0.0
H602 H 0.00203 0.8316 0.74449 0.0
H603 H 0.96018 0.891 0.76406 0.0
C604 C 0.04828 0.01918 0.86781 0.0
C605 C -0.00352 -0.00229 0.88042 0.0
C606 C 0.0481 0.01895 0.8412 0.0
C607 C -0.00325 -0.00311 0.82685 0.0
C608 C 0.94569 0.97501 0.8394 0.0
C609 C 0.94506 0.97569 0.86598 0.0
C610 C -0.00362 -0.00335 0.7987 0.0
C611 C 0.01479 0.9629 0.78641 0.0
C612 C 0.98094 0.02978 0.78414 0.0
C613 C 0.9594 0.06598 0.79615 0.0
C614 C 0.8983 0.0676 0.81143 0.0
C615 C 0.87864 0.10176 0.82282 0.0
C616 C 0.91934 0.13458 0.81892 0.0
C617 C 0.97968 0.13331 0.80356 0.0
C618 C -0.00036 0.0992 0.79215 0.0
C619 C 0.96181 0.96623 0.67608 0.0
C620 C 0.00109 0.99371 0.66313 0.0
C621 C 0.96145 0.96677 0.70266 0.0
C622 C 0.00177 -0.00571 0.71683 0.0
C623 C 0.04063 0.02193 0.70386 0.0
C624 C 0.04007 0.02173 0.67724 0.0
C625 C 0.00271 -0.00548 0.74513 0.0
C626 C -0.0156 0.02831 0.75754 0.0
C627 C 0.01928 0.9615 0.75984 0.0
C628 C 0.04449 0.92569 0.74819 0.0
C629 C 0.10586 0.92544 0.733 0.0
C630 C 0.12897 0.89167 0.7219 0.0
C631 C 0.0915 0.85789 0.72601 0.0
C632 C 0.03094 0.85779 0.74129 0.0
C633 C 0.00754 0.8915 0.75241 0.0
H634 H 0.10948 0.83178 0.7174 0.0
H635 H 0.90401 0.161 0.82775 0.0
H636 H 0.44103 0.4372 0.37554 0.0
H637 H 0.44834 0.43768 0.32928 0.0
H638 H 0.48231 0.55857 0.33078 0.0
H639 H 0.47953 0.55834 0.37722 0.0
H640 H 0.3677 0.52755 0.29256 0.0
H641 H 0.62338 0.51358 0.32342 0.0
H642 H 0.72534 0.48318 0.34912 0.0
H643 H 0.6818 0.37737 0.31078 0.0
H644 H 0.57877 0.40703 0.28511 0.0
H645 H 0.46182 0.55453 0.16566 0.0
H646 H 0.45928 0.55595 0.2119 0.0
H647 H 0.50371 0.43555 0.215 0.0
H648 H 0.51263 0.43442 0.16891 0.0
H649 H 0.57808 0.46661 0.25173 0.0
H650 H 0.32546 0.47594 0.22133 0.0
H651 H 0.21745 0.50159 0.1962 0.0
H652 H 0.24534 0.60925 0.23367 0.0
H653 H 0.35418 0.58438 0.25881 0.0
C654 C 0.45117 0.4639 0.36621 0.0
C655 C 0.46014 0.49772 0.38033 0.0
C656 C 0.45465 0.46409 0.33971 0.0
C657 C 0.46601 0.49813 0.32676 0.0
C658 C 0.47319 0.53206 0.34054 0.0
C659 C 0.47105 0.53184 0.36709 0.0
C660 C 0.47135 0.49814 0.2988 0.0
C661 C 0.41405 0.51473 0.28353 0.0
C662 C 0.5307 0.48022 0.28723 0.0
C663 C 0.59287 0.46243 0.30255 0.0
C664 C 0.63508 0.48374 0.32064 0.0
C665 C 0.69317 0.46666 0.33517 0.0
C666 C 0.7099 0.42833 0.33164 0.0
C667 C 0.6687 0.40704 0.31353 0.0
C668 C 0.61049 0.42398 0.29897 0.0
C669 C 0.47249 0.5284 0.17611 0.0
C670 C 0.48721 0.4943 0.16334 0.0
C671 C 0.46974 0.52917 0.20263 0.0
C672 C 0.47964 0.49571 0.21698 0.0
C673 C 0.49534 0.46174 0.20437 0.0
C674 C 0.4995 0.46106 0.1779 0.0
C675 C 0.47419 0.49612 0.24512 0.0
C676 C 0.5315 0.47953 0.26055 0.0
C677 C 0.41392 0.51336 0.25682 0.0
C678 C 0.34843 0.5284 0.24177 0.0
C679 C 0.3089 0.50517 0.22408 0.0
C680 C 0.24747 0.51955 0.20985 0.0
C681 C 0.22467 0.55705 0.21328 0.0
C682 C 0.26314 0.58022 0.23101 0.0
C683 C 0.32466 0.56599 0.24526 0.0
H684 H 0.17709 0.56813 0.20225 0.0
H685 H 0.75491 0.41516 0.3429 0.0
H686 H 0.41124 0.44421 0.66461 0.0
H687 H 0.40604 0.44424 0.71115 0.0
H688 H 0.54306 0.54386 0.71577 0.0
H689 H 0.54823 0.54407 0.66921 0.0
H690 H 0.58657 0.48467 0.75098 0.0
H691 H 0.36932 0.55591 0.72216 0.0
H692 H 0.25237 0.56596 0.6967 0.0
H693 H 0.15902 0.46867 0.73177 0.0
H694 H 0.27588 0.45771 0.75717 0.0
H695 H 0.54758 0.53513 0.87914 0.0
H696 H 0.54911 0.53577 0.83262 0.0
H697 H 0.37387 0.45326 0.82793 0.0
H698 H 0.37029 0.45388 0.87453 0.0
H699 H 0.34944 0.50247 0.79217 0.0
H700 H 0.56116 0.42945 0.82073 0.0
H701 H 0.6775 0.41556 0.84567 0.0
H702 H 0.78105 0.51003 0.81079 0.0
H703 H 0.66497 0.52482 0.78588 0.0
C704 C 0.44058 0.46596 0.67559 0.0
C705 C 0.48009 0.49417 0.66336 0.0
C706 C 0.43722 0.46606 0.7021 0.0
C707 C 0.47383 0.49418 0.7168 0.0
C708 C 0.51435 0.52199 0.7047 0.0
C709 C 0.51695 0.52219 0.67816 0.0
C710 C 0.4698 0.4946 0.74486 0.0
C711 C 0.53497 0.48902 0.76007 0.0
C712 C 0.40201 0.49907 0.75653 0.0
C713 C 0.33161 0.50577 0.74137 0.0
C714 C 0.32409 0.53647 0.72428 0.0
C715 C 0.25777 0.54237 0.70989 0.0
C716 C 0.19837 0.51791 0.71256 0.0
C717 C 0.20511 0.48756 0.72969 0.0
C718 C 0.27136 0.48151 0.7441 0.0
C719 C 0.50939 0.5172 0.86812 0.0
C720 C 0.45914 0.49427 0.88032 0.0
C721 C 0.5105 0.51741 0.84157 0.0
C722 C 0.46275 0.4939 0.82674 0.0
C723 C 0.41143 0.47154 0.83894 0.0
C724 C 0.40938 0.47188 0.86551 0.0
C725 C 0.46648 0.49264 0.79855 0.0
C726 C 0.40121 0.49802 0.78323 0.0
C727 C 0.53413 0.48735 0.78674 0.0
C728 C 0.60414 0.47844 0.80161 0.0
C729 C 0.60858 0.44742 0.81851 0.0
C730 C 0.6745 0.43937 0.83262 0.0
C731 C 0.73657 0.46195 0.82987 0.0
C732 C 0.7329 0.49259 0.81293 0.0
C733 C 0.66708 0.5008 0.79879 0.0
H734 H 0.78755 0.45567 0.84081 0.0
H735 H 0.14706 0.52253 0.70141 0.0
loop_
_geom_bond_atom_site_label_1
_geom_bond_atom_site_label_2
_geom_bond_distance
_geom_bond_site_symmetry_2
_ccdc_geom_bond_type
C0 O16 1.251 1_554 S
C0 O18 1.254 . S
N1 C2 1.335 1_655 S
N1 C6 1.304 1_545 S
N1 Zn7 2.020 1_545 S
C2 N1 1.335 1_455 S
C2 C3 1.379 . S
C2 H20 0.952 . S
C3 C2 1.379 . S
C3 C4 1.390 1_455 S
C3 H30 0.949 . S
C4 C3 1.390 1_655 S
C4 C5 1.357 1_545 S
C5 C4 1.357 1_565 S
C5 C6 1.370 . S
C5 H31 0.950 . S
C6 N1 1.304 1_565 S
C6 C5 1.370 . S
C6 H24 0.948 . S
Zn7 N1 2.020 1_565 S
Zn7 O16 2.039 1_665 S
Zn7 O22 2.034 1_565 S
Zn7 O26 2.025 . S
Zn7 O28 2.024 1_655 S
C8 O27 1.246 . S
C8 O28 1.249 1_554 S
N9 C10 1.308 1_565 S
N9 C11 1.332 1_455 S
N9 Zn15 2.020 1_565 S
C10 N9 1.308 1_545 S
C10 C14 1.370 . S
C10 H21 0.948 . S
C11 N9 1.332 1_655 S
C11 C12 1.379 . S
C11 H19 0.952 . S
C12 C11 1.379 . S
C12 C13 1.390 1_655 S
C12 H32 0.949 . S
C13 C12 1.390 1_455 S
C13 C14 1.357 1_565 S
C14 C10 1.370 . S
C14 C13 1.357 1_545 S
C14 H33 0.950 . S
Zn15 N9 2.020 1_545 S
Zn15 O18 2.025 . S
Zn15 O23 2.024 1_455 S
Zn15 O25 2.039 1_445 S
Zn15 O27 2.034 1_545 S
O16 C0 1.251 1_556 S
O16 Zn7 2.039 1_445 S
C17 O22 1.246 1_554 S
C17 O23 1.249 . S
O18 C0 1.254 . S
O18 Zn15 2.025 . S
H19 C11 0.952 . S
H20 C2 0.952 . S
H21 C10 0.948 . S
O22 Zn7 2.034 1_545 S
O22 C17 1.246 1_556 S
O23 Zn15 2.024 1_655 S
O23 C17 1.249 . S
H24 C6 0.948 . S
O25 Zn15 2.039 1_665 S
O25 C29 1.251 . S
O26 Zn7 2.025 . S
O26 C29 1.254 1_556 S
O27 C8 1.246 . S
O27 Zn15 2.034 1_565 S
O28 Zn7 2.024 1_455 S
O28 C8 1.249 1_556 S
C29 O25 1.251 . S
C29 O26 1.254 1_554 S
H30 C3 0.949 . S
H31 C5 0.950 . S
H32 C12 0.949 . S
H33 C14 0.950 . S
C34 O50 1.251 . S
C34 O52 1.254 . S
N35 C36 1.335 1_455 S
N35 C40 1.304 1_545 S
N35 Zn41 2.020 1_545 S
C36 N35 1.335 1_655 S
C36 C37 1.379 . S
C36 H54 0.952 . S
C37 C36 1.379 . S
C37 C38 1.390 1_655 S
C37 H64 0.949 . S
C38 C37 1.390 1_455 S
C38 C39 1.357 1_545 S
C39 C38 1.357 1_565 S
C39 C40 1.370 . S
C39 H65 0.950 . S
C40 N35 1.304 1_565 S
C40 C39 1.370 . S
C40 H58 0.948 . S
Zn41 N35 2.020 1_565 S
Zn41 O50 2.039 1_465 S
Zn41 O56 2.034 1_565 S
Zn41 O60 2.025 . S
Zn41 O62 2.024 1_455 S
C42 O61 1.246 . S
C42 O62 1.249 . S
N43 C44 1.308 1_565 S
N43 C45 1.332 1_655 S
N43 Zn49 2.020 1_565 S
C44 N43 1.308 1_545 S
C44 C48 1.370 . S
C44 H55 0.948 . S
C45 N43 1.332 1_455 S
C45 C46 1.379 . S
C45 H53 0.952 . S
C46 C45 1.379 . S
C46 C47 1.390 1_455 S
C46 H66 0.949 . S
C47 C46 1.390 1_655 S
C47 C48 1.357 1_565 S
C48 C44 1.370 . S
C48 C47 1.357 1_545 S
C48 H67 0.950 . S
Zn49 N43 2.020 1_545 S
Zn49 O52 2.025 . S
Zn49 O57 2.024 1_655 S
Zn49 O59 2.039 1_645 S
Zn49 O61 2.034 1_545 S
O50 C34 1.251 . S
O50 Zn41 2.039 1_645 S
C51 O56 1.246 . S
C51 O57 1.249 . S
O52 C34 1.254 . S
O52 Zn49 2.025 . S
H53 C45 0.952 . S
H54 C36 0.952 . S
H55 C44 0.948 . S
O56 Zn41 2.034 1_545 S
O56 C51 1.246 . S
O57 Zn49 2.024 1_455 S
O57 C51 1.249 . S
H58 C40 0.948 . S
O59 Zn49 2.039 1_465 S
O59 C63 1.251 . S
O60 Zn41 2.025 . S
O60 C63 1.254 . S
O61 C42 1.246 . S
O61 Zn49 2.034 1_565 S
O62 Zn41 2.024 1_655 S
O62 C42 1.249 . S
C63 O59 1.251 . S
C63 O60 1.254 . S
H64 C37 0.949 . S
H65 C39 0.950 . S
H66 C46 0.949 . S
H67 C48 0.950 . S
C68 O84 1.251 1_554 S
C68 O86 1.254 . S
N69 C70 1.333 . S
N69 C74 1.307 . S
N69 Zn75 2.020 . S
C70 N69 1.333 . S
C70 C71 1.379 . S
C70 H88 0.952 . S
C71 C70 1.379 . S
C71 C72 1.390 . S
C71 H98 0.949 . S
C72 C71 1.390 . S
C72 C73 1.357 . S
C73 C72 1.357 . S
C73 C74 1.370 . S
C73 H99 0.950 . S
C74 N69 1.307 . S
C74 C73 1.370 . S
C74 H92 0.948 . S
Zn75 N69 2.020 . S
Zn75 O84 2.039 . S
Zn75 O90 2.034 . S
Zn75 O94 2.025 . S
Zn75 O96 2.024 . S
C76 O95 1.246 . S
C76 O96 1.249 1_554 S
N77 C78 1.307 . S
N77 C79 1.333 . S
N77 Zn83 2.020 . S
C78 N77 1.307 . S
C78 C82 1.370 . S
C78 H89 0.948 . S
C79 N77 1.333 . S
C79 C80 1.379 . S
C79 H87 0.952 . S
C80 C79 1.379 . S
C80 C81 1.390 . S
C80 H100 0.949 . S
C81 C80 1.390 . S
C81 C82 1.357 . S
C82 C78 1.370 . S
C82 C81 1.357 . S
C82 H101 0.950 . S
Zn83 N77 2.020 . S
Zn83 O86 2.025 . S
Zn83 O91 2.024 . S
Zn83 O93 2.039 . S
Zn83 O95 2.034 . S
O84 C68 1.251 1_556 S
O84 Zn75 2.039 . S
C85 O90 1.246 1_554 S
C85 O91 1.249 . S
O86 C68 1.254 . S
O86 Zn83 2.025 . S
H87 C79 0.952 . S
H88 C70 0.952 . S
H89 C78 0.948 . S
O90 Zn75 2.034 . S
O90 C85 1.246 1_556 S
O91 Zn83 2.024 . S
O91 C85 1.249 . S
H92 C74 0.948 . S
O93 Zn83 2.039 . S
O93 C97 1.251 . S
O94 Zn75 2.025 . S
O94 C97 1.254 1_556 S
O95 C76 1.246 . S
O95 Zn83 2.034 . S
O96 Zn75 2.024 . S
O96 C76 1.249 1_556 S
C97 O93 1.251 . S
C97 O94 1.254 1_554 S
H98 C71 0.949 . S
H99 C73 0.950 . S
H100 C80 0.949 . S
H101 C82 0.950 . S
C102 O118 1.251 . S
C102 O120 1.254 . S
N103 C104 1.333 . S
N103 C108 1.307 . S
N103 Zn109 2.020 . S
C104 N103 1.333 . S
C104 C105 1.379 . S
C104 H122 0.952 . S
C105 C104 1.379 . S
C105 C106 1.390 . S
C105 H132 0.949 . S
C106 C105 1.390 . S
C106 C107 1.357 . S
C107 C106 1.357 . S
C107 C108 1.370 . S
C107 H133 0.950 . S
C108 N103 1.307 . S
C108 C107 1.370 . S
C108 H126 0.948 . S
Zn109 N103 2.020 . S
Zn109 O118 2.039 . S
Zn109 O124 2.034 . S
Zn109 O128 2.025 . S
Zn109 O130 2.024 . S
C110 O129 1.246 . S
C110 O130 1.249 . S
N111 C112 1.307 . S
N111 C113 1.333 . S
N111 Zn117 2.020 . S
C112 N111 1.307 . S
C112 C116 1.370 . S
C112 H123 0.948 . S
C113 N111 1.333 . S
C113 C114 1.379 . S
C113 H121 0.952 . S
C114 C113 1.379 . S
C114 C115 1.390 . S
C114 H134 0.949 . S
C115 C114 1.390 . S
C115 C116 1.357 . S
C116 C112 1.370 . S
C116 C115 1.357 . S
C116 H135 0.950 . S
Zn117 N111 2.020 . S
Zn117 O120 2.025 . S
Zn117 O125 2.024 . S
Zn117 O127 2.039 . S
Zn117 O129 2.034 . S
O118 C102 1.251 . S
O118 Zn109 2.039 . S
C119 O124 1.246 . S
C119 O125 1.249 . S
O120 C102 1.254 . S
O120 Zn117 2.025 . S
H121 C113 0.952 . S
H122 C104 0.952 . S
H123 C112 0.948 . S
O124 Zn109 2.034 . S
O124 C119 1.246 . S
O125 Zn117 2.024 . S
O125 C119 1.249 . S
H126 C108 0.948 . S
O127 Zn117 2.039 . S
O127 C131 1.251 . S
O128 Zn109 2.025 . S
O128 C131 1.254 . S
O129 C110 1.246 . S
O129 Zn117 2.034 . S
O130 Zn109 2.024 . S
O130 C110 1.249 . S
C131 O127 1.251 . S
C131 O128 1.254 . S
H132 C105 0.949 . S
H133 C107 0.950 . S
H134 C114 0.949 . S
H135 C116 0.950 . S
H136 C154 0.951 . S
H137 C156 0.951 . S
H138 C158 0.950 . S
H139 C159 0.950 . S
H140 C161 0.950 . S
H141 C164 0.950 . S
H142 C165 0.950 . S
H143 C167 0.950 . S
H144 C168 0.950 1_556 S
H145 C169 0.951 . S
H146 C171 0.951 . S
H147 C173 0.950 . S
H148 C174 0.950 . S
H149 C176 0.950 . S
H150 C179 0.950 . S
H151 C180 0.950 . S
H152 C182 0.948 . S
H153 C183 0.950 . S
C154 H136 0.951 . S
C154 C155 1.366 1_556 S
C154 C156 1.388 . S
C155 C154 1.366 1_554 S
C155 C159 1.385 . S
C156 H137 0.951 . S
C156 C154 1.388 . S
C156 C157 1.366 1_556 S
C157 C156 1.366 1_554 S
C157 C158 1.414 . S
C157 C160 1.499 . S
C158 H138 0.950 . S
C158 C157 1.414 . S
C158 C159 1.374 . S
C159 H139 0.950 . S
C159 C155 1.385 . S
C159 C158 1.374 . S
C160 C157 1.499 . S
C160 C161 1.373 . S
C160 C162 1.389 . S
C161 H140 0.950 . S
C161 C160 1.373 . S
C161 C177 1.377 . S
C162 C160 1.389 . S
C162 C163 1.524 . S
C162 C176 1.377 . S
C163 C162 1.524 . S
C163 C164 1.397 . S
C163 C168 1.363 . S
C164 H141 0.950 . S
C164 C163 1.397 . S
C164 C165 1.334 . S
C165 H142 0.950 . S
C165 C164 1.334 . S
C165 C166 1.287 . S
C166 C165 1.287 . S
C166 C167 1.524 . S
C166 H185 0.913 . S
C167 H143 0.950 . S
C167 C166 1.524 . S
C167 C168 1.415 . S
C168 H144 0.950 1_554 S
C168 C163 1.363 . S
C168 C167 1.415 . S
C169 H145 0.951 . S
C169 C170 1.366 . S
C169 C171 1.388 . S
C170 C169 1.366 . S
C170 C174 1.385 1_554 S
C171 H146 0.951 . S
C171 C169 1.388 . S
C171 C172 1.366 . S
C172 C171 1.366 . S
C172 C173 1.414 1_554 S
C172 C175 1.499 . S
C173 H147 0.950 . S
C173 C172 1.414 1_556 S
C173 C174 1.374 . S
C174 H148 0.950 . S
C174 C170 1.385 1_556 S
C174 C173 1.374 . S
C175 C172 1.499 . S
C175 C176 1.373 . S
C175 C177 1.389 . S
C176 H149 0.950 . S
C176 C162 1.377 . S
C176 C175 1.373 . S
C177 C161 1.377 . S
C177 C175 1.389 . S
C177 C178 1.524 1_554 S
C178 C177 1.524 1_556 S
C178 C179 1.397 . S
C178 C183 1.363 1_556 S
C179 H150 0.950 . S
C179 C178 1.397 . S
C179 C180 1.334 1_455 S
C180 H151 0.950 . S
C180 C179 1.334 1_655 S
C180 C181 1.287 . S
C181 C180 1.287 . S
C181 C182 1.527 1_556 S
C181 H184 0.999 . S
C182 H152 0.948 . S
C182 C181 1.527 1_554 S
C182 C183 1.414 1_655 S
C183 H153 0.950 . S
C183 C178 1.363 1_554 S
C183 C182 1.414 1_455 S
H184 C181 0.999 . S
H185 C166 0.913 . S
H186 C204 0.951 1_556 S
H187 C206 0.942 1_556 S
H188 C208 0.950 . S
H189 C209 0.950 . S
H190 C211 0.947 1_556 S
H191 C214 0.950 . S
H192 C215 0.950 . S
H193 C217 0.950 . S
H194 C218 0.950 . S
H195 C219 0.951 1_455 S
H196 C221 0.951 . S
H197 C223 0.950 1_556 S
H198 C224 0.950 1_556 S
H199 C226 0.950 . S
H200 C229 0.950 . S
H201 C230 0.950 . S
H202 C232 0.950 . S
H203 C233 0.930 1_554 S
C204 H186 0.951 1_554 S
C204 C205 1.366 . S
C204 C206 1.388 . S
C205 C204 1.366 . S
C205 C209 1.385 . S
C206 H187 0.942 1_554 S
C206 C204 1.388 . S
C206 C207 1.366 . S
C207 C206 1.366 . S
C207 C208 1.414 . S
C207 C210 1.499 . S
C208 H188 0.950 . S
C208 C207 1.414 . S
C208 C209 1.374 . S
C209 H189 0.950 . S
C209 C205 1.385 . S
C209 C208 1.374 . S
C210 C207 1.499 . S
C210 C211 1.377 . S
C210 C212 1.389 . S
C211 H190 0.947 1_554 S
C211 C210 1.377 . S
C211 C227 1.376 1_554 S
C212 C210 1.389 . S
C212 C213 1.524 . S
C212 C226 1.377 . S
C213 C212 1.524 . S
C213 C214 1.397 . S
C213 C218 1.363 . S
C214 H191 0.950 . S
C214 C213 1.397 . S
C214 C215 1.334 . S
C215 H192 0.950 . S
C215 C214 1.334 . S
C215 C216 1.287 . S
C216 C215 1.287 . S
C216 C217 1.524 . S
C216 H235 0.913 . S
C217 H193 0.950 . S
C217 C216 1.524 . S
C217 C218 1.415 . S
C218 H194 0.950 . S
C218 C213 1.363 . S
C218 C217 1.415 . S
C219 H195 0.951 1_655 S
C219 C220 1.366 . S
C219 C221 1.388 . S
C220 C219 1.366 . S
C220 C224 1.385 . S
C221 H196 0.951 . S
C221 C219 1.388 . S
C221 C222 1.366 . S
C222 C221 1.366 . S
C222 C223 1.414 . S
C222 C225 1.499 . S
C223 H197 0.950 1_554 S
C223 C222 1.414 . S
C223 C224 1.374 . S
C224 H198 0.950 1_554 S
C224 C220 1.385 . S
C224 C223 1.374 . S
C225 C222 1.499 . S
C225 C226 1.373 . S
C225 C227 1.389 1_554 S
C226 H199 0.950 . S
C226 C212 1.377 . S
C226 C225 1.373 . S
C227 C211 1.376 1_556 S
C227 C225 1.389 1_556 S
C227 C228 1.524 . S
C228 C227 1.524 . S
C228 C229 1.397 . S
C228 C233 1.363 . S
C229 H200 0.950 . S
C229 C228 1.397 . S
C229 C230 1.334 . S
C230 H201 0.950 . S
C230 C229 1.334 . S
C230 C231 1.287 1_655 S
C231 C230 1.287 1_455 S
C231 C232 1.524 . S
C231 H234 0.999 . S
C232 H202 0.950 . S
C232 C231 1.524 . S
C232 C233 1.415 1_455 S
C233 H203 0.930 1_556 S
C233 C228 1.363 . S
C233 C232 1.415 1_655 S
H234 C231 0.999 . S
H235 C216 0.913 . S
H236 C254 0.951 . S
H237 C256 0.951 . S
H238 C258 0.950 . S
H239 C259 0.950 1_655 S
H240 C261 0.950 . S
H241 C264 0.950 . S
H242 C265 0.950 . S
H243 C267 0.950 . S
H244 C268 0.950 . S
H245 C269 0.951 . S
H246 C271 0.951 . S
H247 C273 0.950 . S
H248 C274 0.950 . S
H249 C276 0.950 . S
H250 C279 0.950 . S
H251 C280 0.950 . S
H252 C282 0.950 . S
H253 C283 0.950 . S
C254 H236 0.951 . S
C254 C255 1.366 . S
C254 C256 1.388 . S
C255 C254 1.366 . S
C255 C259 1.385 . S
C256 H237 0.951 . S
C256 C254 1.388 . S
C256 C257 1.366 . S
C257 C256 1.366 . S
C257 C258 1.414 . S
C257 C260 1.499 . S
C258 H238 0.950 . S
C258 C257 1.414 . S
C258 C259 1.374 . S
C259 H239 0.950 1_455 S
C259 C255 1.385 . S
C259 C258 1.374 . S
C260 C257 1.499 . S
C260 C261 1.373 . S
C260 C262 1.389 . S
C261 H240 0.950 . S
C261 C260 1.373 . S
C261 C277 1.377 . S
C262 C260 1.389 . S
C262 C263 1.524 . S
C262 C276 1.377 . S
C263 C262 1.524 . S
C263 C264 1.397 . S
C263 C268 1.363 . S
C264 H241 0.950 . S
C264 C263 1.397 . S
C264 C265 1.334 . S
C265 H242 0.950 . S
C265 C264 1.334 . S
C265 C266 1.287 . S
C266 C265 1.287 . S
C266 C267 1.524 . S
C266 H285 0.913 . S
C267 H243 0.950 . S
C267 C266 1.524 . S
C267 C268 1.415 . S
C268 H244 0.950 . S
C268 C263 1.363 . S
C268 C267 1.415 . S
C269 H245 0.951 . S
C269 C270 1.366 . S
C269 C271 1.388 . S
C270 C269 1.366 . S
C270 C274 1.385 . S
C271 H246 0.951 . S
C271 C269 1.388 . S
C271 C272 1.366 . S
C272 C271 1.366 . S
C272 C273 1.414 . S
C272 C275 1.499 . S
C273 H247 0.950 . S
C273 C272 1.414 . S
C273 C274 1.374 . S
C274 H248 0.950 . S
C274 C270 1.385 . S
C274 C273 1.374 . S
C275 C272 1.499 . S
C275 C276 1.373 . S
C275 C277 1.389 . S
C276 H249 0.950 . S
C276 C262 1.377 . S
C276 C275 1.373 . S
C277 C261 1.377 . S
C277 C275 1.389 . S
C277 C278 1.524 . S
C278 C277 1.524 . S
C278 C279 1.397 . S
C278 C283 1.363 . S
C279 H250 0.950 . S
C279 C278 1.397 . S
C279 C280 1.334 . S
C280 H251 0.950 . S
C280 C279 1.334 . S
C280 C281 1.287 . S
C281 C280 1.287 . S
C281 C282 1.524 . S
C281 H284 0.999 . S
C282 H252 0.950 . S
C282 C281 1.524 . S
C282 C283 1.415 . S
C283 H253 0.950 . S
C283 C278 1.363 . S
C283 C282 1.415 . S
H284 C281 0.999 . S
H285 C266 0.913 . S
H286 C304 0.951 . S
H287 C306 0.951 . S
H288 C308 0.950 . S
H289 C309 0.950 . S
H290 C311 0.950 . S
H291 C314 0.950 . S
H292 C315 0.950 . S
H293 C317 0.950 . S
H294 C318 0.950 . S
H295 C319 0.951 . S
H296 C321 0.951 . S
H297 C323 0.950 . S
H298 C324 0.950 . S
H299 C326 0.950 . S
H300 C329 0.950 . S
H301 C330 0.950 . S
H302 C332 0.950 . S
H303 C333 0.950 . S
C304 H286 0.951 . S
C304 C305 1.366 . S
C304 C306 1.388 . S
C305 C304 1.366 . S
C305 C309 1.385 . S
C306 H287 0.951 . S
C306 C304 1.388 . S
C306 C307 1.366 . S
C307 C306 1.366 . S
C307 C308 1.414 . S
C307 C310 1.499 . S
C308 H288 0.950 . S
C308 C307 1.414 . S
C308 C309 1.374 . S
C309 H289 0.950 . S
C309 C305 1.385 . S
C309 C308 1.374 . S
C310 C307 1.499 . S
C310 C311 1.373 . S
C310 C312 1.389 . S
C311 H290 0.950 . S
C311 C310 1.373 . S
C311 C327 1.377 . S
C312 C310 1.389 . S
C312 C313 1.524 . S
C312 C326 1.377 . S
C313 C312 1.524 . S
C313 C314 1.397 . S
C313 C318 1.363 . S
C314 H291 0.950 . S
C314 C313 1.397 . S
C314 C315 1.334 . S
C315 H292 0.950 . S
C315 C314 1.334 . S
C315 C316 1.287 . S
C316 C315 1.287 . S
C316 C317 1.524 . S
C316 H335 0.913 . S
C317 H293 0.950 . S
C317 C316 1.524 . S
C317 C318 1.415 . S
C318 H294 0.950 . S
C318 C313 1.363 . S
C318 C317 1.415 . S
C319 H295 0.951 . S
C319 C320 1.366 . S
C319 C321 1.388 . S
C320 C319 1.366 . S
C320 C324 1.385 . S
C321 H296 0.951 . S
C321 C319 1.388 . S
C321 C322 1.366 . S
C322 C321 1.366 . S
C322 C323 1.414 . S
C322 C325 1.499 . S
C323 H297 0.950 . S
C323 C322 1.414 . S
C323 C324 1.374 . S
C324 H298 0.950 . S
C324 C320 1.385 . S
C324 C323 1.374 . S
C325 C322 1.499 . S
C325 C326 1.373 . S
C325 C327 1.389 . S
C326 H299 0.950 . S
C326 C312 1.377 . S
C326 C325 1.373 . S
C327 C311 1.377 . S
C327 C325 1.389 . S
C327 C328 1.524 . S
C328 C327 1.524 . S
C328 C329 1.397 . S
C328 C333 1.363 . S
C329 H300 0.950 . S
C329 C328 1.397 . S
C329 C330 1.334 . S
C330 H301 0.950 . S
C330 C329 1.334 . S
C330 C331 1.287 . S
C331 C330 1.287 . S
C331 C332 1.524 . S
C331 H334 0.999 . S
C332 H302 0.950 . S
C332 C331 1.524 . S
C332 C333 1.415 . S
C333 H303 0.950 . S
C333 C328 1.363 . S
C333 C332 1.415 . S
H334 C331 0.999 . S
H335 C316 0.913 . S
H336 C354 0.951 . S
H337 C356 0.951 . S
H338 C358 0.957 . S
H339 C359 0.950 1_565 S
H340 C361 0.950 . S
H341 C364 0.950 . S
H342 C365 0.950 . S
H343 C367 0.950 . S
H344 C368 0.950 . S
H345 C369 0.951 . S
H346 C371 0.951 . S
H347 C373 0.959 . S
H348 C374 0.950 1_545 S
H349 C376 0.950 . S
H350 C379 0.950 . S
H351 C380 0.950 . S
H352 C382 0.950 . S
H353 C383 0.950 . S
C354 H336 0.951 . S
C354 C355 1.366 1_556 S
C354 C356 1.388 . S
C355 C354 1.366 1_554 S
C355 C359 1.385 . S
C356 H337 0.951 . S
C356 C354 1.388 . S
C356 C357 1.366 1_556 S
C357 C356 1.366 1_554 S
C357 C358 1.410 1_545 S
C357 C360 1.499 . S
C358 H338 0.957 . S
C358 C357 1.410 1_565 S
C358 C359 1.371 1_565 S
C359 H339 0.950 1_545 S
C359 C355 1.385 . S
C359 C358 1.371 1_545 S
C360 C357 1.499 . S
C360 C361 1.373 . S
C360 C362 1.389 1_544 S
C361 H340 0.950 . S
C361 C360 1.373 . S
C361 C377 1.377 . S
C362 C360 1.389 1_566 S
C362 C363 1.524 . S
C362 C376 1.377 . S
C363 C362 1.524 . S
C363 C364 1.397 . S
C363 C368 1.363 . S
C364 H341 0.950 . S
C364 C363 1.397 . S
C364 C365 1.334 . S
C365 H342 0.950 . S
C365 C364 1.334 . S
C365 C366 1.287 . S
C366 C365 1.287 . S
C366 C367 1.524 . S
C366 H385 0.913 . S
C367 H343 0.950 . S
C367 C366 1.524 . S
C367 C368 1.415 . S
C368 H344 0.950 . S
C368 C363 1.363 . S
C368 C367 1.415 . S
C369 H345 0.951 . S
C369 C370 1.366 . S
C369 C371 1.388 . S
C370 C369 1.366 . S
C370 C374 1.385 1_554 S
C371 H346 0.951 . S
C371 C369 1.388 . S
C371 C372 1.366 . S
C372 C371 1.366 . S
C372 C373 1.409 1_564 S
C372 C375 1.499 . S
C373 H347 0.959 . S
C373 C372 1.409 1_546 S
C373 C374 1.371 1_545 S
C374 H348 0.950 1_565 S
C374 C370 1.385 1_556 S
C374 C373 1.371 1_565 S
C375 C372 1.499 . S
C375 C376 1.373 1_554 S
C375 C377 1.389 1_565 S
C376 H349 0.950 . S
C376 C362 1.377 . S
C376 C375 1.373 1_556 S
C377 C361 1.377 . S
C377 C375 1.389 1_545 S
C377 C378 1.524 . S
C378 C377 1.524 . S
C378 C379 1.397 . S
C378 C383 1.363 . S
C379 H350 0.950 . S
C379 C378 1.397 . S
C379 C380 1.334 . S
C380 H351 0.950 . S
C380 C379 1.334 . S
C380 C381 1.287 . S
C381 C380 1.287 . S
C381 C382 1.524 . S
C381 H384 0.999 . S
C382 H352 0.950 . S
C382 C381 1.524 . S
C382 C383 1.415 . S
C383 H353 0.950 . S
C383 C378 1.363 . S
C383 C382 1.415 . S
H384 C381 0.999 . S
H385 C366 0.913 . S
H386 C404 0.951 . S
H387 C406 0.951 . S
H388 C408 0.950 . S
H389 C409 0.950 . S
H390 C411 0.950 . S
H391 C414 0.950 . S
H392 C415 0.950 . S
H393 C417 0.950 . S
H394 C418 0.950 . S
H395 C419 0.951 . S
H396 C421 0.951 . S
H397 C423 0.950 . S
H398 C424 0.950 . S
H399 C426 0.950 . S
H400 C429 0.950 . S
H401 C430 0.950 . S
H402 C432 0.950 . S
H403 C433 0.950 . S
C404 H386 0.951 . S
C404 C405 1.366 . S
C404 C406 1.388 . S
C405 C404 1.366 . S
C405 C409 1.385 1_565 S
C406 H387 0.951 . S
C406 C404 1.388 . S
C406 C407 1.366 . S
C407 C406 1.366 . S
C407 C408 1.414 1_565 S
C407 C410 1.499 . S
C408 H388 0.950 . S
C408 C407 1.414 1_545 S
C408 C409 1.374 . S
C409 H389 0.950 . S
C409 C405 1.385 1_545 S
C409 C408 1.374 . S
C410 C407 1.499 . S
C410 C411 1.373 1_565 S
C410 C412 1.389 . S
C411 H390 0.950 . S
C411 C410 1.373 1_545 S
C411 C427 1.377 . S
C412 C410 1.389 . S
C412 C413 1.524 . S
C412 C426 1.377 . S
C413 C412 1.524 . S
C413 C414 1.397 . S
C413 C418 1.363 . S
C414 H391 0.950 . S
C414 C413 1.397 . S
C414 C415 1.334 . S
C415 H392 0.950 . S
C415 C414 1.334 . S
C415 C416 1.287 . S
C416 C415 1.287 . S
C416 C417 1.524 . S
C416 H435 0.913 . S
C417 H393 0.950 . S
C417 C416 1.524 . S
C417 C418 1.415 . S
C418 H394 0.950 . S
C418 C413 1.363 . S
C418 C417 1.415 . S
C419 H395 0.951 . S
C419 C420 1.366 . S
C419 C421 1.388 . S
C420 C419 1.366 . S
C420 C424 1.385 1_545 S
C421 H396 0.951 . S
C421 C419 1.388 . S
C421 C422 1.366 . S
C422 C421 1.366 . S
C422 C423 1.414 1_545 S
C422 C425 1.499 . S
C423 H397 0.950 . S
C423 C422 1.414 1_565 S
C423 C424 1.374 . S
C424 H398 0.950 . S
C424 C420 1.385 1_565 S
C424 C423 1.374 . S
C425 C422 1.499 . S
C425 C426 1.373 1_545 S
C425 C427 1.389 . S
C426 H399 0.950 . S
C426 C412 1.377 . S
C426 C425 1.373 1_565 S
C427 C411 1.377 . S
C427 C425 1.389 . S
C427 C428 1.524 . S
C428 C427 1.524 . S
C428 C429 1.397 . S
C428 C433 1.363 . S
C429 H400 0.950 . S
C429 C428 1.397 . S
C429 C430 1.334 . S
C430 H401 0.950 . S
C430 C429 1.334 . S
C430 C431 1.287 . S
C431 C430 1.287 . S
C431 C432 1.524 . S
C431 H434 0.999 . S
C432 H402 0.950 . S
C432 C431 1.524 . S
C432 C433 1.415 . S
C433 H403 0.950 . S
C433 C428 1.363 . S
C433 C432 1.415 . S
H434 C431 0.999 . S
H435 C416 0.913 . S
H436 C454 0.951 . S
H437 C456 0.951 . S
H438 C458 0.950 . S
H439 C459 0.950 . S
H440 C461 0.950 . S
H441 C464 0.950 . S
H442 C465 0.950 . S
H443 C467 0.950 . S
H444 C468 0.950 . S
H445 C469 0.951 . S
H446 C471 0.951 . S
H447 C473 0.950 . S
H448 C474 0.950 . S
H449 C476 0.950 . S
H450 C479 0.950 . S
H451 C480 0.950 . S
H452 C482 0.950 . S
H453 C483 0.950 . S
C454 H436 0.951 . S
C454 C455 1.366 . S
C454 C456 1.388 . S
C455 C454 1.366 . S
C455 C459 1.385 1_554 S
C456 H437 0.951 . S
C456 C454 1.388 . S
C456 C457 1.366 . S
C457 C456 1.366 . S
C457 C458 1.414 1_554 S
C457 C460 1.499 . S
C458 H438 0.950 . S
C458 C457 1.414 1_556 S
C458 C459 1.374 . S
C459 H439 0.950 . S
C459 C455 1.385 1_556 S
C459 C458 1.374 . S
C460 C457 1.499 . S
C460 C461 1.373 1_554 S
C460 C462 1.389 . S
C461 H440 0.950 . S
C461 C460 1.373 1_556 S
C461 C477 1.377 1_655 S
C462 C460 1.389 . S
C462 C463 1.524 . S
C462 C476 1.377 1_655 S
C463 C462 1.524 . S
C463 C464 1.397 . S
C463 C468 1.363 . S
C464 H441 0.950 . S
C464 C463 1.397 . S
C464 C465 1.334 . S
C465 H442 0.950 . S
C465 C464 1.334 . S
C465 C466 1.287 . S
C466 C465 1.287 . S
C466 C467 1.524 . S
C466 H485 0.913 . S
C467 H443 0.950 . S
C467 C466 1.524 . S
C467 C468 1.415 . S
C468 H444 0.950 . S
C468 C463 1.363 . S
C468 C467 1.415 . S
C469 H445 0.951 . S
C469 C470 1.366 1_556 S
C469 C471 1.388 . S
C470 C469 1.366 1_554 S
C470 C474 1.385 . S
C471 H446 0.951 . S
C471 C469 1.388 . S
C471 C472 1.366 1_556 S
C472 C471 1.366 1_554 S
C472 C473 1.414 . S
C472 C475 1.499 . S
C473 H447 0.950 . S
C473 C472 1.414 . S
C473 C474 1.374 . S
C474 H448 0.950 . S
C474 C470 1.385 . S
C474 C473 1.374 . S
C475 C472 1.499 . S
C475 C476 1.373 . S
C475 C477 1.389 1_554 S
C476 H449 0.950 . S
C476 C462 1.377 1_455 S
C476 C475 1.373 . S
C477 C461 1.377 1_455 S
C477 C475 1.389 1_556 S
C477 C478 1.524 . S
C478 C477 1.524 . S
C478 C479 1.397 . S
C478 C483 1.363 . S
C479 H450 0.950 . S
C479 C478 1.397 . S
C479 C480 1.334 . S
C480 H451 0.950 . S
C480 C479 1.334 . S
C480 C481 1.287 . S
C481 C480 1.287 . S
C481 C482 1.524 . S
C481 H484 0.999 . S
C482 H452 0.950 . S
C482 C481 1.524 . S
C482 C483 1.415 . S
C483 H453 0.950 . S
C483 C478 1.363 . S
C483 C482 1.415 . S
H484 C481 0.999 . S
H485 C466 0.913 . S
H486 C504 0.951 . S
H487 C506 0.951 . S
H488 C508 0.950 . S
H489 C509 0.950 . S
H490 C511 0.950 . S
H491 C514 0.950 . S
H492 C515 0.950 . S
H493 C517 0.950 . S
H494 C518 0.950 1_655 S
H495 C519 0.951 . S
H496 C521 0.951 . S
H497 C523 0.950 . S
H498 C524 0.950 . S
H499 C526 0.950 . S
H500 C529 0.950 . S
H501 C530 0.950 . S
H502 C532 0.950 . S
H503 C533 0.950 1_455 S
C504 H486 0.951 . S
C504 C505 1.366 . S
C504 C506 1.388 . S
C505 C504 1.366 . S
C505 C509 1.385 . S
C506 H487 0.951 . S
C506 C504 1.388 . S
C506 C507 1.366 . S
C507 C506 1.366 . S
C507 C508 1.414 . S
C507 C510 1.499 . S
C508 H488 0.950 . S
C508 C507 1.414 . S
C508 C509 1.374 . S
C509 H489 0.950 . S
C509 C505 1.385 . S
C509 C508 1.374 . S
C510 C507 1.499 . S
C510 C511 1.373 . S
C510 C512 1.389 . S
C511 H490 0.950 . S
C511 C510 1.373 . S
C511 C527 1.377 1_455 S
C512 C510 1.389 . S
C512 C513 1.524 . S
C512 C526 1.377 1_455 S
C513 C512 1.524 . S
C513 C514 1.397 . S
C513 C518 1.363 . S
C514 H491 0.950 . S
C514 C513 1.397 . S
C514 C515 1.334 . S
C515 H492 0.950 . S
C515 C514 1.334 . S
C515 C516 1.287 . S
C516 C515 1.287 . S
C516 C517 1.524 . S
C516 H535 0.913 . S
C517 H493 0.950 . S
C517 C516 1.524 . S
C517 C518 1.415 . S
C518 H494 0.950 1_455 S
C518 C513 1.363 . S
C518 C517 1.415 . S
C519 H495 0.951 . S
C519 C520 1.366 . S
C519 C521 1.388 . S
C520 C519 1.366 . S
C520 C524 1.385 . S
C521 H496 0.951 . S
C521 C519 1.388 . S
C521 C522 1.366 . S
C522 C521 1.366 . S
C522 C523 1.414 . S
C522 C525 1.499 . S
C523 H497 0.950 . S
C523 C522 1.414 . S
C523 C524 1.374 . S
C524 H498 0.950 . S
C524 C520 1.385 . S
C524 C523 1.374 . S
C525 C522 1.499 . S
C525 C526 1.373 . S
C525 C527 1.389 . S
C526 H499 0.950 . S
C526 C512 1.377 1_655 S
C526 C525 1.373 . S
C527 C511 1.377 1_655 S
C527 C525 1.389 . S
C527 C528 1.524 . S
C528 C527 1.524 . S
C528 C529 1.397 . S
C528 C533 1.363 . S
C529 H500 0.950 . S
C529 C528 1.397 . S
C529 C530 1.334 . S
C530 H501 0.950 . S
C530 C529 1.334 . S
C530 C531 1.287 . S
C531 C530 1.287 . S
C531 C532 1.524 . S
C531 H534 0.999 . S
C532 H502 0.950 . S
C532 C531 1.524 . S
C532 C533 1.415 . S
C533 H503 0.950 1_655 S
C533 C528 1.363 . S
C533 C532 1.415 . S
H534 C531 0.999 . S
H535 C516 0.913 . S
H536 C554 0.951 . S
H537 C556 0.951 . S
H538 C558 0.950 . S
H539 C559 0.950 . S
H540 C561 0.950 . S
H541 C564 0.950 . S
H542 C565 0.950 . S
H543 C567 0.950 . S
H544 C568 0.950 . S
H545 C569 0.951 . S
H546 C571 0.951 . S
H547 C573 0.950 . S
H548 C574 0.950 . S
H549 C576 0.950 . S
H550 C579 0.950 . S
H551 C580 0.950 . S
H552 C582 0.950 . S
H553 C583 0.950 . S
C554 H536 0.951 . S
C554 C555 1.366 . S
C554 C556 1.388 . S
C555 C554 1.366 . S
C555 C559 1.385 1_465 S
C556 H537 0.951 . S
C556 C554 1.388 . S
C556 C557 1.366 . S
C557 C556 1.366 . S
C557 C558 1.414 1_465 S
C557 C560 1.499 1_455 S
C558 H538 0.950 . S
C558 C557 1.414 1_645 S
C558 C559 1.374 . S
C559 H539 0.950 . S
C559 C555 1.385 1_645 S
C559 C558 1.374 . S
C560 C557 1.499 1_655 S
C560 C561 1.384 . S
C560 C562 1.381 1_665 S
C561 H540 0.950 . S
C561 C560 1.384 . S
C561 C577 1.377 . S
C562 C560 1.381 1_445 S
C562 C563 1.524 . S
C562 C576 1.377 . S
C563 C562 1.524 . S
C563 C564 1.397 . S
C563 C568 1.363 . S
C564 H541 0.950 . S
C564 C563 1.397 . S
C564 C565 1.334 . S
C565 H542 0.950 . S
C565 C564 1.334 . S
C565 C566 1.287 . S
C566 C565 1.287 . S
C566 C567 1.524 . S
C566 H585 0.913 . S
C567 H543 0.950 . S
C567 C566 1.524 . S
C567 C568 1.415 . S
C568 H544 0.950 . S
C568 C563 1.363 . S
C568 C567 1.415 . S
C569 H545 0.951 . S
C569 C570 1.374 1_545 S
C569 C571 1.388 . S
C570 C569 1.374 1_565 S
C570 C574 1.376 1_655 S
C571 H546 0.951 . S
C571 C569 1.388 . S
C571 C572 1.366 1_545 S
C572 C571 1.366 1_565 S
C572 C573 1.414 1_655 S
C572 C575 1.499 1_655 S
C573 H547 0.950 . S
C573 C572 1.414 1_455 S
C573 C574 1.374 . S
C574 H548 0.950 . S
C574 C570 1.376 1_455 S
C574 C573 1.374 . S
C575 C572 1.499 1_455 S
C575 C576 1.379 1_565 S
C575 C577 1.384 1_455 S
C576 H549 0.950 . S
C576 C562 1.377 . S
C576 C575 1.379 1_545 S
C577 C561 1.377 . S
C577 C575 1.384 1_655 S
C577 C578 1.524 . S
C578 C577 1.524 . S
C578 C579 1.397 . S
C578 C583 1.363 . S
C579 H550 0.950 . S
C579 C578 1.397 . S
C579 C580 1.334 . S
C580 H551 0.950 . S
C580 C579 1.334 . S
C580 C581 1.287 . S
C581 C580 1.287 . S
C581 C582 1.524 . S
C581 H584 0.999 . S
C582 H552 0.950 . S
C582 C581 1.524 . S
C582 C583 1.415 . S
C583 H553 0.950 . S
C583 C578 1.363 . S
C583 C582 1.415 . S
H584 C581 0.999 . S
H585 C566 0.913 . S
H586 C604 0.951 . S
H587 C606 0.951 . S
H588 C608 0.950 . S
H589 C609 0.950 . S
H590 C611 0.950 . S
H591 C614 0.950 . S
H592 C615 0.950 . S
H593 C617 0.950 . S
H594 C618 0.950 1_455 S
H595 C619 0.951 . S
H596 C621 0.951 . S
H597 C623 0.950 . S
H598 C624 0.950 . S
H599 C626 0.950 . S
H600 C629 0.950 . S
H601 C630 0.950 . S
H602 C632 0.950 . S
H603 C633 0.950 1_655 S
C604 H586 0.951 . S
C604 C605 1.366 . S
C604 C606 1.388 . S
C605 C604 1.366 . S
C605 C609 1.385 1_445 S
C606 H587 0.951 . S
C606 C604 1.388 . S
C606 C607 1.366 1_455 S
C607 C606 1.366 1_655 S
C607 C608 1.414 1_545 S
C607 C610 1.499 . S
C608 H588 0.950 . S
C608 C607 1.414 1_565 S
C608 C609 1.374 . S
C609 H589 0.950 . S
C609 C605 1.385 1_665 S
C609 C608 1.374 . S
C610 C607 1.499 . S
C610 C611 1.373 1_645 S
C610 C612 1.389 . S
C611 H590 0.950 . S
C611 C610 1.373 1_465 S
C611 C627 1.377 . S
C612 C610 1.389 . S
C612 C613 1.524 . S
C612 C626 1.377 . S
C613 C612 1.524 . S
C613 C614 1.397 . S
C613 C618 1.363 . S
C614 H591 0.950 . S
C614 C613 1.397 . S
C614 C615 1.334 . S
C615 H592 0.950 . S
C615 C614 1.334 . S
C615 C616 1.287 . S
C616 C615 1.287 . S
C616 C617 1.524 . S
C616 H635 0.913 . S
C617 H593 0.950 . S
C617 C616 1.524 . S
C617 C618 1.415 . S
C618 H594 0.950 1_655 S
C618 C613 1.363 . S
C618 C617 1.415 . S
C619 H595 0.951 . S
C619 C620 1.372 1_565 S
C619 C621 1.388 . S
C620 C619 1.372 1_545 S
C620 C624 1.379 1_655 S
C621 H596 0.951 . S
C621 C619 1.388 . S
C621 C622 1.366 1_665 S
C622 C621 1.366 1_445 S
C622 C623 1.414 . S
C622 C625 1.499 . S
C623 H597 0.950 . S
C623 C622 1.414 . S
C623 C624 1.374 . S
C624 H598 0.950 . S
C624 C620 1.379 1_455 S
C624 C623 1.374 . S
C625 C622 1.499 . S
C625 C626 1.373 1_455 S
C625 C627 1.389 1_545 S
C626 H599 0.950 . S
C626 C612 1.377 . S
C626 C625 1.373 1_655 S
C627 C611 1.377 . S
C627 C625 1.389 1_565 S
C627 C628 1.524 . S
C628 C627 1.524 . S
C628 C629 1.397 . S
C628 C633 1.363 . S
C629 H600 0.950 . S
C629 C628 1.397 . S
C629 C630 1.334 . S
C630 H601 0.950 . S
C630 C629 1.334 . S
C630 C631 1.287 . S
C631 C630 1.287 . S
C631 C632 1.524 . S
C631 H634 0.999 . S
C632 H602 0.950 . S
C632 C631 1.524 . S
C632 C633 1.415 . S
C633 H603 0.950 1_455 S
C633 C628 1.363 . S
C633 C632 1.415 . S
H634 C631 0.999 . S
H635 C616 0.913 . S
H636 C654 0.951 . S
H637 C656 0.951 . S
H638 C658 0.950 . S
H639 C659 0.950 . S
H640 C661 0.950 . S
H641 C664 0.950 . S
H642 C665 0.950 . S
H643 C667 0.950 . S
H644 C668 0.950 . S
H645 C669 0.951 . S
H646 C671 0.951 . S
H647 C673 0.950 . S
H648 C674 0.950 . S
H649 C676 0.950 . S
H650 C679 0.950 . S
H651 C680 0.950 . S
H652 C682 0.950 . S
H653 C683 0.950 . S
C654 H636 0.951 . S
C654 C655 1.366 . S
C654 C656 1.388 . S
C655 C654 1.366 . S
C655 C659 1.385 . S
C656 H637 0.951 . S
C656 C654 1.388 . S
C656 C657 1.366 . S
C657 C656 1.366 . S
C657 C658 1.414 . S
C657 C660 1.499 . S
C658 H638 0.950 . S
C658 C657 1.414 . S
C658 C659 1.374 . S
C659 H639 0.950 . S
C659 C655 1.385 . S
C659 C658 1.374 . S
C660 C657 1.499 . S
C660 C661 1.373 . S
C660 C662 1.389 . S
C661 H640 0.950 . S
C661 C660 1.373 . S
C661 C677 1.377 . S
C662 C660 1.389 . S
C662 C663 1.524 . S
C662 C676 1.377 . S
C663 C662 1.524 . S
C663 C664 1.397 . S
C663 C668 1.363 . S
C664 H641 0.950 . S
C664 C663 1.397 . S
C664 C665 1.334 . S
C665 H642 0.950 . S
C665 C664 1.334 . S
C665 C666 1.287 . S
C666 C665 1.287 . S
C666 C667 1.524 . S
C666 H685 0.913 . S
C667 H643 0.950 . S
C667 C666 1.524 . S
C667 C668 1.415 . S
C668 H644 0.950 . S
C668 C663 1.363 . S
C668 C667 1.415 . S
C669 H645 0.951 . S
C669 C670 1.366 . S
C669 C671 1.388 . S
C670 C669 1.366 . S
C670 C674 1.385 . S
C671 H646 0.951 . S
C671 C669 1.388 . S
C671 C672 1.366 . S
C672 C671 1.366 . S
C672 C673 1.414 . S
C672 C675 1.499 . S
C673 H647 0.950 . S
C673 C672 1.414 . S
C673 C674 1.374 . S
C674 H648 0.950 . S
C674 C670 1.385 . S
C674 C673 1.374 . S
C675 C672 1.499 . S
C675 C676 1.373 . S
C675 C677 1.389 . S
C676 H649 0.950 . S
C676 C662 1.377 . S
C676 C675 1.373 . S
C677 C661 1.377 . S
C677 C675 1.389 . S
C677 C678 1.524 . S
C678 C677 1.524 . S
C678 C679 1.397 . S
C678 C683 1.363 . S
C679 H650 0.950 . S
C679 C678 1.397 . S
C679 C680 1.334 . S
C680 H651 0.950 . S
C680 C679 1.334 . S
C680 C681 1.287 . S
C681 C680 1.287 . S
C681 C682 1.524 . S
C681 H684 0.999 . S
C682 H652 0.950 . S
C682 C681 1.524 . S
C682 C683 1.415 . S
C683 H653 0.950 . S
C683 C678 1.363 . S
C683 C682 1.415 . S
H684 C681 0.999 . S
H685 C666 0.913 . S
H686 C704 0.951 . S
H687 C706 0.951 . S
H688 C708 0.950 . S
H689 C709 0.950 . S
H690 C711 0.950 . S
H691 C714 0.950 . S
H692 C715 0.950 . S
H693 C717 0.950 . S
H694 C718 0.950 . S
H695 C719 0.951 . S
H696 C721 0.951 . S
H697 C723 0.950 . S
H698 C724 0.950 . S
H699 C726 0.950 . S
H700 C729 0.950 . S
H701 C730 0.950 . S
H702 C732 0.950 . S
H703 C733 0.950 . S
C704 H686 0.951 . S
C704 C705 1.366 . S
C704 C706 1.388 . S
C705 C704 1.366 . S
C705 C709 1.385 . S
C706 H687 0.951 . S
C706 C704 1.388 . S
C706 C707 1.366 . S
C707 C706 1.366 . S
C707 C708 1.414 . S
C707 C710 1.499 . S
C708 H688 0.950 . S
C708 C707 1.414 . S
C708 C709 1.374 . S
C709 H689 0.950 . S
C709 C705 1.385 . S
C709 C708 1.374 . S
C710 C707 1.499 . S
C710 C711 1.373 . S
C710 C712 1.389 . S
C711 H690 0.950 . S
C711 C710 1.373 . S
C711 C727 1.377 . S
C712 C710 1.389 . S
C712 C713 1.524 . S
C712 C726 1.377 . S
C713 C712 1.524 . S
C713 C714 1.397 . S
C713 C718 1.363 . S
C714 H691 0.950 . S
C714 C713 1.397 . S
C714 C715 1.334 . S
C715 H692 0.950 . S
C715 C714 1.334 . S
C715 C716 1.287 . S
C716 C715 1.287 . S
C716 C717 1.524 . S
C716 H735 0.913 . S
C717 H693 0.950 . S
C717 C716 1.524 . S
C717 C718 1.415 . S
C718 H694 0.950 . S
C718 C713 1.363 . S
C718 C717 1.415 . S
C719 H695 0.951 . S
C719 C720 1.366 . S
C719 C721 1.388 . S
C720 C719 1.366 . S
C720 C724 1.385 . S
C721 H696 0.951 . S
C721 C719 1.388 . S
C721 C722 1.366 . S
C722 C721 1.366 . S
C722 C723 1.414 . S
C722 C725 1.499 . S
C723 H697 0.950 . S
C723 C722 1.414 . S
C723 C724 1.374 . S
C724 H698 0.950 . S
C724 C720 1.385 . S
C724 C723 1.374 . S
C725 C722 1.499 . S
C725 C726 1.373 . S
C725 C727 1.389 . S
C726 H699 0.950 . S
C726 C712 1.377 . S
C726 C725 1.373 . S
C727 C711 1.377 . S
C727 C725 1.389 . S
C727 C728 1.524 . S
C728 C727 1.524 . S
C728 C729 1.397 . S
C728 C733 1.363 . S
C729 H700 0.950 . S
C729 C728 1.397 . S
C729 C730 1.334 . S
C730 H701 0.950 . S
C730 C729 1.334 . S
C730 C731 1.287 . S
C731 C730 1.287 . S
C731 C732 1.524 . S
C731 H734 0.999 . S
C732 H702 0.950 . S
C732 C731 1.524 . S
C732 C733 1.415 . S
C733 H703 0.950 . S
C733 C728 1.363 . S
C733 C732 1.415 . S
H734 C731 0.999 . S
H735 C716 0.913 . S
C155 C85 1.580 . S
C170 C8 1.582 . S
C205 C76 1.580 . S
C220 C17 1.578 . S
C255 C51 1.580 . S
C270 C110 1.578 . S
C305 C42 1.580 . S
C320 C119 1.582 . S
C355 C0 0.552 . S
C370 C29 0.552 . S
C405 C63 0.551 . S
C420 C34 0.551 . S
C455 C68 0.551 . S
C470 C97 0.550 . S
C505 C102 0.550 . S
C520 C131 0.550 . S
C555 C47 1.499 1_455 S
C570 C13 1.498 1_655 S
C605 C4 1.499 1_455 S
C620 C38 1.497 1_655 S
C655 C115 1.499 . S
C670 C81 1.499 . S
C705 C106 1.499 . S
C720 C72 1.499 . S
