# Generated by pormake.
# Topology umz, (4)-cn, num edge types: 1
# Building blocks:
#     Node 0, Type 0, BuildingBlock: CEKHIL_clean_sbu_0, # of connection points: 4
#     Node 1, Type 0, BuildingBlock: CEKHIL_clean_sbu_0, # of connection points: 4
#     Node 2, Type 0, BuildingBlock: CEKHIL_clean_sbu_0, # of connection points: 4
#     Node 3, Type 0, BuildingBlock: CEKHIL_clean_sbu_0, # of connection points: 4
#     Node 4, Type 0, BuildingBlock: CEKHIL_clean_sbu_0, # of connection points: 4
#     Node 5, Type 0, BuildingBlock: CEKHIL_clean_sbu_0, # of connection points: 4
#     Node 6, Type 0, BuildingBlock: CEKHIL_clean_sbu_0, # of connection points: 4
#     Node 7, Type 0, BuildingBlock: CEKHIL_clean_sbu_0, # of connection points: 4
#     Node 8, Type 0, BuildingBlock: CEKHIL_clean_sbu_0, # of connection points: 4
#     Node 9, Type 0, BuildingBlock: CEKHIL_clean_sbu_0, # of connection points: 4
#     Node 10, Type 0, BuildingBlock: CEKHIL_clean_sbu_0, # of connection points: 4
#     Node 11, Type 0, BuildingBlock: CEKHIL_clean_sbu_0, # of connection points: 4
#     Node 12, Type 0, BuildingBlock: CEKHIL_clean_sbu_0, # of connection points: 4
#     Node 13, Type 0, BuildingBlock: CEKHIL_clean_sbu_0, # of connection points: 4
#     Node 14, Type 0, BuildingBlock: CEKHIL_clean_sbu_0, # of connection points: 4
#     Node 15, Type 0, BuildingBlock: CEKHIL_clean_sbu_0, # of connection points: 4
#     Edge 16, Type (0, 0), BuildingBlock: MIFKUJ_clean_linker_0, # of connection points: 2
#     Edge 17, Type (0, 0), BuildingBlock: MIFKUJ_clean_linker_0, # of connection points: 2
#     Edge 18, Type (0, 0), BuildingBlock: MIFKUJ_clean_linker_0, # of connection points: 2
#     Edge 19, Type (0, 0), BuildingBlock: MIFKUJ_clean_linker_0, # of connection points: 2
#     Edge 20, Type (0, 0), BuildingBlock: MIFKUJ_clean_linker_0, # of connection points: 2
#     Edge 21, Type (0, 0), BuildingBlock: MIFKUJ_clean_linker_0, # of connection points: 2
#     Edge 22, Type (0, 0), BuildingBlock: MIFKUJ_clean_linker_0, # of connection points: 2
#     Edge 23, Type (0, 0), BuildingBlock: MIFKUJ_clean_linker_0, # of connection points: 2
#     Edge 24, Type (0, 0), BuildingBlock: MIFKUJ_clean_linker_0, # of connection points: 2
#     Edge 25, Type (0, 0), BuildingBlock: MIFKUJ_clean_linker_0, # of connection points: 2
#     Edge 26, Type (0, 0), BuildingBlock: MIFKUJ_clean_linker_0, # of connection points: 2
#     Edge 27, Type (0, 0), BuildingBlock: MIFKUJ_clean_linker_0, # of connection points: 2
#     Edge 28, Type (0, 0), BuildingBlock: MIFKUJ_clean_linker_0, # of connection points: 2
#     Edge 29, Type (0, 0), BuildingBlock: MIFKUJ_clean_linker_0, # of connection points: 2
#     Edge 30, Type (0, 0), BuildingBlock: MIFKUJ_clean_linker_0, # of connection points: 2
#     Edge 31, Type (0, 0), BuildingBlock: MIFKUJ_clean_linker_0, # of connection points: 2
#     Edge 32, Type (0, 0), BuildingBlock: MIFKUJ_clean_linker_0, # of connection points: 2
#     Edge 33, Type (0, 0), BuildingBlock: MIFKUJ_clean_linker_0, # of connection points: 2
#     Edge 34, Type (0, 0), BuildingBlock: MIFKUJ_clean_linker_0, # of connection points: 2
#     Edge 35, Type (0, 0), BuildingBlock: MIFKUJ_clean_linker_0, # of connection points: 2
#     Edge 36, Type (0, 0), BuildingBlock: MIFKUJ_clean_linker_0, # of connection points: 2
#     Edge 37, Type (0, 0), BuildingBlock: MIFKUJ_clean_linker_0, # of connection points: 2
#     Edge 38, Type (0, 0), BuildingBlock: MIFKUJ_clean_linker_0, # of connection points: 2
#     Edge 39, Type (0, 0), BuildingBlock: MIFKUJ_clean_linker_0, # of connection points: 2
#     Edge 40, Type (0, 0), BuildingBlock: MIFKUJ_clean_linker_0, # of connection points: 2
#     Edge 41, Type (0, 0), BuildingBlock: MIFKUJ_clean_linker_0, # of connection points: 2
#     Edge 42, Type (0, 0), BuildingBlock: MIFKUJ_clean_linker_0, # of connection points: 2
#     Edge 43, Type (0, 0), BuildingBlock: MIFKUJ_clean_linker_0, # of connection points: 2
#     Edge 44, Type (0, 0), BuildingBlock: MIFKUJ_clean_linker_0, # of connection points: 2
#     Edge 45, Type (0, 0), BuildingBlock: MIFKUJ_clean_linker_0, # of connection points: 2
#     Edge 46, Type (0, 0), BuildingBlock: MIFKUJ_clean_linker_0, # of connection points: 2
#     Edge 47, Type (0, 0), BuildingBlock: MIFKUJ_clean_linker_0, # of connection points: 2
# Relax obj value: 0.261
# Max RMSD: 0.165
# Mean RMSD: 0.165
data_MOF--net-umz--node1-CEKHIL_clean_sbu_0--edge1-MIFKUJ_clean_linker_0
_symmetry_space_group_name_H-M    P1
_symmetry_Int_Tables_number       1
_symmetry_cell_setting            triclinic
loop_
_symmetry_equiv_pos_as_xyz
'x, y, z'
_cell_length_a     75.785025
_cell_length_b     75.766088
_cell_length_c     29.395133
_cell_angle_alpha  89.860034
_cell_angle_beta   90.035895
_cell_angle_gamma 89.990086
loop_
_atom_site_label
_atom_site_type_symbol
_atom_site_fract_x
_atom_site_fract_y
_atom_site_fract_z
_atom_type_partial_charge
Co0 Co 0.004 0.63019 0.10482 0.0
O1 O -0.00138 0.64616 0.05563 0.0
O2 O 0.01936 0.65036 0.10775 0.0
C3 C 0.9759 0.62518 0.12675 0.0
O4 O 0.01314 0.61767 0.16136 0.0
Co5 Co 0.99111 0.59124 0.10758 0.0
O6 O -0.00025 0.59153 0.17124 0.0
C7 C 0.02119 0.60135 0.04848 0.0
C8 C 0.011 0.65616 0.07213 0.0
C9 C 0.01003 0.60371 0.18496 0.0
O10 O 0.02136 0.61709 0.065 0.0
O11 O 0.00949 0.58983 0.05885 0.0
O12 O 0.98408 0.63933 0.14018 0.0
O13 O 0.98435 0.61556 0.09796 0.0
Co14 Co 0.86263 0.0071 0.60427 0.0
O15 O 0.84558 -0.00031 0.5598 0.0
O16 O 0.8424 0.02247 0.60646 0.0
C17 C 0.86818 0.97993 0.63236 0.0
O18 O 0.87664 0.01854 0.65532 0.0
Co19 Co 0.90153 0.9942 0.6027 0.0
O20 O 0.90305 0.0055 0.66342 0.0
C21 C 0.8887 0.01984 0.53409 0.0
C22 C 0.83593 0.01269 0.57423 0.0
C23 C 0.89127 0.01631 0.67676 0.0
O24 O 0.87447 0.02244 0.55702 0.0
O25 O 0.90013 0.00805 0.54459 0.0
O26 O 0.8546 0.9888 0.64678 0.0
O27 O 0.87704 0.98718 0.59993 0.0
Co28 Co 0.4876 0.85848 0.10532 0.0
O29 O 0.49499 0.84082 0.06275 0.0
O30 O 0.46999 0.84018 0.10204 0.0
C31 C 0.51378 0.861 0.14075 0.0
O32 O 0.47579 0.87338 0.15369 0.0
Co33 Co 0.50453 0.89576 0.10799 0.0
O34 O 0.4902 0.89894 0.16394 0.0
C35 C 0.47992 0.88638 0.03413 0.0
C36 C 0.4804 0.83269 0.07274 0.0
C37 C 0.47818 0.88799 0.17485 0.0
O38 O 0.47547 0.87214 0.0552 0.0
O39 O 0.49244 0.89649 0.04737 0.0
O40 O 0.50299 0.84842 0.15232 0.0
O41 O 0.509 0.87063 0.10677 0.0
Co42 Co 0.62927 0.48792 0.60913 0.0
O43 O 0.64775 0.49506 0.56863 0.0
O44 O 0.64784 0.47038 0.60939 0.0
C45 C 0.6264 0.5146 0.64203 0.0
O46 O 0.61313 0.47664 0.65646 0.0
Co47 Co 0.59218 0.5055 0.60622 0.0
O48 O 0.58832 0.49262 0.66406 0.0
C49 C 0.60215 0.47897 0.53676 0.0
C50 C 0.65595 0.48082 0.58109 0.0
C51 C 0.59842 0.48006 0.67653 0.0
O52 O 0.6166 0.47537 0.558 0.0
O53 O 0.59167 0.49137 0.54882 0.0
O54 O 0.63857 0.50378 0.65599 0.0
O55 O 0.61731 0.50944 0.60751 0.0
Co56 Co 0.00802 0.8625 0.8991 0.0
O57 O 0.0024 0.84587 0.94654 0.0
O58 O 0.02395 0.84277 0.89619 0.0
C59 C 0.98005 0.86684 0.87521 0.0
O60 O 0.01753 0.87587 0.84436 0.0
Co61 Co 0.99392 0.90102 0.89724 0.0
O62 O 0.0024 0.901 0.8334 0.0
C63 C 0.02288 0.89096 0.9603 0.0
C64 C 0.01519 0.83633 0.93039 0.0
C65 C 0.01358 0.88952 0.82035 0.0
O66 O 0.02433 0.87567 0.94156 0.0
O67 O 0.01083 0.90208 0.94956 0.0
O68 O 0.98887 0.85317 0.86124 0.0
O69 O 0.98786 0.87644 0.90522 0.0
Co70 Co 0.63011 0.01161 0.38573 0.0
O71 O 0.64693 0.0025 0.42889 0.0
O72 O 0.65157 0.02506 0.38221 0.0
C73 C 0.62147 0.98518 0.35848 0.0
O74 O 0.61677 0.02454 0.33584 0.0
Co75 Co 0.59003 0.00272 0.38952 0.0
O76 O 0.58912 0.01422 0.32879 0.0
C77 C 0.60621 0.02651 0.45741 0.0
C78 C 0.65754 0.01469 0.41394 0.0
C79 C 0.60183 0.02391 0.31525 0.0
O80 O 0.6203 0.02799 0.43331 0.0
O81 O 0.59366 0.01581 0.44802 0.0
O82 O 0.63583 0.9925 0.34314 0.0
O83 O 0.61376 0.9934 0.39117 0.0
Co84 Co 0.48627 0.63125 0.88454 0.0
O85 O 0.49166 0.64832 0.93079 0.0
O86 O 0.46902 0.64991 0.88313 0.0
C87 C 0.51421 0.6289 0.85915 0.0
O88 O 0.47663 0.61724 0.8312 0.0
Co89 Co 0.50284 0.59381 0.88075 0.0
O90 O 0.49159 0.59207 0.82007 0.0
C91 C 0.47405 0.60168 0.9463 0.0
C92 C 0.47799 0.65698 0.91605 0.0
C93 C 0.47989 0.60323 0.80814 0.0
O94 O 0.47158 0.61713 0.92895 0.0
O95 O 0.48651 0.59135 0.93384 0.0
O96 O 0.50422 0.64166 0.8445 0.0
O97 O 0.50739 0.61867 0.8894 0.0
Co98 Co 0.85919 0.48031 0.38501 0.0
O99 O 0.84481 0.48675 0.43646 0.0
O100 O 0.83767 0.46692 0.3842 0.0
C101 C 0.86657 0.50808 0.36423 0.0
O102 O 0.86957 0.47044 0.32652 0.0
Co103 Co 0.8991 0.48901 0.37696 0.0
O104 O 0.89568 0.48316 0.31198 0.0
C105 C 0.88745 0.45841 0.43209 0.0
C106 C 0.83345 0.47538 0.42099 0.0
C107 C 0.88273 0.4735 0.30012 0.0
O108 O 0.87118 0.46125 0.42186 0.0
O109 O 0.90023 0.4682 0.41896 0.0
O110 O 0.8514 0.50152 0.35228 0.0
O111 O 0.87596 0.49831 0.39087 0.0
Co112 Co 0.98498 0.3636 0.88147 0.0
O113 O 0.99198 0.34817 0.93038 0.0
O114 O 0.97087 0.34248 0.88021 0.0
C115 C 0.01254 0.37039 0.85801 0.0
O116 O 0.97452 0.3754 0.82523 0.0
Co117 Co 0.9952 0.40335 0.87829 0.0
O118 O 0.98591 0.40251 0.81544 0.0
C119 C 0.96718 0.39104 0.94078 0.0
C120 C 0.98002 0.33737 0.91525 0.0
C121 C 0.97646 0.38965 0.80187 0.0
O122 O 0.96724 0.37559 0.92251 0.0
O123 O 0.97825 0.40312 0.93024 0.0
O124 O 0.00524 0.35569 0.84512 0.0
O125 O 0.00364 0.37952 0.88693 0.0
Co126 Co 0.13094 0.98566 0.4002 0.0
O127 O 0.1467 0.99138 0.44924 0.0
O128 O 0.15011 0.96891 0.4019 0.0
C129 C 0.12828 0.01342 0.3734 0.0
O130 O 0.11822 0.9758 0.34487 0.0
Co131 Co 0.09316 0.00136 0.39333 0.0
O132 O 0.09339 0.99108 0.33135 0.0
C133 C 0.10053 0.97205 0.45761 0.0
C134 C 0.15602 0.97791 0.43631 0.0
C135 C 0.10469 0.97943 0.32012 0.0
O136 O 0.11635 0.97041 0.44213 0.0
O137 O 0.08997 0.98429 0.44479 0.0
O138 O 0.1417 0.00379 0.36147 0.0
O139 O 0.11781 0.00653 0.40299 0.0
Co140 Co 0.50686 0.13363 0.88405 0.0
O141 O 0.50038 0.15116 0.92828 0.0
O142 O 0.52215 0.15375 0.87828 0.0
C143 C 0.47923 0.12738 0.86039 0.0
O144 O 0.51726 0.11939 0.83229 0.0
Co145 Co 0.49459 0.09451 0.88903 0.0
O146 O 0.5053 0.09236 0.82778 0.0
C147 C 0.52385 0.10698 0.94777 0.0
C148 C 0.51316 0.16058 0.91145 0.0
C149 C 0.51542 0.10441 0.81248 0.0
O150 O 0.52366 0.12231 0.92876 0.0
O151 O 0.51269 0.0948 0.93861 0.0
O152 O 0.48746 0.14108 0.84413 0.0
O153 O 0.48732 0.11894 0.89228 0.0
Co154 Co 0.36138 0.50851 0.38875 0.0
O155 O 0.34349 0.50316 0.43307 0.0
O156 O 0.34195 0.52467 0.38165 0.0
C157 C 0.36607 0.4805 0.3659 0.0
O158 O 0.37657 0.51788 0.33719 0.0
Co159 Co 0.39963 0.49378 0.39618 0.0
O160 O 0.40213 0.50295 0.33319 0.0
C161 C 0.38739 0.52216 0.45778 0.0
C162 C 0.3347 0.51615 0.41516 0.0
C163 C 0.39119 0.51415 0.31726 0.0
O164 O 0.3734 0.52458 0.43371 0.0
O165 O 0.39839 0.50963 0.45063 0.0
O166 O 0.35298 0.4895 0.34911 0.0
O167 O 0.3748 0.48814 0.3979 0.0
Co168 Co 0.9868 0.13182 0.10362 0.0
O169 O 0.99544 0.15 0.06383 0.0
O170 O 0.97119 0.15195 0.10583 0.0
C171 C 0.01321 0.12553 0.13534 0.0
O172 O 0.97421 0.11647 0.15033 0.0
Co173 Co 0.00018 0.09305 0.09709 0.0
O174 O 0.98711 0.08983 0.15497 0.0
C175 C 0.97493 0.10694 0.02897 0.0
C176 C 0.98202 0.15928 0.07717 0.0
C177 C 0.97595 0.10118 0.16893 0.0
O178 O 0.97255 0.12108 0.05247 0.0
O179 O 0.98649 0.09523 0.0391 0.0
O180 O 0.00401 0.13879 0.1503 0.0
O181 O 0.00681 0.1176 0.10036 0.0
Co182 Co 0.36263 0.98113 0.60112 0.0
O183 O 0.34363 0.98707 0.56063 0.0
O184 O 0.34323 0.96502 0.61049 0.0
C185 C 0.36845 0.00875 0.62542 0.0
O186 O 0.37932 0.97135 0.6492 0.0
Co187 Co 0.40055 0.99553 0.58367 0.0
O188 O 0.40589 0.98441 0.64328 0.0
C189 C 0.38558 0.96809 0.52439 0.0
C190 C 0.33517 0.97392 0.57881 0.0
C191 C 0.39518 0.97398 0.66327 0.0
O192 O 0.37308 0.96526 0.55309 0.0
O193 O 0.39658 0.98084 0.52801 0.0
O194 O 0.35558 -0.0002 0.64343 0.0
O195 O 0.37593 0.00149 0.59084 0.0
Co196 Co 0.5057 0.36147 0.10912 0.0
O197 O 0.49842 0.34307 0.06876 0.0
O198 O 0.52341 0.34308 0.10808 0.0
C199 C 0.47942 0.36424 0.14385 0.0
O200 O 0.51722 0.37766 0.1555 0.0
Co201 Co 0.48804 0.39843 0.10587 0.0
O202 O 0.50039 0.4018 0.16481 0.0
C203 C 0.51385 0.38832 0.0352 0.0
C204 C 0.51297 0.33508 0.07965 0.0
C205 C 0.5133 0.392 0.17656 0.0
O206 O 0.51781 0.37421 0.05747 0.0
O207 O 0.50139 0.39878 0.04694 0.0
O208 O 0.4904 0.35211 0.15719 0.0
O209 O 0.48409 0.37327 0.10867 0.0
Co210 Co 0.13104 0.51204 0.60512 0.0
O211 O 0.14757 0.50602 0.5579 0.0
O212 O 0.15103 0.52764 0.60789 0.0
C213 C 0.12614 0.48422 0.62954 0.0
O214 O 0.11772 0.522 0.65927 0.0
Co215 Co 0.09221 0.49874 0.60581 0.0
O216 O 0.09187 0.508 0.66896 0.0
C217 C 0.10367 0.52611 0.54021 0.0
C218 C 0.15726 0.51876 0.57373 0.0
C219 C 0.10367 0.51879 0.68232 0.0
O220 O 0.11824 0.52839 0.56199 0.0
O221 O 0.09259 0.5139 0.54976 0.0
O222 O 0.13999 0.49278 0.64347 0.0
O223 O 0.11672 0.49217 0.59928 0.0
H224 H -0.00193 0.67037 0.99349 0.0
H225 H 0.00225 0.70044 0.96517 0.0
H226 H 0.03579 0.71202 0.08001 0.0
H227 H 0.03207 0.68185 0.10775 0.0
H228 H 0.99208 0.7295 0.00236 0.0
H229 H 0.06464 0.74478 0.05403 0.0
H230 H 0.0932 0.72932 0.05994 0.0
H231 H 0.07609 0.69148 0.96077 0.0
H232 H 0.04753 0.70685 0.95378 0.0
H233 H 0.00188 0.82099 0.00707 0.0
H234 H 0.00453 0.79009 0.03014 0.0
H235 H 0.03822 0.77998 0.91483 0.0
H236 H 0.03606 0.811 0.89233 0.0
H237 H 0.04901 0.76122 0.98594 0.0
H238 H 0.99417 0.77119 0.90925 0.0
H239 H 0.96572 0.78598 0.89466 0.0
H240 H 0.94763 0.77138 0.02794 0.0
H241 H 0.97607 0.75671 0.04355 0.0
C242 C 0.00654 0.67926 0.01234 0.0
C243 C 0.01471 0.67378 0.05288 0.0
C244 C 0.00889 0.69644 -0.00382 0.0
C245 C 0.01939 0.70848 0.02033 0.0
C246 C 0.02788 0.7029 0.06033 0.0
C247 C 0.02567 0.68566 0.07628 0.0
C248 C 0.02041 0.72718 0.00551 0.0
C249 C 0.00456 0.73638 -0.00135 0.0
C250 C 0.03667 0.73615 4e-05 0.0
C251 C 0.05387 0.72688 0.00374 0.0
C252 C 0.06699 0.7332 0.03336 0.0
C253 C 0.08318 0.72445 0.03692 0.0
C254 C 0.08643 0.7094 0.01086 0.0
C255 C 0.07353 0.7031 0.98108 0.0
C256 C 0.05733 0.71181 0.97736 0.0
C257 C 0.01007 0.81225 0.98703 0.0
C258 C 0.0186 0.81834 0.94762 0.0
C259 C 0.01153 0.79459 0.00015 0.0
C260 C 0.02126 0.78266 0.97362 0.0
C261 C 0.03059 0.78894 0.93568 0.0
C262 C 0.0293 0.80666 0.92282 0.0
C263 C 0.0207 0.76349 0.98364 0.0
C264 C 0.03659 0.75426 0.98963 0.0
C265 C 0.00449 0.75432 0.98711 0.0
C266 C 0.9873 0.76299 0.9777 0.0
C267 C 0.98416 0.77123 0.93554 0.0
C268 C 0.96803 0.77958 0.92708 0.0
C269 C 0.95489 0.77965 0.96039 0.0
C270 C 0.95783 0.77133 0.00219 0.0
C271 C 0.97394 0.76298 0.01085 0.0
H272 H 0.94241 0.78613 0.95378 0.0
H273 H 0.09897 0.70263 0.01368 0.0
H274 H 0.68247 0.0388 0.38868 0.0
H275 H 0.71306 0.04059 0.4149 0.0
H276 H 0.70411 -0.00344 0.50532 0.0
H277 H 0.67359 0.99454 0.47893 0.0
H278 H 0.72841 0.046 0.49684 0.0
H279 H 0.74035 0.97041 0.50421 0.0
H280 H 0.72985 0.94339 0.46611 0.0
H281 H 0.71631 0.97358 0.34728 0.0
H282 H 0.72696 0.00071 0.3844 0.0
H283 H 0.8078 0.02756 0.61718 0.0
H284 H 0.77759 0.03003 0.58856 0.0
H285 H 0.79414 0.00794 0.46012 0.0
H286 H 0.82405 0.00445 0.48981 0.0
H287 H 0.7662 0.99283 0.48267 0.0
H288 H 0.78291 0.05387 0.47789 0.0
H289 H 0.79432 0.08198 0.50817 0.0
H290 H 0.75266 0.08314 0.60704 0.0
H291 H 0.74112 0.05493 0.57774 0.0
C292 C 0.687 0.02955 0.4143 0.0
C293 C 0.67569 0.01643 0.4315 0.0
C294 C 0.70444 0.03065 0.42936 0.0
C295 C 0.71087 0.0186 0.46165 0.0
C296 C 0.69945 0.00583 0.4799 0.0
C297 C 0.68202 0.00472 0.46485 0.0
C298 C 0.72969 0.01892 0.47508 0.0
C299 C 0.73674 0.03441 0.49376 0.0
C300 C 0.74058 0.00391 0.47006 0.0
C301 C 0.73428 0.98761 0.44731 0.0
C302 C 0.73518 0.97126 0.4699 0.0
C303 C 0.7292 0.95593 0.44848 0.0
C304 C 0.72236 0.95678 0.40437 0.0
C305 C 0.72155 0.97295 0.38152 0.0
C306 C 0.72753 0.98831 0.40276 0.0
C307 C 0.80497 0.02341 0.58271 0.0
C308 C 0.81817 0.01578 0.55566 0.0
C309 C 0.78773 0.02492 0.56624 0.0
C310 C 0.78356 0.01937 0.52191 0.0
C311 C 0.79696 0.01224 0.49449 0.0
C312 C 0.81406 0.01029 0.51138 0.0
C313 C 0.7651 0.01993 0.50492 0.0
C314 C 0.75802 0.00452 0.4857 0.0
C315 C 0.75437 0.03519 0.50832 0.0
C316 C 0.76124 0.05221 0.52584 0.0
C317 C 0.77625 0.06007 0.50628 0.0
C318 C 0.78273 0.07603 0.52324 0.0
C319 C 0.77424 0.08432 0.55956 0.0
C320 C 0.75923 0.0767 0.57893 0.0
C321 C 0.7527 0.06073 0.56212 0.0
H322 H 0.77928 0.09667 0.57266 0.0
H323 H 0.71773 0.94489 0.38785 0.0
H324 H 0.50342 0.80971 0.035 0.0
H325 H 0.4972 0.7807 0.00384 0.0
H326 H 0.44173 0.78772 0.03214 0.0
H327 H 0.44814 0.81664 0.06592 0.0
H328 H 0.4502 0.75611 0.05364 0.0
H329 H 0.45887 0.7895 0.92 0.0
H330 H 0.4729 0.81093 0.86817 0.0
H331 H 0.51951 0.77878 0.86274 0.0
H332 H 0.50589 0.75728 0.91505 0.0
H333 H 0.44792 0.67626 0.90181 0.0
H334 H 0.44237 0.70687 0.92537 0.0
H335 H 0.4932 0.70842 0.99109 0.0
H336 H 0.4987 0.67786 0.96883 0.0
H337 H 0.47941 0.73665 0.91126 0.0
H338 H 0.47003 0.70778 0.06242 0.0
H339 H 0.45384 0.68642 0.11016 0.0
H340 H 0.40477 0.71101 0.07353 0.0
H341 H 0.4207 0.73235 0.02497 0.0
C342 C 0.48988 0.80515 0.03431 0.0
C343 C 0.47624 0.81544 0.05254 0.0
C344 C 0.4863 0.78859 0.01614 0.0
C345 C 0.46892 0.78219 0.0144 0.0
C346 C 0.45522 0.79245 0.03274 0.0
C347 C 0.45888 0.80893 0.05194 0.0
C348 C 0.46548 0.76439 0.99535 0.0
C349 C 0.45628 0.75202 0.02198 0.0
C350 C 0.47312 0.75898 0.95364 0.0
C351 C 0.48134 0.77177 0.92159 0.0
C352 C 0.47214 0.78702 0.90792 0.0
C353 C 0.48003 0.79919 0.87844 0.0
C354 C 0.49709 0.79622 0.86218 0.0
C355 C 0.50629 0.78105 0.8753 0.0
C356 C 0.49847 0.76885 0.9048 0.0
C357 C 0.45778 0.68306 0.92186 0.0
C358 C 0.47374 0.6747 0.93351 0.0
C359 C 0.45458 0.70048 0.93522 0.0
C360 C 0.46739 0.70974 0.9599 0.0
C361 C 0.48316 0.70135 0.97219 0.0
C362 C 0.48625 0.68391 0.95954 0.0
C363 C 0.46504 0.72854 0.97075 0.0
C364 C 0.47304 0.74102 0.94229 0.0
C365 C 0.45597 0.73411 0.01003 0.0
C366 C 0.44651 0.72146 0.03963 0.0
C367 C 0.45578 0.7085 0.06418 0.0
C368 C 0.44666 0.69643 0.09147 0.0
C369 C 0.42828 0.69731 0.09474 0.0
C370 C 0.419 0.71031 0.07087 0.0
C371 C 0.42806 0.72239 0.04348 0.0
H372 H 0.42124 0.68795 0.11586 0.0
H373 H 0.50318 0.80566 0.8394 0.0
H374 H 0.67284 0.44911 0.56908 0.0
H375 H 0.70324 0.44463 0.5425 0.0
H376 H 0.71065 0.50114 0.53695 0.0
H377 H 0.6802 0.50551 0.56025 0.0
H378 H 0.72378 0.48888 0.46667 0.0
H379 H 0.72805 0.47171 0.62467 0.0
H380 H 0.72077 0.45444 0.69338 0.0
H381 H 0.73583 0.40666 0.62535 0.0
H382 H 0.743 0.42365 0.55604 0.0
H383 H 0.81675 0.49742 0.48003 0.0
H384 H 0.78663 0.49458 0.50939 0.0
H385 H 0.78107 0.44459 0.44118 0.0
H386 H 0.81105 0.44752 0.41064 0.0
H387 H 0.76727 0.4501 0.54399 0.0
H388 H 0.76365 0.47009 0.38556 0.0
H389 H 0.77264 0.48958 0.32236 0.0
H390 H 0.75755 0.53504 0.40015 0.0
H391 H 0.74874 0.5158 0.4641 0.0
C392 C 0.68104 0.46049 0.56199 0.0
C393 C 0.67421 0.47763 0.56626 0.0
C394 C 0.69843 0.45795 0.54717 0.0
C395 C 0.70938 0.47255 0.53804 0.0
C396 C 0.70251 0.48964 0.54326 0.0
C397 C 0.68508 0.49214 0.55666 0.0
C398 C 0.72783 0.47038 0.52174 0.0
C399 C 0.73322 0.48046 0.48401 0.0
C400 C 0.74023 0.45913 0.54347 0.0
C401 C 0.73585 0.44892 0.58502 0.0
C402 C 0.72967 0.45751 0.62426 0.0
C403 C 0.72559 0.44777 0.66333 0.0
C404 C 0.72778 0.42946 0.66368 0.0
C405 C 0.7341 0.42085 0.625 0.0
C406 C 0.73818 0.43052 0.58582 0.0
C407 C 0.80921 0.4857 0.47183 0.0
C408 C 0.81615 0.47275 0.44282 0.0
C409 C 0.79206 0.4841 0.48865 0.0
C410 C 0.78175 0.46938 0.47735 0.0
C411 C 0.78893 0.45598 0.45033 0.0
C412 C 0.80597 0.45774 0.43276 0.0
C413 C 0.76297 0.46892 0.49026 0.0
C414 C 0.75761 0.45834 0.52688 0.0
C415 C 0.75063 0.47999 0.46834 0.0
C416 C 0.75572 0.49152 0.42972 0.0
C417 C 0.76241 0.48424 0.38932 0.0
C418 C 0.76744 0.49524 0.35334 0.0
C419 C 0.76571 0.51354 0.35728 0.0
C420 C 0.7589 0.52087 0.39716 0.0
C421 C 0.75388 0.50992 0.43326 0.0
H422 H 0.76961 0.52204 0.32939 0.0
H423 H 0.72462 0.42195 0.69396 0.0
H424 H 0.0027 0.31971 0.97086 0.0
H425 H -0.0001 0.28941 -0.00102 0.0
H426 H 0.94904 0.28492 0.9343 0.0
H427 H 0.9519 0.31516 0.90497 0.0
H428 H 0.95479 0.27117 0.03541 0.0
H429 H 0.97486 0.26699 0.87811 0.0
H430 H 0.99447 0.27526 0.81461 0.0
H431 H 0.0396 0.25875 0.89222 0.0
H432 H 0.02025 0.25064 0.95646 0.0
H433 H 0.95121 0.17742 0.06424 0.0
H434 H 0.94795 0.20777 0.03629 0.0
H435 H 0.00469 0.21294 0.03092 0.0
H436 H 0.00784 0.18237 0.05549 0.0
H437 H 0.99302 0.22668 0.96073 0.0
H438 H 0.97586 0.23197 0.118 0.0
H439 H 0.95851 0.22533 0.18693 0.0
H440 H 0.91099 0.24103 0.11821 0.0
H441 H 0.92805 0.24758 0.0487 0.0
C442 C 0.99083 0.31236 0.96304 0.0
C443 C 0.97755 0.31973 0.93556 0.0
C444 C 0.98926 0.29509 0.97911 0.0
C445 C 0.97429 0.28504 0.96858 0.0
C446 C 0.96066 0.29257 0.94278 0.0
C447 C 0.96236 0.30976 0.92595 0.0
C448 C 0.97356 0.2663 0.98207 0.0
C449 C 0.96291 0.2613 0.01883 0.0
C450 C 0.98452 0.25369 0.961 0.0
C451 C 0.99613 0.25838 0.92221 0.0
C452 C 0.98897 0.26528 0.88177 0.0
C453 C 4e-05 0.2699 0.84562 0.0
C454 C 0.01827 0.26757 0.84942 0.0
C455 C 0.02547 0.26057 0.88934 0.0
C456 C 0.01446 0.25594 0.92561 0.0
C457 C 0.96293 0.18512 0.05697 0.0
C458 C 0.97977 0.17763 0.06175 0.0
C459 C 0.96108 0.20249 0.04136 0.0
C460 C 0.97608 0.21283 0.032 0.0
C461 C 0.99289 0.20529 0.03751 0.0
C462 C 0.9947 0.18782 0.05167 0.0
C463 C 0.97452 0.23132 0.01527 0.0
C464 C 0.98474 0.23636 0.97753 0.0
C465 C 0.96346 0.24402 0.03629 0.0
C466 C 0.9532 0.24007 0.07802 0.0
C467 C 0.96169 0.23388 0.1175 0.0
C468 C 0.95192 0.23016 0.15668 0.0
C469 C 0.93365 0.2327 0.1569 0.0
C470 C 0.92513 0.23903 0.11797 0.0
C471 C 0.93485 0.24276 0.07868 0.0
H472 H 0.92611 0.22982 0.18727 0.0
H473 H 0.02682 0.27116 0.82139 0.0
H474 H 0.32009 0.98054 0.49688 0.0
H475 H 0.28913 0.97686 0.47586 0.0
H476 H 0.27806 0.9552 0.60874 0.0
H477 H 0.30933 0.95805 0.6291 0.0
H478 H 0.25791 0.93949 0.54694 0.0
H479 H 0.27169 -0.00042 0.58563 0.0
H480 H 0.28851 0.02739 0.5805 0.0
H481 H 0.27465 0.03232 0.43936 0.0
H482 H 0.25793 0.00442 0.44353 0.0
H483 H 0.17087 0.99431 0.50917 0.0
H484 H 0.20039 0.98976 0.54025 0.0
H485 H 0.20941 0.94789 0.44379 0.0
H486 H 0.17973 0.95225 0.41272 0.0
H487 H 0.22986 0.9951 0.49427 0.0
H488 H 0.24023 0.91901 0.4904 0.0
H489 H 0.22287 0.89186 0.50237 0.0
H490 H 0.1865 0.92031 0.5868 0.0
H491 H 0.20378 0.94756 0.57592 0.0
C492 C 0.31109 0.97476 0.52135 0.0
C493 C 0.31698 0.96981 0.56481 0.0
C494 C 0.29341 0.97269 0.50937 0.0
C495 C 0.28119 0.96621 0.54117 0.0
C496 C 0.28724 0.96032 0.58376 0.0
C497 C 0.30507 0.96201 0.59541 0.0
C498 C 0.26201 0.96698 0.53118 0.0
C499 C 0.25175 0.95162 0.53537 0.0
C500 C 0.25388 0.98292 0.5172 0.0
C501 C 0.26366 -0.00013 0.51484 0.0
C502 C 0.27229 0.00657 0.55347 0.0
C503 C 0.2818 0.02234 0.55073 0.0
C504 C 0.28267 0.0316 0.50961 0.0
C505 C 0.27397 0.02513 0.47118 0.0
C506 C 0.26446 0.00935 0.47373 0.0
C507 C 0.17902 0.98395 0.49497 0.0
C508 C 0.17305 0.97373 0.45823 0.0
C509 C 0.19589 0.98138 0.51278 0.0
C510 C 0.20709 0.96851 0.49433 0.0
C511 C 0.20091 0.95778 0.45886 0.0
C512 C 0.18399 0.96034 0.441 0.0
C513 C 0.22574 0.96756 0.50927 0.0
C514 C 0.23595 0.98293 0.5059 0.0
C515 C 0.23364 0.95174 0.52493 0.0
C516 C 0.22321 0.93538 0.53189 0.0
C517 C 0.22856 0.91946 0.51163 0.0
C518 C 0.21873 0.90405 0.51822 0.0
C519 C 0.20356 0.90437 0.54519 0.0
C520 C 0.19821 0.9201 0.56575 0.0
C521 C 0.208 0.93553 0.55931 0.0
H522 H 0.19596 0.89243 0.55024 0.0
H523 H 0.29006 0.0438 0.50754 0.0
H524 H 0.54236 0.1807 0.89441 0.0
H525 H 0.54819 0.21084 0.92105 0.0
H526 H 0.49852 0.21093 0.99237 0.0
H527 H 0.49272 0.18077 0.96687 0.0
H528 H 0.51516 0.2414 0.91115 0.0
H529 H 0.51708 0.21093 0.06616 0.0
H530 H 0.53045 0.18758 0.11371 0.0
H531 H 0.58222 0.20636 0.07914 0.0
H532 H 0.56909 0.22965 0.03084 0.0
H533 H 0.49005 0.31283 0.03885 0.0
H534 H 0.49595 0.28384 0.00737 0.0
H535 H 0.55079 0.28847 0.04521 0.0
H536 H 0.54474 0.31757 0.07872 0.0
H537 H 0.53959 0.25633 0.06304 0.0
H538 H 0.53795 0.29269 0.93279 0.0
H539 H 0.52709 0.31598 0.88117 0.0
H540 H 0.47926 0.28684 0.85944 0.0
H541 H 0.48969 0.26349 0.91148 0.0
C542 C 0.53275 0.18711 0.91608 0.0
C543 C 0.51708 0.17842 0.92864 0.0
C544 C 0.53613 0.20425 0.93126 0.0
C545 C 0.52383 0.2129 0.95888 0.0
C546 C 0.50822 0.20428 0.97148 0.0
C547 C 0.50494 0.1871 0.95687 0.0
C548 C 0.52664 0.23132 0.97285 0.0
C549 C 0.5205 0.24478 0.94426 0.0
C550 C 0.53436 0.23559 0.01505 0.0
C551 C 0.54214 0.22184 0.04464 0.0
C552 C 0.53131 0.20996 0.06846 0.0
C553 C 0.53884 0.19677 0.09557 0.0
C554 C 0.55718 0.19545 0.09934 0.0
C555 C 0.56802 0.20737 0.07612 0.0
C556 C 0.56055 0.22055 0.04888 0.0
C557 C 0.5034 0.30776 0.04038 0.0
C558 C 0.51698 0.31752 0.06086 0.0
C559 C 0.50679 0.2912 0.0221 0.0
C560 C 0.52391 0.28416 0.0228 0.0
C561 C 0.53751 0.29373 0.04392 0.0
C562 C 0.53405 0.31032 0.06297 0.0
C563 C 0.52714 0.26659 0.00237 0.0
C564 C 0.53454 0.25321 0.02948 0.0
C565 C 0.52089 0.26245 0.95818 0.0
C566 C 0.51461 0.27634 0.92621 0.0
C567 C 0.52508 0.29128 0.91718 0.0
C568 C 0.519 0.30449 0.88783 0.0
C569 C 0.50249 0.30289 0.86706 0.0
C570 C 0.49205 0.28805 0.87552 0.0
C571 C 0.49806 0.2748 0.90488 0.0
H572 H 0.4978 0.31315 0.84439 0.0
H573 H 0.56298 0.18523 0.12033 0.0
H574 H 0.32446 0.52257 0.50182 0.0
H575 H 0.29437 0.52769 0.52907 0.0
H576 H 0.27485 0.52269 0.39151 0.0
H577 H 0.30516 0.51925 0.36409 0.0
H578 H 0.25575 0.54482 0.42914 0.0
H579 H 0.27491 0.48732 0.47665 0.0
H580 H 0.29437 0.46551 0.51374 0.0
H581 H 0.28602 0.49055 0.64283 0.0
H582 H 0.26665 0.51264 0.60639 0.0
H583 H 0.17058 0.50866 0.49163 0.0
H584 H 0.20088 0.51255 0.46412 0.0
H585 H 0.21437 0.54006 0.58755 0.0
H586 H 0.18401 0.53663 0.61486 0.0
H587 H 0.23601 0.50824 0.55974 0.0
H588 H 0.21339 0.56427 0.50524 0.0
H589 H 0.19229 0.58284 0.46278 0.0
H590 H 0.20536 0.55574 0.33917 0.0
H591 H 0.22635 0.53683 0.38104 0.0
C592 C 0.31369 0.52285 0.47755 0.0
C593 C 0.31691 0.52045 0.43108 0.0
C594 C 0.2965 0.5256 0.49307 0.0
C595 C 0.28219 0.52501 0.4626 0.0
C596 C 0.28559 0.52316 0.41582 0.0
C597 C 0.30286 0.52113 0.40013 0.0
C598 C 0.26369 0.52559 0.47948 0.0
C599 C 0.25147 0.53668 0.45745 0.0
C600 C 0.25796 0.51508 0.51666 0.0
C601 C 0.26948 0.50173 0.53872 0.0
C602 C 0.2773 0.48823 0.5129 0.0
C603 C 0.28831 0.47581 0.53381 0.0
C604 C 0.29147 0.47667 0.58059 0.0
C605 C 0.28358 0.48992 0.60659 0.0
C606 C 0.27258 0.50238 0.58584 0.0
C607 C 0.17995 0.51574 0.51261 0.0
C608 C 0.175 0.52231 0.55538 0.0
C609 C 0.19719 0.51798 0.49682 0.0
C610 C 0.20974 0.5266 0.52388 0.0
C611 C 0.20478 0.53343 0.56624 0.0
C612 C 0.18746 0.53149 0.58167 0.0
C613 C 0.22834 0.52735 0.5093 0.0
C614 C 0.24048 0.51644 0.53169 0.0
C615 C 0.23381 0.53754 0.47162 0.0
C616 C 0.22133 0.54903 0.44637 0.0
C617 C 0.21166 0.56217 0.46908 0.0
C618 C 0.19974 0.57278 0.4451 0.0
C619 C 0.19745 0.57044 0.39833 0.0
C620 C 0.20713 0.55753 0.37541 0.0
C621 C 0.21905 0.54688 0.39924 0.0
H622 H 0.18822 0.57866 0.37983 0.0
H623 H 0.3 0.46705 0.59671 0.0
H624 H 0.02913 0.56788 0.02263 0.0
H625 H 0.05046 0.5583 0.96668 0.0
H626 H 0.06667 0.61224 0.94472 0.0
H627 H 0.04486 0.62215 0.00112 0.0
H628 H 0.06095 0.5957 0.86545 0.0
H629 H 0.09554 0.58373 0.99362 0.0
H630 H 0.10321 0.57368 0.07093 0.0
H631 H 0.09081 0.5203 0.03415 0.0
H632 H 0.08283 0.53004 0.95676 0.0
H633 H 0.11788 0.55057 0.70656 0.0
H634 H 0.11081 0.56828 0.77379 0.0
H635 H 0.07571 0.52738 0.82106 0.0
H636 H 0.08241 0.50975 0.75362 0.0
H637 H 0.0991 0.54328 0.89018 0.0
H638 H 0.05836 0.55926 0.76603 0.0
H639 H 0.05227 0.57055 0.68879 0.0
H640 H 0.07951 0.61869 0.72025 0.0
H641 H 0.08599 0.60755 0.79749 0.0
C642 C 0.03724 0.5778 0.00628 0.0
C643 C 0.03516 0.59583 0.01622 0.0
C644 C 0.04962 0.57224 0.97452 0.0
C645 C 0.06038 0.5845 0.95197 0.0
C646 C 0.05859 0.60254 0.96204 0.0
C647 C 0.04615 0.60817 0.99425 0.0
C648 C 0.07228 0.57817 0.91543 0.0
C649 C 0.06971 0.58458 0.87109 0.0
C650 C 0.08379 0.56369 0.92269 0.0
C651 C 0.08853 0.55765 0.96929 0.0
C652 C 0.09433 0.56986 0.00206 0.0
C653 C 0.09875 0.56421 0.04591 0.0
C654 C 0.09748 0.54636 0.05745 0.0
C655 C 0.0918 0.53412 0.02514 0.0
C656 C 0.08736 0.5397 0.98122 0.0
C657 C 0.10881 0.54526 0.73154 0.0
C658 C 0.1006 0.52881 0.7247 0.0
C659 C 0.1048 0.5554 0.76984 0.0
C660 C 0.09273 0.54912 0.80217 0.0
C661 C 0.08509 0.53241 0.79643 0.0
C662 C 0.08885 0.5224 0.7578 0.0
C663 C 0.08701 0.56032 0.84055 0.0
C664 C 0.09078 0.55476 0.885 0.0
C665 C 0.07693 0.57579 0.83349 0.0
C666 C 0.07286 0.58249 0.78726 0.0
C667 C 0.06318 0.57218 0.75632 0.0
C668 C 0.05964 0.57856 0.71258 0.0
C669 C 0.06556 0.5953 0.69957 0.0
C670 C 0.07498 0.60571 0.73034 0.0
C671 C 0.07858 0.59938 0.77408 0.0
H672 H 0.06281 0.60022 0.66572 0.0
H673 H 0.10092 0.54201 0.09142 0.0
H674 H 0.97284 0.06893 0.20979 0.0
H675 H 0.95216 0.0601 0.26889 0.0
H676 H 0.93104 0.11291 0.27322 0.0
H677 H 0.95182 0.12201 0.21362 0.0
H678 H 0.93667 0.09782 0.36032 0.0
H679 H 0.90662 0.08389 0.22395 0.0
H680 H 0.90282 0.07225 0.14632 0.0
H681 H 0.91461 0.01996 0.19401 0.0
H682 H 0.91876 0.03131 0.27184 0.0
H683 H 0.87613 0.05306 0.5136 0.0
H684 H 0.88472 0.07169 0.44851 0.0
H685 H 0.91815 0.02988 0.39886 0.0
H686 H 0.90982 0.01144 0.46305 0.0
H687 H 0.89845 0.04593 0.33043 0.0
H688 H 0.93523 0.06231 0.46178 0.0
H689 H 0.93886 0.07389 0.5396 0.0
H690 H 0.91324 0.12213 0.50028 0.0
H691 H 0.90925 0.11071 0.42233 0.0
C692 C 0.96389 0.07875 0.22326 0.0
C693 C 0.96395 0.09617 0.20664 0.0
C694 C 0.95201 0.07364 0.25697 0.0
C695 C 0.93991 0.08579 0.27488 0.0
C696 C 0.94021 0.10333 0.25956 0.0
C697 C 0.95207 0.10846 0.22547 0.0
C698 C 0.92702 0.07979 0.30947 0.0
C699 C 0.92795 0.08679 0.35358 0.0
C700 C 0.91559 0.06545 0.30055 0.0
C701 C 0.91306 0.05848 0.25377 0.0
C702 C 0.90853 0.06993 0.21785 0.0
C703 C 0.9063 0.06338 0.1738 0.0
C704 C 0.90848 0.04538 0.16523 0.0
C705 C 0.91291 0.0339 0.20071 0.0
C706 C 0.91517 0.04038 0.24483 0.0
C707 C 0.88515 0.04783 0.48844 0.0
C708 C 0.89243 0.03086 0.49364 0.0
C709 C 0.89005 0.05847 0.45144 0.0
C710 C 0.90211 0.05215 0.41903 0.0
C711 C 0.9088 0.03499 0.42341 0.0
C712 C 0.90411 0.02451 0.46036 0.0
C713 C 0.90881 0.06338 0.38158 0.0
C714 C 0.90671 0.05736 0.33683 0.0
C715 C 0.91906 0.07864 0.38991 0.0
C716 C 0.92175 0.08558 0.43647 0.0
C717 C 0.93027 0.07534 0.46984 0.0
C718 C 0.93241 0.08188 0.51394 0.0
C719 C 0.92623 0.09871 0.52493 0.0
C720 C 0.91798 0.10908 0.49176 0.0
C721 C 0.91578 0.10258 0.44762 0.0
H722 H 0.92787 0.10374 0.55911 0.0
H723 H 0.90669 0.04033 0.13114 0.0
H724 H 0.44509 0.87995 0.01513 0.0
H725 H 0.42741 0.8935 0.95443 0.0
H726 H 0.47405 0.91925 0.90238 0.0
H727 H 0.49151 0.90632 0.96352 0.0
H728 H 0.44873 0.9422 0.9114 0.0
H729 H 0.45318 0.88316 0.84872 0.0
H730 H 0.44937 0.85082 0.85037 0.0
H731 H 0.39349 0.85724 0.86785 0.0
H732 H 0.397 0.88963 0.86689 0.0
H733 H 0.42924 0.96907 0.68978 0.0
H734 H 0.44005 0.95349 0.75679 0.0
H735 H 0.38668 0.94016 0.79429 0.0
H736 H 0.37562 0.95617 0.72736 0.0
H737 H 0.41052 0.91146 0.79975 0.0
H738 H 0.40587 0.97026 0.85825 0.0
H739 H 0.40961 0.00261 0.85902 0.0
H740 H 0.46579 0.99645 0.849 0.0
H741 H 0.46238 0.96405 0.84842 0.0
C742 C 0.45157 0.88827 0.99022 0.0
C743 C 0.46964 0.89219 0.99415 0.0
C744 C 0.44147 0.896 0.95556 0.0
C745 C 0.4494 0.90743 0.92386 0.0
C746 C 0.4676 0.91063 0.92669 0.0
C747 C 0.47759 0.90318 0.96156 0.0
C748 C 0.43883 0.91697 0.88911 0.0
C749 C 0.44051 0.93541 0.88679 0.0
C750 C 0.42749 0.90825 0.85814 0.0
C751 C 0.42538 0.8888 0.85822 0.0
C752 C 0.4401 0.87767 0.85322 0.0
C753 C 0.43799 0.85934 0.85398 0.0
C754 C 0.42121 0.85199 0.85934 0.0
C755 C 0.40649 0.86295 0.86377 0.0
C756 C 0.40852 0.8813 0.86309 0.0
C757 C 0.41974 0.96307 0.71255 0.0
C758 C 0.40156 0.96416 0.70366 0.0
C759 C 0.42596 0.9541 0.75077 0.0
C760 C 0.41414 0.94589 0.78077 0.0
C761 C 0.39598 0.94651 0.77159 0.0
C762 C 0.38972 0.95565 0.73339 0.0
C763 C 0.42106 0.93649 0.8212 0.0
C764 C 0.41862 0.91818 0.82476 0.0
C765 C 0.43174 0.94528 0.8534 0.0
C766 C 0.43386 0.96475 0.85313 0.0
C767 C 0.41901 0.97581 0.85606 0.0
C768 C 0.42108 0.99415 0.85676 0.0
C769 C 0.43793 0.00157 0.85421 0.0
C770 C 0.45275 0.99068 0.85112 0.0
C771 C 0.45076 0.97233 0.85082 0.0
H772 H 0.43948 0.01578 0.85438 0.0
H773 H 0.41961 0.83779 0.85995 0.0
H774 H 0.50636 0.41769 0.2389 0.0
H775 H 0.52618 0.42939 0.29673 0.0
H776 H 0.56617 0.39188 0.25759 0.0
H777 H 0.54622 0.37979 0.19983 0.0
H778 H 0.56482 0.3965 0.35089 0.0
H779 H 0.5697 0.43301 0.2192 0.0
H780 H 0.55871 0.45067 0.15454 0.0
H781 H 0.53315 0.48627 0.24688 0.0
H782 H 0.54377 0.46869 0.31209 0.0
H783 H 0.62063 0.45239 0.49335 0.0
H784 H 0.61069 0.43479 0.42793 0.0
H785 H 0.56141 0.46329 0.42681 0.0
H786 H 0.57112 0.48086 0.49059 0.0
H787 H 0.57499 0.46113 0.34336 0.0
H788 H 0.56589 0.42125 0.47322 0.0
H789 H 0.57644 0.40329 0.53789 0.0
H790 H 0.61045 0.37423 0.44842 0.0
H791 H 0.60024 0.39217 0.38331 0.0
C792 C 0.51932 0.41182 0.24265 0.0
C793 C 0.52479 0.39797 0.21426 0.0
C794 C 0.53065 0.41854 0.27572 0.0
C795 C 0.54778 0.41175 0.28072 0.0
C796 C 0.55304 0.39737 0.25402 0.0
C797 C 0.54163 0.39052 0.22101 0.0
C798 C 0.56023 0.42036 0.31259 0.0
C799 C 0.56735 0.41057 0.34884 0.0
C800 C 0.56366 0.43868 0.30967 0.0
C801 C 0.55749 0.44949 0.27053 0.0
C802 C 0.56167 0.44456 0.22571 0.0
C803 C 0.55551 0.45456 0.18896 0.0
C804 C 0.54523 0.46957 0.19659 0.0
C805 C 0.54113 0.47465 0.24101 0.0
C806 C 0.54724 0.46469 0.27789 0.0
C807 C 0.6077 0.45489 0.479 0.0
C808 C 0.59674 0.46813 0.49718 0.0
C809 C 0.60204 0.4448 0.44176 0.0
C810 C 0.5853 0.44775 0.42252 0.0
C811 C 0.57442 0.46087 0.44082 0.0
C812 C 0.58004 0.47093 0.47752 0.0
C813 C 0.57868 0.43751 0.38315 0.0
C814 C 0.57279 0.44699 0.345 0.0
C815 C 0.57645 0.41897 0.38445 0.0
C816 C 0.58248 0.40818 0.42356 0.0
C817 C 0.57572 0.41112 0.46743 0.0
C818 C 0.58161 0.40093 0.50414 0.0
C819 C 0.59415 0.38767 0.49729 0.0
C820 C 0.60077 0.38453 0.45369 0.0
C821 C 0.59493 0.3947 0.41689 0.0
H822 H 0.5987 0.37979 0.52575 0.0
H823 H 0.54045 0.47728 0.16809 0.0
H824 H 0.1248 0.95244 0.28468 0.0
H825 H 0.11669 0.93242 0.22251 0.0
H826 H 0.06855 0.96166 0.20161 0.0
H827 H 0.07646 0.98157 0.26289 0.0
H828 H 0.06397 0.92484 0.21608 0.0
H829 H 0.10024 0.96603 0.12842 0.0
H830 H 0.12818 0.98102 0.10938 0.0
H831 H 0.15306 0.93087 0.08685 0.0
H832 H 0.12531 0.91558 0.10639 0.0
H833 H 0.02116 0.92027 0.01323 0.0
H834 H 0.04098 0.92921 0.07358 0.0
H835 H 0.07322 0.88322 0.05061 0.0
H836 H 0.05316 0.87388 0.9892 0.0
H837 H 0.09156 0.91948 0.06367 0.0
H838 H 0.05291 0.87878 0.13675 0.0
H839 H 0.02428 0.86462 0.15278 0.0
H840 H 0.00385 0.91377 0.20258 0.0
H841 H 0.03225 0.92831 0.18615 0.0
C842 C 0.1126 0.95475 0.26643 0.0
C843 C 0.10118 0.96857 0.27917 0.0
C844 C 0.10802 0.94329 0.23095 0.0
C845 C 0.09196 0.9455 0.2079 0.0
C846 C 0.08095 0.95967 0.21931 0.0
C847 C 0.08553 0.9711 0.25435 0.0
C848 C 0.08577 0.93266 0.17364 0.0
C849 C 0.07009 0.92352 0.18289 0.0
C850 C 0.09415 0.93045 0.13105 0.0
C851 C 0.1108 0.93966 0.11954 0.0
C852 C 0.11173 0.9582 0.11993 0.0
C853 C 0.12751 0.96675 0.10891 0.0
C854 C 0.14241 0.9569 0.0971 0.0
C855 C 0.14153 0.93848 0.09614 0.0
C856 C 0.12578 0.92987 0.10717 0.0
C857 C 0.03246 0.91198 0.02054 0.0
C858 C 0.03547 0.89626 -0.00363 0.0
C859 C 0.04379 0.91716 0.05515 0.0
C860 C 0.05846 0.90683 0.06657 0.0
C861 C 0.06192 0.89134 0.04209 0.0
C862 C 0.05041 0.88601 0.0073 0.0
C863 C 0.06938 0.91236 0.10565 0.0
C864 C 0.08586 0.92018 0.09746 0.0
C865 C 0.0618 0.91335 0.14947 0.0
C866 C 0.04473 0.90464 0.16011 0.0
C867 C 0.04228 0.8866 0.15089 0.0
C868 C 0.02609 0.8785 0.16007 0.0
C869 C 0.01225 0.88829 0.17868 0.0
C870 C 0.01459 0.9062 0.18822 0.0
C871 C 0.03075 0.91436 0.17905 0.0
H872 H -0.00027 0.882 0.18573 0.0
H873 H 0.15461 0.96354 0.08855 0.0
H874 H 0.52224 0.07222 0.77495 0.0
H875 H 0.54366 0.06535 0.7157 0.0
H876 H 0.55595 0.12062 0.70102 0.0
H877 H 0.53458 0.12772 0.76086 0.0
H878 H 0.55171 0.10086 0.61617 0.0
H879 H 0.5848 0.09991 0.75293 0.0
H880 H 0.59098 0.09298 0.83335 0.0
H881 H 0.58976 0.03756 0.80338 0.0
H882 H 0.58326 0.04414 0.7229 0.0
H883 H 0.616 0.0611 0.46802 0.0
H884 H 0.60718 0.08079 0.53059 0.0
H885 H 0.58216 0.03689 0.59856 0.0
H886 H 0.59064 0.01744 0.53648 0.0
H887 H 0.59998 0.05961 0.65827 0.0
H888 H 0.55849 0.06162 0.52902 0.0
H889 H 0.55126 0.06795 0.44877 0.0
H890 H 0.56851 0.12153 0.46547 0.0
H891 H 0.57606 0.11542 0.54575 0.0
C892 C 0.5293 0.08297 0.75885 0.0
C893 C 0.52678 0.10051 0.77286 0.0
C894 C 0.54161 0.07901 0.7252 0.0
C895 C 0.55152 0.09248 0.70467 0.0
C896 C 0.54848 0.11007 0.71683 0.0
C897 C 0.53629 0.11406 0.75099 0.0
C898 C 0.56524 0.08779 0.6712 0.0
C899 C 0.5626 0.09227 0.62542 0.0
C900 C 0.57943 0.07663 0.68349 0.0
C901 C 0.58346 0.07254 0.73185 0.0
C902 C 0.58571 0.08624 0.76353 0.0
C903 C 0.58929 0.08238 0.80913 0.0
C904 C 0.59074 0.06484 0.82348 0.0
C905 C 0.58864 0.05114 0.79222 0.0
C906 C 0.58503 0.05493 0.74657 0.0
C907 C 0.60897 0.05566 0.49692 0.0
C908 C 0.60381 0.03785 0.49744 0.0
C909 C 0.60393 0.06688 0.53244 0.0
C910 C 0.59396 0.06026 0.56895 0.0
C911 C 0.58989 0.04223 0.57074 0.0
C912 C 0.59464 0.03116 0.53516 0.0
C913 C 0.58591 0.072 0.60316 0.0
C914 C 0.58957 0.06881 0.6492 0.0
C915 C 0.57269 0.08434 0.59111 0.0
C916 C 0.56805 0.08802 0.54308 0.0
C917 C 0.56086 0.07471 0.51544 0.0
C918 C 0.55669 0.07826 0.47 0.0
C919 C 0.55948 0.09512 0.45199 0.0
C920 C 0.5664 0.10847 0.47944 0.0
C921 C 0.57063 0.10498 0.52489 0.0
H922 H 0.55624 0.09784 0.4168 0.0
H923 H 0.59352 0.06188 0.8588 0.0
H924 H 0.41469 0.50464 0.25151 0.0
H925 H 0.42521 0.52261 0.18809 0.0
H926 H 0.39003 0.56467 0.2274 0.0
H927 H 0.37894 0.54646 0.29009 0.0
H928 H 0.39217 0.56306 0.13693 0.0
H929 H 0.43343 0.56584 0.25889 0.0
H930 H 0.45282 0.55429 0.31942 0.0
H931 H 0.48359 0.52658 0.2199 0.0
H932 H 0.46422 0.53776 0.15882 0.0
H933 H 0.4494 0.62015 -0.00338 0.0
H934 H 0.43164 0.60872 0.06035 0.0
H935 H 0.4541 0.55701 0.04045 0.0
H936 H 0.47163 0.56806 0.97772 0.0
H937 H 0.45724 0.56953 0.12903 0.0
H938 H 0.41292 0.56519 0.00828 0.0
H939 H 0.39352 0.57796 0.94938 0.0
H940 H 0.36898 0.611 0.04958 0.0
H941 H 0.38841 0.59857 0.10898 0.0
C942 C 0.40906 0.51764 0.24639 0.0
C943 C 0.39617 0.52423 0.27613 0.0
C944 C 0.41511 0.52792 0.21023 0.0
C945 C 0.40874 0.54517 0.20379 0.0
C946 C 0.39521 0.55146 0.23196 0.0
C947 C 0.38892 0.54104 0.26778 0.0
C948 C 0.41698 0.5568 0.16916 0.0
C949 C 0.40637 0.56472 0.13558 0.0
C950 C 0.4355 0.55919 0.1677 0.0
C951 C 0.4473 0.55257 0.20431 0.0
C952 C 0.44427 0.55721 0.24994 0.0
C953 C 0.45527 0.55073 0.28435 0.0
C954 C 0.46941 0.53969 0.27352 0.0
C955 C 0.47262 0.53513 0.22824 0.0
C956 C 0.46166 0.54156 0.19371 0.0
C957 C 0.45039 0.60632 0.00566 0.0
C958 C 0.46214 0.5951 0.98248 0.0
C959 C 0.44024 0.59983 0.04193 0.0
C960 C 0.4417 0.58206 0.05517 0.0
C961 C 0.45292 0.5708 0.03101 0.0
C962 C 0.46297 0.5772 0.99512 0.0
C963 C 0.43254 0.57497 0.09564 0.0
C964 C 0.44301 0.56807 0.13075 0.0
C965 C 0.41397 0.57376 0.09863 0.0
C966 C 0.40226 0.58111 0.06293 0.0
C967 C 0.4035 0.57529 0.01767 0.0
C968 C 0.39247 0.58244 0.98421 0.0
C969 C 0.38007 0.59533 0.9957 0.0
C970 C 0.37862 0.60104 0.04071 0.0
C971 C 0.38962 0.59394 0.07428 0.0
H972 H 0.37154 0.60085 0.96976 0.0
H973 H 0.47791 0.53468 0.30021 0.0
H974 H 0.95791 0.36439 0.75473 0.0
H975 H 0.94157 0.36824 0.68332 0.0
H976 H 0.95616 0.42327 0.68079 0.0
H977 H 0.97275 0.4195 0.75081 0.0
H978 H 0.9139 0.38784 0.66003 0.0
H979 H 0.96382 0.43785 0.58139 0.0
H980 H 0.99606 0.44215 0.5777 0.0
H981 H 0.00412 0.38668 0.59954 0.0
H982 H 0.97197 0.38207 0.60378 0.0
H983 H 0.87495 0.45115 0.51665 0.0
H984 H 0.88813 0.43074 0.57161 0.0
H985 H 0.92318 0.41121 0.46732 0.0
H986 H 0.91077 0.4325 0.41348 0.0
H987 H 0.94179 0.41996 0.53167 0.0
H988 H 0.89145 0.38409 0.52532 0.0
H989 H 0.85995 0.37607 0.5236 0.0
H990 H 0.85343 0.39603 0.65912 0.0
H991 H 0.88484 0.40443 0.66147 0.0
C992 C 0.95772 0.37728 0.73874 0.0
C993 C 0.96677 0.39161 0.75835 0.0
C994 C 0.94834 0.37945 0.69803 0.0
C995 C 0.94789 0.39597 0.67633 0.0
C996 C 0.95669 0.41029 0.69627 0.0
C997 C 0.96614 0.40812 0.73652 0.0
C998 C 0.93804 0.39866 0.63325 0.0
C999 C 0.91995 0.39469 0.63162 0.0
C1000 C 0.94611 0.4069 0.59544 0.0
C1001 C 0.96549 0.40964 0.59308 0.0
C1002 C 0.97248 0.42657 0.58534 0.0
C1003 C 0.99075 0.42907 0.58337 0.0
C1004 C 0.00215 0.41472 0.58869 0.0
C1005 C 0.9953 0.39782 0.59595 0.0
C1006 C 0.97706 0.39527 0.59829 0.0
C1007 C 0.88511 0.4421 0.50537 0.0
C1008 C 0.89199 0.44336 0.46126 0.0
C1009 C 0.89259 0.43034 0.53665 0.0
C1010 C 0.90671 0.41936 0.52376 0.0
C1011 C 0.91244 0.41962 0.47831 0.0
C1012 C 0.90532 0.43171 0.44751 0.0
C1013 C 0.91729 0.40994 0.55891 0.0
C1014 C 0.93562 0.4127 0.55924 0.0
C1015 C 0.90947 0.4 0.59448 0.0
C1016 C 0.89053 0.39497 0.59346 0.0
C1017 C 0.88329 0.38689 0.55466 0.0
C1018 C 0.86544 0.38225 0.55359 0.0
C1019 C 0.85469 0.38556 0.59121 0.0
C1020 C 0.86178 0.39347 0.63001 0.0
C1021 C 0.87962 0.39814 0.63126 0.0
H1022 H 0.84087 0.38197 0.5903 0.0
H1023 H 0.01628 0.41667 0.58705 0.0
H1024 H 0.94181 0.36949 0.97992 0.0
H1025 H 0.92125 0.37746 0.04154 0.0
H1026 H 0.94223 0.43035 0.04205 0.0
H1027 H 0.96238 0.42281 0.98144 0.0
H1028 H 0.94224 0.41149 0.12883 0.0
H1029 H 0.90499 0.42457 0.99445 0.0
H1030 H 0.88822 0.41514 0.92679 0.0
H1031 H 0.85743 0.37991 0.0094 0.0
H1032 H 0.8742 0.389 0.07747 0.0
H1033 H 0.90328 0.48149 0.22702 0.0
H1034 H 0.9111 0.46183 0.16468 0.0
H1035 H 0.87413 0.42302 0.21403 0.0
H1036 H 0.86601 0.44276 0.27662 0.0
H1037 H 0.87842 0.42498 0.11287 0.0
H1038 H 0.91149 0.41622 0.24937 0.0
H1039 H 0.92777 0.4259 0.31754 0.0
H1040 H 0.96653 0.45112 0.23302 0.0
H1041 H 0.95029 0.44187 0.16435 0.0
C1042 C 0.94191 0.38284 0.99302 0.0
C1043 C 0.95391 0.39544 0.976 0.0
C1044 C 0.93016 0.38734 0.02806 0.0
C1045 C 0.93038 0.40444 0.04632 0.0
C1046 C 0.94198 0.41705 0.02854 0.0
C1047 C 0.95354 0.41265 0.9938 0.0
C1048 C 0.91941 0.40959 0.08553 0.0
C1049 C 0.92823 0.41422 0.12564 0.0
C1050 C 0.90105 0.41259 0.08176 0.0
C1051 C 0.89099 0.40728 0.04087 0.0
C1052 C 0.89476 0.41469 -0.00191 0.0
C1053 C 0.88523 0.40944 0.9597 0.0
C1054 C 0.87181 0.39689 0.96376 0.0
C1055 C 0.86785 0.38961 0.00627 0.0
C1056 C 0.87736 0.3948 0.04476 0.0
C1057 C 0.89647 0.46897 0.22405 0.0
C1058 C 0.8843 0.46352 0.25721 0.0
C1059 C 0.90091 0.45778 0.18834 0.0
C1060 C 0.89341 0.44089 0.18542 0.0
C1061 C 0.88006 0.436 0.2159 0.0
C1062 C 0.87549 0.4473 0.25164 0.0
C1063 C 0.90158 0.42779 0.15482 0.0
C1064 C 0.89226 0.42165 0.11677 0.0
C1065 C 0.91953 0.42318 0.16052 0.0
C1066 C 0.92963 0.42839 0.20171 0.0
C1067 C 0.92344 0.4239 0.24532 0.0
C1068 C 0.93265 0.42932 0.28406 0.0
C1069 C 0.94817 0.43912 0.27961 0.0
C1070 C 0.95452 0.4435 0.23641 0.0
C1071 C 0.94532 0.43816 0.19756 0.0
H1072 H 0.95528 0.44332 0.30964 0.0
H1073 H 0.86445 0.39284 0.93401 0.0
H1074 H 0.04393 0.87351 0.79126 0.0
H1075 H 0.06116 0.88058 0.72321 0.0
H1076 H 0.02232 0.91935 0.68406 0.0
H1077 H 0.00504 0.91247 0.75192 0.0
H1078 H 0.03503 0.89866 0.61063 0.0
H1079 H 0.05747 0.93223 0.7408 0.0
H1080 H 0.07044 0.93458 0.81753 0.0
H1081 H 0.11478 0.90341 0.77512 0.0
H1082 H 0.10193 0.90068 0.69825 0.0
H1083 H 0.06713 0.96973 0.49118 0.0
H1084 H 0.05552 0.94858 0.54535 0.0
H1085 H 0.1064 0.92326 0.55397 0.0
H1086 H 0.1184 0.94472 0.49937 0.0
H1087 H 0.09217 0.92895 0.63732 0.0
H1088 H 0.07341 0.90164 0.50232 0.0
H1089 H 0.06097 0.89922 0.42511 0.0
H1090 H 0.0107 0.91704 0.47414 0.0
H1091 H 0.02288 0.91986 0.55155 0.0
C1092 C 0.03893 0.88339 0.76789 0.0
C1093 C 0.0232 0.89258 0.77725 0.0
C1094 C 0.04881 0.8874 0.72908 0.0
C1095 C 0.04304 0.90054 0.69889 0.0
C1096 C 0.02696 0.90914 0.70701 0.0
C1097 C 0.01717 0.90527 0.74596 0.0
C1098 C 0.05425 0.90643 0.6606 0.0
C1099 C 0.04754 0.90526 0.61626 0.0
C1100 C 0.07092 0.91433 0.66797 0.0
C1101 C 0.07864 0.91605 0.71405 0.0
C1102 C 0.06991 0.92575 0.74798 0.0
C1103 C 0.07725 0.92718 0.79146 0.0
C1104 C 0.0934 0.9191 0.80125 0.0
C1105 C 0.10226 0.90962 0.76753 0.0
C1106 C 0.09496 0.90813 0.72401 0.0
C1107 C 0.07596 0.95969 0.5043 0.0
C1108 C 0.09375 0.95898 0.49085 0.0
C1109 C 0.06921 0.94746 0.53505 0.0
C1110 C 0.08 0.93414 0.553 0.0
C1111 C 0.09782 0.93336 0.54009 0.0
C1112 C 0.10464 0.94564 0.50899 0.0
C1113 C 0.07258 0.92192 0.5874 0.0
C1114 C 0.07996 0.92187 0.63115 0.0
C1115 C 0.05661 0.91273 0.57935 0.0
C1116 C 0.04911 0.91101 0.53283 0.0
C1117 C 0.05973 0.90516 0.49663 0.0
C1118 C 0.05271 0.9037 0.4528 0.0
C1119 C 0.03506 0.90798 0.44472 0.0
C1120 C 0.02437 0.91371 0.48047 0.0
C1121 C 0.03132 0.91521 0.52437 0.0
H1122 H 0.02965 0.90685 0.41076 0.0
H1123 H 0.09906 0.92022 0.83493 0.0
H1124 H 0.57897 0.01909 0.24469 0.0
H1125 H 0.5735 0.0391 0.18067 0.0
H1126 H 0.61217 0.07545 0.23317 0.0
H1127 H 0.61818 0.05524 0.29674 0.0
H1128 H 0.5701 0.08566 0.20603 0.0
H1129 H 0.62784 0.06767 0.15579 0.0
H1130 H 0.65155 0.04613 0.14131 0.0
H1131 H 0.6177 0.0178 0.04986 0.0
H1132 H 0.59367 0.03903 0.06441 0.0
H1133 H 0.54338 0.12978 0.00051 0.0
H1134 H 0.56441 0.12171 0.06089 0.0
H1135 H 0.55647 0.0666 0.0304 0.0
H1136 H 0.53576 0.07445 0.97066 0.0
H1137 H 0.59093 0.0735 0.0492 0.0
H1138 H 0.53241 0.08638 0.11281 0.0
H1139 H 0.5072 0.1062 0.12726 0.0
H1140 H 0.54168 0.14316 0.1932 0.0
H1141 H 0.56712 0.12358 0.1787 0.0
C1142 C 0.58641 0.03126 0.24243 0.0
C1143 C 0.59901 0.03559 0.27563 0.0
C1144 C 0.58331 0.04264 0.2059 0.0
C1145 C 0.59251 0.05864 0.20237 0.0
C1146 C 0.60507 0.06307 0.23535 0.0
C1147 C 0.60848 0.05151 0.27145 0.0
C1148 C 0.58822 0.0708 0.16474 0.0
C1149 C 0.57505 0.08348 0.17187 0.0
C1150 C 0.59457 0.0677 0.12036 0.0
C1151 C 0.6089 0.05484 0.11159 0.0
C1152 C 0.62538 0.05673 0.13303 0.0
C1153 C 0.6389 0.04461 0.1247 0.0
C1154 C 0.63612 0.03057 0.09478 0.0
C1155 C 0.61982 0.02866 0.07308 0.0
C1156 C 0.60626 0.04075 0.08132 0.0
C1157 C 0.54635 0.11598 0.0064 0.0
C1158 C 0.53771 0.10273 0.98142 0.0
C1159 C 0.55834 0.1114 0.04079 0.0
C1160 C 0.56191 0.09355 0.0502 0.0
C1161 C 0.55396 0.08044 0.02363 0.0
C1162 C 0.54196 0.08496 0.98978 0.0
C1163 C 0.57241 0.08802 0.09023 0.0
C1164 C 0.58658 0.07638 0.08354 0.0
C1165 C 0.56693 0.09202 0.13504 0.0
C1166 C 0.55165 0.10365 0.14424 0.0
C1167 C 0.5346 0.09878 0.13018 0.0
C1168 C 0.52029 0.10996 0.1384 0.0
C1169 C 0.52285 0.12596 0.16102 0.0
C1170 C 0.53973 0.13078 0.17561 0.0
C1171 C 0.5541 0.11965 0.16742 0.0
H1172 H 0.51175 0.1346 0.16733 0.0
H1173 H 0.64661 0.02121 0.08834 0.0
H1174 H 0.4067 0.51489 0.53289 0.0
H1175 H 0.41574 0.53502 0.59264 0.0
H1176 H 0.3867 0.57726 0.52844 0.0
H1177 H 0.37738 0.55688 0.46775 0.0
H1178 H 0.42209 0.58607 0.55184 0.0
H1179 H 0.37151 0.56477 0.62524 0.0
H1180 H 0.34919 0.54316 0.6501 0.0
H1181 H 0.38832 0.51582 0.72901 0.0
H1182 H 0.41097 0.53707 0.70406 0.0
H1183 H 0.45765 0.62562 0.76211 0.0
H1184 H 0.43667 0.6179 0.70172 0.0
H1185 H 0.45503 0.56406 0.70546 0.0
H1186 H 0.47611 0.57159 0.76506 0.0
H1187 H 0.41682 0.56946 0.71466 0.0
H1188 H 0.46776 0.58794 0.62246 0.0
H1189 H 0.48947 0.60993 0.59602 0.0
H1190 H 0.44745 0.64418 0.55314 0.0
H1191 H 0.42548 0.62245 0.57991 0.0
C1192 C 0.40207 0.52841 0.53151 0.0
C1193 C 0.39139 0.53433 0.49553 0.0
C1194 C 0.40716 0.53988 0.56588 0.0
C1195 C 0.40176 0.55757 0.56513 0.0
C1196 C 0.3909 0.5636 0.52964 0.0
C1197 C 0.38555 0.55197 0.49523 0.0
C1198 C 0.40865 0.56956 0.60055 0.0
C1199 C 0.42053 0.58286 0.5876 0.0
C1200 C 0.40654 0.56539 0.64713 0.0
C1201 C 0.39297 0.55255 0.66268 0.0
C1202 C 0.3754 0.55409 0.64769 0.0
C1203 C 0.36268 0.54191 0.66183 0.0
C1204 C 0.36734 0.52813 0.69112 0.0
C1205 C 0.38473 0.52652 0.70638 0.0
C1206 C 0.39751 0.53866 0.69231 0.0
C1207 C 0.45735 0.61217 0.74972 0.0
C1208 C 0.46851 0.59919 0.76855 0.0
C1209 C 0.44536 0.60782 0.71528 0.0
C1210 C 0.44426 0.59041 0.69959 0.0
C1211 C 0.45565 0.57756 0.71746 0.0
C1212 C 0.46776 0.58192 0.75133 0.0
C1213 C 0.43094 0.58512 0.66557 0.0
C1214 C 0.41787 0.57312 0.67906 0.0
C1215 C 0.43178 0.59069 0.6197 0.0
C1216 C 0.445 0.60371 0.6038 0.0
C1217 C 0.46316 0.60024 0.60787 0.0
C1218 C 0.47551 0.61264 0.5927 0.0
C1219 C 0.46984 0.62848 0.57309 0.0
C1220 C 0.45182 0.63193 0.56846 0.0
C1221 C 0.43942 0.61958 0.58361 0.0
H1222 H 0.47942 0.63805 0.56134 0.0
H1223 H 0.35747 0.5187 0.70202 0.0
H1224 H 0.87284 0.0452 0.7072 0.0
H1225 H 0.8804 0.06449 0.77112 0.0
H1226 H 0.92552 0.0318 0.80138 0.0
H1227 H 0.91811 0.01253 0.73811 0.0
H1228 H 0.90763 0.04152 0.87843 0.0
H1229 H 0.92985 0.06909 0.73899 0.0
H1230 H 0.92611 0.08226 0.66273 0.0
H1231 H 0.89092 0.12115 0.71782 0.0
H1232 H 0.8943 0.10806 0.79434 0.0
H1233 H 0.98031 0.0827 0.96253 0.0
H1234 H 0.95923 0.07222 0.90655 0.0
H1235 H 0.92153 0.11122 0.95043 0.0
H1236 H 0.9427 0.12187 0.00778 0.0
H1237 H 0.92687 0.1028 0.84462 0.0
H1238 H 0.91024 0.07807 0.98834 0.0
H1239 H 0.91622 0.06499 0.06367 0.0
H1240 H 0.94151 0.0207 0.00035 0.0
H1241 H 0.93598 0.03367 0.92463 0.0
C1242 C 0.88428 0.04201 0.72774 0.0
C1243 C 0.89496 0.02735 0.71725 0.0
C1244 C 0.88858 0.05308 0.76417 0.0
C1245 C 0.90357 0.04963 0.79077 0.0
C1246 C 0.91387 0.03469 0.78132 0.0
C1247 C 0.90966 0.02372 0.7449 0.0
C1248 C 0.9093 0.06183 0.82722 0.0
C1249 C 0.91164 0.05498 0.87118 0.0
C1250 C 0.91406 0.07956 0.81808 0.0
C1251 C 0.91215 0.08747 0.7722 0.0
C1252 C 0.92121 0.08037 0.73474 0.0
C1253 C 0.91918 0.08783 0.6915 0.0
C1254 C 0.90824 0.1025 0.6854 0.0
C1255 C 0.89936 0.10977 0.72257 0.0
C1256 C 0.90133 0.10234 0.76587 0.0
C1257 C 0.96765 0.08929 0.96014 0.0
C1258 C 0.9631 0.10296 0.99019 0.0
C1259 C 0.95564 0.08328 0.92797 0.0
C1260 C 0.93882 0.09082 0.92488 0.0
C1261 C 0.9345 0.10525 0.95253 0.0
C1262 C 0.94659 0.1113 0.98516 0.0
C1263 C 0.92569 0.08223 0.89515 0.0
C1264 C 0.9221 0.08963 0.8524 0.0
C1265 C 0.91973 0.06499 0.90535 0.0
C1266 C 0.92276 0.0569 0.95078 0.0
C1267 C 0.91718 0.06559 0.99047 0.0
C1268 C 0.92047 0.05819 0.03326 0.0
C1269 C 0.92925 0.04203 0.03681 0.0
C1270 C 0.9347 0.03321 -0.00245 0.0
C1271 C 0.93146 0.04057 0.95468 0.0
H1272 H 0.93183 0.03634 0.06995 0.0
H1273 H 0.90668 0.10825 0.6519 0.0
H1274 H 0.39681 0.97635 0.43981 0.0
H1275 H 0.40559 0.95612 0.37972 0.0
H1276 H 0.38985 0.9118 0.46276 0.0
H1277 H 0.3807 0.93224 0.52335 0.0
H1278 H 0.42444 0.90944 0.43099 0.0
H1279 H 0.36831 0.91695 0.36808 0.0
H1280 H 0.34111 0.93216 0.34401 0.0
H1281 H 0.37054 0.96237 0.24633 0.0
H1282 H 0.39799 0.94756 0.27029 0.0
H1283 H 0.4585 0.86547 0.22699 0.0
H1284 H 0.43733 0.87326 0.28683 0.0
H1285 H 0.44858 0.92842 0.26537 0.0
H1286 H 0.47004 0.9208 0.20646 0.0
H1287 H 0.41011 0.91667 0.26723 0.0
H1288 H 0.46669 0.91294 0.3486 0.0
H1289 H 0.4933 0.89695 0.37389 0.0
H1290 H 0.46091 0.85748 0.43748 0.0
H1291 H 0.43409 0.87313 0.41187 0.0
C1292 C 0.39487 0.96232 0.44494 0.0
C1293 C 0.38817 0.95583 0.48618 0.0
C1294 C 0.39979 0.95077 0.4105 0.0
C1295 C 0.39828 0.93247 0.41672 0.0
C1296 C 0.391 0.9259 0.45729 0.0
C1297 C 0.38574 0.93755 0.49167 0.0
C1298 C 0.40624 0.92063 0.38244 0.0
C1299 C 0.42096 0.91054 0.39528 0.0
C1300 C 0.40171 0.92211 0.3359 0.0
C1301 C 0.38526 0.93115 0.32115 0.0
C1302 C 0.36903 0.92693 0.34169 0.0
C1303 C 0.35355 0.93547 0.32802 0.0
C1304 C 0.3541 0.94823 0.29368 0.0
C1305 C 0.37013 0.95247 0.27291 0.0
C1306 C 0.38566 0.94398 0.28647 0.0
C1307 C 0.45649 0.87926 0.23515 0.0
C1308 C 0.46592 0.89254 0.21207 0.0
C1309 C 0.4444 0.88365 0.26922 0.0
C1310 C 0.44137 0.90138 0.28006 0.0
C1311 C 0.45072 0.91466 0.2571 0.0
C1312 C 0.46305 0.91028 0.22375 0.0
C1313 C 0.42868 0.90633 0.31587 0.0
C1314 C 0.41315 0.91509 0.30308 0.0
C1315 C 0.43231 0.90342 0.36242 0.0
C1316 C 0.44841 0.89404 0.37773 0.0
C1317 C 0.46525 0.90074 0.3675 0.0
C1318 C 0.48037 0.89177 0.382 0.0
C1319 C 0.4788 0.87617 0.40712 0.0
C1320 C 0.4621 0.86954 0.4179 0.0
C1321 C 0.44694 0.87845 0.4034 0.0
H1322 H 0.49052 0.86924 0.41836 0.0
H1323 H 0.3421 0.95483 0.28314 0.0
H1324 H 0.50453 0.41062 0.96665 0.0
H1325 H 0.5227 0.42089 0.90366 0.0
H1326 H 0.56567 0.38806 0.94972 0.0
H1327 H 0.54741 0.37754 0.01332 0.0
H1328 H 0.57546 0.42346 0.93109 0.0
H1329 H 0.547 0.37622 0.85636 0.0
H1330 H 0.52223 0.35701 0.8341 0.0
H1331 H 0.49702 0.40068 0.76711 0.0
H1332 H 0.52151 0.42024 0.78958 0.0
H1333 H 0.61758 0.45525 0.72394 0.0
H1334 H 0.60684 0.43525 0.78361 0.0
H1335 H 0.55502 0.45842 0.773 0.0
H1336 H 0.5655 0.47829 0.71373 0.0
H1337 H 0.55466 0.42158 0.77108 0.0
H1338 H 0.58071 0.46922 0.85954 0.0
H1339 H 0.60521 0.48854 0.88353 0.0
H1340 H 0.63524 0.44319 0.92487 0.0
H1341 H 0.611 0.4236 0.90047 0.0
C1342 C 0.51779 0.40543 0.9633 0.0
C1343 C 0.52453 0.39328 0.99504 0.0
C1344 C 0.52813 0.41127 0.92714 0.0
C1345 C 0.54548 0.40515 0.92192 0.0
C1346 C 0.55228 0.39288 0.95317 0.0
C1347 C 0.54181 0.38683 0.98926 0.0
C1348 C 0.55646 0.41239 0.88467 0.0
C1349 C 0.57123 0.42268 0.89589 0.0
C1350 C 0.55082 0.41145 0.8389 0.0
C1351 C 0.53608 0.39973 0.82486 0.0
C1352 C 0.53612 0.38177 0.83713 0.0
C1353 C 0.52213 0.3708 0.82444 0.0
C1354 C 0.50805 0.37762 0.79924 0.0
C1355 C 0.50795 0.39541 0.78661 0.0
C1356 C 0.5219 0.40644 0.79926 0.0
C1357 C 0.60391 0.45611 0.73444 0.0
C1358 C 0.59241 0.4684 0.71403 0.0
C1359 C 0.59782 0.4447 0.76856 0.0
C1360 C 0.58013 0.44534 0.78255 0.0
C1361 C 0.5687 0.45766 0.76249 0.0
C1362 C 0.57477 0.4691 0.72878 0.0
C1363 C 0.57321 0.43318 0.81778 0.0
C1364 C 0.5592 0.42197 0.80608 0.0
C1365 C 0.57961 0.43321 0.86299 0.0
C1366 C 0.59417 0.44496 0.87756 0.0
C1367 C 0.59262 0.46338 0.87327 0.0
C1368 C 0.60643 0.47437 0.88704 0.0
C1369 C 0.62179 0.46709 0.90553 0.0
C1370 C 0.62335 0.44881 0.91042 0.0
C1371 C 0.60958 0.43776 0.89663 0.0
H1372 H 0.63247 0.47563 0.91621 0.0
H1373 H 0.49723 0.36912 0.78946 0.0
H1374 H 0.11077 0.56153 0.53194 0.0
H1375 H 0.09949 0.58161 0.47257 0.0
H1376 H 0.07506 0.53747 0.40473 0.0
H1377 H 0.08592 0.51762 0.46372 0.0
H1378 H 0.09201 0.56129 0.345 0.0
H1379 H 0.05121 0.56048 0.47456 0.0
H1380 H 0.04373 0.56551 0.55516 0.0
H1381 H 0.0584 0.62003 0.54202 0.0
H1382 H 0.06619 0.61524 0.4614 0.0
H1383 H 0.01271 0.5733 0.2345 0.0
H1384 H 0.03281 0.56729 0.29741 0.0
H1385 H 0.05047 0.62134 0.29528 0.0
H1386 H 0.03052 0.62756 0.23141 0.0
H1387 H 0.04289 0.60098 0.38985 0.0
H1388 H 0.07784 0.60221 0.25357 0.0
H1389 H 0.08342 0.59607 0.1725 0.0
H1390 H 0.07946 0.54041 0.19826 0.0
H1391 H 0.07352 0.54623 0.2794 0.0
C1392 C 0.10323 0.55616 0.50387 0.0
C1393 C 0.09907 0.53808 0.50246 0.0
C1394 C 0.09679 0.5676 0.47019 0.0
C1395 C 0.08643 0.56098 0.43445 0.0
C1396 C 0.08308 0.54282 0.43196 0.0
C1397 C 0.0892 0.53151 0.4658 0.0
C1398 C 0.07777 0.57273 0.40103 0.0
C1399 C 0.08146 0.57019 0.35478 0.0
C1400 C 0.06423 0.58458 0.41393 0.0
C1401 C 0.0595 0.58746 0.46222 0.0
C1402 C 0.05298 0.5735 0.48899 0.0
C1403 C 0.04866 0.57631 0.53463 0.0
C1404 C 0.05064 0.59307 0.55374 0.0
C1405 C 0.05691 0.60705 0.5272 0.0
C1406 C 0.06128 0.6043 0.48154 0.0
C1407 C 0.02062 0.58404 0.24771 0.0
C1408 C 0.02016 0.60086 0.22746 0.0
C1409 C 0.03209 0.58056 0.28369 0.0
C1410 C 0.04316 0.59385 0.30051 0.0
C1411 C 0.042 0.61095 0.28254 0.0
C1412 C 0.03065 0.61442 0.24601 0.0
C1413 C 0.05687 0.5891 0.33401 0.0
C1414 C 0.05399 0.59278 0.38012 0.0
C1415 C 0.07121 0.57831 0.32106 0.0
C1416 C 0.0751 0.57467 0.27249 0.0
C1417 C 0.07802 0.58866 0.24189 0.0
C1418 C 0.08126 0.58524 0.19594 0.0
C1419 C 0.08174 0.56786 0.18024 0.0
C1420 C 0.07906 0.55386 0.21049 0.0
C1421 C 0.07577 0.55722 0.25647 0.0
H1422 H 0.0842 0.56524 0.14466 0.0
H1423 H 0.04724 0.59522 0.58904 0.0
H1424 H 0.84911 0.5346 0.3187 0.0
H1425 H 0.86222 0.56086 0.28309 0.0
H1426 H 0.91391 0.54347 0.32605 0.0
H1427 H 0.90085 0.51836 0.36417 0.0
H1428 H 0.9142 0.57578 0.33287 0.0
H1429 H 0.89457 0.5365 0.21311 0.0
H1430 H 0.87275 0.51936 0.16928 0.0
H1431 H 0.84373 0.56679 0.1405 0.0
H1432 H 0.86531 0.58417 0.18462 0.0
H1433 H 0.95826 0.59515 0.1063 0.0
H1434 H 0.93443 0.58146 0.14858 0.0
H1435 H 0.9323 0.62644 0.23829 0.0
H1436 H 0.95694 0.64001 0.19677 0.0
H1437 H 0.90219 0.58656 0.16933 0.0
H1438 H 0.9237 0.61167 0.34584 0.0
H1439 H 0.9503 0.62329 0.38407 0.0
H1440 H 0.9833 0.59494 0.29067 0.0
H1441 H 0.95693 0.58298 0.25239 0.0
C1442 C 0.86324 0.53657 0.3208 0.0
C1443 C 0.87396 0.52431 0.34376 0.0
C1444 C 0.87075 0.55152 0.30029 0.0
C1445 C 0.88915 0.5541 0.30111 0.0
C1446 C 0.8997 0.54197 0.32497 0.0
C1447 C 0.89219 0.52742 0.34647 0.0
C1448 C 0.89786 0.56872 0.27559 0.0
C1449 C 0.9114 0.57824 0.29722 0.0
C1450 C 0.89439 0.57199 0.22894 0.0
C1451 C 0.88139 0.56158 0.20264 0.0
C1452 C 0.88346 0.54324 0.19769 0.0
C1453 C 0.87115 0.53349 0.17277 0.0
C1454 C 0.85682 0.54197 0.15227 0.0
C1455 C 0.8548 0.56023 0.15653 0.0
C1456 C 0.86706 0.57004 0.18148 0.0
C1457 C 0.95266 0.60226 0.13477 0.0
C1458 C 0.9597 0.61852 0.14875 0.0
C1459 C 0.93887 0.59446 0.15873 0.0
C1460 C 0.93167 0.60277 0.19704 0.0
C1461 C 0.93784 0.61963 0.20927 0.0
C1462 C 0.95187 0.6274 0.18548 0.0
C1463 C 0.91907 0.5928 0.22606 0.0
C1464 C 0.90467 0.58438 0.20527 0.0
C1465 C 0.92242 0.5897 0.27278 0.0
C1466 C 0.93835 0.59667 0.29591 0.0
C1467 C 0.93664 0.60792 0.33357 0.0
C1468 C 0.95167 0.61455 0.35523 0.0
C1469 C 0.96848 0.60992 0.33968 0.0
C1470 C 0.97029 0.59857 0.30258 0.0
C1471 C 0.95531 0.59187 0.28089 0.0
H1472 H 0.98009 0.61509 0.35646 0.0
H1473 H 0.84731 0.53441 0.13296 0.0
H1474 H 0.86074 0.9675 0.718 0.0
H1475 H 0.87558 0.94298 0.75732 0.0
H1476 H 0.90464 0.93114 0.635 0.0
H1477 H 0.89029 0.95575 0.59616 0.0
H1478 H 0.88124 0.9063 0.74499 0.0
H1479 H 0.94697 0.92527 0.66309 0.0
H1480 H 0.96144 0.95076 0.62628 0.0
H1481 H 0.93008 0.98623 0.70606 0.0
H1482 H 0.91545 0.961 0.74345 0.0
H1483 H 0.96395 0.85409 0.79798 0.0
H1484 H 0.93971 0.86825 0.75562 0.0
H1485 H 0.93586 0.90827 0.85907 0.0
H1486 H 0.95963 0.89425 0.90162 0.0
H1487 H 0.94581 0.91658 0.75541 0.0
H1488 H 0.90449 0.8899 0.86392 0.0
H1489 H 0.89065 0.86427 0.90147 0.0
H1490 H 0.87395 0.84441 0.77169 0.0
H1491 H 0.88795 0.86982 0.73333 0.0
C1492 C 0.87004 0.95943 0.69938 0.0
C1493 C 0.87462 0.96367 0.65438 0.0
C1494 C 0.87844 0.9454 0.72175 0.0
C1495 C 0.89139 0.93545 0.6992 0.0
C1496 C 0.89487 0.93883 0.65317 0.0
C1497 C 0.8867 0.95292 0.6311 0.0
C1498 C 0.90284 0.92312 0.72494 0.0
C1499 C 0.89535 0.90851 0.74721 0.0
C1500 C 0.92128 0.92593 0.72759 0.0
C1501 C 0.93002 0.94126 0.70568 0.0
C1502 C 0.94319 0.93853 0.67279 0.0
C1503 C 0.95138 0.95293 0.65179 0.0
C1504 C 0.94659 0.97012 0.66367 0.0
C1505 C 0.93365 0.97293 0.69669 0.0
C1506 C 0.92539 0.95859 0.71773 0.0
C1507 C 0.9576 0.86564 0.81218 0.0
C1508 C 0.96381 0.8732 0.8528 0.0
C1509 C 0.94377 0.87365 0.78808 0.0
C1510 C 0.93603 0.8892 0.80454 0.0
C1511 C 0.94161 0.89618 0.84616 0.0
C1512 C 0.95526 0.88819 0.87024 0.0
C1513 C 0.92423 0.89988 0.77569 0.0
C1514 C 0.93171 0.91423 0.7527 0.0
C1515 C 0.90589 0.89681 0.77267 0.0
C1516 C 0.89748 0.8816 0.79574 0.0
C1517 C 0.89806 0.87995 0.84336 0.0
C1518 C 0.89013 0.8655 0.8648 0.0
C1519 C 0.88148 0.85268 0.83897 0.0
C1520 C 0.88069 0.85432 0.79165 0.0
C1521 C 0.88861 0.86875 0.77005 0.0
H1522 H 0.87535 0.8415 0.85563 0.0
H1523 H 0.95295 0.98125 0.6474 0.0
H1524 H 0.51489 0.86596 0.23228 0.0
H1525 H 0.53756 0.88279 0.27339 0.0
H1526 H 0.56917 0.88524 0.15165 0.0
H1527 H 0.54628 0.86907 0.11012 0.0
H1528 H 0.58642 0.88109 0.25709 0.0
H1529 H 0.55336 0.91755 0.1443 0.0
H1530 H 0.52569 0.92674 0.10673 0.0
H1531 H 0.50239 0.93743 0.23693 0.0
H1532 H 0.52993 0.92814 0.27521 0.0
H1533 H 0.63439 0.96377 0.29051 0.0
H1534 H 0.6195 0.93808 0.25645 0.0
H1535 H 0.57532 0.94561 0.34674 0.0
H1536 H 0.58997 0.97081 0.38095 0.0
H1537 H 0.56591 0.94334 0.25547 0.0
H1538 H 0.60091 0.91296 0.36695 0.0
H1539 H 0.62835 0.9042 0.40598 0.0
H1540 H 0.64791 0.88147 0.2822 0.0
H1541 H 0.62066 0.89036 0.24219 0.0
C1542 C 0.52702 0.86948 0.21496 0.0
C1543 C 0.529 0.86626 0.1683 0.0
C1544 C 0.5399 0.87907 0.23834 0.0
C1545 C 0.55499 0.88513 0.21541 0.0
C1546 C 0.55769 0.88048 0.16988 0.0
C1547 C 0.54463 0.87132 0.14626 0.0
C1548 C 0.56599 0.89905 0.23586 0.0
C1549 C 0.58212 0.89474 0.25645 0.0
C1550 C 0.56019 0.91674 0.23524 0.0
C1551 C 0.54358 0.92204 0.21252 0.0
C1552 C 0.54227 0.92173 0.16486 0.0
C1553 C 0.52666 0.92703 0.14346 0.0
C1554 C 0.51233 0.93276 0.16943 0.0
C1555 C 0.51354 0.93307 0.21687 0.0
C1556 C 0.52913 0.92779 0.23843 0.0
C1557 C 0.62156 0.95983 0.30315 0.0
C1558 C 0.61329 0.96938 0.3381 0.0
C1559 C 0.61313 0.94516 0.28388 0.0
C1560 C 0.59633 0.94001 0.2992 0.0
C1561 C 0.58826 0.94941 0.33443 0.0
C1562 C 0.59667 0.96384 0.35387 0.0
C1563 C 0.58647 0.92554 0.27716 0.0
C1564 C 0.57042 0.92975 0.25607 0.0
C1565 C 0.59243 0.90782 0.27756 0.0
C1566 C 0.60885 0.90255 0.30142 0.0
C1567 C 0.61115 0.90628 0.3479 0.0
C1568 C 0.62664 0.90125 0.37024 0.0
C1569 C 0.63989 0.89234 0.34654 0.0
C1570 C 0.63765 0.88841 0.30048 0.0
C1571 C 0.62218 0.89344 0.27795 0.0
H1572 H 0.65188 0.88844 0.36391 0.0
H1573 H 0.50026 0.93686 0.1528 0.0
H1574 H 0.63546 0.52455 0.72864 0.0
H1575 H 0.62379 0.54999 0.77069 0.0
H1576 H 0.59525 0.56678 0.65113 0.0
H1577 H 0.60679 0.54159 0.60924 0.0
H1578 H 0.60776 0.59524 0.70154 0.0
H1579 H 0.57502 0.54066 0.72264 0.0
H1580 H 0.57239 0.50925 0.74343 0.0
H1581 H 0.59128 0.52062 0.87795 0.0
H1582 H 0.59419 0.55215 0.85771 0.0
H1583 H 0.52503 0.63142 0.77049 0.0
H1584 H 0.5515 0.61763 0.73813 0.0
H1585 H 0.56882 0.60311 0.8731 0.0
H1586 H 0.54216 0.61619 0.90499 0.0
H1587 H 0.56691 0.57539 0.82307 0.0
H1588 H 0.59268 0.63234 0.80371 0.0
H1589 H 0.59421 0.6635 0.77969 0.0
H1590 H 0.58756 0.6481 0.64026 0.0
H1591 H 0.58573 0.61686 0.66346 0.0
C1592 C 0.62701 0.53391 0.71118 0.0
C1593 C 0.62177 0.53099 0.66601 0.0
C1594 C 0.6204 0.54842 0.73512 0.0
C1595 C 0.60857 0.56016 0.71401 0.0
C1596 C 0.60441 0.55792 0.66797 0.0
C1597 C 0.61087 0.54341 0.64424 0.0
C1598 C 0.59843 0.57314 0.74086 0.0
C1599 C 0.59886 0.59102 0.72833 0.0
C1600 C 0.587 0.56756 0.77602 0.0
C1601 C 0.58503 0.54869 0.78852 0.0
C1602 C 0.57872 0.53644 0.75656 0.0
C1603 C 0.57718 0.51861 0.76823 0.0
C1604 C 0.58176 0.51291 0.81189 0.0
C1605 C 0.5878 0.52505 0.84407 0.0
C1606 C 0.58939 0.5429 0.83254 0.0
C1607 C 0.5348 0.62576 0.79314 0.0
C1608 C 0.53161 0.62469 0.84004 0.0
C1609 C 0.54994 0.61793 0.77474 0.0
C1610 C 0.56217 0.6093 0.80324 0.0
C1611 C 0.55956 0.60958 0.85045 0.0
C1612 C 0.54435 0.61707 0.86862 0.0
C1613 C 0.57605 0.59773 0.78387 0.0
C1614 C 0.57617 0.57993 0.79745 0.0
C1615 C 0.58784 0.60346 0.74955 0.0
C1616 C 0.58895 0.62225 0.7354 0.0
C1617 C 0.59141 0.6356 0.76795 0.0
C1618 C 0.59236 0.65328 0.75447 0.0
C1619 C 0.59095 0.65778 0.70849 0.0
C1620 C 0.58864 0.6446 0.67587 0.0
C1621 C 0.58767 0.6269 0.68917 0.0
H1622 H 0.59169 0.67148 0.69812 0.0
H1623 H 0.58055 0.4991 0.82079 0.0
H1624 H 0.0957 0.46691 0.61137 0.0
H1625 H 0.08332 0.44177 0.65113 0.0
H1626 H 0.1302 0.43808 0.73419 0.0
H1627 H 0.14241 0.46412 0.69549 0.0
H1628 H 0.08941 0.4093 0.66404 0.0
H1629 H 0.11829 0.42455 0.84058 0.0
H1630 H 0.13046 0.44963 0.884 0.0
H1631 H 0.0996 0.48579 0.80415 0.0
H1632 H 0.08712 0.46092 0.76069 0.0
H1633 H 0.03785 0.35299 0.80798 0.0
H1634 H 0.06432 0.36597 0.77294 0.0
H1635 H 0.04926 0.41714 0.82456 0.0
H1636 H 0.02401 0.40417 0.86178 0.0
H1637 H 0.08175 0.41565 0.83065 0.0
H1638 H 0.04017 0.40027 0.71119 0.0
H1639 H 0.02218 0.3796 0.66617 0.0
H1640 H 0.06894 0.35166 0.62603 0.0
H1641 H 0.08718 0.37191 0.67201 0.0
C1642 C 0.10347 0.46076 0.63795 0.0
C1643 C 0.1199 0.46771 0.65089 0.0
C1644 C 0.09643 0.4462 0.66042 0.0
C1645 C 0.10571 0.43807 0.69605 0.0
C1646 C 0.12265 0.44431 0.7073 0.0
C1647 C 0.12963 0.45915 0.68516 0.0
C1648 C 0.09667 0.42426 0.72344 0.0
C1649 C 0.08791 0.41054 0.7006 0.0
C1650 C 0.09459 0.42589 0.77109 0.0
C1651 C 0.10202 0.44091 0.79699 0.0
C1652 C 0.11413 0.43786 0.83233 0.0
C1653 C 0.12106 0.45203 0.85695 0.0
C1654 C 0.11587 0.4693 0.84668 0.0
C1655 C 0.10367 0.47242 0.81192 0.0
C1656 C 0.09668 0.4583 0.78728 0.0
C1657 C 0.04038 0.36697 0.81205 0.0
C1658 C 0.02875 0.37759 0.83721 0.0
C1659 C 0.05546 0.37439 0.79197 0.0
C1660 C 0.05876 0.39262 0.79559 0.0
C1661 C 0.04722 0.40304 0.82144 0.0
C1662 C 0.03257 0.39559 0.8424 0.0
C1663 C 0.07343 0.40148 0.77078 0.0
C1664 C 0.08357 0.41406 0.79427 0.0
C1665 C 0.07591 0.39952 0.72329 0.0
C1666 C 0.06499 0.38741 0.69553 0.0
C1667 C 0.04659 0.38963 0.69302 0.0
C1668 C 0.03635 0.37801 0.6673 0.0
C1669 C 0.0444 0.36433 0.64318 0.0
C1670 C 0.06272 0.36224 0.6448 0.0
C1671 C 0.07301 0.37375 0.6708 0.0
H1672 H 0.03645 0.35536 0.6232 0.0
H1673 H 0.12126 0.48025 0.86576 0.0
H1674 H 0.02722 0.13534 0.21807 0.0
H1675 H 0.05141 0.12058 0.25922 0.0
H1676 H 0.05837 0.08487 0.14663 0.0
H1677 H 0.03453 0.09938 0.10569 0.0
H1678 H 0.05217 0.06827 0.22949 0.0
H1679 H 0.08883 0.1143 0.16631 0.0
H1680 H 0.09778 0.14513 0.15252 0.0
H1681 H 0.10425 0.15311 0.29614 0.0
H1682 H 0.09508 0.12237 0.31084 0.0
H1683 H 0.12815 0.019 0.28196 0.0
H1684 H 0.11234 0.04272 0.24189 0.0
H1685 H 0.10035 0.06742 0.37019 0.0
H1686 H 0.11547 0.04337 0.41037 0.0
H1687 H 0.10968 0.09126 0.28432 0.0
H1688 H 0.07057 0.04761 0.34903 0.0
H1689 H 0.05923 0.01785 0.36632 0.0
H1690 H 0.05541 0.00665 0.22353 0.0
H1691 H 0.06714 0.03624 0.20542 0.0
C1692 C 0.03413 0.12452 0.20195 0.0
C1693 C 0.02885 0.11836 0.15897 0.0
C1694 C 0.04795 0.11617 0.22534 0.0
C1695 C 0.0566 0.10162 0.20589 0.0
C1696 C 0.05181 0.09603 0.16223 0.0
C1697 C 0.03814 0.10433 0.13896 0.0
C1698 C 0.06934 0.0909 0.23223 0.0
C1699 C 0.06483 0.07328 0.24097 0.0
C1700 C 0.08556 0.09763 0.24851 0.0
C1701 C 0.09106 0.11609 0.2397 0.0
C1702 C 0.09198 0.12268 0.19499 0.0
C1703 C 0.09714 0.14012 0.187 0.0
C1704 C 0.10153 0.15109 0.22344 0.0
C1705 C 0.10082 0.14461 0.26795 0.0
C1706 C 0.09565 0.12717 0.27612 0.0
C1707 C 0.12266 0.02983 0.30137 0.0
C1708 C 0.123 0.0295 0.34905 0.0
C1709 C 0.11362 0.0433 0.27857 0.0
C1710 C 0.10523 0.05675 0.30325 0.0
C1711 C 0.10687 0.05721 0.35068 0.0
C1712 C 0.11545 0.04349 0.37351 0.0
C1713 C 0.09259 0.06861 0.28028 0.0
C1714 C 0.09703 0.08635 0.27256 0.0
C1715 C 0.07613 0.06213 0.26525 0.0
C1716 C 0.07002 0.04401 0.27591 0.0
C1717 C 0.06765 0.03867 0.32133 0.0
C1718 C 0.06104 0.02189 0.33129 0.0
C1719 C 0.05656 0.01039 0.29605 0.0
C1720 C 0.05886 0.01559 0.25078 0.0
C1721 C 0.06554 0.03234 0.24066 0.0
H1722 H 0.05132 -0.00256 0.30384 0.0
H1723 H 0.10553 0.16459 0.21718 0.0
H1724 H 0.39782 0.02675 0.59948 0.0
H1725 H 0.41269 0.05045 0.64033 0.0
H1726 H 0.37125 0.05065 0.74071 0.0
H1727 H 0.35632 0.02653 0.70034 0.0
H1728 H 0.38562 0.08611 0.71134 0.0
H1729 H 0.40275 0.02828 0.76538 0.0
H1730 H 0.41404 -0.00205 0.75839 0.0
H1731 H 0.4631 0.01771 0.70607 0.0
H1732 H 0.45178 0.04816 0.71051 0.0
H1733 H 0.45835 0.10194 0.89583 0.0
H1734 H 0.43503 0.08558 0.85764 0.0
H1735 H 0.44071 0.11872 0.73905 0.0
H1736 H 0.46426 0.13535 0.77745 0.0
H1737 H 0.44221 0.06701 0.78077 0.0
H1738 H 0.39871 0.11708 0.68342 0.0
H1739 H 0.38783 0.1476 0.69181 0.0
H1740 H 0.39197 0.14322 0.83709 0.0
H1741 H 0.40262 0.11261 0.82961 0.0
C1742 C 0.39171 0.03193 0.62994 0.0
C1743 C 0.37603 0.02459 0.64712 0.0
C1744 C 0.40021 0.04554 0.65308 0.0
C1745 C 0.39309 0.05218 0.69354 0.0
C1746 C 0.37688 0.04568 0.70939 0.0
C1747 C 0.36844 0.03187 0.68648 0.0
C1748 C 0.40362 0.06445 0.72152 0.0
C1749 C 0.398 0.08199 0.72661 0.0
C1750 C 0.41969 0.05895 0.74153 0.0
C1751 C 0.4263 0.04054 0.73775 0.0
C1752 C 0.41581 0.02617 0.75148 0.0
C1753 C 0.42222 0.00894 0.74796 0.0
C1754 C 0.43931 0.00591 0.73195 0.0
C1755 C 0.44988 0.02008 0.71854 0.0
C1756 C 0.44342 0.03732 0.72128 0.0
C1757 C 0.45446 0.10599 0.8619 0.0
C1758 C 0.46327 0.11978 0.83935 0.0
C1759 C 0.4411 0.09663 0.84018 0.0
C1760 C 0.43622 0.10088 0.79551 0.0
C1761 C 0.44423 0.11533 0.7737 0.0
C1762 C 0.45768 0.12478 0.79559 0.0
C1763 C 0.42437 0.08878 0.77044 0.0
C1764 C 0.42982 0.0712 0.76564 0.0
C1765 C 0.40822 0.09429 0.7509 0.0
C1766 C 0.40165 0.11262 0.75588 0.0
C1767 C 0.39724 0.12262 0.71716 0.0
C1768 C 0.39112 0.13993 0.72176 0.0
C1769 C 0.38927 0.14736 0.76495 0.0
C1770 C 0.39348 0.13747 0.80365 0.0
C1771 C 0.3996 0.12015 0.79923 0.0
H1772 H 0.38454 0.16077 0.76844 0.0
H1773 H 0.44444 0.99261 0.73028 0.0
H1774 H 0.44759 0.37234 0.10883 0.0
H1775 H 0.42281 0.38606 0.14845 0.0
H1776 H 0.45135 0.38232 0.27527 0.0
H1777 H 0.47582 0.3676 0.23577 0.0
H1778 H 0.41645 0.37973 0.29026 0.0
H1779 H 0.45479 0.41894 0.20796 0.0
H1780 H 0.47089 0.42949 0.14027 0.0
H1781 H 0.42187 0.43686 0.06935 0.0
H1782 H 0.40549 0.42609 0.13645 0.0
H1783 H 0.39091 0.45856 0.40062 0.0
H1784 H 0.40476 0.4334 0.36365 0.0
H1785 H 0.37018 0.43983 0.24813 0.0
H1786 H 0.35627 0.46532 0.28506 0.0
H1787 H 0.40475 0.43898 0.2244 0.0
H1788 H 0.36663 0.40354 0.3169 0.0
H1789 H 0.35242 0.39407 0.38835 0.0
H1790 H 0.40306 0.38134 0.4452 0.0
H1791 H 0.41761 0.39096 0.37433 0.0
C1792 C 0.4483 0.37398 0.14539 0.0
C1793 C 0.46354 0.3691 0.16939 0.0
C1794 C 0.43421 0.38186 0.16796 0.0
C1795 C 0.43544 0.38566 0.21457 0.0
C1796 C 0.45015 0.37957 0.23925 0.0
C1797 C 0.46411 0.3712 0.21676 0.0
C1798 C 0.42258 0.39783 0.23595 0.0
C1799 C 0.41391 0.3927 0.27603 0.0
C1800 C 0.41914 0.41471 0.21707 0.0
C1801 C 0.42893 0.42156 0.17704 0.0
C1802 C 0.44746 0.42274 0.17785 0.0
C1803 C 0.45663 0.42875 0.13959 0.0
C1804 C 0.44741 0.4338 0.10049 0.0
C1805 C 0.42899 0.43292 0.09964 0.0
C1806 C 0.41976 0.42687 0.13777 0.0
C1807 C 0.38603 0.45446 0.36765 0.0
C1808 C 0.37258 0.46396 0.34555 0.0
C1809 C 0.39388 0.43997 0.34672 0.0
C1810 C 0.38839 0.43462 0.30333 0.0
C1811 C 0.37452 0.4437 0.28178 0.0
C1812 C 0.36658 0.45821 0.30288 0.0
C1813 C 0.39856 0.42093 0.27879 0.0
C1814 C 0.40692 0.42586 0.23819 0.0
C1815 C 0.40194 0.40406 0.29781 0.0
C1816 C 0.39321 0.39806 0.34032 0.0
C1817 C 0.37475 0.39882 0.34472 0.0
C1818 C 0.36663 0.39341 0.38512 0.0
C1819 C 0.37684 0.38713 0.42131 0.0
C1820 C 0.39518 0.3862 0.41713 0.0
C1821 C 0.40336 0.3916 0.37682 0.0
H1822 H 0.37053 0.38297 0.45257 0.0
H1823 H 0.45454 0.43844 0.07089 0.0
loop_
_geom_bond_atom_site_label_1
_geom_bond_atom_site_label_2
_geom_bond_distance
_geom_bond_site_symmetry_2
_ccdc_geom_bond_type
Co0 O1 2.239 . S
Co0 O2 2.091 . S
Co0 O4 2.004 . S
Co0 O10 2.021 . S
Co0 O12 2.137 1_455 S
Co0 O13 2.244 1_455 S
O1 Co0 2.239 . S
O1 C8 1.269 . S
O2 Co0 2.091 . S
O2 C8 1.261 . S
C3 O12 1.247 . S
C3 O13 1.272 . S
O4 Co0 2.004 . S
O4 C9 1.259 . S
Co5 O6 2.061 . S
Co5 O11 2.052 . S
Co5 O13 2.135 1_455 S
O6 Co5 2.061 . S
O6 C9 1.235 . S
C7 O10 1.238 . S
C7 O11 1.241 . S
C8 O1 1.269 . S
C8 O2 1.261 . S
C9 O4 1.259 . S
C9 O6 1.235 . S
O10 Co0 2.021 . S
O10 C7 1.238 . S
O11 Co5 2.052 . S
O11 C7 1.241 . S
O12 Co0 2.137 1_655 S
O12 C3 1.247 . S
O13 Co0 2.244 1_655 S
O13 C3 1.272 . S
O13 Co5 2.135 1_655 S
Co14 O15 2.240 . S
Co14 O16 2.091 . S
Co14 O18 2.004 . S
Co14 O24 2.021 . S
Co14 O26 2.137 1_545 S
Co14 O27 2.244 1_545 S
O15 Co14 2.240 . S
O15 C22 1.270 . S
O16 Co14 2.091 . S
O16 C22 1.261 . S
C17 O26 1.247 . S
C17 O27 1.272 . S
O18 Co14 2.004 . S
O18 C23 1.259 . S
Co19 O20 2.061 . S
Co19 O25 2.052 . S
Co19 O27 2.135 1_545 S
O20 Co19 2.061 . S
O20 C23 1.235 . S
C21 O24 1.238 . S
C21 O25 1.241 . S
C22 O15 1.270 . S
C22 O16 1.261 . S
C23 O18 1.259 . S
C23 O20 1.235 . S
O24 Co14 2.021 . S
O24 C21 1.238 . S
O25 Co19 2.052 . S
O25 C21 1.241 . S
O26 Co14 2.137 1_565 S
O26 C17 1.247 . S
O27 Co14 2.244 1_565 S
O27 C17 1.272 . S
O27 Co19 2.135 1_565 S
Co28 O29 2.216 . S
Co28 O30 2.091 . S
Co28 O32 2.004 . S
Co28 O38 2.021 . S
Co28 O40 2.137 . S
Co28 O41 2.244 . S
O29 Co28 2.216 . S
O29 C36 1.247 . S
O30 Co28 2.091 . S
O30 C36 1.261 . S
C31 O40 1.247 . S
C31 O41 1.272 . S
O32 Co28 2.004 . S
O32 C37 1.259 . S
Co33 O34 2.061 . S
Co33 O39 2.052 . S
Co33 O41 2.135 . S
O34 Co33 2.061 . S
O34 C37 1.235 . S
C35 O38 1.238 . S
C35 O39 1.241 . S
C36 O29 1.247 . S
C36 O30 1.261 . S
C37 O32 1.259 . S
C37 O34 1.235 . S
O38 Co28 2.021 . S
O38 C35 1.238 . S
O39 Co33 2.052 . S
O39 C35 1.241 . S
O40 Co28 2.137 . S
O40 C31 1.247 . S
O41 Co28 2.244 . S
O41 C31 1.272 . S
O41 Co33 2.135 . S
Co42 O43 2.216 . S
Co42 O44 2.091 . S
Co42 O46 2.004 . S
Co42 O52 2.021 . S
Co42 O54 2.137 . S
Co42 O55 2.244 . S
O43 Co42 2.216 . S
O43 C50 1.247 . S
O44 Co42 2.091 . S
O44 C50 1.261 . S
C45 O54 1.247 . S
C45 O55 1.272 . S
O46 Co42 2.004 . S
O46 C51 1.259 . S
Co47 O48 2.061 . S
Co47 O53 2.052 . S
Co47 O55 2.135 . S
O48 Co47 2.061 . S
O48 C51 1.235 . S
C49 O52 1.238 . S
C49 O53 1.241 . S
C50 O43 1.247 . S
C50 O44 1.261 . S
C51 O46 1.259 . S
C51 O48 1.235 . S
O52 Co42 2.021 . S
O52 C49 1.238 . S
O53 Co47 2.052 . S
O53 C49 1.241 . S
O54 Co42 2.137 . S
O54 C45 1.247 . S
O55 Co42 2.244 . S
O55 C45 1.272 . S
O55 Co47 2.135 . S
Co56 O57 2.240 . S
Co56 O58 2.091 . S
Co56 O60 2.004 . S
Co56 O66 2.021 . S
Co56 O68 2.137 1_455 S
Co56 O69 2.244 1_455 S
O57 Co56 2.240 . S
O57 C64 1.270 . S
O58 Co56 2.091 . S
O58 C64 1.261 . S
C59 O68 1.247 . S
C59 O69 1.272 . S
O60 Co56 2.004 . S
O60 C65 1.259 . S
Co61 O62 2.061 . S
Co61 O67 2.052 . S
Co61 O69 2.135 1_455 S
O62 Co61 2.061 . S
O62 C65 1.235 . S
C63 O66 1.238 . S
C63 O67 1.241 . S
C64 O57 1.270 . S
C64 O58 1.261 . S
C65 O60 1.259 . S
C65 O62 1.235 . S
O66 Co56 2.021 . S
O66 C63 1.238 . S
O67 Co61 2.052 . S
O67 C63 1.241 . S
O68 Co56 2.137 1_655 S
O68 C59 1.247 . S
O69 Co56 2.244 1_655 S
O69 C59 1.272 . S
O69 Co61 2.135 1_655 S
Co70 O71 2.239 . S
Co70 O72 2.091 . S
Co70 O74 2.004 . S
Co70 O80 2.021 . S
Co70 O82 2.137 1_545 S
Co70 O83 2.244 1_545 S
O71 Co70 2.239 . S
O71 C78 1.269 . S
O72 Co70 2.091 . S
O72 C78 1.261 . S
C73 O82 1.247 . S
C73 O83 1.272 . S
O74 Co70 2.004 . S
O74 C79 1.259 . S
Co75 O76 2.061 . S
Co75 O81 2.052 . S
Co75 O83 2.135 1_545 S
O76 Co75 2.061 . S
O76 C79 1.235 . S
C77 O80 1.238 . S
C77 O81 1.241 . S
C78 O71 1.269 . S
C78 O72 1.261 . S
C79 O74 1.259 . S
C79 O76 1.235 . S
O80 Co70 2.021 . S
O80 C77 1.238 . S
O81 Co75 2.052 . S
O81 C77 1.241 . S
O82 Co70 2.137 1_565 S
O82 C73 1.247 . S
O83 Co70 2.244 1_565 S
O83 C73 1.272 . S
O83 Co75 2.135 1_565 S
Co84 O85 2.216 . S
Co84 O86 2.091 . S
Co84 O88 2.004 . S
Co84 O94 2.021 . S
Co84 O96 2.137 . S
Co84 O97 2.244 . S
O85 Co84 2.216 . S
O85 C92 1.247 . S
O86 Co84 2.091 . S
O86 C92 1.261 . S
C87 O96 1.247 . S
C87 O97 1.272 . S
O88 Co84 2.004 . S
O88 C93 1.259 . S
Co89 O90 2.061 . S
Co89 O95 2.052 . S
Co89 O97 2.135 . S
O90 Co89 2.061 . S
O90 C93 1.235 . S
C91 O94 1.238 . S
C91 O95 1.241 . S
C92 O85 1.247 . S
C92 O86 1.261 . S
C93 O88 1.259 . S
C93 O90 1.235 . S
O94 Co84 2.021 . S
O94 C91 1.238 . S
O95 Co89 2.052 . S
O95 C91 1.241 . S
O96 Co84 2.137 . S
O96 C87 1.247 . S
O97 Co84 2.244 . S
O97 C87 1.272 . S
O97 Co89 2.135 . S
Co98 O99 2.216 . S
Co98 O100 2.091 . S
Co98 O102 2.004 . S
Co98 O108 2.021 . S
Co98 O110 2.137 . S
Co98 O111 2.244 . S
O99 Co98 2.216 . S
O99 C106 1.247 . S
O100 Co98 2.091 . S
O100 C106 1.261 . S
C101 O110 1.247 . S
C101 O111 1.272 . S
O102 Co98 2.004 . S
O102 C107 1.259 . S
Co103 O104 2.061 . S
Co103 O109 2.052 . S
Co103 O111 2.135 . S
O104 Co103 2.061 . S
O104 C107 1.235 . S
C105 O108 1.238 . S
C105 O109 1.241 . S
C106 O99 1.247 . S
C106 O100 1.261 . S
C107 O102 1.259 . S
C107 O104 1.235 . S
O108 Co98 2.021 . S
O108 C105 1.238 . S
O109 Co103 2.052 . S
O109 C105 1.241 . S
O110 Co98 2.137 . S
O110 C101 1.247 . S
O111 Co98 2.244 . S
O111 C101 1.272 . S
O111 Co103 2.135 . S
Co112 O113 2.239 . S
Co112 O114 2.091 . S
Co112 O116 2.004 . S
Co112 O122 2.021 . S
Co112 O124 2.137 1_655 S
Co112 O125 2.244 1_655 S
O113 Co112 2.239 . S
O113 C120 1.269 . S
O114 Co112 2.091 . S
O114 C120 1.261 . S
C115 O124 1.247 . S
C115 O125 1.272 . S
O116 Co112 2.004 . S
O116 C121 1.259 . S
Co117 O118 2.061 . S
Co117 O123 2.052 . S
Co117 O125 2.135 1_655 S
O118 Co117 2.061 . S
O118 C121 1.235 . S
C119 O122 1.238 . S
C119 O123 1.241 . S
C120 O113 1.269 . S
C120 O114 1.261 . S
C121 O116 1.259 . S
C121 O118 1.235 . S
O122 Co112 2.021 . S
O122 C119 1.238 . S
O123 Co117 2.052 . S
O123 C119 1.241 . S
O124 Co112 2.137 1_455 S
O124 C115 1.247 . S
O125 Co112 2.244 1_455 S
O125 C115 1.272 . S
O125 Co117 2.135 1_455 S
Co126 O127 2.240 . S
Co126 O128 2.091 . S
Co126 O130 2.004 . S
Co126 O136 2.021 . S
Co126 O138 2.137 1_565 S
Co126 O139 2.244 1_565 S
O127 Co126 2.240 . S
O127 C134 1.270 . S
O128 Co126 2.091 . S
O128 C134 1.261 . S
C129 O138 1.247 . S
C129 O139 1.272 . S
O130 Co126 2.004 . S
O130 C135 1.259 . S
Co131 O132 2.061 . S
Co131 O137 2.052 . S
Co131 O139 2.135 1_565 S
O132 Co131 2.061 . S
O132 C135 1.235 . S
C133 O136 1.238 . S
C133 O137 1.241 . S
C134 O127 1.270 . S
C134 O128 1.261 . S
C135 O130 1.259 . S
C135 O132 1.235 . S
O136 Co126 2.021 . S
O136 C133 1.238 . S
O137 Co131 2.052 . S
O137 C133 1.241 . S
O138 Co126 2.137 1_545 S
O138 C129 1.247 . S
O139 Co126 2.244 1_545 S
O139 C129 1.272 . S
O139 Co131 2.135 1_545 S
Co140 O141 2.216 . S
Co140 O142 2.091 . S
Co140 O144 2.004 . S
Co140 O150 2.021 . S
Co140 O152 2.137 . S
Co140 O153 2.244 . S
O141 Co140 2.216 . S
O141 C148 1.247 . S
O142 Co140 2.091 . S
O142 C148 1.261 . S
C143 O152 1.247 . S
C143 O153 1.272 . S
O144 Co140 2.004 . S
O144 C149 1.259 . S
Co145 O146 2.061 . S
Co145 O151 2.052 . S
Co145 O153 2.135 . S
O146 Co145 2.061 . S
O146 C149 1.235 . S
C147 O150 1.238 . S
C147 O151 1.241 . S
C148 O141 1.247 . S
C148 O142 1.261 . S
C149 O144 1.259 . S
C149 O146 1.235 . S
O150 Co140 2.021 . S
O150 C147 1.238 . S
O151 Co145 2.052 . S
O151 C147 1.241 . S
O152 Co140 2.137 . S
O152 C143 1.247 . S
O153 Co140 2.244 . S
O153 C143 1.272 . S
O153 Co145 2.135 . S
Co154 O155 2.216 . S
Co154 O156 2.091 . S
Co154 O158 2.004 . S
Co154 O164 2.021 . S
Co154 O166 2.137 . S
Co154 O167 2.244 . S
O155 Co154 2.216 . S
O155 C162 1.247 . S
O156 Co154 2.091 . S
O156 C162 1.261 . S
C157 O166 1.247 . S
C157 O167 1.272 . S
O158 Co154 2.004 . S
O158 C163 1.259 . S
Co159 O160 2.061 . S
Co159 O165 2.052 . S
Co159 O167 2.135 . S
O160 Co159 2.061 . S
O160 C163 1.235 . S
C161 O164 1.238 . S
C161 O165 1.241 . S
C162 O155 1.247 . S
C162 O156 1.261 . S
C163 O158 1.259 . S
C163 O160 1.235 . S
O164 Co154 2.021 . S
O164 C161 1.238 . S
O165 Co159 2.052 . S
O165 C161 1.241 . S
O166 Co154 2.137 . S
O166 C157 1.247 . S
O167 Co154 2.244 . S
O167 C157 1.272 . S
O167 Co159 2.135 . S
Co168 O169 2.240 . S
Co168 O170 2.091 . S
Co168 O172 2.004 . S
Co168 O178 2.021 . S
Co168 O180 2.137 1_655 S
Co168 O181 2.244 1_655 S
O169 Co168 2.240 . S
O169 C176 1.270 . S
O170 Co168 2.091 . S
O170 C176 1.261 . S
C171 O180 1.247 . S
C171 O181 1.272 . S
O172 Co168 2.004 . S
O172 C177 1.259 . S
Co173 O174 2.061 . S
Co173 O179 2.052 . S
Co173 O181 2.135 1_655 S
O174 Co173 2.061 . S
O174 C177 1.235 . S
C175 O178 1.238 . S
C175 O179 1.241 . S
C176 O169 1.270 . S
C176 O170 1.261 . S
C177 O172 1.259 . S
C177 O174 1.235 . S
O178 Co168 2.021 . S
O178 C175 1.238 . S
O179 Co173 2.052 . S
O179 C175 1.241 . S
O180 Co168 2.137 1_455 S
O180 C171 1.247 . S
O181 Co168 2.244 1_455 S
O181 C171 1.272 . S
O181 Co173 2.135 1_455 S
Co182 O183 2.239 . S
Co182 O184 2.091 . S
Co182 O186 2.004 . S
Co182 O192 2.021 . S
Co182 O194 2.137 1_565 S
Co182 O195 2.244 1_565 S
O183 Co182 2.239 . S
O183 C190 1.269 . S
O184 Co182 2.091 . S
O184 C190 1.261 . S
C185 O194 1.247 . S
C185 O195 1.272 . S
O186 Co182 2.004 . S
O186 C191 1.259 . S
Co187 O188 2.061 . S
Co187 O193 2.052 . S
Co187 O195 2.135 1_565 S
O188 Co187 2.061 . S
O188 C191 1.235 . S
C189 O192 1.238 . S
C189 O193 1.241 . S
C190 O183 1.269 . S
C190 O184 1.261 . S
C191 O186 1.259 . S
C191 O188 1.235 . S
O192 Co182 2.021 . S
O192 C189 1.238 . S
O193 Co187 2.052 . S
O193 C189 1.241 . S
O194 Co182 2.137 1_545 S
O194 C185 1.247 . S
O195 Co182 2.244 1_545 S
O195 C185 1.272 . S
O195 Co187 2.135 1_545 S
Co196 O197 2.216 . S
Co196 O198 2.091 . S
Co196 O200 2.004 . S
Co196 O206 2.021 . S
Co196 O208 2.137 . S
Co196 O209 2.244 . S
O197 Co196 2.216 . S
O197 C204 1.247 . S
O198 Co196 2.091 . S
O198 C204 1.261 . S
C199 O208 1.247 . S
C199 O209 1.272 . S
O200 Co196 2.004 . S
O200 C205 1.259 . S
Co201 O202 2.061 . S
Co201 O207 2.052 . S
Co201 O209 2.135 . S
O202 Co201 2.061 . S
O202 C205 1.235 . S
C203 O206 1.238 . S
C203 O207 1.241 . S
C204 O197 1.247 . S
C204 O198 1.261 . S
C205 O200 1.259 . S
C205 O202 1.235 . S
O206 Co196 2.021 . S
O206 C203 1.238 . S
O207 Co201 2.052 . S
O207 C203 1.241 . S
O208 Co196 2.137 . S
O208 C199 1.247 . S
O209 Co196 2.244 . S
O209 C199 1.272 . S
O209 Co201 2.135 . S
Co210 O211 2.216 . S
Co210 O212 2.091 . S
Co210 O214 2.004 . S
Co210 O220 2.021 . S
Co210 O222 2.137 . S
Co210 O223 2.244 . S
O211 Co210 2.216 . S
O211 C218 1.247 . S
O212 Co210 2.091 . S
O212 C218 1.261 . S
C213 O222 1.247 . S
C213 O223 1.272 . S
O214 Co210 2.004 . S
O214 C219 1.259 . S
Co215 O216 2.061 . S
Co215 O221 2.052 . S
Co215 O223 2.135 . S
O216 Co215 2.061 . S
O216 C219 1.235 . S
C217 O220 1.238 . S
C217 O221 1.241 . S
C218 O211 1.247 . S
C218 O212 1.261 . S
C219 O214 1.259 . S
C219 O216 1.235 . S
O220 Co210 2.021 . S
O220 C217 1.238 . S
O221 Co215 2.052 . S
O221 C217 1.241 . S
O222 Co210 2.137 . S
O222 C213 1.247 . S
O223 Co210 2.244 . S
O223 C213 1.272 . S
O223 Co215 2.135 . S
H224 C242 0.951 . S
H225 C244 0.951 1_556 S
H226 C246 0.950 1_655 S
H227 C247 0.950 1_655 S
H228 C249 0.950 . S
H229 C252 0.950 . S
H230 C253 0.950 . S
H231 C255 0.950 . S
H232 C256 0.950 . S
H233 C257 0.951 1_655 S
H234 C259 0.935 1_654 S
H235 C261 0.950 . S
H236 C262 0.950 . S
H237 C264 0.950 . S
H238 C267 0.950 . S
H239 C268 0.950 . S
H240 C270 0.950 . S
H241 C271 0.950 . S
C242 H224 0.951 . S
C242 C243 1.366 . S
C242 C244 1.388 . S
C243 C242 1.366 . S
C243 C247 1.385 . S
C244 H225 0.951 1_554 S
C244 C242 1.388 . S
C244 C245 1.366 . S
C245 C244 1.366 . S
C245 C246 1.414 . S
C245 C248 1.499 . S
C246 H226 0.950 1_455 S
C246 C245 1.414 . S
C246 C247 1.374 . S
C247 H227 0.950 1_455 S
C247 C243 1.385 . S
C247 C246 1.374 . S
C248 C245 1.499 . S
C248 C249 1.373 1_455 S
C248 C250 1.389 1_554 S
C249 H228 0.950 . S
C249 C248 1.373 1_655 S
C249 C265 1.377 . S
C250 C248 1.389 1_556 S
C250 C251 1.524 . S
C250 C264 1.377 . S
C251 C250 1.524 . S
C251 C252 1.397 1_556 S
C251 C256 1.363 . S
C252 H229 0.950 . S
C252 C251 1.397 1_554 S
C252 C253 1.334 . S
C253 H230 0.950 . S
C253 C252 1.334 . S
C253 C254 1.287 . S
C254 C253 1.287 . S
C254 C255 1.524 1_554 S
C254 H273 0.913 . S
C255 H231 0.950 . S
C255 C254 1.524 1_556 S
C255 C256 1.415 . S
C256 H232 0.950 . S
C256 C251 1.363 . S
C256 C255 1.415 . S
C257 H233 0.951 1_455 S
C257 C258 1.366 . S
C257 C259 1.390 . S
C258 C257 1.366 . S
C258 C262 1.385 . S
C259 H234 0.935 1_456 S
C259 C257 1.390 . S
C259 C260 1.383 . S
C260 C259 1.383 . S
C260 C261 1.414 . S
C260 C263 1.499 . S
C261 H235 0.950 . S
C261 C260 1.414 . S
C261 C262 1.374 . S
C262 H236 0.950 . S
C262 C258 1.385 . S
C262 C261 1.374 . S
C263 C260 1.499 . S
C263 C264 1.373 . S
C263 C265 1.389 1_456 S
C264 H237 0.950 . S
C264 C250 1.377 . S
C264 C263 1.373 . S
C265 C249 1.377 . S
C265 C263 1.389 1_654 S
C265 C266 1.524 . S
C266 C265 1.524 . S
C266 C267 1.397 1_554 S
C266 C271 1.363 . S
C267 H238 0.950 . S
C267 C266 1.397 1_556 S
C267 C268 1.334 . S
C268 H239 0.950 . S
C268 C267 1.334 . S
C268 C269 1.287 . S
C269 C268 1.287 . S
C269 C270 1.524 1_556 S
C269 H272 0.999 . S
C270 H240 0.950 . S
C270 C269 1.524 1_554 S
C270 C271 1.415 . S
C271 H241 0.950 . S
C271 C266 1.363 . S
C271 C270 1.415 . S
H272 C269 0.999 . S
H273 C254 0.913 . S
H274 C292 0.951 . S
H275 C294 0.951 . S
H276 C296 0.950 . S
H277 C297 0.950 . S
H278 C299 0.950 . S
H279 C302 0.950 . S
H280 C303 0.950 . S
H281 C305 0.950 . S
H282 C306 0.950 . S
H283 C307 0.951 . S
H284 C309 0.951 . S
H285 C311 0.950 . S
H286 C312 0.950 . S
H287 C314 0.950 . S
H288 C317 0.950 . S
H289 C318 0.950 . S
H290 C320 0.950 . S
H291 C321 0.950 . S
C292 H274 0.951 . S
C292 C293 1.366 . S
C292 C294 1.388 . S
C293 C292 1.366 . S
C293 C297 1.385 . S
C294 H275 0.951 . S
C294 C292 1.388 . S
C294 C295 1.366 . S
C295 C294 1.366 . S
C295 C296 1.414 . S
C295 C298 1.499 . S
C296 H276 0.950 . S
C296 C295 1.414 . S
C296 C297 1.374 . S
C297 H277 0.950 . S
C297 C293 1.385 . S
C297 C296 1.374 . S
C298 C295 1.499 . S
C298 C299 1.373 . S
C298 C300 1.389 1_545 S
C299 H278 0.950 . S
C299 C298 1.373 . S
C299 C315 1.377 . S
C300 C298 1.389 1_565 S
C300 C301 1.524 . S
C300 C314 1.377 . S
C301 C300 1.524 . S
C301 C302 1.397 . S
C301 C306 1.363 . S
C302 H279 0.950 . S
C302 C301 1.397 . S
C302 C303 1.334 . S
C303 H280 0.950 . S
C303 C302 1.334 . S
C303 C304 1.287 . S
C304 C303 1.287 . S
C304 C305 1.524 . S
C304 H323 0.913 . S
C305 H281 0.950 . S
C305 C304 1.524 . S
C305 C306 1.415 . S
C306 H282 0.950 . S
C306 C301 1.363 . S
C306 C305 1.415 . S
C307 H283 0.951 . S
C307 C308 1.366 . S
C307 C309 1.388 . S
C308 C307 1.366 . S
C308 C312 1.385 . S
C309 H284 0.951 . S
C309 C307 1.388 . S
C309 C310 1.366 . S
C310 C309 1.366 . S
C310 C311 1.414 . S
C310 C313 1.499 . S
C311 H285 0.950 . S
C311 C310 1.414 . S
C311 C312 1.374 . S
C312 H286 0.950 . S
C312 C308 1.385 . S
C312 C311 1.374 . S
C313 C310 1.499 . S
C313 C314 1.373 1_545 S
C313 C315 1.389 . S
C314 H287 0.950 . S
C314 C300 1.377 . S
C314 C313 1.373 1_565 S
C315 C299 1.377 . S
C315 C313 1.389 . S
C315 C316 1.524 . S
C316 C315 1.524 . S
C316 C317 1.397 . S
C316 C321 1.363 . S
C317 H288 0.950 . S
C317 C316 1.397 . S
C317 C318 1.334 . S
C318 H289 0.950 . S
C318 C317 1.334 . S
C318 C319 1.287 . S
C319 C318 1.287 . S
C319 C320 1.524 . S
C319 H322 0.999 . S
C320 H290 0.950 . S
C320 C319 1.524 . S
C320 C321 1.415 . S
C321 H291 0.950 . S
C321 C316 1.363 . S
C321 C320 1.415 . S
H322 C319 0.999 . S
H323 C304 0.913 . S
H324 C342 0.951 . S
H325 C344 0.951 . S
H326 C346 0.950 . S
H327 C347 0.950 . S
H328 C349 0.950 . S
H329 C352 0.950 . S
H330 C353 0.950 . S
H331 C355 0.950 . S
H332 C356 0.950 . S
H333 C357 0.951 . S
H334 C359 0.951 . S
H335 C361 0.950 . S
H336 C362 0.950 . S
H337 C364 0.950 . S
H338 C367 0.950 . S
H339 C368 0.950 . S
H340 C370 0.950 . S
H341 C371 0.950 . S
C342 H324 0.951 . S
C342 C343 1.366 . S
C342 C344 1.388 . S
C343 C342 1.366 . S
C343 C347 1.385 . S
C344 H325 0.951 . S
C344 C342 1.388 . S
C344 C345 1.366 . S
C345 C344 1.366 . S
C345 C346 1.414 . S
C345 C348 1.499 . S
C346 H326 0.950 . S
C346 C345 1.414 . S
C346 C347 1.374 . S
C347 H327 0.950 . S
C347 C343 1.385 . S
C347 C346 1.374 . S
C348 C345 1.499 . S
C348 C349 1.373 . S
C348 C350 1.389 1_554 S
C349 H328 0.950 . S
C349 C348 1.373 . S
C349 C365 1.377 . S
C350 C348 1.389 1_556 S
C350 C351 1.524 . S
C350 C364 1.377 . S
C351 C350 1.524 . S
C351 C352 1.397 . S
C351 C356 1.363 . S
C352 H329 0.950 . S
C352 C351 1.397 . S
C352 C353 1.334 . S
C353 H330 0.950 . S
C353 C352 1.334 . S
C353 C354 1.287 . S
C354 C353 1.287 . S
C354 C355 1.524 . S
C354 H373 0.913 . S
C355 H331 0.950 . S
C355 C354 1.524 . S
C355 C356 1.415 . S
C356 H332 0.950 . S
C356 C351 1.363 . S
C356 C355 1.415 . S
C357 H333 0.951 . S
C357 C358 1.366 . S
C357 C359 1.388 . S
C358 C357 1.366 . S
C358 C362 1.385 . S
C359 H334 0.951 . S
C359 C357 1.388 . S
C359 C360 1.366 . S
C360 C359 1.366 . S
C360 C361 1.414 . S
C360 C363 1.499 . S
C361 H335 0.950 . S
C361 C360 1.414 . S
C361 C362 1.374 . S
C362 H336 0.950 . S
C362 C358 1.385 . S
C362 C361 1.374 . S
C363 C360 1.499 . S
C363 C364 1.373 . S
C363 C365 1.389 1_556 S
C364 H337 0.950 . S
C364 C350 1.377 . S
C364 C363 1.373 . S
C365 C349 1.377 . S
C365 C363 1.389 1_554 S
C365 C366 1.524 . S
C366 C365 1.524 . S
C366 C367 1.397 . S
C366 C371 1.363 . S
C367 H338 0.950 . S
C367 C366 1.397 . S
C367 C368 1.334 . S
C368 H339 0.950 . S
C368 C367 1.334 . S
C368 C369 1.287 . S
C369 C368 1.287 . S
C369 C370 1.524 . S
C369 H372 0.999 . S
C370 H340 0.950 . S
C370 C369 1.524 . S
C370 C371 1.415 . S
C371 H341 0.950 . S
C371 C366 1.363 . S
C371 C370 1.415 . S
H372 C369 0.999 . S
H373 C354 0.913 . S
H374 C392 0.951 . S
H375 C394 0.951 . S
H376 C396 0.950 . S
H377 C397 0.950 . S
H378 C399 0.950 . S
H379 C402 0.950 . S
H380 C403 0.950 . S
H381 C405 0.950 . S
H382 C406 0.950 . S
H383 C407 0.951 . S
H384 C409 0.951 . S
H385 C411 0.950 . S
H386 C412 0.950 . S
H387 C414 0.950 . S
H388 C417 0.950 . S
H389 C418 0.950 . S
H390 C420 0.950 . S
H391 C421 0.950 . S
C392 H374 0.951 . S
C392 C393 1.366 . S
C392 C394 1.388 . S
C393 C392 1.366 . S
C393 C397 1.385 . S
C394 H375 0.951 . S
C394 C392 1.388 . S
C394 C395 1.366 . S
C395 C394 1.366 . S
C395 C396 1.414 . S
C395 C398 1.499 . S
C396 H376 0.950 . S
C396 C395 1.414 . S
C396 C397 1.374 . S
C397 H377 0.950 . S
C397 C393 1.385 . S
C397 C396 1.374 . S
C398 C395 1.499 . S
C398 C399 1.373 . S
C398 C400 1.389 . S
C399 H378 0.950 . S
C399 C398 1.373 . S
C399 C415 1.377 . S
C400 C398 1.389 . S
C400 C401 1.524 . S
C400 C414 1.377 . S
C401 C400 1.524 . S
C401 C402 1.397 . S
C401 C406 1.363 . S
C402 H379 0.950 . S
C402 C401 1.397 . S
C402 C403 1.334 . S
C403 H380 0.950 . S
C403 C402 1.334 . S
C403 C404 1.287 . S
C404 C403 1.287 . S
C404 C405 1.524 . S
C404 H423 0.913 . S
C405 H381 0.950 . S
C405 C404 1.524 . S
C405 C406 1.415 . S
C406 H382 0.950 . S
C406 C401 1.363 . S
C406 C405 1.415 . S
C407 H383 0.951 . S
C407 C408 1.366 . S
C407 C409 1.388 . S
C408 C407 1.366 . S
C408 C412 1.385 . S
C409 H384 0.951 . S
C409 C407 1.388 . S
C409 C410 1.366 . S
C410 C409 1.366 . S
C410 C411 1.414 . S
C410 C413 1.499 . S
C411 H385 0.950 . S
C411 C410 1.414 . S
C411 C412 1.374 . S
C412 H386 0.950 . S
C412 C408 1.385 . S
C412 C411 1.374 . S
C413 C410 1.499 . S
C413 C414 1.373 . S
C413 C415 1.389 . S
C414 H387 0.950 . S
C414 C400 1.377 . S
C414 C413 1.373 . S
C415 C399 1.377 . S
C415 C413 1.389 . S
C415 C416 1.524 . S
C416 C415 1.524 . S
C416 C417 1.397 . S
C416 C421 1.363 . S
C417 H388 0.950 . S
C417 C416 1.397 . S
C417 C418 1.334 . S
C418 H389 0.950 . S
C418 C417 1.334 . S
C418 C419 1.287 . S
C419 C418 1.287 . S
C419 C420 1.524 . S
C419 H422 0.999 . S
C420 H390 0.950 . S
C420 C419 1.524 . S
C420 C421 1.415 . S
C421 H391 0.950 . S
C421 C416 1.363 . S
C421 C420 1.415 . S
H422 C419 0.999 . S
H423 C404 0.913 . S
H424 C442 0.951 . S
H425 C444 0.951 . S
H426 C446 0.950 . S
H427 C447 0.950 . S
H428 C449 0.950 . S
H429 C452 0.950 . S
H430 C453 0.950 . S
H431 C455 0.950 . S
H432 C456 0.950 1_554 S
H433 C457 0.951 . S
H434 C459 0.951 . S
H435 C461 0.950 . S
H436 C462 0.950 . S
H437 C464 0.950 . S
H438 C467 0.950 . S
H439 C468 0.950 . S
H440 C470 0.950 . S
H441 C471 0.950 1_556 S
C442 H424 0.951 . S
C442 C443 1.366 1_455 S
C442 C444 1.388 . S
C443 C442 1.366 1_655 S
C443 C447 1.385 . S
C444 H425 0.951 . S
C444 C442 1.388 . S
C444 C445 1.366 1_455 S
C445 C444 1.366 1_655 S
C445 C446 1.414 . S
C445 C448 1.499 . S
C446 H426 0.950 . S
C446 C445 1.414 . S
C446 C447 1.374 . S
C447 H427 0.950 . S
C447 C443 1.385 . S
C447 C446 1.374 . S
C448 C445 1.499 . S
C448 C449 1.373 . S
C448 C450 1.389 1_655 S
C449 H428 0.950 . S
C449 C448 1.373 . S
C449 C465 1.377 1_556 S
C450 C448 1.389 1_455 S
C450 C451 1.524 . S
C450 C464 1.377 1_556 S
C451 C450 1.524 . S
C451 C452 1.397 . S
C451 C456 1.363 . S
C452 H429 0.950 . S
C452 C451 1.397 . S
C452 C453 1.334 . S
C453 H430 0.950 . S
C453 C452 1.334 . S
C453 C454 1.287 . S
C454 C453 1.287 . S
C454 C455 1.524 . S
C454 H473 0.913 . S
C455 H431 0.950 . S
C455 C454 1.524 . S
C455 C456 1.415 . S
C456 H432 0.950 1_556 S
C456 C451 1.363 . S
C456 C455 1.415 . S
C457 H433 0.951 . S
C457 C458 1.366 . S
C457 C459 1.388 . S
C458 C457 1.366 . S
C458 C462 1.385 1_655 S
C459 H434 0.951 . S
C459 C457 1.388 . S
C459 C460 1.366 . S
C460 C459 1.366 . S
C460 C461 1.414 1_655 S
C460 C463 1.499 . S
C461 H435 0.950 . S
C461 C460 1.414 1_455 S
C461 C462 1.374 . S
C462 H436 0.950 . S
C462 C458 1.385 1_455 S
C462 C461 1.374 . S
C463 C460 1.499 . S
C463 C464 1.373 1_655 S
C463 C465 1.389 . S
C464 H437 0.950 . S
C464 C450 1.377 1_554 S
C464 C463 1.373 1_455 S
C465 C449 1.377 1_554 S
C465 C463 1.389 . S
C465 C466 1.524 . S
C466 C465 1.524 . S
C466 C467 1.397 . S
C466 C471 1.363 . S
C467 H438 0.950 . S
C467 C466 1.397 . S
C467 C468 1.334 . S
C468 H439 0.950 . S
C468 C467 1.334 . S
C468 C469 1.287 . S
C469 C468 1.287 . S
C469 C470 1.524 . S
C469 H472 0.999 . S
C470 H440 0.950 . S
C470 C469 1.524 . S
C470 C471 1.415 . S
C471 H441 0.950 1_554 S
C471 C466 1.363 . S
C471 C470 1.415 . S
H472 C469 0.999 . S
H473 C454 0.913 . S
H474 C492 0.951 . S
H475 C494 0.951 . S
H476 C496 0.950 . S
H477 C497 0.950 . S
H478 C499 0.950 . S
H479 C502 0.950 . S
H480 C503 0.950 . S
H481 C505 0.950 . S
H482 C506 0.950 . S
H483 C507 0.951 . S
H484 C509 0.951 . S
H485 C511 0.950 . S
H486 C512 0.950 . S
H487 C514 0.950 . S
H488 C517 0.950 . S
H489 C518 0.950 . S
H490 C520 0.950 . S
H491 C521 0.950 . S
C492 H474 0.951 . S
C492 C493 1.366 . S
C492 C494 1.388 . S
C493 C492 1.366 . S
C493 C497 1.385 . S
C494 H475 0.951 . S
C494 C492 1.388 . S
C494 C495 1.366 . S
C495 C494 1.366 . S
C495 C496 1.414 . S
C495 C498 1.499 . S
C496 H476 0.950 . S
C496 C495 1.414 . S
C496 C497 1.374 . S
C497 H477 0.950 . S
C497 C493 1.385 . S
C497 C496 1.374 . S
C498 C495 1.499 . S
C498 C499 1.373 . S
C498 C500 1.389 1_565 S
C499 H478 0.950 . S
C499 C498 1.373 . S
C499 C515 1.377 . S
C500 C498 1.389 1_545 S
C500 C501 1.524 . S
C500 C514 1.377 . S
C501 C500 1.524 . S
C501 C502 1.397 . S
C501 C506 1.363 . S
C502 H479 0.950 . S
C502 C501 1.397 . S
C502 C503 1.334 . S
C503 H480 0.950 . S
C503 C502 1.334 . S
C503 C504 1.287 . S
C504 C503 1.287 . S
C504 C505 1.524 . S
C504 H523 0.913 . S
C505 H481 0.950 . S
C505 C504 1.524 . S
C505 C506 1.415 . S
C506 H482 0.950 . S
C506 C501 1.363 . S
C506 C505 1.415 . S
C507 H483 0.951 . S
C507 C508 1.366 . S
C507 C509 1.388 . S
C508 C507 1.366 . S
C508 C512 1.385 . S
C509 H484 0.951 . S
C509 C507 1.388 . S
C509 C510 1.366 . S
C510 C509 1.366 . S
C510 C511 1.414 . S
C510 C513 1.499 . S
C511 H485 0.950 . S
C511 C510 1.414 . S
C511 C512 1.374 . S
C512 H486 0.950 . S
C512 C508 1.385 . S
C512 C511 1.374 . S
C513 C510 1.499 . S
C513 C514 1.373 1_565 S
C513 C515 1.389 . S
C514 H487 0.950 . S
C514 C500 1.377 . S
C514 C513 1.373 1_545 S
C515 C499 1.377 . S
C515 C513 1.389 . S
C515 C516 1.524 . S
C516 C515 1.524 . S
C516 C517 1.397 . S
C516 C521 1.363 . S
C517 H488 0.950 . S
C517 C516 1.397 . S
C517 C518 1.334 . S
C518 H489 0.950 . S
C518 C517 1.334 . S
C518 C519 1.287 . S
C519 C518 1.287 . S
C519 C520 1.524 . S
C519 H522 0.999 . S
C520 H490 0.950 . S
C520 C519 1.524 . S
C520 C521 1.415 . S
C521 H491 0.950 . S
C521 C516 1.363 . S
C521 C520 1.415 . S
H522 C519 0.999 . S
H523 C504 0.913 . S
H524 C542 0.951 . S
H525 C544 0.951 . S
H526 C546 0.950 . S
H527 C547 0.950 . S
H528 C549 0.950 . S
H529 C552 0.950 . S
H530 C553 0.950 . S
H531 C555 0.950 . S
H532 C556 0.950 . S
H533 C557 0.951 . S
H534 C559 0.951 . S
H535 C561 0.950 . S
H536 C562 0.950 . S
H537 C564 0.950 . S
H538 C567 0.950 . S
H539 C568 0.950 . S
H540 C570 0.950 . S
H541 C571 0.950 . S
C542 H524 0.951 . S
C542 C543 1.366 . S
C542 C544 1.388 . S
C543 C542 1.366 . S
C543 C547 1.385 . S
C544 H525 0.951 . S
C544 C542 1.388 . S
C544 C545 1.366 . S
C545 C544 1.366 . S
C545 C546 1.414 . S
C545 C548 1.499 . S
C546 H526 0.950 . S
C546 C545 1.414 . S
C546 C547 1.374 . S
C547 H527 0.950 . S
C547 C543 1.385 . S
C547 C546 1.374 . S
C548 C545 1.499 . S
C548 C549 1.373 . S
C548 C550 1.389 1_556 S
C549 H528 0.950 . S
C549 C548 1.373 . S
C549 C565 1.377 . S
C550 C548 1.389 1_554 S
C550 C551 1.524 . S
C550 C564 1.377 . S
C551 C550 1.524 . S
C551 C552 1.397 . S
C551 C556 1.363 . S
C552 H529 0.950 . S
C552 C551 1.397 . S
C552 C553 1.334 . S
C553 H530 0.950 . S
C553 C552 1.334 . S
C553 C554 1.287 . S
C554 C553 1.287 . S
C554 C555 1.524 . S
C554 H573 0.913 . S
C555 H531 0.950 . S
C555 C554 1.524 . S
C555 C556 1.415 . S
C556 H532 0.950 . S
C556 C551 1.363 . S
C556 C555 1.415 . S
C557 H533 0.951 . S
C557 C558 1.366 . S
C557 C559 1.388 . S
C558 C557 1.366 . S
C558 C562 1.385 . S
C559 H534 0.951 . S
C559 C557 1.388 . S
C559 C560 1.366 . S
C560 C559 1.366 . S
C560 C561 1.414 . S
C560 C563 1.499 . S
C561 H535 0.950 . S
C561 C560 1.414 . S
C561 C562 1.374 . S
C562 H536 0.950 . S
C562 C558 1.385 . S
C562 C561 1.374 . S
C563 C560 1.499 . S
C563 C564 1.373 . S
C563 C565 1.389 1_554 S
C564 H537 0.950 . S
C564 C550 1.377 . S
C564 C563 1.373 . S
C565 C549 1.377 . S
C565 C563 1.389 1_556 S
C565 C566 1.524 . S
C566 C565 1.524 . S
C566 C567 1.397 . S
C566 C571 1.363 . S
C567 H538 0.950 . S
C567 C566 1.397 . S
C567 C568 1.334 . S
C568 H539 0.950 . S
C568 C567 1.334 . S
C568 C569 1.287 . S
C569 C568 1.287 . S
C569 C570 1.524 . S
C569 H572 0.999 . S
C570 H540 0.950 . S
C570 C569 1.524 . S
C570 C571 1.415 . S
C571 H541 0.950 . S
C571 C566 1.363 . S
C571 C570 1.415 . S
H572 C569 0.999 . S
H573 C554 0.913 . S
H574 C592 0.951 . S
H575 C594 0.951 . S
H576 C596 0.950 . S
H577 C597 0.950 . S
H578 C599 0.950 . S
H579 C602 0.950 . S
H580 C603 0.950 . S
H581 C605 0.950 . S
H582 C606 0.950 . S
H583 C607 0.951 . S
H584 C609 0.951 . S
H585 C611 0.950 . S
H586 C612 0.950 . S
H587 C614 0.950 . S
H588 C617 0.950 . S
H589 C618 0.950 . S
H590 C620 0.950 . S
H591 C621 0.950 . S
C592 H574 0.951 . S
C592 C593 1.366 . S
C592 C594 1.388 . S
C593 C592 1.366 . S
C593 C597 1.385 . S
C594 H575 0.951 . S
C594 C592 1.388 . S
C594 C595 1.366 . S
C595 C594 1.366 . S
C595 C596 1.414 . S
C595 C598 1.499 . S
C596 H576 0.950 . S
C596 C595 1.414 . S
C596 C597 1.374 . S
C597 H577 0.950 . S
C597 C593 1.385 . S
C597 C596 1.374 . S
C598 C595 1.499 . S
C598 C599 1.373 . S
C598 C600 1.389 . S
C599 H578 0.950 . S
C599 C598 1.373 . S
C599 C615 1.377 . S
C600 C598 1.389 . S
C600 C601 1.524 . S
C600 C614 1.377 . S
C601 C600 1.524 . S
C601 C602 1.397 . S
C601 C606 1.363 . S
C602 H579 0.950 . S
C602 C601 1.397 . S
C602 C603 1.334 . S
C603 H580 0.950 . S
C603 C602 1.334 . S
C603 C604 1.287 . S
C604 C603 1.287 . S
C604 C605 1.524 . S
C604 H623 0.913 . S
C605 H581 0.950 . S
C605 C604 1.524 . S
C605 C606 1.415 . S
C606 H582 0.950 . S
C606 C601 1.363 . S
C606 C605 1.415 . S
C607 H583 0.951 . S
C607 C608 1.366 . S
C607 C609 1.388 . S
C608 C607 1.366 . S
C608 C612 1.385 . S
C609 H584 0.951 . S
C609 C607 1.388 . S
C609 C610 1.366 . S
C610 C609 1.366 . S
C610 C611 1.414 . S
C610 C613 1.499 . S
C611 H585 0.950 . S
C611 C610 1.414 . S
C611 C612 1.374 . S
C612 H586 0.950 . S
C612 C608 1.385 . S
C612 C611 1.374 . S
C613 C610 1.499 . S
C613 C614 1.373 . S
C613 C615 1.389 . S
C614 H587 0.950 . S
C614 C600 1.377 . S
C614 C613 1.373 . S
C615 C599 1.377 . S
C615 C613 1.389 . S
C615 C616 1.524 . S
C616 C615 1.524 . S
C616 C617 1.397 . S
C616 C621 1.363 . S
C617 H588 0.950 . S
C617 C616 1.397 . S
C617 C618 1.334 . S
C618 H589 0.950 . S
C618 C617 1.334 . S
C618 C619 1.287 . S
C619 C618 1.287 . S
C619 C620 1.524 . S
C619 H622 0.999 . S
C620 H590 0.950 . S
C620 C619 1.524 . S
C620 C621 1.415 . S
C621 H591 0.950 . S
C621 C616 1.363 . S
C621 C620 1.415 . S
H622 C619 0.999 . S
H623 C604 0.913 . S
H624 C642 0.951 . S
H625 C644 0.951 1_554 S
H626 C646 0.950 . S
H627 C647 0.950 . S
H628 C649 0.950 . S
H629 C652 0.950 . S
H630 C653 0.950 . S
H631 C655 0.950 . S
H632 C656 0.950 . S
H633 C657 0.951 . S
H634 C659 0.951 . S
H635 C661 0.950 . S
H636 C662 0.950 . S
H637 C664 0.950 . S
H638 C667 0.950 . S
H639 C668 0.950 . S
H640 C670 0.950 . S
H641 C671 0.950 . S
C642 H624 0.951 . S
C642 C643 1.366 . S
C642 C644 1.388 1_554 S
C643 C642 1.366 . S
C643 C647 1.385 1_554 S
C644 H625 0.951 1_556 S
C644 C642 1.388 1_556 S
C644 C645 1.366 . S
C645 C644 1.366 . S
C645 C646 1.414 . S
C645 C648 1.499 . S
C646 H626 0.950 . S
C646 C645 1.414 . S
C646 C647 1.374 . S
C647 H627 0.950 . S
C647 C643 1.385 1_556 S
C647 C646 1.374 . S
C648 C645 1.499 . S
C648 C649 1.373 . S
C648 C650 1.389 . S
C649 H628 0.950 . S
C649 C648 1.373 . S
C649 C665 1.377 . S
C650 C648 1.389 . S
C650 C651 1.524 . S
C650 C664 1.377 . S
C651 C650 1.524 . S
C651 C652 1.397 . S
C651 C656 1.363 . S
C652 H629 0.950 . S
C652 C651 1.397 . S
C652 C653 1.334 1_556 S
C653 H630 0.950 . S
C653 C652 1.334 1_554 S
C653 C654 1.287 . S
C654 C653 1.287 . S
C654 C655 1.524 . S
C654 H673 0.913 . S
C655 H631 0.950 . S
C655 C654 1.524 . S
C655 C656 1.415 1_554 S
C656 H632 0.950 . S
C656 C651 1.363 . S
C656 C655 1.415 1_556 S
C657 H633 0.951 . S
C657 C658 1.366 . S
C657 C659 1.388 . S
C658 C657 1.366 . S
C658 C662 1.385 . S
C659 H634 0.951 . S
C659 C657 1.388 . S
C659 C660 1.366 . S
C660 C659 1.366 . S
C660 C661 1.414 . S
C660 C663 1.499 . S
C661 H635 0.950 . S
C661 C660 1.414 . S
C661 C662 1.374 . S
C662 H636 0.950 . S
C662 C658 1.385 . S
C662 C661 1.374 . S
C663 C660 1.499 . S
C663 C664 1.373 . S
C663 C665 1.389 . S
C664 H637 0.950 . S
C664 C650 1.377 . S
C664 C663 1.373 . S
C665 C649 1.377 . S
C665 C663 1.389 . S
C665 C666 1.524 . S
C666 C665 1.524 . S
C666 C667 1.397 . S
C666 C671 1.363 . S
C667 H638 0.950 . S
C667 C666 1.397 . S
C667 C668 1.334 . S
C668 H639 0.950 . S
C668 C667 1.334 . S
C668 C669 1.287 . S
C669 C668 1.287 . S
C669 C670 1.524 . S
C669 H672 0.999 . S
C670 H640 0.950 . S
C670 C669 1.524 . S
C670 C671 1.415 . S
C671 H641 0.950 . S
C671 C666 1.363 . S
C671 C670 1.415 . S
H672 C669 0.999 . S
H673 C654 0.913 . S
H674 C692 0.951 . S
H675 C694 0.951 . S
H676 C696 0.950 . S
H677 C697 0.950 . S
H678 C699 0.950 . S
H679 C702 0.950 . S
H680 C703 0.950 . S
H681 C705 0.950 . S
H682 C706 0.950 . S
H683 C707 0.951 . S
H684 C709 0.951 . S
H685 C711 0.950 . S
H686 C712 0.950 . S
H687 C714 0.950 . S
H688 C717 0.950 . S
H689 C718 0.950 . S
H690 C720 0.950 . S
H691 C721 0.950 . S
C692 H674 0.951 . S
C692 C693 1.366 . S
C692 C694 1.388 . S
C693 C692 1.366 . S
C693 C697 1.385 . S
C694 H675 0.951 . S
C694 C692 1.388 . S
C694 C695 1.366 . S
C695 C694 1.366 . S
C695 C696 1.414 . S
C695 C698 1.499 . S
C696 H676 0.950 . S
C696 C695 1.414 . S
C696 C697 1.374 . S
C697 H677 0.950 . S
C697 C693 1.385 . S
C697 C696 1.374 . S
C698 C695 1.499 . S
C698 C699 1.373 . S
C698 C700 1.389 . S
C699 H678 0.950 . S
C699 C698 1.373 . S
C699 C715 1.377 . S
C700 C698 1.389 . S
C700 C701 1.524 . S
C700 C714 1.377 . S
C701 C700 1.524 . S
C701 C702 1.397 . S
C701 C706 1.363 . S
C702 H679 0.950 . S
C702 C701 1.397 . S
C702 C703 1.334 . S
C703 H680 0.950 . S
C703 C702 1.334 . S
C703 C704 1.287 . S
C704 C703 1.287 . S
C704 C705 1.524 . S
C704 H723 0.913 . S
C705 H681 0.950 . S
C705 C704 1.524 . S
C705 C706 1.415 . S
C706 H682 0.950 . S
C706 C701 1.363 . S
C706 C705 1.415 . S
C707 H683 0.951 . S
C707 C708 1.366 . S
C707 C709 1.388 . S
C708 C707 1.366 . S
C708 C712 1.385 . S
C709 H684 0.951 . S
C709 C707 1.388 . S
C709 C710 1.366 . S
C710 C709 1.366 . S
C710 C711 1.414 . S
C710 C713 1.499 . S
C711 H685 0.950 . S
C711 C710 1.414 . S
C711 C712 1.374 . S
C712 H686 0.950 . S
C712 C708 1.385 . S
C712 C711 1.374 . S
C713 C710 1.499 . S
C713 C714 1.373 . S
C713 C715 1.389 . S
C714 H687 0.950 . S
C714 C700 1.377 . S
C714 C713 1.373 . S
C715 C699 1.377 . S
C715 C713 1.389 . S
C715 C716 1.524 . S
C716 C715 1.524 . S
C716 C717 1.397 . S
C716 C721 1.363 . S
C717 H688 0.950 . S
C717 C716 1.397 . S
C717 C718 1.334 . S
C718 H689 0.950 . S
C718 C717 1.334 . S
C718 C719 1.287 . S
C719 C718 1.287 . S
C719 C720 1.524 . S
C719 H722 0.999 . S
C720 H690 0.950 . S
C720 C719 1.524 . S
C720 C721 1.415 . S
C721 H691 0.950 . S
C721 C716 1.363 . S
C721 C720 1.415 . S
H722 C719 0.999 . S
H723 C704 0.913 . S
H724 C742 0.951 . S
H725 C744 0.949 1_554 S
H726 C746 0.950 . S
H727 C747 0.950 . S
H728 C749 0.950 . S
H729 C752 0.950 . S
H730 C753 0.950 . S
H731 C755 0.950 . S
H732 C756 0.950 . S
H733 C757 0.951 . S
H734 C759 0.951 . S
H735 C761 0.950 . S
H736 C762 0.950 . S
H737 C764 0.950 . S
H738 C767 0.950 . S
H739 C768 0.950 . S
H740 C770 0.950 . S
H741 C771 0.950 . S
C742 H724 0.951 . S
C742 C743 1.366 . S
C742 C744 1.388 1_554 S
C743 C742 1.366 . S
C743 C747 1.385 1_554 S
C744 H725 0.949 1_556 S
C744 C742 1.388 1_556 S
C744 C745 1.366 . S
C745 C744 1.366 . S
C745 C746 1.414 . S
C745 C748 1.499 . S
C746 H726 0.950 . S
C746 C745 1.414 . S
C746 C747 1.374 . S
C747 H727 0.950 . S
C747 C743 1.385 1_556 S
C747 C746 1.374 . S
C748 C745 1.499 . S
C748 C749 1.373 . S
C748 C750 1.389 . S
C749 H728 0.950 . S
C749 C748 1.373 . S
C749 C765 1.377 . S
C750 C748 1.389 . S
C750 C751 1.524 . S
C750 C764 1.377 . S
C751 C750 1.524 . S
C751 C752 1.397 . S
C751 C756 1.363 . S
C752 H729 0.950 . S
C752 C751 1.397 . S
C752 C753 1.334 . S
C753 H730 0.950 . S
C753 C752 1.334 . S
C753 C754 1.287 . S
C754 C753 1.287 . S
C754 C755 1.524 . S
C754 H773 0.913 . S
C755 H731 0.950 . S
C755 C754 1.524 . S
C755 C756 1.415 . S
C756 H732 0.950 . S
C756 C751 1.363 . S
C756 C755 1.415 . S
C757 H733 0.951 . S
C757 C758 1.366 . S
C757 C759 1.388 . S
C758 C757 1.366 . S
C758 C762 1.385 . S
C759 H734 0.951 . S
C759 C757 1.388 . S
C759 C760 1.366 . S
C760 C759 1.366 . S
C760 C761 1.414 . S
C760 C763 1.499 . S
C761 H735 0.950 . S
C761 C760 1.414 . S
C761 C762 1.374 . S
C762 H736 0.950 . S
C762 C758 1.385 . S
C762 C761 1.374 . S
C763 C760 1.499 . S
C763 C764 1.373 . S
C763 C765 1.389 . S
C764 H737 0.950 . S
C764 C750 1.377 . S
C764 C763 1.373 . S
C765 C749 1.377 . S
C765 C763 1.389 . S
C765 C766 1.524 . S
C766 C765 1.524 . S
C766 C767 1.397 . S
C766 C771 1.363 . S
C767 H738 0.950 . S
C767 C766 1.397 . S
C767 C768 1.334 . S
C768 H739 0.950 . S
C768 C767 1.334 . S
C768 C769 1.287 . S
C769 C768 1.287 . S
C769 C770 1.524 . S
C769 H772 0.999 . S
C770 H740 0.950 . S
C770 C769 1.524 . S
C770 C771 1.415 . S
C771 H741 0.950 . S
C771 C766 1.363 . S
C771 C770 1.415 . S
H772 C769 0.999 . S
H773 C754 0.913 . S
H774 C792 0.951 . S
H775 C794 0.951 . S
H776 C796 0.950 . S
H777 C797 0.950 . S
H778 C799 0.950 . S
H779 C802 0.950 . S
H780 C803 0.950 . S
H781 C805 0.950 . S
H782 C806 0.950 . S
H783 C807 0.951 . S
H784 C809 0.951 . S
H785 C811 0.950 . S
H786 C812 0.950 . S
H787 C814 0.950 . S
H788 C817 0.950 . S
H789 C818 0.950 . S
H790 C820 0.950 . S
H791 C821 0.950 . S
C792 H774 0.951 . S
C792 C793 1.366 . S
C792 C794 1.388 . S
C793 C792 1.366 . S
C793 C797 1.385 . S
C794 H775 0.951 . S
C794 C792 1.388 . S
C794 C795 1.366 . S
C795 C794 1.366 . S
C795 C796 1.414 . S
C795 C798 1.499 . S
C796 H776 0.950 . S
C796 C795 1.414 . S
C796 C797 1.374 . S
C797 H777 0.950 . S
C797 C793 1.385 . S
C797 C796 1.374 . S
C798 C795 1.499 . S
C798 C799 1.373 . S
C798 C800 1.389 . S
C799 H778 0.950 . S
C799 C798 1.373 . S
C799 C815 1.377 . S
C800 C798 1.389 . S
C800 C801 1.524 . S
C800 C814 1.377 . S
C801 C800 1.524 . S
C801 C802 1.397 . S
C801 C806 1.363 . S
C802 H779 0.950 . S
C802 C801 1.397 . S
C802 C803 1.334 . S
C803 H780 0.950 . S
C803 C802 1.334 . S
C803 C804 1.287 . S
C804 C803 1.287 . S
C804 C805 1.524 . S
C804 H823 0.913 . S
C805 H781 0.950 . S
C805 C804 1.524 . S
C805 C806 1.415 . S
C806 H782 0.950 . S
C806 C801 1.363 . S
C806 C805 1.415 . S
C807 H783 0.951 . S
C807 C808 1.366 . S
C807 C809 1.388 . S
C808 C807 1.366 . S
C808 C812 1.385 . S
C809 H784 0.951 . S
C809 C807 1.388 . S
C809 C810 1.366 . S
C810 C809 1.366 . S
C810 C811 1.414 . S
C810 C813 1.499 . S
C811 H785 0.950 . S
C811 C810 1.414 . S
C811 C812 1.374 . S
C812 H786 0.950 . S
C812 C808 1.385 . S
C812 C811 1.374 . S
C813 C810 1.499 . S
C813 C814 1.373 . S
C813 C815 1.389 . S
C814 H787 0.950 . S
C814 C800 1.377 . S
C814 C813 1.373 . S
C815 C799 1.377 . S
C815 C813 1.389 . S
C815 C816 1.524 . S
C816 C815 1.524 . S
C816 C817 1.397 . S
C816 C821 1.363 . S
C817 H788 0.950 . S
C817 C816 1.397 . S
C817 C818 1.334 . S
C818 H789 0.950 . S
C818 C817 1.334 . S
C818 C819 1.287 . S
C819 C818 1.287 . S
C819 C820 1.524 . S
C819 H822 0.999 . S
C820 H790 0.950 . S
C820 C819 1.524 . S
C820 C821 1.415 . S
C821 H791 0.950 . S
C821 C816 1.363 . S
C821 C820 1.415 . S
H822 C819 0.999 . S
H823 C804 0.913 . S
H824 C842 0.951 . S
H825 C844 0.951 . S
H826 C846 0.950 . S
H827 C847 0.950 . S
H828 C849 0.950 . S
H829 C852 0.950 . S
H830 C853 0.950 . S
H831 C855 0.950 . S
H832 C856 0.950 . S
H833 C857 0.951 . S
H834 C859 0.951 . S
H835 C861 0.950 . S
H836 C862 0.950 . S
H837 C864 0.950 . S
H838 C867 0.950 . S
H839 C868 0.950 . S
H840 C870 0.950 . S
H841 C871 0.950 . S
C842 H824 0.951 . S
C842 C843 1.366 . S
C842 C844 1.388 . S
C843 C842 1.366 . S
C843 C847 1.385 . S
C844 H825 0.951 . S
C844 C842 1.388 . S
C844 C845 1.366 . S
C845 C844 1.366 . S
C845 C846 1.414 . S
C845 C848 1.499 . S
C846 H826 0.950 . S
C846 C845 1.414 . S
C846 C847 1.374 . S
C847 H827 0.950 . S
C847 C843 1.385 . S
C847 C846 1.374 . S
C848 C845 1.499 . S
C848 C849 1.373 . S
C848 C850 1.389 . S
C849 H828 0.950 . S
C849 C848 1.373 . S
C849 C865 1.377 . S
C850 C848 1.389 . S
C850 C851 1.524 . S
C850 C864 1.377 . S
C851 C850 1.524 . S
C851 C852 1.397 . S
C851 C856 1.363 . S
C852 H829 0.950 . S
C852 C851 1.397 . S
C852 C853 1.334 . S
C853 H830 0.950 . S
C853 C852 1.334 . S
C853 C854 1.287 . S
C854 C853 1.287 . S
C854 C855 1.524 . S
C854 H873 0.913 . S
C855 H831 0.950 . S
C855 C854 1.524 . S
C855 C856 1.415 . S
C856 H832 0.950 . S
C856 C851 1.363 . S
C856 C855 1.415 . S
C857 H833 0.951 . S
C857 C858 1.366 . S
C857 C859 1.388 1_556 S
C858 C857 1.366 . S
C858 C862 1.385 . S
C859 H834 0.951 . S
C859 C857 1.388 1_554 S
C859 C860 1.366 . S
C860 C859 1.366 . S
C860 C861 1.414 . S
C860 C863 1.499 . S
C861 H835 0.950 . S
C861 C860 1.414 . S
C861 C862 1.374 1_554 S
C862 H836 0.950 . S
C862 C858 1.385 . S
C862 C861 1.374 1_556 S
C863 C860 1.499 . S
C863 C864 1.373 . S
C863 C865 1.389 . S
C864 H837 0.950 . S
C864 C850 1.377 . S
C864 C863 1.373 . S
C865 C849 1.377 . S
C865 C863 1.389 . S
C865 C866 1.524 . S
C866 C865 1.524 . S
C866 C867 1.397 . S
C866 C871 1.363 . S
C867 H838 0.950 . S
C867 C866 1.397 . S
C867 C868 1.334 . S
C868 H839 0.950 . S
C868 C867 1.334 . S
C868 C869 1.287 . S
C869 C868 1.287 . S
C869 C870 1.524 . S
C869 H872 0.999 1_455 S
C870 H840 0.950 . S
C870 C869 1.524 . S
C870 C871 1.415 . S
C871 H841 0.950 . S
C871 C866 1.363 . S
C871 C870 1.415 . S
H872 C869 0.999 1_655 S
H873 C854 0.913 . S
H874 C892 0.951 . S
H875 C894 0.951 . S
H876 C896 0.950 . S
H877 C897 0.950 . S
H878 C899 0.950 . S
H879 C902 0.950 . S
H880 C903 0.950 . S
H881 C905 0.950 . S
H882 C906 0.950 . S
H883 C907 0.951 . S
H884 C909 0.951 . S
H885 C911 0.950 . S
H886 C912 0.950 . S
H887 C914 0.950 . S
H888 C917 0.950 . S
H889 C918 0.950 . S
H890 C920 0.950 . S
H891 C921 0.950 . S
C892 H874 0.951 . S
C892 C893 1.366 . S
C892 C894 1.388 . S
C893 C892 1.366 . S
C893 C897 1.385 . S
C894 H875 0.951 . S
C894 C892 1.388 . S
C894 C895 1.366 . S
C895 C894 1.366 . S
C895 C896 1.414 . S
C895 C898 1.499 . S
C896 H876 0.950 . S
C896 C895 1.414 . S
C896 C897 1.374 . S
C897 H877 0.950 . S
C897 C893 1.385 . S
C897 C896 1.374 . S
C898 C895 1.499 . S
C898 C899 1.373 . S
C898 C900 1.389 . S
C899 H878 0.950 . S
C899 C898 1.373 . S
C899 C915 1.377 . S
C900 C898 1.389 . S
C900 C901 1.524 . S
C900 C914 1.377 . S
C901 C900 1.524 . S
C901 C902 1.397 . S
C901 C906 1.363 . S
C902 H879 0.950 . S
C902 C901 1.397 . S
C902 C903 1.334 . S
C903 H880 0.950 . S
C903 C902 1.334 . S
C903 C904 1.287 . S
C904 C903 1.287 . S
C904 C905 1.524 . S
C904 H923 0.913 . S
C905 H881 0.950 . S
C905 C904 1.524 . S
C905 C906 1.415 . S
C906 H882 0.950 . S
C906 C901 1.363 . S
C906 C905 1.415 . S
C907 H883 0.951 . S
C907 C908 1.366 . S
C907 C909 1.388 . S
C908 C907 1.366 . S
C908 C912 1.385 . S
C909 H884 0.951 . S
C909 C907 1.388 . S
C909 C910 1.366 . S
C910 C909 1.366 . S
C910 C911 1.414 . S
C910 C913 1.499 . S
C911 H885 0.950 . S
C911 C910 1.414 . S
C911 C912 1.374 . S
C912 H886 0.950 . S
C912 C908 1.385 . S
C912 C911 1.374 . S
C913 C910 1.499 . S
C913 C914 1.373 . S
C913 C915 1.389 . S
C914 H887 0.950 . S
C914 C900 1.377 . S
C914 C913 1.373 . S
C915 C899 1.377 . S
C915 C913 1.389 . S
C915 C916 1.524 . S
C916 C915 1.524 . S
C916 C917 1.397 . S
C916 C921 1.363 . S
C917 H888 0.950 . S
C917 C916 1.397 . S
C917 C918 1.334 . S
C918 H889 0.950 . S
C918 C917 1.334 . S
C918 C919 1.287 . S
C919 C918 1.287 . S
C919 C920 1.524 . S
C919 H922 0.999 . S
C920 H890 0.950 . S
C920 C919 1.524 . S
C920 C921 1.415 . S
C921 H891 0.950 . S
C921 C916 1.363 . S
C921 C920 1.415 . S
H922 C919 0.999 . S
H923 C904 0.913 . S
H924 C942 0.951 . S
H925 C944 0.951 . S
H926 C946 0.950 . S
H927 C947 0.950 . S
H928 C949 0.950 . S
H929 C952 0.950 . S
H930 C953 0.950 . S
H931 C955 0.950 . S
H932 C956 0.950 . S
H933 C957 0.951 . S
H934 C959 0.951 . S
H935 C961 0.950 . S
H936 C962 0.950 . S
H937 C964 0.950 . S
H938 C967 0.950 . S
H939 C968 0.950 1_556 S
H940 C970 0.950 . S
H941 C971 0.950 . S
C942 H924 0.951 . S
C942 C943 1.366 . S
C942 C944 1.388 . S
C943 C942 1.366 . S
C943 C947 1.385 . S
C944 H925 0.951 . S
C944 C942 1.388 . S
C944 C945 1.366 . S
C945 C944 1.366 . S
C945 C946 1.414 . S
C945 C948 1.499 . S
C946 H926 0.950 . S
C946 C945 1.414 . S
C946 C947 1.374 . S
C947 H927 0.950 . S
C947 C943 1.385 . S
C947 C946 1.374 . S
C948 C945 1.499 . S
C948 C949 1.373 . S
C948 C950 1.389 . S
C949 H928 0.950 . S
C949 C948 1.373 . S
C949 C965 1.377 . S
C950 C948 1.389 . S
C950 C951 1.524 . S
C950 C964 1.377 . S
C951 C950 1.524 . S
C951 C952 1.397 . S
C951 C956 1.363 . S
C952 H929 0.950 . S
C952 C951 1.397 . S
C952 C953 1.334 . S
C953 H930 0.950 . S
C953 C952 1.334 . S
C953 C954 1.287 . S
C954 C953 1.287 . S
C954 C955 1.524 . S
C954 H973 0.913 . S
C955 H931 0.950 . S
C955 C954 1.524 . S
C955 C956 1.415 . S
C956 H932 0.950 . S
C956 C951 1.363 . S
C956 C955 1.415 . S
C957 H933 0.951 . S
C957 C958 1.366 1_554 S
C957 C959 1.388 . S
C958 C957 1.366 1_556 S
C958 C962 1.385 . S
C959 H934 0.951 . S
C959 C957 1.388 . S
C959 C960 1.366 . S
C960 C959 1.366 . S
C960 C961 1.414 . S
C960 C963 1.499 . S
C961 H935 0.950 . S
C961 C960 1.414 . S
C961 C962 1.374 1_554 S
C962 H936 0.950 . S
C962 C958 1.385 . S
C962 C961 1.374 1_556 S
C963 C960 1.499 . S
C963 C964 1.373 . S
C963 C965 1.389 . S
C964 H937 0.950 . S
C964 C950 1.377 . S
C964 C963 1.373 . S
C965 C949 1.377 . S
C965 C963 1.389 . S
C965 C966 1.524 . S
C966 C965 1.524 . S
C966 C967 1.397 . S
C966 C971 1.363 . S
C967 H938 0.950 . S
C967 C966 1.397 . S
C967 C968 1.334 . S
C968 H939 0.950 1_554 S
C968 C967 1.334 . S
C968 C969 1.287 . S
C969 C968 1.287 . S
C969 C970 1.524 . S
C969 H972 0.999 . S
C970 H940 0.950 . S
C970 C969 1.524 . S
C970 C971 1.415 . S
C971 H941 0.950 . S
C971 C966 1.363 . S
C971 C970 1.415 . S
H972 C969 0.999 . S
H973 C954 0.913 . S
H974 C992 0.951 . S
H975 C994 0.951 . S
H976 C996 0.950 . S
H977 C997 0.950 . S
H978 C999 0.950 . S
H979 C1002 0.950 . S
H980 C1003 0.950 . S
H981 C1005 0.950 . S
H982 C1006 0.950 . S
H983 C1007 0.951 . S
H984 C1009 0.951 . S
H985 C1011 0.950 . S
H986 C1012 0.950 . S
H987 C1014 0.950 . S
H988 C1017 0.950 . S
H989 C1018 0.950 . S
H990 C1020 0.950 . S
H991 C1021 0.950 . S
C992 H974 0.951 . S
C992 C993 1.366 . S
C992 C994 1.388 . S
C993 C992 1.366 . S
C993 C997 1.385 . S
C994 H975 0.951 . S
C994 C992 1.388 . S
C994 C995 1.366 . S
C995 C994 1.366 . S
C995 C996 1.414 . S
C995 C998 1.499 . S
C996 H976 0.950 . S
C996 C995 1.414 . S
C996 C997 1.374 . S
C997 H977 0.950 . S
C997 C993 1.385 . S
C997 C996 1.374 . S
C998 C995 1.499 . S
C998 C999 1.373 . S
C998 C1000 1.389 . S
C999 H978 0.950 . S
C999 C998 1.373 . S
C999 C1015 1.377 . S
C1000 C998 1.389 . S
C1000 C1001 1.524 . S
C1000 C1014 1.377 . S
C1001 C1000 1.524 . S
C1001 C1002 1.397 . S
C1001 C1006 1.363 . S
C1002 H979 0.950 . S
C1002 C1001 1.397 . S
C1002 C1003 1.334 . S
C1003 H980 0.950 . S
C1003 C1002 1.334 . S
C1003 C1004 1.287 . S
C1004 C1003 1.287 . S
C1004 C1005 1.524 . S
C1004 H1023 0.913 . S
C1005 H981 0.950 . S
C1005 C1004 1.524 . S
C1005 C1006 1.415 . S
C1006 H982 0.950 . S
C1006 C1001 1.363 . S
C1006 C1005 1.415 . S
C1007 H983 0.951 . S
C1007 C1008 1.366 . S
C1007 C1009 1.388 . S
C1008 C1007 1.366 . S
C1008 C1012 1.385 . S
C1009 H984 0.951 . S
C1009 C1007 1.388 . S
C1009 C1010 1.366 . S
C1010 C1009 1.366 . S
C1010 C1011 1.414 . S
C1010 C1013 1.499 . S
C1011 H985 0.950 . S
C1011 C1010 1.414 . S
C1011 C1012 1.374 . S
C1012 H986 0.950 . S
C1012 C1008 1.385 . S
C1012 C1011 1.374 . S
C1013 C1010 1.499 . S
C1013 C1014 1.373 . S
C1013 C1015 1.389 . S
C1014 H987 0.950 . S
C1014 C1000 1.377 . S
C1014 C1013 1.373 . S
C1015 C999 1.377 . S
C1015 C1013 1.389 . S
C1015 C1016 1.524 . S
C1016 C1015 1.524 . S
C1016 C1017 1.397 . S
C1016 C1021 1.363 . S
C1017 H988 0.950 . S
C1017 C1016 1.397 . S
C1017 C1018 1.334 . S
C1018 H989 0.950 . S
C1018 C1017 1.334 . S
C1018 C1019 1.287 . S
C1019 C1018 1.287 . S
C1019 C1020 1.524 . S
C1019 H1022 0.999 . S
C1020 H990 0.950 . S
C1020 C1019 1.524 . S
C1020 C1021 1.415 . S
C1021 H991 0.950 . S
C1021 C1016 1.363 . S
C1021 C1020 1.415 . S
H1022 C1019 0.999 . S
H1023 C1004 0.913 . S
H1024 C1042 0.951 . S
H1025 C1044 0.951 . S
H1026 C1046 0.950 . S
H1027 C1047 0.950 . S
H1028 C1049 0.950 . S
H1029 C1052 0.950 . S
H1030 C1053 0.926 1_556 S
H1031 C1055 0.950 . S
H1032 C1056 0.950 . S
H1033 C1057 0.951 . S
H1034 C1059 0.951 . S
H1035 C1061 0.950 . S
H1036 C1062 0.950 . S
H1037 C1064 0.950 . S
H1038 C1067 0.950 . S
H1039 C1068 0.950 . S
H1040 C1070 0.950 . S
H1041 C1071 0.950 . S
C1042 H1024 0.951 . S
C1042 C1043 1.366 1_554 S
C1042 C1044 1.388 . S
C1043 C1042 1.366 1_556 S
C1043 C1047 1.385 . S
C1044 H1025 0.951 . S
C1044 C1042 1.388 . S
C1044 C1045 1.366 . S
C1045 C1044 1.366 . S
C1045 C1046 1.414 . S
C1045 C1048 1.499 . S
C1046 H1026 0.950 . S
C1046 C1045 1.414 . S
C1046 C1047 1.374 1_554 S
C1047 H1027 0.950 . S
C1047 C1043 1.385 . S
C1047 C1046 1.374 1_556 S
C1048 C1045 1.499 . S
C1048 C1049 1.373 . S
C1048 C1050 1.389 . S
C1049 H1028 0.950 . S
C1049 C1048 1.373 . S
C1049 C1065 1.377 . S
C1050 C1048 1.389 . S
C1050 C1051 1.524 . S
C1050 C1064 1.377 . S
C1051 C1050 1.524 . S
C1051 C1052 1.397 . S
C1051 C1056 1.363 . S
C1052 H1029 0.950 . S
C1052 C1051 1.397 . S
C1052 C1053 1.347 . S
C1053 H1030 0.926 1_554 S
C1053 C1052 1.347 . S
C1053 C1054 1.300 . S
C1054 C1053 1.300 . S
C1054 C1055 1.524 . S
C1054 H1073 0.913 . S
C1055 H1031 0.950 . S
C1055 C1054 1.524 . S
C1055 C1056 1.415 . S
C1056 H1032 0.950 . S
C1056 C1051 1.363 . S
C1056 C1055 1.415 . S
C1057 H1033 0.951 . S
C1057 C1058 1.366 . S
C1057 C1059 1.388 . S
C1058 C1057 1.366 . S
C1058 C1062 1.385 . S
C1059 H1034 0.951 . S
C1059 C1057 1.388 . S
C1059 C1060 1.366 . S
C1060 C1059 1.366 . S
C1060 C1061 1.414 . S
C1060 C1063 1.499 . S
C1061 H1035 0.950 . S
C1061 C1060 1.414 . S
C1061 C1062 1.374 . S
C1062 H1036 0.950 . S
C1062 C1058 1.385 . S
C1062 C1061 1.374 . S
C1063 C1060 1.499 . S
C1063 C1064 1.373 . S
C1063 C1065 1.389 . S
C1064 H1037 0.950 . S
C1064 C1050 1.377 . S
C1064 C1063 1.373 . S
C1065 C1049 1.377 . S
C1065 C1063 1.389 . S
C1065 C1066 1.524 . S
C1066 C1065 1.524 . S
C1066 C1067 1.397 . S
C1066 C1071 1.363 . S
C1067 H1038 0.950 . S
C1067 C1066 1.397 . S
C1067 C1068 1.334 . S
C1068 H1039 0.950 . S
C1068 C1067 1.334 . S
C1068 C1069 1.287 . S
C1069 C1068 1.287 . S
C1069 C1070 1.524 . S
C1069 H1072 0.999 . S
C1070 H1040 0.950 . S
C1070 C1069 1.524 . S
C1070 C1071 1.415 . S
C1071 H1041 0.950 . S
C1071 C1066 1.363 . S
C1071 C1070 1.415 . S
H1072 C1069 0.999 . S
H1073 C1054 0.913 . S
H1074 C1092 0.951 . S
H1075 C1094 0.951 . S
H1076 C1096 0.950 . S
H1077 C1097 0.950 . S
H1078 C1099 0.950 . S
H1079 C1102 0.950 . S
H1080 C1103 0.950 . S
H1081 C1105 0.950 . S
H1082 C1106 0.950 . S
H1083 C1107 0.951 . S
H1084 C1109 0.951 . S
H1085 C1111 0.950 . S
H1086 C1112 0.950 . S
H1087 C1114 0.950 . S
H1088 C1117 0.950 . S
H1089 C1118 0.950 . S
H1090 C1120 0.950 . S
H1091 C1121 0.950 . S
C1092 H1074 0.951 . S
C1092 C1093 1.366 . S
C1092 C1094 1.388 . S
C1093 C1092 1.366 . S
C1093 C1097 1.385 . S
C1094 H1075 0.951 . S
C1094 C1092 1.388 . S
C1094 C1095 1.366 . S
C1095 C1094 1.366 . S
C1095 C1096 1.414 . S
C1095 C1098 1.499 . S
C1096 H1076 0.950 . S
C1096 C1095 1.414 . S
C1096 C1097 1.374 . S
C1097 H1077 0.950 . S
C1097 C1093 1.385 . S
C1097 C1096 1.374 . S
C1098 C1095 1.499 . S
C1098 C1099 1.373 . S
C1098 C1100 1.389 . S
C1099 H1078 0.950 . S
C1099 C1098 1.373 . S
C1099 C1115 1.377 . S
C1100 C1098 1.389 . S
C1100 C1101 1.524 . S
C1100 C1114 1.377 . S
C1101 C1100 1.524 . S
C1101 C1102 1.397 . S
C1101 C1106 1.363 . S
C1102 H1079 0.950 . S
C1102 C1101 1.397 . S
C1102 C1103 1.334 . S
C1103 H1080 0.950 . S
C1103 C1102 1.334 . S
C1103 C1104 1.287 . S
C1104 C1103 1.287 . S
C1104 C1105 1.524 . S
C1104 H1123 0.913 . S
C1105 H1081 0.950 . S
C1105 C1104 1.524 . S
C1105 C1106 1.415 . S
C1106 H1082 0.950 . S
C1106 C1101 1.363 . S
C1106 C1105 1.415 . S
C1107 H1083 0.951 . S
C1107 C1108 1.366 . S
C1107 C1109 1.388 . S
C1108 C1107 1.366 . S
C1108 C1112 1.385 . S
C1109 H1084 0.951 . S
C1109 C1107 1.388 . S
C1109 C1110 1.366 . S
C1110 C1109 1.366 . S
C1110 C1111 1.414 . S
C1110 C1113 1.499 . S
C1111 H1085 0.950 . S
C1111 C1110 1.414 . S
C1111 C1112 1.374 . S
C1112 H1086 0.950 . S
C1112 C1108 1.385 . S
C1112 C1111 1.374 . S
C1113 C1110 1.499 . S
C1113 C1114 1.373 . S
C1113 C1115 1.389 . S
C1114 H1087 0.950 . S
C1114 C1100 1.377 . S
C1114 C1113 1.373 . S
C1115 C1099 1.377 . S
C1115 C1113 1.389 . S
C1115 C1116 1.524 . S
C1116 C1115 1.524 . S
C1116 C1117 1.397 . S
C1116 C1121 1.363 . S
C1117 H1088 0.950 . S
C1117 C1116 1.397 . S
C1117 C1118 1.334 . S
C1118 H1089 0.950 . S
C1118 C1117 1.334 . S
C1118 C1119 1.287 . S
C1119 C1118 1.287 . S
C1119 C1120 1.524 . S
C1119 H1122 0.999 . S
C1120 H1090 0.950 . S
C1120 C1119 1.524 . S
C1120 C1121 1.415 . S
C1121 H1091 0.950 . S
C1121 C1116 1.363 . S
C1121 C1120 1.415 . S
H1122 C1119 0.999 . S
H1123 C1104 0.913 . S
H1124 C1142 0.951 . S
H1125 C1144 0.951 . S
H1126 C1146 0.950 . S
H1127 C1147 0.950 . S
H1128 C1149 0.950 . S
H1129 C1152 0.950 . S
H1130 C1153 0.950 . S
H1131 C1155 0.950 . S
H1132 C1156 0.950 . S
H1133 C1157 0.951 . S
H1134 C1159 0.951 . S
H1135 C1161 0.950 . S
H1136 C1162 0.950 . S
H1137 C1164 0.950 . S
H1138 C1167 0.950 . S
H1139 C1168 0.950 . S
H1140 C1170 0.950 . S
H1141 C1171 0.950 . S
C1142 H1124 0.951 . S
C1142 C1143 1.366 . S
C1142 C1144 1.388 . S
C1143 C1142 1.366 . S
C1143 C1147 1.385 . S
C1144 H1125 0.951 . S
C1144 C1142 1.388 . S
C1144 C1145 1.366 . S
C1145 C1144 1.366 . S
C1145 C1146 1.414 . S
C1145 C1148 1.499 . S
C1146 H1126 0.950 . S
C1146 C1145 1.414 . S
C1146 C1147 1.374 . S
C1147 H1127 0.950 . S
C1147 C1143 1.385 . S
C1147 C1146 1.374 . S
C1148 C1145 1.499 . S
C1148 C1149 1.373 . S
C1148 C1150 1.389 . S
C1149 H1128 0.950 . S
C1149 C1148 1.373 . S
C1149 C1165 1.377 . S
C1150 C1148 1.389 . S
C1150 C1151 1.524 . S
C1150 C1164 1.377 . S
C1151 C1150 1.524 . S
C1151 C1152 1.397 . S
C1151 C1156 1.363 . S
C1152 H1129 0.950 . S
C1152 C1151 1.397 . S
C1152 C1153 1.334 . S
C1153 H1130 0.950 . S
C1153 C1152 1.334 . S
C1153 C1154 1.287 . S
C1154 C1153 1.287 . S
C1154 C1155 1.524 . S
C1154 H1173 0.913 . S
C1155 H1131 0.950 . S
C1155 C1154 1.524 . S
C1155 C1156 1.415 . S
C1156 H1132 0.950 . S
C1156 C1151 1.363 . S
C1156 C1155 1.415 . S
C1157 H1133 0.951 . S
C1157 C1158 1.366 1_554 S
C1157 C1159 1.388 . S
C1158 C1157 1.366 1_556 S
C1158 C1162 1.385 . S
C1159 H1134 0.951 . S
C1159 C1157 1.388 . S
C1159 C1160 1.366 . S
C1160 C1159 1.366 . S
C1160 C1161 1.414 1_554 S
C1160 C1163 1.499 . S
C1161 H1135 0.950 . S
C1161 C1160 1.414 1_556 S
C1161 C1162 1.374 . S
C1162 H1136 0.950 . S
C1162 C1158 1.385 . S
C1162 C1161 1.374 . S
C1163 C1160 1.499 . S
C1163 C1164 1.373 . S
C1163 C1165 1.389 . S
C1164 H1137 0.950 . S
C1164 C1150 1.377 . S
C1164 C1163 1.373 . S
C1165 C1149 1.377 . S
C1165 C1163 1.389 . S
C1165 C1166 1.524 . S
C1166 C1165 1.524 . S
C1166 C1167 1.397 . S
C1166 C1171 1.363 . S
C1167 H1138 0.950 . S
C1167 C1166 1.397 . S
C1167 C1168 1.334 . S
C1168 H1139 0.950 . S
C1168 C1167 1.334 . S
C1168 C1169 1.287 . S
C1169 C1168 1.287 . S
C1169 C1170 1.524 . S
C1169 H1172 0.999 . S
C1170 H1140 0.950 . S
C1170 C1169 1.524 . S
C1170 C1171 1.415 . S
C1171 H1141 0.950 . S
C1171 C1166 1.363 . S
C1171 C1170 1.415 . S
H1172 C1169 0.999 . S
H1173 C1154 0.913 . S
H1174 C1192 0.951 . S
H1175 C1194 0.951 . S
H1176 C1196 0.950 . S
H1177 C1197 0.950 . S
H1178 C1199 0.950 . S
H1179 C1202 0.950 . S
H1180 C1203 0.950 . S
H1181 C1205 0.950 . S
H1182 C1206 0.950 . S
H1183 C1207 0.951 . S
H1184 C1209 0.951 . S
H1185 C1211 0.950 . S
H1186 C1212 0.950 . S
H1187 C1214 0.950 . S
H1188 C1217 0.950 . S
H1189 C1218 0.950 . S
H1190 C1220 0.950 . S
H1191 C1221 0.950 . S
C1192 H1174 0.951 . S
C1192 C1193 1.366 . S
C1192 C1194 1.388 . S
C1193 C1192 1.366 . S
C1193 C1197 1.385 . S
C1194 H1175 0.951 . S
C1194 C1192 1.388 . S
C1194 C1195 1.366 . S
C1195 C1194 1.366 . S
C1195 C1196 1.414 . S
C1195 C1198 1.499 . S
C1196 H1176 0.950 . S
C1196 C1195 1.414 . S
C1196 C1197 1.374 . S
C1197 H1177 0.950 . S
C1197 C1193 1.385 . S
C1197 C1196 1.374 . S
C1198 C1195 1.499 . S
C1198 C1199 1.373 . S
C1198 C1200 1.389 . S
C1199 H1178 0.950 . S
C1199 C1198 1.373 . S
C1199 C1215 1.377 . S
C1200 C1198 1.389 . S
C1200 C1201 1.524 . S
C1200 C1214 1.377 . S
C1201 C1200 1.524 . S
C1201 C1202 1.397 . S
C1201 C1206 1.363 . S
C1202 H1179 0.950 . S
C1202 C1201 1.397 . S
C1202 C1203 1.334 . S
C1203 H1180 0.950 . S
C1203 C1202 1.334 . S
C1203 C1204 1.287 . S
C1204 C1203 1.287 . S
C1204 C1205 1.524 . S
C1204 H1223 0.913 . S
C1205 H1181 0.950 . S
C1205 C1204 1.524 . S
C1205 C1206 1.415 . S
C1206 H1182 0.950 . S
C1206 C1201 1.363 . S
C1206 C1205 1.415 . S
C1207 H1183 0.951 . S
C1207 C1208 1.366 . S
C1207 C1209 1.388 . S
C1208 C1207 1.366 . S
C1208 C1212 1.385 . S
C1209 H1184 0.951 . S
C1209 C1207 1.388 . S
C1209 C1210 1.366 . S
C1210 C1209 1.366 . S
C1210 C1211 1.414 . S
C1210 C1213 1.499 . S
C1211 H1185 0.950 . S
C1211 C1210 1.414 . S
C1211 C1212 1.374 . S
C1212 H1186 0.950 . S
C1212 C1208 1.385 . S
C1212 C1211 1.374 . S
C1213 C1210 1.499 . S
C1213 C1214 1.373 . S
C1213 C1215 1.389 . S
C1214 H1187 0.950 . S
C1214 C1200 1.377 . S
C1214 C1213 1.373 . S
C1215 C1199 1.377 . S
C1215 C1213 1.389 . S
C1215 C1216 1.524 . S
C1216 C1215 1.524 . S
C1216 C1217 1.397 . S
C1216 C1221 1.363 . S
C1217 H1188 0.950 . S
C1217 C1216 1.397 . S
C1217 C1218 1.334 . S
C1218 H1189 0.950 . S
C1218 C1217 1.334 . S
C1218 C1219 1.287 . S
C1219 C1218 1.287 . S
C1219 C1220 1.524 . S
C1219 H1222 0.999 . S
C1220 H1190 0.950 . S
C1220 C1219 1.524 . S
C1220 C1221 1.415 . S
C1221 H1191 0.950 . S
C1221 C1216 1.363 . S
C1221 C1220 1.415 . S
H1222 C1219 0.999 . S
H1223 C1204 0.913 . S
H1224 C1242 0.951 . S
H1225 C1244 0.951 . S
H1226 C1246 0.950 . S
H1227 C1247 0.950 . S
H1228 C1249 0.950 . S
H1229 C1252 0.950 . S
H1230 C1253 0.950 . S
H1231 C1255 0.950 . S
H1232 C1256 0.950 . S
H1233 C1257 0.948 1_554 S
H1234 C1259 0.951 . S
H1235 C1261 0.950 . S
H1236 C1262 0.950 . S
H1237 C1264 0.950 . S
H1238 C1267 0.943 1_554 S
H1239 C1268 0.950 . S
H1240 C1270 0.950 . S
H1241 C1271 0.950 . S
C1242 H1224 0.951 . S
C1242 C1243 1.366 . S
C1242 C1244 1.388 . S
C1243 C1242 1.366 . S
C1243 C1247 1.385 . S
C1244 H1225 0.951 . S
C1244 C1242 1.388 . S
C1244 C1245 1.366 . S
C1245 C1244 1.366 . S
C1245 C1246 1.414 . S
C1245 C1248 1.499 . S
C1246 H1226 0.950 . S
C1246 C1245 1.414 . S
C1246 C1247 1.374 . S
C1247 H1227 0.950 . S
C1247 C1243 1.385 . S
C1247 C1246 1.374 . S
C1248 C1245 1.499 . S
C1248 C1249 1.373 . S
C1248 C1250 1.389 . S
C1249 H1228 0.950 . S
C1249 C1248 1.373 . S
C1249 C1265 1.377 . S
C1250 C1248 1.389 . S
C1250 C1251 1.524 . S
C1250 C1264 1.377 . S
C1251 C1250 1.524 . S
C1251 C1252 1.397 . S
C1251 C1256 1.363 . S
C1252 H1229 0.950 . S
C1252 C1251 1.397 . S
C1252 C1253 1.334 . S
C1253 H1230 0.950 . S
C1253 C1252 1.334 . S
C1253 C1254 1.287 . S
C1254 C1253 1.287 . S
C1254 C1255 1.524 . S
C1254 H1273 0.913 . S
C1255 H1231 0.950 . S
C1255 C1254 1.524 . S
C1255 C1256 1.415 . S
C1256 H1232 0.950 . S
C1256 C1251 1.363 . S
C1256 C1255 1.415 . S
C1257 H1233 0.948 1_556 S
C1257 C1258 1.351 1_556 S
C1257 C1259 1.405 . S
C1258 C1257 1.351 1_554 S
C1258 C1262 1.385 . S
C1259 H1234 0.951 . S
C1259 C1257 1.405 . S
C1259 C1260 1.366 . S
C1260 C1259 1.366 . S
C1260 C1261 1.414 . S
C1260 C1263 1.499 . S
C1261 H1235 0.950 . S
C1261 C1260 1.414 . S
C1261 C1262 1.374 1_556 S
C1262 H1236 0.950 . S
C1262 C1258 1.385 . S
C1262 C1261 1.374 1_554 S
C1263 C1260 1.499 . S
C1263 C1264 1.373 . S
C1263 C1265 1.389 . S
C1264 H1237 0.950 . S
C1264 C1250 1.377 . S
C1264 C1263 1.373 . S
C1265 C1249 1.377 . S
C1265 C1263 1.389 . S
C1265 C1266 1.524 . S
C1266 C1265 1.524 . S
C1266 C1267 1.397 . S
C1266 C1271 1.363 . S
C1267 H1238 0.943 1_556 S
C1267 C1266 1.397 . S
C1267 C1268 1.334 1_556 S
C1268 H1239 0.950 . S
C1268 C1267 1.334 1_554 S
C1268 C1269 1.287 . S
C1269 C1268 1.287 . S
C1269 C1270 1.524 1_554 S
C1269 H1272 0.999 . S
C1270 H1240 0.950 . S
C1270 C1269 1.524 1_556 S
C1270 C1271 1.415 . S
C1271 H1241 0.950 . S
C1271 C1266 1.363 . S
C1271 C1270 1.415 . S
H1272 C1269 0.999 . S
H1273 C1254 0.913 . S
H1274 C1292 0.951 . S
H1275 C1294 0.951 . S
H1276 C1296 0.950 . S
H1277 C1297 0.950 . S
H1278 C1299 0.950 . S
H1279 C1302 0.950 . S
H1280 C1303 0.950 . S
H1281 C1305 0.950 . S
H1282 C1306 0.950 . S
H1283 C1307 0.951 . S
H1284 C1309 0.951 . S
H1285 C1311 0.950 . S
H1286 C1312 0.950 . S
H1287 C1314 0.950 . S
H1288 C1317 0.950 . S
H1289 C1318 0.950 . S
H1290 C1320 0.950 . S
H1291 C1321 0.950 . S
C1292 H1274 0.951 . S
C1292 C1293 1.366 . S
C1292 C1294 1.388 . S
C1293 C1292 1.366 . S
C1293 C1297 1.385 . S
C1294 H1275 0.951 . S
C1294 C1292 1.388 . S
C1294 C1295 1.366 . S
C1295 C1294 1.366 . S
C1295 C1296 1.414 . S
C1295 C1298 1.499 . S
C1296 H1276 0.950 . S
C1296 C1295 1.414 . S
C1296 C1297 1.374 . S
C1297 H1277 0.950 . S
C1297 C1293 1.385 . S
C1297 C1296 1.374 . S
C1298 C1295 1.499 . S
C1298 C1299 1.373 . S
C1298 C1300 1.389 . S
C1299 H1278 0.950 . S
C1299 C1298 1.373 . S
C1299 C1315 1.377 . S
C1300 C1298 1.389 . S
C1300 C1301 1.524 . S
C1300 C1314 1.377 . S
C1301 C1300 1.524 . S
C1301 C1302 1.397 . S
C1301 C1306 1.363 . S
C1302 H1279 0.950 . S
C1302 C1301 1.397 . S
C1302 C1303 1.334 . S
C1303 H1280 0.950 . S
C1303 C1302 1.334 . S
C1303 C1304 1.287 . S
C1304 C1303 1.287 . S
C1304 C1305 1.524 . S
C1304 H1323 0.913 . S
C1305 H1281 0.950 . S
C1305 C1304 1.524 . S
C1305 C1306 1.415 . S
C1306 H1282 0.950 . S
C1306 C1301 1.363 . S
C1306 C1305 1.415 . S
C1307 H1283 0.951 . S
C1307 C1308 1.366 . S
C1307 C1309 1.388 . S
C1308 C1307 1.366 . S
C1308 C1312 1.385 . S
C1309 H1284 0.951 . S
C1309 C1307 1.388 . S
C1309 C1310 1.366 . S
C1310 C1309 1.366 . S
C1310 C1311 1.414 . S
C1310 C1313 1.499 . S
C1311 H1285 0.950 . S
C1311 C1310 1.414 . S
C1311 C1312 1.374 . S
C1312 H1286 0.950 . S
C1312 C1308 1.385 . S
C1312 C1311 1.374 . S
C1313 C1310 1.499 . S
C1313 C1314 1.373 . S
C1313 C1315 1.389 . S
C1314 H1287 0.950 . S
C1314 C1300 1.377 . S
C1314 C1313 1.373 . S
C1315 C1299 1.377 . S
C1315 C1313 1.389 . S
C1315 C1316 1.524 . S
C1316 C1315 1.524 . S
C1316 C1317 1.397 . S
C1316 C1321 1.363 . S
C1317 H1288 0.950 . S
C1317 C1316 1.397 . S
C1317 C1318 1.334 . S
C1318 H1289 0.950 . S
C1318 C1317 1.334 . S
C1318 C1319 1.287 . S
C1319 C1318 1.287 . S
C1319 C1320 1.524 . S
C1319 H1322 0.999 . S
C1320 H1290 0.950 . S
C1320 C1319 1.524 . S
C1320 C1321 1.415 . S
C1321 H1291 0.950 . S
C1321 C1316 1.363 . S
C1321 C1320 1.415 . S
H1322 C1319 0.999 . S
H1323 C1304 0.913 . S
H1324 C1342 0.954 . S
H1325 C1344 0.951 . S
H1326 C1346 0.950 . S
H1327 C1347 0.950 . S
H1328 C1349 0.950 . S
H1329 C1352 0.950 . S
H1330 C1353 0.950 . S
H1331 C1355 0.950 . S
H1332 C1356 0.950 . S
H1333 C1357 0.951 . S
H1334 C1359 0.951 . S
H1335 C1361 0.950 . S
H1336 C1362 0.950 . S
H1337 C1364 0.950 . S
H1338 C1367 0.950 . S
H1339 C1368 0.950 . S
H1340 C1370 0.950 . S
H1341 C1371 0.950 . S
C1342 H1324 0.954 . S
C1342 C1343 1.375 . S
C1342 C1344 1.376 1_554 S
C1343 C1342 1.375 . S
C1343 C1347 1.385 . S
C1344 H1325 0.951 . S
C1344 C1342 1.376 1_556 S
C1344 C1345 1.366 . S
C1345 C1344 1.366 . S
C1345 C1346 1.414 . S
C1345 C1348 1.499 . S
C1346 H1326 0.950 . S
C1346 C1345 1.414 . S
C1346 C1347 1.374 1_556 S
C1347 H1327 0.950 . S
C1347 C1343 1.385 . S
C1347 C1346 1.374 1_554 S
C1348 C1345 1.499 . S
C1348 C1349 1.373 . S
C1348 C1350 1.389 . S
C1349 H1328 0.950 . S
C1349 C1348 1.373 . S
C1349 C1365 1.377 . S
C1350 C1348 1.389 . S
C1350 C1351 1.524 . S
C1350 C1364 1.377 . S
C1351 C1350 1.524 . S
C1351 C1352 1.397 . S
C1351 C1356 1.363 . S
C1352 H1329 0.950 . S
C1352 C1351 1.397 . S
C1352 C1353 1.334 . S
C1353 H1330 0.950 . S
C1353 C1352 1.334 . S
C1353 C1354 1.287 . S
C1354 C1353 1.287 . S
C1354 C1355 1.524 . S
C1354 H1373 0.913 . S
C1355 H1331 0.950 . S
C1355 C1354 1.524 . S
C1355 C1356 1.415 . S
C1356 H1332 0.950 . S
C1356 C1351 1.363 . S
C1356 C1355 1.415 . S
C1357 H1333 0.951 . S
C1357 C1358 1.366 . S
C1357 C1359 1.388 . S
C1358 C1357 1.366 . S
C1358 C1362 1.385 . S
C1359 H1334 0.951 . S
C1359 C1357 1.388 . S
C1359 C1360 1.366 . S
C1360 C1359 1.366 . S
C1360 C1361 1.414 . S
C1360 C1363 1.499 . S
C1361 H1335 0.950 . S
C1361 C1360 1.414 . S
C1361 C1362 1.374 . S
C1362 H1336 0.950 . S
C1362 C1358 1.385 . S
C1362 C1361 1.374 . S
C1363 C1360 1.499 . S
C1363 C1364 1.373 . S
C1363 C1365 1.389 . S
C1364 H1337 0.950 . S
C1364 C1350 1.377 . S
C1364 C1363 1.373 . S
C1365 C1349 1.377 . S
C1365 C1363 1.389 . S
C1365 C1366 1.524 . S
C1366 C1365 1.524 . S
C1366 C1367 1.397 . S
C1366 C1371 1.363 . S
C1367 H1338 0.950 . S
C1367 C1366 1.397 . S
C1367 C1368 1.334 . S
C1368 H1339 0.950 . S
C1368 C1367 1.334 . S
C1368 C1369 1.287 . S
C1369 C1368 1.287 . S
C1369 C1370 1.524 . S
C1369 H1372 0.999 . S
C1370 H1340 0.950 . S
C1370 C1369 1.524 . S
C1370 C1371 1.415 . S
C1371 H1341 0.950 . S
C1371 C1366 1.363 . S
C1371 C1370 1.415 . S
H1372 C1369 0.999 . S
H1373 C1354 0.913 . S
H1374 C1392 0.951 . S
H1375 C1394 0.951 . S
H1376 C1396 0.950 . S
H1377 C1397 0.950 . S
H1378 C1399 0.950 . S
H1379 C1402 0.950 . S
H1380 C1403 0.950 . S
H1381 C1405 0.950 . S
H1382 C1406 0.950 . S
H1383 C1407 0.951 . S
H1384 C1409 0.951 . S
H1385 C1411 0.950 . S
H1386 C1412 0.950 . S
H1387 C1414 0.950 . S
H1388 C1417 0.950 . S
H1389 C1418 0.950 . S
H1390 C1420 0.950 . S
H1391 C1421 0.950 . S
C1392 H1374 0.951 . S
C1392 C1393 1.366 . S
C1392 C1394 1.388 . S
C1393 C1392 1.366 . S
C1393 C1397 1.385 . S
C1394 H1375 0.951 . S
C1394 C1392 1.388 . S
C1394 C1395 1.366 . S
C1395 C1394 1.366 . S
C1395 C1396 1.414 . S
C1395 C1398 1.499 . S
C1396 H1376 0.950 . S
C1396 C1395 1.414 . S
C1396 C1397 1.374 . S
C1397 H1377 0.950 . S
C1397 C1393 1.385 . S
C1397 C1396 1.374 . S
C1398 C1395 1.499 . S
C1398 C1399 1.373 . S
C1398 C1400 1.389 . S
C1399 H1378 0.950 . S
C1399 C1398 1.373 . S
C1399 C1415 1.377 . S
C1400 C1398 1.389 . S
C1400 C1401 1.524 . S
C1400 C1414 1.377 . S
C1401 C1400 1.524 . S
C1401 C1402 1.397 . S
C1401 C1406 1.363 . S
C1402 H1379 0.950 . S
C1402 C1401 1.397 . S
C1402 C1403 1.334 . S
C1403 H1380 0.950 . S
C1403 C1402 1.334 . S
C1403 C1404 1.287 . S
C1404 C1403 1.287 . S
C1404 C1405 1.524 . S
C1404 H1423 0.913 . S
C1405 H1381 0.950 . S
C1405 C1404 1.524 . S
C1405 C1406 1.415 . S
C1406 H1382 0.950 . S
C1406 C1401 1.363 . S
C1406 C1405 1.415 . S
C1407 H1383 0.951 . S
C1407 C1408 1.366 . S
C1407 C1409 1.388 . S
C1408 C1407 1.366 . S
C1408 C1412 1.385 . S
C1409 H1384 0.951 . S
C1409 C1407 1.388 . S
C1409 C1410 1.366 . S
C1410 C1409 1.366 . S
C1410 C1411 1.414 . S
C1410 C1413 1.499 . S
C1411 H1385 0.950 . S
C1411 C1410 1.414 . S
C1411 C1412 1.374 . S
C1412 H1386 0.950 . S
C1412 C1408 1.385 . S
C1412 C1411 1.374 . S
C1413 C1410 1.499 . S
C1413 C1414 1.373 . S
C1413 C1415 1.389 . S
C1414 H1387 0.950 . S
C1414 C1400 1.377 . S
C1414 C1413 1.373 . S
C1415 C1399 1.377 . S
C1415 C1413 1.389 . S
C1415 C1416 1.524 . S
C1416 C1415 1.524 . S
C1416 C1417 1.397 . S
C1416 C1421 1.363 . S
C1417 H1388 0.950 . S
C1417 C1416 1.397 . S
C1417 C1418 1.334 . S
C1418 H1389 0.950 . S
C1418 C1417 1.334 . S
C1418 C1419 1.287 . S
C1419 C1418 1.287 . S
C1419 C1420 1.524 . S
C1419 H1422 0.999 . S
C1420 H1390 0.950 . S
C1420 C1419 1.524 . S
C1420 C1421 1.415 . S
C1421 H1391 0.950 . S
C1421 C1416 1.363 . S
C1421 C1420 1.415 . S
H1422 C1419 0.999 . S
H1423 C1404 0.913 . S
H1424 C1442 0.951 . S
H1425 C1444 0.951 . S
H1426 C1446 0.950 . S
H1427 C1447 0.950 . S
H1428 C1449 0.950 . S
H1429 C1452 0.950 . S
H1430 C1453 0.950 . S
H1431 C1455 0.950 . S
H1432 C1456 0.950 . S
H1433 C1457 0.951 . S
H1434 C1459 0.951 . S
H1435 C1461 0.950 . S
H1436 C1462 0.950 . S
H1437 C1464 0.950 . S
H1438 C1467 0.950 . S
H1439 C1468 0.950 . S
H1440 C1470 0.950 . S
H1441 C1471 0.950 . S
C1442 H1424 0.951 . S
C1442 C1443 1.366 . S
C1442 C1444 1.388 . S
C1443 C1442 1.366 . S
C1443 C1447 1.385 . S
C1444 H1425 0.951 . S
C1444 C1442 1.388 . S
C1444 C1445 1.366 . S
C1445 C1444 1.366 . S
C1445 C1446 1.414 . S
C1445 C1448 1.499 . S
C1446 H1426 0.950 . S
C1446 C1445 1.414 . S
C1446 C1447 1.374 . S
C1447 H1427 0.950 . S
C1447 C1443 1.385 . S
C1447 C1446 1.374 . S
C1448 C1445 1.499 . S
C1448 C1449 1.373 . S
C1448 C1450 1.389 . S
C1449 H1428 0.950 . S
C1449 C1448 1.373 . S
C1449 C1465 1.377 . S
C1450 C1448 1.389 . S
C1450 C1451 1.524 . S
C1450 C1464 1.377 . S
C1451 C1450 1.524 . S
C1451 C1452 1.397 . S
C1451 C1456 1.363 . S
C1452 H1429 0.950 . S
C1452 C1451 1.397 . S
C1452 C1453 1.334 . S
C1453 H1430 0.950 . S
C1453 C1452 1.334 . S
C1453 C1454 1.287 . S
C1454 C1453 1.287 . S
C1454 C1455 1.524 . S
C1454 H1473 0.913 . S
C1455 H1431 0.950 . S
C1455 C1454 1.524 . S
C1455 C1456 1.415 . S
C1456 H1432 0.950 . S
C1456 C1451 1.363 . S
C1456 C1455 1.415 . S
C1457 H1433 0.951 . S
C1457 C1458 1.366 . S
C1457 C1459 1.388 . S
C1458 C1457 1.366 . S
C1458 C1462 1.385 . S
C1459 H1434 0.951 . S
C1459 C1457 1.388 . S
C1459 C1460 1.366 . S
C1460 C1459 1.366 . S
C1460 C1461 1.414 . S
C1460 C1463 1.499 . S
C1461 H1435 0.950 . S
C1461 C1460 1.414 . S
C1461 C1462 1.374 . S
C1462 H1436 0.950 . S
C1462 C1458 1.385 . S
C1462 C1461 1.374 . S
C1463 C1460 1.499 . S
C1463 C1464 1.373 . S
C1463 C1465 1.389 . S
C1464 H1437 0.950 . S
C1464 C1450 1.377 . S
C1464 C1463 1.373 . S
C1465 C1449 1.377 . S
C1465 C1463 1.389 . S
C1465 C1466 1.524 . S
C1466 C1465 1.524 . S
C1466 C1467 1.397 . S
C1466 C1471 1.363 . S
C1467 H1438 0.950 . S
C1467 C1466 1.397 . S
C1467 C1468 1.334 . S
C1468 H1439 0.950 . S
C1468 C1467 1.334 . S
C1468 C1469 1.287 . S
C1469 C1468 1.287 . S
C1469 C1470 1.524 . S
C1469 H1472 0.999 . S
C1470 H1440 0.950 . S
C1470 C1469 1.524 . S
C1470 C1471 1.415 . S
C1471 H1441 0.950 . S
C1471 C1466 1.363 . S
C1471 C1470 1.415 . S
H1472 C1469 0.999 . S
H1473 C1454 0.913 . S
H1474 C1492 0.951 . S
H1475 C1494 0.951 . S
H1476 C1496 0.950 . S
H1477 C1497 0.950 . S
H1478 C1499 0.950 . S
H1479 C1502 0.950 . S
H1480 C1503 0.950 . S
H1481 C1505 0.950 . S
H1482 C1506 0.950 . S
H1483 C1507 0.951 . S
H1484 C1509 0.951 . S
H1485 C1511 0.950 . S
H1486 C1512 0.950 . S
H1487 C1514 0.950 . S
H1488 C1517 0.950 . S
H1489 C1518 0.950 . S
H1490 C1520 0.950 . S
H1491 C1521 0.950 . S
C1492 H1474 0.951 . S
C1492 C1493 1.366 . S
C1492 C1494 1.388 . S
C1493 C1492 1.366 . S
C1493 C1497 1.385 . S
C1494 H1475 0.951 . S
C1494 C1492 1.388 . S
C1494 C1495 1.366 . S
C1495 C1494 1.366 . S
C1495 C1496 1.414 . S
C1495 C1498 1.499 . S
C1496 H1476 0.950 . S
C1496 C1495 1.414 . S
C1496 C1497 1.374 . S
C1497 H1477 0.950 . S
C1497 C1493 1.385 . S
C1497 C1496 1.374 . S
C1498 C1495 1.499 . S
C1498 C1499 1.373 . S
C1498 C1500 1.389 . S
C1499 H1478 0.950 . S
C1499 C1498 1.373 . S
C1499 C1515 1.377 . S
C1500 C1498 1.389 . S
C1500 C1501 1.524 . S
C1500 C1514 1.377 . S
C1501 C1500 1.524 . S
C1501 C1502 1.397 . S
C1501 C1506 1.363 . S
C1502 H1479 0.950 . S
C1502 C1501 1.397 . S
C1502 C1503 1.334 . S
C1503 H1480 0.950 . S
C1503 C1502 1.334 . S
C1503 C1504 1.287 . S
C1504 C1503 1.287 . S
C1504 C1505 1.524 . S
C1504 H1523 0.913 . S
C1505 H1481 0.950 . S
C1505 C1504 1.524 . S
C1505 C1506 1.415 . S
C1506 H1482 0.950 . S
C1506 C1501 1.363 . S
C1506 C1505 1.415 . S
C1507 H1483 0.951 . S
C1507 C1508 1.366 . S
C1507 C1509 1.388 . S
C1508 C1507 1.366 . S
C1508 C1512 1.385 . S
C1509 H1484 0.951 . S
C1509 C1507 1.388 . S
C1509 C1510 1.366 . S
C1510 C1509 1.366 . S
C1510 C1511 1.414 . S
C1510 C1513 1.499 . S
C1511 H1485 0.950 . S
C1511 C1510 1.414 . S
C1511 C1512 1.374 . S
C1512 H1486 0.950 . S
C1512 C1508 1.385 . S
C1512 C1511 1.374 . S
C1513 C1510 1.499 . S
C1513 C1514 1.373 . S
C1513 C1515 1.389 . S
C1514 H1487 0.950 . S
C1514 C1500 1.377 . S
C1514 C1513 1.373 . S
C1515 C1499 1.377 . S
C1515 C1513 1.389 . S
C1515 C1516 1.524 . S
C1516 C1515 1.524 . S
C1516 C1517 1.397 . S
C1516 C1521 1.363 . S
C1517 H1488 0.950 . S
C1517 C1516 1.397 . S
C1517 C1518 1.334 . S
C1518 H1489 0.950 . S
C1518 C1517 1.334 . S
C1518 C1519 1.287 . S
C1519 C1518 1.287 . S
C1519 C1520 1.524 . S
C1519 H1522 0.999 . S
C1520 H1490 0.950 . S
C1520 C1519 1.524 . S
C1520 C1521 1.415 . S
C1521 H1491 0.950 . S
C1521 C1516 1.363 . S
C1521 C1520 1.415 . S
H1522 C1519 0.999 . S
H1523 C1504 0.913 . S
H1524 C1542 0.951 . S
H1525 C1544 0.951 . S
H1526 C1546 0.950 . S
H1527 C1547 0.950 . S
H1528 C1549 0.950 . S
H1529 C1552 0.950 . S
H1530 C1553 0.950 . S
H1531 C1555 0.950 . S
H1532 C1556 0.950 . S
H1533 C1557 0.951 . S
H1534 C1559 0.951 . S
H1535 C1561 0.950 . S
H1536 C1562 0.950 . S
H1537 C1564 0.950 . S
H1538 C1567 0.950 . S
H1539 C1568 0.950 . S
H1540 C1570 0.950 . S
H1541 C1571 0.950 . S
C1542 H1524 0.951 . S
C1542 C1543 1.366 . S
C1542 C1544 1.388 . S
C1543 C1542 1.366 . S
C1543 C1547 1.385 . S
C1544 H1525 0.951 . S
C1544 C1542 1.388 . S
C1544 C1545 1.366 . S
C1545 C1544 1.366 . S
C1545 C1546 1.414 . S
C1545 C1548 1.499 . S
C1546 H1526 0.950 . S
C1546 C1545 1.414 . S
C1546 C1547 1.374 . S
C1547 H1527 0.950 . S
C1547 C1543 1.385 . S
C1547 C1546 1.374 . S
C1548 C1545 1.499 . S
C1548 C1549 1.373 . S
C1548 C1550 1.389 . S
C1549 H1528 0.950 . S
C1549 C1548 1.373 . S
C1549 C1565 1.377 . S
C1550 C1548 1.389 . S
C1550 C1551 1.524 . S
C1550 C1564 1.377 . S
C1551 C1550 1.524 . S
C1551 C1552 1.397 . S
C1551 C1556 1.363 . S
C1552 H1529 0.950 . S
C1552 C1551 1.397 . S
C1552 C1553 1.334 . S
C1553 H1530 0.950 . S
C1553 C1552 1.334 . S
C1553 C1554 1.287 . S
C1554 C1553 1.287 . S
C1554 C1555 1.524 . S
C1554 H1573 0.913 . S
C1555 H1531 0.950 . S
C1555 C1554 1.524 . S
C1555 C1556 1.415 . S
C1556 H1532 0.950 . S
C1556 C1551 1.363 . S
C1556 C1555 1.415 . S
C1557 H1533 0.951 . S
C1557 C1558 1.366 . S
C1557 C1559 1.388 . S
C1558 C1557 1.366 . S
C1558 C1562 1.385 . S
C1559 H1534 0.951 . S
C1559 C1557 1.388 . S
C1559 C1560 1.366 . S
C1560 C1559 1.366 . S
C1560 C1561 1.414 . S
C1560 C1563 1.499 . S
C1561 H1535 0.950 . S
C1561 C1560 1.414 . S
C1561 C1562 1.374 . S
C1562 H1536 0.950 . S
C1562 C1558 1.385 . S
C1562 C1561 1.374 . S
C1563 C1560 1.499 . S
C1563 C1564 1.373 . S
C1563 C1565 1.389 . S
C1564 H1537 0.950 . S
C1564 C1550 1.377 . S
C1564 C1563 1.373 . S
C1565 C1549 1.377 . S
C1565 C1563 1.389 . S
C1565 C1566 1.524 . S
C1566 C1565 1.524 . S
C1566 C1567 1.397 . S
C1566 C1571 1.363 . S
C1567 H1538 0.950 . S
C1567 C1566 1.397 . S
C1567 C1568 1.334 . S
C1568 H1539 0.950 . S
C1568 C1567 1.334 . S
C1568 C1569 1.287 . S
C1569 C1568 1.287 . S
C1569 C1570 1.524 . S
C1569 H1572 0.999 . S
C1570 H1540 0.950 . S
C1570 C1569 1.524 . S
C1570 C1571 1.415 . S
C1571 H1541 0.950 . S
C1571 C1566 1.363 . S
C1571 C1570 1.415 . S
H1572 C1569 0.999 . S
H1573 C1554 0.913 . S
H1574 C1592 0.951 . S
H1575 C1594 0.951 . S
H1576 C1596 0.950 . S
H1577 C1597 0.950 . S
H1578 C1599 0.950 . S
H1579 C1602 0.950 . S
H1580 C1603 0.950 . S
H1581 C1605 0.950 . S
H1582 C1606 0.950 . S
H1583 C1607 0.951 . S
H1584 C1609 0.951 . S
H1585 C1611 0.950 . S
H1586 C1612 0.950 . S
H1587 C1614 0.950 . S
H1588 C1617 0.950 . S
H1589 C1618 0.950 . S
H1590 C1620 0.950 . S
H1591 C1621 0.950 . S
C1592 H1574 0.951 . S
C1592 C1593 1.366 . S
C1592 C1594 1.388 . S
C1593 C1592 1.366 . S
C1593 C1597 1.385 . S
C1594 H1575 0.951 . S
C1594 C1592 1.388 . S
C1594 C1595 1.366 . S
C1595 C1594 1.366 . S
C1595 C1596 1.414 . S
C1595 C1598 1.499 . S
C1596 H1576 0.950 . S
C1596 C1595 1.414 . S
C1596 C1597 1.374 . S
C1597 H1577 0.950 . S
C1597 C1593 1.385 . S
C1597 C1596 1.374 . S
C1598 C1595 1.499 . S
C1598 C1599 1.373 . S
C1598 C1600 1.389 . S
C1599 H1578 0.950 . S
C1599 C1598 1.373 . S
C1599 C1615 1.377 . S
C1600 C1598 1.389 . S
C1600 C1601 1.524 . S
C1600 C1614 1.377 . S
C1601 C1600 1.524 . S
C1601 C1602 1.397 . S
C1601 C1606 1.363 . S
C1602 H1579 0.950 . S
C1602 C1601 1.397 . S
C1602 C1603 1.334 . S
C1603 H1580 0.950 . S
C1603 C1602 1.334 . S
C1603 C1604 1.287 . S
C1604 C1603 1.287 . S
C1604 C1605 1.524 . S
C1604 H1623 0.913 . S
C1605 H1581 0.950 . S
C1605 C1604 1.524 . S
C1605 C1606 1.415 . S
C1606 H1582 0.950 . S
C1606 C1601 1.363 . S
C1606 C1605 1.415 . S
C1607 H1583 0.951 . S
C1607 C1608 1.366 . S
C1607 C1609 1.388 . S
C1608 C1607 1.366 . S
C1608 C1612 1.385 . S
C1609 H1584 0.951 . S
C1609 C1607 1.388 . S
C1609 C1610 1.366 . S
C1610 C1609 1.366 . S
C1610 C1611 1.414 . S
C1610 C1613 1.499 . S
C1611 H1585 0.950 . S
C1611 C1610 1.414 . S
C1611 C1612 1.374 . S
C1612 H1586 0.950 . S
C1612 C1608 1.385 . S
C1612 C1611 1.374 . S
C1613 C1610 1.499 . S
C1613 C1614 1.373 . S
C1613 C1615 1.389 . S
C1614 H1587 0.950 . S
C1614 C1600 1.377 . S
C1614 C1613 1.373 . S
C1615 C1599 1.377 . S
C1615 C1613 1.389 . S
C1615 C1616 1.524 . S
C1616 C1615 1.524 . S
C1616 C1617 1.397 . S
C1616 C1621 1.363 . S
C1617 H1588 0.950 . S
C1617 C1616 1.397 . S
C1617 C1618 1.334 . S
C1618 H1589 0.950 . S
C1618 C1617 1.334 . S
C1618 C1619 1.287 . S
C1619 C1618 1.287 . S
C1619 C1620 1.524 . S
C1619 H1622 0.999 . S
C1620 H1590 0.950 . S
C1620 C1619 1.524 . S
C1620 C1621 1.415 . S
C1621 H1591 0.950 . S
C1621 C1616 1.363 . S
C1621 C1620 1.415 . S
H1622 C1619 0.999 . S
H1623 C1604 0.913 . S
H1624 C1642 0.951 . S
H1625 C1644 0.951 . S
H1626 C1646 0.950 . S
H1627 C1647 0.950 . S
H1628 C1649 0.950 . S
H1629 C1652 0.950 . S
H1630 C1653 0.950 . S
H1631 C1655 0.950 . S
H1632 C1656 0.950 . S
H1633 C1657 0.951 . S
H1634 C1659 0.951 . S
H1635 C1661 0.950 . S
H1636 C1662 0.950 . S
H1637 C1664 0.950 . S
H1638 C1667 0.950 . S
H1639 C1668 0.950 . S
H1640 C1670 0.950 . S
H1641 C1671 0.950 . S
C1642 H1624 0.951 . S
C1642 C1643 1.366 . S
C1642 C1644 1.388 . S
C1643 C1642 1.366 . S
C1643 C1647 1.385 . S
C1644 H1625 0.951 . S
C1644 C1642 1.388 . S
C1644 C1645 1.366 . S
C1645 C1644 1.366 . S
C1645 C1646 1.414 . S
C1645 C1648 1.499 . S
C1646 H1626 0.950 . S
C1646 C1645 1.414 . S
C1646 C1647 1.374 . S
C1647 H1627 0.950 . S
C1647 C1643 1.385 . S
C1647 C1646 1.374 . S
C1648 C1645 1.499 . S
C1648 C1649 1.373 . S
C1648 C1650 1.389 . S
C1649 H1628 0.950 . S
C1649 C1648 1.373 . S
C1649 C1665 1.377 . S
C1650 C1648 1.389 . S
C1650 C1651 1.524 . S
C1650 C1664 1.377 . S
C1651 C1650 1.524 . S
C1651 C1652 1.397 . S
C1651 C1656 1.363 . S
C1652 H1629 0.950 . S
C1652 C1651 1.397 . S
C1652 C1653 1.334 . S
C1653 H1630 0.950 . S
C1653 C1652 1.334 . S
C1653 C1654 1.287 . S
C1654 C1653 1.287 . S
C1654 C1655 1.524 . S
C1654 H1673 0.913 . S
C1655 H1631 0.950 . S
C1655 C1654 1.524 . S
C1655 C1656 1.415 . S
C1656 H1632 0.950 . S
C1656 C1651 1.363 . S
C1656 C1655 1.415 . S
C1657 H1633 0.951 . S
C1657 C1658 1.366 . S
C1657 C1659 1.388 . S
C1658 C1657 1.366 . S
C1658 C1662 1.385 . S
C1659 H1634 0.951 . S
C1659 C1657 1.388 . S
C1659 C1660 1.366 . S
C1660 C1659 1.366 . S
C1660 C1661 1.414 . S
C1660 C1663 1.499 . S
C1661 H1635 0.950 . S
C1661 C1660 1.414 . S
C1661 C1662 1.374 . S
C1662 H1636 0.950 . S
C1662 C1658 1.385 . S
C1662 C1661 1.374 . S
C1663 C1660 1.499 . S
C1663 C1664 1.373 . S
C1663 C1665 1.389 . S
C1664 H1637 0.950 . S
C1664 C1650 1.377 . S
C1664 C1663 1.373 . S
C1665 C1649 1.377 . S
C1665 C1663 1.389 . S
C1665 C1666 1.524 . S
C1666 C1665 1.524 . S
C1666 C1667 1.397 . S
C1666 C1671 1.363 . S
C1667 H1638 0.950 . S
C1667 C1666 1.397 . S
C1667 C1668 1.334 . S
C1668 H1639 0.950 . S
C1668 C1667 1.334 . S
C1668 C1669 1.287 . S
C1669 C1668 1.287 . S
C1669 C1670 1.524 . S
C1669 H1672 0.999 . S
C1670 H1640 0.950 . S
C1670 C1669 1.524 . S
C1670 C1671 1.415 . S
C1671 H1641 0.950 . S
C1671 C1666 1.363 . S
C1671 C1670 1.415 . S
H1672 C1669 0.999 . S
H1673 C1654 0.913 . S
H1674 C1692 0.951 . S
H1675 C1694 0.951 . S
H1676 C1696 0.950 . S
H1677 C1697 0.950 . S
H1678 C1699 0.950 . S
H1679 C1702 0.950 . S
H1680 C1703 0.950 . S
H1681 C1705 0.950 . S
H1682 C1706 0.950 . S
H1683 C1707 0.951 . S
H1684 C1709 0.951 . S
H1685 C1711 0.950 . S
H1686 C1712 0.950 . S
H1687 C1714 0.950 . S
H1688 C1717 0.950 . S
H1689 C1718 0.950 . S
H1690 C1720 0.950 . S
H1691 C1721 0.950 . S
C1692 H1674 0.951 . S
C1692 C1693 1.366 . S
C1692 C1694 1.388 . S
C1693 C1692 1.366 . S
C1693 C1697 1.385 . S
C1694 H1675 0.951 . S
C1694 C1692 1.388 . S
C1694 C1695 1.366 . S
C1695 C1694 1.366 . S
C1695 C1696 1.414 . S
C1695 C1698 1.499 . S
C1696 H1676 0.950 . S
C1696 C1695 1.414 . S
C1696 C1697 1.374 . S
C1697 H1677 0.950 . S
C1697 C1693 1.385 . S
C1697 C1696 1.374 . S
C1698 C1695 1.499 . S
C1698 C1699 1.373 . S
C1698 C1700 1.389 . S
C1699 H1678 0.950 . S
C1699 C1698 1.373 . S
C1699 C1715 1.377 . S
C1700 C1698 1.389 . S
C1700 C1701 1.524 . S
C1700 C1714 1.377 . S
C1701 C1700 1.524 . S
C1701 C1702 1.397 . S
C1701 C1706 1.363 . S
C1702 H1679 0.950 . S
C1702 C1701 1.397 . S
C1702 C1703 1.334 . S
C1703 H1680 0.950 . S
C1703 C1702 1.334 . S
C1703 C1704 1.287 . S
C1704 C1703 1.287 . S
C1704 C1705 1.524 . S
C1704 H1723 0.913 . S
C1705 H1681 0.950 . S
C1705 C1704 1.524 . S
C1705 C1706 1.415 . S
C1706 H1682 0.950 . S
C1706 C1701 1.363 . S
C1706 C1705 1.415 . S
C1707 H1683 0.951 . S
C1707 C1708 1.366 . S
C1707 C1709 1.388 . S
C1708 C1707 1.366 . S
C1708 C1712 1.385 . S
C1709 H1684 0.951 . S
C1709 C1707 1.388 . S
C1709 C1710 1.366 . S
C1710 C1709 1.366 . S
C1710 C1711 1.414 . S
C1710 C1713 1.499 . S
C1711 H1685 0.950 . S
C1711 C1710 1.414 . S
C1711 C1712 1.374 . S
C1712 H1686 0.950 . S
C1712 C1708 1.385 . S
C1712 C1711 1.374 . S
C1713 C1710 1.499 . S
C1713 C1714 1.373 . S
C1713 C1715 1.389 . S
C1714 H1687 0.950 . S
C1714 C1700 1.377 . S
C1714 C1713 1.373 . S
C1715 C1699 1.377 . S
C1715 C1713 1.389 . S
C1715 C1716 1.524 . S
C1716 C1715 1.524 . S
C1716 C1717 1.397 . S
C1716 C1721 1.363 . S
C1717 H1688 0.950 . S
C1717 C1716 1.397 . S
C1717 C1718 1.334 . S
C1718 H1689 0.950 . S
C1718 C1717 1.334 . S
C1718 C1719 1.287 . S
C1719 C1718 1.287 . S
C1719 C1720 1.524 . S
C1719 H1722 0.999 . S
C1720 H1690 0.950 . S
C1720 C1719 1.524 . S
C1720 C1721 1.415 . S
C1721 H1691 0.950 . S
C1721 C1716 1.363 . S
C1721 C1720 1.415 . S
H1722 C1719 0.999 . S
H1723 C1704 0.913 . S
H1724 C1742 0.951 . S
H1725 C1744 0.951 . S
H1726 C1746 0.950 . S
H1727 C1747 0.950 . S
H1728 C1749 0.950 . S
H1729 C1752 0.950 . S
H1730 C1753 0.950 1_565 S
H1731 C1755 0.950 . S
H1732 C1756 0.950 . S
H1733 C1757 0.951 . S
H1734 C1759 0.951 . S
H1735 C1761 0.950 . S
H1736 C1762 0.950 . S
H1737 C1764 0.950 . S
H1738 C1767 0.950 . S
H1739 C1768 0.950 . S
H1740 C1770 0.950 . S
H1741 C1771 0.950 . S
C1742 H1724 0.951 . S
C1742 C1743 1.366 . S
C1742 C1744 1.388 . S
C1743 C1742 1.366 . S
C1743 C1747 1.385 . S
C1744 H1725 0.951 . S
C1744 C1742 1.388 . S
C1744 C1745 1.366 . S
C1745 C1744 1.366 . S
C1745 C1746 1.414 . S
C1745 C1748 1.499 . S
C1746 H1726 0.950 . S
C1746 C1745 1.414 . S
C1746 C1747 1.374 . S
C1747 H1727 0.950 . S
C1747 C1743 1.385 . S
C1747 C1746 1.374 . S
C1748 C1745 1.499 . S
C1748 C1749 1.373 . S
C1748 C1750 1.389 . S
C1749 H1728 0.950 . S
C1749 C1748 1.373 . S
C1749 C1765 1.377 . S
C1750 C1748 1.389 . S
C1750 C1751 1.524 . S
C1750 C1764 1.377 . S
C1751 C1750 1.524 . S
C1751 C1752 1.397 . S
C1751 C1756 1.363 . S
C1752 H1729 0.950 . S
C1752 C1751 1.397 . S
C1752 C1753 1.334 . S
C1753 H1730 0.950 1_545 S
C1753 C1752 1.334 . S
C1753 C1754 1.287 . S
C1754 C1753 1.287 . S
C1754 C1755 1.524 . S
C1754 H1773 0.913 1_545 S
C1755 H1731 0.950 . S
C1755 C1754 1.524 . S
C1755 C1756 1.415 . S
C1756 H1732 0.950 . S
C1756 C1751 1.363 . S
C1756 C1755 1.415 . S
C1757 H1733 0.951 . S
C1757 C1758 1.366 . S
C1757 C1759 1.388 . S
C1758 C1757 1.366 . S
C1758 C1762 1.385 . S
C1759 H1734 0.951 . S
C1759 C1757 1.388 . S
C1759 C1760 1.366 . S
C1760 C1759 1.366 . S
C1760 C1761 1.414 . S
C1760 C1763 1.499 . S
C1761 H1735 0.950 . S
C1761 C1760 1.414 . S
C1761 C1762 1.374 . S
C1762 H1736 0.950 . S
C1762 C1758 1.385 . S
C1762 C1761 1.374 . S
C1763 C1760 1.499 . S
C1763 C1764 1.373 . S
C1763 C1765 1.389 . S
C1764 H1737 0.950 . S
C1764 C1750 1.377 . S
C1764 C1763 1.373 . S
C1765 C1749 1.377 . S
C1765 C1763 1.389 . S
C1765 C1766 1.524 . S
C1766 C1765 1.524 . S
C1766 C1767 1.397 . S
C1766 C1771 1.363 . S
C1767 H1738 0.950 . S
C1767 C1766 1.397 . S
C1767 C1768 1.334 . S
C1768 H1739 0.950 . S
C1768 C1767 1.334 . S
C1768 C1769 1.287 . S
C1769 C1768 1.287 . S
C1769 C1770 1.524 . S
C1769 H1772 0.999 . S
C1770 H1740 0.950 . S
C1770 C1769 1.524 . S
C1770 C1771 1.415 . S
C1771 H1741 0.950 . S
C1771 C1766 1.363 . S
C1771 C1770 1.415 . S
H1772 C1769 0.999 . S
H1773 C1754 0.913 1_565 S
H1774 C1792 0.951 . S
H1775 C1794 0.951 . S
H1776 C1796 0.950 . S
H1777 C1797 0.950 . S
H1778 C1799 0.950 . S
H1779 C1802 0.950 . S
H1780 C1803 0.950 . S
H1781 C1805 0.950 . S
H1782 C1806 0.950 . S
H1783 C1807 0.951 . S
H1784 C1809 0.951 . S
H1785 C1811 0.950 . S
H1786 C1812 0.950 . S
H1787 C1814 0.950 . S
H1788 C1817 0.950 . S
H1789 C1818 0.950 . S
H1790 C1820 0.950 . S
H1791 C1821 0.950 . S
C1792 H1774 0.951 . S
C1792 C1793 1.366 . S
C1792 C1794 1.388 . S
C1793 C1792 1.366 . S
C1793 C1797 1.385 . S
C1794 H1775 0.951 . S
C1794 C1792 1.388 . S
C1794 C1795 1.366 . S
C1795 C1794 1.366 . S
C1795 C1796 1.414 . S
C1795 C1798 1.499 . S
C1796 H1776 0.950 . S
C1796 C1795 1.414 . S
C1796 C1797 1.374 . S
C1797 H1777 0.950 . S
C1797 C1793 1.385 . S
C1797 C1796 1.374 . S
C1798 C1795 1.499 . S
C1798 C1799 1.373 . S
C1798 C1800 1.389 . S
C1799 H1778 0.950 . S
C1799 C1798 1.373 . S
C1799 C1815 1.377 . S
C1800 C1798 1.389 . S
C1800 C1801 1.524 . S
C1800 C1814 1.377 . S
C1801 C1800 1.524 . S
C1801 C1802 1.397 . S
C1801 C1806 1.363 . S
C1802 H1779 0.950 . S
C1802 C1801 1.397 . S
C1802 C1803 1.334 . S
C1803 H1780 0.950 . S
C1803 C1802 1.334 . S
C1803 C1804 1.287 . S
C1804 C1803 1.287 . S
C1804 C1805 1.524 . S
C1804 H1823 0.913 . S
C1805 H1781 0.950 . S
C1805 C1804 1.524 . S
C1805 C1806 1.415 . S
C1806 H1782 0.950 . S
C1806 C1801 1.363 . S
C1806 C1805 1.415 . S
C1807 H1783 0.951 . S
C1807 C1808 1.366 . S
C1807 C1809 1.388 . S
C1808 C1807 1.366 . S
C1808 C1812 1.385 . S
C1809 H1784 0.951 . S
C1809 C1807 1.388 . S
C1809 C1810 1.366 . S
C1810 C1809 1.366 . S
C1810 C1811 1.414 . S
C1810 C1813 1.499 . S
C1811 H1785 0.950 . S
C1811 C1810 1.414 . S
C1811 C1812 1.374 . S
C1812 H1786 0.950 . S
C1812 C1808 1.385 . S
C1812 C1811 1.374 . S
C1813 C1810 1.499 . S
C1813 C1814 1.373 . S
C1813 C1815 1.389 . S
C1814 H1787 0.950 . S
C1814 C1800 1.377 . S
C1814 C1813 1.373 . S
C1815 C1799 1.377 . S
C1815 C1813 1.389 . S
C1815 C1816 1.524 . S
C1816 C1815 1.524 . S
C1816 C1817 1.397 . S
C1816 C1821 1.363 . S
C1817 H1788 0.950 . S
C1817 C1816 1.397 . S
C1817 C1818 1.334 . S
C1818 H1789 0.950 . S
C1818 C1817 1.334 . S
C1818 C1819 1.287 . S
C1819 C1818 1.287 . S
C1819 C1820 1.524 . S
C1819 H1822 0.999 . S
C1820 H1790 0.950 . S
C1820 C1819 1.524 . S
C1820 C1821 1.415 . S
C1821 H1791 0.950 . S
C1821 C1816 1.363 . S
C1821 C1820 1.415 . S
H1822 C1819 0.999 . S
H1823 C1804 0.913 . S
C243 C8 0.935 . S
C258 C64 0.934 . S
C293 C78 0.934 . S
C308 C22 0.935 . S
C343 C36 0.935 . S
C358 C92 0.935 . S
C393 C50 0.935 . S
C408 C106 0.934 . S
C443 C120 0.934 . S
C458 C176 0.935 . S
C493 C190 0.934 . S
C508 C134 0.935 . S
C543 C148 0.935 . S
C558 C204 0.935 . S
C593 C162 0.935 . S
C608 C218 0.935 . S
C643 C7 1.421 . S
C658 C219 1.437 . S
C693 C177 1.436 . S
C708 C21 1.422 . S
C743 C35 1.421 . S
C758 C191 1.437 . S
C793 C205 1.436 . S
C808 C49 1.421 . S
C843 C135 1.436 . S
C858 C63 1.421 . S
C893 C149 1.436 . S
C908 C77 1.422 . S
C943 C163 1.437 . S
C958 C91 1.421 . S
C993 C121 1.437 . S
C1008 C105 1.421 . S
C1043 C119 1.421 . S
C1058 C107 1.437 . S
C1093 C65 1.436 . S
C1108 C133 1.422 . S
C1143 C79 1.436 . S
C1158 C147 1.422 . S
C1193 C161 1.421 . S
C1208 C93 1.436 . S
C1243 C23 1.436 . S
C1258 C175 1.422 . S
C1293 C189 1.421 . S
C1308 C37 1.436 . S
C1343 C203 1.421 . S
C1358 C51 1.436 . S
C1393 C217 1.422 . S
C1408 C9 1.436 . S
C1443 C101 0.943 . S
C1458 C3 0.943 . S
C1493 C17 0.944 . S
C1508 C59 0.943 . S
C1543 C31 0.943 . S
C1558 C73 0.943 . S
C1593 C45 0.944 . S
C1608 C87 0.943 . S
C1643 C213 0.943 . S
C1658 C115 0.943 . S
C1693 C171 0.943 . S
C1708 C129 0.944 . S
C1743 C185 0.944 . S
C1758 C143 0.943 . S
C1793 C199 0.944 . S
C1808 C157 0.943 . S
