# Generated by pormake.
# Topology umz, (4)-cn, num edge types: 1
# Building blocks:
#     Node 0, Type 0, BuildingBlock: GALJAG_clean_sbu_0, # of connection points: 4
#     Node 1, Type 0, BuildingBlock: GALJAG_clean_sbu_0, # of connection points: 4
#     Node 2, Type 0, BuildingBlock: GALJAG_clean_sbu_0, # of connection points: 4
#     Node 3, Type 0, BuildingBlock: GALJAG_clean_sbu_0, # of connection points: 4
#     Node 4, Type 0, BuildingBlock: GALJAG_clean_sbu_0, # of connection points: 4
#     Node 5, Type 0, BuildingBlock: GALJAG_clean_sbu_0, # of connection points: 4
#     Node 6, Type 0, BuildingBlock: GALJAG_clean_sbu_0, # of connection points: 4
#     Node 7, Type 0, BuildingBlock: GALJAG_clean_sbu_0, # of connection points: 4
#     Node 8, Type 0, BuildingBlock: GALJAG_clean_sbu_0, # of connection points: 4
#     Node 9, Type 0, BuildingBlock: GALJAG_clean_sbu_0, # of connection points: 4
#     Node 10, Type 0, BuildingBlock: GALJAG_clean_sbu_0, # of connection points: 4
#     Node 11, Type 0, BuildingBlock: GALJAG_clean_sbu_0, # of connection points: 4
#     Node 12, Type 0, BuildingBlock: GALJAG_clean_sbu_0, # of connection points: 4
#     Node 13, Type 0, BuildingBlock: GALJAG_clean_sbu_0, # of connection points: 4
#     Node 14, Type 0, BuildingBlock: GALJAG_clean_sbu_0, # of connection points: 4
#     Node 15, Type 0, BuildingBlock: GALJAG_clean_sbu_0, # of connection points: 4
#     Edge 16, Type (0, 0), BuildingBlock: UVAHIK_clean_linker_0, # of connection points: 2
#     Edge 17, Type (0, 0), BuildingBlock: UVAHIK_clean_linker_0, # of connection points: 2
#     Edge 18, Type (0, 0), BuildingBlock: UVAHIK_clean_linker_0, # of connection points: 2
#     Edge 19, Type (0, 0), BuildingBlock: UVAHIK_clean_linker_0, # of connection points: 2
#     Edge 20, Type (0, 0), BuildingBlock: UVAHIK_clean_linker_0, # of connection points: 2
#     Edge 21, Type (0, 0), BuildingBlock: UVAHIK_clean_linker_0, # of connection points: 2
#     Edge 22, Type (0, 0), BuildingBlock: UVAHIK_clean_linker_0, # of connection points: 2
#     Edge 23, Type (0, 0), BuildingBlock: UVAHIK_clean_linker_0, # of connection points: 2
#     Edge 24, Type (0, 0), BuildingBlock: UVAHIK_clean_linker_0, # of connection points: 2
#     Edge 25, Type (0, 0), BuildingBlock: UVAHIK_clean_linker_0, # of connection points: 2
#     Edge 26, Type (0, 0), BuildingBlock: UVAHIK_clean_linker_0, # of connection points: 2
#     Edge 27, Type (0, 0), BuildingBlock: UVAHIK_clean_linker_0, # of connection points: 2
#     Edge 28, Type (0, 0), BuildingBlock: UVAHIK_clean_linker_0, # of connection points: 2
#     Edge 29, Type (0, 0), BuildingBlock: UVAHIK_clean_linker_0, # of connection points: 2
#     Edge 30, Type (0, 0), BuildingBlock: UVAHIK_clean_linker_0, # of connection points: 2
#     Edge 31, Type (0, 0), BuildingBlock: UVAHIK_clean_linker_0, # of connection points: 2
#     Edge 32, Type (0, 0), BuildingBlock: UVAHIK_clean_linker_0, # of connection points: 2
#     Edge 33, Type (0, 0), BuildingBlock: UVAHIK_clean_linker_0, # of connection points: 2
#     Edge 34, Type (0, 0), BuildingBlock: UVAHIK_clean_linker_0, # of connection points: 2
#     Edge 35, Type (0, 0), BuildingBlock: UVAHIK_clean_linker_0, # of connection points: 2
#     Edge 36, Type (0, 0), BuildingBlock: UVAHIK_clean_linker_0, # of connection points: 2
#     Edge 37, Type (0, 0), BuildingBlock: UVAHIK_clean_linker_0, # of connection points: 2
#     Edge 38, Type (0, 0), BuildingBlock: UVAHIK_clean_linker_0, # of connection points: 2
#     Edge 39, Type (0, 0), BuildingBlock: UVAHIK_clean_linker_0, # of connection points: 2
#     Edge 40, Type (0, 0), BuildingBlock: UVAHIK_clean_linker_0, # of connection points: 2
#     Edge 41, Type (0, 0), BuildingBlock: UVAHIK_clean_linker_0, # of connection points: 2
#     Edge 42, Type (0, 0), BuildingBlock: UVAHIK_clean_linker_0, # of connection points: 2
#     Edge 43, Type (0, 0), BuildingBlock: UVAHIK_clean_linker_0, # of connection points: 2
#     Edge 44, Type (0, 0), BuildingBlock: UVAHIK_clean_linker_0, # of connection points: 2
#     Edge 45, Type (0, 0), BuildingBlock: UVAHIK_clean_linker_0, # of connection points: 2
#     Edge 46, Type (0, 0), BuildingBlock: UVAHIK_clean_linker_0, # of connection points: 2
#     Edge 47, Type (0, 0), BuildingBlock: UVAHIK_clean_linker_0, # of connection points: 2
# Relax obj value: 0.183
# Max RMSD: 0.169
# Mean RMSD: 0.169
data_MOF--net-umz--node1-GALJAG_clean_sbu_0--edge1-UVAHIK_clean_linker_0
_symmetry_space_group_name_H-M    P1
_symmetry_Int_Tables_number       1
_symmetry_cell_setting            triclinic
loop_
_symmetry_equiv_pos_as_xyz
'x, y, z'
_cell_length_a     72.934161
_cell_length_b     72.920893
_cell_length_c     32.384624
_cell_angle_alpha  89.977192
_cell_angle_beta   89.992891
_cell_angle_gamma 90.044357
loop_
_atom_site_label
_atom_site_type_symbol
_atom_site_fract_x
_atom_site_fract_y
_atom_site_fract_z
_atom_type_partial_charge
In0 In 0.01426 0.62755 0.1388 0.0
O1 O 0.01674 0.60391 0.09337 0.0
O2 O 0.04041 0.62031 0.10405 0.0
C3 C 0.97818 0.62486 0.15606 0.0
C4 C 0.01629 0.66054 0.10195 0.0
C5 C 0.02938 0.61624 0.21014 0.0
O6 O 0.98534 0.61736 0.12491 0.0
O7 O 0.98915 0.63398 0.17806 0.0
O8 O 0.03118 0.63249 0.19714 0.0
O9 O 0.0203 0.60578 0.18679 0.0
C10 C 0.0333 0.60711 0.08455 0.0
O11 O 0.02201 0.65802 0.13831 0.0
O12 O 0.00932 0.64665 0.08506 0.0
In13 In 0.86052 0.01332 0.63829 0.0
O14 O 0.8303 0.02169 0.64195 0.0
O15 O 0.839 0.00502 0.59181 0.0
C16 C 0.87412 0.02981 0.70591 0.0
C17 C 0.87814 0.03162 0.57785 0.0
C18 C 0.8644 0.97778 0.65917 0.0
O19 O 0.85742 0.03103 0.69586 0.0
O20 O 0.88391 0.02054 0.68147 0.0
O21 O 0.87078 0.98431 0.62607 0.0
O22 O 0.85597 0.98913 0.68155 0.0
C23 C 0.82602 0.0134 0.60911 0.0
O24 O 0.88187 0.01523 0.58715 0.0
O25 O 0.86582 0.03891 0.59969 0.0
In26 In 0.47035 0.85987 0.15433 0.0
O27 O 0.46662 0.82882 0.14872 0.0
O28 O 0.48218 0.84267 0.10275 0.0
C29 C 0.44858 0.86841 0.21827 0.0
C30 C 0.45189 0.87746 0.09459 0.0
C31 C 0.50327 0.86801 0.18727 0.0
O32 O 0.45173 0.85196 0.20817 0.0
O33 O 0.45631 0.88034 0.19602 0.0
O34 O 0.49723 0.87583 0.15528 0.0
O35 O 0.49286 0.85591 0.20216 0.0
C36 C 0.4756 0.82774 0.11548 0.0
O37 O 0.46814 0.88168 0.1043 0.0
O38 O 0.44495 0.86455 0.11537 0.0
In39 In 0.62622 0.46054 0.65291 0.0
O40 O 0.65681 0.4532 0.65382 0.0
O41 O 0.64499 0.46234 0.59749 0.0
C42 C 0.61337 0.44502 0.72269 0.0
C43 C 0.60431 0.44461 0.59667 0.0
C44 C 0.62628 0.49645 0.67268 0.0
O45 O 0.62859 0.44046 0.70712 0.0
O46 O 0.60473 0.45709 0.70275 0.0
O47 O 0.61631 0.48991 0.64446 0.0
O48 O 0.63647 0.48493 0.69042 0.0
C49 C 0.65911 0.45685 0.61604 0.0
O50 O 0.60402 0.46163 0.60387 0.0
O51 O 0.61536 0.43553 0.61867 0.0
In52 In 0.02093 0.86328 0.84326 0.0
O53 O 0.02142 0.88599 0.89122 0.0
O54 O 0.04681 0.87349 0.87513 0.0
C55 C 0.98485 0.86359 0.82528 0.0
C56 C 0.02443 0.83075 0.88153 0.0
C57 C 0.03552 0.87497 0.7716 0.0
O58 O 0.99185 0.87395 0.85222 0.0
O59 O -0.004 0.85287 0.80795 0.0
O60 O 0.03947 0.85954 0.78695 0.0
O61 O 0.02452 0.88445 0.79269 0.0
C62 C 0.03851 0.88511 0.89717 0.0
O63 O 0.02877 0.8329 0.84409 0.0
O64 O 0.01829 0.84486 0.89911 0.0
In65 In 0.62607 0.03455 0.34413 0.0
O66 O 0.60025 0.04351 0.37783 0.0
O67 O 0.62118 0.06341 0.36824 0.0
C68 C 0.61811 -0.00147 0.34047 0.0
C69 C 0.65736 0.03289 0.38783 0.0
C70 C 0.62185 0.04632 0.2661 0.0
O71 O 0.6108 0.00907 0.3666 0.0
O72 O 0.6295 0.00612 0.3167 0.0
O73 O 0.63618 0.04973 0.28665 0.0
O74 O 0.60978 0.03729 0.28517 0.0
C75 C 0.60565 0.05978 0.38339 0.0
O76 O 0.6573 0.03339 0.34887 0.0
O77 O 0.64176 0.03332 0.40439 0.0
In78 In 0.47694 0.62641 0.85106 0.0
O79 O 0.47333 0.65768 0.84979 0.0
O80 O 0.48339 0.64509 0.90452 0.0
C81 C 0.46028 0.61585 0.7809 0.0
C82 C 0.4564 0.60828 0.90673 0.0
C83 C 0.51257 0.62058 0.83353 0.0
O84 O 0.45929 0.63213 0.79415 0.0
O85 O 0.46935 0.60503 0.8034 0.0
O86 O 0.50489 0.61389 0.865 0.0
O87 O 0.50235 0.63031 0.8111 0.0
C88 C 0.47878 0.65968 0.88655 0.0
O89 O 0.47257 0.60354 0.89776 0.0
O90 O 0.45039 0.62184 0.88661 0.0
In91 In 0.86142 0.47144 0.35665 0.0
O92 O 0.83144 0.46204 0.35863 0.0
O93 O 0.84207 0.47712 0.40952 0.0
C94 C 0.87456 0.45546 0.28788 0.0
C95 C 0.88163 0.45435 0.41446 0.0
C96 C 0.86258 0.50683 0.33289 0.0
O97 O 0.85831 0.45285 0.30016 0.0
O98 O 0.88404 0.46586 0.31053 0.0
O99 O 0.87256 0.50055 0.36141 0.0
O100 O 0.85174 0.49534 0.31701 0.0
C101 C 0.8286 0.4688 0.39398 0.0
O102 O 0.88275 0.4714 0.40798 0.0
O103 O 0.87063 0.4459 0.39111 0.0
In104 In 0.97055 0.36341 0.8553 0.0
O105 O 0.96937 0.38496 0.90621 0.0
O106 O 0.94561 0.36871 0.89587 0.0
C107 C 0.00564 0.36805 0.83182 0.0
C108 C 0.97091 0.32907 0.88567 0.0
C109 C 0.95395 0.37627 0.78701 0.0
O110 O -0.00053 0.37435 0.86536 0.0
O111 O 0.99417 0.35926 0.8104 0.0
O112 O 0.95449 0.35936 0.79547 0.0
O113 O 0.96141 0.38658 0.81341 0.0
C114 C 0.95314 0.38119 0.91682 0.0
O115 O 0.95961 0.33399 0.85829 0.0
O116 O 0.98204 0.34131 0.89678 0.0
In117 In 0.12898 0.96993 0.34198 0.0
O118 O 0.15674 0.95576 0.35068 0.0
O119 O 0.15234 0.98145 0.37987 0.0
C120 C 0.11677 0.95616 0.26998 0.0
C121 C 0.10993 0.95171 0.4004 0.0
C122 C 0.1245 0.00576 0.326 0.0
O123 O 0.13367 0.95704 0.27839 0.0
O124 O 0.10626 0.9619 0.29805 0.0
O125 O 0.11835 -0.00173 0.35836 0.0
O126 O 0.13312 -0.0048 0.30195 0.0
C127 C 0.16295 0.96809 0.37417 0.0
O128 O 0.1068 0.96827 0.39159 0.0
O129 O 0.12243 0.94433 0.37933 0.0
In130 In 0.53406 0.13341 0.83346 0.0
O131 O 0.53798 0.16354 0.85009 0.0
O132 O 0.51871 0.14797 0.88471 0.0
C133 C 0.55057 0.13583 0.75918 0.0
C134 C 0.55537 0.1161 0.88877 0.0
C135 C 0.5038 0.11518 0.8093 0.0
O136 O 0.53715 0.14584 0.76884 0.0
O137 O 0.55595 0.12525 0.78742 0.0
O138 O 0.51836 0.1072 0.82017 0.0
O139 O 0.50436 0.13245 0.81118 0.0
C140 C 0.52661 0.16316 0.87947 0.0
O141 O 0.53932 0.11084 0.88021 0.0
O142 O 0.56076 0.13007 0.86914 0.0
In143 In 0.36129 0.52752 0.35144 0.0
O144 O 0.38345 0.52799 0.40073 0.0
O145 O 0.37017 0.55317 0.38613 0.0
C146 C 0.36231 0.49178 0.33061 0.0
C147 C 0.32836 0.53 0.38823 0.0
C148 C 0.37449 0.54276 0.28181 0.0
O149 O 0.37184 0.49837 0.35955 0.0
O150 O 0.35198 0.50315 0.31276 0.0
O151 O 0.3585 0.54619 0.29481 0.0
O152 O 0.38366 0.53202 0.30426 0.0
C153 C 0.38187 0.54493 0.40808 0.0
O154 O 0.33093 0.53569 0.35182 0.0
O155 O 0.3422 0.52299 0.40525 0.0
In156 In 0.9674 0.12404 0.13816 0.0
O157 O 0.96731 0.1025 0.08725 0.0
O158 O 0.9425 0.1169 0.09912 0.0
C159 C 0.0022 0.12141 0.16483 0.0
C160 C 0.96772 0.15721 0.10205 0.0
C161 C 0.9503 0.11125 0.2059 0.0
O162 O -0.00384 0.11217 0.13479 0.0
O163 O 0.99071 0.1321 0.18119 0.0
O164 O 0.94939 0.12793 0.19541 0.0
O165 O 0.95951 0.10121 0.18193 0.0
C166 C 0.95072 0.10504 0.07765 0.0
O167 O 0.95737 0.1537 0.13236 0.0
O168 O 0.97789 0.14416 0.09093 0.0
In169 In 0.35554 0.9583 0.65242 0.0
O170 O 0.36415 0.95794 0.58504 0.0
O171 O 0.36678 0.93314 0.61907 0.0
C172 C 0.36865 0.99248 0.66261 0.0
C173 C 0.31937 0.95716 0.63552 0.0
C174 C 0.36841 0.94348 0.72277 0.0
O175 O 0.37319 0.98239 0.63266 0.0
O176 O 0.35708 0.98549 0.68701 0.0
O177 O 0.35148 0.94575 0.71648 0.0
O178 O 0.37864 0.94827 0.69332 0.0
C179 C 0.36865 0.94124 0.58489 0.0
O180 O 0.32871 0.94294 0.6421 0.0
O181 O 0.32809 0.97199 0.6393 0.0
In182 In 0.51196 0.35829 0.15434 0.0
O183 O 0.52166 0.32851 0.15576 0.0
O184 O 0.49955 0.33548 0.11602 0.0
C185 C 0.52825 0.37102 0.22318 0.0
C186 C 0.53129 0.3741 0.09271 0.0
C187 C 0.47671 0.36548 0.17275 0.0
O188 O 0.52674 0.35408 0.21572 0.0
O189 O 0.52186 0.38142 0.1956 0.0
O190 O 0.48387 0.37008 0.13879 0.0
O191 O 0.48727 0.35711 0.19715 0.0
C192 C 0.51017 0.32319 0.12919 0.0
O193 O 0.51556 0.37956 0.10324 0.0
O194 O 0.53735 0.36084 0.1136 0.0
In195 In 0.12332 0.52273 0.6382 0.0
O196 O 0.15359 0.531 0.63904 0.0
O197 O 0.14261 0.51943 0.58405 0.0
C198 C 0.11066 0.53689 0.70947 0.0
C199 C 0.10263 0.541 0.58315 0.0
C200 C 0.12221 0.48666 0.65618 0.0
O201 O 0.12645 0.54065 0.69583 0.0
O202 O 0.10134 0.52634 0.68686 0.0
O203 O 0.11224 0.49382 0.62871 0.0
O204 O 0.13305 0.49763 0.6738 0.0
C205 C 0.15635 0.52615 0.60212 0.0
O206 O 0.10135 0.52389 0.58849 0.0
O207 O 0.11409 0.54895 0.60627 0.0
C208 C 0.0223 0.69435 0.10087 0.0
C209 C 0.01819 0.67806 0.07978 0.0
C210 C 0.02401 0.71085 0.07919 0.0
C211 C 0.01212 0.73212 0.97834 0.0
H212 H 0.04761 0.76882 0.01193 0.0
C213 C 0.02783 0.79664 0.88138 0.0
C214 C 0.02605 0.81313 0.90335 0.0
C215 C 0.02818 0.77991 0.90243 0.0
C216 C 0.03765 0.75865 0.00231 0.0
H217 H 0.01316 0.66604 0.0196 0.0
H218 H 0.01679 0.69453 0.98173 0.0
H219 H 0.04552 0.73997 0.05002 0.0
H220 H 0.02395 0.82523 0.96435 0.0
H221 H 0.02492 0.79601 0.00108 0.0
H222 H 0.00453 0.75074 0.93017 0.0
C223 C 0.01808 0.69484 0.01503 0.0
C224 C 0.03634 0.7422 0.02424 0.0
C225 C 0.0161 0.67846 0.03672 0.0
C226 C 0.02524 0.81268 0.94667 0.0
C227 C 0.02591 0.79601 0.9677 0.0
C228 C 0.01363 0.74842 0.9561 0.0
C229 C 0.0219 0.71128 0.03596 0.0
C230 C 0.02349 0.72876 0.01263 0.0
C231 C 0.02711 0.77949 0.94574 0.0
C232 C 0.02632 0.76185 0.96803 0.0
H233 H 0.02395 0.69438 0.13411 0.0
H234 H 0.0267 0.72329 0.0964 0.0
H235 H 0.00178 0.72229 0.969 0.0
H236 H 0.02847 0.79664 0.84796 0.0
H237 H 0.0292 0.7673 0.88491 0.0
C238 C 0.69079 0.02612 0.39382 0.0
C239 C 0.67424 0.03138 0.41243 0.0
C240 C 0.70652 0.02373 0.41776 0.0
C241 C 0.72857 0.03752 0.5134 0.0
H242 H 0.75578 0.99214 0.50192 0.0
C243 C 0.79287 0.02228 0.61182 0.0
C244 C 0.80756 0.01409 0.5908 0.0
C245 C 0.77564 0.02352 0.59309 0.0
C246 C 0.74846 0.00497 0.50521 0.0
H247 H 0.66116 0.03874 0.47027 0.0
H248 H 0.68883 0.03492 0.51198 0.0
H249 H 0.72789 -0.00324 0.46183 0.0
H250 H 0.81583 0.0007 0.53397 0.0
H251 H 0.78613 0.00333 0.50096 0.0
H252 H 0.74944 0.04608 0.55559 0.0
C253 C 0.68955 0.03252 0.47901 0.0
C254 C 0.73249 0.00757 0.48232 0.0
C255 C 0.67376 0.03463 0.45518 0.0
C256 C 0.80471 0.00699 0.55105 0.0
C257 C 0.78762 0.00838 0.53222 0.0
C258 C 0.74471 0.03504 0.53592 0.0
C259 C 0.70599 0.02684 0.46055 0.0
C260 C 0.72253 0.02393 0.48591 0.0
C261 C 0.77288 0.01672 0.55289 0.0
C262 C 0.75497 0.01882 0.53168 0.0
H263 H 0.6915 0.02351 0.36093 0.0
H264 H 0.71912 0.01949 0.40286 0.0
H265 H 0.72111 0.05029 0.51652 0.0
H266 H 0.7947 0.0278 0.64259 0.0
H267 H 0.76451 0.02982 0.61006 0.0
C268 C 0.4737 0.7936 0.11005 0.0
C269 C 0.47747 0.81064 0.09177 0.0
C270 C 0.47499 0.77753 0.08677 0.0
C271 C 0.47036 0.76011 0.98305 0.0
H272 H 0.50016 0.71934 0.02029 0.0
C273 C 0.47851 0.69403 0.88601 0.0
C274 C 0.47931 0.67746 0.90793 0.0
C275 C 0.47925 0.71076 0.90709 0.0
C276 C 0.49155 0.73048 0.00969 0.0
H277 H 0.48544 0.82437 0.03506 0.0
H278 H 0.48723 0.79626 0.99422 0.0
H279 H 0.4992 0.74747 0.06086 0.0
H280 H 0.48104 0.66525 0.96887 0.0
H281 H 0.48153 0.69418 0.0056 0.0
H282 H 0.46205 0.74302 0.93284 0.0
C283 C 0.48348 0.79537 0.02653 0.0
C284 C 0.49111 0.74658 0.03286 0.0
C285 C 0.48254 0.81138 0.04995 0.0
C286 C 0.48061 0.67785 0.95114 0.0
C287 C 0.48105 0.69447 0.97219 0.0
C288 C 0.47053 0.74388 0.96021 0.0
C289 C 0.47971 0.77834 0.04476 0.0
C290 C 0.48045 0.76147 0.01981 0.0
C291 C 0.48052 0.71116 0.95049 0.0
C292 C 0.48103 0.7288 0.97343 0.0
H293 H 0.46976 0.7927 0.14224 0.0
H294 H 0.47194 0.7645 0.10133 0.0
H295 H 0.46197 0.77145 0.9726 0.0
H296 H 0.47757 0.69406 0.85262 0.0
H297 H 0.47904 0.72334 0.88934 0.0
C298 C 0.67745 0.45485 0.5515 0.0
C299 C 0.67688 0.45529 0.59484 0.0
C300 C 0.69421 0.45448 0.53081 0.0
C301 C 0.74088 0.46994 0.54079 0.0
H302 H 0.75142 0.43608 0.45155 0.0
C303 C 0.81075 0.47003 0.45927 0.0
C304 C 0.81125 0.46656 0.41667 0.0
C305 C 0.79458 0.46763 0.48153 0.0
C306 C 0.7486 0.44581 0.47598 0.0
H307 H 0.69325 0.45538 0.65067 0.0
H308 H 0.72275 0.45519 0.61422 0.0
H309 H 0.7228 0.43316 0.49017 0.0
H310 H 0.79527 0.458 0.36371 0.0
H311 H 0.76668 0.45451 0.40227 0.0
H312 H 0.76613 0.48315 0.52585 0.0
C313 C 0.71016 0.45498 0.59646 0.0
C314 C 0.73229 0.44402 0.49825 0.0
C315 C 0.69335 0.45502 0.61723 0.0
C316 C 0.79524 0.46072 0.39659 0.0
C317 C 0.77892 0.45859 0.41879 0.0
C318 C 0.75703 0.47192 0.51816 0.0
C319 C 0.71069 0.45484 0.55307 0.0
C320 C 0.72832 0.45607 0.53083 0.0
C321 C 0.77841 0.46201 0.46159 0.0
C322 C 0.76113 0.45987 0.48548 0.0
H323 H 0.66493 0.45498 0.53351 0.0
H324 H 0.69428 0.45452 0.49735 0.0
H325 H 0.73795 0.47959 0.56535 0.0
H326 H 0.82297 0.47434 0.47566 0.0
H327 H 0.79486 0.46999 0.51453 0.0
C328 C 0.9836 0.30654 0.93575 0.0
C329 C 0.9707 0.31079 0.90503 0.0
C330 C 0.98303 0.28969 0.95593 0.0
C331 C 0.98523 0.24952 0.97716 0.0
H332 H 0.93857 0.22963 0.01327 0.0
C333 C 0.97918 0.17727 0.04557 0.0
C334 C 0.96774 0.17489 0.08005 0.0
C335 C 0.97915 0.19373 0.02376 0.0
C336 C 0.9517 0.2351 0.00364 0.0
H337 H 0.94721 0.30068 0.87089 0.0
H338 H 0.94634 0.27095 0.90599 0.0
H339 H 0.93936 0.25855 0.97514 0.0
H340 H 0.94728 0.18783 0.11882 0.0
H341 H 0.94742 0.21689 0.08089 0.0
H342 H -0.00235 0.2264 0.00639 0.0
C343 C 0.95675 0.28081 0.91474 0.0
C344 C 0.95213 0.25151 0.98135 0.0
C345 C 0.95732 0.29774 0.89447 0.0
C346 C 0.95624 0.18932 0.09236 0.0
C347 C 0.95623 0.20587 0.07049 0.0
C348 C 0.9848 0.23316 -0.0006 0.0
C349 C 0.96957 0.27666 0.94579 0.0
C350 C 0.96892 0.25892 0.96804 0.0
C351 C 0.96773 0.20823 0.03601 0.0
C352 C 0.96805 0.22577 0.01289 0.0
H353 H 0.99402 0.31636 0.94468 0.0
H354 H 0.99293 0.28701 0.98011 0.0
H355 H -0.00163 0.25478 0.96698 0.0
H356 H 0.98811 0.16634 0.03515 0.0
H357 H 0.98794 0.195 -0.00304 0.0
C358 C 0.29331 0.93974 0.60472 0.0
C359 C 0.30065 0.95645 0.61859 0.0
C360 C 0.27712 0.93947 0.58173 0.0
C361 C 0.23673 0.96678 0.55194 0.0
H362 H 0.24085 0.94103 0.44751 0.0
C363 C 0.187 0.98125 0.4197 0.0
C364 C 0.18015 0.96621 0.39753 0.0
C365 C 0.20162 0.97906 0.44693 0.0
C366 C 0.23936 0.94807 0.47675 0.0
H367 H 0.29627 0.98582 0.62182 0.0
H368 H 0.26789 0.98534 0.58204 0.0
H369 H 0.26526 0.9383 0.49864 0.0
H370 H 0.18361 0.93722 0.38505 0.0
H371 H 0.20913 0.93329 0.43317 0.0
H372 H 0.21091 0.97665 0.53015 0.0
C373 C 0.27465 0.97246 0.58879 0.0
C374 C 0.25331 0.94647 0.50606 0.0
C375 C 0.29091 0.97275 0.61146 0.0
C376 C 0.18871 0.94907 0.40164 0.0
C377 C 0.2033 0.94683 0.4292 0.0
C378 C 0.22274 0.9683 0.52278 0.0
C379 C 0.26792 0.95589 0.57263 0.0
C380 C 0.25225 0.95605 0.54365 0.0
C381 C 0.2096 0.96173 0.45287 0.0
C382 C 0.22406 0.95924 0.48455 0.0
H383 H 0.30054 0.92696 0.60981 0.0
H384 H 0.27207 0.9265 0.57005 0.0
H385 H 0.23548 0.97413 0.58088 0.0
H386 H 0.18073 -0.00534 0.41687 0.0
H387 H 0.20648 0.99091 0.46385 0.0
C388 C 0.51166 0.17715 0.94112 0.0
C389 C 0.52364 0.17882 0.90736 0.0
C390 C 0.50968 0.19153 0.96916 0.0
C391 C 0.50041 0.22802 0.00926 0.0
H392 H 0.54352 0.25562 0.04184 0.0
C393 C 0.49692 0.29962 0.08232 0.0
C394 C 0.51 0.30447 0.11217 0.0
C395 C 0.49784 0.28267 0.06259 0.0
C396 C 0.53139 0.24788 0.03357 0.0
H397 H 0.54271 0.19689 0.87596 0.0
H398 H 0.53902 0.22217 0.92458 0.0
H399 H 0.54682 0.22928 0.9962 0.0
H400 H 0.5338 0.29513 0.14631 0.0
H401 H 0.53535 0.26532 0.11192 0.0
H402 H 0.48499 0.24662 0.04671 0.0
C403 C 0.5314 0.20963 0.92978 0.0
C404 C 0.53324 0.23296 0.00694 0.0
C405 C 0.53339 0.19523 0.90175 0.0
C406 C 0.52358 0.29175 0.12326 0.0
C407 C 0.52452 0.27476 0.10344 0.0
C408 C 0.49855 0.24294 0.0359 0.0
C409 C 0.51963 0.20787 0.96396 0.0
C410 C 0.51775 0.22306 0.99399 0.0
C411 C 0.51187 0.27021 0.07232 0.0
C412 C 0.51399 0.2532 0.04781 0.0
H413 H 0.50403 0.16461 0.94631 0.0
H414 H 0.50063 0.18972 0.99537 0.0
H415 H 0.4882 0.2207 -0.0003 0.0
H416 H 0.48628 0.30916 0.07319 0.0
H417 H 0.48802 0.27967 0.03844 0.0
C418 C 0.29432 0.53442 0.38838 0.0
C419 C 0.31071 0.53148 0.41 0.0
C420 C 0.27761 0.53501 0.40956 0.0
C421 C 0.2568 0.52124 0.50968 0.0
H422 H 0.2172 0.55303 0.47435 0.0
C423 C 0.19023 0.53138 0.60374 0.0
C424 C 0.17411 0.52831 0.58111 0.0
C425 C 0.20708 0.53285 0.58341 0.0
C426 C 0.22818 0.54409 0.48444 0.0
H427 H 0.32272 0.5276 0.47062 0.0
H428 H 0.29384 0.52936 0.50763 0.0
H429 H 0.24643 0.55378 0.43756 0.0
H430 H 0.16277 0.52485 0.51967 0.0
H431 H 0.19216 0.52777 0.48421 0.0
H432 H 0.23857 0.51185 0.55703 0.0
C433 C 0.29364 0.53053 0.47431 0.0
C434 C 0.24486 0.54441 0.46327 0.0
C435 C 0.31023 0.52965 0.45312 0.0
C436 C 0.17502 0.52714 0.53787 0.0
C437 C 0.19178 0.52892 0.51755 0.0
C438 C 0.24023 0.52114 0.53118 0.0
C439 C 0.27707 0.53294 0.4528 0.0
C440 C 0.25936 0.53291 0.47551 0.0
C441 C 0.20796 0.53161 0.54016 0.0
C442 C 0.22576 0.53247 0.51858 0.0
H443 H 0.29435 0.53582 0.35508 0.0
H444 H 0.26511 0.53666 0.39192 0.0
H445 H 0.26747 0.51189 0.51947 0.0
H446 H 0.18987 0.53233 0.63711 0.0
H447 H 0.21941 0.53499 0.60143 0.0
C448 C 0.03397 0.58374 0.02829 0.0
C449 C 0.043 0.59739 0.0511 0.0
C450 C 0.04225 0.57611 0.99343 0.0
C451 C 0.08627 0.57069 0.93814 0.0
H452 H 0.05484 0.56731 0.84185 0.0
C453 C 0.11405 0.5558 0.7737 0.0
C454 C 0.10361 0.5438 0.74924 0.0
C455 C 0.10724 0.56205 0.81157 0.0
C456 C 0.06377 0.56795 0.86854 0.0
H457 H 0.06808 0.61321 0.05652 0.0
H458 H 0.08252 0.59992 0.99544 0.0
H459 H 0.04214 0.57778 0.90712 0.0
H460 H 0.078 0.52875 0.74535 0.0
H461 H 0.06627 0.53943 0.81134 0.0
H462 H 0.10792 0.56085 0.89931 0.0
C463 C 0.06909 0.59504 0.00462 0.0
C464 C 0.05648 0.57393 0.90598 0.0
C465 C 0.0608 0.60269 0.0395 0.0
C466 C 0.08631 0.53811 0.76337 0.0
C467 C 0.07955 0.5443 0.80113 0.0
C468 C 0.09358 0.56465 0.9006 0.0
C469 C 0.05972 0.58199 0.98067 0.0
C470 C 0.06761 0.5753 0.94124 0.0
C471 C 0.08988 0.5564 0.82562 0.0
C472 C 0.08237 0.56315 0.86542 0.0
H473 H 0.02028 0.57931 0.03662 0.0
H474 H 0.03482 0.56583 0.97601 0.0
H475 H 0.09516 0.57151 0.96487 0.0
H476 H 0.12744 0.56039 0.76355 0.0
H477 H 0.11546 0.5715 0.82954 0.0
C478 C 0.94456 0.08549 0.25474 0.0
C479 C 0.94186 0.10393 0.24393 0.0
C480 C 0.9372 0.07846 0.29118 0.0
C481 C 0.9197 0.09224 0.39345 0.0
H482 H 0.90031 0.0427 0.39388 0.0
C483 C 0.88206 0.05938 0.53325 0.0
C484 C 0.88659 0.04108 0.54232 0.0
C485 C 0.88891 0.06783 0.49769 0.0
C486 C 0.90583 0.05649 0.39432 0.0
H487 H 0.92922 0.12951 0.26262 0.0
H488 H 0.91601 0.11712 0.32629 0.0
H489 H 0.91113 0.05607 0.32946 0.0
H490 H 0.90221 0.01746 0.52204 0.0
H491 H 0.91417 0.03221 0.46001 0.0
H492 H 0.91421 0.09259 0.4585 0.0
C493 C 0.92407 0.10816 0.30676 0.0
C494 C 0.91203 0.06416 0.35742 0.0
C495 C 0.93152 0.11523 0.27021 0.0
C496 C 0.89845 0.03155 0.51579 0.0
C497 C 0.9052 0.03996 0.48015 0.0
C498 C 0.91338 0.08457 0.43041 0.0
C499 C 0.92686 0.08969 0.31765 0.0
C500 C 0.91926 0.08204 0.3566 0.0
C501 C 0.9003 0.05809 0.47043 0.0
C502 C 0.90659 0.06654 0.43127 0.0
H503 H 0.95258 0.07646 0.23526 0.0
H504 H 0.93991 0.06427 0.29895 0.0
H505 H 0.92537 0.10597 0.39398 0.0
H506 H 0.87294 0.06705 0.55317 0.0
H507 H 0.88484 0.08179 0.49086 0.0
C508 C 0.42326 0.88287 0.05422 0.0
C509 C 0.44202 0.88627 0.06021 0.0
C510 C 0.41414 0.89022 0.02014 0.0
C511 C 0.41853 0.92502 0.9367 0.0
H512 H 0.38383 0.89348 0.88007 0.0
C513 C 0.39478 0.93784 0.76993 0.0
C514 C 0.37586 0.93672 0.76223 0.0
C515 C 0.40191 0.93232 0.80788 0.0
C516 C 0.39334 0.9025 0.89585 0.0
H517 H 0.46592 0.90024 0.03581 0.0
H518 H 0.45017 0.91265 0.97567 0.0
H519 H 0.39808 0.88303 0.94397 0.0
H520 H 0.34957 0.92874 0.78784 0.0
H521 H 0.36216 0.91873 0.85426 0.0
H522 H 0.41418 0.9442 0.88758 0.0
C523 C 0.44235 0.90466 -0.00232 0.0
C524 C 0.40146 0.89657 0.93254 0.0
C525 C 0.45142 0.89747 0.03202 0.0
C526 C 0.36422 0.92972 0.79298 0.0
C527 C 0.3714 0.92397 0.83086 0.0
C528 C 0.41055 0.93085 0.89979 0.0
C529 C 0.42363 0.90097 0.99108 0.0
C530 C 0.41427 0.9077 0.95325 0.0
C531 C 0.39029 0.92539 0.83873 0.0
C532 C 0.39801 0.91958 0.87888 0.0
H533 H 0.41565 0.87438 0.07569 0.0
H534 H 0.39965 0.88739 0.01649 0.0
H535 H 0.42806 0.9341 0.95222 0.0
H536 H 0.40408 0.94322 0.74681 0.0
H537 H 0.41656 0.93333 0.81301 0.0
C538 C 0.53537 0.39702 0.27054 0.0
C539 C 0.53609 0.37817 0.26196 0.0
C540 C 0.54209 0.40383 0.30784 0.0
C541 C 0.55411 0.38974 0.41423 0.0
H542 H 0.58033 0.43602 0.41477 0.0
C543 C 0.59514 0.41741 0.55441 0.0
C544 C 0.59385 0.43629 0.56248 0.0
C545 C 0.58687 0.40991 0.51932 0.0
C546 C 0.57284 0.42319 0.41518 0.0
H547 H 0.54454 0.35164 0.2854 0.0
H548 H 0.5567 0.36359 0.35031 0.0
H549 H 0.5691 0.42361 0.34977 0.0
H550 H 0.5823 0.46201 0.54122 0.0
H551 H 0.56784 0.44892 0.48005 0.0
H552 H 0.5582 0.38927 0.47978 0.0
C553 C 0.55063 0.37308 0.32854 0.0
C554 C 0.5664 0.41607 0.37793 0.0
C555 C 0.5438 0.36625 0.29125 0.0
C556 C 0.58358 0.44742 0.53571 0.0
C557 C 0.5754 0.43996 0.50057 0.0
C558 C 0.56067 0.39683 0.45152 0.0
C559 C 0.5498 0.39195 0.33731 0.0
C560 C 0.5569 0.3993 0.37699 0.0
C561 C 0.57726 0.4212 0.49159 0.0
C562 C 0.57003 0.41367 0.45235 0.0
H563 H 0.52938 0.40653 0.24867 0.0
H564 H 0.54096 0.41839 0.31384 0.0
H565 H 0.54662 0.37692 0.41468 0.0
H566 H 0.60298 0.4085 0.57453 0.0
H567 H 0.5886 0.39543 0.51306 0.0
C568 C 0.12137 0.94186 0.20032 0.0
C569 C 0.10965 0.94957 0.23002 0.0
C570 C 0.11437 0.93578 0.16248 0.0
C571 C 0.07072 0.9218 0.11332 0.0
H572 H 0.09725 0.92933 0.01087 0.0
C573 C 0.03742 0.90654 0.95713 0.0
C574 C 0.04773 0.89553 0.93021 0.0
C575 C 0.04565 0.91453 0.9916 0.0
C576 C 0.08976 0.92707 0.03931 0.0
H577 H 0.08155 0.95733 0.24322 0.0
H578 H 0.06945 0.94713 0.17726 0.0
H579 H 0.11045 0.94013 0.07593 0.0
H580 H 0.07492 0.88504 0.91693 0.0
H581 H 0.08933 0.8991 0.97728 0.0
H582 H 0.05001 0.90888 0.07684 0.0
C583 C 0.08394 0.94533 0.18332 0.0
C584 C 0.09733 0.93318 0.07655 0.0
C585 C 0.0909 0.95126 0.2211 0.0
C586 C 0.06663 0.89343 0.93724 0.0
C587 C 0.07489 0.90152 0.97166 0.0
C588 C 0.06313 0.91584 0.07619 0.0
C589 C 0.09554 0.93739 0.15365 0.0
C590 C 0.08785 0.93066 0.11397 0.0
C591 C 0.06436 0.91175 -0.00027 0.0
C592 C 0.07252 0.91847 0.0388 0.0
H593 H 0.1359 0.9404 0.20642 0.0
H594 H 0.12364 0.92956 0.14046 0.0
H595 H 0.06323 0.91926 0.14162 0.0
H596 H 0.02285 0.90848 0.95238 0.0
H597 H 0.03727 0.9226 0.0124 0.0
C598 C 0.57226 0.12241 0.70838 0.0
C599 C 0.55769 0.13441 0.71671 0.0
C600 C 0.57669 0.1179 0.66782 0.0
C601 C 0.56899 0.0987 0.58743 0.0
H602 H 0.57776 0.13057 0.49356 0.0
C603 C 0.57919 0.06749 0.42891 0.0
C604 C 0.59579 0.07272 0.41038 0.0
C605 C 0.57172 0.07799 0.46074 0.0
C606 C 0.5752 0.12156 0.51953 0.0
H607 H 0.53732 0.15232 0.68926 0.0
H608 H 0.54523 0.14442 0.61785 0.0
H609 H 0.57207 0.14398 0.56206 0.0
H610 H 0.61671 0.09384 0.40784 0.0
H611 H 0.60378 0.11206 0.46387 0.0
H612 H 0.5724 0.0763 0.54589 0.0
C613 C 0.55311 0.1385 0.64287 0.0
C614 C 0.57193 0.12921 0.55852 0.0
C615 C 0.5486 0.14299 0.68365 0.0
C616 C 0.60395 0.08943 0.42178 0.0
C617 C 0.59649 0.09992 0.45371 0.0
C618 C 0.57203 0.0911 0.54866 0.0
C619 C 0.56668 0.12535 0.63481 0.0
C620 C 0.56919 0.11778 0.59289 0.0
C621 C 0.58075 0.09386 0.47468 0.0
C622 C 0.57542 0.1024 0.51438 0.0
H623 H 0.57963 0.11573 0.73322 0.0
H624 H 0.58744 0.10795 0.66228 0.0
H625 H 0.56663 0.0896 0.61336 0.0
H626 H 0.57248 0.05479 0.42041 0.0
H627 H 0.55938 0.07318 0.47593 0.0
C628 C 0.39944 0.54477 0.22957 0.0
C629 C 0.38192 0.55015 0.24281 0.0
C630 C 0.40656 0.55122 0.19236 0.0
C631 C 0.3933 0.57136 0.09224 0.0
H632 H 0.44497 0.58378 0.08726 0.0
C633 C 0.42851 0.60627 0.95154 0.0
C634 C 0.44606 0.59983 0.94099 0.0
C635 C 0.41966 0.59976 0.98694 0.0
C636 C 0.43056 0.58017 0.08804 0.0
H637 H 0.35808 0.56653 0.22755 0.0
H638 H 0.37068 0.5781 0.16245 0.0
H639 H 0.43153 0.57428 0.1526 0.0
H640 H 0.46775 0.58098 0.95808 0.0
H641 H 0.45228 0.56957 0.0197 0.0
H642 H 0.39242 0.57747 0.02747 0.0
C643 C 0.3788 0.56869 0.18073 0.0
C644 C 0.42285 0.57474 0.12549 0.0
C645 C 0.37164 0.56217 0.21808 0.0
C646 C 0.45427 0.58625 0.96552 0.0
C647 C 0.44547 0.57981 0.00095 0.0
C648 C 0.40102 0.5769 0.05469 0.0
C649 C 0.39637 0.56329 0.16751 0.0
C650 C 0.40418 0.57005 0.12797 0.0
C651 C 0.42825 0.58678 0.0125 0.0
C652 C 0.41979 0.58115 0.05217 0.0
H653 H 0.40766 0.53541 0.24779 0.0
H654 H 0.41998 0.54651 0.18278 0.0
H655 H 0.37892 0.56766 0.09303 0.0
H656 H 0.42186 0.61675 0.93318 0.0
H657 H 0.40643 0.60542 0.99517 0.0
C658 C 0.94757 0.40224 0.73899 0.0
C659 C 0.94622 0.38346 0.74814 0.0
C660 C 0.94126 0.40903 0.70131 0.0
C661 C 0.91003 0.39904 0.61535 0.0
H662 H 0.94003 0.4344 0.55654 0.0
C663 C 0.88943 0.42622 0.45486 0.0
C664 C 0.89132 0.44519 0.44872 0.0
C665 C 0.89726 0.41779 0.48935 0.0
C666 C 0.93143 0.42465 0.57273 0.0
H667 H 0.93697 0.35708 0.72536 0.0
H668 H 0.92582 0.36899 0.65936 0.0
H669 H 0.951 0.42145 0.62143 0.0
H670 H 0.90325 0.47017 0.47318 0.0
H671 H 0.9167 0.45553 0.53365 0.0
H672 H 0.89031 0.40246 0.56711 0.0
C673 C 0.93173 0.37845 0.68146 0.0
C674 C 0.93771 0.41724 0.60988 0.0
C675 C 0.93814 0.37163 0.71915 0.0
C676 C 0.90162 0.4555 0.47705 0.0
C677 C 0.9094 0.44709 0.51161 0.0
C678 C 0.90371 0.4065 0.57826 0.0
C679 C 0.93339 0.3972 0.67202 0.0
C680 C 0.927 0.40448 0.63176 0.0
C681 C 0.90709 0.42818 0.51847 0.0
C682 C 0.91427 0.41951 0.55669 0.0
H683 H 0.95372 0.41171 0.76075 0.0
H684 H 0.94246 0.42359 0.69518 0.0
H685 H 0.9014 0.38938 0.63175 0.0
H686 H 0.88163 0.41791 0.43341 0.0
H687 H 0.89549 0.40315 0.49337 0.0
C688 C 0.95358 0.40265 0.97693 0.0
C689 C 0.94406 0.38994 0.95244 0.0
C690 C 0.94546 0.40993 0.01237 0.0
C691 C 0.90105 0.41731 0.06426 0.0
H692 H 0.93097 0.41938 0.16312 0.0
C693 C 0.87129 0.43569 0.22494 0.0
C694 C 0.88199 0.44739 0.24959 0.0
C695 C 0.87844 0.42839 0.18838 0.0
C696 C 0.92247 0.41908 0.1357 0.0
H697 H 0.91842 0.3752 0.94513 0.0
H698 H 0.90423 0.38791 0.00712 0.0
H699 H 0.94415 0.40787 0.09913 0.0
H700 H 0.90847 0.4607 0.25527 0.0
H701 H 0.92082 0.4482 0.1915 0.0
H702 H 0.87939 0.42864 0.10089 0.0
C703 C 0.91793 0.39232 -0.00119 0.0
C704 C 0.93004 0.4125 0.09903 0.0
C705 C 0.92608 0.385 0.96343 0.0
C706 C 0.89992 0.45163 0.23705 0.0
C707 C 0.90704 0.44438 0.20059 0.0
C708 C 0.89348 0.42396 0.10099 0.0
C709 C 0.92763 0.40467 0.02397 0.0
C710 C 0.91945 0.41163 0.06285 0.0
C711 C 0.89641 0.43266 0.17583 0.0
C712 C 0.90415 0.42502 0.13707 0.0
H713 H 0.96743 0.40675 0.96914 0.0
H714 H 0.95317 0.41963 0.03081 0.0
H715 H 0.89259 0.41694 0.03677 0.0
H716 H 0.85741 0.43219 0.23389 0.0
H717 H 0.86996 0.41925 0.17019 0.0
C718 C 0.0375 0.8986 0.71615 0.0
C719 C 0.04277 0.8814 0.7316 0.0
C720 C 0.04397 0.90471 0.67803 0.0
C721 C 0.08141 0.89822 0.60361 0.0
H722 H 0.04879 0.92445 0.52972 0.0
C723 C 0.10524 0.92385 0.44404 0.0
C724 C 0.10045 0.94199 0.43417 0.0
C725 C 0.09725 0.91505 0.47785 0.0
C726 C 0.05808 0.91724 0.55014 0.0
H727 H 0.05891 0.85706 0.71932 0.0
H728 H 0.07022 0.86773 0.65239 0.0
H729 H 0.03681 0.91157 0.59382 0.0
H730 H 0.0832 0.96498 0.45115 0.0
H731 H 0.06931 0.94966 0.5104 0.0
H732 H 0.10273 0.90411 0.56021 0.0
C733 C 0.06119 0.87654 0.66999 0.0
C734 C 0.05123 0.90988 0.58684 0.0
C735 C 0.05468 0.87041 0.70821 0.0
C736 C 0.08715 0.95099 0.45803 0.0
C737 C 0.07913 0.94218 0.49182 0.0
C738 C 0.08826 0.90558 0.56688 0.0
C739 C 0.05586 0.89375 0.65447 0.0
C740 C 0.06288 0.9005 0.61424 0.0
C741 C 0.08428 0.9242 0.50242 0.0
C742 C 0.07671 0.91536 0.54 0.0
H743 H 0.02835 0.9074 0.73352 0.0
H744 H 0.03986 0.91816 0.66728 0.0
H745 H 0.09078 0.89126 0.62429 0.0
H746 H 0.11542 0.91655 0.42608 0.0
H747 H 0.10131 0.90112 0.48492 0.0
C748 C 0.6041 0.04572 0.20057 0.0
C749 C 0.61927 0.05217 0.22294 0.0
C750 C 0.60124 0.05134 0.15999 0.0
C751 C 0.61006 0.08931 0.09019 0.0
H752 H 0.59148 0.05538 0.00795 0.0
C753 C 0.58382 0.11421 0.93176 0.0
C754 C 0.56661 0.10707 0.92067 0.0
C755 C 0.59378 0.10639 0.96415 0.0
C756 C 0.59666 0.06502 0.03057 0.0
H757 H 0.6435 0.06937 0.22037 0.0
H758 H 0.63832 0.07945 0.14907 0.0
H759 H 0.60276 0.04368 0.0738 0.0
H760 H 0.5466 0.08585 0.93371 0.0
H761 H 0.56382 0.07235 0.99037 0.0
H762 H 0.60325 0.11071 0.04772 0.0
C763 C 0.6287 0.07 0.16313 0.0
C764 C 0.60313 0.05832 0.06819 0.0
C765 C 0.63167 0.06423 0.20379 0.0
C766 C 0.55982 0.09164 0.94159 0.0
C767 C 0.56977 0.08382 0.97386 0.0
C768 C 0.60353 0.09602 0.05256 0.0
C769 C 0.61342 0.06363 0.14091 0.0
C770 C 0.60938 0.07044 0.09883 0.0
C771 C 0.58673 0.09127 0.9859 0.0
C772 C 0.59625 0.08398 0.02287 0.0
H773 H 0.59433 0.03638 0.2145 0.0
H774 H 0.58917 0.04643 0.14389 0.0
H775 H 0.61466 0.09897 0.11337 0.0
H776 H 0.58941 0.12607 0.91601 0.0
H777 H 0.60689 0.11232 0.9725 0.0
C778 C 0.40391 0.54398 0.46702 0.0
C779 C 0.39195 0.55407 0.44179 0.0
C780 C 0.41228 0.5522 0.50108 0.0
C781 C 0.40614 0.59037 0.57394 0.0
H782 H 0.45588 0.57816 0.60598 0.0
C783 C 0.4423 0.62226 0.71651 0.0
C784 C 0.45219 0.60994 0.74132 0.0
C785 C 0.43532 0.61664 0.67831 0.0
C786 C 0.44193 0.58161 0.59755 0.0
H787 H 0.37979 0.58082 0.43159 0.0
H788 H 0.3946 0.59526 0.49089 0.0
H789 H 0.44359 0.56646 0.54112 0.0
H790 H 0.46235 0.58206 0.74593 0.0
H791 H 0.45009 0.57225 0.67963 0.0
H792 H 0.40445 0.60537 0.63067 0.0
C793 C 0.39729 0.58092 0.48468 0.0
C794 C 0.4349 0.57491 0.56041 0.0
C795 C 0.38891 0.57269 0.45058 0.0
C796 C 0.45482 0.59189 0.72745 0.0
C797 C 0.44792 0.5863 0.68932 0.0
C798 C 0.4132 0.5971 0.61108 0.0
C799 C 0.40888 0.5707 0.51062 0.0
C800 C 0.41683 0.57899 0.54846 0.0
C801 C 0.4382 0.59863 0.6642 0.0
C802 C 0.43107 0.59256 0.62356 0.0
H803 H 0.40647 0.52959 0.46108 0.0
H804 H 0.42095 0.54387 0.52071 0.0
H805 H 0.39209 0.59357 0.5659 0.0
H806 H 0.44011 0.63627 0.72642 0.0
H807 H 0.42796 0.62646 0.65951 0.0
C808 C 0.89993 0.03487 0.75518 0.0
C809 C 0.88154 0.03786 0.74419 0.0
C810 C 0.90684 0.04176 0.79225 0.0
C811 C 0.89881 0.07679 0.87175 0.0
H812 H 0.9299 0.04563 0.93898 0.0
C813 C 0.92343 0.0991 0.03306 0.0
C814 C 0.94191 0.09571 0.04247 0.0
C815 C 0.9154 0.0913 -0.00193 0.0
C816 C 0.92138 0.05456 0.92038 0.0
H817 H 0.85601 0.05055 0.76306 0.0
H818 H 0.86812 0.06262 0.82796 0.0
H819 H 0.91728 0.03385 0.87449 0.0
H820 H 0.96641 0.08123 0.02323 0.0
H821 H 0.95249 0.06778 0.96185 0.0
H822 H 0.90308 0.09758 0.9173 0.0
C823 C 0.8772 0.05504 0.80777 0.0
C824 C 0.91415 0.04781 0.88346 0.0
C825 C 0.87025 0.04808 0.77072 0.0
C826 C 0.95211 0.08404 0.01679 0.0
C827 C 0.94411 0.07627 0.98174 0.0
C828 C 0.90608 0.08356 0.90861 0.0
C829 C 0.89553 0.05183 0.81904 0.0
C830 C 0.90287 0.05888 0.85866 0.0
C831 C 0.92572 0.07998 0.97172 0.0
C832 C 0.91751 0.07254 0.93326 0.0
H833 H 0.90897 0.02707 0.73531 0.0
H834 H 0.9211 0.0393 0.79981 0.0
H835 H 0.89034 0.08572 0.85303 0.0
H836 H 0.91521 0.10799 0.05241 0.0
H837 H 0.90113 0.09419 0.99159 0.0
C838 C 0.37859 0.91294 0.54742 0.0
C839 C 0.37517 0.93189 0.54732 0.0
C840 C 0.38444 0.90412 0.51144 0.0
C841 C 0.38648 0.91008 0.39786 0.0
H842 H 0.42609 0.87474 0.40416 0.0
C843 C 0.43217 0.8919 0.25994 0.0
C844 C 0.43723 0.87351 0.25411 0.0
C845 C 0.42234 0.89713 0.2949 0.0
C846 C 0.41481 0.88435 0.40199 0.0
H847 H 0.37526 0.95651 0.50975 0.0
H848 H 0.3858 0.94125 0.44733 0.0
H849 H 0.41341 0.88761 0.46757 0.0
H850 H 0.43571 0.84608 0.27974 0.0
H851 H 0.41859 0.85533 0.34145 0.0
H852 H 0.38833 0.90727 0.33221 0.0
C853 C 0.38363 0.93308 0.47485 0.0
C854 C 0.40754 0.89173 0.43828 0.0
C855 C 0.37774 0.94187 0.51071 0.0
C856 C 0.43197 0.86036 0.28352 0.0
C857 C 0.42227 0.86564 0.31883 0.0
C858 C 0.3938 0.90279 0.36163 0.0
C859 C 0.38699 0.9141 0.47473 0.0
C860 C 0.39355 0.90496 0.43656 0.0
C861 C 0.41748 0.88411 0.32493 0.0
C862 C 0.40828 0.89013 0.36332 0.0
H863 H 0.37664 0.9049 0.57521 0.0
H864 H 0.38677 0.88945 0.51227 0.0
H865 H 0.37542 0.91994 0.39552 0.0
H866 H 0.43602 0.90233 0.23774 0.0
H867 H 0.41904 0.91149 0.29903 0.0
C868 C 0.55865 0.37504 0.04616 0.0
C869 C 0.54151 0.38214 0.05775 0.0
C870 C 0.56793 0.38211 0.01189 0.0
C871 C 0.5699 0.42242 0.94262 0.0
H872 H 0.5917 0.38832 0.86496 0.0
C873 C 0.58966 0.44384 0.77803 0.0
C874 C 0.6063 0.43738 0.76181 0.0
C875 C 0.58302 0.43716 0.81551 0.0
C876 C 0.58591 0.39803 0.88663 0.0
H877 H 0.52072 0.40234 0.04298 0.0
H878 H 0.53682 0.41459 0.98303 0.0
H879 H 0.5779 0.37677 0.92853 0.0
H880 H 0.62902 0.41878 0.77194 0.0
H881 H 0.61738 0.40703 0.83777 0.0
H882 H 0.57766 0.44365 0.90048 0.0
C883 C 0.54322 0.40371 0.00064 0.0
C884 C 0.57801 0.39143 0.92306 0.0
C885 C 0.53394 0.39663 0.03485 0.0
C886 C 0.61613 0.42397 0.78369 0.0
C887 C 0.60944 0.41722 0.82126 0.0
C888 C 0.57777 0.42901 0.90623 0.0
C889 C 0.56026 0.39645 0.98859 0.0
C890 C 0.5697 0.40354 0.9512 0.0
C891 C 0.59286 0.42384 0.83767 0.0
C892 C 0.58563 0.41687 0.87755 0.0
H893 H 0.56484 0.36389 0.06331 0.0
H894 H 0.58113 0.37637 0.0037 0.0
H895 H 0.56393 0.43214 0.96403 0.0
H896 H 0.58174 0.45415 0.76184 0.0
H897 H 0.57005 0.44231 0.82695 0.0
C898 C 0.08079 0.54103 0.5238 0.0
C899 C 0.09258 0.55072 0.55023 0.0
C900 C 0.07261 0.54982 0.49022 0.0
C901 C 0.07968 0.58888 0.42052 0.0
H902 H 0.0303 0.57731 0.38459 0.0
C903 C 0.04625 0.62204 0.27629 0.0
C904 C 0.03658 0.61 0.25034 0.0
C905 C 0.05243 0.61614 0.31496 0.0
C906 C 0.04416 0.58059 0.39413 0.0
H907 H 0.10456 0.57733 0.56323 0.0
H908 H 0.09011 0.59273 0.50471 0.0
H909 H 0.04166 0.56486 0.44964 0.0
H910 H 0.02594 0.58235 0.24424 0.0
H911 H 0.03686 0.57203 0.31135 0.0
H912 H 0.08226 0.60439 0.36466 0.0
C913 C 0.0874 0.57829 0.50963 0.0
C914 C 0.05065 0.57348 0.43137 0.0
C915 C 0.09557 0.5695 0.54326 0.0
C916 C 0.03333 0.59196 0.2636 0.0
C917 C 0.03944 0.58609 0.30219 0.0
C918 C 0.07318 0.59602 0.38326 0.0
C919 C 0.07606 0.56847 0.48237 0.0
C920 C 0.06858 0.57731 0.44468 0.0
C921 C 0.04898 0.59812 0.3284 0.0
C922 C 0.05545 0.5917 0.36935 0.0
H923 H 0.07826 0.52653 0.52837 0.0
H924 H 0.06411 0.5418 0.46956 0.0
H925 H 0.09365 0.5919 0.42964 0.0
H926 H 0.0489 0.63605 0.26688 0.0
H927 H 0.05965 0.62575 0.3346 0.0
C928 C 0.85765 0.53 0.27725 0.0
C929 C 0.8651 0.52542 0.3159 0.0
C930 C 0.86296 0.54615 0.25733 0.0
C931 C 0.88811 0.59 0.26861 0.0
H932 H 0.91132 0.57557 0.16603 0.0
C933 C 0.95401 0.62312 0.21017 0.0
C934 C 0.95911 0.62127 0.16862 0.0
C935 C 0.93717 0.61636 0.2239 0.0
C936 C 0.90453 0.58023 0.19382 0.0
H937 H 0.88255 0.53484 0.36575 0.0
H938 H 0.89174 0.5631 0.33109 0.0
H939 H 0.89022 0.5548 0.19954 0.0
H940 H 0.94998 0.61277 0.10796 0.0
H941 H 0.92014 0.60181 0.13139 0.0
H942 H 0.90278 0.61531 0.26339 0.0
C943 C 0.88184 0.55423 0.31613 0.0
C944 C 0.89241 0.5682 0.21316 0.0
C945 C 0.8767 0.53799 0.33584 0.0
C946 C 0.94645 0.61408 0.14032 0.0
C947 C 0.92941 0.60769 0.15387 0.0
C948 C 0.90002 0.60223 0.24886 0.0
C949 C 0.87562 0.55808 0.27599 0.0
C950 C 0.8847 0.57263 0.25157 0.0
C951 C 0.92492 0.60791 0.19617 0.0
C952 C 0.90906 0.59713 0.21216 0.0
H953 H 0.84861 0.5206 0.26124 0.0
H954 H 0.85791 0.54887 0.22647 0.0
H955 H 0.88217 0.5938 0.29805 0.0
H956 H 0.96354 0.62862 0.23265 0.0
H957 H 0.93442 0.61666 0.25673 0.0
C958 C 0.86755 0.9544 0.7147 0.0
C959 C 0.86816 0.95887 0.67261 0.0
C960 C 0.87413 0.93751 0.72846 0.0
C961 C 0.90793 0.90319 0.69494 0.0
H962 H 0.89693 0.88279 0.80274 0.0
C963 C 0.95993 0.85737 0.77435 0.0
C964 C 0.96571 0.86557 0.81138 0.0
C965 C 0.94316 0.86223 0.75669 0.0
C966 C 0.89998 0.88816 0.7723 0.0
H967 H 0.87429 0.94867 0.61137 0.0
H968 H 0.88497 0.91878 0.63503 0.0
H969 H 0.87504 0.90352 0.76987 0.0
H970 H 0.95779 0.88382 0.86109 0.0
H971 H 0.92849 0.89227 0.83032 0.0
H972 H 0.93304 0.88827 0.69787 0.0
C973 C 0.88019 0.92855 0.65776 0.0
C974 C 0.88755 0.90014 0.75357 0.0
C975 C 0.87398 0.94562 0.64411 0.0
C976 C 0.95373 0.8774 0.83234 0.0
C977 C 0.93688 0.88212 0.81489 0.0
C978 C 0.92016 0.89101 0.71332 0.0
C979 C 0.88116 0.92459 0.70028 0.0
C980 C 0.8918 0.90853 0.71556 0.0
C981 C 0.93182 0.87521 0.77602 0.0
C982 C 0.91671 0.88404 0.75296 0.0
H983 H 0.86309 0.96439 0.73733 0.0
H984 H 0.87481 0.93517 0.76143 0.0
H985 H 0.91192 0.90945 0.666 0.0
H986 H 0.96886 0.8481 0.75766 0.0
H987 H 0.9395 0.85663 0.72682 0.0
C988 C 0.53311 0.88473 0.18692 0.0
C989 C 0.52025 0.87389 0.20798 0.0
C990 C 0.54792 0.8924 0.20808 0.0
C991 C 0.58153 0.90195 0.2617 0.0
H992 H 0.56233 0.93535 0.34411 0.0
C993 C 0.60216 0.97032 0.36576 0.0
C994 C 0.61243 0.97929 0.33519 0.0
C995 C 0.59478 0.95294 0.35821 0.0
C996 C 0.56822 0.92579 0.32226 0.0
H997 H 0.51317 0.86177 0.26706 0.0
H998 H 0.53879 0.87577 0.30438 0.0
H999 H 0.5426 0.91183 0.31544 0.0
H1000 H 0.62387 0.97688 0.27368 0.0
H1001 H 0.6103 0.94723 0.25956 0.0
H1002 H 0.60713 0.91595 0.26808 0.0
C1003 C 0.53753 0.87806 0.27144 0.0
C1004 C 0.5568 0.91233 0.30568 0.0
C1005 C 0.52292 0.87008 0.2501 0.0
C1006 C 0.616 0.97025 0.29783 0.0
C1007 C 0.60832 0.9531 0.28993 0.0
C1008 C 0.59311 0.91517 0.27894 0.0
C1009 C 0.54989 0.8896 0.25076 0.0
C1010 C 0.56315 0.90081 0.27413 0.0
C1011 C 0.59716 0.94441 0.31955 0.0
C1012 C 0.58635 0.92783 0.30808 0.0
H1013 H 0.53138 0.8878 0.15442 0.0
H1014 H 0.55718 0.90142 0.1916 0.0
H1015 H 0.58674 0.89307 0.2376 0.0
H1016 H 0.59943 0.97692 0.39508 0.0
H1017 H 0.58668 0.94651 0.3822 0.0
C1018 C 0.6317 0.52068 0.72572 0.0
C1019 C 0.62433 0.51548 0.68738 0.0
C1020 C 0.62674 0.53737 0.74367 0.0
C1021 C 0.60248 0.5814 0.72718 0.0
H1022 H 0.57826 0.56914 0.83006 0.0
C1023 C 0.53679 0.6167 0.7801 0.0
C1024 C 0.53145 0.6158 0.82165 0.0
C1025 C 0.55351 0.60925 0.76753 0.0
C1026 C 0.58534 0.5732 0.80214 0.0
H1027 H 0.60751 0.52431 0.63592 0.0
H1028 H 0.59891 0.55348 0.66717 0.0
H1029 H 0.59933 0.54753 0.79944 0.0
H1030 H 0.54001 0.60821 0.88334 0.0
H1031 H 0.56965 0.59605 0.86188 0.0
H1032 H 0.58812 0.60694 0.72938 0.0
C1033 C 0.60848 0.5447 0.6834 0.0
C1034 C 0.59744 0.56069 0.78447 0.0
C1035 C 0.61328 0.52793 0.66565 0.0
C1036 C 0.54372 0.60877 0.85097 0.0
C1037 C 0.56065 0.60171 0.83856 0.0
C1038 C 0.59058 0.59411 0.74525 0.0
C1039 C 0.61451 0.54919 0.72334 0.0
C1040 C 0.60552 0.56432 0.74601 0.0
C1041 C 0.5654 0.60108 0.79642 0.0
C1042 C 0.58119 0.5898 0.78202 0.0
H1043 H 0.64035 0.51138 0.74305 0.0
H1044 H 0.63165 0.54059 0.77439 0.0
H1045 H 0.6087 0.58458 0.69765 0.0
H1046 H 0.52756 0.62207 0.75687 0.0
H1047 H 0.55646 0.60888 0.73479 0.0
C1048 C 0.12738 0.46187 0.70801 0.0
C1049 C 0.11951 0.46767 0.67063 0.0
C1050 C 0.12176 0.44546 0.72635 0.0
C1051 C 0.09423 0.40317 0.71238 0.0
H1052 H 0.07372 0.41641 0.81865 0.0
C1053 C 0.0282 0.3714 0.77461 0.0
C1054 C 0.02427 0.37217 0.81697 0.0
C1055 C 0.04483 0.3781 0.75954 0.0
C1056 C 0.07973 0.41207 0.78971 0.0
H1057 H 0.10103 0.4601 0.62107 0.0
H1058 H 0.09126 0.43142 0.65301 0.0
H1059 H 0.09524 0.43683 0.78538 0.0
H1060 H 0.03518 0.37884 0.8773 0.0
H1061 H 0.06463 0.38973 0.85136 0.0
H1062 H 0.07833 0.37856 0.71628 0.0
C1063 C 0.10173 0.43952 0.6682 0.0
C1064 C 0.0921 0.42389 0.77053 0.0
C1065 C 0.10722 0.45601 0.65005 0.0
C1066 C 0.0378 0.37838 0.84438 0.0
C1067 C 0.05462 0.38471 0.82943 0.0
C1068 C 0.08204 0.39115 0.73192 0.0
C1069 C 0.10833 0.43452 0.70738 0.0
C1070 C 0.09888 0.41992 0.73098 0.0
C1071 C 0.05805 0.38541 0.78665 0.0
C1072 C 0.074 0.39585 0.77002 0.0
H1073 H 0.13698 0.47054 0.72444 0.0
H1074 H 0.12715 0.44183 0.75643 0.0
H1075 H 0.09942 0.39973 0.68202 0.0
H1076 H 0.01798 0.36666 0.75279 0.0
H1077 H 0.04676 0.37857 0.72642 0.0
C1078 C 0.02522 0.12535 0.22122 0.0
C1079 C 0.02072 0.11861 0.18186 0.0
C1080 C 0.04161 0.12015 0.2402 0.0
C1081 C 0.06528 0.09099 0.28077 0.0
H1082 H 0.11194 0.08282 0.22646 0.0
C1083 C 0.12108 0.03062 0.27386 0.0
C1084 C 0.12022 0.02489 0.31516 0.0
C1085 C 0.11386 0.04756 0.26222 0.0
C1086 C 0.09901 0.085 0.24213 0.0
H1087 H 0.03041 0.1025 0.13004 0.0
H1088 H 0.05904 0.09348 0.16309 0.0
H1089 H 0.08948 0.10344 0.1952 0.0
H1090 H 0.113 0.03302 0.37739 0.0
H1091 H 0.10111 0.06299 0.35746 0.0
H1092 H 0.07383 0.0715 0.3257 0.0
C1093 C 0.04996 0.10276 0.17931 0.0
C1094 C 0.08623 0.09689 0.22433 0.0
C1095 C 0.03349 0.10778 0.16054 0.0
C1096 C 0.11353 0.03702 0.34519 0.0
C1097 C 0.10664 0.05414 0.33369 0.0
C1098 C 0.0779 0.07892 0.29822 0.0
C1099 C 0.05385 0.10834 0.21989 0.0
C1100 C 0.06899 0.09944 0.24275 0.0
C1101 C 0.10591 0.05927 0.2918 0.0
C1102 C 0.09463 0.07517 0.27826 0.0
H1103 H 0.01565 0.13381 0.23827 0.0
H1104 H 0.04435 0.12469 0.27145 0.0
H1105 H 0.05202 0.09252 0.29544 0.0
H1106 H 0.1262 0.02151 0.25008 0.0
H1107 H 0.11341 0.05084 0.22964 0.0
C1108 C 0.37613 0.01853 0.70977 0.0
C1109 C 0.37789 0.01007 0.67102 0.0
C1110 C 0.38744 0.03326 0.72041 0.0
C1111 C 0.4107 0.06756 0.7329 0.0
H1112 H 0.46128 0.05794 0.70302 0.0
C1113 C 0.47202 0.11434 0.77997 0.0
C1114 C 0.48774 0.10502 0.79373 0.0
C1115 C 0.45731 0.1046 0.76294 0.0
C1116 C 0.44723 0.06081 0.71166 0.0
H1117 H 0.39159 0.01136 0.61168 0.0
H1118 H 0.41104 0.03732 0.62989 0.0
H1119 H 0.43712 0.03864 0.6753 0.0
H1120 H 0.50023 0.07827 0.80159 0.0
H1121 H 0.4746 0.06133 0.77227 0.0
H1122 H 0.42111 0.08936 0.77072 0.0
C1123 C 0.40131 0.03228 0.65248 0.0
C1124 C 0.43333 0.04992 0.69529 0.0
C1125 C 0.39011 0.01748 0.64197 0.0
C1126 C 0.48834 0.08583 0.79102 0.0
C1127 C 0.47371 0.07614 0.77398 0.0
C1128 C 0.42467 0.07853 0.7493 0.0
C1129 C 0.40061 0.03985 0.69237 0.0
C1130 C 0.41493 0.05295 0.70621 0.0
C1131 C 0.45816 0.08543 0.75924 0.0
C1132 C 0.4431 0.07498 0.73949 0.0
H1133 H 0.36679 0.0131 0.73274 0.0
H1134 H 0.38662 0.0387 0.75146 0.0
H1135 H 0.39664 0.07033 0.74164 0.0
H1136 H 0.47121 0.12915 0.78171 0.0
H1137 H 0.44551 0.11211 0.75172 0.0
C1138 C 0.45282 0.37096 0.22627 0.0
C1139 C 0.45801 0.371 0.18457 0.0
C1140 C 0.43626 0.37885 0.23846 0.0
C1141 C 0.40481 0.41476 0.20218 0.0
H1142 H 0.38083 0.40409 0.30635 0.0
C1143 C 0.35798 0.46774 0.27661 0.0
C1144 C 0.3648 0.47288 0.3155 0.0
C1145 C 0.3633 0.45115 0.25872 0.0
C1146 C 0.38724 0.40709 0.27693 0.0
H1147 H 0.44934 0.37772 0.12241 0.0
H1148 H 0.42003 0.39085 0.14339 0.0
H1149 H 0.40143 0.38143 0.27576 0.0
H1150 H 0.38113 0.46408 0.36777 0.0
H1151 H 0.39035 0.43507 0.33666 0.0
H1152 H 0.39103 0.44057 0.20391 0.0
C1153 C 0.42901 0.38538 0.16697 0.0
C1154 C 0.39913 0.3942 0.25951 0.0
C1155 C 0.44575 0.37778 0.15488 0.0
C1156 C 0.37577 0.4605 0.33763 0.0
C1157 C 0.38093 0.44383 0.31995 0.0
C1158 C 0.39275 0.42748 0.21926 0.0
C1159 C 0.42439 0.3867 0.20908 0.0
C1160 C 0.40871 0.39824 0.22284 0.0
C1161 C 0.37534 0.43935 0.27966 0.0
C1162 C 0.38445 0.4241 0.25761 0.0
H1163 H 0.46202 0.36581 0.24982 0.0
H1164 H 0.43338 0.37977 0.27118 0.0
H1165 H 0.41205 0.41856 0.17427 0.0
H1166 H 0.34942 0.477 0.25893 0.0
H1167 H 0.35873 0.44795 0.22772 0.0
loop_
_geom_bond_atom_site_label_1
_geom_bond_atom_site_label_2
_geom_bond_distance
_geom_bond_site_symmetry_2
_ccdc_geom_bond_type
In0 O1 2.294 . S
In0 O2 2.326 . S
In0 O6 2.273 . S
In0 O7 2.326 . S
In0 O8 2.266 . S
In0 O9 2.326 . S
In0 O11 2.294 . S
In0 O12 2.326 . S
O1 In0 2.294 . S
O1 C10 1.240 . S
O2 In0 2.326 . S
O2 C10 1.252 . S
C3 O6 1.249 1_655 S
C3 O7 1.260 1_655 S
C4 O11 1.240 . S
C4 O12 1.252 . S
C5 O8 1.252 . S
C5 O9 1.260 . S
O6 In0 2.273 . S
O6 C3 1.249 1_455 S
O7 In0 2.326 . S
O7 C3 1.260 1_455 S
O8 In0 2.266 . S
O8 C5 1.252 . S
O9 In0 2.326 . S
O9 C5 1.260 . S
C10 O1 1.240 . S
C10 O2 1.252 . S
O11 In0 2.294 . S
O11 C4 1.240 . S
O12 In0 2.326 . S
O12 C4 1.252 . S
In13 O14 2.294 . S
In13 O15 2.326 . S
In13 O19 2.266 . S
In13 O20 2.326 . S
In13 O21 2.273 . S
In13 O22 2.326 . S
In13 O24 2.294 . S
In13 O25 2.326 . S
O14 In13 2.294 . S
O14 C23 1.240 . S
O15 In13 2.326 . S
O15 C23 1.252 . S
C16 O19 1.252 . S
C16 O20 1.260 . S
C17 O24 1.240 . S
C17 O25 1.252 . S
C18 O21 1.249 1_565 S
C18 O22 1.260 1_565 S
O19 In13 2.266 . S
O19 C16 1.252 . S
O20 In13 2.326 . S
O20 C16 1.260 . S
O21 In13 2.273 . S
O21 C18 1.249 1_545 S
O22 In13 2.326 . S
O22 C18 1.260 1_545 S
C23 O14 1.240 . S
C23 O15 1.252 . S
O24 In13 2.294 . S
O24 C17 1.240 . S
O25 In13 2.326 . S
O25 C17 1.252 . S
In26 O27 2.294 . S
In26 O28 2.326 . S
In26 O32 2.266 . S
In26 O33 2.326 . S
In26 O34 2.266 . S
In26 O35 2.326 . S
In26 O37 2.294 . S
In26 O38 2.326 . S
O27 In26 2.294 . S
O27 C36 1.240 . S
O28 In26 2.326 . S
O28 C36 1.252 . S
C29 O32 1.252 . S
C29 O33 1.260 . S
C30 O37 1.240 . S
C30 O38 1.252 . S
C31 O34 1.252 . S
C31 O35 1.260 . S
O32 In26 2.266 . S
O32 C29 1.252 . S
O33 In26 2.326 . S
O33 C29 1.260 . S
O34 In26 2.266 . S
O34 C31 1.252 . S
O35 In26 2.326 . S
O35 C31 1.260 . S
C36 O27 1.240 . S
C36 O28 1.252 . S
O37 In26 2.294 . S
O37 C30 1.240 . S
O38 In26 2.326 . S
O38 C30 1.252 . S
In39 O40 2.294 . S
In39 O41 2.326 . S
In39 O45 2.266 . S
In39 O46 2.326 . S
In39 O47 2.266 . S
In39 O48 2.326 . S
In39 O50 2.294 . S
In39 O51 2.326 . S
O40 In39 2.294 . S
O40 C49 1.240 . S
O41 In39 2.326 . S
O41 C49 1.252 . S
C42 O45 1.252 . S
C42 O46 1.260 . S
C43 O50 1.240 . S
C43 O51 1.252 . S
C44 O47 1.252 . S
C44 O48 1.260 . S
O45 In39 2.266 . S
O45 C42 1.252 . S
O46 In39 2.326 . S
O46 C42 1.260 . S
O47 In39 2.266 . S
O47 C44 1.252 . S
O48 In39 2.326 . S
O48 C44 1.260 . S
C49 O40 1.240 . S
C49 O41 1.252 . S
O50 In39 2.294 . S
O50 C43 1.240 . S
O51 In39 2.326 . S
O51 C43 1.252 . S
In52 O53 2.294 . S
In52 O54 2.326 . S
In52 O58 2.273 . S
In52 O59 2.326 . S
In52 O60 2.266 . S
In52 O61 2.326 . S
In52 O63 2.294 . S
In52 O64 2.326 . S
O53 In52 2.294 . S
O53 C62 1.240 . S
O54 In52 2.326 . S
O54 C62 1.252 . S
C55 O58 1.249 1_655 S
C55 O59 1.260 1_655 S
C56 O63 1.240 . S
C56 O64 1.252 . S
C57 O60 1.252 . S
C57 O61 1.260 . S
O58 In52 2.273 . S
O58 C55 1.249 1_455 S
O59 In52 2.326 . S
O59 C55 1.260 1_455 S
O60 In52 2.266 . S
O60 C57 1.252 . S
O61 In52 2.326 . S
O61 C57 1.260 . S
C62 O53 1.240 . S
C62 O54 1.252 . S
O63 In52 2.294 . S
O63 C56 1.240 . S
O64 In52 2.326 . S
O64 C56 1.252 . S
In65 O66 2.294 . S
In65 O67 2.326 . S
In65 O71 2.273 . S
In65 O72 2.326 . S
In65 O73 2.266 . S
In65 O74 2.326 . S
In65 O76 2.294 . S
In65 O77 2.326 . S
O66 In65 2.294 . S
O66 C75 1.240 . S
O67 In65 2.326 . S
O67 C75 1.252 . S
C68 O71 1.249 1_565 S
C68 O72 1.260 1_565 S
C69 O76 1.240 . S
C69 O77 1.252 . S
C70 O73 1.252 . S
C70 O74 1.260 . S
O71 In65 2.273 . S
O71 C68 1.249 1_545 S
O72 In65 2.326 . S
O72 C68 1.260 1_545 S
O73 In65 2.266 . S
O73 C70 1.252 . S
O74 In65 2.326 . S
O74 C70 1.260 . S
C75 O66 1.240 . S
C75 O67 1.252 . S
O76 In65 2.294 . S
O76 C69 1.240 . S
O77 In65 2.326 . S
O77 C69 1.252 . S
In78 O79 2.294 . S
In78 O80 2.326 . S
In78 O84 2.266 . S
In78 O85 2.326 . S
In78 O86 2.266 . S
In78 O87 2.326 . S
In78 O89 2.294 . S
In78 O90 2.326 . S
O79 In78 2.294 . S
O79 C88 1.240 . S
O80 In78 2.326 . S
O80 C88 1.252 . S
C81 O84 1.252 . S
C81 O85 1.260 . S
C82 O89 1.240 . S
C82 O90 1.252 . S
C83 O86 1.252 . S
C83 O87 1.260 . S
O84 In78 2.266 . S
O84 C81 1.252 . S
O85 In78 2.326 . S
O85 C81 1.260 . S
O86 In78 2.266 . S
O86 C83 1.252 . S
O87 In78 2.326 . S
O87 C83 1.260 . S
C88 O79 1.240 . S
C88 O80 1.252 . S
O89 In78 2.294 . S
O89 C82 1.240 . S
O90 In78 2.326 . S
O90 C82 1.252 . S
In91 O92 2.294 . S
In91 O93 2.326 . S
In91 O97 2.266 . S
In91 O98 2.326 . S
In91 O99 2.266 . S
In91 O100 2.326 . S
In91 O102 2.294 . S
In91 O103 2.326 . S
O92 In91 2.294 . S
O92 C101 1.240 . S
O93 In91 2.326 . S
O93 C101 1.252 . S
C94 O97 1.252 . S
C94 O98 1.260 . S
C95 O102 1.240 . S
C95 O103 1.252 . S
C96 O99 1.252 . S
C96 O100 1.260 . S
O97 In91 2.266 . S
O97 C94 1.252 . S
O98 In91 2.326 . S
O98 C94 1.260 . S
O99 In91 2.266 . S
O99 C96 1.252 . S
O100 In91 2.326 . S
O100 C96 1.260 . S
C101 O92 1.240 . S
C101 O93 1.252 . S
O102 In91 2.294 . S
O102 C95 1.240 . S
O103 In91 2.326 . S
O103 C95 1.252 . S
In104 O105 2.294 . S
In104 O106 2.326 . S
In104 O110 2.273 . S
In104 O111 2.326 . S
In104 O112 2.266 . S
In104 O113 2.326 . S
In104 O115 2.294 . S
In104 O116 2.326 . S
O105 In104 2.294 . S
O105 C114 1.240 . S
O106 In104 2.326 . S
O106 C114 1.252 . S
C107 O110 1.249 1_455 S
C107 O111 1.260 1_455 S
C108 O115 1.240 . S
C108 O116 1.252 . S
C109 O112 1.252 . S
C109 O113 1.260 . S
O110 In104 2.273 . S
O110 C107 1.249 1_655 S
O111 In104 2.326 . S
O111 C107 1.260 1_655 S
O112 In104 2.266 . S
O112 C109 1.252 . S
O113 In104 2.326 . S
O113 C109 1.260 . S
C114 O105 1.240 . S
C114 O106 1.252 . S
O115 In104 2.294 . S
O115 C108 1.240 . S
O116 In104 2.326 . S
O116 C108 1.252 . S
In117 O118 2.294 . S
In117 O119 2.326 . S
In117 O123 2.266 . S
In117 O124 2.326 . S
In117 O125 2.273 . S
In117 O126 2.326 . S
In117 O128 2.294 . S
In117 O129 2.326 . S
O118 In117 2.294 . S
O118 C127 1.240 . S
O119 In117 2.326 . S
O119 C127 1.252 . S
C120 O123 1.252 . S
C120 O124 1.260 . S
C121 O128 1.240 . S
C121 O129 1.252 . S
C122 O125 1.249 1_545 S
C122 O126 1.260 1_545 S
O123 In117 2.266 . S
O123 C120 1.252 . S
O124 In117 2.326 . S
O124 C120 1.260 . S
O125 In117 2.273 . S
O125 C122 1.249 1_565 S
O126 In117 2.326 . S
O126 C122 1.260 1_565 S
C127 O118 1.240 . S
C127 O119 1.252 . S
O128 In117 2.294 . S
O128 C121 1.240 . S
O129 In117 2.326 . S
O129 C121 1.252 . S
In130 O131 2.294 . S
In130 O132 2.326 . S
In130 O136 2.266 . S
In130 O137 2.326 . S
In130 O138 2.266 . S
In130 O139 2.326 . S
In130 O141 2.294 . S
In130 O142 2.326 . S
O131 In130 2.294 . S
O131 C140 1.240 . S
O132 In130 2.326 . S
O132 C140 1.252 . S
C133 O136 1.252 . S
C133 O137 1.260 . S
C134 O141 1.240 . S
C134 O142 1.252 . S
C135 O138 1.252 . S
C135 O139 1.260 . S
O136 In130 2.266 . S
O136 C133 1.252 . S
O137 In130 2.326 . S
O137 C133 1.260 . S
O138 In130 2.266 . S
O138 C135 1.252 . S
O139 In130 2.326 . S
O139 C135 1.260 . S
C140 O131 1.240 . S
C140 O132 1.252 . S
O141 In130 2.294 . S
O141 C134 1.240 . S
O142 In130 2.326 . S
O142 C134 1.252 . S
In143 O144 2.294 . S
In143 O145 2.326 . S
In143 O149 2.266 . S
In143 O150 2.326 . S
In143 O151 2.266 . S
In143 O152 2.326 . S
In143 O154 2.294 . S
In143 O155 2.326 . S
O144 In143 2.294 . S
O144 C153 1.240 . S
O145 In143 2.326 . S
O145 C153 1.252 . S
C146 O149 1.252 . S
C146 O150 1.260 . S
C147 O154 1.240 . S
C147 O155 1.252 . S
C148 O151 1.252 . S
C148 O152 1.260 . S
O149 In143 2.266 . S
O149 C146 1.252 . S
O150 In143 2.326 . S
O150 C146 1.260 . S
O151 In143 2.266 . S
O151 C148 1.252 . S
O152 In143 2.326 . S
O152 C148 1.260 . S
C153 O144 1.240 . S
C153 O145 1.252 . S
O154 In143 2.294 . S
O154 C147 1.240 . S
O155 In143 2.326 . S
O155 C147 1.252 . S
In156 O157 2.294 . S
In156 O158 2.326 . S
In156 O162 2.273 . S
In156 O163 2.326 . S
In156 O164 2.266 . S
In156 O165 2.326 . S
In156 O167 2.294 . S
In156 O168 2.326 . S
O157 In156 2.294 . S
O157 C166 1.240 . S
O158 In156 2.326 . S
O158 C166 1.252 . S
C159 O162 1.249 1_455 S
C159 O163 1.260 1_455 S
C160 O167 1.240 . S
C160 O168 1.252 . S
C161 O164 1.252 . S
C161 O165 1.260 . S
O162 In156 2.273 . S
O162 C159 1.249 1_655 S
O163 In156 2.326 . S
O163 C159 1.260 1_655 S
O164 In156 2.266 . S
O164 C161 1.252 . S
O165 In156 2.326 . S
O165 C161 1.260 . S
C166 O157 1.240 . S
C166 O158 1.252 . S
O167 In156 2.294 . S
O167 C160 1.240 . S
O168 In156 2.326 . S
O168 C160 1.252 . S
In169 O170 2.294 . S
In169 O171 2.326 . S
In169 O175 2.273 . S
In169 O176 2.326 . S
In169 O177 2.266 . S
In169 O178 2.326 . S
In169 O180 2.294 . S
In169 O181 2.326 . S
O170 In169 2.294 . S
O170 C179 1.240 . S
O171 In169 2.326 . S
O171 C179 1.252 . S
C172 O175 1.249 1_545 S
C172 O176 1.260 1_545 S
C173 O180 1.240 . S
C173 O181 1.252 . S
C174 O177 1.252 . S
C174 O178 1.260 . S
O175 In169 2.273 . S
O175 C172 1.249 1_565 S
O176 In169 2.326 . S
O176 C172 1.260 1_565 S
O177 In169 2.266 . S
O177 C174 1.252 . S
O178 In169 2.326 . S
O178 C174 1.260 . S
C179 O170 1.240 . S
C179 O171 1.252 . S
O180 In169 2.294 . S
O180 C173 1.240 . S
O181 In169 2.326 . S
O181 C173 1.252 . S
In182 O183 2.294 . S
In182 O184 2.326 . S
In182 O188 2.266 . S
In182 O189 2.326 . S
In182 O190 2.266 . S
In182 O191 2.326 . S
In182 O193 2.294 . S
In182 O194 2.326 . S
O183 In182 2.294 . S
O183 C192 1.240 . S
O184 In182 2.326 . S
O184 C192 1.252 . S
C185 O188 1.252 . S
C185 O189 1.260 . S
C186 O193 1.240 . S
C186 O194 1.252 . S
C187 O190 1.252 . S
C187 O191 1.260 . S
O188 In182 2.266 . S
O188 C185 1.252 . S
O189 In182 2.326 . S
O189 C185 1.260 . S
O190 In182 2.266 . S
O190 C187 1.252 . S
O191 In182 2.326 . S
O191 C187 1.260 . S
C192 O183 1.240 . S
C192 O184 1.252 . S
O193 In182 2.294 . S
O193 C186 1.240 . S
O194 In182 2.326 . S
O194 C186 1.252 . S
In195 O196 2.294 . S
In195 O197 2.326 . S
In195 O201 2.266 . S
In195 O202 2.326 . S
In195 O203 2.266 . S
In195 O204 2.326 . S
In195 O206 2.294 . S
In195 O207 2.326 . S
O196 In195 2.294 . S
O196 C205 1.240 . S
O197 In195 2.326 . S
O197 C205 1.252 . S
C198 O201 1.252 . S
C198 O202 1.260 . S
C199 O206 1.240 . S
C199 O207 1.252 . S
C200 O203 1.252 . S
C200 O204 1.260 . S
O201 In195 2.266 . S
O201 C198 1.252 . S
O202 In195 2.326 . S
O202 C198 1.260 . S
O203 In195 2.266 . S
O203 C200 1.252 . S
O204 In195 2.326 . S
O204 C200 1.260 . S
C205 O196 1.240 . S
C205 O197 1.252 . S
O206 In195 2.294 . S
O206 C199 1.240 . S
O207 In195 2.326 . S
O207 C199 1.252 . S
C208 C209 1.349 . S
C208 C210 1.327 . S
C208 H233 0.950 . S
C209 C208 1.349 . S
C209 C225 1.349 . S
C210 C208 1.327 . S
C210 C229 1.429 . S
C210 H234 0.950 . S
C211 C228 1.574 . S
C211 C230 1.368 1_556 S
C211 H235 0.974 . S
H212 C216 0.949 . S
C213 C214 1.349 . S
C213 C215 1.327 . S
C213 H236 0.950 . S
C214 C213 1.349 . S
C214 C226 1.349 . S
C215 C213 1.327 . S
C215 C231 1.429 . S
C215 H237 0.979 . S
C216 H212 0.949 . S
C216 C224 1.574 . S
C216 C232 1.368 1_554 S
H217 C225 0.950 . S
H218 C223 0.979 1_556 S
H219 C224 0.949 . S
H220 C226 0.950 . S
H221 C227 0.950 1_554 S
H222 C228 0.974 . S
C223 H218 0.979 1_554 S
C223 C225 1.327 . S
C223 C229 1.429 . S
C224 C216 1.574 . S
C224 H219 0.949 . S
C224 C230 1.368 . S
C225 C209 1.349 . S
C225 H217 0.950 . S
C225 C223 1.327 . S
C226 C214 1.349 . S
C226 H220 0.950 . S
C226 C227 1.327 . S
C227 H221 0.950 1_556 S
C227 C226 1.327 . S
C227 C231 1.429 . S
C228 C211 1.574 . S
C228 H222 0.974 . S
C228 C232 1.368 . S
C229 C210 1.429 . S
C229 C223 1.429 . S
C229 C230 1.523 . S
C230 C211 1.368 1_554 S
C230 C224 1.368 . S
C230 C229 1.523 . S
C231 C215 1.429 . S
C231 C227 1.429 . S
C231 C232 1.523 . S
C232 C216 1.368 1_556 S
C232 C228 1.368 . S
C232 C231 1.523 . S
H233 C208 0.950 . S
H234 C210 0.950 . S
H235 C211 0.974 . S
H236 C213 0.950 . S
H237 C215 0.979 . S
C238 C239 1.349 . S
C238 C240 1.327 . S
C238 H263 0.950 1_545 S
C239 C238 1.349 . S
C239 C255 1.349 . S
C240 C238 1.327 . S
C240 C259 1.429 . S
C240 H264 0.950 1_545 S
C241 C258 1.574 . S
C241 C260 1.368 . S
C241 H265 0.949 . S
H242 C246 0.949 1_565 S
C243 C244 1.349 . S
C243 C245 1.327 . S
C243 H266 0.950 . S
C244 C243 1.349 . S
C244 C256 1.349 . S
C245 C243 1.327 . S
C245 C261 1.429 . S
C245 H267 0.950 . S
C246 H242 0.949 1_545 S
C246 C254 1.574 . S
C246 C262 1.368 . S
H247 C255 0.950 . S
H248 C253 0.950 . S
H249 C254 0.949 1_565 S
H250 C256 0.950 1_565 S
H251 C257 0.950 1_565 S
H252 C258 0.949 . S
C253 H248 0.950 . S
C253 C255 1.327 . S
C253 C259 1.429 . S
C254 C246 1.574 . S
C254 H249 0.949 1_545 S
C254 C260 1.368 . S
C255 C239 1.349 . S
C255 H247 0.950 . S
C255 C253 1.327 . S
C256 C244 1.349 . S
C256 H250 0.950 1_545 S
C256 C257 1.327 . S
C257 H251 0.950 1_545 S
C257 C256 1.327 . S
C257 C261 1.429 . S
C258 C241 1.574 . S
C258 H252 0.949 . S
C258 C262 1.368 . S
C259 C240 1.429 . S
C259 C253 1.429 . S
C259 C260 1.523 . S
C260 C241 1.368 . S
C260 C254 1.368 . S
C260 C259 1.523 . S
C261 C245 1.429 . S
C261 C257 1.429 . S
C261 C262 1.523 . S
C262 C246 1.368 . S
C262 C258 1.368 . S
C262 C261 1.523 . S
H263 C238 0.950 1_565 S
H264 C240 0.950 1_565 S
H265 C241 0.949 . S
H266 C243 0.950 . S
H267 C245 0.950 . S
C268 C269 1.349 . S
C268 C270 1.327 . S
C268 H293 0.950 . S
C269 C268 1.349 . S
C269 C285 1.349 . S
C270 C268 1.327 . S
C270 C289 1.429 . S
C270 H294 0.950 . S
C271 C288 1.574 . S
C271 C290 1.368 1_556 S
C271 H295 0.949 . S
H272 C276 0.949 . S
C273 C274 1.349 . S
C273 C275 1.327 . S
C273 H296 0.950 . S
C274 C273 1.349 . S
C274 C286 1.349 . S
C275 C273 1.327 . S
C275 C291 1.429 . S
C275 H297 0.950 . S
C276 H272 0.949 . S
C276 C284 1.574 . S
C276 C292 1.368 1_554 S
H277 C285 0.950 . S
H278 C283 0.950 1_556 S
H279 C284 0.949 . S
H280 C286 0.950 . S
H281 C287 0.950 1_554 S
H282 C288 0.949 . S
C283 H278 0.950 1_554 S
C283 C285 1.327 . S
C283 C289 1.429 . S
C284 C276 1.574 . S
C284 H279 0.949 . S
C284 C290 1.368 . S
C285 C269 1.349 . S
C285 H277 0.950 . S
C285 C283 1.327 . S
C286 C274 1.349 . S
C286 H280 0.950 . S
C286 C287 1.327 . S
C287 H281 0.950 1_556 S
C287 C286 1.327 . S
C287 C291 1.429 . S
C288 C271 1.574 . S
C288 H282 0.949 . S
C288 C292 1.368 . S
C289 C270 1.429 . S
C289 C283 1.429 . S
C289 C290 1.523 . S
C290 C271 1.368 1_554 S
C290 C284 1.368 . S
C290 C289 1.523 . S
C291 C275 1.429 . S
C291 C287 1.429 . S
C291 C292 1.523 . S
C292 C276 1.368 1_556 S
C292 C288 1.368 . S
C292 C291 1.523 . S
H293 C268 0.950 . S
H294 C270 0.950 . S
H295 C271 0.949 . S
H296 C273 0.950 . S
H297 C275 0.950 . S
C298 C299 1.349 . S
C298 C300 1.327 . S
C298 H323 0.950 . S
C299 C298 1.349 . S
C299 C315 1.349 . S
C300 C298 1.327 . S
C300 C319 1.429 . S
C300 H324 0.950 . S
C301 C318 1.574 . S
C301 C320 1.368 . S
C301 H325 0.949 . S
H302 C306 0.949 . S
C303 C304 1.349 . S
C303 C305 1.327 . S
C303 H326 0.950 . S
C304 C303 1.349 . S
C304 C316 1.349 . S
C305 C303 1.327 . S
C305 C321 1.429 . S
C305 H327 0.950 . S
C306 H302 0.949 . S
C306 C314 1.574 . S
C306 C322 1.368 . S
H307 C315 0.950 . S
H308 C313 0.950 . S
H309 C314 0.949 . S
H310 C316 0.950 . S
H311 C317 0.950 . S
H312 C318 0.949 . S
C313 H308 0.950 . S
C313 C315 1.327 . S
C313 C319 1.429 . S
C314 C306 1.574 . S
C314 H309 0.949 . S
C314 C320 1.368 . S
C315 C299 1.349 . S
C315 H307 0.950 . S
C315 C313 1.327 . S
C316 C304 1.349 . S
C316 H310 0.950 . S
C316 C317 1.327 . S
C317 H311 0.950 . S
C317 C316 1.327 . S
C317 C321 1.429 . S
C318 C301 1.574 . S
C318 H312 0.949 . S
C318 C322 1.368 . S
C319 C300 1.429 . S
C319 C313 1.429 . S
C319 C320 1.523 . S
C320 C301 1.368 . S
C320 C314 1.368 . S
C320 C319 1.523 . S
C321 C305 1.429 . S
C321 C317 1.429 . S
C321 C322 1.523 . S
C322 C306 1.368 . S
C322 C318 1.368 . S
C322 C321 1.523 . S
H323 C298 0.950 . S
H324 C300 0.950 . S
H325 C301 0.949 . S
H326 C303 0.950 . S
H327 C305 0.950 . S
C328 C329 1.349 . S
C328 C330 1.327 . S
C328 H353 0.950 . S
C329 C328 1.349 . S
C329 C345 1.349 . S
C330 C328 1.327 . S
C330 C349 1.429 . S
C330 H354 0.950 . S
C331 C348 1.574 . S
C331 C350 1.368 . S
C331 H355 0.949 1_655 S
H332 C336 0.949 . S
C333 C334 1.349 . S
C333 C335 1.327 . S
C333 H356 0.950 1_655 S
C334 C333 1.349 . S
C334 C346 1.349 . S
C335 C333 1.327 . S
C335 C351 1.429 . S
C335 H357 0.950 1_655 S
C336 H332 0.949 . S
C336 C344 1.574 . S
C336 C352 1.368 . S
H337 C345 0.950 1_455 S
H338 C343 0.950 1_455 S
H339 C344 0.949 . S
H340 C346 0.950 . S
H341 C347 0.950 . S
H342 C348 0.949 1_455 S
C343 H338 0.950 1_655 S
C343 C345 1.327 . S
C343 C349 1.429 . S
C344 C336 1.574 . S
C344 H339 0.949 . S
C344 C350 1.368 1_554 S
C345 C329 1.349 . S
C345 H337 0.950 1_655 S
C345 C343 1.327 . S
C346 C334 1.349 . S
C346 H340 0.950 . S
C346 C347 1.327 . S
C347 H341 0.950 . S
C347 C346 1.327 . S
C347 C351 1.429 . S
C348 C331 1.574 . S
C348 H342 0.949 1_655 S
C348 C352 1.368 1_556 S
C349 C330 1.429 . S
C349 C343 1.429 . S
C349 C350 1.523 . S
C350 C331 1.368 . S
C350 C344 1.368 1_556 S
C350 C349 1.523 . S
C351 C335 1.429 . S
C351 C347 1.429 . S
C351 C352 1.523 . S
C352 C336 1.368 . S
C352 C348 1.368 1_554 S
C352 C351 1.523 . S
H353 C328 0.950 . S
H354 C330 0.950 . S
H355 C331 0.949 1_455 S
H356 C333 0.950 1_455 S
H357 C335 0.950 1_455 S
C358 C359 1.349 . S
C358 C360 1.327 . S
C358 H383 0.950 . S
C359 C358 1.349 . S
C359 C375 1.349 . S
C360 C358 1.327 . S
C360 C379 1.429 . S
C360 H384 0.950 . S
C361 C378 1.574 . S
C361 C380 1.368 . S
C361 H385 0.949 1_565 S
H362 C366 0.949 . S
C363 C364 1.349 . S
C363 C365 1.327 . S
C363 H386 0.950 1_565 S
C364 C363 1.349 . S
C364 C376 1.349 . S
C365 C363 1.327 . S
C365 C381 1.429 . S
C365 H387 0.950 1_565 S
C366 H362 0.949 . S
C366 C374 1.574 . S
C366 C382 1.368 . S
H367 C375 0.950 1_545 S
H368 C373 0.950 1_545 S
H369 C374 0.949 . S
H370 C376 0.950 . S
H371 C377 0.950 . S
H372 C378 0.949 1_545 S
C373 H368 0.950 1_565 S
C373 C375 1.327 . S
C373 C379 1.429 . S
C374 C366 1.574 . S
C374 H369 0.949 . S
C374 C380 1.368 . S
C375 C359 1.349 . S
C375 H367 0.950 1_565 S
C375 C373 1.327 . S
C376 C364 1.349 . S
C376 H370 0.950 . S
C376 C377 1.327 . S
C377 H371 0.950 . S
C377 C376 1.327 . S
C377 C381 1.429 . S
C378 C361 1.574 . S
C378 H372 0.949 1_565 S
C378 C382 1.368 . S
C379 C360 1.429 . S
C379 C373 1.429 . S
C379 C380 1.523 . S
C380 C361 1.368 . S
C380 C374 1.368 . S
C380 C379 1.523 . S
C381 C365 1.429 . S
C381 C377 1.429 . S
C381 C382 1.523 . S
C382 C366 1.368 . S
C382 C378 1.368 . S
C382 C381 1.523 . S
H383 C358 0.950 . S
H384 C360 0.950 . S
H385 C361 0.949 1_545 S
H386 C363 0.950 1_545 S
H387 C365 0.950 1_545 S
C388 C389 1.349 . S
C388 C390 1.327 . S
C388 H413 0.950 . S
C389 C388 1.349 . S
C389 C405 1.349 . S
C390 C388 1.327 . S
C390 C409 1.429 . S
C390 H414 0.950 1_556 S
C391 C408 1.574 . S
C391 C410 1.368 . S
C391 H415 0.949 . S
H392 C396 0.949 . S
C393 C394 1.349 . S
C393 C395 1.327 . S
C393 H416 0.950 . S
C394 C393 1.349 . S
C394 C406 1.349 . S
C395 C393 1.327 . S
C395 C411 1.429 . S
C395 H417 0.950 1_554 S
C396 H392 0.949 . S
C396 C404 1.574 . S
C396 C412 1.368 . S
H397 C405 0.950 . S
H398 C403 0.950 . S
H399 C404 0.949 . S
H400 C406 0.950 . S
H401 C407 0.950 . S
H402 C408 0.949 . S
C403 H398 0.950 . S
C403 C405 1.327 . S
C403 C409 1.429 . S
C404 C396 1.574 . S
C404 H399 0.949 . S
C404 C410 1.368 1_554 S
C405 C389 1.349 . S
C405 H397 0.950 . S
C405 C403 1.327 . S
C406 C394 1.349 . S
C406 H400 0.950 . S
C406 C407 1.327 . S
C407 H401 0.950 . S
C407 C406 1.327 . S
C407 C411 1.429 . S
C408 C391 1.574 . S
C408 H402 0.949 . S
C408 C412 1.368 1_556 S
C409 C390 1.429 . S
C409 C403 1.429 . S
C409 C410 1.523 . S
C410 C391 1.368 . S
C410 C404 1.368 1_556 S
C410 C409 1.523 . S
C411 C395 1.429 . S
C411 C407 1.429 . S
C411 C412 1.523 . S
C412 C396 1.368 . S
C412 C408 1.368 1_554 S
C412 C411 1.523 . S
H413 C388 0.950 . S
H414 C390 0.950 1_554 S
H415 C391 0.949 . S
H416 C393 0.950 . S
H417 C395 0.950 1_556 S
C418 C419 1.349 . S
C418 C420 1.327 . S
C418 H443 0.950 . S
C419 C418 1.349 . S
C419 C435 1.349 . S
C420 C418 1.327 . S
C420 C439 1.429 . S
C420 H444 0.950 . S
C421 C438 1.574 . S
C421 C440 1.368 . S
C421 H445 0.949 . S
H422 C426 0.949 . S
C423 C424 1.349 . S
C423 C425 1.327 . S
C423 H446 0.950 . S
C424 C423 1.349 . S
C424 C436 1.349 . S
C425 C423 1.327 . S
C425 C441 1.429 . S
C425 H447 0.950 . S
C426 H422 0.949 . S
C426 C434 1.574 . S
C426 C442 1.368 . S
H427 C435 0.950 . S
H428 C433 0.950 . S
H429 C434 0.949 . S
H430 C436 0.950 . S
H431 C437 0.950 . S
H432 C438 0.949 . S
C433 H428 0.950 . S
C433 C435 1.327 . S
C433 C439 1.429 . S
C434 C426 1.574 . S
C434 H429 0.949 . S
C434 C440 1.368 . S
C435 C419 1.349 . S
C435 H427 0.950 . S
C435 C433 1.327 . S
C436 C424 1.349 . S
C436 H430 0.950 . S
C436 C437 1.327 . S
C437 H431 0.950 . S
C437 C436 1.327 . S
C437 C441 1.429 . S
C438 C421 1.574 . S
C438 H432 0.949 . S
C438 C442 1.368 . S
C439 C420 1.429 . S
C439 C433 1.429 . S
C439 C440 1.523 . S
C440 C421 1.368 . S
C440 C434 1.368 . S
C440 C439 1.523 . S
C441 C425 1.429 . S
C441 C437 1.429 . S
C441 C442 1.523 . S
C442 C426 1.368 . S
C442 C438 1.368 . S
C442 C441 1.523 . S
H443 C418 0.950 . S
H444 C420 0.950 . S
H445 C421 0.949 . S
H446 C423 0.950 . S
H447 C425 0.950 . S
C448 C449 1.349 1_556 S
C448 C450 1.327 . S
C448 H473 0.950 . S
C449 C448 1.349 1_554 S
C449 C465 1.349 . S
C450 C448 1.327 . S
C450 C469 1.429 . S
C450 H474 0.950 . S
C451 C468 1.574 . S
C451 C470 1.368 . S
C451 H475 0.949 . S
H452 C456 0.949 . S
C453 C454 1.349 . S
C453 C455 1.327 . S
C453 H476 0.950 . S
C454 C453 1.349 . S
C454 C466 1.349 . S
C455 C453 1.327 . S
C455 C471 1.429 . S
C455 H477 0.950 . S
C456 H452 0.949 . S
C456 C464 1.574 . S
C456 C472 1.368 . S
H457 C465 0.950 . S
H458 C463 0.950 . S
H459 C464 0.949 . S
H460 C466 0.950 . S
H461 C467 0.950 . S
H462 C468 0.949 . S
C463 H458 0.950 . S
C463 C465 1.327 1_556 S
C463 C469 1.429 . S
C464 C456 1.574 . S
C464 H459 0.949 . S
C464 C470 1.368 . S
C465 C449 1.349 . S
C465 H457 0.950 . S
C465 C463 1.327 1_554 S
C466 C454 1.349 . S
C466 H460 0.950 . S
C466 C467 1.327 . S
C467 H461 0.950 . S
C467 C466 1.327 . S
C467 C471 1.429 . S
C468 C451 1.574 . S
C468 H462 0.949 . S
C468 C472 1.368 . S
C469 C450 1.429 . S
C469 C463 1.429 . S
C469 C470 1.523 . S
C470 C451 1.368 . S
C470 C464 1.368 . S
C470 C469 1.523 . S
C471 C455 1.429 . S
C471 C467 1.429 . S
C471 C472 1.523 . S
C472 C456 1.368 . S
C472 C468 1.368 . S
C472 C471 1.523 . S
H473 C448 0.950 . S
H474 C450 0.950 . S
H475 C451 0.949 . S
H476 C453 0.950 . S
H477 C455 0.950 . S
C478 C479 1.349 . S
C478 C480 1.327 . S
C478 H503 0.950 . S
C479 C478 1.349 . S
C479 C495 1.349 . S
C480 C478 1.327 . S
C480 C499 1.429 . S
C480 H504 0.950 . S
C481 C498 1.574 . S
C481 C500 1.368 . S
C481 H505 0.949 . S
H482 C486 0.949 . S
C483 C484 1.349 . S
C483 C485 1.327 . S
C483 H506 0.950 . S
C484 C483 1.349 . S
C484 C496 1.349 . S
C485 C483 1.327 . S
C485 C501 1.429 . S
C485 H507 0.950 . S
C486 H482 0.949 . S
C486 C494 1.574 . S
C486 C502 1.368 . S
H487 C495 0.950 . S
H488 C493 0.950 . S
H489 C494 0.949 . S
H490 C496 0.950 . S
H491 C497 0.950 . S
H492 C498 0.949 . S
C493 H488 0.950 . S
C493 C495 1.327 . S
C493 C499 1.429 . S
C494 C486 1.574 . S
C494 H489 0.949 . S
C494 C500 1.368 . S
C495 C479 1.349 . S
C495 H487 0.950 . S
C495 C493 1.327 . S
C496 C484 1.349 . S
C496 H490 0.950 . S
C496 C497 1.327 . S
C497 H491 0.950 . S
C497 C496 1.327 . S
C497 C501 1.429 . S
C498 C481 1.574 . S
C498 H492 0.949 . S
C498 C502 1.368 . S
C499 C480 1.429 . S
C499 C493 1.429 . S
C499 C500 1.523 . S
C500 C481 1.368 . S
C500 C494 1.368 . S
C500 C499 1.523 . S
C501 C485 1.429 . S
C501 C497 1.429 . S
C501 C502 1.523 . S
C502 C486 1.368 . S
C502 C498 1.368 . S
C502 C501 1.523 . S
H503 C478 0.950 . S
H504 C480 0.950 . S
H505 C481 0.949 . S
H506 C483 0.950 . S
H507 C485 0.950 . S
C508 C509 1.349 1_556 S
C508 C510 1.327 . S
C508 H533 0.950 . S
C509 C508 1.349 1_554 S
C509 C525 1.349 . S
C510 C508 1.327 . S
C510 C529 1.429 . S
C510 H534 0.950 . S
C511 C528 1.574 . S
C511 C530 1.368 . S
C511 H535 0.949 . S
H512 C516 0.949 . S
C513 C514 1.349 . S
C513 C515 1.327 . S
C513 H536 0.950 . S
C514 C513 1.349 . S
C514 C526 1.349 . S
C515 C513 1.327 . S
C515 C531 1.429 . S
C515 H537 0.950 . S
C516 H512 0.949 . S
C516 C524 1.574 . S
C516 C532 1.368 . S
H517 C525 0.950 . S
H518 C523 0.950 . S
H519 C524 0.949 . S
H520 C526 0.950 . S
H521 C527 0.950 . S
H522 C528 0.949 . S
C523 H518 0.950 . S
C523 C525 1.327 1_556 S
C523 C529 1.429 . S
C524 C516 1.574 . S
C524 H519 0.949 . S
C524 C530 1.368 . S
C525 C509 1.349 . S
C525 H517 0.950 . S
C525 C523 1.327 1_554 S
C526 C514 1.349 . S
C526 H520 0.950 . S
C526 C527 1.327 . S
C527 H521 0.950 . S
C527 C526 1.327 . S
C527 C531 1.429 . S
C528 C511 1.574 . S
C528 H522 0.949 . S
C528 C532 1.368 . S
C529 C510 1.429 . S
C529 C523 1.429 . S
C529 C530 1.523 . S
C530 C511 1.368 . S
C530 C524 1.368 . S
C530 C529 1.523 . S
C531 C515 1.429 . S
C531 C527 1.429 . S
C531 C532 1.523 . S
C532 C516 1.368 . S
C532 C528 1.368 . S
C532 C531 1.523 . S
H533 C508 0.950 . S
H534 C510 0.950 . S
H535 C511 0.949 . S
H536 C513 0.950 . S
H537 C515 0.950 . S
C538 C539 1.349 . S
C538 C540 1.327 . S
C538 H563 0.950 . S
C539 C538 1.349 . S
C539 C555 1.349 . S
C540 C538 1.327 . S
C540 C559 1.429 . S
C540 H564 0.950 . S
C541 C558 1.574 . S
C541 C560 1.368 . S
C541 H565 0.949 . S
H542 C546 0.949 . S
C543 C544 1.349 . S
C543 C545 1.327 . S
C543 H566 0.950 . S
C544 C543 1.349 . S
C544 C556 1.349 . S
C545 C543 1.327 . S
C545 C561 1.429 . S
C545 H567 0.950 . S
C546 H542 0.949 . S
C546 C554 1.574 . S
C546 C562 1.368 . S
H547 C555 0.950 . S
H548 C553 0.950 . S
H549 C554 0.949 . S
H550 C556 0.950 . S
H551 C557 0.950 . S
H552 C558 0.949 . S
C553 H548 0.950 . S
C553 C555 1.327 . S
C553 C559 1.429 . S
C554 C546 1.574 . S
C554 H549 0.949 . S
C554 C560 1.368 . S
C555 C539 1.349 . S
C555 H547 0.950 . S
C555 C553 1.327 . S
C556 C544 1.349 . S
C556 H550 0.950 . S
C556 C557 1.327 . S
C557 H551 0.950 . S
C557 C556 1.327 . S
C557 C561 1.429 . S
C558 C541 1.574 . S
C558 H552 0.949 . S
C558 C562 1.368 . S
C559 C540 1.429 . S
C559 C553 1.429 . S
C559 C560 1.523 . S
C560 C541 1.368 . S
C560 C554 1.368 . S
C560 C559 1.523 . S
C561 C545 1.429 . S
C561 C557 1.429 . S
C561 C562 1.523 . S
C562 C546 1.368 . S
C562 C558 1.368 . S
C562 C561 1.523 . S
H563 C538 0.950 . S
H564 C540 0.950 . S
H565 C541 0.949 . S
H566 C543 0.950 . S
H567 C545 0.950 . S
C568 C569 1.349 . S
C568 C570 1.327 . S
C568 H593 0.950 . S
C569 C568 1.349 . S
C569 C585 1.349 . S
C570 C568 1.327 . S
C570 C589 1.429 . S
C570 H594 0.950 . S
C571 C588 1.574 . S
C571 C590 1.368 . S
C571 H595 0.949 . S
H572 C576 0.949 . S
C573 C574 1.349 1_554 S
C573 C575 1.327 . S
C573 H596 0.950 . S
C574 C573 1.349 1_556 S
C574 C586 1.349 . S
C575 C573 1.327 . S
C575 C591 1.429 . S
C575 H597 0.950 . S
C576 H572 0.949 . S
C576 C584 1.574 . S
C576 C592 1.368 . S
H577 C585 0.950 . S
H578 C583 0.950 . S
H579 C584 0.949 . S
H580 C586 0.950 . S
H581 C587 0.950 . S
H582 C588 0.949 . S
C583 H578 0.950 . S
C583 C585 1.327 . S
C583 C589 1.429 . S
C584 C576 1.574 . S
C584 H579 0.949 . S
C584 C590 1.368 . S
C585 C569 1.349 . S
C585 H577 0.950 . S
C585 C583 1.327 . S
C586 C574 1.349 . S
C586 H580 0.950 . S
C586 C587 1.327 1_556 S
C587 H581 0.950 . S
C587 C586 1.327 1_554 S
C587 C591 1.429 . S
C588 C571 1.574 . S
C588 H582 0.949 . S
C588 C592 1.368 . S
C589 C570 1.429 . S
C589 C583 1.429 . S
C589 C590 1.523 . S
C590 C571 1.368 . S
C590 C584 1.368 . S
C590 C589 1.523 . S
C591 C575 1.429 . S
C591 C587 1.429 . S
C591 C592 1.523 . S
C592 C576 1.368 . S
C592 C588 1.368 . S
C592 C591 1.523 . S
H593 C568 0.950 . S
H594 C570 0.950 . S
H595 C571 0.949 . S
H596 C573 0.950 . S
H597 C575 0.950 . S
C598 C599 1.349 . S
C598 C600 1.327 . S
C598 H623 0.950 . S
C599 C598 1.349 . S
C599 C615 1.349 . S
C600 C598 1.327 . S
C600 C619 1.429 . S
C600 H624 0.950 . S
C601 C618 1.574 . S
C601 C620 1.368 . S
C601 H625 0.949 . S
H602 C606 0.949 . S
C603 C604 1.349 . S
C603 C605 1.327 . S
C603 H626 0.950 . S
C604 C603 1.349 . S
C604 C616 1.349 . S
C605 C603 1.327 . S
C605 C621 1.429 . S
C605 H627 0.950 . S
C606 H602 0.949 . S
C606 C614 1.574 . S
C606 C622 1.368 . S
H607 C615 0.950 . S
H608 C613 0.950 . S
H609 C614 0.949 . S
H610 C616 0.950 . S
H611 C617 0.950 . S
H612 C618 0.949 . S
C613 H608 0.950 . S
C613 C615 1.327 . S
C613 C619 1.429 . S
C614 C606 1.574 . S
C614 H609 0.949 . S
C614 C620 1.368 . S
C615 C599 1.349 . S
C615 H607 0.950 . S
C615 C613 1.327 . S
C616 C604 1.349 . S
C616 H610 0.950 . S
C616 C617 1.327 . S
C617 H611 0.950 . S
C617 C616 1.327 . S
C617 C621 1.429 . S
C618 C601 1.574 . S
C618 H612 0.949 . S
C618 C622 1.368 . S
C619 C600 1.429 . S
C619 C613 1.429 . S
C619 C620 1.523 . S
C620 C601 1.368 . S
C620 C614 1.368 . S
C620 C619 1.523 . S
C621 C605 1.429 . S
C621 C617 1.429 . S
C621 C622 1.523 . S
C622 C606 1.368 . S
C622 C618 1.368 . S
C622 C621 1.523 . S
H623 C598 0.950 . S
H624 C600 0.950 . S
H625 C601 0.949 . S
H626 C603 0.950 . S
H627 C605 0.950 . S
C628 C629 1.349 . S
C628 C630 1.327 . S
C628 H653 0.950 . S
C629 C628 1.349 . S
C629 C645 1.349 . S
C630 C628 1.327 . S
C630 C649 1.429 . S
C630 H654 0.950 . S
C631 C648 1.574 . S
C631 C650 1.368 . S
C631 H655 0.949 . S
H632 C636 0.949 . S
C633 C634 1.349 . S
C633 C635 1.327 1_556 S
C633 H656 0.950 . S
C634 C633 1.349 . S
C634 C646 1.349 1_556 S
C635 C633 1.327 1_554 S
C635 C651 1.429 . S
C635 H657 0.950 . S
C636 H632 0.949 . S
C636 C644 1.574 . S
C636 C652 1.368 . S
H637 C645 0.950 . S
H638 C643 0.950 . S
H639 C644 0.949 . S
H640 C646 0.950 . S
H641 C647 0.950 . S
H642 C648 0.949 . S
C643 H638 0.950 . S
C643 C645 1.327 . S
C643 C649 1.429 . S
C644 C636 1.574 . S
C644 H639 0.949 . S
C644 C650 1.368 . S
C645 C629 1.349 . S
C645 H637 0.950 . S
C645 C643 1.327 . S
C646 C634 1.349 1_554 S
C646 H640 0.950 . S
C646 C647 1.327 . S
C647 H641 0.950 . S
C647 C646 1.327 . S
C647 C651 1.429 . S
C648 C631 1.574 . S
C648 H642 0.949 . S
C648 C652 1.368 . S
C649 C630 1.429 . S
C649 C643 1.429 . S
C649 C650 1.523 . S
C650 C631 1.368 . S
C650 C644 1.368 . S
C650 C649 1.523 . S
C651 C635 1.429 . S
C651 C647 1.429 . S
C651 C652 1.523 . S
C652 C636 1.368 . S
C652 C648 1.368 . S
C652 C651 1.523 . S
H653 C628 0.950 . S
H654 C630 0.950 . S
H655 C631 0.949 . S
H656 C633 0.950 . S
H657 C635 0.950 . S
C658 C659 1.349 . S
C658 C660 1.327 . S
C658 H683 0.950 . S
C659 C658 1.349 . S
C659 C675 1.349 . S
C660 C658 1.327 . S
C660 C679 1.429 . S
C660 H684 0.950 . S
C661 C678 1.574 . S
C661 C680 1.368 . S
C661 H685 0.949 . S
H662 C666 0.949 . S
C663 C664 1.349 . S
C663 C665 1.327 . S
C663 H686 0.950 . S
C664 C663 1.349 . S
C664 C676 1.349 . S
C665 C663 1.327 . S
C665 C681 1.429 . S
C665 H687 0.950 . S
C666 H662 0.949 . S
C666 C674 1.574 . S
C666 C682 1.368 . S
H667 C675 0.950 . S
H668 C673 0.950 . S
H669 C674 0.949 . S
H670 C676 0.950 . S
H671 C677 0.950 . S
H672 C678 0.949 . S
C673 H668 0.950 . S
C673 C675 1.327 . S
C673 C679 1.429 . S
C674 C666 1.574 . S
C674 H669 0.949 . S
C674 C680 1.368 . S
C675 C659 1.349 . S
C675 H667 0.950 . S
C675 C673 1.327 . S
C676 C664 1.349 . S
C676 H670 0.950 . S
C676 C677 1.327 . S
C677 H671 0.950 . S
C677 C676 1.327 . S
C677 C681 1.429 . S
C678 C661 1.574 . S
C678 H672 0.949 . S
C678 C682 1.368 . S
C679 C660 1.429 . S
C679 C673 1.429 . S
C679 C680 1.523 . S
C680 C661 1.368 . S
C680 C674 1.368 . S
C680 C679 1.523 . S
C681 C665 1.429 . S
C681 C677 1.429 . S
C681 C682 1.523 . S
C682 C666 1.368 . S
C682 C678 1.368 . S
C682 C681 1.523 . S
H683 C658 0.950 . S
H684 C660 0.950 . S
H685 C661 0.949 . S
H686 C663 0.950 . S
H687 C665 0.950 . S
C688 C689 1.349 1_554 S
C688 C690 1.327 . S
C688 H713 0.950 . S
C689 C688 1.349 1_556 S
C689 C705 1.349 . S
C690 C688 1.327 . S
C690 C709 1.429 . S
C690 H714 0.950 . S
C691 C708 1.574 . S
C691 C710 1.368 . S
C691 H715 0.949 . S
H692 C696 0.949 . S
C693 C694 1.349 . S
C693 C695 1.327 . S
C693 H716 0.950 . S
C694 C693 1.349 . S
C694 C706 1.349 . S
C695 C693 1.327 . S
C695 C711 1.429 . S
C695 H717 0.950 . S
C696 H692 0.949 . S
C696 C704 1.574 . S
C696 C712 1.368 . S
H697 C705 0.950 . S
H698 C703 0.950 . S
H699 C704 0.949 . S
H700 C706 0.950 . S
H701 C707 0.950 . S
H702 C708 0.949 . S
C703 H698 0.950 . S
C703 C705 1.327 1_554 S
C703 C709 1.429 . S
C704 C696 1.574 . S
C704 H699 0.949 . S
C704 C710 1.368 . S
C705 C689 1.349 . S
C705 H697 0.950 . S
C705 C703 1.327 1_556 S
C706 C694 1.349 . S
C706 H700 0.950 . S
C706 C707 1.327 . S
C707 H701 0.950 . S
C707 C706 1.327 . S
C707 C711 1.429 . S
C708 C691 1.574 . S
C708 H702 0.949 . S
C708 C712 1.368 . S
C709 C690 1.429 . S
C709 C703 1.429 . S
C709 C710 1.523 . S
C710 C691 1.368 . S
C710 C704 1.368 . S
C710 C709 1.523 . S
C711 C695 1.429 . S
C711 C707 1.429 . S
C711 C712 1.523 . S
C712 C696 1.368 . S
C712 C708 1.368 . S
C712 C711 1.523 . S
H713 C688 0.950 . S
H714 C690 0.950 . S
H715 C691 0.949 . S
H716 C693 0.950 . S
H717 C695 0.950 . S
C718 C719 1.349 . S
C718 C720 1.327 . S
C718 H743 0.950 . S
C719 C718 1.349 . S
C719 C735 1.349 . S
C720 C718 1.327 . S
C720 C739 1.429 . S
C720 H744 0.950 . S
C721 C738 1.574 . S
C721 C740 1.368 . S
C721 H745 0.949 . S
H722 C726 0.949 . S
C723 C724 1.349 . S
C723 C725 1.327 . S
C723 H746 0.950 . S
C724 C723 1.349 . S
C724 C736 1.349 . S
C725 C723 1.327 . S
C725 C741 1.429 . S
C725 H747 0.950 . S
C726 H722 0.949 . S
C726 C734 1.574 . S
C726 C742 1.368 . S
H727 C735 0.950 . S
H728 C733 0.950 . S
H729 C734 0.949 . S
H730 C736 0.950 . S
H731 C737 0.950 . S
H732 C738 0.949 . S
C733 H728 0.950 . S
C733 C735 1.327 . S
C733 C739 1.429 . S
C734 C726 1.574 . S
C734 H729 0.949 . S
C734 C740 1.368 . S
C735 C719 1.349 . S
C735 H727 0.950 . S
C735 C733 1.327 . S
C736 C724 1.349 . S
C736 H730 0.950 . S
C736 C737 1.327 . S
C737 H731 0.950 . S
C737 C736 1.327 . S
C737 C741 1.429 . S
C738 C721 1.574 . S
C738 H732 0.949 . S
C738 C742 1.368 . S
C739 C720 1.429 . S
C739 C733 1.429 . S
C739 C740 1.523 . S
C740 C721 1.368 . S
C740 C734 1.368 . S
C740 C739 1.523 . S
C741 C725 1.429 . S
C741 C737 1.429 . S
C741 C742 1.523 . S
C742 C726 1.368 . S
C742 C738 1.368 . S
C742 C741 1.523 . S
H743 C718 0.950 . S
H744 C720 0.950 . S
H745 C721 0.949 . S
H746 C723 0.950 . S
H747 C725 0.950 . S
C748 C749 1.349 . S
C748 C750 1.327 . S
C748 H773 0.950 . S
C749 C748 1.349 . S
C749 C765 1.349 . S
C750 C748 1.327 . S
C750 C769 1.429 . S
C750 H774 0.950 . S
C751 C768 1.574 . S
C751 C770 1.368 . S
C751 H775 0.949 . S
H752 C756 0.949 . S
C753 C754 1.349 1_554 S
C753 C755 1.327 . S
C753 H776 0.950 . S
C754 C753 1.349 1_556 S
C754 C766 1.349 . S
C755 C753 1.327 . S
C755 C771 1.429 . S
C755 H777 0.950 . S
C756 H752 0.949 . S
C756 C764 1.574 . S
C756 C772 1.368 . S
H757 C765 0.950 . S
H758 C763 0.950 . S
H759 C764 0.949 . S
H760 C766 0.950 . S
H761 C767 0.950 . S
H762 C768 0.949 . S
C763 H758 0.950 . S
C763 C765 1.327 . S
C763 C769 1.429 . S
C764 C756 1.574 . S
C764 H759 0.949 . S
C764 C770 1.368 . S
C765 C749 1.349 . S
C765 H757 0.950 . S
C765 C763 1.327 . S
C766 C754 1.349 . S
C766 H760 0.950 . S
C766 C767 1.327 1_556 S
C767 H761 0.950 . S
C767 C766 1.327 1_554 S
C767 C771 1.429 . S
C768 C751 1.574 . S
C768 H762 0.949 . S
C768 C772 1.368 . S
C769 C750 1.429 . S
C769 C763 1.429 . S
C769 C770 1.523 . S
C770 C751 1.368 . S
C770 C764 1.368 . S
C770 C769 1.523 . S
C771 C755 1.429 . S
C771 C767 1.429 . S
C771 C772 1.523 . S
C772 C756 1.368 . S
C772 C768 1.368 . S
C772 C771 1.523 . S
H773 C748 0.950 . S
H774 C750 0.950 . S
H775 C751 0.949 . S
H776 C753 0.950 . S
H777 C755 0.950 . S
C778 C779 1.349 . S
C778 C780 1.327 . S
C778 H803 0.950 . S
C779 C778 1.349 . S
C779 C795 1.349 . S
C780 C778 1.327 . S
C780 C799 1.429 . S
C780 H804 0.950 . S
C781 C798 1.574 . S
C781 C800 1.368 . S
C781 H805 0.949 . S
H782 C786 0.949 . S
C783 C784 1.349 . S
C783 C785 1.327 . S
C783 H806 0.950 . S
C784 C783 1.349 . S
C784 C796 1.349 . S
C785 C783 1.327 . S
C785 C801 1.429 . S
C785 H807 0.950 . S
C786 H782 0.949 . S
C786 C794 1.574 . S
C786 C802 1.368 . S
H787 C795 0.950 . S
H788 C793 0.950 . S
H789 C794 0.949 . S
H790 C796 0.950 . S
H791 C797 0.950 . S
H792 C798 0.949 . S
C793 H788 0.950 . S
C793 C795 1.327 . S
C793 C799 1.429 . S
C794 C786 1.574 . S
C794 H789 0.949 . S
C794 C800 1.368 . S
C795 C779 1.349 . S
C795 H787 0.950 . S
C795 C793 1.327 . S
C796 C784 1.349 . S
C796 H790 0.950 . S
C796 C797 1.327 . S
C797 H791 0.950 . S
C797 C796 1.327 . S
C797 C801 1.429 . S
C798 C781 1.574 . S
C798 H792 0.949 . S
C798 C802 1.368 . S
C799 C780 1.429 . S
C799 C793 1.429 . S
C799 C800 1.523 . S
C800 C781 1.368 . S
C800 C794 1.368 . S
C800 C799 1.523 . S
C801 C785 1.429 . S
C801 C797 1.429 . S
C801 C802 1.523 . S
C802 C786 1.368 . S
C802 C798 1.368 . S
C802 C801 1.523 . S
H803 C778 0.950 . S
H804 C780 0.950 . S
H805 C781 0.949 . S
H806 C783 0.950 . S
H807 C785 0.950 . S
C808 C809 1.349 . S
C808 C810 1.327 . S
C808 H833 0.950 . S
C809 C808 1.349 . S
C809 C825 1.349 . S
C810 C808 1.327 . S
C810 C829 1.429 . S
C810 H834 0.950 . S
C811 C828 1.574 . S
C811 C830 1.368 . S
C811 H835 0.949 . S
H812 C816 0.949 . S
C813 C814 1.349 . S
C813 C815 1.327 1_554 S
C813 H836 0.950 . S
C814 C813 1.349 . S
C814 C826 1.349 1_554 S
C815 C813 1.327 1_556 S
C815 C831 1.429 . S
C815 H837 0.950 . S
C816 H812 0.949 . S
C816 C824 1.574 . S
C816 C832 1.368 . S
H817 C825 0.950 . S
H818 C823 0.950 . S
H819 C824 0.949 . S
H820 C826 0.950 . S
H821 C827 0.950 . S
H822 C828 0.949 . S
C823 H818 0.950 . S
C823 C825 1.327 . S
C823 C829 1.429 . S
C824 C816 1.574 . S
C824 H819 0.949 . S
C824 C830 1.368 . S
C825 C809 1.349 . S
C825 H817 0.950 . S
C825 C823 1.327 . S
C826 C814 1.349 1_556 S
C826 H820 0.950 . S
C826 C827 1.327 . S
C827 H821 0.950 . S
C827 C826 1.327 . S
C827 C831 1.429 . S
C828 C811 1.574 . S
C828 H822 0.949 . S
C828 C832 1.368 . S
C829 C810 1.429 . S
C829 C823 1.429 . S
C829 C830 1.523 . S
C830 C811 1.368 . S
C830 C824 1.368 . S
C830 C829 1.523 . S
C831 C815 1.429 . S
C831 C827 1.429 . S
C831 C832 1.523 . S
C832 C816 1.368 . S
C832 C828 1.368 . S
C832 C831 1.523 . S
H833 C808 0.950 . S
H834 C810 0.950 . S
H835 C811 0.949 . S
H836 C813 0.950 . S
H837 C815 0.950 . S
C838 C839 1.349 . S
C838 C840 1.327 . S
C838 H863 0.950 . S
C839 C838 1.349 . S
C839 C855 1.349 . S
C840 C838 1.327 . S
C840 C859 1.429 . S
C840 H864 0.950 . S
C841 C858 1.574 . S
C841 C860 1.368 . S
C841 H865 0.949 . S
H842 C846 0.949 . S
C843 C844 1.349 . S
C843 C845 1.327 . S
C843 H866 0.950 . S
C844 C843 1.349 . S
C844 C856 1.349 . S
C845 C843 1.327 . S
C845 C861 1.429 . S
C845 H867 0.950 . S
C846 H842 0.949 . S
C846 C854 1.574 . S
C846 C862 1.368 . S
H847 C855 0.950 . S
H848 C853 0.950 . S
H849 C854 0.949 . S
H850 C856 0.950 . S
H851 C857 0.950 . S
H852 C858 0.949 . S
C853 H848 0.950 . S
C853 C855 1.327 . S
C853 C859 1.429 . S
C854 C846 1.574 . S
C854 H849 0.949 . S
C854 C860 1.368 . S
C855 C839 1.349 . S
C855 H847 0.950 . S
C855 C853 1.327 . S
C856 C844 1.349 . S
C856 H850 0.950 . S
C856 C857 1.327 . S
C857 H851 0.950 . S
C857 C856 1.327 . S
C857 C861 1.429 . S
C858 C841 1.574 . S
C858 H852 0.949 . S
C858 C862 1.368 . S
C859 C840 1.429 . S
C859 C853 1.429 . S
C859 C860 1.523 . S
C860 C841 1.368 . S
C860 C854 1.368 . S
C860 C859 1.523 . S
C861 C845 1.429 . S
C861 C857 1.429 . S
C861 C862 1.523 . S
C862 C846 1.368 . S
C862 C858 1.368 . S
C862 C861 1.523 . S
H863 C838 0.950 . S
H864 C840 0.950 . S
H865 C841 0.949 . S
H866 C843 0.950 . S
H867 C845 0.950 . S
C868 C869 1.349 1_556 S
C868 C870 1.327 . S
C868 H893 0.950 . S
C869 C868 1.349 1_554 S
C869 C885 1.349 . S
C870 C868 1.327 . S
C870 C889 1.429 . S
C870 H894 0.950 . S
C871 C888 1.574 . S
C871 C890 1.368 . S
C871 H895 0.949 . S
H872 C876 0.949 . S
C873 C874 1.349 . S
C873 C875 1.327 . S
C873 H896 0.950 . S
C874 C873 1.349 . S
C874 C886 1.349 . S
C875 C873 1.327 . S
C875 C891 1.429 . S
C875 H897 0.950 . S
C876 H872 0.949 . S
C876 C884 1.574 . S
C876 C892 1.368 . S
H877 C885 0.950 . S
H878 C883 0.950 . S
H879 C884 0.949 . S
H880 C886 0.950 . S
H881 C887 0.950 . S
H882 C888 0.949 . S
C883 H878 0.950 . S
C883 C885 1.327 1_556 S
C883 C889 1.429 . S
C884 C876 1.574 . S
C884 H879 0.949 . S
C884 C890 1.368 . S
C885 C869 1.349 . S
C885 H877 0.950 . S
C885 C883 1.327 1_554 S
C886 C874 1.349 . S
C886 H880 0.950 . S
C886 C887 1.327 . S
C887 H881 0.950 . S
C887 C886 1.327 . S
C887 C891 1.429 . S
C888 C871 1.574 . S
C888 H882 0.949 . S
C888 C892 1.368 . S
C889 C870 1.429 . S
C889 C883 1.429 . S
C889 C890 1.523 . S
C890 C871 1.368 . S
C890 C884 1.368 . S
C890 C889 1.523 . S
C891 C875 1.429 . S
C891 C887 1.429 . S
C891 C892 1.523 . S
C892 C876 1.368 . S
C892 C888 1.368 . S
C892 C891 1.523 . S
H893 C868 0.950 . S
H894 C870 0.950 . S
H895 C871 0.949 . S
H896 C873 0.950 . S
H897 C875 0.950 . S
C898 C899 1.349 . S
C898 C900 1.327 . S
C898 H923 0.950 . S
C899 C898 1.349 . S
C899 C915 1.349 . S
C900 C898 1.327 . S
C900 C919 1.429 . S
C900 H924 0.950 . S
C901 C918 1.574 . S
C901 C920 1.368 . S
C901 H925 0.949 . S
H902 C906 0.949 . S
C903 C904 1.349 . S
C903 C905 1.327 . S
C903 H926 0.950 . S
C904 C903 1.349 . S
C904 C916 1.349 . S
C905 C903 1.327 . S
C905 C921 1.429 . S
C905 H927 0.950 . S
C906 H902 0.949 . S
C906 C914 1.574 . S
C906 C922 1.368 . S
H907 C915 0.950 . S
H908 C913 0.950 . S
H909 C914 0.949 . S
H910 C916 0.950 . S
H911 C917 0.950 . S
H912 C918 0.949 . S
C913 H908 0.950 . S
C913 C915 1.327 . S
C913 C919 1.429 . S
C914 C906 1.574 . S
C914 H909 0.949 . S
C914 C920 1.368 . S
C915 C899 1.349 . S
C915 H907 0.950 . S
C915 C913 1.327 . S
C916 C904 1.349 . S
C916 H910 0.950 . S
C916 C917 1.327 . S
C917 H911 0.950 . S
C917 C916 1.327 . S
C917 C921 1.429 . S
C918 C901 1.574 . S
C918 H912 0.949 . S
C918 C922 1.368 . S
C919 C900 1.429 . S
C919 C913 1.429 . S
C919 C920 1.523 . S
C920 C901 1.368 . S
C920 C914 1.368 . S
C920 C919 1.523 . S
C921 C905 1.429 . S
C921 C917 1.429 . S
C921 C922 1.523 . S
C922 C906 1.368 . S
C922 C918 1.368 . S
C922 C921 1.523 . S
H923 C898 0.950 . S
H924 C900 0.950 . S
H925 C901 0.949 . S
H926 C903 0.950 . S
H927 C905 0.950 . S
C928 C929 1.349 . S
C928 C930 1.327 . S
C928 H953 0.950 . S
C929 C928 1.349 . S
C929 C945 1.349 . S
C930 C928 1.327 . S
C930 C949 1.429 . S
C930 H954 0.950 . S
C931 C948 1.574 . S
C931 C950 1.368 . S
C931 H955 0.949 . S
H932 C936 0.949 . S
C933 C934 1.349 . S
C933 C935 1.327 . S
C933 H956 0.950 . S
C934 C933 1.349 . S
C934 C946 1.349 . S
C935 C933 1.327 . S
C935 C951 1.429 . S
C935 H957 0.950 . S
C936 H932 0.949 . S
C936 C944 1.574 . S
C936 C952 1.368 . S
H937 C945 0.950 . S
H938 C943 0.950 . S
H939 C944 0.949 . S
H940 C946 0.950 . S
H941 C947 0.950 . S
H942 C948 0.949 . S
C943 H938 0.950 . S
C943 C945 1.327 . S
C943 C949 1.429 . S
C944 C936 1.574 . S
C944 H939 0.949 . S
C944 C950 1.368 . S
C945 C929 1.349 . S
C945 H937 0.950 . S
C945 C943 1.327 . S
C946 C934 1.349 . S
C946 H940 0.950 . S
C946 C947 1.327 . S
C947 H941 0.950 . S
C947 C946 1.327 . S
C947 C951 1.429 . S
C948 C931 1.574 . S
C948 H942 0.949 . S
C948 C952 1.368 . S
C949 C930 1.429 . S
C949 C943 1.429 . S
C949 C950 1.523 . S
C950 C931 1.368 . S
C950 C944 1.368 . S
C950 C949 1.523 . S
C951 C935 1.429 . S
C951 C947 1.429 . S
C951 C952 1.523 . S
C952 C936 1.368 . S
C952 C948 1.368 . S
C952 C951 1.523 . S
H953 C928 0.950 . S
H954 C930 0.950 . S
H955 C931 0.949 . S
H956 C933 0.950 . S
H957 C935 0.950 . S
C958 C959 1.349 . S
C958 C960 1.327 . S
C958 H983 0.950 . S
C959 C958 1.349 . S
C959 C975 1.349 . S
C960 C958 1.327 . S
C960 C979 1.429 . S
C960 H984 0.950 . S
C961 C978 1.574 . S
C961 C980 1.368 . S
C961 H985 0.949 . S
H962 C966 0.949 . S
C963 C964 1.349 . S
C963 C965 1.327 . S
C963 H986 0.950 . S
C964 C963 1.349 . S
C964 C976 1.349 . S
C965 C963 1.327 . S
C965 C981 1.429 . S
C965 H987 0.950 . S
C966 H962 0.949 . S
C966 C974 1.574 . S
C966 C982 1.368 . S
H967 C975 0.950 . S
H968 C973 0.950 . S
H969 C974 0.949 . S
H970 C976 0.950 . S
H971 C977 0.950 . S
H972 C978 0.949 . S
C973 H968 0.950 . S
C973 C975 1.327 . S
C973 C979 1.429 . S
C974 C966 1.574 . S
C974 H969 0.949 . S
C974 C980 1.368 . S
C975 C959 1.349 . S
C975 H967 0.950 . S
C975 C973 1.327 . S
C976 C964 1.349 . S
C976 H970 0.950 . S
C976 C977 1.327 . S
C977 H971 0.950 . S
C977 C976 1.327 . S
C977 C981 1.429 . S
C978 C961 1.574 . S
C978 H972 0.949 . S
C978 C982 1.368 . S
C979 C960 1.429 . S
C979 C973 1.429 . S
C979 C980 1.523 . S
C980 C961 1.368 . S
C980 C974 1.368 . S
C980 C979 1.523 . S
C981 C965 1.429 . S
C981 C977 1.429 . S
C981 C982 1.523 . S
C982 C966 1.368 . S
C982 C978 1.368 . S
C982 C981 1.523 . S
H983 C958 0.950 . S
H984 C960 0.950 . S
H985 C961 0.949 . S
H986 C963 0.950 . S
H987 C965 0.950 . S
C988 C989 1.349 . S
C988 C990 1.327 . S
C988 H1013 0.950 . S
C989 C988 1.349 . S
C989 C1005 1.349 . S
C990 C988 1.327 . S
C990 C1009 1.429 . S
C990 H1014 0.950 . S
C991 C1008 1.574 . S
C991 C1010 1.368 . S
C991 H1015 0.949 . S
H992 C996 0.949 . S
C993 C994 1.349 . S
C993 C995 1.327 . S
C993 H1016 0.950 . S
C994 C993 1.349 . S
C994 C1006 1.349 . S
C995 C993 1.327 . S
C995 C1011 1.429 . S
C995 H1017 0.950 . S
C996 H992 0.949 . S
C996 C1004 1.574 . S
C996 C1012 1.368 . S
H997 C1005 0.950 . S
H998 C1003 0.950 . S
H999 C1004 0.949 . S
H1000 C1006 0.950 1_545 S
H1001 C1007 0.950 . S
H1002 C1008 0.949 . S
C1003 H998 0.950 . S
C1003 C1005 1.327 . S
C1003 C1009 1.429 . S
C1004 C996 1.574 . S
C1004 H999 0.949 . S
C1004 C1010 1.368 . S
C1005 C989 1.349 . S
C1005 H997 0.950 . S
C1005 C1003 1.327 . S
C1006 C994 1.349 . S
C1006 H1000 0.950 1_565 S
C1006 C1007 1.327 . S
C1007 H1001 0.950 . S
C1007 C1006 1.327 . S
C1007 C1011 1.429 . S
C1008 C991 1.574 . S
C1008 H1002 0.949 . S
C1008 C1012 1.368 . S
C1009 C990 1.429 . S
C1009 C1003 1.429 . S
C1009 C1010 1.523 . S
C1010 C991 1.368 . S
C1010 C1004 1.368 . S
C1010 C1009 1.523 . S
C1011 C995 1.429 . S
C1011 C1007 1.429 . S
C1011 C1012 1.523 . S
C1012 C996 1.368 . S
C1012 C1008 1.368 . S
C1012 C1011 1.523 . S
H1013 C988 0.950 . S
H1014 C990 0.950 . S
H1015 C991 0.949 . S
H1016 C993 0.950 . S
H1017 C995 0.950 . S
C1018 C1019 1.349 . S
C1018 C1020 1.327 . S
C1018 H1043 0.950 . S
C1019 C1018 1.349 . S
C1019 C1035 1.349 . S
C1020 C1018 1.327 . S
C1020 C1039 1.429 . S
C1020 H1044 0.950 . S
C1021 C1038 1.574 . S
C1021 C1040 1.368 . S
C1021 H1045 0.949 . S
H1022 C1026 0.949 . S
C1023 C1024 1.349 . S
C1023 C1025 1.327 . S
C1023 H1046 0.950 . S
C1024 C1023 1.349 . S
C1024 C1036 1.349 . S
C1025 C1023 1.327 . S
C1025 C1041 1.429 . S
C1025 H1047 0.950 . S
C1026 H1022 0.949 . S
C1026 C1034 1.574 . S
C1026 C1042 1.368 . S
H1027 C1035 0.950 . S
H1028 C1033 0.950 . S
H1029 C1034 0.949 . S
H1030 C1036 0.950 . S
H1031 C1037 0.950 . S
H1032 C1038 0.949 . S
C1033 H1028 0.950 . S
C1033 C1035 1.327 . S
C1033 C1039 1.429 . S
C1034 C1026 1.574 . S
C1034 H1029 0.949 . S
C1034 C1040 1.368 . S
C1035 C1019 1.349 . S
C1035 H1027 0.950 . S
C1035 C1033 1.327 . S
C1036 C1024 1.349 . S
C1036 H1030 0.950 . S
C1036 C1037 1.327 . S
C1037 H1031 0.950 . S
C1037 C1036 1.327 . S
C1037 C1041 1.429 . S
C1038 C1021 1.574 . S
C1038 H1032 0.949 . S
C1038 C1042 1.368 . S
C1039 C1020 1.429 . S
C1039 C1033 1.429 . S
C1039 C1040 1.523 . S
C1040 C1021 1.368 . S
C1040 C1034 1.368 . S
C1040 C1039 1.523 . S
C1041 C1025 1.429 . S
C1041 C1037 1.429 . S
C1041 C1042 1.523 . S
C1042 C1026 1.368 . S
C1042 C1038 1.368 . S
C1042 C1041 1.523 . S
H1043 C1018 0.950 . S
H1044 C1020 0.950 . S
H1045 C1021 0.949 . S
H1046 C1023 0.950 . S
H1047 C1025 0.950 . S
C1048 C1049 1.349 . S
C1048 C1050 1.327 . S
C1048 H1073 0.950 . S
C1049 C1048 1.349 . S
C1049 C1065 1.349 . S
C1050 C1048 1.327 . S
C1050 C1069 1.429 . S
C1050 H1074 0.950 . S
C1051 C1068 1.574 . S
C1051 C1070 1.368 . S
C1051 H1075 0.949 . S
H1052 C1056 0.949 . S
C1053 C1054 1.349 . S
C1053 C1055 1.327 . S
C1053 H1076 0.950 . S
C1054 C1053 1.349 . S
C1054 C1066 1.349 . S
C1055 C1053 1.327 . S
C1055 C1071 1.429 . S
C1055 H1077 0.950 . S
C1056 H1052 0.949 . S
C1056 C1064 1.574 . S
C1056 C1072 1.368 . S
H1057 C1065 0.950 . S
H1058 C1063 0.950 . S
H1059 C1064 0.949 . S
H1060 C1066 0.950 . S
H1061 C1067 0.950 . S
H1062 C1068 0.949 . S
C1063 H1058 0.950 . S
C1063 C1065 1.327 . S
C1063 C1069 1.429 . S
C1064 C1056 1.574 . S
C1064 H1059 0.949 . S
C1064 C1070 1.368 . S
C1065 C1049 1.349 . S
C1065 H1057 0.950 . S
C1065 C1063 1.327 . S
C1066 C1054 1.349 . S
C1066 H1060 0.950 . S
C1066 C1067 1.327 . S
C1067 H1061 0.950 . S
C1067 C1066 1.327 . S
C1067 C1071 1.429 . S
C1068 C1051 1.574 . S
C1068 H1062 0.949 . S
C1068 C1072 1.368 . S
C1069 C1050 1.429 . S
C1069 C1063 1.429 . S
C1069 C1070 1.523 . S
C1070 C1051 1.368 . S
C1070 C1064 1.368 . S
C1070 C1069 1.523 . S
C1071 C1055 1.429 . S
C1071 C1067 1.429 . S
C1071 C1072 1.523 . S
C1072 C1056 1.368 . S
C1072 C1068 1.368 . S
C1072 C1071 1.523 . S
H1073 C1048 0.950 . S
H1074 C1050 0.950 . S
H1075 C1051 0.949 . S
H1076 C1053 0.950 . S
H1077 C1055 0.950 . S
C1078 C1079 1.349 . S
C1078 C1080 1.327 . S
C1078 H1103 0.950 . S
C1079 C1078 1.349 . S
C1079 C1095 1.349 . S
C1080 C1078 1.327 . S
C1080 C1099 1.429 . S
C1080 H1104 0.950 . S
C1081 C1098 1.574 . S
C1081 C1100 1.368 . S
C1081 H1105 0.949 . S
H1082 C1086 0.949 . S
C1083 C1084 1.349 . S
C1083 C1085 1.327 . S
C1083 H1106 0.950 1_545 S
C1084 C1083 1.349 . S
C1084 C1096 1.349 . S
C1085 C1083 1.327 . S
C1085 C1101 1.429 . S
C1085 H1107 0.950 . S
C1086 H1082 0.949 . S
C1086 C1094 1.574 . S
C1086 C1102 1.368 . S
H1087 C1095 0.950 . S
H1088 C1093 0.950 . S
H1089 C1094 0.949 . S
H1090 C1096 0.950 . S
H1091 C1097 0.950 . S
H1092 C1098 0.949 . S
C1093 H1088 0.950 . S
C1093 C1095 1.327 . S
C1093 C1099 1.429 . S
C1094 C1086 1.574 . S
C1094 H1089 0.949 . S
C1094 C1100 1.368 . S
C1095 C1079 1.349 . S
C1095 H1087 0.950 . S
C1095 C1093 1.327 . S
C1096 C1084 1.349 . S
C1096 H1090 0.950 . S
C1096 C1097 1.327 . S
C1097 H1091 0.950 . S
C1097 C1096 1.327 . S
C1097 C1101 1.429 . S
C1098 C1081 1.574 . S
C1098 H1092 0.949 . S
C1098 C1102 1.368 . S
C1099 C1080 1.429 . S
C1099 C1093 1.429 . S
C1099 C1100 1.523 . S
C1100 C1081 1.368 . S
C1100 C1094 1.368 . S
C1100 C1099 1.523 . S
C1101 C1085 1.429 . S
C1101 C1097 1.429 . S
C1101 C1102 1.523 . S
C1102 C1086 1.368 . S
C1102 C1098 1.368 . S
C1102 C1101 1.523 . S
H1103 C1078 0.950 . S
H1104 C1080 0.950 . S
H1105 C1081 0.949 . S
H1106 C1083 0.950 1_565 S
H1107 C1085 0.950 . S
C1108 C1109 1.349 . S
C1108 C1110 1.327 . S
C1108 H1133 0.950 1_545 S
C1109 C1108 1.349 . S
C1109 C1125 1.349 . S
C1110 C1108 1.327 . S
C1110 C1129 1.429 . S
C1110 H1134 0.950 . S
C1111 C1128 1.574 . S
C1111 C1130 1.368 . S
C1111 H1135 0.949 . S
H1112 C1116 0.949 . S
C1113 C1114 1.349 . S
C1113 C1115 1.327 . S
C1113 H1136 0.950 . S
C1114 C1113 1.349 . S
C1114 C1126 1.349 . S
C1115 C1113 1.327 . S
C1115 C1131 1.429 . S
C1115 H1137 0.950 . S
C1116 H1112 0.949 . S
C1116 C1124 1.574 . S
C1116 C1132 1.368 . S
H1117 C1125 0.950 . S
H1118 C1123 0.950 . S
H1119 C1124 0.949 . S
H1120 C1126 0.950 . S
H1121 C1127 0.950 . S
H1122 C1128 0.949 . S
C1123 H1118 0.950 . S
C1123 C1125 1.327 . S
C1123 C1129 1.429 . S
C1124 C1116 1.574 . S
C1124 H1119 0.949 . S
C1124 C1130 1.368 . S
C1125 C1109 1.349 . S
C1125 H1117 0.950 . S
C1125 C1123 1.327 . S
C1126 C1114 1.349 . S
C1126 H1120 0.950 . S
C1126 C1127 1.327 . S
C1127 H1121 0.950 . S
C1127 C1126 1.327 . S
C1127 C1131 1.429 . S
C1128 C1111 1.574 . S
C1128 H1122 0.949 . S
C1128 C1132 1.368 . S
C1129 C1110 1.429 . S
C1129 C1123 1.429 . S
C1129 C1130 1.523 . S
C1130 C1111 1.368 . S
C1130 C1124 1.368 . S
C1130 C1129 1.523 . S
C1131 C1115 1.429 . S
C1131 C1127 1.429 . S
C1131 C1132 1.523 . S
C1132 C1116 1.368 . S
C1132 C1128 1.368 . S
C1132 C1131 1.523 . S
H1133 C1108 0.950 1_565 S
H1134 C1110 0.950 . S
H1135 C1111 0.949 . S
H1136 C1113 0.950 . S
H1137 C1115 0.950 . S
C1138 C1139 1.349 . S
C1138 C1140 1.327 . S
C1138 H1163 0.950 . S
C1139 C1138 1.349 . S
C1139 C1155 1.349 . S
C1140 C1138 1.327 . S
C1140 C1159 1.429 . S
C1140 H1164 0.950 . S
C1141 C1158 1.574 . S
C1141 C1160 1.368 . S
C1141 H1165 0.949 . S
H1142 C1146 0.949 . S
C1143 C1144 1.349 . S
C1143 C1145 1.327 . S
C1143 H1166 0.950 . S
C1144 C1143 1.349 . S
C1144 C1156 1.349 . S
C1145 C1143 1.327 . S
C1145 C1161 1.429 . S
C1145 H1167 0.950 . S
C1146 H1142 0.949 . S
C1146 C1154 1.574 . S
C1146 C1162 1.368 . S
H1147 C1155 0.950 . S
H1148 C1153 0.950 . S
H1149 C1154 0.949 . S
H1150 C1156 0.950 . S
H1151 C1157 0.950 . S
H1152 C1158 0.949 . S
C1153 H1148 0.950 . S
C1153 C1155 1.327 . S
C1153 C1159 1.429 . S
C1154 C1146 1.574 . S
C1154 H1149 0.949 . S
C1154 C1160 1.368 . S
C1155 C1139 1.349 . S
C1155 H1147 0.950 . S
C1155 C1153 1.327 . S
C1156 C1144 1.349 . S
C1156 H1150 0.950 . S
C1156 C1157 1.327 . S
C1157 H1151 0.950 . S
C1157 C1156 1.327 . S
C1157 C1161 1.429 . S
C1158 C1141 1.574 . S
C1158 H1152 0.949 . S
C1158 C1162 1.368 . S
C1159 C1140 1.429 . S
C1159 C1153 1.429 . S
C1159 C1160 1.523 . S
C1160 C1141 1.368 . S
C1160 C1154 1.368 . S
C1160 C1159 1.523 . S
C1161 C1145 1.429 . S
C1161 C1157 1.429 . S
C1161 C1162 1.523 . S
C1162 C1146 1.368 . S
C1162 C1158 1.368 . S
C1162 C1161 1.523 . S
H1163 C1138 0.950 . S
H1164 C1140 0.950 . S
H1165 C1141 0.949 . S
H1166 C1143 0.950 . S
H1167 C1145 0.950 . S
C209 C4 0.933 . S
C214 C56 0.933 . S
C239 C69 0.933 . S
C244 C23 0.933 . S
C269 C36 0.933 . S
C274 C88 0.933 . S
C299 C49 0.933 . S
C304 C101 0.933 . S
C329 C108 0.933 . S
C334 C160 0.933 . S
C359 C173 0.933 . S
C364 C127 0.933 . S
C389 C140 0.933 . S
C394 C192 0.933 . S
C419 C147 0.933 . S
C424 C205 0.933 . S
C449 C10 1.604 . S
C454 C198 1.607 . S
C479 C161 1.607 . S
C484 C17 1.604 . S
C509 C30 1.604 . S
C514 C174 1.607 . S
C539 C185 1.607 . S
C544 C43 1.604 . S
C569 C120 1.607 . S
C574 C62 1.604 . S
C599 C133 1.607 . S
C604 C75 1.604 . S
C629 C148 1.607 . S
C634 C82 1.604 . S
C659 C109 1.607 . S
C664 C95 1.604 . S
C689 C114 1.604 . S
C694 C94 1.607 . S
C719 C57 1.607 . S
C724 C121 1.604 . S
C749 C70 1.607 . S
C754 C134 1.604 . S
C779 C153 1.604 . S
C784 C81 1.607 . S
C809 C16 1.607 . S
C814 C166 1.604 . S
C839 C179 1.604 . S
C844 C29 1.607 . S
C869 C186 1.604 . S
C874 C42 1.607 . S
C899 C199 1.604 . S
C904 C5 1.607 . S
C929 C96 1.083 . S
C934 C3 1.083 . S
C959 C18 1.083 . S
C964 C55 1.083 . S
C989 C31 1.083 . S
C994 C68 1.083 . S
C1019 C44 1.083 . S
C1024 C83 1.083 . S
C1049 C200 1.083 . S
C1054 C107 1.083 . S
C1079 C159 1.083 . S
C1084 C122 1.083 . S
C1109 C172 1.083 . S
C1114 C135 1.083 . S
C1139 C187 1.083 . S
C1144 C146 1.083 . S
