# Generated by pormake.
# Topology umh, (4)-cn, num edge types: 1
# Building blocks:
#     Node 0, Type 0, BuildingBlock: NAWXER_clean_sbu_0, # of connection points: 4
#     Node 1, Type 0, BuildingBlock: NAWXER_clean_sbu_0, # of connection points: 4
#     Node 2, Type 0, BuildingBlock: NAWXER_clean_sbu_0, # of connection points: 4
#     Node 3, Type 0, BuildingBlock: NAWXER_clean_sbu_0, # of connection points: 4
#     Node 4, Type 0, BuildingBlock: NAWXER_clean_sbu_0, # of connection points: 4
#     Node 5, Type 0, BuildingBlock: NAWXER_clean_sbu_0, # of connection points: 4
#     Node 6, Type 0, BuildingBlock: NAWXER_clean_sbu_0, # of connection points: 4
#     Node 7, Type 0, BuildingBlock: NAWXER_clean_sbu_0, # of connection points: 4
#     Node 8, Type 0, BuildingBlock: NAWXER_clean_sbu_0, # of connection points: 4
#     Node 9, Type 0, BuildingBlock: NAWXER_clean_sbu_0, # of connection points: 4
#     Node 10, Type 0, BuildingBlock: NAWXER_clean_sbu_0, # of connection points: 4
#     Node 11, Type 0, BuildingBlock: NAWXER_clean_sbu_0, # of connection points: 4
#     Node 12, Type 0, BuildingBlock: NAWXER_clean_sbu_0, # of connection points: 4
#     Node 13, Type 0, BuildingBlock: NAWXER_clean_sbu_0, # of connection points: 4
#     Node 14, Type 0, BuildingBlock: NAWXER_clean_sbu_0, # of connection points: 4
#     Node 15, Type 0, BuildingBlock: NAWXER_clean_sbu_0, # of connection points: 4
#     Edge 16, Type (0, 0), BuildingBlock: ZUJKAS_clean_linker_0, # of connection points: 2
#     Edge 17, Type (0, 0), BuildingBlock: ZUJKAS_clean_linker_0, # of connection points: 2
#     Edge 18, Type (0, 0), BuildingBlock: ZUJKAS_clean_linker_0, # of connection points: 2
#     Edge 19, Type (0, 0), BuildingBlock: ZUJKAS_clean_linker_0, # of connection points: 2
#     Edge 20, Type (0, 0), BuildingBlock: ZUJKAS_clean_linker_0, # of connection points: 2
#     Edge 21, Type (0, 0), BuildingBlock: ZUJKAS_clean_linker_0, # of connection points: 2
#     Edge 22, Type (0, 0), BuildingBlock: ZUJKAS_clean_linker_0, # of connection points: 2
#     Edge 23, Type (0, 0), BuildingBlock: ZUJKAS_clean_linker_0, # of connection points: 2
#     Edge 24, Type (0, 0), BuildingBlock: ZUJKAS_clean_linker_0, # of connection points: 2
#     Edge 25, Type (0, 0), BuildingBlock: ZUJKAS_clean_linker_0, # of connection points: 2
#     Edge 26, Type (0, 0), BuildingBlock: ZUJKAS_clean_linker_0, # of connection points: 2
#     Edge 27, Type (0, 0), BuildingBlock: ZUJKAS_clean_linker_0, # of connection points: 2
#     Edge 28, Type (0, 0), BuildingBlock: ZUJKAS_clean_linker_0, # of connection points: 2
#     Edge 29, Type (0, 0), BuildingBlock: ZUJKAS_clean_linker_0, # of connection points: 2
#     Edge 30, Type (0, 0), BuildingBlock: ZUJKAS_clean_linker_0, # of connection points: 2
#     Edge 31, Type (0, 0), BuildingBlock: ZUJKAS_clean_linker_0, # of connection points: 2
#     Edge 32, Type (0, 0), BuildingBlock: ZUJKAS_clean_linker_0, # of connection points: 2
#     Edge 33, Type (0, 0), BuildingBlock: ZUJKAS_clean_linker_0, # of connection points: 2
#     Edge 34, Type (0, 0), BuildingBlock: ZUJKAS_clean_linker_0, # of connection points: 2
#     Edge 35, Type (0, 0), BuildingBlock: ZUJKAS_clean_linker_0, # of connection points: 2
#     Edge 36, Type (0, 0), BuildingBlock: ZUJKAS_clean_linker_0, # of connection points: 2
#     Edge 37, Type (0, 0), BuildingBlock: ZUJKAS_clean_linker_0, # of connection points: 2
#     Edge 38, Type (0, 0), BuildingBlock: ZUJKAS_clean_linker_0, # of connection points: 2
#     Edge 39, Type (0, 0), BuildingBlock: ZUJKAS_clean_linker_0, # of connection points: 2
#     Edge 40, Type (0, 0), BuildingBlock: ZUJKAS_clean_linker_0, # of connection points: 2
#     Edge 41, Type (0, 0), BuildingBlock: ZUJKAS_clean_linker_0, # of connection points: 2
#     Edge 42, Type (0, 0), BuildingBlock: ZUJKAS_clean_linker_0, # of connection points: 2
#     Edge 43, Type (0, 0), BuildingBlock: ZUJKAS_clean_linker_0, # of connection points: 2
#     Edge 44, Type (0, 0), BuildingBlock: ZUJKAS_clean_linker_0, # of connection points: 2
#     Edge 45, Type (0, 0), BuildingBlock: ZUJKAS_clean_linker_0, # of connection points: 2
#     Edge 46, Type (0, 0), BuildingBlock: ZUJKAS_clean_linker_0, # of connection points: 2
#     Edge 47, Type (0, 0), BuildingBlock: ZUJKAS_clean_linker_0, # of connection points: 2
# Relax obj value: 0.044
# Max RMSD: 0.109
# Mean RMSD: 0.109
data_MOF--net-umh--node1-NAWXER_clean_sbu_0--edge1-ZUJKAS_clean_linker_0
_symmetry_space_group_name_H-M    P1
_symmetry_Int_Tables_number       1
_symmetry_cell_setting            triclinic
loop_
_symmetry_equiv_pos_as_xyz
'x, y, z'
_cell_length_a     52.589184
_cell_length_b     52.632246
_cell_length_c     70.370382
_cell_angle_alpha  90.133246
_cell_angle_beta   89.956624
_cell_angle_gamma 89.421845
loop_
_atom_site_label
_atom_site_type_symbol
_atom_site_fract_x
_atom_site_fract_y
_atom_site_fract_z
_atom_type_partial_charge
C0 C 0.32132 0.08939 0.10498 0.0
C1 C 0.28235 0.06855 0.16631 0.0
O2 O 0.33476 0.09585 0.11934 0.0
Zn3 Zn 0.3337 0.09303 0.1496 0.0
O4 O 0.30079 0.07732 0.10763 0.0
Zn5 Zn 0.30209 0.07639 0.13533 0.0
O6 O 0.29811 0.11593 0.14255 0.0
O7 O 0.33316 0.12887 0.1567 0.0
O8 O 0.27381 0.0629 0.14993 0.0
O9 O 0.30418 0.07903 0.16776 0.0
O10 O 0.36301 0.0717 0.15543 0.0
O11 O 0.33277 0.05032 0.14104 0.0
C12 C 0.31079 0.13359 0.15064 0.0
C13 C 0.35492 0.05089 0.14863 0.0
C14 C 0.43273 0.32214 0.67803 0.0
C15 C 0.41433 0.34472 0.61189 0.0
O16 O 0.41891 0.34224 0.67643 0.0
Zn17 Zn 0.40216 0.36481 0.65421 0.0
O18 O 0.43999 0.31037 0.66315 0.0
Zn19 Zn 0.42408 0.33295 0.64483 0.0
O20 O 0.44501 0.3675 0.64845 0.0
O21 O 0.41821 0.39741 0.65798 0.0
O22 O 0.42787 0.32622 0.61781 0.0
O23 O 0.40409 0.35999 0.62396 0.0
O24 O 0.36598 0.36133 0.65899 0.0
O25 O 0.38446 0.32569 0.64952 0.0
C26 C 0.44069 0.39059 0.65348 0.0
C27 C 0.36443 0.33786 0.65484 0.0
C28 C 0.214 0.44375 0.16969 0.0
C29 C 0.17831 0.422 0.1072 0.0
O30 O 0.19227 0.433 0.17044 0.0
Zn31 Zn 0.16396 0.41856 0.15157 0.0
O32 O 0.2236 0.449 0.15357 0.0
Zn33 Zn 0.19635 0.43497 0.13802 0.0
O34 O 0.16531 0.46092 0.14268 0.0
O35 O 0.13454 0.44006 0.15685 0.0
O36 O 0.19887 0.43386 0.11034 0.0
O37 O 0.16422 0.41573 0.12126 0.0
O38 O 0.16425 0.38279 0.15864 0.0
O39 O 0.1999 0.3955 0.14526 0.0
C40 C 0.14293 0.46064 0.14991 0.0
C41 C 0.1868 0.37792 0.15301 0.0
C42 C 0.06934 0.12562 0.6515 0.0
C43 C 0.13698 0.18852 0.65011 0.0
O44 O 0.06097 0.14773 0.64681 0.0
Zn45 Zn 0.07653 0.18516 0.64242 0.0
O46 O 0.09294 0.12248 0.65465 0.0
Zn47 Zn 0.10334 0.15694 0.65023 0.0
O48 O 0.08585 0.17719 0.67357 0.0
O49 O 0.05889 0.20523 0.6616 0.0
O50 O 0.13873 0.16489 0.65361 0.0
O51 O 0.11523 0.19819 0.64579 0.0
O52 O 0.06965 0.19173 0.61571 0.0
O53 O 0.09844 0.16164 0.62008 0.0
C54 C 0.06938 0.19505 0.67603 0.0
C55 C 0.08514 0.1755 0.60878 0.0
C56 C 0.33983 0.41279 0.34843 0.0
C57 C 0.36678 0.3949 0.41373 0.0
O58 O 0.36101 0.40048 0.3492 0.0
Zn59 Zn 0.38624 0.38565 0.37077 0.0
O60 O 0.32863 0.41898 0.3638 0.0
Zn61 Zn 0.35319 0.40446 0.38123 0.0
O62 O 0.38555 0.42842 0.3774 0.0
O63 O 0.41717 0.40466 0.36661 0.0
O64 O 0.34706 0.40706 0.40834 0.0
O65 O 0.38246 0.38632 0.40124 0.0
O66 O 0.38619 0.34935 0.36584 0.0
O67 O 0.34942 0.36427 0.37636 0.0
C68 C 0.40868 0.42629 0.37179 0.0
C69 C 0.36325 0.34551 0.37069 0.0
C70 C 0.05532 0.38391 0.87822 0.0
C71 C 0.13512 0.33449 0.87434 0.0
O72 O 0.05391 0.36178 0.8857 0.0
Zn73 Zn 0.07792 0.32928 0.89039 0.0
O74 O 0.07624 0.39092 0.87091 0.0
Zn75 Zn 0.09596 0.36014 0.87599 0.0
O76 O 0.07837 0.33289 0.85792 0.0
O77 O 0.06145 0.30273 0.87541 0.0
O78 O 0.13131 0.35669 0.8677 0.0
O79 O 0.11701 0.32307 0.88291 0.0
O80 O 0.07946 0.32753 0.91803 0.0
O81 O 0.09983 0.36042 0.90632 0.0
C82 C 0.06617 0.31201 0.8591 0.0
C83 C 0.09292 0.3472 0.92067 0.0
C84 C 0.15294 0.05363 0.39009 0.0
C85 C 0.21328 0.12418 0.38871 0.0
O86 O 0.1762 0.05272 0.39505 0.0
Zn87 Zn 0.18378 0.08832 0.39024 0.0
O88 O 0.14325 0.07476 0.38449 0.0
Zn89 Zn 0.1543 0.11325 0.37995 0.0
O90 O 0.14912 0.11692 0.35259 0.0
O91 O 0.18008 0.09015 0.35999 0.0
O92 O 0.19067 0.13029 0.38353 0.0
O93 O 0.21804 0.10147 0.39387 0.0
O94 O 0.16224 0.1076 0.41189 0.0
O95 O 0.13324 0.1319 0.39818 0.0
C96 C 0.16654 0.10144 0.34737 0.0
C97 C 0.14369 0.12352 0.41325 0.0
C98 C 0.36649 0.18804 0.87422 0.0
C99 C 0.44524 0.13715 0.87792 0.0
O100 O 0.38443 0.19877 0.88346 0.0
Zn101 Zn 0.4231 0.19155 0.89141 0.0
O102 O 0.37024 0.16611 0.86701 0.0
Zn103 Zn 0.40519 0.16162 0.87586 0.0
O104 O 0.40059 0.15988 0.90611 0.0
O105 O 0.42098 0.19204 0.919 0.0
O106 O 0.42437 0.13073 0.87022 0.0
O107 O 0.44681 0.15892 0.88604 0.0
O108 O 0.44047 0.21847 0.87765 0.0
O109 O 0.42442 0.189 0.85893 0.0
C110 C 0.40736 0.17235 0.92092 0.0
C111 C 0.43684 0.20963 0.86103 0.0
C112 C 0.63531 0.89895 0.91512 0.0
C113 C 0.67316 0.89718 0.85072 0.0
O114 O 0.65487 0.91275 0.91256 0.0
Zn115 Zn 0.68161 0.92292 0.89165 0.0
O116 O 0.62687 0.88551 0.90143 0.0
Zn117 Zn 0.65218 0.89638 0.88237 0.0
O118 O 0.68521 0.87929 0.89388 0.0
O119 O 0.71304 0.90839 0.90247 0.0
O120 O 0.65361 0.88469 0.85572 0.0
O121 O 0.68416 0.91144 0.8629 0.0
O122 O 0.67422 0.95947 0.8898 0.0
O123 O 0.64281 0.93553 0.8795 0.0
C124 C 0.70669 0.88517 0.90101 0.0
C125 C 0.65199 0.95757 0.88275 0.0
C126 C 0.58189 0.69018 0.42525 0.0
C127 C 0.57585 0.72189 0.3601 0.0
O128 O 0.56793 0.7081 0.41893 0.0
Zn129 Zn 0.57695 0.70438 0.3924 0.0
O130 O 0.59548 0.67706 0.41358 0.0
Zn131 Zn 0.60302 0.67655 0.38335 0.0
O132 O 0.63887 0.6817 0.38288 0.0
O133 O 0.61684 0.71516 0.39273 0.0
O134 O 0.59089 0.70263 0.36147 0.0
O135 O 0.56298 0.7288 0.37453 0.0
O136 O 0.55999 0.66833 0.38465 0.0
O137 O 0.59178 0.64393 0.37511 0.0
C138 C 0.63829 0.70459 0.38864 0.0
C139 C 0.5682 0.64686 0.37827 0.0
C140 C 0.79051 0.63406 0.90474 0.0
C141 C 0.84788 0.563 0.88729 0.0
O142 O 0.81229 0.64036 0.89828 0.0
Zn143 Zn 0.84643 0.62394 0.88747 0.0
O144 O 0.78442 0.6107 0.90584 0.0
Zn145 Zn 0.81672 0.59705 0.89587 0.0
O146 O 0.8412 0.60876 0.91776 0.0
O147 O 0.87058 0.63502 0.90739 0.0
O148 O 0.82536 0.56064 0.8937 0.0
O149 O 0.85671 0.58525 0.88452 0.0
O150 O 0.84566 0.63609 0.86087 0.0
O151 O 0.8145 0.60981 0.86756 0.0
C152 C 0.86036 0.62283 0.92103 0.0
C153 C 0.82564 0.62442 0.85576 0.0
C154 C 0.88121 0.82312 0.38658 0.0
C155 C 0.96556 0.85932 0.37998 0.0
O156 O 0.88703 0.8443 0.37918 0.0
Zn157 Zn 0.92323 0.84029 0.38223 0.0
O158 O 0.89885 0.80826 0.39275 0.0
Zn159 Zn 0.93994 0.80794 0.39483 0.0
O160 O 0.94394 0.8052 0.42203 0.0
O161 O 0.92632 0.84139 0.41288 0.0
O162 O 0.96664 0.83734 0.38783 0.0
O163 O 0.94433 0.86771 0.37402 0.0
O164 O 0.93061 0.80946 0.36282 0.0
O165 O 0.94901 0.77881 0.37919 0.0
C166 C 0.9343 0.82676 0.42622 0.0
C167 C 0.94013 0.78695 0.36354 0.0
C168 C 0.68772 0.61931 0.67939 0.0
C169 C 0.64693 0.63077 0.61722 0.0
O170 O 0.69425 0.60242 0.66713 0.0
Zn171 Zn 0.68562 0.5921 0.63844 0.0
O172 O 0.67035 0.63533 0.67519 0.0
Zn173 Zn 0.6649 0.62427 0.64899 0.0
O174 O 0.64518 0.58904 0.65134 0.0
O175 O 0.67039 0.55883 0.64019 0.0
O176 O 0.64287 0.64377 0.63221 0.0
O177 O 0.66207 0.6115 0.61792 0.0
O178 O 0.71929 0.59556 0.62741 0.0
O179 O 0.70143 0.63176 0.63671 0.0
C180 C 0.64921 0.56554 0.64741 0.0
C181 C 0.72019 0.6196 0.62926 0.0
C182 C 0.90311 0.66176 0.18687 0.0
C183 C 0.9006 0.63246 0.12021 0.0
O184 O 0.91235 0.67687 0.17449 0.0
Zn185 Zn 0.91788 0.68058 0.14488 0.0
O186 O 0.89279 0.64116 0.18141 0.0
Zn187 Zn 0.8992 0.6454 0.15396 0.0
O188 O 0.93953 0.64434 0.15346 0.0
O189 O 0.95534 0.68072 0.14341 0.0
O190 O 0.89096 0.62028 0.13408 0.0
O191 O 0.91043 0.65424 0.12304 0.0
O192 O 0.89516 0.70947 0.13835 0.0
O193 O 0.87413 0.67524 0.14672 0.0
C194 C 0.95873 0.65805 0.1494 0.0
C195 C 0.87407 0.69829 0.14102 0.0
C196 C 0.86559 0.88879 0.61832 0.0
C197 C 0.82173 0.8933 0.67946 0.0
O198 O 0.84391 0.89856 0.62198 0.0
Zn199 Zn 0.84481 0.89287 0.64899 0.0
O200 O 0.87923 0.87991 0.63196 0.0
Zn201 Zn 0.87588 0.87534 0.66258 0.0
O202 O 0.8793 0.8389 0.66458 0.0
O203 O 0.84479 0.85175 0.64941 0.0
O204 O 0.84396 0.88324 0.68112 0.0
O205 O 0.81484 0.90197 0.66344 0.0
O206 O 0.87413 0.91877 0.65781 0.0
O207 O 0.90336 0.89555 0.67216 0.0
C208 C 0.85908 0.83364 0.65557 0.0
C209 C 0.89562 0.9171 0.66638 0.0
C210 C 0.53901 0.85251 0.14627 0.0
C211 C 0.6238 0.81143 0.1415 0.0
O212 O 0.55799 0.86686 0.14966 0.0
Zn213 Zn 0.59839 0.86592 0.15017 0.0
O214 O 0.54268 0.82933 0.14157 0.0
Zn215 Zn 0.58002 0.82968 0.14356 0.0
O216 O 0.58482 0.83751 0.17287 0.0
O217 O 0.60514 0.87369 0.17711 0.0
O218 O 0.60272 0.79998 0.13944 0.0
O219 O 0.62363 0.83517 0.14543 0.0
O220 O 0.60674 0.88824 0.1285 0.0
O221 O 0.5887 0.85238 0.1199 0.0
C222 C 0.59432 0.85418 0.18398 0.0
C223 C 0.59844 0.8737 0.11541 0.0
H224 H 0.42136 0.19043 0.9561 0.0
H225 H 0.40693 0.1754 0.98725 0.0
H226 H 0.35898 0.12044 0.95976 0.0
H227 H 0.37363 0.13481 0.92879 0.0
H228 H 0.35928 0.17461 1.00259 0.0
H229 H 0.39678 0.0761 0.99711 0.0
H230 H 0.40604 0.10082 0.98086 0.0
H231 H 0.37639 0.08457 0.97766 0.0
C232 C 0.40786 0.17504 0.95671 0.0
C233 C 0.39884 0.1637 0.93993 0.0
C234 C 0.39962 0.16648 0.97451 0.0
C235 C 0.38225 0.14642 0.97587 0.0
C236 C 0.37292 0.13543 0.95913 0.0
H237 H 0.30078 0.07612 0.07035 0.0
H238 H 0.31484 0.08995 0.03872 0.0
C239 C 0.38123 0.14382 0.94139 0.0
C240 C 0.37324 0.13745 0.99471 0.0
H241 H 0.36796 0.08457 0.02256 0.0
C242 C 0.36132 0.15496 1.00698 0.0
C243 C 0.37585 0.11175 1.00045 0.0
C244 C 0.38968 0.09227 0.98842 0.0
C245 C 0.35164 0.14741 0.02469 0.0
C246 C 0.35407 0.12173 0.03032 0.0
C247 C 0.36592 0.10419 0.01809 0.0
C248 C 0.34556 0.11306 0.04929 0.0
C249 C 0.33865 0.16689 0.03722 0.0
C250 C 0.35843 0.12117 0.0656 0.0
C251 C 0.35061 0.11321 0.08356 0.0
C252 C 0.32967 0.09698 0.08566 0.0
C253 C 0.31691 0.08866 0.06925 0.0
C254 C 0.32492 0.09652 0.05119 0.0
H255 H 0.33359 0.18445 0.02928 0.0
H256 H 0.32112 0.15898 0.0436 0.0
H257 H 0.35163 0.17215 0.04899 0.0
H258 H 0.37459 0.13367 0.06441 0.0
H259 H 0.36094 0.12002 0.09585 0.0
H260 H 0.4041 0.365 0.42909 0.0
H261 H 0.41169 0.35563 0.46255 0.0
H262 H 0.34866 0.40436 0.47826 0.0
H263 H 0.34049 0.4134 0.44467 0.0
H264 H 0.42393 0.38654 0.49168 0.0
H265 H 0.33193 0.34014 0.50683 0.0
H266 H 0.34238 0.34699 0.48298 0.0
H267 H 0.32842 0.37166 0.49746 0.0
C268 C 0.39176 0.37372 0.43963 0.0
C269 C 0.37158 0.38988 0.43416 0.0
C270 C 0.39616 0.36832 0.45878 0.0
C271 C 0.38051 0.37892 0.47293 0.0
C272 C 0.36061 0.39544 0.46758 0.0
H273 H 0.38193 0.37897 0.5955 0.0
H274 H 0.37455 0.38635 0.56172 0.0
C275 C 0.35607 0.40074 0.44837 0.0
C276 C 0.38546 0.37302 0.49326 0.0
H277 H 0.35826 0.34907 0.53346 0.0
C278 C 0.40962 0.3782 0.50078 0.0
C279 C 0.36682 0.362 0.50511 0.0
C280 C 0.34102 0.35462 0.49767 0.0
C281 C 0.41544 0.37319 0.5199 0.0
C282 C 0.39668 0.36256 0.53178 0.0
C283 C 0.37259 0.35725 0.52428 0.0
C284 C 0.4014 0.35766 0.55222 0.0
C285 C 0.4414 0.37986 0.52741 0.0
C286 C 0.41882 0.33886 0.55808 0.0
C287 C 0.42306 0.33446 0.57747 0.0
C288 C 0.40998 0.34888 0.59129 0.0
C289 C 0.39245 0.36758 0.58527 0.0
C290 C 0.38813 0.37182 0.56596 0.0
H291 H 0.45211 0.39202 0.51737 0.0
H292 H 0.43974 0.38989 0.54127 0.0
H293 H 0.45256 0.36214 0.52975 0.0
H294 H 0.42903 0.32752 0.54767 0.0
H295 H 0.43662 0.31989 0.58161 0.0
H296 H 0.07896 0.32717 0.95526 0.0
H297 H 0.09346 0.34046 0.98688 0.0
H298 H 0.14118 0.39704 0.96122 0.0
H299 H 0.12645 0.38442 0.92984 0.0
H300 H 0.14109 0.34056 1.00224 0.0
H301 H 0.10353 0.43923 1.00011 0.0
H302 H 0.09429 0.41542 0.98305 0.0
H303 H 0.1239 0.4319 0.98035 0.0
C304 C 0.0924 0.34256 0.95638 0.0
C305 C 0.10133 0.35487 0.93999 0.0
C306 C 0.1007 0.35012 0.97446 0.0
C307 C 0.11803 0.37013 0.97648 0.0
C308 C 0.12726 0.38208 0.96011 0.0
H309 H 0.19921 0.43647 0.07298 0.0
H310 H 0.18552 0.42367 0.04097 0.0
C311 C 0.11889 0.37469 0.94212 0.0
C312 C 0.1271 0.3781 0.9956 0.0
H313 H 0.13259 0.42952 0.0251 0.0
C314 C 0.13908 0.35998 1.00727 0.0
C315 C 0.12455 0.40348 1.00219 0.0
C316 C 0.11065 0.42357 0.99086 0.0
C317 C 0.14888 0.36661 0.02517 0.0
C318 C 0.14652 0.39199 0.03163 0.0
C319 C 0.1346 0.41013 0.02 0.0
C320 C 0.15508 0.39972 0.05086 0.0
C321 C 0.16193 0.34651 0.03701 0.0
C322 C 0.1423 0.39075 0.06693 0.0
C323 C 0.14989 0.39813 0.08511 0.0
C324 C 0.17052 0.41465 0.08768 0.0
C325 C 0.18331 0.42369 0.07152 0.0
C326 C 0.17552 0.41642 0.05324 0.0
H327 H 0.16702 0.32941 0.02847 0.0
H328 H 0.17945 0.35411 0.04363 0.0
H329 H 0.14898 0.34058 0.04861 0.0
H330 H 0.12629 0.37811 0.0654 0.0
H331 H 0.13957 0.39075 0.09719 0.0
H332 H 0.11863 0.14435 0.59011 0.0
H333 H 0.12533 0.14023 0.55595 0.0
H334 H 0.06632 0.19592 0.54566 0.0
H335 H 0.05934 0.2002 0.58006 0.0
H336 H 0.06433 0.15061 0.52193 0.0
H337 H 0.15983 0.19419 0.52211 0.0
H338 H 0.15627 0.16936 0.53934 0.0
H339 H 0.13764 0.19806 0.54153 0.0
C340 C 0.10701 0.15578 0.58066 0.0
C341 C 0.08852 0.17273 0.58789 0.0
C342 C 0.11097 0.15346 0.56109 0.0
C343 C 0.09661 0.16805 0.54826 0.0
C344 C 0.07773 0.18461 0.55533 0.0
H345 H 0.10533 0.15754 0.42256 0.0
H346 H 0.09194 0.17096 0.45454 0.0
C347 C 0.0738 0.18704 0.57499 0.0
C348 C 0.10148 0.16566 0.52752 0.0
H349 H 0.1487 0.17045 0.49442 0.0
C350 C 0.08261 0.1553 0.5158 0.0
C351 C 0.12531 0.17191 0.51956 0.0
C352 C 0.14586 0.18423 0.53123 0.0
C353 C 0.08748 0.14969 0.49654 0.0
C354 C 0.11172 0.15495 0.4888 0.0
C355 C 0.13017 0.1663 0.50037 0.0
C356 C 0.11918 0.147 0.46925 0.0
C357 C 0.06713 0.13702 0.4849 0.0
C358 C 0.13915 0.12943 0.46687 0.0
C359 C 0.14689 0.12187 0.44872 0.0
C360 C 0.13492 0.13177 0.43242 0.0
C361 C 0.11489 0.14946 0.43479 0.0
C362 C 0.10713 0.15705 0.45306 0.0
H363 H 0.05129 0.13002 0.49387 0.0
H364 H 0.05917 0.15089 0.47459 0.0
H365 H 0.07523 0.12078 0.47672 0.0
H366 H 0.14877 0.12144 0.47913 0.0
H367 H 0.16237 0.10823 0.44752 0.0
H368 H 0.57954 0.84627 0.08607 0.0
H369 H 0.58285 0.85432 0.05231 0.0
H370 H 0.62284 0.92385 0.06368 0.0
H371 H 0.6201 0.91557 0.09806 0.0
H372 H 0.56531 0.89265 0.03022 0.0
H373 H 0.67088 0.88699 0.02732 0.0
H374 H 0.65306 0.87752 0.04799 0.0
H375 H 0.65824 0.91062 0.04329 0.0
C376 C 0.58912 0.86336 0.08156 0.0
C377 C 0.59981 0.88018 0.09489 0.0
C378 C 0.59087 0.86795 0.06213 0.0
C379 C 0.60334 0.88948 0.05539 0.0
C380 C 0.61351 0.90682 0.06857 0.0
H381 H 0.63764 0.93667 0.94107 0.0
H382 H 0.62712 0.93484 0.9747 0.0
C383 C 0.61182 0.90217 0.0882 0.0
C384 C 0.60589 0.89302 0.03451 0.0
H385 H 0.64949 0.89563 0.99858 0.0
C386 C 0.58373 0.89339 0.0233 0.0
C387 C 0.62991 0.89366 0.02546 0.0
C388 C 0.65441 0.89196 0.03656 0.0
C389 C 0.58497 0.89451 1.00336 0.0
C390 C 0.60896 0.89515 0.99439 0.0
C391 C 0.63109 0.89505 1.00555 0.0
C392 C 0.61177 0.89695 0.97346 0.0
C393 C 0.56069 0.89529 0.99199 0.0
C394 C 0.60593 0.87643 0.96141 0.0
C395 C 0.61196 0.87739 0.94195 0.0
C396 C 0.62407 0.89883 0.93443 0.0
C397 C 0.62854 0.91976 0.94643 0.0
C398 C 0.62255 0.91879 0.96569 0.0
H399 H 0.54373 0.89867 1.00111 0.0
H400 H 0.56154 0.91045 0.98106 0.0
H401 H 0.55832 0.87689 0.98449 0.0
H402 H 0.59779 0.85929 0.9672 0.0
H403 H 0.60847 0.86094 0.93309 0.0
H404 H 0.61637 0.67217 0.60905 0.0
H405 H 0.5986 0.68408 0.57801 0.0
H406 H 0.63359 0.6177 0.55275 0.0
H407 H 0.65102 0.60555 0.58347 0.0
H408 H 0.62488 0.69456 0.54471 0.0
H409 H 0.56107 0.61308 0.53332 0.0
H410 H 0.57424 0.62064 0.55632 0.0
H411 H 0.59281 0.60306 0.53916 0.0
C412 C 0.62002 0.65998 0.59692 0.0
C413 C 0.63505 0.63784 0.5988 0.0
C414 C 0.60988 0.66682 0.57919 0.0
C415 C 0.61438 0.65154 0.56311 0.0
C416 C 0.62932 0.62946 0.56501 0.0
H417 H 0.607 0.65107 0.44274 0.0
H418 H 0.61177 0.64355 0.47679 0.0
C419 C 0.63944 0.62264 0.58263 0.0
C420 C 0.60483 0.65911 0.54405 0.0
H421 H 0.57295 0.63645 0.50537 0.0
C422 C 0.61311 0.68211 0.53621 0.0
C423 C 0.58943 0.64287 0.53299 0.0
C424 C 0.57865 0.61866 0.54095 0.0
C425 C 0.60763 0.68859 0.51726 0.0
C426 C 0.59326 0.67174 0.50595 0.0
C427 C 0.58409 0.64927 0.51403 0.0
C428 C 0.58916 0.67616 0.48534 0.0
C429 C 0.61831 0.71277 0.50918 0.0
C430 C 0.57446 0.69679 0.47883 0.0
C431 C 0.57161 0.70114 0.4593 0.0
C432 C 0.58345 0.68494 0.44595 0.0
C433 C 0.59769 0.664 0.45259 0.0
C434 C 0.60042 0.65962 0.47206 0.0
H435 H 0.63245 0.72158 0.51882 0.0
H436 H 0.62751 0.70903 0.49522 0.0
H437 H 0.6026 0.72665 0.50688 0.0
H438 H 0.56531 0.70958 0.48886 0.0
H439 H 0.56047 0.7174 0.45468 0.0
H440 H 0.8317 0.61494 0.95213 0.0
H441 H 0.84473 0.61369 0.98515 0.0
H442 H 0.9211 0.63357 0.969 0.0
H443 H 0.90795 0.63506 0.93532 0.0
H444 H 0.88208 0.58139 1.00066 0.0
H445 H 0.90322 0.68368 1.01261 0.0
H446 H 0.88502 0.67292 0.99245 0.0
H447 H 0.91885 0.66824 0.99292 0.0
C448 C 0.85132 0.61917 0.95548 0.0
C449 C 0.86889 0.6249 0.94104 0.0
C450 C 0.85871 0.61841 0.97443 0.0
C451 C 0.88386 0.62339 0.97957 0.0
C452 C 0.9015 0.62982 0.96533 0.0
H453 H 0.93944 0.6354 0.09549 0.0
H454 H 0.93795 0.62924 0.06114 0.0
C455 C 0.89401 0.63071 0.94613 0.0
C456 C 0.89103 0.62123 0.99991 0.0
H457 H 0.90631 0.65652 0.03891 0.0
C458 C 0.88768 0.59775 1.00902 0.0
C459 C 0.89822 0.64258 1.01077 0.0
C460 C 0.90143 0.66837 1.00182 0.0
C461 C 0.89087 0.59514 0.02875 0.0
C462 C 0.89719 0.6167 0.03971 0.0
C463 C 0.90136 0.63999 0.0305 0.0
C464 C 0.89919 0.61591 0.06079 0.0
C465 C 0.88742 0.56936 0.03765 0.0
C466 C 0.87817 0.60952 0.07219 0.0
C467 C 0.87912 0.61269 0.092 0.0
C468 C 0.90096 0.62265 0.10055 0.0
C469 C 0.92235 0.62766 0.08922 0.0
C470 C 0.9215 0.62426 0.06958 0.0
H471 H 0.89009 0.55385 0.02707 0.0
H472 H 0.90097 0.56632 0.04954 0.0
H473 H 0.86781 0.56804 0.04337 0.0
H474 H 0.86056 0.60348 0.0657 0.0
H475 H 0.86225 0.60913 0.10039 0.0
H476 H 0.94113 0.79799 0.45833 0.0
H477 H 0.9315 0.81028 0.4912 0.0
H478 H 0.90957 0.88524 0.4724 0.0
H479 H 0.91914 0.87324 0.43958 0.0
H480 H 0.94147 0.88339 0.50627 0.0
H481 H 0.85662 0.82134 0.51018 0.0
H482 H 0.88567 0.80619 0.50247 0.0
H483 H 0.87109 0.83021 0.48791 0.0
C484 C 0.93449 0.81716 0.4612 0.0
C485 C 0.93075 0.83457 0.4463 0.0
C486 C 0.92889 0.8241 0.47997 0.0
C487 C 0.91953 0.84856 0.48415 0.0
C488 C 0.91668 0.86625 0.46943 0.0
H489 H 0.83935 0.89936 0.58558 0.0
H490 H 0.85317 0.89132 0.55284 0.0
C491 C 0.92212 0.85931 0.45068 0.0
C492 C 0.91194 0.85556 0.50377 0.0
H493 H 0.86827 0.84287 0.53831 0.0
C494 C 0.9255 0.87454 0.51331 0.0
C495 C 0.89085 0.84423 0.51275 0.0
C496 C 0.87502 0.82449 0.50281 0.0
C497 C 0.91875 0.88221 0.5318 0.0
C498 C 0.898 0.87047 0.54094 0.0
C499 C 0.88423 0.85176 0.53127 0.0
C500 C 0.89041 0.87702 0.56066 0.0
C501 C 0.93361 0.90304 0.54131 0.0
C502 C 0.90682 0.87172 0.57587 0.0
C503 C 0.89899 0.87623 0.59457 0.0
C504 C 0.87454 0.88609 0.59843 0.0
C505 C 0.85833 0.89186 0.58311 0.0
C506 C 0.86616 0.88722 0.5644 0.0
H507 H 0.9448 0.91415 0.53089 0.0
H508 H 0.92073 0.9162 0.54918 0.0
H509 H 0.94706 0.89446 0.55167 0.0
H510 H 0.92547 0.86347 0.5733 0.0
H511 H 0.91195 0.8715 0.60601 0.0
H512 H 0.23698 0.3656 0.15024 0.0
H513 H 0.25689 0.32367 0.15256 0.0
H514 H 0.18377 0.29034 0.16329 0.0
H515 H 0.16346 0.33258 0.16115 0.0
H516 H 0.25061 0.28424 0.18571 0.0
H517 H 0.21898 0.25554 0.11324 0.0
H518 H 0.22222 0.28851 0.11993 0.0
H519 H 0.19627 0.2704 0.12904 0.0
C520 C 0.22504 0.34942 0.15317 0.0
C521 C 0.19856 0.35241 0.15537 0.0
C522 C 0.23652 0.3255 0.15458 0.0
C523 C 0.22179 0.30401 0.15803 0.0
C524 C 0.19542 0.30681 0.16059 0.0
H525 H 0.26041 0.14471 0.1483 0.0
H526 H 0.23939 0.18584 0.15168 0.0
C527 C 0.18387 0.33089 0.15937 0.0
C528 C 0.23413 0.27862 0.15807 0.0
H529 H 0.24433 0.22647 0.13015 0.0
C530 C 0.24918 0.27146 0.17365 0.0
C531 C 0.23226 0.26221 0.14226 0.0
C532 C 0.21668 0.26941 0.12506 0.0
C533 C 0.26222 0.248 0.17393 0.0
C534 C 0.26071 0.23167 0.15794 0.0
C535 C 0.24556 0.23896 0.14239 0.0
C536 C 0.27395 0.20659 0.15711 0.0
C537 C 0.27701 0.24073 0.19149 0.0
C538 C 0.30051 0.20441 0.1591 0.0
C539 C 0.31269 0.18066 0.15737 0.0
C540 C 0.29852 0.15883 0.15325 0.0
C541 C 0.27197 0.16116 0.15132 0.0
C542 C 0.25986 0.1847 0.15328 0.0
H543 H 0.27041 0.25161 0.20415 0.0
H544 H 0.27532 0.22012 0.19453 0.0
H545 H 0.2974 0.24503 0.18925 0.0
H546 H 0.3119 0.22111 0.16161 0.0
H547 H 0.33316 0.17949 0.15883 0.0
H548 H 0.3569 0.28683 0.65235 0.0
H549 H 0.31666 0.26415 0.65293 0.0
H550 H 0.27598 0.33502 0.66009 0.0
H551 H 0.31637 0.35809 0.65961 0.0
H552 H 0.27679 0.26672 0.68341 0.0
H553 H 0.24439 0.29815 0.61178 0.0
H554 H 0.27743 0.29884 0.61875 0.0
H555 H 0.25552 0.32202 0.62808 0.0
C556 C 0.33944 0.29769 0.65407 0.0
C557 C 0.33987 0.32433 0.65585 0.0
C558 C 0.31646 0.28464 0.65444 0.0
C559 C 0.29339 0.29793 0.6564 0.0
C560 C 0.29363 0.32448 0.6584 0.0
H561 H 0.13864 0.24036 0.64785 0.0
H562 H 0.1759 0.26756 0.65045 0.0
C563 C 0.3167 0.33759 0.65819 0.0
C564 C 0.2692 0.28375 0.65622 0.0
H565 H 0.21778 0.27036 0.62849 0.0
C566 C 0.26378 0.26758 0.67148 0.0
C567 C 0.2523 0.28503 0.64064 0.0
C568 C 0.2576 0.30181 0.62378 0.0
C569 C 0.24185 0.25255 0.67157 0.0
C570 C 0.22529 0.25319 0.6557 0.0
C571 C 0.23051 0.26978 0.6406 0.0
C572 C 0.20269 0.23654 0.65433 0.0
C573 C 0.2365 0.23642 0.68878 0.0
C574 C 0.20535 0.20999 0.65536 0.0
C575 C 0.18405 0.19436 0.65401 0.0
C576 C 0.15967 0.20497 0.65132 0.0
C577 C 0.15712 0.23154 0.64993 0.0
C578 C 0.17841 0.24715 0.65142 0.0
H579 H 0.24617 0.24389 0.70164 0.0
H580 H 0.21578 0.23542 0.6917 0.0
H581 H 0.24378 0.21685 0.68621 0.0
H582 H 0.22396 0.2013 0.65707 0.0
H583 H 0.18674 0.17398 0.65497 0.0
H584 H 0.38847 0.29951 0.36826 0.0
H585 H 0.36973 0.2569 0.3699 0.0
H586 H 0.29495 0.29064 0.37447 0.0
H587 H 0.3133 0.33296 0.37303 0.0
H588 H 0.33318 0.23931 0.40203 0.0
H589 H 0.29372 0.23656 0.3289 0.0
H590 H 0.32047 0.25609 0.33537 0.0
H591 H 0.28872 0.26592 0.34157 0.0
C592 C 0.36802 0.2978 0.36946 0.0
C593 C 0.35237 0.31963 0.37049 0.0
C594 C 0.35739 0.27349 0.37047 0.0
C595 C 0.33098 0.27071 0.37221 0.0
C596 C 0.31537 0.29242 0.373 0.0
H597 H 0.20668 0.1749 0.38344 0.0
H598 H 0.23899 0.20717 0.37958 0.0
C599 C 0.32593 0.3166 0.37221 0.0
C600 C 0.31925 0.24532 0.37364 0.0
H601 H 0.27644 0.20739 0.35121 0.0
C602 C 0.32119 0.23192 0.39081 0.0
C603 C 0.30368 0.23586 0.35896 0.0
C604 C 0.30159 0.24919 0.34007 0.0
C605 C 0.30654 0.21013 0.39414 0.0
C606 C 0.28988 0.20147 0.37978 0.0
C607 C 0.28915 0.2141 0.36223 0.0
C608 C 0.27085 0.18136 0.3833 0.0
C609 C 0.30777 0.1975 0.41333 0.0
C610 C 0.278 0.15603 0.38693 0.0
C611 C 0.25938 0.13732 0.38927 0.0
C612 C 0.2334 0.14371 0.38784 0.0
C613 C 0.22648 0.1692 0.38454 0.0
C614 C 0.24495 0.18774 0.38229 0.0
H615 H 0.3188 0.20877 0.42378 0.0
H616 H 0.28832 0.19459 0.41903 0.0
H617 H 0.31703 0.17856 0.41185 0.0
H618 H 0.2979 0.15062 0.38753 0.0
H619 H 0.26533 0.11784 0.3917 0.0
H620 H 0.32939 0.18097 0.84714 0.0
H621 H 0.29061 0.20669 0.84252 0.0
H622 H 0.30928 0.25124 0.89202 0.0
H623 H 0.34817 0.22645 0.89624 0.0
H624 H 0.24964 0.21469 0.86313 0.0
H625 H 0.29694 0.30699 0.85493 0.0
H626 H 0.31441 0.27732 0.85468 0.0
H627 H 0.30628 0.29253 0.8769 0.0
C628 C 0.32516 0.19627 0.857 0.0
C629 C 0.34199 0.20186 0.87192 0.0
C630 C 0.30306 0.21102 0.85432 0.0
C631 C 0.29737 0.23148 0.86657 0.0
C632 C 0.31368 0.23628 0.88191 0.0
H633 H 0.15334 0.29575 0.8959 0.0
H634 H 0.1925 0.27138 0.89165 0.0
C635 C 0.33583 0.22188 0.88442 0.0
C636 C 0.27401 0.24733 0.86395 0.0
H637 H 0.25262 0.30888 0.86422 0.0
C638 C 0.25035 0.23528 0.86307 0.0
C639 C 0.27479 0.27424 0.86332 0.0
C640 C 0.29951 0.28847 0.86228 0.0
C641 C 0.2275 0.24935 0.86275 0.0
C642 C 0.22826 0.27623 0.86401 0.0
C643 C 0.25193 0.2883 0.86369 0.0
C644 C 0.20482 0.29196 0.86674 0.0
C645 C 0.2028 0.23516 0.86109 0.0
C646 C 0.19927 0.31275 0.85484 0.0
C647 C 0.17699 0.32725 0.85755 0.0
C648 C 0.15987 0.32108 0.87214 0.0
C649 C 0.16592 0.30077 0.88433 0.0
C650 C 0.18823 0.28661 0.8818 0.0
H651 H 0.20556 0.21689 0.85337 0.0
H652 H 0.19569 0.23062 0.87553 0.0
H653 H 0.18809 0.24657 0.85356 0.0
H654 H 0.21194 0.31749 0.84326 0.0
H655 H 0.17284 0.34278 0.84793 0.0
H656 H 0.70179 0.86062 0.93429 0.0
H657 H 0.71694 0.81737 0.941 0.0
H658 H 0.75954 0.8173 0.88859 0.0
H659 H 0.74458 0.86068 0.88206 0.0
H660 H 0.70424 0.77802 0.91742 0.0
H661 H 0.80898 0.78213 0.92486 0.0
H662 H 0.78879 0.80995 0.92704 0.0
H663 H 0.79737 0.79789 0.90395 0.0
C664 C 0.71547 0.8518 0.92475 0.0
C665 C 0.72271 0.86416 0.90797 0.0
C666 C 0.72383 0.82699 0.92844 0.0
C667 C 0.7395 0.81408 0.91537 0.0
C668 C 0.74794 0.82701 0.89911 0.0
H669 H 0.75234 0.65666 0.88497 0.0
H670 H 0.73672 0.70016 0.89024 0.0
C671 C 0.73956 0.85187 0.89543 0.0
C672 C 0.7443 0.78632 0.91747 0.0
H673 H 0.79136 0.74122 0.9185 0.0
C674 C 0.72331 0.76998 0.91791 0.0
C675 C 0.76912 0.77581 0.91822 0.0
C676 C 0.79236 0.79235 0.91868 0.0
C677 C 0.72648 0.74344 0.91844 0.0
C678 C 0.75131 0.7329 0.91831 0.0
C679 C 0.77229 0.74926 0.91851 0.0
C680 C 0.75618 0.70505 0.9171 0.0
C681 C 0.70323 0.72692 0.91911 0.0
C682 C 0.77168 0.69301 0.93067 0.0
C683 C 0.78044 0.66814 0.92769 0.0
C684 C 0.77374 0.65483 0.91115 0.0
C685 C 0.75693 0.6662 0.89818 0.0
C686 C 0.74818 0.69114 0.90113 0.0
H687 H 0.68647 0.73749 0.92479 0.0
H688 H 0.69857 0.72054 0.90449 0.0
H689 H 0.70659 0.70982 0.92801 0.0
H690 H 0.77823 0.70338 0.94302 0.0
H691 H 0.79407 0.66003 0.93757 0.0
H692 H 0.68648 0.68848 0.38003 0.0
H693 H 0.72542 0.71337 0.38063 0.0
H694 H 0.68292 0.77893 0.40008 0.0
H695 H 0.64379 0.75414 0.39968 0.0
H696 H 0.73442 0.7592 0.35997 0.0
H697 H 0.74278 0.77212 0.43826 0.0
H698 H 0.72286 0.74813 0.42776 0.0
H699 H 0.71276 0.7808 0.42776 0.0
C700 C 0.68539 0.70813 0.38458 0.0
C701 C 0.66203 0.71931 0.38986 0.0
C702 C 0.70765 0.72233 0.38486 0.0
C703 C 0.70701 0.74789 0.39052 0.0
C704 C 0.68381 0.75912 0.39591 0.0
H705 H 0.83879 0.84685 0.37193 0.0
H706 H 0.79481 0.83175 0.37306 0.0
C707 C 0.66149 0.74493 0.39562 0.0
C708 C 0.73068 0.76277 0.39032 0.0
H709 H 0.77417 0.79108 0.41921 0.0
C710 C 0.74304 0.7664 0.37287 0.0
C711 C 0.7418 0.772 0.40723 0.0
C712 C 0.72955 0.76799 0.42637 0.0
C713 C 0.76662 0.77854 0.37192 0.0
C714 C 0.77791 0.78748 0.38885 0.0
C715 C 0.76528 0.78436 0.40626 0.0
C716 C 0.80394 0.79777 0.38901 0.0
C717 C 0.7798 0.78075 0.35294 0.0
C718 C 0.82338 0.78394 0.39797 0.0
C719 C 0.84837 0.79244 0.39737 0.0
C720 C 0.85441 0.81506 0.38785 0.0
C721 C 0.83476 0.8293 0.3793 0.0
C722 C 0.80967 0.82069 0.37988 0.0
H723 H 0.77041 0.76926 0.34175 0.0
H724 H 0.77953 0.80092 0.34838 0.0
H725 H 0.79998 0.77453 0.35408 0.0
H726 H 0.81928 0.76622 0.40511 0.0
H727 H 0.863 0.78107 0.4042 0.0
H728 H 0.88406 0.78981 0.66643 0.0
H729 H 0.87285 0.74594 0.65818 0.0
H730 H 0.80791 0.77363 0.62679 0.0
H731 H 0.81888 0.81713 0.63477 0.0
H732 H 0.82752 0.72094 0.66657 0.0
H733 H 0.84169 0.72486 0.58894 0.0
H734 H 0.85526 0.74792 0.60498 0.0
H735 H 0.82277 0.7512 0.59717 0.0
C736 C 0.86745 0.78651 0.65771 0.0
C737 C 0.85239 0.80699 0.65124 0.0
C738 C 0.86116 0.76147 0.65296 0.0
C739 C 0.83993 0.7566 0.64148 0.0
C740 C 0.8248 0.77699 0.6352 0.0
H741 H 0.72225 0.66729 0.61551 0.0
H742 H 0.75882 0.69536 0.61603 0.0
C743 C 0.83097 0.80188 0.63997 0.0
C744 C 0.83207 0.73031 0.63704 0.0
H745 H 0.81052 0.69431 0.60014 0.0
C746 C 0.82454 0.71463 0.65207 0.0
C747 C 0.82846 0.72208 0.61809 0.0
C748 C 0.83775 0.73732 0.60138 0.0
C749 C 0.81108 0.69218 0.64864 0.0
C750 C 0.80536 0.68521 0.62969 0.0
C751 C 0.8149 0.69973 0.61465 0.0
C752 C 0.78538 0.66643 0.62555 0.0
C753 C 0.80111 0.67729 0.66533 0.0
C754 C 0.78851 0.64052 0.6298 0.0
C755 C 0.76754 0.62428 0.62932 0.0
C756 C 0.7433 0.63396 0.62477 0.0
C757 C 0.74074 0.65941 0.61911 0.0
C758 C 0.76162 0.67544 0.61939 0.0
H759 H 0.80584 0.68628 0.67917 0.0
H760 H 0.78012 0.67553 0.66432 0.0
H761 H 0.80943 0.65784 0.66511 0.0
H762 H 0.80679 0.63322 0.63446 0.0
H763 H 0.76991 0.60476 0.63389 0.0
H764 H 0.86221 0.74968 0.13968 0.0
H765 H 0.8193 0.76884 0.13776 0.0
H766 H 0.78687 0.69422 0.13288 0.0
H767 H 0.82905 0.67513 0.13503 0.0
H768 H 0.77952 0.76489 0.11014 0.0
H769 H 0.75018 0.72392 0.17922 0.0
H770 H 0.78298 0.72498 0.17173 0.0
H771 H 0.76231 0.70077 0.16269 0.0
C772 C 0.84592 0.73745 0.13804 0.0
C773 C 0.84904 0.71088 0.13782 0.0
C774 C 0.82143 0.74838 0.13699 0.0
C775 C 0.79982 0.73289 0.13567 0.0
C776 C 0.80314 0.70651 0.13444 0.0
H777 H 0.63452 0.76013 0.13661 0.0
H778 H 0.6769 0.74005 0.13369 0.0
C779 C 0.82737 0.69565 0.1356 0.0
C780 C 0.77366 0.7439 0.13595 0.0
H781 H 0.71751 0.74263 0.16049 0.0
C782 C 0.766 0.76015 0.12119 0.0
C783 C 0.75593 0.73754 0.15031 0.0
C784 C 0.76328 0.72104 0.16699 0.0
C785 C 0.74103 0.76993 0.12029 0.0
C786 C 0.72334 0.76359 0.13468 0.0
C787 C 0.73097 0.74725 0.14937 0.0
C788 C 0.69754 0.77535 0.13561 0.0
C789 C 0.7337 0.78675 0.10381 0.0
C790 C 0.69512 0.80169 0.13791 0.0
C791 C 0.67118 0.81307 0.13965 0.0
C792 C 0.64888 0.79843 0.13924 0.0
C793 C 0.65125 0.77195 0.13693 0.0
C794 C 0.67543 0.76049 0.13526 0.0
H795 H 0.74648 0.78366 0.09142 0.0
H796 H 0.71379 0.78333 0.0993 0.0
H797 H 0.73525 0.80693 0.1082 0.0
H798 H 0.71184 0.81349 0.13867 0.0
H799 H 0.67026 0.8335 0.14143 0.0
H800 H 0.19878 0.06567 0.33279 0.0
H801 H 0.21095 0.05899 0.29979 0.0
H802 H 0.15927 0.11865 0.28242 0.0
H803 H 0.14704 0.12578 0.31576 0.0
H804 H 0.18294 0.04673 0.26703 0.0
H805 H 0.22872 0.14141 0.2617 0.0
H806 H 0.21937 0.128 0.28419 0.0
H807 H 0.19579 0.14127 0.26856 0.0
C808 C 0.18983 0.07738 0.32201 0.0
C809 C 0.1721 0.09649 0.32699 0.0
C810 C 0.19676 0.07341 0.3031 0.0
C811 C 0.18625 0.08847 0.28865 0.0
C812 C 0.16787 0.10702 0.29339 0.0
H813 H 0.23078 0.06042 0.16883 0.0
H814 H 0.20425 0.06415 0.19748 0.0
C815 C 0.16083 0.11101 0.31243 0.0
C816 C 0.19588 0.08533 0.26892 0.0
H817 H 0.23299 0.11401 0.23558 0.0
C818 C 0.19356 0.06154 0.25998 0.0
C819 C 0.20997 0.10461 0.25987 0.0
C820 C 0.21386 0.13023 0.26905 0.0
C821 C 0.2056 0.05629 0.24253 0.0
C822 C 0.22017 0.07539 0.23375 0.0
C823 C 0.22175 0.09942 0.24235 0.0
C824 C 0.23585 0.07037 0.21655 0.0
C825 C 0.20372 0.03003 0.23405 0.0
C826 C 0.26237 0.07221 0.21782 0.0
C827 C 0.27748 0.07011 0.20159 0.0
C828 C 0.26643 0.0662 0.18363 0.0
C829 C 0.23991 0.06321 0.18245 0.0
C830 C 0.22471 0.06538 0.1988 0.0
H831 H 0.19493 0.01634 0.24403 0.0
H832 H 0.19191 0.03089 0.221 0.0
H833 H 0.22286 0.02279 0.22995 0.0
H834 H 0.27136 0.07594 0.23138 0.0
H835 H 0.29783 0.07243 0.20305 0.0
H836 H 0.44867 0.27425 0.68826 0.0
H837 H 0.4552 0.25807 0.72058 0.0
H838 H 0.43901 0.33267 0.74333 0.0
H839 H 0.43162 0.34868 0.71127 0.0
H840 H 0.4871 0.26988 0.74981 0.0
H841 H 0.38733 0.29067 0.77088 0.0
H842 H 0.39796 0.2925 0.74657 0.0
H843 H 0.40398 0.3182 0.76283 0.0
C844 C 0.44664 0.28721 0.70016 0.0
C845 C 0.43925 0.31264 0.69723 0.0
C846 C 0.45039 0.27796 0.71862 0.0
C847 C 0.44698 0.29401 0.73443 0.0
C848 C 0.44099 0.31973 0.73142 0.0
H849 H 0.44468 0.26081 0.85663 0.0
H850 H 0.45131 0.2834 0.82649 0.0
C851 C 0.43689 0.32888 0.71305 0.0
C852 C 0.44882 0.28374 0.75405 0.0
H853 H 0.415 0.27641 0.79513 0.0
C854 C 0.47135 0.27135 0.75972 0.0
C855 C 0.42823 0.2856 0.76701 0.0
C856 C 0.40293 0.29723 0.76149 0.0
C857 C 0.4738 0.26078 0.77797 0.0
C858 C 0.4532 0.26262 0.79083 0.0
C859 C 0.43089 0.27537 0.78531 0.0
C860 C 0.45324 0.24925 0.80934 0.0
C861 C 0.49831 0.24757 0.78338 0.0
C862 C 0.45246 0.22266 0.80965 0.0
C863 C 0.44841 0.20983 0.8267 0.0
C864 C 0.44519 0.22332 0.84382 0.0
C865 C 0.44729 0.24992 0.84368 0.0
C866 C 0.451 0.26282 0.8265 0.0
H867 H 0.51425 0.25311 0.77393 0.0
H868 H 0.50349 0.25194 0.79832 0.0
H869 H 0.49583 0.22672 0.78215 0.0
H870 H 0.45374 0.21185 0.79656 0.0
H871 H 0.44693 0.18931 0.82636 0.0
H872 H 0.26453 0.45585 0.17436 0.0
H873 H 0.28878 0.45517 0.20425 0.0
H874 H 0.2203 0.43858 0.23527 0.0
H875 H 0.19599 0.43931 0.20579 0.0
H876 H 0.27337 0.48285 0.24545 0.0
H877 H 0.27894 0.37728 0.24043 0.0
H878 H 0.27627 0.39721 0.21963 0.0
H879 H 0.24916 0.39265 0.23465 0.0
C880 C 0.25456 0.4526 0.18759 0.0
C881 C 0.22835 0.44745 0.18764 0.0
C882 C 0.26844 0.45218 0.20463 0.0
C883 C 0.25628 0.44667 0.22188 0.0
C884 C 0.22999 0.44281 0.22207 0.0
H885 H 0.29562 0.43927 0.34114 0.0
H886 H 0.27697 0.44908 0.3101 0.0
C887 C 0.21616 0.44321 0.20516 0.0
C888 C 0.27104 0.44282 0.23957 0.0
H889 H 0.29314 0.39602 0.26891 0.0
C890 C 0.27794 0.46392 0.25055 0.0
C891 C 0.27696 0.4181 0.2461 0.0
C892 C 0.27013 0.3949 0.23463 0.0
C893 C 0.29024 0.46086 0.26818 0.0
C894 C 0.29543 0.43604 0.27501 0.0
C895 C 0.28906 0.41501 0.26373 0.0
C896 C 0.30728 0.43131 0.29386 0.0
C897 C 0.29768 0.48416 0.27928 0.0
C898 C 0.33029 0.41767 0.29508 0.0
C899 C 0.34091 0.41191 0.31278 0.0
C900 C 0.32865 0.41948 0.32969 0.0
C901 C 0.30562 0.43321 0.32843 0.0
C902 C 0.29502 0.43901 0.31068 0.0
H903 H 0.29853 0.50125 0.27007 0.0
H904 H 0.28331 0.48784 0.29054 0.0
H905 H 0.31645 0.48137 0.28623 0.0
H906 H 0.34 0.41139 0.2823 0.0
H907 H 0.35865 0.4013 0.31319 0.0
H908 H 0.08616 0.17474 0.70943 0.0
H909 H 0.07978 0.19122 0.74152 0.0
H910 H 0.03403 0.25272 0.71927 0.0
H911 H 0.04002 0.23612 0.68699 0.0
H912 H 0.09558 0.23743 0.75386 0.0
H913 H 0.99146 0.22914 0.76442 0.0
H914 H 0.0083 0.21254 0.74568 0.0
H915 H 1.00014 0.2456 0.74309 0.0
C916 C 0.07445 0.19161 0.71132 0.0
C917 C 0.06366 0.20415 0.69558 0.0
C918 C 0.0708 0.20098 0.72972 0.0
C919 C 0.05621 0.22305 0.73287 0.0
C920 C 0.04492 0.23536 0.71725 0.0
H921 H 0.06798 0.3307 0.82316 0.0
H922 H 0.06322 0.30756 0.79338 0.0
C923 C 0.04851 0.22593 0.69878 0.0
C924 C 0.05483 0.23429 0.75225 0.0
H925 H 0.01389 0.25435 0.78714 0.0
C926 C 0.07771 0.24088 0.76118 0.0
C927 C 0.03152 0.23864 0.76189 0.0
C928 C 0.00645 0.23091 0.75338 0.0
C929 C 0.0779 0.25232 0.7792 0.0
C930 C 0.0546 0.25754 0.78851 0.0
C931 C 0.03171 0.25038 0.7799 0.0
C932 C 0.05401 0.27185 0.80667 0.0
C933 C 0.10304 0.2591 0.7881 0.0
C934 C 0.04959 0.25956 0.82404 0.0
C935 C 0.05234 0.27279 0.84126 0.0
C936 C 0.05956 0.29847 0.84127 0.0
C937 C 0.06265 0.31089 0.82374 0.0
C938 C 0.05989 0.29773 0.80665 0.0
H939 H 0.11928 0.24942 0.7809 0.0
H940 H 0.10583 0.27992 0.78705 0.0
H941 H 0.10327 0.25395 0.8034 0.0
H942 H 0.04503 0.23954 0.82429 0.0
H943 H 0.04984 0.26267 0.85451 0.0
H944 H 0.65799 0.86765 0.8201 0.0
H945 H 0.67813 0.86528 0.78851 0.0
H946 H 0.73355 0.92031 0.8062 0.0
H947 H 0.71364 0.92313 0.8372 0.0
H948 H 0.71417 0.93093 0.77105 0.0
H949 H 0.74602 0.82998 0.7757 0.0
H950 H 0.71256 0.83598 0.77888 0.0
H951 H 0.73475 0.84754 0.79615 0.0
C952 C 0.67441 0.87926 0.81719 0.0
C953 C 0.68418 0.8955 0.83127 0.0
C954 C 0.686 0.87778 0.79918 0.0
C955 C 0.70756 0.89244 0.79504 0.0
C956 C 0.71698 0.90882 0.80901 0.0
H957 H 0.83152 0.87993 0.71636 0.0
H958 H 0.80179 0.8794 0.74309 0.0
C959 C 0.70551 0.91034 0.82683 0.0
C960 C 0.72077 0.89115 0.77634 0.0
H961 H 0.75804 0.85269 0.74845 0.0
C962 C 0.72352 0.91375 0.76598 0.0
C963 C 0.73324 0.8688 0.76986 0.0
C964 C 0.73175 0.84419 0.78073 0.0
C965 C 0.73897 0.91484 0.7497 0.0
C966 C 0.75162 0.89254 0.74329 0.0
C967 C 0.74831 0.86976 0.75334 0.0
C968 C 0.76944 0.89277 0.72682 0.0
C969 C 0.74255 0.94017 0.74009 0.0
C970 C 0.76119 0.90036 0.7087 0.0
C971 C 0.77825 0.90097 0.69341 0.0
C972 C 0.80387 0.89367 0.69585 0.0
C973 C 0.81199 0.88579 0.71397 0.0
C974 C 0.79496 0.88536 0.72926 0.0
H975 H 0.73685 0.95628 0.74946 0.0
H976 H 0.76267 0.94277 0.73577 0.0
H977 H 0.73056 0.94102 0.72714 0.0
H978 H 0.7415 0.90564 0.70633 0.0
H979 H 0.77124 0.90684 0.67962 0.0
H980 H 0.54884 0.76575 0.35259 0.0
H981 H 0.55095 0.7921 0.32393 0.0
H982 H 0.60496 0.73947 0.29919 0.0
H983 H 0.60273 0.71293 0.32749 0.0
H984 H 0.59333 0.81605 0.3074 0.0
H985 H 0.55093 0.74619 0.2579 0.0
H986 H 0.54895 0.74294 0.28338 0.0
H987 H 0.57754 0.73376 0.27099 0.0
C988 C 0.56093 0.75962 0.34095 0.0
C989 C 0.57544 0.73706 0.34231 0.0
C990 C 0.56223 0.77479 0.32463 0.0
C991 C 0.57793 0.76765 0.30933 0.0
C992 C 0.59239 0.74516 0.31066 0.0
H993 H 0.63116 0.85474 0.21168 0.0
H994 H 0.62712 0.83668 0.24378 0.0
C995 C 0.59108 0.73 0.3269 0.0
C996 C 0.57941 0.78365 0.29198 0.0
H997 H 0.57065 0.78198 0.24396 0.0
C998 C 0.58822 0.80871 0.29352 0.0
C999 C 0.57255 0.77413 0.27391 0.0
C1000 C 0.56173 0.74787 0.2714 0.0
C1001 C 0.59075 0.82432 0.27741 0.0
C1002 C 0.5846 0.81448 0.25927 0.0
C1003 C 0.57551 0.78953 0.25784 0.0
C1004 C 0.58671 0.8296 0.24148 0.0
C1005 C 0.59958 0.85128 0.27996 0.0
C1006 C 0.56536 0.83213 0.22967 0.0
C1007 C 0.56775 0.84208 0.21141 0.0
C1008 C 0.59147 0.85002 0.2046 0.0
C1009 C 0.61259 0.84919 0.21678 0.0
C1010 C 0.61026 0.83884 0.23509 0.0
H1011 H 0.59709 0.85791 0.29486 0.0
H1012 H 0.6201 0.85229 0.2764 0.0
H1013 H 0.58908 0.86442 0.27038 0.0
H1014 H 0.54701 0.82523 0.23424 0.0
H1015 H 0.5512 0.84242 0.20223 0.0
H1016 H 0.77674 0.61525 0.84656 0.0
H1017 H 0.75652 0.61728 0.81563 0.0
H1018 H 0.82641 0.64335 0.79066 0.0
H1019 H 0.84709 0.6417 0.82215 0.0
H1020 H 0.7806 0.66881 0.777 0.0
H1021 H 0.77217 0.56411 0.77433 0.0
H1022 H 0.75936 0.57752 0.79581 0.0
H1023 H 0.79284 0.58003 0.7909 0.0
C1024 C 0.78799 0.62145 0.83456 0.0
C1025 C 0.81375 0.62787 0.8368 0.0
C1026 C 0.77631 0.62259 0.81684 0.0
C1027 C 0.79007 0.62988 0.80075 0.0
C1028 C 0.81552 0.63744 0.80291 0.0
H1029 H 0.73064 0.59302 0.68899 0.0
H1030 H 0.75659 0.5974 0.71737 0.0
C1031 C 0.8273 0.63648 0.82086 0.0
C1032 C 0.77762 0.62859 0.78182 0.0
H1033 H 0.74593 0.58759 0.75283 0.0
C1034 C 0.77327 0.65104 0.77154 0.0
C1035 C 0.7683 0.60535 0.77462 0.0
C1036 C 0.77361 0.58035 0.78438 0.0
C1037 C 0.75909 0.65095 0.75456 0.0
C1038 C 0.74852 0.62788 0.74795 0.0
C1039 C 0.75365 0.60536 0.75797 0.0
C1040 C 0.7327 0.62625 0.73042 0.0
C1041 C 0.75581 0.6755 0.74378 0.0
C1042 C 0.71029 0.6408 0.72828 0.0
C1043 C 0.69533 0.63846 0.71185 0.0
C1044 C 0.7023 0.6212 0.69742 0.0
C1045 C 0.72451 0.6064 0.69982 0.0
C1046 C 0.7395 0.60894 0.71606 0.0
H1047 H 0.77085 0.68933 0.74749 0.0
H1048 H 0.75625 0.67218 0.72819 0.0
H1049 H 0.73716 0.68422 0.74752 0.0
H1050 H 0.70421 0.6538 0.73937 0.0
H1051 H 0.67835 0.65012 0.71048 0.0
H1052 H 0.92203 0.79892 0.32829 0.0
H1053 H 0.91469 0.77032 0.30158 0.0
H1054 H 0.94558 0.7077 0.33384 0.0
H1055 H 0.95328 0.73635 0.36074 0.0
H1056 H 0.9631 0.70862 0.29676 0.0
H1057 H 0.85827 0.71785 0.29782 0.0
H1058 H 0.87349 0.74817 0.2969 0.0
H1059 H 0.87794 0.72814 0.31735 0.0
C1060 C 0.92743 0.7791 0.32974 0.0
C1061 C 0.93817 0.76994 0.34674 0.0
C1062 C 0.92295 0.7627 0.31449 0.0
C1063 C 0.92892 0.73673 0.31589 0.0
C1064 C 0.9405 0.72762 0.33255 0.0
H1065 H 0.88186 0.63922 0.21874 0.0
H1066 H 0.88765 0.6523 0.25217 0.0
C1067 C 0.94501 0.74405 0.34787 0.0
C1068 C 0.92368 0.71945 0.29964 0.0
H1069 H 0.87689 0.70232 0.26858 0.0
C1070 C 0.94417 0.70685 0.29081 0.0
C1071 C 0.8989 0.71664 0.29207 0.0
C1072 C 0.87585 0.7282 0.30165 0.0
C1073 C 0.94082 0.69312 0.27387 0.0
C1074 C 0.91642 0.69219 0.26543 0.0
C1075 C 0.89562 0.7032 0.27497 0.0
C1076 C 0.91294 0.68326 0.24559 0.0
C1077 C 0.96363 0.68044 0.26477 0.0
C1078 C 0.92482 0.69657 0.23092 0.0
C1079 C 0.92143 0.68938 0.21206 0.0
C1080 C 0.90597 0.66862 0.20725 0.0
C1081 C 0.89392 0.65522 0.22196 0.0
C1082 C 0.89722 0.66265 0.24102 0.0
H1083 H 0.97848 0.67582 0.27547 0.0
H1084 H 0.9582 0.66271 0.25727 0.0
H1085 H 0.97205 0.69357 0.25423 0.0
H1086 H 0.9366 0.71283 0.23406 0.0
H1087 H 0.93108 0.70023 0.20122 0.0
H1088 H 0.4055 0.04635 0.15783 0.0
H1089 H 0.43216 0.00788 0.15672 0.0
H1090 H 0.36757 0.96405 0.13897 0.0
H1091 H 0.34079 1.00235 0.1399 0.0
H1092 H 0.39938 0.9422 0.16997 0.0
H1093 H 0.45381 0.97053 0.10582 0.0
H1094 H 0.45146 0.99408 0.12433 0.0
H1095 H 0.42333 0.9845 0.11189 0.0
C1096 C 0.39692 0.02853 0.15375 0.0
C1097 C 0.37101 0.0275 0.14888 0.0
C1098 C 0.41221 0.00659 0.15305 0.0
C1099 C 0.40188 0.98318 0.14757 0.0
C1100 C 0.37593 0.98194 0.14314 0.0
H1101 H 0.50001 0.85133 0.12039 0.0
H1102 H 0.46245 0.87975 0.1202 0.0
C1103 C 0.36068 1.00389 0.14367 0.0
C1104 C 0.41821 0.96003 0.14641 0.0
H1105 H 0.46902 0.93441 0.12264 0.0
C1106 C 0.41447 0.94036 0.15953 0.0
C1107 C 0.4376 0.9575 0.13258 0.0
C1108 C 0.44177 0.97764 0.11772 0.0
C1109 C 0.4304 0.91872 0.1597 0.0
C1110 C 0.45053 0.91674 0.14642 0.0
C1111 C 0.45355 0.93591 0.13279 0.0
C1112 C 0.47034 0.89647 0.14768 0.0
C1113 C 0.42583 0.89829 0.17426 0.0
C1114 C 0.48684 0.89609 0.16331 0.0
C1115 C 0.50821 0.88015 0.16334 0.0
C1116 C 0.5134 0.86403 0.14785 0.0
C1117 C 0.49612 0.86321 0.13266 0.0
C1118 C 0.47483 0.87957 0.13249 0.0
H1119 H 0.40603 0.89905 0.17978 0.0
H1120 H 0.42959 0.87913 0.16817 0.0
H1121 H 0.43894 0.90106 0.18642 0.0
H1122 H 0.48404 0.90923 0.17502 0.0
H1123 H 0.52143 0.88133 0.17512 0.0
H1124 H 0.64957 0.51457 0.63884 0.0
H1125 H 0.61401 0.48497 0.64126 0.0
H1126 H 0.56672 0.54463 0.66473 0.0
H1127 H 0.60192 0.57434 0.66226 0.0
H1128 H 0.58413 0.47035 0.67348 0.0
H1129 H 0.52602 0.51927 0.61845 0.0
H1130 H 0.55956 0.52506 0.62147 0.0
H1131 H 0.53683 0.53937 0.6374 0.0
C1132 C 0.63165 0.52136 0.64462 0.0
C1133 C 0.62857 0.5469 0.65022 0.0
C1134 C 0.61136 0.50443 0.64598 0.0
C1135 C 0.58761 0.51275 0.65285 0.0
C1136 C 0.58474 0.53796 0.65903 0.0
H1137 H 0.43947 0.4409 0.66411 0.0
H1138 H 0.47517 0.47052 0.66497 0.0
C1139 C 0.60496 0.55487 0.6577 0.0
C1140 C 0.56573 0.49518 0.65338 0.0
H1141 H 0.50631 0.48588 0.63521 0.0
C1142 C 0.56714 0.47368 0.66509 0.0
C1143 C 0.54355 0.49965 0.64246 0.0
C1144 C 0.54136 0.52195 0.6291 0.0
C1145 C 0.54679 0.45665 0.66636 0.0
C1146 C 0.52466 0.46102 0.65533 0.0
C1147 C 0.52323 0.48262 0.6437 0.0
C1148 C 0.50312 0.443 0.65518 0.0
C1149 C 0.549 0.43439 0.67975 0.0
C1150 C 0.50691 0.41784 0.64913 0.0
C1151 C 0.48663 0.40092 0.64864 0.0
C1152 C 0.46201 0.40884 0.65404 0.0
C1153 C 0.45818 0.43416 0.6599 0.0
C1154 C 0.47855 0.4511 0.6604 0.0
H1155 H 0.56348 0.43774 0.69094 0.0
H1156 H 0.5305 0.43043 0.6867 0.0
H1157 H 0.55492 0.41724 0.67161 0.0
H1158 H 0.52555 0.41133 0.64459 0.0
H1159 H 0.49029 0.38162 0.64392 0.0
H1160 H 0.09709 0.46934 0.16766 0.0
H1161 H 0.07145 0.50855 0.16737 0.0
H1162 H 0.12733 0.54443 0.13187 0.0
H1163 H 0.15316 0.50553 0.13215 0.0
H1164 H 0.09158 0.56257 0.17796 0.0
H1165 H 0.05437 0.55087 0.10432 0.0
H1166 H 0.06481 0.52399 0.11833 0.0
H1167 H 0.08774 0.54536 0.10867 0.0
C1168 C 0.10393 0.48555 0.15979 0.0
C1169 C 0.12718 0.48424 0.14991 0.0
C1170 C 0.0893 0.50795 0.15967 0.0
C1171 C 0.09748 0.5293 0.14952 0.0
C1172 C 0.12064 0.5281 0.1397 0.0
H1173 H 1.00164 0.66465 0.12737 0.0
H1174 H 0.04016 0.63751 0.12769 0.0
C1175 C 0.13538 0.50583 0.13992 0.0
C1176 C 0.08172 0.55281 0.14921 0.0
H1177 H 0.0397 0.58621 0.12173 0.0
C1178 C 0.08038 0.56789 0.16563 0.0
C1179 C 0.06755 0.55993 0.13299 0.0
C1180 C 0.06846 0.54425 0.11503 0.0
C1181 C 0.0646 0.58958 0.16645 0.0
C1182 C 0.04924 0.59593 0.15059 0.0
C1183 C 0.05148 0.58143 0.13387 0.0
C1184 C 0.02834 0.61515 0.15189 0.0
C1185 C 0.06437 0.60531 0.1844 0.0
C1186 C 0.0092 0.61191 0.16551 0.0
C1187 C 0.98749 0.62727 0.16535 0.0
C1188 C 0.9842 0.64621 0.15148 0.0
C1189 C 1.00385 0.65042 0.13836 0.0
C1190 C 0.02572 0.63482 0.13846 0.0
H1191 H 0.08305 0.60424 0.19173 0.0
H1192 H 0.05977 0.62555 0.18143 0.0
H1193 H 0.04985 0.59775 0.19428 0.0
H1194 H 0.01037 0.59657 0.17571 0.0
H1195 H 0.97264 0.62352 0.17563 0.0
H1196 H 0.94416 0.91917 0.68035 0.0
H1197 H 0.97303 0.95531 0.67967 0.0
H1198 H 0.91408 1.00195 0.65478 0.0
H1199 H 0.88499 0.96599 0.65545 0.0
H1200 H 0.98754 0.98116 0.64602 0.0
H1201 H 0.94199 0.04673 0.69812 0.0
H1202 H 0.93504 0.0132 0.69722 0.0
H1203 H 0.92109 0.03451 0.68017 0.0
C1204 C 0.93716 0.93721 0.67501 0.0
C1205 C 0.91221 0.93966 0.66796 0.0
C1206 C 0.95373 0.95783 0.67459 0.0
C1207 C 0.94565 0.98136 0.66732 0.0
C1208 C 0.92059 0.98408 0.66073 0.0
H1209 H 0.01833 0.12523 0.64379 0.0
H1210 H 0.98885 0.08994 0.64748 0.0
C1211 C 0.90401 0.96345 0.66107 0.0
C1212 C 0.96393 1.00251 0.66544 0.0
H1213 H 0.97553 0.06345 0.67952 0.0
C1214 C 0.98503 0.99911 0.65343 0.0
C1215 C 0.96048 0.02594 0.67501 0.0
C1216 C 0.93856 0.03036 0.68849 0.0
C1217 C 1.00255 0.01867 0.65046 0.0
C1218 C 0.9992 0.04211 0.66011 0.0
C1219 C 0.9781 0.04548 0.67214 0.0
C1220 C 0.0173 0.0634 0.65781 0.0
C1221 C 0.02407 0.01429 0.63659 0.0
C1222 C 0.04307 0.06032 0.66256 0.0
C1223 C 0.06004 0.08042 0.66035 0.0
C1224 C 0.0515 0.10412 0.65355 0.0
C1225 C 0.02559 0.10723 0.64901 0.0
C1226 C 0.00868 0.08708 0.65115 0.0
H1227 H 0.01994 0.99846 0.62661 0.0
H1228 H 0.02789 0.03167 0.62819 0.0
H1229 H 0.04157 0.00919 0.64456 0.0
H1230 H 0.05006 0.04241 0.66814 0.0
H1231 H 0.07979 0.07742 0.66415 0.0
H1232 H 0.57983 0.59967 0.36432 0.0
H1233 H 0.55202 0.56299 0.36182 0.0
H1234 H 0.48931 0.60784 0.38349 0.0
H1235 H 0.51716 0.64474 0.38627 0.0
H1236 H 0.49573 0.56122 0.40185 0.0
H1237 H 0.49571 0.54795 0.32363 0.0
H1238 H 0.52693 0.54964 0.33383 0.0
H1239 H 0.50612 0.57694 0.33482 0.0
C1240 C 0.56006 0.60189 0.36838 0.0
C1241 C 0.55072 0.62521 0.37548 0.0
C1242 C 0.54414 0.58089 0.36682 0.0
C1243 C 0.51851 0.58275 0.37221 0.0
C1244 C 0.50902 0.60604 0.37913 0.0
H1245 H 0.39552 0.47482 0.38175 0.0
H1246 H 0.42222 0.51243 0.38173 0.0
C1247 C 0.52494 0.62712 0.38068 0.0
C1248 C 0.50207 0.55999 0.37164 0.0
H1249 H 0.47858 0.51431 0.34205 0.0
C1250 C 0.49181 0.55107 0.38876 0.0
C1251 C 0.49715 0.54666 0.35456 0.0
C1252 C 0.50685 0.55588 0.33563 0.0
C1253 C 0.47714 0.52894 0.38933 0.0
C1254 C 0.47222 0.5156 0.37226 0.0
C1255 C 0.48246 0.52451 0.35513 0.0
C1256 C 0.45601 0.49268 0.37188 0.0
C1257 C 0.4675 0.51971 0.40828 0.0
C1258 C 0.46596 0.46914 0.36583 0.0
C1259 C 0.45066 0.44749 0.36573 0.0
C1260 C 0.42509 0.44907 0.37156 0.0
C1261 C 0.41516 0.47281 0.37729 0.0
C1262 C 0.43043 0.49437 0.37739 0.0
H1263 H 0.4784 0.52793 0.4203 0.0
H1264 H 0.44729 0.52556 0.40998 0.0
H1265 H 0.46862 0.49867 0.40918 0.0
H1266 H 0.48564 0.46748 0.3614 0.0
H1267 H 0.45889 0.42955 0.36116 0.0
H1268 H 0.00879 0.37444 0.8938 0.0
H1269 H 0.97101 0.40174 0.89387 0.0
H1270 H 0.01195 0.45906 0.8631 0.0
H1271 H 0.04997 0.4317 0.86278 0.0
H1272 H 0.96501 0.45022 0.90926 0.0
H1273 H 0.94684 0.45088 0.83163 0.0
H1274 H 0.968 0.42815 0.84275 0.0
H1275 H 0.97851 0.45994 0.83812 0.0
C1276 C 0.00983 0.39281 0.88695 0.0
C1277 C 0.03248 0.40081 0.8782 0.0
C1278 C 0.98815 0.4084 0.88703 0.0
C1279 C 0.98849 0.43229 0.87826 0.0
C1280 C 0.01108 0.44048 0.86963 0.0
H1281 H 0.89232 0.56261 0.86765 0.0
H1282 H 0.92387 0.52868 0.86538 0.0
C1283 C 0.03286 0.42488 0.86956 0.0
C1284 C 0.9654 0.44887 0.87869 0.0
H1285 H 0.92291 0.48034 0.85031 0.0
C1286 C 0.95563 0.45663 0.89638 0.0
C1287 C 0.9531 0.45708 0.86189 0.0
C1288 C 0.96196 0.44843 0.84251 0.0
C1289 C 0.93457 0.47322 0.89772 0.0
C1290 C 0.92259 0.48189 0.88089 0.0
C1291 C 0.93201 0.47362 0.86321 0.0
C1292 C 0.90193 0.50143 0.88125 0.0
C1293 C 0.92602 0.4822 0.9171 0.0
C1294 C 0.87859 0.49725 0.89049 0.0
C1295 C 0.86029 0.51682 0.89186 0.0
C1296 C 0.86509 0.54085 0.884 0.0
C1297 C 0.888 0.54445 0.87404 0.0
C1298 C 0.90612 0.52501 0.87267 0.0
H1299 H 0.94034 0.47784 0.92826 0.0
H1300 H 0.9223 0.50301 0.91708 0.0
H1301 H 0.90808 0.47257 0.92095 0.0
H1302 H 0.87472 0.47902 0.89692 0.0
H1303 H 0.84284 0.51341 0.89959 0.0
H1304 H 0.01379 0.84823 0.39262 0.0
H1305 H 0.04965 0.87747 0.39536 0.0
H1306 H 1.00458 0.93683 0.3695 0.0
H1307 H 0.96875 0.90792 0.36665 0.0
H1308 H 0.07497 0.91033 0.36553 0.0
H1309 H 0.0268 0.96332 0.42389 0.0
H1310 H 0.01811 0.9314 0.4172 0.0
H1311 H 0.00766 0.95795 0.40313 0.0
C1312 C 0.01161 0.8674 0.38727 0.0
C1313 C 0.9883 0.87577 0.37954 0.0
C1314 C 0.03212 0.88406 0.38886 0.0
C1315 C 0.02959 0.90934 0.38286 0.0
C1316 C 0.00678 0.91743 0.3744 0.0
H1317 H 0.10309 0.05083 0.38019 0.0
H1318 H 0.07601 0.01371 0.37966 0.0
C1319 C 0.98634 0.90083 0.37274 0.0
C1320 C 0.05018 0.92781 0.38619 0.0
H1321 H 0.06306 0.98261 0.41016 0.0
C1322 C 0.07262 0.92598 0.37545 0.0
C1323 C 0.04703 0.94803 0.39926 0.0
C1324 C 0.02371 0.95029 0.41168 0.0
C1325 C 0.09145 0.94473 0.3767 0.0
C1326 C 0.0878 0.96552 0.38924 0.0
C1327 C 0.06581 0.96668 0.40054 0.0
C1328 C 0.10511 0.98761 0.38955 0.0
C1329 C 0.11446 0.94286 0.36394 0.0
C1330 C 0.13057 0.98535 0.39543 0.0
C1331 C 0.14632 0.00674 0.39574 0.0
C1332 C 0.13675 0.03069 0.39025 0.0
C1333 C 0.11118 0.03275 0.38452 0.0
C1334 C 0.0956 0.0115 0.3842 0.0
H1335 H 0.11233 0.92798 0.35285 0.0
H1336 H 0.11797 0.96135 0.35688 0.0
H1337 H 0.13144 0.93807 0.37263 0.0
H1338 H 0.13819 0.96714 0.39991 0.0
H1339 H 0.16589 1.00452 0.40027 0.0
H1340 H 0.65471 1.00538 0.89882 0.0
H1341 H 0.62182 0.03901 0.89732 0.0
H1342 H 0.57849 0.99349 0.85826 0.0
H1343 H 0.61086 0.96013 0.85965 0.0
H1344 H 0.59641 0.06573 0.86381 0.0
H1345 H 0.53215 1.00513 0.9065 0.0
H1346 H 0.56615 1.00002 0.90564 0.0
H1347 H 0.5465 0.98978 0.88627 0.0
C1348 C 0.63844 1.00285 0.8896 0.0
C1349 C 0.63525 0.97998 0.87953 0.0
C1350 C 0.61964 0.02199 0.88882 0.0
C1351 C 0.59753 0.01846 0.87795 0.0
C1352 C 0.5952 0.99639 0.86697 0.0
H1353 H 0.44988 0.08962 0.86185 0.0
H1354 H 0.48761 0.06185 0.86155 0.0
C1355 C 0.61379 0.97736 0.86777 0.0
C1356 C 0.57597 0.03682 0.87881 0.0
H1357 H 0.51378 0.04186 0.89249 0.0
C1358 C 0.5784 0.06069 0.87023 0.0
C1359 C 0.55249 0.03006 0.88712 0.0
C1360 C 0.54909 1.00494 0.89706 0.0
C1361 C 0.55765 0.07774 0.86924 0.0
C1362 C 0.53403 0.07083 0.87736 0.0
C1363 C 0.5318 0.04707 0.88617 0.0
C1364 C 0.51142 0.08801 0.87707 0.0
C1365 C 0.56096 0.10264 0.85901 0.0
C1366 C 0.51216 0.11177 0.88608 0.0
C1367 C 0.49068 0.12763 0.88628 0.0
C1368 C 0.46787 0.12003 0.87757 0.0
C1369 C 0.46711 0.0961 0.86866 0.0
C1370 C 0.48866 0.08022 0.86847 0.0
H1371 H 0.57767 0.10214 0.84935 0.0
H1372 H 0.54376 0.10759 0.8506 0.0
H1373 H 0.564 0.11795 0.86961 0.0
H1374 H 0.52927 0.11795 0.8932 0.0
H1375 H 0.49198 0.14586 0.89338 0.0
loop_
_geom_bond_atom_site_label_1
_geom_bond_atom_site_label_2
_geom_bond_distance
_geom_bond_site_symmetry_2
_ccdc_geom_bond_type
C0 O2 1.247 . S
C0 O4 1.258 . S
C1 O8 1.247 . S
C1 O9 1.258 . S
O2 C0 1.247 . S
O2 Zn3 2.028 . S
Zn3 O2 2.028 . S
Zn3 O7 2.035 . S
Zn3 O9 2.035 . S
Zn3 O10 2.028 . S
O4 C0 1.258 . S
O4 Zn5 2.035 . S
Zn5 O4 2.035 . S
Zn5 O6 2.028 . S
Zn5 O8 2.028 . S
Zn5 O11 2.035 . S
O6 Zn5 2.028 . S
O6 C12 1.247 . S
O7 Zn3 2.035 . S
O7 C12 1.258 . S
O8 C1 1.247 . S
O8 Zn5 2.028 . S
O9 C1 1.258 . S
O9 Zn3 2.035 . S
O10 Zn3 2.028 . S
O10 C13 1.247 . S
O11 Zn5 2.035 . S
O11 C13 1.258 . S
C12 O6 1.247 . S
C12 O7 1.258 . S
C13 O10 1.247 . S
C13 O11 1.258 . S
C14 O16 1.247 . S
C14 O18 1.258 . S
C15 O22 1.247 . S
C15 O23 1.258 . S
O16 C14 1.247 . S
O16 Zn17 2.028 . S
Zn17 O16 2.028 . S
Zn17 O21 2.035 . S
Zn17 O23 2.035 . S
Zn17 O24 2.028 . S
O18 C14 1.258 . S
O18 Zn19 2.035 . S
Zn19 O18 2.035 . S
Zn19 O20 2.028 . S
Zn19 O22 2.028 . S
Zn19 O25 2.035 . S
O20 Zn19 2.028 . S
O20 C26 1.247 . S
O21 Zn17 2.035 . S
O21 C26 1.258 . S
O22 C15 1.247 . S
O22 Zn19 2.028 . S
O23 C15 1.258 . S
O23 Zn17 2.035 . S
O24 Zn17 2.028 . S
O24 C27 1.247 . S
O25 Zn19 2.035 . S
O25 C27 1.258 . S
C26 O20 1.247 . S
C26 O21 1.258 . S
C27 O24 1.247 . S
C27 O25 1.258 . S
C28 O30 1.247 . S
C28 O32 1.258 . S
C29 O36 1.247 . S
C29 O37 1.258 . S
O30 C28 1.247 . S
O30 Zn31 2.028 . S
Zn31 O30 2.028 . S
Zn31 O35 2.035 . S
Zn31 O37 2.035 . S
Zn31 O38 2.028 . S
O32 C28 1.258 . S
O32 Zn33 2.035 . S
Zn33 O32 2.035 . S
Zn33 O34 2.028 . S
Zn33 O36 2.028 . S
Zn33 O39 2.035 . S
O34 Zn33 2.028 . S
O34 C40 1.247 . S
O35 Zn31 2.035 . S
O35 C40 1.258 . S
O36 C29 1.247 . S
O36 Zn33 2.028 . S
O37 C29 1.258 . S
O37 Zn31 2.035 . S
O38 Zn31 2.028 . S
O38 C41 1.247 . S
O39 Zn33 2.035 . S
O39 C41 1.258 . S
C40 O34 1.247 . S
C40 O35 1.258 . S
C41 O38 1.247 . S
C41 O39 1.258 . S
C42 O44 1.247 . S
C42 O46 1.258 . S
C43 O50 1.247 . S
C43 O51 1.258 . S
O44 C42 1.247 . S
O44 Zn45 2.028 . S
Zn45 O44 2.028 . S
Zn45 O49 2.035 . S
Zn45 O51 2.035 . S
Zn45 O52 2.028 . S
O46 C42 1.258 . S
O46 Zn47 2.035 . S
Zn47 O46 2.035 . S
Zn47 O48 2.028 . S
Zn47 O50 2.028 . S
Zn47 O53 2.035 . S
O48 Zn47 2.028 . S
O48 C54 1.247 . S
O49 Zn45 2.035 . S
O49 C54 1.258 . S
O50 C43 1.247 . S
O50 Zn47 2.028 . S
O51 C43 1.258 . S
O51 Zn45 2.035 . S
O52 Zn45 2.028 . S
O52 C55 1.247 . S
O53 Zn47 2.035 . S
O53 C55 1.258 . S
C54 O48 1.247 . S
C54 O49 1.258 . S
C55 O52 1.247 . S
C55 O53 1.258 . S
C56 O58 1.247 . S
C56 O60 1.258 . S
C57 O64 1.247 . S
C57 O65 1.258 . S
O58 C56 1.247 . S
O58 Zn59 2.028 . S
Zn59 O58 2.028 . S
Zn59 O63 2.035 . S
Zn59 O65 2.035 . S
Zn59 O66 2.028 . S
O60 C56 1.258 . S
O60 Zn61 2.035 . S
Zn61 O60 2.035 . S
Zn61 O62 2.028 . S
Zn61 O64 2.028 . S
Zn61 O67 2.035 . S
O62 Zn61 2.028 . S
O62 C68 1.247 . S
O63 Zn59 2.035 . S
O63 C68 1.258 . S
O64 C57 1.247 . S
O64 Zn61 2.028 . S
O65 C57 1.258 . S
O65 Zn59 2.035 . S
O66 Zn59 2.028 . S
O66 C69 1.247 . S
O67 Zn61 2.035 . S
O67 C69 1.258 . S
C68 O62 1.247 . S
C68 O63 1.258 . S
C69 O66 1.247 . S
C69 O67 1.258 . S
C70 O72 1.247 . S
C70 O74 1.258 . S
C71 O78 1.247 . S
C71 O79 1.258 . S
O72 C70 1.247 . S
O72 Zn73 2.028 . S
Zn73 O72 2.028 . S
Zn73 O77 2.035 . S
Zn73 O79 2.035 . S
Zn73 O80 2.028 . S
O74 C70 1.258 . S
O74 Zn75 2.035 . S
Zn75 O74 2.035 . S
Zn75 O76 2.028 . S
Zn75 O78 2.028 . S
Zn75 O81 2.035 . S
O76 Zn75 2.028 . S
O76 C82 1.247 . S
O77 Zn73 2.035 . S
O77 C82 1.258 . S
O78 C71 1.247 . S
O78 Zn75 2.028 . S
O79 C71 1.258 . S
O79 Zn73 2.035 . S
O80 Zn73 2.028 . S
O80 C83 1.247 . S
O81 Zn75 2.035 . S
O81 C83 1.258 . S
C82 O76 1.247 . S
C82 O77 1.258 . S
C83 O80 1.247 . S
C83 O81 1.258 . S
C84 O86 1.247 . S
C84 O88 1.258 . S
C85 O92 1.247 . S
C85 O93 1.258 . S
O86 C84 1.247 . S
O86 Zn87 2.028 . S
Zn87 O86 2.028 . S
Zn87 O91 2.035 . S
Zn87 O93 2.035 . S
Zn87 O94 2.028 . S
O88 C84 1.258 . S
O88 Zn89 2.035 . S
Zn89 O88 2.035 . S
Zn89 O90 2.028 . S
Zn89 O92 2.028 . S
Zn89 O95 2.035 . S
O90 Zn89 2.028 . S
O90 C96 1.247 . S
O91 Zn87 2.035 . S
O91 C96 1.258 . S
O92 C85 1.247 . S
O92 Zn89 2.028 . S
O93 C85 1.258 . S
O93 Zn87 2.035 . S
O94 Zn87 2.028 . S
O94 C97 1.247 . S
O95 Zn89 2.035 . S
O95 C97 1.258 . S
C96 O90 1.247 . S
C96 O91 1.258 . S
C97 O94 1.247 . S
C97 O95 1.258 . S
C98 O100 1.247 . S
C98 O102 1.258 . S
C99 O106 1.247 . S
C99 O107 1.258 . S
O100 C98 1.247 . S
O100 Zn101 2.028 . S
Zn101 O100 2.028 . S
Zn101 O105 2.035 . S
Zn101 O107 2.035 . S
Zn101 O108 2.028 . S
O102 C98 1.258 . S
O102 Zn103 2.035 . S
Zn103 O102 2.035 . S
Zn103 O104 2.028 . S
Zn103 O106 2.028 . S
Zn103 O109 2.035 . S
O104 Zn103 2.028 . S
O104 C110 1.247 . S
O105 Zn101 2.035 . S
O105 C110 1.258 . S
O106 C99 1.247 . S
O106 Zn103 2.028 . S
O107 C99 1.258 . S
O107 Zn101 2.035 . S
O108 Zn101 2.028 . S
O108 C111 1.247 . S
O109 Zn103 2.035 . S
O109 C111 1.258 . S
C110 O104 1.247 . S
C110 O105 1.258 . S
C111 O108 1.247 . S
C111 O109 1.258 . S
C112 O114 1.247 . S
C112 O116 1.258 . S
C113 O120 1.247 . S
C113 O121 1.258 . S
O114 C112 1.247 . S
O114 Zn115 2.028 . S
Zn115 O114 2.028 . S
Zn115 O119 2.035 . S
Zn115 O121 2.035 . S
Zn115 O122 2.028 . S
O116 C112 1.258 . S
O116 Zn117 2.035 . S
Zn117 O116 2.035 . S
Zn117 O118 2.028 . S
Zn117 O120 2.028 . S
Zn117 O123 2.035 . S
O118 Zn117 2.028 . S
O118 C124 1.247 . S
O119 Zn115 2.035 . S
O119 C124 1.258 . S
O120 C113 1.247 . S
O120 Zn117 2.028 . S
O121 C113 1.258 . S
O121 Zn115 2.035 . S
O122 Zn115 2.028 . S
O122 C125 1.247 . S
O123 Zn117 2.035 . S
O123 C125 1.258 . S
C124 O118 1.247 . S
C124 O119 1.258 . S
C125 O122 1.247 . S
C125 O123 1.258 . S
C126 O128 1.247 . S
C126 O130 1.258 . S
C127 O134 1.247 . S
C127 O135 1.258 . S
O128 C126 1.247 . S
O128 Zn129 2.028 . S
Zn129 O128 2.028 . S
Zn129 O133 2.035 . S
Zn129 O135 2.035 . S
Zn129 O136 2.028 . S
O130 C126 1.258 . S
O130 Zn131 2.035 . S
Zn131 O130 2.035 . S
Zn131 O132 2.028 . S
Zn131 O134 2.028 . S
Zn131 O137 2.035 . S
O132 Zn131 2.028 . S
O132 C138 1.247 . S
O133 Zn129 2.035 . S
O133 C138 1.258 . S
O134 C127 1.247 . S
O134 Zn131 2.028 . S
O135 C127 1.258 . S
O135 Zn129 2.035 . S
O136 Zn129 2.028 . S
O136 C139 1.247 . S
O137 Zn131 2.035 . S
O137 C139 1.258 . S
C138 O132 1.247 . S
C138 O133 1.258 . S
C139 O136 1.247 . S
C139 O137 1.258 . S
C140 O142 1.247 . S
C140 O144 1.258 . S
C141 O148 1.247 . S
C141 O149 1.258 . S
O142 C140 1.247 . S
O142 Zn143 2.028 . S
Zn143 O142 2.028 . S
Zn143 O147 2.035 . S
Zn143 O149 2.035 . S
Zn143 O150 2.028 . S
O144 C140 1.258 . S
O144 Zn145 2.035 . S
Zn145 O144 2.035 . S
Zn145 O146 2.028 . S
Zn145 O148 2.028 . S
Zn145 O151 2.035 . S
O146 Zn145 2.028 . S
O146 C152 1.247 . S
O147 Zn143 2.035 . S
O147 C152 1.258 . S
O148 C141 1.247 . S
O148 Zn145 2.028 . S
O149 C141 1.258 . S
O149 Zn143 2.035 . S
O150 Zn143 2.028 . S
O150 C153 1.247 . S
O151 Zn145 2.035 . S
O151 C153 1.258 . S
C152 O146 1.247 . S
C152 O147 1.258 . S
C153 O150 1.247 . S
C153 O151 1.258 . S
C154 O156 1.247 . S
C154 O158 1.258 . S
C155 O162 1.247 . S
C155 O163 1.258 . S
O156 C154 1.247 . S
O156 Zn157 2.028 . S
Zn157 O156 2.028 . S
Zn157 O161 2.035 . S
Zn157 O163 2.035 . S
Zn157 O164 2.028 . S
O158 C154 1.258 . S
O158 Zn159 2.035 . S
Zn159 O158 2.035 . S
Zn159 O160 2.028 . S
Zn159 O162 2.028 . S
Zn159 O165 2.035 . S
O160 Zn159 2.028 . S
O160 C166 1.247 . S
O161 Zn157 2.035 . S
O161 C166 1.258 . S
O162 C155 1.247 . S
O162 Zn159 2.028 . S
O163 C155 1.258 . S
O163 Zn157 2.035 . S
O164 Zn157 2.028 . S
O164 C167 1.247 . S
O165 Zn159 2.035 . S
O165 C167 1.258 . S
C166 O160 1.247 . S
C166 O161 1.258 . S
C167 O164 1.247 . S
C167 O165 1.258 . S
C168 O170 1.247 . S
C168 O172 1.258 . S
C169 O176 1.247 . S
C169 O177 1.258 . S
O170 C168 1.247 . S
O170 Zn171 2.028 . S
Zn171 O170 2.028 . S
Zn171 O175 2.035 . S
Zn171 O177 2.035 . S
Zn171 O178 2.028 . S
O172 C168 1.258 . S
O172 Zn173 2.035 . S
Zn173 O172 2.035 . S
Zn173 O174 2.028 . S
Zn173 O176 2.028 . S
Zn173 O179 2.035 . S
O174 Zn173 2.028 . S
O174 C180 1.247 . S
O175 Zn171 2.035 . S
O175 C180 1.258 . S
O176 C169 1.247 . S
O176 Zn173 2.028 . S
O177 C169 1.258 . S
O177 Zn171 2.035 . S
O178 Zn171 2.028 . S
O178 C181 1.247 . S
O179 Zn173 2.035 . S
O179 C181 1.258 . S
C180 O174 1.247 . S
C180 O175 1.258 . S
C181 O178 1.247 . S
C181 O179 1.258 . S
C182 O184 1.247 . S
C182 O186 1.258 . S
C183 O190 1.247 . S
C183 O191 1.258 . S
O184 C182 1.247 . S
O184 Zn185 2.028 . S
Zn185 O184 2.028 . S
Zn185 O189 2.035 . S
Zn185 O191 2.035 . S
Zn185 O192 2.028 . S
O186 C182 1.258 . S
O186 Zn187 2.035 . S
Zn187 O186 2.035 . S
Zn187 O188 2.028 . S
Zn187 O190 2.028 . S
Zn187 O193 2.035 . S
O188 Zn187 2.028 . S
O188 C194 1.247 . S
O189 Zn185 2.035 . S
O189 C194 1.258 . S
O190 C183 1.247 . S
O190 Zn187 2.028 . S
O191 C183 1.258 . S
O191 Zn185 2.035 . S
O192 Zn185 2.028 . S
O192 C195 1.247 . S
O193 Zn187 2.035 . S
O193 C195 1.258 . S
C194 O188 1.247 . S
C194 O189 1.258 . S
C195 O192 1.247 . S
C195 O193 1.258 . S
C196 O198 1.247 . S
C196 O200 1.258 . S
C197 O204 1.247 . S
C197 O205 1.258 . S
O198 C196 1.247 . S
O198 Zn199 2.028 . S
Zn199 O198 2.028 . S
Zn199 O203 2.035 . S
Zn199 O205 2.035 . S
Zn199 O206 2.028 . S
O200 C196 1.258 . S
O200 Zn201 2.035 . S
Zn201 O200 2.035 . S
Zn201 O202 2.028 . S
Zn201 O204 2.028 . S
Zn201 O207 2.035 . S
O202 Zn201 2.028 . S
O202 C208 1.247 . S
O203 Zn199 2.035 . S
O203 C208 1.258 . S
O204 C197 1.247 . S
O204 Zn201 2.028 . S
O205 C197 1.258 . S
O205 Zn199 2.035 . S
O206 Zn199 2.028 . S
O206 C209 1.247 . S
O207 Zn201 2.035 . S
O207 C209 1.258 . S
C208 O202 1.247 . S
C208 O203 1.258 . S
C209 O206 1.247 . S
C209 O207 1.258 . S
C210 O212 1.247 . S
C210 O214 1.258 . S
C211 O218 1.247 . S
C211 O219 1.258 . S
O212 C210 1.247 . S
O212 Zn213 2.028 . S
Zn213 O212 2.028 . S
Zn213 O217 2.035 . S
Zn213 O219 2.035 . S
Zn213 O220 2.028 . S
O214 C210 1.258 . S
O214 Zn215 2.035 . S
Zn215 O214 2.035 . S
Zn215 O216 2.028 . S
Zn215 O218 2.028 . S
Zn215 O221 2.035 . S
O216 Zn215 2.028 . S
O216 C222 1.247 . S
O217 Zn213 2.035 . S
O217 C222 1.258 . S
O218 C211 1.247 . S
O218 Zn215 2.028 . S
O219 C211 1.258 . S
O219 Zn213 2.035 . S
O220 Zn213 2.028 . S
O220 C223 1.247 . S
O221 Zn215 2.035 . S
O221 C223 1.258 . S
C222 O216 1.247 . S
C222 O217 1.258 . S
C223 O220 1.247 . S
C223 O221 1.258 . S
H224 C232 0.929 . S
H225 C234 0.930 . S
H226 C236 0.930 . S
H227 C239 0.929 . S
H228 C242 0.930 . S
H229 C244 0.960 . S
H230 C244 0.960 . S
H231 C244 0.960 . S
C232 H224 0.929 . S
C232 C233 1.377 . S
C232 C234 1.384 . S
C233 C232 1.377 . S
C233 C239 1.390 . S
C234 H225 0.930 . S
C234 C232 1.384 . S
C234 C235 1.372 . S
C235 C234 1.372 . S
C235 C236 1.400 . S
C235 C240 1.490 . S
C236 H226 0.930 . S
C236 C235 1.400 . S
C236 C239 1.386 . S
H237 C253 0.930 . S
H238 C254 0.931 . S
C239 H227 0.929 . S
C239 C233 1.390 . S
C239 C236 1.386 . S
C240 C235 1.490 . S
C240 C242 1.395 . S
C240 C243 1.403 . S
H241 C247 0.930 . S
C242 H228 0.930 . S
C242 C240 1.395 . S
C242 C245 1.403 1_556 S
C243 C240 1.403 . S
C243 C244 1.524 . S
C243 C247 1.400 1_556 S
C244 H229 0.960 . S
C244 H230 0.960 . S
C244 H231 0.960 . S
C244 C243 1.524 . S
C245 C242 1.403 1_554 S
C245 C246 1.392 . S
C245 C249 1.495 . S
C246 C245 1.392 . S
C246 C247 1.385 . S
C246 C248 1.478 . S
C247 H241 0.930 . S
C247 C243 1.400 1_554 S
C247 C246 1.385 . S
C248 C246 1.478 . S
C248 C250 1.381 . S
C248 C254 1.383 . S
C249 C245 1.495 . S
C249 H255 0.959 . S
C249 H256 0.961 . S
C249 H257 0.960 . S
C250 C248 1.381 . S
C250 C251 1.394 . S
C250 H258 0.930 . S
C251 C250 1.394 . S
C251 C252 1.383 . S
C251 H259 0.929 . S
C252 C251 1.383 . S
C252 C253 1.377 . S
C253 H237 0.930 . S
C253 C252 1.377 . S
C253 C254 1.379 . S
C254 H238 0.931 . S
C254 C248 1.383 . S
C254 C253 1.379 . S
H255 C249 0.959 . S
H256 C249 0.961 . S
H257 C249 0.960 . S
H258 C250 0.930 . S
H259 C251 0.929 . S
H260 C268 0.929 . S
H261 C270 0.930 . S
H262 C272 0.930 . S
H263 C275 0.929 . S
H264 C278 0.930 . S
H265 C280 0.960 . S
H266 C280 0.960 . S
H267 C280 0.960 . S
C268 H260 0.929 . S
C268 C269 1.377 . S
C268 C270 1.384 . S
C269 C268 1.377 . S
C269 C275 1.390 . S
C270 H261 0.930 . S
C270 C268 1.384 . S
C270 C271 1.372 . S
C271 C270 1.372 . S
C271 C272 1.400 . S
C271 C276 1.490 . S
C272 H262 0.930 . S
C272 C271 1.400 . S
C272 C275 1.386 . S
H273 C289 0.930 . S
H274 C290 0.931 . S
C275 H263 0.929 . S
C275 C269 1.390 . S
C275 C272 1.386 . S
C276 C271 1.490 . S
C276 C278 1.395 . S
C276 C279 1.403 . S
H277 C283 0.930 . S
C278 H264 0.930 . S
C278 C276 1.395 . S
C278 C281 1.403 . S
C279 C276 1.403 . S
C279 C280 1.524 . S
C279 C283 1.400 . S
C280 H265 0.960 . S
C280 H266 0.960 . S
C280 H267 0.960 . S
C280 C279 1.524 . S
C281 C278 1.403 . S
C281 C282 1.392 . S
C281 C285 1.495 . S
C282 C281 1.392 . S
C282 C283 1.385 . S
C282 C284 1.478 . S
C283 H277 0.930 . S
C283 C279 1.400 . S
C283 C282 1.385 . S
C284 C282 1.478 . S
C284 C286 1.381 . S
C284 C290 1.383 . S
C285 C281 1.495 . S
C285 H291 0.959 . S
C285 H292 0.961 . S
C285 H293 0.960 . S
C286 C284 1.381 . S
C286 C287 1.394 . S
C286 H294 0.930 . S
C287 C286 1.394 . S
C287 C288 1.383 . S
C287 H295 0.929 . S
C288 C287 1.383 . S
C288 C289 1.377 . S
C289 H273 0.930 . S
C289 C288 1.377 . S
C289 C290 1.379 . S
C290 H274 0.931 . S
C290 C284 1.383 . S
C290 C289 1.379 . S
H291 C285 0.959 . S
H292 C285 0.961 . S
H293 C285 0.960 . S
H294 C286 0.930 . S
H295 C287 0.929 . S
H296 C304 0.929 . S
H297 C306 0.930 . S
H298 C308 0.930 . S
H299 C311 0.929 . S
H300 C314 0.930 . S
H301 C316 0.960 . S
H302 C316 0.960 . S
H303 C316 0.960 . S
C304 H296 0.929 . S
C304 C305 1.377 . S
C304 C306 1.384 . S
C305 C304 1.377 . S
C305 C311 1.390 . S
C306 H297 0.930 . S
C306 C304 1.384 . S
C306 C307 1.372 . S
C307 C306 1.372 . S
C307 C308 1.400 . S
C307 C312 1.490 . S
C308 H298 0.930 . S
C308 C307 1.400 . S
C308 C311 1.386 . S
H309 C325 0.930 . S
H310 C326 0.931 . S
C311 H299 0.929 . S
C311 C305 1.390 . S
C311 C308 1.386 . S
C312 C307 1.490 . S
C312 C314 1.395 . S
C312 C315 1.403 . S
H313 C319 0.930 . S
C314 H300 0.930 . S
C314 C312 1.395 . S
C314 C317 1.403 1_556 S
C315 C312 1.403 . S
C315 C316 1.524 . S
C315 C319 1.400 1_556 S
C316 H301 0.960 . S
C316 H302 0.960 . S
C316 H303 0.960 . S
C316 C315 1.524 . S
C317 C314 1.403 1_554 S
C317 C318 1.392 . S
C317 C321 1.495 . S
C318 C317 1.392 . S
C318 C319 1.385 . S
C318 C320 1.478 . S
C319 H313 0.930 . S
C319 C315 1.400 1_554 S
C319 C318 1.385 . S
C320 C318 1.478 . S
C320 C322 1.381 . S
C320 C326 1.383 . S
C321 C317 1.495 . S
C321 H327 0.959 . S
C321 H328 0.961 . S
C321 H329 0.960 . S
C322 C320 1.381 . S
C322 C323 1.394 . S
C322 H330 0.930 . S
C323 C322 1.394 . S
C323 C324 1.383 . S
C323 H331 0.929 . S
C324 C323 1.383 . S
C324 C325 1.377 . S
C325 H309 0.930 . S
C325 C324 1.377 . S
C325 C326 1.379 . S
C326 H310 0.931 . S
C326 C320 1.383 . S
C326 C325 1.379 . S
H327 C321 0.959 . S
H328 C321 0.961 . S
H329 C321 0.960 . S
H330 C322 0.930 . S
H331 C323 0.929 . S
H332 C340 0.929 . S
H333 C342 0.930 . S
H334 C344 0.930 . S
H335 C347 0.929 . S
H336 C350 0.930 . S
H337 C352 0.960 . S
H338 C352 0.960 . S
H339 C352 0.960 . S
C340 H332 0.929 . S
C340 C341 1.377 . S
C340 C342 1.384 . S
C341 C340 1.377 . S
C341 C347 1.390 . S
C342 H333 0.930 . S
C342 C340 1.384 . S
C342 C343 1.372 . S
C343 C342 1.372 . S
C343 C344 1.400 . S
C343 C348 1.490 . S
C344 H334 0.930 . S
C344 C343 1.400 . S
C344 C347 1.386 . S
H345 C361 0.930 . S
H346 C362 0.931 . S
C347 H335 0.929 . S
C347 C341 1.390 . S
C347 C344 1.386 . S
C348 C343 1.490 . S
C348 C350 1.395 . S
C348 C351 1.403 . S
H349 C355 0.930 . S
C350 H336 0.930 . S
C350 C348 1.395 . S
C350 C353 1.403 . S
C351 C348 1.403 . S
C351 C352 1.524 . S
C351 C355 1.400 . S
C352 H337 0.960 . S
C352 H338 0.960 . S
C352 H339 0.960 . S
C352 C351 1.524 . S
C353 C350 1.403 . S
C353 C354 1.392 . S
C353 C357 1.495 . S
C354 C353 1.392 . S
C354 C355 1.385 . S
C354 C356 1.478 . S
C355 H349 0.930 . S
C355 C351 1.400 . S
C355 C354 1.385 . S
C356 C354 1.478 . S
C356 C358 1.381 . S
C356 C362 1.383 . S
C357 C353 1.495 . S
C357 H363 0.959 . S
C357 H364 0.961 . S
C357 H365 0.960 . S
C358 C356 1.381 . S
C358 C359 1.394 . S
C358 H366 0.930 . S
C359 C358 1.394 . S
C359 C360 1.383 . S
C359 H367 0.929 . S
C360 C359 1.383 . S
C360 C361 1.377 . S
C361 H345 0.930 . S
C361 C360 1.377 . S
C361 C362 1.379 . S
C362 H346 0.931 . S
C362 C356 1.383 . S
C362 C361 1.379 . S
H363 C357 0.959 . S
H364 C357 0.961 . S
H365 C357 0.960 . S
H366 C358 0.930 . S
H367 C359 0.929 . S
H368 C376 0.929 . S
H369 C378 0.930 . S
H370 C380 0.930 . S
H371 C383 0.929 . S
H372 C386 0.930 . S
H373 C388 0.960 . S
H374 C388 0.960 . S
H375 C388 0.960 . S
C376 H368 0.929 . S
C376 C377 1.377 . S
C376 C378 1.384 . S
C377 C376 1.377 . S
C377 C383 1.390 . S
C378 H369 0.930 . S
C378 C376 1.384 . S
C378 C379 1.372 . S
C379 C378 1.372 . S
C379 C380 1.400 . S
C379 C384 1.490 . S
C380 H370 0.930 . S
C380 C379 1.400 . S
C380 C383 1.386 . S
H381 C397 0.930 . S
H382 C398 0.931 . S
C383 H371 0.929 . S
C383 C377 1.390 . S
C383 C380 1.386 . S
C384 C379 1.490 . S
C384 C386 1.395 . S
C384 C387 1.403 . S
H385 C391 0.930 . S
C386 H372 0.930 . S
C386 C384 1.395 . S
C386 C389 1.403 1_554 S
C387 C384 1.403 . S
C387 C388 1.524 . S
C387 C391 1.400 1_554 S
C388 H373 0.960 . S
C388 H374 0.960 . S
C388 H375 0.960 . S
C388 C387 1.524 . S
C389 C386 1.403 1_556 S
C389 C390 1.392 . S
C389 C393 1.495 . S
C390 C389 1.392 . S
C390 C391 1.385 . S
C390 C392 1.478 . S
C391 H385 0.930 . S
C391 C387 1.400 1_556 S
C391 C390 1.385 . S
C392 C390 1.478 . S
C392 C394 1.381 . S
C392 C398 1.383 . S
C393 C389 1.495 . S
C393 H399 0.959 . S
C393 H400 0.961 . S
C393 H401 0.960 . S
C394 C392 1.381 . S
C394 C395 1.394 . S
C394 H402 0.930 . S
C395 C394 1.394 . S
C395 C396 1.383 . S
C395 H403 0.929 . S
C396 C395 1.383 . S
C396 C397 1.377 . S
C397 H381 0.930 . S
C397 C396 1.377 . S
C397 C398 1.379 . S
C398 H382 0.931 . S
C398 C392 1.383 . S
C398 C397 1.379 . S
H399 C393 0.959 . S
H400 C393 0.961 . S
H401 C393 0.960 . S
H402 C394 0.930 . S
H403 C395 0.929 . S
H404 C412 0.929 . S
H405 C414 0.930 . S
H406 C416 0.930 . S
H407 C419 0.929 . S
H408 C422 0.930 . S
H409 C424 0.960 . S
H410 C424 0.960 . S
H411 C424 0.960 . S
C412 H404 0.929 . S
C412 C413 1.377 . S
C412 C414 1.384 . S
C413 C412 1.377 . S
C413 C419 1.390 . S
C414 H405 0.930 . S
C414 C412 1.384 . S
C414 C415 1.372 . S
C415 C414 1.372 . S
C415 C416 1.400 . S
C415 C420 1.490 . S
C416 H406 0.930 . S
C416 C415 1.400 . S
C416 C419 1.386 . S
H417 C433 0.930 . S
H418 C434 0.931 . S
C419 H407 0.929 . S
C419 C413 1.390 . S
C419 C416 1.386 . S
C420 C415 1.490 . S
C420 C422 1.395 . S
C420 C423 1.403 . S
H421 C427 0.930 . S
C422 H408 0.930 . S
C422 C420 1.395 . S
C422 C425 1.403 . S
C423 C420 1.403 . S
C423 C424 1.524 . S
C423 C427 1.400 . S
C424 H409 0.960 . S
C424 H410 0.960 . S
C424 H411 0.960 . S
C424 C423 1.524 . S
C425 C422 1.403 . S
C425 C426 1.392 . S
C425 C429 1.495 . S
C426 C425 1.392 . S
C426 C427 1.385 . S
C426 C428 1.478 . S
C427 H421 0.930 . S
C427 C423 1.400 . S
C427 C426 1.385 . S
C428 C426 1.478 . S
C428 C430 1.381 . S
C428 C434 1.383 . S
C429 C425 1.495 . S
C429 H435 0.959 . S
C429 H436 0.961 . S
C429 H437 0.960 . S
C430 C428 1.381 . S
C430 C431 1.394 . S
C430 H438 0.930 . S
C431 C430 1.394 . S
C431 C432 1.383 . S
C431 H439 0.929 . S
C432 C431 1.383 . S
C432 C433 1.377 . S
C433 H417 0.930 . S
C433 C432 1.377 . S
C433 C434 1.379 . S
C434 H418 0.931 . S
C434 C428 1.383 . S
C434 C433 1.379 . S
H435 C429 0.959 . S
H436 C429 0.961 . S
H437 C429 0.960 . S
H438 C430 0.930 . S
H439 C431 0.929 . S
H440 C448 0.929 . S
H441 C450 0.930 . S
H442 C452 0.930 . S
H443 C455 0.929 . S
H444 C458 0.930 . S
H445 C460 0.960 . S
H446 C460 0.960 . S
H447 C460 0.960 . S
C448 H440 0.929 . S
C448 C449 1.377 . S
C448 C450 1.384 . S
C449 C448 1.377 . S
C449 C455 1.390 . S
C450 H441 0.930 . S
C450 C448 1.384 . S
C450 C451 1.372 . S
C451 C450 1.372 . S
C451 C452 1.400 . S
C451 C456 1.490 . S
C452 H442 0.930 . S
C452 C451 1.400 . S
C452 C455 1.386 . S
H453 C469 0.930 . S
H454 C470 0.931 . S
C455 H443 0.929 . S
C455 C449 1.390 . S
C455 C452 1.386 . S
C456 C451 1.490 . S
C456 C458 1.395 . S
C456 C459 1.403 . S
H457 C463 0.930 . S
C458 H444 0.930 . S
C458 C456 1.395 . S
C458 C461 1.403 1_556 S
C459 C456 1.403 . S
C459 C460 1.524 . S
C459 C463 1.400 1_556 S
C460 H445 0.960 . S
C460 H446 0.960 . S
C460 H447 0.960 . S
C460 C459 1.524 . S
C461 C458 1.403 1_554 S
C461 C462 1.392 . S
C461 C465 1.495 . S
C462 C461 1.392 . S
C462 C463 1.385 . S
C462 C464 1.478 . S
C463 H457 0.930 . S
C463 C459 1.400 1_554 S
C463 C462 1.385 . S
C464 C462 1.478 . S
C464 C466 1.381 . S
C464 C470 1.383 . S
C465 C461 1.495 . S
C465 H471 0.959 . S
C465 H472 0.961 . S
C465 H473 0.960 . S
C466 C464 1.381 . S
C466 C467 1.394 . S
C466 H474 0.930 . S
C467 C466 1.394 . S
C467 C468 1.383 . S
C467 H475 0.929 . S
C468 C467 1.383 . S
C468 C469 1.377 . S
C469 H453 0.930 . S
C469 C468 1.377 . S
C469 C470 1.379 . S
C470 H454 0.931 . S
C470 C464 1.383 . S
C470 C469 1.379 . S
H471 C465 0.959 . S
H472 C465 0.961 . S
H473 C465 0.960 . S
H474 C466 0.930 . S
H475 C467 0.929 . S
H476 C484 0.929 . S
H477 C486 0.930 . S
H478 C488 0.930 . S
H479 C491 0.929 . S
H480 C494 0.930 . S
H481 C496 0.960 . S
H482 C496 0.960 . S
H483 C496 0.960 . S
C484 H476 0.929 . S
C484 C485 1.377 . S
C484 C486 1.384 . S
C485 C484 1.377 . S
C485 C491 1.390 . S
C486 H477 0.930 . S
C486 C484 1.384 . S
C486 C487 1.372 . S
C487 C486 1.372 . S
C487 C488 1.400 . S
C487 C492 1.490 . S
C488 H478 0.930 . S
C488 C487 1.400 . S
C488 C491 1.386 . S
H489 C505 0.930 . S
H490 C506 0.931 . S
C491 H479 0.929 . S
C491 C485 1.390 . S
C491 C488 1.386 . S
C492 C487 1.490 . S
C492 C494 1.395 . S
C492 C495 1.403 . S
H493 C499 0.930 . S
C494 H480 0.930 . S
C494 C492 1.395 . S
C494 C497 1.403 . S
C495 C492 1.403 . S
C495 C496 1.524 . S
C495 C499 1.400 . S
C496 H481 0.960 . S
C496 H482 0.960 . S
C496 H483 0.960 . S
C496 C495 1.524 . S
C497 C494 1.403 . S
C497 C498 1.392 . S
C497 C501 1.495 . S
C498 C497 1.392 . S
C498 C499 1.385 . S
C498 C500 1.478 . S
C499 H493 0.930 . S
C499 C495 1.400 . S
C499 C498 1.385 . S
C500 C498 1.478 . S
C500 C502 1.381 . S
C500 C506 1.383 . S
C501 C497 1.495 . S
C501 H507 0.959 . S
C501 H508 0.961 . S
C501 H509 0.960 . S
C502 C500 1.381 . S
C502 C503 1.394 . S
C502 H510 0.930 . S
C503 C502 1.394 . S
C503 C504 1.383 . S
C503 H511 0.929 . S
C504 C503 1.383 . S
C504 C505 1.377 . S
C505 H489 0.930 . S
C505 C504 1.377 . S
C505 C506 1.379 . S
C506 H490 0.931 . S
C506 C500 1.383 . S
C506 C505 1.379 . S
H507 C501 0.959 . S
H508 C501 0.961 . S
H509 C501 0.960 . S
H510 C502 0.930 . S
H511 C503 0.929 . S
H512 C520 0.929 . S
H513 C522 0.930 . S
H514 C524 0.930 . S
H515 C527 0.929 . S
H516 C530 0.930 . S
H517 C532 0.960 . S
H518 C532 0.960 . S
H519 C532 0.960 . S
C520 H512 0.929 . S
C520 C521 1.377 . S
C520 C522 1.384 . S
C521 C520 1.377 . S
C521 C527 1.390 . S
C522 H513 0.930 . S
C522 C520 1.384 . S
C522 C523 1.372 . S
C523 C522 1.372 . S
C523 C524 1.400 . S
C523 C528 1.490 . S
C524 H514 0.930 . S
C524 C523 1.400 . S
C524 C527 1.386 . S
H525 C541 0.930 . S
H526 C542 0.931 . S
C527 H515 0.929 . S
C527 C521 1.390 . S
C527 C524 1.386 . S
C528 C523 1.490 . S
C528 C530 1.395 . S
C528 C531 1.403 . S
H529 C535 0.930 . S
C530 H516 0.930 . S
C530 C528 1.395 . S
C530 C533 1.403 . S
C531 C528 1.403 . S
C531 C532 1.524 . S
C531 C535 1.400 . S
C532 H517 0.960 . S
C532 H518 0.960 . S
C532 H519 0.960 . S
C532 C531 1.524 . S
C533 C530 1.403 . S
C533 C534 1.392 . S
C533 C537 1.495 . S
C534 C533 1.392 . S
C534 C535 1.385 . S
C534 C536 1.478 . S
C535 H529 0.930 . S
C535 C531 1.400 . S
C535 C534 1.385 . S
C536 C534 1.478 . S
C536 C538 1.381 . S
C536 C542 1.383 . S
C537 C533 1.495 . S
C537 H543 0.959 . S
C537 H544 0.961 . S
C537 H545 0.960 . S
C538 C536 1.381 . S
C538 C539 1.394 . S
C538 H546 0.930 . S
C539 C538 1.394 . S
C539 C540 1.383 . S
C539 H547 0.929 . S
C540 C539 1.383 . S
C540 C541 1.377 . S
C541 H525 0.930 . S
C541 C540 1.377 . S
C541 C542 1.379 . S
C542 H526 0.931 . S
C542 C536 1.383 . S
C542 C541 1.379 . S
H543 C537 0.959 . S
H544 C537 0.961 . S
H545 C537 0.960 . S
H546 C538 0.930 . S
H547 C539 0.929 . S
H548 C556 0.929 . S
H549 C558 0.930 . S
H550 C560 0.930 . S
H551 C563 0.929 . S
H552 C566 0.930 . S
H553 C568 0.960 . S
H554 C568 0.960 . S
H555 C568 0.960 . S
C556 H548 0.929 . S
C556 C557 1.377 . S
C556 C558 1.384 . S
C557 C556 1.377 . S
C557 C563 1.390 . S
C558 H549 0.930 . S
C558 C556 1.384 . S
C558 C559 1.372 . S
C559 C558 1.372 . S
C559 C560 1.400 . S
C559 C564 1.490 . S
C560 H550 0.930 . S
C560 C559 1.400 . S
C560 C563 1.386 . S
H561 C577 0.930 . S
H562 C578 0.931 . S
C563 H551 0.929 . S
C563 C557 1.390 . S
C563 C560 1.386 . S
C564 C559 1.490 . S
C564 C566 1.395 . S
C564 C567 1.403 . S
H565 C571 0.930 . S
C566 H552 0.930 . S
C566 C564 1.395 . S
C566 C569 1.403 . S
C567 C564 1.403 . S
C567 C568 1.524 . S
C567 C571 1.400 . S
C568 H553 0.960 . S
C568 H554 0.960 . S
C568 H555 0.960 . S
C568 C567 1.524 . S
C569 C566 1.403 . S
C569 C570 1.392 . S
C569 C573 1.495 . S
C570 C569 1.392 . S
C570 C571 1.385 . S
C570 C572 1.478 . S
C571 H565 0.930 . S
C571 C567 1.400 . S
C571 C570 1.385 . S
C572 C570 1.478 . S
C572 C574 1.381 . S
C572 C578 1.383 . S
C573 C569 1.495 . S
C573 H579 0.959 . S
C573 H580 0.961 . S
C573 H581 0.960 . S
C574 C572 1.381 . S
C574 C575 1.394 . S
C574 H582 0.930 . S
C575 C574 1.394 . S
C575 C576 1.383 . S
C575 H583 0.929 . S
C576 C575 1.383 . S
C576 C577 1.377 . S
C577 H561 0.930 . S
C577 C576 1.377 . S
C577 C578 1.379 . S
C578 H562 0.931 . S
C578 C572 1.383 . S
C578 C577 1.379 . S
H579 C573 0.959 . S
H580 C573 0.961 . S
H581 C573 0.960 . S
H582 C574 0.930 . S
H583 C575 0.929 . S
H584 C592 0.929 . S
H585 C594 0.930 . S
H586 C596 0.930 . S
H587 C599 0.929 . S
H588 C602 0.930 . S
H589 C604 0.960 . S
H590 C604 0.960 . S
H591 C604 0.960 . S
C592 H584 0.929 . S
C592 C593 1.377 . S
C592 C594 1.384 . S
C593 C592 1.377 . S
C593 C599 1.390 . S
C594 H585 0.930 . S
C594 C592 1.384 . S
C594 C595 1.372 . S
C595 C594 1.372 . S
C595 C596 1.400 . S
C595 C600 1.490 . S
C596 H586 0.930 . S
C596 C595 1.400 . S
C596 C599 1.386 . S
H597 C613 0.930 . S
H598 C614 0.931 . S
C599 H587 0.929 . S
C599 C593 1.390 . S
C599 C596 1.386 . S
C600 C595 1.490 . S
C600 C602 1.395 . S
C600 C603 1.403 . S
H601 C607 0.930 . S
C602 H588 0.930 . S
C602 C600 1.395 . S
C602 C605 1.403 . S
C603 C600 1.403 . S
C603 C604 1.524 . S
C603 C607 1.400 . S
C604 H589 0.960 . S
C604 H590 0.960 . S
C604 H591 0.960 . S
C604 C603 1.524 . S
C605 C602 1.403 . S
C605 C606 1.392 . S
C605 C609 1.495 . S
C606 C605 1.392 . S
C606 C607 1.385 . S
C606 C608 1.478 . S
C607 H601 0.930 . S
C607 C603 1.400 . S
C607 C606 1.385 . S
C608 C606 1.478 . S
C608 C610 1.381 . S
C608 C614 1.383 . S
C609 C605 1.495 . S
C609 H615 0.959 . S
C609 H616 0.961 . S
C609 H617 0.960 . S
C610 C608 1.381 . S
C610 C611 1.394 . S
C610 H618 0.930 . S
C611 C610 1.394 . S
C611 C612 1.383 . S
C611 H619 0.929 . S
C612 C611 1.383 . S
C612 C613 1.377 . S
C613 H597 0.930 . S
C613 C612 1.377 . S
C613 C614 1.379 . S
C614 H598 0.931 . S
C614 C608 1.383 . S
C614 C613 1.379 . S
H615 C609 0.959 . S
H616 C609 0.961 . S
H617 C609 0.960 . S
H618 C610 0.930 . S
H619 C611 0.929 . S
H620 C628 0.929 . S
H621 C630 0.930 . S
H622 C632 0.930 . S
H623 C635 0.929 . S
H624 C638 0.930 . S
H625 C640 0.960 . S
H626 C640 0.960 . S
H627 C640 0.960 . S
C628 H620 0.929 . S
C628 C629 1.377 . S
C628 C630 1.384 . S
C629 C628 1.377 . S
C629 C635 1.390 . S
C630 H621 0.930 . S
C630 C628 1.384 . S
C630 C631 1.372 . S
C631 C630 1.372 . S
C631 C632 1.400 . S
C631 C636 1.490 . S
C632 H622 0.930 . S
C632 C631 1.400 . S
C632 C635 1.386 . S
H633 C649 0.930 . S
H634 C650 0.931 . S
C635 H623 0.929 . S
C635 C629 1.390 . S
C635 C632 1.386 . S
C636 C631 1.490 . S
C636 C638 1.395 . S
C636 C639 1.403 . S
H637 C643 0.930 . S
C638 H624 0.930 . S
C638 C636 1.395 . S
C638 C641 1.403 . S
C639 C636 1.403 . S
C639 C640 1.524 . S
C639 C643 1.400 . S
C640 H625 0.960 . S
C640 H626 0.960 . S
C640 H627 0.960 . S
C640 C639 1.524 . S
C641 C638 1.403 . S
C641 C642 1.392 . S
C641 C645 1.495 . S
C642 C641 1.392 . S
C642 C643 1.385 . S
C642 C644 1.478 . S
C643 H637 0.930 . S
C643 C639 1.400 . S
C643 C642 1.385 . S
C644 C642 1.478 . S
C644 C646 1.381 . S
C644 C650 1.383 . S
C645 C641 1.495 . S
C645 H651 0.959 . S
C645 H652 0.961 . S
C645 H653 0.960 . S
C646 C644 1.381 . S
C646 C647 1.394 . S
C646 H654 0.930 . S
C647 C646 1.394 . S
C647 C648 1.383 . S
C647 H655 0.929 . S
C648 C647 1.383 . S
C648 C649 1.377 . S
C649 H633 0.930 . S
C649 C648 1.377 . S
C649 C650 1.379 . S
C650 H634 0.931 . S
C650 C644 1.383 . S
C650 C649 1.379 . S
H651 C645 0.959 . S
H652 C645 0.961 . S
H653 C645 0.960 . S
H654 C646 0.930 . S
H655 C647 0.929 . S
H656 C664 0.929 . S
H657 C666 0.930 . S
H658 C668 0.930 . S
H659 C671 0.929 . S
H660 C674 0.930 . S
H661 C676 0.960 . S
H662 C676 0.960 . S
H663 C676 0.960 . S
C664 H656 0.929 . S
C664 C665 1.377 . S
C664 C666 1.384 . S
C665 C664 1.377 . S
C665 C671 1.390 . S
C666 H657 0.930 . S
C666 C664 1.384 . S
C666 C667 1.372 . S
C667 C666 1.372 . S
C667 C668 1.400 . S
C667 C672 1.490 . S
C668 H658 0.930 . S
C668 C667 1.400 . S
C668 C671 1.386 . S
H669 C685 0.930 . S
H670 C686 0.931 . S
C671 H659 0.929 . S
C671 C665 1.390 . S
C671 C668 1.386 . S
C672 C667 1.490 . S
C672 C674 1.395 . S
C672 C675 1.403 . S
H673 C679 0.930 . S
C674 H660 0.930 . S
C674 C672 1.395 . S
C674 C677 1.403 . S
C675 C672 1.403 . S
C675 C676 1.524 . S
C675 C679 1.400 . S
C676 H661 0.960 . S
C676 H662 0.960 . S
C676 H663 0.960 . S
C676 C675 1.524 . S
C677 C674 1.403 . S
C677 C678 1.392 . S
C677 C681 1.495 . S
C678 C677 1.392 . S
C678 C679 1.385 . S
C678 C680 1.478 . S
C679 H673 0.930 . S
C679 C675 1.400 . S
C679 C678 1.385 . S
C680 C678 1.478 . S
C680 C682 1.381 . S
C680 C686 1.383 . S
C681 C677 1.495 . S
C681 H687 0.959 . S
C681 H688 0.961 . S
C681 H689 0.960 . S
C682 C680 1.381 . S
C682 C683 1.394 . S
C682 H690 0.930 . S
C683 C682 1.394 . S
C683 C684 1.383 . S
C683 H691 0.929 . S
C684 C683 1.383 . S
C684 C685 1.377 . S
C685 H669 0.930 . S
C685 C684 1.377 . S
C685 C686 1.379 . S
C686 H670 0.931 . S
C686 C680 1.383 . S
C686 C685 1.379 . S
H687 C681 0.959 . S
H688 C681 0.961 . S
H689 C681 0.960 . S
H690 C682 0.930 . S
H691 C683 0.929 . S
H692 C700 0.929 . S
H693 C702 0.930 . S
H694 C704 0.930 . S
H695 C707 0.929 . S
H696 C710 0.930 . S
H697 C712 0.960 . S
H698 C712 0.960 . S
H699 C712 0.960 . S
C700 H692 0.929 . S
C700 C701 1.377 . S
C700 C702 1.384 . S
C701 C700 1.377 . S
C701 C707 1.390 . S
C702 H693 0.930 . S
C702 C700 1.384 . S
C702 C703 1.372 . S
C703 C702 1.372 . S
C703 C704 1.400 . S
C703 C708 1.490 . S
C704 H694 0.930 . S
C704 C703 1.400 . S
C704 C707 1.386 . S
H705 C721 0.930 . S
H706 C722 0.931 . S
C707 H695 0.929 . S
C707 C701 1.390 . S
C707 C704 1.386 . S
C708 C703 1.490 . S
C708 C710 1.395 . S
C708 C711 1.403 . S
H709 C715 0.930 . S
C710 H696 0.930 . S
C710 C708 1.395 . S
C710 C713 1.403 . S
C711 C708 1.403 . S
C711 C712 1.524 . S
C711 C715 1.400 . S
C712 H697 0.960 . S
C712 H698 0.960 . S
C712 H699 0.960 . S
C712 C711 1.524 . S
C713 C710 1.403 . S
C713 C714 1.392 . S
C713 C717 1.495 . S
C714 C713 1.392 . S
C714 C715 1.385 . S
C714 C716 1.478 . S
C715 H709 0.930 . S
C715 C711 1.400 . S
C715 C714 1.385 . S
C716 C714 1.478 . S
C716 C718 1.381 . S
C716 C722 1.383 . S
C717 C713 1.495 . S
C717 H723 0.959 . S
C717 H724 0.961 . S
C717 H725 0.960 . S
C718 C716 1.381 . S
C718 C719 1.394 . S
C718 H726 0.930 . S
C719 C718 1.394 . S
C719 C720 1.383 . S
C719 H727 0.929 . S
C720 C719 1.383 . S
C720 C721 1.377 . S
C721 H705 0.930 . S
C721 C720 1.377 . S
C721 C722 1.379 . S
C722 H706 0.931 . S
C722 C716 1.383 . S
C722 C721 1.379 . S
H723 C717 0.959 . S
H724 C717 0.961 . S
H725 C717 0.960 . S
H726 C718 0.930 . S
H727 C719 0.929 . S
H728 C736 0.929 . S
H729 C738 0.930 . S
H730 C740 0.930 . S
H731 C743 0.929 . S
H732 C746 0.930 . S
H733 C748 0.960 . S
H734 C748 0.960 . S
H735 C748 0.960 . S
C736 H728 0.929 . S
C736 C737 1.377 . S
C736 C738 1.384 . S
C737 C736 1.377 . S
C737 C743 1.390 . S
C738 H729 0.930 . S
C738 C736 1.384 . S
C738 C739 1.372 . S
C739 C738 1.372 . S
C739 C740 1.400 . S
C739 C744 1.490 . S
C740 H730 0.930 . S
C740 C739 1.400 . S
C740 C743 1.386 . S
H741 C757 0.930 . S
H742 C758 0.931 . S
C743 H731 0.929 . S
C743 C737 1.390 . S
C743 C740 1.386 . S
C744 C739 1.490 . S
C744 C746 1.395 . S
C744 C747 1.403 . S
H745 C751 0.930 . S
C746 H732 0.930 . S
C746 C744 1.395 . S
C746 C749 1.403 . S
C747 C744 1.403 . S
C747 C748 1.524 . S
C747 C751 1.400 . S
C748 H733 0.960 . S
C748 H734 0.960 . S
C748 H735 0.960 . S
C748 C747 1.524 . S
C749 C746 1.403 . S
C749 C750 1.392 . S
C749 C753 1.495 . S
C750 C749 1.392 . S
C750 C751 1.385 . S
C750 C752 1.478 . S
C751 H745 0.930 . S
C751 C747 1.400 . S
C751 C750 1.385 . S
C752 C750 1.478 . S
C752 C754 1.381 . S
C752 C758 1.383 . S
C753 C749 1.495 . S
C753 H759 0.959 . S
C753 H760 0.961 . S
C753 H761 0.960 . S
C754 C752 1.381 . S
C754 C755 1.394 . S
C754 H762 0.930 . S
C755 C754 1.394 . S
C755 C756 1.383 . S
C755 H763 0.929 . S
C756 C755 1.383 . S
C756 C757 1.377 . S
C757 H741 0.930 . S
C757 C756 1.377 . S
C757 C758 1.379 . S
C758 H742 0.931 . S
C758 C752 1.383 . S
C758 C757 1.379 . S
H759 C753 0.959 . S
H760 C753 0.961 . S
H761 C753 0.960 . S
H762 C754 0.930 . S
H763 C755 0.929 . S
H764 C772 0.929 . S
H765 C774 0.930 . S
H766 C776 0.930 . S
H767 C779 0.929 . S
H768 C782 0.930 . S
H769 C784 0.960 . S
H770 C784 0.960 . S
H771 C784 0.960 . S
C772 H764 0.929 . S
C772 C773 1.377 . S
C772 C774 1.384 . S
C773 C772 1.377 . S
C773 C779 1.390 . S
C774 H765 0.930 . S
C774 C772 1.384 . S
C774 C775 1.372 . S
C775 C774 1.372 . S
C775 C776 1.400 . S
C775 C780 1.490 . S
C776 H766 0.930 . S
C776 C775 1.400 . S
C776 C779 1.386 . S
H777 C793 0.930 . S
H778 C794 0.931 . S
C779 H767 0.929 . S
C779 C773 1.390 . S
C779 C776 1.386 . S
C780 C775 1.490 . S
C780 C782 1.395 . S
C780 C783 1.403 . S
H781 C787 0.930 . S
C782 H768 0.930 . S
C782 C780 1.395 . S
C782 C785 1.403 . S
C783 C780 1.403 . S
C783 C784 1.524 . S
C783 C787 1.400 . S
C784 H769 0.960 . S
C784 H770 0.960 . S
C784 H771 0.960 . S
C784 C783 1.524 . S
C785 C782 1.403 . S
C785 C786 1.392 . S
C785 C789 1.495 . S
C786 C785 1.392 . S
C786 C787 1.385 . S
C786 C788 1.478 . S
C787 H781 0.930 . S
C787 C783 1.400 . S
C787 C786 1.385 . S
C788 C786 1.478 . S
C788 C790 1.381 . S
C788 C794 1.383 . S
C789 C785 1.495 . S
C789 H795 0.959 . S
C789 H796 0.961 . S
C789 H797 0.960 . S
C790 C788 1.381 . S
C790 C791 1.394 . S
C790 H798 0.930 . S
C791 C790 1.394 . S
C791 C792 1.383 . S
C791 H799 0.929 . S
C792 C791 1.383 . S
C792 C793 1.377 . S
C793 H777 0.930 . S
C793 C792 1.377 . S
C793 C794 1.379 . S
C794 H778 0.931 . S
C794 C788 1.383 . S
C794 C793 1.379 . S
H795 C789 0.959 . S
H796 C789 0.961 . S
H797 C789 0.960 . S
H798 C790 0.930 . S
H799 C791 0.929 . S
H800 C808 0.929 . S
H801 C810 0.930 . S
H802 C812 0.930 . S
H803 C815 0.929 . S
H804 C818 0.930 . S
H805 C820 0.960 . S
H806 C820 0.960 . S
H807 C820 0.960 . S
C808 H800 0.929 . S
C808 C809 1.377 . S
C808 C810 1.384 . S
C809 C808 1.377 . S
C809 C815 1.390 . S
C810 H801 0.930 . S
C810 C808 1.384 . S
C810 C811 1.372 . S
C811 C810 1.372 . S
C811 C812 1.400 . S
C811 C816 1.490 . S
C812 H802 0.930 . S
C812 C811 1.400 . S
C812 C815 1.386 . S
H813 C829 0.930 . S
H814 C830 0.931 . S
C815 H803 0.929 . S
C815 C809 1.390 . S
C815 C812 1.386 . S
C816 C811 1.490 . S
C816 C818 1.395 . S
C816 C819 1.403 . S
H817 C823 0.930 . S
C818 H804 0.930 . S
C818 C816 1.395 . S
C818 C821 1.403 . S
C819 C816 1.403 . S
C819 C820 1.524 . S
C819 C823 1.400 . S
C820 H805 0.960 . S
C820 H806 0.960 . S
C820 H807 0.960 . S
C820 C819 1.524 . S
C821 C818 1.403 . S
C821 C822 1.392 . S
C821 C825 1.495 . S
C822 C821 1.392 . S
C822 C823 1.385 . S
C822 C824 1.478 . S
C823 H817 0.930 . S
C823 C819 1.400 . S
C823 C822 1.385 . S
C824 C822 1.478 . S
C824 C826 1.381 . S
C824 C830 1.383 . S
C825 C821 1.495 . S
C825 H831 0.959 . S
C825 H832 0.961 . S
C825 H833 0.960 . S
C826 C824 1.381 . S
C826 C827 1.394 . S
C826 H834 0.930 . S
C827 C826 1.394 . S
C827 C828 1.383 . S
C827 H835 0.929 . S
C828 C827 1.383 . S
C828 C829 1.377 . S
C829 H813 0.930 . S
C829 C828 1.377 . S
C829 C830 1.379 . S
C830 H814 0.931 . S
C830 C824 1.383 . S
C830 C829 1.379 . S
H831 C825 0.959 . S
H832 C825 0.961 . S
H833 C825 0.960 . S
H834 C826 0.930 . S
H835 C827 0.929 . S
H836 C844 0.929 . S
H837 C846 0.930 . S
H838 C848 0.930 . S
H839 C851 0.929 . S
H840 C854 0.930 . S
H841 C856 0.960 . S
H842 C856 0.960 . S
H843 C856 0.960 . S
C844 H836 0.929 . S
C844 C845 1.377 . S
C844 C846 1.384 . S
C845 C844 1.377 . S
C845 C851 1.390 . S
C846 H837 0.930 . S
C846 C844 1.384 . S
C846 C847 1.372 . S
C847 C846 1.372 . S
C847 C848 1.400 . S
C847 C852 1.490 . S
C848 H838 0.930 . S
C848 C847 1.400 . S
C848 C851 1.386 . S
H849 C865 0.930 . S
H850 C866 0.931 . S
C851 H839 0.929 . S
C851 C845 1.390 . S
C851 C848 1.386 . S
C852 C847 1.490 . S
C852 C854 1.395 . S
C852 C855 1.403 . S
H853 C859 0.930 . S
C854 H840 0.930 . S
C854 C852 1.395 . S
C854 C857 1.403 . S
C855 C852 1.403 . S
C855 C856 1.524 . S
C855 C859 1.400 . S
C856 H841 0.960 . S
C856 H842 0.960 . S
C856 H843 0.960 . S
C856 C855 1.524 . S
C857 C854 1.403 . S
C857 C858 1.392 . S
C857 C861 1.495 . S
C858 C857 1.392 . S
C858 C859 1.385 . S
C858 C860 1.478 . S
C859 H853 0.930 . S
C859 C855 1.400 . S
C859 C858 1.385 . S
C860 C858 1.478 . S
C860 C862 1.381 . S
C860 C866 1.383 . S
C861 C857 1.495 . S
C861 H867 0.959 . S
C861 H868 0.961 . S
C861 H869 0.960 . S
C862 C860 1.381 . S
C862 C863 1.394 . S
C862 H870 0.930 . S
C863 C862 1.394 . S
C863 C864 1.383 . S
C863 H871 0.929 . S
C864 C863 1.383 . S
C864 C865 1.377 . S
C865 H849 0.930 . S
C865 C864 1.377 . S
C865 C866 1.379 . S
C866 H850 0.931 . S
C866 C860 1.383 . S
C866 C865 1.379 . S
H867 C861 0.959 . S
H868 C861 0.961 . S
H869 C861 0.960 . S
H870 C862 0.930 . S
H871 C863 0.929 . S
H872 C880 0.929 . S
H873 C882 0.930 . S
H874 C884 0.930 . S
H875 C887 0.929 . S
H876 C890 0.930 . S
H877 C892 0.960 . S
H878 C892 0.960 . S
H879 C892 0.960 . S
C880 H872 0.929 . S
C880 C881 1.377 . S
C880 C882 1.384 . S
C881 C880 1.377 . S
C881 C887 1.390 . S
C882 H873 0.930 . S
C882 C880 1.384 . S
C882 C883 1.372 . S
C883 C882 1.372 . S
C883 C884 1.400 . S
C883 C888 1.490 . S
C884 H874 0.930 . S
C884 C883 1.400 . S
C884 C887 1.386 . S
H885 C901 0.930 . S
H886 C902 0.931 . S
C887 H875 0.929 . S
C887 C881 1.390 . S
C887 C884 1.386 . S
C888 C883 1.490 . S
C888 C890 1.395 . S
C888 C891 1.403 . S
H889 C895 0.930 . S
C890 H876 0.930 . S
C890 C888 1.395 . S
C890 C893 1.403 . S
C891 C888 1.403 . S
C891 C892 1.524 . S
C891 C895 1.400 . S
C892 H877 0.960 . S
C892 H878 0.960 . S
C892 H879 0.960 . S
C892 C891 1.524 . S
C893 C890 1.403 . S
C893 C894 1.392 . S
C893 C897 1.495 . S
C894 C893 1.392 . S
C894 C895 1.385 . S
C894 C896 1.478 . S
C895 H889 0.930 . S
C895 C891 1.400 . S
C895 C894 1.385 . S
C896 C894 1.478 . S
C896 C898 1.381 . S
C896 C902 1.383 . S
C897 C893 1.495 . S
C897 H903 0.959 . S
C897 H904 0.961 . S
C897 H905 0.960 . S
C898 C896 1.381 . S
C898 C899 1.394 . S
C898 H906 0.930 . S
C899 C898 1.394 . S
C899 C900 1.383 . S
C899 H907 0.929 . S
C900 C899 1.383 . S
C900 C901 1.377 . S
C901 H885 0.930 . S
C901 C900 1.377 . S
C901 C902 1.379 . S
C902 H886 0.931 . S
C902 C896 1.383 . S
C902 C901 1.379 . S
H903 C897 0.959 . S
H904 C897 0.961 . S
H905 C897 0.960 . S
H906 C898 0.930 . S
H907 C899 0.929 . S
H908 C916 0.929 . S
H909 C918 0.930 . S
H910 C920 0.930 . S
H911 C923 0.929 . S
H912 C926 0.930 . S
H913 C928 0.960 . S
H914 C928 0.960 . S
H915 C928 0.960 . S
C916 H908 0.929 . S
C916 C917 1.377 . S
C916 C918 1.384 . S
C917 C916 1.377 . S
C917 C923 1.390 . S
C918 H909 0.930 . S
C918 C916 1.384 . S
C918 C919 1.372 . S
C919 C918 1.372 . S
C919 C920 1.400 . S
C919 C924 1.490 . S
C920 H910 0.930 . S
C920 C919 1.400 . S
C920 C923 1.386 . S
H921 C937 0.930 . S
H922 C938 0.931 . S
C923 H911 0.929 . S
C923 C917 1.390 . S
C923 C920 1.386 . S
C924 C919 1.490 . S
C924 C926 1.395 . S
C924 C927 1.403 . S
H925 C931 0.930 . S
C926 H912 0.930 . S
C926 C924 1.395 . S
C926 C929 1.403 . S
C927 C924 1.403 . S
C927 C928 1.524 . S
C927 C931 1.400 . S
C928 H913 0.960 . S
C928 H914 0.960 . S
C928 H915 0.960 . S
C928 C927 1.524 . S
C929 C926 1.403 . S
C929 C930 1.392 . S
C929 C933 1.495 . S
C930 C929 1.392 . S
C930 C931 1.385 . S
C930 C932 1.478 . S
C931 H925 0.930 . S
C931 C927 1.400 . S
C931 C930 1.385 . S
C932 C930 1.478 . S
C932 C934 1.381 . S
C932 C938 1.383 . S
C933 C929 1.495 . S
C933 H939 0.959 . S
C933 H940 0.961 . S
C933 H941 0.960 . S
C934 C932 1.381 . S
C934 C935 1.394 . S
C934 H942 0.930 . S
C935 C934 1.394 . S
C935 C936 1.383 . S
C935 H943 0.929 . S
C936 C935 1.383 . S
C936 C937 1.377 . S
C937 H921 0.930 . S
C937 C936 1.377 . S
C937 C938 1.379 . S
C938 H922 0.931 . S
C938 C932 1.383 . S
C938 C937 1.379 . S
H939 C933 0.959 . S
H940 C933 0.961 . S
H941 C933 0.960 . S
H942 C934 0.930 . S
H943 C935 0.929 . S
H944 C952 0.929 . S
H945 C954 0.930 . S
H946 C956 0.930 . S
H947 C959 0.929 . S
H948 C962 0.930 . S
H949 C964 0.960 . S
H950 C964 0.960 . S
H951 C964 0.960 . S
C952 H944 0.929 . S
C952 C953 1.377 . S
C952 C954 1.384 . S
C953 C952 1.377 . S
C953 C959 1.390 . S
C954 H945 0.930 . S
C954 C952 1.384 . S
C954 C955 1.372 . S
C955 C954 1.372 . S
C955 C956 1.400 . S
C955 C960 1.490 . S
C956 H946 0.930 . S
C956 C955 1.400 . S
C956 C959 1.386 . S
H957 C973 0.930 . S
H958 C974 0.931 . S
C959 H947 0.929 . S
C959 C953 1.390 . S
C959 C956 1.386 . S
C960 C955 1.490 . S
C960 C962 1.395 . S
C960 C963 1.403 . S
H961 C967 0.930 . S
C962 H948 0.930 . S
C962 C960 1.395 . S
C962 C965 1.403 . S
C963 C960 1.403 . S
C963 C964 1.524 . S
C963 C967 1.400 . S
C964 H949 0.960 . S
C964 H950 0.960 . S
C964 H951 0.960 . S
C964 C963 1.524 . S
C965 C962 1.403 . S
C965 C966 1.392 . S
C965 C969 1.495 . S
C966 C965 1.392 . S
C966 C967 1.385 . S
C966 C968 1.478 . S
C967 H961 0.930 . S
C967 C963 1.400 . S
C967 C966 1.385 . S
C968 C966 1.478 . S
C968 C970 1.381 . S
C968 C974 1.383 . S
C969 C965 1.495 . S
C969 H975 0.959 . S
C969 H976 0.961 . S
C969 H977 0.960 . S
C970 C968 1.381 . S
C970 C971 1.394 . S
C970 H978 0.930 . S
C971 C970 1.394 . S
C971 C972 1.383 . S
C971 H979 0.929 . S
C972 C971 1.383 . S
C972 C973 1.377 . S
C973 H957 0.930 . S
C973 C972 1.377 . S
C973 C974 1.379 . S
C974 H958 0.931 . S
C974 C968 1.383 . S
C974 C973 1.379 . S
H975 C969 0.959 . S
H976 C969 0.961 . S
H977 C969 0.960 . S
H978 C970 0.930 . S
H979 C971 0.929 . S
H980 C988 0.929 . S
H981 C990 0.930 . S
H982 C992 0.930 . S
H983 C995 0.929 . S
H984 C998 0.930 . S
H985 C1000 0.960 . S
H986 C1000 0.960 . S
H987 C1000 0.960 . S
C988 H980 0.929 . S
C988 C989 1.377 . S
C988 C990 1.384 . S
C989 C988 1.377 . S
C989 C995 1.390 . S
C990 H981 0.930 . S
C990 C988 1.384 . S
C990 C991 1.372 . S
C991 C990 1.372 . S
C991 C992 1.400 . S
C991 C996 1.490 . S
C992 H982 0.930 . S
C992 C991 1.400 . S
C992 C995 1.386 . S
H993 C1009 0.930 . S
H994 C1010 0.931 . S
C995 H983 0.929 . S
C995 C989 1.390 . S
C995 C992 1.386 . S
C996 C991 1.490 . S
C996 C998 1.395 . S
C996 C999 1.403 . S
H997 C1003 0.930 . S
C998 H984 0.930 . S
C998 C996 1.395 . S
C998 C1001 1.403 . S
C999 C996 1.403 . S
C999 C1000 1.524 . S
C999 C1003 1.400 . S
C1000 H985 0.960 . S
C1000 H986 0.960 . S
C1000 H987 0.960 . S
C1000 C999 1.524 . S
C1001 C998 1.403 . S
C1001 C1002 1.392 . S
C1001 C1005 1.495 . S
C1002 C1001 1.392 . S
C1002 C1003 1.385 . S
C1002 C1004 1.478 . S
C1003 H997 0.930 . S
C1003 C999 1.400 . S
C1003 C1002 1.385 . S
C1004 C1002 1.478 . S
C1004 C1006 1.381 . S
C1004 C1010 1.383 . S
C1005 C1001 1.495 . S
C1005 H1011 0.959 . S
C1005 H1012 0.961 . S
C1005 H1013 0.960 . S
C1006 C1004 1.381 . S
C1006 C1007 1.394 . S
C1006 H1014 0.930 . S
C1007 C1006 1.394 . S
C1007 C1008 1.383 . S
C1007 H1015 0.929 . S
C1008 C1007 1.383 . S
C1008 C1009 1.377 . S
C1009 H993 0.930 . S
C1009 C1008 1.377 . S
C1009 C1010 1.379 . S
C1010 H994 0.931 . S
C1010 C1004 1.383 . S
C1010 C1009 1.379 . S
H1011 C1005 0.959 . S
H1012 C1005 0.961 . S
H1013 C1005 0.960 . S
H1014 C1006 0.930 . S
H1015 C1007 0.929 . S
H1016 C1024 0.929 . S
H1017 C1026 0.930 . S
H1018 C1028 0.930 . S
H1019 C1031 0.929 . S
H1020 C1034 0.930 . S
H1021 C1036 0.960 . S
H1022 C1036 0.960 . S
H1023 C1036 0.960 . S
C1024 H1016 0.929 . S
C1024 C1025 1.377 . S
C1024 C1026 1.384 . S
C1025 C1024 1.377 . S
C1025 C1031 1.390 . S
C1026 H1017 0.930 . S
C1026 C1024 1.384 . S
C1026 C1027 1.372 . S
C1027 C1026 1.372 . S
C1027 C1028 1.400 . S
C1027 C1032 1.490 . S
C1028 H1018 0.930 . S
C1028 C1027 1.400 . S
C1028 C1031 1.386 . S
H1029 C1045 0.930 . S
H1030 C1046 0.931 . S
C1031 H1019 0.929 . S
C1031 C1025 1.390 . S
C1031 C1028 1.386 . S
C1032 C1027 1.490 . S
C1032 C1034 1.395 . S
C1032 C1035 1.403 . S
H1033 C1039 0.930 . S
C1034 H1020 0.930 . S
C1034 C1032 1.395 . S
C1034 C1037 1.403 . S
C1035 C1032 1.403 . S
C1035 C1036 1.524 . S
C1035 C1039 1.400 . S
C1036 H1021 0.960 . S
C1036 H1022 0.960 . S
C1036 H1023 0.960 . S
C1036 C1035 1.524 . S
C1037 C1034 1.403 . S
C1037 C1038 1.392 . S
C1037 C1041 1.495 . S
C1038 C1037 1.392 . S
C1038 C1039 1.385 . S
C1038 C1040 1.478 . S
C1039 H1033 0.930 . S
C1039 C1035 1.400 . S
C1039 C1038 1.385 . S
C1040 C1038 1.478 . S
C1040 C1042 1.381 . S
C1040 C1046 1.383 . S
C1041 C1037 1.495 . S
C1041 H1047 0.959 . S
C1041 H1048 0.961 . S
C1041 H1049 0.960 . S
C1042 C1040 1.381 . S
C1042 C1043 1.394 . S
C1042 H1050 0.930 . S
C1043 C1042 1.394 . S
C1043 C1044 1.383 . S
C1043 H1051 0.929 . S
C1044 C1043 1.383 . S
C1044 C1045 1.377 . S
C1045 H1029 0.930 . S
C1045 C1044 1.377 . S
C1045 C1046 1.379 . S
C1046 H1030 0.931 . S
C1046 C1040 1.383 . S
C1046 C1045 1.379 . S
H1047 C1041 0.959 . S
H1048 C1041 0.961 . S
H1049 C1041 0.960 . S
H1050 C1042 0.930 . S
H1051 C1043 0.929 . S
H1052 C1060 0.929 . S
H1053 C1062 0.930 . S
H1054 C1064 0.930 . S
H1055 C1067 0.929 . S
H1056 C1070 0.930 . S
H1057 C1072 0.960 . S
H1058 C1072 0.960 . S
H1059 C1072 0.960 . S
C1060 H1052 0.929 . S
C1060 C1061 1.377 . S
C1060 C1062 1.384 . S
C1061 C1060 1.377 . S
C1061 C1067 1.390 . S
C1062 H1053 0.930 . S
C1062 C1060 1.384 . S
C1062 C1063 1.372 . S
C1063 C1062 1.372 . S
C1063 C1064 1.400 . S
C1063 C1068 1.490 . S
C1064 H1054 0.930 . S
C1064 C1063 1.400 . S
C1064 C1067 1.386 . S
H1065 C1081 0.930 . S
H1066 C1082 0.931 . S
C1067 H1055 0.929 . S
C1067 C1061 1.390 . S
C1067 C1064 1.386 . S
C1068 C1063 1.490 . S
C1068 C1070 1.395 . S
C1068 C1071 1.403 . S
H1069 C1075 0.930 . S
C1070 H1056 0.930 . S
C1070 C1068 1.395 . S
C1070 C1073 1.403 . S
C1071 C1068 1.403 . S
C1071 C1072 1.524 . S
C1071 C1075 1.400 . S
C1072 H1057 0.960 . S
C1072 H1058 0.960 . S
C1072 H1059 0.960 . S
C1072 C1071 1.524 . S
C1073 C1070 1.403 . S
C1073 C1074 1.392 . S
C1073 C1077 1.495 . S
C1074 C1073 1.392 . S
C1074 C1075 1.385 . S
C1074 C1076 1.478 . S
C1075 H1069 0.930 . S
C1075 C1071 1.400 . S
C1075 C1074 1.385 . S
C1076 C1074 1.478 . S
C1076 C1078 1.381 . S
C1076 C1082 1.383 . S
C1077 C1073 1.495 . S
C1077 H1083 0.959 . S
C1077 H1084 0.961 . S
C1077 H1085 0.960 . S
C1078 C1076 1.381 . S
C1078 C1079 1.394 . S
C1078 H1086 0.930 . S
C1079 C1078 1.394 . S
C1079 C1080 1.383 . S
C1079 H1087 0.929 . S
C1080 C1079 1.383 . S
C1080 C1081 1.377 . S
C1081 H1065 0.930 . S
C1081 C1080 1.377 . S
C1081 C1082 1.379 . S
C1082 H1066 0.931 . S
C1082 C1076 1.383 . S
C1082 C1081 1.379 . S
H1083 C1077 0.959 . S
H1084 C1077 0.961 . S
H1085 C1077 0.960 . S
H1086 C1078 0.930 . S
H1087 C1079 0.929 . S
H1088 C1096 0.929 . S
H1089 C1098 0.930 . S
H1090 C1100 0.937 . S
H1091 C1103 0.929 . S
H1092 C1106 0.930 . S
H1093 C1108 0.959 1_565 S
H1094 C1108 0.984 . S
H1095 C1108 0.978 . S
C1096 H1088 0.929 . S
C1096 C1097 1.377 . S
C1096 C1098 1.384 1_545 S
C1097 C1096 1.377 . S
C1097 C1103 1.390 . S
C1098 H1089 0.930 . S
C1098 C1096 1.384 1_565 S
C1098 C1099 1.372 . S
C1099 C1098 1.372 . S
C1099 C1100 1.400 1_565 S
C1099 C1104 1.490 . S
C1100 H1090 0.937 . S
C1100 C1099 1.400 1_545 S
C1100 C1103 1.386 . S
H1101 C1117 0.930 . S
H1102 C1118 0.931 . S
C1103 H1091 0.929 . S
C1103 C1097 1.390 . S
C1103 C1100 1.386 . S
C1104 C1099 1.490 . S
C1104 C1106 1.395 . S
C1104 C1107 1.403 . S
H1105 C1111 0.930 . S
C1106 H1092 0.930 . S
C1106 C1104 1.395 . S
C1106 C1109 1.403 . S
C1107 C1104 1.403 . S
C1107 C1108 1.486 1_565 S
C1107 C1111 1.400 . S
C1108 H1093 0.959 1_545 S
C1108 H1094 0.984 . S
C1108 H1095 0.978 . S
C1108 C1107 1.486 1_545 S
C1109 C1106 1.403 . S
C1109 C1110 1.392 . S
C1109 C1113 1.495 . S
C1110 C1109 1.392 . S
C1110 C1111 1.385 . S
C1110 C1112 1.478 . S
C1111 H1105 0.930 . S
C1111 C1107 1.400 . S
C1111 C1110 1.385 . S
C1112 C1110 1.478 . S
C1112 C1114 1.381 . S
C1112 C1118 1.383 . S
C1113 C1109 1.495 . S
C1113 H1119 0.959 . S
C1113 H1120 0.961 . S
C1113 H1121 0.960 . S
C1114 C1112 1.381 . S
C1114 C1115 1.394 . S
C1114 H1122 0.930 . S
C1115 C1114 1.394 . S
C1115 C1116 1.383 . S
C1115 H1123 0.929 . S
C1116 C1115 1.383 . S
C1116 C1117 1.377 . S
C1117 H1101 0.930 . S
C1117 C1116 1.377 . S
C1117 C1118 1.379 . S
C1118 H1102 0.931 . S
C1118 C1112 1.383 . S
C1118 C1117 1.379 . S
H1119 C1113 0.959 . S
H1120 C1113 0.961 . S
H1121 C1113 0.960 . S
H1122 C1114 0.930 . S
H1123 C1115 0.929 . S
H1124 C1132 0.929 . S
H1125 C1134 0.930 . S
H1126 C1136 0.930 . S
H1127 C1139 0.929 . S
H1128 C1142 0.930 . S
H1129 C1144 0.960 . S
H1130 C1144 0.960 . S
H1131 C1144 0.960 . S
C1132 H1124 0.929 . S
C1132 C1133 1.377 . S
C1132 C1134 1.384 . S
C1133 C1132 1.377 . S
C1133 C1139 1.390 . S
C1134 H1125 0.930 . S
C1134 C1132 1.384 . S
C1134 C1135 1.372 . S
C1135 C1134 1.372 . S
C1135 C1136 1.400 . S
C1135 C1140 1.490 . S
C1136 H1126 0.930 . S
C1136 C1135 1.400 . S
C1136 C1139 1.386 . S
H1137 C1153 0.930 . S
H1138 C1154 0.931 . S
C1139 H1127 0.929 . S
C1139 C1133 1.390 . S
C1139 C1136 1.386 . S
C1140 C1135 1.490 . S
C1140 C1142 1.395 . S
C1140 C1143 1.403 . S
H1141 C1147 0.930 . S
C1142 H1128 0.930 . S
C1142 C1140 1.395 . S
C1142 C1145 1.403 . S
C1143 C1140 1.403 . S
C1143 C1144 1.524 . S
C1143 C1147 1.400 . S
C1144 H1129 0.960 . S
C1144 H1130 0.960 . S
C1144 H1131 0.960 . S
C1144 C1143 1.524 . S
C1145 C1142 1.403 . S
C1145 C1146 1.392 . S
C1145 C1149 1.495 . S
C1146 C1145 1.392 . S
C1146 C1147 1.385 . S
C1146 C1148 1.478 . S
C1147 H1141 0.930 . S
C1147 C1143 1.400 . S
C1147 C1146 1.385 . S
C1148 C1146 1.478 . S
C1148 C1150 1.381 . S
C1148 C1154 1.383 . S
C1149 C1145 1.495 . S
C1149 H1155 0.959 . S
C1149 H1156 0.961 . S
C1149 H1157 0.960 . S
C1150 C1148 1.381 . S
C1150 C1151 1.394 . S
C1150 H1158 0.930 . S
C1151 C1150 1.394 . S
C1151 C1152 1.383 . S
C1151 H1159 0.929 . S
C1152 C1151 1.383 . S
C1152 C1153 1.377 . S
C1153 H1137 0.930 . S
C1153 C1152 1.377 . S
C1153 C1154 1.379 . S
C1154 H1138 0.931 . S
C1154 C1148 1.383 . S
C1154 C1153 1.379 . S
H1155 C1149 0.959 . S
H1156 C1149 0.961 . S
H1157 C1149 0.960 . S
H1158 C1150 0.930 . S
H1159 C1151 0.929 . S
H1160 C1168 0.929 . S
H1161 C1170 0.930 . S
H1162 C1172 0.930 . S
H1163 C1175 0.929 . S
H1164 C1178 0.930 . S
H1165 C1180 0.960 . S
H1166 C1180 0.960 . S
H1167 C1180 0.960 . S
C1168 H1160 0.929 . S
C1168 C1169 1.377 . S
C1168 C1170 1.384 . S
C1169 C1168 1.377 . S
C1169 C1175 1.390 . S
C1170 H1161 0.930 . S
C1170 C1168 1.384 . S
C1170 C1171 1.372 . S
C1171 C1170 1.372 . S
C1171 C1172 1.400 . S
C1171 C1176 1.490 . S
C1172 H1162 0.930 . S
C1172 C1171 1.400 . S
C1172 C1175 1.386 . S
H1173 C1189 0.930 . S
H1174 C1190 0.931 . S
C1175 H1163 0.929 . S
C1175 C1169 1.390 . S
C1175 C1172 1.386 . S
C1176 C1171 1.490 . S
C1176 C1178 1.395 . S
C1176 C1179 1.403 . S
H1177 C1183 0.930 . S
C1178 H1164 0.930 . S
C1178 C1176 1.395 . S
C1178 C1181 1.403 . S
C1179 C1176 1.403 . S
C1179 C1180 1.524 . S
C1179 C1183 1.400 . S
C1180 H1165 0.960 . S
C1180 H1166 0.960 . S
C1180 H1167 0.960 . S
C1180 C1179 1.524 . S
C1181 C1178 1.403 . S
C1181 C1182 1.392 . S
C1181 C1185 1.495 . S
C1182 C1181 1.392 . S
C1182 C1183 1.385 . S
C1182 C1184 1.478 . S
C1183 H1177 0.930 . S
C1183 C1179 1.400 . S
C1183 C1182 1.385 . S
C1184 C1182 1.478 . S
C1184 C1186 1.381 1_455 S
C1184 C1190 1.383 . S
C1185 C1181 1.495 . S
C1185 H1191 0.959 . S
C1185 H1192 0.961 . S
C1185 H1193 0.960 . S
C1186 C1184 1.381 1_655 S
C1186 C1187 1.394 . S
C1186 H1194 0.930 . S
C1187 C1186 1.394 . S
C1187 C1188 1.383 . S
C1187 H1195 0.929 . S
C1188 C1187 1.383 . S
C1188 C1189 1.377 . S
C1189 H1173 0.930 . S
C1189 C1188 1.377 . S
C1189 C1190 1.379 1_655 S
C1190 H1174 0.931 . S
C1190 C1184 1.383 . S
C1190 C1189 1.379 1_455 S
H1191 C1185 0.959 . S
H1192 C1185 0.961 . S
H1193 C1185 0.960 . S
H1194 C1186 0.930 . S
H1195 C1187 0.929 . S
H1196 C1204 0.929 . S
H1197 C1206 0.930 . S
H1198 C1208 0.930 . S
H1199 C1211 0.929 . S
H1200 C1214 0.930 . S
H1201 C1216 0.960 . S
H1202 C1216 0.960 . S
H1203 C1216 0.960 . S
C1204 H1196 0.929 . S
C1204 C1205 1.377 . S
C1204 C1206 1.384 . S
C1205 C1204 1.377 . S
C1205 C1211 1.390 . S
C1206 H1197 0.930 . S
C1206 C1204 1.384 . S
C1206 C1207 1.372 1_565 S
C1207 C1206 1.372 1_545 S
C1207 C1208 1.400 . S
C1207 C1212 1.490 . S
C1208 H1198 0.930 . S
C1208 C1207 1.400 . S
C1208 C1211 1.386 1_545 S
H1209 C1225 0.930 . S
H1210 C1226 0.931 . S
C1211 H1199 0.929 . S
C1211 C1205 1.390 . S
C1211 C1208 1.386 1_565 S
C1212 C1207 1.490 . S
C1212 C1214 1.395 . S
C1212 C1215 1.403 . S
H1213 C1219 0.930 . S
C1214 H1200 0.930 . S
C1214 C1212 1.395 . S
C1214 C1217 1.403 . S
C1215 C1212 1.403 . S
C1215 C1216 1.524 . S
C1215 C1219 1.400 . S
C1216 H1201 0.960 . S
C1216 H1202 0.960 . S
C1216 H1203 0.960 . S
C1216 C1215 1.524 . S
C1217 C1214 1.403 . S
C1217 C1218 1.392 . S
C1217 C1221 1.495 1_655 S
C1218 C1217 1.392 . S
C1218 C1219 1.385 . S
C1218 C1220 1.478 . S
C1219 H1213 0.930 . S
C1219 C1215 1.400 . S
C1219 C1218 1.385 . S
C1220 C1218 1.478 . S
C1220 C1222 1.381 1_655 S
C1220 C1226 1.383 . S
C1221 C1217 1.495 1_455 S
C1221 H1227 0.961 . S
C1221 H1228 0.961 . S
C1221 H1229 0.960 . S
C1222 C1220 1.381 1_455 S
C1222 C1223 1.394 . S
C1222 H1230 0.930 . S
C1223 C1222 1.394 . S
C1223 C1224 1.383 . S
C1223 H1231 0.929 . S
C1224 C1223 1.383 . S
C1224 C1225 1.377 . S
C1225 H1209 0.930 . S
C1225 C1224 1.377 . S
C1225 C1226 1.379 1_455 S
C1226 H1210 0.931 . S
C1226 C1220 1.383 . S
C1226 C1225 1.379 1_655 S
H1227 C1221 0.961 . S
H1228 C1221 0.961 . S
H1229 C1221 0.960 . S
H1230 C1222 0.930 . S
H1231 C1223 0.929 . S
H1232 C1240 0.929 . S
H1233 C1242 0.930 . S
H1234 C1244 0.930 . S
H1235 C1247 0.929 . S
H1236 C1250 0.930 . S
H1237 C1252 0.960 . S
H1238 C1252 0.960 . S
H1239 C1252 0.960 . S
C1240 H1232 0.929 . S
C1240 C1241 1.377 . S
C1240 C1242 1.384 . S
C1241 C1240 1.377 . S
C1241 C1247 1.390 . S
C1242 H1233 0.930 . S
C1242 C1240 1.384 . S
C1242 C1243 1.372 . S
C1243 C1242 1.372 . S
C1243 C1244 1.400 . S
C1243 C1248 1.490 . S
C1244 H1234 0.930 . S
C1244 C1243 1.400 . S
C1244 C1247 1.386 . S
H1245 C1261 0.930 . S
H1246 C1262 0.931 . S
C1247 H1235 0.929 . S
C1247 C1241 1.390 . S
C1247 C1244 1.386 . S
C1248 C1243 1.490 . S
C1248 C1250 1.395 . S
C1248 C1251 1.403 . S
H1249 C1255 0.930 . S
C1250 H1236 0.930 . S
C1250 C1248 1.395 . S
C1250 C1253 1.403 . S
C1251 C1248 1.403 . S
C1251 C1252 1.524 . S
C1251 C1255 1.400 . S
C1252 H1237 0.960 . S
C1252 H1238 0.960 . S
C1252 H1239 0.960 . S
C1252 C1251 1.524 . S
C1253 C1250 1.403 . S
C1253 C1254 1.392 . S
C1253 C1257 1.495 . S
C1254 C1253 1.392 . S
C1254 C1255 1.385 . S
C1254 C1256 1.478 . S
C1255 H1249 0.930 . S
C1255 C1251 1.400 . S
C1255 C1254 1.385 . S
C1256 C1254 1.478 . S
C1256 C1258 1.381 . S
C1256 C1262 1.383 . S
C1257 C1253 1.495 . S
C1257 H1263 0.959 . S
C1257 H1264 0.961 . S
C1257 H1265 0.960 . S
C1258 C1256 1.381 . S
C1258 C1259 1.394 . S
C1258 H1266 0.930 . S
C1259 C1258 1.394 . S
C1259 C1260 1.383 . S
C1259 H1267 0.929 . S
C1260 C1259 1.383 . S
C1260 C1261 1.377 . S
C1261 H1245 0.930 . S
C1261 C1260 1.377 . S
C1261 C1262 1.379 . S
C1262 H1246 0.931 . S
C1262 C1256 1.383 . S
C1262 C1261 1.379 . S
H1263 C1257 0.959 . S
H1264 C1257 0.961 . S
H1265 C1257 0.960 . S
H1266 C1258 0.930 . S
H1267 C1259 0.929 . S
H1268 C1276 0.929 1_655 S
H1269 C1278 0.930 . S
H1270 C1280 0.930 . S
H1271 C1283 0.929 . S
H1272 C1286 0.930 . S
H1273 C1288 0.960 . S
H1274 C1288 0.960 . S
H1275 C1288 0.960 1_455 S
C1276 H1268 0.929 1_455 S
C1276 C1277 1.377 . S
C1276 C1278 1.384 1_455 S
C1277 C1276 1.377 . S
C1277 C1283 1.390 . S
C1278 H1269 0.930 . S
C1278 C1276 1.384 1_655 S
C1278 C1279 1.372 . S
C1279 C1278 1.372 . S
C1279 C1280 1.400 1_655 S
C1279 C1284 1.490 . S
C1280 H1270 0.930 . S
C1280 C1279 1.400 1_455 S
C1280 C1283 1.386 . S
H1281 C1297 0.930 . S
H1282 C1298 0.931 . S
C1283 H1271 0.929 . S
C1283 C1277 1.390 . S
C1283 C1280 1.386 . S
C1284 C1279 1.490 . S
C1284 C1286 1.395 . S
C1284 C1287 1.403 . S
H1285 C1291 0.930 . S
C1286 H1272 0.930 . S
C1286 C1284 1.395 . S
C1286 C1289 1.403 . S
C1287 C1284 1.403 . S
C1287 C1288 1.524 . S
C1287 C1291 1.400 . S
C1288 H1273 0.960 . S
C1288 H1274 0.960 . S
C1288 H1275 0.960 1_655 S
C1288 C1287 1.524 . S
C1289 C1286 1.403 . S
C1289 C1290 1.392 . S
C1289 C1293 1.495 . S
C1290 C1289 1.392 . S
C1290 C1291 1.385 . S
C1290 C1292 1.478 . S
C1291 H1285 0.930 . S
C1291 C1287 1.400 . S
C1291 C1290 1.385 . S
C1292 C1290 1.478 . S
C1292 C1294 1.381 . S
C1292 C1298 1.383 . S
C1293 C1289 1.495 . S
C1293 H1299 0.959 . S
C1293 H1300 0.961 . S
C1293 H1301 0.960 . S
C1294 C1292 1.381 . S
C1294 C1295 1.394 . S
C1294 H1302 0.930 . S
C1295 C1294 1.394 . S
C1295 C1296 1.383 . S
C1295 H1303 0.929 . S
C1296 C1295 1.383 . S
C1296 C1297 1.377 . S
C1297 H1281 0.930 . S
C1297 C1296 1.377 . S
C1297 C1298 1.379 . S
C1298 H1282 0.931 . S
C1298 C1292 1.383 . S
C1298 C1297 1.379 . S
H1299 C1293 0.959 . S
H1300 C1293 0.961 . S
H1301 C1293 0.960 . S
H1302 C1294 0.930 . S
H1303 C1295 0.929 . S
H1304 C1312 0.929 . S
H1305 C1314 0.930 . S
H1306 C1316 0.930 1_455 S
H1307 C1319 0.929 . S
H1308 C1322 0.930 . S
H1309 C1324 0.960 . S
H1310 C1324 0.963 1_655 S
H1311 C1324 0.962 1_655 S
C1312 H1304 0.929 . S
C1312 C1313 1.377 . S
C1312 C1314 1.384 1_655 S
C1313 C1312 1.377 . S
C1313 C1319 1.390 . S
C1314 H1305 0.930 . S
C1314 C1312 1.384 1_455 S
C1314 C1315 1.372 . S
C1315 C1314 1.372 . S
C1315 C1316 1.400 1_455 S
C1315 C1320 1.490 . S
C1316 H1306 0.930 1_655 S
C1316 C1315 1.400 1_655 S
C1316 C1319 1.386 . S
H1317 C1333 0.930 . S
H1318 C1334 0.931 . S
C1319 H1307 0.929 . S
C1319 C1313 1.390 . S
C1319 C1316 1.386 . S
C1320 C1315 1.490 . S
C1320 C1322 1.395 . S
C1320 C1323 1.403 . S
H1321 C1327 0.930 . S
C1322 H1308 0.930 . S
C1322 C1320 1.395 . S
C1322 C1325 1.403 . S
C1323 C1320 1.403 . S
C1323 C1324 1.519 . S
C1323 C1327 1.400 . S
C1324 H1309 0.960 . S
C1324 H1310 0.963 1_455 S
C1324 H1311 0.962 1_455 S
C1324 C1323 1.519 . S
C1325 C1322 1.403 . S
C1325 C1326 1.392 . S
C1325 C1329 1.495 . S
C1326 C1325 1.392 . S
C1326 C1327 1.385 . S
C1326 C1328 1.478 . S
C1327 H1321 0.930 . S
C1327 C1323 1.400 . S
C1327 C1326 1.385 . S
C1328 C1326 1.478 . S
C1328 C1330 1.381 . S
C1328 C1334 1.383 . S
C1329 C1325 1.495 . S
C1329 H1335 0.959 . S
C1329 H1336 0.961 . S
C1329 H1337 0.960 . S
C1330 C1328 1.381 . S
C1330 C1331 1.394 1_565 S
C1330 H1338 0.930 . S
C1331 C1330 1.394 1_545 S
C1331 C1332 1.383 . S
C1331 H1339 0.929 . S
C1332 C1331 1.383 . S
C1332 C1333 1.377 . S
C1333 H1317 0.930 . S
C1333 C1332 1.377 . S
C1333 C1334 1.379 1_545 S
C1334 H1318 0.931 . S
C1334 C1328 1.383 . S
C1334 C1333 1.379 1_565 S
H1335 C1329 0.959 . S
H1336 C1329 0.961 . S
H1337 C1329 0.960 . S
H1338 C1330 0.930 . S
H1339 C1331 0.929 . S
H1340 C1348 0.929 1_545 S
H1341 C1350 0.930 . S
H1342 C1352 0.930 . S
H1343 C1355 0.929 . S
H1344 C1358 0.930 . S
H1345 C1360 0.960 . S
H1346 C1360 0.960 . S
H1347 C1360 0.960 . S
C1348 H1340 0.929 1_565 S
C1348 C1349 1.377 . S
C1348 C1350 1.384 1_565 S
C1349 C1348 1.377 . S
C1349 C1355 1.390 . S
C1350 H1341 0.930 . S
C1350 C1348 1.384 1_545 S
C1350 C1351 1.372 . S
C1351 C1350 1.372 . S
C1351 C1352 1.400 1_545 S
C1351 C1356 1.490 . S
C1352 H1342 0.930 . S
C1352 C1351 1.400 1_565 S
C1352 C1355 1.386 . S
H1353 C1369 0.930 . S
H1354 C1370 0.931 . S
C1355 H1343 0.929 . S
C1355 C1349 1.390 . S
C1355 C1352 1.386 . S
C1356 C1351 1.490 . S
C1356 C1358 1.395 . S
C1356 C1359 1.403 . S
H1357 C1363 0.930 . S
C1358 H1344 0.930 . S
C1358 C1356 1.395 . S
C1358 C1361 1.403 . S
C1359 C1356 1.403 . S
C1359 C1360 1.524 . S
C1359 C1363 1.400 . S
C1360 H1345 0.960 . S
C1360 H1346 0.960 . S
C1360 H1347 0.960 . S
C1360 C1359 1.524 . S
C1361 C1358 1.403 . S
C1361 C1362 1.392 . S
C1361 C1365 1.495 . S
C1362 C1361 1.392 . S
C1362 C1363 1.385 . S
C1362 C1364 1.478 . S
C1363 H1357 0.930 . S
C1363 C1359 1.400 . S
C1363 C1362 1.385 . S
C1364 C1362 1.478 . S
C1364 C1366 1.381 . S
C1364 C1370 1.383 . S
C1365 C1361 1.495 . S
C1365 H1371 0.959 . S
C1365 H1372 0.961 . S
C1365 H1373 0.960 . S
C1366 C1364 1.381 . S
C1366 C1367 1.394 . S
C1366 H1374 0.930 . S
C1367 C1366 1.394 . S
C1367 C1368 1.383 . S
C1367 H1375 0.929 . S
C1368 C1367 1.383 . S
C1368 C1369 1.377 . S
C1369 H1353 0.930 . S
C1369 C1368 1.377 . S
C1369 C1370 1.379 . S
C1370 H1354 0.931 . S
C1370 C1364 1.383 . S
C1370 C1369 1.379 . S
H1371 C1365 0.959 . S
H1372 C1365 0.961 . S
H1373 C1365 0.960 . S
H1374 C1366 0.930 . S
H1375 C1367 0.929 . S
C233 C110 1.611 . S
C252 C0 1.602 . S
C269 C57 1.606 . S
C288 C15 1.611 . S
C305 C83 1.609 . S
C324 C29 1.593 . S
C341 C55 1.609 . S
C360 C97 1.614 . S
C377 C223 1.607 . S
C396 C112 1.617 . S
C413 C169 1.611 . S
C432 C126 1.596 . S
C449 C152 1.606 . S
C468 C183 1.601 . S
C485 C166 1.606 . S
C504 C196 1.613 . S
C521 C41 1.393 . S
C540 C12 1.384 . S
C557 C27 1.395 . S
C576 C43 1.396 . S
C593 C69 1.396 . S
C612 C85 1.406 . S
C629 C98 1.397 . S
C648 C71 1.406 . S
C665 C124 1.391 . S
C684 C140 1.405 . S
C701 C138 1.390 . S
C720 C154 1.402 . S
C737 C208 1.392 . S
C756 C181 1.407 . S
C773 C195 1.397 . S
C792 C211 1.379 . S
C809 C96 1.620 . S
C828 C1 1.615 . S
C845 C14 1.620 . S
C864 C111 1.620 . S
C881 C28 1.620 . S
C900 C56 1.617 . S
C917 C54 1.621 . S
C936 C82 1.614 . S
C953 C113 1.621 . S
C972 C197 1.615 . S
C989 C127 1.621 . S
C1008 C222 1.622 . S
C1025 C153 1.620 . S
C1044 C168 1.618 . S
C1061 C167 1.621 . S
C1080 C182 1.619 . S
C1097 C13 1.557 . S
C1116 C210 1.562 . S
C1133 C180 1.560 . S
C1152 C26 1.560 . S
C1169 C40 1.558 . S
C1188 C194 1.554 . S
C1205 C209 1.559 . S
C1224 C42 1.554 . S
C1241 C139 1.558 . S
C1260 C68 1.562 . S
C1277 C70 1.559 . S
C1296 C141 1.564 . S
C1313 C155 1.560 . S
C1332 C84 1.564 . S
C1349 C125 1.561 . S
C1368 C99 1.552 . S
