# Generated by pormake.
# Topology umq, (4)-cn, num edge types: 1
# Building blocks:
#     Node 0, Type 0, BuildingBlock: QUQFOY_clean_sbu_3, # of connection points: 4
#     Node 1, Type 0, BuildingBlock: QUQFOY_clean_sbu_3, # of connection points: 4
#     Node 2, Type 0, BuildingBlock: QUQFOY_clean_sbu_3, # of connection points: 4
#     Node 3, Type 0, BuildingBlock: QUQFOY_clean_sbu_3, # of connection points: 4
#     Node 4, Type 0, BuildingBlock: QUQFOY_clean_sbu_3, # of connection points: 4
#     Node 5, Type 0, BuildingBlock: QUQFOY_clean_sbu_3, # of connection points: 4
#     Node 6, Type 0, BuildingBlock: QUQFOY_clean_sbu_3, # of connection points: 4
#     Node 7, Type 0, BuildingBlock: QUQFOY_clean_sbu_3, # of connection points: 4
#     Node 8, Type 0, BuildingBlock: QUQFOY_clean_sbu_3, # of connection points: 4
#     Node 9, Type 0, BuildingBlock: QUQFOY_clean_sbu_3, # of connection points: 4
#     Node 10, Type 0, BuildingBlock: QUQFOY_clean_sbu_3, # of connection points: 4
#     Node 11, Type 0, BuildingBlock: QUQFOY_clean_sbu_3, # of connection points: 4
#     Node 12, Type 0, BuildingBlock: QUQFOY_clean_sbu_3, # of connection points: 4
#     Node 13, Type 0, BuildingBlock: QUQFOY_clean_sbu_3, # of connection points: 4
#     Node 14, Type 0, BuildingBlock: QUQFOY_clean_sbu_3, # of connection points: 4
#     Node 15, Type 0, BuildingBlock: QUQFOY_clean_sbu_3, # of connection points: 4
#     Node 16, Type 0, BuildingBlock: QUQFOY_clean_sbu_3, # of connection points: 4
#     Node 17, Type 0, BuildingBlock: QUQFOY_clean_sbu_3, # of connection points: 4
#     Node 18, Type 0, BuildingBlock: QUQFOY_clean_sbu_3, # of connection points: 4
#     Node 19, Type 0, BuildingBlock: QUQFOY_clean_sbu_3, # of connection points: 4
#     Node 20, Type 0, BuildingBlock: QUQFOY_clean_sbu_3, # of connection points: 4
#     Node 21, Type 0, BuildingBlock: QUQFOY_clean_sbu_3, # of connection points: 4
#     Node 22, Type 0, BuildingBlock: QUQFOY_clean_sbu_3, # of connection points: 4
#     Node 23, Type 0, BuildingBlock: QUQFOY_clean_sbu_3, # of connection points: 4
#     Node 24, Type 0, BuildingBlock: QUQFOY_clean_sbu_3, # of connection points: 4
#     Node 25, Type 0, BuildingBlock: QUQFOY_clean_sbu_3, # of connection points: 4
#     Node 26, Type 0, BuildingBlock: QUQFOY_clean_sbu_3, # of connection points: 4
#     Node 27, Type 0, BuildingBlock: QUQFOY_clean_sbu_3, # of connection points: 4
#     Node 28, Type 0, BuildingBlock: QUQFOY_clean_sbu_3, # of connection points: 4
#     Node 29, Type 0, BuildingBlock: QUQFOY_clean_sbu_3, # of connection points: 4
#     Node 30, Type 0, BuildingBlock: QUQFOY_clean_sbu_3, # of connection points: 4
#     Node 31, Type 0, BuildingBlock: QUQFOY_clean_sbu_3, # of connection points: 4
#     Edge 32, Type (0, 0), None
#     Edge 33, Type (0, 0), None
#     Edge 34, Type (0, 0), None
#     Edge 35, Type (0, 0), None
#     Edge 36, Type (0, 0), None
#     Edge 37, Type (0, 0), None
#     Edge 38, Type (0, 0), None
#     Edge 39, Type (0, 0), None
#     Edge 40, Type (0, 0), None
#     Edge 41, Type (0, 0), None
#     Edge 42, Type (0, 0), None
#     Edge 43, Type (0, 0), None
#     Edge 44, Type (0, 0), None
#     Edge 45, Type (0, 0), None
#     Edge 46, Type (0, 0), None
#     Edge 47, Type (0, 0), None
#     Edge 48, Type (0, 0), None
#     Edge 49, Type (0, 0), None
#     Edge 50, Type (0, 0), None
#     Edge 51, Type (0, 0), None
#     Edge 52, Type (0, 0), None
#     Edge 53, Type (0, 0), None
#     Edge 54, Type (0, 0), None
#     Edge 55, Type (0, 0), None
#     Edge 56, Type (0, 0), None
#     Edge 57, Type (0, 0), None
#     Edge 58, Type (0, 0), None
#     Edge 59, Type (0, 0), None
#     Edge 60, Type (0, 0), None
#     Edge 61, Type (0, 0), None
#     Edge 62, Type (0, 0), None
#     Edge 63, Type (0, 0), None
#     Edge 64, Type (0, 0), None
#     Edge 65, Type (0, 0), None
#     Edge 66, Type (0, 0), None
#     Edge 67, Type (0, 0), None
#     Edge 68, Type (0, 0), None
#     Edge 69, Type (0, 0), None
#     Edge 70, Type (0, 0), None
#     Edge 71, Type (0, 0), None
#     Edge 72, Type (0, 0), None
#     Edge 73, Type (0, 0), None
#     Edge 74, Type (0, 0), None
#     Edge 75, Type (0, 0), None
#     Edge 76, Type (0, 0), None
#     Edge 77, Type (0, 0), None
#     Edge 78, Type (0, 0), None
#     Edge 79, Type (0, 0), None
#     Edge 80, Type (0, 0), None
#     Edge 81, Type (0, 0), None
#     Edge 82, Type (0, 0), None
#     Edge 83, Type (0, 0), None
#     Edge 84, Type (0, 0), None
#     Edge 85, Type (0, 0), None
#     Edge 86, Type (0, 0), None
#     Edge 87, Type (0, 0), None
#     Edge 88, Type (0, 0), None
#     Edge 89, Type (0, 0), None
#     Edge 90, Type (0, 0), None
#     Edge 91, Type (0, 0), None
#     Edge 92, Type (0, 0), None
#     Edge 93, Type (0, 0), None
#     Edge 94, Type (0, 0), None
#     Edge 95, Type (0, 0), None
# Relax obj value: 0.059
# Max RMSD: 0.054
# Mean RMSD: 0.054
data_MOF--net-umq--node1-QUQFOY_clean_sbu_3--edge1-none
_symmetry_space_group_name_H-M    P1
_symmetry_Int_Tables_number       1
_symmetry_cell_setting            triclinic
loop_
_symmetry_equiv_pos_as_xyz
'x, y, z'
_cell_length_a     31.299724
_cell_length_b     31.299881
_cell_length_c     22.835631
_cell_angle_alpha  90.000188
_cell_angle_beta   89.999879
_cell_angle_gamma 90.0
loop_
_atom_site_label
_atom_site_type_symbol
_atom_site_fract_x
_atom_site_fract_y
_atom_site_fract_z
_atom_type_partial_charge
C0 C 0.20056 0.11887 -0.02017 0.0
O1 O 0.1794 0.14941 0.00214 0.0
Cd2 Cd 0.15731 0.17632 0.09204 0.0
O3 O 0.21904 0.09088 0.01218 0.0
Cd4 Cd 0.22141 0.09065 0.12572 0.0
C5 C 0.26178 0.19264 0.13476 0.0
O6 O 0.14618 0.1095 0.13027 0.0
O7 O 0.17501 0.1018 0.21341 0.0
O8 O 0.23341 0.01311 0.12859 0.0
C9 C 0.14196 0.11162 0.1848 0.0
O10 O 0.22372 0.20557 0.12628 0.0
C11 C 0.24983 0.01334 0.17962 0.0
O12 O 0.27122 0.15295 0.13297 0.0
O13 O 0.25702 0.04948 0.20254 0.0
C14 C 0.86887 0.20055 -0.02017 0.0
O15 O 0.83832 0.1794 0.00214 0.0
Cd16 Cd 0.81141 0.15731 0.09204 0.0
O17 O 0.89685 0.21904 0.01218 0.0
Cd18 Cd 0.89709 0.22141 0.12572 0.0
C19 C 0.7951 0.26177 0.13476 0.0
O20 O 0.87824 0.14617 0.13027 0.0
O21 O 0.88593 0.175 0.21341 0.0
O22 O 0.97463 0.23341 0.12859 0.0
C23 C 0.87611 0.14196 0.1848 0.0
O24 O 0.78217 0.22372 0.12628 0.0
C25 C 0.9744 0.24983 0.17962 0.0
O26 O 0.83479 0.27121 0.13297 0.0
O27 O 0.93825 0.25701 0.20254 0.0
C28 C 0.78718 0.86887 -0.02017 0.0
O29 O 0.80834 0.83832 0.00214 0.0
Cd30 Cd 0.83043 0.81141 0.09204 0.0
O31 O 0.7687 0.89685 0.01218 0.0
Cd32 Cd 0.76633 0.89709 0.12572 0.0
C33 C 0.72596 0.79509 0.13476 0.0
O34 O 0.84156 0.87823 0.13027 0.0
O35 O 0.81273 0.88593 0.21341 0.0
O36 O 0.75433 0.97462 0.12859 0.0
C37 C 0.84578 0.87611 0.1848 0.0
O38 O 0.76402 0.78217 0.12628 0.0
C39 C 0.73791 0.9744 0.17962 0.0
O40 O 0.71652 0.83479 0.13297 0.0
O41 O 0.73072 0.93825 0.20254 0.0
C42 C 0.11887 0.78718 -0.02017 0.0
O43 O 0.14942 0.80833 0.00214 0.0
Cd44 Cd 0.17633 0.83042 0.09204 0.0
O45 O 0.09089 0.7687 0.01218 0.0
Cd46 Cd 0.09065 0.76632 0.12572 0.0
C47 C 0.19264 0.72596 0.13476 0.0
O48 O 0.1095 0.84156 0.13027 0.0
O49 O 0.10181 0.81273 0.21341 0.0
O50 O 0.01311 0.75432 0.12859 0.0
C51 C 0.11163 0.84578 0.1848 0.0
O52 O 0.20557 0.76402 0.12628 0.0
C53 C 0.01334 0.73791 0.17962 0.0
O54 O 0.15295 0.71652 0.13297 0.0
O55 O 0.04949 0.73072 0.20254 0.0
C56 C 0.20056 0.86889 0.41522 0.0
O57 O 0.1794 0.83834 0.39291 0.0
Cd58 Cd 0.1573 0.81143 0.30301 0.0
O59 O 0.21904 0.89687 0.38286 0.0
Cd60 Cd 0.22141 0.8971 0.26932 0.0
C61 C 0.26177 0.79511 0.26029 0.0
O62 O 0.14617 0.87825 0.26478 0.0
O63 O 0.17503 0.88593 0.18161 0.0
O64 O 0.2334 0.97464 0.26645 0.0
C65 C 0.142 0.87611 0.21024 0.0
O66 O 0.22371 0.78219 0.26877 0.0
C67 C 0.24981 0.9744 0.21542 0.0
O68 O 0.27121 0.8348 0.26209 0.0
O69 O 0.25703 0.93826 0.19252 0.0
C70 C 0.11885 0.20056 0.41522 0.0
O71 O 0.1494 0.1794 0.39291 0.0
Cd72 Cd 0.17631 0.1573 0.30301 0.0
O73 O 0.09087 0.21904 0.38286 0.0
Cd74 Cd 0.09064 0.22141 0.26932 0.0
C75 C 0.19263 0.26176 0.26029 0.0
O76 O 0.10948 0.14617 0.26478 0.0
O77 O 0.1018 0.17503 0.18162 0.0
O78 O 0.01309 0.23339 0.26645 0.0
C79 C 0.11162 0.14199 0.21025 0.0
O80 O 0.20555 0.22371 0.26877 0.0
C81 C 0.01333 0.24981 0.21542 0.0
O82 O 0.15294 0.27121 0.26209 0.0
O83 O 0.04948 0.25703 0.19252 0.0
C84 C 0.78718 0.11885 0.41522 0.0
O85 O 0.80834 0.14939 0.39291 0.0
Cd86 Cd 0.83044 0.1763 0.30301 0.0
O87 O 0.7687 0.09087 0.38286 0.0
Cd88 Cd 0.76633 0.09063 0.26932 0.0
C89 C 0.72597 0.19263 0.26029 0.0
O90 O 0.84157 0.10948 0.26478 0.0
O91 O 0.81271 0.1018 0.18161 0.0
O92 O 0.75434 0.01309 0.26645 0.0
C93 C 0.84574 0.11162 0.21024 0.0
O94 O 0.76403 0.20555 0.26877 0.0
C95 C 0.73793 0.01333 0.21542 0.0
O96 O 0.71653 0.15294 0.26209 0.0
O97 O 0.73071 0.04947 0.19252 0.0
C98 C 0.86889 0.78718 0.41522 0.0
O99 O 0.83834 0.80834 0.39291 0.0
Cd100 Cd 0.81143 0.83043 0.30301 0.0
O101 O 0.89687 0.76869 0.38286 0.0
Cd102 Cd 0.8971 0.76632 0.26932 0.0
C103 C 0.79511 0.72597 0.26029 0.0
O104 O 0.87826 0.84156 0.26478 0.0
O105 O 0.88594 0.81271 0.18162 0.0
O106 O 0.97465 0.75434 0.26645 0.0
C107 C 0.87612 0.84574 0.21025 0.0
O108 O 0.78219 0.76403 0.26877 0.0
C109 C 0.97441 0.73792 0.21542 0.0
O110 O 0.8348 0.71653 0.26209 0.0
O111 O 0.93827 0.73071 0.19252 0.0
C112 C 0.78715 0.86884 0.91517 0.0
O113 O 0.80828 0.83826 0.89288 0.0
Cd114 Cd 0.83032 0.81129 0.803 0.0
O115 O 0.76866 0.89681 0.8828 0.0
Cd116 Cd 0.76619 0.89701 0.76926 0.0
C117 C 0.72584 0.79498 0.76029 0.0
O118 O 0.84141 0.87811 0.76476 0.0
O119 O 0.81263 0.88584 0.6816 0.0
O120 O 0.7542 0.97456 0.76646 0.0
C121 C 0.84565 0.87599 0.71023 0.0
O122 O 0.7639 0.78207 0.76881 0.0
C123 C 0.73783 0.97438 0.7154 0.0
O124 O 0.7164 0.83468 0.76204 0.0
O125 O 0.73067 0.93825 0.69242 0.0
C126 C 0.1189 0.78715 0.91517 0.0
O127 O 0.14947 0.80828 0.89288 0.0
Cd128 Cd 0.17644 0.83031 0.803 0.0
O129 O 0.09093 0.76866 0.8828 0.0
Cd130 Cd 0.09073 0.76619 0.76926 0.0
C131 C 0.19276 0.72584 0.76029 0.0
O132 O 0.10962 0.84141 0.76476 0.0
O133 O 0.1019 0.81262 0.6816 0.0
O134 O 0.01317 0.75419 0.76646 0.0
C135 C 0.11175 0.84565 0.71023 0.0
O136 O 0.20567 0.76389 0.76881 0.0
C137 C 0.01336 0.73783 0.7154 0.0
O138 O 0.15306 0.7164 0.76204 0.0
O139 O 0.04949 0.73067 0.69242 0.0
C140 C 0.20059 0.11889 0.91517 0.0
O141 O 0.17946 0.14947 0.89288 0.0
Cd142 Cd 0.15742 0.17644 0.803 0.0
O143 O 0.21908 0.09093 0.8828 0.0
Cd144 Cd 0.22155 0.09073 0.76926 0.0
C145 C 0.2619 0.19275 0.76029 0.0
O146 O 0.14633 0.10962 0.76476 0.0
O147 O 0.17511 0.1019 0.6816 0.0
O148 O 0.23354 0.01317 0.76646 0.0
C149 C 0.14209 0.11174 0.71023 0.0
O150 O 0.22384 0.20567 0.76881 0.0
C151 C 0.24991 0.01336 0.7154 0.0
O152 O 0.27134 0.15306 0.76204 0.0
O153 O 0.25707 0.04949 0.69242 0.0
C154 C 0.86884 0.20059 0.91517 0.0
O155 O 0.83827 0.17946 0.89288 0.0
Cd156 Cd 0.8113 0.15742 0.803 0.0
O157 O 0.89681 0.21908 0.8828 0.0
Cd158 Cd 0.89701 0.22154 0.76926 0.0
C159 C 0.79499 0.26189 0.76029 0.0
O160 O 0.87812 0.14632 0.76476 0.0
O161 O 0.88584 0.17511 0.6816 0.0
O162 O 0.97457 0.23354 0.76646 0.0
C163 C 0.87599 0.14209 0.71023 0.0
O164 O 0.78207 0.22384 0.76881 0.0
C165 C 0.97438 0.24991 0.7154 0.0
O166 O 0.83468 0.27134 0.76204 0.0
O167 O 0.93825 0.25707 0.69242 0.0
C168 C 0.78715 0.11888 0.47988 0.0
O169 O 0.80828 0.14945 0.50216 0.0
Cd170 Cd 0.83033 0.17642 0.59205 0.0
O171 O 0.76865 0.09091 0.51225 0.0
Cd172 Cd 0.7662 0.09071 0.62579 0.0
C173 C 0.72585 0.19274 0.63476 0.0
O174 O 0.84142 0.1096 0.63029 0.0
O175 O 0.8126 0.1019 0.71348 0.0
O176 O 0.75421 0.01315 0.6286 0.0
C177 C 0.84562 0.11174 0.68482 0.0
O178 O 0.76391 0.20565 0.62624 0.0
C179 C 0.73785 0.01335 0.67966 0.0
O180 O 0.7164 0.15305 0.63301 0.0
O181 O 0.73066 0.04948 0.70263 0.0
C182 C 0.86886 0.78715 0.47988 0.0
O183 O 0.83829 0.80828 0.50216 0.0
Cd184 Cd 0.81132 0.83032 0.59205 0.0
O185 O 0.89682 0.76865 0.51225 0.0
Cd186 Cd 0.89702 0.76619 0.62579 0.0
C187 C 0.795 0.72585 0.63476 0.0
O188 O 0.87814 0.84141 0.63029 0.0
O189 O 0.88584 0.8126 0.71348 0.0
O190 O 0.97458 0.75421 0.6286 0.0
C191 C 0.87599 0.84561 0.68482 0.0
O192 O 0.78208 0.76391 0.62624 0.0
C193 C 0.97439 0.73784 0.67966 0.0
O194 O 0.83469 0.7164 0.63301 0.0
O195 O 0.93826 0.73065 0.70263 0.0
C196 C 0.20059 0.86886 0.47988 0.0
O197 O 0.17946 0.83829 0.50216 0.0
Cd198 Cd 0.15741 0.81131 0.59205 0.0
O199 O 0.21909 0.89682 0.51225 0.0
Cd200 Cd 0.22155 0.89702 0.62579 0.0
C201 C 0.26189 0.795 0.63476 0.0
O202 O 0.14632 0.87813 0.63029 0.0
O203 O 0.17514 0.88584 0.71348 0.0
O204 O 0.23353 0.97458 0.6286 0.0
C205 C 0.14212 0.87599 0.68482 0.0
O206 O 0.22383 0.78208 0.62624 0.0
C207 C 0.24989 0.97439 0.67966 0.0
O208 O 0.27134 0.83469 0.63301 0.0
O209 O 0.25708 0.93826 0.70263 0.0
C210 C 0.11888 0.20059 0.47988 0.0
O211 O 0.14945 0.17946 0.50216 0.0
Cd212 Cd 0.17642 0.15741 0.59205 0.0
O213 O 0.09092 0.21909 0.51225 0.0
Cd214 Cd 0.09072 0.22154 0.62579 0.0
C215 C 0.19274 0.26188 0.63476 0.0
O216 O 0.1096 0.14632 0.63029 0.0
O217 O 0.1019 0.17513 0.71348 0.0
O218 O 0.01316 0.23352 0.6286 0.0
C219 C 0.11175 0.14212 0.68482 0.0
O220 O 0.20566 0.22383 0.62624 0.0
C221 C 0.01335 0.24989 0.67966 0.0
O222 O 0.15305 0.27133 0.63301 0.0
O223 O 0.04948 0.25708 0.70263 0.0
C224 C 0.70056 0.61887 0.47983 0.0
O225 O 0.67941 0.64942 0.50214 0.0
Cd226 Cd 0.65731 0.67633 0.59204 0.0
O227 O 0.71904 0.59088 0.51218 0.0
Cd228 Cd 0.72141 0.59065 0.62572 0.0
C229 C 0.76177 0.69264 0.63478 0.0
O230 O 0.64618 0.6095 0.63027 0.0
O231 O 0.67501 0.6018 0.71341 0.0
O232 O 0.73341 0.51311 0.62859 0.0
C233 C 0.64196 0.61162 0.6848 0.0
O234 O 0.72372 0.70557 0.62629 0.0
C235 C 0.74983 0.51334 0.67962 0.0
O236 O 0.77122 0.65295 0.63296 0.0
O237 O 0.75702 0.54948 0.70253 0.0
C238 C 0.36887 0.70056 0.47983 0.0
O239 O 0.33832 0.6794 0.50214 0.0
Cd240 Cd 0.31141 0.65731 0.59204 0.0
O241 O 0.39685 0.71904 0.51218 0.0
Cd242 Cd 0.39709 0.72141 0.62572 0.0
C243 C 0.2951 0.76177 0.63478 0.0
O244 O 0.37823 0.64617 0.63027 0.0
O245 O 0.38593 0.675 0.7134 0.0
O246 O 0.47463 0.73341 0.62859 0.0
C247 C 0.37611 0.64196 0.6848 0.0
O248 O 0.28217 0.72372 0.62629 0.0
C249 C 0.4744 0.74983 0.67962 0.0
O250 O 0.33479 0.77121 0.63296 0.0
O251 O 0.43825 0.75701 0.70253 0.0
C252 C 0.28718 0.36887 0.47983 0.0
O253 O 0.30833 0.33832 0.50214 0.0
Cd254 Cd 0.33043 0.31141 0.59204 0.0
O255 O 0.2687 0.39685 0.51218 0.0
Cd256 Cd 0.26633 0.39709 0.62572 0.0
C257 C 0.22597 0.2951 0.63478 0.0
O258 O 0.34156 0.37823 0.63027 0.0
O259 O 0.31273 0.38593 0.71341 0.0
O260 O 0.25433 0.47462 0.62859 0.0
C261 C 0.34578 0.37611 0.6848 0.0
O262 O 0.26402 0.28217 0.62629 0.0
C263 C 0.23791 0.4744 0.67962 0.0
O264 O 0.21652 0.33479 0.63296 0.0
O265 O 0.23072 0.43825 0.70253 0.0
C266 C 0.61887 0.28718 0.47983 0.0
O267 O 0.64942 0.30833 0.50214 0.0
Cd268 Cd 0.67633 0.33042 0.59204 0.0
O269 O 0.59089 0.2687 0.51218 0.0
Cd270 Cd 0.59065 0.26632 0.62572 0.0
C271 C 0.69264 0.22596 0.63478 0.0
O272 O 0.60951 0.34156 0.63027 0.0
O273 O 0.60181 0.31273 0.7134 0.0
O274 O 0.51311 0.25432 0.62859 0.0
C275 C 0.61163 0.34578 0.6848 0.0
O276 O 0.70557 0.26402 0.62629 0.0
C277 C 0.51334 0.23791 0.67962 0.0
O278 O 0.65295 0.21652 0.63296 0.0
O279 O 0.54949 0.23072 0.70253 0.0
C280 C 0.70056 0.36889 0.91522 0.0
O281 O 0.6794 0.33834 0.89291 0.0
Cd282 Cd 0.6573 0.31143 0.80301 0.0
O283 O 0.71904 0.39687 0.88286 0.0
Cd284 Cd 0.72141 0.3971 0.76932 0.0
C285 C 0.76176 0.29511 0.76027 0.0
O286 O 0.64617 0.37825 0.76478 0.0
O287 O 0.67503 0.38593 0.68161 0.0
O288 O 0.7334 0.47464 0.76645 0.0
C289 C 0.642 0.37611 0.71024 0.0
O290 O 0.72371 0.28218 0.76876 0.0
C291 C 0.74981 0.47441 0.71542 0.0
O292 O 0.77121 0.3348 0.76209 0.0
O293 O 0.75703 0.43826 0.69252 0.0
C294 C 0.61885 0.70056 0.91522 0.0
O295 O 0.6494 0.6794 0.89291 0.0
Cd296 Cd 0.67631 0.6573 0.80301 0.0
O297 O 0.59087 0.71904 0.88286 0.0
Cd298 Cd 0.59064 0.72141 0.76932 0.0
C299 C 0.69263 0.76176 0.76027 0.0
O300 O 0.60949 0.64617 0.76478 0.0
O301 O 0.6018 0.67503 0.68162 0.0
O302 O 0.51309 0.73339 0.76645 0.0
C303 C 0.61162 0.64199 0.71024 0.0
O304 O 0.70555 0.72371 0.76876 0.0
C305 C 0.51333 0.74981 0.71542 0.0
O306 O 0.65294 0.77121 0.76209 0.0
O307 O 0.54947 0.75703 0.69252 0.0
C308 C 0.28718 0.61885 0.91522 0.0
O309 O 0.30834 0.6494 0.89291 0.0
Cd310 Cd 0.33044 0.6763 0.80301 0.0
O311 O 0.2687 0.59087 0.88286 0.0
Cd312 Cd 0.26633 0.59063 0.76932 0.0
C313 C 0.22598 0.69263 0.76027 0.0
O314 O 0.34157 0.60948 0.76478 0.0
O315 O 0.31271 0.6018 0.68161 0.0
O316 O 0.25434 0.51309 0.76645 0.0
C317 C 0.34574 0.61162 0.71024 0.0
O318 O 0.26403 0.70555 0.76876 0.0
C319 C 0.23793 0.51333 0.71542 0.0
O320 O 0.21653 0.65294 0.76209 0.0
O321 O 0.23071 0.54947 0.69252 0.0
C322 C 0.36889 0.28717 0.91522 0.0
O323 O 0.33834 0.30833 0.89291 0.0
Cd324 Cd 0.31143 0.33043 0.80301 0.0
O325 O 0.39687 0.26869 0.88286 0.0
Cd326 Cd 0.39711 0.26632 0.76932 0.0
C327 C 0.29511 0.22597 0.76027 0.0
O328 O 0.37825 0.34156 0.76478 0.0
O329 O 0.38594 0.31271 0.68161 0.0
O330 O 0.47465 0.25434 0.76645 0.0
C331 C 0.37612 0.34574 0.71024 0.0
O332 O 0.28219 0.26403 0.76876 0.0
C333 C 0.47441 0.23792 0.71542 0.0
O334 O 0.3348 0.21653 0.76209 0.0
O335 O 0.43827 0.23071 0.69252 0.0
C336 C 0.28715 0.36884 0.41517 0.0
O337 O 0.30828 0.33826 0.39288 0.0
Cd338 Cd 0.33032 0.31129 0.30299 0.0
O339 O 0.26866 0.39681 0.3828 0.0
Cd340 Cd 0.26619 0.39701 0.26926 0.0
C341 C 0.22585 0.29499 0.26027 0.0
O342 O 0.34141 0.37811 0.26476 0.0
O343 O 0.31263 0.38584 0.1816 0.0
O344 O 0.2542 0.47456 0.26646 0.0
C345 C 0.34565 0.37599 0.21023 0.0
O346 O 0.2639 0.28206 0.2688 0.0
C347 C 0.23783 0.47438 0.2154 0.0
O348 O 0.2164 0.33468 0.26204 0.0
O349 O 0.23067 0.43825 0.19242 0.0
C350 C 0.6189 0.28715 0.41517 0.0
O351 O 0.64948 0.30827 0.39288 0.0
Cd352 Cd 0.67645 0.33031 0.30299 0.0
O353 O 0.59093 0.26866 0.3828 0.0
Cd354 Cd 0.59073 0.26619 0.26926 0.0
C355 C 0.69275 0.22585 0.26027 0.0
O356 O 0.60962 0.34141 0.26476 0.0
O357 O 0.6019 0.31262 0.1816 0.0
O358 O 0.51317 0.25419 0.26646 0.0
C359 C 0.61175 0.34565 0.21023 0.0
O360 O 0.70567 0.2639 0.2688 0.0
C361 C 0.51336 0.23783 0.21539 0.0
O362 O 0.65306 0.2164 0.26204 0.0
O363 O 0.54949 0.23067 0.19242 0.0
C364 C 0.70059 0.6189 0.41517 0.0
O365 O 0.67946 0.64947 0.39288 0.0
Cd366 Cd 0.65742 0.67644 0.303 0.0
O367 O 0.71908 0.59093 0.3828 0.0
Cd368 Cd 0.72155 0.59073 0.26926 0.0
C369 C 0.76189 0.69275 0.26027 0.0
O370 O 0.64633 0.60962 0.26476 0.0
O371 O 0.67511 0.6019 0.1816 0.0
O372 O 0.73354 0.51317 0.26646 0.0
C373 C 0.64209 0.61175 0.21023 0.0
O374 O 0.72384 0.70567 0.2688 0.0
C375 C 0.74991 0.51336 0.21539 0.0
O376 O 0.77134 0.65306 0.26204 0.0
O377 O 0.75707 0.54949 0.19242 0.0
C378 C 0.36884 0.70059 0.41517 0.0
O379 O 0.33826 0.67946 0.39288 0.0
Cd380 Cd 0.31129 0.65742 0.30299 0.0
O381 O 0.39681 0.71908 0.3828 0.0
Cd382 Cd 0.39701 0.72154 0.26926 0.0
C383 C 0.29499 0.76189 0.26027 0.0
O384 O 0.37812 0.64632 0.26476 0.0
O385 O 0.38584 0.67511 0.1816 0.0
O386 O 0.47457 0.73354 0.26646 0.0
C387 C 0.37599 0.64209 0.21023 0.0
O388 O 0.28207 0.72384 0.2688 0.0
C389 C 0.47438 0.74991 0.2154 0.0
O390 O 0.33468 0.77134 0.26204 0.0
O391 O 0.43825 0.75707 0.19242 0.0
C392 C 0.28715 0.61888 -0.02012 0.0
O393 O 0.30828 0.64945 0.00216 0.0
Cd394 Cd 0.33033 0.67642 0.09205 0.0
O395 O 0.26865 0.59092 0.01225 0.0
Cd396 Cd 0.2662 0.59071 0.12579 0.0
C397 C 0.22586 0.69274 0.13477 0.0
O398 O 0.34142 0.6096 0.13029 0.0
O399 O 0.3126 0.6019 0.21348 0.0
O400 O 0.25421 0.51315 0.1286 0.0
C401 C 0.34562 0.61174 0.18482 0.0
O402 O 0.26391 0.70566 0.12625 0.0
C403 C 0.23785 0.51335 0.17966 0.0
O404 O 0.2164 0.65305 0.13301 0.0
O405 O 0.23066 0.54948 0.20263 0.0
C406 C 0.36886 0.28714 -0.02012 0.0
O407 O 0.33828 0.30827 0.00216 0.0
Cd408 Cd 0.31131 0.33032 0.09205 0.0
O409 O 0.39682 0.26865 0.01225 0.0
Cd410 Cd 0.39702 0.26619 0.12579 0.0
C411 C 0.295 0.22586 0.13477 0.0
O412 O 0.37814 0.34141 0.13029 0.0
O413 O 0.38584 0.3126 0.21348 0.0
O414 O 0.47458 0.25421 0.1286 0.0
C415 C 0.37599 0.34561 0.18482 0.0
O416 O 0.28208 0.26391 0.12625 0.0
C417 C 0.47439 0.23784 0.17966 0.0
O418 O 0.33469 0.2164 0.13301 0.0
O419 O 0.43826 0.23065 0.20263 0.0
C420 C 0.70059 0.36886 -0.02012 0.0
O421 O 0.67946 0.33828 0.00216 0.0
Cd422 Cd 0.65741 0.31131 0.09205 0.0
O423 O 0.71909 0.39682 0.01225 0.0
Cd424 Cd 0.72155 0.39702 0.12579 0.0
C425 C 0.76188 0.295 0.13477 0.0
O426 O 0.64632 0.37813 0.13029 0.0
O427 O 0.67514 0.38584 0.21348 0.0
O428 O 0.73353 0.47458 0.1286 0.0
C429 C 0.64212 0.37599 0.18482 0.0
O430 O 0.72383 0.28208 0.12625 0.0
C431 C 0.74989 0.47439 0.17966 0.0
O432 O 0.77134 0.33469 0.13301 0.0
O433 O 0.75708 0.43826 0.20263 0.0
C434 C 0.61888 0.70059 -0.02012 0.0
O435 O 0.64946 0.67946 0.00216 0.0
Cd436 Cd 0.67643 0.65741 0.09205 0.0
O437 O 0.59092 0.71909 0.01225 0.0
Cd438 Cd 0.59072 0.72154 0.12579 0.0
C439 C 0.69274 0.76188 0.13477 0.0
O440 O 0.60961 0.64632 0.13029 0.0
O441 O 0.6019 0.67513 0.21348 0.0
O442 O 0.51316 0.73352 0.1286 0.0
C443 C 0.61175 0.64212 0.18482 0.0
O444 O 0.70566 0.72383 0.12625 0.0
C445 C 0.51335 0.74989 0.17966 0.0
O446 O 0.65305 0.77133 0.13301 0.0
O447 O 0.54948 0.75708 0.20263 0.0
loop_
_geom_bond_atom_site_label_1
_geom_bond_atom_site_label_2
_geom_bond_distance
_geom_bond_site_symmetry_2
_ccdc_geom_bond_type
C0 O1 1.306 . S
C0 O3 1.160 . S
O1 C0 1.306 . S
O1 Cd2 2.228 . S
Cd2 O1 2.228 . S
Cd2 O6 2.273 . S
Cd2 O10 2.277 . S
O3 C0 1.160 . S
O3 Cd4 2.203 . S
Cd4 O3 2.203 . S
Cd4 O6 2.411 . S
Cd4 O7 2.333 . S
Cd4 O8 2.352 . S
Cd4 O12 2.277 . S
Cd4 O13 2.356 . S
C5 O10 1.209 . S
C5 O12 1.226 . S
O6 Cd2 2.273 . S
O6 Cd4 2.411 . S
O6 C9 1.320 . S
O7 Cd4 2.333 . S
O7 C9 1.214 . S
O8 Cd4 2.352 . S
O8 C11 1.258 . S
C9 O6 1.320 . S
C9 O7 1.214 . S
O10 Cd2 2.277 . S
O10 C5 1.209 . S
C11 O8 1.258 . S
C11 O13 1.282 . S
O12 Cd4 2.277 . S
O12 C5 1.226 . S
O13 Cd4 2.356 . S
O13 C11 1.282 . S
C14 O15 1.306 . S
C14 O17 1.160 . S
O15 C14 1.306 . S
O15 Cd16 2.228 . S
Cd16 O15 2.228 . S
Cd16 O20 2.273 . S
Cd16 O24 2.277 . S
O17 C14 1.160 . S
O17 Cd18 2.203 . S
Cd18 O17 2.203 . S
Cd18 O20 2.411 . S
Cd18 O21 2.333 . S
Cd18 O22 2.352 . S
Cd18 O26 2.277 . S
Cd18 O27 2.356 . S
C19 O24 1.209 . S
C19 O26 1.226 . S
O20 Cd16 2.273 . S
O20 Cd18 2.411 . S
O20 C23 1.320 . S
O21 Cd18 2.333 . S
O21 C23 1.214 . S
O22 Cd18 2.352 . S
O22 C25 1.258 . S
C23 O20 1.320 . S
C23 O21 1.214 . S
O24 Cd16 2.277 . S
O24 C19 1.209 . S
C25 O22 1.258 . S
C25 O27 1.282 . S
O26 Cd18 2.277 . S
O26 C19 1.226 . S
O27 Cd18 2.356 . S
O27 C25 1.282 . S
C28 O29 1.306 . S
C28 O31 1.160 . S
O29 C28 1.306 . S
O29 Cd30 2.228 . S
Cd30 O29 2.228 . S
Cd30 O34 2.273 . S
Cd30 O38 2.277 . S
O31 C28 1.160 . S
O31 Cd32 2.203 . S
Cd32 O31 2.203 . S
Cd32 O34 2.411 . S
Cd32 O35 2.333 . S
Cd32 O36 2.352 . S
Cd32 O40 2.277 . S
Cd32 O41 2.356 . S
C33 O38 1.209 . S
C33 O40 1.226 . S
O34 Cd30 2.273 . S
O34 Cd32 2.411 . S
O34 C37 1.320 . S
O35 Cd32 2.333 . S
O35 C37 1.214 . S
O36 Cd32 2.352 . S
O36 C39 1.258 . S
C37 O34 1.320 . S
C37 O35 1.214 . S
O38 Cd30 2.277 . S
O38 C33 1.209 . S
C39 O36 1.258 . S
C39 O41 1.282 . S
O40 Cd32 2.277 . S
O40 C33 1.226 . S
O41 Cd32 2.356 . S
O41 C39 1.282 . S
C42 O43 1.306 . S
C42 O45 1.160 . S
O43 C42 1.306 . S
O43 Cd44 2.228 . S
Cd44 O43 2.228 . S
Cd44 O48 2.273 . S
Cd44 O52 2.277 . S
O45 C42 1.160 . S
O45 Cd46 2.203 . S
Cd46 O45 2.203 . S
Cd46 O48 2.411 . S
Cd46 O49 2.333 . S
Cd46 O50 2.352 . S
Cd46 O54 2.277 . S
Cd46 O55 2.356 . S
C47 O52 1.209 . S
C47 O54 1.226 . S
O48 Cd44 2.273 . S
O48 Cd46 2.411 . S
O48 C51 1.320 . S
O49 Cd46 2.333 . S
O49 C51 1.214 . S
O50 Cd46 2.352 . S
O50 C53 1.258 . S
C51 O48 1.320 . S
C51 O49 1.214 . S
O52 Cd44 2.277 . S
O52 C47 1.209 . S
C53 O50 1.258 . S
C53 O55 1.282 . S
O54 Cd46 2.277 . S
O54 C47 1.226 . S
O55 Cd46 2.356 . S
O55 C53 1.282 . S
C56 O57 1.306 . S
C56 O59 1.160 . S
O57 C56 1.306 . S
O57 Cd58 2.228 . S
Cd58 O57 2.228 . S
Cd58 O62 2.273 . S
Cd58 O66 2.277 . S
O59 C56 1.160 . S
O59 Cd60 2.203 . S
Cd60 O59 2.203 . S
Cd60 O62 2.411 . S
Cd60 O63 2.333 . S
Cd60 O64 2.352 . S
Cd60 O68 2.277 . S
Cd60 O69 2.356 . S
C61 O66 1.209 . S
C61 O68 1.226 . S
O62 Cd58 2.273 . S
O62 Cd60 2.411 . S
O62 C65 1.320 . S
O63 Cd60 2.333 . S
O63 C65 1.214 . S
O64 Cd60 2.352 . S
O64 C67 1.258 . S
C65 O62 1.320 . S
C65 O63 1.214 . S
O66 Cd58 2.277 . S
O66 C61 1.209 . S
C67 O64 1.258 . S
C67 O69 1.282 . S
O68 Cd60 2.277 . S
O68 C61 1.226 . S
O69 Cd60 2.356 . S
O69 C67 1.282 . S
C70 O71 1.306 . S
C70 O73 1.160 . S
O71 C70 1.306 . S
O71 Cd72 2.228 . S
Cd72 O71 2.228 . S
Cd72 O76 2.273 . S
Cd72 O80 2.277 . S
O73 C70 1.160 . S
O73 Cd74 2.203 . S
Cd74 O73 2.203 . S
Cd74 O76 2.411 . S
Cd74 O77 2.333 . S
Cd74 O78 2.352 . S
Cd74 O82 2.277 . S
Cd74 O83 2.356 . S
C75 O80 1.209 . S
C75 O82 1.226 . S
O76 Cd72 2.273 . S
O76 Cd74 2.411 . S
O76 C79 1.320 . S
O77 Cd74 2.333 . S
O77 C79 1.214 . S
O78 Cd74 2.352 . S
O78 C81 1.258 . S
C79 O76 1.320 . S
C79 O77 1.214 . S
O80 Cd72 2.277 . S
O80 C75 1.209 . S
C81 O78 1.258 . S
C81 O83 1.282 . S
O82 Cd74 2.277 . S
O82 C75 1.226 . S
O83 Cd74 2.356 . S
O83 C81 1.282 . S
C84 O85 1.306 . S
C84 O87 1.160 . S
O85 C84 1.306 . S
O85 Cd86 2.228 . S
Cd86 O85 2.228 . S
Cd86 O90 2.273 . S
Cd86 O94 2.277 . S
O87 C84 1.160 . S
O87 Cd88 2.203 . S
Cd88 O87 2.203 . S
Cd88 O90 2.411 . S
Cd88 O91 2.333 . S
Cd88 O92 2.352 . S
Cd88 O96 2.277 . S
Cd88 O97 2.356 . S
C89 O94 1.209 . S
C89 O96 1.226 . S
O90 Cd86 2.273 . S
O90 Cd88 2.411 . S
O90 C93 1.320 . S
O91 Cd88 2.333 . S
O91 C93 1.214 . S
O92 Cd88 2.352 . S
O92 C95 1.258 . S
C93 O90 1.320 . S
C93 O91 1.214 . S
O94 Cd86 2.277 . S
O94 C89 1.209 . S
C95 O92 1.258 . S
C95 O97 1.282 . S
O96 Cd88 2.277 . S
O96 C89 1.226 . S
O97 Cd88 2.356 . S
O97 C95 1.282 . S
C98 O99 1.306 . S
C98 O101 1.160 . S
O99 C98 1.306 . S
O99 Cd100 2.228 . S
Cd100 O99 2.228 . S
Cd100 O104 2.273 . S
Cd100 O108 2.277 . S
O101 C98 1.160 . S
O101 Cd102 2.203 . S
Cd102 O101 2.203 . S
Cd102 O104 2.411 . S
Cd102 O105 2.333 . S
Cd102 O106 2.352 . S
Cd102 O110 2.277 . S
Cd102 O111 2.356 . S
C103 O108 1.209 . S
C103 O110 1.226 . S
O104 Cd100 2.273 . S
O104 Cd102 2.411 . S
O104 C107 1.320 . S
O105 Cd102 2.333 . S
O105 C107 1.214 . S
O106 Cd102 2.352 . S
O106 C109 1.258 . S
C107 O104 1.320 . S
C107 O105 1.214 . S
O108 Cd100 2.277 . S
O108 C103 1.209 . S
C109 O106 1.258 . S
C109 O111 1.282 . S
O110 Cd102 2.277 . S
O110 C103 1.226 . S
O111 Cd102 2.356 . S
O111 C109 1.282 . S
C112 O113 1.306 . S
C112 O115 1.160 . S
O113 C112 1.306 . S
O113 Cd114 2.228 . S
Cd114 O113 2.228 . S
Cd114 O118 2.273 . S
Cd114 O122 2.277 . S
O115 C112 1.160 . S
O115 Cd116 2.203 . S
Cd116 O115 2.203 . S
Cd116 O118 2.411 . S
Cd116 O119 2.333 . S
Cd116 O120 2.352 . S
Cd116 O124 2.277 . S
Cd116 O125 2.356 . S
C117 O122 1.209 . S
C117 O124 1.226 . S
O118 Cd114 2.273 . S
O118 Cd116 2.411 . S
O118 C121 1.320 . S
O119 Cd116 2.333 . S
O119 C121 1.214 . S
O120 Cd116 2.352 . S
O120 C123 1.258 . S
C121 O118 1.320 . S
C121 O119 1.214 . S
O122 Cd114 2.277 . S
O122 C117 1.209 . S
C123 O120 1.258 . S
C123 O125 1.282 . S
O124 Cd116 2.277 . S
O124 C117 1.226 . S
O125 Cd116 2.356 . S
O125 C123 1.282 . S
C126 O127 1.306 . S
C126 O129 1.160 . S
O127 C126 1.306 . S
O127 Cd128 2.228 . S
Cd128 O127 2.228 . S
Cd128 O132 2.273 . S
Cd128 O136 2.277 . S
O129 C126 1.160 . S
O129 Cd130 2.203 . S
Cd130 O129 2.203 . S
Cd130 O132 2.411 . S
Cd130 O133 2.333 . S
Cd130 O134 2.352 . S
Cd130 O138 2.277 . S
Cd130 O139 2.356 . S
C131 O136 1.209 . S
C131 O138 1.226 . S
O132 Cd128 2.273 . S
O132 Cd130 2.411 . S
O132 C135 1.320 . S
O133 Cd130 2.333 . S
O133 C135 1.214 . S
O134 Cd130 2.352 . S
O134 C137 1.258 . S
C135 O132 1.320 . S
C135 O133 1.214 . S
O136 Cd128 2.277 . S
O136 C131 1.209 . S
C137 O134 1.258 . S
C137 O139 1.282 . S
O138 Cd130 2.277 . S
O138 C131 1.226 . S
O139 Cd130 2.356 . S
O139 C137 1.282 . S
C140 O141 1.306 . S
C140 O143 1.160 . S
O141 C140 1.306 . S
O141 Cd142 2.228 . S
Cd142 O141 2.228 . S
Cd142 O146 2.273 . S
Cd142 O150 2.277 . S
O143 C140 1.160 . S
O143 Cd144 2.203 . S
Cd144 O143 2.203 . S
Cd144 O146 2.411 . S
Cd144 O147 2.333 . S
Cd144 O148 2.352 . S
Cd144 O152 2.277 . S
Cd144 O153 2.356 . S
C145 O150 1.209 . S
C145 O152 1.226 . S
O146 Cd142 2.273 . S
O146 Cd144 2.411 . S
O146 C149 1.320 . S
O147 Cd144 2.333 . S
O147 C149 1.214 . S
O148 Cd144 2.352 . S
O148 C151 1.258 . S
C149 O146 1.320 . S
C149 O147 1.214 . S
O150 Cd142 2.277 . S
O150 C145 1.209 . S
C151 O148 1.258 . S
C151 O153 1.282 . S
O152 Cd144 2.277 . S
O152 C145 1.226 . S
O153 Cd144 2.356 . S
O153 C151 1.282 . S
C154 O155 1.306 . S
C154 O157 1.160 . S
O155 C154 1.306 . S
O155 Cd156 2.228 . S
Cd156 O155 2.228 . S
Cd156 O160 2.273 . S
Cd156 O164 2.277 . S
O157 C154 1.160 . S
O157 Cd158 2.203 . S
Cd158 O157 2.203 . S
Cd158 O160 2.411 . S
Cd158 O161 2.333 . S
Cd158 O162 2.352 . S
Cd158 O166 2.277 . S
Cd158 O167 2.356 . S
C159 O164 1.209 . S
C159 O166 1.226 . S
O160 Cd156 2.273 . S
O160 Cd158 2.411 . S
O160 C163 1.320 . S
O161 Cd158 2.333 . S
O161 C163 1.214 . S
O162 Cd158 2.352 . S
O162 C165 1.258 . S
C163 O160 1.320 . S
C163 O161 1.214 . S
O164 Cd156 2.277 . S
O164 C159 1.209 . S
C165 O162 1.258 . S
C165 O167 1.282 . S
O166 Cd158 2.277 . S
O166 C159 1.226 . S
O167 Cd158 2.356 . S
O167 C165 1.282 . S
C168 O169 1.306 . S
C168 O171 1.160 . S
O169 C168 1.306 . S
O169 Cd170 2.228 . S
Cd170 O169 2.228 . S
Cd170 O174 2.273 . S
Cd170 O178 2.277 . S
O171 C168 1.160 . S
O171 Cd172 2.203 . S
Cd172 O171 2.203 . S
Cd172 O174 2.411 . S
Cd172 O175 2.333 . S
Cd172 O176 2.352 . S
Cd172 O180 2.277 . S
Cd172 O181 2.356 . S
C173 O178 1.209 . S
C173 O180 1.226 . S
O174 Cd170 2.273 . S
O174 Cd172 2.411 . S
O174 C177 1.320 . S
O175 Cd172 2.333 . S
O175 C177 1.214 . S
O176 Cd172 2.352 . S
O176 C179 1.258 . S
C177 O174 1.320 . S
C177 O175 1.214 . S
O178 Cd170 2.277 . S
O178 C173 1.209 . S
C179 O176 1.258 . S
C179 O181 1.282 . S
O180 Cd172 2.277 . S
O180 C173 1.226 . S
O181 Cd172 2.356 . S
O181 C179 1.282 . S
C182 O183 1.306 . S
C182 O185 1.160 . S
O183 C182 1.306 . S
O183 Cd184 2.228 . S
Cd184 O183 2.228 . S
Cd184 O188 2.273 . S
Cd184 O192 2.277 . S
O185 C182 1.160 . S
O185 Cd186 2.203 . S
Cd186 O185 2.203 . S
Cd186 O188 2.411 . S
Cd186 O189 2.333 . S
Cd186 O190 2.352 . S
Cd186 O194 2.277 . S
Cd186 O195 2.356 . S
C187 O192 1.209 . S
C187 O194 1.226 . S
O188 Cd184 2.273 . S
O188 Cd186 2.411 . S
O188 C191 1.320 . S
O189 Cd186 2.333 . S
O189 C191 1.214 . S
O190 Cd186 2.352 . S
O190 C193 1.258 . S
C191 O188 1.320 . S
C191 O189 1.214 . S
O192 Cd184 2.277 . S
O192 C187 1.209 . S
C193 O190 1.258 . S
C193 O195 1.282 . S
O194 Cd186 2.277 . S
O194 C187 1.226 . S
O195 Cd186 2.356 . S
O195 C193 1.282 . S
C196 O197 1.306 . S
C196 O199 1.160 . S
O197 C196 1.306 . S
O197 Cd198 2.228 . S
Cd198 O197 2.228 . S
Cd198 O202 2.273 . S
Cd198 O206 2.277 . S
O199 C196 1.160 . S
O199 Cd200 2.203 . S
Cd200 O199 2.203 . S
Cd200 O202 2.411 . S
Cd200 O203 2.333 . S
Cd200 O204 2.352 . S
Cd200 O208 2.277 . S
Cd200 O209 2.356 . S
C201 O206 1.209 . S
C201 O208 1.226 . S
O202 Cd198 2.273 . S
O202 Cd200 2.411 . S
O202 C205 1.320 . S
O203 Cd200 2.333 . S
O203 C205 1.214 . S
O204 Cd200 2.352 . S
O204 C207 1.258 . S
C205 O202 1.320 . S
C205 O203 1.214 . S
O206 Cd198 2.277 . S
O206 C201 1.209 . S
C207 O204 1.258 . S
C207 O209 1.282 . S
O208 Cd200 2.277 . S
O208 C201 1.226 . S
O209 Cd200 2.356 . S
O209 C207 1.282 . S
C210 O211 1.306 . S
C210 O213 1.160 . S
O211 C210 1.306 . S
O211 Cd212 2.228 . S
Cd212 O211 2.228 . S
Cd212 O216 2.273 . S
Cd212 O220 2.277 . S
O213 C210 1.160 . S
O213 Cd214 2.203 . S
Cd214 O213 2.203 . S
Cd214 O216 2.411 . S
Cd214 O217 2.333 . S
Cd214 O218 2.352 . S
Cd214 O222 2.277 . S
Cd214 O223 2.356 . S
C215 O220 1.209 . S
C215 O222 1.226 . S
O216 Cd212 2.273 . S
O216 Cd214 2.411 . S
O216 C219 1.320 . S
O217 Cd214 2.333 . S
O217 C219 1.214 . S
O218 Cd214 2.352 . S
O218 C221 1.258 . S
C219 O216 1.320 . S
C219 O217 1.214 . S
O220 Cd212 2.277 . S
O220 C215 1.209 . S
C221 O218 1.258 . S
C221 O223 1.282 . S
O222 Cd214 2.277 . S
O222 C215 1.226 . S
O223 Cd214 2.356 . S
O223 C221 1.282 . S
C224 O225 1.306 . S
C224 O227 1.160 . S
O225 C224 1.306 . S
O225 Cd226 2.228 . S
Cd226 O225 2.228 . S
Cd226 O230 2.273 . S
Cd226 O234 2.277 . S
O227 C224 1.160 . S
O227 Cd228 2.203 . S
Cd228 O227 2.203 . S
Cd228 O230 2.411 . S
Cd228 O231 2.333 . S
Cd228 O232 2.352 . S
Cd228 O236 2.277 . S
Cd228 O237 2.356 . S
C229 O234 1.209 . S
C229 O236 1.226 . S
O230 Cd226 2.273 . S
O230 Cd228 2.411 . S
O230 C233 1.320 . S
O231 Cd228 2.333 . S
O231 C233 1.214 . S
O232 Cd228 2.352 . S
O232 C235 1.258 . S
C233 O230 1.320 . S
C233 O231 1.214 . S
O234 Cd226 2.277 . S
O234 C229 1.209 . S
C235 O232 1.258 . S
C235 O237 1.282 . S
O236 Cd228 2.277 . S
O236 C229 1.226 . S
O237 Cd228 2.356 . S
O237 C235 1.282 . S
C238 O239 1.306 . S
C238 O241 1.160 . S
O239 C238 1.306 . S
O239 Cd240 2.228 . S
Cd240 O239 2.228 . S
Cd240 O244 2.273 . S
Cd240 O248 2.277 . S
O241 C238 1.160 . S
O241 Cd242 2.203 . S
Cd242 O241 2.203 . S
Cd242 O244 2.411 . S
Cd242 O245 2.333 . S
Cd242 O246 2.352 . S
Cd242 O250 2.277 . S
Cd242 O251 2.356 . S
C243 O248 1.209 . S
C243 O250 1.226 . S
O244 Cd240 2.273 . S
O244 Cd242 2.411 . S
O244 C247 1.320 . S
O245 Cd242 2.333 . S
O245 C247 1.214 . S
O246 Cd242 2.352 . S
O246 C249 1.258 . S
C247 O244 1.320 . S
C247 O245 1.214 . S
O248 Cd240 2.277 . S
O248 C243 1.209 . S
C249 O246 1.258 . S
C249 O251 1.282 . S
O250 Cd242 2.277 . S
O250 C243 1.226 . S
O251 Cd242 2.356 . S
O251 C249 1.282 . S
C252 O253 1.306 . S
C252 O255 1.160 . S
O253 C252 1.306 . S
O253 Cd254 2.228 . S
Cd254 O253 2.228 . S
Cd254 O258 2.273 . S
Cd254 O262 2.277 . S
O255 C252 1.160 . S
O255 Cd256 2.203 . S
Cd256 O255 2.203 . S
Cd256 O258 2.411 . S
Cd256 O259 2.333 . S
Cd256 O260 2.352 . S
Cd256 O264 2.277 . S
Cd256 O265 2.356 . S
C257 O262 1.209 . S
C257 O264 1.226 . S
O258 Cd254 2.273 . S
O258 Cd256 2.411 . S
O258 C261 1.320 . S
O259 Cd256 2.333 . S
O259 C261 1.214 . S
O260 Cd256 2.352 . S
O260 C263 1.258 . S
C261 O258 1.320 . S
C261 O259 1.214 . S
O262 Cd254 2.277 . S
O262 C257 1.209 . S
C263 O260 1.258 . S
C263 O265 1.282 . S
O264 Cd256 2.277 . S
O264 C257 1.226 . S
O265 Cd256 2.356 . S
O265 C263 1.282 . S
C266 O267 1.306 . S
C266 O269 1.160 . S
O267 C266 1.306 . S
O267 Cd268 2.228 . S
Cd268 O267 2.228 . S
Cd268 O272 2.273 . S
Cd268 O276 2.277 . S
O269 C266 1.160 . S
O269 Cd270 2.203 . S
Cd270 O269 2.203 . S
Cd270 O272 2.411 . S
Cd270 O273 2.333 . S
Cd270 O274 2.352 . S
Cd270 O278 2.277 . S
Cd270 O279 2.356 . S
C271 O276 1.209 . S
C271 O278 1.226 . S
O272 Cd268 2.273 . S
O272 Cd270 2.411 . S
O272 C275 1.320 . S
O273 Cd270 2.333 . S
O273 C275 1.214 . S
O274 Cd270 2.352 . S
O274 C277 1.258 . S
C275 O272 1.320 . S
C275 O273 1.214 . S
O276 Cd268 2.277 . S
O276 C271 1.209 . S
C277 O274 1.258 . S
C277 O279 1.282 . S
O278 Cd270 2.277 . S
O278 C271 1.226 . S
O279 Cd270 2.356 . S
O279 C277 1.282 . S
C280 O281 1.306 . S
C280 O283 1.160 . S
O281 C280 1.306 . S
O281 Cd282 2.228 . S
Cd282 O281 2.228 . S
Cd282 O286 2.273 . S
Cd282 O290 2.277 . S
O283 C280 1.160 . S
O283 Cd284 2.203 . S
Cd284 O283 2.203 . S
Cd284 O286 2.411 . S
Cd284 O287 2.333 . S
Cd284 O288 2.352 . S
Cd284 O292 2.277 . S
Cd284 O293 2.356 . S
C285 O290 1.209 . S
C285 O292 1.226 . S
O286 Cd282 2.273 . S
O286 Cd284 2.411 . S
O286 C289 1.320 . S
O287 Cd284 2.333 . S
O287 C289 1.214 . S
O288 Cd284 2.352 . S
O288 C291 1.258 . S
C289 O286 1.320 . S
C289 O287 1.214 . S
O290 Cd282 2.277 . S
O290 C285 1.209 . S
C291 O288 1.258 . S
C291 O293 1.282 . S
O292 Cd284 2.277 . S
O292 C285 1.226 . S
O293 Cd284 2.356 . S
O293 C291 1.282 . S
C294 O295 1.306 . S
C294 O297 1.160 . S
O295 C294 1.306 . S
O295 Cd296 2.228 . S
Cd296 O295 2.228 . S
Cd296 O300 2.273 . S
Cd296 O304 2.277 . S
O297 C294 1.160 . S
O297 Cd298 2.203 . S
Cd298 O297 2.203 . S
Cd298 O300 2.411 . S
Cd298 O301 2.333 . S
Cd298 O302 2.352 . S
Cd298 O306 2.277 . S
Cd298 O307 2.356 . S
C299 O304 1.209 . S
C299 O306 1.226 . S
O300 Cd296 2.273 . S
O300 Cd298 2.411 . S
O300 C303 1.320 . S
O301 Cd298 2.333 . S
O301 C303 1.214 . S
O302 Cd298 2.352 . S
O302 C305 1.258 . S
C303 O300 1.320 . S
C303 O301 1.214 . S
O304 Cd296 2.277 . S
O304 C299 1.209 . S
C305 O302 1.258 . S
C305 O307 1.282 . S
O306 Cd298 2.277 . S
O306 C299 1.226 . S
O307 Cd298 2.356 . S
O307 C305 1.282 . S
C308 O309 1.306 . S
C308 O311 1.160 . S
O309 C308 1.306 . S
O309 Cd310 2.228 . S
Cd310 O309 2.228 . S
Cd310 O314 2.273 . S
Cd310 O318 2.277 . S
O311 C308 1.160 . S
O311 Cd312 2.203 . S
Cd312 O311 2.203 . S
Cd312 O314 2.411 . S
Cd312 O315 2.333 . S
Cd312 O316 2.352 . S
Cd312 O320 2.277 . S
Cd312 O321 2.356 . S
C313 O318 1.209 . S
C313 O320 1.226 . S
O314 Cd310 2.273 . S
O314 Cd312 2.411 . S
O314 C317 1.320 . S
O315 Cd312 2.333 . S
O315 C317 1.214 . S
O316 Cd312 2.352 . S
O316 C319 1.258 . S
C317 O314 1.320 . S
C317 O315 1.214 . S
O318 Cd310 2.277 . S
O318 C313 1.209 . S
C319 O316 1.258 . S
C319 O321 1.282 . S
O320 Cd312 2.277 . S
O320 C313 1.226 . S
O321 Cd312 2.356 . S
O321 C319 1.282 . S
C322 O323 1.306 . S
C322 O325 1.160 . S
O323 C322 1.306 . S
O323 Cd324 2.228 . S
Cd324 O323 2.228 . S
Cd324 O328 2.273 . S
Cd324 O332 2.277 . S
O325 C322 1.160 . S
O325 Cd326 2.203 . S
Cd326 O325 2.203 . S
Cd326 O328 2.411 . S
Cd326 O329 2.333 . S
Cd326 O330 2.352 . S
Cd326 O334 2.277 . S
Cd326 O335 2.356 . S
C327 O332 1.209 . S
C327 O334 1.226 . S
O328 Cd324 2.273 . S
O328 Cd326 2.411 . S
O328 C331 1.320 . S
O329 Cd326 2.333 . S
O329 C331 1.214 . S
O330 Cd326 2.352 . S
O330 C333 1.258 . S
C331 O328 1.320 . S
C331 O329 1.214 . S
O332 Cd324 2.277 . S
O332 C327 1.209 . S
C333 O330 1.258 . S
C333 O335 1.282 . S
O334 Cd326 2.277 . S
O334 C327 1.226 . S
O335 Cd326 2.356 . S
O335 C333 1.282 . S
C336 O337 1.306 . S
C336 O339 1.160 . S
O337 C336 1.306 . S
O337 Cd338 2.228 . S
Cd338 O337 2.228 . S
Cd338 O342 2.273 . S
Cd338 O346 2.277 . S
O339 C336 1.160 . S
O339 Cd340 2.203 . S
Cd340 O339 2.203 . S
Cd340 O342 2.411 . S
Cd340 O343 2.333 . S
Cd340 O344 2.352 . S
Cd340 O348 2.277 . S
Cd340 O349 2.356 . S
C341 O346 1.209 . S
C341 O348 1.226 . S
O342 Cd338 2.273 . S
O342 Cd340 2.411 . S
O342 C345 1.320 . S
O343 Cd340 2.333 . S
O343 C345 1.214 . S
O344 Cd340 2.352 . S
O344 C347 1.258 . S
C345 O342 1.320 . S
C345 O343 1.214 . S
O346 Cd338 2.277 . S
O346 C341 1.209 . S
C347 O344 1.258 . S
C347 O349 1.282 . S
O348 Cd340 2.277 . S
O348 C341 1.226 . S
O349 Cd340 2.356 . S
O349 C347 1.282 . S
C350 O351 1.306 . S
C350 O353 1.160 . S
O351 C350 1.306 . S
O351 Cd352 2.228 . S
Cd352 O351 2.228 . S
Cd352 O356 2.273 . S
Cd352 O360 2.277 . S
O353 C350 1.160 . S
O353 Cd354 2.203 . S
Cd354 O353 2.203 . S
Cd354 O356 2.411 . S
Cd354 O357 2.333 . S
Cd354 O358 2.352 . S
Cd354 O362 2.277 . S
Cd354 O363 2.356 . S
C355 O360 1.209 . S
C355 O362 1.226 . S
O356 Cd352 2.273 . S
O356 Cd354 2.411 . S
O356 C359 1.320 . S
O357 Cd354 2.333 . S
O357 C359 1.214 . S
O358 Cd354 2.352 . S
O358 C361 1.258 . S
C359 O356 1.320 . S
C359 O357 1.214 . S
O360 Cd352 2.277 . S
O360 C355 1.209 . S
C361 O358 1.258 . S
C361 O363 1.282 . S
O362 Cd354 2.277 . S
O362 C355 1.226 . S
O363 Cd354 2.356 . S
O363 C361 1.282 . S
C364 O365 1.306 . S
C364 O367 1.160 . S
O365 C364 1.306 . S
O365 Cd366 2.228 . S
Cd366 O365 2.228 . S
Cd366 O370 2.273 . S
Cd366 O374 2.277 . S
O367 C364 1.160 . S
O367 Cd368 2.203 . S
Cd368 O367 2.203 . S
Cd368 O370 2.411 . S
Cd368 O371 2.333 . S
Cd368 O372 2.352 . S
Cd368 O376 2.277 . S
Cd368 O377 2.356 . S
C369 O374 1.209 . S
C369 O376 1.226 . S
O370 Cd366 2.273 . S
O370 Cd368 2.411 . S
O370 C373 1.320 . S
O371 Cd368 2.333 . S
O371 C373 1.214 . S
O372 Cd368 2.352 . S
O372 C375 1.258 . S
C373 O370 1.320 . S
C373 O371 1.214 . S
O374 Cd366 2.277 . S
O374 C369 1.209 . S
C375 O372 1.258 . S
C375 O377 1.282 . S
O376 Cd368 2.277 . S
O376 C369 1.226 . S
O377 Cd368 2.356 . S
O377 C375 1.282 . S
C378 O379 1.306 . S
C378 O381 1.160 . S
O379 C378 1.306 . S
O379 Cd380 2.228 . S
Cd380 O379 2.228 . S
Cd380 O384 2.273 . S
Cd380 O388 2.277 . S
O381 C378 1.160 . S
O381 Cd382 2.203 . S
Cd382 O381 2.203 . S
Cd382 O384 2.411 . S
Cd382 O385 2.333 . S
Cd382 O386 2.352 . S
Cd382 O390 2.277 . S
Cd382 O391 2.356 . S
C383 O388 1.209 . S
C383 O390 1.226 . S
O384 Cd380 2.273 . S
O384 Cd382 2.411 . S
O384 C387 1.320 . S
O385 Cd382 2.333 . S
O385 C387 1.214 . S
O386 Cd382 2.352 . S
O386 C389 1.258 . S
C387 O384 1.320 . S
C387 O385 1.214 . S
O388 Cd380 2.277 . S
O388 C383 1.209 . S
C389 O386 1.258 . S
C389 O391 1.282 . S
O390 Cd382 2.277 . S
O390 C383 1.226 . S
O391 Cd382 2.356 . S
O391 C389 1.282 . S
C392 O393 1.306 . S
C392 O395 1.160 . S
O393 C392 1.306 . S
O393 Cd394 2.228 . S
Cd394 O393 2.228 . S
Cd394 O398 2.273 . S
Cd394 O402 2.277 . S
O395 C392 1.160 . S
O395 Cd396 2.203 . S
Cd396 O395 2.203 . S
Cd396 O398 2.411 . S
Cd396 O399 2.333 . S
Cd396 O400 2.352 . S
Cd396 O404 2.277 . S
Cd396 O405 2.356 . S
C397 O402 1.209 . S
C397 O404 1.226 . S
O398 Cd394 2.273 . S
O398 Cd396 2.411 . S
O398 C401 1.320 . S
O399 Cd396 2.333 . S
O399 C401 1.214 . S
O400 Cd396 2.352 . S
O400 C403 1.258 . S
C401 O398 1.320 . S
C401 O399 1.214 . S
O402 Cd394 2.277 . S
O402 C397 1.209 . S
C403 O400 1.258 . S
C403 O405 1.282 . S
O404 Cd396 2.277 . S
O404 C397 1.226 . S
O405 Cd396 2.356 . S
O405 C403 1.282 . S
C406 O407 1.306 . S
C406 O409 1.160 . S
O407 C406 1.306 . S
O407 Cd408 2.228 . S
Cd408 O407 2.228 . S
Cd408 O412 2.273 . S
Cd408 O416 2.277 . S
O409 C406 1.160 . S
O409 Cd410 2.203 . S
Cd410 O409 2.203 . S
Cd410 O412 2.411 . S
Cd410 O413 2.333 . S
Cd410 O414 2.352 . S
Cd410 O418 2.277 . S
Cd410 O419 2.356 . S
C411 O416 1.209 . S
C411 O418 1.226 . S
O412 Cd408 2.273 . S
O412 Cd410 2.411 . S
O412 C415 1.320 . S
O413 Cd410 2.333 . S
O413 C415 1.214 . S
O414 Cd410 2.352 . S
O414 C417 1.258 . S
C415 O412 1.320 . S
C415 O413 1.214 . S
O416 Cd408 2.277 . S
O416 C411 1.209 . S
C417 O414 1.258 . S
C417 O419 1.282 . S
O418 Cd410 2.277 . S
O418 C411 1.226 . S
O419 Cd410 2.356 . S
O419 C417 1.282 . S
C420 O421 1.306 . S
C420 O423 1.160 . S
O421 C420 1.306 . S
O421 Cd422 2.228 . S
Cd422 O421 2.228 . S
Cd422 O426 2.273 . S
Cd422 O430 2.277 . S
O423 C420 1.160 . S
O423 Cd424 2.203 . S
Cd424 O423 2.203 . S
Cd424 O426 2.411 . S
Cd424 O427 2.333 . S
Cd424 O428 2.352 . S
Cd424 O432 2.277 . S
Cd424 O433 2.356 . S
C425 O430 1.209 . S
C425 O432 1.226 . S
O426 Cd422 2.273 . S
O426 Cd424 2.411 . S
O426 C429 1.320 . S
O427 Cd424 2.333 . S
O427 C429 1.214 . S
O428 Cd424 2.352 . S
O428 C431 1.258 . S
C429 O426 1.320 . S
C429 O427 1.214 . S
O430 Cd422 2.277 . S
O430 C425 1.209 . S
C431 O428 1.258 . S
C431 O433 1.282 . S
O432 Cd424 2.277 . S
O432 C425 1.226 . S
O433 Cd424 2.356 . S
O433 C431 1.282 . S
C434 O435 1.306 . S
C434 O437 1.160 . S
O435 C434 1.306 . S
O435 Cd436 2.228 . S
Cd436 O435 2.228 . S
Cd436 O440 2.273 . S
Cd436 O444 2.277 . S
O437 C434 1.160 . S
O437 Cd438 2.203 . S
Cd438 O437 2.203 . S
Cd438 O440 2.411 . S
Cd438 O441 2.333 . S
Cd438 O442 2.352 . S
Cd438 O446 2.277 . S
Cd438 O447 2.356 . S
C439 O444 1.209 . S
C439 O446 1.226 . S
O440 Cd436 2.273 . S
O440 Cd438 2.411 . S
O440 C443 1.320 . S
O441 Cd438 2.333 . S
O441 C443 1.214 . S
O442 Cd438 2.352 . S
O442 C445 1.258 . S
C443 O440 1.320 . S
C443 O441 1.214 . S
O444 Cd436 2.277 . S
O444 C439 1.209 . S
C445 O442 1.258 . S
C445 O447 1.282 . S
O446 Cd438 2.277 . S
O446 C439 1.226 . S
O447 Cd438 2.356 . S
O447 C445 1.282 . S
C411 C5 1.554 . S
C19 C425 1.554 . S
C439 C33 1.554 . S
C397 C47 1.554 . S
C61 C383 1.554 . S
C341 C75 1.554 . S
C89 C355 1.554 . S
C369 C103 1.554 . S
C117 C299 1.554 . S
C131 C313 1.554 . S
C327 C145 1.554 . S
C159 C285 1.554 . S
C271 C173 1.554 . S
C229 C187 1.554 . S
C201 C243 1.554 . S
C215 C257 1.554 . S
C0 C140 1.377 1_554 S
C154 C14 1.377 1_556 S
C112 C28 1.377 1_556 S
C126 C42 1.377 1_556 S
C56 C196 1.377 . S
C210 C70 1.377 . S
C168 C84 1.377 . S
C182 C98 1.377 . S
C224 C364 1.377 . S
C378 C238 1.377 . S
C336 C252 1.377 . S
C266 C350 1.377 . S
C280 C420 1.377 1_556 S
C434 C294 1.377 1_554 S
C392 C308 1.377 1_554 S
C322 C406 1.377 1_556 S
C11 C67 1.524 1_545 S
C25 C81 1.524 1_655 S
C95 C39 1.524 1_545 S
C53 C109 1.524 1_455 S
C123 C179 1.524 1_565 S
C193 C137 1.524 1_655 S
C207 C151 1.524 1_565 S
C165 C221 1.524 1_655 S
C235 C291 1.524 . S
C305 C249 1.524 . S
C263 C319 1.524 . S
C333 C277 1.524 . S
C403 C347 1.524 . S
C361 C417 1.524 . S
C375 C431 1.524 . S
C389 C445 1.524 . S
C9 C79 1.485 . S
C23 C93 1.485 . S
C107 C37 1.485 . S
C65 C51 1.485 . S
C191 C121 1.485 . S
C205 C135 1.485 . S
C219 C149 1.485 . S
C163 C177 1.485 . S
C233 C303 1.485 . S
C317 C247 1.485 . S
C331 C261 1.485 . S
C275 C289 1.485 . S
C415 C345 1.485 . S
C359 C429 1.485 . S
C373 C443 1.485 . S
C401 C387 1.485 . S
