# Generated by pormake.
# Topology umq, (4)-cn, num edge types: 1
# Building blocks:
#     Node 0, Type 0, BuildingBlock: QUQFOY_clean_sbu_3, # of connection points: 4
#     Node 1, Type 0, BuildingBlock: QUQFOY_clean_sbu_3, # of connection points: 4
#     Node 2, Type 0, BuildingBlock: QUQFOY_clean_sbu_3, # of connection points: 4
#     Node 3, Type 0, BuildingBlock: QUQFOY_clean_sbu_3, # of connection points: 4
#     Node 4, Type 0, BuildingBlock: QUQFOY_clean_sbu_3, # of connection points: 4
#     Node 5, Type 0, BuildingBlock: QUQFOY_clean_sbu_3, # of connection points: 4
#     Node 6, Type 0, BuildingBlock: QUQFOY_clean_sbu_3, # of connection points: 4
#     Node 7, Type 0, BuildingBlock: QUQFOY_clean_sbu_3, # of connection points: 4
#     Node 8, Type 0, BuildingBlock: QUQFOY_clean_sbu_3, # of connection points: 4
#     Node 9, Type 0, BuildingBlock: QUQFOY_clean_sbu_3, # of connection points: 4
#     Node 10, Type 0, BuildingBlock: QUQFOY_clean_sbu_3, # of connection points: 4
#     Node 11, Type 0, BuildingBlock: QUQFOY_clean_sbu_3, # of connection points: 4
#     Node 12, Type 0, BuildingBlock: QUQFOY_clean_sbu_3, # of connection points: 4
#     Node 13, Type 0, BuildingBlock: QUQFOY_clean_sbu_3, # of connection points: 4
#     Node 14, Type 0, BuildingBlock: QUQFOY_clean_sbu_3, # of connection points: 4
#     Node 15, Type 0, BuildingBlock: QUQFOY_clean_sbu_3, # of connection points: 4
#     Node 16, Type 0, BuildingBlock: QUQFOY_clean_sbu_3, # of connection points: 4
#     Node 17, Type 0, BuildingBlock: QUQFOY_clean_sbu_3, # of connection points: 4
#     Node 18, Type 0, BuildingBlock: QUQFOY_clean_sbu_3, # of connection points: 4
#     Node 19, Type 0, BuildingBlock: QUQFOY_clean_sbu_3, # of connection points: 4
#     Node 20, Type 0, BuildingBlock: QUQFOY_clean_sbu_3, # of connection points: 4
#     Node 21, Type 0, BuildingBlock: QUQFOY_clean_sbu_3, # of connection points: 4
#     Node 22, Type 0, BuildingBlock: QUQFOY_clean_sbu_3, # of connection points: 4
#     Node 23, Type 0, BuildingBlock: QUQFOY_clean_sbu_3, # of connection points: 4
#     Node 24, Type 0, BuildingBlock: QUQFOY_clean_sbu_3, # of connection points: 4
#     Node 25, Type 0, BuildingBlock: QUQFOY_clean_sbu_3, # of connection points: 4
#     Node 26, Type 0, BuildingBlock: QUQFOY_clean_sbu_3, # of connection points: 4
#     Node 27, Type 0, BuildingBlock: QUQFOY_clean_sbu_3, # of connection points: 4
#     Node 28, Type 0, BuildingBlock: QUQFOY_clean_sbu_3, # of connection points: 4
#     Node 29, Type 0, BuildingBlock: QUQFOY_clean_sbu_3, # of connection points: 4
#     Node 30, Type 0, BuildingBlock: QUQFOY_clean_sbu_3, # of connection points: 4
#     Node 31, Type 0, BuildingBlock: QUQFOY_clean_sbu_3, # of connection points: 4
#     Edge 32, Type (0, 0), BuildingBlock: EZIPEK_clean_linker_0, # of connection points: 2
#     Edge 33, Type (0, 0), BuildingBlock: EZIPEK_clean_linker_0, # of connection points: 2
#     Edge 34, Type (0, 0), BuildingBlock: EZIPEK_clean_linker_0, # of connection points: 2
#     Edge 35, Type (0, 0), BuildingBlock: EZIPEK_clean_linker_0, # of connection points: 2
#     Edge 36, Type (0, 0), BuildingBlock: EZIPEK_clean_linker_0, # of connection points: 2
#     Edge 37, Type (0, 0), BuildingBlock: EZIPEK_clean_linker_0, # of connection points: 2
#     Edge 38, Type (0, 0), BuildingBlock: EZIPEK_clean_linker_0, # of connection points: 2
#     Edge 39, Type (0, 0), BuildingBlock: EZIPEK_clean_linker_0, # of connection points: 2
#     Edge 40, Type (0, 0), BuildingBlock: EZIPEK_clean_linker_0, # of connection points: 2
#     Edge 41, Type (0, 0), BuildingBlock: EZIPEK_clean_linker_0, # of connection points: 2
#     Edge 42, Type (0, 0), BuildingBlock: EZIPEK_clean_linker_0, # of connection points: 2
#     Edge 43, Type (0, 0), BuildingBlock: EZIPEK_clean_linker_0, # of connection points: 2
#     Edge 44, Type (0, 0), BuildingBlock: EZIPEK_clean_linker_0, # of connection points: 2
#     Edge 45, Type (0, 0), BuildingBlock: EZIPEK_clean_linker_0, # of connection points: 2
#     Edge 46, Type (0, 0), BuildingBlock: EZIPEK_clean_linker_0, # of connection points: 2
#     Edge 47, Type (0, 0), BuildingBlock: EZIPEK_clean_linker_0, # of connection points: 2
#     Edge 48, Type (0, 0), BuildingBlock: EZIPEK_clean_linker_0, # of connection points: 2
#     Edge 49, Type (0, 0), BuildingBlock: EZIPEK_clean_linker_0, # of connection points: 2
#     Edge 50, Type (0, 0), BuildingBlock: EZIPEK_clean_linker_0, # of connection points: 2
#     Edge 51, Type (0, 0), BuildingBlock: EZIPEK_clean_linker_0, # of connection points: 2
#     Edge 52, Type (0, 0), BuildingBlock: EZIPEK_clean_linker_0, # of connection points: 2
#     Edge 53, Type (0, 0), BuildingBlock: EZIPEK_clean_linker_0, # of connection points: 2
#     Edge 54, Type (0, 0), BuildingBlock: EZIPEK_clean_linker_0, # of connection points: 2
#     Edge 55, Type (0, 0), BuildingBlock: EZIPEK_clean_linker_0, # of connection points: 2
#     Edge 56, Type (0, 0), BuildingBlock: EZIPEK_clean_linker_0, # of connection points: 2
#     Edge 57, Type (0, 0), BuildingBlock: EZIPEK_clean_linker_0, # of connection points: 2
#     Edge 58, Type (0, 0), BuildingBlock: EZIPEK_clean_linker_0, # of connection points: 2
#     Edge 59, Type (0, 0), BuildingBlock: EZIPEK_clean_linker_0, # of connection points: 2
#     Edge 60, Type (0, 0), BuildingBlock: EZIPEK_clean_linker_0, # of connection points: 2
#     Edge 61, Type (0, 0), BuildingBlock: EZIPEK_clean_linker_0, # of connection points: 2
#     Edge 62, Type (0, 0), BuildingBlock: EZIPEK_clean_linker_0, # of connection points: 2
#     Edge 63, Type (0, 0), BuildingBlock: EZIPEK_clean_linker_0, # of connection points: 2
#     Edge 64, Type (0, 0), BuildingBlock: EZIPEK_clean_linker_0, # of connection points: 2
#     Edge 65, Type (0, 0), BuildingBlock: EZIPEK_clean_linker_0, # of connection points: 2
#     Edge 66, Type (0, 0), BuildingBlock: EZIPEK_clean_linker_0, # of connection points: 2
#     Edge 67, Type (0, 0), BuildingBlock: EZIPEK_clean_linker_0, # of connection points: 2
#     Edge 68, Type (0, 0), BuildingBlock: EZIPEK_clean_linker_0, # of connection points: 2
#     Edge 69, Type (0, 0), BuildingBlock: EZIPEK_clean_linker_0, # of connection points: 2
#     Edge 70, Type (0, 0), BuildingBlock: EZIPEK_clean_linker_0, # of connection points: 2
#     Edge 71, Type (0, 0), BuildingBlock: EZIPEK_clean_linker_0, # of connection points: 2
#     Edge 72, Type (0, 0), BuildingBlock: EZIPEK_clean_linker_0, # of connection points: 2
#     Edge 73, Type (0, 0), BuildingBlock: EZIPEK_clean_linker_0, # of connection points: 2
#     Edge 74, Type (0, 0), BuildingBlock: EZIPEK_clean_linker_0, # of connection points: 2
#     Edge 75, Type (0, 0), BuildingBlock: EZIPEK_clean_linker_0, # of connection points: 2
#     Edge 76, Type (0, 0), BuildingBlock: EZIPEK_clean_linker_0, # of connection points: 2
#     Edge 77, Type (0, 0), BuildingBlock: EZIPEK_clean_linker_0, # of connection points: 2
#     Edge 78, Type (0, 0), BuildingBlock: EZIPEK_clean_linker_0, # of connection points: 2
#     Edge 79, Type (0, 0), BuildingBlock: EZIPEK_clean_linker_0, # of connection points: 2
#     Edge 80, Type (0, 0), BuildingBlock: EZIPEK_clean_linker_0, # of connection points: 2
#     Edge 81, Type (0, 0), BuildingBlock: EZIPEK_clean_linker_0, # of connection points: 2
#     Edge 82, Type (0, 0), BuildingBlock: EZIPEK_clean_linker_0, # of connection points: 2
#     Edge 83, Type (0, 0), BuildingBlock: EZIPEK_clean_linker_0, # of connection points: 2
#     Edge 84, Type (0, 0), BuildingBlock: EZIPEK_clean_linker_0, # of connection points: 2
#     Edge 85, Type (0, 0), BuildingBlock: EZIPEK_clean_linker_0, # of connection points: 2
#     Edge 86, Type (0, 0), BuildingBlock: EZIPEK_clean_linker_0, # of connection points: 2
#     Edge 87, Type (0, 0), BuildingBlock: EZIPEK_clean_linker_0, # of connection points: 2
#     Edge 88, Type (0, 0), BuildingBlock: EZIPEK_clean_linker_0, # of connection points: 2
#     Edge 89, Type (0, 0), BuildingBlock: EZIPEK_clean_linker_0, # of connection points: 2
#     Edge 90, Type (0, 0), BuildingBlock: EZIPEK_clean_linker_0, # of connection points: 2
#     Edge 91, Type (0, 0), BuildingBlock: EZIPEK_clean_linker_0, # of connection points: 2
#     Edge 92, Type (0, 0), BuildingBlock: EZIPEK_clean_linker_0, # of connection points: 2
#     Edge 93, Type (0, 0), BuildingBlock: EZIPEK_clean_linker_0, # of connection points: 2
#     Edge 94, Type (0, 0), BuildingBlock: EZIPEK_clean_linker_0, # of connection points: 2
#     Edge 95, Type (0, 0), BuildingBlock: EZIPEK_clean_linker_0, # of connection points: 2
# Relax obj value: 0.063
# Max RMSD: 0.052
# Mean RMSD: 0.052
data_MOF--net-umq--node1-QUQFOY_clean_sbu_3--edge1-EZIPEK_clean_linker_0
_symmetry_space_group_name_H-M    P1
_symmetry_Int_Tables_number       1
_symmetry_cell_setting            triclinic
loop_
_symmetry_equiv_pos_as_xyz
'x, y, z'
_cell_length_a     51.637252
_cell_length_b     51.273847
_cell_length_c     35.221853
_cell_angle_alpha  89.694415
_cell_angle_beta   89.742259
_cell_angle_gamma 89.883503
loop_
_atom_site_label
_atom_site_type_symbol
_atom_site_fract_x
_atom_site_fract_y
_atom_site_fract_z
_atom_type_partial_charge
C0 C 0.20225 0.08442 0.0556 0.0
O1 O 0.19048 0.10605 0.05891 0.0
Cd2 Cd 0.18499 0.13109 0.1149 0.0
O3 O 0.21191 0.07266 0.08421 0.0
Cd4 Cd 0.21488 0.08073 0.15358 0.0
C5 C 0.24987 0.13545 0.13653 0.0
O6 O 0.1726 0.10009 0.16151 0.0
O7 O 0.19761 0.10336 0.20995 0.0
O8 O 0.20572 0.03522 0.16666 0.0
C9 C 0.17567 0.10775 0.19521 0.0
O10 O 0.22889 0.14643 0.12627 0.0
C11 C 0.2256 0.03147 0.18706 0.0
O12 O 0.25071 0.11146 0.14603 0.0
O13 O 0.24115 0.05044 0.19091 0.0
C14 C 0.88306 0.20811 0.049 0.0
O15 O 0.86233 0.19494 0.05138 0.0
Cd16 Cd 0.83624 0.18841 0.10628 0.0
O17 O 0.89327 0.2185 0.07811 0.0
Cd18 Cd 0.88355 0.22003 0.14738 0.0
C19 C 0.82828 0.25327 0.12911 0.0
O20 O 0.86597 0.17656 0.15442 0.0
O21 O 0.86045 0.20172 0.20254 0.0
O22 O 0.92881 0.21243 0.16137 0.0
C23 C 0.85743 0.17944 0.18782 0.0
O24 O 0.8187 0.2319 0.11754 0.0
C25 C 0.93114 0.23198 0.18304 0.0
O26 O 0.85169 0.25492 0.14005 0.0
O27 O 0.91154 0.24673 0.18717 0.0
C28 C 0.75329 0.88679 0.0427 0.0
O29 O 0.76475 0.86493 0.04204 0.0
Cd30 Cd 0.77201 0.8386 0.09611 0.0
O31 O 0.74546 0.89672 0.07374 0.0
Cd32 Cd 0.74825 0.88324 0.14154 0.0
C33 C 0.71028 0.83112 0.1285 0.0
O34 O 0.7926 0.86566 0.1423 0.0
O35 O 0.76855 0.85623 0.19056 0.0
O36 O 0.75781 0.92825 0.15673 0.0
C37 C 0.79083 0.85595 0.17531 0.0
O38 O 0.73023 0.8204 0.11413 0.0
C39 C 0.7403 0.93039 0.1819 0.0
O40 O 0.71058 0.85477 0.13906 0.0
O41 O 0.72602 0.91069 0.18805 0.0
C42 C 0.07801 0.76421 0.04103 0.0
O43 O 0.09899 0.77696 0.04188 0.0
Cd44 Cd 0.1236 0.78427 0.09731 0.0
O45 O 0.0678 0.75518 0.07129 0.0
Cd46 Cd 0.07957 0.75622 0.13953 0.0
C47 C 0.13344 0.72115 0.12407 0.0
O48 O 0.09528 0.80124 0.14523 0.0
O49 O 0.10595 0.77468 0.19002 0.0
O50 O 0.0346 0.76417 0.15582 0.0
C51 C 0.10541 0.79791 0.17754 0.0
O52 O 0.14343 0.74247 0.11271 0.0
C53 C 0.0328 0.74536 0.17922 0.0
O54 O 0.10962 0.71973 0.13316 0.0
O55 O 0.05259 0.73095 0.18356 0.0
C56 C 0.20896 0.88751 0.4024 0.0
O57 O 0.19509 0.86717 0.40212 0.0
Cd58 Cd 0.18654 0.84221 0.34735 0.0
O59 O 0.21834 0.89698 0.37185 0.0
Cd60 Cd 0.21522 0.88527 0.30366 0.0
C61 C 0.24832 0.82976 0.31791 0.0
O62 O 0.16984 0.87093 0.29959 0.0
O63 O 0.19506 0.85981 0.25357 0.0
O64 O 0.20785 0.93087 0.28935 0.0
C65 C 0.17226 0.86091 0.26701 0.0
O66 O 0.22707 0.82076 0.33073 0.0
C67 C 0.22584 0.93277 0.26487 0.0
O68 O 0.2504 0.85349 0.30762 0.0
O69 O 0.23962 0.91266 0.25887 0.0
C70 C 0.0786 0.2113 0.39561 0.0
O71 O 0.10017 0.19953 0.39299 0.0
Cd72 Cd 0.12554 0.19318 0.33739 0.0
O73 O 0.06723 0.22063 0.3665 0.0
Cd74 Cd 0.07636 0.22253 0.29707 0.0
C75 C 0.13074 0.25781 0.31152 0.0
O76 O 0.09531 0.17955 0.29121 0.0
O77 O 0.09937 0.20415 0.24186 0.0
O78 O 0.03125 0.2136 0.28369 0.0
C79 C 0.10325 0.18216 0.25743 0.0
O80 O 0.14143 0.23684 0.32301 0.0
C81 C 0.02815 0.23314 0.26189 0.0
O82 O 0.10692 0.25865 0.30236 0.0
O83 O 0.04722 0.24847 0.25745 0.0
C84 C 0.75869 0.08181 0.39285 0.0
O85 O 0.76954 0.10386 0.38909 0.0
Cd86 Cd 0.77445 0.12864 0.33242 0.0
O87 O 0.74964 0.06958 0.36445 0.0
Cd88 Cd 0.74711 0.07758 0.29485 0.0
C89 C 0.70994 0.13128 0.30823 0.0
O90 O 0.78903 0.09793 0.28706 0.0
O91 O 0.76407 0.10053 0.2384 0.0
O92 O 0.75832 0.03247 0.28235 0.0
C93 C 0.78592 0.10524 0.25307 0.0
O94 O 0.73041 0.14288 0.31882 0.0
C95 C 0.7388 0.02808 0.26158 0.0
O96 O 0.70999 0.1072 0.29955 0.0
O97 O 0.72247 0.04642 0.25744 0.0
C98 C 0.8865 0.76167 0.39814 0.0
O99 O 0.86535 0.77408 0.39514 0.0
Cd100 Cd 0.84243 0.78116 0.33808 0.0
O101 O 0.89808 0.75254 0.36911 0.0
Cd102 Cd 0.88896 0.75308 0.29988 0.0
C103 C 0.83502 0.71762 0.31156 0.0
O104 O 0.87281 0.7977 0.29277 0.0
O105 O 0.86314 0.77134 0.24798 0.0
O106 O 0.93401 0.76222 0.2854 0.0
C107 C 0.8631 0.79454 0.26028 0.0
O108 O 0.82438 0.73886 0.32179 0.0
C109 C 0.93688 0.74335 0.2626 0.0
O110 O 0.85915 0.71633 0.3044 0.0
O111 O 0.91771 0.72823 0.2581 0.0
C112 C 0.75424 0.89006 0.88956 0.0
O113 O 0.76813 0.86962 0.88838 0.0
Cd114 Cd 0.7758 0.84233 0.83512 0.0
O115 O 0.74376 0.89951 0.85984 0.0
Cd116 Cd 0.74255 0.88902 0.79125 0.0
C117 C 0.7113 0.83292 0.81334 0.0
O118 O 0.78568 0.8715 0.78501 0.0
O119 O 0.76109 0.86598 0.73649 0.0
O120 O 0.75006 0.93445 0.77764 0.0
C121 C 0.78297 0.86252 0.7519 0.0
O122 O 0.73284 0.82411 0.82537 0.0
C123 C 0.73066 0.93719 0.75599 0.0
O124 O 0.70889 0.85615 0.80077 0.0
O125 O 0.71598 0.91759 0.75145 0.0
C126 C 0.07689 0.75926 0.88592 0.0
O127 O 0.09787 0.77191 0.8822 0.0
Cd128 Cd 0.12341 0.77713 0.82632 0.0
O129 O 0.06607 0.74824 0.85783 0.0
Cd130 Cd 0.07449 0.74425 0.78864 0.0
C131 C 0.13021 0.7116 0.80627 0.0
O132 O 0.09244 0.78702 0.7793 0.0
O133 O 0.0956 0.76179 0.73088 0.0
O134 O 0.02903 0.75126 0.77683 0.0
C135 C 0.10009 0.78384 0.74553 0.0
O136 O 0.14019 0.73322 0.81608 0.0
C137 C 0.02618 0.73089 0.75696 0.0
O138 O 0.10649 0.70974 0.79693 0.0
O139 O 0.04569 0.71604 0.75274 0.0
C140 C 0.20233 0.08655 0.89946 0.0
O141 O 0.19082 0.10835 0.89664 0.0
Cd142 Cd 0.18612 0.13344 0.84015 0.0
O143 O 0.21163 0.07503 0.87048 0.0
Cd144 Cd 0.21298 0.0832 0.80094 0.0
C145 C 0.25065 0.13577 0.81458 0.0
O146 O 0.17066 0.10349 0.7945 0.0
O147 O 0.19561 0.10641 0.74551 0.0
O148 O 0.20316 0.03733 0.79481 0.0
C149 C 0.17373 0.11094 0.7605 0.0
O150 O 0.23021 0.1474 0.82573 0.0
C151 C 0.21961 0.0331 0.76866 0.0
O152 O 0.25057 0.11172 0.80575 0.0
O153 O 0.23384 0.05207 0.75838 0.0
C154 C 0.8825 0.20995 0.89326 0.0
O155 O 0.86139 0.19747 0.89053 0.0
Cd156 Cd 0.83602 0.19155 0.83498 0.0
O157 O 0.89336 0.22029 0.86435 0.0
Cd158 Cd 0.88402 0.22362 0.79539 0.0
C159 C 0.8284 0.25656 0.81295 0.0
O160 O 0.86636 0.18035 0.78708 0.0
O161 O 0.86207 0.20622 0.73915 0.0
O162 O 0.92938 0.21652 0.78169 0.0
C163 C 0.85848 0.18379 0.7535 0.0
O164 O 0.81847 0.23496 0.82335 0.0
C165 C 0.93191 0.23666 0.76091 0.0
O166 O 0.85215 0.25842 0.80347 0.0
O167 O 0.91233 0.25147 0.75713 0.0
C168 C 0.76055 0.08475 0.5487 0.0
O169 O 0.77358 0.10566 0.5507 0.0
Cd170 Cd 0.7793 0.13204 0.6054 0.0
O171 O 0.74994 0.07461 0.57795 0.0
Cd172 Cd 0.74726 0.08444 0.64677 0.0
C173 C 0.7147 0.14021 0.62733 0.0
O174 O 0.79028 0.10221 0.65448 0.0
O175 O 0.76473 0.107 0.70244 0.0
O176 O 0.75398 0.03876 0.66086 0.0
C177 C 0.78694 0.11054 0.68787 0.0
O178 O 0.73603 0.1499 0.61583 0.0
C179 C 0.7338 0.03635 0.68126 0.0
O180 O 0.71296 0.11664 0.63856 0.0
O181 O 0.7193 0.05623 0.68498 0.0
C182 C 0.8814 0.76038 0.55337 0.0
O183 O 0.86099 0.77416 0.55521 0.0
Cd184 Cd 0.83415 0.78068 0.6095 0.0
O185 O 0.89074 0.74911 0.58257 0.0
Cd186 Cd 0.88014 0.74623 0.65111 0.0
C187 C 0.82403 0.71566 0.63014 0.0
O188 O 0.8638 0.78996 0.65861 0.0
O189 O 0.85796 0.76464 0.70685 0.0
O190 O 0.92548 0.75183 0.6642 0.0
C191 C 0.85514 0.78702 0.69197 0.0
O192 O 0.81513 0.73764 0.61933 0.0
C193 C 0.92744 0.73178 0.68528 0.0
O194 O 0.84731 0.71291 0.64125 0.0
O195 O 0.90742 0.71771 0.6898 0.0
C196 C 0.21225 0.88542 0.55551 0.0
O197 O 0.20124 0.86333 0.55567 0.0
Cd198 Cd 0.19396 0.83631 0.60934 0.0
O199 O 0.2198 0.89612 0.58606 0.0
Cd200 Cd 0.2179 0.88504 0.65486 0.0
C201 C 0.25704 0.83351 0.64078 0.0
O202 O 0.17537 0.86497 0.65458 0.0
O203 O 0.19723 0.85953 0.70592 0.0
O204 O 0.20741 0.93057 0.66328 0.0
C205 C 0.17622 0.85625 0.68816 0.0
O206 O 0.23742 0.82225 0.62662 0.0
C207 C 0.2222 0.93393 0.69148 0.0
O208 O 0.25611 0.85708 0.65187 0.0
O209 O 0.23583 0.91462 0.70218 0.0
C210 C 0.07863 0.21084 0.55158 0.0
O211 O 0.09921 0.19742 0.55446 0.0
Cd212 Cd 0.12475 0.19169 0.60992 0.0
O213 O 0.06836 0.22183 0.58031 0.0
Cd214 Cd 0.07756 0.22439 0.64944 0.0
C215 C 0.13304 0.25679 0.63055 0.0
O216 O 0.09483 0.18086 0.65872 0.0
O217 O 0.09995 0.20715 0.70558 0.0
O218 O 0.03224 0.21726 0.6631 0.0
C219 C 0.10304 0.1845 0.69204 0.0
O220 O 0.14254 0.23511 0.61982 0.0
C221 C 0.02964 0.23722 0.68394 0.0
O222 O 0.10953 0.25892 0.64116 0.0
O223 O 0.04916 0.252 0.68773 0.0
C224 C 0.70642 0.5795 0.54035 0.0
O225 O 0.69259 0.59994 0.54097 0.0
Cd226 Cd 0.68386 0.62482 0.59601 0.0
O227 O 0.71561 0.56978 0.57074 0.0
Cd228 Cd 0.7129 0.58155 0.63882 0.0
C229 C 0.74581 0.63676 0.62366 0.0
O230 O 0.66773 0.59649 0.64491 0.0
O231 O 0.694 0.60768 0.68923 0.0
O232 O 0.70604 0.53621 0.6551 0.0
C233 C 0.67094 0.6068 0.67713 0.0
O234 O 0.72455 0.64604 0.61147 0.0
C235 C 0.72458 0.53482 0.67855 0.0
O236 O 0.74792 0.61297 0.63352 0.0
O237 O 0.73837 0.55504 0.68292 0.0
C238 C 0.38562 0.70848 0.55978 0.0
O239 O 0.36414 0.69683 0.56414 0.0
Cd240 Cd 0.33991 0.69131 0.6211 0.0
O241 O 0.39778 0.71814 0.58776 0.0
Cd242 Cd 0.39071 0.7211 0.65741 0.0
C243 C 0.33622 0.7566 0.6436 0.0
O244 O 0.3713 0.67886 0.66628 0.0
O245 O 0.36929 0.70394 0.71502 0.0
O246 O 0.43572 0.71103 0.66905 0.0
C247 C 0.36428 0.68202 0.70035 0.0
O248 O 0.32515 0.73556 0.63371 0.0
C249 C 0.43979 0.73094 0.68941 0.0
O250 O 0.3602 0.75737 0.6518 0.0
O251 O 0.42132 0.74709 0.69349 0.0
C252 C 0.26143 0.38246 0.54356 0.0
O253 O 0.27345 0.36092 0.54621 0.0
Cd254 Cd 0.2785 0.33576 0.60259 0.0
O255 O 0.25194 0.39369 0.57263 0.0
Cd256 Cd 0.25081 0.38544 0.64207 0.0
C257 C 0.21388 0.33254 0.62756 0.0
O258 O 0.29334 0.3656 0.64881 0.0
O259 O 0.26806 0.36214 0.69738 0.0
O260 O 0.26016 0.43136 0.6484 0.0
C261 C 0.29009 0.35791 0.68267 0.0
O262 O 0.23453 0.32122 0.61655 0.0
C263 C 0.24376 0.43533 0.67471 0.0
O264 O 0.21359 0.35656 0.63651 0.0
O265 O 0.22969 0.41621 0.68487 0.0
C266 C 0.58028 0.26232 0.54674 0.0
O267 O 0.60065 0.27601 0.54917 0.0
Cd268 Cd 0.62612 0.28309 0.60434 0.0
O269 O 0.57003 0.25164 0.57587 0.0
Cd270 Cd 0.5791 0.24988 0.645 0.0
C271 C 0.63533 0.21828 0.62685 0.0
O272 O 0.59611 0.29346 0.65301 0.0
O273 O 0.60119 0.26755 0.70074 0.0
O274 O 0.5337 0.25627 0.65918 0.0
C275 C 0.60442 0.29003 0.68639 0.0
O276 O 0.64465 0.24003 0.61591 0.0
C277 C 0.53168 0.23621 0.68026 0.0
O278 O 0.61174 0.21592 0.637 0.0
O279 O 0.55153 0.22176 0.6839 0.0
C280 C 0.70164 0.38734 0.89328 0.0
O281 O 0.68919 0.36614 0.89042 0.0
Cd282 Cd 0.68417 0.34057 0.83488 0.0
O283 O 0.71204 0.39829 0.86448 0.0
Cd284 Cd 0.71478 0.38937 0.79532 0.0
C285 C 0.74897 0.33433 0.81296 0.0
O286 O 0.67217 0.37073 0.78681 0.0
O287 O 0.69829 0.36643 0.73939 0.0
O288 O 0.7059 0.43466 0.78086 0.0
C289 C 0.67593 0.36273 0.75334 0.0
O290 O 0.72785 0.32395 0.82397 0.0
C291 C 0.72595 0.43794 0.76042 0.0
O292 O 0.75015 0.35811 0.80256 0.0
O293 O 0.74156 0.41888 0.7574 0.0
C294 C 0.58084 0.70728 0.90564 0.0
O295 O 0.60203 0.69481 0.90474 0.0
Cd296 Cd 0.62686 0.68822 0.84895 0.0
O297 O 0.57081 0.71651 0.8755 0.0
Cd298 Cd 0.58311 0.71549 0.80735 0.0
C299 C 0.63629 0.75111 0.8214 0.0
O300 O 0.59876 0.67034 0.80178 0.0
O301 O 0.60918 0.69659 0.75635 0.0
O302 O 0.53806 0.70842 0.79202 0.0
C303 C 0.60852 0.67343 0.76905 0.0
O304 O 0.64664 0.72997 0.8328 0.0
C305 C 0.53665 0.727 0.76821 0.0
O306 O 0.61244 0.7522 0.81285 0.0
O307 O 0.55675 0.74079 0.76305 0.0
C308 C 0.2521 0.57982 0.89212 0.0
O309 O 0.26449 0.60115 0.89243 0.0
Cd310 Cd 0.27277 0.6287 0.83965 0.0
O311 O 0.24388 0.56996 0.86135 0.0
Cd312 Cd 0.24674 0.58154 0.79284 0.0
C313 C 0.20957 0.63413 0.80917 0.0
O314 O 0.2898 0.60048 0.79265 0.0
O315 O 0.26724 0.60739 0.74229 0.0
O316 O 0.25647 0.53608 0.78291 0.0
C317 C 0.28859 0.60988 0.75946 0.0
O318 O 0.22963 0.64441 0.82361 0.0
C319 C 0.24141 0.53333 0.75484 0.0
O320 O 0.20962 0.61078 0.79708 0.0
O321 O 0.22788 0.55294 0.74504 0.0
C322 C 0.38472 0.25769 0.89223 0.0
O323 O 0.36388 0.27067 0.88913 0.0
Cd324 Cd 0.33866 0.27629 0.8334 0.0
O325 O 0.39544 0.24704 0.86356 0.0
Cd326 Cd 0.38649 0.24479 0.79427 0.0
C327 C 0.33146 0.21126 0.81164 0.0
O328 O 0.36868 0.28819 0.78527 0.0
O329 O 0.3639 0.26195 0.73828 0.0
O330 O 0.43166 0.25302 0.78062 0.0
C331 C 0.36067 0.28456 0.75185 0.0
O332 O 0.32153 0.23273 0.82241 0.0
C333 C 0.43466 0.23328 0.75945 0.0
O334 O 0.3551 0.20954 0.80151 0.0
O335 O 0.41549 0.21804 0.75563 0.0
C336 C 0.25856 0.38541 0.38724 0.0
O337 O 0.27013 0.36374 0.38308 0.0
Cd338 Cd 0.27456 0.33929 0.3264 0.0
O339 O 0.2485 0.3975 0.35923 0.0
Cd340 Cd 0.24442 0.39028 0.28977 0.0
C341 C 0.20937 0.33553 0.30631 0.0
O342 O 0.28648 0.37091 0.2804 0.0
O343 O 0.2611 0.36844 0.23227 0.0
O344 O 0.25372 0.43588 0.27769 0.0
C345 C 0.28313 0.36375 0.24653 0.0
O346 O 0.23039 0.32439 0.31601 0.0
C347 C 0.23355 0.44005 0.2581 0.0
O348 O 0.20857 0.35956 0.29702 0.0
O349 O 0.21778 0.42127 0.25426 0.0
C350 C 0.58085 0.25784 0.39078 0.0
O351 O 0.60265 0.26903 0.38752 0.0
Cd352 Cd 0.62768 0.27424 0.33133 0.0
O353 O 0.56916 0.24847 0.36215 0.0
Cd354 Cd 0.57789 0.24581 0.29268 0.0
C355 C 0.63163 0.20931 0.30744 0.0
O356 O 0.59714 0.28852 0.28571 0.0
O357 O 0.60088 0.26378 0.23683 0.0
O358 O 0.53273 0.25565 0.28051 0.0
C359 C 0.6048 0.28581 0.25186 0.0
O360 O 0.64275 0.23016 0.31796 0.0
C361 C 0.52907 0.23636 0.25876 0.0
O362 O 0.60774 0.20891 0.29861 0.0
O363 O 0.5479 0.22076 0.25371 0.0
C364 C 0.71228 0.58233 0.3869 0.0
O365 O 0.69963 0.60356 0.38609 0.0
Cd366 Cd 0.69294 0.63114 0.33278 0.0
O367 O 0.72226 0.5726 0.357 0.0
Cd368 Cd 0.72328 0.58385 0.28824 0.0
C369 C 0.75718 0.63863 0.30728 0.0
O370 O 0.68009 0.6015 0.28525 0.0
O371 O 0.70316 0.60786 0.23502 0.0
O372 O 0.71478 0.53845 0.27577 0.0
C373 C 0.68157 0.61047 0.25187 0.0
O374 O 0.7362 0.64822 0.32027 0.0
C375 C 0.73333 0.53548 0.25246 0.0
O376 O 0.75847 0.61529 0.29522 0.0
O377 O 0.74799 0.55494 0.2463 0.0
C378 C 0.38129 0.70644 0.404 0.0
O379 O 0.36042 0.69354 0.40242 0.0
Cd380 Cd 0.33639 0.68648 0.3462 0.0
O381 O 0.39161 0.71609 0.37424 0.0
Cd382 Cd 0.38074 0.71579 0.3057 0.0
C383 C 0.3257 0.74945 0.31904 0.0
O384 O 0.36592 0.67054 0.29922 0.0
O385 O 0.35572 0.69684 0.254 0.0
O386 O 0.4262 0.70903 0.29153 0.0
C387 C 0.35616 0.67365 0.26665 0.0
O388 O 0.31592 0.7278 0.32944 0.0
C389 C 0.4281 0.72798 0.2684 0.0
O390 O 0.34969 0.75151 0.31127 0.0
O391 O 0.40805 0.74186 0.26303 0.0
C392 C 0.25161 0.58156 0.04424 0.0
O393 O 0.2653 0.60202 0.04334 0.0
Cd394 Cd 0.27286 0.62867 0.09663 0.0
O395 O 0.24205 0.57301 0.07521 0.0
Cd396 Cd 0.24464 0.5865 0.14273 0.0
C397 C 0.21072 0.64094 0.12462 0.0
O398 O 0.28987 0.6014 0.14603 0.0
O399 O 0.26473 0.6127 0.19212 0.0
O400 O 0.25197 0.54109 0.1579 0.0
C401 C 0.28746 0.61175 0.17841 0.0
O402 O 0.23173 0.64979 0.11077 0.0
C403 C 0.23401 0.5394 0.18245 0.0
O404 O 0.20905 0.6176 0.13677 0.0
O405 O 0.22038 0.55963 0.18841 0.0
C406 C 0.38229 0.25848 0.04768 0.0
O407 O 0.36079 0.27047 0.04913 0.0
Cd408 Cd 0.33447 0.27736 0.10364 0.0
O409 O 0.393 0.24939 0.07749 0.0
Cd410 Cd 0.38285 0.24845 0.14665 0.0
C411 C 0.32867 0.21306 0.13114 0.0
O412 O 0.3639 0.29157 0.15065 0.0
O413 O 0.35931 0.26768 0.20066 0.0
O414 O 0.42795 0.25733 0.16017 0.0
C415 C 0.35558 0.28943 0.18431 0.0
O416 O 0.31832 0.23383 0.11828 0.0
C417 C 0.43089 0.23808 0.18256 0.0
O418 O 0.35219 0.21239 0.14181 0.0
O419 O 0.41164 0.22306 0.18762 0.0
C420 C 0.70237 0.38561 0.04925 0.0
O421 O 0.69034 0.36412 0.05216 0.0
Cd422 Cd 0.68455 0.33813 0.10771 0.0
O423 O 0.71237 0.39661 0.07802 0.0
Cd424 Cd 0.71598 0.38732 0.14703 0.0
C425 C 0.74927 0.33155 0.12928 0.0
O426 O 0.67347 0.36876 0.15514 0.0
O427 O 0.69828 0.3652 0.20383 0.0
O428 O 0.70872 0.43308 0.15991 0.0
C429 C 0.67645 0.36083 0.18886 0.0
O430 O 0.72803 0.32129 0.11892 0.0
C431 C 0.72896 0.43589 0.17979 0.0
O432 O 0.75072 0.35541 0.13886 0.0
O433 O 0.74369 0.4162 0.18378 0.0
C434 C 0.57723 0.70849 0.06026 0.0
O435 O 0.59829 0.69578 0.06269 0.0
Cd436 Cd 0.6246 0.68943 0.11708 0.0
O437 O 0.56651 0.71871 0.08927 0.0
Cd438 Cd 0.57533 0.72122 0.15844 0.0
C439 C 0.6302 0.75499 0.13846 0.0
O440 O 0.59458 0.67885 0.16519 0.0
O441 O 0.59821 0.70335 0.21428 0.0
O442 O 0.53033 0.71171 0.17131 0.0
C443 C 0.60296 0.68167 0.19854 0.0
O444 O 0.64023 0.73358 0.12754 0.0
C445 C 0.52651 0.73141 0.1923 0.0
O446 O 0.60667 0.75653 0.14937 0.0
O447 O 0.54525 0.74714 0.19667 0.0
C448 C 0.30009 0.18364 0.1694 0.0
C449 C 0.31248 0.18952 0.13438 0.0
C450 C 0.28655 0.15663 0.10188 0.0
C451 C 0.2737 0.15121 0.13671 0.0
N452 N 0.27123 0.15497 0.20476 0.0
N453 N 0.32213 0.17851 0.06951 0.0
C454 C 0.28159 0.16316 0.17094 0.0
C455 C 0.30719 0.17492 0.10128 0.0
N456 N 0.30508 0.19854 0.20063 0.0
N457 N 0.27838 0.14487 0.06929 0.0
H458 H 0.33736 0.19185 0.0684 0.0
H459 H 0.3209 0.16701 0.04534 0.0
H460 H 0.26418 0.13042 0.06913 0.0
H461 H 0.28476 0.15009 0.04225 0.0
H462 H 0.29452 0.19746 0.22581 0.0
H463 H 0.31912 0.21314 0.2008 0.0
H464 H 0.27782 0.16108 0.23112 0.0
H465 H 0.25721 0.1404 0.20664 0.0
C466 C 0.80543 0.28962 0.09595 0.0
C467 C 0.81139 0.27645 0.1303 0.0
C468 C 0.78094 0.30423 0.16519 0.0
C469 C 0.77264 0.31501 0.13013 0.0
N470 N 0.77622 0.31862 0.06206 0.0
N471 N 0.80477 0.26984 0.19744 0.0
C472 C 0.78484 0.30805 0.09546 0.0
C473 C 0.79942 0.28364 0.16504 0.0
N474 N 0.81977 0.28465 0.06403 0.0
N475 N 0.771 0.3136 0.19851 0.0
H476 H 0.81872 0.25512 0.19859 0.0
H477 H 0.79449 0.27185 0.22274 0.0
H478 H 0.7568 0.32807 0.19957 0.0
H479 H 0.77804 0.30849 0.22518 0.0
H480 H 0.81815 0.29516 0.03881 0.0
H481 H 0.83488 0.27111 0.06363 0.0
H482 H 0.78206 0.31223 0.03537 0.0
H483 H 0.76218 0.33327 0.06093 0.0
C484 C 0.65858 0.78712 0.17107 0.0
C485 C 0.64655 0.77851 0.1373 0.0
C486 C 0.67182 0.80981 0.09973 0.0
C487 C 0.68642 0.8156 0.13258 0.0
N488 N 0.69464 0.81015 0.19946 0.0
N489 N 0.64071 0.78125 0.06956 0.0
C490 C 0.67978 0.80471 0.16843 0.0
C491 C 0.65268 0.78997 0.10164 0.0
N492 N 0.64987 0.77821 0.20548 0.0
N493 N 0.67614 0.82358 0.06694 0.0
H494 H 0.62556 0.76781 0.07028 0.0
H495 H 0.64635 0.7864 0.04214 0.0
H496 H 0.69008 0.83823 0.06482 0.0
H497 H 0.66471 0.82209 0.04281 0.0
H498 H 0.65609 0.78546 0.23141 0.0
H499 H 0.63482 0.76478 0.20821 0.0
H500 H 0.69286 0.80059 0.22546 0.0
H501 H 0.7099 0.82344 0.19873 0.0
C502 C 0.18012 0.66982 0.1604 0.0
C503 C 0.18785 0.65822 0.12566 0.0
C504 C 0.15732 0.68569 0.09045 0.0
C505 C 0.14985 0.69758 0.12511 0.0
N506 N 0.1498 0.69806 0.19352 0.0
N507 N 0.18054 0.65052 0.0592 0.0
C508 C 0.15976 0.68855 0.16031 0.0
C509 C 0.17538 0.66475 0.09111 0.0
N510 N 0.19319 0.66394 0.19305 0.0
N511 N 0.14752 0.69486 0.05689 0.0
H512 H 0.19367 0.63502 0.05892 0.0
H513 H 0.17044 0.65252 0.03385 0.0
H514 H 0.13304 0.70905 0.05552 0.0
H515 H 0.15442 0.68933 0.03032 0.0
H516 H 0.19069 0.6739 0.21846 0.0
H517 H 0.20783 0.64991 0.19431 0.0
H518 H 0.15424 0.69046 0.22017 0.0
H519 H 0.13549 0.71243 0.19442 0.0
C520 C 0.29076 0.81286 0.34177 0.0
C521 C 0.27066 0.81189 0.31449 0.0
C522 C 0.29052 0.77339 0.28534 0.0
C523 C 0.30855 0.77238 0.31553 0.0
N524 N 0.32566 0.78984 0.37363 0.0
N525 N 0.25059 0.79161 0.26051 0.0
C526 C 0.3089 0.79198 0.34381 0.0
C527 C 0.27041 0.79234 0.28613 0.0
N528 N 0.29232 0.83361 0.36587 0.0
N529 N 0.29307 0.75655 0.25555 0.0
H530 H 0.23644 0.80611 0.25871 0.0
H531 H 0.24739 0.77612 0.24216 0.0
H532 H 0.30769 0.7425 0.25415 0.0
H533 H 0.28218 0.75777 0.23082 0.0
H534 H 0.3079 0.83689 0.38385 0.0
H535 H 0.27885 0.84878 0.36598 0.0
H536 H 0.32494 0.80165 0.39755 0.0
H537 H 0.3395 0.77507 0.37568 0.0
C538 C 0.17809 0.30713 0.27201 0.0
C539 C 0.18552 0.31982 0.30592 0.0
C540 C 0.1536 0.29483 0.34251 0.0
C541 C 0.14674 0.28153 0.30882 0.0
N542 N 0.14801 0.27802 0.24064 0.0
N543 N 0.17737 0.33042 0.37137 0.0
C544 C 0.15746 0.28882 0.27319 0.0
C545 C 0.17221 0.31518 0.34056 0.0
N546 N 0.19163 0.31173 0.23919 0.0
N547 N 0.14285 0.28736 0.37643 0.0
H548 H 0.19102 0.34541 0.37063 0.0
H549 H 0.16693 0.32971 0.39668 0.0
H550 H 0.12812 0.2735 0.37847 0.0
H551 H 0.14907 0.29402 0.4027 0.0
H552 H 0.18943 0.30094 0.21449 0.0
H553 H 0.20617 0.32578 0.23707 0.0
H554 H 0.1532 0.28418 0.21347 0.0
H555 H 0.13339 0.26401 0.24067 0.0
C556 C 0.67003 0.14974 0.3378 0.0
C557 C 0.68591 0.14669 0.30521 0.0
C558 C 0.66046 0.1795 0.27092 0.0
C559 C 0.64725 0.18527 0.30522 0.0
N560 N 0.63829 0.17628 0.37115 0.0
N561 N 0.69668 0.15757 0.24045 0.0
C562 C 0.65143 0.17022 0.33854 0.0
C563 C 0.68098 0.16098 0.27142 0.0
N564 N 0.6729 0.13303 0.36789 0.0
N565 N 0.65334 0.19184 0.23805 0.0
H566 H 0.71103 0.14323 0.23933 0.0
H567 H 0.69632 0.16948 0.21646 0.0
H568 H 0.63856 0.20574 0.23704 0.0
H569 H 0.66056 0.18704 0.21136 0.0
H570 H 0.66065 0.13266 0.3914 0.0
H571 H 0.68654 0.11798 0.36801 0.0
H572 H 0.64239 0.16818 0.39759 0.0
H573 H 0.62374 0.19042 0.37206 0.0
C574 C 0.78891 0.66716 0.27285 0.0
C575 C 0.78052 0.65518 0.30713 0.0
C576 C 0.81083 0.68162 0.34376 0.0
C577 C 0.81887 0.69397 0.30957 0.0
N578 N 0.82012 0.69535 0.24121 0.0
N579 N 0.78675 0.64635 0.37367 0.0
C580 C 0.80947 0.68557 0.27392 0.0
C581 C 0.79257 0.66096 0.34216 0.0
N582 N 0.77627 0.66199 0.23969 0.0
N583 N 0.82018 0.69018 0.37777 0.0
H584 H 0.77343 0.63109 0.37323 0.0
H585 H 0.79647 0.64782 0.39938 0.0
H586 H 0.8347 0.70422 0.37981 0.0
H587 H 0.81289 0.6843 0.40404 0.0
H588 H 0.77928 0.67229 0.21453 0.0
H589 H 0.7615 0.64821 0.23774 0.0
H590 H 0.81598 0.68825 0.2143 0.0
H591 H 0.83472 0.70938 0.2411 0.0
C592 C 0.67723 0.80917 0.84971 0.0
C593 C 0.68876 0.81537 0.81422 0.0
C594 C 0.6613 0.78334 0.7825 0.0
C595 C 0.65236 0.77478 0.81861 0.0
N596 N 0.65124 0.77884 0.88677 0.0
N597 N 0.69315 0.80833 0.7469 0.0
C598 C 0.66002 0.78764 0.85231 0.0
C599 C 0.68089 0.80274 0.78048 0.0
N600 N 0.6825 0.82424 0.88067 0.0
N601 N 0.65115 0.77279 0.75024 0.0
H602 H 0.70706 0.82296 0.74416 0.0
H603 H 0.69071 0.79763 0.72217 0.0
H604 H 0.63752 0.75781 0.75066 0.0
H605 H 0.65478 0.78003 0.72308 0.0
H606 H 0.67305 0.82241 0.90669 0.0
H607 H 0.695 0.84019 0.87946 0.0
H608 H 0.65835 0.78524 0.91269 0.0
H609 H 0.63747 0.76408 0.88957 0.0
C610 C 0.15358 0.67615 0.84081 0.0
C611 C 0.14685 0.68826 0.80592 0.0
C612 C 0.17883 0.66181 0.7719 0.0
C613 C 0.18583 0.65 0.80689 0.0
N614 N 0.17672 0.64114 0.87278 0.0
N615 N 0.14869 0.68954 0.73755 0.0
C616 C 0.17212 0.65566 0.84081 0.0
C617 C 0.15797 0.67992 0.77115 0.0
N618 N 0.14277 0.68482 0.87396 0.0
N619 N 0.19308 0.65678 0.73992 0.0
H620 H 0.13393 0.70342 0.73609 0.0
H621 H 0.15415 0.68242 0.71108 0.0
H622 H 0.20812 0.64318 0.73926 0.0
H623 H 0.19108 0.66705 0.71454 0.0
H624 H 0.14898 0.67905 0.90079 0.0
H625 H 0.12817 0.69892 0.87473 0.0
H626 H 0.16584 0.64256 0.89763 0.0
H627 H 0.19021 0.62597 0.87347 0.0
C628 C 0.30179 0.18163 0.77647 0.0
C629 C 0.31471 0.18805 0.8106 0.0
C630 C 0.28826 0.15681 0.84633 0.0
C631 C 0.27487 0.15086 0.81239 0.0
N632 N 0.27166 0.15303 0.74424 0.0
N633 N 0.32477 0.17847 0.87583 0.0
C634 C 0.28269 0.1617 0.77706 0.0
C635 C 0.30941 0.17448 0.84488 0.0
N636 N 0.30693 0.19551 0.74403 0.0
N637 N 0.28013 0.1462 0.88003 0.0
H638 H 0.34032 0.19143 0.87544 0.0
H639 H 0.32355 0.16761 0.90081 0.0
H640 H 0.26549 0.13226 0.88176 0.0
H641 H 0.28697 0.15193 0.90644 0.0
H642 H 0.29608 0.19412 0.7193 0.0
H643 H 0.32147 0.20957 0.74232 0.0
H644 H 0.27808 0.15829 0.71723 0.0
H645 H 0.25713 0.13892 0.74387 0.0
C646 C 0.8012 0.28841 0.77698 0.0
C647 C 0.81163 0.27985 0.81209 0.0
C648 C 0.78525 0.31188 0.8463 0.0
C649 C 0.77245 0.31796 0.81185 0.0
N650 N 0.76698 0.31208 0.74452 0.0
N651 N 0.81438 0.28281 0.88021 0.0
C652 C 0.78034 0.30655 0.77706 0.0
C653 C 0.80404 0.29159 0.84679 0.0
N654 N 0.81115 0.27902 0.74368 0.0
N655 N 0.77956 0.3258 0.8783 0.0
H656 H 0.82928 0.26904 0.88135 0.0
H657 H 0.8076 0.28823 0.90689 0.0
H658 H 0.76575 0.34068 0.87869 0.0
H659 H 0.78971 0.32413 0.90364 0.0
H660 H 0.80628 0.28631 0.71703 0.0
H661 H 0.82585 0.26505 0.74266 0.0
H662 H 0.76957 0.30215 0.71911 0.0
H663 H 0.75208 0.32582 0.74335 0.0
C664 C 0.65995 0.18331 0.59327 0.0
C665 C 0.65262 0.1954 0.62783 0.0
C666 C 0.68425 0.16914 0.66289 0.0
C667 C 0.69164 0.15715 0.62829 0.0
N668 N 0.68384 0.1485 0.56222 0.0
N669 N 0.65393 0.19725 0.69618 0.0
C670 C 0.6786 0.1629 0.59394 0.0
C671 C 0.66345 0.18735 0.66293 0.0
N672 N 0.6495 0.19184 0.55979 0.0
N673 N 0.69795 0.16404 0.69525 0.0
H674 H 0.63934 0.21134 0.69718 0.0
H675 H 0.65908 0.1903 0.72292 0.0
H676 H 0.71278 0.15021 0.69653 0.0
H677 H 0.69575 0.17441 0.72038 0.0
H678 H 0.65608 0.18607 0.53316 0.0
H679 H 0.63481 0.20582 0.5585 0.0
H680 H 0.67339 0.14989 0.53711 0.0
H681 H 0.69756 0.13353 0.5619 0.0
C682 C 0.783 0.65996 0.59355 0.0
C683 C 0.7683 0.65422 0.6266 0.0
C684 C 0.79413 0.68493 0.66356 0.0
C685 C 0.80667 0.69291 0.62954 0.0
N686 N 0.81314 0.68925 0.56194 0.0
N687 N 0.75838 0.66139 0.69265 0.0
C688 C 0.80127 0.68063 0.59446 0.0
C689 C 0.77365 0.66652 0.66166 0.0
N690 N 0.77969 0.64532 0.56158 0.0
N691 N 0.80182 0.69504 0.69755 0.0
H692 H 0.7437 0.64743 0.69256 0.0
H693 H 0.75915 0.67186 0.71784 0.0
H694 H 0.81622 0.70919 0.6998 0.0
H695 H 0.79534 0.68821 0.72379 0.0
H696 H 0.79144 0.64673 0.53758 0.0
H697 H 0.7663 0.63015 0.56004 0.0
H698 H 0.80796 0.6833 0.53482 0.0
H699 H 0.82749 0.70354 0.56186 0.0
C700 C 0.29613 0.81415 0.61048 0.0
C701 C 0.28133 0.81855 0.6438 0.0
C702 C 0.30853 0.78792 0.67936 0.0
C703 C 0.32053 0.78059 0.64476 0.0
N704 N 0.32691 0.78639 0.57746 0.0
N705 N 0.27272 0.81034 0.71007 0.0
C706 C 0.31492 0.79388 0.61036 0.0
C707 C 0.28762 0.80599 0.67853 0.0
N708 N 0.29217 0.8295 0.57916 0.0
N709 N 0.31705 0.77737 0.7128 0.0
H710 H 0.25776 0.82405 0.71066 0.0
H711 H 0.27422 0.7996 0.73511 0.0
H712 H 0.33206 0.76375 0.71408 0.0
H713 H 0.31077 0.78349 0.73942 0.0
H714 H 0.30368 0.82892 0.55486 0.0
H715 H 0.27847 0.84449 0.57865 0.0
H716 H 0.32163 0.79305 0.55063 0.0
H717 H 0.34168 0.77247 0.57682 0.0
C718 C 0.15683 0.2918 0.59586 0.0
C719 C 0.15008 0.2798 0.63083 0.0
C720 C 0.18055 0.30783 0.66461 0.0
C721 C 0.18979 0.31717 0.62908 0.0
N722 N 0.18732 0.31876 0.56078 0.0
N723 N 0.15533 0.27518 0.69849 0.0
C724 C 0.17791 0.30954 0.59464 0.0
C725 C 0.16157 0.28778 0.66536 0.0
N726 N 0.14279 0.28637 0.56403 0.0
N727 N 0.19017 0.31795 0.6975 0.0
H728 H 0.14102 0.26089 0.70023 0.0
H729 H 0.16519 0.27774 0.72389 0.0
H730 H 0.20476 0.33198 0.69796 0.0
H731 H 0.18252 0.31395 0.72427 0.0
H732 H 0.14502 0.29612 0.53825 0.0
H733 H 0.12728 0.27335 0.5642 0.0
H734 H 0.18172 0.31172 0.53442 0.0
H735 H 0.20178 0.3329 0.55899 0.0
C736 C 0.18304 0.06588 -0.00284 0.0
C737 C 0.20542 0.07386 0.01703 0.0
C738 C 0.22909 0.07998 0.95743 0.0
C739 C 0.20569 0.07539 0.93773 0.0
N740 N 0.16322 0.05656 0.93615 0.0
N741 N 0.25149 0.08083 0.018 0.0
C742 C 0.1836 0.0656 0.95686 0.0
C743 C 0.22919 0.07799 -0.0023 0.0
N744 N 0.16106 0.05987 0.01708 0.0
N745 N 0.25056 0.08795 0.93774 0.0
H746 H 0.2519 0.07974 0.04755 0.0
H747 H 0.26983 0.08221 0.00583 0.0
H748 H 0.25124 0.08844 0.90814 0.0
H749 H 0.26742 0.09473 0.95034 0.0
H750 H 0.14313 0.05646 0.00472 0.0
H751 H 0.16082 0.0587 0.04669 0.0
H752 H 0.14689 0.04777 0.94791 0.0
H753 H 0.16367 0.05611 0.90652 0.0
C754 C 0.90275 0.19055 0.95077 0.0
C755 C 0.8936 0.21302 0.93146 0.0
C756 C 0.88829 0.23615 -0.00852 0.0
C757 C 0.89402 0.21252 0.01081 0.0
N758 N 0.91419 0.17037 0.01116 0.0
N759 N 0.88533 0.25924 0.93117 0.0
C760 C 0.90403 0.19078 -0.00897 0.0
C761 C 0.8893 0.23666 0.95114 0.0
N762 N 0.90893 0.16875 0.93045 0.0
N763 N 0.88003 0.25733 0.01164 0.0
H764 H 0.88557 0.25995 0.90159 0.0
H765 H 0.88387 0.27756 0.94355 0.0
H766 H 0.88019 0.25779 0.04122 0.0
H767 H 0.87237 0.27415 -0.00059 0.0
H768 H 0.91322 0.15072 0.94254 0.0
H769 H 0.90933 0.16877 0.9008 0.0
H770 H 0.92316 0.15429 -0.0011 0.0
H771 H 0.91535 0.17065 0.04075 0.0
C772 C 0.77046 0.912 0.94731 0.0
C773 C 0.74926 0.90162 0.92709 0.0
C774 C 0.72561 0.8936 -0.01384 0.0
C775 C 0.74846 0.89984 0.00615 0.0
N776 N 0.789 0.92239 0.00888 0.0
N777 N 0.70398 0.8907 0.92512 0.0
C778 C 0.7696 0.91193 -0.0124 0.0
C779 C 0.72571 0.89556 0.9459 0.0
N780 N 0.79175 0.92046 0.92768 0.0
N781 N 0.70471 0.88407 0.00567 0.0
H782 H 0.7038 0.89196 0.89558 0.0
H783 H 0.68576 0.88739 0.93687 0.0
H784 H 0.70409 0.88356 0.03529 0.0
H785 H 0.68831 0.87633 -0.00702 0.0
H786 H 0.809 0.92618 0.94025 0.0
H787 H 0.79199 0.92157 0.89807 0.0
H788 H 0.80475 0.93247 -0.00234 0.0
H789 H 0.78819 0.92244 0.03851 0.0
C790 C 0.07252 0.73367 0.94585 0.0
C791 C 0.06621 0.7563 0.92451 0.0
C792 C 0.05673 0.78047 -0.01757 0.0
C793 C 0.06648 0.75911 0.00364 0.0
N794 N 0.07595 0.71324 0.00809 0.0
N795 N 0.04497 0.79784 0.92037 0.0
C796 C 0.07143 0.7348 -0.01388 0.0
C797 C 0.05556 0.77855 0.94228 0.0
N798 N 0.08134 0.71192 0.92757 0.0
N799 N 0.04991 0.80287 0.00084 0.0
H800 H 0.04392 0.79633 0.89086 0.0
H801 H 0.03558 0.81418 0.93118 0.0
H802 H 0.0495 0.80402 0.03043 0.0
H803 H 0.04509 0.82025 -0.01277 0.0
H804 H 0.0893 0.69577 0.94124 0.0
H805 H 0.08132 0.7103 0.89806 0.0
H806 H 0.07804 0.69448 -0.00261 0.0
H807 H 0.07556 0.71379 0.03767 0.0
C808 C 0.19425 0.9107 0.4599 0.0
C809 C 0.21486 0.89913 0.43948 0.0
C810 C 0.23916 0.8928 0.49815 0.0
C811 C 0.21616 0.89829 0.51853 0.0
N812 N 0.17352 0.9169 0.52137 0.0
N813 N 0.25864 0.88313 0.43683 0.0
C814 C 0.19441 0.90933 0.50016 0.0
C815 C 0.23824 0.89214 0.45786 0.0
N816 N 0.17441 0.92214 0.4404 0.0
N817 N 0.26134 0.88732 0.51763 0.0
H818 H 0.25859 0.88351 0.40722 0.0
H819 H 0.27534 0.87499 0.44833 0.0
H820 H 0.26203 0.88784 0.54723 0.0
H821 H 0.2793 0.8843 0.50488 0.0
H822 H 0.15911 0.93206 0.45312 0.0
H823 H 0.17446 0.92326 0.41077 0.0
H824 H 0.15589 0.92282 0.51003 0.0
H825 H 0.17396 0.91691 0.55101 0.0
C826 C 0.07325 0.23822 0.49334 0.0
C827 C 0.06785 0.21473 0.51328 0.0
C828 C 0.05884 0.19222 0.45388 0.0
C829 C 0.0675 0.21462 0.43391 0.0
N830 N 0.07515 0.26087 0.43254 0.0
N831 N 0.04803 0.17247 0.5149 0.0
C832 C 0.07174 0.23843 0.45305 0.0
C833 C 0.05788 0.19277 0.49417 0.0
N834 N 0.08166 0.25958 0.51277 0.0
N835 N 0.05287 0.17018 0.43413 0.0
H836 H 0.04708 0.17294 0.54452 0.0
H837 H 0.03903 0.1563 0.50313 0.0
H838 H 0.05224 0.16995 0.4045 0.0
H839 H 0.04903 0.15218 0.44669 0.0
H840 H 0.08908 0.27629 0.4999 0.0
H841 H 0.08195 0.2603 0.54234 0.0
H842 H 0.07653 0.2793 0.44456 0.0
H843 H 0.07446 0.26129 0.40296 0.0
C844 C 0.73307 0.07772 0.49153 0.0
C845 C 0.75673 0.07329 0.51087 0.0
C846 C 0.77879 0.06354 0.45114 0.0
C847 C 0.75609 0.07119 0.43161 0.0
N848 N 0.70992 0.07738 0.43156 0.0
N849 N 0.79926 0.05437 0.51187 0.0
C850 C 0.73251 0.07518 0.45139 0.0
C851 C 0.77864 0.06339 0.49145 0.0
N852 N 0.71183 0.08624 0.51122 0.0
N853 N 0.80067 0.05776 0.43089 0.0
H854 H 0.79913 0.05402 0.54152 0.0
H855 H 0.81542 0.04542 0.49989 0.0
H856 H 0.80064 0.05652 0.40131 0.0
H857 H 0.81878 0.05473 0.44298 0.0
H858 H 0.69495 0.09302 0.4985 0.0
H859 H 0.71138 0.08738 0.54076 0.0
H860 H 0.69171 0.07848 0.44421 0.0
H861 H 0.70924 0.07584 0.40207 0.0
C862 C 0.88755 0.73342 0.49532 0.0
C863 C 0.89325 0.75645 0.51573 0.0
C864 C 0.90565 0.77901 0.45728 0.0
C865 C 0.89664 0.75727 0.43662 0.0
N866 N 0.88695 0.71148 0.43427 0.0
N867 N 0.91494 0.79771 0.51909 0.0
C868 C 0.89061 0.73351 0.45522 0.0
C869 C 0.905 0.77807 0.49755 0.0
N870 N 0.87744 0.71231 0.51401 0.0
N871 N 0.91342 0.80088 0.43808 0.0
H872 H 0.91468 0.79695 0.54873 0.0
H873 H 0.92512 0.81353 0.50808 0.0
H874 H 0.91515 0.8013 0.40853 0.0
H875 H 0.91771 0.81855 0.45097 0.0
H876 H 0.86986 0.69603 0.50053 0.0
H877 H 0.87588 0.7114 0.54351 0.0
H878 H 0.88416 0.69302 0.44597 0.0
H879 H 0.88887 0.71135 0.40478 0.0
C880 C 0.69207 0.55766 0.48146 0.0
C881 C 0.71257 0.56815 0.50307 0.0
C882 C 0.73806 0.57609 0.44562 0.0
C883 C 0.7159 0.56969 0.42409 0.0
N884 N 0.67559 0.54696 0.41876 0.0
N885 N 0.7576 0.5795 0.50813 0.0
C886 C 0.69422 0.55761 0.44127 0.0
C887 C 0.73665 0.57434 0.48586 0.0
N888 N 0.6702 0.54919 0.49963 0.0
N889 N 0.75957 0.58553 0.4275 0.0
H890 H 0.75679 0.57842 0.53767 0.0
H891 H 0.77616 0.58295 0.49769 0.0
H892 H 0.76121 0.58583 0.39796 0.0
H893 H 0.77553 0.59335 0.44124 0.0
H894 H 0.65337 0.54345 0.48592 0.0
H895 H 0.669 0.54812 0.52921 0.0
H896 H 0.65956 0.53683 0.42896 0.0
H897 H 0.67735 0.54678 0.38921 0.0
C898 C 0.40355 0.68893 0.46085 0.0
C899 C 0.39286 0.71067 0.44159 0.0
C900 C 0.39057 0.735 0.50101 0.0
C901 C 0.39558 0.71142 0.52076 0.0
N902 N 0.41053 0.66703 0.52134 0.0
N903 N 0.37885 0.75547 0.4411 0.0
C904 C 0.40381 0.68882 0.50114 0.0
C905 C 0.38788 0.73435 0.46089 0.0
N906 N 0.41292 0.66842 0.44029 0.0
N907 N 0.38759 0.75765 0.52085 0.0
H908 H 0.3777 0.75576 0.41155 0.0
H909 H 0.37182 0.77239 0.45368 0.0
H910 H 0.38927 0.75841 0.55032 0.0
H911 H 0.38557 0.77593 0.50825 0.0
H912 H 0.42238 0.65242 0.4521 0.0
H913 H 0.41296 0.66853 0.41064 0.0
H914 H 0.41412 0.6489 0.50927 0.0
H915 H 0.41205 0.66714 0.5509 0.0
C916 C 0.27905 0.40331 0.44516 0.0
C917 C 0.25623 0.39568 0.42609 0.0
C918 C 0.23371 0.38904 0.4865 0.0
C919 C 0.25748 0.39352 0.50536 0.0
N920 N 0.30002 0.41228 0.50542 0.0
N921 N 0.21008 0.38922 0.42695 0.0
C922 C 0.27924 0.40336 0.48546 0.0
C923 C 0.23283 0.39154 0.44633 0.0
N924 N 0.30073 0.40922 0.42446 0.0
N925 N 0.21266 0.38062 0.50677 0.0
H926 H 0.20909 0.39073 0.39747 0.0
H927 H 0.19199 0.388 0.43994 0.0
H928 H 0.21249 0.37959 0.53634 0.0
H929 H 0.19568 0.37382 0.49454 0.0
H930 H 0.31892 0.41227 0.43617 0.0
H931 H 0.30044 0.41059 0.39487 0.0
H932 H 0.31609 0.42119 0.49308 0.0
H933 H 0.30015 0.41257 0.53506 0.0
C934 C 0.55968 0.27875 0.48784 0.0
C935 C 0.56993 0.25742 0.50852 0.0
C936 C 0.57427 0.23224 0.45002 0.0
C937 C 0.56973 0.25547 0.42922 0.0
N938 N 0.55467 0.29978 0.42628 0.0
N939 N 0.58485 0.21286 0.51104 0.0
C940 C 0.56078 0.27829 0.44756 0.0
C941 C 0.57585 0.23353 0.49023 0.0
N942 N 0.54941 0.29943 0.50706 0.0
N943 N 0.57787 0.20931 0.4311 0.0
H944 H 0.58541 0.2129 0.54062 0.0
H945 H 0.59263 0.19601 0.4992 0.0
H946 H 0.57705 0.20814 0.40157 0.0
H947 H 0.57944 0.19122 0.44443 0.0
H948 H 0.54015 0.31513 0.49408 0.0
H949 H 0.54838 0.29973 0.53668 0.0
H950 H 0.55067 0.31806 0.43758 0.0
H951 H 0.55416 0.29927 0.39665 0.0
C952 C 0.68332 0.40723 0.95142 0.0
C953 C 0.70534 0.39795 0.93166 0.0
C954 C 0.72904 0.39353 -0.00867 0.0
C955 C 0.70531 0.39704 0.011 0.0
N956 N 0.6609 0.41109 0.01199 0.0
N957 N 0.75021 0.38511 0.93089 0.0
C958 C 0.68285 0.40567 -0.00832 0.0
C959 C 0.72882 0.39273 0.951 0.0
N960 N 0.66289 0.41698 0.93129 0.0
N961 N 0.75144 0.39011 0.01129 0.0
H962 H 0.75089 0.38544 0.9013 0.0
H963 H 0.76702 0.37776 0.94315 0.0
H964 H 0.75198 0.39016 0.04086 0.0
H965 H 0.76975 0.38933 -0.00112 0.0
H966 H 0.64658 0.42546 0.94355 0.0
H967 H 0.66332 0.41837 0.9017 0.0
H968 H 0.64294 0.4149 -0.00012 0.0
H969 H 0.66071 0.41134 0.04163 0.0
C970 C 0.55694 0.69045 0.00238 0.0
C971 C 0.56638 0.71243 0.02208 0.0
C972 C 0.57483 0.73534 0.96238 0.0
C973 C 0.56886 0.71202 0.94294 0.0
N974 N 0.54701 0.67081 0.94139 0.0
N975 N 0.57618 0.75826 0.0226 0.0
C976 C 0.55717 0.69076 0.96207 0.0
C977 C 0.57223 0.7359 0.00253 0.0
N978 N 0.54918 0.66898 0.0225 0.0
N979 N 0.58475 0.7561 0.94266 0.0
H980 H 0.57452 0.75891 0.0521 0.0
H981 H 0.57896 0.7765 0.01019 0.0
H982 H 0.58596 0.75642 0.91308 0.0
H983 H 0.59247 0.77262 0.95531 0.0
H984 H 0.54447 0.65117 0.01034 0.0
H985 H 0.54782 0.66907 0.0521 0.0
H986 H 0.53696 0.65514 0.95311 0.0
H987 H 0.54702 0.67111 0.91173 0.0
C988 C 0.22337 0.57574 -0.01196 0.0
C989 C 0.24612 0.56869 0.00794 0.0
C990 C 0.26757 0.55606 0.94904 0.0
C991 C 0.24666 0.56733 0.92897 0.0
N992 N 0.20179 0.57949 0.92692 0.0
N993 N 0.28585 0.54453 0.01052 0.0
C994 C 0.22334 0.57394 0.94781 0.0
C995 C 0.26679 0.55588 -0.01068 0.0
N996 N 0.20279 0.58592 0.0075 0.0
N997 N 0.2886 0.54717 0.92931 0.0
H998 H 0.28509 0.54434 0.04016 0.0
H999 H 0.30118 0.53387 -0.00079 0.0
H1000 H 0.28876 0.54639 0.89968 0.0
H1001 H 0.30572 0.54083 0.94182 0.0
H1002 H 0.18658 0.59415 -0.00529 0.0
H1003 H 0.20222 0.58646 0.0371 0.0
H1004 H 0.18365 0.58337 0.93857 0.0
H1005 H 0.20175 0.57818 0.89736 0.0
C1006 C 0.40489 0.27615 0.94975 0.0
C1007 C 0.39534 0.254 0.93067 0.0
C1008 C 0.39043 0.23078 -0.00888 0.0
C1009 C 0.3942 0.25479 0.00998 0.0
N1010 N 0.40896 0.29918 0.00961 0.0
N1011 N 0.38216 0.209 0.93129 0.0
C1012 C 0.40326 0.27701 -0.01002 0.0
C1013 C 0.38981 0.23062 0.95077 0.0
N1014 N 0.41493 0.29635 0.92899 0.0
N1015 N 0.38661 0.20854 0.01192 0.0
H1016 H 0.38264 0.20809 0.90173 0.0
H1017 H 0.37477 0.19223 0.94402 0.0
H1018 H 0.38671 0.2084 0.04152 0.0
H1019 H 0.38538 0.18999 0.00024 0.0
H1020 H 0.42357 0.31272 0.94075 0.0
H1021 H 0.41636 0.29561 0.89942 0.0
H1022 H 0.41316 0.31706 -0.00305 0.0
H1023 H 0.40907 0.29961 0.03925 0.0
C1024 C 0.23134 0.00517 0.24682 0.0
C1025 C 0.22971 0.00622 0.20659 0.0
C1026 C 0.22725 0.95857 0.20405 0.0
C1027 C 0.23002 0.95752 0.2441 0.0
N1028 N 0.24155 0.97905 0.30228 0.0
N1029 N 0.23282 0.9841 0.14651 0.0
C1030 C 0.23429 0.98062 0.26505 0.0
C1031 C 0.2298 0.98293 0.18506 0.0
N1032 N 0.22844 0.02734 0.26785 0.0
N1033 N 0.22066 0.93668 0.18432 0.0
H1034 H 0.23522 0.00164 0.13178 0.0
H1035 H 0.23558 0.96766 0.12971 0.0
H1036 H 0.21826 0.91844 0.19704 0.0
H1037 H 0.21544 0.93702 0.15579 0.0
H1038 H 0.2265 0.02717 0.2973 0.0
H1039 H 0.22558 0.04576 0.25593 0.0
H1040 H 0.24741 -0.00485 0.31795 0.0
H1041 H 0.24427 0.9613 0.31635 0.0
C1042 C 0.9561 0.23581 0.24376 0.0
C1043 C 0.95561 0.23662 0.20347 0.0
C1044 C 0.00298 0.23695 0.20126 0.0
C1045 C 0.00346 0.2371 0.24158 0.0
N1046 N 0.9809 0.24346 0.30086 0.0
N1047 N 0.97788 0.24474 0.14434 0.0
C1048 C 0.98011 0.23871 0.26273 0.0
C1049 C 0.97887 0.23938 0.18237 0.0
N1050 N 0.93397 0.23072 0.26392 0.0
N1051 N 0.02525 0.23286 0.18098 0.0
H1052 H 0.96046 0.24698 0.12974 0.0
H1053 H -0.00587 0.24955 0.12816 0.0
H1054 H 0.04335 0.23051 0.1935 0.0
H1055 H 0.0255 0.22955 0.15183 0.0
H1056 H 0.93382 0.22689 0.29299 0.0
H1057 H 0.91594 0.22814 0.25131 0.0
H1058 H 0.96448 0.24742 0.31713 0.0
H1059 H -0.00178 0.24606 0.31552 0.0
C1060 C 0.73667 0.97934 0.26256 0.0
C1061 C 0.73611 0.003 0.24153 0.0
C1062 C 0.7324 0.97839 0.18245 0.0
C1063 C 0.73687 0.95498 0.20296 0.0
N1064 N 0.74677 0.93323 0.2622 0.0
N1065 N 0.73758 0.0252 0.18076 0.0
C1066 C 0.73974 0.95538 0.24301 0.0
C1067 C 0.73486 0.00264 0.20126 0.0
N1068 N 0.73367 0.97975 0.30113 0.0
N1069 N 0.72525 0.97745 0.14515 0.0
H1070 H 0.74017 0.04342 0.19314 0.0
H1071 H 0.73974 0.02556 0.15134 0.0
H1072 H 0.72282 0.95997 0.13057 0.0
H1073 H 0.71918 -0.00621 0.12986 0.0
H1074 H 0.73134 0.96296 0.31756 0.0
H1075 H 0.73092 -0.00304 0.31631 0.0
H1076 H 0.75199 0.93311 0.29073 0.0
H1077 H 0.7496 0.9153 0.24898 0.0
C1078 C -0.01496 0.73806 0.18093 0.0
C1079 C 0.00861 0.74099 0.20089 0.0
C1080 C -0.01496 0.73859 0.26126 0.0
C1081 C 0.96133 0.74 0.2412 0.0
N1082 N 0.93871 0.74482 0.18154 0.0
N1083 N 0.03101 0.74749 0.26023 0.0
C1084 C 0.96123 0.74046 0.20088 0.0
C1085 C 0.0087 0.74191 0.24117 0.0
N1086 N -0.01458 0.73252 0.14301 0.0
N1087 N -0.01506 0.7336 0.29942 0.0
H1088 H 0.04875 0.75059 0.24675 0.0
H1089 H 0.03148 0.75133 0.28923 0.0
H1090 H 0.96792 0.73058 0.3149 0.0
H1091 H 0.0017 0.72982 0.31487 0.0
H1092 H 0.96888 0.72762 0.12779 0.0
H1093 H 0.00258 0.73018 0.12763 0.0
H1094 H 0.93812 0.74828 0.15238 0.0
H1095 H 0.92082 0.7474 0.19482 0.0
C1096 C 0.72364 -0.0148 0.75834 0.0
C1097 C 0.7261 0.96226 0.73635 0.0
C1098 C 0.72572 -0.01148 0.67815 0.0
C1099 C 0.72796 0.01135 0.70037 0.0
N1100 N 0.73141 0.03161 0.76198 0.0
N1101 N 0.73176 0.94179 0.67519 0.0
C1102 C 0.72717 0.00985 0.74061 0.0
C1103 C 0.72735 0.96374 0.69613 0.0
N1104 N 0.71766 0.98334 0.7961 0.0
N1105 N 0.72168 -0.00943 0.63992 0.0
H1106 H 0.73326 0.9232 0.68707 0.0
H1107 H 0.73595 0.94222 0.64624 0.0
H1108 H 0.72004 0.00852 0.62599 0.0
H1109 H 0.71737 0.97469 0.62277 0.0
H1110 H 0.71315 -0.00058 0.81286 0.0
H1111 H 0.71463 0.96549 0.80977 0.0
H1112 H 0.73408 0.03102 0.79126 0.0
H1113 H 0.73439 0.05008 0.7503 0.0
C1114 C 0.95394 0.72636 0.74433 0.0
C1115 C 0.95217 0.72572 0.70415 0.0
C1116 C -0.00063 0.72503 0.69844 0.0
C1117 C 0.00116 0.72546 0.73864 0.0
N1118 N 0.98083 0.7192 0.79968 0.0
N1119 N 0.9723 0.71699 0.64372 0.0
C1120 C 0.9786 0.72369 0.76154 0.0
C1121 C 0.97466 0.72256 0.68146 0.0
N1122 N 0.93243 0.73119 0.76597 0.0
N1123 N 0.02095 0.7287 0.67642 0.0
H1124 H 0.95435 0.71476 0.63062 0.0
H1125 H -0.01206 0.712 0.62643 0.0
H1126 H 0.03949 0.73088 0.6875 0.0
H1127 H 0.02023 0.73168 0.64717 0.0
H1128 H 0.93317 0.73499 0.79496 0.0
H1129 H 0.91394 0.73337 0.75465 0.0
H1130 H 0.96507 0.71523 0.81732 0.0
H1131 H -0.0013 0.71684 0.81298 0.0
C1132 C 0.19802 0.97013 0.72297 0.0
C1133 C 0.22209 0.95889 0.71236 0.0
C1134 C 0.2448 -0.00529 0.74355 0.0
C1135 C 0.22075 0.0076 0.74926 0.0
N1136 N 0.17498 0.01017 0.735 0.0
N1137 N 0.26855 0.96304 0.70638 0.0
C1138 C 0.19746 -0.00393 0.73635 0.0
C1139 C 0.2456 0.97183 0.72098 0.0
N1140 N 0.17575 0.95578 0.7218 0.0
N1141 N 0.2667 0.00366 0.76077 0.0
H1142 H 0.26992 0.94684 0.68872 0.0
H1143 H 0.28584 0.97334 0.7087 0.0
H1144 H 0.26678 0.01984 0.77856 0.0
H1145 H 0.28417 -0.00654 0.76051 0.0
H1146 H 0.15817 0.96252 0.73269 0.0
H1147 H 0.17537 0.93616 0.71419 0.0
H1148 H 0.15816 0.00319 0.72238 0.0
H1149 H 0.17384 0.02982 0.74231 0.0
C1150 C 0.97956 0.24404 0.76265 0.0
C1151 C 0.9566 0.24188 0.74105 0.0
C1152 C -0.01802 0.2447 0.68233 0.0
C1153 C 0.00495 0.24222 0.70389 0.0
N1154 N 0.02587 0.23711 0.76477 0.0
N1155 N 0.93572 0.2377 0.68007 0.0
C1156 C 0.00392 0.24163 0.74417 0.0
C1157 C 0.95764 0.24194 0.70076 0.0
N1158 N 0.97803 0.24873 0.80077 0.0
N1159 N -0.01651 0.24999 0.64431 0.0
H1160 H 0.91745 0.23529 0.69226 0.0
H1161 H 0.93592 0.23447 0.6509 0.0
H1162 H 0.00112 0.25242 0.6301 0.0
H1163 H 0.96743 0.25454 0.62775 0.0
H1164 H -0.00592 0.25304 0.8174 0.0
H1165 H 0.96041 0.25092 0.81503 0.0
H1166 H 0.0257 0.23338 0.79387 0.0
H1167 H 0.04416 0.23498 0.75253 0.0
C1168 C 0.72708 0.51036 0.74033 0.0
C1169 C 0.72936 0.51057 0.70016 0.0
C1170 C 0.73139 0.46292 0.69945 0.0
C1171 C 0.73005 0.46272 0.73973 0.0
N1172 N 0.73341 0.48603 0.79874 0.0
N1173 N 0.74058 0.48802 0.64252 0.0
C1174 C 0.73008 0.48642 0.76026 0.0
C1175 C 0.73377 0.48712 0.68006 0.0
N1176 N 0.7205 0.53262 0.75933 0.0
N1177 N 0.7287 0.44028 0.6795 0.0
H1178 H 0.74282 0.50551 0.6276 0.0
H1179 H 0.74654 0.47168 0.62732 0.0
H1180 H 0.72634 0.42208 0.6923 0.0
H1181 H 0.72651 0.4398 0.65013 0.0
H1182 H 0.71562 0.53286 0.78805 0.0
H1183 H 0.7178 0.55058 0.74592 0.0
H1184 H 0.73612 0.50281 0.81478 0.0
H1185 H 0.73609 0.46878 0.8141 0.0
C1186 C 0.48943 0.73688 0.76817 0.0
C1187 C 0.51245 0.73206 0.74735 0.0
C1188 C 0.48805 0.73363 0.688 0.0
C1189 C 0.46469 0.73411 0.70926 0.0
N1190 N 0.44287 0.73262 0.77022 0.0
N1191 N 0.5337 0.72291 0.68759 0.0
C1192 C 0.46523 0.7351 0.74955 0.0
C1193 C 0.51189 0.72993 0.70721 0.0
N1194 N 0.49074 0.74356 0.80564 0.0
N1195 N 0.48745 0.73715 0.64951 0.0
H1196 H 0.55156 0.71971 0.70051 0.0
H1197 H 0.53363 0.71814 0.65888 0.0
H1198 H 0.47027 0.74033 0.63466 0.0
H1199 H 0.50404 0.73952 0.63293 0.0
H1200 H 0.47475 0.74985 0.82127 0.0
H1201 H 0.50825 0.7454 0.82006 0.0
H1202 H 0.44262 0.73019 0.7996 0.0
H1203 H 0.42465 0.73059 0.75802 0.0
C1204 C 0.26598 0.47209 0.7075 0.0
C1205 C 0.24265 0.46063 0.69461 0.0
C1206 C 0.21785 0.49598 0.72412 0.0
C1207 C 0.24139 0.50883 0.7329 0.0
N1208 N 0.28763 0.51228 0.72274 0.0
N1209 N 0.19663 0.46457 0.68374 0.0
C1210 C 0.26541 0.49785 0.72156 0.0
C1211 C 0.21859 0.47338 0.70092 0.0
N1212 N 0.28853 0.45806 0.70825 0.0
N1213 N 0.19495 0.50458 0.73913 0.0
H1214 H 0.19652 0.44859 0.66556 0.0
H1215 H 0.17912 0.47469 0.68446 0.0
H1216 H 0.19363 0.52059 0.75713 0.0
H1217 H 0.17766 0.49429 0.73668 0.0
H1218 H 0.30539 0.46498 0.72083 0.0
H1219 H 0.2897 0.43849 0.70053 0.0
H1220 H 0.30515 0.50577 0.71138 0.0
H1221 H 0.28797 0.53181 0.73086 0.0
C1222 C 0.48256 0.22731 0.75998 0.0
C1223 C 0.45931 0.22914 0.73896 0.0
C1224 C 0.48412 0.228 0.67961 0.0
C1225 C 0.50725 0.23068 0.70068 0.0
N1226 N 0.52863 0.23561 0.76117 0.0
N1227 N 0.43767 0.23396 0.67855 0.0
C1228 C 0.50662 0.23071 0.74099 0.0
C1229 C 0.45992 0.22985 0.69865 0.0
N1230 N 0.48161 0.22201 0.79804 0.0
N1231 N 0.48534 0.22332 0.64147 0.0
H1232 H 0.41948 0.23577 0.69119 0.0
H1233 H 0.43748 0.23774 0.64947 0.0
H1234 H 0.50284 0.22154 0.62678 0.0
H1235 H 0.46921 0.21863 0.62524 0.0
H1236 H 0.49797 0.21791 0.81421 0.0
H1237 H 0.46422 0.21911 0.81267 0.0
H1238 H 0.52864 0.2389 0.79032 0.0
H1239 H 0.54669 0.23856 0.74855 0.0
C1240 C 0.23253 0.51314 0.24284 0.0
C1241 C 0.22942 0.51461 0.20288 0.0
C1242 C 0.22726 0.46704 0.19915 0.0
C1243 C 0.22941 0.46555 0.23929 0.0
N1244 N 0.22735 0.48704 0.29994 0.0
N1245 N 0.21682 0.49392 0.14456 0.0
C1246 C 0.22989 0.4886 0.26135 0.0
C1247 C 0.22449 0.49182 0.18155 0.0
N1248 N 0.23947 0.53477 0.26288 0.0
N1249 N 0.22954 0.44507 0.17754 0.0
H1250 H 0.21424 0.51187 0.13096 0.0
H1251 H 0.21047 0.4781 0.12869 0.0
H1252 H 0.23225 0.42648 0.18895 0.0
H1253 H 0.2311 0.44553 0.14805 0.0
H1254 H 0.24495 0.53413 0.29129 0.0
H1255 H 0.24179 0.55313 0.25048 0.0
H1256 H 0.22504 0.50332 0.31722 0.0
H1257 H 0.22492 0.46936 0.31432 0.0
C1258 C 0.50308 0.23351 0.19888 0.0
C1259 C 0.50407 0.23299 0.23916 0.0
C1260 C 0.45673 0.23452 0.24261 0.0
C1261 C 0.45573 0.23387 0.20234 0.0
N1262 N 0.47733 0.22608 0.14265 0.0
N1263 N 0.48223 0.22647 0.29907 0.0
C1264 C 0.47875 0.23125 0.18063 0.0
C1265 C 0.48098 0.23143 0.26095 0.0
N1266 N 0.52508 0.23774 0.17802 0.0
N1267 N 0.43485 0.2396 0.26331 0.0
H1268 H 0.49972 0.22372 0.3133 0.0
H1269 H 0.466 0.22252 0.31579 0.0
H1270 H 0.41669 0.24238 0.25113 0.0
H1271 H 0.43505 0.24328 0.29236 0.0
H1272 H 0.52495 0.24131 0.14888 0.0
H1273 H 0.54333 0.23998 0.19007 0.0
H1274 H 0.49342 0.22136 0.12611 0.0
H1275 H 0.45977 0.2239 0.12847 0.0
C1276 C 0.73487 0.50871 0.19297 0.0
C1277 C 0.73707 0.51028 0.23305 0.0
C1278 C 0.73606 0.46269 0.23827 0.0
C1279 C 0.73458 0.46108 0.19811 0.0
N1280 N 0.73955 0.48183 0.13696 0.0
N1281 N 0.74679 0.48925 0.29265 0.0
C1282 C 0.73624 0.48391 0.17536 0.0
C1283 C 0.73996 0.48737 0.25531 0.0
N1284 N 0.72988 0.53061 0.17189 0.0
N1285 N 0.73212 0.44101 0.26031 0.0
H1286 H 0.75016 0.50711 0.30581 0.0
H1287 H 0.75165 0.47318 0.30939 0.0
H1288 H 0.72877 0.42253 0.2492 0.0
H1289 H 0.72999 0.44169 0.28971 0.0
H1290 H 0.72505 0.53009 0.14322 0.0
H1291 H 0.72849 0.5492 0.18353 0.0
H1292 H 0.74344 0.49773 0.11933 0.0
H1293 H 0.74103 0.4639 0.12324 0.0
C1294 C 0.47546 0.73731 0.27002 0.0
C1295 C 0.45277 0.7332 0.2484 0.0
C1296 C 0.47837 0.73544 0.18982 0.0
C1297 C 0.50134 0.73506 0.21172 0.0
N1298 N 0.52198 0.73254 0.27315 0.0
N1299 N 0.43263 0.72546 0.18768 0.0
C1300 C 0.50003 0.73551 0.25199 0.0
C1301 C 0.45411 0.7318 0.20821 0.0
N1302 N 0.47349 0.74333 0.30768 0.0
N1303 N 0.47975 0.73969 0.15152 0.0
H1304 H 0.41449 0.72227 0.19992 0.0
H1305 H 0.43323 0.72121 0.1588 0.0
H1306 H 0.49724 0.74287 0.13729 0.0
H1307 H 0.46351 0.7427 0.1346 0.0
H1308 H 0.48922 0.74908 0.32402 0.0
H1309 H 0.45572 0.74518 0.32165 0.0
H1310 H 0.52171 0.72966 0.30245 0.0
H1311 H 0.54042 0.73068 0.26133 0.0
C1312 C 0.13177 0.11856 0.22117 0.0
C1313 C 0.15735 0.12659 0.2121 0.0
C1314 C 0.1479 0.17052 0.23529 0.0
C1315 C 0.12169 0.16319 0.24112 0.0
N1316 N 0.08754 0.1315 0.23523 0.0
N1317 N 0.18841 0.16136 0.20344 0.0
C1318 C 0.11329 0.13751 0.23293 0.0
C1319 C 0.16508 0.15288 0.21725 0.0
N1320 N 0.12541 0.09272 0.2196 0.0
N1321 N 0.15672 0.19393 0.24839 0.0
H1322 H 0.20167 0.1492 0.18989 0.0
H1323 H 0.19366 0.18095 0.20233 0.0
H1324 H 0.1449 0.20749 0.26196 0.0
H1325 H 0.17626 0.19892 0.24895 0.0
H1326 H 0.10796 0.08521 0.22968 0.0
H1327 H 0.13848 0.07833 0.21102 0.0
H1328 H 0.07979 0.114 0.22574 0.0
H1329 H 0.07349 0.14491 0.24383 0.0
C1330 C 0.81285 0.16747 0.2097 0.0
C1331 C 0.83919 0.16035 0.20438 0.0
C1332 C 0.82973 0.11601 0.2267 0.0
C1333 C 0.80407 0.12396 0.23544 0.0
N1334 N 0.77263 0.15861 0.24249 0.0
N1335 N 0.87378 0.12914 0.21197 0.0
C1336 C 0.79598 0.15006 0.22889 0.0
C1337 C 0.84795 0.13492 0.21393 0.0
N1338 N 0.80363 0.19041 0.19505 0.0
N1339 N 0.83643 0.09026 0.22958 0.0
H1340 H 0.88764 0.14251 0.2026 0.0
H1341 H 0.88176 0.11189 0.2224 0.0
H1342 H 0.82356 0.07592 0.23895 0.0
H1343 H 0.85397 0.08276 0.21983 0.0
H1344 H 0.78402 0.19517 0.19431 0.0
H1345 H 0.8152 0.20367 0.18029 0.0
H1346 H 0.76709 0.17816 0.24236 0.0
H1347 H 0.75973 0.14666 0.25721 0.0
C1348 C 0.83261 0.83397 0.25712 0.0
C1349 C 0.84936 0.8156 0.23905 0.0
C1350 C 0.83027 0.82634 0.17746 0.0
C1351 C 0.81333 0.84439 0.19544 0.0
N1352 N 0.80577 0.87239 0.24912 0.0
N1353 N 0.87113 0.80336 0.18112 0.0
C1354 C 0.81687 0.85043 0.23426 0.0
C1355 C 0.85049 0.81484 0.19887 0.0
N1356 N 0.83041 0.83521 0.29573 0.0
N1357 N 0.82633 0.8187 0.14087 0.0
H1358 H 0.88689 0.7958 0.19607 0.0
H1359 H 0.87402 0.80422 0.15183 0.0
H1360 H 0.81153 0.82587 0.12394 0.0
H1361 H 0.83648 0.80336 0.12839 0.0
H1362 H 0.81553 0.84536 0.30927 0.0
H1363 H 0.84235 0.82549 0.31468 0.0
H1364 H 0.80979 0.87916 0.27631 0.0
H1365 H 0.795 0.88549 0.23279 0.0
C1366 C 0.14907 0.8547 0.20599 0.0
C1367 C 0.15018 0.84981 0.24557 0.0
C1368 C 0.11382 0.81957 0.23925 0.0
C1369 C 0.11762 0.81933 0.19939 0.0
N1370 N 0.13994 0.83724 0.14421 0.0
N1371 N 0.13318 0.82642 0.30042 0.0
C1372 C 0.13516 0.83738 0.18237 0.0
C1373 C 0.13213 0.83231 0.26261 0.0
N1374 N 0.16101 0.87623 0.19105 0.0
N1375 N 0.09243 0.80791 0.25475 0.0
H1376 H 0.14558 0.83538 0.31936 0.0
H1377 H 0.12271 0.81117 0.31267 0.0
H1378 H 0.07813 0.79927 0.23818 0.0
H1379 H 0.0874 0.80953 0.28333 0.0
H1380 H 0.15884 0.88215 0.16289 0.0
H1381 H 0.17057 0.88984 0.20788 0.0
H1382 H 0.15518 0.84752 0.13175 0.0
H1383 H 0.12997 0.82585 0.12499 0.0
C1384 C 0.81054 0.7993 0.71343 0.0
C1385 C 0.83691 0.80622 0.70815 0.0
C1386 C 0.82734 0.85093 0.72824 0.0
C1387 C 0.80156 0.84328 0.73669 0.0
N1388 N 0.77022 0.80877 0.74546 0.0
N1389 N 0.87152 0.83727 0.71532 0.0
C1390 C 0.79358 0.81707 0.73157 0.0
C1391 C 0.84565 0.8317 0.71686 0.0
N1392 N 0.80134 0.77624 0.69961 0.0
N1393 N 0.83408 0.87667 0.72989 0.0
H1394 H 0.88545 0.82364 0.70704 0.0
H1395 H 0.87943 0.85461 0.72517 0.0
H1396 H 0.82117 0.89127 0.73819 0.0
H1397 H 0.85175 0.88388 0.72016 0.0
H1398 H 0.7817 0.77165 0.69882 0.0
H1399 H 0.81291 0.7627 0.68554 0.0
H1400 H 0.76476 0.78922 0.74631 0.0
H1401 H 0.75729 0.82095 0.75961 0.0
C1402 C 0.1632 0.81096 0.70619 0.0
C1403 C 0.15653 0.83765 0.70193 0.0
C1404 C 0.11177 0.82805 0.72058 0.0
C1405 C 0.11918 0.80195 0.72865 0.0
N1406 N 0.15304 0.76963 0.73578 0.0
N1407 N 0.12558 0.87259 0.70874 0.0
C1408 C 0.14517 0.79362 0.72314 0.0
C1409 C 0.13106 0.84649 0.70998 0.0
N1410 N 0.18645 0.80194 0.69283 0.0
N1411 N 0.0862 0.83498 0.72207 0.0
H1412 H 0.13922 0.88661 0.70082 0.0
H1413 H 0.1082 0.88058 0.71829 0.0
H1414 H 0.07158 0.82192 0.72971 0.0
H1415 H 0.07919 0.85294 0.71276 0.0
H1416 H 0.19106 0.78219 0.69118 0.0
H1417 H 0.20026 0.81394 0.68005 0.0
H1418 H 0.17239 0.76387 0.73667 0.0
H1419 H 0.14064 0.75621 0.7486 0.0
C1420 C 0.14718 0.17276 0.71564 0.0
C1421 C 0.12094 0.16565 0.7099 0.0
C1422 C 0.12996 0.12168 0.73418 0.0
C1423 C 0.15551 0.12964 0.74306 0.0
N1424 N 0.18678 0.1643 0.74982 0.0
N1425 N 0.08616 0.13481 0.71813 0.0
C1426 C 0.16368 0.15561 0.73591 0.0
C1427 C 0.11198 0.14046 0.72034 0.0
N1428 N 0.15671 0.19536 0.70028 0.0
N1429 N 0.12318 0.09602 0.73786 0.0
H1430 H 0.07247 0.14809 0.70803 0.0
H1431 H 0.07799 0.1178 0.7291 0.0
H1432 H 0.13585 0.08177 0.74808 0.0
H1433 H 0.10578 0.08845 0.72802 0.0
H1434 H 0.17634 0.2 0.69993 0.0
H1435 H 0.14548 0.20835 0.68457 0.0
H1436 H 0.19231 0.18383 0.74915 0.0
H1437 H 0.1994 0.15255 0.76535 0.0
C1438 C 0.81435 0.17266 0.72952 0.0
C1439 C 0.8404 0.16509 0.73612 0.0
C1440 C 0.83072 0.12085 0.7143 0.0
C1441 C 0.80538 0.12918 0.70459 0.0
N1442 N 0.77489 0.16443 0.6951 0.0
N1443 N 0.87465 0.13334 0.73015 0.0
C1444 C 0.79767 0.15548 0.71 0.0
C1445 C 0.84896 0.13951 0.72727 0.0
N1446 N 0.80511 0.19577 0.74335 0.0
N1447 N 0.83706 0.09499 0.71227 0.0
H1448 H 0.88853 0.14653 0.73959 0.0
H1449 H 0.88257 0.11594 0.72031 0.0
H1450 H 0.8242 0.08082 0.70273 0.0
H1451 H 0.85426 0.08725 0.72281 0.0
H1452 H 0.78556 0.20082 0.74313 0.0
H1453 H 0.81646 0.20889 0.75839 0.0
H1454 H 0.76975 0.18408 0.69449 0.0
H1455 H 0.76223 0.15266 0.67997 0.0
C1456 C 0.63163 0.63664 0.68309 0.0
C1457 C 0.64959 0.61879 0.69949 0.0
C1458 C 0.63738 0.63339 0.76312 0.0
C1459 C 0.61981 0.65163 0.74677 0.0
N1460 N 0.59325 0.66299 0.69305 0.0
N1461 N 0.66133 0.59322 0.75435 0.0
C1462 C 0.61467 0.65074 0.7073 0.0
C1463 C 0.64967 0.61486 0.73932 0.0
N1464 N 0.63151 0.64149 0.64494 0.0
N1465 N 0.64387 0.63457 0.80062 0.0
H1466 H 0.66974 0.57882 0.73743 0.0
H1467 H 0.65998 0.58813 0.78298 0.0
H1468 H 0.63573 0.64759 0.81968 0.0
H1469 H 0.65902 0.62377 0.81228 0.0
H1470 H 0.6213 0.65695 0.63279 0.0
H1471 H 0.6426 0.63129 0.62538 0.0
H1472 H 0.5872 0.66097 0.66503 0.0
H1473 H 0.57987 0.67265 0.71029 0.0
C1474 C 0.33359 0.61947 0.73671 0.0
C1475 C 0.30833 0.62845 0.74577 0.0
C1476 C 0.31962 0.6725 0.72459 0.0
C1477 C 0.34542 0.66399 0.7179 0.0
N1478 N 0.3783 0.63075 0.72302 0.0
N1479 N 0.27893 0.66437 0.75663 0.0
C1480 C 0.35281 0.63783 0.72553 0.0
C1481 C 0.30181 0.65522 0.74214 0.0
N1482 N 0.33891 0.59334 0.73749 0.0
N1483 N 0.31168 0.69661 0.7125 0.0
H1484 H 0.26533 0.65242 0.76996 0.0
H1485 H 0.2745 0.68414 0.75868 0.0
H1486 H 0.32392 0.70998 0.69924 0.0
H1487 H 0.29237 0.70252 0.71252 0.0
H1488 H 0.35606 0.58529 0.72719 0.0
H1489 H 0.32534 0.57937 0.74583 0.0
H1490 H 0.38536 0.61272 0.73195 0.0
H1491 H 0.39287 0.64375 0.71494 0.0
C1492 C 0.35175 0.32861 0.72352 0.0
C1493 C 0.34281 0.30339 0.73383 0.0
C1494 C 0.30023 0.31325 0.70718 0.0
C1495 C 0.30833 0.33926 0.70018 0.0
N1496 N 0.34048 0.37302 0.7059 0.0
N1497 N 0.30708 0.27358 0.743 0.0
C1498 C 0.33378 0.34733 0.70943 0.0
C1499 C 0.31665 0.29619 0.72773 0.0
N1500 N 0.37752 0.33436 0.72609 0.0
N1501 N 0.27729 0.30444 0.69288 0.0
H1502 H 0.31825 0.26067 0.75897 0.0
H1503 H 0.28747 0.26886 0.74305 0.0
H1504 H 0.26476 0.31612 0.67708 0.0
H1505 H 0.27185 0.28489 0.69347 0.0
H1506 H 0.3857 0.3514 0.71525 0.0
H1507 H 0.3912 0.32113 0.73641 0.0
H1508 H 0.35779 0.38065 0.716 0.0
H1509 H 0.32783 0.38722 0.69551 0.0
C1510 C 0.61415 0.33436 0.71238 0.0
C1511 C 0.62263 0.30877 0.70344 0.0
C1512 C 0.66531 0.31807 0.72997 0.0
C1513 C 0.65765 0.34434 0.73574 0.0
N1514 N 0.62622 0.37876 0.72788 0.0
N1515 N 0.65787 0.27807 0.69595 0.0
C1516 C 0.63243 0.35287 0.72572 0.0
C1517 C 0.64865 0.3011 0.71007 0.0
N1518 N 0.58851 0.34069 0.70933 0.0
N1519 N 0.688 0.30894 0.74492 0.0
H1520 H 0.64653 0.26514 0.68056 0.0
H1521 H 0.6774 0.27295 0.69622 0.0
H1522 H 0.70069 0.32053 0.76029 0.0
H1523 H 0.69306 0.28925 0.74529 0.0
H1524 H 0.58064 0.35809 0.71927 0.0
H1525 H 0.57459 0.32763 0.69961 0.0
H1526 H 0.60913 0.38663 0.71718 0.0
H1527 H 0.63912 0.39282 0.73766 0.0
C1528 C 0.34528 0.33435 0.20762 0.0
C1529 C 0.33698 0.3086 0.1997 0.0
C1530 C 0.29356 0.31881 0.22358 0.0
C1531 C 0.30127 0.34509 0.22883 0.0
N1532 N 0.33299 0.37912 0.22088 0.0
N1533 N 0.30201 0.27783 0.19224 0.0
C1534 C 0.32675 0.35323 0.21945 0.0
C1535 C 0.31077 0.30123 0.20544 0.0
N1536 N 0.37099 0.34048 0.2051 0.0
N1537 N 0.27028 0.31025 0.23744 0.0
H1538 H 0.31387 0.26441 0.17843 0.0
H1539 H 0.28249 0.27275 0.19175 0.0
H1540 H 0.25703 0.32235 0.25112 0.0
H1541 H 0.26506 0.29064 0.23843 0.0
H1542 H 0.37869 0.35806 0.21443 0.0
H1543 H 0.38508 0.32716 0.19637 0.0
H1544 H 0.35036 0.3867 0.21062 0.0
H1545 H 0.31987 0.39344 0.2295 0.0
C1546 C 0.64931 0.29774 0.22951 0.0
C1547 C 0.62296 0.3048 0.23487 0.0
C1548 C 0.63245 0.34947 0.21401 0.0
C1549 C 0.65823 0.34175 0.20558 0.0
N1550 N 0.68987 0.30732 0.19803 0.0
N1551 N 0.58834 0.336 0.2277 0.0
C1552 C 0.66633 0.31556 0.21135 0.0
C1553 C 0.61421 0.33033 0.22591 0.0
N1554 N 0.65839 0.27446 0.24319 0.0
N1555 N 0.62567 0.37523 0.21179 0.0
H1556 H 0.57446 0.32244 0.2364 0.0
H1557 H 0.58036 0.35337 0.21769 0.0
H1558 H 0.63856 0.38976 0.20312 0.0
H1559 H 0.60801 0.38253 0.22141 0.0
H1560 H 0.678 0.26969 0.24412 0.0
H1561 H 0.64668 0.26077 0.25681 0.0
H1562 H 0.69544 0.28778 0.1974 0.0
H1563 H 0.70301 0.31959 0.18436 0.0
C1564 C 0.63641 0.61921 0.22979 0.0
C1565 C 0.6616 0.62863 0.2377 0.0
C1566 C 0.64868 0.67266 0.21839 0.0
C1567 C 0.62289 0.66372 0.21355 0.0
N1568 N 0.59109 0.62959 0.21969 0.0
N1569 N 0.69042 0.66507 0.24722 0.0
C1570 C 0.61643 0.63726 0.22062 0.0
C1571 C 0.66741 0.65556 0.23414 0.0
N1572 N 0.63182 0.59295 0.22993 0.0
N1573 N 0.65568 0.69706 0.20636 0.0
H1574 H 0.70475 0.65331 0.25915 0.0
H1575 H 0.69437 0.68491 0.24946 0.0
H1576 H 0.64274 0.71032 0.19444 0.0
H1577 H 0.67483 0.70335 0.205 0.0
H1578 H 0.61465 0.58466 0.22046 0.0
H1579 H 0.64602 0.57919 0.23664 0.0
H1580 H 0.58479 0.61124 0.22845 0.0
H1581 H 0.57596 0.64233 0.21315 0.0
C1582 C 0.3115 0.61738 0.23896 0.0
C1583 C 0.30967 0.62281 0.19958 0.0
C1584 C 0.34657 0.65242 0.20506 0.0
C1585 C 0.34363 0.65224 0.24507 0.0
N1586 N 0.32256 0.63349 0.30082 0.0
N1587 N 0.32556 0.64694 0.14478 0.0
C1588 C 0.32627 0.63411 0.26241 0.0
C1589 C 0.32753 0.64034 0.18226 0.0
N1590 N 0.29957 0.59582 0.25382 0.0
N1591 N 0.36781 0.66392 0.18888 0.0
H1592 H 0.31216 0.63884 0.12649 0.0
H1593 H 0.3361 0.66211 0.13243 0.0
H1594 H 0.38262 0.67204 0.20502 0.0
H1595 H 0.37215 0.66261 0.16002 0.0
H1596 H 0.30228 0.58945 0.28166 0.0
H1597 H 0.2894 0.5826 0.2371 0.0
H1598 H 0.3073 0.62347 0.31367 0.0
H1599 H 0.33366 0.64372 0.32009 0.0
loop_
_geom_bond_atom_site_label_1
_geom_bond_atom_site_label_2
_geom_bond_distance
_geom_bond_site_symmetry_2
_ccdc_geom_bond_type
C0 O1 1.306 . S
C0 O3 1.160 . S
O1 C0 1.306 . S
O1 Cd2 2.228 . S
Cd2 O1 2.228 . S
Cd2 O6 2.273 . S
Cd2 O10 2.277 . S
O3 C0 1.160 . S
O3 Cd4 2.203 . S
Cd4 O3 2.203 . S
Cd4 O6 2.411 . S
Cd4 O7 2.333 . S
Cd4 O8 2.352 . S
Cd4 O12 2.277 . S
Cd4 O13 2.356 . S
C5 O10 1.209 . S
C5 O12 1.226 . S
O6 Cd2 2.273 . S
O6 Cd4 2.411 . S
O6 C9 1.320 . S
O7 Cd4 2.333 . S
O7 C9 1.214 . S
O8 Cd4 2.352 . S
O8 C11 1.258 . S
C9 O6 1.320 . S
C9 O7 1.214 . S
O10 Cd2 2.277 . S
O10 C5 1.209 . S
C11 O8 1.258 . S
C11 O13 1.282 . S
O12 Cd4 2.277 . S
O12 C5 1.226 . S
O13 Cd4 2.356 . S
O13 C11 1.282 . S
C14 O15 1.306 . S
C14 O17 1.160 . S
O15 C14 1.306 . S
O15 Cd16 2.228 . S
Cd16 O15 2.228 . S
Cd16 O20 2.273 . S
Cd16 O24 2.277 . S
O17 C14 1.160 . S
O17 Cd18 2.203 . S
Cd18 O17 2.203 . S
Cd18 O20 2.411 . S
Cd18 O21 2.333 . S
Cd18 O22 2.352 . S
Cd18 O26 2.277 . S
Cd18 O27 2.356 . S
C19 O24 1.209 . S
C19 O26 1.226 . S
O20 Cd16 2.273 . S
O20 Cd18 2.411 . S
O20 C23 1.320 . S
O21 Cd18 2.333 . S
O21 C23 1.214 . S
O22 Cd18 2.352 . S
O22 C25 1.258 . S
C23 O20 1.320 . S
C23 O21 1.214 . S
O24 Cd16 2.277 . S
O24 C19 1.209 . S
C25 O22 1.258 . S
C25 O27 1.282 . S
O26 Cd18 2.277 . S
O26 C19 1.226 . S
O27 Cd18 2.356 . S
O27 C25 1.282 . S
C28 O29 1.306 . S
C28 O31 1.160 . S
O29 C28 1.306 . S
O29 Cd30 2.228 . S
Cd30 O29 2.228 . S
Cd30 O34 2.273 . S
Cd30 O38 2.277 . S
O31 C28 1.160 . S
O31 Cd32 2.203 . S
Cd32 O31 2.203 . S
Cd32 O34 2.411 . S
Cd32 O35 2.333 . S
Cd32 O36 2.352 . S
Cd32 O40 2.277 . S
Cd32 O41 2.356 . S
C33 O38 1.209 . S
C33 O40 1.226 . S
O34 Cd30 2.273 . S
O34 Cd32 2.411 . S
O34 C37 1.320 . S
O35 Cd32 2.333 . S
O35 C37 1.214 . S
O36 Cd32 2.352 . S
O36 C39 1.258 . S
C37 O34 1.320 . S
C37 O35 1.214 . S
O38 Cd30 2.277 . S
O38 C33 1.209 . S
C39 O36 1.258 . S
C39 O41 1.282 . S
O40 Cd32 2.277 . S
O40 C33 1.226 . S
O41 Cd32 2.356 . S
O41 C39 1.282 . S
C42 O43 1.306 . S
C42 O45 1.160 . S
O43 C42 1.306 . S
O43 Cd44 2.228 . S
Cd44 O43 2.228 . S
Cd44 O48 2.273 . S
Cd44 O52 2.277 . S
O45 C42 1.160 . S
O45 Cd46 2.203 . S
Cd46 O45 2.203 . S
Cd46 O48 2.411 . S
Cd46 O49 2.333 . S
Cd46 O50 2.352 . S
Cd46 O54 2.277 . S
Cd46 O55 2.356 . S
C47 O52 1.209 . S
C47 O54 1.226 . S
O48 Cd44 2.273 . S
O48 Cd46 2.411 . S
O48 C51 1.320 . S
O49 Cd46 2.333 . S
O49 C51 1.214 . S
O50 Cd46 2.352 . S
O50 C53 1.258 . S
C51 O48 1.320 . S
C51 O49 1.214 . S
O52 Cd44 2.277 . S
O52 C47 1.209 . S
C53 O50 1.258 . S
C53 O55 1.282 . S
O54 Cd46 2.277 . S
O54 C47 1.226 . S
O55 Cd46 2.356 . S
O55 C53 1.282 . S
C56 O57 1.306 . S
C56 O59 1.160 . S
O57 C56 1.306 . S
O57 Cd58 2.228 . S
Cd58 O57 2.228 . S
Cd58 O62 2.273 . S
Cd58 O66 2.277 . S
O59 C56 1.160 . S
O59 Cd60 2.203 . S
Cd60 O59 2.203 . S
Cd60 O62 2.411 . S
Cd60 O63 2.333 . S
Cd60 O64 2.352 . S
Cd60 O68 2.277 . S
Cd60 O69 2.356 . S
C61 O66 1.209 . S
C61 O68 1.226 . S
O62 Cd58 2.273 . S
O62 Cd60 2.411 . S
O62 C65 1.320 . S
O63 Cd60 2.333 . S
O63 C65 1.214 . S
O64 Cd60 2.352 . S
O64 C67 1.258 . S
C65 O62 1.320 . S
C65 O63 1.214 . S
O66 Cd58 2.277 . S
O66 C61 1.209 . S
C67 O64 1.258 . S
C67 O69 1.282 . S
O68 Cd60 2.277 . S
O68 C61 1.226 . S
O69 Cd60 2.356 . S
O69 C67 1.282 . S
C70 O71 1.306 . S
C70 O73 1.160 . S
O71 C70 1.306 . S
O71 Cd72 2.228 . S
Cd72 O71 2.228 . S
Cd72 O76 2.273 . S
Cd72 O80 2.277 . S
O73 C70 1.160 . S
O73 Cd74 2.203 . S
Cd74 O73 2.203 . S
Cd74 O76 2.411 . S
Cd74 O77 2.333 . S
Cd74 O78 2.352 . S
Cd74 O82 2.277 . S
Cd74 O83 2.356 . S
C75 O80 1.209 . S
C75 O82 1.226 . S
O76 Cd72 2.273 . S
O76 Cd74 2.411 . S
O76 C79 1.320 . S
O77 Cd74 2.333 . S
O77 C79 1.214 . S
O78 Cd74 2.352 . S
O78 C81 1.258 . S
C79 O76 1.320 . S
C79 O77 1.214 . S
O80 Cd72 2.277 . S
O80 C75 1.209 . S
C81 O78 1.258 . S
C81 O83 1.282 . S
O82 Cd74 2.277 . S
O82 C75 1.226 . S
O83 Cd74 2.356 . S
O83 C81 1.282 . S
C84 O85 1.306 . S
C84 O87 1.160 . S
O85 C84 1.306 . S
O85 Cd86 2.228 . S
Cd86 O85 2.228 . S
Cd86 O90 2.273 . S
Cd86 O94 2.277 . S
O87 C84 1.160 . S
O87 Cd88 2.203 . S
Cd88 O87 2.203 . S
Cd88 O90 2.411 . S
Cd88 O91 2.333 . S
Cd88 O92 2.352 . S
Cd88 O96 2.277 . S
Cd88 O97 2.356 . S
C89 O94 1.209 . S
C89 O96 1.226 . S
O90 Cd86 2.273 . S
O90 Cd88 2.411 . S
O90 C93 1.320 . S
O91 Cd88 2.333 . S
O91 C93 1.214 . S
O92 Cd88 2.352 . S
O92 C95 1.258 . S
C93 O90 1.320 . S
C93 O91 1.214 . S
O94 Cd86 2.277 . S
O94 C89 1.209 . S
C95 O92 1.258 . S
C95 O97 1.282 . S
O96 Cd88 2.277 . S
O96 C89 1.226 . S
O97 Cd88 2.356 . S
O97 C95 1.282 . S
C98 O99 1.306 . S
C98 O101 1.160 . S
O99 C98 1.306 . S
O99 Cd100 2.228 . S
Cd100 O99 2.228 . S
Cd100 O104 2.273 . S
Cd100 O108 2.277 . S
O101 C98 1.160 . S
O101 Cd102 2.203 . S
Cd102 O101 2.203 . S
Cd102 O104 2.411 . S
Cd102 O105 2.333 . S
Cd102 O106 2.352 . S
Cd102 O110 2.277 . S
Cd102 O111 2.356 . S
C103 O108 1.209 . S
C103 O110 1.226 . S
O104 Cd100 2.273 . S
O104 Cd102 2.411 . S
O104 C107 1.320 . S
O105 Cd102 2.333 . S
O105 C107 1.214 . S
O106 Cd102 2.352 . S
O106 C109 1.258 . S
C107 O104 1.320 . S
C107 O105 1.214 . S
O108 Cd100 2.277 . S
O108 C103 1.209 . S
C109 O106 1.258 . S
C109 O111 1.282 . S
O110 Cd102 2.277 . S
O110 C103 1.226 . S
O111 Cd102 2.356 . S
O111 C109 1.282 . S
C112 O113 1.306 . S
C112 O115 1.160 . S
O113 C112 1.306 . S
O113 Cd114 2.228 . S
Cd114 O113 2.228 . S
Cd114 O118 2.273 . S
Cd114 O122 2.277 . S
O115 C112 1.160 . S
O115 Cd116 2.203 . S
Cd116 O115 2.203 . S
Cd116 O118 2.411 . S
Cd116 O119 2.333 . S
Cd116 O120 2.352 . S
Cd116 O124 2.277 . S
Cd116 O125 2.356 . S
C117 O122 1.209 . S
C117 O124 1.226 . S
O118 Cd114 2.273 . S
O118 Cd116 2.411 . S
O118 C121 1.320 . S
O119 Cd116 2.333 . S
O119 C121 1.214 . S
O120 Cd116 2.352 . S
O120 C123 1.258 . S
C121 O118 1.320 . S
C121 O119 1.214 . S
O122 Cd114 2.277 . S
O122 C117 1.209 . S
C123 O120 1.258 . S
C123 O125 1.282 . S
O124 Cd116 2.277 . S
O124 C117 1.226 . S
O125 Cd116 2.356 . S
O125 C123 1.282 . S
C126 O127 1.306 . S
C126 O129 1.160 . S
O127 C126 1.306 . S
O127 Cd128 2.228 . S
Cd128 O127 2.228 . S
Cd128 O132 2.273 . S
Cd128 O136 2.277 . S
O129 C126 1.160 . S
O129 Cd130 2.203 . S
Cd130 O129 2.203 . S
Cd130 O132 2.411 . S
Cd130 O133 2.333 . S
Cd130 O134 2.352 . S
Cd130 O138 2.277 . S
Cd130 O139 2.356 . S
C131 O136 1.209 . S
C131 O138 1.226 . S
O132 Cd128 2.273 . S
O132 Cd130 2.411 . S
O132 C135 1.320 . S
O133 Cd130 2.333 . S
O133 C135 1.214 . S
O134 Cd130 2.352 . S
O134 C137 1.258 . S
C135 O132 1.320 . S
C135 O133 1.214 . S
O136 Cd128 2.277 . S
O136 C131 1.209 . S
C137 O134 1.258 . S
C137 O139 1.282 . S
O138 Cd130 2.277 . S
O138 C131 1.226 . S
O139 Cd130 2.356 . S
O139 C137 1.282 . S
C140 O141 1.306 . S
C140 O143 1.160 . S
O141 C140 1.306 . S
O141 Cd142 2.228 . S
Cd142 O141 2.228 . S
Cd142 O146 2.273 . S
Cd142 O150 2.277 . S
O143 C140 1.160 . S
O143 Cd144 2.203 . S
Cd144 O143 2.203 . S
Cd144 O146 2.411 . S
Cd144 O147 2.333 . S
Cd144 O148 2.352 . S
Cd144 O152 2.277 . S
Cd144 O153 2.356 . S
C145 O150 1.209 . S
C145 O152 1.226 . S
O146 Cd142 2.273 . S
O146 Cd144 2.411 . S
O146 C149 1.320 . S
O147 Cd144 2.333 . S
O147 C149 1.214 . S
O148 Cd144 2.352 . S
O148 C151 1.258 . S
C149 O146 1.320 . S
C149 O147 1.214 . S
O150 Cd142 2.277 . S
O150 C145 1.209 . S
C151 O148 1.258 . S
C151 O153 1.282 . S
O152 Cd144 2.277 . S
O152 C145 1.226 . S
O153 Cd144 2.356 . S
O153 C151 1.282 . S
C154 O155 1.306 . S
C154 O157 1.160 . S
O155 C154 1.306 . S
O155 Cd156 2.228 . S
Cd156 O155 2.228 . S
Cd156 O160 2.273 . S
Cd156 O164 2.277 . S
O157 C154 1.160 . S
O157 Cd158 2.203 . S
Cd158 O157 2.203 . S
Cd158 O160 2.411 . S
Cd158 O161 2.333 . S
Cd158 O162 2.352 . S
Cd158 O166 2.277 . S
Cd158 O167 2.356 . S
C159 O164 1.209 . S
C159 O166 1.226 . S
O160 Cd156 2.273 . S
O160 Cd158 2.411 . S
O160 C163 1.320 . S
O161 Cd158 2.333 . S
O161 C163 1.214 . S
O162 Cd158 2.352 . S
O162 C165 1.258 . S
C163 O160 1.320 . S
C163 O161 1.214 . S
O164 Cd156 2.277 . S
O164 C159 1.209 . S
C165 O162 1.258 . S
C165 O167 1.282 . S
O166 Cd158 2.277 . S
O166 C159 1.226 . S
O167 Cd158 2.356 . S
O167 C165 1.282 . S
C168 O169 1.306 . S
C168 O171 1.160 . S
O169 C168 1.306 . S
O169 Cd170 2.228 . S
Cd170 O169 2.228 . S
Cd170 O174 2.273 . S
Cd170 O178 2.277 . S
O171 C168 1.160 . S
O171 Cd172 2.203 . S
Cd172 O171 2.203 . S
Cd172 O174 2.411 . S
Cd172 O175 2.333 . S
Cd172 O176 2.352 . S
Cd172 O180 2.277 . S
Cd172 O181 2.356 . S
C173 O178 1.209 . S
C173 O180 1.226 . S
O174 Cd170 2.273 . S
O174 Cd172 2.411 . S
O174 C177 1.320 . S
O175 Cd172 2.333 . S
O175 C177 1.214 . S
O176 Cd172 2.352 . S
O176 C179 1.258 . S
C177 O174 1.320 . S
C177 O175 1.214 . S
O178 Cd170 2.277 . S
O178 C173 1.209 . S
C179 O176 1.258 . S
C179 O181 1.282 . S
O180 Cd172 2.277 . S
O180 C173 1.226 . S
O181 Cd172 2.356 . S
O181 C179 1.282 . S
C182 O183 1.306 . S
C182 O185 1.160 . S
O183 C182 1.306 . S
O183 Cd184 2.228 . S
Cd184 O183 2.228 . S
Cd184 O188 2.273 . S
Cd184 O192 2.277 . S
O185 C182 1.160 . S
O185 Cd186 2.203 . S
Cd186 O185 2.203 . S
Cd186 O188 2.411 . S
Cd186 O189 2.333 . S
Cd186 O190 2.352 . S
Cd186 O194 2.277 . S
Cd186 O195 2.356 . S
C187 O192 1.209 . S
C187 O194 1.226 . S
O188 Cd184 2.273 . S
O188 Cd186 2.411 . S
O188 C191 1.320 . S
O189 Cd186 2.333 . S
O189 C191 1.214 . S
O190 Cd186 2.352 . S
O190 C193 1.258 . S
C191 O188 1.320 . S
C191 O189 1.214 . S
O192 Cd184 2.277 . S
O192 C187 1.209 . S
C193 O190 1.258 . S
C193 O195 1.282 . S
O194 Cd186 2.277 . S
O194 C187 1.226 . S
O195 Cd186 2.356 . S
O195 C193 1.282 . S
C196 O197 1.306 . S
C196 O199 1.160 . S
O197 C196 1.306 . S
O197 Cd198 2.228 . S
Cd198 O197 2.228 . S
Cd198 O202 2.273 . S
Cd198 O206 2.277 . S
O199 C196 1.160 . S
O199 Cd200 2.203 . S
Cd200 O199 2.203 . S
Cd200 O202 2.411 . S
Cd200 O203 2.333 . S
Cd200 O204 2.352 . S
Cd200 O208 2.277 . S
Cd200 O209 2.356 . S
C201 O206 1.209 . S
C201 O208 1.226 . S
O202 Cd198 2.273 . S
O202 Cd200 2.411 . S
O202 C205 1.320 . S
O203 Cd200 2.333 . S
O203 C205 1.214 . S
O204 Cd200 2.352 . S
O204 C207 1.258 . S
C205 O202 1.320 . S
C205 O203 1.214 . S
O206 Cd198 2.277 . S
O206 C201 1.209 . S
C207 O204 1.258 . S
C207 O209 1.282 . S
O208 Cd200 2.277 . S
O208 C201 1.226 . S
O209 Cd200 2.356 . S
O209 C207 1.282 . S
C210 O211 1.306 . S
C210 O213 1.160 . S
O211 C210 1.306 . S
O211 Cd212 2.228 . S
Cd212 O211 2.228 . S
Cd212 O216 2.273 . S
Cd212 O220 2.277 . S
O213 C210 1.160 . S
O213 Cd214 2.203 . S
Cd214 O213 2.203 . S
Cd214 O216 2.411 . S
Cd214 O217 2.333 . S
Cd214 O218 2.352 . S
Cd214 O222 2.277 . S
Cd214 O223 2.356 . S
C215 O220 1.209 . S
C215 O222 1.226 . S
O216 Cd212 2.273 . S
O216 Cd214 2.411 . S
O216 C219 1.320 . S
O217 Cd214 2.333 . S
O217 C219 1.214 . S
O218 Cd214 2.352 . S
O218 C221 1.258 . S
C219 O216 1.320 . S
C219 O217 1.214 . S
O220 Cd212 2.277 . S
O220 C215 1.209 . S
C221 O218 1.258 . S
C221 O223 1.282 . S
O222 Cd214 2.277 . S
O222 C215 1.226 . S
O223 Cd214 2.356 . S
O223 C221 1.282 . S
C224 O225 1.306 . S
C224 O227 1.160 . S
O225 C224 1.306 . S
O225 Cd226 2.228 . S
Cd226 O225 2.228 . S
Cd226 O230 2.273 . S
Cd226 O234 2.277 . S
O227 C224 1.160 . S
O227 Cd228 2.203 . S
Cd228 O227 2.203 . S
Cd228 O230 2.411 . S
Cd228 O231 2.333 . S
Cd228 O232 2.352 . S
Cd228 O236 2.277 . S
Cd228 O237 2.356 . S
C229 O234 1.209 . S
C229 O236 1.226 . S
O230 Cd226 2.273 . S
O230 Cd228 2.411 . S
O230 C233 1.320 . S
O231 Cd228 2.333 . S
O231 C233 1.214 . S
O232 Cd228 2.352 . S
O232 C235 1.258 . S
C233 O230 1.320 . S
C233 O231 1.214 . S
O234 Cd226 2.277 . S
O234 C229 1.209 . S
C235 O232 1.258 . S
C235 O237 1.282 . S
O236 Cd228 2.277 . S
O236 C229 1.226 . S
O237 Cd228 2.356 . S
O237 C235 1.282 . S
C238 O239 1.306 . S
C238 O241 1.160 . S
O239 C238 1.306 . S
O239 Cd240 2.228 . S
Cd240 O239 2.228 . S
Cd240 O244 2.273 . S
Cd240 O248 2.277 . S
O241 C238 1.160 . S
O241 Cd242 2.203 . S
Cd242 O241 2.203 . S
Cd242 O244 2.411 . S
Cd242 O245 2.333 . S
Cd242 O246 2.352 . S
Cd242 O250 2.277 . S
Cd242 O251 2.356 . S
C243 O248 1.209 . S
C243 O250 1.226 . S
O244 Cd240 2.273 . S
O244 Cd242 2.411 . S
O244 C247 1.320 . S
O245 Cd242 2.333 . S
O245 C247 1.214 . S
O246 Cd242 2.352 . S
O246 C249 1.258 . S
C247 O244 1.320 . S
C247 O245 1.214 . S
O248 Cd240 2.277 . S
O248 C243 1.209 . S
C249 O246 1.258 . S
C249 O251 1.282 . S
O250 Cd242 2.277 . S
O250 C243 1.226 . S
O251 Cd242 2.356 . S
O251 C249 1.282 . S
C252 O253 1.306 . S
C252 O255 1.160 . S
O253 C252 1.306 . S
O253 Cd254 2.228 . S
Cd254 O253 2.228 . S
Cd254 O258 2.273 . S
Cd254 O262 2.277 . S
O255 C252 1.160 . S
O255 Cd256 2.203 . S
Cd256 O255 2.203 . S
Cd256 O258 2.411 . S
Cd256 O259 2.333 . S
Cd256 O260 2.352 . S
Cd256 O264 2.277 . S
Cd256 O265 2.356 . S
C257 O262 1.209 . S
C257 O264 1.226 . S
O258 Cd254 2.273 . S
O258 Cd256 2.411 . S
O258 C261 1.320 . S
O259 Cd256 2.333 . S
O259 C261 1.214 . S
O260 Cd256 2.352 . S
O260 C263 1.258 . S
C261 O258 1.320 . S
C261 O259 1.214 . S
O262 Cd254 2.277 . S
O262 C257 1.209 . S
C263 O260 1.258 . S
C263 O265 1.282 . S
O264 Cd256 2.277 . S
O264 C257 1.226 . S
O265 Cd256 2.356 . S
O265 C263 1.282 . S
C266 O267 1.306 . S
C266 O269 1.160 . S
O267 C266 1.306 . S
O267 Cd268 2.228 . S
Cd268 O267 2.228 . S
Cd268 O272 2.273 . S
Cd268 O276 2.277 . S
O269 C266 1.160 . S
O269 Cd270 2.203 . S
Cd270 O269 2.203 . S
Cd270 O272 2.411 . S
Cd270 O273 2.333 . S
Cd270 O274 2.352 . S
Cd270 O278 2.277 . S
Cd270 O279 2.356 . S
C271 O276 1.209 . S
C271 O278 1.226 . S
O272 Cd268 2.273 . S
O272 Cd270 2.411 . S
O272 C275 1.320 . S
O273 Cd270 2.333 . S
O273 C275 1.214 . S
O274 Cd270 2.352 . S
O274 C277 1.258 . S
C275 O272 1.320 . S
C275 O273 1.214 . S
O276 Cd268 2.277 . S
O276 C271 1.209 . S
C277 O274 1.258 . S
C277 O279 1.282 . S
O278 Cd270 2.277 . S
O278 C271 1.226 . S
O279 Cd270 2.356 . S
O279 C277 1.282 . S
C280 O281 1.306 . S
C280 O283 1.160 . S
O281 C280 1.306 . S
O281 Cd282 2.228 . S
Cd282 O281 2.228 . S
Cd282 O286 2.273 . S
Cd282 O290 2.277 . S
O283 C280 1.160 . S
O283 Cd284 2.203 . S
Cd284 O283 2.203 . S
Cd284 O286 2.411 . S
Cd284 O287 2.333 . S
Cd284 O288 2.352 . S
Cd284 O292 2.277 . S
Cd284 O293 2.356 . S
C285 O290 1.209 . S
C285 O292 1.226 . S
O286 Cd282 2.273 . S
O286 Cd284 2.411 . S
O286 C289 1.320 . S
O287 Cd284 2.333 . S
O287 C289 1.214 . S
O288 Cd284 2.352 . S
O288 C291 1.258 . S
C289 O286 1.320 . S
C289 O287 1.214 . S
O290 Cd282 2.277 . S
O290 C285 1.209 . S
C291 O288 1.258 . S
C291 O293 1.282 . S
O292 Cd284 2.277 . S
O292 C285 1.226 . S
O293 Cd284 2.356 . S
O293 C291 1.282 . S
C294 O295 1.306 . S
C294 O297 1.160 . S
O295 C294 1.306 . S
O295 Cd296 2.228 . S
Cd296 O295 2.228 . S
Cd296 O300 2.273 . S
Cd296 O304 2.277 . S
O297 C294 1.160 . S
O297 Cd298 2.203 . S
Cd298 O297 2.203 . S
Cd298 O300 2.411 . S
Cd298 O301 2.333 . S
Cd298 O302 2.352 . S
Cd298 O306 2.277 . S
Cd298 O307 2.356 . S
C299 O304 1.209 . S
C299 O306 1.226 . S
O300 Cd296 2.273 . S
O300 Cd298 2.411 . S
O300 C303 1.320 . S
O301 Cd298 2.333 . S
O301 C303 1.214 . S
O302 Cd298 2.352 . S
O302 C305 1.258 . S
C303 O300 1.320 . S
C303 O301 1.214 . S
O304 Cd296 2.277 . S
O304 C299 1.209 . S
C305 O302 1.258 . S
C305 O307 1.282 . S
O306 Cd298 2.277 . S
O306 C299 1.226 . S
O307 Cd298 2.356 . S
O307 C305 1.282 . S
C308 O309 1.306 . S
C308 O311 1.160 . S
O309 C308 1.306 . S
O309 Cd310 2.228 . S
Cd310 O309 2.228 . S
Cd310 O314 2.273 . S
Cd310 O318 2.277 . S
O311 C308 1.160 . S
O311 Cd312 2.203 . S
Cd312 O311 2.203 . S
Cd312 O314 2.411 . S
Cd312 O315 2.333 . S
Cd312 O316 2.352 . S
Cd312 O320 2.277 . S
Cd312 O321 2.356 . S
C313 O318 1.209 . S
C313 O320 1.226 . S
O314 Cd310 2.273 . S
O314 Cd312 2.411 . S
O314 C317 1.320 . S
O315 Cd312 2.333 . S
O315 C317 1.214 . S
O316 Cd312 2.352 . S
O316 C319 1.258 . S
C317 O314 1.320 . S
C317 O315 1.214 . S
O318 Cd310 2.277 . S
O318 C313 1.209 . S
C319 O316 1.258 . S
C319 O321 1.282 . S
O320 Cd312 2.277 . S
O320 C313 1.226 . S
O321 Cd312 2.356 . S
O321 C319 1.282 . S
C322 O323 1.306 . S
C322 O325 1.160 . S
O323 C322 1.306 . S
O323 Cd324 2.228 . S
Cd324 O323 2.228 . S
Cd324 O328 2.273 . S
Cd324 O332 2.277 . S
O325 C322 1.160 . S
O325 Cd326 2.203 . S
Cd326 O325 2.203 . S
Cd326 O328 2.411 . S
Cd326 O329 2.333 . S
Cd326 O330 2.352 . S
Cd326 O334 2.277 . S
Cd326 O335 2.356 . S
C327 O332 1.209 . S
C327 O334 1.226 . S
O328 Cd324 2.273 . S
O328 Cd326 2.411 . S
O328 C331 1.320 . S
O329 Cd326 2.333 . S
O329 C331 1.214 . S
O330 Cd326 2.352 . S
O330 C333 1.258 . S
C331 O328 1.320 . S
C331 O329 1.214 . S
O332 Cd324 2.277 . S
O332 C327 1.209 . S
C333 O330 1.258 . S
C333 O335 1.282 . S
O334 Cd326 2.277 . S
O334 C327 1.226 . S
O335 Cd326 2.356 . S
O335 C333 1.282 . S
C336 O337 1.306 . S
C336 O339 1.160 . S
O337 C336 1.306 . S
O337 Cd338 2.228 . S
Cd338 O337 2.228 . S
Cd338 O342 2.273 . S
Cd338 O346 2.277 . S
O339 C336 1.160 . S
O339 Cd340 2.203 . S
Cd340 O339 2.203 . S
Cd340 O342 2.411 . S
Cd340 O343 2.333 . S
Cd340 O344 2.352 . S
Cd340 O348 2.277 . S
Cd340 O349 2.356 . S
C341 O346 1.209 . S
C341 O348 1.226 . S
O342 Cd338 2.273 . S
O342 Cd340 2.411 . S
O342 C345 1.320 . S
O343 Cd340 2.333 . S
O343 C345 1.214 . S
O344 Cd340 2.352 . S
O344 C347 1.258 . S
C345 O342 1.320 . S
C345 O343 1.214 . S
O346 Cd338 2.277 . S
O346 C341 1.209 . S
C347 O344 1.258 . S
C347 O349 1.282 . S
O348 Cd340 2.277 . S
O348 C341 1.226 . S
O349 Cd340 2.356 . S
O349 C347 1.282 . S
C350 O351 1.306 . S
C350 O353 1.160 . S
O351 C350 1.306 . S
O351 Cd352 2.228 . S
Cd352 O351 2.228 . S
Cd352 O356 2.273 . S
Cd352 O360 2.277 . S
O353 C350 1.160 . S
O353 Cd354 2.203 . S
Cd354 O353 2.203 . S
Cd354 O356 2.411 . S
Cd354 O357 2.333 . S
Cd354 O358 2.352 . S
Cd354 O362 2.277 . S
Cd354 O363 2.356 . S
C355 O360 1.209 . S
C355 O362 1.226 . S
O356 Cd352 2.273 . S
O356 Cd354 2.411 . S
O356 C359 1.320 . S
O357 Cd354 2.333 . S
O357 C359 1.214 . S
O358 Cd354 2.352 . S
O358 C361 1.258 . S
C359 O356 1.320 . S
C359 O357 1.214 . S
O360 Cd352 2.277 . S
O360 C355 1.209 . S
C361 O358 1.258 . S
C361 O363 1.282 . S
O362 Cd354 2.277 . S
O362 C355 1.226 . S
O363 Cd354 2.356 . S
O363 C361 1.282 . S
C364 O365 1.306 . S
C364 O367 1.160 . S
O365 C364 1.306 . S
O365 Cd366 2.228 . S
Cd366 O365 2.228 . S
Cd366 O370 2.273 . S
Cd366 O374 2.277 . S
O367 C364 1.160 . S
O367 Cd368 2.203 . S
Cd368 O367 2.203 . S
Cd368 O370 2.411 . S
Cd368 O371 2.333 . S
Cd368 O372 2.352 . S
Cd368 O376 2.277 . S
Cd368 O377 2.356 . S
C369 O374 1.209 . S
C369 O376 1.226 . S
O370 Cd366 2.273 . S
O370 Cd368 2.411 . S
O370 C373 1.320 . S
O371 Cd368 2.333 . S
O371 C373 1.214 . S
O372 Cd368 2.352 . S
O372 C375 1.258 . S
C373 O370 1.320 . S
C373 O371 1.214 . S
O374 Cd366 2.277 . S
O374 C369 1.209 . S
C375 O372 1.258 . S
C375 O377 1.282 . S
O376 Cd368 2.277 . S
O376 C369 1.226 . S
O377 Cd368 2.356 . S
O377 C375 1.282 . S
C378 O379 1.306 . S
C378 O381 1.160 . S
O379 C378 1.306 . S
O379 Cd380 2.228 . S
Cd380 O379 2.228 . S
Cd380 O384 2.273 . S
Cd380 O388 2.277 . S
O381 C378 1.160 . S
O381 Cd382 2.203 . S
Cd382 O381 2.203 . S
Cd382 O384 2.411 . S
Cd382 O385 2.333 . S
Cd382 O386 2.352 . S
Cd382 O390 2.277 . S
Cd382 O391 2.356 . S
C383 O388 1.209 . S
C383 O390 1.226 . S
O384 Cd380 2.273 . S
O384 Cd382 2.411 . S
O384 C387 1.320 . S
O385 Cd382 2.333 . S
O385 C387 1.214 . S
O386 Cd382 2.352 . S
O386 C389 1.258 . S
C387 O384 1.320 . S
C387 O385 1.214 . S
O388 Cd380 2.277 . S
O388 C383 1.209 . S
C389 O386 1.258 . S
C389 O391 1.282 . S
O390 Cd382 2.277 . S
O390 C383 1.226 . S
O391 Cd382 2.356 . S
O391 C389 1.282 . S
C392 O393 1.306 . S
C392 O395 1.160 . S
O393 C392 1.306 . S
O393 Cd394 2.228 . S
Cd394 O393 2.228 . S
Cd394 O398 2.273 . S
Cd394 O402 2.277 . S
O395 C392 1.160 . S
O395 Cd396 2.203 . S
Cd396 O395 2.203 . S
Cd396 O398 2.411 . S
Cd396 O399 2.333 . S
Cd396 O400 2.352 . S
Cd396 O404 2.277 . S
Cd396 O405 2.356 . S
C397 O402 1.209 . S
C397 O404 1.226 . S
O398 Cd394 2.273 . S
O398 Cd396 2.411 . S
O398 C401 1.320 . S
O399 Cd396 2.333 . S
O399 C401 1.214 . S
O400 Cd396 2.352 . S
O400 C403 1.258 . S
C401 O398 1.320 . S
C401 O399 1.214 . S
O402 Cd394 2.277 . S
O402 C397 1.209 . S
C403 O400 1.258 . S
C403 O405 1.282 . S
O404 Cd396 2.277 . S
O404 C397 1.226 . S
O405 Cd396 2.356 . S
O405 C403 1.282 . S
C406 O407 1.306 . S
C406 O409 1.160 . S
O407 C406 1.306 . S
O407 Cd408 2.228 . S
Cd408 O407 2.228 . S
Cd408 O412 2.273 . S
Cd408 O416 2.277 . S
O409 C406 1.160 . S
O409 Cd410 2.203 . S
Cd410 O409 2.203 . S
Cd410 O412 2.411 . S
Cd410 O413 2.333 . S
Cd410 O414 2.352 . S
Cd410 O418 2.277 . S
Cd410 O419 2.356 . S
C411 O416 1.209 . S
C411 O418 1.226 . S
O412 Cd408 2.273 . S
O412 Cd410 2.411 . S
O412 C415 1.320 . S
O413 Cd410 2.333 . S
O413 C415 1.214 . S
O414 Cd410 2.352 . S
O414 C417 1.258 . S
C415 O412 1.320 . S
C415 O413 1.214 . S
O416 Cd408 2.277 . S
O416 C411 1.209 . S
C417 O414 1.258 . S
C417 O419 1.282 . S
O418 Cd410 2.277 . S
O418 C411 1.226 . S
O419 Cd410 2.356 . S
O419 C417 1.282 . S
C420 O421 1.306 . S
C420 O423 1.160 . S
O421 C420 1.306 . S
O421 Cd422 2.228 . S
Cd422 O421 2.228 . S
Cd422 O426 2.273 . S
Cd422 O430 2.277 . S
O423 C420 1.160 . S
O423 Cd424 2.203 . S
Cd424 O423 2.203 . S
Cd424 O426 2.411 . S
Cd424 O427 2.333 . S
Cd424 O428 2.352 . S
Cd424 O432 2.277 . S
Cd424 O433 2.356 . S
C425 O430 1.209 . S
C425 O432 1.226 . S
O426 Cd422 2.273 . S
O426 Cd424 2.411 . S
O426 C429 1.320 . S
O427 Cd424 2.333 . S
O427 C429 1.214 . S
O428 Cd424 2.352 . S
O428 C431 1.258 . S
C429 O426 1.320 . S
C429 O427 1.214 . S
O430 Cd422 2.277 . S
O430 C425 1.209 . S
C431 O428 1.258 . S
C431 O433 1.282 . S
O432 Cd424 2.277 . S
O432 C425 1.226 . S
O433 Cd424 2.356 . S
O433 C431 1.282 . S
C434 O435 1.306 . S
C434 O437 1.160 . S
O435 C434 1.306 . S
O435 Cd436 2.228 . S
Cd436 O435 2.228 . S
Cd436 O440 2.273 . S
Cd436 O444 2.277 . S
O437 C434 1.160 . S
O437 Cd438 2.203 . S
Cd438 O437 2.203 . S
Cd438 O440 2.411 . S
Cd438 O441 2.333 . S
Cd438 O442 2.352 . S
Cd438 O446 2.277 . S
Cd438 O447 2.356 . S
C439 O444 1.209 . S
C439 O446 1.226 . S
O440 Cd436 2.273 . S
O440 Cd438 2.411 . S
O440 C443 1.320 . S
O441 Cd438 2.333 . S
O441 C443 1.214 . S
O442 Cd438 2.352 . S
O442 C445 1.258 . S
C443 O440 1.320 . S
C443 O441 1.214 . S
O444 Cd436 2.277 . S
O444 C439 1.209 . S
C445 O442 1.258 . S
C445 O447 1.282 . S
O446 Cd438 2.277 . S
O446 C439 1.226 . S
O447 Cd438 2.356 . S
O447 C445 1.282 . S
C448 C449 1.363 . S
C448 C454 1.379 . S
C448 N456 1.356 . S
C449 C448 1.363 . S
C449 C455 1.363 . S
C450 C451 1.363 . S
C450 C455 1.379 . S
C450 N457 1.356 . S
C451 C450 1.363 . S
C451 C454 1.363 . S
N452 C454 1.356 . S
N452 H464 0.984 . S
N452 H465 0.985 . S
N453 C455 1.356 . S
N453 H458 0.984 . S
N453 H459 0.985 . S
C454 C448 1.379 . S
C454 C451 1.363 . S
C454 N452 1.356 . S
C455 C449 1.363 . S
C455 C450 1.379 . S
C455 N453 1.356 . S
N456 C448 1.356 . S
N456 H462 0.984 . S
N456 H463 0.984 . S
N457 C450 1.356 . S
N457 H460 0.984 . S
N457 H461 0.985 . S
H458 N453 0.984 . S
H459 N453 0.985 . S
H460 N457 0.984 . S
H461 N457 0.985 . S
H462 N456 0.984 . S
H463 N456 0.984 . S
H464 N452 0.984 . S
H465 N452 0.985 . S
C466 C467 1.363 . S
C466 C472 1.379 . S
C466 N474 1.356 . S
C467 C466 1.363 . S
C467 C473 1.363 . S
C468 C469 1.363 . S
C468 C473 1.379 . S
C468 N475 1.356 . S
C469 C468 1.363 . S
C469 C472 1.363 . S
N470 C472 1.356 . S
N470 H482 0.984 . S
N470 H483 0.985 . S
N471 C473 1.356 . S
N471 H476 0.984 . S
N471 H477 0.985 . S
C472 C466 1.379 . S
C472 C469 1.363 . S
C472 N470 1.356 . S
C473 C467 1.363 . S
C473 C468 1.379 . S
C473 N471 1.356 . S
N474 C466 1.356 . S
N474 H480 0.984 . S
N474 H481 0.984 . S
N475 C468 1.356 . S
N475 H478 0.984 . S
N475 H479 0.985 . S
H476 N471 0.984 . S
H477 N471 0.985 . S
H478 N475 0.984 . S
H479 N475 0.985 . S
H480 N474 0.984 . S
H481 N474 0.984 . S
H482 N470 0.984 . S
H483 N470 0.985 . S
C484 C485 1.363 . S
C484 C490 1.379 . S
C484 N492 1.356 . S
C485 C484 1.363 . S
C485 C491 1.363 . S
C486 C487 1.363 . S
C486 C491 1.379 . S
C486 N493 1.356 . S
C487 C486 1.363 . S
C487 C490 1.363 . S
N488 C490 1.356 . S
N488 H500 0.984 . S
N488 H501 0.985 . S
N489 C491 1.356 . S
N489 H494 0.984 . S
N489 H495 0.985 . S
C490 C484 1.379 . S
C490 C487 1.363 . S
C490 N488 1.356 . S
C491 C485 1.363 . S
C491 C486 1.379 . S
C491 N489 1.356 . S
N492 C484 1.356 . S
N492 H498 0.984 . S
N492 H499 0.984 . S
N493 C486 1.356 . S
N493 H496 0.984 . S
N493 H497 0.985 . S
H494 N489 0.984 . S
H495 N489 0.985 . S
H496 N493 0.984 . S
H497 N493 0.985 . S
H498 N492 0.984 . S
H499 N492 0.984 . S
H500 N488 0.984 . S
H501 N488 0.985 . S
C502 C503 1.363 . S
C502 C508 1.379 . S
C502 N510 1.356 . S
C503 C502 1.363 . S
C503 C509 1.363 . S
C504 C505 1.363 . S
C504 C509 1.379 . S
C504 N511 1.356 . S
C505 C504 1.363 . S
C505 C508 1.363 . S
N506 C508 1.356 . S
N506 H518 0.984 . S
N506 H519 0.985 . S
N507 C509 1.356 . S
N507 H512 0.984 . S
N507 H513 0.985 . S
C508 C502 1.379 . S
C508 C505 1.363 . S
C508 N506 1.356 . S
C509 C503 1.363 . S
C509 C504 1.379 . S
C509 N507 1.356 . S
N510 C502 1.356 . S
N510 H516 0.984 . S
N510 H517 0.984 . S
N511 C504 1.356 . S
N511 H514 0.984 . S
N511 H515 0.985 . S
H512 N507 0.984 . S
H513 N507 0.985 . S
H514 N511 0.984 . S
H515 N511 0.985 . S
H516 N510 0.984 . S
H517 N510 0.984 . S
H518 N506 0.984 . S
H519 N506 0.985 . S
C520 C521 1.363 . S
C520 C526 1.379 . S
C520 N528 1.356 . S
C521 C520 1.363 . S
C521 C527 1.363 . S
C522 C523 1.363 . S
C522 C527 1.379 . S
C522 N529 1.356 . S
C523 C522 1.363 . S
C523 C526 1.363 . S
N524 C526 1.356 . S
N524 H536 0.984 . S
N524 H537 0.985 . S
N525 C527 1.356 . S
N525 H530 0.984 . S
N525 H531 0.985 . S
C526 C520 1.379 . S
C526 C523 1.363 . S
C526 N524 1.356 . S
C527 C521 1.363 . S
C527 C522 1.379 . S
C527 N525 1.356 . S
N528 C520 1.356 . S
N528 H534 0.984 . S
N528 H535 0.984 . S
N529 C522 1.356 . S
N529 H532 0.984 . S
N529 H533 0.985 . S
H530 N525 0.984 . S
H531 N525 0.985 . S
H532 N529 0.984 . S
H533 N529 0.985 . S
H534 N528 0.984 . S
H535 N528 0.984 . S
H536 N524 0.984 . S
H537 N524 0.985 . S
C538 C539 1.363 . S
C538 C544 1.379 . S
C538 N546 1.356 . S
C539 C538 1.363 . S
C539 C545 1.363 . S
C540 C541 1.363 . S
C540 C545 1.379 . S
C540 N547 1.356 . S
C541 C540 1.363 . S
C541 C544 1.363 . S
N542 C544 1.356 . S
N542 H554 0.984 . S
N542 H555 0.985 . S
N543 C545 1.356 . S
N543 H548 0.984 . S
N543 H549 0.985 . S
C544 C538 1.379 . S
C544 C541 1.363 . S
C544 N542 1.356 . S
C545 C539 1.363 . S
C545 C540 1.379 . S
C545 N543 1.356 . S
N546 C538 1.356 . S
N546 H552 0.984 . S
N546 H553 0.984 . S
N547 C540 1.356 . S
N547 H550 0.984 . S
N547 H551 0.985 . S
H548 N543 0.984 . S
H549 N543 0.985 . S
H550 N547 0.984 . S
H551 N547 0.985 . S
H552 N546 0.984 . S
H553 N546 0.984 . S
H554 N542 0.984 . S
H555 N542 0.985 . S
C556 C557 1.363 . S
C556 C562 1.379 . S
C556 N564 1.356 . S
C557 C556 1.363 . S
C557 C563 1.363 . S
C558 C559 1.363 . S
C558 C563 1.379 . S
C558 N565 1.356 . S
C559 C558 1.363 . S
C559 C562 1.363 . S
N560 C562 1.356 . S
N560 H572 0.984 . S
N560 H573 0.985 . S
N561 C563 1.356 . S
N561 H566 0.984 . S
N561 H567 0.985 . S
C562 C556 1.379 . S
C562 C559 1.363 . S
C562 N560 1.356 . S
C563 C557 1.363 . S
C563 C558 1.379 . S
C563 N561 1.356 . S
N564 C556 1.356 . S
N564 H570 0.984 . S
N564 H571 0.984 . S
N565 C558 1.356 . S
N565 H568 0.984 . S
N565 H569 0.985 . S
H566 N561 0.984 . S
H567 N561 0.985 . S
H568 N565 0.984 . S
H569 N565 0.985 . S
H570 N564 0.984 . S
H571 N564 0.984 . S
H572 N560 0.984 . S
H573 N560 0.985 . S
C574 C575 1.363 . S
C574 C580 1.379 . S
C574 N582 1.356 . S
C575 C574 1.363 . S
C575 C581 1.363 . S
C576 C577 1.363 . S
C576 C581 1.379 . S
C576 N583 1.356 . S
C577 C576 1.363 . S
C577 C580 1.363 . S
N578 C580 1.356 . S
N578 H590 0.984 . S
N578 H591 0.985 . S
N579 C581 1.356 . S
N579 H584 0.984 . S
N579 H585 0.985 . S
C580 C574 1.379 . S
C580 C577 1.363 . S
C580 N578 1.356 . S
C581 C575 1.363 . S
C581 C576 1.379 . S
C581 N579 1.356 . S
N582 C574 1.356 . S
N582 H588 0.984 . S
N582 H589 0.984 . S
N583 C576 1.356 . S
N583 H586 0.984 . S
N583 H587 0.985 . S
H584 N579 0.984 . S
H585 N579 0.985 . S
H586 N583 0.984 . S
H587 N583 0.985 . S
H588 N582 0.984 . S
H589 N582 0.984 . S
H590 N578 0.984 . S
H591 N578 0.985 . S
C592 C593 1.363 . S
C592 C598 1.379 . S
C592 N600 1.356 . S
C593 C592 1.363 . S
C593 C599 1.363 . S
C594 C595 1.363 . S
C594 C599 1.379 . S
C594 N601 1.356 . S
C595 C594 1.363 . S
C595 C598 1.363 . S
N596 C598 1.356 . S
N596 H608 0.984 . S
N596 H609 0.985 . S
N597 C599 1.356 . S
N597 H602 0.984 . S
N597 H603 0.985 . S
C598 C592 1.379 . S
C598 C595 1.363 . S
C598 N596 1.356 . S
C599 C593 1.363 . S
C599 C594 1.379 . S
C599 N597 1.356 . S
N600 C592 1.356 . S
N600 H606 0.984 . S
N600 H607 0.984 . S
N601 C594 1.356 . S
N601 H604 0.984 . S
N601 H605 0.985 . S
H602 N597 0.984 . S
H603 N597 0.985 . S
H604 N601 0.984 . S
H605 N601 0.985 . S
H606 N600 0.984 . S
H607 N600 0.984 . S
H608 N596 0.984 . S
H609 N596 0.985 . S
C610 C611 1.363 . S
C610 C616 1.379 . S
C610 N618 1.356 . S
C611 C610 1.363 . S
C611 C617 1.363 . S
C612 C613 1.363 . S
C612 C617 1.379 . S
C612 N619 1.356 . S
C613 C612 1.363 . S
C613 C616 1.363 . S
N614 C616 1.356 . S
N614 H626 0.984 . S
N614 H627 0.985 . S
N615 C617 1.356 . S
N615 H620 0.984 . S
N615 H621 0.985 . S
C616 C610 1.379 . S
C616 C613 1.363 . S
C616 N614 1.356 . S
C617 C611 1.363 . S
C617 C612 1.379 . S
C617 N615 1.356 . S
N618 C610 1.356 . S
N618 H624 0.984 . S
N618 H625 0.984 . S
N619 C612 1.356 . S
N619 H622 0.984 . S
N619 H623 0.985 . S
H620 N615 0.984 . S
H621 N615 0.985 . S
H622 N619 0.984 . S
H623 N619 0.985 . S
H624 N618 0.984 . S
H625 N618 0.984 . S
H626 N614 0.984 . S
H627 N614 0.985 . S
C628 C629 1.363 . S
C628 C634 1.379 . S
C628 N636 1.356 . S
C629 C628 1.363 . S
C629 C635 1.363 . S
C630 C631 1.363 . S
C630 C635 1.379 . S
C630 N637 1.356 . S
C631 C630 1.363 . S
C631 C634 1.363 . S
N632 C634 1.356 . S
N632 H644 0.984 . S
N632 H645 0.985 . S
N633 C635 1.356 . S
N633 H638 0.984 . S
N633 H639 0.985 . S
C634 C628 1.379 . S
C634 C631 1.363 . S
C634 N632 1.356 . S
C635 C629 1.363 . S
C635 C630 1.379 . S
C635 N633 1.356 . S
N636 C628 1.356 . S
N636 H642 0.984 . S
N636 H643 0.984 . S
N637 C630 1.356 . S
N637 H640 0.984 . S
N637 H641 0.985 . S
H638 N633 0.984 . S
H639 N633 0.985 . S
H640 N637 0.984 . S
H641 N637 0.985 . S
H642 N636 0.984 . S
H643 N636 0.984 . S
H644 N632 0.984 . S
H645 N632 0.985 . S
C646 C647 1.363 . S
C646 C652 1.379 . S
C646 N654 1.356 . S
C647 C646 1.363 . S
C647 C653 1.363 . S
C648 C649 1.363 . S
C648 C653 1.379 . S
C648 N655 1.356 . S
C649 C648 1.363 . S
C649 C652 1.363 . S
N650 C652 1.356 . S
N650 H662 0.984 . S
N650 H663 0.985 . S
N651 C653 1.356 . S
N651 H656 0.984 . S
N651 H657 0.985 . S
C652 C646 1.379 . S
C652 C649 1.363 . S
C652 N650 1.356 . S
C653 C647 1.363 . S
C653 C648 1.379 . S
C653 N651 1.356 . S
N654 C646 1.356 . S
N654 H660 0.984 . S
N654 H661 0.984 . S
N655 C648 1.356 . S
N655 H658 0.984 . S
N655 H659 0.985 . S
H656 N651 0.984 . S
H657 N651 0.985 . S
H658 N655 0.984 . S
H659 N655 0.985 . S
H660 N654 0.984 . S
H661 N654 0.984 . S
H662 N650 0.984 . S
H663 N650 0.985 . S
C664 C665 1.363 . S
C664 C670 1.379 . S
C664 N672 1.356 . S
C665 C664 1.363 . S
C665 C671 1.363 . S
C666 C667 1.363 . S
C666 C671 1.379 . S
C666 N673 1.356 . S
C667 C666 1.363 . S
C667 C670 1.363 . S
N668 C670 1.356 . S
N668 H680 0.984 . S
N668 H681 0.985 . S
N669 C671 1.356 . S
N669 H674 0.984 . S
N669 H675 0.985 . S
C670 C664 1.379 . S
C670 C667 1.363 . S
C670 N668 1.356 . S
C671 C665 1.363 . S
C671 C666 1.379 . S
C671 N669 1.356 . S
N672 C664 1.356 . S
N672 H678 0.984 . S
N672 H679 0.984 . S
N673 C666 1.356 . S
N673 H676 0.984 . S
N673 H677 0.985 . S
H674 N669 0.984 . S
H675 N669 0.985 . S
H676 N673 0.984 . S
H677 N673 0.985 . S
H678 N672 0.984 . S
H679 N672 0.984 . S
H680 N668 0.984 . S
H681 N668 0.985 . S
C682 C683 1.363 . S
C682 C688 1.379 . S
C682 N690 1.356 . S
C683 C682 1.363 . S
C683 C689 1.363 . S
C684 C685 1.363 . S
C684 C689 1.379 . S
C684 N691 1.356 . S
C685 C684 1.363 . S
C685 C688 1.363 . S
N686 C688 1.356 . S
N686 H698 0.984 . S
N686 H699 0.985 . S
N687 C689 1.356 . S
N687 H692 0.984 . S
N687 H693 0.985 . S
C688 C682 1.379 . S
C688 C685 1.363 . S
C688 N686 1.356 . S
C689 C683 1.363 . S
C689 C684 1.379 . S
C689 N687 1.356 . S
N690 C682 1.356 . S
N690 H696 0.984 . S
N690 H697 0.984 . S
N691 C684 1.356 . S
N691 H694 0.984 . S
N691 H695 0.985 . S
H692 N687 0.984 . S
H693 N687 0.985 . S
H694 N691 0.984 . S
H695 N691 0.985 . S
H696 N690 0.984 . S
H697 N690 0.984 . S
H698 N686 0.984 . S
H699 N686 0.985 . S
C700 C701 1.363 . S
C700 C706 1.379 . S
C700 N708 1.356 . S
C701 C700 1.363 . S
C701 C707 1.363 . S
C702 C703 1.363 . S
C702 C707 1.379 . S
C702 N709 1.356 . S
C703 C702 1.363 . S
C703 C706 1.363 . S
N704 C706 1.356 . S
N704 H716 0.984 . S
N704 H717 0.985 . S
N705 C707 1.356 . S
N705 H710 0.984 . S
N705 H711 0.985 . S
C706 C700 1.379 . S
C706 C703 1.363 . S
C706 N704 1.356 . S
C707 C701 1.363 . S
C707 C702 1.379 . S
C707 N705 1.356 . S
N708 C700 1.356 . S
N708 H714 0.984 . S
N708 H715 0.984 . S
N709 C702 1.356 . S
N709 H712 0.984 . S
N709 H713 0.985 . S
H710 N705 0.984 . S
H711 N705 0.985 . S
H712 N709 0.984 . S
H713 N709 0.985 . S
H714 N708 0.984 . S
H715 N708 0.984 . S
H716 N704 0.984 . S
H717 N704 0.985 . S
C718 C719 1.363 . S
C718 C724 1.379 . S
C718 N726 1.356 . S
C719 C718 1.363 . S
C719 C725 1.363 . S
C720 C721 1.363 . S
C720 C725 1.379 . S
C720 N727 1.356 . S
C721 C720 1.363 . S
C721 C724 1.363 . S
N722 C724 1.356 . S
N722 H734 0.984 . S
N722 H735 0.985 . S
N723 C725 1.356 . S
N723 H728 0.984 . S
N723 H729 0.985 . S
C724 C718 1.379 . S
C724 C721 1.363 . S
C724 N722 1.356 . S
C725 C719 1.363 . S
C725 C720 1.379 . S
C725 N723 1.356 . S
N726 C718 1.356 . S
N726 H732 0.984 . S
N726 H733 0.984 . S
N727 C720 1.356 . S
N727 H730 0.984 . S
N727 H731 0.985 . S
H728 N723 0.984 . S
H729 N723 0.985 . S
H730 N727 0.984 . S
H731 N727 0.985 . S
H732 N726 0.984 . S
H733 N726 0.984 . S
H734 N722 0.984 . S
H735 N722 0.985 . S
C736 C737 1.363 . S
C736 C742 1.379 1_554 S
C736 N744 1.356 . S
C737 C736 1.363 . S
C737 C743 1.363 . S
C738 C739 1.363 . S
C738 C743 1.379 1_556 S
C738 N745 1.356 . S
C739 C738 1.363 . S
C739 C742 1.363 . S
N740 C742 1.356 . S
N740 H752 0.984 . S
N740 H753 0.985 . S
N741 C743 1.356 . S
N741 H746 0.984 . S
N741 H747 0.985 . S
C742 C736 1.379 1_556 S
C742 C739 1.363 . S
C742 N740 1.356 . S
C743 C737 1.363 . S
C743 C738 1.379 1_554 S
C743 N741 1.356 . S
N744 C736 1.356 . S
N744 H750 0.984 . S
N744 H751 0.984 . S
N745 C738 1.356 . S
N745 H748 0.984 . S
N745 H749 0.985 . S
H746 N741 0.984 . S
H747 N741 0.985 . S
H748 N745 0.984 . S
H749 N745 0.985 . S
H750 N744 0.984 . S
H751 N744 0.984 . S
H752 N740 0.984 . S
H753 N740 0.985 . S
C754 C755 1.363 . S
C754 C760 1.379 1_556 S
C754 N762 1.356 . S
C755 C754 1.363 . S
C755 C761 1.363 . S
C756 C757 1.363 . S
C756 C761 1.379 1_554 S
C756 N763 1.356 . S
C757 C756 1.363 . S
C757 C760 1.363 . S
N758 C760 1.356 . S
N758 H770 0.984 . S
N758 H771 0.985 . S
N759 C761 1.356 . S
N759 H764 0.984 . S
N759 H765 0.985 . S
C760 C754 1.379 1_554 S
C760 C757 1.363 . S
C760 N758 1.356 . S
C761 C755 1.363 . S
C761 C756 1.379 1_556 S
C761 N759 1.356 . S
N762 C754 1.356 . S
N762 H768 0.984 . S
N762 H769 0.984 . S
N763 C756 1.356 . S
N763 H766 0.984 . S
N763 H767 0.985 . S
H764 N759 0.984 . S
H765 N759 0.985 . S
H766 N763 0.984 . S
H767 N763 0.985 . S
H768 N762 0.984 . S
H769 N762 0.984 . S
H770 N758 0.984 . S
H771 N758 0.985 . S
C772 C773 1.363 . S
C772 C778 1.379 1_556 S
C772 N780 1.356 . S
C773 C772 1.363 . S
C773 C779 1.363 . S
C774 C775 1.363 . S
C774 C779 1.379 1_554 S
C774 N781 1.356 . S
C775 C774 1.363 . S
C775 C778 1.363 . S
N776 C778 1.356 . S
N776 H788 0.984 . S
N776 H789 0.985 . S
N777 C779 1.356 . S
N777 H782 0.984 . S
N777 H783 0.985 . S
C778 C772 1.379 1_554 S
C778 C775 1.363 . S
C778 N776 1.356 . S
C779 C773 1.363 . S
C779 C774 1.379 1_556 S
C779 N777 1.356 . S
N780 C772 1.356 . S
N780 H786 0.984 . S
N780 H787 0.984 . S
N781 C774 1.356 . S
N781 H784 0.984 . S
N781 H785 0.985 . S
H782 N777 0.984 . S
H783 N777 0.985 . S
H784 N781 0.984 . S
H785 N781 0.985 . S
H786 N780 0.984 . S
H787 N780 0.984 . S
H788 N776 0.984 . S
H789 N776 0.985 . S
C790 C791 1.363 . S
C790 C796 1.379 1_556 S
C790 N798 1.356 . S
C791 C790 1.363 . S
C791 C797 1.363 . S
C792 C793 1.363 . S
C792 C797 1.379 1_554 S
C792 N799 1.356 . S
C793 C792 1.363 . S
C793 C796 1.363 . S
N794 C796 1.356 . S
N794 H806 0.984 . S
N794 H807 0.985 . S
N795 C797 1.356 . S
N795 H800 0.984 . S
N795 H801 0.985 . S
C796 C790 1.379 1_554 S
C796 C793 1.363 . S
C796 N794 1.356 . S
C797 C791 1.363 . S
C797 C792 1.379 1_556 S
C797 N795 1.356 . S
N798 C790 1.356 . S
N798 H804 0.984 . S
N798 H805 0.984 . S
N799 C792 1.356 . S
N799 H802 0.984 . S
N799 H803 0.985 . S
H800 N795 0.984 . S
H801 N795 0.985 . S
H802 N799 0.984 . S
H803 N799 0.985 . S
H804 N798 0.984 . S
H805 N798 0.984 . S
H806 N794 0.984 . S
H807 N794 0.985 . S
C808 C809 1.363 . S
C808 C814 1.379 . S
C808 N816 1.356 . S
C809 C808 1.363 . S
C809 C815 1.363 . S
C810 C811 1.363 . S
C810 C815 1.379 . S
C810 N817 1.356 . S
C811 C810 1.363 . S
C811 C814 1.363 . S
N812 C814 1.356 . S
N812 H824 0.984 . S
N812 H825 0.985 . S
N813 C815 1.356 . S
N813 H818 0.984 . S
N813 H819 0.985 . S
C814 C808 1.379 . S
C814 C811 1.363 . S
C814 N812 1.356 . S
C815 C809 1.363 . S
C815 C810 1.379 . S
C815 N813 1.356 . S
N816 C808 1.356 . S
N816 H822 0.984 . S
N816 H823 0.984 . S
N817 C810 1.356 . S
N817 H820 0.984 . S
N817 H821 0.985 . S
H818 N813 0.984 . S
H819 N813 0.985 . S
H820 N817 0.984 . S
H821 N817 0.985 . S
H822 N816 0.984 . S
H823 N816 0.984 . S
H824 N812 0.984 . S
H825 N812 0.985 . S
C826 C827 1.363 . S
C826 C832 1.379 . S
C826 N834 1.356 . S
C827 C826 1.363 . S
C827 C833 1.363 . S
C828 C829 1.363 . S
C828 C833 1.379 . S
C828 N835 1.356 . S
C829 C828 1.363 . S
C829 C832 1.363 . S
N830 C832 1.356 . S
N830 H842 0.984 . S
N830 H843 0.985 . S
N831 C833 1.356 . S
N831 H836 0.984 . S
N831 H837 0.985 . S
C832 C826 1.379 . S
C832 C829 1.363 . S
C832 N830 1.356 . S
C833 C827 1.363 . S
C833 C828 1.379 . S
C833 N831 1.356 . S
N834 C826 1.356 . S
N834 H840 0.984 . S
N834 H841 0.984 . S
N835 C828 1.356 . S
N835 H838 0.984 . S
N835 H839 0.985 . S
H836 N831 0.984 . S
H837 N831 0.985 . S
H838 N835 0.984 . S
H839 N835 0.985 . S
H840 N834 0.984 . S
H841 N834 0.984 . S
H842 N830 0.984 . S
H843 N830 0.985 . S
C844 C845 1.363 . S
C844 C850 1.379 . S
C844 N852 1.356 . S
C845 C844 1.363 . S
C845 C851 1.363 . S
C846 C847 1.363 . S
C846 C851 1.379 . S
C846 N853 1.356 . S
C847 C846 1.363 . S
C847 C850 1.363 . S
N848 C850 1.356 . S
N848 H860 0.984 . S
N848 H861 0.985 . S
N849 C851 1.356 . S
N849 H854 0.984 . S
N849 H855 0.985 . S
C850 C844 1.379 . S
C850 C847 1.363 . S
C850 N848 1.356 . S
C851 C845 1.363 . S
C851 C846 1.379 . S
C851 N849 1.356 . S
N852 C844 1.356 . S
N852 H858 0.984 . S
N852 H859 0.984 . S
N853 C846 1.356 . S
N853 H856 0.984 . S
N853 H857 0.985 . S
H854 N849 0.984 . S
H855 N849 0.985 . S
H856 N853 0.984 . S
H857 N853 0.985 . S
H858 N852 0.984 . S
H859 N852 0.984 . S
H860 N848 0.984 . S
H861 N848 0.985 . S
C862 C863 1.363 . S
C862 C868 1.379 . S
C862 N870 1.356 . S
C863 C862 1.363 . S
C863 C869 1.363 . S
C864 C865 1.363 . S
C864 C869 1.379 . S
C864 N871 1.356 . S
C865 C864 1.363 . S
C865 C868 1.363 . S
N866 C868 1.356 . S
N866 H878 0.984 . S
N866 H879 0.985 . S
N867 C869 1.356 . S
N867 H872 0.984 . S
N867 H873 0.985 . S
C868 C862 1.379 . S
C868 C865 1.363 . S
C868 N866 1.356 . S
C869 C863 1.363 . S
C869 C864 1.379 . S
C869 N867 1.356 . S
N870 C862 1.356 . S
N870 H876 0.984 . S
N870 H877 0.984 . S
N871 C864 1.356 . S
N871 H874 0.984 . S
N871 H875 0.985 . S
H872 N867 0.984 . S
H873 N867 0.985 . S
H874 N871 0.984 . S
H875 N871 0.985 . S
H876 N870 0.984 . S
H877 N870 0.984 . S
H878 N866 0.984 . S
H879 N866 0.985 . S
C880 C881 1.363 . S
C880 C886 1.379 . S
C880 N888 1.356 . S
C881 C880 1.363 . S
C881 C887 1.363 . S
C882 C883 1.363 . S
C882 C887 1.379 . S
C882 N889 1.356 . S
C883 C882 1.363 . S
C883 C886 1.363 . S
N884 C886 1.356 . S
N884 H896 0.984 . S
N884 H897 0.985 . S
N885 C887 1.356 . S
N885 H890 0.984 . S
N885 H891 0.985 . S
C886 C880 1.379 . S
C886 C883 1.363 . S
C886 N884 1.356 . S
C887 C881 1.363 . S
C887 C882 1.379 . S
C887 N885 1.356 . S
N888 C880 1.356 . S
N888 H894 0.984 . S
N888 H895 0.984 . S
N889 C882 1.356 . S
N889 H892 0.984 . S
N889 H893 0.985 . S
H890 N885 0.984 . S
H891 N885 0.985 . S
H892 N889 0.984 . S
H893 N889 0.985 . S
H894 N888 0.984 . S
H895 N888 0.984 . S
H896 N884 0.984 . S
H897 N884 0.985 . S
C898 C899 1.363 . S
C898 C904 1.379 . S
C898 N906 1.356 . S
C899 C898 1.363 . S
C899 C905 1.363 . S
C900 C901 1.363 . S
C900 C905 1.379 . S
C900 N907 1.356 . S
C901 C900 1.363 . S
C901 C904 1.363 . S
N902 C904 1.356 . S
N902 H914 0.984 . S
N902 H915 0.985 . S
N903 C905 1.356 . S
N903 H908 0.984 . S
N903 H909 0.985 . S
C904 C898 1.379 . S
C904 C901 1.363 . S
C904 N902 1.356 . S
C905 C899 1.363 . S
C905 C900 1.379 . S
C905 N903 1.356 . S
N906 C898 1.356 . S
N906 H912 0.984 . S
N906 H913 0.984 . S
N907 C900 1.356 . S
N907 H910 0.984 . S
N907 H911 0.985 . S
H908 N903 0.984 . S
H909 N903 0.985 . S
H910 N907 0.984 . S
H911 N907 0.985 . S
H912 N906 0.984 . S
H913 N906 0.984 . S
H914 N902 0.984 . S
H915 N902 0.985 . S
C916 C917 1.363 . S
C916 C922 1.379 . S
C916 N924 1.356 . S
C917 C916 1.363 . S
C917 C923 1.363 . S
C918 C919 1.363 . S
C918 C923 1.379 . S
C918 N925 1.356 . S
C919 C918 1.363 . S
C919 C922 1.363 . S
N920 C922 1.356 . S
N920 H932 0.984 . S
N920 H933 0.985 . S
N921 C923 1.356 . S
N921 H926 0.984 . S
N921 H927 0.985 . S
C922 C916 1.379 . S
C922 C919 1.363 . S
C922 N920 1.356 . S
C923 C917 1.363 . S
C923 C918 1.379 . S
C923 N921 1.356 . S
N924 C916 1.356 . S
N924 H930 0.984 . S
N924 H931 0.984 . S
N925 C918 1.356 . S
N925 H928 0.984 . S
N925 H929 0.985 . S
H926 N921 0.984 . S
H927 N921 0.985 . S
H928 N925 0.984 . S
H929 N925 0.985 . S
H930 N924 0.984 . S
H931 N924 0.984 . S
H932 N920 0.984 . S
H933 N920 0.985 . S
C934 C935 1.363 . S
C934 C940 1.379 . S
C934 N942 1.356 . S
C935 C934 1.363 . S
C935 C941 1.363 . S
C936 C937 1.363 . S
C936 C941 1.379 . S
C936 N943 1.356 . S
C937 C936 1.363 . S
C937 C940 1.363 . S
N938 C940 1.356 . S
N938 H950 0.984 . S
N938 H951 0.985 . S
N939 C941 1.356 . S
N939 H944 0.984 . S
N939 H945 0.985 . S
C940 C934 1.379 . S
C940 C937 1.363 . S
C940 N938 1.356 . S
C941 C935 1.363 . S
C941 C936 1.379 . S
C941 N939 1.356 . S
N942 C934 1.356 . S
N942 H948 0.984 . S
N942 H949 0.984 . S
N943 C936 1.356 . S
N943 H946 0.984 . S
N943 H947 0.985 . S
H944 N939 0.984 . S
H945 N939 0.985 . S
H946 N943 0.984 . S
H947 N943 0.985 . S
H948 N942 0.984 . S
H949 N942 0.984 . S
H950 N938 0.984 . S
H951 N938 0.985 . S
C952 C953 1.363 . S
C952 C958 1.379 1_556 S
C952 N960 1.356 . S
C953 C952 1.363 . S
C953 C959 1.363 . S
C954 C955 1.363 . S
C954 C959 1.379 1_554 S
C954 N961 1.356 . S
C955 C954 1.363 . S
C955 C958 1.363 . S
N956 C958 1.356 . S
N956 H968 0.984 . S
N956 H969 0.985 . S
N957 C959 1.356 . S
N957 H962 0.984 . S
N957 H963 0.985 . S
C958 C952 1.379 1_554 S
C958 C955 1.363 . S
C958 N956 1.356 . S
C959 C953 1.363 . S
C959 C954 1.379 1_556 S
C959 N957 1.356 . S
N960 C952 1.356 . S
N960 H966 0.984 . S
N960 H967 0.984 . S
N961 C954 1.356 . S
N961 H964 0.984 . S
N961 H965 0.985 . S
H962 N957 0.984 . S
H963 N957 0.985 . S
H964 N961 0.984 . S
H965 N961 0.985 . S
H966 N960 0.984 . S
H967 N960 0.984 . S
H968 N956 0.984 . S
H969 N956 0.985 . S
C970 C971 1.363 . S
C970 C976 1.379 1_554 S
C970 N978 1.356 . S
C971 C970 1.363 . S
C971 C977 1.363 . S
C972 C973 1.363 . S
C972 C977 1.379 1_556 S
C972 N979 1.356 . S
C973 C972 1.363 . S
C973 C976 1.363 . S
N974 C976 1.356 . S
N974 H986 0.984 . S
N974 H987 0.985 . S
N975 C977 1.356 . S
N975 H980 0.984 . S
N975 H981 0.985 . S
C976 C970 1.379 1_556 S
C976 C973 1.363 . S
C976 N974 1.356 . S
C977 C971 1.363 . S
C977 C972 1.379 1_554 S
C977 N975 1.356 . S
N978 C970 1.356 . S
N978 H984 0.984 . S
N978 H985 0.984 . S
N979 C972 1.356 . S
N979 H982 0.984 . S
N979 H983 0.985 . S
H980 N975 0.984 . S
H981 N975 0.985 . S
H982 N979 0.984 . S
H983 N979 0.985 . S
H984 N978 0.984 . S
H985 N978 0.984 . S
H986 N974 0.984 . S
H987 N974 0.985 . S
C988 C989 1.363 . S
C988 C994 1.379 1_554 S
C988 N996 1.356 . S
C989 C988 1.363 . S
C989 C995 1.363 . S
C990 C991 1.363 . S
C990 C995 1.379 1_556 S
C990 N997 1.356 . S
C991 C990 1.363 . S
C991 C994 1.363 . S
N992 C994 1.356 . S
N992 H1004 0.984 . S
N992 H1005 0.985 . S
N993 C995 1.356 . S
N993 H998 0.984 . S
N993 H999 0.985 . S
C994 C988 1.379 1_556 S
C994 C991 1.363 . S
C994 N992 1.356 . S
C995 C989 1.363 . S
C995 C990 1.379 1_554 S
C995 N993 1.356 . S
N996 C988 1.356 . S
N996 H1002 0.984 . S
N996 H1003 0.984 . S
N997 C990 1.356 . S
N997 H1000 0.984 . S
N997 H1001 0.985 . S
H998 N993 0.984 . S
H999 N993 0.985 . S
H1000 N997 0.984 . S
H1001 N997 0.985 . S
H1002 N996 0.984 . S
H1003 N996 0.984 . S
H1004 N992 0.984 . S
H1005 N992 0.985 . S
C1006 C1007 1.363 . S
C1006 C1012 1.379 1_556 S
C1006 N1014 1.356 . S
C1007 C1006 1.363 . S
C1007 C1013 1.363 . S
C1008 C1009 1.363 . S
C1008 C1013 1.379 1_554 S
C1008 N1015 1.356 . S
C1009 C1008 1.363 . S
C1009 C1012 1.363 . S
N1010 C1012 1.356 . S
N1010 H1022 0.984 . S
N1010 H1023 0.985 . S
N1011 C1013 1.356 . S
N1011 H1016 0.984 . S
N1011 H1017 0.985 . S
C1012 C1006 1.379 1_554 S
C1012 C1009 1.363 . S
C1012 N1010 1.356 . S
C1013 C1007 1.363 . S
C1013 C1008 1.379 1_556 S
C1013 N1011 1.356 . S
N1014 C1006 1.356 . S
N1014 H1020 0.984 . S
N1014 H1021 0.984 . S
N1015 C1008 1.356 . S
N1015 H1018 0.984 . S
N1015 H1019 0.985 . S
H1016 N1011 0.984 . S
H1017 N1011 0.985 . S
H1018 N1015 0.984 . S
H1019 N1015 0.985 . S
H1020 N1014 0.984 . S
H1021 N1014 0.984 . S
H1022 N1010 0.984 . S
H1023 N1010 0.985 . S
C1024 C1025 1.363 . S
C1024 C1030 1.379 1_545 S
C1024 N1032 1.356 . S
C1025 C1024 1.363 . S
C1025 C1031 1.363 . S
C1026 C1027 1.363 . S
C1026 C1031 1.379 1_565 S
C1026 N1033 1.356 . S
C1027 C1026 1.363 . S
C1027 C1030 1.363 . S
N1028 C1030 1.356 . S
N1028 H1040 0.984 . S
N1028 H1041 0.985 . S
N1029 C1031 1.356 . S
N1029 H1034 0.984 . S
N1029 H1035 0.985 . S
C1030 C1024 1.379 1_565 S
C1030 C1027 1.363 . S
C1030 N1028 1.356 . S
C1031 C1025 1.363 . S
C1031 C1026 1.379 1_545 S
C1031 N1029 1.356 . S
N1032 C1024 1.356 . S
N1032 H1038 0.984 . S
N1032 H1039 0.984 . S
N1033 C1026 1.356 . S
N1033 H1036 0.984 . S
N1033 H1037 0.985 . S
H1034 N1029 0.984 . S
H1035 N1029 0.985 . S
H1036 N1033 0.984 . S
H1037 N1033 0.985 . S
H1038 N1032 0.984 . S
H1039 N1032 0.984 . S
H1040 N1028 0.984 . S
H1041 N1028 0.985 . S
C1042 C1043 1.363 . S
C1042 C1048 1.379 1_655 S
C1042 N1050 1.356 . S
C1043 C1042 1.363 . S
C1043 C1049 1.363 . S
C1044 C1045 1.363 . S
C1044 C1049 1.379 1_455 S
C1044 N1051 1.356 . S
C1045 C1044 1.363 . S
C1045 C1048 1.363 . S
N1046 C1048 1.356 . S
N1046 H1058 0.984 . S
N1046 H1059 0.985 . S
N1047 C1049 1.356 . S
N1047 H1052 0.984 . S
N1047 H1053 0.985 . S
C1048 C1042 1.379 1_455 S
C1048 C1045 1.363 . S
C1048 N1046 1.356 . S
C1049 C1043 1.363 . S
C1049 C1044 1.379 1_655 S
C1049 N1047 1.356 . S
N1050 C1042 1.356 . S
N1050 H1056 0.984 . S
N1050 H1057 0.984 . S
N1051 C1044 1.356 . S
N1051 H1054 0.984 . S
N1051 H1055 0.985 . S
H1052 N1047 0.984 . S
H1053 N1047 0.985 . S
H1054 N1051 0.984 . S
H1055 N1051 0.985 . S
H1056 N1050 0.984 . S
H1057 N1050 0.984 . S
H1058 N1046 0.984 . S
H1059 N1046 0.985 . S
C1060 C1061 1.363 1_565 S
C1060 C1066 1.379 . S
C1060 N1068 1.356 1_565 S
C1061 C1060 1.363 1_545 S
C1061 C1067 1.363 . S
C1062 C1063 1.363 1_545 S
C1062 C1067 1.379 . S
C1062 N1069 1.356 1_545 S
C1063 C1062 1.363 1_565 S
C1063 C1066 1.363 . S
N1064 C1066 1.356 . S
N1064 H1076 0.984 . S
N1064 H1077 0.985 . S
N1065 C1067 1.356 . S
N1065 H1070 0.984 . S
N1065 H1071 0.985 . S
C1066 C1060 1.379 . S
C1066 C1063 1.363 . S
C1066 N1064 1.356 . S
C1067 C1061 1.363 . S
C1067 C1062 1.379 . S
C1067 N1065 1.356 . S
N1068 C1060 1.356 1_545 S
N1068 H1074 0.984 1_545 S
N1068 H1075 0.984 . S
N1069 C1062 1.356 1_565 S
N1069 H1072 0.984 . S
N1069 H1073 0.985 1_565 S
H1070 N1065 0.984 . S
H1071 N1065 0.985 . S
H1072 N1069 0.984 . S
H1073 N1069 0.985 1_545 S
H1074 N1068 0.984 1_565 S
H1075 N1068 0.984 . S
H1076 N1064 0.984 . S
H1077 N1064 0.985 . S
C1078 C1079 1.363 . S
C1078 C1084 1.379 1_455 S
C1078 N1086 1.356 . S
C1079 C1078 1.363 . S
C1079 C1085 1.363 . S
C1080 C1081 1.363 . S
C1080 C1085 1.379 1_655 S
C1080 N1087 1.356 . S
C1081 C1080 1.363 . S
C1081 C1084 1.363 . S
N1082 C1084 1.356 . S
N1082 H1094 0.984 . S
N1082 H1095 0.985 . S
N1083 C1085 1.356 . S
N1083 H1088 0.984 . S
N1083 H1089 0.985 . S
C1084 C1078 1.379 1_655 S
C1084 C1081 1.363 . S
C1084 N1082 1.356 . S
C1085 C1079 1.363 . S
C1085 C1080 1.379 1_455 S
C1085 N1083 1.356 . S
N1086 C1078 1.356 . S
N1086 H1092 0.984 . S
N1086 H1093 0.984 . S
N1087 C1080 1.356 . S
N1087 H1090 0.984 . S
N1087 H1091 0.985 . S
H1088 N1083 0.984 . S
H1089 N1083 0.985 . S
H1090 N1087 0.984 . S
H1091 N1087 0.985 . S
H1092 N1086 0.984 . S
H1093 N1086 0.984 . S
H1094 N1082 0.984 . S
H1095 N1082 0.985 . S
C1096 C1097 1.363 . S
C1096 C1102 1.379 1_565 S
C1096 N1104 1.356 . S
C1097 C1096 1.363 . S
C1097 C1103 1.363 . S
C1098 C1099 1.363 . S
C1098 C1103 1.379 1_545 S
C1098 N1105 1.356 . S
C1099 C1098 1.363 . S
C1099 C1102 1.363 . S
N1100 C1102 1.356 . S
N1100 H1112 0.984 . S
N1100 H1113 0.985 . S
N1101 C1103 1.356 . S
N1101 H1106 0.984 . S
N1101 H1107 0.985 . S
C1102 C1096 1.379 1_545 S
C1102 C1099 1.363 . S
C1102 N1100 1.356 . S
C1103 C1097 1.363 . S
C1103 C1098 1.379 1_565 S
C1103 N1101 1.356 . S
N1104 C1096 1.356 . S
N1104 H1110 0.984 1_565 S
N1104 H1111 0.984 . S
N1105 C1098 1.356 . S
N1105 H1108 0.984 . S
N1105 H1109 0.985 1_545 S
H1106 N1101 0.984 . S
H1107 N1101 0.985 . S
H1108 N1105 0.984 . S
H1109 N1105 0.985 1_565 S
H1110 N1104 0.984 1_545 S
H1111 N1104 0.984 . S
H1112 N1100 0.984 . S
H1113 N1100 0.985 . S
C1114 C1115 1.363 . S
C1114 C1120 1.379 1_655 S
C1114 N1122 1.356 . S
C1115 C1114 1.363 . S
C1115 C1121 1.363 . S
C1116 C1117 1.363 . S
C1116 C1121 1.379 1_455 S
C1116 N1123 1.356 . S
C1117 C1116 1.363 . S
C1117 C1120 1.363 . S
N1118 C1120 1.356 . S
N1118 H1130 0.984 . S
N1118 H1131 0.985 . S
N1119 C1121 1.356 . S
N1119 H1124 0.984 . S
N1119 H1125 0.985 . S
C1120 C1114 1.379 1_455 S
C1120 C1117 1.363 . S
C1120 N1118 1.356 . S
C1121 C1115 1.363 . S
C1121 C1116 1.379 1_655 S
C1121 N1119 1.356 . S
N1122 C1114 1.356 . S
N1122 H1128 0.984 . S
N1122 H1129 0.984 . S
N1123 C1116 1.356 . S
N1123 H1126 0.984 . S
N1123 H1127 0.985 . S
H1124 N1119 0.984 . S
H1125 N1119 0.985 . S
H1126 N1123 0.984 . S
H1127 N1123 0.985 . S
H1128 N1122 0.984 . S
H1129 N1122 0.984 . S
H1130 N1118 0.984 . S
H1131 N1118 0.985 . S
C1132 C1133 1.363 . S
C1132 C1138 1.379 1_565 S
C1132 N1140 1.356 . S
C1133 C1132 1.363 . S
C1133 C1139 1.363 . S
C1134 C1135 1.363 . S
C1134 C1139 1.379 1_545 S
C1134 N1141 1.356 . S
C1135 C1134 1.363 . S
C1135 C1138 1.363 . S
N1136 C1138 1.356 . S
N1136 H1148 0.984 . S
N1136 H1149 0.985 . S
N1137 C1139 1.356 . S
N1137 H1142 0.984 . S
N1137 H1143 0.985 . S
C1138 C1132 1.379 1_545 S
C1138 C1135 1.363 . S
C1138 N1136 1.356 . S
C1139 C1133 1.363 . S
C1139 C1134 1.379 1_565 S
C1139 N1137 1.356 . S
N1140 C1132 1.356 . S
N1140 H1146 0.984 . S
N1140 H1147 0.984 . S
N1141 C1134 1.356 . S
N1141 H1144 0.984 . S
N1141 H1145 0.985 . S
H1142 N1137 0.984 . S
H1143 N1137 0.985 . S
H1144 N1141 0.984 . S
H1145 N1141 0.985 . S
H1146 N1140 0.984 . S
H1147 N1140 0.984 . S
H1148 N1136 0.984 . S
H1149 N1136 0.985 . S
C1150 C1151 1.363 . S
C1150 C1156 1.379 1_655 S
C1150 N1158 1.356 . S
C1151 C1150 1.363 . S
C1151 C1157 1.363 . S
C1152 C1153 1.363 . S
C1152 C1157 1.379 1_455 S
C1152 N1159 1.356 . S
C1153 C1152 1.363 . S
C1153 C1156 1.363 . S
N1154 C1156 1.356 . S
N1154 H1166 0.984 . S
N1154 H1167 0.985 . S
N1155 C1157 1.356 . S
N1155 H1160 0.984 . S
N1155 H1161 0.985 . S
C1156 C1150 1.379 1_455 S
C1156 C1153 1.363 . S
C1156 N1154 1.356 . S
C1157 C1151 1.363 . S
C1157 C1152 1.379 1_655 S
C1157 N1155 1.356 . S
N1158 C1150 1.356 . S
N1158 H1164 0.984 . S
N1158 H1165 0.984 . S
N1159 C1152 1.356 . S
N1159 H1162 0.984 . S
N1159 H1163 0.985 . S
H1160 N1155 0.984 . S
H1161 N1155 0.985 . S
H1162 N1159 0.984 . S
H1163 N1159 0.985 . S
H1164 N1158 0.984 . S
H1165 N1158 0.984 . S
H1166 N1154 0.984 . S
H1167 N1154 0.985 . S
C1168 C1169 1.363 . S
C1168 C1174 1.379 . S
C1168 N1176 1.356 . S
C1169 C1168 1.363 . S
C1169 C1175 1.363 . S
C1170 C1171 1.363 . S
C1170 C1175 1.379 . S
C1170 N1177 1.356 . S
C1171 C1170 1.363 . S
C1171 C1174 1.363 . S
N1172 C1174 1.356 . S
N1172 H1184 0.984 . S
N1172 H1185 0.985 . S
N1173 C1175 1.356 . S
N1173 H1178 0.984 . S
N1173 H1179 0.985 . S
C1174 C1168 1.379 . S
C1174 C1171 1.363 . S
C1174 N1172 1.356 . S
C1175 C1169 1.363 . S
C1175 C1170 1.379 . S
C1175 N1173 1.356 . S
N1176 C1168 1.356 . S
N1176 H1182 0.984 . S
N1176 H1183 0.984 . S
N1177 C1170 1.356 . S
N1177 H1180 0.984 . S
N1177 H1181 0.985 . S
H1178 N1173 0.984 . S
H1179 N1173 0.985 . S
H1180 N1177 0.984 . S
H1181 N1177 0.985 . S
H1182 N1176 0.984 . S
H1183 N1176 0.984 . S
H1184 N1172 0.984 . S
H1185 N1172 0.985 . S
C1186 C1187 1.363 . S
C1186 C1192 1.379 . S
C1186 N1194 1.356 . S
C1187 C1186 1.363 . S
C1187 C1193 1.363 . S
C1188 C1189 1.363 . S
C1188 C1193 1.379 . S
C1188 N1195 1.356 . S
C1189 C1188 1.363 . S
C1189 C1192 1.363 . S
N1190 C1192 1.356 . S
N1190 H1202 0.984 . S
N1190 H1203 0.985 . S
N1191 C1193 1.356 . S
N1191 H1196 0.984 . S
N1191 H1197 0.985 . S
C1192 C1186 1.379 . S
C1192 C1189 1.363 . S
C1192 N1190 1.356 . S
C1193 C1187 1.363 . S
C1193 C1188 1.379 . S
C1193 N1191 1.356 . S
N1194 C1186 1.356 . S
N1194 H1200 0.984 . S
N1194 H1201 0.984 . S
N1195 C1188 1.356 . S
N1195 H1198 0.984 . S
N1195 H1199 0.985 . S
H1196 N1191 0.984 . S
H1197 N1191 0.985 . S
H1198 N1195 0.984 . S
H1199 N1195 0.985 . S
H1200 N1194 0.984 . S
H1201 N1194 0.984 . S
H1202 N1190 0.984 . S
H1203 N1190 0.985 . S
C1204 C1205 1.363 . S
C1204 C1210 1.379 . S
C1204 N1212 1.356 . S
C1205 C1204 1.363 . S
C1205 C1211 1.363 . S
C1206 C1207 1.363 . S
C1206 C1211 1.379 . S
C1206 N1213 1.356 . S
C1207 C1206 1.363 . S
C1207 C1210 1.363 . S
N1208 C1210 1.356 . S
N1208 H1220 0.984 . S
N1208 H1221 0.985 . S
N1209 C1211 1.356 . S
N1209 H1214 0.984 . S
N1209 H1215 0.985 . S
C1210 C1204 1.379 . S
C1210 C1207 1.363 . S
C1210 N1208 1.356 . S
C1211 C1205 1.363 . S
C1211 C1206 1.379 . S
C1211 N1209 1.356 . S
N1212 C1204 1.356 . S
N1212 H1218 0.984 . S
N1212 H1219 0.984 . S
N1213 C1206 1.356 . S
N1213 H1216 0.984 . S
N1213 H1217 0.985 . S
H1214 N1209 0.984 . S
H1215 N1209 0.985 . S
H1216 N1213 0.984 . S
H1217 N1213 0.985 . S
H1218 N1212 0.984 . S
H1219 N1212 0.984 . S
H1220 N1208 0.984 . S
H1221 N1208 0.985 . S
C1222 C1223 1.363 . S
C1222 C1228 1.379 . S
C1222 N1230 1.356 . S
C1223 C1222 1.363 . S
C1223 C1229 1.363 . S
C1224 C1225 1.363 . S
C1224 C1229 1.379 . S
C1224 N1231 1.356 . S
C1225 C1224 1.363 . S
C1225 C1228 1.363 . S
N1226 C1228 1.356 . S
N1226 H1238 0.984 . S
N1226 H1239 0.985 . S
N1227 C1229 1.356 . S
N1227 H1232 0.984 . S
N1227 H1233 0.985 . S
C1228 C1222 1.379 . S
C1228 C1225 1.363 . S
C1228 N1226 1.356 . S
C1229 C1223 1.363 . S
C1229 C1224 1.379 . S
C1229 N1227 1.356 . S
N1230 C1222 1.356 . S
N1230 H1236 0.984 . S
N1230 H1237 0.984 . S
N1231 C1224 1.356 . S
N1231 H1234 0.984 . S
N1231 H1235 0.985 . S
H1232 N1227 0.984 . S
H1233 N1227 0.985 . S
H1234 N1231 0.984 . S
H1235 N1231 0.985 . S
H1236 N1230 0.984 . S
H1237 N1230 0.984 . S
H1238 N1226 0.984 . S
H1239 N1226 0.985 . S
C1240 C1241 1.363 . S
C1240 C1246 1.379 . S
C1240 N1248 1.356 . S
C1241 C1240 1.363 . S
C1241 C1247 1.363 . S
C1242 C1243 1.363 . S
C1242 C1247 1.379 . S
C1242 N1249 1.356 . S
C1243 C1242 1.363 . S
C1243 C1246 1.363 . S
N1244 C1246 1.356 . S
N1244 H1256 0.984 . S
N1244 H1257 0.985 . S
N1245 C1247 1.356 . S
N1245 H1250 0.984 . S
N1245 H1251 0.985 . S
C1246 C1240 1.379 . S
C1246 C1243 1.363 . S
C1246 N1244 1.356 . S
C1247 C1241 1.363 . S
C1247 C1242 1.379 . S
C1247 N1245 1.356 . S
N1248 C1240 1.356 . S
N1248 H1254 0.984 . S
N1248 H1255 0.984 . S
N1249 C1242 1.356 . S
N1249 H1252 0.984 . S
N1249 H1253 0.985 . S
H1250 N1245 0.984 . S
H1251 N1245 0.985 . S
H1252 N1249 0.984 . S
H1253 N1249 0.985 . S
H1254 N1248 0.984 . S
H1255 N1248 0.984 . S
H1256 N1244 0.984 . S
H1257 N1244 0.985 . S
C1258 C1259 1.363 . S
C1258 C1264 1.379 . S
C1258 N1266 1.356 . S
C1259 C1258 1.363 . S
C1259 C1265 1.363 . S
C1260 C1261 1.363 . S
C1260 C1265 1.379 . S
C1260 N1267 1.356 . S
C1261 C1260 1.363 . S
C1261 C1264 1.363 . S
N1262 C1264 1.356 . S
N1262 H1274 0.984 . S
N1262 H1275 0.985 . S
N1263 C1265 1.356 . S
N1263 H1268 0.984 . S
N1263 H1269 0.985 . S
C1264 C1258 1.379 . S
C1264 C1261 1.363 . S
C1264 N1262 1.356 . S
C1265 C1259 1.363 . S
C1265 C1260 1.379 . S
C1265 N1263 1.356 . S
N1266 C1258 1.356 . S
N1266 H1272 0.984 . S
N1266 H1273 0.984 . S
N1267 C1260 1.356 . S
N1267 H1270 0.984 . S
N1267 H1271 0.985 . S
H1268 N1263 0.984 . S
H1269 N1263 0.985 . S
H1270 N1267 0.984 . S
H1271 N1267 0.985 . S
H1272 N1266 0.984 . S
H1273 N1266 0.984 . S
H1274 N1262 0.984 . S
H1275 N1262 0.985 . S
C1276 C1277 1.363 . S
C1276 C1282 1.379 . S
C1276 N1284 1.356 . S
C1277 C1276 1.363 . S
C1277 C1283 1.363 . S
C1278 C1279 1.363 . S
C1278 C1283 1.379 . S
C1278 N1285 1.356 . S
C1279 C1278 1.363 . S
C1279 C1282 1.363 . S
N1280 C1282 1.356 . S
N1280 H1292 0.984 . S
N1280 H1293 0.985 . S
N1281 C1283 1.356 . S
N1281 H1286 0.984 . S
N1281 H1287 0.985 . S
C1282 C1276 1.379 . S
C1282 C1279 1.363 . S
C1282 N1280 1.356 . S
C1283 C1277 1.363 . S
C1283 C1278 1.379 . S
C1283 N1281 1.356 . S
N1284 C1276 1.356 . S
N1284 H1290 0.984 . S
N1284 H1291 0.984 . S
N1285 C1278 1.356 . S
N1285 H1288 0.984 . S
N1285 H1289 0.985 . S
H1286 N1281 0.984 . S
H1287 N1281 0.985 . S
H1288 N1285 0.984 . S
H1289 N1285 0.985 . S
H1290 N1284 0.984 . S
H1291 N1284 0.984 . S
H1292 N1280 0.984 . S
H1293 N1280 0.985 . S
C1294 C1295 1.363 . S
C1294 C1300 1.379 . S
C1294 N1302 1.356 . S
C1295 C1294 1.363 . S
C1295 C1301 1.363 . S
C1296 C1297 1.363 . S
C1296 C1301 1.379 . S
C1296 N1303 1.356 . S
C1297 C1296 1.363 . S
C1297 C1300 1.363 . S
N1298 C1300 1.356 . S
N1298 H1310 0.984 . S
N1298 H1311 0.985 . S
N1299 C1301 1.356 . S
N1299 H1304 0.984 . S
N1299 H1305 0.985 . S
C1300 C1294 1.379 . S
C1300 C1297 1.363 . S
C1300 N1298 1.356 . S
C1301 C1295 1.363 . S
C1301 C1296 1.379 . S
C1301 N1299 1.356 . S
N1302 C1294 1.356 . S
N1302 H1308 0.984 . S
N1302 H1309 0.984 . S
N1303 C1296 1.356 . S
N1303 H1306 0.984 . S
N1303 H1307 0.985 . S
H1304 N1299 0.984 . S
H1305 N1299 0.985 . S
H1306 N1303 0.984 . S
H1307 N1303 0.985 . S
H1308 N1302 0.984 . S
H1309 N1302 0.984 . S
H1310 N1298 0.984 . S
H1311 N1298 0.985 . S
C1312 C1313 1.363 . S
C1312 C1318 1.379 . S
C1312 N1320 1.356 . S
C1313 C1312 1.363 . S
C1313 C1319 1.363 . S
C1314 C1315 1.363 . S
C1314 C1319 1.379 . S
C1314 N1321 1.356 . S
C1315 C1314 1.363 . S
C1315 C1318 1.363 . S
N1316 C1318 1.356 . S
N1316 H1328 0.984 . S
N1316 H1329 0.985 . S
N1317 C1319 1.356 . S
N1317 H1322 0.984 . S
N1317 H1323 0.985 . S
C1318 C1312 1.379 . S
C1318 C1315 1.363 . S
C1318 N1316 1.356 . S
C1319 C1313 1.363 . S
C1319 C1314 1.379 . S
C1319 N1317 1.356 . S
N1320 C1312 1.356 . S
N1320 H1326 0.984 . S
N1320 H1327 0.984 . S
N1321 C1314 1.356 . S
N1321 H1324 0.984 . S
N1321 H1325 0.985 . S
H1322 N1317 0.984 . S
H1323 N1317 0.985 . S
H1324 N1321 0.984 . S
H1325 N1321 0.985 . S
H1326 N1320 0.984 . S
H1327 N1320 0.984 . S
H1328 N1316 0.984 . S
H1329 N1316 0.985 . S
C1330 C1331 1.363 . S
C1330 C1336 1.379 . S
C1330 N1338 1.356 . S
C1331 C1330 1.363 . S
C1331 C1337 1.363 . S
C1332 C1333 1.363 . S
C1332 C1337 1.379 . S
C1332 N1339 1.356 . S
C1333 C1332 1.363 . S
C1333 C1336 1.363 . S
N1334 C1336 1.356 . S
N1334 H1346 0.984 . S
N1334 H1347 0.985 . S
N1335 C1337 1.356 . S
N1335 H1340 0.984 . S
N1335 H1341 0.985 . S
C1336 C1330 1.379 . S
C1336 C1333 1.363 . S
C1336 N1334 1.356 . S
C1337 C1331 1.363 . S
C1337 C1332 1.379 . S
C1337 N1335 1.356 . S
N1338 C1330 1.356 . S
N1338 H1344 0.984 . S
N1338 H1345 0.984 . S
N1339 C1332 1.356 . S
N1339 H1342 0.984 . S
N1339 H1343 0.985 . S
H1340 N1335 0.984 . S
H1341 N1335 0.985 . S
H1342 N1339 0.984 . S
H1343 N1339 0.985 . S
H1344 N1338 0.984 . S
H1345 N1338 0.984 . S
H1346 N1334 0.984 . S
H1347 N1334 0.985 . S
C1348 C1349 1.363 . S
C1348 C1354 1.379 . S
C1348 N1356 1.356 . S
C1349 C1348 1.363 . S
C1349 C1355 1.363 . S
C1350 C1351 1.363 . S
C1350 C1355 1.379 . S
C1350 N1357 1.356 . S
C1351 C1350 1.363 . S
C1351 C1354 1.363 . S
N1352 C1354 1.356 . S
N1352 H1364 0.984 . S
N1352 H1365 0.985 . S
N1353 C1355 1.356 . S
N1353 H1358 0.984 . S
N1353 H1359 0.985 . S
C1354 C1348 1.379 . S
C1354 C1351 1.363 . S
C1354 N1352 1.356 . S
C1355 C1349 1.363 . S
C1355 C1350 1.379 . S
C1355 N1353 1.356 . S
N1356 C1348 1.356 . S
N1356 H1362 0.984 . S
N1356 H1363 0.984 . S
N1357 C1350 1.356 . S
N1357 H1360 0.984 . S
N1357 H1361 0.985 . S
H1358 N1353 0.984 . S
H1359 N1353 0.985 . S
H1360 N1357 0.984 . S
H1361 N1357 0.985 . S
H1362 N1356 0.984 . S
H1363 N1356 0.984 . S
H1364 N1352 0.984 . S
H1365 N1352 0.985 . S
C1366 C1367 1.363 . S
C1366 C1372 1.379 . S
C1366 N1374 1.356 . S
C1367 C1366 1.363 . S
C1367 C1373 1.363 . S
C1368 C1369 1.363 . S
C1368 C1373 1.379 . S
C1368 N1375 1.356 . S
C1369 C1368 1.363 . S
C1369 C1372 1.363 . S
N1370 C1372 1.356 . S
N1370 H1382 0.984 . S
N1370 H1383 0.985 . S
N1371 C1373 1.356 . S
N1371 H1376 0.984 . S
N1371 H1377 0.985 . S
C1372 C1366 1.379 . S
C1372 C1369 1.363 . S
C1372 N1370 1.356 . S
C1373 C1367 1.363 . S
C1373 C1368 1.379 . S
C1373 N1371 1.356 . S
N1374 C1366 1.356 . S
N1374 H1380 0.984 . S
N1374 H1381 0.984 . S
N1375 C1368 1.356 . S
N1375 H1378 0.984 . S
N1375 H1379 0.985 . S
H1376 N1371 0.984 . S
H1377 N1371 0.985 . S
H1378 N1375 0.984 . S
H1379 N1375 0.985 . S
H1380 N1374 0.984 . S
H1381 N1374 0.984 . S
H1382 N1370 0.984 . S
H1383 N1370 0.985 . S
C1384 C1385 1.363 . S
C1384 C1390 1.379 . S
C1384 N1392 1.356 . S
C1385 C1384 1.363 . S
C1385 C1391 1.363 . S
C1386 C1387 1.363 . S
C1386 C1391 1.379 . S
C1386 N1393 1.356 . S
C1387 C1386 1.363 . S
C1387 C1390 1.363 . S
N1388 C1390 1.356 . S
N1388 H1400 0.984 . S
N1388 H1401 0.985 . S
N1389 C1391 1.356 . S
N1389 H1394 0.984 . S
N1389 H1395 0.985 . S
C1390 C1384 1.379 . S
C1390 C1387 1.363 . S
C1390 N1388 1.356 . S
C1391 C1385 1.363 . S
C1391 C1386 1.379 . S
C1391 N1389 1.356 . S
N1392 C1384 1.356 . S
N1392 H1398 0.984 . S
N1392 H1399 0.984 . S
N1393 C1386 1.356 . S
N1393 H1396 0.984 . S
N1393 H1397 0.985 . S
H1394 N1389 0.984 . S
H1395 N1389 0.985 . S
H1396 N1393 0.984 . S
H1397 N1393 0.985 . S
H1398 N1392 0.984 . S
H1399 N1392 0.984 . S
H1400 N1388 0.984 . S
H1401 N1388 0.985 . S
C1402 C1403 1.363 . S
C1402 C1408 1.379 . S
C1402 N1410 1.356 . S
C1403 C1402 1.363 . S
C1403 C1409 1.363 . S
C1404 C1405 1.363 . S
C1404 C1409 1.379 . S
C1404 N1411 1.356 . S
C1405 C1404 1.363 . S
C1405 C1408 1.363 . S
N1406 C1408 1.356 . S
N1406 H1418 0.984 . S
N1406 H1419 0.985 . S
N1407 C1409 1.356 . S
N1407 H1412 0.984 . S
N1407 H1413 0.985 . S
C1408 C1402 1.379 . S
C1408 C1405 1.363 . S
C1408 N1406 1.356 . S
C1409 C1403 1.363 . S
C1409 C1404 1.379 . S
C1409 N1407 1.356 . S
N1410 C1402 1.356 . S
N1410 H1416 0.984 . S
N1410 H1417 0.984 . S
N1411 C1404 1.356 . S
N1411 H1414 0.984 . S
N1411 H1415 0.985 . S
H1412 N1407 0.984 . S
H1413 N1407 0.985 . S
H1414 N1411 0.984 . S
H1415 N1411 0.985 . S
H1416 N1410 0.984 . S
H1417 N1410 0.984 . S
H1418 N1406 0.984 . S
H1419 N1406 0.985 . S
C1420 C1421 1.363 . S
C1420 C1426 1.379 . S
C1420 N1428 1.356 . S
C1421 C1420 1.363 . S
C1421 C1427 1.363 . S
C1422 C1423 1.363 . S
C1422 C1427 1.379 . S
C1422 N1429 1.356 . S
C1423 C1422 1.363 . S
C1423 C1426 1.363 . S
N1424 C1426 1.356 . S
N1424 H1436 0.984 . S
N1424 H1437 0.985 . S
N1425 C1427 1.356 . S
N1425 H1430 0.984 . S
N1425 H1431 0.985 . S
C1426 C1420 1.379 . S
C1426 C1423 1.363 . S
C1426 N1424 1.356 . S
C1427 C1421 1.363 . S
C1427 C1422 1.379 . S
C1427 N1425 1.356 . S
N1428 C1420 1.356 . S
N1428 H1434 0.984 . S
N1428 H1435 0.984 . S
N1429 C1422 1.356 . S
N1429 H1432 0.984 . S
N1429 H1433 0.985 . S
H1430 N1425 0.984 . S
H1431 N1425 0.985 . S
H1432 N1429 0.984 . S
H1433 N1429 0.985 . S
H1434 N1428 0.984 . S
H1435 N1428 0.984 . S
H1436 N1424 0.984 . S
H1437 N1424 0.985 . S
C1438 C1439 1.363 . S
C1438 C1444 1.379 . S
C1438 N1446 1.356 . S
C1439 C1438 1.363 . S
C1439 C1445 1.363 . S
C1440 C1441 1.363 . S
C1440 C1445 1.379 . S
C1440 N1447 1.356 . S
C1441 C1440 1.363 . S
C1441 C1444 1.363 . S
N1442 C1444 1.356 . S
N1442 H1454 0.984 . S
N1442 H1455 0.985 . S
N1443 C1445 1.356 . S
N1443 H1448 0.984 . S
N1443 H1449 0.985 . S
C1444 C1438 1.379 . S
C1444 C1441 1.363 . S
C1444 N1442 1.356 . S
C1445 C1439 1.363 . S
C1445 C1440 1.379 . S
C1445 N1443 1.356 . S
N1446 C1438 1.356 . S
N1446 H1452 0.984 . S
N1446 H1453 0.984 . S
N1447 C1440 1.356 . S
N1447 H1450 0.984 . S
N1447 H1451 0.985 . S
H1448 N1443 0.984 . S
H1449 N1443 0.985 . S
H1450 N1447 0.984 . S
H1451 N1447 0.985 . S
H1452 N1446 0.984 . S
H1453 N1446 0.984 . S
H1454 N1442 0.984 . S
H1455 N1442 0.985 . S
C1456 C1457 1.363 . S
C1456 C1462 1.379 . S
C1456 N1464 1.356 . S
C1457 C1456 1.363 . S
C1457 C1463 1.363 . S
C1458 C1459 1.363 . S
C1458 C1463 1.379 . S
C1458 N1465 1.356 . S
C1459 C1458 1.363 . S
C1459 C1462 1.363 . S
N1460 C1462 1.356 . S
N1460 H1472 0.984 . S
N1460 H1473 0.985 . S
N1461 C1463 1.356 . S
N1461 H1466 0.984 . S
N1461 H1467 0.985 . S
C1462 C1456 1.379 . S
C1462 C1459 1.363 . S
C1462 N1460 1.356 . S
C1463 C1457 1.363 . S
C1463 C1458 1.379 . S
C1463 N1461 1.356 . S
N1464 C1456 1.356 . S
N1464 H1470 0.984 . S
N1464 H1471 0.984 . S
N1465 C1458 1.356 . S
N1465 H1468 0.984 . S
N1465 H1469 0.985 . S
H1466 N1461 0.984 . S
H1467 N1461 0.985 . S
H1468 N1465 0.984 . S
H1469 N1465 0.985 . S
H1470 N1464 0.984 . S
H1471 N1464 0.984 . S
H1472 N1460 0.984 . S
H1473 N1460 0.985 . S
C1474 C1475 1.363 . S
C1474 C1480 1.379 . S
C1474 N1482 1.356 . S
C1475 C1474 1.363 . S
C1475 C1481 1.363 . S
C1476 C1477 1.363 . S
C1476 C1481 1.379 . S
C1476 N1483 1.356 . S
C1477 C1476 1.363 . S
C1477 C1480 1.363 . S
N1478 C1480 1.356 . S
N1478 H1490 0.984 . S
N1478 H1491 0.985 . S
N1479 C1481 1.356 . S
N1479 H1484 0.984 . S
N1479 H1485 0.985 . S
C1480 C1474 1.379 . S
C1480 C1477 1.363 . S
C1480 N1478 1.356 . S
C1481 C1475 1.363 . S
C1481 C1476 1.379 . S
C1481 N1479 1.356 . S
N1482 C1474 1.356 . S
N1482 H1488 0.984 . S
N1482 H1489 0.984 . S
N1483 C1476 1.356 . S
N1483 H1486 0.984 . S
N1483 H1487 0.985 . S
H1484 N1479 0.984 . S
H1485 N1479 0.985 . S
H1486 N1483 0.984 . S
H1487 N1483 0.985 . S
H1488 N1482 0.984 . S
H1489 N1482 0.984 . S
H1490 N1478 0.984 . S
H1491 N1478 0.985 . S
C1492 C1493 1.363 . S
C1492 C1498 1.379 . S
C1492 N1500 1.356 . S
C1493 C1492 1.363 . S
C1493 C1499 1.363 . S
C1494 C1495 1.363 . S
C1494 C1499 1.379 . S
C1494 N1501 1.356 . S
C1495 C1494 1.363 . S
C1495 C1498 1.363 . S
N1496 C1498 1.356 . S
N1496 H1508 0.984 . S
N1496 H1509 0.985 . S
N1497 C1499 1.356 . S
N1497 H1502 0.984 . S
N1497 H1503 0.985 . S
C1498 C1492 1.379 . S
C1498 C1495 1.363 . S
C1498 N1496 1.356 . S
C1499 C1493 1.363 . S
C1499 C1494 1.379 . S
C1499 N1497 1.356 . S
N1500 C1492 1.356 . S
N1500 H1506 0.984 . S
N1500 H1507 0.984 . S
N1501 C1494 1.356 . S
N1501 H1504 0.984 . S
N1501 H1505 0.985 . S
H1502 N1497 0.984 . S
H1503 N1497 0.985 . S
H1504 N1501 0.984 . S
H1505 N1501 0.985 . S
H1506 N1500 0.984 . S
H1507 N1500 0.984 . S
H1508 N1496 0.984 . S
H1509 N1496 0.985 . S
C1510 C1511 1.363 . S
C1510 C1516 1.379 . S
C1510 N1518 1.356 . S
C1511 C1510 1.363 . S
C1511 C1517 1.363 . S
C1512 C1513 1.363 . S
C1512 C1517 1.379 . S
C1512 N1519 1.356 . S
C1513 C1512 1.363 . S
C1513 C1516 1.363 . S
N1514 C1516 1.356 . S
N1514 H1526 0.984 . S
N1514 H1527 0.985 . S
N1515 C1517 1.356 . S
N1515 H1520 0.984 . S
N1515 H1521 0.985 . S
C1516 C1510 1.379 . S
C1516 C1513 1.363 . S
C1516 N1514 1.356 . S
C1517 C1511 1.363 . S
C1517 C1512 1.379 . S
C1517 N1515 1.356 . S
N1518 C1510 1.356 . S
N1518 H1524 0.984 . S
N1518 H1525 0.984 . S
N1519 C1512 1.356 . S
N1519 H1522 0.984 . S
N1519 H1523 0.985 . S
H1520 N1515 0.984 . S
H1521 N1515 0.985 . S
H1522 N1519 0.984 . S
H1523 N1519 0.985 . S
H1524 N1518 0.984 . S
H1525 N1518 0.984 . S
H1526 N1514 0.984 . S
H1527 N1514 0.985 . S
C1528 C1529 1.363 . S
C1528 C1534 1.379 . S
C1528 N1536 1.356 . S
C1529 C1528 1.363 . S
C1529 C1535 1.363 . S
C1530 C1531 1.363 . S
C1530 C1535 1.379 . S
C1530 N1537 1.356 . S
C1531 C1530 1.363 . S
C1531 C1534 1.363 . S
N1532 C1534 1.356 . S
N1532 H1544 0.984 . S
N1532 H1545 0.985 . S
N1533 C1535 1.356 . S
N1533 H1538 0.984 . S
N1533 H1539 0.985 . S
C1534 C1528 1.379 . S
C1534 C1531 1.363 . S
C1534 N1532 1.356 . S
C1535 C1529 1.363 . S
C1535 C1530 1.379 . S
C1535 N1533 1.356 . S
N1536 C1528 1.356 . S
N1536 H1542 0.984 . S
N1536 H1543 0.984 . S
N1537 C1530 1.356 . S
N1537 H1540 0.984 . S
N1537 H1541 0.985 . S
H1538 N1533 0.984 . S
H1539 N1533 0.985 . S
H1540 N1537 0.984 . S
H1541 N1537 0.985 . S
H1542 N1536 0.984 . S
H1543 N1536 0.984 . S
H1544 N1532 0.984 . S
H1545 N1532 0.985 . S
C1546 C1547 1.363 . S
C1546 C1552 1.379 . S
C1546 N1554 1.356 . S
C1547 C1546 1.363 . S
C1547 C1553 1.363 . S
C1548 C1549 1.363 . S
C1548 C1553 1.379 . S
C1548 N1555 1.356 . S
C1549 C1548 1.363 . S
C1549 C1552 1.363 . S
N1550 C1552 1.356 . S
N1550 H1562 0.984 . S
N1550 H1563 0.985 . S
N1551 C1553 1.356 . S
N1551 H1556 0.984 . S
N1551 H1557 0.985 . S
C1552 C1546 1.379 . S
C1552 C1549 1.363 . S
C1552 N1550 1.356 . S
C1553 C1547 1.363 . S
C1553 C1548 1.379 . S
C1553 N1551 1.356 . S
N1554 C1546 1.356 . S
N1554 H1560 0.984 . S
N1554 H1561 0.984 . S
N1555 C1548 1.356 . S
N1555 H1558 0.984 . S
N1555 H1559 0.985 . S
H1556 N1551 0.984 . S
H1557 N1551 0.985 . S
H1558 N1555 0.984 . S
H1559 N1555 0.985 . S
H1560 N1554 0.984 . S
H1561 N1554 0.984 . S
H1562 N1550 0.984 . S
H1563 N1550 0.985 . S
C1564 C1565 1.363 . S
C1564 C1570 1.379 . S
C1564 N1572 1.356 . S
C1565 C1564 1.363 . S
C1565 C1571 1.363 . S
C1566 C1567 1.363 . S
C1566 C1571 1.379 . S
C1566 N1573 1.356 . S
C1567 C1566 1.363 . S
C1567 C1570 1.363 . S
N1568 C1570 1.356 . S
N1568 H1580 0.984 . S
N1568 H1581 0.985 . S
N1569 C1571 1.356 . S
N1569 H1574 0.984 . S
N1569 H1575 0.985 . S
C1570 C1564 1.379 . S
C1570 C1567 1.363 . S
C1570 N1568 1.356 . S
C1571 C1565 1.363 . S
C1571 C1566 1.379 . S
C1571 N1569 1.356 . S
N1572 C1564 1.356 . S
N1572 H1578 0.984 . S
N1572 H1579 0.984 . S
N1573 C1566 1.356 . S
N1573 H1576 0.984 . S
N1573 H1577 0.985 . S
H1574 N1569 0.984 . S
H1575 N1569 0.985 . S
H1576 N1573 0.984 . S
H1577 N1573 0.985 . S
H1578 N1572 0.984 . S
H1579 N1572 0.984 . S
H1580 N1568 0.984 . S
H1581 N1568 0.985 . S
C1582 C1583 1.363 . S
C1582 C1588 1.379 . S
C1582 N1590 1.356 . S
C1583 C1582 1.363 . S
C1583 C1589 1.363 . S
C1584 C1585 1.363 . S
C1584 C1589 1.379 . S
C1584 N1591 1.356 . S
C1585 C1584 1.363 . S
C1585 C1588 1.363 . S
N1586 C1588 1.356 . S
N1586 H1598 0.984 . S
N1586 H1599 0.985 . S
N1587 C1589 1.356 . S
N1587 H1592 0.984 . S
N1587 H1593 0.985 . S
C1588 C1582 1.379 . S
C1588 C1585 1.363 . S
C1588 N1586 1.356 . S
C1589 C1583 1.363 . S
C1589 C1584 1.379 . S
C1589 N1587 1.356 . S
N1590 C1582 1.356 . S
N1590 H1596 0.984 . S
N1590 H1597 0.984 . S
N1591 C1584 1.356 . S
N1591 H1594 0.984 . S
N1591 H1595 0.985 . S
H1592 N1587 0.984 . S
H1593 N1587 0.985 . S
H1594 N1591 0.984 . S
H1595 N1591 0.985 . S
H1596 N1590 0.984 . S
H1597 N1590 0.984 . S
H1598 N1586 0.984 . S
H1599 N1586 0.985 . S
C449 C411 1.546 . S
C451 C5 1.546 . S
C467 C19 1.546 . S
C469 C425 1.546 . S
C485 C439 1.546 . S
C487 C33 1.546 . S
C503 C397 1.546 . S
C505 C47 1.546 . S
C521 C61 1.546 . S
C523 C383 1.546 . S
C539 C341 1.546 . S
C541 C75 1.546 . S
C557 C89 1.546 . S
C559 C355 1.546 . S
C575 C369 1.546 . S
C577 C103 1.546 . S
C593 C117 1.546 . S
C595 C299 1.546 . S
C611 C131 1.546 . S
C613 C313 1.546 . S
C629 C327 1.546 . S
C631 C145 1.546 . S
C647 C159 1.546 . S
C649 C285 1.546 . S
C665 C271 1.546 . S
C667 C173 1.546 . S
C683 C229 1.546 . S
C685 C187 1.546 . S
C701 C201 1.546 . S
C703 C243 1.546 . S
C719 C215 1.546 . S
C721 C257 1.546 . S
C737 C0 1.429 . S
C739 C140 1.429 . S
C755 C154 1.429 . S
C757 C14 1.429 . S
C773 C112 1.429 . S
C775 C28 1.429 . S
C791 C126 1.429 . S
C793 C42 1.429 . S
C809 C56 1.429 . S
C811 C196 1.429 . S
C827 C210 1.429 . S
C829 C70 1.429 . S
C845 C168 1.429 . S
C847 C84 1.429 . S
C863 C182 1.429 . S
C865 C98 1.429 . S
C881 C224 1.429 . S
C883 C364 1.429 . S
C899 C378 1.429 . S
C901 C238 1.429 . S
C917 C336 1.429 . S
C919 C252 1.429 . S
C935 C266 1.429 . S
C937 C350 1.429 . S
C953 C280 1.429 . S
C955 C420 1.429 . S
C971 C434 1.429 . S
C973 C294 1.429 . S
C989 C392 1.429 . S
C991 C308 1.429 . S
C1007 C322 1.429 . S
C1009 C406 1.429 . S
C1025 C11 1.502 . S
C1027 C67 1.502 . S
C1043 C25 1.502 . S
C1045 C81 1.502 . S
C1061 C95 1.502 . S
C1063 C39 1.502 . S
C1079 C53 1.502 . S
C1081 C109 1.502 . S
C1097 C123 1.502 . S
C1099 C179 1.502 . S
C1115 C193 1.502 . S
C1117 C137 1.502 . S
C1133 C207 1.502 . S
C1135 C151 1.502 . S
C1151 C165 1.502 . S
C1153 C221 1.502 . S
C1169 C235 1.502 . S
C1171 C291 1.502 . S
C1187 C305 1.502 . S
C1189 C249 1.502 . S
C1205 C263 1.502 . S
C1207 C319 1.502 . S
C1223 C333 1.502 . S
C1225 C277 1.502 . S
C1241 C403 1.502 . S
C1243 C347 1.502 . S
C1259 C361 1.502 . S
C1261 C417 1.502 . S
C1277 C375 1.502 . S
C1279 C431 1.502 . S
C1295 C389 1.502 . S
C1297 C445 1.502 . S
C1313 C9 1.433 . S
C1315 C79 1.433 . S
C1331 C23 1.433 . S
C1333 C93 1.433 . S
C1349 C107 1.433 . S
C1351 C37 1.433 . S
C1367 C65 1.433 . S
C1369 C51 1.433 . S
C1385 C191 1.433 . S
C1387 C121 1.433 . S
C1403 C205 1.433 . S
C1405 C135 1.433 . S
C1421 C219 1.433 . S
C1423 C149 1.433 . S
C1439 C163 1.433 . S
C1441 C177 1.433 . S
C1457 C233 1.433 . S
C1459 C303 1.433 . S
C1475 C317 1.433 . S
C1477 C247 1.433 . S
C1493 C331 1.433 . S
C1495 C261 1.433 . S
C1511 C275 1.433 . S
C1513 C289 1.433 . S
C1529 C415 1.433 . S
C1531 C345 1.433 . S
C1547 C359 1.433 . S
C1549 C429 1.433 . S
C1565 C373 1.433 . S
C1567 C443 1.433 . S
C1583 C401 1.433 . S
C1585 C387 1.433 . S
