# Generated by pormake.
# Topology qdl, (4)-cn, num edge types: 1
# Building blocks:
#     Node 0, Type 0, BuildingBlock: ESEHIV_clean_sbu_0, # of connection points: 4
#     Node 1, Type 0, BuildingBlock: ESEHIV_clean_sbu_0, # of connection points: 4
#     Node 2, Type 0, BuildingBlock: ESEHIV_clean_sbu_0, # of connection points: 4
#     Node 3, Type 0, BuildingBlock: ESEHIV_clean_sbu_0, # of connection points: 4
#     Node 4, Type 0, BuildingBlock: ESEHIV_clean_sbu_0, # of connection points: 4
#     Node 5, Type 0, BuildingBlock: ESEHIV_clean_sbu_0, # of connection points: 4
#     Edge 6, Type (0, 0), BuildingBlock: EZIPEK_clean_linker_0, # of connection points: 2
#     Edge 7, Type (0, 0), BuildingBlock: EZIPEK_clean_linker_0, # of connection points: 2
#     Edge 8, Type (0, 0), BuildingBlock: EZIPEK_clean_linker_0, # of connection points: 2
#     Edge 9, Type (0, 0), BuildingBlock: EZIPEK_clean_linker_0, # of connection points: 2
#     Edge 10, Type (0, 0), BuildingBlock: EZIPEK_clean_linker_0, # of connection points: 2
#     Edge 11, Type (0, 0), BuildingBlock: EZIPEK_clean_linker_0, # of connection points: 2
#     Edge 12, Type (0, 0), BuildingBlock: EZIPEK_clean_linker_0, # of connection points: 2
#     Edge 13, Type (0, 0), BuildingBlock: EZIPEK_clean_linker_0, # of connection points: 2
#     Edge 14, Type (0, 0), BuildingBlock: EZIPEK_clean_linker_0, # of connection points: 2
#     Edge 15, Type (0, 0), BuildingBlock: EZIPEK_clean_linker_0, # of connection points: 2
#     Edge 16, Type (0, 0), BuildingBlock: EZIPEK_clean_linker_0, # of connection points: 2
#     Edge 17, Type (0, 0), BuildingBlock: EZIPEK_clean_linker_0, # of connection points: 2
# Relax obj value: 0.000
# Max RMSD: 0.137
# Mean RMSD: 0.085
data_MOF--net-qdl--node1-ESEHIV_clean_sbu_0--edge1-EZIPEK_clean_linker_0
_symmetry_space_group_name_H-M    P1
_symmetry_Int_Tables_number       1
_symmetry_cell_setting            triclinic
loop_
_symmetry_equiv_pos_as_xyz
'x, y, z'
_cell_length_a     10.907435
_cell_length_b     13.053339
_cell_length_c     67.308653
_cell_angle_alpha  99.838339
_cell_angle_beta   98.650028
_cell_angle_gamma 114.78442
loop_
_atom_site_label
_atom_site_type_symbol
_atom_site_fract_x
_atom_site_fract_y
_atom_site_fract_z
_atom_type_partial_charge
Cu0 Cu 0.53334 0.34331 0.1145 0.0
N1 N 0.64801 0.27 0.11564 0.0
N2 N 0.70461 0.12354 0.11448 0.0
C3 C 0.61701 0.16572 0.11979 0.0
C4 C 0.79492 0.20451 0.10683 0.0
C5 C 0.7595 0.29469 0.10753 0.0
O6 O 0.43028 0.31378 0.13595 0.0
C7 C 0.33027 0.29972 0.07542 0.0
O8 O 0.26275 0.34403 0.08566 0.0
H9 H 0.52751 0.11822 0.12541 0.0
H10 H 0.80643 0.36964 0.10141 0.0
N11 N 0.63801 0.50534 0.12223 0.0
N12 N 0.68737 0.692 0.12457 0.0
C13 C 0.63121 0.58308 0.11177 0.0
C14 C 0.7021 0.56741 0.14211 0.0
C15 C 0.73238 0.68222 0.14361 0.0
C16 C 0.33648 0.21969 0.13789 0.0
O17 O 0.28681 0.12274 0.12303 0.0
H18 H 0.57727 0.55916 0.09555 0.0
H19 H 0.71569 0.5299 0.15491 0.0
O20 O 0.43327 0.29115 0.08525 0.0
H21 H 0.87762 0.19698 0.10061 0.0
H22 H 0.77865 0.75268 0.15773 0.0
Cu23 Cu 0.13149 1.07091 0.42539 0.0
N24 N 0.15537 0.15895 0.40556 0.0
N25 N 0.1455 0.19523 0.37413 0.0
C26 C 0.14648 0.11846 0.38527 0.0
C27 C 0.15557 0.28803 0.38796 0.0
C28 C 0.16176 0.26552 0.40732 0.0
O29 O 0.23255 0.9797 0.42166 0.0
C30 C 0.86987 1.03987 0.42681 0.0
O31 O 0.94363 0.15335 0.4345 0.0
H32 H 0.13197 1.03146 0.37853 0.0
H33 H 0.16304 0.32034 0.42142 0.0
N34 N 0.20312 0.16228 0.45312 0.0
N35 N 0.23784 0.20745 0.48775 0.0
C36 C 0.16956 0.1228 0.4698 0.0
C37 C 0.29675 0.27571 0.46089 0.0
C38 C 0.31819 0.3039 0.48231 0.0
C39 C 0.36123 1.04073 0.42278 0.0
O40 O 0.41154 0.15439 0.42585 0.0
H41 H 0.09683 1.03367 0.46881 0.0
H42 H 0.34656 0.33362 0.45167 0.0
O43 O 0.93147 0.97926 0.42155 0.0
H44 H 0.15175 0.36403 0.38412 0.0
H45 H 0.38743 0.38819 0.49306 0.0
Cu46 Cu 0.08045 0.28353 0.80222 0.0
N47 N 0.88523 0.19513 0.79545 0.0
N48 N 0.67593 1.04592 0.79213 0.0
C49 C 0.81448 0.09488 0.80064 0.0
C50 C 0.65872 0.11755 0.78094 0.0
C51 C 0.78768 0.21009 0.78321 0.0
O52 O 0.15721 0.26007 0.82849 0.0
C53 C 0.10189 0.24399 0.76091 0.0
O54 O 1.01119 0.28543 0.75904 0.0
H55 H 0.86388 1.05696 0.81011 0.0
H56 H 0.80882 0.28223 0.77616 0.0
N57 N 0.13927 0.44527 0.80684 0.0
N58 N 0.27073 0.63107 0.80672 0.0
C59 C 0.21501 0.51722 0.79625 0.0
C60 C 0.14583 0.51675 0.8244 0.0
C61 C 0.22694 0.63088 0.8244 0.0
C62 C 0.10101 0.26476 0.84378 0.0
O63 O 0.98811 0.27923 0.84138 0.0
H64 H 0.2376 0.48719 0.78191 0.0
H65 H 0.10274 0.48816 0.83704 0.0
O66 O 0.14776 0.23358 0.77868 0.0
H67 H 0.55985 0.10393 0.77186 0.0
H68 H 0.25673 0.70778 0.83685 0.0
Cu69 Cu 0.29858 0.30324 0.63229 0.0
N70 N 0.26784 0.2155 0.65215 0.0
N71 N 0.23275 0.17048 0.68212 0.0
C72 C 0.24954 0.25034 0.67107 0.0
C73 C 0.24151 0.08196 0.66986 0.0
C74 C 0.26369 0.11017 0.65137 0.0
O75 O 0.19871 0.39592 0.63555 0.0
C76 C 0.56035 0.33272 0.63128 0.0
O77 O 0.48638 0.21936 0.62347 0.0
H78 H 0.24833 0.33258 0.67665 0.0
H79 H 0.27627 1.05765 0.63833 0.0
N80 N 0.22924 0.21149 0.60457 0.0
N81 N 0.19678 0.16605 0.56998 0.0
C82 C 0.2578 0.25219 0.58781 0.0
C83 C 0.1464 0.09564 0.59697 0.0
C84 C 0.12654 1.06729 0.57558 0.0
C85 C 1.06845 0.3347 0.63328 0.0
O86 O 1.01619 0.22045 0.62906 0.0
H87 H 0.32328 0.34297 0.58869 0.0
H88 H 0.10386 1.03592 0.60629 0.0
O89 O 0.49915 0.3935 0.63663 0.0
H90 H 0.23171 1.00269 0.67395 0.0
H91 H 1.06588 0.98116 0.56497 0.0
Cu92 Cu 0.40911 0.13122 0.95406 0.0
N93 N 0.60324 0.21391 0.95789 0.0
N94 N 0.80774 0.35885 0.95769 0.0
C95 C 0.67311 0.28842 0.9472 0.0
C96 C 0.82395 0.32544 0.97537 0.0
C97 C 0.69809 0.23631 0.97544 0.0
O98 O 0.31832 0.16071 0.92985 0.0
C99 C 0.26121 0.15781 0.9862 0.0
O100 O 0.14233 0.09105 0.97232 0.0
H101 H 0.62423 0.29693 0.93282 0.0
H102 H 0.67439 0.19713 0.98819 0.0
N103 N 0.34796 0.96843 0.94775 0.0
N104 N 0.217 0.77707 0.94437 0.0
C105 C 0.2504 0.88762 0.95458 0.0
C106 C 0.37634 0.90636 0.93261 0.0
C107 C 0.29557 0.78861 0.93043 0.0
C108 C 0.33113 0.25895 0.92733 0.0
O109 O 0.39938 0.35294 0.94297 0.0
H110 H 0.1986 0.90849 0.96593 0.0
H111 H 0.44653 0.94425 0.92317 0.0
O112 O 0.37589 0.18414 0.98094 0.0
H113 H 0.91783 0.36758 0.98791 0.0
H114 H 0.29212 0.7169 0.91916 0.0
Cu115 Cu 0.99148 0.11874 0.24271 0.0
N116 N 0.87689 0.19327 0.24021 0.0
N117 N 0.81159 0.33328 0.23793 0.0
C118 C 0.91547 0.30244 0.23796 0.0
C119 C 0.70346 0.23991 0.24033 0.0
C120 C 0.74327 0.15319 0.24139 0.0
O121 O 0.12977 0.17515 0.2264 0.0
C122 C 1.00057 0.13813 0.28553 0.0
O123 O 0.87015 0.11539 0.27891 0.0
H124 H 1.01839 0.35891 0.23661 0.0
H125 H 0.68002 1.0676 0.2433 0.0
N126 N 0.89085 0.95657 0.23106 0.0
N127 N 0.83672 0.76714 0.22677 0.0
C128 C 0.88371 0.87192 0.2406 0.0
C129 C 0.8443 0.9027 0.21057 0.0
C130 C 0.81177 0.78653 0.20789 0.0
C131 C 0.09003 0.18453 0.20824 0.0
O132 O 0.9612 0.16613 0.20162 0.0
H133 H 0.92236 0.88836 0.25718 0.0
H134 H 0.84318 0.94598 0.19828 0.0
O135 O 0.07545 0.14572 0.27242 0.0
H136 H 0.60272 0.23478 0.24114 0.0
H137 H 0.77809 0.72196 0.19318 0.0
C138 C 0.81693 1.01019 0.1275 0.0
C139 C 0.69966 1.01272 0.11589 0.0
C140 C 0.5677 0.80077 0.1105 0.0
C141 C 0.69115 0.79739 0.11998 0.0
N142 N 0.94115 0.89729 0.13243 0.0
N143 N 0.4721 0.9058 0.09215 0.0
C144 C 0.81827 0.90176 0.12688 0.0
C145 C 0.57736 0.90641 0.10606 0.0
N146 N 0.92372 0.1106 0.14031 0.0
N147 N 0.44066 0.70649 0.10695 0.0
H148 H 0.47879 0.98098 0.08797 0.0
H149 H 0.38557 0.82908 0.08322 0.0
H150 H 0.42787 0.63075 0.11139 0.0
H151 H 0.34704 0.70865 0.10174 0.0
H152 H 1.00028 0.10864 0.15124 0.0
H153 H 0.92501 0.19196 0.14193 0.0
H154 H 1.03773 0.97079 0.13594 0.0
H155 H 0.94648 0.81856 0.13116 0.0
C156 C 0.49316 0.95696 0.40427 0.0
C157 C 0.46001 0.99033 0.42308 0.0
C158 C 0.67083 0.9965 0.44316 0.0
C159 C 0.71749 0.98791 0.42471 0.0
N160 N 0.67123 0.94591 0.3874 0.0
N161 N 0.50455 1.02904 0.46034 0.0
C162 C 0.62631 0.96057 0.40506 0.0
C163 C 0.54365 1.00342 0.44252 0.0
N164 N 0.39813 0.92497 0.3858 0.0
N165 N 0.75052 1.00012 0.46125 0.0
H166 H 0.40868 1.02917 0.4601 0.0
H167 H 0.56715 1.0528 0.47528 0.0
H168 H 0.84311 0.9937 0.46174 0.0
H169 H 0.72069 0.99989 0.47522 0.0
H170 H 0.41062 0.89286 0.37141 0.0
H171 H 0.30056 0.92234 0.38514 0.0
H172 H 0.61752 0.93871 0.37267 0.0
H173 H 0.76561 0.94319 0.38763 0.0
C174 C 0.45221 0.9385 0.80143 0.0
C175 C 0.56929 0.93908 0.79456 0.0
C176 C 0.4941 0.73736 0.79707 0.0
C177 C 0.36886 0.73248 0.80155 0.0
N178 N 0.21446 0.8206 0.80265 0.0
N179 N 0.67924 0.82734 0.78042 0.0
C180 C 0.34352 0.83083 0.80206 0.0
C181 C 0.58342 0.83477 0.79072 0.0
N182 N 0.44795 1.0411 0.80848 0.0
N183 N 0.53261 0.65315 0.80007 0.0
H184 H 0.74071 0.89477 0.77451 0.0
H185 H 0.68574 0.74982 0.7757 0.0
H186 H 0.47627 0.5855 0.80633 0.0
H187 H 0.62885 0.6585 0.79867 0.0
H188 H 0.37031 1.04589 0.81534 0.0
H189 H 0.52986 0.12241 0.80967 0.0
H190 H 0.18696 0.88699 0.80128 0.0
H191 H 0.13098 0.74142 0.80215 0.0
C192 C 0.75906 0.38259 0.61475 0.0
C193 C 0.71245 0.38481 0.63327 0.0
C194 C 0.93833 0.41499 0.65291 0.0
C195 C 0.97116 0.38644 0.63383 0.0
N196 N 0.92421 0.35484 0.59667 0.0
N197 N 0.75809 0.41307 0.6704 0.0
C198 C 0.88629 0.37661 0.61477 0.0
C199 C 0.80382 0.40727 0.65262 0.0
N200 N 0.67949 0.38409 0.59717 0.0
N201 N 1.03505 0.44656 0.67115 0.0
H202 H 0.66183 0.4114 0.67062 0.0
H203 H 0.8126 0.41566 0.68471 0.0
H204 H 0.13427 0.45375 0.67142 0.0
H205 H 1.02237 0.47552 0.68573 0.0
H206 H 0.71026 0.39001 0.58334 0.0
H207 H 0.58651 0.38935 0.59709 0.0
H208 H 0.8602 0.33299 0.58191 0.0
H209 H 1.02014 0.35555 0.5965 0.0
C210 C 0.87735 0.55548 0.95116 0.0
C211 C 0.90793 0.46157 0.95309 0.0
C212 C 0.14745 0.58056 0.95102 0.0
C213 C 0.11196 0.66908 0.9468 0.0
N214 N 0.93086 0.72448 0.93735 0.0
N215 N 1.06375 0.37597 0.95067 0.0
C216 C 0.97308 0.65168 0.94523 0.0
C217 C 1.04073 0.47155 0.95173 0.0
N218 N 0.76101 0.55646 0.95613 0.0
N219 N 0.28383 0.60257 0.95541 0.0
H220 H 0.98645 0.29466 0.95071 0.0
H221 H 0.15418 0.37463 0.94772 0.0
H222 H 0.36516 0.68329 0.95611 0.0
H223 H 0.31706 0.54516 0.96045 0.0
H224 H 0.74048 0.6279 0.95673 0.0
H225 H 0.69319 0.4916 0.96186 0.0
H226 H 0.82734 0.70947 0.93417 0.0
H227 H 0.99598 0.79177 0.93177 0.0
C228 C 0.70923 0.44458 0.22097 0.0
C229 C 0.81559 0.44317 0.23577 0.0
C230 C 0.94356 0.6566 0.24326 0.0
C231 C 0.82829 0.65884 0.23068 0.0
N232 N 0.58653 0.55369 0.21187 0.0
N233 N 1.01536 0.55268 0.26511 0.0
C234 C 0.70637 0.55227 0.22085 0.0
C235 C 0.92734 0.55075 0.24819 0.0
N236 N 0.61556 0.34482 0.20624 0.0
N237 N 0.07086 0.75265 0.24945 0.0
H238 H 1.00094 0.47778 0.27002 0.0
H239 H 0.09182 0.6302 0.27557 0.0
H240 H 0.09079 0.82844 0.24459 0.0
H241 H 0.16022 0.75143 0.25723 0.0
H242 H 0.54434 0.34449 0.194 0.0
H243 H 0.62035 0.26588 0.20475 0.0
H244 H 0.49193 0.47812 0.20596 0.0
H245 H 0.57852 0.63101 0.21254 0.0
C246 C 0.20583 0.30321 0.1849 0.0
C247 C 0.18136 0.20655 0.19349 0.0
C248 C 0.28938 0.13529 0.16864 0.0
C249 C 0.28991 0.21945 0.15768 0.0
N250 N 0.23368 0.3775 0.15443 0.0
N251 N 0.1874 1.0227 0.19216 0.0
C252 C 0.24686 0.30357 0.16578 0.0
C253 C 0.22126 0.12106 0.18517 0.0
N254 N 0.18963 0.39486 0.1951 0.0
N255 N 0.35824 1.0716 0.16381 0.0
H256 H 0.13973 1.00901 0.20442 0.0
H257 H 0.19748 0.95074 0.18476 0.0
H258 H 0.41382 0.08234 0.15239 0.0
H259 H 0.37322 1.01779 0.17267 0.0
H260 H 0.21891 0.47311 0.19079 0.0
H261 H 0.1607 0.39711 0.2092 0.0
H262 H 0.18803 0.43132 0.15849 0.0
H263 H 0.25467 0.3769 0.13983 0.0
C264 C 0.32245 0.175 0.54213 0.0
C265 C 0.20726 0.17683 0.54922 0.0
C266 C 0.11478 0.20304 0.51586 0.0
C267 C 0.22726 0.19681 0.50851 0.0
N268 N 0.43017 0.16567 0.51313 0.0
N269 N 0.98983 0.18543 0.54325 0.0
C270 C 0.32935 0.18009 0.52129 0.0
C271 C 0.10202 0.18872 0.53614 0.0
N272 N 0.42552 0.16958 0.55553 0.0
N273 N 1.0226 0.2254 0.50349 0.0
H274 H 0.98138 0.17917 0.55828 0.0
H275 H 0.90272 0.18411 0.53422 0.0
H276 H 1.03003 0.23537 0.48859 0.0
H277 H 0.94294 0.23952 0.50809 0.0
H278 H 0.51935 0.17875 0.55231 0.0
H279 H 0.41982 0.16146 0.57056 0.0
H280 H 0.50183 0.14326 0.52074 0.0
H281 H 0.43716 0.16976 0.49796 0.0
C282 C 0.29936 0.34937 0.87607 0.0
C283 C 0.16443 0.26106 0.86473 0.0
C284 C 0.13151 0.18727 0.8958 0.0
C285 C 0.27228 0.26605 0.90632 0.0
N286 N 0.4974 0.41221 0.90506 0.0
N287 N 0.96032 0.08377 0.86275 0.0
C288 C 0.35819 0.34472 0.8961 0.0
C289 C 0.08286 0.17659 0.87433 0.0
N290 N 0.36924 0.44115 0.86819 0.0
N291 N 1.04206 0.12634 0.90657 0.0
H292 H 0.92222 1.07181 0.84693 0.0
H293 H 0.90359 1.01297 0.86831 0.0
H294 H 0.07209 0.13534 0.92249 0.0
H295 H 0.93504 1.07678 0.90029 0.0
H296 H 0.45998 0.51524 0.87683 0.0
H297 H 0.33048 0.44864 0.85368 0.0
H298 H 0.56764 0.45944 0.89719 0.0
H299 H 0.54561 0.41445 0.91977 0.0
C300 C 0.28029 0.14751 0.04291 0.0
C301 C 0.28911 0.25738 0.05216 0.0
C302 C 0.24921 0.28977 1.01723 0.0
C303 C 0.26377 0.18948 1.00869 0.0
N304 N 0.31541 1.03237 1.01427 0.0
N305 N 0.30038 0.44159 0.04812 0.0
C306 C 0.28529 0.12085 1.02177 0.0
C307 C 0.27662 0.33046 0.03931 0.0
N308 N 0.26341 1.067 0.05421 0.0
N309 N 0.21059 0.34683 1.00427 0.0
H310 H 0.3251 0.47682 0.06413 0.0
H311 H 0.30773 0.50268 0.03963 0.0
H312 H 0.1938 0.32126 0.98814 0.0
H313 H 0.18412 0.41304 1.00935 0.0
H314 H 0.24365 0.98151 0.04773 0.0
H315 H 0.25327 0.08144 0.06947 0.0
H316 H 0.3469 0.98796 1.02372 0.0
H317 H 0.32223 1.01082 0.99901 0.0
C318 C 0.17598 0.24365 0.32086 0.0
C319 C 1.05253 0.14596 0.30791 0.0
C320 C 0.98932 0.08375 0.33893 0.0
C321 C 0.11697 0.17568 0.35171 0.0
N322 N 0.34487 0.32831 0.35445 0.0
N323 N 0.86462 0.95523 0.30455 0.0
C324 C 0.21453 0.251 0.34251 0.0
C325 C 0.96656 1.06039 0.31695 0.0
N326 N 0.25222 0.33264 0.31289 0.0
N327 N 0.88585 1.02308 0.34773 0.0
H328 H 0.84803 0.93263 0.2884 0.0
H329 H 0.8076 0.88601 0.31044 0.0
H330 H 0.89525 1.0426 0.36372 0.0
H331 H 0.78558 0.9627 0.33905 0.0
H332 H 0.33418 0.41138 0.3221 0.0
H333 H 0.22675 0.33222 0.29732 0.0
H334 H 0.4254 0.37822 0.34835 0.0
H335 H 0.37573 0.33409 0.37022 0.0
C336 C 0.31443 0.24858 0.72042 0.0
C337 C 0.20467 0.17707 0.70248 0.0
C338 C 1.03904 0.12406 0.72438 0.0
C339 C 0.14462 0.20832 0.74194 0.0
N340 N 0.38293 0.35563 0.75677 0.0
N341 N 0.9611 1.05351 0.68671 0.0
C342 C 0.28319 0.2708 0.74009 0.0
C343 C 1.06666 0.11562 0.70431 0.0
N344 N 0.4486 0.29422 0.71853 0.0
N345 N 0.9129 1.05077 0.72703 0.0
H346 H 0.97852 1.04583 0.67183 0.0
H347 H 0.85597 1.01703 0.68671 0.0
H348 H 0.89074 1.05341 0.74162 0.0
H349 H 0.83553 0.98046 0.71525 0.0
H350 H 0.53541 0.33807 0.73115 0.0
H351 H 0.47297 0.27979 0.70423 0.0
H352 H 0.48117 0.41379 0.75582 0.0
H353 H 0.36514 0.37238 0.77148 0.0
loop_
_geom_bond_atom_site_label_1
_geom_bond_atom_site_label_2
_geom_bond_distance
_geom_bond_site_symmetry_2
_ccdc_geom_bond_type
Cu0 N1 1.999 . S
Cu0 O6 1.974 . S
Cu0 N11 1.985 . S
Cu0 O20 1.959 . S
N1 Cu0 1.999 . S
N1 C3 1.263 . S
N1 C5 1.389 . S
N2 C3 1.358 1_565 S
N2 C4 1.400 . S
C3 N1 1.263 . S
C3 N2 1.358 1_545 S
C3 H9 0.930 . S
C4 N2 1.400 . S
C4 C5 1.351 1_565 S
C4 H21 0.930 . S
C5 N1 1.389 . S
C5 C4 1.351 1_545 S
C5 H10 0.930 . S
O6 Cu0 1.974 . S
O6 C16 1.282 . S
C7 O8 1.261 . S
C7 O20 1.251 . S
O8 C7 1.261 . S
H9 C3 0.930 . S
H10 C5 0.930 . S
N11 Cu0 1.985 . S
N11 C13 1.335 . S
N11 C14 1.390 . S
N12 C13 1.345 . S
N12 C15 1.336 . S
C13 N11 1.335 . S
C13 N12 1.345 . S
C13 H18 0.930 . S
C14 N11 1.390 . S
C14 C15 1.346 . S
C14 H19 0.930 . S
C15 N12 1.336 . S
C15 C14 1.346 . S
C15 H22 0.929 . S
C16 O6 1.282 . S
C16 O17 1.216 . S
O17 C16 1.216 . S
H18 C13 0.930 . S
H19 C14 0.930 . S
O20 Cu0 1.959 . S
O20 C7 1.251 . S
H21 C4 0.930 . S
H22 C15 0.929 . S
Cu23 N24 1.999 . S
Cu23 O29 1.974 . S
Cu23 N34 1.985 . S
Cu23 O43 1.959 . S
N24 Cu23 1.999 . S
N24 C26 1.263 . S
N24 C28 1.389 . S
N25 C26 1.358 . S
N25 C27 1.400 . S
C26 N24 1.263 . S
C26 N25 1.358 . S
C26 H32 0.930 . S
C27 N25 1.400 . S
C27 C28 1.351 . S
C27 H44 0.930 . S
C28 N24 1.389 . S
C28 C27 1.351 . S
C28 H33 0.930 . S
O29 Cu23 1.974 . S
O29 C39 1.282 1_545 S
C30 O31 1.261 1_545 S
C30 O43 1.251 1_655 S
O31 C30 1.261 1_565 S
H32 C26 0.930 . S
H33 C28 0.930 . S
N34 Cu23 1.985 . S
N34 C36 1.335 . S
N34 C37 1.390 . S
N35 C36 1.345 . S
N35 C38 1.336 1_545 S
C36 N34 1.335 . S
C36 N35 1.345 . S
C36 H41 0.930 . S
C37 N34 1.390 . S
C37 C38 1.346 1_545 S
C37 H42 0.930 1_545 S
C38 N35 1.336 1_565 S
C38 C37 1.346 1_565 S
C38 H45 0.929 . S
C39 O29 1.282 1_565 S
C39 O40 1.216 . S
O40 C39 1.216 . S
H41 C36 0.930 . S
H42 C37 0.930 1_565 S
O43 Cu23 1.959 . S
O43 C30 1.251 1_455 S
H44 C27 0.930 . S
H45 C38 0.929 . S
Cu46 N47 1.999 1_445 S
Cu46 O52 1.974 . S
Cu46 N57 1.985 . S
Cu46 O66 1.959 . S
N47 Cu46 1.999 1_665 S
N47 C49 1.263 . S
N47 C51 1.389 . S
N48 C49 1.358 . S
N48 C50 1.400 . S
C49 N47 1.263 . S
C49 N48 1.358 . S
C49 H55 0.930 . S
C50 N48 1.400 . S
C50 C51 1.351 . S
C50 H67 0.930 . S
C51 N47 1.389 . S
C51 C50 1.351 . S
C51 H56 0.930 . S
O52 Cu46 1.974 . S
O52 C62 1.282 1_455 S
C53 O54 1.261 . S
C53 O66 1.251 1_655 S
O54 C53 1.261 . S
H55 C49 0.930 . S
H56 C51 0.930 . S
N57 Cu46 1.985 . S
N57 C59 1.335 . S
N57 C60 1.390 . S
N58 C59 1.345 . S
N58 C61 1.336 . S
C59 N57 1.335 . S
C59 N58 1.345 . S
C59 H64 0.930 . S
C60 N57 1.390 . S
C60 C61 1.346 . S
C60 H65 0.930 . S
C61 N58 1.336 . S
C61 C60 1.346 . S
C61 H68 0.929 . S
C62 O52 1.282 1_655 S
C62 O63 1.216 . S
O63 C62 1.216 . S
H64 C59 0.930 . S
H65 C60 0.930 . S
O66 Cu46 1.959 . S
O66 C53 1.251 1_455 S
H67 C50 0.930 . S
H68 C61 0.929 . S
Cu69 N70 1.999 . S
Cu69 O75 1.974 1_455 S
Cu69 N80 1.985 . S
Cu69 O89 1.959 . S
N70 Cu69 1.999 . S
N70 C72 1.263 . S
N70 C74 1.389 . S
N71 C72 1.358 . S
N71 C73 1.400 . S
C72 N70 1.263 . S
C72 N71 1.358 . S
C72 H78 0.930 1_455 S
C73 N71 1.400 . S
C73 C74 1.351 . S
C73 H90 0.930 . S
C74 N70 1.389 . S
C74 C73 1.351 . S
C74 H79 0.930 . S
O75 Cu69 1.974 1_655 S
O75 C85 1.282 1_545 S
C76 O77 1.261 1_545 S
C76 O89 1.251 . S
O77 C76 1.261 1_565 S
H78 C72 0.930 1_655 S
H79 C74 0.930 . S
N80 Cu69 1.985 . S
N80 C82 1.335 . S
N80 C83 1.390 1_455 S
N81 C82 1.345 . S
N81 C84 1.336 1_455 S
C82 N80 1.335 . S
C82 N81 1.345 . S
C82 H87 0.930 . S
C83 N80 1.390 1_655 S
C83 C84 1.346 . S
C83 H88 0.930 1_545 S
C84 N81 1.336 1_655 S
C84 C83 1.346 . S
C84 H91 0.930 1_545 S
C85 O75 1.282 1_565 S
C85 O86 1.216 . S
O86 C85 1.216 . S
H87 C82 0.930 . S
H88 C83 0.930 1_565 S
O89 Cu69 1.959 . S
O89 C76 1.251 . S
H90 C73 0.930 . S
H91 C84 0.930 1_565 S
Cu92 N93 1.999 . S
Cu92 O98 1.974 . S
Cu92 N103 1.985 1_455 S
Cu92 O112 1.959 . S
N93 Cu92 1.999 . S
N93 C95 1.263 . S
N93 C97 1.389 . S
N94 C95 1.358 . S
N94 C96 1.400 . S
C95 N93 1.263 . S
C95 N94 1.358 . S
C95 H101 0.930 . S
C96 N94 1.400 . S
C96 C97 1.351 . S
C96 H113 0.930 . S
C97 N93 1.389 . S
C97 C96 1.351 . S
C97 H102 0.930 . S
O98 Cu92 1.974 . S
O98 C108 1.282 . S
C99 O100 1.261 . S
C99 O112 1.251 . S
O100 C99 1.261 . S
H101 C95 0.930 . S
H102 C97 0.930 . S
N103 Cu92 1.985 1_655 S
N103 C105 1.335 1_545 S
N103 C106 1.390 1_545 S
N104 C105 1.345 . S
N104 C107 1.336 . S
C105 N103 1.335 1_565 S
C105 N104 1.345 . S
C105 H110 0.930 . S
C106 N103 1.390 1_565 S
C106 C107 1.346 . S
C106 H111 0.930 1_565 S
C107 N104 1.336 . S
C107 C106 1.346 . S
C107 H114 0.929 . S
C108 O98 1.282 . S
C108 O109 1.216 1_455 S
O109 C108 1.216 1_655 S
H110 C105 0.930 . S
H111 C106 0.930 1_545 S
O112 Cu92 1.959 . S
O112 C99 1.251 . S
H113 C96 0.930 . S
H114 C107 0.929 . S
Cu115 N116 1.999 . S
Cu115 O121 1.974 . S
Cu115 N126 1.985 . S
Cu115 O135 1.959 . S
N116 Cu115 1.999 . S
N116 C118 1.263 . S
N116 C120 1.389 . S
N117 C118 1.358 . S
N117 C119 1.400 . S
C118 N116 1.263 . S
C118 N117 1.358 . S
C118 H124 0.930 . S
C119 N117 1.400 . S
C119 C120 1.351 . S
C119 H136 0.930 . S
C120 N116 1.389 . S
C120 C119 1.351 . S
C120 H125 0.930 . S
O121 Cu115 1.974 . S
O121 C131 1.282 . S
C122 O123 1.261 . S
C122 O135 1.251 . S
O123 C122 1.261 . S
H124 C118 0.930 . S
H125 C120 0.930 . S
N126 Cu115 1.985 . S
N126 C128 1.335 1_545 S
N126 C129 1.390 1_545 S
N127 C128 1.345 . S
N127 C130 1.336 . S
C128 N126 1.335 1_565 S
C128 N127 1.345 . S
C128 H133 0.930 . S
C129 N126 1.390 1_565 S
C129 C130 1.346 . S
C129 H134 0.930 . S
C130 N127 1.336 . S
C130 C129 1.346 . S
C130 H137 0.929 . S
C131 O121 1.282 . S
C131 O132 1.216 . S
O132 C131 1.216 . S
H133 C128 0.930 . S
H134 C129 0.930 . S
O135 Cu115 1.959 . S
O135 C122 1.251 . S
H136 C119 0.930 . S
H137 C130 0.929 . S
C138 C139 1.363 . S
C138 C144 1.379 . S
C138 N146 1.356 . S
C139 C138 1.363 . S
C139 C145 1.363 . S
C140 C141 1.363 . S
C140 C145 1.379 . S
C140 N147 1.356 . S
C141 C140 1.363 . S
C141 C144 1.363 . S
N142 C144 1.356 . S
N142 H154 0.984 . S
N142 H155 0.985 . S
N143 C145 1.356 . S
N143 H148 0.984 . S
N143 H149 0.985 . S
C144 C138 1.379 . S
C144 C141 1.363 . S
C144 N142 1.356 . S
C145 C139 1.363 . S
C145 C140 1.379 . S
C145 N143 1.356 . S
N146 C138 1.356 . S
N146 H152 0.984 . S
N146 H153 0.984 . S
N147 C140 1.356 . S
N147 H150 0.984 . S
N147 H151 0.985 . S
H148 N143 0.984 . S
H149 N143 0.985 . S
H150 N147 0.984 . S
H151 N147 0.985 . S
H152 N146 0.984 . S
H153 N146 0.984 . S
H154 N142 0.984 . S
H155 N142 0.985 . S
C156 C157 1.363 1_565 S
C156 C162 1.379 . S
C156 N164 1.356 . S
C157 C156 1.363 1_545 S
C157 C163 1.363 . S
C158 C159 1.363 . S
C158 C163 1.379 . S
C158 N165 1.356 . S
C159 C158 1.363 . S
C159 C162 1.363 1_545 S
N160 C162 1.356 . S
N160 H172 0.984 . S
N160 H173 0.985 . S
N161 C163 1.356 . S
N161 H166 0.984 . S
N161 H167 0.985 . S
C162 C156 1.379 . S
C162 C159 1.363 1_565 S
C162 N160 1.356 . S
C163 C157 1.363 . S
C163 C158 1.379 . S
C163 N161 1.356 . S
N164 C156 1.356 . S
N164 H170 0.984 . S
N164 H171 0.984 . S
N165 C158 1.356 . S
N165 H168 0.984 . S
N165 H169 0.985 . S
H166 N161 0.984 . S
H167 N161 0.985 . S
H168 N165 0.984 . S
H169 N165 0.985 . S
H170 N164 0.984 . S
H171 N164 0.984 . S
H172 N160 0.984 . S
H173 N160 0.985 . S
C174 C175 1.363 . S
C174 C180 1.379 . S
C174 N182 1.356 . S
C175 C174 1.363 . S
C175 C181 1.363 . S
C176 C177 1.363 . S
C176 C181 1.379 . S
C176 N183 1.356 . S
C177 C176 1.363 . S
C177 C180 1.363 . S
N178 C180 1.356 . S
N178 H190 0.984 . S
N178 H191 0.985 . S
N179 C181 1.356 . S
N179 H184 0.984 . S
N179 H185 0.985 . S
C180 C174 1.379 . S
C180 C177 1.363 . S
C180 N178 1.356 . S
C181 C175 1.363 . S
C181 C176 1.379 . S
C181 N179 1.356 . S
N182 C174 1.356 . S
N182 H188 0.984 . S
N182 H189 0.984 . S
N183 C176 1.356 . S
N183 H186 0.984 . S
N183 H187 0.985 . S
H184 N179 0.984 . S
H185 N179 0.985 . S
H186 N183 0.984 . S
H187 N183 0.985 . S
H188 N182 0.984 . S
H189 N182 0.984 . S
H190 N178 0.984 . S
H191 N178 0.985 . S
C192 C193 1.363 . S
C192 C198 1.379 . S
C192 N200 1.356 . S
C193 C192 1.363 . S
C193 C199 1.363 1_545 S
C194 C195 1.363 1_565 S
C194 C199 1.379 . S
C194 N201 1.356 . S
C195 C194 1.363 1_545 S
C195 C198 1.363 . S
N196 C198 1.356 . S
N196 H208 0.984 . S
N196 H209 0.985 . S
N197 C199 1.356 . S
N197 H202 0.984 . S
N197 H203 0.985 . S
C198 C192 1.379 . S
C198 C195 1.363 . S
C198 N196 1.356 . S
C199 C193 1.363 1_565 S
C199 C194 1.379 . S
C199 N197 1.356 . S
N200 C192 1.356 . S
N200 H206 0.984 . S
N200 H207 0.984 . S
N201 C194 1.356 . S
N201 H204 0.984 . S
N201 H205 0.985 . S
H202 N197 0.984 . S
H203 N197 0.985 . S
H204 N201 0.984 . S
H205 N201 0.985 . S
H206 N200 0.984 . S
H207 N200 0.984 . S
H208 N196 0.984 . S
H209 N196 0.985 . S
C210 C211 1.363 . S
C210 C216 1.379 . S
C210 N218 1.356 . S
C211 C210 1.363 . S
C211 C217 1.363 . S
C212 C213 1.363 . S
C212 C217 1.379 . S
C212 N219 1.356 . S
C213 C212 1.363 . S
C213 C216 1.363 . S
N214 C216 1.356 . S
N214 H226 0.984 . S
N214 H227 0.985 . S
N215 C217 1.356 . S
N215 H220 0.984 . S
N215 H221 0.985 . S
C216 C210 1.379 . S
C216 C213 1.363 . S
C216 N214 1.356 . S
C217 C211 1.363 . S
C217 C212 1.379 . S
C217 N215 1.356 . S
N218 C210 1.356 . S
N218 H224 0.984 . S
N218 H225 0.984 . S
N219 C212 1.356 . S
N219 H222 0.984 . S
N219 H223 0.985 . S
H220 N215 0.984 . S
H221 N215 0.985 . S
H222 N219 0.984 . S
H223 N219 0.985 . S
H224 N218 0.984 . S
H225 N218 0.984 . S
H226 N214 0.984 . S
H227 N214 0.985 . S
C228 C229 1.363 . S
C228 C234 1.379 . S
C228 N236 1.356 . S
C229 C228 1.363 . S
C229 C235 1.363 . S
C230 C231 1.363 . S
C230 C235 1.379 . S
C230 N237 1.356 . S
C231 C230 1.363 . S
C231 C234 1.363 . S
N232 C234 1.356 . S
N232 H244 0.984 . S
N232 H245 0.985 . S
N233 C235 1.356 . S
N233 H238 0.984 . S
N233 H239 0.985 . S
C234 C228 1.379 . S
C234 C231 1.363 . S
C234 N232 1.356 . S
C235 C229 1.363 . S
C235 C230 1.379 . S
C235 N233 1.356 . S
N236 C228 1.356 . S
N236 H242 0.984 . S
N236 H243 0.984 . S
N237 C230 1.356 . S
N237 H240 0.984 . S
N237 H241 0.985 . S
H238 N233 0.984 . S
H239 N233 0.985 . S
H240 N237 0.984 . S
H241 N237 0.985 . S
H242 N236 0.984 . S
H243 N236 0.984 . S
H244 N232 0.984 . S
H245 N232 0.985 . S
C246 C247 1.363 . S
C246 C252 1.379 . S
C246 N254 1.356 . S
C247 C246 1.363 . S
C247 C253 1.363 . S
C248 C249 1.363 . S
C248 C253 1.379 . S
C248 N255 1.356 . S
C249 C248 1.363 . S
C249 C252 1.363 . S
N250 C252 1.356 . S
N250 H262 0.984 . S
N250 H263 0.985 . S
N251 C253 1.356 . S
N251 H256 0.984 . S
N251 H257 0.985 1_545 S
C252 C246 1.379 . S
C252 C249 1.363 . S
C252 N250 1.356 . S
C253 C247 1.363 . S
C253 C248 1.379 . S
C253 N251 1.356 . S
N254 C246 1.356 . S
N254 H260 0.984 . S
N254 H261 0.984 . S
N255 C248 1.356 . S
N255 H258 0.984 . S
N255 H259 0.985 1_545 S
H256 N251 0.984 . S
H257 N251 0.985 1_565 S
H258 N255 0.984 . S
H259 N255 0.985 1_565 S
H260 N254 0.984 . S
H261 N254 0.984 . S
H262 N250 0.984 . S
H263 N250 0.985 . S
C264 C265 1.363 1_565 S
C264 C270 1.379 . S
C264 N272 1.356 . S
C265 C264 1.363 1_545 S
C265 C271 1.363 . S
C266 C267 1.363 . S
C266 C271 1.379 . S
C266 N273 1.356 . S
C267 C266 1.363 . S
C267 C270 1.363 1_545 S
N268 C270 1.356 . S
N268 H280 0.984 . S
N268 H281 0.985 . S
N269 C271 1.356 . S
N269 H274 0.984 . S
N269 H275 0.985 . S
C270 C264 1.379 . S
C270 C267 1.363 1_565 S
C270 N268 1.356 . S
C271 C265 1.363 . S
C271 C266 1.379 . S
C271 N269 1.356 . S
N272 C264 1.356 . S
N272 H278 0.984 . S
N272 H279 0.984 . S
N273 C266 1.356 . S
N273 H276 0.984 . S
N273 H277 0.985 . S
H274 N269 0.984 . S
H275 N269 0.985 . S
H276 N273 0.984 . S
H277 N273 0.985 . S
H278 N272 0.984 . S
H279 N272 0.984 . S
H280 N268 0.984 . S
H281 N268 0.985 . S
C282 C283 1.363 1_455 S
C282 C288 1.379 . S
C282 N290 1.356 . S
C283 C282 1.363 1_655 S
C283 C289 1.363 . S
C284 C285 1.363 1_655 S
C284 C289 1.379 . S
C284 N291 1.356 . S
C285 C284 1.363 1_455 S
C285 C288 1.363 . S
N286 C288 1.356 . S
N286 H298 0.984 . S
N286 H299 0.985 . S
N287 C289 1.356 . S
N287 H292 0.984 . S
N287 H293 0.985 1_545 S
C288 C282 1.379 . S
C288 C285 1.363 . S
C288 N286 1.356 . S
C289 C283 1.363 . S
C289 C284 1.379 . S
C289 N287 1.356 . S
N290 C282 1.356 . S
N290 H296 0.984 . S
N290 H297 0.984 . S
N291 C284 1.356 . S
N291 H294 0.984 . S
N291 H295 0.985 1_545 S
H292 N287 0.984 . S
H293 N287 0.985 1_565 S
H294 N291 0.984 . S
H295 N291 0.985 1_565 S
H296 N290 0.984 . S
H297 N290 0.984 . S
H298 N286 0.984 . S
H299 N286 0.985 . S
C300 C301 1.363 . S
C300 C306 1.379 1_554 S
C300 N308 1.356 . S
C301 C300 1.363 . S
C301 C307 1.363 . S
C302 C303 1.363 . S
C302 C307 1.379 1_556 S
C302 N309 1.356 . S
C303 C302 1.363 . S
C303 C306 1.363 . S
N304 C306 1.356 . S
N304 H316 0.984 . S
N304 H317 0.985 . S
N305 C307 1.356 . S
N305 H310 0.984 . S
N305 H311 0.985 . S
C306 C300 1.379 1_556 S
C306 C303 1.363 . S
C306 N304 1.356 . S
C307 C301 1.363 . S
C307 C302 1.379 1_554 S
C307 N305 1.356 . S
N308 C300 1.356 . S
N308 H314 0.984 . S
N308 H315 0.984 . S
N309 C302 1.356 . S
N309 H312 0.984 . S
N309 H313 0.985 . S
H310 N305 0.984 . S
H311 N305 0.985 . S
H312 N309 0.984 . S
H313 N309 0.985 . S
H314 N308 0.984 . S
H315 N308 0.984 . S
H316 N304 0.984 . S
H317 N304 0.985 . S
C318 C319 1.363 . S
C318 C324 1.379 . S
C318 N326 1.356 . S
C319 C318 1.363 . S
C319 C325 1.363 . S
C320 C321 1.363 . S
C320 C325 1.379 . S
C320 N327 1.356 1_545 S
C321 C320 1.363 . S
C321 C324 1.363 . S
N322 C324 1.356 . S
N322 H334 0.984 . S
N322 H335 0.985 . S
N323 C325 1.356 1_565 S
N323 H328 0.984 1_565 S
N323 H329 0.985 1_455 S
C324 C318 1.379 . S
C324 C321 1.363 . S
C324 N322 1.356 . S
C325 C319 1.363 . S
C325 C320 1.379 . S
C325 N323 1.356 1_545 S
N326 C318 1.356 . S
N326 H332 0.984 . S
N326 H333 0.984 . S
N327 C320 1.356 1_565 S
N327 H330 0.984 . S
N327 H331 0.985 1_455 S
H328 N323 0.984 1_545 S
H329 N323 0.985 1_655 S
H330 N327 0.984 . S
H331 N327 0.985 1_655 S
H332 N326 0.984 . S
H333 N326 0.984 . S
H334 N322 0.984 . S
H335 N322 0.985 . S
C336 C337 1.363 . S
C336 C342 1.379 . S
C336 N344 1.356 . S
C337 C336 1.363 . S
C337 C343 1.363 1_455 S
C338 C339 1.363 . S
C338 C343 1.379 . S
C338 N345 1.356 1_545 S
C339 C338 1.363 . S
C339 C342 1.363 1_655 S
N340 C342 1.356 . S
N340 H352 0.984 . S
N340 H353 0.985 . S
N341 C343 1.356 1_565 S
N341 H346 0.984 . S
N341 H347 0.985 . S
C342 C336 1.379 . S
C342 C339 1.363 1_455 S
C342 N340 1.356 . S
C343 C337 1.363 1_655 S
C343 C338 1.379 . S
C343 N341 1.356 1_545 S
N344 C336 1.356 . S
N344 H350 0.984 . S
N344 H351 0.984 . S
N345 C338 1.356 1_565 S
N345 H348 0.984 1_565 S
N345 H349 0.985 . S
H346 N341 0.984 . S
H347 N341 0.985 . S
H348 N345 0.984 1_545 S
H349 N345 0.985 . S
H350 N344 0.984 . S
H351 N344 0.984 . S
H352 N340 0.984 . S
H353 N340 0.985 . S
C139 N2 1.463 . S
C141 N12 1.465 . S
C157 C39 1.490 1_545 S
C159 C30 1.497 . S
C175 N48 1.463 . S
C177 N58 1.465 . S
C193 C76 1.497 . S
C195 C85 1.490 1_545 S
C211 N94 1.462 . S
C213 N104 1.465 . S
C229 N117 1.463 . S
C231 N127 1.465 . S
C247 C131 1.474 . S
C249 C16 1.477 . S
C265 N81 1.464 . S
C267 N35 1.464 . S
C283 C62 1.542 . S
C285 C108 1.536 . S
C301 C7 1.513 . S
C303 C99 1.510 . S
C319 C122 1.492 . S
C321 N25 1.451 . S
C337 N71 1.508 . S
C339 C53 1.536 . S
