# Generated by pormake.
# Topology uoy, (4)-cn, num edge types: 1
# Building blocks:
#     Node 0, Type 0, BuildingBlock: QUQFOY_clean_sbu_1, # of connection points: 4
#     Node 1, Type 0, BuildingBlock: QUQFOY_clean_sbu_1, # of connection points: 4
#     Node 2, Type 0, BuildingBlock: QUQFOY_clean_sbu_1, # of connection points: 4
#     Node 3, Type 0, BuildingBlock: QUQFOY_clean_sbu_1, # of connection points: 4
#     Node 4, Type 0, BuildingBlock: QUQFOY_clean_sbu_1, # of connection points: 4
#     Node 5, Type 0, BuildingBlock: QUQFOY_clean_sbu_1, # of connection points: 4
#     Node 6, Type 0, BuildingBlock: QUQFOY_clean_sbu_1, # of connection points: 4
#     Node 7, Type 0, BuildingBlock: QUQFOY_clean_sbu_1, # of connection points: 4
#     Node 8, Type 0, BuildingBlock: QUQFOY_clean_sbu_1, # of connection points: 4
#     Node 9, Type 0, BuildingBlock: QUQFOY_clean_sbu_1, # of connection points: 4
#     Node 10, Type 0, BuildingBlock: QUQFOY_clean_sbu_1, # of connection points: 4
#     Node 11, Type 0, BuildingBlock: QUQFOY_clean_sbu_1, # of connection points: 4
#     Node 12, Type 0, BuildingBlock: QUQFOY_clean_sbu_1, # of connection points: 4
#     Node 13, Type 0, BuildingBlock: QUQFOY_clean_sbu_1, # of connection points: 4
#     Node 14, Type 0, BuildingBlock: QUQFOY_clean_sbu_1, # of connection points: 4
#     Node 15, Type 0, BuildingBlock: QUQFOY_clean_sbu_1, # of connection points: 4
#     Edge 16, Type (0, 0), BuildingBlock: OJICUG_clean_linker_0, # of connection points: 2
#     Edge 17, Type (0, 0), BuildingBlock: OJICUG_clean_linker_0, # of connection points: 2
#     Edge 18, Type (0, 0), BuildingBlock: OJICUG_clean_linker_0, # of connection points: 2
#     Edge 19, Type (0, 0), BuildingBlock: OJICUG_clean_linker_0, # of connection points: 2
#     Edge 20, Type (0, 0), BuildingBlock: OJICUG_clean_linker_0, # of connection points: 2
#     Edge 21, Type (0, 0), BuildingBlock: OJICUG_clean_linker_0, # of connection points: 2
#     Edge 22, Type (0, 0), BuildingBlock: OJICUG_clean_linker_0, # of connection points: 2
#     Edge 23, Type (0, 0), BuildingBlock: OJICUG_clean_linker_0, # of connection points: 2
#     Edge 24, Type (0, 0), BuildingBlock: OJICUG_clean_linker_0, # of connection points: 2
#     Edge 25, Type (0, 0), BuildingBlock: OJICUG_clean_linker_0, # of connection points: 2
#     Edge 26, Type (0, 0), BuildingBlock: OJICUG_clean_linker_0, # of connection points: 2
#     Edge 27, Type (0, 0), BuildingBlock: OJICUG_clean_linker_0, # of connection points: 2
#     Edge 28, Type (0, 0), BuildingBlock: OJICUG_clean_linker_0, # of connection points: 2
#     Edge 29, Type (0, 0), BuildingBlock: OJICUG_clean_linker_0, # of connection points: 2
#     Edge 30, Type (0, 0), BuildingBlock: OJICUG_clean_linker_0, # of connection points: 2
#     Edge 31, Type (0, 0), BuildingBlock: OJICUG_clean_linker_0, # of connection points: 2
#     Edge 32, Type (0, 0), BuildingBlock: OJICUG_clean_linker_0, # of connection points: 2
#     Edge 33, Type (0, 0), BuildingBlock: OJICUG_clean_linker_0, # of connection points: 2
#     Edge 34, Type (0, 0), BuildingBlock: OJICUG_clean_linker_0, # of connection points: 2
#     Edge 35, Type (0, 0), BuildingBlock: OJICUG_clean_linker_0, # of connection points: 2
#     Edge 36, Type (0, 0), BuildingBlock: OJICUG_clean_linker_0, # of connection points: 2
#     Edge 37, Type (0, 0), BuildingBlock: OJICUG_clean_linker_0, # of connection points: 2
#     Edge 38, Type (0, 0), BuildingBlock: OJICUG_clean_linker_0, # of connection points: 2
#     Edge 39, Type (0, 0), BuildingBlock: OJICUG_clean_linker_0, # of connection points: 2
#     Edge 40, Type (0, 0), BuildingBlock: OJICUG_clean_linker_0, # of connection points: 2
#     Edge 41, Type (0, 0), BuildingBlock: OJICUG_clean_linker_0, # of connection points: 2
#     Edge 42, Type (0, 0), BuildingBlock: OJICUG_clean_linker_0, # of connection points: 2
#     Edge 43, Type (0, 0), BuildingBlock: OJICUG_clean_linker_0, # of connection points: 2
#     Edge 44, Type (0, 0), BuildingBlock: OJICUG_clean_linker_0, # of connection points: 2
#     Edge 45, Type (0, 0), BuildingBlock: OJICUG_clean_linker_0, # of connection points: 2
#     Edge 46, Type (0, 0), BuildingBlock: OJICUG_clean_linker_0, # of connection points: 2
#     Edge 47, Type (0, 0), BuildingBlock: OJICUG_clean_linker_0, # of connection points: 2
# Relax obj value: 0.058
# Max RMSD: 0.090
# Mean RMSD: 0.090
data_MOF--net-uoy--node1-QUQFOY_clean_sbu_1--edge1-OJICUG_clean_linker_0
_symmetry_space_group_name_H-M    P1
_symmetry_Int_Tables_number       1
_symmetry_cell_setting            triclinic
loop_
_symmetry_equiv_pos_as_xyz
'x, y, z'
_cell_length_a     20.673537
_cell_length_b     20.671134
_cell_length_c     83.298336
_cell_angle_alpha  90.005505
_cell_angle_beta   89.996006
_cell_angle_gamma 89.997917
loop_
_atom_site_label
_atom_site_type_symbol
_atom_site_fract_x
_atom_site_fract_y
_atom_site_fract_z
_atom_type_partial_charge
O0 O 0.24896 0.15046 0.22962 0.0
Cd1 Cd 0.24959 0.0935 0.20922 0.0
Cd2 Cd 0.30724 0.19815 0.19851 0.0
O3 O 0.28197 0.24337 0.21961 0.0
O4 O 0.18479 0.02648 0.21517 0.0
O5 O 0.17063 0.09394 0.19485 0.0
C6 C 0.14797 0.04889 0.204 0.0
C7 C 0.28654 0.23705 0.17295 0.0
C8 C 0.26133 0.21025 0.2314 0.0
C9 C 0.3889 0.07879 0.20117 0.0
O10 O 0.38756 0.1399 0.19976 0.0
O11 O 0.33662 0.04768 0.20365 0.0
O12 O 0.33106 0.26218 0.18184 0.0
O13 O 0.25008 0.19258 0.17903 0.0
O14 O 0.87577 0.74975 0.47924 0.0
Cd15 Cd 0.93363 0.75032 0.459 0.0
Cd16 Cd 0.82949 0.80817 0.44802 0.0
O17 O 0.7834 0.7833 0.46904 0.0
O18 O 1.00028 0.68544 0.46516 0.0
O19 O 0.93385 0.67134 0.44463 0.0
C20 C 0.97841 0.64863 0.45391 0.0
C21 C 0.79156 0.78713 0.4224 0.0
C22 C 0.81599 0.76244 0.48089 0.0
C23 C 0.94893 0.8896 0.45098 0.0
O24 O 0.88791 0.88833 0.44937 0.0
O25 O 0.97984 0.8373 0.45359 0.0
O26 O 0.76626 0.83194 0.43117 0.0
O27 O 0.83566 0.75063 0.42862 0.0
O28 O 0.27741 0.37556 0.72965 0.0
Cd29 Cd 0.27668 0.43251 0.70925 0.0
Cd30 Cd 0.21906 0.32783 0.69856 0.0
O31 O 0.24455 0.28259 0.71964 0.0
O32 O 0.34143 0.49959 0.71519 0.0
O33 O 0.35562 0.43211 0.69487 0.0
C34 C 0.37826 0.47719 0.70401 0.0
C35 C 0.23975 0.28924 0.67298 0.0
C36 C 0.26517 0.31574 0.73143 0.0
C37 C 0.13733 0.4471 0.70123 0.0
O38 O 0.13868 0.38598 0.69986 0.0
O39 O 0.18961 0.47824 0.70368 0.0
O40 O 0.19532 0.26392 0.68187 0.0
O41 O 0.27614 0.33372 0.67908 0.0
O42 O 0.651 0.77739 0.97916 0.0
Cd43 Cd 0.59331 0.77671 0.95889 0.0
Cd44 Cd 0.69757 0.7188 0.94799 0.0
O45 O 0.74351 0.74391 0.96901 0.0
O46 O 0.52654 0.84147 0.96504 0.0
O47 O 0.59306 0.85573 0.94453 0.0
C48 C 0.54844 0.87835 0.95382 0.0
C49 C 0.73557 0.73965 0.92236 0.0
C50 C 0.71079 0.76481 0.98084 0.0
C51 C 0.57815 0.63735 0.95092 0.0
O52 O 0.63919 0.63862 0.94936 0.0
O53 O 0.5472 0.68968 0.95347 0.0
O54 O 0.76089 0.69496 0.93117 0.0
O55 O 0.69141 0.77617 0.92856 0.0
O56 O 0.24916 0.37568 0.04838 0.0
Cd57 Cd 0.24981 0.43341 0.06864 0.0
Cd58 Cd 0.30769 0.32914 0.07956 0.0
O59 O 0.28265 0.28319 0.05853 0.0
O60 O 0.18502 0.50015 0.0625 0.0
O61 O 0.17079 0.43363 0.083 0.0
C62 C 0.14815 0.47823 0.07372 0.0
C63 C 0.28688 0.29103 0.10518 0.0
C64 C 0.26177 0.3159 0.0467 0.0
C65 C 0.38913 0.44859 0.07662 0.0
O66 O 0.38785 0.38755 0.07819 0.0
O67 O 0.33682 0.47955 0.07406 0.0
O68 O 0.33159 0.26578 0.09636 0.0
O69 O 0.25033 0.33519 0.09899 0.0
O70 O 0.65143 0.74831 0.29794 0.0
Cd71 Cd 0.5945 0.74897 0.31834 0.0
Cd72 Cd 0.69914 0.80669 0.32903 0.0
O73 O 0.74435 0.78131 0.30794 0.0
O74 O 0.52746 0.6842 0.31239 0.0
O75 O 0.5949 0.66999 0.33271 0.0
C76 C 0.54985 0.64735 0.32356 0.0
C77 C 0.738 0.78616 0.3546 0.0
C78 C 0.71122 0.76065 0.29616 0.0
C79 C 0.57978 0.88831 0.32637 0.0
O80 O 0.64089 0.887 0.32776 0.0
O81 O 0.54868 0.83601 0.32391 0.0
O82 O 0.76314 0.8306 0.34569 0.0
O83 O 0.69354 0.74965 0.34853 0.0
O84 O 0.27673 0.15177 0.54841 0.0
Cd85 Cd 0.2758 0.09416 0.56869 0.0
Cd86 Cd 0.21799 0.19857 0.57953 0.0
O87 O 0.24339 0.24441 0.55852 0.0
O88 O 0.34036 0.02716 0.56256 0.0
O89 O 0.35484 0.09374 0.58304 0.0
C90 C 0.37733 0.04902 0.57377 0.0
C91 C 0.23903 0.23633 0.60516 0.0
C92 C 0.26432 0.21159 0.54671 0.0
C93 C 0.13635 0.07932 0.57662 0.0
O94 O 0.13767 0.14038 0.57813 0.0
O95 O 0.18866 0.04827 0.57412 0.0
O96 O 0.19442 0.26189 0.59637 0.0
O97 O 0.27535 0.19205 0.59894 0.0
O98 O 0.87538 0.77756 0.79789 0.0
Cd99 Cd 0.93234 0.77686 0.81828 0.0
Cd100 Cd 0.8277 0.71921 0.82899 0.0
O101 O 0.78247 0.74458 0.8079 0.0
O102 O 0.99941 0.84161 0.81233 0.0
O103 O 0.93199 0.85583 0.83266 0.0
C104 C 0.97704 0.87845 0.82351 0.0
C105 C 0.78901 0.73997 0.85456 0.0
C106 C 0.81558 0.76523 0.79612 0.0
C107 C 0.947 0.63752 0.82632 0.0
O108 O 0.8859 0.63885 0.82772 0.0
O109 O 0.97811 0.6898 0.82385 0.0
O110 O 0.76377 0.69548 0.84568 0.0
O111 O 0.83348 0.77638 0.84846 0.0
O112 O 0.74908 0.65089 0.72915 0.0
Cd113 Cd 0.74977 0.59315 0.7089 0.0
Cd114 Cd 0.80763 0.69742 0.69797 0.0
O115 O 0.7826 0.74337 0.719 0.0
O116 O 0.685 0.52639 0.71504 0.0
O117 O 0.67077 0.59289 0.69453 0.0
C118 C 0.64814 0.54829 0.70382 0.0
C119 C 0.78674 0.73558 0.67236 0.0
C120 C 0.76169 0.71067 0.73083 0.0
C121 C 0.8891 0.57798 0.70091 0.0
O122 O 0.8878 0.63901 0.69933 0.0
O123 O 0.8368 0.54702 0.70348 0.0
O124 O 0.83148 0.7608 0.68116 0.0
O125 O 0.75022 0.6914 0.67855 0.0
O126 O 0.37557 0.24912 0.97964 0.0
Cd127 Cd 0.43253 0.24982 0.95924 0.0
Cd128 Cd 0.32788 0.30748 0.94853 0.0
O129 O 0.28267 0.28212 0.96963 0.0
O130 O 0.4996 0.18507 0.96518 0.0
O131 O 0.43217 0.17086 0.94486 0.0
C132 C 0.47723 0.14823 0.95401 0.0
C133 C 0.28906 0.28675 0.92297 0.0
C134 C 0.31578 0.26145 0.98141 0.0
C135 C 0.44719 0.38916 0.95119 0.0
O136 O 0.38609 0.38783 0.9498 0.0
O137 O 0.4783 0.33687 0.95367 0.0
O138 O 0.26388 0.33124 0.93186 0.0
O139 O 0.33355 0.25032 0.92906 0.0
O140 O 0.77725 0.87513 0.22918 0.0
Cd141 Cd 0.77649 0.93285 0.20892 0.0
Cd142 Cd 0.71865 0.82854 0.19802 0.0
O143 O 0.74386 0.78259 0.21903 0.0
O144 O 0.84121 0.99967 0.21505 0.0
O145 O 0.85549 0.93312 0.19455 0.0
C146 C 0.87809 0.97777 0.20383 0.0
C147 C 0.73953 0.79063 0.17239 0.0
C148 C 0.76475 0.81532 0.23086 0.0
C149 C 0.63712 0.9479 0.20095 0.0
O150 O 0.63842 0.88685 0.19941 0.0
O151 O 0.68943 0.97889 0.20349 0.0
O152 O 0.69488 0.76523 0.18119 0.0
O153 O 0.77599 0.83482 0.17859 0.0
O154 O 0.15139 0.27801 0.47958 0.0
Cd155 Cd 0.09449 0.2772 0.45918 0.0
Cd156 Cd 0.19921 0.21945 0.44853 0.0
O157 O 0.24437 0.24501 0.46961 0.0
O158 O 0.02734 0.34185 0.46514 0.0
O159 O 0.09475 0.35621 0.44482 0.0
C160 C 0.04967 0.37876 0.45397 0.0
C161 C 0.23796 0.24 0.42295 0.0
C162 C 0.21118 0.26573 0.48138 0.0
C163 C 0.07991 0.13779 0.45119 0.0
O164 O 0.14102 0.1391 0.44983 0.0
O165 O 0.04878 0.1901 0.45362 0.0
O166 O 0.2632 0.19559 0.43186 0.0
O167 O 0.19347 0.27646 0.42903 0.0
O168 O 0.74841 0.87653 0.54789 0.0
Cd169 Cd 0.74891 0.93355 0.56828 0.0
Cd170 Cd 0.80657 0.82899 0.57905 0.0
O171 O 0.78144 0.7837 0.55794 0.0
O172 O 0.68394 1.00041 0.56234 0.0
O173 O 0.67 0.93296 0.58267 0.0
C174 C 0.64721 0.97795 0.57353 0.0
C175 C 0.78603 0.78992 0.6046 0.0
C176 C 0.76085 0.81674 0.54614 0.0
C177 C 0.88813 0.94844 0.57637 0.0
O178 O 0.88681 0.88735 0.57781 0.0
O179 O 0.83586 0.97951 0.57385 0.0
O180 O 0.83058 0.76495 0.59569 0.0
O181 O 0.74944 0.83433 0.59854 0.0
O182 O 0.15095 0.24925 0.79838 0.0
Cd183 Cd 0.09317 0.24996 0.81864 0.0
Cd184 Cd 0.1974 0.30788 0.82956 0.0
O185 O 0.24341 0.28278 0.80855 0.0
O186 O 0.02643 0.1852 0.81248 0.0
O187 O 0.09287 0.17095 0.833 0.0
C188 C 0.04828 0.14832 0.82371 0.0
C189 C 0.23538 0.28706 0.85518 0.0
C190 C 0.21074 0.26185 0.79671 0.0
C191 C 0.07797 0.38932 0.8266 0.0
O192 O 0.13901 0.38805 0.82817 0.0
O193 O 0.04703 0.33699 0.82404 0.0
O194 O 0.26068 0.33177 0.84638 0.0
O195 O 0.19125 0.25052 0.84898 0.0
O196 O 0.77744 0.65106 0.0479 0.0
Cd197 Cd 0.7767 0.59408 0.0683 0.0
Cd198 Cd 0.71906 0.69876 0.079 0.0
O199 O 0.74448 0.744 0.05792 0.0
O200 O 0.84144 0.52699 0.06235 0.0
O201 O 0.85564 0.59443 0.08267 0.0
C202 C 0.87827 0.54936 0.07353 0.0
C203 C 0.73984 0.7374 0.10458 0.0
C204 C 0.76514 0.71087 0.04613 0.0
C205 C 0.63735 0.57948 0.07633 0.0
O206 O 0.63869 0.64059 0.07772 0.0
O207 O 0.68962 0.54835 0.07386 0.0
O208 O 0.69537 0.76269 0.0957 0.0
O209 O 0.77622 0.69292 0.09847 0.0
O210 O 0.37592 0.27658 0.29835 0.0
Cd211 Cd 0.43368 0.27587 0.31861 0.0
Cd212 Cd 0.32943 0.21801 0.32953 0.0
O213 O 0.28346 0.24308 0.30852 0.0
O214 O 0.50047 0.34061 0.31246 0.0
O215 O 0.43398 0.35488 0.33298 0.0
C216 C 0.47861 0.37748 0.32369 0.0
C217 C 0.29149 0.23905 0.35516 0.0
C218 C 0.31614 0.26399 0.29668 0.0
C219 C 0.44881 0.13651 0.3266 0.0
O220 O 0.38777 0.1378 0.32817 0.0
O221 O 0.47976 0.18882 0.32403 0.0
O222 O 0.26613 0.19431 0.34637 0.0
O223 O 0.33566 0.27549 0.34894 0.0
C224 C 0.22543 0.27012 0.13075 0.0
C225 C 0.28428 0.276 0.12243 0.0
H226 H 0.17972 0.25109 0.15351 0.0
C227 C 0.34266 0.2704 0.13088 0.0
H228 H 0.17985 0.27465 0.12443 0.0
C229 C 0.34255 0.2599 0.14738 0.0
C230 C 0.28408 0.2526 0.15572 0.0
H231 H 0.38865 0.27555 0.12476 0.0
H232 H 0.38848 0.25594 0.15358 0.0
C233 C 0.22535 0.25696 0.14729 0.0
C234 C 0.77119 0.84268 0.39665 0.0
C235 C 0.77666 0.78437 0.40514 0.0
H236 H 0.75693 0.88828 0.37392 0.0
C237 C 0.77077 0.72544 0.39685 0.0
H238 H 0.77635 0.88872 0.40274 0.0
C239 C 0.75771 0.7252 0.38031 0.0
C240 C 0.75347 0.78386 0.37184 0.0
H241 H 0.77521 0.67991 0.4032 0.0
H242 H 0.75183 0.6795 0.37411 0.0
C243 C 0.7608 0.84241 0.38014 0.0
C244 C 0.30062 0.25664 0.63074 0.0
C245 C 0.24172 0.25113 0.62242 0.0
H246 H 0.34647 0.27511 0.65351 0.0
C247 C 0.18339 0.25684 0.63089 0.0
H248 H 0.34616 0.25201 0.62441 0.0
C249 C 0.18358 0.26705 0.6474 0.0
C250 C 0.2421 0.27397 0.65574 0.0
H251 H 0.13736 0.25197 0.62478 0.0
H252 H 0.13769 0.2711 0.65361 0.0
C253 C 0.30079 0.26953 0.64729 0.0
C254 C 0.76923 0.80117 0.88023 0.0
C255 C 0.77363 0.74243 0.8718 0.0
H256 H 0.75162 0.84668 0.90309 0.0
C257 C 0.76652 0.68396 0.88015 0.0
H258 H 0.77495 0.84681 0.874 0.0
C259 C 0.75616 0.68385 0.89666 0.0
C260 C 0.75051 0.74224 0.90511 0.0
H261 H 0.77051 0.63802 0.87395 0.0
H262 H 0.75114 0.63786 0.90278 0.0
C263 C 0.7562 0.8011 0.89678 0.0
C264 C 0.72498 0.76976 0.63027 0.0
C265 C 0.78367 0.77429 0.62183 0.0
H266 H 0.67961 0.75184 0.65313 0.0
C267 C 0.84218 0.76706 0.63015 0.0
H268 H 0.67931 0.77556 0.62407 0.0
C269 C 0.84238 0.75646 0.64664 0.0
C270 C 0.78405 0.75069 0.65511 0.0
H271 H 0.88808 0.77115 0.62394 0.0
H272 H 0.8884 0.75137 0.65275 0.0
C273 C 0.72515 0.7565 0.64681 0.0
C274 C 0.26619 0.34275 0.8974 0.0
C275 C 0.27357 0.28428 0.90574 0.0
H276 H 0.25056 0.38885 0.87479 0.0
C277 C 0.26935 0.22555 0.8973 0.0
H278 H 0.27004 0.38869 0.9036 0.0
C279 C 0.25626 0.22562 0.88075 0.0
C280 C 0.25031 0.28448 0.87244 0.0
H281 H 0.27527 0.17991 0.90352 0.0
H282 H 0.25184 0.18003 0.87443 0.0
C283 C 0.25577 0.34286 0.8809 0.0
C284 C 0.68384 0.75989 0.13017 0.0
C285 C 0.7423 0.75275 0.12182 0.0
H286 H 0.63775 0.77523 0.1528 0.0
C287 C 0.80104 0.75707 0.13025 0.0
H288 H 0.6379 0.75595 0.12397 0.0
C289 C 0.80096 0.77005 0.1468 0.0
C290 C 0.74211 0.77576 0.15513 0.0
H291 H 0.84667 0.75133 0.12402 0.0
H292 H 0.84654 0.77456 0.15311 0.0
C293 C 0.68373 0.77019 0.14668 0.0
C294 C 0.25778 0.30096 0.39726 0.0
C295 C 0.25338 0.24229 0.40571 0.0
H296 H 0.27541 0.34626 0.37437 0.0
C297 C 0.26052 0.18374 0.3974 0.0
H298 H 0.25204 0.34666 0.40346 0.0
C299 C 0.27091 0.18349 0.38089 0.0
C300 C 0.27655 0.2418 0.37241 0.0
H301 H 0.25653 0.13787 0.40362 0.0
H302 H 0.27594 0.13744 0.3748 0.0
C303 C 0.27084 0.30073 0.38071 0.0
C304 C 0.30506 0.28672 0.25192 0.0
C305 C 0.26147 0.23732 0.24782 0.0
H306 H 0.35654 0.33423 0.27085 0.0
C307 C 0.22659 0.20627 0.26011 0.0
H308 H 0.3326 0.31156 0.24273 0.0
C309 C 0.23962 0.2199 0.27622 0.0
C310 C 0.2886 0.26397 0.28031 0.0
H311 H 0.19224 0.16835 0.25728 0.0
H312 H 0.21535 0.19184 0.28541 0.0
C313 C 0.31894 0.29952 0.26803 0.0
C314 C 0.81861 0.72715 0.50956 0.0
C315 C 0.78838 0.76263 0.49726 0.0
H316 H 0.83213 0.71528 0.53487 0.0
C317 C 0.73942 0.80679 0.50131 0.0
H318 H 0.85618 0.69238 0.50677 0.0
C319 C 0.72631 0.82057 0.51741 0.0
C320 C 0.76109 0.78957 0.52972 0.0
H321 H 0.71523 0.83481 0.4921 0.0
H322 H 0.69199 0.85855 0.52021 0.0
C323 C 0.80466 0.74009 0.52566 0.0
C324 C 0.30005 0.31976 0.76012 0.0
C325 C 0.26517 0.28864 0.74785 0.0
H326 H 0.31135 0.33421 0.78542 0.0
C327 C 0.22173 0.23912 0.75195 0.0
H328 H 0.33428 0.35777 0.75729 0.0
C329 C 0.20795 0.22628 0.76807 0.0
C330 C 0.23825 0.2619 0.78034 0.0
H331 H 0.19421 0.21422 0.74277 0.0
H332 H 0.17045 0.19148 0.77089 0.0
C333 C 0.28712 0.30608 0.77624 0.0
C334 C 0.72164 0.78746 0.02561 0.0
C335 C 0.76513 0.73798 0.02971 0.0
H336 H 0.67035 0.83508 1.00666 0.0
C337 C 0.80006 0.70691 0.01743 0.0
H338 H 0.69408 0.81231 0.03479 0.0
C339 C 0.78715 0.7206 1.00131 0.0
C340 C 0.73825 0.76475 0.99722 0.0
H341 H 0.83434 0.66893 0.02026 0.0
H342 H 0.81144 0.69252 0.99214 0.0
C343 C 0.70788 0.80031 1.00949 0.0
C344 C 0.30603 0.23952 0.02623 0.0
C345 C 0.26186 0.28841 0.03032 0.0
H346 H 0.35773 0.19232 1.00729 0.0
C347 C 0.22631 0.31875 0.01805 0.0
H348 H 0.3341 0.21525 0.03541 0.0
C349 C 0.23918 0.30497 1.00193 0.0
C350 C 0.28867 0.26149 0.99783 0.0
H351 H 0.19152 0.35628 0.02087 0.0
H352 H 0.21432 0.33252 0.99275 0.0
C353 C 0.31974 0.22658 1.01011 0.0
C354 C 0.78762 0.80436 0.27562 0.0
C355 C 0.73826 0.76075 0.27973 0.0
H356 H 0.83504 0.85583 0.25667 0.0
C357 C 0.7072 0.7258 0.26746 0.0
H358 H 0.81246 0.83195 0.2848 0.0
C359 C 0.72079 0.73881 0.25133 0.0
C360 C 0.7648 0.78782 0.24724 0.0
H361 H 0.66931 0.69144 0.27029 0.0
H362 H 0.69271 0.71449 0.24216 0.0
C363 C 0.80036 0.81821 0.2595 0.0
C364 C 0.20707 0.30087 0.51005 0.0
C365 C 0.23817 0.26579 0.49781 0.0
H366 H 0.19243 0.3124 0.53534 0.0
C367 C 0.2875 0.2222 0.50196 0.0
H368 H 0.1692 0.33522 0.50719 0.0
C369 C 0.30014 0.20848 0.51809 0.0
C370 C 0.26451 0.23899 0.53032 0.0
H371 H 0.31237 0.19452 0.4928 0.0
H372 H 0.33478 0.17087 0.52095 0.0
C373 C 0.22055 0.288 0.52619 0.0
C374 C 0.80588 0.7871 0.7513 0.0
C375 C 0.76175 0.73818 0.74721 0.0
H376 H 0.85753 0.83436 0.77024 0.0
C377 C 0.72618 0.70785 0.75948 0.0
H378 H 0.83396 0.81136 0.74211 0.0
C379 C 0.73902 0.72166 0.7756 0.0
C380 C 0.78848 0.76518 0.77969 0.0
H381 H 0.69142 0.6703 0.75666 0.0
H382 H 0.71416 0.69411 0.78478 0.0
C383 C 0.81955 0.80007 0.76742 0.0
C384 C 0.04588 0.02023 0.21778 0.0
C385 C 0.07935 0.02941 0.20331 0.0
H386 H 0.95571 0.99889 0.22914 0.0
C387 C 0.04593 0.02256 0.18871 0.0
H388 H 0.07029 0.02596 0.22921 0.0
C389 C 0.98019 1.00508 0.18866 0.0
C390 C 0.94673 0.99723 0.20323 0.0
H391 H 0.07079 0.02973 0.1774 0.0
H392 H 0.95535 0.9987 0.17733 0.0
C393 C 0.98016 1.0054 0.21775 0.0
C394 C 0.02073 0.4807 0.4678 0.0
C395 C 0.03009 0.44737 0.45332 0.0
H396 H 0.99922 0.57077 0.4792 0.0
C397 C 0.02337 0.48092 0.43873 0.0
H398 H 0.02635 0.4562 0.47922 0.0
C399 C 1.00585 0.54666 0.43871 0.0
C400 C 0.99783 0.57999 0.45329 0.0
H401 H 0.03068 0.45617 0.42741 0.0
H402 H 0.99959 0.5716 0.42738 0.0
C403 C 1.00585 0.54643 0.46779 0.0
C404 C 0.48031 0.5034 0.68871 0.0
C405 C 0.44687 0.49671 0.70332 0.0
H406 H 0.57091 0.52712 0.67732 0.0
C407 C 0.48031 0.50606 0.71779 0.0
H408 H 0.45547 0.49611 0.67741 0.0
C409 C 0.54604 0.52089 0.71774 0.0
C410 C 0.57949 0.52888 0.70323 0.0
H411 H 0.45589 0.50046 0.72922 0.0
H412 H 0.57047 0.52752 0.72914 0.0
C413 C 0.54605 0.52088 0.68866 0.0
C414 C 0.5061 0.04617 0.96778 0.0
C415 C 0.49677 0.07962 0.95331 0.0
H416 H 0.52757 0.95602 0.97913 0.0
C417 C 0.50353 0.04618 0.93871 0.0
H418 H 0.50046 0.0706 0.97921 0.0
C419 C 0.52104 0.98044 0.93866 0.0
C420 C 0.52901 0.947 0.95322 0.0
H421 H 0.49625 0.07102 0.9274 0.0
H422 H 0.52732 0.95558 0.92732 0.0
C423 C 0.52096 0.98045 0.96774 0.0
C424 C 0.04606 0.50564 0.08887 0.0
C425 C 0.0795 0.49763 0.07431 0.0
H426 H 0.95548 0.53044 0.10013 0.0
C427 C 0.04604 0.5056 0.05979 0.0
H428 H 0.07092 0.49941 0.10022 0.0
C429 C 0.98032 0.52044 0.05975 0.0
C430 C 0.94687 0.52982 0.07422 0.0
H431 H 0.07047 0.49897 0.0484 0.0
H432 H 0.9559 0.52604 0.04832 0.0
C433 C 0.98032 0.52313 0.08883 0.0
C434 C 0.52348 0.54529 0.33884 0.0
C435 C 0.53035 0.57873 0.32424 0.0
H436 H 0.49958 0.45469 0.35021 0.0
C437 C 0.52115 0.54529 0.30976 0.0
H438 H 0.53066 0.57013 0.35015 0.0
C439 C 0.50628 0.47957 0.30979 0.0
C440 C 0.4981 0.44611 0.3243 0.0
H441 H 0.52688 0.56972 0.29834 0.0
H442 H 0.49975 0.45515 0.29839 0.0
C443 C 0.50596 0.47955 0.33887 0.0
C444 C 0.54531 1.00454 0.58885 0.0
C445 C 0.57856 0.99728 0.57423 0.0
H446 H 0.45487 0.02874 0.60025 0.0
C447 C 0.54492 1.006 0.55977 0.0
H448 H 0.57031 0.99773 0.60015 0.0
C449 C 0.4792 0.02082 0.55983 0.0
C450 C 0.44593 0.02944 0.57435 0.0
H451 H 0.56921 0.99997 0.54834 0.0
H452 H 0.45463 0.02701 0.54844 0.0
C453 C 0.47956 0.02201 0.58891 0.0
C454 C 0.02084 0.04622 0.80978 0.0
C455 C 0.02884 0.07968 0.8243 0.0
H456 H 1.00036 0.95608 0.79831 0.0
C457 C 0.02082 0.04625 0.83886 0.0
H458 H 0.02748 0.07065 0.79839 0.0
C459 C 1.00331 0.98051 0.83881 0.0
C460 C 0.99659 0.94706 0.8242 0.0
H461 H 0.02707 0.07111 0.8502 0.0
H462 H 0.99599 0.95567 0.85011 0.0
C463 C 1.00597 0.9805 0.80974 0.0
C464 C 0.51576 0.94596 0.20016 0.0
C465 C 0.57381 0.98174 0.20035 0.0
H466 H 0.41209 0.94817 0.20034 0.0
C467 C 0.57031 0.04954 0.20037 0.0
H468 H 0.51655 0.89357 0.20016 0.0
C469 C 0.51026 0.08078 0.20035 0.0
C470 C 0.45222 0.045 0.20046 0.0
H471 H 0.61393 0.07856 0.20049 0.0
H472 H 0.50946 0.13317 0.2005 0.0
C473 C 0.45571 0.9772 0.20029 0.0
C474 C 0.05061 0.95636 0.45048 0.0
C475 C 0.98281 0.9529 0.45038 0.0
H476 H 0.13425 0.01717 0.45067 0.0
C477 C 0.94707 1.01096 0.45011 0.0
H478 H 0.0796 0.91272 0.45066 0.0
C479 C 0.97832 0.071 0.45024 0.0
C480 C 0.04611 0.07446 0.45049 0.0
H481 H 0.89468 1.0102 0.45005 0.0
H482 H 0.94932 0.11464 0.45023 0.0
C483 C 0.08187 0.0164 0.45046 0.0
C484 C 0.0705 0.54867 0.70026 0.0
C485 C 0.074 0.48088 0.70051 0.0
H486 H 1.00966 0.63229 0.70005 0.0
C487 C 0.01596 0.44509 0.70043 0.0
H488 H 0.11412 0.57769 0.70028 0.0
C489 C 0.95591 0.47633 0.70042 0.0
C490 C 0.95241 0.54413 0.70033 0.0
H491 H 0.01676 0.3927 0.70064 0.0
H492 H 0.91229 0.44731 0.70057 0.0
C493 C 1.01046 0.5799 0.7001 0.0
C494 C 0.54878 0.45594 0.95028 0.0
C495 C 0.48099 0.45247 0.95047 0.0
H496 H 0.63242 0.51675 0.95012 0.0
C497 C 0.44523 0.51054 0.95037 0.0
H498 H 0.57779 0.41231 0.95032 0.0
C499 C 0.47649 0.57058 0.95038 0.0
C500 C 0.54429 0.57405 0.95033 0.0
H501 H 0.39285 0.50976 0.95054 0.0
H502 H 0.44749 0.61422 0.9505 0.0
C503 C 0.58004 0.51598 0.95013 0.0
C504 C 0.51598 0.58149 0.07714 0.0
C505 C 0.57402 0.5457 0.07705 0.0
H506 H 0.41231 0.57926 0.07701 0.0
C507 C 0.57053 0.4779 0.07726 0.0
H508 H 0.51677 0.63387 0.07696 0.0
C509 C 0.51049 0.44667 0.07742 0.0
C510 C 0.45244 0.48244 0.07721 0.0
H511 H 0.61415 0.44888 0.07723 0.0
H512 H 0.5097 0.39428 0.07744 0.0
C513 C 0.45593 0.55025 0.07714 0.0
C514 C 0.44692 0.01514 0.32741 0.0
C515 C 0.48267 0.0732 0.3272 0.0
H516 H 0.44918 0.91146 0.32725 0.0
C517 C 0.55047 0.06973 0.32714 0.0
H518 H 0.39454 0.01591 0.32744 0.0
C519 C 0.58173 1.00969 0.32716 0.0
C520 C 0.54597 0.95163 0.32708 0.0
H521 H 0.57946 0.11337 0.327 0.0
H522 H 0.63411 1.00892 0.32699 0.0
C523 C 0.47818 0.9551 0.32728 0.0
C524 C 1.00948 0.94647 0.57726 0.0
C525 C 0.95144 0.98226 0.57709 0.0
H526 H 0.11314 0.94868 0.57717 0.0
C527 C 0.95493 0.05006 0.57721 0.0
H528 H 1.00869 0.89408 0.57715 0.0
C529 C 0.01498 0.0813 0.57734 0.0
C530 C 0.07302 0.04551 0.57721 0.0
H531 H 0.91131 0.07908 0.57711 0.0
H532 H 0.01578 0.13369 0.5773 0.0
C533 C 0.06952 0.97771 0.57724 0.0
C534 C 0.04859 0.57073 0.82725 0.0
C535 C 0.9808 0.5742 0.82704 0.0
H536 H 0.13223 0.50992 0.82743 0.0
C537 C 0.94504 0.51614 0.82713 0.0
H538 H 0.0776 0.61437 0.82722 0.0
C539 C 0.97631 0.45609 0.82712 0.0
C540 C 0.0441 0.45262 0.82719 0.0
H541 H 0.89266 0.51692 0.82695 0.0
H542 H 0.94731 0.41245 0.82699 0.0
C543 C 0.07985 0.51069 0.8274 0.0
loop_
_geom_bond_atom_site_label_1
_geom_bond_atom_site_label_2
_geom_bond_distance
_geom_bond_site_symmetry_2
_ccdc_geom_bond_type
O0 Cd1 2.223 . S
O0 C8 1.315 . S
Cd1 O0 2.223 . S
Cd1 O4 2.297 . S
Cd1 O5 2.439 . S
Cd1 O11 2.240 . S
Cd2 O3 2.240 . S
Cd2 O10 2.223 . S
Cd2 O12 2.297 . S
Cd2 O13 2.439 . S
O3 Cd2 2.240 . S
O3 C8 1.279 . S
O4 Cd1 2.297 . S
O4 C6 1.247 . S
O5 Cd1 2.439 . S
O5 C6 1.208 . S
C6 O4 1.247 . S
C6 O5 1.208 . S
C7 O12 1.247 . S
C7 O13 1.208 . S
C8 O0 1.315 . S
C8 O3 1.279 . S
C9 O10 1.315 . S
C9 O11 1.279 . S
O10 Cd2 2.223 . S
O10 C9 1.315 . S
O11 Cd1 2.240 . S
O11 C9 1.279 . S
O12 Cd2 2.297 . S
O12 C7 1.247 . S
O13 Cd2 2.439 . S
O13 C7 1.208 . S
O14 Cd15 2.223 . S
O14 C22 1.315 . S
Cd15 O14 2.223 . S
Cd15 O18 2.297 . S
Cd15 O19 2.439 . S
Cd15 O25 2.240 . S
Cd16 O17 2.240 . S
Cd16 O24 2.223 . S
Cd16 O26 2.297 . S
Cd16 O27 2.439 . S
O17 Cd16 2.240 . S
O17 C22 1.279 . S
O18 Cd15 2.297 . S
O18 C20 1.247 . S
O19 Cd15 2.439 . S
O19 C20 1.208 . S
C20 O18 1.247 . S
C20 O19 1.208 . S
C21 O26 1.247 . S
C21 O27 1.208 . S
C22 O14 1.315 . S
C22 O17 1.279 . S
C23 O24 1.315 . S
C23 O25 1.279 . S
O24 Cd16 2.223 . S
O24 C23 1.315 . S
O25 Cd15 2.240 . S
O25 C23 1.279 . S
O26 Cd16 2.297 . S
O26 C21 1.247 . S
O27 Cd16 2.439 . S
O27 C21 1.208 . S
O28 Cd29 2.223 . S
O28 C36 1.315 . S
Cd29 O28 2.223 . S
Cd29 O32 2.297 . S
Cd29 O33 2.439 . S
Cd29 O39 2.240 . S
Cd30 O31 2.240 . S
Cd30 O38 2.223 . S
Cd30 O40 2.297 . S
Cd30 O41 2.439 . S
O31 Cd30 2.240 . S
O31 C36 1.279 . S
O32 Cd29 2.297 . S
O32 C34 1.247 . S
O33 Cd29 2.439 . S
O33 C34 1.208 . S
C34 O32 1.247 . S
C34 O33 1.208 . S
C35 O40 1.247 . S
C35 O41 1.208 . S
C36 O28 1.315 . S
C36 O31 1.279 . S
C37 O38 1.315 . S
C37 O39 1.279 . S
O38 Cd30 2.223 . S
O38 C37 1.315 . S
O39 Cd29 2.240 . S
O39 C37 1.279 . S
O40 Cd30 2.297 . S
O40 C35 1.247 . S
O41 Cd30 2.439 . S
O41 C35 1.208 . S
O42 Cd43 2.223 . S
O42 C50 1.315 . S
Cd43 O42 2.223 . S
Cd43 O46 2.297 . S
Cd43 O47 2.439 . S
Cd43 O53 2.240 . S
Cd44 O45 2.240 . S
Cd44 O52 2.223 . S
Cd44 O54 2.297 . S
Cd44 O55 2.439 . S
O45 Cd44 2.240 . S
O45 C50 1.279 . S
O46 Cd43 2.297 . S
O46 C48 1.247 . S
O47 Cd43 2.439 . S
O47 C48 1.208 . S
C48 O46 1.247 . S
C48 O47 1.208 . S
C49 O54 1.247 . S
C49 O55 1.208 . S
C50 O42 1.315 . S
C50 O45 1.279 . S
C51 O52 1.315 . S
C51 O53 1.279 . S
O52 Cd44 2.223 . S
O52 C51 1.315 . S
O53 Cd43 2.240 . S
O53 C51 1.279 . S
O54 Cd44 2.297 . S
O54 C49 1.247 . S
O55 Cd44 2.439 . S
O55 C49 1.208 . S
O56 Cd57 2.223 . S
O56 C64 1.315 . S
Cd57 O56 2.223 . S
Cd57 O60 2.297 . S
Cd57 O61 2.439 . S
Cd57 O67 2.240 . S
Cd58 O59 2.240 . S
Cd58 O66 2.223 . S
Cd58 O68 2.297 . S
Cd58 O69 2.439 . S
O59 Cd58 2.240 . S
O59 C64 1.279 . S
O60 Cd57 2.297 . S
O60 C62 1.247 . S
O61 Cd57 2.439 . S
O61 C62 1.208 . S
C62 O60 1.247 . S
C62 O61 1.208 . S
C63 O68 1.247 . S
C63 O69 1.208 . S
C64 O56 1.315 . S
C64 O59 1.279 . S
C65 O66 1.315 . S
C65 O67 1.279 . S
O66 Cd58 2.223 . S
O66 C65 1.315 . S
O67 Cd57 2.240 . S
O67 C65 1.279 . S
O68 Cd58 2.297 . S
O68 C63 1.247 . S
O69 Cd58 2.439 . S
O69 C63 1.208 . S
O70 Cd71 2.223 . S
O70 C78 1.315 . S
Cd71 O70 2.223 . S
Cd71 O74 2.297 . S
Cd71 O75 2.439 . S
Cd71 O81 2.240 . S
Cd72 O73 2.240 . S
Cd72 O80 2.223 . S
Cd72 O82 2.297 . S
Cd72 O83 2.439 . S
O73 Cd72 2.240 . S
O73 C78 1.279 . S
O74 Cd71 2.297 . S
O74 C76 1.247 . S
O75 Cd71 2.439 . S
O75 C76 1.208 . S
C76 O74 1.247 . S
C76 O75 1.208 . S
C77 O82 1.247 . S
C77 O83 1.208 . S
C78 O70 1.315 . S
C78 O73 1.279 . S
C79 O80 1.315 . S
C79 O81 1.279 . S
O80 Cd72 2.223 . S
O80 C79 1.315 . S
O81 Cd71 2.240 . S
O81 C79 1.279 . S
O82 Cd72 2.297 . S
O82 C77 1.247 . S
O83 Cd72 2.439 . S
O83 C77 1.208 . S
O84 Cd85 2.223 . S
O84 C92 1.315 . S
Cd85 O84 2.223 . S
Cd85 O88 2.297 . S
Cd85 O89 2.439 . S
Cd85 O95 2.240 . S
Cd86 O87 2.240 . S
Cd86 O94 2.223 . S
Cd86 O96 2.297 . S
Cd86 O97 2.439 . S
O87 Cd86 2.240 . S
O87 C92 1.279 . S
O88 Cd85 2.297 . S
O88 C90 1.247 . S
O89 Cd85 2.439 . S
O89 C90 1.208 . S
C90 O88 1.247 . S
C90 O89 1.208 . S
C91 O96 1.247 . S
C91 O97 1.208 . S
C92 O84 1.315 . S
C92 O87 1.279 . S
C93 O94 1.315 . S
C93 O95 1.279 . S
O94 Cd86 2.223 . S
O94 C93 1.315 . S
O95 Cd85 2.240 . S
O95 C93 1.279 . S
O96 Cd86 2.297 . S
O96 C91 1.247 . S
O97 Cd86 2.439 . S
O97 C91 1.208 . S
O98 Cd99 2.223 . S
O98 C106 1.315 . S
Cd99 O98 2.223 . S
Cd99 O102 2.297 . S
Cd99 O103 2.439 . S
Cd99 O109 2.240 . S
Cd100 O101 2.240 . S
Cd100 O108 2.223 . S
Cd100 O110 2.297 . S
Cd100 O111 2.439 . S
O101 Cd100 2.240 . S
O101 C106 1.279 . S
O102 Cd99 2.297 . S
O102 C104 1.247 . S
O103 Cd99 2.439 . S
O103 C104 1.208 . S
C104 O102 1.247 . S
C104 O103 1.208 . S
C105 O110 1.247 . S
C105 O111 1.208 . S
C106 O98 1.315 . S
C106 O101 1.279 . S
C107 O108 1.315 . S
C107 O109 1.279 . S
O108 Cd100 2.223 . S
O108 C107 1.315 . S
O109 Cd99 2.240 . S
O109 C107 1.279 . S
O110 Cd100 2.297 . S
O110 C105 1.247 . S
O111 Cd100 2.439 . S
O111 C105 1.208 . S
O112 Cd113 2.223 . S
O112 C120 1.315 . S
Cd113 O112 2.223 . S
Cd113 O116 2.297 . S
Cd113 O117 2.439 . S
Cd113 O123 2.240 . S
Cd114 O115 2.240 . S
Cd114 O122 2.223 . S
Cd114 O124 2.297 . S
Cd114 O125 2.439 . S
O115 Cd114 2.240 . S
O115 C120 1.279 . S
O116 Cd113 2.297 . S
O116 C118 1.247 . S
O117 Cd113 2.439 . S
O117 C118 1.208 . S
C118 O116 1.247 . S
C118 O117 1.208 . S
C119 O124 1.247 . S
C119 O125 1.208 . S
C120 O112 1.315 . S
C120 O115 1.279 . S
C121 O122 1.315 . S
C121 O123 1.279 . S
O122 Cd114 2.223 . S
O122 C121 1.315 . S
O123 Cd113 2.240 . S
O123 C121 1.279 . S
O124 Cd114 2.297 . S
O124 C119 1.247 . S
O125 Cd114 2.439 . S
O125 C119 1.208 . S
O126 Cd127 2.223 . S
O126 C134 1.315 . S
Cd127 O126 2.223 . S
Cd127 O130 2.297 . S
Cd127 O131 2.439 . S
Cd127 O137 2.240 . S
Cd128 O129 2.240 . S
Cd128 O136 2.223 . S
Cd128 O138 2.297 . S
Cd128 O139 2.439 . S
O129 Cd128 2.240 . S
O129 C134 1.279 . S
O130 Cd127 2.297 . S
O130 C132 1.247 . S
O131 Cd127 2.439 . S
O131 C132 1.208 . S
C132 O130 1.247 . S
C132 O131 1.208 . S
C133 O138 1.247 . S
C133 O139 1.208 . S
C134 O126 1.315 . S
C134 O129 1.279 . S
C135 O136 1.315 . S
C135 O137 1.279 . S
O136 Cd128 2.223 . S
O136 C135 1.315 . S
O137 Cd127 2.240 . S
O137 C135 1.279 . S
O138 Cd128 2.297 . S
O138 C133 1.247 . S
O139 Cd128 2.439 . S
O139 C133 1.208 . S
O140 Cd141 2.223 . S
O140 C148 1.315 . S
Cd141 O140 2.223 . S
Cd141 O144 2.297 . S
Cd141 O145 2.439 . S
Cd141 O151 2.240 . S
Cd142 O143 2.240 . S
Cd142 O150 2.223 . S
Cd142 O152 2.297 . S
Cd142 O153 2.439 . S
O143 Cd142 2.240 . S
O143 C148 1.279 . S
O144 Cd141 2.297 . S
O144 C146 1.247 . S
O145 Cd141 2.439 . S
O145 C146 1.208 . S
C146 O144 1.247 . S
C146 O145 1.208 . S
C147 O152 1.247 . S
C147 O153 1.208 . S
C148 O140 1.315 . S
C148 O143 1.279 . S
C149 O150 1.315 . S
C149 O151 1.279 . S
O150 Cd142 2.223 . S
O150 C149 1.315 . S
O151 Cd141 2.240 . S
O151 C149 1.279 . S
O152 Cd142 2.297 . S
O152 C147 1.247 . S
O153 Cd142 2.439 . S
O153 C147 1.208 . S
O154 Cd155 2.223 . S
O154 C162 1.315 . S
Cd155 O154 2.223 . S
Cd155 O158 2.297 . S
Cd155 O159 2.439 . S
Cd155 O165 2.240 . S
Cd156 O157 2.240 . S
Cd156 O164 2.223 . S
Cd156 O166 2.297 . S
Cd156 O167 2.439 . S
O157 Cd156 2.240 . S
O157 C162 1.279 . S
O158 Cd155 2.297 . S
O158 C160 1.247 . S
O159 Cd155 2.439 . S
O159 C160 1.208 . S
C160 O158 1.247 . S
C160 O159 1.208 . S
C161 O166 1.247 . S
C161 O167 1.208 . S
C162 O154 1.315 . S
C162 O157 1.279 . S
C163 O164 1.315 . S
C163 O165 1.279 . S
O164 Cd156 2.223 . S
O164 C163 1.315 . S
O165 Cd155 2.240 . S
O165 C163 1.279 . S
O166 Cd156 2.297 . S
O166 C161 1.247 . S
O167 Cd156 2.439 . S
O167 C161 1.208 . S
O168 Cd169 2.223 . S
O168 C176 1.315 . S
Cd169 O168 2.223 . S
Cd169 O172 2.297 . S
Cd169 O173 2.439 . S
Cd169 O179 2.240 . S
Cd170 O171 2.240 . S
Cd170 O178 2.223 . S
Cd170 O180 2.297 . S
Cd170 O181 2.439 . S
O171 Cd170 2.240 . S
O171 C176 1.279 . S
O172 Cd169 2.297 . S
O172 C174 1.247 . S
O173 Cd169 2.439 . S
O173 C174 1.208 . S
C174 O172 1.247 . S
C174 O173 1.208 . S
C175 O180 1.247 . S
C175 O181 1.208 . S
C176 O168 1.315 . S
C176 O171 1.279 . S
C177 O178 1.315 . S
C177 O179 1.279 . S
O178 Cd170 2.223 . S
O178 C177 1.315 . S
O179 Cd169 2.240 . S
O179 C177 1.279 . S
O180 Cd170 2.297 . S
O180 C175 1.247 . S
O181 Cd170 2.439 . S
O181 C175 1.208 . S
O182 Cd183 2.223 . S
O182 C190 1.315 . S
Cd183 O182 2.223 . S
Cd183 O186 2.297 . S
Cd183 O187 2.439 . S
Cd183 O193 2.240 . S
Cd184 O185 2.240 . S
Cd184 O192 2.223 . S
Cd184 O194 2.297 . S
Cd184 O195 2.439 . S
O185 Cd184 2.240 . S
O185 C190 1.279 . S
O186 Cd183 2.297 . S
O186 C188 1.247 . S
O187 Cd183 2.439 . S
O187 C188 1.208 . S
C188 O186 1.247 . S
C188 O187 1.208 . S
C189 O194 1.247 . S
C189 O195 1.208 . S
C190 O182 1.315 . S
C190 O185 1.279 . S
C191 O192 1.315 . S
C191 O193 1.279 . S
O192 Cd184 2.223 . S
O192 C191 1.315 . S
O193 Cd183 2.240 . S
O193 C191 1.279 . S
O194 Cd184 2.297 . S
O194 C189 1.247 . S
O195 Cd184 2.439 . S
O195 C189 1.208 . S
O196 Cd197 2.223 . S
O196 C204 1.315 . S
Cd197 O196 2.223 . S
Cd197 O200 2.297 . S
Cd197 O201 2.439 . S
Cd197 O207 2.240 . S
Cd198 O199 2.240 . S
Cd198 O206 2.223 . S
Cd198 O208 2.297 . S
Cd198 O209 2.439 . S
O199 Cd198 2.240 . S
O199 C204 1.279 . S
O200 Cd197 2.297 . S
O200 C202 1.247 . S
O201 Cd197 2.439 . S
O201 C202 1.208 . S
C202 O200 1.247 . S
C202 O201 1.208 . S
C203 O208 1.247 . S
C203 O209 1.208 . S
C204 O196 1.315 . S
C204 O199 1.279 . S
C205 O206 1.315 . S
C205 O207 1.279 . S
O206 Cd198 2.223 . S
O206 C205 1.315 . S
O207 Cd197 2.240 . S
O207 C205 1.279 . S
O208 Cd198 2.297 . S
O208 C203 1.247 . S
O209 Cd198 2.439 . S
O209 C203 1.208 . S
O210 Cd211 2.223 . S
O210 C218 1.315 . S
Cd211 O210 2.223 . S
Cd211 O214 2.297 . S
Cd211 O215 2.439 . S
Cd211 O221 2.240 . S
Cd212 O213 2.240 . S
Cd212 O220 2.223 . S
Cd212 O222 2.297 . S
Cd212 O223 2.439 . S
O213 Cd212 2.240 . S
O213 C218 1.279 . S
O214 Cd211 2.297 . S
O214 C216 1.247 . S
O215 Cd211 2.439 . S
O215 C216 1.208 . S
C216 O214 1.247 . S
C216 O215 1.208 . S
C217 O222 1.247 . S
C217 O223 1.208 . S
C218 O210 1.315 . S
C218 O213 1.279 . S
C219 O220 1.315 . S
C219 O221 1.279 . S
O220 Cd212 2.223 . S
O220 C219 1.315 . S
O221 Cd211 2.240 . S
O221 C219 1.279 . S
O222 Cd212 2.297 . S
O222 C217 1.247 . S
O223 Cd212 2.439 . S
O223 C217 1.208 . S
C224 C225 1.387 . S
C224 H228 0.950 . S
C224 C233 1.390 . S
C225 C224 1.387 . S
C225 C227 1.387 . S
H226 C233 0.950 . S
C227 C225 1.387 . S
C227 C229 1.390 . S
C227 H231 0.950 . S
H228 C224 0.950 . S
C229 C227 1.390 . S
C229 C230 1.387 . S
C229 H232 0.950 . S
C230 C229 1.387 . S
C230 C233 1.387 . S
H231 C227 0.950 . S
H232 C229 0.950 . S
C233 C224 1.390 . S
C233 H226 0.950 . S
C233 C230 1.387 . S
C234 C235 1.387 . S
C234 H238 0.950 . S
C234 C243 1.390 . S
C235 C234 1.387 . S
C235 C237 1.387 . S
H236 C243 0.950 . S
C237 C235 1.387 . S
C237 C239 1.390 . S
C237 H241 0.950 . S
H238 C234 0.950 . S
C239 C237 1.390 . S
C239 C240 1.387 . S
C239 H242 0.950 . S
C240 C239 1.387 . S
C240 C243 1.387 . S
H241 C237 0.950 . S
H242 C239 0.950 . S
C243 C234 1.390 . S
C243 H236 0.950 . S
C243 C240 1.387 . S
C244 C245 1.387 . S
C244 H248 0.950 . S
C244 C253 1.390 . S
C245 C244 1.387 . S
C245 C247 1.387 . S
H246 C253 0.950 . S
C247 C245 1.387 . S
C247 C249 1.390 . S
C247 H251 0.950 . S
H248 C244 0.950 . S
C249 C247 1.390 . S
C249 C250 1.387 . S
C249 H252 0.950 . S
C250 C249 1.387 . S
C250 C253 1.387 . S
H251 C247 0.950 . S
H252 C249 0.950 . S
C253 C244 1.390 . S
C253 H246 0.950 . S
C253 C250 1.387 . S
C254 C255 1.387 . S
C254 H258 0.950 . S
C254 C263 1.390 . S
C255 C254 1.387 . S
C255 C257 1.387 . S
H256 C263 0.950 . S
C257 C255 1.387 . S
C257 C259 1.390 . S
C257 H261 0.950 . S
H258 C254 0.950 . S
C259 C257 1.390 . S
C259 C260 1.387 . S
C259 H262 0.950 . S
C260 C259 1.387 . S
C260 C263 1.387 . S
H261 C257 0.950 . S
H262 C259 0.950 . S
C263 C254 1.390 . S
C263 H256 0.950 . S
C263 C260 1.387 . S
C264 C265 1.387 . S
C264 H268 0.950 . S
C264 C273 1.390 . S
C265 C264 1.387 . S
C265 C267 1.387 . S
H266 C273 0.950 . S
C267 C265 1.387 . S
C267 C269 1.390 . S
C267 H271 0.950 . S
H268 C264 0.950 . S
C269 C267 1.390 . S
C269 C270 1.387 . S
C269 H272 0.950 . S
C270 C269 1.387 . S
C270 C273 1.387 . S
H271 C267 0.950 . S
H272 C269 0.950 . S
C273 C264 1.390 . S
C273 H266 0.950 . S
C273 C270 1.387 . S
C274 C275 1.387 . S
C274 H278 0.950 . S
C274 C283 1.390 . S
C275 C274 1.387 . S
C275 C277 1.387 . S
H276 C283 0.950 . S
C277 C275 1.387 . S
C277 C279 1.390 . S
C277 H281 0.950 . S
H278 C274 0.950 . S
C279 C277 1.390 . S
C279 C280 1.387 . S
C279 H282 0.950 . S
C280 C279 1.387 . S
C280 C283 1.387 . S
H281 C277 0.950 . S
H282 C279 0.950 . S
C283 C274 1.390 . S
C283 H276 0.950 . S
C283 C280 1.387 . S
C284 C285 1.387 . S
C284 H288 0.950 . S
C284 C293 1.390 . S
C285 C284 1.387 . S
C285 C287 1.387 . S
H286 C293 0.950 . S
C287 C285 1.387 . S
C287 C289 1.390 . S
C287 H291 0.950 . S
H288 C284 0.950 . S
C289 C287 1.390 . S
C289 C290 1.387 . S
C289 H292 0.950 . S
C290 C289 1.387 . S
C290 C293 1.387 . S
H291 C287 0.950 . S
H292 C289 0.950 . S
C293 C284 1.390 . S
C293 H286 0.950 . S
C293 C290 1.387 . S
C294 C295 1.387 . S
C294 H298 0.950 . S
C294 C303 1.390 . S
C295 C294 1.387 . S
C295 C297 1.387 . S
H296 C303 0.950 . S
C297 C295 1.387 . S
C297 C299 1.390 . S
C297 H301 0.950 . S
H298 C294 0.950 . S
C299 C297 1.390 . S
C299 C300 1.387 . S
C299 H302 0.950 . S
C300 C299 1.387 . S
C300 C303 1.387 . S
H301 C297 0.950 . S
H302 C299 0.950 . S
C303 C294 1.390 . S
C303 H296 0.950 . S
C303 C300 1.387 . S
C304 C305 1.387 . S
C304 H308 0.950 . S
C304 C313 1.390 . S
C305 C304 1.387 . S
C305 C307 1.387 . S
H306 C313 0.950 . S
C307 C305 1.387 . S
C307 C309 1.390 . S
C307 H311 0.950 . S
H308 C304 0.950 . S
C309 C307 1.390 . S
C309 C310 1.387 . S
C309 H312 0.950 . S
C310 C309 1.387 . S
C310 C313 1.387 . S
H311 C307 0.950 . S
H312 C309 0.950 . S
C313 C304 1.390 . S
C313 H306 0.950 . S
C313 C310 1.387 . S
C314 C315 1.387 . S
C314 H318 0.950 . S
C314 C323 1.390 . S
C315 C314 1.387 . S
C315 C317 1.387 . S
H316 C323 0.950 . S
C317 C315 1.387 . S
C317 C319 1.390 . S
C317 H321 0.950 . S
H318 C314 0.950 . S
C319 C317 1.390 . S
C319 C320 1.387 . S
C319 H322 0.950 . S
C320 C319 1.387 . S
C320 C323 1.387 . S
H321 C317 0.950 . S
H322 C319 0.950 . S
C323 C314 1.390 . S
C323 H316 0.950 . S
C323 C320 1.387 . S
C324 C325 1.387 . S
C324 H328 0.950 . S
C324 C333 1.390 . S
C325 C324 1.387 . S
C325 C327 1.387 . S
H326 C333 0.950 . S
C327 C325 1.387 . S
C327 C329 1.390 . S
C327 H331 0.950 . S
H328 C324 0.950 . S
C329 C327 1.390 . S
C329 C330 1.387 . S
C329 H332 0.950 . S
C330 C329 1.387 . S
C330 C333 1.387 . S
H331 C327 0.950 . S
H332 C329 0.950 . S
C333 C324 1.390 . S
C333 H326 0.950 . S
C333 C330 1.387 . S
C334 C335 1.387 . S
C334 H338 0.950 . S
C334 C343 1.390 1_554 S
C335 C334 1.387 . S
C335 C337 1.387 . S
H336 C343 0.950 . S
C337 C335 1.387 . S
C337 C339 1.390 1_554 S
C337 H341 0.950 . S
H338 C334 0.950 . S
C339 C337 1.390 1_556 S
C339 C340 1.387 . S
C339 H342 0.950 . S
C340 C339 1.387 . S
C340 C343 1.387 . S
H341 C337 0.950 . S
H342 C339 0.950 . S
C343 C334 1.390 1_556 S
C343 H336 0.950 . S
C343 C340 1.387 . S
C344 C345 1.387 . S
C344 H348 0.950 . S
C344 C353 1.390 1_554 S
C345 C344 1.387 . S
C345 C347 1.387 . S
H346 C353 0.950 . S
C347 C345 1.387 . S
C347 C349 1.390 1_554 S
C347 H351 0.950 . S
H348 C344 0.950 . S
C349 C347 1.390 1_556 S
C349 C350 1.387 . S
C349 H352 0.950 . S
C350 C349 1.387 . S
C350 C353 1.387 . S
H351 C347 0.950 . S
H352 C349 0.950 . S
C353 C344 1.390 1_556 S
C353 H346 0.950 . S
C353 C350 1.387 . S
C354 C355 1.387 . S
C354 H358 0.950 . S
C354 C363 1.390 . S
C355 C354 1.387 . S
C355 C357 1.387 . S
H356 C363 0.950 . S
C357 C355 1.387 . S
C357 C359 1.390 . S
C357 H361 0.950 . S
H358 C354 0.950 . S
C359 C357 1.390 . S
C359 C360 1.387 . S
C359 H362 0.950 . S
C360 C359 1.387 . S
C360 C363 1.387 . S
H361 C357 0.950 . S
H362 C359 0.950 . S
C363 C354 1.390 . S
C363 H356 0.950 . S
C363 C360 1.387 . S
C364 C365 1.387 . S
C364 H368 0.950 . S
C364 C373 1.390 . S
C365 C364 1.387 . S
C365 C367 1.387 . S
H366 C373 0.950 . S
C367 C365 1.387 . S
C367 C369 1.390 . S
C367 H371 0.950 . S
H368 C364 0.950 . S
C369 C367 1.390 . S
C369 C370 1.387 . S
C369 H372 0.950 . S
C370 C369 1.387 . S
C370 C373 1.387 . S
H371 C367 0.950 . S
H372 C369 0.950 . S
C373 C364 1.390 . S
C373 H366 0.950 . S
C373 C370 1.387 . S
C374 C375 1.387 . S
C374 H378 0.950 . S
C374 C383 1.390 . S
C375 C374 1.387 . S
C375 C377 1.387 . S
H376 C383 0.950 . S
C377 C375 1.387 . S
C377 C379 1.390 . S
C377 H381 0.950 . S
H378 C374 0.950 . S
C379 C377 1.390 . S
C379 C380 1.387 . S
C379 H382 0.950 . S
C380 C379 1.387 . S
C380 C383 1.387 . S
H381 C377 0.950 . S
H382 C379 0.950 . S
C383 C374 1.390 . S
C383 H376 0.950 . S
C383 C380 1.387 . S
C384 C385 1.387 . S
C384 H388 0.950 . S
C384 C393 1.390 1_445 S
C385 C384 1.387 . S
C385 C387 1.387 . S
H386 C393 0.950 . S
C387 C385 1.387 . S
C387 C389 1.390 1_445 S
C387 H391 0.950 . S
H388 C384 0.950 . S
C389 C387 1.390 1_665 S
C389 C390 1.387 . S
C389 H392 0.950 . S
C390 C389 1.387 . S
C390 C393 1.387 . S
H391 C387 0.950 . S
H392 C389 0.950 . S
C393 C384 1.390 1_665 S
C393 H386 0.950 . S
C393 C390 1.387 . S
C394 C395 1.387 . S
C394 H398 0.950 . S
C394 C403 1.390 1_455 S
C395 C394 1.387 . S
C395 C397 1.387 . S
H396 C403 0.950 . S
C397 C395 1.387 . S
C397 C399 1.390 1_455 S
C397 H401 0.950 . S
H398 C394 0.950 . S
C399 C397 1.390 1_655 S
C399 C400 1.387 . S
C399 H402 0.950 . S
C400 C399 1.387 . S
C400 C403 1.387 . S
H401 C397 0.950 . S
H402 C399 0.950 . S
C403 C394 1.390 1_655 S
C403 H396 0.950 . S
C403 C400 1.387 . S
C404 C405 1.387 . S
C404 H408 0.950 . S
C404 C413 1.390 . S
C405 C404 1.387 . S
C405 C407 1.387 . S
H406 C413 0.950 . S
C407 C405 1.387 . S
C407 C409 1.390 . S
C407 H411 0.950 . S
H408 C404 0.950 . S
C409 C407 1.390 . S
C409 C410 1.387 . S
C409 H412 0.950 . S
C410 C409 1.387 . S
C410 C413 1.387 . S
H411 C407 0.950 . S
H412 C409 0.950 . S
C413 C404 1.390 . S
C413 H406 0.950 . S
C413 C410 1.387 . S
C414 C415 1.387 . S
C414 H418 0.950 . S
C414 C423 1.390 1_545 S
C415 C414 1.387 . S
C415 C417 1.387 . S
H416 C423 0.950 . S
C417 C415 1.387 . S
C417 C419 1.390 1_545 S
C417 H421 0.950 . S
H418 C414 0.950 . S
C419 C417 1.390 1_565 S
C419 C420 1.387 . S
C419 H422 0.950 . S
C420 C419 1.387 . S
C420 C423 1.387 . S
H421 C417 0.950 . S
H422 C419 0.950 . S
C423 C414 1.390 1_565 S
C423 H416 0.950 . S
C423 C420 1.387 . S
C424 C425 1.387 . S
C424 H428 0.950 . S
C424 C433 1.390 1_455 S
C425 C424 1.387 . S
C425 C427 1.387 . S
H426 C433 0.950 . S
C427 C425 1.387 . S
C427 C429 1.390 1_455 S
C427 H431 0.950 . S
H428 C424 0.950 . S
C429 C427 1.390 1_655 S
C429 C430 1.387 . S
C429 H432 0.950 . S
C430 C429 1.387 . S
C430 C433 1.387 . S
H431 C427 0.950 . S
H432 C429 0.950 . S
C433 C424 1.390 1_655 S
C433 H426 0.950 . S
C433 C430 1.387 . S
C434 C435 1.387 . S
C434 H438 0.950 . S
C434 C443 1.390 . S
C435 C434 1.387 . S
C435 C437 1.387 . S
H436 C443 0.950 . S
C437 C435 1.387 . S
C437 C439 1.390 . S
C437 H441 0.950 . S
H438 C434 0.950 . S
C439 C437 1.390 . S
C439 C440 1.387 . S
C439 H442 0.950 . S
C440 C439 1.387 . S
C440 C443 1.387 . S
H441 C437 0.950 . S
H442 C439 0.950 . S
C443 C434 1.390 . S
C443 H436 0.950 . S
C443 C440 1.387 . S
C444 C445 1.387 . S
C444 H448 0.950 . S
C444 C453 1.390 1_565 S
C445 C444 1.387 . S
C445 C447 1.387 . S
H446 C453 0.950 . S
C447 C445 1.387 . S
C447 C449 1.390 1_565 S
C447 H451 0.950 . S
H448 C444 0.950 . S
C449 C447 1.390 1_545 S
C449 C450 1.387 . S
C449 H452 0.950 . S
C450 C449 1.387 . S
C450 C453 1.387 . S
H451 C447 0.950 . S
H452 C449 0.950 . S
C453 C444 1.390 1_545 S
C453 H446 0.950 . S
C453 C450 1.387 . S
C454 C455 1.387 . S
C454 H458 0.950 . S
C454 C463 1.390 1_445 S
C455 C454 1.387 . S
C455 C457 1.387 . S
H456 C463 0.950 . S
C457 C455 1.387 . S
C457 C459 1.390 1_445 S
C457 H461 0.950 . S
H458 C454 0.950 . S
C459 C457 1.390 1_665 S
C459 C460 1.387 . S
C459 H462 0.950 . S
C460 C459 1.387 . S
C460 C463 1.387 . S
H461 C457 0.950 . S
H462 C459 0.950 . S
C463 C454 1.390 1_665 S
C463 H456 0.950 . S
C463 C460 1.387 . S
C464 C465 1.387 . S
C464 H468 0.950 . S
C464 C473 1.390 1_565 S
C465 C464 1.387 . S
C465 C467 1.387 . S
H466 C473 0.950 . S
C467 C465 1.387 . S
C467 C469 1.390 1_565 S
C467 H471 0.950 . S
H468 C464 0.950 . S
C469 C467 1.390 1_545 S
C469 C470 1.387 . S
C469 H472 0.950 . S
C470 C469 1.387 . S
C470 C473 1.387 . S
H471 C467 0.950 . S
H472 C469 0.950 . S
C473 C464 1.390 1_545 S
C473 H466 0.950 . S
C473 C470 1.387 . S
C474 C475 1.387 . S
C474 H478 0.950 . S
C474 C483 1.390 1_665 S
C475 C474 1.387 . S
C475 C477 1.387 . S
H476 C483 0.950 . S
C477 C475 1.387 . S
C477 C479 1.390 1_665 S
C477 H481 0.950 . S
H478 C474 0.950 . S
C479 C477 1.390 1_445 S
C479 C480 1.387 . S
C479 H482 0.950 . S
C480 C479 1.387 . S
C480 C483 1.387 . S
H481 C477 0.950 . S
H482 C479 0.950 . S
C483 C474 1.390 1_445 S
C483 H476 0.950 . S
C483 C480 1.387 . S
C484 C485 1.387 . S
C484 H488 0.950 . S
C484 C493 1.390 1_455 S
C485 C484 1.387 . S
C485 C487 1.387 . S
H486 C493 0.950 . S
C487 C485 1.387 . S
C487 C489 1.390 1_455 S
C487 H491 0.950 . S
H488 C484 0.950 . S
C489 C487 1.390 1_655 S
C489 C490 1.387 . S
C489 H492 0.950 . S
C490 C489 1.387 . S
C490 C493 1.387 . S
H491 C487 0.950 . S
H492 C489 0.950 . S
C493 C484 1.390 1_655 S
C493 H486 0.950 . S
C493 C490 1.387 . S
C494 C495 1.387 . S
C494 H498 0.950 . S
C494 C503 1.390 . S
C495 C494 1.387 . S
C495 C497 1.387 . S
H496 C503 0.950 . S
C497 C495 1.387 . S
C497 C499 1.390 . S
C497 H501 0.950 . S
H498 C494 0.950 . S
C499 C497 1.390 . S
C499 C500 1.387 . S
C499 H502 0.950 . S
C500 C499 1.387 . S
C500 C503 1.387 . S
H501 C497 0.950 . S
H502 C499 0.950 . S
C503 C494 1.390 . S
C503 H496 0.950 . S
C503 C500 1.387 . S
C504 C505 1.387 . S
C504 H508 0.950 . S
C504 C513 1.390 . S
C505 C504 1.387 . S
C505 C507 1.387 . S
H506 C513 0.950 . S
C507 C505 1.387 . S
C507 C509 1.390 . S
C507 H511 0.950 . S
H508 C504 0.950 . S
C509 C507 1.390 . S
C509 C510 1.387 . S
C509 H512 0.950 . S
C510 C509 1.387 . S
C510 C513 1.387 . S
H511 C507 0.950 . S
H512 C509 0.950 . S
C513 C504 1.390 . S
C513 H506 0.950 . S
C513 C510 1.387 . S
C514 C515 1.387 . S
C514 H518 0.950 . S
C514 C523 1.390 1_545 S
C515 C514 1.387 . S
C515 C517 1.387 . S
H516 C523 0.950 . S
C517 C515 1.387 . S
C517 C519 1.390 1_545 S
C517 H521 0.950 . S
H518 C514 0.950 . S
C519 C517 1.390 1_565 S
C519 C520 1.387 . S
C519 H522 0.950 . S
C520 C519 1.387 . S
C520 C523 1.387 . S
H521 C517 0.950 . S
H522 C519 0.950 . S
C523 C514 1.390 1_565 S
C523 H516 0.950 . S
C523 C520 1.387 . S
C524 C525 1.387 . S
C524 H528 0.950 . S
C524 C533 1.390 1_665 S
C525 C524 1.387 . S
C525 C527 1.387 . S
H526 C533 0.950 . S
C527 C525 1.387 . S
C527 C529 1.390 1_665 S
C527 H531 0.950 . S
H528 C524 0.950 . S
C529 C527 1.390 1_445 S
C529 C530 1.387 . S
C529 H532 0.950 . S
C530 C529 1.387 . S
C530 C533 1.387 . S
H531 C527 0.950 . S
H532 C529 0.950 . S
C533 C524 1.390 1_445 S
C533 H526 0.950 . S
C533 C530 1.387 . S
C534 C535 1.387 . S
C534 H538 0.950 . S
C534 C543 1.390 1_655 S
C535 C534 1.387 . S
C535 C537 1.387 . S
H536 C543 0.950 . S
C537 C535 1.387 . S
C537 C539 1.390 1_655 S
C537 H541 0.950 . S
H538 C534 0.950 . S
C539 C537 1.390 1_455 S
C539 C540 1.387 . S
C539 H542 0.950 . S
C540 C539 1.387 . S
C540 C543 1.387 . S
H541 C537 0.950 . S
H542 C539 0.950 . S
C543 C534 1.390 1_455 S
C543 H536 0.950 . S
C543 C540 1.387 . S
C225 C63 1.493 . S
C230 C7 1.493 . S
C235 C21 1.492 . S
C240 C77 1.492 . S
C245 C91 1.493 . S
C250 C35 1.493 . S
C255 C105 1.493 . S
C260 C49 1.493 . S
C265 C175 1.493 . S
C270 C119 1.493 . S
C275 C133 1.492 . S
C280 C189 1.492 . S
C285 C203 1.492 . S
C290 C147 1.492 . S
C295 C161 1.493 . S
C300 C217 1.493 . S
C305 C8 1.457 . S
C310 C218 1.458 . S
C315 C22 1.458 . S
C320 C176 1.457 . S
C325 C36 1.457 . S
C330 C190 1.456 . S
C335 C204 1.457 . S
C340 C50 1.458 . S
C345 C64 1.456 . S
C350 C134 1.456 . S
C355 C78 1.456 . S
C360 C148 1.457 . S
C365 C162 1.458 . S
C370 C92 1.458 . S
C375 C120 1.457 . S
C380 C106 1.458 . S
C385 C6 1.595 . S
C390 C146 1.595 . S
C395 C160 1.595 . S
C400 C20 1.595 . S
C405 C34 1.597 . S
C410 C118 1.597 . S
C415 C132 1.595 . S
C420 C48 1.595 . S
C425 C62 1.597 . S
C430 C202 1.597 . S
C435 C76 1.597 . S
C440 C216 1.597 . S
C445 C174 1.597 . S
C450 C90 1.597 . S
C455 C188 1.595 . S
C460 C104 1.595 . S
C465 C149 1.502 . S
C470 C9 1.502 . S
C475 C23 1.502 . S
C480 C163 1.502 . S
C485 C37 1.502 . S
C490 C121 1.502 . S
C495 C135 1.502 . S
C500 C51 1.502 . S
C505 C205 1.502 . S
C510 C65 1.502 . S
C515 C219 1.502 . S
C520 C79 1.502 . S
C525 C177 1.502 . S
C530 C93 1.502 . S
C535 C107 1.502 . S
C540 C191 1.502 . S
