# Generated by pormake.
# Topology rob, (6)-cn, num edge types: 1
# Building blocks:
#     Node 0, Type 0, BuildingBlock: BETDAH_clean_sbu_0, # of connection points: 6
#     Node 1, Type 0, BuildingBlock: BETDAH_clean_sbu_0, # of connection points: 6
#     Node 2, Type 0, BuildingBlock: BETDAH_clean_sbu_0, # of connection points: 6
#     Node 3, Type 0, BuildingBlock: BETDAH_clean_sbu_0, # of connection points: 6
#     Edge 4, Type (0, 0), BuildingBlock: FUNLAD_clean_linker_1, # of connection points: 2
#     Edge 5, Type (0, 0), BuildingBlock: FUNLAD_clean_linker_1, # of connection points: 2
#     Edge 6, Type (0, 0), BuildingBlock: FUNLAD_clean_linker_1, # of connection points: 2
#     Edge 7, Type (0, 0), BuildingBlock: FUNLAD_clean_linker_1, # of connection points: 2
#     Edge 8, Type (0, 0), BuildingBlock: FUNLAD_clean_linker_1, # of connection points: 2
#     Edge 9, Type (0, 0), BuildingBlock: FUNLAD_clean_linker_1, # of connection points: 2
#     Edge 10, Type (0, 0), BuildingBlock: FUNLAD_clean_linker_1, # of connection points: 2
#     Edge 11, Type (0, 0), BuildingBlock: FUNLAD_clean_linker_1, # of connection points: 2
#     Edge 12, Type (0, 0), BuildingBlock: FUNLAD_clean_linker_1, # of connection points: 2
#     Edge 13, Type (0, 0), BuildingBlock: FUNLAD_clean_linker_1, # of connection points: 2
#     Edge 14, Type (0, 0), BuildingBlock: FUNLAD_clean_linker_1, # of connection points: 2
#     Edge 15, Type (0, 0), BuildingBlock: FUNLAD_clean_linker_1, # of connection points: 2
# Relax obj value: 0.139
# Max RMSD: 0.190
# Mean RMSD: 0.190
data_MOF--net-rob--node1-BETDAH_clean_sbu_0--edge1-FUNLAD_clean_linker_1
_symmetry_space_group_name_H-M    P1
_symmetry_Int_Tables_number       1
_symmetry_cell_setting            triclinic
loop_
_symmetry_equiv_pos_as_xyz
'x, y, z'
_cell_length_a     16.711337
_cell_length_b     24.571908
_cell_length_c     38.480869
_cell_angle_alpha  90.647525
_cell_angle_beta   125.95139
_cell_angle_gamma 88.830916
loop_
_atom_site_label
_atom_site_type_symbol
_atom_site_fract_x
_atom_site_fract_y
_atom_site_fract_z
_atom_type_partial_charge
Ho0 Ho 0.18032 0.30532 0.00654 0.0
Ho1 Ho 0.3564 0.25381 0.0102 0.0
C2 C 0.37949 0.26174 0.0971 0.0
C3 C 0.04195 0.32575 0.01619 0.0
C4 C 0.03072 0.3209 0.05126 0.0
C5 C 0.0805 0.27987 0.08251 0.0
C6 C 0.07074 0.27689 0.11618 0.0
C7 C 1.01138 0.31526 0.11934 0.0
C8 C 0.96089 0.35573 0.0876 0.0
C9 C 0.97071 0.35864 0.05401 0.0
C10 C 0.30963 0.37523 0.01228 0.0
C11 C 0.15416 0.29422 0.91839 0.0
C12 C 0.49531 0.23937 1.00025 0.0
C13 C 0.49735 0.23671 0.96254 0.0
C14 C 0.57748 0.25828 0.96496 0.0
C15 C 0.57902 0.25766 0.92899 0.0
C16 C 0.49975 0.23565 0.88982 0.0
C17 C 0.41962 0.21418 0.88761 0.0
C18 C 0.41809 0.21493 0.92353 0.0
C19 C 0.22767 0.18305 0.00407 0.0
O20 O 0.28255 0.27045 0.07364 0.0
O21 O 0.42957 0.26143 0.08045 0.0
O22 O 0.1044 0.36222 0.02173 0.0
O23 O 0.04889 0.28021 1.00003 0.0
O24 O 0.21542 0.38572 0.99062 0.0
O25 O 0.3302 0.33041 0.03144 0.0
O26 O 0.24923 0.28036 0.94108 0.0
O27 O 0.10637 0.30174 0.93587 0.0
O28 O 0.45239 0.19924 0.00521 0.0
O29 O 0.47139 0.28702 0.00743 0.0
O30 O 0.32163 0.17218 0.0245 0.0
O31 O 0.20662 0.22836 0.98542 0.0
H32 H 0.12692 0.2501 0.0809 0.0
H33 H 0.10913 0.24421 0.13918 0.0
H34 H 0.91412 0.38557 0.08894 0.0
H35 H 0.93164 0.39059 0.03021 0.0
H36 H 0.63903 0.27557 0.99473 0.0
H37 H 0.6432 0.27347 0.93238 0.0
H38 H 0.35772 0.1969 0.85793 0.0
H39 H 0.35489 0.19858 0.92079 0.0
Ho40 Ho 0.68313 0.80161 0.99901 0.0
Ho41 Ho 0.85181 0.74148 1.00006 0.0
C42 C 0.87986 0.75196 0.08858 0.0
C43 C 0.54477 0.82459 0.00846 0.0
C44 C 0.52903 0.81961 0.04222 0.0
C45 C 0.59478 0.7895 0.07977 0.0
C46 C 0.57961 0.78621 0.11184 0.0
C47 C 0.49741 0.81245 0.10664 0.0
C48 C 0.43077 0.84154 0.06852 0.0
C49 C 0.44684 0.84545 0.0368 0.0
C50 C 0.81823 0.86573 0.00402 0.0
C51 C 0.65635 0.79213 0.91062 0.0
C52 C 0.99128 0.71929 0.99138 0.0
C53 C 1.0089 0.72798 0.95857 0.0
C54 C 0.95726 0.76865 0.92716 0.0
C55 C 0.97469 0.77612 0.89611 0.0
C56 C 0.0437 0.74258 0.89569 0.0
C57 C 0.09624 0.70264 0.92777 0.0
C58 C 0.07888 0.69534 0.95881 0.0
C59 C 0.71788 0.67741 0.99596 0.0
O60 O 0.7869 0.7697 0.06671 0.0
O61 O 0.92599 0.74201 0.07066 0.0
O62 O 0.61144 0.85934 0.01585 0.0
O63 O 0.54958 0.77901 0.99174 0.0
O64 O 0.72629 0.88053 0.98508 0.0
O65 O 0.83466 0.82031 0.02208 0.0
O66 O 0.74851 0.77318 0.93225 0.0
O67 O 0.61011 0.80278 0.92844 0.0
O68 O 0.92178 0.68505 0.98145 0.0
O69 O 0.989 0.76306 0.01053 0.0
O70 O 0.81012 0.66298 0.01515 0.0
O71 O 0.70069 0.72252 0.97733 0.0
H72 H 0.65726 0.7681 0.08414 0.0
H73 H 0.6309 0.76193 0.14001 0.0
H74 H 0.36643 0.86177 0.06342 0.0
H75 H 0.39483 0.86863 0.00793 0.0
H76 H 0.90345 0.79467 0.92663 0.0
H77 H 0.93383 0.80818 0.87278 0.0
H78 H 0.14998 0.67629 0.92848 0.0
H79 H 0.11988 0.66392 0.98292 0.0
Ho80 Ho 0.35227 0.78273 0.5012 0.0
Ho81 Ho 0.17101 0.75471 0.4975 0.0
C82 C 0.1377 0.76797 0.40908 0.0
C83 C 0.48876 0.78916 0.48894 0.0
C84 C 0.4939 0.79127 0.45187 0.0
C85 C 0.43308 0.75924 0.41506 0.0
C86 C 0.43976 0.7621 0.38044 0.0
C87 C 0.50709 0.7975 0.38184 0.0
C88 C 0.56776 0.82921 0.41891 0.0
C89 C 0.56125 0.82615 0.45345 0.0
C90 C 0.26157 0.86811 0.51082 0.0
C91 C 0.38468 0.76608 0.58919 0.0
C92 C 0.03365 0.75116 0.50924 0.0
C93 C 0.02811 0.75828 0.54588 0.0
C94 C 0.10705 0.74245 0.58751 0.0
C95 C 0.09946 0.74805 0.6217 0.0
C96 C 1.01284 0.77023 0.61504 0.0
C97 C 0.9351 0.78714 0.57337 0.0
C98 C 0.94254 0.78111 0.53915 0.0
C99 C 0.26233 0.66907 0.48827 0.0
O100 O 0.23516 0.76554 0.4311 0.0
O101 O 0.09266 0.77196 0.42788 0.0
O102 O 0.44914 0.83162 0.49452 0.0
O103 O 0.46123 0.74335 0.49559 0.0
O104 O 0.35665 0.86247 0.53195 0.0
O105 O 0.21909 0.82933 0.4846 0.0
O106 O 0.28802 0.77336 0.56743 0.0
O107 O 0.4286 0.7596 0.56998 0.0
O108 O 0.0822 0.70817 0.51007 0.0
O109 O 0.05286 0.79482 0.49645 0.0
O110 O 0.16726 0.67399 0.46779 0.0
O111 O 0.30425 0.70817 0.51414 0.0
H112 H 0.38047 0.73189 0.41302 0.0
H113 H 0.39228 0.73626 0.35306 0.0
H114 H 0.62068 0.85664 0.42123 0.0
H115 H 0.60908 0.85115 0.48153 0.0
H116 H 0.17447 0.72535 0.59361 0.0
H117 H 0.16204 0.73485 0.65298 0.0
H118 H 0.86774 0.80465 0.56709 0.0
H119 H 0.88106 0.79402 0.50732 0.0
Ho120 Ho 0.85509 0.28618 0.50786 0.0
Ho121 Ho 0.68441 0.2469 0.50708 0.0
C122 C 0.64036 0.2652 0.41689 0.0
C123 C 0.99146 0.29922 0.49622 0.0
C124 C 1.00151 0.29737 0.46071 0.0
C125 C 0.93108 0.27195 0.42157 0.0
C126 C 0.94259 0.27086 0.3883 0.0
C127 C 0.02503 0.2952 0.39379 0.0
C128 C 0.09567 0.31987 0.4333 0.0
C129 C 0.08377 0.32119 0.46633 0.0
C130 C 0.75617 0.36595 0.51821 0.0
C131 C 0.8955 0.27138 0.59742 0.0
C132 C 0.55538 0.23087 0.52249 0.0
C133 C 0.55379 0.24045 0.5599 0.0
C134 C 0.61457 0.2796 0.5908 0.0
C135 C 0.61682 0.28622 0.62748 0.0
C136 C 0.55871 0.25375 0.63416 0.0
C137 C 0.49618 0.2152 0.60251 0.0
C138 C 0.49431 0.20855 0.56588 0.0
C139 C 0.78256 0.16784 0.49576 0.0
O140 O 0.73722 0.26924 0.43775 0.0
O141 O 0.5982 0.26162 0.43686 0.0
O142 O 0.93773 0.33921 0.49545 0.0
O143 O 0.97497 0.25293 0.50721 0.0
O144 O 0.85113 0.36465 0.53777 0.0
O145 O 0.71738 0.32616 0.49267 0.0
O146 O 0.79833 0.27142 0.57581 0.0
O147 O 0.93893 0.26896 0.57789 0.0
O148 O 0.6183 0.1935 0.52769 0.0
O149 O 0.55528 0.27423 0.50302 0.0
O150 O 0.68764 0.16941 0.47603 0.0
O151 O 0.82157 0.20695 0.52197 0.0
H152 H 0.86776 0.25261 0.41685 0.0
H153 H 0.8879 0.25004 0.35889 0.0
H154 H 0.16013 0.33859 0.43857 0.0
H155 H 0.13912 0.34076 0.4964 0.0
H156 H 0.66107 0.30468 0.58679 0.0
H157 H 0.66537 0.31635 0.65105 0.0
H158 H 0.44803 0.19016 0.60542 0.0
H159 H 0.44675 0.17818 0.54229 0.0
H160 H 0.5668 0.66055 0.97574 0.0
C161 C 0.64175 0.64411 0.99316 0.0
H162 H 0.73654 0.57701 0.02721 0.0
H163 H 0.36229 0.53489 0.0404 0.0
H164 H 0.41589 0.61653 0.08414 0.0
H165 H 0.54917 0.67198 0.09419 0.0
H166 H 0.62798 0.64738 0.05967 0.0
C167 C 0.66249 0.59437 0.01106 0.0
C168 C 0.58446 0.55986 0.00671 0.0
C169 C 0.53916 0.57499 0.02721 0.0
C170 C 0.46405 0.54205 0.0224 0.0
C171 C 0.41989 0.55825 0.04308 0.0
C172 C 0.45005 0.60496 0.06836 0.0
C173 C 0.52486 0.63635 0.07388 0.0
C174 C 0.56917 0.62181 0.05366 0.0
H175 H 0.46 0.39591 0.03375 0.0
C176 C 0.38349 0.41014 0.01471 0.0
H177 H 0.28379 0.47379 0.97642 0.0
H178 H 0.65824 0.51788 0.96441 0.0
H179 H 0.6084 0.43451 0.92273 0.0
H180 H 0.47771 0.37783 0.91415 0.0
H181 H 0.39656 0.40391 0.9474 0.0
C182 C 0.35941 0.45826 0.99436 0.0
C183 C 0.43622 0.49323 0.99818 0.0
C184 C 0.48229 0.47772 0.97811 0.0
C185 C 0.55688 0.51084 0.98263 0.0
C186 C 0.60149 0.49425 0.9622 0.0
C187 C 0.57339 0.44655 0.93807 0.0
C188 C 0.49991 0.41459 0.93327 0.0
C189 C 0.45432 0.42991 0.95279 0.0
H190 H 0.26564 0.59107 0.46001 0.0
C191 C 0.31226 0.62133 0.48413 0.0
H192 H 0.45812 0.64243 0.5344 0.0
H193 H 0.63517 0.40235 0.56977 0.0
H194 H 0.63854 0.41896 0.63278 0.0
H195 H 0.5604 0.50156 0.63831 0.0
H196 H 0.47788 0.568 0.58074 0.0
C197 C 0.41118 0.61355 0.50901 0.0
C198 C 0.45912 0.56348 0.50529 0.0
C199 C 0.50891 0.52523 0.53949 0.0
C200 C 0.55535 0.47769 0.53654 0.0
C201 C 0.60102 0.43961 0.57067 0.0
C202 C 0.60293 0.44847 0.60696 0.0
C203 C 0.55887 0.49498 0.61007 0.0
C204 C 0.512 0.5329 0.5768 0.0
H205 H 0.74752 0.44351 0.54534 0.0
C206 C 0.70279 0.41251 0.52155 0.0
H207 H 0.55818 0.3895 0.47118 0.0
H208 H 0.37943 0.63032 0.43552 0.0
H209 H 0.37617 0.61379 0.37255 0.0
H210 H 0.45238 0.53056 0.36655 0.0
H211 H 0.53377 0.46369 0.42387 0.0
C212 C 0.60359 0.41894 0.49635 0.0
C213 C 0.55369 0.46851 0.49958 0.0
C214 C 0.50358 0.50669 0.4653 0.0
C215 C 0.45753 0.55437 0.46835 0.0
C216 C 0.41274 0.59277 0.43443 0.0
C217 C 0.41091 0.58395 0.39815 0.0
C218 C 0.45398 0.53714 0.39482 0.0
C219 C 0.50023 0.49898 0.42794 0.0
H220 H 0.07722 0.15999 0.98131 0.0
C221 C 0.15347 0.14559 0.99892 0.0
H222 H 0.25349 0.08027 0.03274 0.0
H223 H 0.98889 0.96496 0.07727 0.0
H224 H 0.12681 0.99488 0.14744 0.0
H225 H 0.25456 0.05352 0.15533 0.0
H226 H 0.24465 0.08291 0.09298 0.0
C227 C 0.17699 0.09444 0.0143 0.0
C228 C 0.10144 0.05685 0.00913 0.0
C229 C 0.10901 0.03917 0.04596 0.0
C230 C 0.03608 1.00449 0.04144 0.0
C231 C 0.04354 0.98968 0.07874 0.0
C232 C 0.12204 1.00698 0.1193 0.0
C233 C 0.1939 0.04005 0.12374 0.0
C234 C 0.18746 0.05643 0.08763 0.0
H235 H 0.97048 0.88292 0.02592 0.0
C236 C 0.896 0.89992 0.00901 0.0
H237 H 0.80295 0.96817 0.97676 0.0
H238 H 0.07109 0.07705 0.9322 0.0
H239 H 0.93557 0.04515 0.86216 0.0
H240 H 0.80847 0.98595 0.85428 0.0
H241 H 0.81609 0.95833 0.91647 0.0
C242 C 0.87781 0.95149 0.9946 0.0
C243 C 0.95663 0.98646 1.00007 0.0
C244 C 0.95023 1.00325 0.96334 0.0
C245 C 0.02299 0.03803 0.96785 0.0
C246 C 1.01648 0.05218 0.93066 0.0
C247 C 0.9395 0.03369 0.89022 0.0
C248 C 0.868 1.0003 0.88579 0.0
C249 C 0.87304 0.985 0.92177 0.0
H250 H 0.78945 0.09521 0.46346 0.0
C251 C 0.83477 0.12288 0.49011 0.0
H252 H 0.97914 0.13898 0.54465 0.0
H253 H 0.1163 0.89086 0.55418 0.0
H254 H 0.09449 0.89136 0.61109 0.0
H255 H 0.02259 0.97159 0.6232 0.0
H256 H 0.97027 0.05166 0.5778 0.0
C257 C 0.93305 0.11343 0.5166 0.0
C258 C 0.98008 0.06538 0.51006 0.0
C259 C 1.01333 1.01941 0.53763 0.0
C260 C 0.05661 0.97328 0.53114 0.0
C261 C 0.08508 0.92732 0.55817 0.0
C262 C 0.07268 0.92698 0.59093 0.0
C263 C 0.03197 0.97213 0.59765 0.0
C264 C 1.0024 1.01786 0.57141 0.0
H265 H 0.25925 0.9415 0.54386 0.0
C266 C 0.21246 0.91442 0.51696 0.0
H267 H 0.06729 0.89977 0.46251 0.0
H268 H 0.92933 0.14706 0.45245 0.0
H269 H 0.94745 0.14556 0.39438 0.0
H270 H 0.02065 0.06561 0.38276 0.0
H271 H 0.07681 0.98654 0.42933 0.0
C272 C 0.11446 0.925 0.49064 0.0
C273 C 0.06858 0.97329 0.49753 0.0
C274 C 0.03475 1.0191 0.46979 0.0
C275 C 0.99127 0.06518 0.4762 0.0
C276 C 0.96094 0.11068 0.4486 0.0
C277 C 0.97136 0.11049 0.41524 0.0
C278 C 1.01267 0.06546 0.40872 0.0
C279 C 0.04444 1.02029 0.43564 0.0
H280 H 0.50172 0.24892 0.35339 0.0
C281 C 0.57751 0.26214 0.36975 0.0
H282 H 0.68803 0.28709 0.36313 0.0
H283 H 0.5198 0.16533 0.18932 0.0
H284 H 0.67217 0.11477 0.23857 0.0
H285 H 0.77189 0.13261 0.31644 0.0
H286 H 0.71898 0.20034 0.3455 0.0
C287 C 0.61201 0.27443 0.34693 0.0
C288 C 0.55243 0.26556 0.2998 0.0
C289 C 0.58571 0.22649 0.28331 0.0
C290 C 0.52991 0.21735 0.23834 0.0
C291 C 0.56181 0.17584 0.22298 0.0
C292 C 0.64859 0.14602 0.25097 0.0
C293 C 0.70461 0.15597 0.2948 0.0
C294 C 0.67348 0.19527 0.31101 0.0
H295 H 0.51346 0.26464 0.1636 0.0
C296 C 0.43472 0.25652 0.14389 0.0
H297 H 0.31132 0.23636 0.14284 0.0
H298 H 0.47048 0.34602 0.32055 0.0
H299 H 0.31752 0.39577 0.27132 0.0
H300 H 0.22083 0.37991 0.19327 0.0
H301 H 0.27695 0.31455 0.1642 0.0
C302 C 0.39001 0.24448 0.16254 0.0
C303 C 0.44308 0.24893 0.20983 0.0
C304 C 0.40864 0.28719 0.22638 0.0
C305 C 0.46373 0.29584 0.27142 0.0
C306 C 0.42991 0.33613 0.28686 0.0
C307 C 0.34258 0.36552 0.25887 0.0
C308 C 0.28823 0.35666 0.21496 0.0
C309 C 0.32109 0.31857 0.19871 0.0
H310 H 0.4009 0.81587 0.1286 0.0
C311 C 0.47671 0.80889 0.13933 0.0
H312 H 0.62347 0.79328 0.19348 0.0
H313 H 0.40327 0.87909 0.28337 0.0
H314 H 0.37807 0.96524 0.24787 0.0
H315 H 0.42263 0.97535 0.19752 0.0
H316 H 0.49115 0.89922 0.18188 0.0
C317 C 0.54681 0.79979 0.18144 0.0
C318 C 0.52208 0.79506 0.21285 0.0
C319 C 0.48547 0.84068 0.22289 0.0
C320 C 0.46305 0.83541 0.25318 0.0
C321 C 0.42347 0.88108 0.2614 0.0
C322 C 0.40849 0.93079 0.24119 0.0
C323 C 0.43331 0.93643 0.21275 0.0
C324 C 0.4719 0.89219 0.20378 0.0
H325 H 0.5794 0.82684 0.35249 0.0
C326 C 0.51866 0.80243 0.34629 0.0
H327 H 0.39831 0.75419 0.29894 0.0
H328 H 0.59013 0.69951 0.20095 0.0
H329 H 0.61751 0.61387 0.23734 0.0
H330 H 0.58244 0.60545 0.29101 0.0
H331 H 0.51961 0.68269 0.30859 0.0
C332 C 0.45953 0.77945 0.30717 0.0
C333 C 0.47996 0.78504 0.2744 0.0
C334 C 0.51663 0.73957 0.2644 0.0
C335 C 0.53784 0.74459 0.23373 0.0
C336 C 0.57394 0.69828 0.22433 0.0
C337 C 0.58974 0.64877 0.2449 0.0
C338 C 0.5699 0.64402 0.27509 0.0
C339 C 0.53376 0.6887 0.28484 0.0
H340 H 0.56675 0.84031 0.851 0.0
C341 C 0.60341 0.80121 0.86437 0.0
H342 H 0.63617 0.72278 0.85346 0.0
H343 H 0.29257 0.8335 0.6591 0.0
H344 H 0.1913 0.84821 0.68415 0.0
H345 H 0.25249 0.823 0.7579 0.0
H346 H 0.41591 0.78448 0.80699 0.0
C347 C 0.60078 0.76187 0.83918 0.0
C348 C 0.55842 0.77107 0.79303 0.0
C349 C 0.46001 0.79083 0.7636 0.0
C350 C 0.42357 0.80307 0.7205 0.0
C351 C 0.32537 0.82367 0.69225 0.0
C352 C 0.26561 0.83202 0.70609 0.0
C353 C 0.29998 0.81802 0.74756 0.0
C354 C 0.39511 0.79679 0.7758 0.0
H355 H 0.483 0.72327 0.6506 0.0
C356 C 0.4427 0.76118 0.63598 0.0
H357 H 0.40043 0.83846 0.64401 0.0
H358 H 0.74649 0.72658 0.83926 0.0
H359 H 0.84587 0.7089 0.81379 0.0
H360 H 0.78936 0.73825 0.74141 0.0
H361 H 0.62868 0.78128 0.69315 0.0
C362 C 0.44113 0.80099 0.65981 0.0
C363 C 0.48419 0.79334 0.70626 0.0
C364 C 0.5828 0.7737 0.73581 0.0
C365 C 0.61846 0.76064 0.77866 0.0
C366 C 0.71493 0.73776 0.80646 0.0
C367 C 0.77388 0.72799 0.79243 0.0
C368 C 0.74164 0.74399 0.75161 0.0
C369 C 0.64822 0.76769 0.72387 0.0
H370 H 0.60496 0.29742 0.69379 0.0
C371 C 0.56481 0.26224 0.67408 0.0
H372 H 0.48993 0.19153 0.6708 0.0
H373 H 0.66764 0.17916 0.8664 0.0
H374 H 0.74908 0.10181 0.85921 0.0
H375 H 0.73444 0.0864 0.79221 0.0
H376 H 0.63818 0.14853 0.73201 0.0
C377 C 0.52517 0.22898 0.6876 0.0
C378 C 0.53566 0.23944 0.72832 0.0
C379 C 0.59146 0.20239 0.76304 0.0
C380 C 0.59955 0.21098 0.8016 0.0
C381 C 0.65749 0.17401 0.83609 0.0
C382 C 0.70514 0.12954 0.83247 0.0
C383 C 0.69684 0.12091 0.79476 0.0
C384 C 0.64103 0.15683 0.76039 0.0
H385 H 0.45207 0.20203 0.82691 0.0
C386 C 0.49995 0.23185 0.85129 0.0
H387 H 0.59802 0.29633 0.86631 0.0
H388 H 0.41652 0.31655 0.66702 0.0
H389 H 0.34101 0.39569 0.67567 0.0
H390 H 0.36233 0.4127 0.74391 0.0
H391 H 0.45653 0.3495 0.80349 0.0
C392 C 0.55432 0.26349 0.84452 0.0
C393 C 0.55124 0.25635 0.8053 0.0
C394 C 0.49773 0.2942 0.77114 0.0
C395 C 0.4884 0.28532 0.7323 0.0
C396 C 0.42955 0.32223 0.69784 0.0
C397 C 0.38492 0.36766 0.70223 0.0
C398 C 0.39647 0.37709 0.74058 0.0
C399 C 0.45119 0.34064 0.77459 0.0
H400 H 1.00715 0.72419 0.15258 0.0
C401 C 0.93549 0.74486 0.1353 0.0
H402 H 0.83034 0.78651 0.14008 0.0
H403 H 0.96734 0.68186 0.31589 0.0
H404 H 0.80948 0.63865 0.26689 0.0
H405 H 0.71763 0.64994 0.18855 0.0
H406 H 0.78381 0.70405 0.15887 0.0
C407 C 0.90175 0.76575 0.15694 0.0
C408 C 0.95767 0.75969 0.20412 0.0
C409 C 0.91734 0.72843 0.22097 0.0
C410 C 0.96927 0.72288 0.26612 0.0
C411 C 0.92937 0.68932 0.28197 0.0
C412 C 0.83914 0.66378 0.25415 0.0
C413 C 0.78752 0.67005 0.21006 0.0
C414 C 0.8262 0.7015 0.19347 0.0
H415 H 1.00229 0.78229 0.34369 0.0
C416 C 0.07773 0.76642 0.36195 0.0
H417 H 0.1902 0.72987 0.3599 0.0
H418 H 0.0514 0.8269 0.18236 0.0
H419 H 0.20759 0.87134 0.23122 0.0
H420 H 0.2982 0.86142 0.30964 0.0
H421 H 0.23257 0.80727 0.33934 0.0
C422 C 0.11484 0.74588 0.34156 0.0
C423 C 0.06022 0.7499 0.29425 0.0
C424 C 0.10047 0.78122 0.27736 0.0
C425 C 0.04883 0.78646 0.23222 0.0
C426 C 0.08878 0.8199 0.21629 0.0
C427 C 0.17823 0.84612 0.24405 0.0
C428 C 0.22913 0.8406 0.28813 0.0
C429 C 0.19075 0.809 0.30477 0.0
H430 H 0.11675 0.30187 0.36984 0.0
C431 C 0.04197 0.29475 0.35988 0.0
H432 H 0.89419 0.28215 0.30604 0.0
H433 H 0.10914 0.38521 0.22078 0.0
H434 H 0.12307 0.46817 0.25855 0.0
H435 H 0.07342 0.47092 0.30758 0.0
H436 H 1.01152 0.39045 0.31979 0.0
C437 C 0.97011 0.28883 0.31768 0.0
C438 C 0.99288 0.28898 0.28554 0.0
C439 C 0.02526 0.3371 0.27748 0.0
C440 C 0.04974 0.3362 0.24773 0.0
C441 C 0.08641 0.38407 0.2419 0.0
C442 C 0.0952 0.43193 0.26353 0.0
C443 C 0.06759 0.43342 0.29125 0.0
C444 C 0.03279 0.38676 0.2982 0.0
H445 H 0.93642 0.3378 0.14957 0.0
C446 C 0.99784 0.3141 0.1543 0.0
H447 H 0.12097 0.26343 0.19851 0.0
H448 H 0.93253 0.1899 0.29318 0.0
H449 H 0.91527 0.10754 0.25414 0.0
H450 H 0.95361 0.10668 0.20122 0.0
H451 H 1.00958 0.18822 0.18703 0.0
C452 C 0.05805 0.28732 0.19175 0.0
C453 C 0.03791 0.28785 0.22473 0.0
C454 C 1.00524 0.2399 0.23267 0.0
C455 C 0.98246 0.24049 0.26299 0.0
C456 C 0.95023 0.19189 0.27031 0.0
C457 C 0.94008 0.14428 0.24815 0.0
C458 C 0.9617 0.14379 0.21837 0.0
C459 C 0.99383 0.19089 0.21056 0.0
H460 H 0.03386 0.26196 0.66278 0.0
C461 C 0.95653 0.27449 0.64461 0.0
H462 H 0.84071 0.30476 0.64692 0.0
H463 H 0.99768 0.2114 0.82774 0.0
H464 H 0.84683 0.16162 0.78086 0.0
H465 H 0.75201 0.16938 0.70215 0.0
H466 H 0.80935 0.22601 0.6701 0.0
C467 C 0.91792 0.29208 0.66517 0.0
C468 C 0.97425 0.28964 0.71269 0.0
C469 C 0.93919 0.25653 0.73096 0.0
C470 C 0.99254 0.25297 0.77631 0.0
C471 C 0.95819 0.21758 0.7936 0.0
C472 C 0.87192 0.18824 0.76699 0.0
C473 C 0.81881 0.19247 0.72272 0.0
C474 C 0.85229 0.22557 0.70474 0.0
H475 H 0.02303 0.3149 0.85316 0.0
C476 C 0.09821 0.29861 0.8714 0.0
H477 H 0.2116 0.26448 0.86873 0.0
H478 H 0.0542 0.36318 0.68832 0.0
H479 H 0.20506 0.41307 0.73525 0.0
H480 H 0.30304 0.40286 0.81394 0.0
H481 H 0.24788 0.3444 0.84604 0.0
C482 C 0.13629 0.28039 0.85077 0.0
C483 C 0.07996 0.28335 0.8033 0.0
C484 C 0.1154 0.31614 0.78508 0.0
C485 C 0.06132 0.32027 0.73971 0.0
C486 C 0.09469 0.35637 0.72245 0.0
C487 C 0.18103 0.38564 0.7491 0.0
C488 C 0.23581 0.38012 0.79338 0.0
C489 C 0.20337 0.34621 0.81136 0.0
H490 H 0.93182 0.79625 0.64203 0.0
C491 C 0.99955 0.77644 0.65006 0.0
H492 H 0.13081 0.7359 0.70001 0.0
H493 H 0.02385 0.87269 0.81711 0.0
H494 H 0.04972 0.95442 0.79048 0.0
H495 H 0.0732 0.94955 0.73294 0.0
H496 H 0.07112 0.86305 0.70178 0.0
C497 C 0.06444 0.7583 0.69057 0.0
C498 C 0.04347 0.76261 0.72323 0.0
C499 C 0.04358 0.8138 0.74075 0.0
C500 C 0.02984 0.81663 0.77394 0.0
C501 C 0.03272 0.86814 0.79154 0.0
C502 C 0.04783 0.91543 0.77666 0.0
C503 C 0.06103 0.91269 0.74426 0.0
C504 C 0.05928 0.86265 0.72651 0.0
H505 H 0.12408 0.72326 0.86728 0.0
C506 C 0.06164 0.74634 0.86208 0.0
H507 H 0.93811 0.79619 0.81739 0.0
H508 H 0.03467 0.65847 0.69533 0.0
H509 H 0.99987 0.57726 0.71908 0.0
H510 H 0.96704 0.58263 0.7737 0.0
H511 H 0.97047 0.66882 0.80532 0.0
C512 C 1.00066 0.77205 0.82413 0.0
C513 C 1.0153 0.76842 0.7894 0.0
C514 C 1.01065 0.71748 0.77044 0.0
C515 C 0.02674 0.71455 0.738 0.0
C516 C 0.02311 0.66312 0.72009 0.0
C517 C 1.00271 0.61614 0.73326 0.0
C518 C 0.98441 0.61915 0.76405 0.0
C519 C 0.98766 0.66905 0.78232 0.0
loop_
_geom_bond_atom_site_label_1
_geom_bond_atom_site_label_2
_geom_bond_distance
_geom_bond_site_symmetry_2
_ccdc_geom_bond_type
Ho0 C3 2.811 1_556 S
Ho0 O20 2.322 1_556 S
Ho0 O22 2.378 1_556 S
Ho0 O23 2.524 1_556 S
Ho0 O24 2.381 1_556 S
Ho0 O25 2.669 . S
Ho0 O27 2.346 . S
Ho0 O31 2.305 1_556 S
Ho1 C12 2.811 1_554 S
Ho1 O21 2.346 . S
Ho1 O25 2.305 1_554 S
Ho1 O26 2.322 1_554 S
Ho1 O28 2.378 1_554 S
Ho1 O29 2.524 1_554 S
Ho1 O30 2.381 1_554 S
Ho1 O31 2.669 . S
C2 O20 1.259 . S
C2 O21 1.268 . S
C3 Ho0 2.811 1_554 S
C3 C4 1.488 . S
C3 O22 1.215 . S
C3 O23 1.289 . S
C4 C3 1.488 . S
C4 C5 1.348 . S
C4 C9 1.413 . S
C5 C4 1.348 . S
C5 C6 1.442 . S
C5 H32 0.930 . S
C6 C5 1.442 . S
C6 C7 1.381 . S
C6 H33 0.931 . S
C7 C6 1.381 . S
C7 C8 1.321 . S
C8 C7 1.321 . S
C8 C9 1.403 . S
C8 H34 0.934 . S
C9 C4 1.413 . S
C9 C8 1.403 . S
C9 H35 0.930 . S
C10 O24 1.275 . S
C10 O25 1.256 1_554 S
C11 O26 1.259 . S
C11 O27 1.268 . S
C12 Ho1 2.811 1_556 S
C12 C13 1.488 . S
C12 O28 1.215 . S
C12 O29 1.289 . S
C13 C12 1.488 . S
C13 C14 1.348 . S
C13 C18 1.413 . S
C14 C13 1.348 . S
C14 C15 1.442 . S
C14 H36 0.930 . S
C15 C14 1.442 . S
C15 C16 1.381 . S
C15 H37 0.931 . S
C16 C15 1.381 . S
C16 C17 1.321 . S
C17 C16 1.321 . S
C17 C18 1.403 . S
C17 H38 0.934 . S
C18 C13 1.413 . S
C18 C17 1.403 . S
C18 H39 0.930 . S
C19 O30 1.275 . S
C19 O31 1.256 1_556 S
O20 Ho0 2.322 1_554 S
O20 C2 1.259 . S
O21 Ho1 2.346 . S
O21 C2 1.268 . S
O22 Ho0 2.378 1_554 S
O22 C3 1.215 . S
O23 Ho0 2.524 1_554 S
O23 C3 1.289 . S
O24 Ho0 2.381 1_554 S
O24 C10 1.275 . S
O25 Ho0 2.669 . S
O25 Ho1 2.305 1_556 S
O25 C10 1.256 1_556 S
O26 Ho1 2.322 1_556 S
O26 C11 1.259 . S
O27 Ho0 2.346 . S
O27 C11 1.268 . S
O28 Ho1 2.378 1_556 S
O28 C12 1.215 . S
O29 Ho1 2.524 1_556 S
O29 C12 1.289 . S
O30 Ho1 2.381 1_556 S
O30 C19 1.275 . S
O31 Ho0 2.305 1_554 S
O31 Ho1 2.669 . S
O31 C19 1.256 1_554 S
H32 C5 0.930 . S
H33 C6 0.931 . S
H34 C8 0.934 . S
H35 C9 0.930 . S
H36 C14 0.930 . S
H37 C15 0.931 . S
H38 C17 0.934 . S
H39 C18 0.930 . S
Ho40 C43 2.811 1_556 S
Ho40 O60 2.322 1_556 S
Ho40 O62 2.378 1_556 S
Ho40 O63 2.524 1_556 S
Ho40 O64 2.381 1_556 S
Ho40 O65 2.669 . S
Ho40 O67 2.346 . S
Ho40 O71 2.305 1_556 S
Ho41 C52 2.811 1_554 S
Ho41 O61 2.346 . S
Ho41 O65 2.305 1_554 S
Ho41 O66 2.322 1_554 S
Ho41 O68 2.378 1_554 S
Ho41 O69 2.524 1_554 S
Ho41 O70 2.381 1_554 S
Ho41 O71 2.669 . S
C42 O60 1.259 . S
C42 O61 1.268 . S
C43 Ho40 2.811 1_554 S
C43 C44 1.488 . S
C43 O62 1.215 . S
C43 O63 1.289 . S
C44 C43 1.488 . S
C44 C45 1.348 . S
C44 C49 1.413 . S
C45 C44 1.348 . S
C45 C46 1.442 . S
C45 H72 0.930 . S
C46 C45 1.442 . S
C46 C47 1.381 . S
C46 H73 0.931 . S
C47 C46 1.381 . S
C47 C48 1.321 . S
C48 C47 1.321 . S
C48 C49 1.403 . S
C48 H74 0.934 . S
C49 C44 1.413 . S
C49 C48 1.403 . S
C49 H75 0.930 . S
C50 O64 1.275 . S
C50 O65 1.256 1_554 S
C51 O66 1.259 . S
C51 O67 1.268 . S
C52 Ho41 2.811 1_556 S
C52 C53 1.488 . S
C52 O68 1.215 . S
C52 O69 1.289 . S
C53 C52 1.488 . S
C53 C54 1.348 . S
C53 C58 1.413 . S
C54 C53 1.348 . S
C54 C55 1.442 . S
C54 H76 0.930 . S
C55 C54 1.442 . S
C55 C56 1.381 . S
C55 H77 0.931 . S
C56 C55 1.381 . S
C56 C57 1.321 . S
C57 C56 1.321 . S
C57 C58 1.403 . S
C57 H78 0.934 . S
C58 C53 1.413 . S
C58 C57 1.403 . S
C58 H79 0.930 . S
C59 O70 1.275 . S
C59 O71 1.256 1_556 S
O60 Ho40 2.322 1_554 S
O60 C42 1.259 . S
O61 Ho41 2.346 . S
O61 C42 1.268 . S
O62 Ho40 2.378 1_554 S
O62 C43 1.215 . S
O63 Ho40 2.524 1_554 S
O63 C43 1.289 . S
O64 Ho40 2.381 1_554 S
O64 C50 1.275 . S
O65 Ho40 2.669 . S
O65 Ho41 2.305 1_556 S
O65 C50 1.256 1_556 S
O66 Ho41 2.322 1_556 S
O66 C51 1.259 . S
O67 Ho40 2.346 . S
O67 C51 1.268 . S
O68 Ho41 2.378 1_556 S
O68 C52 1.215 . S
O69 Ho41 2.524 1_556 S
O69 C52 1.289 . S
O70 Ho41 2.381 1_556 S
O70 C59 1.275 . S
O71 Ho40 2.305 1_554 S
O71 Ho41 2.669 . S
O71 C59 1.256 1_554 S
H72 C45 0.930 . S
H73 C46 0.931 . S
H74 C48 0.934 . S
H75 C49 0.930 . S
H76 C54 0.930 . S
H77 C55 0.931 . S
H78 C57 0.934 . S
H79 C58 0.930 . S
Ho80 C83 2.811 . S
Ho80 O100 2.322 . S
Ho80 O102 2.378 . S
Ho80 O103 2.524 . S
Ho80 O104 2.381 . S
Ho80 O105 2.669 . S
Ho80 O107 2.346 . S
Ho80 O111 2.305 . S
Ho81 C92 2.811 . S
Ho81 O101 2.346 . S
Ho81 O105 2.305 . S
Ho81 O106 2.322 . S
Ho81 O108 2.378 . S
Ho81 O109 2.524 . S
Ho81 O110 2.381 . S
Ho81 O111 2.669 . S
C82 O100 1.259 . S
C82 O101 1.268 . S
C83 Ho80 2.811 . S
C83 C84 1.488 . S
C83 O102 1.215 . S
C83 O103 1.289 . S
C84 C83 1.488 . S
C84 C85 1.348 . S
C84 C89 1.413 . S
C85 C84 1.348 . S
C85 C86 1.442 . S
C85 H112 0.930 . S
C86 C85 1.442 . S
C86 C87 1.381 . S
C86 H113 0.931 . S
C87 C86 1.381 . S
C87 C88 1.321 . S
C88 C87 1.321 . S
C88 C89 1.403 . S
C88 H114 0.934 . S
C89 C84 1.413 . S
C89 C88 1.403 . S
C89 H115 0.930 . S
C90 O104 1.275 . S
C90 O105 1.256 . S
C91 O106 1.259 . S
C91 O107 1.268 . S
C92 Ho81 2.811 . S
C92 C93 1.488 . S
C92 O108 1.215 . S
C92 O109 1.289 . S
C93 C92 1.488 . S
C93 C94 1.348 . S
C93 C98 1.413 . S
C94 C93 1.348 . S
C94 C95 1.442 . S
C94 H116 0.930 . S
C95 C94 1.442 . S
C95 C96 1.381 . S
C95 H117 0.931 . S
C96 C95 1.381 . S
C96 C97 1.321 . S
C97 C96 1.321 . S
C97 C98 1.403 . S
C97 H118 0.934 . S
C98 C93 1.413 . S
C98 C97 1.403 . S
C98 H119 0.930 . S
C99 O110 1.275 . S
C99 O111 1.256 . S
O100 Ho80 2.322 . S
O100 C82 1.259 . S
O101 Ho81 2.346 . S
O101 C82 1.268 . S
O102 Ho80 2.378 . S
O102 C83 1.215 . S
O103 Ho80 2.524 . S
O103 C83 1.289 . S
O104 Ho80 2.381 . S
O104 C90 1.275 . S
O105 Ho80 2.669 . S
O105 Ho81 2.305 . S
O105 C90 1.256 . S
O106 Ho81 2.322 . S
O106 C91 1.259 . S
O107 Ho80 2.346 . S
O107 C91 1.268 . S
O108 Ho81 2.378 . S
O108 C92 1.215 . S
O109 Ho81 2.524 . S
O109 C92 1.289 . S
O110 Ho81 2.381 . S
O110 C99 1.275 . S
O111 Ho80 2.305 . S
O111 Ho81 2.669 . S
O111 C99 1.256 . S
H112 C85 0.930 . S
H113 C86 0.931 . S
H114 C88 0.934 . S
H115 C89 0.930 . S
H116 C94 0.930 . S
H117 C95 0.931 . S
H118 C97 0.934 . S
H119 C98 0.930 . S
Ho120 C123 2.811 . S
Ho120 O140 2.322 . S
Ho120 O142 2.378 . S
Ho120 O143 2.524 . S
Ho120 O144 2.381 . S
Ho120 O145 2.669 . S
Ho120 O147 2.346 . S
Ho120 O151 2.305 . S
Ho121 C132 2.811 . S
Ho121 O141 2.346 . S
Ho121 O145 2.305 . S
Ho121 O146 2.322 . S
Ho121 O148 2.378 . S
Ho121 O149 2.524 . S
Ho121 O150 2.381 . S
Ho121 O151 2.669 . S
C122 O140 1.259 . S
C122 O141 1.268 . S
C123 Ho120 2.811 . S
C123 C124 1.488 . S
C123 O142 1.215 . S
C123 O143 1.289 . S
C124 C123 1.488 . S
C124 C125 1.348 . S
C124 C129 1.413 . S
C125 C124 1.348 . S
C125 C126 1.442 . S
C125 H152 0.930 . S
C126 C125 1.442 . S
C126 C127 1.381 . S
C126 H153 0.931 . S
C127 C126 1.381 . S
C127 C128 1.321 . S
C128 C127 1.321 . S
C128 C129 1.403 . S
C128 H154 0.934 . S
C129 C124 1.413 . S
C129 C128 1.403 . S
C129 H155 0.930 . S
C130 O144 1.275 . S
C130 O145 1.256 . S
C131 O146 1.259 . S
C131 O147 1.268 . S
C132 Ho121 2.811 . S
C132 C133 1.488 . S
C132 O148 1.215 . S
C132 O149 1.289 . S
C133 C132 1.488 . S
C133 C134 1.348 . S
C133 C138 1.413 . S
C134 C133 1.348 . S
C134 C135 1.442 . S
C134 H156 0.930 . S
C135 C134 1.442 . S
C135 C136 1.381 . S
C135 H157 0.931 . S
C136 C135 1.381 . S
C136 C137 1.321 . S
C137 C136 1.321 . S
C137 C138 1.403 . S
C137 H158 0.934 . S
C138 C133 1.413 . S
C138 C137 1.403 . S
C138 H159 0.930 . S
C139 O150 1.275 . S
C139 O151 1.256 . S
O140 Ho120 2.322 . S
O140 C122 1.259 . S
O141 Ho121 2.346 . S
O141 C122 1.268 . S
O142 Ho120 2.378 . S
O142 C123 1.215 . S
O143 Ho120 2.524 . S
O143 C123 1.289 . S
O144 Ho120 2.381 . S
O144 C130 1.275 . S
O145 Ho120 2.669 . S
O145 Ho121 2.305 . S
O145 C130 1.256 . S
O146 Ho121 2.322 . S
O146 C131 1.259 . S
O147 Ho120 2.346 . S
O147 C131 1.268 . S
O148 Ho121 2.378 . S
O148 C132 1.215 . S
O149 Ho121 2.524 . S
O149 C132 1.289 . S
O150 Ho121 2.381 . S
O150 C139 1.275 . S
O151 Ho120 2.305 . S
O151 Ho121 2.669 . S
O151 C139 1.256 . S
H152 C125 0.930 . S
H153 C126 0.931 . S
H154 C128 0.934 . S
H155 C129 0.930 . S
H156 C134 0.930 . S
H157 C135 0.931 . S
H158 C137 0.934 . S
H159 C138 0.930 . S
H160 C161 0.951 . S
C161 H160 0.951 . S
C161 C167 1.265 1_556 S
H162 C167 0.950 . S
H163 C171 0.949 . S
H164 C172 0.950 . S
H165 C173 0.951 . S
H166 C174 0.951 . S
C167 C161 1.265 1_554 S
C167 H162 0.950 . S
C167 C168 1.478 . S
C168 C167 1.478 . S
C168 C169 1.397 1_554 S
C168 C185 1.394 . S
C169 C168 1.397 1_556 S
C169 C170 1.438 . S
C169 C174 1.429 . S
C170 C169 1.438 . S
C170 C171 1.428 . S
C170 C183 1.394 . S
C171 H163 0.949 . S
C171 C170 1.428 . S
C171 C172 1.345 . S
C172 H164 0.950 . S
C172 C171 1.345 . S
C172 C173 1.424 . S
C173 H165 0.951 . S
C173 C172 1.424 . S
C173 C174 1.347 . S
C174 H166 0.951 . S
C174 C169 1.429 . S
C174 C173 1.347 . S
H175 C176 0.951 . S
C176 H175 0.951 . S
C176 C182 1.265 1_554 S
H177 C182 0.950 . S
H178 C186 0.949 . S
H179 C187 0.950 . S
H180 C188 0.951 . S
H181 C189 0.951 . S
C182 C176 1.265 1_556 S
C182 H177 0.950 . S
C182 C183 1.478 . S
C183 C170 1.394 . S
C183 C182 1.478 . S
C183 C184 1.397 1_556 S
C184 C183 1.397 1_554 S
C184 C185 1.438 . S
C184 C189 1.429 . S
C185 C168 1.394 . S
C185 C184 1.438 . S
C185 C186 1.428 . S
C186 H178 0.949 . S
C186 C185 1.428 . S
C186 C187 1.345 . S
C187 H179 0.950 . S
C187 C186 1.345 . S
C187 C188 1.424 . S
C188 H180 0.951 . S
C188 C187 1.424 . S
C188 C189 1.347 . S
C189 H181 0.951 . S
C189 C184 1.429 . S
C189 C188 1.347 . S
H190 C191 0.951 . S
C191 H190 0.951 . S
C191 C197 1.265 . S
H192 C197 0.950 . S
H193 C201 0.949 . S
H194 C202 0.950 . S
H195 C203 0.951 . S
H196 C204 0.951 . S
C197 C191 1.265 . S
C197 H192 0.950 . S
C197 C198 1.478 . S
C198 C197 1.478 . S
C198 C199 1.397 . S
C198 C215 1.394 . S
C199 C198 1.397 . S
C199 C200 1.438 . S
C199 C204 1.429 . S
C200 C199 1.438 . S
C200 C201 1.428 . S
C200 C213 1.394 . S
C201 H193 0.949 . S
C201 C200 1.428 . S
C201 C202 1.345 . S
C202 H194 0.950 . S
C202 C201 1.345 . S
C202 C203 1.424 . S
C203 H195 0.951 . S
C203 C202 1.424 . S
C203 C204 1.347 . S
C204 H196 0.951 . S
C204 C199 1.429 . S
C204 C203 1.347 . S
H205 C206 0.951 . S
C206 H205 0.951 . S
C206 C212 1.265 . S
H207 C212 0.950 . S
H208 C216 0.949 . S
H209 C217 0.950 . S
H210 C218 0.951 . S
H211 C219 0.951 . S
C212 C206 1.265 . S
C212 H207 0.950 . S
C212 C213 1.478 . S
C213 C200 1.394 . S
C213 C212 1.478 . S
C213 C214 1.397 . S
C214 C213 1.397 . S
C214 C215 1.438 . S
C214 C219 1.429 . S
C215 C198 1.394 . S
C215 C214 1.438 . S
C215 C216 1.428 . S
C216 H208 0.949 . S
C216 C215 1.428 . S
C216 C217 1.345 . S
C217 H209 0.950 . S
C217 C216 1.345 . S
C217 C218 1.424 . S
C218 H210 0.951 . S
C218 C217 1.424 . S
C218 C219 1.347 . S
C219 H211 0.951 . S
C219 C214 1.429 . S
C219 C218 1.347 . S
H220 C221 0.951 . S
C221 H220 0.951 . S
C221 C227 1.265 1_556 S
H222 C227 0.950 . S
H223 C231 0.949 1_655 S
H224 C232 0.950 . S
H225 C233 0.951 . S
H226 C234 0.951 . S
C227 C221 1.265 1_554 S
C227 H222 0.950 . S
C227 C228 1.478 . S
C228 C227 1.478 . S
C228 C229 1.397 . S
C228 C245 1.394 1_454 S
C229 C228 1.397 . S
C229 C230 1.438 1_545 S
C229 C234 1.429 . S
C230 C229 1.438 1_565 S
C230 C231 1.428 . S
C230 C243 1.394 1_454 S
C231 H223 0.949 1_455 S
C231 C230 1.428 . S
C231 C232 1.345 . S
C232 H224 0.950 . S
C232 C231 1.345 . S
C232 C233 1.424 1_565 S
C233 H225 0.951 . S
C233 C232 1.424 1_545 S
C233 C234 1.347 . S
C234 H226 0.951 . S
C234 C229 1.429 . S
C234 C233 1.347 . S
H235 C236 0.951 . S
C236 H235 0.951 . S
C236 C242 1.265 1_554 S
H237 C242 0.950 . S
H238 C246 0.949 1_455 S
H239 C247 0.950 . S
H240 C248 0.951 . S
H241 C249 0.951 . S
C242 C236 1.265 1_556 S
C242 H237 0.950 . S
C242 C243 1.478 . S
C243 C230 1.394 1_656 S
C243 C242 1.478 . S
C243 C244 1.397 . S
C244 C243 1.397 . S
C244 C245 1.438 1_565 S
C244 C249 1.429 . S
C245 C228 1.394 1_656 S
C245 C244 1.438 1_545 S
C245 C246 1.428 . S
C246 H238 0.949 1_655 S
C246 C245 1.428 . S
C246 C247 1.345 . S
C247 H239 0.950 . S
C247 C246 1.345 . S
C247 C248 1.424 1_545 S
C248 H240 0.951 . S
C248 C247 1.424 1_565 S
C248 C249 1.347 . S
C249 H241 0.951 . S
C249 C244 1.429 . S
C249 C248 1.347 . S
H250 C251 0.951 . S
C251 H250 0.951 . S
C251 C257 1.265 . S
H252 C257 0.950 . S
H253 C261 0.949 . S
H254 C262 0.950 . S
H255 C263 0.951 . S
H256 C264 0.951 . S
C257 C251 1.265 . S
C257 H252 0.950 . S
C257 C258 1.478 . S
C258 C257 1.478 . S
C258 C259 1.397 1_655 S
C258 C275 1.394 . S
C259 C258 1.397 1_455 S
C259 C260 1.438 1_545 S
C259 C264 1.429 . S
C260 C259 1.438 1_565 S
C260 C261 1.428 . S
C260 C273 1.394 . S
C261 H253 0.949 . S
C261 C260 1.428 . S
C261 C262 1.345 . S
C262 H254 0.950 . S
C262 C261 1.345 . S
C262 C263 1.424 . S
C263 H255 0.951 . S
C263 C262 1.424 . S
C263 C264 1.347 1_565 S
C264 H256 0.951 . S
C264 C259 1.429 . S
C264 C263 1.347 1_545 S
H265 C266 0.951 . S
C266 H265 0.951 . S
C266 C272 1.265 . S
H267 C272 0.950 . S
H268 C276 0.949 . S
H269 C277 0.950 . S
H270 C278 0.951 . S
H271 C279 0.951 . S
C272 C266 1.265 . S
C272 H267 0.950 . S
C272 C273 1.478 . S
C273 C260 1.394 . S
C273 C272 1.478 . S
C273 C274 1.397 1_455 S
C274 C273 1.397 1_655 S
C274 C275 1.438 1_565 S
C274 C279 1.429 . S
C275 C258 1.394 . S
C275 C274 1.438 1_545 S
C275 C276 1.428 . S
C276 H268 0.949 . S
C276 C275 1.428 . S
C276 C277 1.345 . S
C277 H269 0.950 . S
C277 C276 1.345 . S
C277 C278 1.424 . S
C278 H270 0.951 . S
C278 C277 1.424 . S
C278 C279 1.347 1_545 S
C279 H271 0.951 . S
C279 C274 1.429 . S
C279 C278 1.347 1_565 S
H280 C281 0.951 . S
C281 H280 0.951 . S
C281 C287 1.265 . S
H282 C287 0.950 . S
H283 C291 0.949 . S
H284 C292 0.950 . S
H285 C293 0.951 . S
H286 C294 0.951 . S
C287 C281 1.265 . S
C287 H282 0.950 . S
C287 C288 1.478 . S
C288 C287 1.478 . S
C288 C289 1.397 . S
C288 C305 1.394 . S
C289 C288 1.397 . S
C289 C290 1.438 . S
C289 C294 1.429 . S
C290 C289 1.438 . S
C290 C291 1.428 . S
C290 C303 1.394 . S
C291 H283 0.949 . S
C291 C290 1.428 . S
C291 C292 1.345 . S
C292 H284 0.950 . S
C292 C291 1.345 . S
C292 C293 1.424 . S
C293 H285 0.951 . S
C293 C292 1.424 . S
C293 C294 1.347 . S
C294 H286 0.951 . S
C294 C289 1.429 . S
C294 C293 1.347 . S
H295 C296 0.951 . S
C296 H295 0.951 . S
C296 C302 1.265 . S
H297 C302 0.950 . S
H298 C306 0.949 . S
H299 C307 0.950 . S
H300 C308 0.951 . S
H301 C309 0.951 . S
C302 C296 1.265 . S
C302 H297 0.950 . S
C302 C303 1.478 . S
C303 C290 1.394 . S
C303 C302 1.478 . S
C303 C304 1.397 . S
C304 C303 1.397 . S
C304 C305 1.438 . S
C304 C309 1.429 . S
C305 C288 1.394 . S
C305 C304 1.438 . S
C305 C306 1.428 . S
C306 H298 0.949 . S
C306 C305 1.428 . S
C306 C307 1.345 . S
C307 H299 0.950 . S
C307 C306 1.345 . S
C307 C308 1.424 . S
C308 H300 0.951 . S
C308 C307 1.424 . S
C308 C309 1.347 . S
C309 H301 0.951 . S
C309 C304 1.429 . S
C309 C308 1.347 . S
H310 C311 0.951 . S
C311 H310 0.951 . S
C311 C317 1.265 . S
H312 C317 0.950 . S
H313 C321 0.949 . S
H314 C322 0.950 . S
H315 C323 0.956 . S
H316 C324 0.951 . S
C317 C311 1.265 . S
C317 H312 0.950 . S
C317 C318 1.478 . S
C318 C317 1.478 . S
C318 C319 1.397 . S
C318 C335 1.394 . S
C319 C318 1.397 . S
C319 C320 1.438 . S
C319 C324 1.429 . S
C320 C319 1.438 . S
C320 C321 1.428 . S
C320 C333 1.394 . S
C321 H313 0.949 . S
C321 C320 1.428 . S
C321 C322 1.345 . S
C322 H314 0.950 . S
C322 C321 1.345 . S
C322 C323 1.424 . S
C323 H315 0.956 . S
C323 C322 1.424 . S
C323 C324 1.347 . S
C324 H316 0.951 . S
C324 C319 1.429 . S
C324 C323 1.347 . S
H325 C326 0.951 . S
C326 H325 0.951 . S
C326 C332 1.265 . S
H327 C332 0.950 . S
H328 C336 0.949 . S
H329 C337 0.950 . S
H330 C338 0.951 . S
H331 C339 0.951 . S
C332 C326 1.265 . S
C332 H327 0.950 . S
C332 C333 1.478 . S
C333 C320 1.394 . S
C333 C332 1.478 . S
C333 C334 1.397 . S
C334 C333 1.397 . S
C334 C335 1.438 . S
C334 C339 1.429 . S
C335 C318 1.394 . S
C335 C334 1.438 . S
C335 C336 1.428 . S
C336 H328 0.949 . S
C336 C335 1.428 . S
C336 C337 1.345 . S
C337 H329 0.950 . S
C337 C336 1.345 . S
C337 C338 1.424 . S
C338 H330 0.951 . S
C338 C337 1.424 . S
C338 C339 1.347 . S
C339 H331 0.951 . S
C339 C334 1.429 . S
C339 C338 1.347 . S
H340 C341 0.951 . S
C341 H340 0.951 . S
C341 C347 1.265 . S
H342 C347 0.950 . S
H343 C351 0.949 . S
H344 C352 0.950 . S
H345 C353 0.951 . S
H346 C354 0.951 . S
C347 C341 1.265 . S
C347 H342 0.950 . S
C347 C348 1.478 . S
C348 C347 1.478 . S
C348 C349 1.397 . S
C348 C365 1.394 . S
C349 C348 1.397 . S
C349 C350 1.438 . S
C349 C354 1.429 . S
C350 C349 1.438 . S
C350 C351 1.428 . S
C350 C363 1.394 . S
C351 H343 0.949 . S
C351 C350 1.428 . S
C351 C352 1.345 . S
C352 H344 0.950 . S
C352 C351 1.345 . S
C352 C353 1.424 . S
C353 H345 0.951 . S
C353 C352 1.424 . S
C353 C354 1.347 . S
C354 H346 0.951 . S
C354 C349 1.429 . S
C354 C353 1.347 . S
H355 C356 0.951 . S
C356 H355 0.951 . S
C356 C362 1.265 . S
H357 C362 0.950 . S
H358 C366 0.949 . S
H359 C367 0.950 . S
H360 C368 0.951 . S
H361 C369 0.951 . S
C362 C356 1.265 . S
C362 H357 0.950 . S
C362 C363 1.478 . S
C363 C350 1.394 . S
C363 C362 1.478 . S
C363 C364 1.397 . S
C364 C363 1.397 . S
C364 C365 1.438 . S
C364 C369 1.429 . S
C365 C348 1.394 . S
C365 C364 1.438 . S
C365 C366 1.428 . S
C366 H358 0.949 . S
C366 C365 1.428 . S
C366 C367 1.345 . S
C367 H359 0.950 . S
C367 C366 1.345 . S
C367 C368 1.424 . S
C368 H360 0.951 . S
C368 C367 1.424 . S
C368 C369 1.347 . S
C369 H361 0.951 . S
C369 C364 1.429 . S
C369 C368 1.347 . S
H370 C371 0.951 . S
C371 H370 0.951 . S
C371 C377 1.265 . S
H372 C377 0.950 . S
H373 C381 0.949 . S
H374 C382 0.950 . S
H375 C383 0.951 . S
H376 C384 0.951 . S
C377 C371 1.265 . S
C377 H372 0.950 . S
C377 C378 1.478 . S
C378 C377 1.478 . S
C378 C379 1.397 . S
C378 C395 1.394 . S
C379 C378 1.397 . S
C379 C380 1.438 . S
C379 C384 1.429 . S
C380 C379 1.438 . S
C380 C381 1.428 . S
C380 C393 1.394 . S
C381 H373 0.949 . S
C381 C380 1.428 . S
C381 C382 1.345 . S
C382 H374 0.950 . S
C382 C381 1.345 . S
C382 C383 1.424 . S
C383 H375 0.951 . S
C383 C382 1.424 . S
C383 C384 1.347 . S
C384 H376 0.951 . S
C384 C379 1.429 . S
C384 C383 1.347 . S
H385 C386 0.951 . S
C386 H385 0.951 . S
C386 C392 1.265 . S
H387 C392 0.950 . S
H388 C396 0.949 . S
H389 C397 0.950 . S
H390 C398 0.951 . S
H391 C399 0.951 . S
C392 C386 1.265 . S
C392 H387 0.950 . S
C392 C393 1.478 . S
C393 C380 1.394 . S
C393 C392 1.478 . S
C393 C394 1.397 . S
C394 C393 1.397 . S
C394 C395 1.438 . S
C394 C399 1.429 . S
C395 C378 1.394 . S
C395 C394 1.438 . S
C395 C396 1.428 . S
C396 H388 0.949 . S
C396 C395 1.428 . S
C396 C397 1.345 . S
C397 H389 0.950 . S
C397 C396 1.345 . S
C397 C398 1.424 . S
C398 H390 0.951 . S
C398 C397 1.424 . S
C398 C399 1.347 . S
C399 H391 0.951 . S
C399 C394 1.429 . S
C399 C398 1.347 . S
H400 C401 0.951 . S
C401 H400 0.951 . S
C401 C407 1.265 . S
H402 C407 0.950 . S
H403 C411 0.949 1_455 S
H404 C412 0.950 . S
H405 C413 0.951 . S
H406 C414 0.951 . S
C407 C401 1.265 . S
C407 H402 0.950 . S
C407 C408 1.478 . S
C408 C407 1.478 . S
C408 C409 1.397 . S
C408 C425 1.391 1_655 S
C409 C408 1.397 . S
C409 C410 1.437 . S
C409 C414 1.429 . S
C410 C409 1.437 . S
C410 C411 1.431 . S
C410 C423 1.391 1_655 S
C411 H403 0.949 1_655 S
C411 C410 1.431 . S
C411 C412 1.345 . S
C412 H404 0.950 . S
C412 C411 1.345 . S
C412 C413 1.424 . S
C413 H405 0.951 . S
C413 C412 1.424 . S
C413 C414 1.347 . S
C414 H406 0.951 . S
C414 C409 1.429 . S
C414 C413 1.347 . S
H415 C416 0.951 . S
C416 H415 0.951 . S
C416 C422 1.265 . S
H417 C422 0.950 . S
H418 C426 0.949 1_655 S
H419 C427 0.950 . S
H420 C428 0.951 . S
H421 C429 0.951 . S
C422 C416 1.265 . S
C422 H417 0.950 . S
C422 C423 1.478 . S
C423 C410 1.391 1_455 S
C423 C422 1.478 . S
C423 C424 1.397 . S
C424 C423 1.397 . S
C424 C425 1.437 . S
C424 C429 1.429 . S
C425 C408 1.391 1_455 S
C425 C424 1.437 . S
C425 C426 1.431 . S
C426 H418 0.949 1_455 S
C426 C425 1.431 . S
C426 C427 1.345 . S
C427 H419 0.950 . S
C427 C426 1.345 . S
C427 C428 1.424 . S
C428 H420 0.951 . S
C428 C427 1.424 . S
C428 C429 1.347 . S
C429 H421 0.951 . S
C429 C424 1.429 . S
C429 C428 1.347 . S
H430 C431 0.951 1_455 S
C431 H430 0.951 1_655 S
C431 C437 1.265 . S
H432 C437 0.950 . S
H433 C441 0.949 . S
H434 C442 0.950 . S
H435 C443 0.951 . S
H436 C444 0.951 . S
C437 C431 1.265 . S
C437 H432 0.950 . S
C437 C438 1.478 . S
C438 C437 1.478 . S
C438 C439 1.397 . S
C438 C455 1.394 1_655 S
C439 C438 1.397 . S
C439 C440 1.438 . S
C439 C444 1.429 . S
C440 C439 1.438 . S
C440 C441 1.428 . S
C440 C453 1.394 1_655 S
C441 H433 0.949 . S
C441 C440 1.428 . S
C441 C442 1.345 . S
C442 H434 0.950 . S
C442 C441 1.345 . S
C442 C443 1.424 . S
C443 H435 0.951 . S
C443 C442 1.424 . S
C443 C444 1.347 . S
C444 H436 0.951 . S
C444 C439 1.429 . S
C444 C443 1.347 . S
H445 C446 0.951 1_655 S
C446 H445 0.951 1_455 S
C446 C452 1.265 . S
H447 C452 0.950 . S
H448 C456 0.949 . S
H449 C457 0.950 . S
H450 C458 0.951 . S
H451 C459 0.951 . S
C452 C446 1.265 . S
C452 H447 0.950 . S
C452 C453 1.478 . S
C453 C440 1.394 1_455 S
C453 C452 1.478 . S
C453 C454 1.397 . S
C454 C453 1.397 . S
C454 C455 1.438 . S
C454 C459 1.429 . S
C455 C438 1.394 1_455 S
C455 C454 1.438 . S
C455 C456 1.428 . S
C456 H448 0.949 . S
C456 C455 1.428 . S
C456 C457 1.345 . S
C457 H449 0.950 . S
C457 C456 1.345 . S
C457 C458 1.424 . S
C458 H450 0.951 . S
C458 C457 1.424 . S
C458 C459 1.347 . S
C459 H451 0.951 . S
C459 C454 1.429 . S
C459 C458 1.347 . S
H460 C461 0.951 . S
C461 H460 0.951 . S
C461 C467 1.265 . S
H462 C467 0.950 . S
H463 C471 0.949 . S
H464 C472 0.950 . S
H465 C473 0.951 . S
H466 C474 0.951 . S
C467 C461 1.265 . S
C467 H462 0.950 . S
C467 C468 1.478 . S
C468 C467 1.478 . S
C468 C469 1.397 . S
C468 C485 1.394 . S
C469 C468 1.397 . S
C469 C470 1.438 1_655 S
C469 C474 1.429 . S
C470 C469 1.438 1_455 S
C470 C471 1.428 . S
C470 C483 1.394 . S
C471 H463 0.949 . S
C471 C470 1.428 . S
C471 C472 1.345 1_455 S
C472 H464 0.950 . S
C472 C471 1.345 1_655 S
C472 C473 1.424 . S
C473 H465 0.951 . S
C473 C472 1.424 . S
C473 C474 1.347 . S
C474 H466 0.951 . S
C474 C469 1.429 . S
C474 C473 1.347 . S
H475 C476 0.951 . S
C476 H475 0.951 . S
C476 C482 1.265 . S
H477 C482 0.950 . S
H478 C486 0.949 . S
H479 C487 0.950 . S
H480 C488 0.951 . S
H481 C489 0.951 . S
C482 C476 1.265 . S
C482 H477 0.950 . S
C482 C483 1.478 . S
C483 C470 1.394 . S
C483 C482 1.478 . S
C483 C484 1.397 . S
C484 C483 1.397 . S
C484 C485 1.438 1_455 S
C484 C489 1.429 . S
C485 C468 1.394 . S
C485 C484 1.438 1_655 S
C485 C486 1.428 . S
C486 H478 0.949 . S
C486 C485 1.428 . S
C486 C487 1.345 1_655 S
C487 H479 0.950 . S
C487 C486 1.345 1_455 S
C487 C488 1.424 . S
C488 H480 0.951 . S
C488 C487 1.424 . S
C488 C489 1.347 . S
C489 H481 0.951 . S
C489 C484 1.429 . S
C489 C488 1.347 . S
H490 C491 0.951 1_655 S
C491 H490 0.951 1_455 S
C491 C497 1.265 . S
H492 C497 0.950 . S
H493 C501 0.949 . S
H494 C502 0.950 . S
H495 C503 0.951 . S
H496 C504 0.951 . S
C497 C491 1.265 . S
C497 H492 0.950 . S
C497 C498 1.478 . S
C498 C497 1.478 . S
C498 C499 1.397 . S
C498 C515 1.394 1_455 S
C499 C498 1.397 . S
C499 C500 1.438 . S
C499 C504 1.429 . S
C500 C499 1.438 . S
C500 C501 1.428 . S
C500 C513 1.394 1_455 S
C501 H493 0.949 . S
C501 C500 1.428 . S
C501 C502 1.345 . S
C502 H494 0.950 . S
C502 C501 1.345 . S
C502 C503 1.424 . S
C503 H495 0.951 . S
C503 C502 1.424 . S
C503 C504 1.347 . S
C504 H496 0.951 . S
C504 C499 1.429 . S
C504 C503 1.347 . S
H505 C506 0.951 1_455 S
C506 H505 0.951 1_655 S
C506 C512 1.265 . S
H507 C512 0.950 . S
H508 C516 0.949 . S
H509 C517 0.950 . S
H510 C518 0.951 . S
H511 C519 0.951 . S
C512 C506 1.265 . S
C512 H507 0.950 . S
C512 C513 1.478 . S
C513 C500 1.394 1_655 S
C513 C512 1.478 . S
C513 C514 1.397 . S
C514 C513 1.397 . S
C514 C515 1.438 . S
C514 C519 1.429 . S
C515 C498 1.394 1_655 S
C515 C514 1.438 . S
C515 C516 1.428 . S
C516 H508 0.949 . S
C516 C515 1.428 . S
C516 C517 1.345 . S
C517 H509 0.950 . S
C517 C516 1.345 . S
C517 C518 1.424 . S
C518 H510 0.951 . S
C518 C517 1.424 . S
C518 C519 1.347 . S
C519 H511 0.951 . S
C519 C514 1.429 . S
C519 C518 1.347 . S
C161 C59 1.557 . S
C176 C10 1.557 . S
C191 C99 1.543 . S
C206 C130 1.543 . S
C221 C19 1.578 . S
C236 C50 1.578 . S
C251 C139 1.543 . S
C266 C90 1.543 . S
C281 C122 1.656 . S
C296 C2 1.656 . S
C311 C47 1.016 . S
C326 C87 1.018 . S
C341 C51 1.655 . S
C356 C91 1.658 . S
C371 C136 0.962 . S
C386 C16 0.970 . S
C401 C42 1.657 . S
C416 C82 1.655 . S
C431 C127 1.018 . S
C446 C7 1.017 . S
C461 C131 1.659 . S
C476 C11 1.660 . S
C491 C96 1.019 . S
C506 C56 1.023 . S
