# Generated by pormake.
# Topology ict, (4)-cn, num edge types: 1
# Building blocks:
#     Node 0, Type 0, BuildingBlock: QUQFOY_clean_sbu_1, # of connection points: 4
#     Node 1, Type 0, BuildingBlock: QUQFOY_clean_sbu_1, # of connection points: 4
#     Node 2, Type 0, BuildingBlock: QUQFOY_clean_sbu_1, # of connection points: 4
#     Node 3, Type 0, BuildingBlock: QUQFOY_clean_sbu_1, # of connection points: 4
#     Node 4, Type 0, BuildingBlock: QUQFOY_clean_sbu_1, # of connection points: 4
#     Node 5, Type 0, BuildingBlock: QUQFOY_clean_sbu_1, # of connection points: 4
#     Node 6, Type 0, BuildingBlock: QUQFOY_clean_sbu_1, # of connection points: 4
#     Node 7, Type 0, BuildingBlock: QUQFOY_clean_sbu_1, # of connection points: 4
#     Node 8, Type 0, BuildingBlock: QUQFOY_clean_sbu_1, # of connection points: 4
#     Node 9, Type 0, BuildingBlock: QUQFOY_clean_sbu_1, # of connection points: 4
#     Node 10, Type 0, BuildingBlock: QUQFOY_clean_sbu_1, # of connection points: 4
#     Node 11, Type 0, BuildingBlock: QUQFOY_clean_sbu_1, # of connection points: 4
#     Node 12, Type 0, BuildingBlock: QUQFOY_clean_sbu_1, # of connection points: 4
#     Node 13, Type 0, BuildingBlock: QUQFOY_clean_sbu_1, # of connection points: 4
#     Node 14, Type 0, BuildingBlock: QUQFOY_clean_sbu_1, # of connection points: 4
#     Node 15, Type 0, BuildingBlock: QUQFOY_clean_sbu_1, # of connection points: 4
#     Node 16, Type 0, BuildingBlock: QUQFOY_clean_sbu_1, # of connection points: 4
#     Node 17, Type 0, BuildingBlock: QUQFOY_clean_sbu_1, # of connection points: 4
#     Node 18, Type 0, BuildingBlock: QUQFOY_clean_sbu_1, # of connection points: 4
#     Node 19, Type 0, BuildingBlock: QUQFOY_clean_sbu_1, # of connection points: 4
#     Node 20, Type 0, BuildingBlock: QUQFOY_clean_sbu_1, # of connection points: 4
#     Node 21, Type 0, BuildingBlock: QUQFOY_clean_sbu_1, # of connection points: 4
#     Node 22, Type 0, BuildingBlock: QUQFOY_clean_sbu_1, # of connection points: 4
#     Node 23, Type 0, BuildingBlock: QUQFOY_clean_sbu_1, # of connection points: 4
#     Node 24, Type 0, BuildingBlock: QUQFOY_clean_sbu_1, # of connection points: 4
#     Node 25, Type 0, BuildingBlock: QUQFOY_clean_sbu_1, # of connection points: 4
#     Node 26, Type 0, BuildingBlock: QUQFOY_clean_sbu_1, # of connection points: 4
#     Node 27, Type 0, BuildingBlock: QUQFOY_clean_sbu_1, # of connection points: 4
#     Node 28, Type 0, BuildingBlock: QUQFOY_clean_sbu_1, # of connection points: 4
#     Node 29, Type 0, BuildingBlock: QUQFOY_clean_sbu_1, # of connection points: 4
#     Node 30, Type 0, BuildingBlock: QUQFOY_clean_sbu_1, # of connection points: 4
#     Node 31, Type 0, BuildingBlock: QUQFOY_clean_sbu_1, # of connection points: 4
#     Node 32, Type 0, BuildingBlock: QUQFOY_clean_sbu_1, # of connection points: 4
#     Node 33, Type 0, BuildingBlock: QUQFOY_clean_sbu_1, # of connection points: 4
#     Node 34, Type 0, BuildingBlock: QUQFOY_clean_sbu_1, # of connection points: 4
#     Node 35, Type 0, BuildingBlock: QUQFOY_clean_sbu_1, # of connection points: 4
#     Edge 36, Type (0, 0), BuildingBlock: AJUNOK_clean_linker_0, # of connection points: 2
#     Edge 37, Type (0, 0), BuildingBlock: AJUNOK_clean_linker_0, # of connection points: 2
#     Edge 38, Type (0, 0), BuildingBlock: AJUNOK_clean_linker_0, # of connection points: 2
#     Edge 39, Type (0, 0), BuildingBlock: AJUNOK_clean_linker_0, # of connection points: 2
#     Edge 40, Type (0, 0), BuildingBlock: AJUNOK_clean_linker_0, # of connection points: 2
#     Edge 41, Type (0, 0), BuildingBlock: AJUNOK_clean_linker_0, # of connection points: 2
#     Edge 42, Type (0, 0), BuildingBlock: AJUNOK_clean_linker_0, # of connection points: 2
#     Edge 43, Type (0, 0), BuildingBlock: AJUNOK_clean_linker_0, # of connection points: 2
#     Edge 44, Type (0, 0), BuildingBlock: AJUNOK_clean_linker_0, # of connection points: 2
#     Edge 45, Type (0, 0), BuildingBlock: AJUNOK_clean_linker_0, # of connection points: 2
#     Edge 46, Type (0, 0), BuildingBlock: AJUNOK_clean_linker_0, # of connection points: 2
#     Edge 47, Type (0, 0), BuildingBlock: AJUNOK_clean_linker_0, # of connection points: 2
#     Edge 48, Type (0, 0), BuildingBlock: AJUNOK_clean_linker_0, # of connection points: 2
#     Edge 49, Type (0, 0), BuildingBlock: AJUNOK_clean_linker_0, # of connection points: 2
#     Edge 50, Type (0, 0), BuildingBlock: AJUNOK_clean_linker_0, # of connection points: 2
#     Edge 51, Type (0, 0), BuildingBlock: AJUNOK_clean_linker_0, # of connection points: 2
#     Edge 52, Type (0, 0), BuildingBlock: AJUNOK_clean_linker_0, # of connection points: 2
#     Edge 53, Type (0, 0), BuildingBlock: AJUNOK_clean_linker_0, # of connection points: 2
#     Edge 54, Type (0, 0), BuildingBlock: AJUNOK_clean_linker_0, # of connection points: 2
#     Edge 55, Type (0, 0), BuildingBlock: AJUNOK_clean_linker_0, # of connection points: 2
#     Edge 56, Type (0, 0), BuildingBlock: AJUNOK_clean_linker_0, # of connection points: 2
#     Edge 57, Type (0, 0), BuildingBlock: AJUNOK_clean_linker_0, # of connection points: 2
#     Edge 58, Type (0, 0), BuildingBlock: AJUNOK_clean_linker_0, # of connection points: 2
#     Edge 59, Type (0, 0), BuildingBlock: AJUNOK_clean_linker_0, # of connection points: 2
#     Edge 60, Type (0, 0), BuildingBlock: AJUNOK_clean_linker_0, # of connection points: 2
#     Edge 61, Type (0, 0), BuildingBlock: AJUNOK_clean_linker_0, # of connection points: 2
#     Edge 62, Type (0, 0), BuildingBlock: AJUNOK_clean_linker_0, # of connection points: 2
#     Edge 63, Type (0, 0), BuildingBlock: AJUNOK_clean_linker_0, # of connection points: 2
#     Edge 64, Type (0, 0), BuildingBlock: AJUNOK_clean_linker_0, # of connection points: 2
#     Edge 65, Type (0, 0), BuildingBlock: AJUNOK_clean_linker_0, # of connection points: 2
#     Edge 66, Type (0, 0), BuildingBlock: AJUNOK_clean_linker_0, # of connection points: 2
#     Edge 67, Type (0, 0), BuildingBlock: AJUNOK_clean_linker_0, # of connection points: 2
#     Edge 68, Type (0, 0), BuildingBlock: AJUNOK_clean_linker_0, # of connection points: 2
#     Edge 69, Type (0, 0), BuildingBlock: AJUNOK_clean_linker_0, # of connection points: 2
#     Edge 70, Type (0, 0), BuildingBlock: AJUNOK_clean_linker_0, # of connection points: 2
#     Edge 71, Type (0, 0), BuildingBlock: AJUNOK_clean_linker_0, # of connection points: 2
#     Edge 72, Type (0, 0), BuildingBlock: AJUNOK_clean_linker_0, # of connection points: 2
#     Edge 73, Type (0, 0), BuildingBlock: AJUNOK_clean_linker_0, # of connection points: 2
#     Edge 74, Type (0, 0), BuildingBlock: AJUNOK_clean_linker_0, # of connection points: 2
#     Edge 75, Type (0, 0), BuildingBlock: AJUNOK_clean_linker_0, # of connection points: 2
#     Edge 76, Type (0, 0), BuildingBlock: AJUNOK_clean_linker_0, # of connection points: 2
#     Edge 77, Type (0, 0), BuildingBlock: AJUNOK_clean_linker_0, # of connection points: 2
#     Edge 78, Type (0, 0), BuildingBlock: AJUNOK_clean_linker_0, # of connection points: 2
#     Edge 79, Type (0, 0), BuildingBlock: AJUNOK_clean_linker_0, # of connection points: 2
#     Edge 80, Type (0, 0), BuildingBlock: AJUNOK_clean_linker_0, # of connection points: 2
#     Edge 81, Type (0, 0), BuildingBlock: AJUNOK_clean_linker_0, # of connection points: 2
#     Edge 82, Type (0, 0), BuildingBlock: AJUNOK_clean_linker_0, # of connection points: 2
#     Edge 83, Type (0, 0), BuildingBlock: AJUNOK_clean_linker_0, # of connection points: 2
#     Edge 84, Type (0, 0), BuildingBlock: AJUNOK_clean_linker_0, # of connection points: 2
#     Edge 85, Type (0, 0), BuildingBlock: AJUNOK_clean_linker_0, # of connection points: 2
#     Edge 86, Type (0, 0), BuildingBlock: AJUNOK_clean_linker_0, # of connection points: 2
#     Edge 87, Type (0, 0), BuildingBlock: AJUNOK_clean_linker_0, # of connection points: 2
#     Edge 88, Type (0, 0), BuildingBlock: AJUNOK_clean_linker_0, # of connection points: 2
#     Edge 89, Type (0, 0), BuildingBlock: AJUNOK_clean_linker_0, # of connection points: 2
#     Edge 90, Type (0, 0), BuildingBlock: AJUNOK_clean_linker_0, # of connection points: 2
#     Edge 91, Type (0, 0), BuildingBlock: AJUNOK_clean_linker_0, # of connection points: 2
#     Edge 92, Type (0, 0), BuildingBlock: AJUNOK_clean_linker_0, # of connection points: 2
#     Edge 93, Type (0, 0), BuildingBlock: AJUNOK_clean_linker_0, # of connection points: 2
#     Edge 94, Type (0, 0), BuildingBlock: AJUNOK_clean_linker_0, # of connection points: 2
#     Edge 95, Type (0, 0), BuildingBlock: AJUNOK_clean_linker_0, # of connection points: 2
#     Edge 96, Type (0, 0), BuildingBlock: AJUNOK_clean_linker_0, # of connection points: 2
#     Edge 97, Type (0, 0), BuildingBlock: AJUNOK_clean_linker_0, # of connection points: 2
#     Edge 98, Type (0, 0), BuildingBlock: AJUNOK_clean_linker_0, # of connection points: 2
#     Edge 99, Type (0, 0), BuildingBlock: AJUNOK_clean_linker_0, # of connection points: 2
#     Edge 100, Type (0, 0), BuildingBlock: AJUNOK_clean_linker_0, # of connection points: 2
#     Edge 101, Type (0, 0), BuildingBlock: AJUNOK_clean_linker_0, # of connection points: 2
#     Edge 102, Type (0, 0), BuildingBlock: AJUNOK_clean_linker_0, # of connection points: 2
#     Edge 103, Type (0, 0), BuildingBlock: AJUNOK_clean_linker_0, # of connection points: 2
#     Edge 104, Type (0, 0), BuildingBlock: AJUNOK_clean_linker_0, # of connection points: 2
#     Edge 105, Type (0, 0), BuildingBlock: AJUNOK_clean_linker_0, # of connection points: 2
#     Edge 106, Type (0, 0), BuildingBlock: AJUNOK_clean_linker_0, # of connection points: 2
#     Edge 107, Type (0, 0), BuildingBlock: AJUNOK_clean_linker_0, # of connection points: 2
# Relax obj value: 0.130
# Max RMSD: 0.191
# Mean RMSD: 0.191
data_MOF--net-ict--node1-QUQFOY_clean_sbu_1--edge1-AJUNOK_clean_linker_0
_symmetry_space_group_name_H-M    P1
_symmetry_Int_Tables_number       1
_symmetry_cell_setting            triclinic
loop_
_symmetry_equiv_pos_as_xyz
'x, y, z'
_cell_length_a     53.452117
_cell_length_b     53.446651
_cell_length_c     27.013626
_cell_angle_alpha  89.972935
_cell_angle_beta   90.01693
_cell_angle_gamma 120.01377
loop_
_atom_site_label
_atom_site_type_symbol
_atom_site_fract_x
_atom_site_fract_y
_atom_site_fract_z
_atom_type_partial_charge
O0 O 0.25518 0.17307 0.0476 0.0
Cd1 Cd 0.26989 0.21659 0.053 0.0
Cd2 Cd 0.2108 0.1992 0.04747 0.0
O3 O 0.20961 0.16026 0.0343 0.0
O4 O 0.31066 0.23735 0.03024 0.0
O5 O 0.27503 0.23821 0.98965 0.0
C6 C 0.30206 0.24573 0.99236 0.0
C7 C 0.17442 0.20564 0.01134 0.0
C8 C 0.22938 0.15369 0.03805 0.0
C9 C 0.24563 0.23055 0.1398 0.0
O10 O 0.22179 0.218 0.1166 0.0
O11 O 0.26839 0.23269 0.12117 0.0
O12 O 0.16899 0.18711 0.046 0.0
O13 O 0.20066 0.22 -0.00468 0.0
O14 O 0.83772 0.08275 0.04398 0.0
Cd15 Cd 0.79429 0.05187 0.04973 0.0
Cd16 Cd 0.81527 0.01448 0.04249 0.0
O17 O 0.85161 0.05209 0.02068 0.0
O18 O 0.77185 0.0705 0.02849 0.0
O19 O 0.77308 0.03571 0.98585 0.0
C20 C 0.76433 0.05423 0.98974 0.0
C21 C 0.80768 0.97069 0.00883 0.0
C22 C 0.85731 0.07791 0.02814 0.0
C23 C 0.78757 0.01736 0.13882 0.0
O24 O 0.80384 0.01031 0.11588 0.0
O25 O 0.77846 0.03246 0.11756 0.0
O26 O 0.82887 0.98603 0.03812 0.0
O27 O 0.79094 0.98067 -0.00308 0.0
O28 O 0.92196 0.75205 0.05245 0.0
Cd29 Cd 0.95335 0.74028 0.05796 0.0
Cd30 Cd 0.99025 0.79827 0.0451 0.0
O31 O 0.95196 0.79567 0.02415 0.0
O32 O 0.93578 0.69932 0.0369 0.0
O33 O 0.96975 0.73604 0.99403 0.0
C34 C 0.9518 0.7086 -0.00214 0.0
C35 C 0.03289 0.83546 0.00975 0.0
C36 C 0.92637 0.77585 0.03422 0.0
C37 C 0.98894 0.77036 0.14405 0.0
O38 O 0.99566 0.79289 0.1188 0.0
O39 O 0.97356 0.74548 0.12521 0.0
O40 O 0.01714 0.84061 0.0392 0.0
O41 O 0.02404 0.80883 -0.00128 0.0
O42 O 0.16912 0.25277 0.44042 0.0
Cd43 Cd 0.21275 0.26854 0.43286 0.0
Cd44 Cd 0.19764 0.21037 0.43498 0.0
O45 O 0.158 0.20736 0.44922 0.0
O46 O 0.23341 0.30854 0.45925 0.0
O47 O 0.23518 0.27194 0.49438 0.0
C48 C 0.24234 0.29891 0.49495 0.0
C49 C 0.20522 0.17435 0.46956 0.0
C50 C 0.15044 0.22646 0.44826 0.0
C51 C 0.22721 0.24684 0.34325 0.0
O52 O 0.21616 0.22279 0.36579 0.0
O53 O 0.22825 0.2688 0.36329 0.0
O54 O 0.18681 0.16888 0.43469 0.0
O55 O 0.21899 0.20044 0.48637 0.0
O56 O 0.7505 0.91985 0.44252 0.0
Cd57 Cd 0.73744 0.95018 0.43376 0.0
Cd58 Cd 0.79531 0.98897 0.44638 0.0
O59 O 0.79366 0.95159 0.47019 0.0
O60 O 0.69645 0.93229 0.4551 0.0
O61 O 0.73285 0.96768 0.49628 0.0
C62 C 0.70552 0.9492 0.49309 0.0
C63 C 0.83276 0.03249 0.47901 0.0
C64 C 0.77456 0.92554 0.46148 0.0
C65 C 0.76721 0.98483 0.34624 0.0
O66 O 0.78976 0.99277 0.37215 0.0
O67 O 0.74235 0.96904 0.36495 0.0
O68 O 0.83765 0.01615 0.45064 0.0
O69 O 0.80621 0.02379 0.49049 0.0
O70 O 0.08019 0.83817 0.45236 0.0
Cd71 Cd 0.05144 0.79439 0.44326 0.0
Cd72 Cd 0.01119 0.81249 0.44922 0.0
O73 O 0.0473 0.84952 0.47335 0.0
O74 O 0.07182 0.7736 0.46398 0.0
O75 O 0.03448 0.77076 0.50465 0.0
C76 C 0.05445 0.7639 0.50129 0.0
C77 C 0.96591 0.80382 0.47782 0.0
C78 C 0.07365 0.85666 0.46776 0.0
C79 C 0.01869 0.7878 0.35237 0.0
O80 O 0.00951 0.80223 0.37567 0.0
O81 O 0.03451 0.77965 0.37381 0.0
O82 O 0.98193 0.82513 0.44928 0.0
O83 O 0.97606 0.78759 0.49211 0.0
O84 O 0.7563 0.83519 0.94512 0.0
Cd85 Cd 0.74148 0.79138 0.93713 0.0
Cd86 Cd 0.79863 0.80804 0.95007 0.0
O87 O 0.79964 0.84567 0.97044 0.0
O88 O 0.70041 0.76952 0.95854 0.0
O89 O 0.73606 0.76897 -0.00036 0.0
C90 C 0.70892 0.76094 -0.00367 0.0
C91 C 0.83374 0.79912 0.9849 0.0
C92 C 0.78109 0.85339 0.96193 0.0
C93 C 0.77005 0.78395 0.85019 0.0
O94 O 0.79265 0.7972 0.87648 0.0
O95 O 0.74546 0.77673 0.86841 0.0
O96 O 0.84035 0.82039 0.95538 0.0
O97 O 0.80688 0.78318 -0.00331 0.0
O98 O 0.1669 0.92421 0.94396 0.0
Cd99 Cd 0.21061 0.95406 0.93776 0.0
Cd100 Cd 0.19151 0.99295 0.94926 0.0
O101 O 0.15453 0.95567 0.96941 0.0
O102 O 0.23211 0.934 0.95674 0.0
O103 O 0.23244 0.96888 0.00155 0.0
C104 C 0.24025 0.94971 -0.0038 0.0
C105 C 0.20117 0.03655 0.98671 0.0
C106 C 0.1479 0.92972 0.96055 0.0
C107 C 0.21767 0.9904 0.8508 0.0
O108 O 0.2026 0.9982 0.8757 0.0
O109 O 0.22597 0.97408 0.87005 0.0
O110 O 0.17962 0.02263 0.95733 0.0
O111 O 0.21687 0.02508 -0.00327 0.0
O112 O 0.08531 0.25037 0.93874 0.0
Cd113 Cd 0.05429 0.26268 0.93251 0.0
Cd114 Cd 0.01754 0.2047 0.94201 0.0
O115 O 0.0551 0.20637 0.96527 0.0
O116 O 0.07267 0.30381 0.95369 0.0
O117 O 0.03807 0.26763 -0.00364 0.0
C118 C 0.05654 0.29493 0.99263 0.0
C119 C 0.97343 0.16989 0.97698 0.0
C120 C 0.08079 0.2264 0.95644 0.0
C121 C 0.02029 0.23365 0.84387 0.0
O122 O 0.01372 0.21073 0.86784 0.0
O123 O 0.0347 0.25819 0.86447 0.0
O124 O 0.98844 0.16291 0.94899 0.0
O125 O 0.98408 0.19694 0.98711 0.0
O126 O 0.83035 0.75159 0.54322 0.0
Cd127 Cd 0.78665 0.73669 0.5535 0.0
Cd128 Cd 0.80356 0.79436 0.5406 0.0
O129 O 0.83982 0.79418 0.51542 0.0
O130 O 0.76478 0.6955 0.53272 0.0
O131 O 0.76342 0.73082 0.4919 0.0
C132 C 0.7558 0.70377 0.49516 0.0
C133 C 0.79661 0.8318 0.51024 0.0
C134 C 0.84785 0.77586 0.5238 0.0
C135 C 0.78201 0.76586 0.64164 0.0
O136 O 0.7952 0.78836 0.61509 0.0
O137 O 0.77328 0.74101 0.62316 0.0
O138 O 0.81799 0.83662 0.53815 0.0
O139 O 0.77908 0.80533 0.4979 0.0
O140 O 0.24992 0.08553 0.5444 0.0
Cd141 Cd 0.26188 0.0543 0.55229 0.0
Cd142 Cd 0.20309 0.01777 0.54517 0.0
O143 O 0.20552 0.05527 0.51969 0.0
O144 O 0.30303 0.07234 0.53141 0.0
O145 O 0.26691 0.03732 0.48934 0.0
C146 C 0.29423 0.05574 0.49305 0.0
C147 C 0.16588 0.97356 0.51435 0.0
C148 C 0.22589 0.08098 0.52699 0.0
C149 C 0.23336 0.02195 0.64266 0.0
O150 O 0.21026 0.0153 0.61924 0.0
O151 O 0.2577 0.03573 0.62123 0.0
O152 O 0.16077 0.99005 0.54202 0.0
O153 O 0.19244 0.98263 0.50237 0.0
O154 O 0.92166 0.1671 0.54216 0.0
Cd155 Cd 0.95191 0.21068 0.54874 0.0
Cd156 Cd 0.99061 0.19124 0.53765 0.0
O157 O 0.9531 0.1546 0.51727 0.0
O158 O 0.93297 0.23291 0.52765 0.0
O159 O 0.96817 0.23236 0.48529 0.0
C160 C 0.94925 0.24061 0.48885 0.0
C161 C 0.03369 0.19883 0.50082 0.0
C162 C 0.92714 0.14807 0.52564 0.0
C163 C 0.98782 0.21745 0.63611 0.0
O164 O 0.99576 0.20249 0.6112 0.0
O165 O 0.97151 0.22574 0.61681 0.0
O166 O 0.01914 0.1778 0.53084 0.0
O167 O 0.02341 0.21552 0.49035 0.0
O168 O 0.91962 0.50305 0.38205 0.0
Cd169 Cd 0.93554 0.54674 0.38861 0.0
Cd170 Cd 0.87729 0.53176 0.38545 0.0
O171 O 0.87437 0.4921 0.37165 0.0
O172 O 0.97547 0.56697 0.36201 0.0
O173 O 0.93892 0.56863 0.32641 0.0
C174 C 0.96584 0.5756 0.32586 0.0
C175 C 0.84085 0.53895 0.35176 0.0
C176 C 0.89339 0.48444 0.37354 0.0
C177 C 0.91392 0.56226 0.47681 0.0
O178 O 0.88991 0.55088 0.45411 0.0
O179 O 0.93588 0.56294 0.45757 0.0
O180 O 0.83576 0.52069 0.38673 0.0
O181 O 0.86677 0.55268 0.33416 0.0
O182 O 0.50335 0.41539 0.37506 0.0
Cd183 Cd 0.46011 0.38433 0.38273 0.0
Cd184 Cd 0.48058 0.34754 0.37156 0.0
O185 O 0.51663 0.38488 0.34825 0.0
O186 O 0.43689 0.40238 0.36332 0.0
O187 O 0.43781 0.36758 0.3201 0.0
C188 C 0.42878 0.38584 0.32486 0.0
C189 C 0.47021 0.30329 0.33615 0.0
C190 C 0.52257 0.41065 0.35706 0.0
C191 C 0.45565 0.35018 0.47066 0.0
O192 O 0.47157 0.3434 0.44595 0.0
O193 O 0.44574 0.36497 0.45087 0.0
O194 O 0.49268 0.31814 0.36324 0.0
O195 O 0.454 0.31426 0.32688 0.0
O196 O 0.58594 0.08793 0.38172 0.0
Cd197 Cd 0.61377 0.07156 0.38659 0.0
Cd198 Cd 0.65451 0.13001 0.38019 0.0
O199 O 0.61853 0.13176 0.35839 0.0
O200 O 0.58922 0.03082 0.36537 0.0
O201 O 0.62783 0.06271 0.32347 0.0
C202 C 0.60551 0.03712 0.32682 0.0
C203 C 0.69897 0.16732 0.35038 0.0
C204 C 0.59232 0.1129 0.36632 0.0
C205 C 0.64774 0.09672 0.47613 0.0
O206 O 0.65669 0.12042 0.45313 0.0
O207 O 0.63168 0.07271 0.45489 0.0
O208 O 0.68342 0.17199 0.38106 0.0
O209 O 0.6891 0.1411 0.33544 0.0
O210 O 0.83766 0.58332 0.77652 0.0
Cd211 Cd 0.88142 0.59935 0.77026 0.0
Cd212 Cd 0.86603 0.54078 0.77086 0.0
O213 O 0.82631 0.53776 0.78383 0.0
O214 O 0.90134 0.63949 0.79612 0.0
O215 O 0.90372 0.60352 0.83239 0.0
C216 C 0.91044 0.63037 0.83231 0.0
C217 C 0.87268 0.50393 0.80437 0.0
C218 C 0.81883 0.55693 0.78314 0.0
C219 C 0.89677 0.5783 0.68068 0.0
O220 O 0.88544 0.55403 0.70252 0.0
O221 O 0.89762 0.60007 0.70111 0.0
O222 O 0.85487 0.49921 0.76881 0.0
O223 O 0.88638 0.52973 0.82246 0.0
O224 O 0.4235 0.25193 0.77375 0.0
Cd225 Cd 0.4108 0.28253 0.76583 0.0
Cd226 Cd 0.46799 0.32054 0.77661 0.0
O227 O 0.46719 0.28343 0.79957 0.0
O228 O 0.37029 0.26518 0.78926 0.0
O229 O 0.40761 0.30084 0.82826 0.0
C230 C 0.3802 0.28243 0.82674 0.0
C231 C 0.50285 0.36453 0.8116 0.0
C232 C 0.44778 0.25742 0.79145 0.0
C233 C 0.43944 0.31694 0.67771 0.0
O234 O 0.46234 0.32471 0.70252 0.0
O235 O 0.41485 0.30124 0.69736 0.0
O236 O 0.50973 0.34957 0.78332 0.0
O237 O 0.47584 0.35393 0.82197 0.0
O238 O 0.74889 0.16675 0.77282 0.0
Cd239 Cd 0.72063 0.12282 0.76548 0.0
Cd240 Cd 0.67881 0.13841 0.78362 0.0
O241 O 0.71604 0.17622 0.80215 0.0
O242 O 0.74035 0.10162 0.7878 0.0
O243 O 0.70407 0.10111 0.82851 0.0
C244 C 0.7236 0.09361 0.82605 0.0
C245 C 0.63515 0.13201 0.81644 0.0
C246 C 0.74221 0.18447 0.79149 0.0
C247 C 0.68163 0.1132 0.6826 0.0
O248 O 0.67243 0.12574 0.71093 0.0
O249 O 0.70068 0.10749 0.69789 0.0
O250 O 0.65064 0.15239 0.78599 0.0
O251 O 0.64508 0.1156 0.83068 0.0
O252 O 0.41847 0.16665 0.2718 0.0
Cd253 Cd 0.40518 0.12309 0.2667 0.0
Cd254 Cd 0.4631 0.14232 0.28204 0.0
O255 O 0.46177 0.17908 0.30033 0.0
O256 O 0.36432 0.10069 0.28931 0.0
O257 O 0.40097 0.10261 0.33096 0.0
C258 C 0.37367 0.09396 0.32832 0.0
C259 C 0.49997 0.13664 0.31823 0.0
C260 C 0.44258 0.18565 0.28971 0.0
C261 C 0.43529 0.11554 0.18238 0.0
O262 O 0.45749 0.13001 0.20911 0.0
O263 O 0.41029 0.10762 0.19953 0.0
O264 O 0.50537 0.15714 0.28764 0.0
O265 O 0.47331 0.11954 0.33009 0.0
O266 O 0.83295 0.25481 0.28241 0.0
Cd267 Cd 0.87635 0.28461 0.27247 0.0
Cd268 Cd 0.85772 0.32402 0.28596 0.0
O269 O 0.82159 0.28679 0.30902 0.0
O270 O 0.89877 0.26539 0.29072 0.0
O271 O 0.89978 0.30102 0.33431 0.0
C272 C 0.90773 0.28194 0.32916 0.0
C273 C 0.86573 0.36751 0.32185 0.0
C274 C 0.81459 0.26069 0.30077 0.0
C275 C 0.88055 0.31937 0.18494 0.0
O276 O 0.86694 0.32816 0.21159 0.0
O277 O 0.88933 0.30321 0.20321 0.0
O278 O 0.84412 0.35243 0.29323 0.0
O279 O 0.88282 0.3576 0.3314 0.0
O280 O 0.75136 0.58321 0.27869 0.0
Cd281 Cd 0.71966 0.59446 0.26989 0.0
Cd282 Cd 0.68451 0.53721 0.27773 0.0
O283 O 0.72137 0.5392 0.30525 0.0
O284 O 0.73617 0.63502 0.29301 0.0
O285 O 0.70081 0.59751 0.33202 0.0
C286 C 0.71888 0.625 0.33043 0.0
C287 C 0.63943 0.50248 0.30949 0.0
C288 C 0.74703 0.55949 0.29722 0.0
C289 C 0.68987 0.56595 0.17871 0.0
O290 O 0.68337 0.54311 0.20282 0.0
O291 O 0.70216 0.59037 0.2001 0.0
O292 O 0.65525 0.49545 0.28383 0.0
O293 O 0.64976 0.52956 0.31911 0.0
O294 O 0.49959 0.08178 0.87945 0.0
Cd295 Cd 0.45591 0.06776 0.88756 0.0
Cd296 Cd 0.47371 0.12526 0.87555 0.0
O297 O 0.51023 0.1249 0.85278 0.0
O298 O 0.43328 0.02737 0.86287 0.0
O299 O 0.43421 0.06468 0.82523 0.0
C300 C 0.42569 0.03737 0.8258 0.0
C301 C 0.46768 0.16281 0.84316 0.0
C302 C 0.51774 0.10622 0.86134 0.0
C303 C 0.45016 0.0963 0.97555 0.0
O304 O 0.46394 0.11897 0.94957 0.0
O305 O 0.44159 0.07153 0.95679 0.0
O306 O 0.48845 0.16755 0.8726 0.0
O307 O 0.45016 0.13635 0.83077 0.0
O308 O 0.91484 0.41318 0.87941 0.0
Cd309 Cd 0.92629 0.38168 0.88751 0.0
Cd310 Cd 0.86834 0.34555 0.8748 0.0
O311 O 0.87143 0.38353 0.84993 0.0
O312 O 0.96762 0.39935 0.86801 0.0
O313 O 0.93164 0.36507 0.82447 0.0
C314 C 0.95897 0.38326 0.829 0.0
C315 C 0.83248 0.30177 0.8402 0.0
C316 C 0.89147 0.40907 0.85972 0.0
C317 C 0.89537 0.34865 0.97548 0.0
O318 O 0.87308 0.34196 0.94955 0.0
O319 O 0.92037 0.36252 0.95626 0.0
O320 O 0.82624 0.31768 0.86721 0.0
O321 O 0.85945 0.31117 0.83106 0.0
O322 O 0.5907 0.49979 0.87953 0.0
Cd323 Cd 0.62173 0.543 0.88584 0.0
Cd324 Cd 0.65927 0.5226 0.87038 0.0
O325 O 0.62086 0.48638 0.85131 0.0
O326 O 0.60377 0.56619 0.86528 0.0
O327 O 0.63804 0.56425 0.82221 0.0
C328 C 0.61972 0.57325 0.82609 0.0
C329 C 0.7017 0.5293 0.83227 0.0
C330 C 0.59524 0.48047 0.86144 0.0
C331 C 0.65888 0.54906 0.97046 0.0
O332 O 0.66619 0.53428 0.94367 0.0
O333 O 0.6422 0.55748 0.95324 0.0
O334 O 0.68698 0.50825 0.86215 0.0
O335 O 0.69176 0.54632 0.8222 0.0
O336 O 0.58235 0.83645 0.7107 0.0
Cd337 Cd 0.59596 0.87992 0.71933 0.0
Cd338 Cd 0.53923 0.862 0.70421 0.0
O339 O 0.53977 0.82557 0.68084 0.0
O340 O 0.63669 0.90272 0.69651 0.0
O341 O 0.59989 0.90187 0.65703 0.0
C342 C 0.62718 0.91033 0.65878 0.0
C343 C 0.50409 0.87116 0.67014 0.0
C344 C 0.55843 0.81825 0.69106 0.0
C345 C 0.56588 0.88419 0.80602 0.0
O346 O 0.54379 0.87043 0.77874 0.0
O347 O 0.59102 0.89351 0.78837 0.0
O348 O 0.49741 0.84903 0.69753 0.0
O349 O 0.53107 0.88783 0.65988 0.0
O350 O 0.16829 0.74675 0.70942 0.0
Cd351 Cd 0.12496 0.71574 0.71489 0.0
Cd352 Cd 0.14662 0.67902 0.70499 0.0
O353 O 0.18262 0.71694 0.68318 0.0
O354 O 0.10264 0.73503 0.69716 0.0
O355 O 0.10312 0.7009 0.65124 0.0
C356 C 0.09461 0.71948 0.65755 0.0
C357 C 0.13902 0.63505 0.67193 0.0
C358 C 0.18803 0.74251 0.6924 0.0
C359 C 0.11956 0.68107 0.80252 0.0
O360 O 0.13609 0.67473 0.77868 0.0
O361 O 0.1096 0.69566 0.78214 0.0
O362 O 0.16055 0.65086 0.70025 0.0
O363 O 0.12209 0.64483 0.66013 0.0
O364 O 0.2558 0.42126 0.71396 0.0
Cd365 Cd 0.28597 0.40796 0.72165 0.0
Cd366 Cd 0.32406 0.46594 0.71457 0.0
O367 O 0.28739 0.46521 0.68931 0.0
O368 O 0.2672 0.36708 0.69957 0.0
O369 O 0.30318 0.40325 0.65894 0.0
C370 C 0.28416 0.37605 0.66167 0.0
C371 C 0.36881 0.50285 0.68465 0.0
C372 C 0.26136 0.44568 0.69684 0.0
C373 C 0.31752 0.43515 0.81232 0.0
O374 O 0.32545 0.45847 0.78875 0.0
O375 O 0.30352 0.41088 0.79083 0.0
O376 O 0.3525 0.50809 0.71252 0.0
O377 O 0.35935 0.47631 0.67211 0.0
O378 O 0.49566 0.90663 0.10825 0.0
Cd379 Cd 0.53973 0.92294 0.10242 0.0
Cd380 Cd 0.52277 0.86552 0.11367 0.0
O381 O 0.48481 0.86353 0.13522 0.0
O382 O 0.55629 0.96392 0.1223 0.0
O383 O 0.563 0.93229 0.16515 0.0
C384 C 0.56637 0.9579 0.16107 0.0
C385 C 0.53334 0.83129 0.14738 0.0
C386 C 0.47728 0.88209 0.12557 0.0
C387 C 0.5475 0.89588 0.01469 0.0
O388 O 0.53353 0.87293 0.03997 0.0
O389 O 0.55557 0.9204 0.0341 0.0
O390 O 0.5119 0.82411 0.11798 0.0
O391 O 0.54854 0.85819 0.15951 0.0
O392 O 0.08482 0.58276 0.10451 0.0
Cd393 Cd 0.07259 0.61375 0.09718 0.0
Cd394 Cd 0.12948 0.65076 0.10874 0.0
O395 O 0.1283 0.61351 0.13232 0.0
O396 O 0.03197 0.59669 0.11976 0.0
O397 O 0.06931 0.63164 0.16003 0.0
C398 C 0.04182 0.61366 0.15759 0.0
C399 C 0.16365 0.69511 0.14357 0.0
C400 C 0.10872 0.58769 0.1231 0.0
C401 C 0.10176 0.64776 0.00944 0.0
O402 O 0.12444 0.65475 0.03439 0.0
O403 O 0.07703 0.63281 0.02904 0.0
O404 O 0.17105 0.68011 0.11645 0.0
O405 O 0.13651 0.68423 0.15321 0.0
O406 O 0.41575 0.49865 0.11091 0.0
Cd407 Cd 0.38475 0.4555 0.10451 0.0
Cd408 Cd 0.34736 0.47564 0.12125 0.0
O409 O 0.38579 0.51175 0.14126 0.0
O410 O 0.4026 0.43227 0.12497 0.0
O411 O 0.36822 0.43417 0.16785 0.0
C412 C 0.38653 0.42515 0.16401 0.0
C413 C 0.30451 0.46909 0.15759 0.0
C414 C 0.41134 0.5178 0.13015 0.0
C415 C 0.34792 0.44991 0.02045 0.0
O416 O 0.34083 0.46469 0.04767 0.0
O417 O 0.36436 0.44113 0.03727 0.0
O418 O 0.31996 0.4904 0.12864 0.0
O419 O 0.31397 0.45173 0.16805 0.0
O420 O 0.08616 0.49864 0.61182 0.0
Cd421 Cd 0.07112 0.45465 0.60475 0.0
Cd422 Cd 0.12917 0.47189 0.6151 0.0
O423 O 0.12968 0.50914 0.63596 0.0
O424 O 0.03033 0.43323 0.62798 0.0
O425 O 0.06636 0.4327 0.66762 0.0
C426 C 0.03926 0.42499 0.66567 0.0
C427 C 0.16678 0.46594 0.64724 0.0
C428 C 0.11109 0.51686 0.62812 0.0
C429 C 0.09861 0.44641 0.5169 0.0
O430 O 0.12166 0.46036 0.54187 0.0
O431 O 0.07424 0.43918 0.53615 0.0
O432 O 0.17141 0.48622 0.61672 0.0
O433 O 0.14044 0.4489 0.66087 0.0
O434 O 0.50373 0.58805 0.61796 0.0
Cd435 Cd 0.54745 0.61711 0.6083 0.0
Cd436 Cd 0.52908 0.65756 0.6165 0.0
O437 O 0.49272 0.62092 0.64088 0.0
O438 O 0.56883 0.59709 0.628 0.0
O439 O 0.57086 0.63363 0.67015 0.0
C440 C 0.57822 0.61407 0.66583 0.0
C441 C 0.53576 0.7019 0.64617 0.0
C442 C 0.4855 0.59458 0.63479 0.0
C443 C 0.55371 0.65109 0.51855 0.0
O444 O 0.53942 0.66006 0.54282 0.0
O445 O 0.56181 0.63492 0.53893 0.0
O446 O 0.51476 0.68552 0.61738 0.0
O447 O 0.55298 0.6928 0.65971 0.0
O448 O 0.41543 0.9179 0.60306 0.0
Cd449 Cd 0.38408 0.92971 0.59656 0.0
Cd450 Cd 0.34757 0.8723 0.61133 0.0
O451 O 0.38564 0.8748 0.63358 0.0
O452 O 0.4012 0.97056 0.61851 0.0
O453 O 0.36713 0.93343 0.66041 0.0
C454 C 0.38504 0.96091 0.65736 0.0
C455 C 0.30396 0.83652 0.64636 0.0
C456 C 0.41117 0.89444 0.62261 0.0
C457 C 0.34936 0.89868 0.51046 0.0
O458 O 0.34269 0.87667 0.53712 0.0
O459 O 0.36413 0.92389 0.5285 0.0
O460 O 0.31964 0.83023 0.61883 0.0
O461 O 0.31376 0.86345 0.6564 0.0
O462 O 0.16866 0.4189 0.2173 0.0
Cd463 Cd 0.12467 0.40428 0.22183 0.0
Cd464 Cd 0.14235 0.46153 0.21198 0.0
O465 O 0.18021 0.46271 0.19296 0.0
O466 O 0.10341 0.36377 0.19723 0.0
O467 O 0.10419 0.40049 0.15767 0.0
C468 C 0.09621 0.37331 0.15903 0.0
C469 C 0.13314 0.4963 0.17659 0.0
C470 C 0.18744 0.44383 0.20182 0.0
C471 C 0.11567 0.43131 0.30936 0.0
O472 O 0.13054 0.4545 0.28512 0.0
O473 O 0.10804 0.40698 0.28955 0.0
O474 O 0.1541 0.50313 0.20694 0.0
O475 O 0.11771 0.46944 0.1644 0.0
O476 O 0.58426 0.74639 0.21605 0.0
Cd477 Cd 0.59765 0.71619 0.22201 0.0
Cd478 Cd 0.53991 0.67802 0.21189 0.0
O479 O 0.54066 0.7152 0.18926 0.0
O480 O 0.63849 0.73513 0.19928 0.0
O481 O 0.60212 0.69973 0.15819 0.0
C482 C 0.62931 0.71879 0.16059 0.0
C483 C 0.50443 0.63387 0.1781 0.0
C484 C 0.56007 0.74111 0.19827 0.0
C485 C 0.56934 0.68147 0.31008 0.0
O486 O 0.54637 0.67414 0.28577 0.0
O487 O 0.59389 0.69679 0.28996 0.0
O488 O 0.49802 0.64905 0.20671 0.0
O489 O 0.53129 0.64435 0.16665 0.0
O490 O 0.24931 0.83143 0.20905 0.0
Cd491 Cd 0.27987 0.87482 0.21648 0.0
Cd492 Cd 0.31809 0.85437 0.20379 0.0
O493 O 0.28012 0.81839 0.18265 0.0
O494 O 0.26169 0.89774 0.19523 0.0
O495 O 0.2969 0.89677 0.15359 0.0
C496 C 0.27828 0.90544 0.15682 0.0
C497 C 0.36116 0.85962 0.17064 0.0
C498 C 0.25431 0.81228 0.19156 0.0
C499 C 0.31509 0.88004 0.30336 0.0
O500 O 0.32296 0.86547 0.27725 0.0
O501 O 0.29914 0.88902 0.28497 0.0
O502 O 0.3451 0.83889 0.20018 0.0
O503 O 0.35232 0.87721 0.15812 0.0
C504 C 0.33073 0.26372 0.8617 0.0
C505 C 0.36088 0.27881 0.86879 0.0
C506 C 0.31167 0.25503 0.902 0.0
C507 C 0.32209 0.26064 0.95086 0.0
H508 H 0.32175 0.25747 0.82483 0.0
H509 H 0.28869 0.2422 0.89485 0.0
S510 S 0.39889 0.30279 0.98938 0.0
N511 N 0.40013 0.30183 0.92837 0.0
N512 N 0.36426 0.28488 0.00408 0.0
C513 C 0.35208 0.27736 0.95839 0.0
C514 C 0.3715 0.28666 0.91733 0.0
C515 C 0.74509 0.06496 0.85978 0.0
C516 C 0.7288 0.0787 0.86771 0.0
C517 C 0.75472 0.05508 0.89952 0.0
C518 C 0.7489 0.0591 0.94871 0.0
H519 H 0.75141 0.06278 0.82264 0.0
H520 H 0.76832 0.04586 0.89167 0.0
S521 S 0.70426 0.09059 0.98947 0.0
N522 N 0.70481 0.09309 0.92851 0.0
N523 N 0.7235 0.07513 0.00314 0.0
C524 C 0.73121 0.0712 0.9571 0.0
C525 C 0.72096 0.08081 0.9166 0.0
C526 C 0.95023 0.69912 0.90734 0.0
C527 C 0.94685 0.68876 0.95612 0.0
C528 C 0.93975 0.68003 0.86713 0.0
C529 C 0.92603 0.64993 0.87414 0.0
H530 H 0.9593 0.722 0.90028 0.0
H531 H 0.94139 0.68891 0.83043 0.0
S532 S 0.91604 0.61222 0.99413 0.0
N533 N 0.9317 0.64678 0.00897 0.0
N534 N 0.9126 0.61088 0.93328 0.0
C535 C 0.92471 0.63945 0.92241 0.0
C536 C 0.93493 0.65888 0.96346 0.0
C537 C 0.2835 0.367 0.57112 0.0
C538 C 0.27916 0.3563 0.61978 0.0
C539 C 0.27289 0.34818 0.53056 0.0
C540 C 0.25811 0.31801 0.53713 0.0
H541 H 0.2934 0.39001 0.5644 0.0
H542 H 0.27525 0.35735 0.49391 0.0
S543 S 0.24516 0.27929 0.65676 0.0
N544 N 0.26183 0.31382 0.67213 0.0
N545 N 0.24253 0.27841 0.59579 0.0
C546 C 0.2558 0.3071 0.58534 0.0
C547 C 0.26613 0.32628 0.62672 0.0
C548 C 0.67686 0.93992 0.62369 0.0
C549 C 0.64672 0.92556 0.61661 0.0
C550 C 0.69595 0.94965 0.58337 0.0
C551 C 0.68559 0.94488 0.53445 0.0
H552 H 0.68578 0.94256 0.6606 0.0
H553 H 0.71887 0.95923 0.59061 0.0
S554 S 0.60893 0.91195 0.49584 0.0
N555 N 0.60763 0.91006 0.55688 0.0
N556 N 0.64352 0.92775 0.48118 0.0
C557 C 0.65566 0.93234 0.5269 0.0
C558 C 0.63622 0.92287 0.56798 0.0
C559 C 0.07527 0.73382 0.53034 0.0
C560 C 0.05929 0.7476 0.54083 0.0
C561 C 0.08473 0.72264 0.5683 0.0
C562 C 0.07905 0.72539 0.61818 0.0
H563 H 0.08152 0.73265 0.49264 0.0
H564 H 0.09817 0.7135 0.55862 0.0
S565 S 0.03503 0.75628 0.66509 0.0
N566 N 0.03558 0.76054 0.60447 0.0
N567 N 0.05398 0.74015 0.67587 0.0
C568 C 0.06156 0.73744 0.629 0.0
C569 C 0.05148 0.74836 0.59028 0.0
C570 C 0.67922 0.73969 0.12615 0.0
C571 C 0.64914 0.72413 0.11843 0.0
C572 C 0.6986 0.74973 0.08623 0.0
C573 C 0.68858 0.74508 0.0371 0.0
H574 H 0.68789 0.74517 0.16333 0.0
H575 H 0.72149 0.76275 0.09402 0.0
S576 S 0.61215 0.70258 -0.00336 0.0
N577 N 0.61043 0.70198 0.05769 0.0
N578 N 0.64686 0.72146 0.98277 0.0
C579 C 0.65869 0.72807 0.0288 0.0
C580 C 0.63896 0.71739 0.06945 0.0
C581 C 0.25888 0.93635 0.125 0.0
C582 C 0.27387 0.92138 0.11592 0.0
C583 C 0.24993 0.94742 0.08604 0.0
C584 C 0.25513 0.94342 0.03645 0.0
H585 H 0.25303 0.93861 0.16245 0.0
H586 H 0.23731 0.95759 0.0948 0.0
S587 S 0.29647 0.90889 0.99279 0.0
N588 N 0.29605 0.90579 0.05365 0.0
N589 N 0.27864 0.926 0.98046 0.0
C590 C 0.27158 0.93005 0.02693 0.0
C591 C 0.28114 0.91921 0.06665 0.0
C592 C 0.06693 0.3237 0.12346 0.0
C593 C 0.0815 0.35385 0.1165 0.0
C594 C 0.05696 0.30464 0.0831 0.0
C595 C 0.06168 0.31503 0.03419 0.0
H596 H 0.06412 0.31471 0.16035 0.0
H597 H 0.04706 0.28168 0.09031 0.0
S598 S 0.09559 0.39185 -0.00416 0.0
N599 N 0.09753 0.39306 0.05688 0.0
N600 N 0.07936 0.35725 0.98107 0.0
C601 C 0.07467 0.34503 0.02674 0.0
C602 C 0.0844 0.36444 0.06788 0.0
C603 C 0.73681 0.67445 0.36498 0.0
C604 C 0.72221 0.64434 0.37236 0.0
C605 C 0.74553 0.69366 0.40509 0.0
C606 C 0.74047 0.68345 0.45411 0.0
H607 H 0.74272 0.68333 0.32798 0.0
H608 H 0.75805 0.71663 0.3976 0.0
S609 S 0.69951 0.60672 0.49352 0.0
N610 N 0.70006 0.60527 0.43248 0.0
N611 N 0.71709 0.64141 0.50783 0.0
C612 C 0.72413 0.65345 0.46198 0.0
C613 C 0.71479 0.63387 0.4211 0.0
C614 C 0.30442 0.05535 0.40294 0.0
C615 C 0.31448 0.06027 0.45206 0.0
C616 C 0.32375 0.06493 0.36294 0.0
C617 C 0.35385 0.0793 0.37052 0.0
H618 H 0.28154 0.04566 0.39525 0.0
H619 H 0.31503 0.06204 0.32584 0.0
S620 S 0.39094 0.09352 0.49211 0.0
N621 N 0.35626 0.07772 0.50613 0.0
N622 N 0.39259 0.09517 0.43106 0.0
C623 C 0.36407 0.08229 0.41942 0.0
C624 C 0.34438 0.07295 0.46017 0.0
C625 C 0.91924 0.28123 0.41853 0.0
C626 C 0.92365 0.27663 0.36884 0.0
C627 C 0.92902 0.27086 0.45733 0.0
C628 C 0.94411 0.25602 0.44791 0.0
H629 H 0.90654 0.29127 0.4276 0.0
H630 H 0.92373 0.27351 0.49495 0.0
S631 S 0.96495 0.24226 0.32418 0.0
N632 N 0.94658 0.25887 0.31226 0.0
N633 N 0.96561 0.24 0.38509 0.0
C634 C 0.95065 0.25334 0.39843 0.0
C635 C 0.94022 0.26344 0.35891 0.0
C636 C 0.03358 0.61423 0.24818 0.0
C637 C 0.02258 0.60978 0.19973 0.0
C638 C 0.01502 0.60459 0.28914 0.0
C639 C 0.98484 0.59069 0.28318 0.0
H640 H 0.05655 0.62341 0.25447 0.0
H641 H 0.02437 0.60694 0.32562 0.0
S642 S 0.94559 0.57828 0.16424 0.0
N643 N 0.97995 0.59361 0.14818 0.0
N644 N 0.94504 0.57609 0.22526 0.0
C645 C 0.97373 0.58842 0.23515 0.0
C646 C 0.99263 0.59778 0.19336 0.0
C647 C 0.41719 0.3856 0.23538 0.0
C648 C 0.41248 0.39026 0.28486 0.0
C649 C 0.40711 0.39541 0.19624 0.0
C650 C 0.39151 0.40978 0.20513 0.0
H651 H 0.43038 0.37603 0.22675 0.0
H652 H 0.4127 0.39284 0.15878 0.0
S653 S 0.36937 0.42295 0.32818 0.0
N654 N 0.38842 0.40713 0.34073 0.0
N655 N 0.36894 0.42506 0.26723 0.0
C656 C 0.38454 0.41232 0.25441 0.0
C657 C 0.39521 0.40273 0.29428 0.0
C658 C 0.60447 0.98809 0.22373 0.0
C659 C 0.57698 0.97825 0.20291 0.0
C660 C 0.61415 0.0077 0.26364 0.0
C661 C 0.59609 0.01696 0.28471 0.0
H662 H 0.61864 0.98095 0.20866 0.0
H663 H 0.63556 0.01524 0.27858 0.0
S664 S 0.52212 0.9968 0.24411 0.0
N665 N 0.53208 0.97923 0.20602 0.0
N666 N 0.54967 0.01485 0.28202 0.0
C667 C 0.56851 0.00688 0.26451 0.0
C668 C 0.55908 0.98778 0.2233 0.0
C669 C 0.38577 0.96946 0.74828 0.0
C670 C 0.3898 0.98037 0.69977 0.0
C671 C 0.396 0.98809 0.78919 0.0
C672 C 0.41016 0.0183 0.78323 0.0
H673 H 0.37636 0.94647 0.75462 0.0
H674 H 0.39384 0.97873 0.82562 0.0
S675 S 0.42188 0.05745 0.66425 0.0
N676 N 0.40601 0.02304 0.6483 0.0
N677 N 0.42466 0.05805 0.72518 0.0
C678 C 0.41214 0.02935 0.73518 0.0
C679 C 0.40214 0.01038 0.69344 0.0
C680 C 0.98917 0.39537 0.69913 0.0
C681 C 0.01921 0.40941 0.70713 0.0
C682 C 0.96961 0.38482 0.73877 0.0
C683 C 0.97939 0.38842 0.78799 0.0
H684 H 0.98067 0.3935 0.66206 0.0
H685 H 0.94679 0.37548 0.73088 0.0
S686 S 0.05559 0.42024 0.82874 0.0
N687 N 0.05759 0.42347 0.76786 0.0
N688 N 0.02084 0.40426 0.84236 0.0
C689 C 0.00923 0.40073 0.79637 0.0
C690 C 0.02914 0.41103 0.75593 0.0
C691 C 0.5997 0.60359 0.79417 0.0
C692 C 0.61469 0.58863 0.78499 0.0
C693 C 0.58985 0.6138 0.75522 0.0
C694 C 0.59414 0.60891 0.70563 0.0
H695 H 0.59448 0.60644 0.83174 0.0
H696 H 0.57721 0.62393 0.7641 0.0
S697 S 0.6353 0.5743 0.66146 0.0
N698 N 0.63605 0.57229 0.7224 0.0
N699 N 0.61693 0.59088 0.6493 0.0
C700 C 0.61065 0.59565 0.69589 0.0
C701 C 0.62113 0.5857 0.73555 0.0
C702 C 0.18812 0.07493 -0.00137 0.0
C703 C 0.20824 0.06552 0.00521 0.0
C704 C 0.19494 0.10313 0.01057 0.0
C705 C 0.22229 0.12333 0.02933 0.0
H706 H 0.16697 0.06055 0.98316 0.0
H707 H 0.17876 0.10927 0.00378 0.0
S708 S 0.28222 0.10908 0.05661 0.0
N709 N 0.25624 0.07822 0.03416 0.0
N710 N 0.26921 0.13133 0.05653 0.0
C711 C 0.24236 0.11395 0.03768 0.0
C712 C 0.2353 0.08505 0.02573 0.0
C713 C 0.93558 0.11806 0.98594 0.0
C714 C 0.94437 0.14731 0.99414 0.0
C715 C 0.90765 0.09603 -0.00242 0.0
C716 C 0.88703 0.10215 0.01786 0.0
H717 H 0.9503 0.11197 0.9697 0.0
H718 H 0.90216 0.07397 0.98989 0.0
S719 S 0.89933 0.17525 0.04848 0.0
N720 N 0.93045 0.1813 0.02529 0.0
N721 N 0.87778 0.13986 0.04722 0.0
C722 C 0.89565 0.13133 0.02729 0.0
C723 C 0.92431 0.15387 0.01551 0.0
C724 C 0.88559 0.81317 0.99176 0.0
C725 C 0.85651 0.79291 0.00182 0.0
C726 C 0.90776 0.80742 0.00285 0.0
C727 C 0.90196 0.78108 0.02446 0.0
H728 H 0.89142 0.83366 0.97444 0.0
H729 H 0.92967 0.82382 0.99371 0.0
S730 S 0.82945 0.72102 0.0602 0.0
N731 N 0.82303 0.74567 0.03615 0.0
N732 N 0.86479 0.73476 0.05715 0.0
C733 C 0.87298 0.76077 0.03582 0.0
C734 C 0.85028 0.76672 0.02455 0.0
C735 C 0.11122 0.23921 0.45497 0.0
C736 C 0.1198 0.21821 0.45775 0.0
C737 C 0.08295 0.23249 0.46676 0.0
C738 C 0.06218 0.20457 0.48222 0.0
H739 H 0.12659 0.26124 0.44448 0.0
H740 H 0.07769 0.24959 0.46546 0.0
S741 S 0.07244 0.14094 0.49127 0.0
N742 N 0.10426 0.16764 0.4738 0.0
N743 N 0.05139 0.1552 0.49618 0.0
C744 C 0.07006 0.18309 0.48335 0.0
C745 C 0.09877 0.18984 0.47107 0.0
C746 C 0.7655 0.85029 0.47431 0.0
C747 C 0.79191 0.85591 0.49531 0.0
C748 C 0.76003 0.87284 0.46341 0.0
C749 C 0.78079 0.90192 0.47296 0.0
H750 H 0.74867 0.82828 0.46704 0.0
H751 H 0.73926 0.86735 0.44769 0.0
S752 S 0.85415 0.92829 0.52542 0.0
N753 N 0.83951 0.89286 0.52348 0.0
N754 N 0.82934 0.93498 0.50328 0.0
C755 C 0.80753 0.90781 0.49312 0.0
C756 C 0.81306 0.8849 0.50418 0.0
C757 C 0.12606 0.89537 0.47066 0.0
C758 C 0.09679 0.88685 0.47855 0.0
C759 C 0.14824 0.92365 0.48087 0.0
C760 C 0.14209 0.94455 0.49961 0.0
H761 H 0.13201 0.88005 0.45676 0.0
H762 H 0.1704 0.92895 0.475 0.0
S763 S 0.06904 0.93398 0.52457 0.0
N764 N 0.06295 0.90225 0.50468 0.0
N765 N 0.10446 0.95509 0.52375 0.0
C766 C 0.11291 0.93652 0.50676 0.0
C767 C 0.09034 0.90779 0.4963 0.0
C768 C 0.77421 0.92072 0.97673 0.0
C769 C 0.80197 0.94178 0.99256 0.0
C770 C 0.76768 0.8923 0.96647 0.0
C771 C 0.78867 0.88385 0.97144 0.0
H772 H 0.75714 0.92596 0.97368 0.0
H773 H 0.74583 0.87675 0.95534 0.0
S774 S 0.86555 0.93182 0.00695 0.0
N775 N 0.85115 0.95283 0.00934 0.0
N776 N 0.83908 0.89977 0.99003 0.0
C777 C 0.81683 0.9051 0.98553 0.0
C778 C 0.82341 0.93393 -0.00395 0.0
C779 C 0.11087 0.87679 0.96568 0.0
C780 C 0.11788 0.90588 0.96996 0.0
C781 C 0.08299 0.85401 0.97659 0.0
C782 C 0.06107 0.85944 0.99238 0.0
H783 H 0.12717 0.87149 0.95478 0.0
H784 H 0.07889 0.83205 0.97419 0.0
S785 S 0.0671 0.93147 0.00467 0.0
N786 N 0.09963 0.93859 0.98754 0.0
N787 N 0.04757 0.89594 0.00807 0.0
C788 C 0.06744 0.88833 -0.00502 0.0
C789 C 0.09572 0.91149 0.9838 0.0
C790 C 0.12237 0.19136 0.00629 0.0
C791 C 0.1512 0.21084 0.9931 0.0
C792 C 0.09995 0.1965 0.99367 0.0
C793 C 0.10528 0.22149 0.96754 0.0
H794 H 0.11698 0.172 0.02717 0.0
H795 H 0.07827 0.18083 0.00536 0.0
S796 S 0.17691 0.27898 0.92246 0.0
N797 N 0.18385 0.25579 0.951 0.0
N798 N 0.14169 0.2656 0.92733 0.0
C799 C 0.13398 0.24097 0.95318 0.0
C800 C 0.15689 0.23559 0.96584 0.0
C801 C 0.91693 0.77163 0.51523 0.0
C802 C 0.93636 0.7976 0.49125 0.0
C803 C 0.88836 0.76465 0.52535 0.0
C804 C 0.87807 0.7834 0.51204 0.0
H805 H 0.92368 0.75634 0.52571 0.0
H806 H 0.87427 0.74436 0.54378 0.0
S807 S 0.92056 0.85455 0.4494 0.0
N808 N 0.94336 0.84244 0.45529 0.0
N809 N 0.89001 0.82941 0.47399 0.0
C810 C 0.89743 0.8096 0.48843 0.0
C811 C 0.92644 0.81667 0.47816 0.0
C812 C 0.19149 0.12244 0.474 0.0
C813 C 0.21065 0.15125 0.48766 0.0
C814 C 0.19658 0.10008 0.4873 0.0
C815 C 0.22122 0.10548 0.5146 0.0
H816 H 0.17234 0.11698 0.45241 0.0
H817 H 0.18113 0.07838 0.47536 0.0
S818 S 0.27792 0.17715 0.56089 0.0
N819 N 0.25502 0.18401 0.53114 0.0
N820 N 0.26476 0.14195 0.55605 0.0
C821 C 0.24047 0.13419 0.52917 0.0
C822 C 0.23512 0.15704 0.51584 0.0
C823 C 0.87423 0.11073 0.52212 0.0
C824 C 0.90331 0.11804 0.51609 0.0
C825 C 0.85146 0.08273 0.51181 0.0
C826 C 0.85688 0.06099 0.49492 0.0
H827 H 0.86891 0.12683 0.53417 0.0
H828 H 0.82947 0.07837 0.5158 0.0
S829 S 0.92903 0.06801 0.47696 0.0
N830 N 0.93609 0.10038 0.49492 0.0
N831 N 0.89349 0.04813 0.47567 0.0
C832 C 0.88582 0.06773 0.49024 0.0
C833 C 0.90896 0.09612 0.50076 0.0
C834 C 0.90619 0.44526 0.36679 0.0
C835 C 0.88515 0.45379 0.36421 0.0
C836 C 0.89949 0.41699 0.3551 0.0
C837 C 0.87153 0.39613 0.34001 0.0
H838 H 0.92825 0.46068 0.37701 0.0
H839 H 0.91662 0.41177 0.35628 0.0
S840 S 0.80779 0.40625 0.33156 0.0
N841 N 0.83451 0.43813 0.34869 0.0
N842 N 0.82208 0.38524 0.32656 0.0
C843 C 0.85 0.40397 0.33906 0.0
C844 C 0.85675 0.43269 0.3512 0.0
C845 C 0.60081 0.45075 0.31487 0.0
C846 C 0.60994 0.47992 0.32481 0.0
C847 C 0.5727 0.42879 0.32556 0.0
C848 C 0.55226 0.43488 0.34668 0.0
H849 H 0.61542 0.44467 0.29815 0.0
H850 H 0.567 0.40679 0.31676 0.0
S851 S 0.56529 0.50776 0.38121 0.0
N852 N 0.5964 0.51381 0.35795 0.0
N853 N 0.54341 0.47246 0.37819 0.0
C854 C 0.56113 0.46397 0.3575 0.0
C855 C 0.58997 0.48646 0.34661 0.0
C856 C 0.51749 0.10441 0.35195 0.0
C857 C 0.52358 0.13187 0.33559 0.0
C858 C 0.5398 0.09856 0.36244 0.0
C859 C 0.56909 0.12 0.35724 0.0
H860 H 0.49534 0.08698 0.35501 0.0
H861 H 0.53395 0.07686 0.37378 0.0
S862 S 0.59644 0.19645 0.3207 0.0
N863 N 0.56095 0.18134 0.3183 0.0
N864 N 0.60277 0.17055 0.33814 0.0
C865 C 0.5754 0.14792 0.34288 0.0
C866 C 0.5527 0.1538 0.33206 0.0
C867 C 0.77947 0.56957 0.78773 0.0
C868 C 0.78809 0.54863 0.79148 0.0
C869 C 0.75109 0.56282 0.79855 0.0
C870 C 0.73021 0.53492 0.81396 0.0
H871 H 0.79491 0.59158 0.77728 0.0
H872 H 0.74581 0.5799 0.79666 0.0
S873 S 0.74058 0.47144 0.8253 0.0
N874 N 0.77251 0.49813 0.80833 0.0
N875 N 0.71941 0.48562 0.82887 0.0
C876 C 0.73813 0.51347 0.81593 0.0
C877 C 0.76696 0.52027 0.80465 0.0
C878 C 0.43691 0.18168 0.80748 0.0
C879 C 0.46362 0.18702 0.8266 0.0
C880 C 0.432 0.2045 0.79585 0.0
C881 C 0.45366 0.23356 0.8027 0.0
H882 H 0.41939 0.15971 0.8026 0.0
H883 H 0.4109 0.19923 0.78198 0.0
S884 S 0.52831 0.2591 0.84806 0.0
N885 N 0.51258 0.22355 0.84918 0.0
N886 N 0.5035 0.26624 0.82746 0.0
C887 C 0.48078 0.23913 0.82046 0.0
C888 C 0.48571 0.21594 0.83234 0.0
C889 C 0.79446 0.2235 0.7969 0.0
C890 C 0.76496 0.21497 0.80112 0.0
C891 C 0.81623 0.25188 0.80782 0.0
C892 C 0.80938 0.27286 0.82344 0.0
H893 H 0.80087 0.20801 0.78604 0.0
H894 H 0.83857 0.25713 0.80535 0.0
S895 S 0.73561 0.26266 0.83567 0.0
N896 N 0.73024 0.23071 0.81863 0.0
N897 N 0.77099 0.28371 0.83908 0.0
C898 C 0.78002 0.26494 0.82607 0.0
C899 C 0.75789 0.23612 0.81497 0.0
C900 C 0.47625 0.23634 0.31682 0.0
C901 C 0.44893 0.21578 0.29838 0.0
C902 C 0.48303 0.26467 0.32715 0.0
C903 C 0.46288 0.27391 0.31952 0.0
H904 H 0.49263 0.23053 0.32404 0.0
H905 H 0.50425 0.27932 0.34208 0.0
S906 S 0.38864 0.2292 0.26968 0.0
N907 N 0.40179 0.20706 0.27114 0.0
N908 N 0.41464 0.26049 0.29072 0.0
C909 C 0.4357 0.25393 0.29981 0.0
C910 C 0.42871 0.22486 0.28929 0.0
C911 C 0.77658 0.20801 0.30403 0.0
C912 C 0.7847 0.23717 0.31214 0.0
C913 C 0.74858 0.18551 0.31509 0.0
C914 C 0.72765 0.19128 0.33493 0.0
H915 H 0.79202 0.20242 0.28942 0.0
H916 H 0.74354 0.16344 0.30909 0.0
S917 S 0.73699 0.26381 0.36005 0.0
N918 N 0.76871 0.27043 0.3391 0.0
N919 N 0.71644 0.22832 0.35979 0.0
C920 C 0.73523 0.22031 0.34214 0.0
C921 C 0.76363 0.24318 0.33081 0.0
C922 C 0.78898 0.52549 0.34963 0.0
C923 C 0.8176 0.54437 0.33457 0.0
C924 C 0.76653 0.5306 0.33717 0.0
C925 C 0.77165 0.55498 0.30932 0.0
H926 H 0.78375 0.50654 0.37164 0.0
H927 H 0.74498 0.51535 0.35007 0.0
S928 S 0.84271 0.61095 0.25965 0.0
N929 N 0.84986 0.58825 0.28939 0.0
N930 N 0.80763 0.59802 0.266 0.0
C931 C 0.80016 0.57398 0.29348 0.0
C932 C 0.82309 0.56861 0.30597 0.0
C933 C 0.58605 0.1005 0.85389 0.0
C934 C 0.60609 0.12668 0.83117 0.0
C935 C 0.55757 0.09401 0.86353 0.0
C936 C 0.54802 0.11347 0.85099 0.0
H937 H 0.59216 0.08459 0.8633 0.0
H938 H 0.54291 0.07346 0.88067 0.0
S939 S 0.59262 0.18573 0.79295 0.0
N940 N 0.61469 0.1727 0.79814 0.0
N941 N 0.56152 0.1606 0.81592 0.0
C942 C 0.56812 0.14002 0.82917 0.0
C943 C 0.59702 0.14658 0.8194 0.0
C944 C 0.85871 0.45189 0.80605 0.0
C945 C 0.87757 0.48037 0.82184 0.0
C946 C 0.86336 0.42918 0.81885 0.0
C947 C 0.88723 0.43388 0.84778 0.0
H948 H 0.84016 0.44699 0.78317 0.0
H949 H 0.84818 0.40778 0.80528 0.0
S950 S 0.94283 0.50439 0.89986 0.0
N951 N 0.9208 0.51202 0.86902 0.0
N952 N 0.9297 0.46931 0.89303 0.0
C953 C 0.90615 0.46223 0.86446 0.0
C954 C 0.90126 0.48544 0.85161 0.0
C955 C 0.57684 0.42997 0.83182 0.0
C956 C 0.57089 0.45077 0.85177 0.0
C957 C 0.5547 0.40206 0.82054 0.0
C958 C 0.52551 0.3935 0.82874 0.0
H959 H 0.59884 0.43528 0.82413 0.0
H960 H 0.56065 0.38718 0.80453 0.0
S961 S 0.498 0.43908 0.88229 0.0
N962 N 0.53342 0.46046 0.88088 0.0
N963 N 0.49174 0.40779 0.85957 0.0
C964 C 0.51912 0.41372 0.84987 0.0
C965 C 0.54178 0.44237 0.86133 0.0
C966 C 0.56739 0.75201 0.67947 0.0
C967 C 0.54053 0.73078 0.66058 0.0
C968 C 0.573 0.78016 0.68932 0.0
C969 C 0.55195 0.7882 0.68081 0.0
H970 H 0.58448 0.74706 0.68568 0.0
H971 H 0.59416 0.7958 0.70326 0.0
S972 S 0.47722 0.73987 0.63504 0.0
N973 N 0.4921 0.71928 0.63621 0.0
N974 N 0.50251 0.77188 0.65459 0.0
C975 C 0.52471 0.76688 0.66307 0.0
C976 C 0.51905 0.73829 0.65304 0.0
C977 C 0.23888 0.76182 0.66358 0.0
C978 C 0.21766 0.7672 0.68338 0.0
C979 C 0.26681 0.78433 0.65338 0.0
C980 C 0.27497 0.81335 0.66257 0.0
H981 H 0.23389 0.73998 0.6552 0.0
H982 H 0.28202 0.77883 0.63738 0.0
S983 S 0.22816 0.83937 0.71623 0.0
N984 N 0.20715 0.80393 0.71344 0.0
N985 N 0.25979 0.84629 0.69414 0.0
C986 C 0.25429 0.81915 0.68351 0.0
C987 C 0.22565 0.79611 0.69385 0.0
C988 C 0.20844 0.42981 0.69227 0.0
C989 C 0.2375 0.45163 0.68603 0.0
C990 C 0.18561 0.43482 0.68134 0.0
C991 C 0.19095 0.46178 0.6635 0.0
H992 H 0.20318 0.40853 0.70512 0.0
H993 H 0.16364 0.41719 0.68561 0.0
S994 S 0.26296 0.52696 0.64453 0.0
N995 N 0.27015 0.5019 0.66358 0.0
N996 N 0.22741 0.51113 0.64306 0.0
C997 C 0.21985 0.48402 0.65847 0.0
C998 C 0.24306 0.479 0.66968 0.0
C999 C 0.41108 0.891 0.13686 0.0
C1000 C 0.3897 0.864 0.15495 0.0
C1001 C 0.43919 0.89654 0.127 0.0
C1002 C 0.44703 0.87526 0.13464 0.0
H1003 H 0.40636 0.90832 0.13163 0.0
H1004 H 0.45498 0.91789 0.11404 0.0
S1005 S 0.39812 0.8 0.17728 0.0
N1006 N 0.37771 0.81511 0.17708 0.0
N1007 N 0.4303 0.82539 0.15852 0.0
C1008 C 0.4255 0.84781 0.15111 0.0
C1009 C 0.39693 0.84223 0.16124 0.0
C1010 C 0.14029 0.56982 0.15764 0.0
C1011 C 0.11428 0.56362 0.13422 0.0
C1012 C 0.1463 0.54795 0.16978 0.0
C1013 C 0.12667 0.51878 0.159 0.0
H1014 H 0.15619 0.59181 0.16734 0.0
H1015 H 0.16652 0.55408 0.18841 0.0
S1016 S 0.05586 0.49074 0.09616 0.0
N1017 N 0.06894 0.52599 0.09925 0.0
N1018 N 0.08037 0.48481 0.12219 0.0
C1019 C 0.10081 0.51216 0.1346 0.0
C1020 C 0.09458 0.53455 0.12228 0.0
C1021 C 0.45245 0.59604 0.17221 0.0
C1022 C 0.48148 0.6048 0.16179 0.0
C1023 C 0.43016 0.5681 0.16142 0.0
C1024 C 0.4358 0.54748 0.13974 0.0
H1025 H 0.44675 0.61078 0.18955 0.0
H1026 H 0.4083 0.56263 0.17076 0.0
S1027 S 0.50813 0.55967 0.10333 0.0
N1028 N 0.51472 0.59083 0.1272 0.0
N1029 N 0.47279 0.53815 0.10678 0.0
C1030 C 0.46473 0.55606 0.12811 0.0
C1031 C 0.48754 0.58472 0.13908 0.0
C1032 C 0.10566 0.58525 0.63871 0.0
C1033 C 0.13304 0.60582 0.65692 0.0
C1034 C 0.09874 0.55662 0.62927 0.0
C1035 C 0.11894 0.54742 0.63751 0.0
H1036 H 0.08917 0.59107 0.63289 0.0
H1037 H 0.07724 0.54153 0.61593 0.0
S1038 S 0.19448 0.59358 0.68169 0.0
N1039 N 0.18098 0.61537 0.68037 0.0
N1040 N 0.16814 0.56194 0.66284 0.0
C1041 C 0.14669 0.56809 0.65445 0.0
C1042 C 0.15368 0.59714 0.66405 0.0
C1043 C 0.41807 0.52025 0.64806 0.0
C1044 C 0.39791 0.52653 0.66985 0.0
C1045 C 0.44629 0.54229 0.6369 0.0
C1046 C 0.45548 0.57152 0.64687 0.0
H1047 H 0.4122 0.4981 0.64027 0.0
H1048 H 0.46101 0.53627 0.62045 0.0
S1049 S 0.41059 0.59958 0.70216 0.0
N1050 N 0.38892 0.56428 0.69975 0.0
N1051 N 0.44161 0.60546 0.679 0.0
C1052 C 0.43532 0.57808 0.66802 0.0
C1053 C 0.40667 0.55568 0.67941 0.0
C1054 C 0.42995 0.86286 0.65336 0.0
C1055 C 0.43566 0.88931 0.63235 0.0
C1056 C 0.45218 0.85711 0.66393 0.0
C1057 C 0.48126 0.87749 0.65401 0.0
H1058 H 0.40806 0.84634 0.66226 0.0
H1059 H 0.44639 0.83649 0.6807 0.0
S1060 S 0.50812 0.94982 0.59749 0.0
N1061 N 0.47277 0.93595 0.60062 0.0
N1062 N 0.51463 0.92504 0.62069 0.0
C1063 C 0.48741 0.90385 0.63205 0.0
C1064 C 0.46464 0.90979 0.62126 0.0
C1065 C 0.22579 0.42962 0.19795 0.0
C1066 C 0.21795 0.45111 0.19396 0.0
C1067 C 0.25419 0.43583 0.18843 0.0
C1068 C 0.27581 0.46374 0.1744 0.0
H1069 H 0.20976 0.40764 0.20746 0.0
H1070 H 0.25893 0.41838 0.19035 0.0
S1071 S 0.26759 0.52854 0.16394 0.0
N1072 N 0.23507 0.50213 0.17884 0.0
N1073 N 0.28808 0.51359 0.16091 0.0
C1074 C 0.26859 0.48567 0.17228 0.0
C1075 C 0.23979 0.47943 0.18203 0.0
C1076 C 0.52102 0.77987 0.15387 0.0
C1077 C 0.5405 0.80914 0.16415 0.0
C1078 C 0.52757 0.75829 0.16545 0.0
C1079 C 0.55398 0.7649 0.18776 0.0
H1080 H 0.50049 0.77342 0.13613 0.0
H1081 H 0.51174 0.7362 0.1562 0.0
S1082 S 0.61229 0.83824 0.22393 0.0
N1083 N 0.58715 0.84368 0.19916 0.0
N1084 N 0.59958 0.80305 0.22102 0.0
C1085 C 0.57356 0.79408 0.19912 0.0
C1086 C 0.56679 0.81618 0.18739 0.0
C1087 C 0.21518 0.73368 0.15155 0.0
C1088 C 0.18586 0.72447 0.16 0.0
C1089 C 0.23686 0.7619 0.1622 0.0
C1090 C 0.23034 0.78238 0.18178 0.0
H1091 H 0.22158 0.71908 0.13586 0.0
H1092 H 0.25899 0.76767 0.15443 0.0
S1093 S 0.1569 0.76905 0.21254 0.0
N1094 N 0.15134 0.73787 0.19047 0.0
N1095 N 0.1922 0.7911 0.21066 0.0
C1096 C 0.2011 0.77337 0.19143 0.0
C1097 C 0.17888 0.74441 0.18059 0.0
C1098 C 0.25722 0.23086 0.22888 0.0
C1099 C 0.24577 0.24007 0.19085 0.0
C1100 C 0.25229 0.23441 0.27864 0.0
C1101 C 0.23661 0.24809 0.29174 0.0
H1102 H 0.26836 0.21916 0.22016 0.0
H1103 H 0.25993 0.22551 0.30703 0.0
S1104 S 0.20485 0.2787 0.20574 0.0
N1105 N 0.21971 0.26494 0.16924 0.0
N1106 N 0.21154 0.27276 0.26296 0.0
C1107 C 0.22684 0.25919 0.25407 0.0
C1108 C 0.23112 0.25484 0.20345 0.0
C1109 C 0.80093 0.005 0.21928 0.0
C1110 C 0.78103 0.00908 0.19146 0.0
C1111 C 0.79607 0.99728 0.26913 0.0
C1112 C 0.77085 0.99278 0.29326 0.0
H1113 H 0.82074 0.00815 0.20261 0.0
H1114 H 0.81221 0.99453 0.28878 0.0
S1115 S 0.71155 1.00016 0.23703 0.0
N1116 N 0.73499 0.00802 0.19151 0.0
N1117 N 0.72549 0.99274 0.28565 0.0
C1118 C 0.75049 0.99642 0.26594 0.0
C1119 C 0.75572 0.00486 0.215 0.0
C1120 C 0.00866 0.80292 0.27175 0.0
C1121 C 0.01205 0.78247 0.29914 0.0
C1122 C 1.0017 0.79882 0.22159 0.0
C1123 C 0.99731 0.77382 0.19677 0.0
H1124 H 0.01154 0.82246 0.28916 0.0
H1125 H 0.9992 0.81524 0.20239 0.0
S1126 S 0.00385 0.71369 0.25156 0.0
N1127 N 0.01107 0.73649 0.29791 0.0
N1128 N 0.99719 0.72835 0.20311 0.0
C1129 C 1.00067 0.75311 0.22355 0.0
C1130 C 0.00834 0.75758 0.27482 0.0
C1131 C 0.75078 0.75538 0.77151 0.0
C1132 C 0.77317 0.77876 0.79734 0.0
C1133 C 0.75387 0.7506 0.72122 0.0
C1134 C 0.77913 0.76951 0.69508 0.0
H1135 H 0.73087 0.74061 0.79033 0.0
H1136 H 0.73618 0.73248 0.70244 0.0
S1137 S 0.84411 0.83367 0.74562 0.0
N1138 N 0.82159 0.82069 0.79281 0.0
N1139 N 0.82708 0.81195 0.69878 0.0
C1140 C 0.80163 0.79282 0.72057 0.0
C1141 C 0.79873 0.79739 0.77158 0.0
C1142 C 0.20786 0.0128 0.72298 0.0
C1143 C 0.23118 0.01469 0.69588 0.0
C1144 C 0.20417 0.00536 0.773 0.0
C1145 C 0.22335 0.99896 0.79808 0.0
H1146 H 0.19226 0.01727 0.70547 0.0
H1147 H 0.1857 0.00412 0.79189 0.0
S1148 S 0.28816 1.00093 0.74418 0.0
N1149 N 0.27417 0.01004 0.69778 0.0
N1150 N 0.26684 0.9953 0.79223 0.0
C1151 C 0.24688 1.00076 0.7716 0.0
C1152 C 0.25094 0.0089 0.72046 0.0
C1153 C 1.00192 0.20343 0.71427 0.0
C1154 C 0.99624 0.22303 0.68888 0.0
C1155 C 0.00955 0.20723 0.76422 0.0
C1156 C 0.01236 0.23107 0.7909 0.0
H1157 H 1.00006 0.18463 0.69563 0.0
H1158 H 0.01354 0.19136 0.78193 0.0
S1159 S 1.00043 0.28908 0.7417 0.0
N1160 N 0.994 0.26731 0.69403 0.0
N1161 N 0.00912 0.27485 0.78831 0.0
C1162 C 0.00714 0.25115 0.76603 0.0
C1163 C 0.9988 0.24698 0.71499 0.0
C1164 C 0.92579 0.56187 0.56555 0.0
C1165 C 0.91497 0.57202 0.52797 0.0
C1166 C 0.92117 0.56539 0.61548 0.0
C1167 C 0.90642 0.57994 0.62921 0.0
H1168 H 0.93605 0.5494 0.55633 0.0
H1169 H 0.92818 0.5557 0.64348 0.0
S1170 S 0.87691 0.61338 0.54455 0.0
N1171 N 0.89077 0.59889 0.50745 0.0
N1172 N 0.88315 0.60659 0.60148 0.0
C1173 C 0.89747 0.59208 0.592 0.0
C1174 C 0.90146 0.5878 0.54121 0.0
C1175 C 0.47095 0.33805 0.54938 0.0
C1176 C 0.45032 0.34185 0.52337 0.0
C1177 C 0.4671 0.33015 0.59919 0.0
C1178 C 0.4422 0.32521 0.62499 0.0
H1179 H 0.49052 0.34151 0.53128 0.0
H1180 H 0.48373 0.32759 0.61746 0.0
S1181 S 0.38139 0.33189 0.57387 0.0
N1182 N 0.40402 0.34015 0.52694 0.0
N1183 N 0.39643 0.32459 0.62098 0.0
C1184 C 0.42117 0.32866 0.5995 0.0
C1185 C 0.42536 0.33725 0.54864 0.0
C1186 C 0.67582 0.08839 0.60051 0.0
C1187 C 0.67094 0.10702 0.6308 0.0
C1188 C 0.66704 0.08379 0.55061 0.0
C1189 C 0.65364 0.09811 0.52949 0.0
H1190 H 0.68676 0.07756 0.61522 0.0
H1191 H 0.67173 0.06989 0.52804 0.0
S1192 S 0.63435 0.14768 0.59256 0.0
N1193 N 0.65029 0.13867 0.63563 0.0
N1194 N 0.63452 0.13027 0.54229 0.0
C1195 C 0.64797 0.11608 0.55945 0.0
C1196 C 0.65643 0.12048 0.61002 0.0
C1197 C 0.41672 0.08701 0.10333 0.0
C1198 C 0.43931 0.10965 0.1302 0.0
C1199 C 0.42044 0.0819 0.05349 0.0
C1200 C 0.44663 0.09971 0.02882 0.0
H1201 H 0.39607 0.07318 0.12088 0.0
H1202 H 0.40252 0.06452 0.0338 0.0
S1203 S 0.51272 0.16117 0.08242 0.0
N1204 N 0.48912 0.14941 0.12815 0.0
N1205 N 0.49573 0.13998 0.03501 0.0
C1206 C 0.46941 0.12207 0.05538 0.0
C1207 C 0.46585 0.12701 0.10593 0.0
C1208 C 0.90819 0.32923 0.10511 0.0
C1209 C 0.88443 0.32685 0.13165 0.0
C1210 C 0.91198 0.3367 0.05463 0.0
C1211 C 0.89175 0.34132 0.02884 0.0
H1212 H 0.92413 0.32566 0.1236 0.0
H1213 H 0.93062 0.33847 0.03554 0.0
S1214 S 0.82557 0.33724 0.08133 0.0
N1215 N 0.84033 0.32954 0.1282 0.0
N1216 N 0.84721 0.34313 0.03383 0.0
C1217 C 0.86782 0.33878 0.05501 0.0
C1218 C 0.86423 0.33166 0.10626 0.0
C1219 C 0.67297 0.57935 0.10173 0.0
C1220 C 0.68423 0.56359 0.12502 0.0
C1221 C 0.6651 0.57488 0.05145 0.0
C1222 C 0.66879 0.55493 0.02273 0.0
H1223 H 0.66932 0.59445 0.12284 0.0
H1224 H 0.65581 0.58692 0.03519 0.0
S1225 S 0.70019 0.51042 0.0663 0.0
N1226 N 0.70041 0.52875 0.11555 0.0
N1227 N 0.68626 0.52058 0.02145 0.0
C1228 C 0.68121 0.53997 0.04555 0.0
C1229 C 0.68876 0.54424 0.0966 0.0
C1230 C 0.57707 0.91451 0.93687 0.0
C1231 C 0.55233 0.89324 0.96154 0.0
C1232 C 0.58179 0.91141 0.88655 0.0
C1233 C 0.56153 0.88732 0.85921 0.0
H1234 H 0.59305 0.9334 0.95672 0.0
H1235 H 0.60114 0.92813 0.86881 0.0
S1236 S 0.493 0.8259 0.90661 0.0
N1237 N 0.50731 0.84746 0.95471 0.0
N1238 N 0.51593 0.84183 0.86072 0.0
C1239 C 0.53664 0.8661 0.88354 0.0
C1240 C 0.53209 0.86901 0.93456 0.0
C1241 C 0.12986 0.66076 0.93147 0.0
C1242 C 0.10487 0.65602 0.9567 0.0
C1243 C 0.13409 0.66866 0.8817 0.0
C1244 C 0.11372 0.67261 0.8551 0.0
H1245 H 0.14631 0.65808 0.95016 0.0
H1246 H 0.15375 0.67201 0.86411 0.0
S1247 S 0.04463 0.6631 0.9039 0.0
N1248 N 0.05927 0.6557 0.9515 0.0
N1249 N 0.06754 0.67121 0.85746 0.0
C1250 C 0.08865 0.66816 0.87976 0.0
C1251 C 0.08409 0.6596 0.93062 0.0
C1252 C 0.34175 0.42475 0.93886 0.0
C1253 C 0.33807 0.4445 0.9682 0.0
C1254 C 0.33403 0.42079 0.88853 0.0
C1255 C 0.32295 0.43689 0.86591 0.0
H1256 H 0.35094 0.41251 0.95466 0.0
H1257 H 0.33767 0.40586 0.86687 0.0
S1258 S 0.30698 0.48959 0.92631 0.0
N1259 N 0.3207 0.47892 0.97075 0.0
N1260 N 0.30688 0.47173 0.87648 0.0
C1261 C 0.3184 0.45599 0.89491 0.0
C1262 C 0.32577 0.45974 0.946 0.0
C1263 C 0.12602 0.46169 0.43841 0.0
C1264 C 0.10127 0.44125 0.46397 0.0
C1265 C 0.13008 0.45811 0.38853 0.0
C1266 C 0.10985 0.43364 0.36211 0.0
H1267 H 0.1424 0.48093 0.45698 0.0
H1268 H 0.14956 0.4746 0.37071 0.0
S1269 S 0.04139 0.3735 0.41178 0.0
N1270 N 0.05597 0.39566 0.45927 0.0
N1271 N 0.06405 0.38847 0.36501 0.0
C1272 C 0.08502 0.41279 0.38708 0.0
C1273 C 0.08056 0.41676 0.43808 0.0
C1274 C 0.54239 0.67004 0.38915 0.0
C1275 C 0.56671 0.6736 0.36304 0.0
C1276 C 0.53868 0.66283 0.43925 0.0
C1277 C 0.55885 0.65835 0.46537 0.0
H1278 H 0.52614 0.67324 0.37092 0.0
H1279 H 0.51959 0.66051 0.45756 0.0
S1280 S 0.62605 0.66443 0.41415 0.0
N1281 N 0.61138 0.67204 0.36683 0.0
N1282 N 0.60398 0.6577 0.46149 0.0
C1283 C 0.58315 0.66143 0.43978 0.0
C1284 C 0.58724 0.66936 0.38856 0.0
C1285 C 0.32728 0.90949 0.38157 0.0
C1286 C 0.3236 0.88488 0.35615 0.0
C1287 C 0.33612 0.91428 0.43142 0.0
C1288 C 0.34088 0.89425 0.45763 0.0
H1289 H 0.32373 0.92532 0.36266 0.0
H1290 H 0.33883 0.93351 0.44971 0.0
S1291 S 0.33372 0.82614 0.408 0.0
N1292 N 0.32516 0.84021 0.36115 0.0
N1293 N 0.34142 0.84901 0.45419 0.0
C1294 C 0.33705 0.86951 0.43256 0.0
C1295 C 0.32849 0.86486 0.38201 0.0
loop_
_geom_bond_atom_site_label_1
_geom_bond_atom_site_label_2
_geom_bond_distance
_geom_bond_site_symmetry_2
_ccdc_geom_bond_type
O0 Cd1 2.223 . S
O0 C8 1.315 . S
Cd1 O0 2.223 . S
Cd1 O4 2.297 1_554 S
Cd1 O5 2.439 1_554 S
Cd1 O11 2.240 . S
Cd2 O3 2.240 . S
Cd2 O10 2.223 . S
Cd2 O12 2.297 . S
Cd2 O13 2.439 . S
O3 Cd2 2.240 . S
O3 C8 1.279 . S
O4 Cd1 2.297 1_556 S
O4 C6 1.247 . S
O5 Cd1 2.439 1_556 S
O5 C6 1.208 . S
C6 O4 1.247 . S
C6 O5 1.208 . S
C7 O12 1.247 . S
C7 O13 1.208 . S
C8 O0 1.315 . S
C8 O3 1.279 . S
C9 O10 1.315 . S
C9 O11 1.279 . S
O10 Cd2 2.223 . S
O10 C9 1.315 . S
O11 Cd1 2.240 . S
O11 C9 1.279 . S
O12 Cd2 2.297 . S
O12 C7 1.247 . S
O13 Cd2 2.439 . S
O13 C7 1.208 . S
O14 Cd15 2.223 . S
O14 C22 1.315 . S
Cd15 O14 2.223 . S
Cd15 O18 2.297 1_554 S
Cd15 O19 2.439 1_554 S
Cd15 O25 2.240 1_545 S
Cd16 O17 2.240 1_565 S
Cd16 O24 2.223 1_565 S
Cd16 O26 2.297 . S
Cd16 O27 2.439 . S
O17 Cd16 2.240 1_545 S
O17 C22 1.279 . S
O18 Cd15 2.297 1_556 S
O18 C20 1.247 . S
O19 Cd15 2.439 1_556 S
O19 C20 1.208 . S
C20 O18 1.247 . S
C20 O19 1.208 . S
C21 O26 1.247 . S
C21 O27 1.208 . S
C22 O14 1.315 . S
C22 O17 1.279 . S
C23 O24 1.315 . S
C23 O25 1.279 1_545 S
O24 Cd16 2.223 1_545 S
O24 C23 1.315 . S
O25 Cd15 2.240 1_565 S
O25 C23 1.279 1_565 S
O26 Cd16 2.297 . S
O26 C21 1.247 . S
O27 Cd16 2.439 . S
O27 C21 1.208 . S
O28 Cd29 2.223 . S
O28 C36 1.315 . S
Cd29 O28 2.223 . S
Cd29 O32 2.297 1_554 S
Cd29 O33 2.439 1_554 S
Cd29 O39 2.240 1_655 S
Cd30 O31 2.240 1_455 S
Cd30 O38 2.223 1_455 S
Cd30 O40 2.297 . S
Cd30 O41 2.439 . S
O31 Cd30 2.240 1_655 S
O31 C36 1.279 . S
O32 Cd29 2.297 1_556 S
O32 C34 1.247 . S
O33 Cd29 2.439 1_556 S
O33 C34 1.208 . S
C34 O32 1.247 . S
C34 O33 1.208 . S
C35 O40 1.247 . S
C35 O41 1.208 . S
C36 O28 1.315 . S
C36 O31 1.279 . S
C37 O38 1.315 . S
C37 O39 1.279 1_655 S
O38 Cd30 2.223 1_655 S
O38 C37 1.315 . S
O39 Cd29 2.240 1_455 S
O39 C37 1.279 1_455 S
O40 Cd30 2.297 . S
O40 C35 1.247 . S
O41 Cd30 2.439 . S
O41 C35 1.208 . S
O42 Cd43 2.223 . S
O42 C50 1.315 . S
Cd43 O42 2.223 . S
Cd43 O46 2.297 . S
Cd43 O47 2.439 . S
Cd43 O53 2.240 . S
Cd44 O45 2.240 . S
Cd44 O52 2.223 . S
Cd44 O54 2.297 . S
Cd44 O55 2.439 . S
O45 Cd44 2.240 . S
O45 C50 1.279 . S
O46 Cd43 2.297 . S
O46 C48 1.247 . S
O47 Cd43 2.439 . S
O47 C48 1.208 . S
C48 O46 1.247 . S
C48 O47 1.208 . S
C49 O54 1.247 . S
C49 O55 1.208 . S
C50 O42 1.315 . S
C50 O45 1.279 . S
C51 O52 1.315 . S
C51 O53 1.279 . S
O52 Cd44 2.223 . S
O52 C51 1.315 . S
O53 Cd43 2.240 . S
O53 C51 1.279 . S
O54 Cd44 2.297 . S
O54 C49 1.247 . S
O55 Cd44 2.439 . S
O55 C49 1.208 . S
O56 Cd57 2.223 . S
O56 C64 1.315 . S
Cd57 O56 2.223 . S
Cd57 O60 2.297 . S
Cd57 O61 2.439 . S
Cd57 O67 2.240 1_565 S
Cd58 O59 2.240 1_545 S
Cd58 O66 2.223 1_545 S
Cd58 O68 2.297 . S
Cd58 O69 2.439 . S
O59 Cd58 2.240 1_565 S
O59 C64 1.279 . S
O60 Cd57 2.297 . S
O60 C62 1.247 . S
O61 Cd57 2.439 . S
O61 C62 1.208 . S
C62 O60 1.247 . S
C62 O61 1.208 . S
C63 O68 1.247 . S
C63 O69 1.208 . S
C64 O56 1.315 . S
C64 O59 1.279 . S
C65 O66 1.315 . S
C65 O67 1.279 1_565 S
O66 Cd58 2.223 1_565 S
O66 C65 1.315 . S
O67 Cd57 2.240 1_545 S
O67 C65 1.279 1_545 S
O68 Cd58 2.297 . S
O68 C63 1.247 . S
O69 Cd58 2.439 . S
O69 C63 1.208 . S
O70 Cd71 2.223 . S
O70 C78 1.315 . S
Cd71 O70 2.223 . S
Cd71 O74 2.297 . S
Cd71 O75 2.439 . S
Cd71 O81 2.240 1_455 S
Cd72 O73 2.240 1_655 S
Cd72 O80 2.223 1_655 S
Cd72 O82 2.297 . S
Cd72 O83 2.439 . S
O73 Cd72 2.240 1_455 S
O73 C78 1.279 . S
O74 Cd71 2.297 . S
O74 C76 1.247 . S
O75 Cd71 2.439 . S
O75 C76 1.208 . S
C76 O74 1.247 . S
C76 O75 1.208 . S
C77 O82 1.247 . S
C77 O83 1.208 . S
C78 O70 1.315 . S
C78 O73 1.279 . S
C79 O80 1.315 . S
C79 O81 1.279 1_455 S
O80 Cd72 2.223 1_455 S
O80 C79 1.315 . S
O81 Cd71 2.240 1_655 S
O81 C79 1.279 1_655 S
O82 Cd72 2.297 . S
O82 C77 1.247 . S
O83 Cd72 2.439 . S
O83 C77 1.208 . S
O84 Cd85 2.223 . S
O84 C92 1.315 . S
Cd85 O84 2.223 . S
Cd85 O88 2.297 1_556 S
Cd85 O89 2.439 1_556 S
Cd85 O95 2.240 . S
Cd86 O87 2.240 . S
Cd86 O94 2.223 . S
Cd86 O96 2.297 . S
Cd86 O97 2.439 . S
O87 Cd86 2.240 . S
O87 C92 1.279 . S
O88 Cd85 2.297 1_554 S
O88 C90 1.247 . S
O89 Cd85 2.439 1_554 S
O89 C90 1.208 . S
C90 O88 1.247 . S
C90 O89 1.208 . S
C91 O96 1.247 . S
C91 O97 1.208 . S
C92 O84 1.315 . S
C92 O87 1.279 . S
C93 O94 1.315 . S
C93 O95 1.279 . S
O94 Cd86 2.223 . S
O94 C93 1.315 . S
O95 Cd85 2.240 . S
O95 C93 1.279 . S
O96 Cd86 2.297 . S
O96 C91 1.247 . S
O97 Cd86 2.439 . S
O97 C91 1.208 . S
O98 Cd99 2.223 . S
O98 C106 1.315 . S
Cd99 O98 2.223 . S
Cd99 O102 2.297 1_556 S
Cd99 O103 2.439 1_556 S
Cd99 O109 2.240 1_565 S
Cd100 O101 2.240 1_545 S
Cd100 O108 2.223 1_545 S
Cd100 O110 2.297 . S
Cd100 O111 2.439 . S
O101 Cd100 2.240 1_565 S
O101 C106 1.279 . S
O102 Cd99 2.297 1_554 S
O102 C104 1.247 . S
O103 Cd99 2.439 1_554 S
O103 C104 1.208 . S
C104 O102 1.247 . S
C104 O103 1.208 . S
C105 O110 1.247 . S
C105 O111 1.208 . S
C106 O98 1.315 . S
C106 O101 1.279 . S
C107 O108 1.315 . S
C107 O109 1.279 1_565 S
O108 Cd100 2.223 1_565 S
O108 C107 1.315 . S
O109 Cd99 2.240 1_545 S
O109 C107 1.279 1_545 S
O110 Cd100 2.297 . S
O110 C105 1.247 . S
O111 Cd100 2.439 . S
O111 C105 1.208 . S
O112 Cd113 2.223 . S
O112 C120 1.315 . S
Cd113 O112 2.223 . S
Cd113 O116 2.297 1_556 S
Cd113 O117 2.439 1_556 S
Cd113 O123 2.240 1_455 S
Cd114 O115 2.240 1_655 S
Cd114 O122 2.223 1_655 S
Cd114 O124 2.297 . S
Cd114 O125 2.439 . S
O115 Cd114 2.240 1_455 S
O115 C120 1.279 . S
O116 Cd113 2.297 1_554 S
O116 C118 1.247 . S
O117 Cd113 2.439 1_554 S
O117 C118 1.208 . S
C118 O116 1.247 . S
C118 O117 1.208 . S
C119 O124 1.247 . S
C119 O125 1.208 . S
C120 O112 1.315 . S
C120 O115 1.279 . S
C121 O122 1.315 . S
C121 O123 1.279 1_455 S
O122 Cd114 2.223 1_455 S
O122 C121 1.315 . S
O123 Cd113 2.240 1_655 S
O123 C121 1.279 1_655 S
O124 Cd114 2.297 . S
O124 C119 1.247 . S
O125 Cd114 2.439 . S
O125 C119 1.208 . S
O126 Cd127 2.223 . S
O126 C134 1.315 . S
Cd127 O126 2.223 . S
Cd127 O130 2.297 . S
Cd127 O131 2.439 . S
Cd127 O137 2.240 . S
Cd128 O129 2.240 . S
Cd128 O136 2.223 . S
Cd128 O138 2.297 . S
Cd128 O139 2.439 . S
O129 Cd128 2.240 . S
O129 C134 1.279 . S
O130 Cd127 2.297 . S
O130 C132 1.247 . S
O131 Cd127 2.439 . S
O131 C132 1.208 . S
C132 O130 1.247 . S
C132 O131 1.208 . S
C133 O138 1.247 . S
C133 O139 1.208 . S
C134 O126 1.315 . S
C134 O129 1.279 . S
C135 O136 1.315 . S
C135 O137 1.279 . S
O136 Cd128 2.223 . S
O136 C135 1.315 . S
O137 Cd127 2.240 . S
O137 C135 1.279 . S
O138 Cd128 2.297 . S
O138 C133 1.247 . S
O139 Cd128 2.439 . S
O139 C133 1.208 . S
O140 Cd141 2.223 . S
O140 C148 1.315 . S
Cd141 O140 2.223 . S
Cd141 O144 2.297 . S
Cd141 O145 2.439 . S
Cd141 O151 2.240 1_545 S
Cd142 O143 2.240 1_565 S
Cd142 O150 2.223 1_565 S
Cd142 O152 2.297 . S
Cd142 O153 2.439 . S
O143 Cd142 2.240 1_545 S
O143 C148 1.279 . S
O144 Cd141 2.297 . S
O144 C146 1.247 . S
O145 Cd141 2.439 . S
O145 C146 1.208 . S
C146 O144 1.247 . S
C146 O145 1.208 . S
C147 O152 1.247 . S
C147 O153 1.208 . S
C148 O140 1.315 . S
C148 O143 1.279 . S
C149 O150 1.315 . S
C149 O151 1.279 1_545 S
O150 Cd142 2.223 1_545 S
O150 C149 1.315 . S
O151 Cd141 2.240 1_565 S
O151 C149 1.279 1_565 S
O152 Cd142 2.297 . S
O152 C147 1.247 . S
O153 Cd142 2.439 . S
O153 C147 1.208 . S
O154 Cd155 2.223 . S
O154 C162 1.315 . S
Cd155 O154 2.223 . S
Cd155 O158 2.297 . S
Cd155 O159 2.439 . S
Cd155 O165 2.240 1_655 S
Cd156 O157 2.240 1_455 S
Cd156 O164 2.223 1_455 S
Cd156 O166 2.297 . S
Cd156 O167 2.439 . S
O157 Cd156 2.240 1_655 S
O157 C162 1.279 . S
O158 Cd155 2.297 . S
O158 C160 1.247 . S
O159 Cd155 2.439 . S
O159 C160 1.208 . S
C160 O158 1.247 . S
C160 O159 1.208 . S
C161 O166 1.247 . S
C161 O167 1.208 . S
C162 O154 1.315 . S
C162 O157 1.279 . S
C163 O164 1.315 . S
C163 O165 1.279 1_655 S
O164 Cd156 2.223 1_655 S
O164 C163 1.315 . S
O165 Cd155 2.240 1_455 S
O165 C163 1.279 1_455 S
O166 Cd156 2.297 . S
O166 C161 1.247 . S
O167 Cd156 2.439 . S
O167 C161 1.208 . S
O168 Cd169 2.223 . S
O168 C176 1.315 . S
Cd169 O168 2.223 . S
Cd169 O172 2.297 . S
Cd169 O173 2.439 . S
Cd169 O179 2.240 . S
Cd170 O171 2.240 . S
Cd170 O178 2.223 . S
Cd170 O180 2.297 . S
Cd170 O181 2.439 . S
O171 Cd170 2.240 . S
O171 C176 1.279 . S
O172 Cd169 2.297 . S
O172 C174 1.247 . S
O173 Cd169 2.439 . S
O173 C174 1.208 . S
C174 O172 1.247 . S
C174 O173 1.208 . S
C175 O180 1.247 . S
C175 O181 1.208 . S
C176 O168 1.315 . S
C176 O171 1.279 . S
C177 O178 1.315 . S
C177 O179 1.279 . S
O178 Cd170 2.223 . S
O178 C177 1.315 . S
O179 Cd169 2.240 . S
O179 C177 1.279 . S
O180 Cd170 2.297 . S
O180 C175 1.247 . S
O181 Cd170 2.439 . S
O181 C175 1.208 . S
O182 Cd183 2.223 . S
O182 C190 1.315 . S
Cd183 O182 2.223 . S
Cd183 O186 2.297 . S
Cd183 O187 2.439 . S
Cd183 O193 2.240 . S
Cd184 O185 2.240 . S
Cd184 O192 2.223 . S
Cd184 O194 2.297 . S
Cd184 O195 2.439 . S
O185 Cd184 2.240 . S
O185 C190 1.279 . S
O186 Cd183 2.297 . S
O186 C188 1.247 . S
O187 Cd183 2.439 . S
O187 C188 1.208 . S
C188 O186 1.247 . S
C188 O187 1.208 . S
C189 O194 1.247 . S
C189 O195 1.208 . S
C190 O182 1.315 . S
C190 O185 1.279 . S
C191 O192 1.315 . S
C191 O193 1.279 . S
O192 Cd184 2.223 . S
O192 C191 1.315 . S
O193 Cd183 2.240 . S
O193 C191 1.279 . S
O194 Cd184 2.297 . S
O194 C189 1.247 . S
O195 Cd184 2.439 . S
O195 C189 1.208 . S
O196 Cd197 2.223 . S
O196 C204 1.315 . S
Cd197 O196 2.223 . S
Cd197 O200 2.297 . S
Cd197 O201 2.439 . S
Cd197 O207 2.240 . S
Cd198 O199 2.240 . S
Cd198 O206 2.223 . S
Cd198 O208 2.297 . S
Cd198 O209 2.439 . S
O199 Cd198 2.240 . S
O199 C204 1.279 . S
O200 Cd197 2.297 . S
O200 C202 1.247 . S
O201 Cd197 2.439 . S
O201 C202 1.208 . S
C202 O200 1.247 . S
C202 O201 1.208 . S
C203 O208 1.247 . S
C203 O209 1.208 . S
C204 O196 1.315 . S
C204 O199 1.279 . S
C205 O206 1.315 . S
C205 O207 1.279 . S
O206 Cd198 2.223 . S
O206 C205 1.315 . S
O207 Cd197 2.240 . S
O207 C205 1.279 . S
O208 Cd198 2.297 . S
O208 C203 1.247 . S
O209 Cd198 2.439 . S
O209 C203 1.208 . S
O210 Cd211 2.223 . S
O210 C218 1.315 . S
Cd211 O210 2.223 . S
Cd211 O214 2.297 . S
Cd211 O215 2.439 . S
Cd211 O221 2.240 . S
Cd212 O213 2.240 . S
Cd212 O220 2.223 . S
Cd212 O222 2.297 . S
Cd212 O223 2.439 . S
O213 Cd212 2.240 . S
O213 C218 1.279 . S
O214 Cd211 2.297 . S
O214 C216 1.247 . S
O215 Cd211 2.439 . S
O215 C216 1.208 . S
C216 O214 1.247 . S
C216 O215 1.208 . S
C217 O222 1.247 . S
C217 O223 1.208 . S
C218 O210 1.315 . S
C218 O213 1.279 . S
C219 O220 1.315 . S
C219 O221 1.279 . S
O220 Cd212 2.223 . S
O220 C219 1.315 . S
O221 Cd211 2.240 . S
O221 C219 1.279 . S
O222 Cd212 2.297 . S
O222 C217 1.247 . S
O223 Cd212 2.439 . S
O223 C217 1.208 . S
O224 Cd225 2.223 . S
O224 C232 1.315 . S
Cd225 O224 2.223 . S
Cd225 O228 2.297 . S
Cd225 O229 2.439 . S
Cd225 O235 2.240 . S
Cd226 O227 2.240 . S
Cd226 O234 2.223 . S
Cd226 O236 2.297 . S
Cd226 O237 2.439 . S
O227 Cd226 2.240 . S
O227 C232 1.279 . S
O228 Cd225 2.297 . S
O228 C230 1.247 . S
O229 Cd225 2.439 . S
O229 C230 1.208 . S
C230 O228 1.247 . S
C230 O229 1.208 . S
C231 O236 1.247 . S
C231 O237 1.208 . S
C232 O224 1.315 . S
C232 O227 1.279 . S
C233 O234 1.315 . S
C233 O235 1.279 . S
O234 Cd226 2.223 . S
O234 C233 1.315 . S
O235 Cd225 2.240 . S
O235 C233 1.279 . S
O236 Cd226 2.297 . S
O236 C231 1.247 . S
O237 Cd226 2.439 . S
O237 C231 1.208 . S
O238 Cd239 2.223 . S
O238 C246 1.315 . S
Cd239 O238 2.223 . S
Cd239 O242 2.297 . S
Cd239 O243 2.439 . S
Cd239 O249 2.240 . S
Cd240 O241 2.240 . S
Cd240 O248 2.223 . S
Cd240 O250 2.297 . S
Cd240 O251 2.439 . S
O241 Cd240 2.240 . S
O241 C246 1.279 . S
O242 Cd239 2.297 . S
O242 C244 1.247 . S
O243 Cd239 2.439 . S
O243 C244 1.208 . S
C244 O242 1.247 . S
C244 O243 1.208 . S
C245 O250 1.247 . S
C245 O251 1.208 . S
C246 O238 1.315 . S
C246 O241 1.279 . S
C247 O248 1.315 . S
C247 O249 1.279 . S
O248 Cd240 2.223 . S
O248 C247 1.315 . S
O249 Cd239 2.240 . S
O249 C247 1.279 . S
O250 Cd240 2.297 . S
O250 C245 1.247 . S
O251 Cd240 2.439 . S
O251 C245 1.208 . S
O252 Cd253 2.223 . S
O252 C260 1.315 . S
Cd253 O252 2.223 . S
Cd253 O256 2.297 . S
Cd253 O257 2.439 . S
Cd253 O263 2.240 . S
Cd254 O255 2.240 . S
Cd254 O262 2.223 . S
Cd254 O264 2.297 . S
Cd254 O265 2.439 . S
O255 Cd254 2.240 . S
O255 C260 1.279 . S
O256 Cd253 2.297 . S
O256 C258 1.247 . S
O257 Cd253 2.439 . S
O257 C258 1.208 . S
C258 O256 1.247 . S
C258 O257 1.208 . S
C259 O264 1.247 . S
C259 O265 1.208 . S
C260 O252 1.315 . S
C260 O255 1.279 . S
C261 O262 1.315 . S
C261 O263 1.279 . S
O262 Cd254 2.223 . S
O262 C261 1.315 . S
O263 Cd253 2.240 . S
O263 C261 1.279 . S
O264 Cd254 2.297 . S
O264 C259 1.247 . S
O265 Cd254 2.439 . S
O265 C259 1.208 . S
O266 Cd267 2.223 . S
O266 C274 1.315 . S
Cd267 O266 2.223 . S
Cd267 O270 2.297 . S
Cd267 O271 2.439 . S
Cd267 O277 2.240 . S
Cd268 O269 2.240 . S
Cd268 O276 2.223 . S
Cd268 O278 2.297 . S
Cd268 O279 2.439 . S
O269 Cd268 2.240 . S
O269 C274 1.279 . S
O270 Cd267 2.297 . S
O270 C272 1.247 . S
O271 Cd267 2.439 . S
O271 C272 1.208 . S
C272 O270 1.247 . S
C272 O271 1.208 . S
C273 O278 1.247 . S
C273 O279 1.208 . S
C274 O266 1.315 . S
C274 O269 1.279 . S
C275 O276 1.315 . S
C275 O277 1.279 . S
O276 Cd268 2.223 . S
O276 C275 1.315 . S
O277 Cd267 2.240 . S
O277 C275 1.279 . S
O278 Cd268 2.297 . S
O278 C273 1.247 . S
O279 Cd268 2.439 . S
O279 C273 1.208 . S
O280 Cd281 2.223 . S
O280 C288 1.315 . S
Cd281 O280 2.223 . S
Cd281 O284 2.297 . S
Cd281 O285 2.439 . S
Cd281 O291 2.240 . S
Cd282 O283 2.240 . S
Cd282 O290 2.223 . S
Cd282 O292 2.297 . S
Cd282 O293 2.439 . S
O283 Cd282 2.240 . S
O283 C288 1.279 . S
O284 Cd281 2.297 . S
O284 C286 1.247 . S
O285 Cd281 2.439 . S
O285 C286 1.208 . S
C286 O284 1.247 . S
C286 O285 1.208 . S
C287 O292 1.247 . S
C287 O293 1.208 . S
C288 O280 1.315 . S
C288 O283 1.279 . S
C289 O290 1.315 . S
C289 O291 1.279 . S
O290 Cd282 2.223 . S
O290 C289 1.315 . S
O291 Cd281 2.240 . S
O291 C289 1.279 . S
O292 Cd282 2.297 . S
O292 C287 1.247 . S
O293 Cd282 2.439 . S
O293 C287 1.208 . S
O294 Cd295 2.223 . S
O294 C302 1.315 . S
Cd295 O294 2.223 . S
Cd295 O298 2.297 . S
Cd295 O299 2.439 . S
Cd295 O305 2.240 . S
Cd296 O297 2.240 . S
Cd296 O304 2.223 . S
Cd296 O306 2.297 . S
Cd296 O307 2.439 . S
O297 Cd296 2.240 . S
O297 C302 1.279 . S
O298 Cd295 2.297 . S
O298 C300 1.247 . S
O299 Cd295 2.439 . S
O299 C300 1.208 . S
C300 O298 1.247 . S
C300 O299 1.208 . S
C301 O306 1.247 . S
C301 O307 1.208 . S
C302 O294 1.315 . S
C302 O297 1.279 . S
C303 O304 1.315 . S
C303 O305 1.279 . S
O304 Cd296 2.223 . S
O304 C303 1.315 . S
O305 Cd295 2.240 . S
O305 C303 1.279 . S
O306 Cd296 2.297 . S
O306 C301 1.247 . S
O307 Cd296 2.439 . S
O307 C301 1.208 . S
O308 Cd309 2.223 . S
O308 C316 1.315 . S
Cd309 O308 2.223 . S
Cd309 O312 2.297 . S
Cd309 O313 2.439 . S
Cd309 O319 2.240 . S
Cd310 O311 2.240 . S
Cd310 O318 2.223 . S
Cd310 O320 2.297 . S
Cd310 O321 2.439 . S
O311 Cd310 2.240 . S
O311 C316 1.279 . S
O312 Cd309 2.297 . S
O312 C314 1.247 . S
O313 Cd309 2.439 . S
O313 C314 1.208 . S
C314 O312 1.247 . S
C314 O313 1.208 . S
C315 O320 1.247 . S
C315 O321 1.208 . S
C316 O308 1.315 . S
C316 O311 1.279 . S
C317 O318 1.315 . S
C317 O319 1.279 . S
O318 Cd310 2.223 . S
O318 C317 1.315 . S
O319 Cd309 2.240 . S
O319 C317 1.279 . S
O320 Cd310 2.297 . S
O320 C315 1.247 . S
O321 Cd310 2.439 . S
O321 C315 1.208 . S
O322 Cd323 2.223 . S
O322 C330 1.315 . S
Cd323 O322 2.223 . S
Cd323 O326 2.297 . S
Cd323 O327 2.439 . S
Cd323 O333 2.240 . S
Cd324 O325 2.240 . S
Cd324 O332 2.223 . S
Cd324 O334 2.297 . S
Cd324 O335 2.439 . S
O325 Cd324 2.240 . S
O325 C330 1.279 . S
O326 Cd323 2.297 . S
O326 C328 1.247 . S
O327 Cd323 2.439 . S
O327 C328 1.208 . S
C328 O326 1.247 . S
C328 O327 1.208 . S
C329 O334 1.247 . S
C329 O335 1.208 . S
C330 O322 1.315 . S
C330 O325 1.279 . S
C331 O332 1.315 . S
C331 O333 1.279 . S
O332 Cd324 2.223 . S
O332 C331 1.315 . S
O333 Cd323 2.240 . S
O333 C331 1.279 . S
O334 Cd324 2.297 . S
O334 C329 1.247 . S
O335 Cd324 2.439 . S
O335 C329 1.208 . S
O336 Cd337 2.223 . S
O336 C344 1.315 . S
Cd337 O336 2.223 . S
Cd337 O340 2.297 . S
Cd337 O341 2.439 . S
Cd337 O347 2.240 . S
Cd338 O339 2.240 . S
Cd338 O346 2.223 . S
Cd338 O348 2.297 . S
Cd338 O349 2.439 . S
O339 Cd338 2.240 . S
O339 C344 1.279 . S
O340 Cd337 2.297 . S
O340 C342 1.247 . S
O341 Cd337 2.439 . S
O341 C342 1.208 . S
C342 O340 1.247 . S
C342 O341 1.208 . S
C343 O348 1.247 . S
C343 O349 1.208 . S
C344 O336 1.315 . S
C344 O339 1.279 . S
C345 O346 1.315 . S
C345 O347 1.279 . S
O346 Cd338 2.223 . S
O346 C345 1.315 . S
O347 Cd337 2.240 . S
O347 C345 1.279 . S
O348 Cd338 2.297 . S
O348 C343 1.247 . S
O349 Cd338 2.439 . S
O349 C343 1.208 . S
O350 Cd351 2.223 . S
O350 C358 1.315 . S
Cd351 O350 2.223 . S
Cd351 O354 2.297 . S
Cd351 O355 2.439 . S
Cd351 O361 2.240 . S
Cd352 O353 2.240 . S
Cd352 O360 2.223 . S
Cd352 O362 2.297 . S
Cd352 O363 2.439 . S
O353 Cd352 2.240 . S
O353 C358 1.279 . S
O354 Cd351 2.297 . S
O354 C356 1.247 . S
O355 Cd351 2.439 . S
O355 C356 1.208 . S
C356 O354 1.247 . S
C356 O355 1.208 . S
C357 O362 1.247 . S
C357 O363 1.208 . S
C358 O350 1.315 . S
C358 O353 1.279 . S
C359 O360 1.315 . S
C359 O361 1.279 . S
O360 Cd352 2.223 . S
O360 C359 1.315 . S
O361 Cd351 2.240 . S
O361 C359 1.279 . S
O362 Cd352 2.297 . S
O362 C357 1.247 . S
O363 Cd352 2.439 . S
O363 C357 1.208 . S
O364 Cd365 2.223 . S
O364 C372 1.315 . S
Cd365 O364 2.223 . S
Cd365 O368 2.297 . S
Cd365 O369 2.439 . S
Cd365 O375 2.240 . S
Cd366 O367 2.240 . S
Cd366 O374 2.223 . S
Cd366 O376 2.297 . S
Cd366 O377 2.439 . S
O367 Cd366 2.240 . S
O367 C372 1.279 . S
O368 Cd365 2.297 . S
O368 C370 1.247 . S
O369 Cd365 2.439 . S
O369 C370 1.208 . S
C370 O368 1.247 . S
C370 O369 1.208 . S
C371 O376 1.247 . S
C371 O377 1.208 . S
C372 O364 1.315 . S
C372 O367 1.279 . S
C373 O374 1.315 . S
C373 O375 1.279 . S
O374 Cd366 2.223 . S
O374 C373 1.315 . S
O375 Cd365 2.240 . S
O375 C373 1.279 . S
O376 Cd366 2.297 . S
O376 C371 1.247 . S
O377 Cd366 2.439 . S
O377 C371 1.208 . S
O378 Cd379 2.223 . S
O378 C386 1.315 . S
Cd379 O378 2.223 . S
Cd379 O382 2.297 . S
Cd379 O383 2.439 . S
Cd379 O389 2.240 . S
Cd380 O381 2.240 . S
Cd380 O388 2.223 . S
Cd380 O390 2.297 . S
Cd380 O391 2.439 . S
O381 Cd380 2.240 . S
O381 C386 1.279 . S
O382 Cd379 2.297 . S
O382 C384 1.247 . S
O383 Cd379 2.439 . S
O383 C384 1.208 . S
C384 O382 1.247 . S
C384 O383 1.208 . S
C385 O390 1.247 . S
C385 O391 1.208 . S
C386 O378 1.315 . S
C386 O381 1.279 . S
C387 O388 1.315 . S
C387 O389 1.279 . S
O388 Cd380 2.223 . S
O388 C387 1.315 . S
O389 Cd379 2.240 . S
O389 C387 1.279 . S
O390 Cd380 2.297 . S
O390 C385 1.247 . S
O391 Cd380 2.439 . S
O391 C385 1.208 . S
O392 Cd393 2.223 . S
O392 C400 1.315 . S
Cd393 O392 2.223 . S
Cd393 O396 2.297 . S
Cd393 O397 2.439 . S
Cd393 O403 2.240 . S
Cd394 O395 2.240 . S
Cd394 O402 2.223 . S
Cd394 O404 2.297 . S
Cd394 O405 2.439 . S
O395 Cd394 2.240 . S
O395 C400 1.279 . S
O396 Cd393 2.297 . S
O396 C398 1.247 . S
O397 Cd393 2.439 . S
O397 C398 1.208 . S
C398 O396 1.247 . S
C398 O397 1.208 . S
C399 O404 1.247 . S
C399 O405 1.208 . S
C400 O392 1.315 . S
C400 O395 1.279 . S
C401 O402 1.315 . S
C401 O403 1.279 . S
O402 Cd394 2.223 . S
O402 C401 1.315 . S
O403 Cd393 2.240 . S
O403 C401 1.279 . S
O404 Cd394 2.297 . S
O404 C399 1.247 . S
O405 Cd394 2.439 . S
O405 C399 1.208 . S
O406 Cd407 2.223 . S
O406 C414 1.315 . S
Cd407 O406 2.223 . S
Cd407 O410 2.297 . S
Cd407 O411 2.439 . S
Cd407 O417 2.240 . S
Cd408 O409 2.240 . S
Cd408 O416 2.223 . S
Cd408 O418 2.297 . S
Cd408 O419 2.439 . S
O409 Cd408 2.240 . S
O409 C414 1.279 . S
O410 Cd407 2.297 . S
O410 C412 1.247 . S
O411 Cd407 2.439 . S
O411 C412 1.208 . S
C412 O410 1.247 . S
C412 O411 1.208 . S
C413 O418 1.247 . S
C413 O419 1.208 . S
C414 O406 1.315 . S
C414 O409 1.279 . S
C415 O416 1.315 . S
C415 O417 1.279 . S
O416 Cd408 2.223 . S
O416 C415 1.315 . S
O417 Cd407 2.240 . S
O417 C415 1.279 . S
O418 Cd408 2.297 . S
O418 C413 1.247 . S
O419 Cd408 2.439 . S
O419 C413 1.208 . S
O420 Cd421 2.223 . S
O420 C428 1.315 . S
Cd421 O420 2.223 . S
Cd421 O424 2.297 . S
Cd421 O425 2.439 . S
Cd421 O431 2.240 . S
Cd422 O423 2.240 . S
Cd422 O430 2.223 . S
Cd422 O432 2.297 . S
Cd422 O433 2.439 . S
O423 Cd422 2.240 . S
O423 C428 1.279 . S
O424 Cd421 2.297 . S
O424 C426 1.247 . S
O425 Cd421 2.439 . S
O425 C426 1.208 . S
C426 O424 1.247 . S
C426 O425 1.208 . S
C427 O432 1.247 . S
C427 O433 1.208 . S
C428 O420 1.315 . S
C428 O423 1.279 . S
C429 O430 1.315 . S
C429 O431 1.279 . S
O430 Cd422 2.223 . S
O430 C429 1.315 . S
O431 Cd421 2.240 . S
O431 C429 1.279 . S
O432 Cd422 2.297 . S
O432 C427 1.247 . S
O433 Cd422 2.439 . S
O433 C427 1.208 . S
O434 Cd435 2.223 . S
O434 C442 1.315 . S
Cd435 O434 2.223 . S
Cd435 O438 2.297 . S
Cd435 O439 2.439 . S
Cd435 O445 2.240 . S
Cd436 O437 2.240 . S
Cd436 O444 2.223 . S
Cd436 O446 2.297 . S
Cd436 O447 2.439 . S
O437 Cd436 2.240 . S
O437 C442 1.279 . S
O438 Cd435 2.297 . S
O438 C440 1.247 . S
O439 Cd435 2.439 . S
O439 C440 1.208 . S
C440 O438 1.247 . S
C440 O439 1.208 . S
C441 O446 1.247 . S
C441 O447 1.208 . S
C442 O434 1.315 . S
C442 O437 1.279 . S
C443 O444 1.315 . S
C443 O445 1.279 . S
O444 Cd436 2.223 . S
O444 C443 1.315 . S
O445 Cd435 2.240 . S
O445 C443 1.279 . S
O446 Cd436 2.297 . S
O446 C441 1.247 . S
O447 Cd436 2.439 . S
O447 C441 1.208 . S
O448 Cd449 2.223 . S
O448 C456 1.315 . S
Cd449 O448 2.223 . S
Cd449 O452 2.297 . S
Cd449 O453 2.439 . S
Cd449 O459 2.240 . S
Cd450 O451 2.240 . S
Cd450 O458 2.223 . S
Cd450 O460 2.297 . S
Cd450 O461 2.439 . S
O451 Cd450 2.240 . S
O451 C456 1.279 . S
O452 Cd449 2.297 . S
O452 C454 1.247 . S
O453 Cd449 2.439 . S
O453 C454 1.208 . S
C454 O452 1.247 . S
C454 O453 1.208 . S
C455 O460 1.247 . S
C455 O461 1.208 . S
C456 O448 1.315 . S
C456 O451 1.279 . S
C457 O458 1.315 . S
C457 O459 1.279 . S
O458 Cd450 2.223 . S
O458 C457 1.315 . S
O459 Cd449 2.240 . S
O459 C457 1.279 . S
O460 Cd450 2.297 . S
O460 C455 1.247 . S
O461 Cd450 2.439 . S
O461 C455 1.208 . S
O462 Cd463 2.223 . S
O462 C470 1.315 . S
Cd463 O462 2.223 . S
Cd463 O466 2.297 . S
Cd463 O467 2.439 . S
Cd463 O473 2.240 . S
Cd464 O465 2.240 . S
Cd464 O472 2.223 . S
Cd464 O474 2.297 . S
Cd464 O475 2.439 . S
O465 Cd464 2.240 . S
O465 C470 1.279 . S
O466 Cd463 2.297 . S
O466 C468 1.247 . S
O467 Cd463 2.439 . S
O467 C468 1.208 . S
C468 O466 1.247 . S
C468 O467 1.208 . S
C469 O474 1.247 . S
C469 O475 1.208 . S
C470 O462 1.315 . S
C470 O465 1.279 . S
C471 O472 1.315 . S
C471 O473 1.279 . S
O472 Cd464 2.223 . S
O472 C471 1.315 . S
O473 Cd463 2.240 . S
O473 C471 1.279 . S
O474 Cd464 2.297 . S
O474 C469 1.247 . S
O475 Cd464 2.439 . S
O475 C469 1.208 . S
O476 Cd477 2.223 . S
O476 C484 1.315 . S
Cd477 O476 2.223 . S
Cd477 O480 2.297 . S
Cd477 O481 2.439 . S
Cd477 O487 2.240 . S
Cd478 O479 2.240 . S
Cd478 O486 2.223 . S
Cd478 O488 2.297 . S
Cd478 O489 2.439 . S
O479 Cd478 2.240 . S
O479 C484 1.279 . S
O480 Cd477 2.297 . S
O480 C482 1.247 . S
O481 Cd477 2.439 . S
O481 C482 1.208 . S
C482 O480 1.247 . S
C482 O481 1.208 . S
C483 O488 1.247 . S
C483 O489 1.208 . S
C484 O476 1.315 . S
C484 O479 1.279 . S
C485 O486 1.315 . S
C485 O487 1.279 . S
O486 Cd478 2.223 . S
O486 C485 1.315 . S
O487 Cd477 2.240 . S
O487 C485 1.279 . S
O488 Cd478 2.297 . S
O488 C483 1.247 . S
O489 Cd478 2.439 . S
O489 C483 1.208 . S
O490 Cd491 2.223 . S
O490 C498 1.315 . S
Cd491 O490 2.223 . S
Cd491 O494 2.297 . S
Cd491 O495 2.439 . S
Cd491 O501 2.240 . S
Cd492 O493 2.240 . S
Cd492 O500 2.223 . S
Cd492 O502 2.297 . S
Cd492 O503 2.439 . S
O493 Cd492 2.240 . S
O493 C498 1.279 . S
O494 Cd491 2.297 . S
O494 C496 1.247 . S
O495 Cd491 2.439 . S
O495 C496 1.208 . S
C496 O494 1.247 . S
C496 O495 1.208 . S
C497 O502 1.247 . S
C497 O503 1.208 . S
C498 O490 1.315 . S
C498 O493 1.279 . S
C499 O500 1.315 . S
C499 O501 1.279 . S
O500 Cd492 2.223 . S
O500 C499 1.315 . S
O501 Cd491 2.240 . S
O501 C499 1.279 . S
O502 Cd492 2.297 . S
O502 C497 1.247 . S
O503 Cd492 2.439 . S
O503 C497 1.208 . S
C504 C505 1.369 . S
C504 C506 1.419 . S
C504 H508 0.930 . S
C505 C504 1.369 . S
C505 C514 1.429 . S
C506 C504 1.419 . S
C506 C507 1.363 . S
C506 H509 0.929 . S
C507 C506 1.363 . S
C507 C513 1.428 . S
H508 C504 0.930 . S
H509 C506 0.929 . S
S510 N511 1.613 . S
S510 N512 1.610 . S
N511 S510 1.613 . S
N511 C514 1.350 . S
N512 S510 1.610 . S
N512 C513 1.351 . S
C513 C507 1.428 . S
C513 N512 1.351 . S
C513 C514 1.434 . S
C514 C505 1.429 . S
C514 N511 1.350 . S
C514 C513 1.434 . S
C515 C516 1.369 . S
C515 C517 1.419 . S
C515 H519 0.930 . S
C516 C515 1.369 . S
C516 C525 1.429 . S
C517 C515 1.419 . S
C517 C518 1.363 . S
C517 H520 0.929 . S
C518 C517 1.363 . S
C518 C524 1.428 . S
H519 C515 0.930 . S
H520 C517 0.929 . S
S521 N522 1.613 . S
S521 N523 1.610 . S
N522 S521 1.613 . S
N522 C525 1.350 . S
N523 S521 1.610 . S
N523 C524 1.351 . S
C524 C518 1.428 . S
C524 N523 1.351 . S
C524 C525 1.434 . S
C525 C516 1.429 . S
C525 N522 1.350 . S
C525 C524 1.434 . S
C526 C527 1.369 . S
C526 C528 1.419 . S
C526 H530 0.930 . S
C527 C526 1.369 . S
C527 C536 1.429 . S
C528 C526 1.419 . S
C528 C529 1.363 . S
C528 H531 0.929 . S
C529 C528 1.363 . S
C529 C535 1.428 . S
H530 C526 0.930 . S
H531 C528 0.929 . S
S532 N533 1.613 . S
S532 N534 1.610 1_554 S
N533 S532 1.613 . S
N533 C536 1.350 1_554 S
N534 S532 1.610 1_556 S
N534 C535 1.351 . S
C535 C529 1.428 . S
C535 N534 1.351 . S
C535 C536 1.434 . S
C536 C527 1.429 . S
C536 N533 1.350 1_556 S
C536 C535 1.434 . S
C537 C538 1.369 . S
C537 C539 1.419 . S
C537 H541 0.930 . S
C538 C537 1.369 . S
C538 C547 1.429 . S
C539 C537 1.419 . S
C539 C540 1.363 . S
C539 H542 0.929 . S
C540 C539 1.363 . S
C540 C546 1.428 . S
H541 C537 0.930 . S
H542 C539 0.929 . S
S543 N544 1.613 . S
S543 N545 1.610 . S
N544 S543 1.613 . S
N544 C547 1.350 . S
N545 S543 1.610 . S
N545 C546 1.351 . S
C546 C540 1.428 . S
C546 N545 1.351 . S
C546 C547 1.434 . S
C547 C538 1.429 . S
C547 N544 1.350 . S
C547 C546 1.434 . S
C548 C549 1.369 . S
C548 C550 1.419 . S
C548 H552 0.930 . S
C549 C548 1.369 . S
C549 C558 1.429 . S
C550 C548 1.419 . S
C550 C551 1.363 . S
C550 H553 0.929 . S
C551 C550 1.363 . S
C551 C557 1.428 . S
H552 C548 0.930 . S
H553 C550 0.929 . S
S554 N555 1.613 . S
S554 N556 1.610 . S
N555 S554 1.613 . S
N555 C558 1.350 . S
N556 S554 1.610 . S
N556 C557 1.351 . S
C557 C551 1.428 . S
C557 N556 1.351 . S
C557 C558 1.434 . S
C558 C549 1.429 . S
C558 N555 1.350 . S
C558 C557 1.434 . S
C559 C560 1.369 . S
C559 C561 1.419 . S
C559 H563 0.930 . S
C560 C559 1.369 . S
C560 C569 1.429 . S
C561 C559 1.419 . S
C561 C562 1.363 . S
C561 H564 0.929 . S
C562 C561 1.363 . S
C562 C568 1.428 . S
H563 C559 0.930 . S
H564 C561 0.929 . S
S565 N566 1.613 . S
S565 N567 1.610 . S
N566 S565 1.613 . S
N566 C569 1.350 . S
N567 S565 1.610 . S
N567 C568 1.351 . S
C568 C562 1.428 . S
C568 N567 1.351 . S
C568 C569 1.434 . S
C569 C560 1.429 . S
C569 N566 1.350 . S
C569 C568 1.434 . S
C570 C571 1.369 . S
C570 C572 1.419 . S
C570 H574 0.930 . S
C571 C570 1.369 . S
C571 C580 1.429 . S
C572 C570 1.419 . S
C572 C573 1.363 . S
C572 H575 0.929 . S
C573 C572 1.363 . S
C573 C579 1.428 . S
H574 C570 0.930 . S
H575 C572 0.929 . S
S576 N577 1.613 . S
S576 N578 1.610 . S
N577 S576 1.613 . S
N577 C580 1.350 . S
N578 S576 1.610 . S
N578 C579 1.351 . S
C579 C573 1.428 . S
C579 N578 1.351 . S
C579 C580 1.434 . S
C580 C571 1.429 . S
C580 N577 1.350 . S
C580 C579 1.434 . S
C581 C582 1.369 . S
C581 C583 1.419 . S
C581 H585 0.930 . S
C582 C581 1.369 . S
C582 C591 1.429 . S
C583 C581 1.419 . S
C583 C584 1.363 . S
C583 H586 0.929 . S
C584 C583 1.363 . S
C584 C590 1.428 . S
H585 C581 0.930 . S
H586 C583 0.929 . S
S587 N588 1.613 1_556 S
S587 N589 1.610 . S
N588 S587 1.613 1_554 S
N588 C591 1.350 . S
N589 S587 1.610 . S
N589 C590 1.351 1_556 S
C590 C584 1.428 . S
C590 N589 1.351 1_554 S
C590 C591 1.434 . S
C591 C582 1.429 . S
C591 N588 1.350 . S
C591 C590 1.434 . S
C592 C593 1.369 . S
C592 C594 1.419 . S
C592 H596 0.930 . S
C593 C592 1.369 . S
C593 C602 1.429 . S
C594 C592 1.419 . S
C594 C595 1.363 . S
C594 H597 0.929 . S
C595 C594 1.363 . S
C595 C601 1.428 . S
H596 C592 0.930 . S
H597 C594 0.929 . S
S598 N599 1.613 . S
S598 N600 1.610 . S
N599 S598 1.613 . S
N599 C602 1.350 . S
N600 S598 1.610 . S
N600 C601 1.351 . S
C601 C595 1.428 . S
C601 N600 1.351 . S
C601 C602 1.434 . S
C602 C593 1.429 . S
C602 N599 1.350 . S
C602 C601 1.434 . S
C603 C604 1.369 . S
C603 C605 1.419 . S
C603 H607 0.930 . S
C604 C603 1.369 . S
C604 C613 1.429 . S
C605 C603 1.419 . S
C605 C606 1.363 . S
C605 H608 0.929 . S
C606 C605 1.363 . S
C606 C612 1.428 . S
H607 C603 0.930 . S
H608 C605 0.929 . S
S609 N610 1.613 . S
S609 N611 1.610 . S
N610 S609 1.613 . S
N610 C613 1.350 . S
N611 S609 1.610 . S
N611 C612 1.351 . S
C612 C606 1.428 . S
C612 N611 1.351 . S
C612 C613 1.434 . S
C613 C604 1.429 . S
C613 N610 1.350 . S
C613 C612 1.434 . S
C614 C615 1.369 . S
C614 C616 1.419 . S
C614 H618 0.930 . S
C615 C614 1.369 . S
C615 C624 1.429 . S
C616 C614 1.419 . S
C616 C617 1.363 . S
C616 H619 0.929 . S
C617 C616 1.363 . S
C617 C623 1.428 . S
H618 C614 0.930 . S
H619 C616 0.929 . S
S620 N621 1.613 . S
S620 N622 1.610 . S
N621 S620 1.613 . S
N621 C624 1.350 . S
N622 S620 1.610 . S
N622 C623 1.351 . S
C623 C617 1.428 . S
C623 N622 1.351 . S
C623 C624 1.434 . S
C624 C615 1.429 . S
C624 N621 1.350 . S
C624 C623 1.434 . S
C625 C626 1.369 . S
C625 C627 1.419 . S
C625 H629 0.930 . S
C626 C625 1.369 . S
C626 C635 1.429 . S
C627 C625 1.419 . S
C627 C628 1.363 . S
C627 H630 0.929 . S
C628 C627 1.363 . S
C628 C634 1.428 . S
H629 C625 0.930 . S
H630 C627 0.929 . S
S631 N632 1.613 . S
S631 N633 1.610 . S
N632 S631 1.613 . S
N632 C635 1.350 . S
N633 S631 1.610 . S
N633 C634 1.351 . S
C634 C628 1.428 . S
C634 N633 1.351 . S
C634 C635 1.434 . S
C635 C626 1.429 . S
C635 N632 1.350 . S
C635 C634 1.434 . S
C636 C637 1.369 . S
C636 C638 1.419 1_455 S
C636 H640 0.930 . S
C637 C636 1.369 . S
C637 C646 1.429 . S
C638 C636 1.419 1_655 S
C638 C639 1.363 . S
C638 H641 0.929 . S
C639 C638 1.363 . S
C639 C645 1.428 . S
H640 C636 0.930 . S
H641 C638 0.929 . S
S642 N643 1.613 1_655 S
S642 N644 1.610 . S
N643 S642 1.613 1_455 S
N643 C646 1.350 . S
N644 S642 1.610 . S
N644 C645 1.351 . S
C645 C639 1.428 . S
C645 N644 1.351 . S
C645 C646 1.434 1_655 S
C646 C637 1.429 . S
C646 N643 1.350 . S
C646 C645 1.434 1_455 S
C647 C648 1.369 . S
C647 C649 1.419 . S
C647 H651 0.930 . S
C648 C647 1.369 . S
C648 C657 1.429 . S
C649 C647 1.419 . S
C649 C650 1.363 . S
C649 H652 0.929 . S
C650 C649 1.363 . S
C650 C656 1.428 . S
H651 C647 0.930 . S
H652 C649 0.929 . S
S653 N654 1.613 . S
S653 N655 1.610 . S
N654 S653 1.613 . S
N654 C657 1.350 . S
N655 S653 1.610 . S
N655 C656 1.351 . S
C656 C650 1.428 . S
C656 N655 1.351 . S
C656 C657 1.434 . S
C657 C648 1.429 . S
C657 N654 1.350 . S
C657 C656 1.434 . S
C658 C659 1.369 . S
C658 C660 1.419 1_565 S
C658 H662 0.930 . S
C659 C658 1.369 . S
C659 C668 1.429 . S
C660 C658 1.419 1_545 S
C660 C661 1.363 . S
C660 H663 0.929 . S
C661 C660 1.363 . S
C661 C667 1.428 . S
H662 C658 0.930 . S
H663 C660 0.929 . S
S664 N665 1.628 . S
S664 N666 1.605 1_565 S
N665 S664 1.628 . S
N665 C668 1.350 . S
N666 S664 1.605 1_545 S
N666 C667 1.351 . S
C667 C661 1.428 . S
C667 N666 1.351 . S
C667 C668 1.434 1_545 S
C668 C659 1.429 . S
C668 N665 1.350 . S
C668 C667 1.434 1_565 S
C669 C670 1.369 . S
C669 C671 1.419 1_565 S
C669 H673 0.930 . S
C670 C669 1.369 . S
C670 C679 1.429 . S
C671 C669 1.419 1_545 S
C671 C672 1.363 . S
C671 H674 0.929 . S
C672 C671 1.363 . S
C672 C678 1.428 . S
H673 C669 0.930 . S
H674 C671 0.929 . S
S675 N676 1.613 1_545 S
S675 N677 1.610 . S
N676 S675 1.613 1_565 S
N676 C679 1.350 . S
N677 S675 1.610 . S
N677 C678 1.351 . S
C678 C672 1.428 . S
C678 N677 1.351 . S
C678 C679 1.434 1_545 S
C679 C670 1.429 . S
C679 N676 1.350 . S
C679 C678 1.434 1_565 S
C680 C681 1.369 . S
C680 C682 1.419 1_455 S
C680 H684 0.930 . S
C681 C680 1.369 . S
C681 C690 1.429 . S
C682 C680 1.419 1_655 S
C682 C683 1.363 . S
C682 H685 0.929 . S
C683 C682 1.363 . S
C683 C689 1.428 . S
H684 C680 0.930 . S
H685 C682 0.929 . S
S686 N687 1.613 . S
S686 N688 1.610 1_455 S
N687 S686 1.613 . S
N687 C690 1.350 . S
N688 S686 1.610 1_655 S
N688 C689 1.351 . S
C689 C683 1.428 . S
C689 N688 1.351 . S
C689 C690 1.434 1_655 S
C690 C681 1.429 . S
C690 N687 1.350 . S
C690 C689 1.434 1_455 S
C691 C692 1.369 . S
C691 C693 1.419 . S
C691 H695 0.930 . S
C692 C691 1.369 . S
C692 C701 1.429 . S
C693 C691 1.419 . S
C693 C694 1.363 . S
C693 H696 0.929 . S
C694 C693 1.363 . S
C694 C700 1.428 . S
H695 C691 0.930 . S
H696 C693 0.929 . S
S697 N698 1.613 . S
S697 N699 1.610 . S
N698 S697 1.613 . S
N698 C701 1.350 . S
N699 S697 1.610 . S
N699 C700 1.351 . S
C700 C694 1.428 . S
C700 N699 1.351 . S
C700 C701 1.434 . S
C701 C692 1.429 . S
C701 N698 1.350 . S
C701 C700 1.434 . S
C702 C703 1.369 1_554 S
C702 C704 1.419 . S
C702 H706 0.930 . S
C703 C702 1.369 1_556 S
C703 C712 1.429 . S
C704 C702 1.419 . S
C704 C705 1.363 . S
C704 H707 0.929 . S
C705 C704 1.363 . S
C705 C711 1.428 1_554 S
H706 C702 0.930 . S
H707 C704 0.929 . S
S708 N709 1.613 . S
S708 N710 1.610 . S
N709 S708 1.613 . S
N709 C712 1.350 . S
N710 S708 1.610 . S
N710 C711 1.351 . S
C711 C705 1.428 1_556 S
C711 N710 1.351 . S
C711 C712 1.434 . S
C712 C703 1.429 . S
C712 N709 1.350 . S
C712 C711 1.434 . S
C713 C714 1.369 . S
C713 C715 1.419 . S
C713 H717 0.930 . S
C714 C713 1.369 . S
C714 C723 1.429 1_556 S
C715 C713 1.419 . S
C715 C716 1.363 1_556 S
C715 H718 0.929 . S
C716 C715 1.363 1_554 S
C716 C722 1.428 . S
H717 C713 0.930 . S
H718 C715 0.929 . S
S719 N720 1.613 . S
S719 N721 1.610 . S
N720 S719 1.613 . S
N720 C723 1.350 . S
N721 S719 1.610 . S
N721 C722 1.351 . S
C722 C716 1.428 . S
C722 N721 1.351 . S
C722 C723 1.434 . S
C723 C714 1.429 1_554 S
C723 N720 1.350 . S
C723 C722 1.434 . S
C724 C725 1.369 . S
C724 C726 1.419 . S
C724 H728 0.930 . S
C725 C724 1.369 . S
C725 C734 1.429 1_556 S
C726 C724 1.419 . S
C726 C727 1.363 1_556 S
C726 H729 0.929 . S
C727 C726 1.363 1_554 S
C727 C733 1.428 . S
H728 C724 0.930 . S
H729 C726 0.929 . S
S730 N731 1.613 . S
S730 N732 1.610 . S
N731 S730 1.613 . S
N731 C734 1.350 . S
N732 S730 1.610 . S
N732 C733 1.351 . S
C733 C727 1.428 . S
C733 N732 1.351 . S
C733 C734 1.434 . S
C734 C725 1.429 1_554 S
C734 N731 1.350 . S
C734 C733 1.434 . S
C735 C736 1.369 . S
C735 C737 1.419 . S
C735 H739 0.930 . S
C736 C735 1.369 . S
C736 C745 1.429 . S
C737 C735 1.419 . S
C737 C738 1.363 . S
C737 H740 0.929 . S
C738 C737 1.363 . S
C738 C744 1.428 . S
H739 C735 0.930 . S
H740 C737 0.929 . S
S741 N742 1.613 . S
S741 N743 1.610 . S
N742 S741 1.613 . S
N742 C745 1.350 . S
N743 S741 1.610 . S
N743 C744 1.351 . S
C744 C738 1.428 . S
C744 N743 1.351 . S
C744 C745 1.434 . S
C745 C736 1.429 . S
C745 N742 1.350 . S
C745 C744 1.434 . S
C746 C747 1.369 . S
C746 C748 1.419 . S
C746 H750 0.930 . S
C747 C746 1.369 . S
C747 C756 1.429 . S
C748 C746 1.419 . S
C748 C749 1.363 . S
C748 H751 0.929 . S
C749 C748 1.363 . S
C749 C755 1.428 . S
H750 C746 0.930 . S
H751 C748 0.929 . S
S752 N753 1.613 . S
S752 N754 1.610 . S
N753 S752 1.613 . S
N753 C756 1.350 . S
N754 S752 1.610 . S
N754 C755 1.351 . S
C755 C749 1.428 . S
C755 N754 1.351 . S
C755 C756 1.434 . S
C756 C747 1.429 . S
C756 N753 1.350 . S
C756 C755 1.434 . S
C757 C758 1.369 . S
C757 C759 1.419 . S
C757 H761 0.930 . S
C758 C757 1.369 . S
C758 C767 1.429 . S
C759 C757 1.419 . S
C759 C760 1.363 . S
C759 H762 0.929 . S
C760 C759 1.363 . S
C760 C766 1.428 . S
H761 C757 0.930 . S
H762 C759 0.929 . S
S763 N764 1.613 . S
S763 N765 1.610 . S
N764 S763 1.613 . S
N764 C767 1.350 . S
N765 S763 1.610 . S
N765 C766 1.351 . S
C766 C760 1.428 . S
C766 N765 1.351 . S
C766 C767 1.434 . S
C767 C758 1.429 . S
C767 N764 1.350 . S
C767 C766 1.434 . S
C768 C769 1.369 . S
C768 C770 1.419 . S
C768 H772 0.930 . S
C769 C768 1.369 . S
C769 C778 1.429 1_554 S
C770 C768 1.419 . S
C770 C771 1.363 1_554 S
C770 H773 0.929 . S
C771 C770 1.363 1_556 S
C771 C777 1.428 . S
H772 C768 0.930 . S
H773 C770 0.929 . S
S774 N775 1.613 . S
S774 N776 1.610 . S
N775 S774 1.613 . S
N775 C778 1.350 . S
N776 S774 1.610 . S
N776 C777 1.351 . S
C777 C771 1.428 . S
C777 N776 1.351 . S
C777 C778 1.434 . S
C778 C769 1.429 1_556 S
C778 N775 1.350 . S
C778 C777 1.434 . S
C779 C780 1.369 . S
C779 C781 1.419 . S
C779 H783 0.930 . S
C780 C779 1.369 . S
C780 C789 1.429 . S
C781 C779 1.419 . S
C781 C782 1.363 1_556 S
C781 H784 0.929 . S
C782 C781 1.363 1_554 S
C782 C788 1.428 . S
H783 C779 0.930 . S
H784 C781 0.929 . S
S785 N786 1.613 1_554 S
S785 N787 1.610 . S
N786 S785 1.613 1_556 S
N786 C789 1.350 . S
N787 S785 1.610 . S
N787 C788 1.351 . S
C788 C782 1.428 . S
C788 N787 1.351 . S
C788 C789 1.434 1_554 S
C789 C780 1.429 . S
C789 N786 1.350 . S
C789 C788 1.434 1_556 S
C790 C791 1.369 . S
C790 C792 1.419 1_554 S
C790 H794 0.930 . S
C791 C790 1.369 . S
C791 C800 1.429 1_554 S
C792 C790 1.419 1_556 S
C792 C793 1.363 . S
C792 H795 0.929 . S
C793 C792 1.363 . S
C793 C799 1.428 . S
H794 C790 0.930 . S
H795 C792 0.929 . S
S796 N797 1.613 . S
S796 N798 1.610 . S
N797 S796 1.613 . S
N797 C800 1.350 . S
N798 S796 1.610 . S
N798 C799 1.351 . S
C799 C793 1.428 . S
C799 N798 1.351 . S
C799 C800 1.434 . S
C800 C791 1.429 1_556 S
C800 N797 1.350 . S
C800 C799 1.434 . S
C801 C802 1.369 . S
C801 C803 1.419 . S
C801 H805 0.930 . S
C802 C801 1.369 . S
C802 C811 1.429 . S
C803 C801 1.419 . S
C803 C804 1.363 . S
C803 H806 0.929 . S
C804 C803 1.363 . S
C804 C810 1.428 . S
H805 C801 0.930 . S
H806 C803 0.929 . S
S807 N808 1.613 . S
S807 N809 1.610 . S
N808 S807 1.613 . S
N808 C811 1.350 . S
N809 S807 1.610 . S
N809 C810 1.351 . S
C810 C804 1.428 . S
C810 N809 1.351 . S
C810 C811 1.434 . S
C811 C802 1.429 . S
C811 N808 1.350 . S
C811 C810 1.434 . S
C812 C813 1.369 . S
C812 C814 1.419 . S
C812 H816 0.930 . S
C813 C812 1.369 . S
C813 C822 1.429 . S
C814 C812 1.419 . S
C814 C815 1.363 . S
C814 H817 0.929 . S
C815 C814 1.363 . S
C815 C821 1.428 . S
H816 C812 0.930 . S
H817 C814 0.929 . S
S818 N819 1.613 . S
S818 N820 1.610 . S
N819 S818 1.613 . S
N819 C822 1.350 . S
N820 S818 1.610 . S
N820 C821 1.351 . S
C821 C815 1.428 . S
C821 N820 1.351 . S
C821 C822 1.434 . S
C822 C813 1.429 . S
C822 N819 1.350 . S
C822 C821 1.434 . S
C823 C824 1.369 . S
C823 C825 1.419 . S
C823 H827 0.930 . S
C824 C823 1.369 . S
C824 C833 1.429 . S
C825 C823 1.419 . S
C825 C826 1.363 . S
C825 H828 0.929 . S
C826 C825 1.363 . S
C826 C832 1.428 . S
H827 C823 0.930 . S
H828 C825 0.929 . S
S829 N830 1.613 . S
S829 N831 1.610 . S
N830 S829 1.613 . S
N830 C833 1.350 . S
N831 S829 1.610 . S
N831 C832 1.351 . S
C832 C826 1.428 . S
C832 N831 1.351 . S
C832 C833 1.434 . S
C833 C824 1.429 . S
C833 N830 1.350 . S
C833 C832 1.434 . S
C834 C835 1.369 . S
C834 C836 1.419 . S
C834 H838 0.930 . S
C835 C834 1.369 . S
C835 C844 1.429 . S
C836 C834 1.419 . S
C836 C837 1.363 . S
C836 H839 0.929 . S
C837 C836 1.363 . S
C837 C843 1.428 . S
H838 C834 0.930 . S
H839 C836 0.929 . S
S840 N841 1.613 . S
S840 N842 1.610 . S
N841 S840 1.613 . S
N841 C844 1.350 . S
N842 S840 1.610 . S
N842 C843 1.351 . S
C843 C837 1.428 . S
C843 N842 1.351 . S
C843 C844 1.434 . S
C844 C835 1.429 . S
C844 N841 1.350 . S
C844 C843 1.434 . S
C845 C846 1.369 . S
C845 C847 1.419 . S
C845 H849 0.930 . S
C846 C845 1.369 . S
C846 C855 1.429 . S
C847 C845 1.419 . S
C847 C848 1.363 . S
C847 H850 0.929 . S
C848 C847 1.363 . S
C848 C854 1.428 . S
H849 C845 0.930 . S
H850 C847 0.929 . S
S851 N852 1.613 . S
S851 N853 1.610 . S
N852 S851 1.613 . S
N852 C855 1.350 . S
N853 S851 1.610 . S
N853 C854 1.351 . S
C854 C848 1.428 . S
C854 N853 1.351 . S
C854 C855 1.434 . S
C855 C846 1.429 . S
C855 N852 1.350 . S
C855 C854 1.434 . S
C856 C857 1.369 . S
C856 C858 1.419 . S
C856 H860 0.930 . S
C857 C856 1.369 . S
C857 C866 1.429 . S
C858 C856 1.419 . S
C858 C859 1.363 . S
C858 H861 0.929 . S
C859 C858 1.363 . S
C859 C865 1.428 . S
H860 C856 0.930 . S
H861 C858 0.929 . S
S862 N863 1.613 . S
S862 N864 1.610 . S
N863 S862 1.613 . S
N863 C866 1.350 . S
N864 S862 1.610 . S
N864 C865 1.351 . S
C865 C859 1.428 . S
C865 N864 1.351 . S
C865 C866 1.434 . S
C866 C857 1.429 . S
C866 N863 1.350 . S
C866 C865 1.434 . S
C867 C868 1.369 . S
C867 C869 1.419 . S
C867 H871 0.930 . S
C868 C867 1.369 . S
C868 C877 1.429 . S
C869 C867 1.419 . S
C869 C870 1.363 . S
C869 H872 0.929 . S
C870 C869 1.363 . S
C870 C876 1.428 . S
H871 C867 0.930 . S
H872 C869 0.929 . S
S873 N874 1.613 . S
S873 N875 1.610 . S
N874 S873 1.613 . S
N874 C877 1.350 . S
N875 S873 1.610 . S
N875 C876 1.351 . S
C876 C870 1.428 . S
C876 N875 1.351 . S
C876 C877 1.434 . S
C877 C868 1.429 . S
C877 N874 1.350 . S
C877 C876 1.434 . S
C878 C879 1.369 . S
C878 C880 1.419 . S
C878 H882 0.930 . S
C879 C878 1.369 . S
C879 C888 1.429 . S
C880 C878 1.419 . S
C880 C881 1.363 . S
C880 H883 0.929 . S
C881 C880 1.363 . S
C881 C887 1.428 . S
H882 C878 0.930 . S
H883 C880 0.929 . S
S884 N885 1.613 . S
S884 N886 1.610 . S
N885 S884 1.613 . S
N885 C888 1.350 . S
N886 S884 1.610 . S
N886 C887 1.351 . S
C887 C881 1.428 . S
C887 N886 1.351 . S
C887 C888 1.434 . S
C888 C879 1.429 . S
C888 N885 1.350 . S
C888 C887 1.434 . S
C889 C890 1.369 . S
C889 C891 1.419 . S
C889 H893 0.930 . S
C890 C889 1.369 . S
C890 C899 1.429 . S
C891 C889 1.419 . S
C891 C892 1.363 . S
C891 H894 0.929 . S
C892 C891 1.363 . S
C892 C898 1.428 . S
H893 C889 0.930 . S
H894 C891 0.929 . S
S895 N896 1.613 . S
S895 N897 1.610 . S
N896 S895 1.613 . S
N896 C899 1.350 . S
N897 S895 1.610 . S
N897 C898 1.351 . S
C898 C892 1.428 . S
C898 N897 1.351 . S
C898 C899 1.434 . S
C899 C890 1.429 . S
C899 N896 1.350 . S
C899 C898 1.434 . S
C900 C901 1.369 . S
C900 C902 1.419 . S
C900 H904 0.930 . S
C901 C900 1.369 . S
C901 C910 1.429 . S
C902 C900 1.419 . S
C902 C903 1.363 . S
C902 H905 0.929 . S
C903 C902 1.363 . S
C903 C909 1.428 . S
H904 C900 0.930 . S
H905 C902 0.929 . S
S906 N907 1.613 . S
S906 N908 1.610 . S
N907 S906 1.613 . S
N907 C910 1.350 . S
N908 S906 1.610 . S
N908 C909 1.351 . S
C909 C903 1.428 . S
C909 N908 1.351 . S
C909 C910 1.434 . S
C910 C901 1.429 . S
C910 N907 1.350 . S
C910 C909 1.434 . S
C911 C912 1.369 . S
C911 C913 1.419 . S
C911 H915 0.930 . S
C912 C911 1.369 . S
C912 C921 1.429 . S
C913 C911 1.419 . S
C913 C914 1.363 . S
C913 H916 0.929 . S
C914 C913 1.363 . S
C914 C920 1.428 . S
H915 C911 0.930 . S
H916 C913 0.929 . S
S917 N918 1.613 . S
S917 N919 1.610 . S
N918 S917 1.613 . S
N918 C921 1.350 . S
N919 S917 1.610 . S
N919 C920 1.351 . S
C920 C914 1.428 . S
C920 N919 1.351 . S
C920 C921 1.434 . S
C921 C912 1.429 . S
C921 N918 1.350 . S
C921 C920 1.434 . S
C922 C923 1.369 . S
C922 C924 1.419 . S
C922 H926 0.930 . S
C923 C922 1.369 . S
C923 C932 1.429 . S
C924 C922 1.419 . S
C924 C925 1.363 . S
C924 H927 0.929 . S
C925 C924 1.363 . S
C925 C931 1.428 . S
H926 C922 0.930 . S
H927 C924 0.929 . S
S928 N929 1.613 . S
S928 N930 1.610 . S
N929 S928 1.613 . S
N929 C932 1.350 . S
N930 S928 1.610 . S
N930 C931 1.351 . S
C931 C925 1.428 . S
C931 N930 1.351 . S
C931 C932 1.434 . S
C932 C923 1.429 . S
C932 N929 1.350 . S
C932 C931 1.434 . S
C933 C934 1.369 . S
C933 C935 1.419 . S
C933 H937 0.930 . S
C934 C933 1.369 . S
C934 C943 1.429 . S
C935 C933 1.419 . S
C935 C936 1.363 . S
C935 H938 0.929 . S
C936 C935 1.363 . S
C936 C942 1.428 . S
H937 C933 0.930 . S
H938 C935 0.929 . S
S939 N940 1.613 . S
S939 N941 1.610 . S
N940 S939 1.613 . S
N940 C943 1.350 . S
N941 S939 1.610 . S
N941 C942 1.351 . S
C942 C936 1.428 . S
C942 N941 1.351 . S
C942 C943 1.434 . S
C943 C934 1.429 . S
C943 N940 1.350 . S
C943 C942 1.434 . S
C944 C945 1.369 . S
C944 C946 1.419 . S
C944 H948 0.930 . S
C945 C944 1.369 . S
C945 C954 1.429 . S
C946 C944 1.419 . S
C946 C947 1.363 . S
C946 H949 0.929 . S
C947 C946 1.363 . S
C947 C953 1.428 . S
H948 C944 0.930 . S
H949 C946 0.929 . S
S950 N951 1.613 . S
S950 N952 1.610 . S
N951 S950 1.613 . S
N951 C954 1.350 . S
N952 S950 1.610 . S
N952 C953 1.351 . S
C953 C947 1.428 . S
C953 N952 1.351 . S
C953 C954 1.434 . S
C954 C945 1.429 . S
C954 N951 1.350 . S
C954 C953 1.434 . S
C955 C956 1.369 . S
C955 C957 1.419 . S
C955 H959 0.930 . S
C956 C955 1.369 . S
C956 C965 1.429 . S
C957 C955 1.419 . S
C957 C958 1.363 . S
C957 H960 0.929 . S
C958 C957 1.363 . S
C958 C964 1.428 . S
H959 C955 0.930 . S
H960 C957 0.929 . S
S961 N962 1.613 . S
S961 N963 1.610 . S
N962 S961 1.613 . S
N962 C965 1.350 . S
N963 S961 1.610 . S
N963 C964 1.351 . S
C964 C958 1.428 . S
C964 N963 1.351 . S
C964 C965 1.434 . S
C965 C956 1.429 . S
C965 N962 1.350 . S
C965 C964 1.434 . S
C966 C967 1.369 . S
C966 C968 1.419 . S
C966 H970 0.930 . S
C967 C966 1.369 . S
C967 C976 1.429 . S
C968 C966 1.419 . S
C968 C969 1.363 . S
C968 H971 0.929 . S
C969 C968 1.363 . S
C969 C975 1.428 . S
H970 C966 0.930 . S
H971 C968 0.929 . S
S972 N973 1.613 . S
S972 N974 1.610 . S
N973 S972 1.613 . S
N973 C976 1.350 . S
N974 S972 1.610 . S
N974 C975 1.351 . S
C975 C969 1.428 . S
C975 N974 1.351 . S
C975 C976 1.434 . S
C976 C967 1.429 . S
C976 N973 1.350 . S
C976 C975 1.434 . S
C977 C978 1.369 . S
C977 C979 1.419 . S
C977 H981 0.930 . S
C978 C977 1.369 . S
C978 C987 1.429 . S
C979 C977 1.419 . S
C979 C980 1.363 . S
C979 H982 0.929 . S
C980 C979 1.363 . S
C980 C986 1.428 . S
H981 C977 0.930 . S
H982 C979 0.929 . S
S983 N984 1.613 . S
S983 N985 1.610 . S
N984 S983 1.613 . S
N984 C987 1.350 . S
N985 S983 1.610 . S
N985 C986 1.351 . S
C986 C980 1.428 . S
C986 N985 1.351 . S
C986 C987 1.434 . S
C987 C978 1.429 . S
C987 N984 1.350 . S
C987 C986 1.434 . S
C988 C989 1.369 . S
C988 C990 1.419 . S
C988 H992 0.930 . S
C989 C988 1.369 . S
C989 C998 1.429 . S
C990 C988 1.419 . S
C990 C991 1.363 . S
C990 H993 0.929 . S
C991 C990 1.363 . S
C991 C997 1.428 . S
H992 C988 0.930 . S
H993 C990 0.929 . S
S994 N995 1.613 . S
S994 N996 1.610 . S
N995 S994 1.613 . S
N995 C998 1.350 . S
N996 S994 1.610 . S
N996 C997 1.351 . S
C997 C991 1.428 . S
C997 N996 1.351 . S
C997 C998 1.434 . S
C998 C989 1.429 . S
C998 N995 1.350 . S
C998 C997 1.434 . S
C999 C1000 1.369 . S
C999 C1001 1.419 . S
C999 H1003 0.930 . S
C1000 C999 1.369 . S
C1000 C1009 1.429 . S
C1001 C999 1.419 . S
C1001 C1002 1.363 . S
C1001 H1004 0.929 . S
C1002 C1001 1.363 . S
C1002 C1008 1.428 . S
H1003 C999 0.930 . S
H1004 C1001 0.929 . S
S1005 N1006 1.613 . S
S1005 N1007 1.610 . S
N1006 S1005 1.613 . S
N1006 C1009 1.350 . S
N1007 S1005 1.610 . S
N1007 C1008 1.351 . S
C1008 C1002 1.428 . S
C1008 N1007 1.351 . S
C1008 C1009 1.434 . S
C1009 C1000 1.429 . S
C1009 N1006 1.350 . S
C1009 C1008 1.434 . S
C1010 C1011 1.369 . S
C1010 C1012 1.419 . S
C1010 H1014 0.930 . S
C1011 C1010 1.369 . S
C1011 C1020 1.429 . S
C1012 C1010 1.419 . S
C1012 C1013 1.363 . S
C1012 H1015 0.929 . S
C1013 C1012 1.363 . S
C1013 C1019 1.428 . S
H1014 C1010 0.930 . S
H1015 C1012 0.929 . S
S1016 N1017 1.613 . S
S1016 N1018 1.610 . S
N1017 S1016 1.613 . S
N1017 C1020 1.350 . S
N1018 S1016 1.610 . S
N1018 C1019 1.351 . S
C1019 C1013 1.428 . S
C1019 N1018 1.351 . S
C1019 C1020 1.434 . S
C1020 C1011 1.429 . S
C1020 N1017 1.350 . S
C1020 C1019 1.434 . S
C1021 C1022 1.369 . S
C1021 C1023 1.419 . S
C1021 H1025 0.930 . S
C1022 C1021 1.369 . S
C1022 C1031 1.429 . S
C1023 C1021 1.419 . S
C1023 C1024 1.363 . S
C1023 H1026 0.929 . S
C1024 C1023 1.363 . S
C1024 C1030 1.428 . S
H1025 C1021 0.930 . S
H1026 C1023 0.929 . S
S1027 N1028 1.613 . S
S1027 N1029 1.610 . S
N1028 S1027 1.613 . S
N1028 C1031 1.350 . S
N1029 S1027 1.610 . S
N1029 C1030 1.351 . S
C1030 C1024 1.428 . S
C1030 N1029 1.351 . S
C1030 C1031 1.434 . S
C1031 C1022 1.429 . S
C1031 N1028 1.350 . S
C1031 C1030 1.434 . S
C1032 C1033 1.369 . S
C1032 C1034 1.419 . S
C1032 H1036 0.930 . S
C1033 C1032 1.369 . S
C1033 C1042 1.429 . S
C1034 C1032 1.419 . S
C1034 C1035 1.363 . S
C1034 H1037 0.929 . S
C1035 C1034 1.363 . S
C1035 C1041 1.428 . S
H1036 C1032 0.930 . S
H1037 C1034 0.929 . S
S1038 N1039 1.613 . S
S1038 N1040 1.610 . S
N1039 S1038 1.613 . S
N1039 C1042 1.350 . S
N1040 S1038 1.610 . S
N1040 C1041 1.351 . S
C1041 C1035 1.428 . S
C1041 N1040 1.351 . S
C1041 C1042 1.434 . S
C1042 C1033 1.429 . S
C1042 N1039 1.350 . S
C1042 C1041 1.434 . S
C1043 C1044 1.369 . S
C1043 C1045 1.419 . S
C1043 H1047 0.930 . S
C1044 C1043 1.369 . S
C1044 C1053 1.429 . S
C1045 C1043 1.419 . S
C1045 C1046 1.363 . S
C1045 H1048 0.929 . S
C1046 C1045 1.363 . S
C1046 C1052 1.428 . S
H1047 C1043 0.930 . S
H1048 C1045 0.929 . S
S1049 N1050 1.613 . S
S1049 N1051 1.610 . S
N1050 S1049 1.613 . S
N1050 C1053 1.350 . S
N1051 S1049 1.610 . S
N1051 C1052 1.351 . S
C1052 C1046 1.428 . S
C1052 N1051 1.351 . S
C1052 C1053 1.434 . S
C1053 C1044 1.429 . S
C1053 N1050 1.350 . S
C1053 C1052 1.434 . S
C1054 C1055 1.369 . S
C1054 C1056 1.419 . S
C1054 H1058 0.930 . S
C1055 C1054 1.369 . S
C1055 C1064 1.429 . S
C1056 C1054 1.419 . S
C1056 C1057 1.363 . S
C1056 H1059 0.929 . S
C1057 C1056 1.363 . S
C1057 C1063 1.428 . S
H1058 C1054 0.930 . S
H1059 C1056 0.929 . S
S1060 N1061 1.613 . S
S1060 N1062 1.610 . S
N1061 S1060 1.613 . S
N1061 C1064 1.350 . S
N1062 S1060 1.610 . S
N1062 C1063 1.351 . S
C1063 C1057 1.428 . S
C1063 N1062 1.351 . S
C1063 C1064 1.434 . S
C1064 C1055 1.429 . S
C1064 N1061 1.350 . S
C1064 C1063 1.434 . S
C1065 C1066 1.369 . S
C1065 C1067 1.419 . S
C1065 H1069 0.930 . S
C1066 C1065 1.369 . S
C1066 C1075 1.429 . S
C1067 C1065 1.419 . S
C1067 C1068 1.363 . S
C1067 H1070 0.929 . S
C1068 C1067 1.363 . S
C1068 C1074 1.428 . S
H1069 C1065 0.930 . S
H1070 C1067 0.929 . S
S1071 N1072 1.613 . S
S1071 N1073 1.610 . S
N1072 S1071 1.613 . S
N1072 C1075 1.350 . S
N1073 S1071 1.610 . S
N1073 C1074 1.351 . S
C1074 C1068 1.428 . S
C1074 N1073 1.351 . S
C1074 C1075 1.434 . S
C1075 C1066 1.429 . S
C1075 N1072 1.350 . S
C1075 C1074 1.434 . S
C1076 C1077 1.369 . S
C1076 C1078 1.419 . S
C1076 H1080 0.930 . S
C1077 C1076 1.369 . S
C1077 C1086 1.429 . S
C1078 C1076 1.419 . S
C1078 C1079 1.363 . S
C1078 H1081 0.929 . S
C1079 C1078 1.363 . S
C1079 C1085 1.428 . S
H1080 C1076 0.930 . S
H1081 C1078 0.929 . S
S1082 N1083 1.613 . S
S1082 N1084 1.610 . S
N1083 S1082 1.613 . S
N1083 C1086 1.350 . S
N1084 S1082 1.610 . S
N1084 C1085 1.351 . S
C1085 C1079 1.428 . S
C1085 N1084 1.351 . S
C1085 C1086 1.434 . S
C1086 C1077 1.429 . S
C1086 N1083 1.350 . S
C1086 C1085 1.434 . S
C1087 C1088 1.369 . S
C1087 C1089 1.419 . S
C1087 H1091 0.930 . S
C1088 C1087 1.369 . S
C1088 C1097 1.429 . S
C1089 C1087 1.419 . S
C1089 C1090 1.363 . S
C1089 H1092 0.929 . S
C1090 C1089 1.363 . S
C1090 C1096 1.428 . S
H1091 C1087 0.930 . S
H1092 C1089 0.929 . S
S1093 N1094 1.613 . S
S1093 N1095 1.610 . S
N1094 S1093 1.613 . S
N1094 C1097 1.350 . S
N1095 S1093 1.610 . S
N1095 C1096 1.351 . S
C1096 C1090 1.428 . S
C1096 N1095 1.351 . S
C1096 C1097 1.434 . S
C1097 C1088 1.429 . S
C1097 N1094 1.350 . S
C1097 C1096 1.434 . S
C1098 C1099 1.369 . S
C1098 C1100 1.419 . S
C1098 H1102 0.930 . S
C1099 C1098 1.369 . S
C1099 C1108 1.429 . S
C1100 C1098 1.419 . S
C1100 C1101 1.363 . S
C1100 H1103 0.929 . S
C1101 C1100 1.363 . S
C1101 C1107 1.428 . S
H1102 C1098 0.930 . S
H1103 C1100 0.929 . S
S1104 N1105 1.613 . S
S1104 N1106 1.610 . S
N1105 S1104 1.613 . S
N1105 C1108 1.350 . S
N1106 S1104 1.610 . S
N1106 C1107 1.351 . S
C1107 C1101 1.428 . S
C1107 N1106 1.351 . S
C1107 C1108 1.434 . S
C1108 C1099 1.429 . S
C1108 N1105 1.350 . S
C1108 C1107 1.434 . S
C1109 C1110 1.369 1_565 S
C1109 C1111 1.419 . S
C1109 H1113 0.930 . S
C1110 C1109 1.369 1_545 S
C1110 C1119 1.429 . S
C1111 C1109 1.419 . S
C1111 C1112 1.363 . S
C1111 H1114 0.929 . S
C1112 C1111 1.363 . S
C1112 C1118 1.428 1_565 S
H1113 C1109 0.930 . S
H1114 C1111 0.929 . S
S1115 N1116 1.613 . S
S1115 N1117 1.610 . S
N1116 S1115 1.613 . S
N1116 C1119 1.350 . S
N1117 S1115 1.610 . S
N1117 C1118 1.351 . S
C1118 C1112 1.428 1_545 S
C1118 N1117 1.351 . S
C1118 C1119 1.434 . S
C1119 C1110 1.429 . S
C1119 N1116 1.350 . S
C1119 C1118 1.434 . S
C1120 C1121 1.369 1_655 S
C1120 C1122 1.419 . S
C1120 H1124 0.930 . S
C1121 C1120 1.369 1_455 S
C1121 C1130 1.429 . S
C1122 C1120 1.419 . S
C1122 C1123 1.363 . S
C1122 H1125 0.929 . S
C1123 C1122 1.363 . S
C1123 C1129 1.428 1_655 S
H1124 C1120 0.930 . S
H1125 C1122 0.929 . S
S1126 N1127 1.613 . S
S1126 N1128 1.610 . S
N1127 S1126 1.613 . S
N1127 C1130 1.350 . S
N1128 S1126 1.610 . S
N1128 C1129 1.351 . S
C1129 C1123 1.428 1_455 S
C1129 N1128 1.351 . S
C1129 C1130 1.434 . S
C1130 C1121 1.429 . S
C1130 N1127 1.350 . S
C1130 C1129 1.434 . S
C1131 C1132 1.369 . S
C1131 C1133 1.419 . S
C1131 H1135 0.930 . S
C1132 C1131 1.369 . S
C1132 C1141 1.429 . S
C1133 C1131 1.419 . S
C1133 C1134 1.363 . S
C1133 H1136 0.929 . S
C1134 C1133 1.363 . S
C1134 C1140 1.428 . S
H1135 C1131 0.930 . S
H1136 C1133 0.929 . S
S1137 N1138 1.613 . S
S1137 N1139 1.610 . S
N1138 S1137 1.613 . S
N1138 C1141 1.350 . S
N1139 S1137 1.610 . S
N1139 C1140 1.351 . S
C1140 C1134 1.428 . S
C1140 N1139 1.351 . S
C1140 C1141 1.434 . S
C1141 C1132 1.429 . S
C1141 N1138 1.350 . S
C1141 C1140 1.434 . S
C1142 C1143 1.369 . S
C1142 C1144 1.419 . S
C1142 H1146 0.930 . S
C1143 C1142 1.369 . S
C1143 C1152 1.429 1_545 S
C1144 C1142 1.419 . S
C1144 C1145 1.363 1_545 S
C1144 H1147 0.929 . S
C1145 C1144 1.363 1_565 S
C1145 C1151 1.428 . S
H1146 C1142 0.930 . S
H1147 C1144 0.929 . S
S1148 N1149 1.613 . S
S1148 N1150 1.610 . S
N1149 S1148 1.613 . S
N1149 C1152 1.350 . S
N1150 S1148 1.610 . S
N1150 C1151 1.351 . S
C1151 C1145 1.428 . S
C1151 N1150 1.351 . S
C1151 C1152 1.434 . S
C1152 C1143 1.429 1_565 S
C1152 N1149 1.350 . S
C1152 C1151 1.434 . S
C1153 C1154 1.369 1_455 S
C1153 C1155 1.419 . S
C1153 H1157 0.930 . S
C1154 C1153 1.369 1_655 S
C1154 C1163 1.429 . S
C1155 C1153 1.419 . S
C1155 C1156 1.363 . S
C1155 H1158 0.929 . S
C1156 C1155 1.363 . S
C1156 C1162 1.428 1_455 S
H1157 C1153 0.930 . S
H1158 C1155 0.929 . S
S1159 N1160 1.613 . S
S1159 N1161 1.610 . S
N1160 S1159 1.613 . S
N1160 C1163 1.350 . S
N1161 S1159 1.610 . S
N1161 C1162 1.351 . S
C1162 C1156 1.428 1_655 S
C1162 N1161 1.351 . S
C1162 C1163 1.434 . S
C1163 C1154 1.429 . S
C1163 N1160 1.350 . S
C1163 C1162 1.434 . S
C1164 C1165 1.369 . S
C1164 C1166 1.419 . S
C1164 H1168 0.930 . S
C1165 C1164 1.369 . S
C1165 C1174 1.429 . S
C1166 C1164 1.419 . S
C1166 C1167 1.363 . S
C1166 H1169 0.929 . S
C1167 C1166 1.363 . S
C1167 C1173 1.428 . S
H1168 C1164 0.930 . S
H1169 C1166 0.929 . S
S1170 N1171 1.613 . S
S1170 N1172 1.610 . S
N1171 S1170 1.613 . S
N1171 C1174 1.350 . S
N1172 S1170 1.610 . S
N1172 C1173 1.351 . S
C1173 C1167 1.428 . S
C1173 N1172 1.351 . S
C1173 C1174 1.434 . S
C1174 C1165 1.429 . S
C1174 N1171 1.350 . S
C1174 C1173 1.434 . S
C1175 C1176 1.369 . S
C1175 C1177 1.419 . S
C1175 H1179 0.930 . S
C1176 C1175 1.369 . S
C1176 C1185 1.429 . S
C1177 C1175 1.419 . S
C1177 C1178 1.363 . S
C1177 H1180 0.929 . S
C1178 C1177 1.363 . S
C1178 C1184 1.428 . S
H1179 C1175 0.930 . S
H1180 C1177 0.929 . S
S1181 N1182 1.613 . S
S1181 N1183 1.610 . S
N1182 S1181 1.613 . S
N1182 C1185 1.350 . S
N1183 S1181 1.610 . S
N1183 C1184 1.351 . S
C1184 C1178 1.428 . S
C1184 N1183 1.351 . S
C1184 C1185 1.434 . S
C1185 C1176 1.429 . S
C1185 N1182 1.350 . S
C1185 C1184 1.434 . S
C1186 C1187 1.369 . S
C1186 C1188 1.419 . S
C1186 H1190 0.930 . S
C1187 C1186 1.369 . S
C1187 C1196 1.429 . S
C1188 C1186 1.419 . S
C1188 C1189 1.363 . S
C1188 H1191 0.929 . S
C1189 C1188 1.363 . S
C1189 C1195 1.428 . S
H1190 C1186 0.930 . S
H1191 C1188 0.929 . S
S1192 N1193 1.613 . S
S1192 N1194 1.610 . S
N1193 S1192 1.613 . S
N1193 C1196 1.350 . S
N1194 S1192 1.610 . S
N1194 C1195 1.351 . S
C1195 C1189 1.428 . S
C1195 N1194 1.351 . S
C1195 C1196 1.434 . S
C1196 C1187 1.429 . S
C1196 N1193 1.350 . S
C1196 C1195 1.434 . S
C1197 C1198 1.369 . S
C1197 C1199 1.419 . S
C1197 H1201 0.930 . S
C1198 C1197 1.369 . S
C1198 C1207 1.429 . S
C1199 C1197 1.419 . S
C1199 C1200 1.363 . S
C1199 H1202 0.929 . S
C1200 C1199 1.363 . S
C1200 C1206 1.428 . S
H1201 C1197 0.930 . S
H1202 C1199 0.929 . S
S1203 N1204 1.613 . S
S1203 N1205 1.610 . S
N1204 S1203 1.613 . S
N1204 C1207 1.350 . S
N1205 S1203 1.610 . S
N1205 C1206 1.351 . S
C1206 C1200 1.428 . S
C1206 N1205 1.351 . S
C1206 C1207 1.434 . S
C1207 C1198 1.429 . S
C1207 N1204 1.350 . S
C1207 C1206 1.434 . S
C1208 C1209 1.369 . S
C1208 C1210 1.419 . S
C1208 H1212 0.930 . S
C1209 C1208 1.369 . S
C1209 C1218 1.429 . S
C1210 C1208 1.419 . S
C1210 C1211 1.363 . S
C1210 H1213 0.929 . S
C1211 C1210 1.363 . S
C1211 C1217 1.428 . S
H1212 C1208 0.930 . S
H1213 C1210 0.929 . S
S1214 N1215 1.613 . S
S1214 N1216 1.610 . S
N1215 S1214 1.613 . S
N1215 C1218 1.350 . S
N1216 S1214 1.610 . S
N1216 C1217 1.351 . S
C1217 C1211 1.428 . S
C1217 N1216 1.351 . S
C1217 C1218 1.434 . S
C1218 C1209 1.429 . S
C1218 N1215 1.350 . S
C1218 C1217 1.434 . S
C1219 C1220 1.369 . S
C1219 C1221 1.419 . S
C1219 H1223 0.930 . S
C1220 C1219 1.369 . S
C1220 C1229 1.429 . S
C1221 C1219 1.419 . S
C1221 C1222 1.363 . S
C1221 H1224 0.929 . S
C1222 C1221 1.363 . S
C1222 C1228 1.428 . S
H1223 C1219 0.930 . S
H1224 C1221 0.929 . S
S1225 N1226 1.613 . S
S1225 N1227 1.610 . S
N1226 S1225 1.613 . S
N1226 C1229 1.350 . S
N1227 S1225 1.610 . S
N1227 C1228 1.351 . S
C1228 C1222 1.428 . S
C1228 N1227 1.351 . S
C1228 C1229 1.434 . S
C1229 C1220 1.429 . S
C1229 N1226 1.350 . S
C1229 C1228 1.434 . S
C1230 C1231 1.369 . S
C1230 C1232 1.419 . S
C1230 H1234 0.930 . S
C1231 C1230 1.369 . S
C1231 C1240 1.429 . S
C1232 C1230 1.419 . S
C1232 C1233 1.363 . S
C1232 H1235 0.929 . S
C1233 C1232 1.363 . S
C1233 C1239 1.428 . S
H1234 C1230 0.930 . S
H1235 C1232 0.929 . S
S1236 N1237 1.613 . S
S1236 N1238 1.610 . S
N1237 S1236 1.613 . S
N1237 C1240 1.350 . S
N1238 S1236 1.610 . S
N1238 C1239 1.351 . S
C1239 C1233 1.428 . S
C1239 N1238 1.351 . S
C1239 C1240 1.434 . S
C1240 C1231 1.429 . S
C1240 N1237 1.350 . S
C1240 C1239 1.434 . S
C1241 C1242 1.369 . S
C1241 C1243 1.419 . S
C1241 H1245 0.930 . S
C1242 C1241 1.369 . S
C1242 C1251 1.429 . S
C1243 C1241 1.419 . S
C1243 C1244 1.363 . S
C1243 H1246 0.929 . S
C1244 C1243 1.363 . S
C1244 C1250 1.428 . S
H1245 C1241 0.930 . S
H1246 C1243 0.929 . S
S1247 N1248 1.613 . S
S1247 N1249 1.610 . S
N1248 S1247 1.613 . S
N1248 C1251 1.350 . S
N1249 S1247 1.610 . S
N1249 C1250 1.351 . S
C1250 C1244 1.428 . S
C1250 N1249 1.351 . S
C1250 C1251 1.434 . S
C1251 C1242 1.429 . S
C1251 N1248 1.350 . S
C1251 C1250 1.434 . S
C1252 C1253 1.369 . S
C1252 C1254 1.419 . S
C1252 H1256 0.930 . S
C1253 C1252 1.369 . S
C1253 C1262 1.429 . S
C1254 C1252 1.419 . S
C1254 C1255 1.363 . S
C1254 H1257 0.929 . S
C1255 C1254 1.363 . S
C1255 C1261 1.428 . S
H1256 C1252 0.930 . S
H1257 C1254 0.929 . S
S1258 N1259 1.613 . S
S1258 N1260 1.610 . S
N1259 S1258 1.613 . S
N1259 C1262 1.350 . S
N1260 S1258 1.610 . S
N1260 C1261 1.351 . S
C1261 C1255 1.428 . S
C1261 N1260 1.351 . S
C1261 C1262 1.434 . S
C1262 C1253 1.429 . S
C1262 N1259 1.350 . S
C1262 C1261 1.434 . S
C1263 C1264 1.369 . S
C1263 C1265 1.419 . S
C1263 H1267 0.930 . S
C1264 C1263 1.369 . S
C1264 C1273 1.429 . S
C1265 C1263 1.419 . S
C1265 C1266 1.363 . S
C1265 H1268 0.929 . S
C1266 C1265 1.363 . S
C1266 C1272 1.428 . S
H1267 C1263 0.930 . S
H1268 C1265 0.929 . S
S1269 N1270 1.613 . S
S1269 N1271 1.610 . S
N1270 S1269 1.613 . S
N1270 C1273 1.350 . S
N1271 S1269 1.610 . S
N1271 C1272 1.351 . S
C1272 C1266 1.428 . S
C1272 N1271 1.351 . S
C1272 C1273 1.434 . S
C1273 C1264 1.429 . S
C1273 N1270 1.350 . S
C1273 C1272 1.434 . S
C1274 C1275 1.369 . S
C1274 C1276 1.419 . S
C1274 H1278 0.930 . S
C1275 C1274 1.369 . S
C1275 C1284 1.429 . S
C1276 C1274 1.419 . S
C1276 C1277 1.363 . S
C1276 H1279 0.929 . S
C1277 C1276 1.363 . S
C1277 C1283 1.428 . S
H1278 C1274 0.930 . S
H1279 C1276 0.929 . S
S1280 N1281 1.613 . S
S1280 N1282 1.610 . S
N1281 S1280 1.613 . S
N1281 C1284 1.350 . S
N1282 S1280 1.610 . S
N1282 C1283 1.351 . S
C1283 C1277 1.428 . S
C1283 N1282 1.351 . S
C1283 C1284 1.434 . S
C1284 C1275 1.429 . S
C1284 N1281 1.350 . S
C1284 C1283 1.434 . S
C1285 C1286 1.369 . S
C1285 C1287 1.419 . S
C1285 H1289 0.930 . S
C1286 C1285 1.369 . S
C1286 C1295 1.429 . S
C1287 C1285 1.419 . S
C1287 C1288 1.363 . S
C1287 H1290 0.929 . S
C1288 C1287 1.363 . S
C1288 C1294 1.428 . S
H1289 C1285 0.930 . S
H1290 C1287 0.929 . S
S1291 N1292 1.613 . S
S1291 N1293 1.610 . S
N1292 S1291 1.613 . S
N1292 C1295 1.350 . S
N1293 S1291 1.610 . S
N1293 C1294 1.351 . S
C1294 C1288 1.428 . S
C1294 N1293 1.351 . S
C1294 C1295 1.434 . S
C1295 C1286 1.429 . S
C1295 N1292 1.350 . S
C1295 C1294 1.434 . S
C505 C230 1.232 . S
C507 C6 1.229 . S
C516 C244 1.239 . S
C518 C20 1.230 . S
C527 C34 1.225 . S
C529 C216 1.237 . S
C538 C370 1.227 . S
C540 C48 1.233 . S
C549 C342 1.236 . S
C551 C62 1.227 . S
C560 C76 1.234 . S
C562 C356 1.228 . S
C571 C482 1.233 . S
C573 C90 1.234 . S
C582 C496 1.240 . S
C584 C104 1.228 . S
C593 C468 1.236 . S
C595 C118 1.227 . S
C604 C286 1.237 . S
C606 C132 1.227 . S
C615 C146 1.232 . S
C617 C258 1.230 . S
C626 C272 1.231 . S
C628 C160 1.230 . S
C637 C398 1.225 . S
C639 C174 1.237 . S
C648 C188 1.230 . S
C650 C412 1.238 . S
C659 C384 1.228 . S
C661 C202 1.232 . S
C670 C454 1.227 . S
C672 C300 1.238 . S
C681 C426 1.238 . S
C683 C314 1.230 . S
C692 C328 1.233 . S
C694 C440 1.236 . S
C703 C105 1.599 . S
C705 C8 1.641 . S
C714 C119 1.596 . S
C716 C22 1.645 . S
C725 C91 1.591 . S
C727 C36 1.648 . S
C736 C50 1.647 . S
C738 C161 1.594 . S
C747 C133 1.596 . S
C749 C64 1.643 . S
C758 C78 1.647 . S
C760 C147 1.591 . S
C769 C21 1.593 . S
C771 C92 1.647 . S
C780 C106 1.646 . S
C782 C35 1.592 . S
C791 C7 1.601 . S
C793 C120 1.643 . S
C802 C77 1.594 . S
C804 C134 1.643 . S
C813 C49 1.597 . S
C815 C148 1.646 . S
C824 C162 1.643 . S
C826 C63 1.594 . S
C835 C176 1.648 . S
C837 C273 1.593 . S
C846 C287 1.591 . S
C848 C190 1.647 . S
C857 C259 1.590 . S
C859 C204 1.648 . S
C868 C218 1.646 . S
C870 C329 1.591 . S
C879 C301 1.592 . S
C881 C232 1.646 . S
C890 C246 1.648 . S
C892 C315 1.592 . S
C901 C260 1.645 . S
C903 C189 1.596 . S
C912 C274 1.648 . S
C914 C203 1.591 . S
C923 C175 1.597 . S
C925 C288 1.646 . S
C934 C245 1.595 . S
C936 C302 1.642 . S
C945 C217 1.599 . S
C947 C316 1.645 . S
C956 C330 1.641 . S
C958 C231 1.599 . S
C967 C441 1.589 . S
C969 C344 1.647 . S
C978 C358 1.644 . S
C980 C455 1.597 . S
C989 C372 1.649 . S
C991 C427 1.592 . S
C1000 C497 1.589 . S
C1002 C386 1.647 . S
C1011 C400 1.645 . S
C1013 C469 1.597 . S
C1022 C483 1.597 . S
C1024 C414 1.644 . S
C1033 C357 1.591 . S
C1035 C428 1.645 . S
C1044 C371 1.591 . S
C1046 C442 1.645 . S
C1055 C456 1.646 . S
C1057 C343 1.597 . S
C1066 C470 1.647 . S
C1068 C413 1.590 . S
C1077 C385 1.598 . S
C1079 C484 1.645 . S
C1088 C399 1.598 . S
C1090 C498 1.645 . S
C1099 C9 1.733 . S
C1101 C51 1.736 . S
C1110 C23 1.736 . S
C1112 C65 1.734 . S
C1121 C79 1.736 . S
C1123 C37 1.733 . S
C1132 C93 1.733 . S
C1134 C135 1.733 . S
C1143 C149 1.733 . S
C1145 C107 1.736 . S
C1154 C163 1.736 . S
C1156 C121 1.735 . S
C1165 C177 1.733 . S
C1167 C219 1.736 . S
C1176 C191 1.736 . S
C1178 C233 1.734 . S
C1187 C247 1.732 . S
C1189 C205 1.735 . S
C1198 C261 1.732 . S
C1200 C303 1.734 1_554 S
C1209 C275 1.735 . S
C1211 C317 1.733 1_554 S
C1220 C289 1.736 . S
C1222 C331 1.733 1_554 S
C1231 C387 1.732 1_556 S
C1233 C345 1.733 . S
C1242 C401 1.736 1_556 S
C1244 C359 1.734 . S
C1253 C415 1.732 1_556 S
C1255 C373 1.735 . S
C1264 C429 1.734 . S
C1266 C471 1.736 . S
C1275 C485 1.732 . S
C1277 C443 1.736 . S
C1286 C499 1.734 . S
C1288 C457 1.733 . S
