# Generated by pormake.
# Topology upc, (4)-cn, num edge types: 1
# Building blocks:
#     Node 0, Type 0, BuildingBlock: ICAMEG_clean_sbu_1, # of connection points: 4
#     Node 1, Type 0, BuildingBlock: ICAMEG_clean_sbu_1, # of connection points: 4
#     Node 2, Type 0, BuildingBlock: ICAMEG_clean_sbu_1, # of connection points: 4
#     Node 3, Type 0, BuildingBlock: ICAMEG_clean_sbu_1, # of connection points: 4
#     Node 4, Type 0, BuildingBlock: ICAMEG_clean_sbu_1, # of connection points: 4
#     Node 5, Type 0, BuildingBlock: ICAMEG_clean_sbu_1, # of connection points: 4
#     Node 6, Type 0, BuildingBlock: ICAMEG_clean_sbu_1, # of connection points: 4
#     Node 7, Type 0, BuildingBlock: ICAMEG_clean_sbu_1, # of connection points: 4
#     Node 8, Type 0, BuildingBlock: ICAMEG_clean_sbu_1, # of connection points: 4
#     Node 9, Type 0, BuildingBlock: ICAMEG_clean_sbu_1, # of connection points: 4
#     Node 10, Type 0, BuildingBlock: ICAMEG_clean_sbu_1, # of connection points: 4
#     Node 11, Type 0, BuildingBlock: ICAMEG_clean_sbu_1, # of connection points: 4
#     Node 12, Type 0, BuildingBlock: ICAMEG_clean_sbu_1, # of connection points: 4
#     Node 13, Type 0, BuildingBlock: ICAMEG_clean_sbu_1, # of connection points: 4
#     Node 14, Type 0, BuildingBlock: ICAMEG_clean_sbu_1, # of connection points: 4
#     Node 15, Type 0, BuildingBlock: ICAMEG_clean_sbu_1, # of connection points: 4
#     Edge 16, Type (0, 0), BuildingBlock: AJUNOK_clean_linker_0, # of connection points: 2
#     Edge 17, Type (0, 0), BuildingBlock: AJUNOK_clean_linker_0, # of connection points: 2
#     Edge 18, Type (0, 0), BuildingBlock: AJUNOK_clean_linker_0, # of connection points: 2
#     Edge 19, Type (0, 0), BuildingBlock: AJUNOK_clean_linker_0, # of connection points: 2
#     Edge 20, Type (0, 0), BuildingBlock: AJUNOK_clean_linker_0, # of connection points: 2
#     Edge 21, Type (0, 0), BuildingBlock: AJUNOK_clean_linker_0, # of connection points: 2
#     Edge 22, Type (0, 0), BuildingBlock: AJUNOK_clean_linker_0, # of connection points: 2
#     Edge 23, Type (0, 0), BuildingBlock: AJUNOK_clean_linker_0, # of connection points: 2
#     Edge 24, Type (0, 0), BuildingBlock: AJUNOK_clean_linker_0, # of connection points: 2
#     Edge 25, Type (0, 0), BuildingBlock: AJUNOK_clean_linker_0, # of connection points: 2
#     Edge 26, Type (0, 0), BuildingBlock: AJUNOK_clean_linker_0, # of connection points: 2
#     Edge 27, Type (0, 0), BuildingBlock: AJUNOK_clean_linker_0, # of connection points: 2
#     Edge 28, Type (0, 0), BuildingBlock: AJUNOK_clean_linker_0, # of connection points: 2
#     Edge 29, Type (0, 0), BuildingBlock: AJUNOK_clean_linker_0, # of connection points: 2
#     Edge 30, Type (0, 0), BuildingBlock: AJUNOK_clean_linker_0, # of connection points: 2
#     Edge 31, Type (0, 0), BuildingBlock: AJUNOK_clean_linker_0, # of connection points: 2
#     Edge 32, Type (0, 0), BuildingBlock: AJUNOK_clean_linker_0, # of connection points: 2
#     Edge 33, Type (0, 0), BuildingBlock: AJUNOK_clean_linker_0, # of connection points: 2
#     Edge 34, Type (0, 0), BuildingBlock: AJUNOK_clean_linker_0, # of connection points: 2
#     Edge 35, Type (0, 0), BuildingBlock: AJUNOK_clean_linker_0, # of connection points: 2
#     Edge 36, Type (0, 0), BuildingBlock: AJUNOK_clean_linker_0, # of connection points: 2
#     Edge 37, Type (0, 0), BuildingBlock: AJUNOK_clean_linker_0, # of connection points: 2
#     Edge 38, Type (0, 0), BuildingBlock: AJUNOK_clean_linker_0, # of connection points: 2
#     Edge 39, Type (0, 0), BuildingBlock: AJUNOK_clean_linker_0, # of connection points: 2
#     Edge 40, Type (0, 0), BuildingBlock: AJUNOK_clean_linker_0, # of connection points: 2
#     Edge 41, Type (0, 0), BuildingBlock: AJUNOK_clean_linker_0, # of connection points: 2
#     Edge 42, Type (0, 0), BuildingBlock: AJUNOK_clean_linker_0, # of connection points: 2
#     Edge 43, Type (0, 0), BuildingBlock: AJUNOK_clean_linker_0, # of connection points: 2
#     Edge 44, Type (0, 0), BuildingBlock: AJUNOK_clean_linker_0, # of connection points: 2
#     Edge 45, Type (0, 0), BuildingBlock: AJUNOK_clean_linker_0, # of connection points: 2
#     Edge 46, Type (0, 0), BuildingBlock: AJUNOK_clean_linker_0, # of connection points: 2
#     Edge 47, Type (0, 0), BuildingBlock: AJUNOK_clean_linker_0, # of connection points: 2
# Relax obj value: 0.215
# Max RMSD: 0.212
# Mean RMSD: 0.212
data_MOF--net-upc--node1-ICAMEG_clean_sbu_1--edge1-AJUNOK_clean_linker_0
_symmetry_space_group_name_H-M    P1
_symmetry_Int_Tables_number       1
_symmetry_cell_setting            triclinic
loop_
_symmetry_equiv_pos_as_xyz
'x, y, z'
_cell_length_a     26.325083
_cell_length_b     26.313693
_cell_length_c     35.052097
_cell_angle_alpha  89.880757
_cell_angle_beta   90.470967
_cell_angle_gamma 90.006827
loop_
_atom_site_label
_atom_site_type_symbol
_atom_site_fract_x
_atom_site_fract_y
_atom_site_fract_z
_atom_type_partial_charge
Co0 Co 0.11314 0.62704 0.17534 0.0
Co1 Co 0.05767 0.70345 0.10948 0.0
O2 O 0.06975 0.63716 0.13168 0.0
C3 C 0.01727 0.58097 0.19521 0.0
O4 O 0.99595 0.62342 0.1838 0.0
C5 C 0.06428 0.62189 0.05007 0.0
O6 O 0.10761 0.60738 0.06533 0.0
O7 O 0.13301 0.71173 0.10155 0.0
O8 O 0.16158 0.68148 0.15787 0.0
H9 H 0.09615 0.88697 0.08346 0.0
H10 H 0.08598 0.53533 0.13 0.0
O11 O 0.06499 0.57495 0.19287 0.0
H12 H 0.27309 0.54409 0.12886 0.0
H13 H 0.17018 0.52173 0.28578 0.0
H14 H 0.162 0.69499 0.23227 0.0
H15 H 0.22297 0.60924 0.16218 0.0
H16 H 0.14655 0.53543 0.21837 0.0
O17 O 0.04659 0.66587 0.05878 0.0
H18 H 0.10507 0.80494 0.11696 0.0
H19 H 0.98781 0.74121 0.04825 0.0
H20 H 0.18504 0.68306 0.30003 0.0
H21 H 0.13457 0.46871 0.09688 0.0
H22 H 0.18641 0.596 0.32751 0.0
H23 H 0.22881 0.47287 0.09621 0.0
O24 O 0.07418 0.67744 0.20362 0.0
H25 H 0.88977 0.61109 0.10801 0.0
H26 H 0.97781 0.77005 0.14273 0.0
H27 H 0.8864 0.76056 0.15639 0.0
H28 H 0.84169 0.68119 0.13833 0.0
H29 H 0.98124 0.62061 0.09716 0.0
H30 H 0.97781 0.8226 1.01378 0.0
H31 H 0.0325 0.89596 0.03139 0.0
O32 O 0.06498 0.74031 0.16143 0.0
C33 C 0.16744 0.70848 0.12765 0.0
C34 C 0.07216 0.8552 0.07559 0.0
C35 C 1.00577 0.81902 0.03644 0.0
N36 N 0.04683 0.76845 0.08468 0.0
C37 C 0.07682 0.80876 0.0946 0.0
C38 C 0.01156 0.77309 0.05606 0.0
C39 C 0.03653 0.86017 0.04622 0.0
C40 C 0.12699 0.5372 0.13005 0.0
N41 N 0.15169 0.57619 0.148 0.0
C42 C 0.15428 0.4995 0.11108 0.0
C43 C 0.20716 0.50192 0.11062 0.0
C44 C 0.23203 0.54187 0.12893 0.0
C45 C 0.20349 0.57882 0.14762 0.0
C46 C 0.16892 0.55985 0.27417 0.0
C47 C 0.1649 0.65688 0.24364 0.0
C48 C 0.15643 0.56781 0.23584 0.0
N49 N 0.15278 0.61597 0.22139 0.0
C50 C 0.17719 0.65043 0.28218 0.0
C51 C 0.17809 0.60159 0.29761 0.0
C52 C 0.06425 0.72325 0.19593 0.0
C53 C 0.90873 0.6462 0.11559 0.0
C54 C 0.95879 0.73502 0.13522 0.0
C55 C 0.90696 0.7301 0.14276 0.0
C56 C 0.88183 0.68546 0.13269 0.0
N57 N 0.9851 0.69624 0.1186 0.0
C58 C 0.96061 0.65219 0.10893 0.0
Co59 Co 0.92115 0.11985 0.16403 0.0
Co60 Co 0.84791 0.05081 0.10394 0.0
O61 O 0.91453 0.07604 0.12001 0.0
C62 C 0.99324 0.03941 0.17998 0.0
O63 O 0.96182 0.00889 0.16222 0.0
C64 C 0.91626 0.06725 0.03728 0.0
O65 O 0.92716 0.11252 0.05072 0.0
O66 O 0.82586 0.12316 0.09566 0.0
O67 O 0.85406 0.15451 0.15158 0.0
H68 H 0.65713 0.05197 0.09698 0.0
H69 H 0.00999 0.1183 0.11228 0.0
O70 O 0.9869 0.08699 0.17723 0.0
H71 H 0.95422 0.2971 0.1164 0.0
H72 H 0.02397 0.19876 0.26829 0.0
H73 H 0.85196 0.14818 0.2269 0.0
H74 H 0.90753 0.23084 0.1513 0.0
H75 H 0.00682 0.17583 0.20124 0.0
O76 O 0.87737 0.04375 0.05036 0.0
H77 H 0.74143 0.08153 0.11866 0.0
H78 H 0.81304 0.97042 0.04974 0.0
H79 H 0.86802 0.16787 0.29461 0.0
H80 H 0.05883 0.18369 0.07767 0.0
H81 H 0.95489 0.19256 0.31585 0.0
H82 H 0.03101 0.27377 0.07978 0.0
O83 O 0.88676 0.06752 0.19482 0.0
H84 H 0.96543 0.89989 0.0968 0.0
H85 H 0.80172 0.9628 0.14465 0.0
H86 H 0.8273 0.87444 0.1579 0.0
H87 H 0.90981 0.84256 0.13371 0.0
H88 H 0.93927 0.98797 0.08491 0.0
H89 H 0.72935 0.93814 0.02878 0.0
H90 H 0.6508 0.97895 0.05244 0.0
O91 O 0.81895 0.05414 0.15821 0.0
C92 C 0.82489 0.15706 0.12199 0.0
C93 C 0.69116 0.03371 0.08662 0.0
C94 C 0.73172 0.97005 0.04812 0.0
N95 N 0.78213 0.02751 0.0857 0.0
C96 C 0.73902 0.05037 0.0987 0.0
C97 C 0.77897 0.98839 0.06019 0.0
C98 C 0.6876 0.99296 0.06144 0.0
C99 C 0.99783 0.15749 0.11341 0.0
N100 N 0.95621 0.17084 0.13413 0.0
C101 C 0.02545 0.19426 0.0936 0.0
C102 C 0.00981 0.24482 0.09473 0.0
C103 C 0.96679 0.25796 0.11534 0.0
C104 C 0.94037 0.22025 0.135 0.0
C105 C 0.98612 0.18754 0.25945 0.0
C106 C 0.88963 0.1596 0.23575 0.0
C107 C 0.97591 0.17555 0.22133 0.0
N108 N 0.92856 0.15984 0.2102 0.0
C109 C 0.89866 0.17013 0.27427 0.0
C110 C 0.94738 0.18388 0.28617 0.0
C111 C 0.8412 0.05315 0.19098 0.0
C112 C 0.92924 0.91325 0.10704 0.0
C113 C 0.83784 0.94939 0.13426 0.0
C114 C 0.85195 0.89915 0.14168 0.0
C115 C 0.89806 0.88114 0.128 0.0
N116 N 0.86877 0.98091 0.11379 0.0
C117 C 0.91382 0.96314 0.1 0.0
Co118 Co 0.38852 0.92395 0.18744 0.0
Co119 Co 0.45265 0.86404 0.11785 0.0
O120 O 0.43242 0.92614 0.14347 0.0
C121 C 0.47243 0.99074 0.20626 0.0
O122 O 0.50202 0.95509 0.19293 0.0
C123 C 0.4414 0.95022 0.06143 0.0
O124 O 0.39792 0.96196 0.07715 0.0
O125 O 0.37864 0.84936 0.10702 0.0
O126 O 0.35068 0.86341 0.16648 0.0
H127 H 0.43673 0.67997 0.08203 0.0
H128 H 0.39666 0.02374 0.14782 0.0
O129 O 0.425 0.98376 0.20825 0.0
H130 H 0.21643 0.9748 0.1367 0.0
H131 H 0.32109 1.00015 0.30684 0.0
H132 H 0.34812 0.84111 0.23594 0.0
H133 H 0.27731 0.91991 0.17113 0.0
H134 H 0.34411 1.00245 0.23885 0.0
O135 O 0.46173 0.90707 0.06942 0.0
H136 H 0.41609 0.75752 0.11815 0.0
H137 H 0.52795 0.84026 0.05731 0.0
H138 H 0.32274 0.83712 0.30328 0.0
H139 H 0.33679 0.08047 0.1142 0.0
H140 H 0.31203 0.91717 0.33974 0.0
H141 H 0.24598 0.05593 0.10813 0.0
O142 O 0.43765 0.87873 0.21333 0.0
H143 H 0.61128 0.97114 0.126 0.0
H144 H 0.53781 0.8017 0.1492 0.0
H145 H 0.62828 0.81681 0.16371 0.0
H146 H 0.66579 0.90197 0.15177 0.0
H147 H 0.52098 0.95493 0.11283 0.0
H148 H 0.54927 0.76378 0.02014 0.0
H149 H 0.50336 0.68316 0.03239 0.0
O150 O 0.44783 0.82141 0.16735 0.0
C151 C 0.34559 0.84324 0.13342 0.0
C152 C 0.457 0.71498 0.07649 0.0
C153 C 0.52014 0.76205 0.04172 0.0
N154 N 0.47103 0.80325 0.09005 0.0
C155 C 0.44563 0.75895 0.09696 0.0
C156 C 0.50781 0.80524 0.06279 0.0
C157 C 0.49443 0.71673 0.04865 0.0
C158 C 0.35702 0.01327 0.14619 0.0
N159 N 0.34045 0.96875 0.16194 0.0
C160 C 0.32336 0.04538 0.12674 0.0
C161 C 0.27246 0.03153 0.12324 0.0
C162 C 0.25589 0.98599 0.13921 0.0
C163 C 0.29061 0.95496 0.1586 0.0
C164 C 0.32641 0.96506 0.29132 0.0
C165 C 0.34047 0.8761 0.25086 0.0
C166 C 0.33902 0.96609 0.25269 0.0
N167 N 0.34807 0.92196 0.23341 0.0
C168 C 0.32713 0.87357 0.2893 0.0
C169 C 0.32119 0.91846 0.30978 0.0
C170 C 0.44882 0.83402 0.20289 0.0
C171 C 0.59558 0.93375 0.13093 0.0
C172 C 0.55359 0.83903 0.14426 0.0
C173 C 0.60499 0.84727 0.15236 0.0
C174 C 0.62605 0.89499 0.14558 0.0
N175 N 0.52387 0.87721 0.12977 0.0
C176 C 0.54439 0.92411 0.12309 0.0
Co177 Co 0.57386 0.33972 0.17794 0.0
Co178 Co 0.6438 0.42414 0.12653 0.0
O179 O 0.57947 0.39614 0.14224 0.0
C180 C 0.50599 0.41694 0.20484 0.0
O181 O 0.5432 0.44814 0.19704 0.0
C182 C 0.56859 0.42776 0.06065 0.0
O183 O 0.55338 0.38171 0.0691 0.0
O184 O 0.66435 0.35427 0.10852 0.0
O185 O 0.63922 0.30827 0.15946 0.0
H186 H 0.83358 0.42276 0.1124 0.0
H187 H 0.48192 0.36137 0.13055 0.0
O188 O 0.51039 0.3699 0.19802 0.0
H189 H 0.53907 0.1913 0.09055 0.0
H190 H 0.46739 0.2091 0.24466 0.0
H191 H 0.62918 0.30283 0.24832 0.0
H192 H 0.58422 0.23718 0.14174 0.0
H193 H 0.49141 0.26322 0.19147 0.0
O194 O 0.61024 0.44426 0.07548 0.0
H195 H 0.75089 0.39096 0.13482 0.0
H196 H 0.67548 0.51453 0.08074 0.0
H197 H 0.59924 0.25887 0.30577 0.0
H198 H 0.43472 0.31595 0.08008 0.0
H199 H 0.52007 0.20841 0.30345 0.0
H200 H 0.46361 0.23056 0.05941 0.0
O201 O 0.61443 0.37952 0.21648 0.0
H202 H 0.52732 0.57484 0.14298 0.0
H203 H 0.69501 0.50216 0.17488 0.0
H204 H 0.67217 0.58673 0.19933 0.0
H205 H 0.5879 0.62384 0.1832 0.0
H206 H 0.55086 0.48985 0.12027 0.0
H207 H 0.75724 0.5474 0.05733 0.0
H208 H 0.83712 0.5015 0.07326 0.0
O209 O 0.67612 0.40879 0.17855 0.0
C210 C 0.66678 0.31434 0.12973 0.0
C211 C 0.79905 0.44312 0.10526 0.0
C212 C 0.7562 0.51302 0.07431 0.0
N213 N 0.70834 0.4508 0.10906 0.0
C214 C 0.75211 0.42532 0.11793 0.0
C215 C 0.70995 0.49408 0.08748 0.0
C216 C 0.80101 0.48727 0.08329 0.0
C217 C 0.4942 0.32381 0.12234 0.0
N218 N 0.53614 0.30232 0.13901 0.0
C219 C 0.46751 0.29842 0.09349 0.0
C220 C 0.48382 0.25057 0.08182 0.0
C221 C 0.52626 0.22861 0.09919 0.0
C222 C 0.55203 0.2551 0.12793 0.0
C223 C 0.50318 0.22933 0.24554 0.0
C224 C 0.59379 0.28244 0.2469 0.0
C225 C 0.51825 0.25904 0.21462 0.0
N226 N 0.56342 0.28521 0.21517 0.0
C227 C 0.57769 0.25652 0.27952 0.0
C228 C 0.53269 0.22897 0.27851 0.0
C229 C 0.6584 0.39923 0.21195 0.0
C230 C 0.5643 0.55925 0.14998 0.0
C231 C 0.65807 0.5177 0.16795 0.0
C232 C 0.64545 0.5658 0.18176 0.0
C233 C 0.59823 0.58665 0.17264 0.0
N234 N 0.62465 0.49094 0.14565 0.0
C235 C 0.5782 0.51124 0.13671 0.0
Co236 Co 0.14331 0.93335 0.36271 0.0
Co237 Co 0.06922 0.86109 0.42167 0.0
O238 O 0.09332 0.92642 0.40256 0.0
C239 C 0.05662 0.98461 0.33085 0.0
O240 O 0.0292 0.95002 0.34791 0.0
C241 C 0.07949 0.93753 0.48486 0.0
O242 O 0.12386 0.95069 0.47121 0.0
O243 O 0.14185 0.84037 0.43362 0.0
O244 O 0.18418 0.8749 0.38419 0.0
H245 H 0.07094 0.6712 0.4375 0.0
H246 H 0.11836 0.0287 0.40396 0.0
O247 O 0.10295 0.98982 0.34014 0.0
H248 H 0.30234 1.00302 0.42333 0.0
H249 H 0.21593 0.03515 0.2582 0.0
H250 H 0.19326 0.862 0.30935 0.0
H251 H 0.25135 0.94074 0.38728 0.0
H252 H 0.19147 0.02198 0.32504 0.0
O253 O 0.05909 0.89591 0.47336 0.0
H254 H 0.09871 0.75335 0.41086 0.0
H255 H 0.98964 0.83102 0.47765 0.0
H256 H 0.21712 0.87352 0.24195 0.0
H257 H 0.16869 0.09396 0.43781 0.0
H258 H 0.22401 0.96095 0.2156 0.0
H259 H 0.26105 0.08085 0.44835 0.0
O260 O 0.10456 0.88651 0.32995 0.0
H261 H 0.91989 0.98052 0.41271 0.0
H262 H 0.98244 0.80864 0.38324 0.0
H263 H 0.89528 0.83265 0.36456 0.0
H264 H 0.86333 0.91921 0.37928 0.0
H265 H 1.0062 0.95495 0.43123 0.0
H266 H 0.96036 0.74969 0.50475 0.0
H267 H 1.00138 0.66903 0.48497 0.0
O268 O 0.07459 0.82706 0.36913 0.0
C269 C 0.18167 0.8442 0.41267 0.0
C270 C 0.05285 0.70609 0.44647 0.0
C271 C 0.99094 0.75015 0.48431 0.0
N272 N 0.04599 0.79697 0.44276 0.0
C273 C 0.0684 0.75273 0.43146 0.0
C274 C 0.00778 0.79613 0.46893 0.0
C275 C 0.01386 0.70489 0.4731 0.0
C276 C 0.1587 0.02303 0.40799 0.0
N277 N 0.18187 0.98074 0.39381 0.0
C278 C 0.1869 0.0599 0.42747 0.0
C279 C 0.23881 0.05264 0.43322 0.0
C280 C 0.26198 0.00897 0.41925 0.0
C281 C 0.2328 0.97345 0.39924 0.0
C282 C 0.21171 0.99701 0.26935 0.0
C283 C 0.19978 0.89996 0.29857 0.0
C284 C 0.19898 0.98922 0.30743 0.0
N285 N 0.19009 0.94127 0.32089 0.0
C286 C 0.21232 0.90625 0.26022 0.0
C287 C 0.21666 0.95522 0.24542 0.0
C288 C 0.08337 0.84407 0.33542 0.0
C289 C 0.93288 0.94236 0.40682 0.0
C290 C 0.96884 0.84625 0.39005 0.0
C291 C 0.91934 0.85961 0.37941 0.0
C292 C 0.90138 0.9081 0.38776 0.0
N293 N 0.99959 0.88005 0.4088 0.0
C294 C 0.98184 0.92743 0.41756 0.0
Co295 Co 0.65591 0.1531 0.35768 0.0
Co296 Co 0.68106 0.04239 0.40804 0.0
O297 O 0.63356 0.09267 0.38563 0.0
C298 C 0.59403 0.09932 0.30355 0.0
O299 O 0.62001 0.05926 0.31425 0.0
C300 C 0.58838 0.04826 0.46088 0.0
O301 O 0.57195 0.08935 0.44343 0.0
O302 O 0.71863 0.09881 0.43633 0.0
O303 O 0.71089 0.16396 0.39495 0.0
H304 H 0.85062 0.981 0.45596 0.0
H305 H 0.54259 0.15663 0.36515 0.0
O306 O 0.60209 0.14228 0.31851 0.0
H307 H 0.60369 0.2818 0.45869 0.0
H308 H 0.71191 0.2361 0.23675 0.0
H309 H 0.70796 0.25405 0.37608 0.0
H310 H 0.6638 0.23185 0.42254 0.0
H311 H 0.66772 0.17287 0.27559 0.0
O312 O 0.63239 0.03024 0.45276 0.0
H313 H 0.79222 0.03914 0.42202 0.0
H314 H 0.66857 0.94015 0.44404 0.0
H315 H 0.7522 0.3161 0.33892 0.0
H316 H 0.48132 0.20648 0.4008 0.0
H317 H 0.75372 0.30952 0.26804 0.0
H318 H 0.5112 0.27019 0.44799 0.0
O319 O 0.70203 0.1121 0.32672 0.0
H320 H 0.52797 0.94994 0.35483 0.0
H321 H 0.71501 0.95379 0.36179 0.0
H322 H 0.67234 0.8868 0.32455 0.0
H323 H 0.5781 0.88428 0.32108 0.0
H324 H 0.5719 0.01676 0.39093 0.0
H325 H 0.72595 0.87995 0.47682 0.0
H326 H 0.81785 0.90027 0.48292 0.0
O327 O 0.73015 0.0482 0.36323 0.0
C328 C 0.72986 0.14377 0.42467 0.0
C329 C 0.81088 0.97139 0.45295 0.0
C330 C 0.74084 0.91486 0.46496 0.0
N331 N 0.72698 0.99332 0.43129 0.0
C332 C 0.77755 1.00437 0.43404 0.0
C333 C 0.7085 0.94917 0.44644 0.0
C334 C 0.79237 0.92625 0.46833 0.0
C335 C 0.55708 0.18574 0.38383 0.0
N336 N 0.60828 0.19407 0.38807 0.0
C337 C 0.52156 0.21329 0.40479 0.0
C338 C 0.53827 0.2488 0.43136 0.0
C339 C 0.59009 0.25547 0.43721 0.0
C340 C 0.62449 0.22727 0.41569 0.0
C341 C 0.70981 0.24089 0.26736 0.0
C342 C 0.70524 0.25076 0.34575 0.0
C343 C 0.68399 0.20552 0.28969 0.0
N344 N 0.68083 0.211 0.32853 0.0
C345 C 0.73158 0.28648 0.32439 0.0
C346 C 0.73322 0.28204 0.2849 0.0
C347 C 0.72964 0.07343 0.33194 0.0
C348 C 0.56904 0.9502 0.35657 0.0
C349 C 0.67398 0.95306 0.36063 0.0
C350 C 0.65002 0.91492 0.33943 0.0
C351 C 0.59718 0.9135 0.3375 0.0
N352 N 0.64619 0.98867 0.37976 0.0
C353 C 0.59429 0.98772 0.37753 0.0
Co354 Co 0.36261 0.61483 0.34994 0.0
Co355 Co 0.45088 0.65593 0.41336 0.0
O356 O 0.41227 0.60019 0.39001 0.0
C357 C 0.42375 0.53145 0.32113 0.0
O358 O 0.46354 0.5559 0.3341 0.0
C359 C 0.44153 0.56807 0.47016 0.0
O360 O 0.39689 0.55646 0.4558 0.0
O361 O 0.38417 0.68489 0.43174 0.0
O362 O 0.34321 0.68071 0.37522 0.0
H363 H 0.48143 0.83849 0.4487 0.0
H364 H 0.35467 0.51616 0.39042 0.0
O365 O 0.37977 0.54971 0.32498 0.0
H366 H 0.18894 0.59996 0.4077 0.0
H367 H 0.27132 0.56729 0.23056 0.0
H368 H 0.33267 0.70934 0.30968 0.0
H369 H 0.2561 0.6411 0.36989 0.0
H370 H 0.29635 0.55271 0.29752 0.0
O371 O 0.46194 0.61085 0.46107 0.0
H372 H 0.43713 0.76764 0.41661 0.0
H373 H 0.54197 0.66231 0.46468 0.0
H374 H 0.30333 0.7261 0.24438 0.0
H375 H 0.28843 0.47333 0.42816 0.0
H376 H 0.27675 0.65405 0.2032 0.0
H377 H 0.20492 0.51546 0.43718 0.0
O378 O 0.41657 0.64801 0.32057 0.0
H379 H 0.58056 0.51891 0.38775 0.0
H380 H 0.5401 0.70095 0.37382 0.0
H381 H 0.62147 0.66846 0.34982 0.0
H382 H 0.64246 0.5769 0.35702 0.0
H383 H 0.49904 0.55246 0.41007 0.0
H384 H 0.587 0.73194 0.4976 0.0
H385 H 0.55704 0.82073 0.48937 0.0
O386 O 0.44542 0.70083 0.36494 0.0
C387 C 0.34752 0.69786 0.40922 0.0
C388 C 0.49495 0.79991 0.45234 0.0
C389 C 0.55416 0.7401 0.47985 0.0
N390 N 0.48704 0.71088 0.43859 0.0
C391 C 0.4701 0.75965 0.43418 0.0
C392 C 0.52836 0.7008 0.46124 0.0
C393 C 0.5373 0.78995 0.47525 0.0
C394 C 0.3183 0.53451 0.39401 0.0
N395 N 0.30935 0.58117 0.37821 0.0
C396 C 0.28098 0.51015 0.41547 0.0
C397 C 0.23416 0.53383 0.42056 0.0
C398 C 0.2252 0.58126 0.40408 0.0
C399 C 0.26342 0.60443 0.38277 0.0
C400 C 0.2838 0.5988 0.24809 0.0
C401 C 0.31686 0.67832 0.29333 0.0
C402 C 0.29796 0.59086 0.28612 0.0
N403 N 0.31708 0.62986 0.30756 0.0
C404 C 0.30147 0.68795 0.25584 0.0
C405 C 0.28651 0.64757 0.23277 0.0
C406 C 0.43938 0.6885 0.32967 0.0
C407 C 0.57206 0.55898 0.38473 0.0
C408 C 0.5485 0.66092 0.37675 0.0
C409 C 0.59487 0.6428 0.36325 0.0
C410 C 0.60668 0.59147 0.36736 0.0
N411 N 0.51464 0.6289 0.39391 0.0
C412 C 0.52605 0.57845 0.39786 0.0
Co413 Co 0.90934 0.36647 0.35263 0.0
Co414 Co 0.84431 0.43142 0.42167 0.0
O415 O 0.90424 0.4182 0.39147 0.0
C416 C 0.92603 0.46061 0.31182 0.0
O417 O 0.88616 0.47842 0.32954 0.0
C418 C 0.93722 0.43089 0.473 0.0
O419 O 0.95107 0.38822 0.4568 0.0
O420 O 0.8407 0.35704 0.43623 0.0
O421 O 0.87408 0.31533 0.38593 0.0
H422 H 0.66783 0.40098 0.4703 0.0
H423 H 1.00069 0.42223 0.3795 0.0
O424 O 0.94302 0.41669 0.3196 0.0
H425 H 0.04171 0.24069 0.39635 0.0
H426 H 0.98686 0.30779 0.23262 0.0
H427 H 0.83826 0.29332 0.31647 0.0
H428 H 0.95934 0.26724 0.36874 0.0
H429 H 0.99157 0.33606 0.29953 0.0
O430 O 0.89249 0.4483 0.46619 0.0
H431 H 0.74322 0.38328 0.43092 0.0
H432 H 0.82104 0.508 0.48123 0.0
H433 H 0.83139 0.26524 0.24927 0.0
H434 H 0.08425 0.3977 0.40606 0.0
H435 H 0.90495 0.276 0.20654 0.0
H436 H 0.10493 0.30635 0.41518 0.0
O437 O 0.84392 0.38772 0.32998 0.0
H438 H 0.93203 0.59827 0.39691 0.0
H439 H 0.76823 0.50734 0.39385 0.0
H440 H 0.77171 0.59694 0.3735 0.0
H441 H 0.85402 0.6431 0.37505 0.0
H442 H 0.92712 0.5085 0.41638 0.0
H443 H 0.74682 0.52693 0.52105 0.0
H444 H 0.66957 0.4738 0.51537 0.0
O445 O 0.79545 0.41908 0.37631 0.0
C446 C 0.85097 0.31585 0.41806 0.0
C447 C 0.70137 0.42458 0.47288 0.0
C448 C 0.74574 0.49521 0.50149 0.0
N449 N 0.78626 0.44475 0.45366 0.0
C450 C 0.74406 0.41478 0.45067 0.0
C451 C 0.7877 0.48419 0.47895 0.0
C452 C 0.70232 0.46527 0.49828 0.0
C453 C 0.00951 0.3824 0.38325 0.0
N454 N 0.97461 0.34606 0.37366 0.0
C455 C 0.05687 0.36874 0.39832 0.0
C456 C 0.06844 0.31748 0.40344 0.0
C457 C 0.03292 0.28064 0.39303 0.0
C458 C 0.98604 0.29577 0.37792 0.0
C459 C 0.95404 0.30433 0.25084 0.0
C460 C 0.87109 0.29549 0.29834 0.0
C461 C 0.95677 0.31929 0.28896 0.0
N462 N 0.91459 0.31792 0.3114 0.0
C463 C 0.86665 0.28071 0.26022 0.0
C464 C 0.90812 0.28642 0.23619 0.0
C465 C 0.80236 0.40635 0.34134 0.0
C466 C 0.89589 0.57863 0.39628 0.0
C467 C 0.80427 0.52702 0.39453 0.0
C468 C 0.80596 0.57784 0.38304 0.0
C469 C 0.85213 0.60373 0.38394 0.0
N470 N 0.84733 0.5026 0.40671 0.0
C471 C 0.89277 0.5278 0.40757 0.0
Co472 Co 0.86985 0.42492 0.85482 0.0
Co473 Co 0.94704 0.37418 0.92286 0.0
O474 O 0.91802 0.4327 0.89642 0.0
C475 C 0.94825 0.48718 0.821 0.0
O476 O 0.98103 0.45433 0.83485 0.0
C477 C 0.93614 0.46278 0.97738 0.0
O478 O 0.8921 0.4739 0.96174 0.0
O479 O 0.87601 0.35207 0.9372 0.0
O480 O 0.83753 0.36425 0.88012 0.0
H481 H 0.9562 0.19062 0.96228 0.0
H482 H 0.87701 0.52687 0.89078 0.0
O483 O 0.90165 0.48412 0.8294 0.0
H484 H 0.69852 0.47372 0.9053 0.0
H485 H 0.78989 0.49061 0.73581 0.0
H486 H 0.83025 0.33702 0.81087 0.0
H487 H 0.75996 0.41832 0.87271 0.0
H488 H 0.81581 0.49753 0.80329 0.0
O489 O 0.95665 0.4196 0.97005 0.0
H490 H 0.92118 0.26466 0.9277 0.0
H491 H 0.03195 0.36066 0.97895 0.0
H492 H 0.80241 0.3283 0.74392 0.0
H493 H 0.81668 0.58389 0.92307 0.0
H494 H 0.78531 0.40591 0.70533 0.0
H495 H 0.72679 0.55722 0.93073 0.0
O496 O 0.91768 0.38028 0.82836 0.0
H497 H 0.09017 0.49861 0.90228 0.0
H498 H 0.03599 0.31998 0.88983 0.0
H499 H 0.12213 0.34472 0.87006 0.0
H500 H 0.14997 0.43452 0.87658 0.0
H501 H 1.00401 0.47272 0.92055 0.0
H502 H 0.06841 0.28761 1.01379 0.0
H503 H 0.03054 0.20191 1.00548 0.0
O504 O 0.94236 0.32869 0.87534 0.0
C505 C 0.8395 0.34381 0.91332 0.0
C506 C 0.97308 0.2278 0.96606 0.0
C507 C 0.03597 0.28226 0.99506 0.0
N508 N 0.97474 0.31686 0.95105 0.0
C509 C 0.95344 0.26987 0.94654 0.0
C510 C 0.0151 0.32351 0.97531 0.0
C511 C 0.01474 0.23415 0.99035 0.0
C512 C 0.83784 0.51526 0.89369 0.0
N513 N 0.82204 0.46925 0.88008 0.0
C514 C 0.8039 0.5476 0.91214 0.0
C515 C 0.75349 0.53259 0.91646 0.0
C516 C 0.73761 0.48572 0.90226 0.0
C517 C 0.77261 0.45441 0.88397 0.0
C518 C 0.7981 0.45668 0.75224 0.0
C519 C 0.81955 0.37069 0.79502 0.0
C520 C 0.81213 0.46027 0.79063 0.0
N521 N 0.8252 0.41777 0.81093 0.0
C522 C 0.80496 0.36556 0.75682 0.0
C523 C 0.79544 0.40904 0.73514 0.0
C524 C 0.93745 0.33912 0.83968 0.0
C525 C 0.07865 0.45927 0.89959 0.0
C526 C 0.04753 0.35924 0.89252 0.0
C527 C 0.0965 0.37298 0.88138 0.0
C528 C 0.11213 0.42334 0.88507 0.0
N529 N 0.01493 0.39459 0.90709 0.0
C530 C 0.02993 0.44418 0.91036 0.0
Co531 Co 0.14011 0.85377 0.84212 0.0
Co532 Co 0.16221 0.95208 0.90088 0.0
O533 O 0.11403 0.90113 0.87991 0.0
C534 C 0.03407 0.88317 0.81922 0.0
O535 O 0.02263 0.89799 0.85371 0.0
C536 C 0.07012 0.94665 0.95437 0.0
O537 O 0.0554 0.90364 0.93901 0.0
O538 O 0.19655 0.89305 0.92721 0.0
O539 O 0.20519 0.84973 0.87242 0.0
H540 H 0.33528 0.01008 0.94382 0.0
H541 H 0.0485 0.82957 0.88937 0.0
O542 O 0.07428 0.85765 0.81282 0.0
H543 H 0.15181 0.6749 0.89732 0.0
H544 H 0.16371 0.81053 0.70382 0.0
H545 H 0.23774 0.78979 0.83179 0.0
H546 H 0.18209 0.74805 0.86231 0.0
H547 H 0.11916 0.84356 0.75861 0.0
O548 O 0.11356 0.96549 0.94551 0.0
H549 H 0.27344 0.95183 0.91389 0.0
H550 H 0.15352 0.05455 0.93724 0.0
H551 H 0.2812 0.75484 0.77774 0.0
H552 H 0.01668 0.75699 0.92505 0.0
H553 H 0.24535 0.76497 0.71262 0.0
H554 H 0.06813 0.67815 0.92923 0.0
O555 O 0.16209 0.91285 0.81275 0.0
H556 H 0.01122 0.046 0.84605 0.0
H557 H 0.19807 0.04132 0.8553 0.0
H558 H 0.15658 0.1075 0.81634 0.0
H559 H 0.0625 0.11009 0.81134 0.0
H560 H 0.05412 0.98037 0.88437 0.0
H561 H 0.21387 0.11385 0.96779 0.0
H562 H 0.30565 0.09188 0.97096 0.0
O563 O 0.21236 0.94561 0.85622 0.0
C564 C 0.21426 0.85541 0.90807 0.0
C565 C 0.29543 0.02014 0.94258 0.0
C566 C 0.2273 0.0783 0.95612 0.0
N567 N 0.20984 0.99956 0.92401 0.0
C568 C 0.26022 0.98724 0.92569 0.0
C569 C 0.1932 0.0444 0.93904 0.0
C570 C 0.27876 0.06598 0.95786 0.0
C571 C 0.07089 0.79588 0.88957 0.0
N572 N 0.11624 0.79383 0.87084 0.0
C573 C 0.05273 0.75453 0.91052 0.0
C574 C 0.08157 0.71041 0.91297 0.0
C575 C 0.12831 0.70854 0.89495 0.0
C576 C 0.14519 0.75073 0.87434 0.0
C577 C 0.17887 0.80397 0.7322 0.0
C578 C 0.21819 0.79172 0.80478 0.0
C579 C 0.15283 0.82156 0.76416 0.0
N580 N 0.17103 0.81373 0.80063 0.0
C581 C 0.24461 0.77263 0.77356 0.0
C582 C 0.22473 0.77869 0.73706 0.0
C583 C 0.201 0.93805 0.82115 0.0
C584 C 0.05226 0.04547 0.84817 0.0
C585 C 0.15707 0.04225 0.85365 0.0
C586 C 0.13379 0.07989 0.83144 0.0
C587 C 0.08102 0.08137 0.82867 0.0
N588 N 0.12868 0.00691 0.8727 0.0
C589 C 0.07687 0.00833 0.87006 0.0
Co590 Co 0.63363 0.10555 0.8666 0.0
Co591 Co 0.56106 0.1828 0.92209 0.0
O592 O 0.58289 0.11584 0.90545 0.0
C593 C 0.54639 0.05306 0.83674 0.0
O594 O 0.5196 0.0906 0.85051 0.0
C595 C 0.56725 0.10942 0.98771 0.0
O596 O 0.61301 0.09643 0.97677 0.0
O597 O 0.63379 0.20053 0.93518 0.0
O598 O 0.67521 0.16483 0.88603 0.0
H599 H 0.57026 0.37299 0.93076 0.0
H600 H 0.60545 0.01684 0.91454 0.0
O601 O 0.5927 0.04814 0.84625 0.0
H602 H 0.79051 0.03763 0.93138 0.0
H603 H 0.70833 0.99618 0.767 0.0
H604 H 0.68634 0.17247 0.81129 0.0
H605 H 0.74165 0.09649 0.89035 0.0
H606 H 0.6803 0.01365 0.8325 0.0
O607 O 0.54756 0.15045 0.9743 0.0
H608 H 0.59681 0.28802 0.90919 0.0
H609 H 0.48117 0.21948 0.97561 0.0
H610 H 0.71345 0.15665 0.74515 0.0
H611 H 0.65286 0.95665 0.95569 0.0
H612 H 0.72112 0.06773 0.72213 0.0
H613 H 0.74625 0.96659 0.96373 0.0
O614 O 0.59624 0.15078 0.83165 0.0
H615 H 0.40325 0.074 0.9188 0.0
H616 H 0.47868 0.23737 0.87995 0.0
H617 H 0.38952 0.21894 0.8633 0.0
H618 H 0.35096 0.13695 0.88315 0.0
H619 H 0.49262 0.09307 0.93357 0.0
H620 H 0.45379 0.30378 0.99834 0.0
H621 H 0.49779 0.38124 0.97501 0.0
O622 O 0.57021 0.2142 0.8687 0.0
C623 C 0.67333 0.19607 0.91413 0.0
C624 C 0.55055 0.33949 0.9408 0.0
C625 C 0.48525 0.30061 0.9788 0.0
N626 N 0.5403 0.24885 0.94086 0.0
C627 C 0.56531 0.29128 0.92861 0.0
C628 C 0.50109 0.25297 0.96598 0.0
C629 C 0.51004 0.34408 0.96586 0.0
C630 C 0.64603 0.02135 0.91811 0.0
N631 N 0.67084 0.06009 0.90015 0.0
C632 C 0.67264 0.98729 0.94148 0.0
C633 C 0.72496 0.99303 0.94619 0.0
C634 C 0.74989 0.03284 0.92795 0.0
C635 C 0.72203 0.06619 0.9049 0.0
C636 C 0.70403 0.03499 0.77659 0.0
C637 C 0.69248 0.13381 0.80202 0.0
C638 C 0.68929 0.0452 0.81394 0.0
N639 N 0.681 0.09405 0.82555 0.0
C640 C 0.70687 0.12508 0.76433 0.0
C641 C 0.71125 0.07525 0.75138 0.0
C642 C 0.57827 0.19496 0.83559 0.0
C643 C 0.41946 0.11001 0.91024 0.0
C644 C 0.46254 0.20132 0.8883 0.0
C645 C 0.41185 0.19122 0.87894 0.0
C646 C 0.39021 0.14528 0.89013 0.0
N647 N 0.49102 0.16671 0.90828 0.0
C648 C 0.47005 0.12137 0.919 0.0
Co649 Co 0.40694 0.62336 0.86112 0.0
Co650 Co 0.33286 0.56457 0.92782 0.0
O651 O 0.3966 0.57537 0.90193 0.0
C652 C 0.43064 0.52634 0.8275 0.0
O653 O 0.38826 0.50911 0.84204 0.0
C654 C 0.42029 0.56582 0.98421 0.0
O655 O 0.43575 0.60836 0.96853 0.0
O656 O 0.32824 0.6399 0.93884 0.0
O657 O 0.36553 0.67672 0.88776 0.0
H658 H 0.15117 0.60035 0.96104 0.0
H659 H 0.49586 0.57267 0.89734 0.0
O660 O 0.44618 0.57091 0.83477 0.0
H661 H 0.52912 0.75646 0.9086 0.0
H662 H 0.50546 0.67792 0.74785 0.0
H663 H 0.34001 0.68788 0.81232 0.0
H664 H 0.4513 0.725 0.87677 0.0
H665 H 0.49697 0.65048 0.81463 0.0
O666 O 0.37554 0.54941 0.97596 0.0
H667 H 0.23139 0.61322 0.92644 0.0
H668 H 0.30066 0.4932 0.98913 0.0
H669 H 0.34599 0.71073 0.74411 0.0
H670 H 0.5757 0.60198 0.92726 0.0
H671 H 0.42888 0.70513 0.71148 0.0
H672 H 0.5922 0.6945 0.93396 0.0
O673 O 0.34583 0.59868 0.83451 0.0
H674 H 0.41993 0.39478 0.91591 0.0
H675 H 0.25904 0.48812 0.8979 0.0
H676 H 0.26291 0.3971 0.8819 0.0
H677 H 0.34373 0.34969 0.89105 0.0
H678 H 0.41479 0.48593 0.93079 0.0
H679 H 0.22117 0.47887 0.02428 0.0
H680 H 0.14602 0.53262 1.01022 0.0
O681 O 0.2902 0.57502 0.87879 0.0
C682 C 0.33873 0.67906 0.9182 0.0
C683 C 0.18385 0.57675 0.96743 0.0
C684 C 0.22322 0.50867 1.00305 0.0
N685 N 0.27063 0.55408 0.95583 0.0
C686 C 0.22934 0.58387 0.94796 0.0
C687 C 0.26814 0.51706 0.98313 0.0
C688 C 0.18093 0.5388 0.99509 0.0
C689 C 0.503 0.61299 0.89977 0.0
N690 N 0.46824 0.64734 0.88632 0.0
C691 C 0.5482 0.62937 0.91688 0.0
C692 C 0.55746 0.68128 0.92056 0.0
C693 C 0.52201 0.71605 0.9065 0.0
C694 C 0.47757 0.69821 0.88909 0.0
C695 C 0.46904 0.68041 0.76183 0.0
C696 C 0.37656 0.68642 0.79852 0.0
C697 C 0.46424 0.66625 0.80004 0.0
N698 N 0.418 0.66758 0.81756 0.0
C699 C 0.37949 0.69879 0.75979 0.0
C700 C 0.42606 0.69555 0.74139 0.0
C701 C 0.30201 0.58373 0.84387 0.0
C702 C 0.38441 0.41493 0.91204 0.0
C703 C 0.29444 0.46791 0.90189 0.0
C704 C 0.29635 0.41628 0.89283 0.0
C705 C 0.34168 0.38969 0.898 0.0
N706 N 0.33644 0.49245 0.91584 0.0
C707 C 0.3811 0.46659 0.92077 0.0
Co708 Co 0.88529 0.11014 0.69362 0.0
Co709 Co 0.95965 0.16877 0.62924 0.0
O710 O 0.93271 0.10641 0.65157 0.0
C711 C 0.96367 0.03909 0.71845 0.0
O712 O 0.99627 0.07417 0.70833 0.0
C713 C 0.95351 0.08626 0.56898 0.0
O714 O 0.91069 0.07032 0.58367 0.0
O715 O 0.88823 0.18747 0.61413 0.0
O716 O 0.85271 0.1737 0.67149 0.0
H717 H 0.9589 0.3563 0.60267 0.0
H718 H 0.89008 0.01293 0.65091 0.0
O719 O 0.91645 0.04723 0.71481 0.0
H720 H 0.71247 0.07076 0.63911 0.0
H721 H 0.81202 0.03782 0.81227 0.0
H722 H 0.84446 0.19488 0.73976 0.0
H723 H 0.7749 0.12026 0.67644 0.0
H724 H 0.83464 0.03387 0.74427 0.0
O725 O 0.97208 0.12909 0.57985 0.0
H726 H 0.92737 0.27642 0.63058 0.0
H727 H 0.04515 0.19389 0.57662 0.0
H728 H 0.81815 0.20064 0.80673 0.0
H729 H 0.82865 0.96157 0.61404 0.0
H730 H 0.80513 0.12156 0.84419 0.0
H731 H 0.73918 0.99065 0.6077 0.0
O732 O 0.93498 0.15047 0.72255 0.0
H733 H 0.10963 0.05109 0.64476 0.0
H734 H 0.04456 0.2238 0.6683 0.0
H735 H 0.1314 0.20156 0.68898 0.0
H736 H 0.16466 0.11474 0.67704 0.0
H737 H 0.02259 0.07421 0.6258 0.0
H738 H 0.07768 0.27293 0.54768 0.0
H739 H 0.0349 0.35503 0.56144 0.0
O740 O 0.95158 0.20919 0.67907 0.0
C741 C 0.85202 0.19356 0.63799 0.0
C742 C 0.97796 0.3208 0.59668 0.0
C743 C 0.04457 0.27397 0.56576 0.0
N744 N 0.98447 0.23047 0.60531 0.0
C745 C 0.9603 0.27539 0.6124 0.0
C746 C 0.0258 0.22927 0.582 0.0
C747 C 0.02055 0.32001 0.57338 0.0
C748 C 0.85106 0.02545 0.64874 0.0
N749 N 0.83611 0.06956 0.66576 0.0
C750 C 0.8165 0.99635 0.62765 0.0
C751 C 0.76634 0.01273 0.62405 0.0
C752 C 0.75135 0.0577 0.64161 0.0
C753 C 0.78693 0.08569 0.66259 0.0
C754 C 0.81847 0.0725 0.79637 0.0
C755 C 0.83529 0.16034 0.7549 0.0
C756 C 0.83112 0.07052 0.75777 0.0
N757 N 0.84192 0.11398 0.73804 0.0
C758 C 0.82155 0.16386 0.79321 0.0
C759 C 0.81441 0.11952 0.81426 0.0
C760 C 0.94991 0.19456 0.71402 0.0
C761 C 0.09569 0.08913 0.64996 0.0
C762 C 0.05842 0.18575 0.66329 0.0
C763 C 0.10781 0.17347 0.67492 0.0
C764 C 0.12649 0.12481 0.66815 0.0
N765 N 0.02831 0.15057 0.64542 0.0
C766 C 0.04646 0.10272 0.63881 0.0
Co767 Co 0.42931 0.87222 0.67319 0.0
Co768 Co 0.36005 0.93657 0.60609 0.0
O769 O 0.42488 0.91676 0.62896 0.0
C770 C 0.48283 0.96257 0.69591 0.0
O771 O 0.44643 0.98608 0.6774 0.0
C772 C 0.43946 0.92359 0.54586 0.0
O773 O 0.45315 0.88079 0.56224 0.0
O774 O 0.34379 0.86263 0.59771 0.0
O775 O 0.37066 0.82961 0.65371 0.0
H776 H 0.17171 0.92397 0.58559 0.0
H777 H 0.52596 0.88961 0.63179 0.0
O778 O 0.48586 0.91448 0.69377 0.0
H779 H 0.4949 0.705 0.62488 0.0
H780 H 0.52476 0.79668 0.78312 0.0
H781 H 0.35496 0.83236 0.72904 0.0
H782 H 0.43468 0.76133 0.65769 0.0
H783 H 0.51517 0.82573 0.71658 0.0
O784 O 0.39706 0.94391 0.55521 0.0
H785 H 0.25412 0.90147 0.61468 0.0
H786 H 0.32877 0.01018 0.54507 0.0
H787 H 0.36318 0.80732 0.79659 0.0
H788 H 0.58864 0.83416 0.60035 0.0
H789 H 0.44872 0.78958 0.82409 0.0
H790 H 0.5727 0.74145 0.59597 0.0
O791 O 0.38208 0.91622 0.70113 0.0
H792 H 0.468 0.09523 0.60397 0.0
H793 H 0.30215 0.02291 0.63944 0.0
H794 H 0.31945 0.11342 0.65155 0.0
H795 H 0.40275 0.15033 0.63355 0.0
H796 H 0.45002 1.00462 0.59373 0.0
H797 H 0.24686 0.03392 0.51523 0.0
H798 H 0.1678 0.99064 0.53583 0.0
O799 O 0.323 0.9334 0.65722 0.0
C800 C 0.34381 0.82712 0.62298 0.0
C801 C 0.20598 0.94308 0.57652 0.0
C802 C 0.24825 1.00463 0.53689 0.0
N803 N 0.2962 0.95461 0.58171 0.0
C804 C 0.25278 0.93059 0.59293 0.0
C805 C 0.29449 0.99096 0.55383 0.0
C806 C 0.20384 0.98046 0.54844 0.0
C807 C 0.51921 0.84913 0.63057 0.0
N808 N 0.47663 0.82873 0.64648 0.0
C809 C 0.55459 0.81802 0.61244 0.0
C810 C 0.54572 0.76592 0.61011 0.0
C811 C 0.50206 0.74546 0.62626 0.0
C812 C 0.46788 0.7776 0.64459 0.0
C813 C 0.48735 0.80445 0.77147 0.0
C814 C 0.39223 0.82414 0.74065 0.0
C815 C 0.48156 0.8198 0.73353 0.0
N816 N 0.43454 0.83085 0.71888 0.0
C817 C 0.3967 0.81058 0.77907 0.0
C818 C 0.44466 0.80074 0.79452 0.0
C819 C 0.33814 0.93165 0.69209 0.0
C820 C 0.43143 0.07967 0.61173 0.0
C821 C 0.33876 0.03834 0.63188 0.0
C822 C 0.34821 0.08981 0.63863 0.0
C823 C 0.39488 0.11053 0.62843 0.0
N824 N 0.3748 0.00813 0.61553 0.0
C825 C 0.4207 0.02834 0.60548 0.0
Co826 Co 0.61999 0.40833 0.67036 0.0
Co827 Co 0.56339 0.32873 0.6063 0.0
O828 O 0.57532 0.39572 0.6276 0.0
C829 C 0.52363 0.44819 0.6935 0.0
O830 O 0.50452 0.40706 0.6782 0.0
C831 C 0.56917 0.40955 0.54574 0.0
O832 O 0.61215 0.42463 0.56113 0.0
O833 O 0.63894 0.32016 0.59855 0.0
O834 O 0.66969 0.35575 0.65239 0.0
H835 H 0.59585 0.14228 0.58698 0.0
H836 H 0.58677 0.49798 0.62502 0.0
O837 O 0.57038 0.45856 0.68919 0.0
H838 H 0.77378 0.49692 0.61795 0.0
H839 H 0.67998 0.51811 0.77727 0.0
H840 H 0.67172 0.34301 0.72785 0.0
H841 H 0.72841 0.43053 0.65396 0.0
H842 H 0.65415 0.50186 0.71067 0.0
O843 O 0.5518 0.36559 0.55508 0.0
H844 H 0.60749 0.22589 0.61749 0.0
H845 H 0.49606 0.29044 0.54371 0.0
H846 H 0.69544 0.35742 0.79516 0.0
H847 H 0.63056 0.56572 0.58929 0.0
H848 H 0.69788 0.44543 0.82056 0.0
H849 H 0.72473 0.56547 0.58565 0.0
O850 O 0.58453 0.35659 0.70006 0.0
H851 H 0.39491 0.41988 0.60654 0.0
H852 H 0.48425 0.26073 0.63851 0.0
H853 H 0.39265 0.26796 0.65111 0.0
H854 H 0.3472 0.34802 0.63497 0.0
H855 H 0.48631 0.41139 0.59473 0.0
H856 H 0.48383 0.20774 0.51198 0.0
H857 H 0.53379 0.13284 0.53368 0.0
O858 O 0.57045 0.29339 0.65885 0.0
C859 C 0.67463 0.32651 0.62341 0.0
C860 C 0.57375 0.17459 0.57731 0.0
C861 C 0.51099 0.21136 0.53516 0.0
N862 N 0.55249 0.26305 0.58244 0.0
C863 C 0.58005 0.22202 0.59458 0.0
C864 C 0.51827 0.25819 0.55313 0.0
C865 C 0.539 0.16934 0.54737 0.0
C866 C 0.62778 0.49788 0.62382 0.0
N867 N 0.65506 0.46036 0.64154 0.0
C868 C 0.65235 0.53618 0.60339 0.0
C869 C 0.70519 0.53592 0.60126 0.0
C870 C 0.73273 0.49747 0.61937 0.0
C871 C 0.70686 0.45982 0.63955 0.0
C872 C 0.67854 0.47957 0.76659 0.0
C873 C 0.67432 0.38153 0.73836 0.0
C874 C 0.66505 0.47018 0.72863 0.0
N875 N 0.66122 0.42152 0.71535 0.0
C876 C 0.68709 0.38939 0.77666 0.0
C877 C 0.68846 0.43875 0.79092 0.0
C878 C 0.57177 0.3113 0.69305 0.0
C879 C 0.41403 0.38459 0.61312 0.0
C880 C 0.46486 0.29571 0.63131 0.0
C881 C 0.41289 0.29951 0.63847 0.0
C882 C 0.38739 0.34435 0.62932 0.0
N883 N 0.49081 0.33533 0.61532 0.0
C884 C 0.46589 0.37932 0.60613 0.0
Co885 Co 0.09508 0.64674 0.67328 0.0
Co886 Co 0.15917 0.55968 0.62163 0.0
O887 O 0.09618 0.59337 0.6352 0.0
C888 C 1.00075 0.58507 0.68212 0.0
O889 O 0.00889 0.55983 0.65058 0.0
C890 C 0.08722 0.56161 0.55353 0.0
O891 O 0.07298 0.60769 0.56276 0.0
O892 O 0.18545 0.62779 0.60445 0.0
O893 O 0.16465 0.67154 0.65737 0.0
H894 H 0.3486 0.55013 0.60715 0.0
H895 H 0.00762 0.64391 0.61754 0.0
O896 O 0.02718 0.62374 0.69085 0.0
H897 H 0.08284 0.81444 0.6048 0.0
H898 H 1.00028 0.76169 0.75988 0.0
H899 H 0.16362 0.67587 0.73749 0.0
H900 H 0.11785 0.75312 0.65116 0.0
H901 H 0.01841 0.72328 0.69762 0.0
O902 O 0.12689 0.5425 0.56962 0.0
H903 H 0.26826 0.58479 0.6318 0.0
H904 H 0.18541 0.46691 0.57703 0.0
H905 H 0.14355 0.70602 0.80177 0.0
H906 H 0.97079 0.70428 0.57148 0.0
H907 H 0.06093 0.74929 0.81347 0.0
H908 H 0.00852 0.7904 0.56472 0.0
O909 O 0.12601 0.59769 0.71005 0.0
H910 H 0.03134 0.41771 0.63456 0.0
H911 H 0.20204 0.47804 0.6714 0.0
H912 H 0.17172 0.39552 0.69539 0.0
H913 H 0.08586 0.3646 0.6768 0.0
H914 H 0.06259 0.50019 0.6119 0.0
H915 H 0.26472 0.43129 0.55139 0.0
H916 H 0.34689 0.47382 0.56555 0.0
O917 O 0.19081 0.57225 0.6745 0.0
C918 C 0.19061 0.66621 0.62677 0.0
C919 C 0.31295 0.53155 0.60047 0.0
C920 C 0.26587 0.46489 0.56913 0.0
N921 N 0.22212 0.52815 0.60563 0.0
C922 C 0.26734 0.55092 0.61445 0.0
C923 C 0.22104 0.48533 0.58363 0.0
C924 C 0.31201 0.48858 0.5773 0.0
C925 C 0.02406 0.68119 0.61522 0.0
N926 N 0.06507 0.69455 0.63708 0.0
C927 C 1.00312 0.7153 0.58884 0.0
C928 C 0.02436 0.76353 0.58498 0.0
C929 C 0.06605 0.77705 0.60745 0.0
C930 C 0.0859 0.74197 0.63353 0.0
C931 C 0.03622 0.7428 0.75521 0.0
C932 C 0.12763 0.69428 0.74225 0.0
C933 C 0.04743 0.72223 0.71958 0.0
N934 N 0.09201 0.69669 0.71382 0.0
C935 C 0.11644 0.71149 0.77883 0.0
C936 C 0.07027 0.73575 0.78532 0.0
C937 C 0.1704 0.57911 0.70731 0.0
C938 C 0.06881 0.43073 0.64289 0.0
C939 C 0.16432 0.46538 0.66356 0.0
C940 C 0.14749 0.41836 0.67709 0.0
C941 C 0.09938 0.401 0.66662 0.0
N942 N 0.13407 0.49456 0.64036 0.0
C943 C 0.08681 0.47765 0.63009 0.0
C944 C 0.24383 0.74717 0.15936 0.0
C945 C 0.21445 0.74097 0.12587 0.0
C946 C 0.28642 0.77899 0.16065 0.0
C947 C 0.30227 0.80691 0.12861 0.0
H948 H 0.23304 0.7285 0.18557 0.0
H949 H 0.30688 0.78218 0.18746 0.0
S950 S 0.23825 0.80736 0.03408 0.0
N951 N 0.20411 0.76725 0.05961 0.0
N952 N 0.28463 0.82738 0.06231 0.0
C953 C 0.27385 0.8013 0.09468 0.0
C954 C 0.22982 0.76863 0.09332 0.0
C955 C 0.78342 0.23393 0.15135 0.0
C956 C 0.78593 0.19913 0.12073 0.0
C957 C 0.74559 0.27153 0.15315 0.0
C958 C 0.70869 0.27699 0.12422 0.0
H959 H 0.81028 0.23164 0.17487 0.0
H960 H 0.74487 0.29634 0.1778 0.0
S961 S 0.69651 0.19653 0.03797 0.0
N962 N 0.74674 0.17328 0.06057 0.0
N963 N 0.67624 0.24454 0.0641 0.0
C964 C 0.71078 0.24351 0.09307 0.0
C965 C 0.74917 0.20456 0.0913 0.0
C966 C 0.27287 0.81999 0.40007 0.0
C967 C 0.2269 0.80971 0.41922 0.0
C968 C 0.31359 0.78537 0.40005 0.0
C969 C 0.31098 0.73876 0.41957 0.0
H970 H 0.27685 0.85415 0.38321 0.0
H971 H 0.34646 0.79399 0.38276 0.0
S972 S 0.20099 0.69216 0.47494 0.0
N973 N 0.18268 0.74862 0.45933 0.0
N974 N 0.2594 0.68402 0.45919 0.0
C975 C 0.26655 0.72847 0.44022 0.0
C976 C 0.22466 0.76377 0.44019 0.0
C977 C 0.78596 0.26552 0.45514 0.0
C978 C 0.82982 0.26626 0.4323 0.0
C979 C 0.75708 0.22078 0.45964 0.0
C980 C 0.77093 0.17489 0.44182 0.0
H981 H 0.77099 0.30057 0.46661 0.0
H982 H 0.72048 0.2238 0.47326 0.0
S983 S 0.88863 0.153 0.38722 0.0
N984 N 0.89055 0.21398 0.39807 0.0
N985 N 0.83609 0.13097 0.40654 0.0
C986 C 0.81822 0.17357 0.42371 0.0
C987 C 0.84745 0.21899 0.41868 0.0
C988 C 0.80214 0.25953 0.89729 0.0
C989 C 0.80146 0.30295 0.92059 0.0
C990 C 0.76194 0.22435 0.89712 0.0
C991 C 0.71836 0.23097 0.91988 0.0
H992 H 0.83338 0.25364 0.87781 0.0
H993 H 0.76441 0.19263 0.87764 0.0
S994 S 0.69857 0.33857 0.98694 0.0
N995 N 0.75459 0.3504 0.9679 0.0
N996 N 0.67866 0.28476 0.96771 0.0
C997 C 0.71808 0.27365 0.94443 0.0
C998 C 0.75954 0.30948 0.94468 0.0
C999 C 0.26442 0.72989 0.94302 0.0
C1000 C 0.31321 0.72887 0.9266 0.0
C1001 C 0.23392 0.77399 0.94151 0.0
C1002 C 0.25148 0.81915 0.92455 0.0
H1003 H 0.24786 0.69545 0.95431 0.0
H1004 H 0.1949 0.77146 0.95091 0.0
S1005 S 0.37921 0.84022 0.88426 0.0
N1006 N 0.37973 0.78013 0.8979 0.0
N1007 N 0.32249 0.86206 0.89533 0.0
C1008 C 0.30166 0.82011 0.91159 0.0
C1009 C 0.33251 0.77534 0.91266 0.0
C1010 C 0.76157 0.30462 0.64907 0.0
C1011 C 0.72284 0.29562 0.6217 0.0
C1012 C 0.80394 0.27255 0.65294 0.0
C1013 C 0.81035 0.2301 0.62928 0.0
H1014 H 0.75837 0.33577 0.66894 0.0
H1015 H 0.83142 0.28036 0.67537 0.0
S1016 S 0.72148 0.18779 0.55331 0.0
N1017 N 0.69506 0.24006 0.57007 0.0
N1018 N 0.77495 0.18001 0.57761 0.0
C1019 C 0.77328 0.221 0.60103 0.0
C1020 C 0.72964 0.25367 0.59711 0.0
C1021 C 0.27382 0.70363 0.64658 0.0
C1022 C 0.23279 0.70291 0.6207 0.0
C1023 C 0.31066 0.74233 0.64565 0.0
C1024 C 0.30806 0.78264 0.61896 0.0
H1025 H 0.27656 0.67485 0.66868 0.0
H1026 H 0.34043 0.74143 0.66715 0.0
S1027 S 0.20709 0.79813 0.54501 0.0
N1028 N 0.19116 0.74543 0.56765 0.0
N1029 N 0.26056 0.81772 0.56507 0.0
C1030 C 0.26778 0.78123 0.59201 0.0
C1031 C 0.2301 0.74167 0.59316 0.0
C1032 C 0.92657 0.53596 0.2694 0.0
C1033 C 0.94801 0.48912 0.28012 0.0
C1034 C 0.94689 0.56411 0.23953 0.0
C1035 C 0.98929 0.54621 0.2196 0.0
H1036 H 0.89456 0.55166 0.28462 0.0
H1037 H 0.93086 0.60119 0.23343 0.0
S1038 S 0.05601 0.42345 0.23345 0.0
N1039 N 0.01196 0.42456 0.2666 0.0
N1040 N 0.04894 0.47705 0.20958 0.0
C1041 C 0.00921 0.49819 0.22843 0.0
C1042 C 0.98901 0.46979 0.25908 0.0
C1043 C 0.99749 0.97849 0.23331 0.0
C1044 C 0.01786 0.02132 0.21502 0.0
C1045 C 0.00899 0.9682 0.2713 0.0
C1046 C 0.04196 0.99983 0.29219 0.0
H1047 H 0.97012 0.95417 0.21905 0.0
H1048 H 0.9919 0.93495 0.28421 0.0
S1049 S 0.11082 0.11255 0.25581 0.0
N1050 N 0.07639 0.09272 0.21916 0.0
N1051 N 0.09842 0.07298 0.29115 0.0
C1052 C 0.06495 0.04109 0.2737 0.0
C1053 C 0.05302 0.05176 0.2349 0.0
C1054 C 0.5074 0.07598 0.28661 0.0
C1055 C 0.55512 0.09294 0.27476 0.0
C1056 C 0.47718 0.04703 0.2621 0.0
C1057 C 0.49502 0.03388 0.22579 0.0
H1058 H 0.49596 0.08026 0.31608 0.0
H1059 H 0.44264 0.03033 0.27315 0.0
S1060 S 0.6113 0.08112 0.1789 0.0
N1061 N 0.61395 0.10465 0.22253 0.0
N1062 N 0.5578 0.04836 0.17646 0.0
C1063 C 0.53955 0.0563 0.21212 0.0
C1064 C 0.56964 0.08658 0.2368 0.0
C1065 C 0.44243 0.47918 0.22412 0.0
C1066 C 0.46886 0.43416 0.23215 0.0
C1067 C 0.42299 0.50839 0.25369 0.0
C1068 C 0.43102 0.49372 0.29176 0.0
H1069 H 0.44071 0.494 0.19526 0.0
H1070 H 0.40586 0.54483 0.24695 0.0
S1071 S 0.49125 0.3756 0.32697 0.0
N1072 N 0.49612 0.37268 0.28005 0.0
N1073 N 0.46128 0.42937 0.33608 0.0
C1074 C 0.45344 0.44684 0.3 0.0
C1075 C 0.47187 0.41631 0.26985 0.0
C1076 C 0.98802 0.50774 0.72008 0.0
C1077 C 0.97702 0.55936 0.71422 0.0
C1078 C 0.98014 0.48524 0.75552 0.0
C1079 C 0.96002 0.51343 0.78575 0.0
H1080 H 1.00583 0.48535 0.69803 0.0
H1081 H 0.98975 0.44548 0.75926 0.0
S1082 S 0.92074 0.64831 0.78399 0.0
N1083 N 0.94288 0.63746 0.74079 0.0
N1084 N 0.92564 0.59387 0.80732 0.0
C1085 C 0.94611 0.56413 0.77978 0.0
C1086 C 0.95516 0.58745 0.74392 0.0
C1087 C 0.0493 0.95314 0.77497 0.0
C1088 C 0.01616 0.91559 0.78829 0.0
C1089 C 0.03255 0.99117 0.75042 0.0
C1090 C 0.98147 0.99357 0.73891 0.0
H1091 H 0.08764 0.95536 0.78575 0.0
H1092 H 0.05938 0.02042 0.74231 0.0
S1093 S 0.8802 0.9011 0.76389 0.0
N1094 N 0.93107 0.8806 0.78716 0.0
N1095 N 0.89841 0.95222 0.74022 0.0
C1096 C 0.94816 0.95461 0.75067 0.0
C1097 C 0.96568 0.91571 0.77585 0.0
C1098 C 0.54475 0.9806 0.79192 0.0
C1099 C 0.53084 0.03065 0.80052 0.0
C1100 C 0.53249 0.95955 0.75651 0.0
C1101 C 0.50671 0.98835 0.72851 0.0
H1102 H 0.56424 0.95733 0.81297 0.0
H1103 H 0.54151 0.91992 0.75174 0.0
S1104 S 0.4714 0.12473 0.73493 0.0
N1105 N 0.49588 0.11062 0.77711 0.0
N1106 N 0.47453 0.07179 0.70996 0.0
C1107 C 0.49637 0.03982 0.73588 0.0
C1108 C 0.50775 0.06076 0.77216 0.0
C1109 C 0.52599 0.49754 0.7531 0.0
C1110 C 0.49735 0.47082 0.72574 0.0
C1111 C 0.5046 0.51214 0.78732 0.0
C1112 C 0.45365 0.50127 0.79517 0.0
H1113 H 0.56562 0.50645 0.74864 0.0
H1114 H 0.5279 0.5331 0.80752 0.0
S1115 S 0.36113 0.43578 0.73189 0.0
N1116 N 0.41482 0.43586 0.7079 0.0
N1117 N 0.37403 0.46442 0.7727 0.0
C1118 C 0.42415 0.4751 0.7681 0.0
C1119 C 0.44607 0.45999 0.73308 0.0
C1120 C 0.07475 0.80765 0.22949 0.0
C1121 C 0.05875 0.75683 0.2302 0.0
C1122 C 0.0806 0.83561 0.2635 0.0
C1123 C 0.07114 0.81406 0.29999 0.0
H1124 H 0.08542 0.82521 0.20274 0.0
H1125 H 0.09438 0.87425 0.261 0.0
S1126 S 0.02153 0.68418 0.31708 0.0
N1127 N 0.02767 0.68775 0.27033 0.0
N1128 N 0.04008 0.73985 0.33372 0.0
C1129 C 0.05214 0.76425 0.30082 0.0
C1130 C 0.04563 0.7359 0.26618 0.0
C1131 C 0.75929 0.05344 0.22733 0.0
C1132 C 0.81202 0.04561 0.2271 0.0
C1133 C 0.73299 0.05878 0.26177 0.0
C1134 C 0.75781 0.05614 0.29761 0.0
H1135 H 0.73857 0.05882 0.20079 0.0
H1136 H 0.6929 0.0674 0.26029 0.0
S1137 S 0.89421 0.0288 0.31336 0.0
N1138 N 0.8874 0.02953 0.26645 0.0
N1139 N 0.83719 0.03989 0.33083 0.0
C1140 C 0.80962 0.04422 0.29806 0.0
C1141 C 0.83681 0.03893 0.26292 0.0
C1142 C 0.45516 0.77699 0.30369 0.0
C1143 C 0.45129 0.7244 0.2975 0.0
C1144 C 0.45724 0.81154 0.27292 0.0
C1145 C 0.45544 0.79535 0.23434 0.0
H1146 H 0.45409 0.79189 0.33246 0.0
H1147 H 0.45822 0.85168 0.27967 0.0
S1148 S 0.45211 0.66098 0.20249 0.0
N1149 N 0.45122 0.65738 0.2495 0.0
N1150 N 0.45435 0.72219 0.19227 0.0
C1151 C 0.45475 0.74266 0.22782 0.0
C1152 C 0.4528 0.70739 0.25914 0.0
C1153 C 0.74463 0.41571 0.2413 0.0
C1154 C 0.69229 0.40744 0.24642 0.0
C1155 C 0.77862 0.41823 0.27238 0.0
C1156 C 0.76244 0.41318 0.3106 0.0
H1157 H 0.76019 0.41825 0.21285 0.0
H1158 H 0.81863 0.42255 0.26611 0.0
S1159 S 0.62866 0.39766 0.34067 0.0
N1160 N 0.62521 0.39888 0.29356 0.0
N1161 N 0.68935 0.40468 0.3518 0.0
C1162 C 0.7098 0.40878 0.31651 0.0
C1163 C 0.67488 0.4053 0.28459 0.0
C1164 C 0.95446 0.28366 0.74004 0.0
C1165 C 0.95654 0.23103 0.74646 0.0
C1166 C 0.95114 0.31803 0.77056 0.0
C1167 C 0.94977 0.30156 0.80906 0.0
H1168 H 0.95285 0.29846 0.71119 0.0
H1169 H 0.94761 0.358 0.76363 0.0
S1170 S 0.96012 0.1679 0.8418 0.0
N1171 N 0.96207 0.16423 0.79482 0.0
N1172 N 0.95502 0.22897 0.85168 0.0
C1173 C 0.95501 0.24928 0.81601 0.0
C1174 C 0.95854 0.21411 0.78492 0.0
C1175 C 0.32173 0.9406 0.76263 0.0
C1176 C 0.30313 0.94286 0.72454 0.0
C1177 C 0.28916 0.94327 0.79421 0.0
C1178 C 0.23653 0.94853 0.78915 0.0
H1179 H 0.36177 0.93447 0.76832 0.0
H1180 H 0.30502 0.938 0.82256 0.0
S1181 S 0.16877 0.9644 0.69628 0.0
N1182 N 0.22876 0.95648 0.68437 0.0
N1183 N 0.16788 0.96213 0.74331 0.0
C1184 C 0.21787 0.95472 0.75147 0.0
C1185 C 0.25097 0.9518 0.71933 0.0
C1186 C 0.58149 0.20135 0.7636 0.0
C1187 C 0.56971 0.22426 0.79916 0.0
C1188 C 0.57853 0.22814 0.72882 0.0
C1189 C 0.56359 0.27922 0.7278 0.0
H1190 H 0.5946 0.1624 0.76245 0.0
H1191 H 0.59058 0.20942 0.70293 0.0
S1192 S 0.52198 0.35579 0.81131 0.0
N1193 N 0.53801 0.30033 0.82993 0.0
N1194 N 0.53149 0.35044 0.765 0.0
C1195 C 0.54861 0.30178 0.76271 0.0
C1196 C 0.55194 0.27453 0.79815 0.0
C1197 C 0.28571 0.57035 0.77385 0.0
C1198 C 0.2656 0.57609 0.81098 0.0
C1199 C 0.2547 0.56886 0.74106 0.0
C1200 C 0.20162 0.57323 0.74332 0.0
H1201 H 0.32639 0.56812 0.76972 0.0
H1202 H 0.27294 0.56613 0.71354 0.0
S1203 S 0.12845 0.58353 0.83359 0.0
N1204 N 0.18837 0.58228 0.84798 0.0
N1205 N 0.12969 0.57916 0.78658 0.0
C1206 C 0.1805 0.57637 0.78039 0.0
C1207 C 0.21241 0.57779 0.81403 0.0
C1208 C 0.04322 0.53039 0.03306 0.0
C1209 C 0.03123 0.5827 0.0302 0.0
C1210 C 0.01224 0.49221 0.01671 0.0
C1211 C 0.96656 0.50393 0.99736 0.0
H1212 H 0.07667 0.51836 0.04871 0.0
H1213 H 0.02427 0.453 0.01943 0.0
S1214 S 0.91578 0.63475 0.98271 0.0
N1215 N 0.9693 0.64372 1.00663 0.0
N1216 N 0.91056 0.57271 0.97697 0.0
C1217 C 0.95337 0.55608 0.99494 0.0
C1218 C 0.98554 0.59505 1.01108 0.0
C1219 C 0.98055 0.96239 0.97828 0.0
C1220 C 0.03207 0.97761 0.97661 0.0
C1221 C 0.94334 0.99189 0.99688 0.0
C1222 C 0.95536 0.03868 1.01433 0.0
H1223 H 0.96857 0.92719 0.96505 0.0
H1224 H 0.90475 0.97766 0.99772 0.0
S1225 S 0.08488 0.0952 0.01991 0.0
N1226 N 0.09299 0.04201 0.99593 0.0
N1227 N 0.02365 0.09789 0.02939 0.0
C1228 C 1.00672 0.05437 1.01284 0.0
C1229 C 0.04473 0.02388 0.99447 0.0
C1230 C 0.52205 0.98171 0.02942 0.0
C1231 C 0.4716 0.99091 0.04091 0.0
C1232 C 0.55264 0.02039 1.01351 0.0
C1233 C 0.5348 0.07064 1.00828 0.0
H1234 H 0.53849 0.94427 0.03303 0.0
H1235 H 0.59062 0.01035 1.00467 0.0
S1236 S 0.40536 0.11561 0.03295 0.0
N1237 N 0.40513 0.05498 0.04515 0.0
N1238 N 0.46252 0.12697 1.01595 0.0
C1239 C 0.48442 0.08045 0.01956 0.0
C1240 C 0.45304 0.04097 0.03557 0.0
C1241 C 0.445 0.48266 0.01704 0.0
C1242 C 0.45805 0.53245 1.00566 0.0
C1243 C 0.48094 0.4493 0.03395 0.0
C1244 C 0.53222 0.46349 0.04015 0.0
H1245 H 0.40667 0.46887 1.0125 0.0
H1246 H 0.46808 0.41184 0.04233 0.0
S1247 S 0.58661 0.58998 0.01693 0.0
N1248 N 0.5267 0.5943 1.00306 0.0
N1249 N 0.5934 0.53199 0.03418 0.0
C1250 C 0.5457 0.5133 0.02932 0.0
C1251 C 0.50906 0.54742 1.01228 0.0
C1252 C 1.00129 0.96235 0.52294 0.0
C1253 C 0.04862 0.97575 0.50716 0.0
C1254 C 0.97038 0.99837 0.54167 0.0
C1255 C 0.98498 0.04988 0.54559 0.0
H1256 H 0.98779 0.92357 0.52078 0.0
H1257 H 0.9349 0.98532 0.55366 0.0
S1258 S 0.10355 0.10627 0.50755 0.0
N1259 N 0.10686 0.04587 0.49532 0.0
N1260 N 0.04967 0.11233 0.53071 0.0
C1261 C 0.03176 0.06395 0.52947 0.0
C1262 C 0.06318 0.0274 0.51032 0.0
C1263 C 0.49921 0.0291 0.48436 0.0
C1264 C 0.55164 0.01726 0.48434 0.0
C1265 C 0.46328 0.9983 0.50334 0.0
C1266 C 0.4777 0.9537 0.52306 0.0
H1267 H 0.48544 0.0623 0.46918 0.0
H1268 H 0.42375 0.00973 0.50256 0.0
S1269 S 0.61065 0.90743 0.53448 0.0
N1270 N 0.61607 0.95908 0.50812 0.0
N1271 N 0.54934 0.90102 0.54267 0.0
C1272 C 0.53012 0.9418 0.52364 0.0
C1273 C 0.5667 0.97349 0.50469 0.0
C1274 C 0.55297 0.49917 0.52071 0.0
C1275 C 0.53647 0.44817 0.52449 0.0
C1276 C 0.52209 0.53747 0.50411 0.0
C1277 C 0.47241 0.52738 0.49073 0.0
H1278 H 0.59011 0.51019 0.53115 0.0
H1279 H 0.53757 0.57546 0.50175 0.0
S1280 S 0.40964 0.40048 0.49389 0.0
N1281 N 0.46632 0.39014 0.51283 0.0
N1282 N 0.40818 0.46147 0.48284 0.0
C1283 C 0.45515 0.47657 0.49452 0.0
C1284 C 0.48698 0.43738 0.51097 0.0
C1285 C 0.96378 0.51209 0.50701 0.0
C1286 C 0.97602 0.46271 0.4944 0.0
C1287 C 1.00019 0.54396 0.52472 0.0
C1288 C 0.05099 0.52829 0.53098 0.0
H1289 H 0.92563 0.52667 0.50297 0.0
H1290 H 0.98791 0.58111 0.53416 0.0
S1291 S 0.10423 0.40354 0.50205 0.0
N1292 N 0.04402 0.4005 0.48871 0.0
N1293 N 0.11163 0.45996 0.52181 0.0
C1294 C 0.06396 0.47921 0.51821 0.0
C1295 C 0.02689 0.44671 0.50007 0.0
loop_
_geom_bond_atom_site_label_1
_geom_bond_atom_site_label_2
_geom_bond_distance
_geom_bond_site_symmetry_2
_ccdc_geom_bond_type
Co0 O2 2.143 . S
Co0 O8 2.074 . S
Co0 O11 2.093 . S
Co0 O24 2.097 . S
Co0 N41 2.151 . S
Co0 N49 2.214 . S
Co1 O2 2.160 . S
Co1 O7 2.058 . S
Co1 O17 2.057 . S
Co1 O32 2.037 . S
Co1 N36 2.145 . S
Co1 N57 2.257 1_455 S
O2 Co0 2.143 . S
O2 Co1 2.160 . S
C3 O4 1.289 . S
C3 O11 1.205 1_655 S
O4 C3 1.289 . S
C5 O6 1.245 . S
C5 O17 1.232 . S
O6 C5 1.245 . S
O7 Co1 2.058 . S
O7 C33 1.269 . S
O8 Co0 2.074 . S
O8 C33 1.257 . S
H9 C34 0.930 . S
H10 C40 0.930 . S
O11 Co0 2.093 . S
O11 C3 1.205 1_455 S
H12 C44 0.929 . S
H13 C46 0.930 . S
H14 C47 0.930 . S
H15 C45 0.929 . S
H16 C48 0.928 . S
O17 Co1 2.057 . S
O17 C5 1.232 . S
H18 C37 0.929 . S
H19 C38 0.929 . S
H20 C50 0.931 . S
H21 C42 0.929 . S
H22 C51 0.930 . S
H23 C43 0.931 . S
O24 Co0 2.097 . S
O24 C52 1.214 . S
H25 C53 0.929 . S
H26 C54 0.929 . S
H27 C55 0.930 . S
H28 C56 0.929 . S
H29 C58 0.930 . S
H30 C35 0.929 1_656 S
H31 C39 0.930 . S
O32 Co1 2.037 . S
O32 C52 1.234 . S
C33 O7 1.269 . S
C33 O8 1.257 . S
C34 H9 0.930 . S
C34 C37 1.388 . S
C34 C39 1.418 . S
C35 H30 0.929 1_454 S
C35 C38 1.404 . S
C35 C39 1.353 . S
N36 Co1 2.145 . S
N36 C37 1.397 . S
N36 C38 1.334 . S
C37 H18 0.929 . S
C37 C34 1.388 . S
C37 N36 1.397 . S
C38 H19 0.929 . S
C38 C35 1.404 . S
C38 N36 1.334 . S
C39 H31 0.930 . S
C39 C34 1.418 . S
C39 C35 1.353 . S
C40 H10 0.930 . S
C40 N41 1.330 . S
C40 C42 1.446 . S
N41 Co0 2.151 . S
N41 C40 1.330 . S
N41 C45 1.418 . S
C42 H21 0.929 . S
C42 C40 1.446 . S
C42 C43 1.332 . S
C43 H23 0.931 . S
C43 C42 1.332 . S
C43 C44 1.267 . S
C44 H12 0.929 . S
C44 C43 1.267 . S
C44 C45 1.251 . S
C45 H15 0.929 . S
C45 N41 1.418 . S
C45 C44 1.251 . S
C46 H13 0.930 . S
C46 C48 1.406 . S
C46 C51 1.261 . S
C47 H14 0.930 . S
C47 N49 1.325 . S
C47 C50 1.357 . S
C48 H16 0.928 . S
C48 C46 1.406 . S
C48 N49 1.261 . S
N49 Co0 2.214 . S
N49 C47 1.325 . S
N49 C48 1.261 . S
C50 H20 0.931 . S
C50 C47 1.357 . S
C50 C51 1.312 . S
C51 H22 0.930 . S
C51 C46 1.261 . S
C51 C50 1.312 . S
C52 O24 1.214 . S
C52 O32 1.234 . S
C53 H25 0.929 . S
C53 C56 1.391 . S
C53 C58 1.391 . S
C54 H26 0.929 . S
C54 C55 1.390 . S
C54 N57 1.391 . S
C55 H27 0.930 . S
C55 C54 1.390 . S
C55 C56 1.392 . S
C56 H28 0.929 . S
C56 C53 1.391 . S
C56 C55 1.392 . S
N57 Co1 2.257 1_655 S
N57 C54 1.391 . S
N57 C58 1.388 . S
C58 H29 0.930 . S
C58 C53 1.391 . S
C58 N57 1.388 . S
Co59 O61 2.143 . S
Co59 O67 2.074 . S
Co59 O70 2.093 . S
Co59 O83 2.097 . S
Co59 N100 2.151 . S
Co59 N108 2.214 . S
Co60 O61 2.160 . S
Co60 O66 2.058 . S
Co60 O76 2.057 . S
Co60 O91 2.037 . S
Co60 N95 2.145 . S
Co60 N116 2.257 1_545 S
O61 Co59 2.143 . S
O61 Co60 2.160 . S
C62 O63 1.289 . S
C62 O70 1.205 1_565 S
O63 C62 1.289 . S
C64 O65 1.245 . S
C64 O76 1.232 . S
O65 C64 1.245 . S
O66 Co60 2.058 . S
O66 C92 1.269 . S
O67 Co59 2.074 . S
O67 C92 1.257 . S
H68 C93 0.930 . S
H69 C99 0.930 . S
O70 Co59 2.093 . S
O70 C62 1.205 1_545 S
H71 C103 0.929 . S
H72 C105 0.930 . S
H73 C106 0.930 . S
H74 C104 0.929 . S
H75 C107 0.928 . S
O76 Co60 2.057 . S
O76 C64 1.232 . S
H77 C96 0.929 . S
H78 C97 0.929 . S
H79 C109 0.931 . S
H80 C101 0.929 . S
H81 C110 0.930 . S
H82 C102 0.931 . S
O83 Co59 2.097 . S
O83 C111 1.214 . S
H84 C112 0.929 . S
H85 C113 0.929 . S
H86 C114 0.930 . S
H87 C115 0.929 . S
H88 C117 0.930 . S
H89 C94 0.929 1_566 S
H90 C98 0.930 . S
O91 Co60 2.037 . S
O91 C111 1.234 . S
C92 O66 1.269 . S
C92 O67 1.257 . S
C93 H68 0.930 . S
C93 C96 1.388 . S
C93 C98 1.418 . S
C94 H89 0.929 1_544 S
C94 C97 1.404 . S
C94 C98 1.353 . S
N95 Co60 2.145 . S
N95 C96 1.397 . S
N95 C97 1.334 . S
C96 H77 0.929 . S
C96 C93 1.388 . S
C96 N95 1.397 . S
C97 H78 0.929 . S
C97 C94 1.404 . S
C97 N95 1.334 . S
C98 H90 0.930 . S
C98 C93 1.418 . S
C98 C94 1.353 . S
C99 H69 0.930 . S
C99 N100 1.330 . S
C99 C101 1.446 1_655 S
N100 Co59 2.151 . S
N100 C99 1.330 . S
N100 C104 1.418 . S
C101 H80 0.929 . S
C101 C99 1.446 1_455 S
C101 C102 1.332 . S
C102 H82 0.931 . S
C102 C101 1.332 . S
C102 C103 1.267 1_455 S
C103 H71 0.929 . S
C103 C102 1.267 1_655 S
C103 C104 1.251 . S
C104 H74 0.929 . S
C104 N100 1.418 . S
C104 C103 1.251 . S
C105 H72 0.930 . S
C105 C107 1.406 . S
C105 C110 1.261 . S
C106 H73 0.930 . S
C106 N108 1.325 . S
C106 C109 1.357 . S
C107 H75 0.928 . S
C107 C105 1.406 . S
C107 N108 1.261 . S
N108 Co59 2.214 . S
N108 C106 1.325 . S
N108 C107 1.261 . S
C109 H79 0.931 . S
C109 C106 1.357 . S
C109 C110 1.312 . S
C110 H81 0.930 . S
C110 C105 1.261 . S
C110 C109 1.312 . S
C111 O83 1.214 . S
C111 O91 1.234 . S
C112 H84 0.929 . S
C112 C115 1.391 . S
C112 C117 1.391 . S
C113 H85 0.929 . S
C113 C114 1.390 . S
C113 N116 1.391 . S
C114 H86 0.930 . S
C114 C113 1.390 . S
C114 C115 1.392 . S
C115 H87 0.929 . S
C115 C112 1.391 . S
C115 C114 1.392 . S
N116 Co60 2.257 1_565 S
N116 C113 1.391 . S
N116 C117 1.388 . S
C117 H88 0.930 . S
C117 C112 1.391 . S
C117 N116 1.388 . S
Co118 O120 2.143 . S
Co118 O126 2.074 . S
Co118 O129 2.093 . S
Co118 O142 2.097 . S
Co118 N159 2.151 . S
Co118 N167 2.214 . S
Co119 O120 2.160 . S
Co119 O125 2.058 . S
Co119 O135 2.057 . S
Co119 O150 2.037 . S
Co119 N154 2.145 . S
Co119 N175 2.257 . S
O120 Co118 2.143 . S
O120 Co119 2.160 . S
C121 O122 1.278 . S
C121 O129 1.224 . S
O122 C121 1.278 . S
C123 O124 1.245 . S
C123 O135 1.232 . S
O124 C123 1.245 . S
O125 Co119 2.058 . S
O125 C151 1.269 . S
O126 Co118 2.074 . S
O126 C151 1.257 . S
H127 C152 0.930 . S
H128 C158 0.930 . S
O129 Co118 2.093 . S
O129 C121 1.224 . S
H130 C162 0.929 . S
H131 C164 0.930 . S
H132 C165 0.930 . S
H133 C163 0.929 . S
H134 C166 0.928 . S
O135 Co119 2.057 . S
O135 C123 1.232 . S
H136 C155 0.929 . S
H137 C156 0.929 . S
H138 C168 0.931 . S
H139 C160 0.929 . S
H140 C169 0.930 . S
H141 C161 0.931 . S
O142 Co118 2.097 . S
O142 C170 1.214 . S
H143 C171 0.929 . S
H144 C172 0.929 . S
H145 C173 0.930 . S
H146 C174 0.929 . S
H147 C176 0.930 . S
H148 C153 0.930 1_556 S
H149 C157 0.930 . S
O150 Co119 2.037 . S
O150 C170 1.234 . S
C151 O125 1.269 . S
C151 O126 1.257 . S
C152 H127 0.930 . S
C152 C155 1.388 . S
C152 C157 1.418 . S
C153 H148 0.930 1_554 S
C153 C156 1.404 . S
C153 C157 1.353 . S
N154 Co119 2.145 . S
N154 C155 1.397 . S
N154 C156 1.334 . S
C155 H136 0.929 . S
C155 C152 1.388 . S
C155 N154 1.397 . S
C156 H137 0.929 . S
C156 C153 1.404 . S
C156 N154 1.334 . S
C157 H149 0.930 . S
C157 C152 1.418 . S
C157 C153 1.353 . S
C158 H128 0.930 . S
C158 N159 1.330 . S
C158 C160 1.446 1_565 S
N159 Co118 2.151 . S
N159 C158 1.330 . S
N159 C163 1.418 . S
C160 H139 0.929 . S
C160 C158 1.446 1_545 S
C160 C161 1.332 . S
C161 H141 0.931 . S
C161 C160 1.332 . S
C161 C162 1.267 1_545 S
C162 H130 0.929 . S
C162 C161 1.267 1_565 S
C162 C163 1.251 . S
C163 H133 0.929 . S
C163 N159 1.418 . S
C163 C162 1.251 . S
C164 H131 0.930 . S
C164 C166 1.406 . S
C164 C169 1.261 . S
C165 H132 0.930 . S
C165 N167 1.325 . S
C165 C168 1.357 . S
C166 H134 0.928 . S
C166 C164 1.406 . S
C166 N167 1.261 . S
N167 Co118 2.214 . S
N167 C165 1.325 . S
N167 C166 1.261 . S
C168 H138 0.931 . S
C168 C165 1.357 . S
C168 C169 1.312 . S
C169 H140 0.930 . S
C169 C164 1.261 . S
C169 C168 1.312 . S
C170 O142 1.214 . S
C170 O150 1.234 . S
C171 H143 0.929 . S
C171 C174 1.391 . S
C171 C176 1.391 . S
C172 H144 0.929 . S
C172 C173 1.390 . S
C172 N175 1.391 . S
C173 H145 0.930 . S
C173 C172 1.390 . S
C173 C174 1.392 . S
C174 H146 0.929 . S
C174 C171 1.391 . S
C174 C173 1.392 . S
N175 Co119 2.257 . S
N175 C172 1.391 . S
N175 C176 1.388 . S
C176 H147 0.930 . S
C176 C171 1.391 . S
C176 N175 1.388 . S
Co177 O179 2.143 . S
Co177 O185 2.074 . S
Co177 O188 2.093 . S
Co177 O201 2.097 . S
Co177 N218 2.151 . S
Co177 N226 2.214 . S
Co178 O179 2.160 . S
Co178 O184 2.058 . S
Co178 O194 2.057 . S
Co178 O209 2.037 . S
Co178 N213 2.145 . S
Co178 N234 2.257 . S
O179 Co177 2.143 . S
O179 Co178 2.160 . S
C180 O181 1.278 . S
C180 O188 1.224 . S
O181 C180 1.278 . S
C182 O183 1.245 . S
C182 O194 1.232 . S
O183 C182 1.245 . S
O184 Co178 2.058 . S
O184 C210 1.269 . S
O185 Co177 2.074 . S
O185 C210 1.257 . S
H186 C211 0.930 . S
H187 C217 0.930 . S
O188 Co177 2.093 . S
O188 C180 1.224 . S
H189 C221 0.929 . S
H190 C223 0.930 . S
H191 C224 0.930 . S
H192 C222 0.929 . S
H193 C225 0.928 . S
O194 Co178 2.057 . S
O194 C182 1.232 . S
H195 C214 0.929 . S
H196 C215 0.929 . S
H197 C227 0.931 . S
H198 C219 0.929 . S
H199 C228 0.930 . S
H200 C220 0.931 . S
O201 Co177 2.097 . S
O201 C229 1.214 . S
H202 C230 0.929 . S
H203 C231 0.929 . S
H204 C232 0.930 . S
H205 C233 0.929 . S
H206 C235 0.930 . S
H207 C212 0.930 1_556 S
H208 C216 0.930 . S
O209 Co178 2.037 . S
O209 C229 1.234 . S
C210 O184 1.269 . S
C210 O185 1.257 . S
C211 H186 0.930 . S
C211 C214 1.388 . S
C211 C216 1.418 . S
C212 H207 0.930 1_554 S
C212 C215 1.404 . S
C212 C216 1.353 . S
N213 Co178 2.145 . S
N213 C214 1.397 . S
N213 C215 1.334 . S
C214 H195 0.929 . S
C214 C211 1.388 . S
C214 N213 1.397 . S
C215 H196 0.929 . S
C215 C212 1.404 . S
C215 N213 1.334 . S
C216 H208 0.930 . S
C216 C211 1.418 . S
C216 C212 1.353 . S
C217 H187 0.930 . S
C217 N218 1.330 . S
C217 C219 1.446 . S
N218 Co177 2.151 . S
N218 C217 1.330 . S
N218 C222 1.418 . S
C219 H198 0.929 . S
C219 C217 1.446 . S
C219 C220 1.332 . S
C220 H200 0.931 . S
C220 C219 1.332 . S
C220 C221 1.267 . S
C221 H189 0.929 . S
C221 C220 1.267 . S
C221 C222 1.251 . S
C222 H192 0.929 . S
C222 N218 1.418 . S
C222 C221 1.251 . S
C223 H190 0.930 . S
C223 C225 1.406 . S
C223 C228 1.261 . S
C224 H191 0.930 . S
C224 N226 1.325 . S
C224 C227 1.357 . S
C225 H193 0.928 . S
C225 C223 1.406 . S
C225 N226 1.261 . S
N226 Co177 2.214 . S
N226 C224 1.325 . S
N226 C225 1.261 . S
C227 H197 0.931 . S
C227 C224 1.357 . S
C227 C228 1.312 . S
C228 H199 0.930 . S
C228 C223 1.261 . S
C228 C227 1.312 . S
C229 O201 1.214 . S
C229 O209 1.234 . S
C230 H202 0.929 . S
C230 C233 1.391 . S
C230 C235 1.391 . S
C231 H203 0.929 . S
C231 C232 1.390 . S
C231 N234 1.391 . S
C232 H204 0.930 . S
C232 C231 1.390 . S
C232 C233 1.392 . S
C233 H205 0.929 . S
C233 C230 1.391 . S
C233 C232 1.392 . S
N234 Co178 2.257 . S
N234 C231 1.391 . S
N234 C235 1.388 . S
C235 H206 0.930 . S
C235 C230 1.391 . S
C235 N234 1.388 . S
Co236 O238 2.143 . S
Co236 O244 2.074 . S
Co236 O247 2.093 . S
Co236 O260 2.097 . S
Co236 N277 2.151 . S
Co236 N285 2.214 . S
Co237 O238 2.160 . S
Co237 O243 2.058 . S
Co237 O253 2.057 . S
Co237 O268 2.037 . S
Co237 N272 2.145 . S
Co237 N293 2.257 1_455 S
O238 Co236 2.143 . S
O238 Co237 2.160 . S
C239 O240 1.289 . S
C239 O247 1.205 1_655 S
O240 C239 1.289 . S
C241 O242 1.245 . S
C241 O253 1.232 . S
O242 C241 1.245 . S
O243 Co237 2.058 . S
O243 C269 1.269 . S
O244 Co236 2.074 . S
O244 C269 1.257 . S
H245 C270 0.930 . S
H246 C276 0.930 . S
O247 Co236 2.093 . S
O247 C239 1.205 1_455 S
H248 C280 0.929 . S
H249 C282 0.930 . S
H250 C283 0.930 . S
H251 C281 0.929 . S
H252 C284 0.928 . S
O253 Co237 2.057 . S
O253 C241 1.232 . S
H254 C273 0.929 . S
H255 C274 0.929 . S
H256 C286 0.931 . S
H257 C278 0.929 . S
H258 C287 0.930 . S
H259 C279 0.931 . S
O260 Co236 2.097 . S
O260 C288 1.214 . S
H261 C289 0.929 . S
H262 C290 0.929 . S
H263 C291 0.930 . S
H264 C292 0.929 . S
H265 C294 0.930 . S
H266 C271 0.929 1_655 S
H267 C275 0.930 . S
O268 Co237 2.037 . S
O268 C288 1.234 . S
C269 O243 1.269 . S
C269 O244 1.257 . S
C270 H245 0.930 . S
C270 C273 1.388 . S
C270 C275 1.418 . S
C271 H266 0.929 1_455 S
C271 C274 1.404 . S
C271 C275 1.353 . S
N272 Co237 2.145 . S
N272 C273 1.397 . S
N272 C274 1.334 . S
C273 H254 0.929 . S
C273 C270 1.388 . S
C273 N272 1.397 . S
C274 H255 0.929 . S
C274 C271 1.404 . S
C274 N272 1.334 . S
C275 H267 0.930 . S
C275 C270 1.418 . S
C275 C271 1.353 . S
C276 H246 0.930 . S
C276 N277 1.330 . S
C276 C278 1.446 1_565 S
N277 Co236 2.151 . S
N277 C276 1.330 . S
N277 C281 1.418 . S
C278 H257 0.929 . S
C278 C276 1.446 1_545 S
C278 C279 1.332 . S
C279 H259 0.931 . S
C279 C278 1.332 . S
C279 C280 1.267 1_545 S
C280 H248 0.929 . S
C280 C279 1.267 1_565 S
C280 C281 1.251 . S
C281 H251 0.929 . S
C281 N277 1.418 . S
C281 C280 1.251 . S
C282 H249 0.930 . S
C282 C284 1.406 . S
C282 C287 1.261 . S
C283 H250 0.930 . S
C283 N285 1.325 . S
C283 C286 1.357 . S
C284 H252 0.928 . S
C284 C282 1.406 . S
C284 N285 1.261 . S
N285 Co236 2.214 . S
N285 C283 1.325 . S
N285 C284 1.261 . S
C286 H256 0.931 . S
C286 C283 1.357 . S
C286 C287 1.312 . S
C287 H258 0.930 . S
C287 C282 1.261 . S
C287 C286 1.312 . S
C288 O260 1.214 . S
C288 O268 1.234 . S
C289 H261 0.929 . S
C289 C292 1.391 . S
C289 C294 1.391 . S
C290 H262 0.929 . S
C290 C291 1.390 . S
C290 N293 1.391 . S
C291 H263 0.930 . S
C291 C290 1.390 . S
C291 C292 1.392 . S
C292 H264 0.929 . S
C292 C289 1.391 . S
C292 C291 1.392 . S
N293 Co237 2.257 1_655 S
N293 C290 1.391 . S
N293 C294 1.388 . S
C294 H265 0.930 . S
C294 C289 1.391 . S
C294 N293 1.388 . S
Co295 O297 2.143 . S
Co295 O303 2.074 . S
Co295 O306 2.093 . S
Co295 O319 2.097 . S
Co295 N336 2.151 . S
Co295 N344 2.214 . S
Co296 O297 2.160 . S
Co296 O302 2.058 . S
Co296 O312 2.057 . S
Co296 O327 2.037 . S
Co296 N331 2.145 . S
Co296 N352 2.257 1_545 S
O297 Co295 2.143 . S
O297 Co296 2.160 . S
C298 O299 1.289 . S
C298 O306 1.205 1_565 S
O299 C298 1.289 . S
C300 O301 1.245 . S
C300 O312 1.232 . S
O301 C300 1.245 . S
O302 Co296 2.058 . S
O302 C328 1.269 . S
O303 Co295 2.074 . S
O303 C328 1.257 . S
H304 C329 0.930 . S
H305 C335 0.930 . S
O306 Co295 2.093 . S
O306 C298 1.205 1_545 S
H307 C339 0.929 . S
H308 C341 0.930 . S
H309 C342 0.930 . S
H310 C340 0.929 . S
H311 C343 0.928 . S
O312 Co296 2.057 . S
O312 C300 1.232 . S
H313 C332 0.929 . S
H314 C333 0.929 . S
H315 C345 0.931 . S
H316 C337 0.929 . S
H317 C346 0.930 . S
H318 C338 0.931 . S
O319 Co295 2.097 . S
O319 C347 1.214 . S
H320 C348 0.929 . S
H321 C349 0.929 . S
H322 C350 0.930 . S
H323 C351 0.929 . S
H324 C353 0.930 . S
H325 C330 0.929 1_565 S
H326 C334 0.930 . S
O327 Co296 2.037 . S
O327 C347 1.234 . S
C328 O302 1.269 . S
C328 O303 1.257 . S
C329 H304 0.930 . S
C329 C332 1.388 . S
C329 C334 1.418 . S
C330 H325 0.929 1_545 S
C330 C333 1.404 . S
C330 C334 1.353 . S
N331 Co296 2.145 . S
N331 C332 1.397 . S
N331 C333 1.334 . S
C332 H313 0.929 . S
C332 C329 1.388 . S
C332 N331 1.397 . S
C333 H314 0.929 . S
C333 C330 1.404 . S
C333 N331 1.334 . S
C334 H326 0.930 . S
C334 C329 1.418 . S
C334 C330 1.353 . S
C335 H305 0.930 . S
C335 N336 1.330 . S
C335 C337 1.446 . S
N336 Co295 2.151 . S
N336 C335 1.330 . S
N336 C340 1.418 . S
C337 H316 0.929 . S
C337 C335 1.446 . S
C337 C338 1.332 . S
C338 H318 0.931 . S
C338 C337 1.332 . S
C338 C339 1.267 . S
C339 H307 0.929 . S
C339 C338 1.267 . S
C339 C340 1.251 . S
C340 H310 0.929 . S
C340 N336 1.418 . S
C340 C339 1.251 . S
C341 H308 0.930 . S
C341 C343 1.406 . S
C341 C346 1.261 . S
C342 H309 0.930 . S
C342 N344 1.325 . S
C342 C345 1.357 . S
C343 H311 0.928 . S
C343 C341 1.406 . S
C343 N344 1.261 . S
N344 Co295 2.214 . S
N344 C342 1.325 . S
N344 C343 1.261 . S
C345 H315 0.931 . S
C345 C342 1.357 . S
C345 C346 1.312 . S
C346 H317 0.930 . S
C346 C341 1.261 . S
C346 C345 1.312 . S
C347 O319 1.214 . S
C347 O327 1.234 . S
C348 H320 0.929 . S
C348 C351 1.391 . S
C348 C353 1.391 . S
C349 H321 0.929 . S
C349 C350 1.390 . S
C349 N352 1.391 . S
C350 H322 0.930 . S
C350 C349 1.390 . S
C350 C351 1.392 . S
C351 H323 0.929 . S
C351 C348 1.391 . S
C351 C350 1.392 . S
N352 Co296 2.257 1_565 S
N352 C349 1.391 . S
N352 C353 1.388 . S
C353 H324 0.930 . S
C353 C348 1.391 . S
C353 N352 1.388 . S
Co354 O356 2.143 . S
Co354 O362 2.074 . S
Co354 O365 2.093 . S
Co354 O378 2.097 . S
Co354 N395 2.151 . S
Co354 N403 2.214 . S
Co355 O356 2.160 . S
Co355 O361 2.058 . S
Co355 O371 2.057 . S
Co355 O386 2.037 . S
Co355 N390 2.145 . S
Co355 N411 2.257 . S
O356 Co354 2.143 . S
O356 Co355 2.160 . S
C357 O358 1.278 . S
C357 O365 1.224 . S
O358 C357 1.278 . S
C359 O360 1.245 . S
C359 O371 1.232 . S
O360 C359 1.245 . S
O361 Co355 2.058 . S
O361 C387 1.269 . S
O362 Co354 2.074 . S
O362 C387 1.257 . S
H363 C388 0.930 . S
H364 C394 0.930 . S
O365 Co354 2.093 . S
O365 C357 1.224 . S
H366 C398 0.929 . S
H367 C400 0.930 . S
H368 C401 0.930 . S
H369 C399 0.929 . S
H370 C402 0.928 . S
O371 Co355 2.057 . S
O371 C359 1.232 . S
H372 C391 0.929 . S
H373 C392 0.929 . S
H374 C404 0.931 . S
H375 C396 0.929 . S
H376 C405 0.930 . S
H377 C397 0.931 . S
O378 Co354 2.097 . S
O378 C406 1.214 . S
H379 C407 0.929 . S
H380 C408 0.929 . S
H381 C409 0.930 . S
H382 C410 0.929 . S
H383 C412 0.930 . S
H384 C389 0.930 . S
H385 C393 0.930 . S
O386 Co355 2.037 . S
O386 C406 1.234 . S
C387 O361 1.269 . S
C387 O362 1.257 . S
C388 H363 0.930 . S
C388 C391 1.388 . S
C388 C393 1.418 . S
C389 H384 0.930 . S
C389 C392 1.404 . S
C389 C393 1.353 . S
N390 Co355 2.145 . S
N390 C391 1.397 . S
N390 C392 1.334 . S
C391 H372 0.929 . S
C391 C388 1.388 . S
C391 N390 1.397 . S
C392 H373 0.929 . S
C392 C389 1.404 . S
C392 N390 1.334 . S
C393 H385 0.930 . S
C393 C388 1.418 . S
C393 C389 1.353 . S
C394 H364 0.930 . S
C394 N395 1.330 . S
C394 C396 1.446 . S
N395 Co354 2.151 . S
N395 C394 1.330 . S
N395 C399 1.418 . S
C396 H375 0.929 . S
C396 C394 1.446 . S
C396 C397 1.332 . S
C397 H377 0.931 . S
C397 C396 1.332 . S
C397 C398 1.267 . S
C398 H366 0.929 . S
C398 C397 1.267 . S
C398 C399 1.251 . S
C399 H369 0.929 . S
C399 N395 1.418 . S
C399 C398 1.251 . S
C400 H367 0.930 . S
C400 C402 1.406 . S
C400 C405 1.261 . S
C401 H368 0.930 . S
C401 N403 1.325 . S
C401 C404 1.357 . S
C402 H370 0.928 . S
C402 C400 1.406 . S
C402 N403 1.261 . S
N403 Co354 2.214 . S
N403 C401 1.325 . S
N403 C402 1.261 . S
C404 H374 0.931 . S
C404 C401 1.357 . S
C404 C405 1.312 . S
C405 H376 0.930 . S
C405 C400 1.261 . S
C405 C404 1.312 . S
C406 O378 1.214 . S
C406 O386 1.234 . S
C407 H379 0.929 . S
C407 C410 1.391 . S
C407 C412 1.391 . S
C408 H380 0.929 . S
C408 C409 1.390 . S
C408 N411 1.391 . S
C409 H381 0.930 . S
C409 C408 1.390 . S
C409 C410 1.392 . S
C410 H382 0.929 . S
C410 C407 1.391 . S
C410 C409 1.392 . S
N411 Co355 2.257 . S
N411 C408 1.391 . S
N411 C412 1.388 . S
C412 H383 0.930 . S
C412 C407 1.391 . S
C412 N411 1.388 . S
Co413 O415 2.143 . S
Co413 O421 2.074 . S
Co413 O424 2.093 . S
Co413 O437 2.097 . S
Co413 N454 2.151 . S
Co413 N462 2.214 . S
Co414 O415 2.160 . S
Co414 O420 2.058 . S
Co414 O430 2.057 . S
Co414 O445 2.037 . S
Co414 N449 2.145 . S
Co414 N470 2.257 . S
O415 Co413 2.143 . S
O415 Co414 2.160 . S
C416 O417 1.278 . S
C416 O424 1.224 . S
O417 C416 1.278 . S
C418 O419 1.245 . S
C418 O430 1.232 . S
O419 C418 1.245 . S
O420 Co414 2.058 . S
O420 C446 1.269 . S
O421 Co413 2.074 . S
O421 C446 1.257 . S
H422 C447 0.930 . S
H423 C453 0.930 . S
O424 Co413 2.093 . S
O424 C416 1.224 . S
H425 C457 0.929 . S
H426 C459 0.930 . S
H427 C460 0.930 . S
H428 C458 0.929 . S
H429 C461 0.928 . S
O430 Co414 2.057 . S
O430 C418 1.232 . S
H431 C450 0.929 . S
H432 C451 0.929 . S
H433 C463 0.931 . S
H434 C455 0.929 . S
H435 C464 0.930 . S
H436 C456 0.931 . S
O437 Co413 2.097 . S
O437 C465 1.214 . S
H438 C466 0.929 . S
H439 C467 0.929 . S
H440 C468 0.930 . S
H441 C469 0.929 . S
H442 C471 0.930 . S
H443 C448 0.930 . S
H444 C452 0.930 . S
O445 Co414 2.037 . S
O445 C465 1.234 . S
C446 O420 1.269 . S
C446 O421 1.257 . S
C447 H422 0.930 . S
C447 C450 1.388 . S
C447 C452 1.418 . S
C448 H443 0.930 . S
C448 C451 1.404 . S
C448 C452 1.353 . S
N449 Co414 2.145 . S
N449 C450 1.397 . S
N449 C451 1.334 . S
C450 H431 0.929 . S
C450 C447 1.388 . S
C450 N449 1.397 . S
C451 H432 0.929 . S
C451 C448 1.404 . S
C451 N449 1.334 . S
C452 H444 0.930 . S
C452 C447 1.418 . S
C452 C448 1.353 . S
C453 H423 0.930 . S
C453 N454 1.330 . S
C453 C455 1.446 1_655 S
N454 Co413 2.151 . S
N454 C453 1.330 . S
N454 C458 1.418 . S
C455 H434 0.929 . S
C455 C453 1.446 1_455 S
C455 C456 1.332 . S
C456 H436 0.931 . S
C456 C455 1.332 . S
C456 C457 1.267 1_455 S
C457 H425 0.929 . S
C457 C456 1.267 1_655 S
C457 C458 1.251 . S
C458 H428 0.929 . S
C458 N454 1.418 . S
C458 C457 1.251 . S
C459 H426 0.930 . S
C459 C461 1.406 . S
C459 C464 1.261 . S
C460 H427 0.930 . S
C460 N462 1.325 . S
C460 C463 1.357 . S
C461 H429 0.928 . S
C461 C459 1.406 . S
C461 N462 1.261 . S
N462 Co413 2.214 . S
N462 C460 1.325 . S
N462 C461 1.261 . S
C463 H433 0.931 . S
C463 C460 1.357 . S
C463 C464 1.312 . S
C464 H435 0.930 . S
C464 C459 1.261 . S
C464 C463 1.312 . S
C465 O437 1.214 . S
C465 O445 1.234 . S
C466 H438 0.929 . S
C466 C469 1.391 . S
C466 C471 1.391 . S
C467 H439 0.929 . S
C467 C468 1.390 . S
C467 N470 1.391 . S
C468 H440 0.930 . S
C468 C467 1.390 . S
C468 C469 1.392 . S
C469 H441 0.929 . S
C469 C466 1.391 . S
C469 C468 1.392 . S
N470 Co414 2.257 . S
N470 C467 1.391 . S
N470 C471 1.388 . S
C471 H442 0.930 . S
C471 C466 1.391 . S
C471 N470 1.388 . S
Co472 O474 2.143 . S
Co472 O480 2.074 . S
Co472 O483 2.093 . S
Co472 O496 2.097 . S
Co472 N513 2.151 . S
Co472 N521 2.214 . S
Co473 O474 2.160 . S
Co473 O479 2.058 . S
Co473 O489 2.057 . S
Co473 O504 2.037 . S
Co473 N508 2.145 . S
Co473 N529 2.257 1_655 S
O474 Co472 2.143 . S
O474 Co473 2.160 . S
C475 O476 1.289 . S
C475 O483 1.205 1_455 S
O476 C475 1.289 . S
C477 O478 1.245 . S
C477 O489 1.232 . S
O478 C477 1.245 . S
O479 Co473 2.058 . S
O479 C505 1.269 . S
O480 Co472 2.074 . S
O480 C505 1.257 . S
H481 C506 0.930 . S
H482 C512 0.930 . S
O483 Co472 2.093 . S
O483 C475 1.205 1_655 S
H484 C516 0.929 . S
H485 C518 0.930 . S
H486 C519 0.930 . S
H487 C517 0.929 . S
H488 C520 0.928 . S
O489 Co473 2.057 . S
O489 C477 1.232 . S
H490 C509 0.929 . S
H491 C510 0.929 . S
H492 C522 0.931 . S
H493 C514 0.929 . S
H494 C523 0.930 . S
H495 C515 0.931 . S
O496 Co472 2.097 . S
O496 C524 1.214 . S
H497 C525 0.929 . S
H498 C526 0.929 . S
H499 C527 0.930 . S
H500 C528 0.929 . S
H501 C530 0.930 . S
H502 C507 0.929 1_454 S
H503 C511 0.930 . S
O504 Co473 2.037 . S
O504 C524 1.234 . S
C505 O479 1.269 . S
C505 O480 1.257 . S
C506 H481 0.930 . S
C506 C509 1.388 . S
C506 C511 1.418 . S
C507 H502 0.929 1_656 S
C507 C510 1.404 . S
C507 C511 1.353 . S
N508 Co473 2.145 . S
N508 C509 1.397 . S
N508 C510 1.334 . S
C509 H490 0.929 . S
C509 C506 1.388 . S
C509 N508 1.397 . S
C510 H491 0.929 . S
C510 C507 1.404 . S
C510 N508 1.334 . S
C511 H503 0.930 . S
C511 C506 1.418 . S
C511 C507 1.353 . S
C512 H482 0.930 . S
C512 N513 1.330 . S
C512 C514 1.446 . S
N513 Co472 2.151 . S
N513 C512 1.330 . S
N513 C517 1.418 . S
C514 H493 0.929 . S
C514 C512 1.446 . S
C514 C515 1.332 . S
C515 H495 0.931 . S
C515 C514 1.332 . S
C515 C516 1.267 . S
C516 H484 0.929 . S
C516 C515 1.267 . S
C516 C517 1.251 . S
C517 H487 0.929 . S
C517 N513 1.418 . S
C517 C516 1.251 . S
C518 H485 0.930 . S
C518 C520 1.406 . S
C518 C523 1.261 . S
C519 H486 0.930 . S
C519 N521 1.325 . S
C519 C522 1.357 . S
C520 H488 0.928 . S
C520 C518 1.406 . S
C520 N521 1.261 . S
N521 Co472 2.214 . S
N521 C519 1.325 . S
N521 C520 1.261 . S
C522 H492 0.931 . S
C522 C519 1.357 . S
C522 C523 1.312 . S
C523 H494 0.930 . S
C523 C518 1.261 . S
C523 C522 1.312 . S
C524 O496 1.214 . S
C524 O504 1.234 . S
C525 H497 0.929 . S
C525 C528 1.391 . S
C525 C530 1.391 . S
C526 H498 0.929 . S
C526 C527 1.390 . S
C526 N529 1.391 . S
C527 H499 0.930 . S
C527 C526 1.390 . S
C527 C528 1.392 . S
C528 H500 0.929 . S
C528 C525 1.391 . S
C528 C527 1.392 . S
N529 Co473 2.257 1_455 S
N529 C526 1.391 . S
N529 C530 1.388 . S
C530 H501 0.930 . S
C530 C525 1.391 . S
C530 N529 1.388 . S
Co531 O533 2.143 . S
Co531 O539 2.074 . S
Co531 O542 2.093 . S
Co531 O555 2.097 . S
Co531 N572 2.151 . S
Co531 N580 2.214 . S
Co532 O533 2.160 . S
Co532 O538 2.058 . S
Co532 O548 2.057 . S
Co532 O563 2.037 . S
Co532 N567 2.145 . S
Co532 N588 2.257 1_565 S
O533 Co531 2.143 . S
O533 Co532 2.160 . S
C534 O535 1.289 . S
C534 O542 1.205 1_545 S
O535 C534 1.289 . S
C536 O537 1.245 . S
C536 O548 1.232 . S
O537 C536 1.245 . S
O538 Co532 2.058 . S
O538 C564 1.269 . S
O539 Co531 2.074 . S
O539 C564 1.257 . S
H540 C565 0.930 . S
H541 C571 0.930 . S
O542 Co531 2.093 . S
O542 C534 1.205 1_565 S
H543 C575 0.929 . S
H544 C577 0.930 . S
H545 C578 0.930 . S
H546 C576 0.929 . S
H547 C579 0.928 . S
O548 Co532 2.057 . S
O548 C536 1.232 . S
H549 C568 0.929 . S
H550 C569 0.929 . S
H551 C581 0.931 . S
H552 C573 0.929 . S
H553 C582 0.930 . S
H554 C574 0.931 . S
O555 Co531 2.097 . S
O555 C583 1.214 . S
H556 C584 0.929 . S
H557 C585 0.929 . S
H558 C586 0.930 . S
H559 C587 0.929 . S
H560 C589 0.930 . S
H561 C566 0.929 1_544 S
H562 C570 0.930 . S
O563 Co532 2.037 . S
O563 C583 1.234 . S
C564 O538 1.269 . S
C564 O539 1.257 . S
C565 H540 0.930 . S
C565 C568 1.388 . S
C565 C570 1.418 . S
C566 H561 0.929 1_566 S
C566 C569 1.404 . S
C566 C570 1.353 . S
N567 Co532 2.145 . S
N567 C568 1.397 . S
N567 C569 1.334 . S
C568 H549 0.929 . S
C568 C565 1.388 . S
C568 N567 1.397 . S
C569 H550 0.929 . S
C569 C566 1.404 . S
C569 N567 1.334 . S
C570 H562 0.930 . S
C570 C565 1.418 . S
C570 C566 1.353 . S
C571 H541 0.930 . S
C571 N572 1.330 . S
C571 C573 1.446 1_455 S
N572 Co531 2.151 . S
N572 C571 1.330 . S
N572 C576 1.418 . S
C573 H552 0.929 . S
C573 C571 1.446 1_655 S
C573 C574 1.332 . S
C574 H554 0.931 . S
C574 C573 1.332 . S
C574 C575 1.267 1_655 S
C575 H543 0.929 . S
C575 C574 1.267 1_455 S
C575 C576 1.251 . S
C576 H546 0.929 . S
C576 N572 1.418 . S
C576 C575 1.251 . S
C577 H544 0.930 . S
C577 C579 1.406 . S
C577 C582 1.261 . S
C578 H545 0.930 . S
C578 N580 1.325 . S
C578 C581 1.357 . S
C579 H547 0.928 . S
C579 C577 1.406 . S
C579 N580 1.261 . S
N580 Co531 2.214 . S
N580 C578 1.325 . S
N580 C579 1.261 . S
C581 H551 0.931 . S
C581 C578 1.357 . S
C581 C582 1.312 . S
C582 H553 0.930 . S
C582 C577 1.261 . S
C582 C581 1.312 . S
C583 O555 1.214 . S
C583 O563 1.234 . S
C584 H556 0.929 . S
C584 C587 1.391 . S
C584 C589 1.391 . S
C585 H557 0.929 . S
C585 C586 1.390 . S
C585 N588 1.391 . S
C586 H558 0.930 . S
C586 C585 1.390 . S
C586 C587 1.392 . S
C587 H559 0.929 . S
C587 C584 1.391 . S
C587 C586 1.392 . S
N588 Co532 2.257 1_545 S
N588 C585 1.391 . S
N588 C589 1.388 . S
C589 H560 0.930 . S
C589 C584 1.391 . S
C589 N588 1.388 . S
Co590 O592 2.143 . S
Co590 O598 2.074 . S
Co590 O601 2.093 . S
Co590 O614 2.097 . S
Co590 N631 2.151 . S
Co590 N639 2.214 . S
Co591 O592 2.160 . S
Co591 O597 2.058 . S
Co591 O607 2.057 . S
Co591 O622 2.037 . S
Co591 N626 2.145 . S
Co591 N647 2.257 . S
O592 Co590 2.143 . S
O592 Co591 2.160 . S
C593 O594 1.278 . S
C593 O601 1.224 . S
O594 C593 1.278 . S
C595 O596 1.245 . S
C595 O607 1.232 . S
O596 C595 1.245 . S
O597 Co591 2.058 . S
O597 C623 1.269 . S
O598 Co590 2.074 . S
O598 C623 1.257 . S
H599 C624 0.930 . S
H600 C630 0.930 . S
O601 Co590 2.093 . S
O601 C593 1.224 . S
H602 C634 0.929 . S
H603 C636 0.930 . S
H604 C637 0.930 . S
H605 C635 0.929 . S
H606 C638 0.928 . S
O607 Co591 2.057 . S
O607 C595 1.232 . S
H608 C627 0.929 . S
H609 C628 0.929 . S
H610 C640 0.931 . S
H611 C632 0.929 . S
H612 C641 0.930 . S
H613 C633 0.931 . S
O614 Co590 2.097 . S
O614 C642 1.214 . S
H615 C643 0.929 . S
H616 C644 0.929 . S
H617 C645 0.930 . S
H618 C646 0.929 . S
H619 C648 0.930 . S
H620 C625 0.930 1_554 S
H621 C629 0.930 . S
O622 Co591 2.037 . S
O622 C642 1.234 . S
C623 O597 1.269 . S
C623 O598 1.257 . S
C624 H599 0.930 . S
C624 C627 1.388 . S
C624 C629 1.418 . S
C625 H620 0.930 1_556 S
C625 C628 1.404 . S
C625 C629 1.353 . S
N626 Co591 2.145 . S
N626 C627 1.397 . S
N626 C628 1.334 . S
C627 H608 0.929 . S
C627 C624 1.388 . S
C627 N626 1.397 . S
C628 H609 0.929 . S
C628 C625 1.404 . S
C628 N626 1.334 . S
C629 H621 0.930 . S
C629 C624 1.418 . S
C629 C625 1.353 . S
C630 H600 0.930 . S
C630 N631 1.330 . S
C630 C632 1.446 1_545 S
N631 Co590 2.151 . S
N631 C630 1.330 . S
N631 C635 1.418 . S
C632 H611 0.929 . S
C632 C630 1.446 1_565 S
C632 C633 1.332 . S
C633 H613 0.931 . S
C633 C632 1.332 . S
C633 C634 1.267 1_565 S
C634 H602 0.929 . S
C634 C633 1.267 1_545 S
C634 C635 1.251 . S
C635 H605 0.929 . S
C635 N631 1.418 . S
C635 C634 1.251 . S
C636 H603 0.930 . S
C636 C638 1.406 . S
C636 C641 1.261 . S
C637 H604 0.930 . S
C637 N639 1.325 . S
C637 C640 1.357 . S
C638 H606 0.928 . S
C638 C636 1.406 . S
C638 N639 1.261 . S
N639 Co590 2.214 . S
N639 C637 1.325 . S
N639 C638 1.261 . S
C640 H610 0.931 . S
C640 C637 1.357 . S
C640 C641 1.312 . S
C641 H612 0.930 . S
C641 C636 1.261 . S
C641 C640 1.312 . S
C642 O614 1.214 . S
C642 O622 1.234 . S
C643 H615 0.929 . S
C643 C646 1.391 . S
C643 C648 1.391 . S
C644 H616 0.929 . S
C644 C645 1.390 . S
C644 N647 1.391 . S
C645 H617 0.930 . S
C645 C644 1.390 . S
C645 C646 1.392 . S
C646 H618 0.929 . S
C646 C643 1.391 . S
C646 C645 1.392 . S
N647 Co591 2.257 . S
N647 C644 1.391 . S
N647 C648 1.388 . S
C648 H619 0.930 . S
C648 C643 1.391 . S
C648 N647 1.388 . S
Co649 O651 2.143 . S
Co649 O657 2.074 . S
Co649 O660 2.093 . S
Co649 O673 2.097 . S
Co649 N690 2.151 . S
Co649 N698 2.214 . S
Co650 O651 2.160 . S
Co650 O656 2.058 . S
Co650 O666 2.057 . S
Co650 O681 2.037 . S
Co650 N685 2.145 . S
Co650 N706 2.257 . S
O651 Co649 2.143 . S
O651 Co650 2.160 . S
C652 O653 1.278 . S
C652 O660 1.224 . S
O653 C652 1.278 . S
C654 O655 1.245 . S
C654 O666 1.232 . S
O655 C654 1.245 . S
O656 Co650 2.058 . S
O656 C682 1.269 . S
O657 Co649 2.074 . S
O657 C682 1.257 . S
H658 C683 0.930 . S
H659 C689 0.930 . S
O660 Co649 2.093 . S
O660 C652 1.224 . S
H661 C693 0.929 . S
H662 C695 0.930 . S
H663 C696 0.930 . S
H664 C694 0.929 . S
H665 C697 0.928 . S
O666 Co650 2.057 . S
O666 C654 1.232 . S
H667 C686 0.929 . S
H668 C687 0.929 . S
H669 C699 0.931 . S
H670 C691 0.929 . S
H671 C700 0.930 . S
H672 C692 0.931 . S
O673 Co649 2.097 . S
O673 C701 1.214 . S
H674 C702 0.929 . S
H675 C703 0.929 . S
H676 C704 0.930 . S
H677 C705 0.929 . S
H678 C707 0.930 . S
H679 C684 0.930 1_554 S
H680 C688 0.930 . S
O681 Co650 2.037 . S
O681 C701 1.234 . S
C682 O656 1.269 . S
C682 O657 1.257 . S
C683 H658 0.930 . S
C683 C686 1.388 . S
C683 C688 1.418 . S
C684 H679 0.930 1_556 S
C684 C687 1.404 . S
C684 C688 1.353 . S
N685 Co650 2.145 . S
N685 C686 1.397 . S
N685 C687 1.334 . S
C686 H667 0.929 . S
C686 C683 1.388 . S
C686 N685 1.397 . S
C687 H668 0.929 . S
C687 C684 1.404 . S
C687 N685 1.334 . S
C688 H680 0.930 . S
C688 C683 1.418 . S
C688 C684 1.353 . S
C689 H659 0.930 . S
C689 N690 1.330 . S
C689 C691 1.446 . S
N690 Co649 2.151 . S
N690 C689 1.330 . S
N690 C694 1.418 . S
C691 H670 0.929 . S
C691 C689 1.446 . S
C691 C692 1.332 . S
C692 H672 0.931 . S
C692 C691 1.332 . S
C692 C693 1.267 . S
C693 H661 0.929 . S
C693 C692 1.267 . S
C693 C694 1.251 . S
C694 H664 0.929 . S
C694 N690 1.418 . S
C694 C693 1.251 . S
C695 H662 0.930 . S
C695 C697 1.406 . S
C695 C700 1.261 . S
C696 H663 0.930 . S
C696 N698 1.325 . S
C696 C699 1.357 . S
C697 H665 0.928 . S
C697 C695 1.406 . S
C697 N698 1.261 . S
N698 Co649 2.214 . S
N698 C696 1.325 . S
N698 C697 1.261 . S
C699 H669 0.931 . S
C699 C696 1.357 . S
C699 C700 1.312 . S
C700 H671 0.930 . S
C700 C695 1.261 . S
C700 C699 1.312 . S
C701 O673 1.214 . S
C701 O681 1.234 . S
C702 H674 0.929 . S
C702 C705 1.391 . S
C702 C707 1.391 . S
C703 H675 0.929 . S
C703 C704 1.390 . S
C703 N706 1.391 . S
C704 H676 0.930 . S
C704 C703 1.390 . S
C704 C705 1.392 . S
C705 H677 0.929 . S
C705 C702 1.391 . S
C705 C704 1.392 . S
N706 Co650 2.257 . S
N706 C703 1.391 . S
N706 C707 1.388 . S
C707 H678 0.930 . S
C707 C702 1.391 . S
C707 N706 1.388 . S
Co708 O710 2.143 . S
Co708 O716 2.074 . S
Co708 O719 2.093 . S
Co708 O732 2.097 . S
Co708 N749 2.151 . S
Co708 N757 2.214 . S
Co709 O710 2.160 . S
Co709 O715 2.058 . S
Co709 O725 2.057 . S
Co709 O740 2.037 . S
Co709 N744 2.145 . S
Co709 N765 2.257 1_655 S
O710 Co708 2.143 . S
O710 Co709 2.160 . S
C711 O712 1.289 . S
C711 O719 1.205 1_455 S
O712 C711 1.289 . S
C713 O714 1.245 . S
C713 O725 1.232 . S
O714 C713 1.245 . S
O715 Co709 2.058 . S
O715 C741 1.269 . S
O716 Co708 2.074 . S
O716 C741 1.257 . S
H717 C742 0.930 . S
H718 C748 0.930 . S
O719 Co708 2.093 . S
O719 C711 1.205 1_655 S
H720 C752 0.929 . S
H721 C754 0.930 . S
H722 C755 0.930 . S
H723 C753 0.929 . S
H724 C756 0.928 . S
O725 Co709 2.057 . S
O725 C713 1.232 . S
H726 C745 0.929 . S
H727 C746 0.929 . S
H728 C758 0.931 . S
H729 C750 0.929 . S
H730 C759 0.930 . S
H731 C751 0.931 . S
O732 Co708 2.097 . S
O732 C760 1.214 . S
H733 C761 0.929 . S
H734 C762 0.929 . S
H735 C763 0.930 . S
H736 C764 0.929 . S
H737 C766 0.930 . S
H738 C743 0.929 1_455 S
H739 C747 0.930 . S
O740 Co709 2.037 . S
O740 C760 1.234 . S
C741 O715 1.269 . S
C741 O716 1.257 . S
C742 H717 0.930 . S
C742 C745 1.388 . S
C742 C747 1.418 . S
C743 H738 0.929 1_655 S
C743 C746 1.404 . S
C743 C747 1.353 . S
N744 Co709 2.145 . S
N744 C745 1.397 . S
N744 C746 1.334 . S
C745 H726 0.929 . S
C745 C742 1.388 . S
C745 N744 1.397 . S
C746 H727 0.929 . S
C746 C743 1.404 . S
C746 N744 1.334 . S
C747 H739 0.930 . S
C747 C742 1.418 . S
C747 C743 1.353 . S
C748 H718 0.930 . S
C748 N749 1.330 . S
C748 C750 1.446 1_545 S
N749 Co708 2.151 . S
N749 C748 1.330 . S
N749 C753 1.418 . S
C750 H729 0.929 . S
C750 C748 1.446 1_565 S
C750 C751 1.332 . S
C751 H731 0.931 . S
C751 C750 1.332 . S
C751 C752 1.267 1_565 S
C752 H720 0.929 . S
C752 C751 1.267 1_545 S
C752 C753 1.251 . S
C753 H723 0.929 . S
C753 N749 1.418 . S
C753 C752 1.251 . S
C754 H721 0.930 . S
C754 C756 1.406 . S
C754 C759 1.261 . S
C755 H722 0.930 . S
C755 N757 1.325 . S
C755 C758 1.357 . S
C756 H724 0.928 . S
C756 C754 1.406 . S
C756 N757 1.261 . S
N757 Co708 2.214 . S
N757 C755 1.325 . S
N757 C756 1.261 . S
C758 H728 0.931 . S
C758 C755 1.357 . S
C758 C759 1.312 . S
C759 H730 0.930 . S
C759 C754 1.261 . S
C759 C758 1.312 . S
C760 O732 1.214 . S
C760 O740 1.234 . S
C761 H733 0.929 . S
C761 C764 1.391 . S
C761 C766 1.391 . S
C762 H734 0.929 . S
C762 C763 1.390 . S
C762 N765 1.391 . S
C763 H735 0.930 . S
C763 C762 1.390 . S
C763 C764 1.392 . S
C764 H736 0.929 . S
C764 C761 1.391 . S
C764 C763 1.392 . S
N765 Co709 2.257 1_455 S
N765 C762 1.391 . S
N765 C766 1.388 . S
C766 H737 0.930 . S
C766 C761 1.391 . S
C766 N765 1.388 . S
Co767 O769 2.143 . S
Co767 O775 2.074 . S
Co767 O778 2.093 . S
Co767 O791 2.097 . S
Co767 N808 2.151 . S
Co767 N816 2.214 . S
Co768 O769 2.160 . S
Co768 O774 2.058 . S
Co768 O784 2.057 . S
Co768 O799 2.037 . S
Co768 N803 2.145 . S
Co768 N824 2.257 1_565 S
O769 Co767 2.143 . S
O769 Co768 2.160 . S
C770 O771 1.289 . S
C770 O778 1.205 1_545 S
O771 C770 1.289 . S
C772 O773 1.245 . S
C772 O784 1.232 . S
O773 C772 1.245 . S
O774 Co768 2.058 . S
O774 C800 1.269 . S
O775 Co767 2.074 . S
O775 C800 1.257 . S
H776 C801 0.930 . S
H777 C807 0.930 . S
O778 Co767 2.093 . S
O778 C770 1.205 1_565 S
H779 C811 0.929 . S
H780 C813 0.930 . S
H781 C814 0.930 . S
H782 C812 0.929 . S
H783 C815 0.928 . S
O784 Co768 2.057 . S
O784 C772 1.232 . S
H785 C804 0.929 . S
H786 C805 0.929 . S
H787 C817 0.931 . S
H788 C809 0.929 . S
H789 C818 0.930 . S
H790 C810 0.931 . S
O791 Co767 2.097 . S
O791 C819 1.214 . S
H792 C820 0.929 . S
H793 C821 0.929 . S
H794 C822 0.930 . S
H795 C823 0.929 . S
H796 C825 0.930 . S
H797 C802 0.929 1_545 S
H798 C806 0.930 . S
O799 Co768 2.037 . S
O799 C819 1.234 . S
C800 O774 1.269 . S
C800 O775 1.257 . S
C801 H776 0.930 . S
C801 C804 1.388 . S
C801 C806 1.418 . S
C802 H797 0.929 1_565 S
C802 C805 1.404 . S
C802 C806 1.353 . S
N803 Co768 2.145 . S
N803 C804 1.397 . S
N803 C805 1.334 . S
C804 H785 0.929 . S
C804 C801 1.388 . S
C804 N803 1.397 . S
C805 H786 0.929 . S
C805 C802 1.404 . S
C805 N803 1.334 . S
C806 H798 0.930 . S
C806 C801 1.418 . S
C806 C802 1.353 . S
C807 H777 0.930 . S
C807 N808 1.330 . S
C807 C809 1.446 . S
N808 Co767 2.151 . S
N808 C807 1.330 . S
N808 C812 1.418 . S
C809 H788 0.929 . S
C809 C807 1.446 . S
C809 C810 1.332 . S
C810 H790 0.931 . S
C810 C809 1.332 . S
C810 C811 1.267 . S
C811 H779 0.929 . S
C811 C810 1.267 . S
C811 C812 1.251 . S
C812 H782 0.929 . S
C812 N808 1.418 . S
C812 C811 1.251 . S
C813 H780 0.930 . S
C813 C815 1.406 . S
C813 C818 1.261 . S
C814 H781 0.930 . S
C814 N816 1.325 . S
C814 C817 1.357 . S
C815 H783 0.928 . S
C815 C813 1.406 . S
C815 N816 1.261 . S
N816 Co767 2.214 . S
N816 C814 1.325 . S
N816 C815 1.261 . S
C817 H787 0.931 . S
C817 C814 1.357 . S
C817 C818 1.312 . S
C818 H789 0.930 . S
C818 C813 1.261 . S
C818 C817 1.312 . S
C819 O791 1.214 . S
C819 O799 1.234 . S
C820 H792 0.929 . S
C820 C823 1.391 . S
C820 C825 1.391 . S
C821 H793 0.929 . S
C821 C822 1.390 . S
C821 N824 1.391 . S
C822 H794 0.930 . S
C822 C821 1.390 . S
C822 C823 1.392 . S
C823 H795 0.929 . S
C823 C820 1.391 . S
C823 C822 1.392 . S
N824 Co768 2.257 1_545 S
N824 C821 1.391 . S
N824 C825 1.388 . S
C825 H796 0.930 . S
C825 C820 1.391 . S
C825 N824 1.388 . S
Co826 O828 2.143 . S
Co826 O834 2.074 . S
Co826 O837 2.093 . S
Co826 O850 2.097 . S
Co826 N867 2.151 . S
Co826 N875 2.214 . S
Co827 O828 2.160 . S
Co827 O833 2.058 . S
Co827 O843 2.057 . S
Co827 O858 2.037 . S
Co827 N862 2.145 . S
Co827 N883 2.257 . S
O828 Co826 2.143 . S
O828 Co827 2.160 . S
C829 O830 1.278 . S
C829 O837 1.224 . S
O830 C829 1.278 . S
C831 O832 1.245 . S
C831 O843 1.232 . S
O832 C831 1.245 . S
O833 Co827 2.058 . S
O833 C859 1.269 . S
O834 Co826 2.074 . S
O834 C859 1.257 . S
H835 C860 0.930 . S
H836 C866 0.930 . S
O837 Co826 2.093 . S
O837 C829 1.224 . S
H838 C870 0.929 . S
H839 C872 0.930 . S
H840 C873 0.930 . S
H841 C871 0.929 . S
H842 C874 0.928 . S
O843 Co827 2.057 . S
O843 C831 1.232 . S
H844 C863 0.929 . S
H845 C864 0.929 . S
H846 C876 0.931 . S
H847 C868 0.929 . S
H848 C877 0.930 . S
H849 C869 0.931 . S
O850 Co826 2.097 . S
O850 C878 1.214 . S
H851 C879 0.929 . S
H852 C880 0.929 . S
H853 C881 0.930 . S
H854 C882 0.929 . S
H855 C884 0.930 . S
H856 C861 0.930 . S
H857 C865 0.930 . S
O858 Co827 2.037 . S
O858 C878 1.234 . S
C859 O833 1.269 . S
C859 O834 1.257 . S
C860 H835 0.930 . S
C860 C863 1.388 . S
C860 C865 1.418 . S
C861 H856 0.930 . S
C861 C864 1.404 . S
C861 C865 1.353 . S
N862 Co827 2.145 . S
N862 C863 1.397 . S
N862 C864 1.334 . S
C863 H844 0.929 . S
C863 C860 1.388 . S
C863 N862 1.397 . S
C864 H845 0.929 . S
C864 C861 1.404 . S
C864 N862 1.334 . S
C865 H857 0.930 . S
C865 C860 1.418 . S
C865 C861 1.353 . S
C866 H836 0.930 . S
C866 N867 1.330 . S
C866 C868 1.446 . S
N867 Co826 2.151 . S
N867 C866 1.330 . S
N867 C871 1.418 . S
C868 H847 0.929 . S
C868 C866 1.446 . S
C868 C869 1.332 . S
C869 H849 0.931 . S
C869 C868 1.332 . S
C869 C870 1.267 . S
C870 H838 0.929 . S
C870 C869 1.267 . S
C870 C871 1.251 . S
C871 H841 0.929 . S
C871 N867 1.418 . S
C871 C870 1.251 . S
C872 H839 0.930 . S
C872 C874 1.406 . S
C872 C877 1.261 . S
C873 H840 0.930 . S
C873 N875 1.325 . S
C873 C876 1.357 . S
C874 H842 0.928 . S
C874 C872 1.406 . S
C874 N875 1.261 . S
N875 Co826 2.214 . S
N875 C873 1.325 . S
N875 C874 1.261 . S
C876 H846 0.931 . S
C876 C873 1.357 . S
C876 C877 1.312 . S
C877 H848 0.930 . S
C877 C872 1.261 . S
C877 C876 1.312 . S
C878 O850 1.214 . S
C878 O858 1.234 . S
C879 H851 0.929 . S
C879 C882 1.391 . S
C879 C884 1.391 . S
C880 H852 0.929 . S
C880 C881 1.390 . S
C880 N883 1.391 . S
C881 H853 0.930 . S
C881 C880 1.390 . S
C881 C882 1.392 . S
C882 H854 0.929 . S
C882 C879 1.391 . S
C882 C881 1.392 . S
N883 Co827 2.257 . S
N883 C880 1.391 . S
N883 C884 1.388 . S
C884 H855 0.930 . S
C884 C879 1.391 . S
C884 N883 1.388 . S
Co885 O887 2.143 . S
Co885 O893 2.074 . S
Co885 O896 2.093 . S
Co885 O909 2.097 . S
Co885 N926 2.151 . S
Co885 N934 2.214 . S
Co886 O887 2.160 . S
Co886 O892 2.058 . S
Co886 O902 2.057 . S
Co886 O917 2.037 . S
Co886 N921 2.145 . S
Co886 N942 2.257 . S
O887 Co885 2.143 . S
O887 Co886 2.160 . S
C888 O889 1.278 . S
C888 O896 1.224 . S
O889 C888 1.278 . S
C890 O891 1.245 . S
C890 O902 1.232 . S
O891 C890 1.245 . S
O892 Co886 2.058 . S
O892 C918 1.269 . S
O893 Co885 2.074 . S
O893 C918 1.257 . S
H894 C919 0.930 . S
H895 C925 0.930 . S
O896 Co885 2.093 . S
O896 C888 1.224 . S
H897 C929 0.929 . S
H898 C931 0.930 . S
H899 C932 0.930 . S
H900 C930 0.929 . S
H901 C933 0.928 . S
O902 Co886 2.057 . S
O902 C890 1.232 . S
H903 C922 0.929 . S
H904 C923 0.929 . S
H905 C935 0.931 . S
H906 C927 0.929 . S
H907 C936 0.930 . S
H908 C928 0.931 . S
O909 Co885 2.097 . S
O909 C937 1.214 . S
H910 C938 0.929 . S
H911 C939 0.929 . S
H912 C940 0.930 . S
H913 C941 0.929 . S
H914 C943 0.930 . S
H915 C920 0.930 . S
H916 C924 0.930 . S
O917 Co886 2.037 . S
O917 C937 1.234 . S
C918 O892 1.269 . S
C918 O893 1.257 . S
C919 H894 0.930 . S
C919 C922 1.388 . S
C919 C924 1.418 . S
C920 H915 0.930 . S
C920 C923 1.404 . S
C920 C924 1.353 . S
N921 Co886 2.145 . S
N921 C922 1.397 . S
N921 C923 1.334 . S
C922 H903 0.929 . S
C922 C919 1.388 . S
C922 N921 1.397 . S
C923 H904 0.929 . S
C923 C920 1.404 . S
C923 N921 1.334 . S
C924 H916 0.930 . S
C924 C919 1.418 . S
C924 C920 1.353 . S
C925 H895 0.930 . S
C925 N926 1.330 . S
C925 C927 1.446 1_455 S
N926 Co885 2.151 . S
N926 C925 1.330 . S
N926 C930 1.418 . S
C927 H906 0.929 . S
C927 C925 1.446 1_655 S
C927 C928 1.332 . S
C928 H908 0.931 . S
C928 C927 1.332 . S
C928 C929 1.267 1_655 S
C929 H897 0.929 . S
C929 C928 1.267 1_455 S
C929 C930 1.251 . S
C930 H900 0.929 . S
C930 N926 1.418 . S
C930 C929 1.251 . S
C931 H898 0.930 . S
C931 C933 1.406 . S
C931 C936 1.261 . S
C932 H899 0.930 . S
C932 N934 1.325 . S
C932 C935 1.357 . S
C933 H901 0.928 . S
C933 C931 1.406 . S
C933 N934 1.261 . S
N934 Co885 2.214 . S
N934 C932 1.325 . S
N934 C933 1.261 . S
C935 H905 0.931 . S
C935 C932 1.357 . S
C935 C936 1.312 . S
C936 H907 0.930 . S
C936 C931 1.261 . S
C936 C935 1.312 . S
C937 O909 1.214 . S
C937 O917 1.234 . S
C938 H910 0.929 . S
C938 C941 1.391 . S
C938 C943 1.391 . S
C939 H911 0.929 . S
C939 C940 1.390 . S
C939 N942 1.391 . S
C940 H912 0.930 . S
C940 C939 1.390 . S
C940 C941 1.392 . S
C941 H913 0.929 . S
C941 C938 1.391 . S
C941 C940 1.392 . S
N942 Co886 2.257 . S
N942 C939 1.391 . S
N942 C943 1.388 . S
C943 H914 0.930 . S
C943 C938 1.391 . S
C943 N942 1.388 . S
C944 C945 1.369 . S
C944 C946 1.419 . S
C944 H948 0.930 . S
C945 C944 1.369 . S
C945 C954 1.429 . S
C946 C944 1.419 . S
C946 C947 1.363 . S
C946 H949 0.929 . S
C947 C946 1.363 . S
C947 C953 1.428 . S
H948 C944 0.930 . S
H949 C946 0.929 . S
S950 N951 1.613 . S
S950 N952 1.610 . S
N951 S950 1.613 . S
N951 C954 1.350 . S
N952 S950 1.610 . S
N952 C953 1.351 . S
C953 C947 1.428 . S
C953 N952 1.351 . S
C953 C954 1.434 . S
C954 C945 1.429 . S
C954 N951 1.350 . S
C954 C953 1.434 . S
C955 C956 1.369 . S
C955 C957 1.419 . S
C955 H959 0.930 . S
C956 C955 1.369 . S
C956 C965 1.429 . S
C957 C955 1.419 . S
C957 C958 1.363 . S
C957 H960 0.929 . S
C958 C957 1.363 . S
C958 C964 1.428 . S
H959 C955 0.930 . S
H960 C957 0.929 . S
S961 N962 1.613 . S
S961 N963 1.610 . S
N962 S961 1.613 . S
N962 C965 1.350 . S
N963 S961 1.610 . S
N963 C964 1.351 . S
C964 C958 1.428 . S
C964 N963 1.351 . S
C964 C965 1.434 . S
C965 C956 1.429 . S
C965 N962 1.350 . S
C965 C964 1.434 . S
C966 C967 1.369 . S
C966 C968 1.419 . S
C966 H970 0.930 . S
C967 C966 1.369 . S
C967 C976 1.429 . S
C968 C966 1.419 . S
C968 C969 1.363 . S
C968 H971 0.929 . S
C969 C968 1.363 . S
C969 C975 1.428 . S
H970 C966 0.930 . S
H971 C968 0.929 . S
S972 N973 1.613 . S
S972 N974 1.610 . S
N973 S972 1.613 . S
N973 C976 1.350 . S
N974 S972 1.610 . S
N974 C975 1.351 . S
C975 C969 1.428 . S
C975 N974 1.351 . S
C975 C976 1.434 . S
C976 C967 1.429 . S
C976 N973 1.350 . S
C976 C975 1.434 . S
C977 C978 1.369 . S
C977 C979 1.419 . S
C977 H981 0.930 . S
C978 C977 1.369 . S
C978 C987 1.429 . S
C979 C977 1.419 . S
C979 C980 1.363 . S
C979 H982 0.929 . S
C980 C979 1.363 . S
C980 C986 1.428 . S
H981 C977 0.930 . S
H982 C979 0.929 . S
S983 N984 1.613 . S
S983 N985 1.610 . S
N984 S983 1.613 . S
N984 C987 1.350 . S
N985 S983 1.610 . S
N985 C986 1.351 . S
C986 C980 1.428 . S
C986 N985 1.351 . S
C986 C987 1.434 . S
C987 C978 1.429 . S
C987 N984 1.350 . S
C987 C986 1.434 . S
C988 C989 1.369 . S
C988 C990 1.419 . S
C988 H992 0.930 . S
C989 C988 1.369 . S
C989 C998 1.429 . S
C990 C988 1.419 . S
C990 C991 1.363 . S
C990 H993 0.929 . S
C991 C990 1.363 . S
C991 C997 1.428 . S
H992 C988 0.930 . S
H993 C990 0.929 . S
S994 N995 1.613 . S
S994 N996 1.610 . S
N995 S994 1.613 . S
N995 C998 1.350 . S
N996 S994 1.610 . S
N996 C997 1.351 . S
C997 C991 1.428 . S
C997 N996 1.351 . S
C997 C998 1.434 . S
C998 C989 1.429 . S
C998 N995 1.350 . S
C998 C997 1.434 . S
C999 C1000 1.369 . S
C999 C1001 1.419 . S
C999 H1003 0.930 . S
C1000 C999 1.369 . S
C1000 C1009 1.429 . S
C1001 C999 1.419 . S
C1001 C1002 1.363 . S
C1001 H1004 0.929 . S
C1002 C1001 1.363 . S
C1002 C1008 1.428 . S
H1003 C999 0.930 . S
H1004 C1001 0.929 . S
S1005 N1006 1.613 . S
S1005 N1007 1.610 . S
N1006 S1005 1.613 . S
N1006 C1009 1.350 . S
N1007 S1005 1.610 . S
N1007 C1008 1.351 . S
C1008 C1002 1.428 . S
C1008 N1007 1.351 . S
C1008 C1009 1.434 . S
C1009 C1000 1.429 . S
C1009 N1006 1.350 . S
C1009 C1008 1.434 . S
C1010 C1011 1.369 . S
C1010 C1012 1.419 . S
C1010 H1014 0.930 . S
C1011 C1010 1.369 . S
C1011 C1020 1.429 . S
C1012 C1010 1.419 . S
C1012 C1013 1.363 . S
C1012 H1015 0.929 . S
C1013 C1012 1.363 . S
C1013 C1019 1.428 . S
H1014 C1010 0.930 . S
H1015 C1012 0.929 . S
S1016 N1017 1.613 . S
S1016 N1018 1.610 . S
N1017 S1016 1.613 . S
N1017 C1020 1.350 . S
N1018 S1016 1.610 . S
N1018 C1019 1.351 . S
C1019 C1013 1.428 . S
C1019 N1018 1.351 . S
C1019 C1020 1.434 . S
C1020 C1011 1.429 . S
C1020 N1017 1.350 . S
C1020 C1019 1.434 . S
C1021 C1022 1.369 . S
C1021 C1023 1.419 . S
C1021 H1025 0.930 . S
C1022 C1021 1.369 . S
C1022 C1031 1.429 . S
C1023 C1021 1.419 . S
C1023 C1024 1.363 . S
C1023 H1026 0.929 . S
C1024 C1023 1.363 . S
C1024 C1030 1.428 . S
H1025 C1021 0.930 . S
H1026 C1023 0.929 . S
S1027 N1028 1.613 . S
S1027 N1029 1.610 . S
N1028 S1027 1.613 . S
N1028 C1031 1.350 . S
N1029 S1027 1.610 . S
N1029 C1030 1.351 . S
C1030 C1024 1.428 . S
C1030 N1029 1.351 . S
C1030 C1031 1.434 . S
C1031 C1022 1.429 . S
C1031 N1028 1.350 . S
C1031 C1030 1.434 . S
C1032 C1033 1.369 . S
C1032 C1034 1.419 . S
C1032 H1036 0.930 . S
C1033 C1032 1.369 . S
C1033 C1042 1.429 . S
C1034 C1032 1.419 . S
C1034 C1035 1.363 . S
C1034 H1037 0.929 1_655 S
C1035 C1034 1.363 . S
C1035 C1041 1.428 . S
H1036 C1032 0.930 . S
H1037 C1034 0.929 1_455 S
S1038 N1039 1.613 . S
S1038 N1040 1.610 . S
N1039 S1038 1.613 . S
N1039 C1042 1.350 . S
N1040 S1038 1.610 . S
N1040 C1041 1.351 . S
C1041 C1035 1.428 . S
C1041 N1040 1.351 . S
C1041 C1042 1.434 . S
C1042 C1033 1.429 . S
C1042 N1039 1.350 . S
C1042 C1041 1.434 . S
C1043 C1044 1.369 . S
C1043 C1045 1.419 . S
C1043 H1047 0.930 . S
C1044 C1043 1.369 . S
C1044 C1053 1.429 1_565 S
C1045 C1043 1.419 . S
C1045 C1046 1.363 . S
C1045 H1048 0.929 . S
C1046 C1045 1.363 . S
C1046 C1052 1.428 1_565 S
H1047 C1043 0.930 . S
H1048 C1045 0.929 . S
S1049 N1050 1.613 1_455 S
S1049 N1051 1.610 . S
N1050 S1049 1.613 1_655 S
N1050 C1053 1.350 . S
N1051 S1049 1.610 . S
N1051 C1052 1.351 1_455 S
C1052 C1046 1.428 1_545 S
C1052 N1051 1.351 1_655 S
C1052 C1053 1.434 . S
C1053 C1044 1.429 1_545 S
C1053 N1050 1.350 . S
C1053 C1052 1.434 . S
C1054 C1055 1.369 . S
C1054 C1056 1.419 . S
C1054 H1058 0.930 . S
C1055 C1054 1.369 . S
C1055 C1064 1.429 1_565 S
C1056 C1054 1.419 . S
C1056 C1057 1.363 . S
C1056 H1059 0.929 . S
C1057 C1056 1.363 . S
C1057 C1063 1.428 . S
H1058 C1054 0.930 . S
H1059 C1056 0.929 . S
S1060 N1061 1.613 . S
S1060 N1062 1.610 . S
N1061 S1060 1.613 . S
N1061 C1064 1.350 . S
N1062 S1060 1.610 . S
N1062 C1063 1.351 1_545 S
C1063 C1057 1.428 . S
C1063 N1062 1.351 1_565 S
C1063 C1064 1.434 1_565 S
C1064 C1055 1.429 1_545 S
C1064 N1061 1.350 . S
C1064 C1063 1.434 1_545 S
C1065 C1066 1.369 . S
C1065 C1067 1.419 . S
C1065 H1069 0.930 . S
C1066 C1065 1.369 . S
C1066 C1075 1.429 . S
C1067 C1065 1.419 . S
C1067 C1068 1.363 . S
C1067 H1070 0.929 . S
C1068 C1067 1.363 . S
C1068 C1074 1.428 . S
H1069 C1065 0.930 . S
H1070 C1067 0.929 . S
S1071 N1072 1.613 . S
S1071 N1073 1.610 . S
N1072 S1071 1.613 . S
N1072 C1075 1.350 . S
N1073 S1071 1.610 . S
N1073 C1074 1.351 . S
C1074 C1068 1.428 . S
C1074 N1073 1.351 . S
C1074 C1075 1.434 . S
C1075 C1066 1.429 . S
C1075 N1072 1.350 . S
C1075 C1074 1.434 . S
C1076 C1077 1.369 . S
C1076 C1078 1.419 . S
C1076 H1080 0.930 . S
C1077 C1076 1.369 . S
C1077 C1086 1.429 . S
C1078 C1076 1.419 . S
C1078 C1079 1.363 . S
C1078 H1081 0.929 . S
C1079 C1078 1.363 . S
C1079 C1085 1.428 1_455 S
H1080 C1076 0.930 . S
H1081 C1078 0.929 . S
S1082 N1083 1.613 . S
S1082 N1084 1.610 . S
N1083 S1082 1.613 . S
N1083 C1086 1.350 1_655 S
N1084 S1082 1.610 . S
N1084 C1085 1.351 . S
C1085 C1079 1.428 1_655 S
C1085 N1084 1.351 . S
C1085 C1086 1.434 1_655 S
C1086 C1077 1.429 . S
C1086 N1083 1.350 1_455 S
C1086 C1085 1.434 1_455 S
C1087 C1088 1.369 . S
C1087 C1089 1.419 . S
C1087 H1091 0.930 . S
C1088 C1087 1.369 . S
C1088 C1097 1.429 1_455 S
C1089 C1087 1.419 . S
C1089 C1090 1.363 . S
C1089 H1092 0.929 . S
C1090 C1089 1.363 . S
C1090 C1096 1.428 1_455 S
H1091 C1087 0.930 . S
H1092 C1089 0.929 . S
S1093 N1094 1.613 . S
S1093 N1095 1.610 . S
N1094 S1093 1.613 . S
N1094 C1097 1.350 . S
N1095 S1093 1.610 . S
N1095 C1096 1.351 . S
C1096 C1090 1.428 1_655 S
C1096 N1095 1.351 . S
C1096 C1097 1.434 . S
C1097 C1088 1.429 1_655 S
C1097 N1094 1.350 . S
C1097 C1096 1.434 . S
C1098 C1099 1.380 . S
C1098 C1100 1.415 1_545 S
C1098 H1102 0.922 1_545 S
C1099 C1098 1.380 . S
C1099 C1108 1.429 . S
C1100 C1098 1.415 1_565 S
C1100 C1101 1.363 1_565 S
C1100 H1103 0.929 . S
C1101 C1100 1.363 1_545 S
C1101 C1107 1.428 . S
H1102 C1098 0.922 1_565 S
H1103 C1100 0.929 . S
S1104 N1105 1.613 . S
S1104 N1106 1.610 . S
N1105 S1104 1.613 . S
N1105 C1108 1.350 . S
N1106 S1104 1.610 . S
N1106 C1107 1.351 . S
C1107 C1101 1.428 . S
C1107 N1106 1.351 . S
C1107 C1108 1.434 . S
C1108 C1099 1.429 . S
C1108 N1105 1.350 . S
C1108 C1107 1.434 . S
C1109 C1110 1.369 . S
C1109 C1111 1.419 . S
C1109 H1113 0.930 . S
C1110 C1109 1.369 . S
C1110 C1119 1.429 . S
C1111 C1109 1.419 . S
C1111 C1112 1.363 . S
C1111 H1114 0.929 . S
C1112 C1111 1.363 . S
C1112 C1118 1.428 . S
H1113 C1109 0.930 . S
H1114 C1111 0.929 . S
S1115 N1116 1.613 . S
S1115 N1117 1.610 . S
N1116 S1115 1.613 . S
N1116 C1119 1.350 . S
N1117 S1115 1.610 . S
N1117 C1118 1.351 . S
C1118 C1112 1.428 . S
C1118 N1117 1.351 . S
C1118 C1119 1.434 . S
C1119 C1110 1.429 . S
C1119 N1116 1.350 . S
C1119 C1118 1.434 . S
C1120 C1121 1.369 . S
C1120 C1122 1.419 . S
C1120 H1124 0.930 1_455 S
C1121 C1120 1.369 . S
C1121 C1130 1.429 . S
C1122 C1120 1.419 . S
C1122 C1123 1.363 . S
C1122 H1125 0.929 1_455 S
C1123 C1122 1.363 . S
C1123 C1129 1.428 . S
H1124 C1120 0.930 1_655 S
H1125 C1122 0.929 1_655 S
S1126 N1127 1.613 . S
S1126 N1128 1.610 . S
N1127 S1126 1.613 . S
N1127 C1130 1.350 . S
N1128 S1126 1.610 . S
N1128 C1129 1.351 . S
C1129 C1123 1.428 . S
C1129 N1128 1.351 . S
C1129 C1130 1.434 . S
C1130 C1121 1.429 . S
C1130 N1127 1.350 . S
C1130 C1129 1.434 . S
C1131 C1132 1.369 . S
C1131 C1133 1.419 . S
C1131 H1135 0.930 . S
C1132 C1131 1.369 . S
C1132 C1141 1.429 . S
C1133 C1131 1.419 . S
C1133 C1134 1.363 . S
C1133 H1136 0.929 . S
C1134 C1133 1.363 . S
C1134 C1140 1.428 . S
H1135 C1131 0.930 . S
H1136 C1133 0.929 . S
S1137 N1138 1.613 . S
S1137 N1139 1.610 . S
N1138 S1137 1.613 . S
N1138 C1141 1.350 . S
N1139 S1137 1.610 . S
N1139 C1140 1.351 . S
C1140 C1134 1.428 . S
C1140 N1139 1.351 . S
C1140 C1141 1.434 . S
C1141 C1132 1.429 . S
C1141 N1138 1.350 . S
C1141 C1140 1.434 . S
C1142 C1143 1.369 . S
C1142 C1144 1.419 . S
C1142 H1146 0.930 . S
C1143 C1142 1.369 . S
C1143 C1152 1.429 . S
C1144 C1142 1.419 . S
C1144 C1145 1.363 . S
C1144 H1147 0.929 . S
C1145 C1144 1.363 . S
C1145 C1151 1.428 . S
H1146 C1142 0.930 . S
H1147 C1144 0.929 . S
S1148 N1149 1.613 . S
S1148 N1150 1.610 . S
N1149 S1148 1.613 . S
N1149 C1152 1.350 . S
N1150 S1148 1.610 . S
N1150 C1151 1.351 . S
C1151 C1145 1.428 . S
C1151 N1150 1.351 . S
C1151 C1152 1.434 . S
C1152 C1143 1.429 . S
C1152 N1149 1.350 . S
C1152 C1151 1.434 . S
C1153 C1154 1.369 . S
C1153 C1155 1.419 . S
C1153 H1157 0.930 . S
C1154 C1153 1.369 . S
C1154 C1163 1.429 . S
C1155 C1153 1.419 . S
C1155 C1156 1.363 . S
C1155 H1158 0.929 . S
C1156 C1155 1.363 . S
C1156 C1162 1.428 . S
H1157 C1153 0.930 . S
H1158 C1155 0.929 . S
S1159 N1160 1.613 . S
S1159 N1161 1.610 . S
N1160 S1159 1.613 . S
N1160 C1163 1.350 . S
N1161 S1159 1.610 . S
N1161 C1162 1.351 . S
C1162 C1156 1.428 . S
C1162 N1161 1.351 . S
C1162 C1163 1.434 . S
C1163 C1154 1.429 . S
C1163 N1160 1.350 . S
C1163 C1162 1.434 . S
C1164 C1165 1.369 . S
C1164 C1166 1.419 . S
C1164 H1168 0.930 . S
C1165 C1164 1.369 . S
C1165 C1174 1.429 . S
C1166 C1164 1.419 . S
C1166 C1167 1.363 . S
C1166 H1169 0.929 . S
C1167 C1166 1.363 . S
C1167 C1173 1.428 . S
H1168 C1164 0.930 . S
H1169 C1166 0.929 . S
S1170 N1171 1.613 . S
S1170 N1172 1.610 . S
N1171 S1170 1.613 . S
N1171 C1174 1.350 . S
N1172 S1170 1.610 . S
N1172 C1173 1.351 . S
C1173 C1167 1.428 . S
C1173 N1172 1.351 . S
C1173 C1174 1.434 . S
C1174 C1165 1.429 . S
C1174 N1171 1.350 . S
C1174 C1173 1.434 . S
C1175 C1176 1.369 . S
C1175 C1177 1.419 . S
C1175 H1179 0.930 . S
C1176 C1175 1.369 . S
C1176 C1185 1.429 1_565 S
C1177 C1175 1.419 . S
C1177 C1178 1.363 . S
C1177 H1180 0.929 . S
C1178 C1177 1.363 . S
C1178 C1184 1.428 1_565 S
H1179 C1175 0.930 . S
H1180 C1177 0.929 . S
S1181 N1182 1.613 . S
S1181 N1183 1.610 . S
N1182 S1181 1.613 . S
N1182 C1185 1.350 . S
N1183 S1181 1.610 . S
N1183 C1184 1.351 . S
C1184 C1178 1.428 1_545 S
C1184 N1183 1.351 . S
C1184 C1185 1.434 . S
C1185 C1176 1.429 1_545 S
C1185 N1182 1.350 . S
C1185 C1184 1.434 . S
C1186 C1187 1.369 . S
C1186 C1188 1.419 . S
C1186 H1190 0.930 . S
C1187 C1186 1.369 . S
C1187 C1196 1.429 . S
C1188 C1186 1.419 . S
C1188 C1189 1.363 . S
C1188 H1191 0.929 . S
C1189 C1188 1.363 . S
C1189 C1195 1.428 . S
H1190 C1186 0.930 . S
H1191 C1188 0.929 . S
S1192 N1193 1.613 . S
S1192 N1194 1.610 . S
N1193 S1192 1.613 . S
N1193 C1196 1.350 . S
N1194 S1192 1.610 . S
N1194 C1195 1.351 . S
C1195 C1189 1.428 . S
C1195 N1194 1.351 . S
C1195 C1196 1.434 . S
C1196 C1187 1.429 . S
C1196 N1193 1.350 . S
C1196 C1195 1.434 . S
C1197 C1198 1.369 . S
C1197 C1199 1.419 . S
C1197 H1201 0.930 . S
C1198 C1197 1.369 . S
C1198 C1207 1.429 . S
C1199 C1197 1.419 . S
C1199 C1200 1.363 . S
C1199 H1202 0.929 . S
C1200 C1199 1.363 . S
C1200 C1206 1.428 . S
H1201 C1197 0.930 . S
H1202 C1199 0.929 . S
S1203 N1204 1.613 . S
S1203 N1205 1.610 . S
N1204 S1203 1.613 . S
N1204 C1207 1.350 . S
N1205 S1203 1.610 . S
N1205 C1206 1.351 . S
C1206 C1200 1.428 . S
C1206 N1205 1.351 . S
C1206 C1207 1.434 . S
C1207 C1198 1.429 . S
C1207 N1204 1.350 . S
C1207 C1206 1.434 . S
C1208 C1209 1.369 1_655 S
C1208 C1210 1.419 . S
C1208 H1212 0.930 . S
C1209 C1208 1.369 1_455 S
C1209 C1218 1.429 1_554 S
C1210 C1208 1.419 . S
C1210 C1211 1.363 1_554 S
C1210 H1213 0.929 . S
C1211 C1210 1.363 1_556 S
C1211 C1217 1.428 1_655 S
H1212 C1208 0.930 . S
H1213 C1210 0.929 . S
S1214 N1215 1.613 . S
S1214 N1216 1.610 . S
N1215 S1214 1.613 . S
N1215 C1218 1.350 . S
N1216 S1214 1.610 . S
N1216 C1217 1.351 . S
C1217 C1211 1.428 1_455 S
C1217 N1216 1.351 . S
C1217 C1218 1.434 . S
C1218 C1209 1.429 1_556 S
C1218 N1215 1.350 . S
C1218 C1217 1.434 . S
C1219 C1220 1.370 . S
C1219 C1221 1.417 1_465 S
C1219 H1223 0.930 1_565 S
C1220 C1219 1.370 . S
C1220 C1229 1.429 1_556 S
C1221 C1219 1.417 1_645 S
C1221 C1222 1.363 1_556 S
C1221 H1224 0.929 . S
C1222 C1221 1.363 1_554 S
C1222 C1228 1.423 1_545 S
H1223 C1219 0.930 1_545 S
H1224 C1221 0.929 . S
S1225 N1226 1.613 . S
S1225 N1227 1.610 1_455 S
N1226 S1225 1.613 . S
N1226 C1229 1.350 . S
N1227 S1225 1.610 1_655 S
N1227 C1228 1.353 . S
C1228 C1222 1.423 1_565 S
C1228 N1227 1.353 . S
C1228 C1229 1.439 1_655 S
C1229 C1220 1.429 1_554 S
C1229 N1226 1.350 . S
C1229 C1228 1.439 1_455 S
C1230 C1231 1.369 1_556 S
C1230 C1232 1.419 1_565 S
C1230 H1234 0.930 . S
C1231 C1230 1.369 1_554 S
C1231 C1240 1.429 . S
C1232 C1230 1.419 1_545 S
C1232 C1233 1.363 . S
C1232 H1235 0.929 . S
C1233 C1232 1.363 . S
C1233 C1239 1.428 1_556 S
H1234 C1230 0.930 . S
H1235 C1232 0.929 . S
S1236 N1237 1.613 1_545 S
S1236 N1238 1.610 . S
N1237 S1236 1.613 1_565 S
N1237 C1240 1.350 . S
N1238 S1236 1.610 . S
N1238 C1239 1.351 . S
C1239 C1233 1.428 1_554 S
C1239 N1238 1.351 . S
C1239 C1240 1.434 1_545 S
C1240 C1231 1.429 . S
C1240 N1237 1.350 . S
C1240 C1239 1.434 1_565 S
C1241 C1242 1.369 1_554 S
C1241 C1243 1.419 . S
C1241 H1245 0.930 . S
C1242 C1241 1.369 1_556 S
C1242 C1251 1.429 . S
C1243 C1241 1.419 . S
C1243 C1244 1.363 . S
C1243 H1246 0.929 . S
C1244 C1243 1.363 . S
C1244 C1250 1.428 1_554 S
H1245 C1241 0.930 . S
H1246 C1243 0.929 . S
S1247 N1248 1.613 . S
S1247 N1249 1.610 . S
N1248 S1247 1.613 . S
N1248 C1251 1.350 . S
N1249 S1247 1.610 . S
N1249 C1250 1.351 . S
C1250 C1244 1.428 1_556 S
C1250 N1249 1.351 . S
C1250 C1251 1.434 . S
C1251 C1242 1.429 . S
C1251 N1248 1.350 . S
C1251 C1250 1.434 . S
C1252 C1253 1.369 . S
C1252 C1254 1.419 1_565 S
C1252 H1256 0.930 . S
C1253 C1252 1.369 . S
C1253 C1262 1.429 1_455 S
C1254 C1252 1.419 1_545 S
C1254 C1255 1.363 1_455 S
C1254 H1257 0.929 . S
C1255 C1254 1.363 1_655 S
C1255 C1261 1.428 . S
H1256 C1252 0.930 . S
H1257 C1254 0.929 . S
S1258 N1259 1.613 1_545 S
S1258 N1260 1.610 . S
N1259 S1258 1.613 1_565 S
N1259 C1262 1.350 . S
N1260 S1258 1.610 . S
N1260 C1261 1.351 . S
C1261 C1255 1.428 . S
C1261 N1260 1.351 . S
C1261 C1262 1.434 1_545 S
C1262 C1253 1.429 1_655 S
C1262 N1259 1.350 . S
C1262 C1261 1.434 1_565 S
C1263 C1264 1.369 . S
C1263 C1265 1.419 . S
C1263 H1267 0.930 . S
C1264 C1263 1.369 . S
C1264 C1273 1.429 1_545 S
C1265 C1263 1.419 . S
C1265 C1266 1.363 1_545 S
C1265 H1268 0.929 . S
C1266 C1265 1.363 1_565 S
C1266 C1272 1.428 . S
H1267 C1263 0.930 . S
H1268 C1265 0.929 . S
S1269 N1270 1.613 . S
S1269 N1271 1.610 . S
N1270 S1269 1.613 . S
N1270 C1273 1.350 . S
N1271 S1269 1.610 . S
N1271 C1272 1.351 . S
C1272 C1266 1.428 . S
C1272 N1271 1.351 . S
C1272 C1273 1.434 . S
C1273 C1264 1.429 1_565 S
C1273 N1270 1.350 . S
C1273 C1272 1.434 . S
C1274 C1275 1.369 . S
C1274 C1276 1.419 . S
C1274 H1278 0.930 . S
C1275 C1274 1.369 . S
C1275 C1284 1.429 . S
C1276 C1274 1.419 . S
C1276 C1277 1.363 . S
C1276 H1279 0.929 . S
C1277 C1276 1.363 . S
C1277 C1283 1.428 . S
H1278 C1274 0.930 . S
H1279 C1276 0.929 . S
S1280 N1281 1.613 . S
S1280 N1282 1.610 . S
N1281 S1280 1.613 . S
N1281 C1284 1.350 . S
N1282 S1280 1.610 . S
N1282 C1283 1.351 . S
C1283 C1277 1.428 . S
C1283 N1282 1.351 . S
C1283 C1284 1.434 . S
C1284 C1275 1.429 . S
C1284 N1281 1.350 . S
C1284 C1283 1.434 . S
C1285 C1286 1.369 . S
C1285 C1287 1.419 1_655 S
C1285 H1289 0.930 . S
C1286 C1285 1.369 . S
C1286 C1295 1.429 . S
C1287 C1285 1.419 1_455 S
C1287 C1288 1.363 . S
C1287 H1290 0.929 . S
C1288 C1287 1.363 . S
C1288 C1294 1.428 . S
H1289 C1285 0.930 . S
H1290 C1287 0.929 . S
S1291 N1292 1.613 . S
S1291 N1293 1.610 1_655 S
N1292 S1291 1.613 . S
N1292 C1295 1.350 . S
N1293 S1291 1.610 1_455 S
N1293 C1294 1.351 . S
C1294 C1288 1.428 . S
C1294 N1293 1.351 . S
C1294 C1295 1.434 1_455 S
C1295 C1286 1.429 . S
C1295 N1292 1.350 . S
C1295 C1294 1.434 1_655 S
C945 C33 1.656 . S
C947 C151 1.656 . S
C956 C92 1.657 . S
C958 C210 1.655 . S
C967 C269 1.654 . S
C969 C387 1.657 . S
C978 C446 1.653 . S
C980 C328 1.653 . S
C989 C505 1.657 . S
C991 C623 1.653 . S
C1000 C682 1.656 . S
C1002 C564 1.652 . S
C1011 C859 1.652 . S
C1013 C741 1.656 . S
C1022 C918 1.657 . S
C1024 C800 1.655 . S
C1033 C416 1.022 . S
C1035 C3 1.041 . S
C1044 C62 1.037 . S
C1046 C239 1.038 . S
C1055 C298 1.028 . S
C1057 C121 1.032 . S
C1066 C180 1.018 . S
C1068 C357 1.032 . S
C1077 C888 1.034 . S
C1079 C475 1.030 . S
C1088 C534 1.039 . S
C1090 C711 1.034 . S
C1099 C593 1.018 . S
C1101 C770 1.037 . S
C1110 C829 1.027 . S
C1112 C652 1.020 . S
C1121 C52 1.375 . S
C1123 C288 1.388 . S
C1132 C111 1.374 . S
C1134 C347 1.389 . S
C1143 C406 1.374 . S
C1145 C170 1.390 . S
C1154 C229 1.384 . S
C1156 C465 1.384 . S
C1165 C760 1.374 . S
C1167 C524 1.390 . S
C1176 C819 1.383 . S
C1178 C583 1.384 . S
C1187 C642 1.375 . S
C1189 C878 1.389 . S
C1198 C701 1.386 . S
C1200 C937 1.380 . S
C1209 C5 1.936 . S
C1211 C477 1.929 . S
C1220 C536 1.936 . S
C1222 C64 1.930 . S
C1231 C123 1.929 . S
C1233 C595 1.935 . S
C1242 C654 1.928 . S
C1244 C182 1.936 . S
C1253 C241 1.929 . S
C1255 C713 1.935 . S
C1264 C300 1.933 . S
C1266 C772 1.931 . S
C1275 C831 1.936 . S
C1277 C359 1.930 . S
C1286 C418 1.930 . S
C1288 C890 1.934 . S
