# Generated by pormake.
# Topology umm, (4)-cn, num edge types: 1
# Building blocks:
#     Node 0, Type 0, BuildingBlock: NAWXER_clean_sbu_0, # of connection points: 4
#     Node 1, Type 0, BuildingBlock: NAWXER_clean_sbu_0, # of connection points: 4
#     Node 2, Type 0, BuildingBlock: NAWXER_clean_sbu_0, # of connection points: 4
#     Node 3, Type 0, BuildingBlock: NAWXER_clean_sbu_0, # of connection points: 4
#     Node 4, Type 0, BuildingBlock: NAWXER_clean_sbu_0, # of connection points: 4
#     Node 5, Type 0, BuildingBlock: NAWXER_clean_sbu_0, # of connection points: 4
#     Node 6, Type 0, BuildingBlock: NAWXER_clean_sbu_0, # of connection points: 4
#     Node 7, Type 0, BuildingBlock: NAWXER_clean_sbu_0, # of connection points: 4
#     Node 8, Type 0, BuildingBlock: NAWXER_clean_sbu_0, # of connection points: 4
#     Node 9, Type 0, BuildingBlock: NAWXER_clean_sbu_0, # of connection points: 4
#     Node 10, Type 0, BuildingBlock: NAWXER_clean_sbu_0, # of connection points: 4
#     Node 11, Type 0, BuildingBlock: NAWXER_clean_sbu_0, # of connection points: 4
#     Edge 12, Type (0, 0), BuildingBlock: CIFDUS_clean_linker_0, # of connection points: 2
#     Edge 13, Type (0, 0), BuildingBlock: CIFDUS_clean_linker_0, # of connection points: 2
#     Edge 14, Type (0, 0), BuildingBlock: CIFDUS_clean_linker_0, # of connection points: 2
#     Edge 15, Type (0, 0), BuildingBlock: CIFDUS_clean_linker_0, # of connection points: 2
#     Edge 16, Type (0, 0), BuildingBlock: CIFDUS_clean_linker_0, # of connection points: 2
#     Edge 17, Type (0, 0), BuildingBlock: CIFDUS_clean_linker_0, # of connection points: 2
#     Edge 18, Type (0, 0), BuildingBlock: CIFDUS_clean_linker_0, # of connection points: 2
#     Edge 19, Type (0, 0), BuildingBlock: CIFDUS_clean_linker_0, # of connection points: 2
#     Edge 20, Type (0, 0), BuildingBlock: CIFDUS_clean_linker_0, # of connection points: 2
#     Edge 21, Type (0, 0), BuildingBlock: CIFDUS_clean_linker_0, # of connection points: 2
#     Edge 22, Type (0, 0), BuildingBlock: CIFDUS_clean_linker_0, # of connection points: 2
#     Edge 23, Type (0, 0), BuildingBlock: CIFDUS_clean_linker_0, # of connection points: 2
#     Edge 24, Type (0, 0), BuildingBlock: CIFDUS_clean_linker_0, # of connection points: 2
#     Edge 25, Type (0, 0), BuildingBlock: CIFDUS_clean_linker_0, # of connection points: 2
#     Edge 26, Type (0, 0), BuildingBlock: CIFDUS_clean_linker_0, # of connection points: 2
#     Edge 27, Type (0, 0), BuildingBlock: CIFDUS_clean_linker_0, # of connection points: 2
#     Edge 28, Type (0, 0), BuildingBlock: CIFDUS_clean_linker_0, # of connection points: 2
#     Edge 29, Type (0, 0), BuildingBlock: CIFDUS_clean_linker_0, # of connection points: 2
#     Edge 30, Type (0, 0), BuildingBlock: CIFDUS_clean_linker_0, # of connection points: 2
#     Edge 31, Type (0, 0), BuildingBlock: CIFDUS_clean_linker_0, # of connection points: 2
#     Edge 32, Type (0, 0), BuildingBlock: CIFDUS_clean_linker_0, # of connection points: 2
#     Edge 33, Type (0, 0), BuildingBlock: CIFDUS_clean_linker_0, # of connection points: 2
#     Edge 34, Type (0, 0), BuildingBlock: CIFDUS_clean_linker_0, # of connection points: 2
#     Edge 35, Type (0, 0), BuildingBlock: CIFDUS_clean_linker_0, # of connection points: 2
# Relax obj value: 0.044
# Max RMSD: 0.161
# Mean RMSD: 0.161
data_MOF--net-umm--node1-NAWXER_clean_sbu_0--edge1-CIFDUS_clean_linker_0
_symmetry_space_group_name_H-M    P1
_symmetry_Int_Tables_number       1
_symmetry_cell_setting            triclinic
loop_
_symmetry_equiv_pos_as_xyz
'x, y, z'
_cell_length_a     49.347453
_cell_length_b     49.400041
_cell_length_c     25.451876
_cell_angle_alpha  90.111092
_cell_angle_beta   89.919112
_cell_angle_gamma 119.89311
loop_
_atom_site_label
_atom_site_type_symbol
_atom_site_fract_x
_atom_site_fract_y
_atom_site_fract_z
_atom_type_partial_charge
C0 C 0.3374 0.52229 0.06634 0.0
C1 C 0.43525 0.52167 0.09633 0.0
O2 O 0.36121 0.54955 0.07323 0.0
Zn3 Zn 0.41027 0.57031 0.09109 0.0
O4 O 0.34022 0.49826 0.07273 0.0
Zn5 Zn 0.38498 0.52074 0.08658 0.0
O6 O 0.38792 0.53913 0.16405 0.0
O7 O 0.4155 0.59044 0.15826 0.0
O8 O 0.40791 0.49821 0.09194 0.0
O9 O 0.43874 0.54915 0.09677 0.0
O10 O 0.42797 0.59594 0.0297 0.0
O11 O 0.40171 0.54523 0.01304 0.0
C12 C 0.40037 0.56608 0.18601 0.0
C13 C 0.41739 0.57353 0.99685 0.0
C14 C 0.85645 0.42006 0.32749 0.0
C15 C 0.84129 0.4198 0.51666 0.0
O16 O 0.86416 0.40223 0.35192 0.0
Zn17 Zn 0.86605 0.38888 0.43176 0.0
O18 O 0.84731 0.43612 0.3533 0.0
Zn19 Zn 0.84958 0.42072 0.42166 0.0
O20 O 0.89913 0.44217 0.43185 0.0
O21 O 0.91058 0.40472 0.44155 0.0
O22 O 0.83648 0.43509 0.48148 0.0
O23 O 0.85189 0.40172 0.50344 0.0
O24 O 0.83788 0.3443 0.42588 0.0
O25 O 0.81463 0.3721 0.41353 0.0
C26 C 0.91953 0.43368 0.43876 0.0
C27 C 0.81337 0.34553 0.41486 0.0
C28 C 0.4336 0.83857 0.85082 0.0
C29 C 0.4403 0.85623 0.66342 0.0
O30 O 0.46203 0.8506 0.83523 0.0
Zn31 Zn 0.48613 0.86545 0.7609 0.0
O32 O 0.41225 0.83245 0.81753 0.0
Zn33 Zn 0.43796 0.84742 0.75625 0.0
O34 O 0.45367 0.81413 0.73961 0.0
O35 O 0.50473 0.83963 0.75115 0.0
O36 O 0.41649 0.84543 0.69315 0.0
O37 O 0.46732 0.86443 0.68295 0.0
O38 O 0.51434 0.90931 0.77144 0.0
O39 O 0.46506 0.89749 0.76764 0.0
C40 C 0.47999 0.81467 0.73871 0.0
C41 C 0.49409 0.918 0.77246 0.0
C42 C 0.58467 0.42101 0.99474 0.0
C43 C 0.60079 0.42858 0.1842 0.0
O44 O 0.60104 0.4492 0.01108 0.0
Zn45 Zn 0.61838 0.47381 0.08383 0.0
O46 O 0.5736 0.39858 0.02746 0.0
Zn47 Zn 0.59161 0.42406 0.08932 0.0
O48 O 0.5648 0.44682 0.09485 0.0
O49 O 0.59643 0.49757 0.08874 0.0
O50 O 0.58507 0.40415 0.15672 0.0
O51 O 0.61434 0.45544 0.16185 0.0
O52 O 0.66317 0.49452 0.0692 0.0
O53 O 0.64058 0.44315 0.07429 0.0
C54 C 0.56889 0.47451 0.09395 0.0
C55 C 0.66507 0.46978 0.06649 0.0
C56 C 0.17038 0.60822 0.51464 0.0
C57 C 0.15765 0.59089 0.32543 0.0
O58 O 0.15847 0.62341 0.49329 0.0
Zn59 Zn 0.14409 0.62843 0.41595 0.0
O60 O 0.17665 0.59089 0.48629 0.0
Zn61 Zn 0.16288 0.59848 0.41975 0.0
O62 O 0.19609 0.64704 0.40164 0.0
O63 O 0.16983 0.67241 0.40241 0.0
O64 O 0.16721 0.57815 0.35827 0.0
O65 O 0.14836 0.60951 0.34173 0.0
O66 O 0.09955 0.61157 0.42269 0.0
O67 O 0.11276 0.57519 0.4278 0.0
C68 C 0.1954 0.67251 0.39555 0.0
C69 C 0.09157 0.583 0.42804 0.0
C70 C 0.57903 0.16765 0.85512 0.0
C71 C 0.5835 0.15482 0.6653 0.0
O72 O 0.55217 0.15759 0.83352 0.0
Zn73 Zn 0.533 0.14557 0.75488 0.0
O74 O 0.6024 0.17353 0.82647 0.0
Zn75 Zn 0.58122 0.16166 0.75953 0.0
O76 O 0.56894 0.19709 0.74154 0.0
O77 O 0.51748 0.17377 0.74065 0.0
O78 O 0.60554 0.164 0.69859 0.0
O79 O 0.55591 0.1474 0.68098 0.0
O80 O 0.50283 0.10156 0.76069 0.0
O81 O 0.55158 0.11186 0.76693 0.0
C82 C 0.54381 0.19836 0.73469 0.0
C83 C 0.52222 0.09198 0.76649 0.0
C84 C 0.41723 0.57782 0.68434 0.0
C85 C 0.42372 0.5937 0.49483 0.0
O86 O 0.44526 0.59511 0.6678 0.0
Zn87 Zn 0.46935 0.61305 0.59488 0.0
O88 O 0.39469 0.56591 0.65177 0.0
Zn89 Zn 0.41972 0.58467 0.58975 0.0
O90 O 0.44442 0.55962 0.584 0.0
O91 O 0.49488 0.59293 0.58983 0.0
O92 O 0.39948 0.57726 0.52236 0.0
O93 O 0.4506 0.60814 0.5171 0.0
O94 O 0.48833 0.6576 0.609 0.0
O95 O 0.43681 0.63335 0.60496 0.0
C96 C 0.47261 0.56497 0.58473 0.0
C97 C 0.46301 0.65844 0.61233 0.0
C98 C 0.83647 0.42932 0.82877 0.0
C99 C 0.85366 0.44298 0.01794 0.0
O100 O 0.85072 0.4582 0.84223 0.0
Zn101 Zn 0.86742 0.48483 0.91342 0.0
O102 O 0.82827 0.40846 0.86389 0.0
Zn103 Zn 0.84485 0.4356 0.92414 0.0
O104 O 0.81566 0.456 0.93492 0.0
O105 O 0.84365 0.50657 0.9193 0.0
O106 O 0.84109 0.41736 0.99254 0.0
O107 O 0.86423 0.46892 0.99326 0.0
O108 O 0.91253 0.50815 0.90297 0.0
O109 O 0.89416 0.45767 0.91292 0.0
C110 C 0.81792 0.483 0.93321 0.0
C111 C 0.91734 0.48516 0.90562 0.0
C112 C 0.44273 0.91288 0.24357 0.0
C113 C 0.35651 0.80766 0.27627 0.0
O114 O 0.45205 0.89291 0.24734 0.0
Zn115 Zn 0.4311 0.84305 0.25811 0.0
O116 O 0.41365 0.9035 0.24547 0.0
Zn117 Zn 0.39955 0.85971 0.255 0.0
O118 O 0.4184 0.8595 0.33195 0.0
O119 O 0.45124 0.84174 0.32118 0.0
O120 O 0.3555 0.8323 0.26613 0.0
O121 O 0.38282 0.80829 0.27378 0.0
O122 O 0.44258 0.82941 0.19612 0.0
O123 O 0.40953 0.84609 0.17982 0.0
C124 C 0.43792 0.85215 0.35116 0.0
C125 C 0.42678 0.83514 0.16339 0.0
C126 C 0.52989 0.34006 0.61174 0.0
C127 C 0.52707 0.43674 0.5831 0.0
O128 O 0.55716 0.364 0.60533 0.0
Zn129 Zn 0.57708 0.41325 0.58806 0.0
O130 O 0.50582 0.34285 0.60546 0.0
Zn131 Zn 0.52772 0.38735 0.59226 0.0
O132 O 0.54625 0.39089 0.51473 0.0
O133 O 0.59753 0.41929 0.52092 0.0
O134 O 0.50412 0.40911 0.58715 0.0
O135 O 0.55492 0.44106 0.58274 0.0
O136 O 0.60268 0.4312 0.64943 0.0
O137 O 0.55196 0.40413 0.66604 0.0
C138 C 0.57328 0.40392 0.49294 0.0
C139 C 0.58025 0.42021 0.68226 0.0
C140 C 0.17683 0.58356 0.82284 0.0
C141 C 0.16571 0.58961 0.01256 0.0
O142 O 0.16363 0.55661 0.84483 0.0
Zn143 Zn 0.1491 0.53769 0.9225 0.0
O144 O 0.18537 0.60784 0.85075 0.0
Zn145 Zn 0.17147 0.58738 0.9179 0.0
O146 O 0.20172 0.56877 0.93378 0.0
O147 O 0.17349 0.51735 0.93683 0.0
O148 O 0.17742 0.61223 0.9802 0.0
O149 O 0.15466 0.56158 0.99577 0.0
O150 O 0.10371 0.51325 0.91604 0.0
O151 O 0.12195 0.56392 0.91016 0.0
C152 C 0.19989 0.5422 0.94086 0.0
C153 C 0.09875 0.536 0.91018 0.0
C154 C 0.59344 0.15106 0.35204 0.0
C155 C 0.61127 0.16451 0.16254 0.0
O156 O 0.61253 0.14218 0.33623 0.0
Zn157 Zn 0.63256 0.1392 0.26144 0.0
O158 O 0.58139 0.16117 0.31885 0.0
Zn159 Zn 0.60273 0.15772 0.25818 0.0
O160 O 0.57987 0.10739 0.24963 0.0
O161 O 0.61711 0.09526 0.25441 0.0
O162 O 0.59477 0.17147 0.19171 0.0
O163 O 0.6267 0.15272 0.18347 0.0
O164 O 0.67636 0.16454 0.27504 0.0
O165 O 0.65125 0.19097 0.27855 0.0
C166 C 0.58838 0.0867 0.24911 0.0
C167 C 0.67662 0.18994 0.28409 0.0
H168 H 0.43982 0.61372 0.24968 0.0
H169 H 0.35631 0.52321 0.25162 0.0
H170 H 0.35459 0.52501 0.34745 0.0
H171 H 0.37863 0.55082 0.43099 0.0
H172 H 0.46441 0.63941 0.42916 0.0
H173 H 0.46335 0.63997 0.33318 0.0
C174 C 0.42105 0.59458 0.27109 0.0
C175 C 0.39821 0.5684 0.24363 0.0
C176 C 0.4207 0.59536 0.32627 0.0
C177 C 0.37424 0.54358 0.2719 0.0
C178 C 0.37323 0.54459 0.32669 0.0
C179 C 0.39686 0.57042 0.40955 0.0
C180 C 0.42152 0.59506 0.43707 0.0
C181 C 0.39659 0.57014 0.35434 0.0
C182 C 0.44522 0.62011 0.40881 0.0
C183 C 0.44464 0.62045 0.35394 0.0
H184 H 0.83265 0.38067 0.59811 0.0
H185 H 0.83961 0.46914 0.56122 0.0
H186 H 0.83705 0.47919 0.65456 0.0
H187 H 0.83635 0.46444 0.74691 0.0
H188 H 0.82731 0.37512 0.78401 0.0
H189 H 0.82681 0.36366 0.69042 0.0
C190 C 0.83338 0.40203 0.61053 0.0
C191 C 0.83664 0.42426 0.57281 0.0
C192 C 0.83157 0.40754 0.6643 0.0
C193 C 0.83712 0.45165 0.58943 0.0
C194 C 0.83576 0.45747 0.64283 0.0
C195 C 0.83397 0.44234 0.73449 0.0
C196 C 0.83216 0.4208 0.77237 0.0
C197 C 0.83351 0.43583 0.68064 0.0
C198 C 0.82871 0.3921 0.75567 0.0
C199 C 0.82859 0.38559 0.70214 0.0
H200 H 0.46833 0.83415 0.92956 0.0
H201 H 0.38171 0.83289 0.89905 0.0
H202 H 0.37116 0.83038 0.99316 0.0
H203 H 0.38813 0.83181 0.08442 0.0
H204 H 0.47376 0.831 0.11472 0.0
H205 H 0.48292 0.83079 0.02057 0.0
C206 C 0.44705 0.8331 0.94354 0.0
C207 C 0.42601 0.834 0.90744 0.0
C208 C 0.44097 0.83137 0.99771 0.0
C209 C 0.39832 0.83222 0.92605 0.0
C210 C 0.3923 0.83091 0.97989 0.0
C211 C 0.40865 0.83133 0.07037 0.0
C212 C 0.43034 0.8317 0.1065 0.0
C213 C 0.4137 0.83097 0.01611 0.0
C214 C 0.45666 0.83071 0.08774 0.0
C215 C 0.46202 0.83073 0.03387 0.0
H216 H 0.55889 0.38265 0.24778 0.0
H217 H 0.64558 0.47037 0.25023 0.0
H218 H 0.64611 0.46917 0.34623 0.0
H219 H 0.62028 0.44477 0.42961 0.0
H220 H 0.53146 0.35924 0.42694 0.0
H221 H 0.53346 0.35788 0.33108 0.0
C222 C 0.57808 0.40129 0.26935 0.0
C223 C 0.60219 0.42651 0.24199 0.0
C224 C 0.57774 0.40091 0.32456 0.0
C225 C 0.6267 0.45074 0.27045 0.0
C226 C 0.62701 0.45007 0.32532 0.0
C227 C 0.60156 0.42566 0.40803 0.0
C228 C 0.5758 0.40212 0.43528 0.0
C229 C 0.60242 0.42551 0.35283 0.0
C230 C 0.5515 0.3777 0.40681 0.0
C231 C 0.55263 0.3769 0.35201 0.0
H232 H 0.17654 0.5669 0.57697 0.0
H233 H 0.17503 0.65345 0.58167 0.0
H234 H 0.17978 0.65493 0.67729 0.0
H235 H 0.18109 0.63001 0.76008 0.0
H236 H 0.17879 0.54159 0.75563 0.0
H237 H 0.17907 0.54259 0.65964 0.0
C238 C 0.1776 0.58626 0.59889 0.0
C239 C 0.17542 0.61001 0.57221 0.0
C240 C 0.17955 0.58657 0.65402 0.0
C241 C 0.17651 0.63478 0.60125 0.0
C242 C 0.17925 0.63566 0.65596 0.0
C243 C 0.18109 0.61119 0.73806 0.0
C244 C 0.17999 0.5858 0.76493 0.0
C245 C 0.18033 0.61146 0.68284 0.0
C246 C 0.17956 0.56137 0.73587 0.0
C247 C 0.17969 0.5619 0.68097 0.0
H248 H 0.56875 0.17053 0.10273 0.0
H249 H 0.65381 0.16626 0.09193 0.0
H250 H 0.6525 0.16906 0.99619 0.0
H251 H 0.62587 0.1701 0.91521 0.0
H252 H 0.53904 0.17097 0.92578 0.0
H253 H 0.54245 0.17226 0.02166 0.0
C254 C 0.58719 0.17054 0.07946 0.0
C255 C 0.6114 0.16827 0.1046 0.0
C256 C 0.58589 0.17141 0.02424 0.0
C257 C 0.63487 0.16793 0.0737 0.0
C258 C 0.63414 0.16952 0.01888 0.0
C259 C 0.60785 0.17091 0.93846 0.0
C260 C 0.58227 0.17053 0.91322 0.0
C261 C 0.60957 0.1709 0.99368 0.0
C262 C 0.55895 0.17119 0.94409 0.0
C263 C 0.56088 0.17192 0.99898 0.0
H264 H 0.33119 0.56785 0.02011 0.0
H265 H 0.27812 0.47076 0.06399 0.0
H266 H 0.23075 0.46754 0.02648 0.0
H267 H 0.20438 0.49316 0.98252 0.0
H268 H 0.25956 0.59018 0.93798 0.0
H269 H 0.30613 0.59233 0.9739 0.0
C270 C 0.30925 0.54596 0.02196 0.0
C271 C 0.30813 0.5197 0.04557 0.0
C272 C 0.28248 0.54419 0.99968 0.0
C273 C 0.27958 0.4914 0.04644 0.0
C274 C 0.25253 0.48955 0.02484 0.0
C275 C 0.22667 0.51462 0.98014 0.0
C276 C 0.22831 0.5415 0.9577 0.0
C277 C 0.25369 0.51586 1.00135 0.0
C278 C 0.25743 0.56916 0.95519 0.0
C279 C 0.28416 0.5705 0.97589 0.0
H280 H 0.80723 0.29102 0.3774 0.0
H281 H 0.75458 0.33731 0.41094 0.0
H282 H 0.70793 0.29382 0.37212 0.0
H283 H 0.68235 0.24329 0.32635 0.0
H284 H 0.73517 0.19729 0.29147 0.0
H285 H 0.78143 0.24012 0.33239 0.0
C286 C 0.78542 0.29136 0.37694 0.0
C287 C 0.78439 0.31732 0.39737 0.0
C288 C 0.75879 0.26654 0.35348 0.0
C289 C 0.75603 0.3176 0.39565 0.0
C290 C 0.72936 0.2928 0.37319 0.0
C291 C 0.70403 0.24273 0.32728 0.0
C292 C 0.70524 0.21714 0.30549 0.0
C293 C 0.73055 0.26734 0.35133 0.0
C294 C 0.73352 0.21671 0.30768 0.0
C295 C 0.76001 0.24116 0.33132 0.0
H296 H 0.43482 0.76361 0.68802 0.0
H297 H 0.52973 0.80463 0.744 0.0
H298 H 0.53372 0.76098 0.70725 0.0
H299 H 0.50994 0.71063 0.65971 0.0
H300 H 0.415 0.67028 0.60393 0.0
H301 H 0.4116 0.71431 0.63938 0.0
C302 C 0.45632 0.76293 0.69259 0.0
C303 C 0.48183 0.78729 0.71915 0.0
C304 C 0.45861 0.73798 0.67081 0.0
C305 C 0.50965 0.78615 0.72397 0.0
C306 C 0.512 0.76123 0.70278 0.0
C307 C 0.48867 0.71169 0.65475 0.0
C308 C 0.4628 0.68714 0.62909 0.0
C309 C 0.48665 0.73702 0.67594 0.0
C310 C 0.43529 0.68878 0.62352 0.0
C311 C 0.43324 0.71392 0.64398 0.0
H312 H 0.71516 0.5155 0.01188 0.0
H313 H 0.68005 0.42482 0.08328 0.0
H314 H 0.72361 0.42098 0.0472 0.0
H315 H 0.77011 0.44177 0.993 0.0
H316 H 0.80735 0.53257 0.9216 0.0
H317 H 0.7644 0.53783 0.95964 0.0
C318 C 0.71738 0.49517 0.02016 0.0
C319 C 0.69425 0.47044 0.05018 0.0
C320 C 0.74254 0.49286 0.9986 0.0
C321 C 0.69735 0.44413 0.06016 0.0
C322 C 0.72222 0.44182 0.03937 0.0
C323 C 0.76883 0.46269 0.98523 0.0
C324 C 0.79167 0.48653 0.95374 0.0
C325 C 0.74458 0.46573 0.00784 0.0
C326 C 0.78989 0.51372 0.94527 0.0
C327 C 0.76541 0.51677 0.96721 0.0
H328 H 0.2508 0.67815 0.36437 0.0
H329 H 0.20313 0.73093 0.38214 0.0
H330 H 0.24814 0.77688 0.34481 0.0
H331 H 0.30096 0.80209 0.30671 0.0
H332 H 0.34868 0.74933 0.28966 0.0
H333 H 0.30357 0.70334 0.32655 0.0
C334 C 0.25029 0.69975 0.36049 0.0
C335 C 0.22358 0.70103 0.37631 0.0
C336 C 0.27616 0.72605 0.33857 0.0
C337 C 0.22335 0.72922 0.37051 0.0
C338 C 0.24906 0.75552 0.34895 0.0
C339 C 0.30142 0.78046 0.31062 0.0
C340 C 0.32818 0.77919 0.29513 0.0
C341 C 0.27552 0.75416 0.33256 0.0
C342 C 0.32841 0.75101 0.30108 0.0
C343 C 0.30264 0.72469 0.32237 0.0
H344 H 0.49625 0.20707 0.69987 0.0
H345 H 0.59602 0.25564 0.72552 0.0
H346 H 0.60045 0.30305 0.68806 0.0
H347 H 0.57641 0.33069 0.64722 0.0
H348 H 0.4767 0.28291 0.62175 0.0
H349 H 0.47196 0.23518 0.6594 0.0
C350 C 0.51894 0.22809 0.69769 0.0
C351 C 0.54575 0.2277 0.71569 0.0
C352 C 0.52141 0.25535 0.67557 0.0
C353 C 0.57497 0.25517 0.71212 0.0
C354 C 0.57757 0.28233 0.69049 0.0
C355 C 0.55361 0.3098 0.64943 0.0
C356 C 0.52697 0.3104 0.63126 0.0
C357 C 0.55101 0.28262 0.67173 0.0
C358 C 0.49763 0.28313 0.63515 0.0
C359 C 0.49488 0.25584 0.65689 0.0
H360 H 0.43743 0.46751 0.09985 0.0
H361 H 0.49646 0.56776 0.0981 0.0
H362 H 0.54292 0.56236 0.09816 0.0
H363 H 0.56715 0.52915 0.09634 0.0
H364 H 0.5078 0.42891 0.09887 0.0
H365 H 0.46155 0.43446 0.10098 0.0
C366 C 0.46044 0.48818 0.09969 0.0
C367 C 0.46329 0.51794 0.09881 0.0
C368 C 0.48722 0.48498 0.09974 0.0
C369 C 0.49341 0.54448 0.09876 0.0
C370 C 0.52011 0.54146 0.09871 0.0
C371 C 0.54411 0.50855 0.09754 0.0
C372 C 0.54113 0.47871 0.09726 0.0
C373 C 0.51734 0.51182 0.09883 0.0
C374 C 0.51098 0.45225 0.09898 0.0
C375 C 0.48438 0.45533 0.10015 0.0
H376 H 0.94481 0.49669 0.43618 0.0
H377 H 0.97014 0.42489 0.44645 0.0
H378 H 0.02554 0.46477 0.44558 0.0
H379 H 0.06677 0.51999 0.43887 0.0
H380 H 0.04086 0.59139 0.428 0.0
H381 H 0.98571 0.55161 0.43224 0.0
C382 C 0.96238 0.48966 0.43846 0.0
C383 C 0.95321 0.45773 0.4412 0.0
C384 C 0.99414 0.51267 0.43767 0.0
C385 C 0.97644 0.44923 0.4443 0.0
C386 C 0.00815 0.47205 0.4437 0.0
C387 C 0.04909 0.5269 0.43765 0.0
C388 C 0.05808 0.55874 0.43292 0.0
C389 C 0.01728 0.50384 0.43992 0.0
C390 C 0.03474 0.56715 0.43151 0.0
C391 C 1.00313 0.54439 0.4339 0.0
H392 H 0.55801 0.06489 0.77986 0.0
H393 H 0.46212 0.04288 0.76261 0.0
H394 H 0.44486 0.98713 0.76521 0.0
H395 H 0.45721 0.94466 0.76888 0.0
H396 H 0.55332 0.96712 0.78502 0.0
H397 H 0.57016 0.02266 0.78657 0.0
C398 C 0.53329 0.04796 0.7769 0.0
C399 C 0.51143 0.05815 0.77082 0.0
C400 C 0.52354 0.01597 0.77812 0.0
C401 C 0.47949 0.03576 0.76723 0.0
C402 C 0.46959 0.00385 0.76865 0.0
C403 C 0.48183 0.96167 0.77309 0.0
C404 C 0.50395 0.95163 0.77664 0.0
C405 C 0.49144 0.99368 0.77357 0.0
C406 C 0.53576 0.97409 0.78207 0.0
C407 C 0.54544 0.00591 0.7829 0.0
H408 H 0.52873 0.56587 0.58372 0.0
H409 H 0.42893 0.5033 0.57832 0.0
H410 H 0.43683 0.45853 0.57626 0.0
H411 H 0.47173 0.43657 0.57823 0.0
H412 H 0.57156 0.49862 0.58291 0.0
H413 H 0.56391 0.54375 0.58281 0.0
C414 C 0.50874 0.54246 0.58189 0.0
C415 C 0.47831 0.53815 0.58136 0.0
C416 C 0.51337 0.51651 0.58066 0.0
C417 C 0.45268 0.50752 0.57885 0.0
C418 C 0.45712 0.48175 0.57771 0.0
C419 C 0.49184 0.45994 0.57904 0.0
C420 C 0.52214 0.46405 0.58074 0.0
C421 C 0.48732 0.48591 0.57895 0.0
C422 C 0.54791 0.49462 0.5816 0.0
C423 C 0.54358 0.52054 0.58162 0.0
H424 H 0.04322 0.48082 0.9108 0.0
H425 H 0.08211 0.58055 0.89786 0.0
H426 H 0.02985 0.57377 0.89328 0.0
H427 H 0.97282 0.53983 0.89612 0.0
H428 H 0.93383 0.4401 0.90926 0.0
H429 H 0.98611 0.44668 0.91027 0.0
C430 C 0.04027 0.50104 0.90672 0.0
C431 C 0.06666 0.53111 0.90495 0.0
C432 C 0.01 0.49706 0.90421 0.0
C433 C 0.0623 0.55707 0.89952 0.0
C434 C 0.03235 0.55327 0.8969 0.0
C435 C 0.97575 0.51952 0.89886 0.0
C436 C 0.94934 0.48957 0.90283 0.0
C437 C 1.006 0.52341 0.89968 0.0
C438 C 0.95367 0.46351 0.90631 0.0
C439 C 0.98362 0.4672 0.90696 0.0
H440 H 0.50599 0.93983 0.24077 0.0
H441 H 0.43171 0.96199 0.23832 0.0
H442 H 0.4702 0.01771 0.23785 0.0
H443 H 0.52498 0.06016 0.24183 0.0
H444 H 0.59893 0.03749 0.2454 0.0
H445 H 0.56047 0.98199 0.24161 0.0
C446 C 0.49814 0.95679 0.23981 0.0
C447 C 0.46595 0.94665 0.23978 0.0
C448 C 0.52036 0.98877 0.23996 0.0
C449 C 0.45631 0.96907 0.23844 0.0
C450 C 0.47833 1.00097 0.23826 0.0
C451 C 0.53272 0.0431 0.24149 0.0
C452 C 0.56486 0.05308 0.24413 0.0
C453 C 0.51042 0.0111 0.2396 0.0
C454 C 0.57439 0.03057 0.24358 0.0
C455 C 0.55239 0.99877 0.24143 0.0
H456 H 0.45398 0.61551 0.76178 0.0
H457 H 0.36813 0.52911 0.73449 0.0
H458 H 0.3609 0.52016 0.82941 0.0
H459 H 0.37969 0.5365 0.91958 0.0
H460 H 0.46409 0.62426 0.94682 0.0
H461 H 0.47127 0.6332 0.85194 0.0
C462 C 0.4337 0.59468 0.77661 0.0
C463 C 0.41176 0.57278 0.74134 0.0
C464 C 0.42954 0.58998 0.83095 0.0
C465 C 0.38531 0.54623 0.76099 0.0
C466 C 0.38125 0.54109 0.81514 0.0
C467 C 0.39973 0.55753 0.9047 0.0
C468 C 0.4216 0.57954 0.93992 0.0
C469 C 0.40334 0.56271 0.85038 0.0
C470 C 0.44706 0.60699 0.92033 0.0
C471 C 0.45116 0.61205 0.8662 0.0
H472 H 0.85802 0.46452 0.26272 0.0
H473 H 0.85524 0.37581 0.26232 0.0
H474 H 0.85366 0.37466 0.16653 0.0
H475 H 0.85245 0.39857 0.08255 0.0
H476 H 0.85785 0.48848 0.083 0.0
H477 H 0.85902 0.48942 0.17879 0.0
C478 C 0.8571 0.44498 0.2416 0.0
C479 C 0.85668 0.42031 0.26951 0.0
C480 C 0.85664 0.44464 0.18645 0.0
C481 C 0.85576 0.39523 0.24169 0.0
C482 C 0.85474 0.39446 0.1869 0.0
C483 C 0.85387 0.41832 0.10371 0.0
C484 C 0.85499 0.44334 0.07584 0.0
C485 C 0.85506 0.41898 0.15885 0.0
C486 C 0.85713 0.46897 0.10363 0.0
C487 C 0.85771 0.46952 0.15842 0.0
H488 H 0.47925 0.85795 0.58686 0.0
H489 H 0.39283 0.85809 0.61226 0.0
H490 H 0.38536 0.85848 0.51746 0.0
H491 H 0.40234 0.85673 0.42772 0.0
H492 H 0.48716 0.85347 0.40219 0.0
H493 H 0.49636 0.8564 0.49689 0.0
C494 C 0.45895 0.85837 0.5716 0.0
C495 C 0.43666 0.85808 0.60634 0.0
C496 C 0.45446 0.85787 0.51717 0.0
C497 C 0.41025 0.85822 0.58616 0.0
C498 C 0.40598 0.85845 0.53204 0.0
C499 C 0.42297 0.8569 0.44286 0.0
C500 C 0.44407 0.85494 0.40811 0.0
C501 C 0.42777 0.85797 0.49723 0.0
C502 C 0.47052 0.85484 0.42825 0.0
C503 C 0.47581 0.85656 0.48233 0.0
H504 H 0.54378 0.38217 0.75964 0.0
H505 H 0.63046 0.46766 0.73214 0.0
H506 H 0.63937 0.47521 0.82699 0.0
H507 H 0.6219 0.45798 0.91721 0.0
H508 H 0.53668 0.37108 0.94483 0.0
H509 H 0.52779 0.36341 0.84993 0.0
C510 C 0.56457 0.40251 0.77447 0.0
C511 C 0.58628 0.42458 0.73918 0.0
C512 C 0.56975 0.40635 0.82878 0.0
C513 C 0.61343 0.45046 0.75869 0.0
C514 C 0.61848 0.45478 0.8128 0.0
C515 C 0.60134 0.43737 0.90244 0.0
C516 C 0.57974 0.41527 0.93779 0.0
C517 C 0.5967 0.43297 0.84812 0.0
C518 C 0.55356 0.38839 0.91826 0.0
C519 C 0.54845 0.38408 0.86412 0.0
H520 H 0.1611 0.55089 0.09128 0.0
H521 H 0.16911 0.64058 0.0616 0.0
H522 H 0.16642 0.64837 0.1561 0.0
H523 H 0.16151 0.62947 0.24683 0.0
H524 H 0.15646 0.54109 0.27646 0.0
H525 H 0.1582 0.53291 0.18193 0.0
C526 C 0.16217 0.57213 0.10546 0.0
C527 C 0.16504 0.59504 0.06953 0.0
C528 C 0.16109 0.57661 0.15967 0.0
C529 C 0.16692 0.62263 0.08851 0.0
C530 C 0.16529 0.62703 0.14246 0.0
C531 C 0.1606 0.60833 0.23255 0.0
C532 C 0.15853 0.58573 0.26845 0.0
C533 C 0.16227 0.60412 0.17834 0.0
C534 C 0.15799 0.55875 0.24954 0.0
C535 C 0.15896 0.55408 0.19556 0.0
H536 H 0.54742 0.15268 0.58314 0.0
H537 H 0.63323 0.15367 0.62015 0.0
H538 H 0.64319 0.15133 0.52657 0.0
H539 H 0.6279 0.14979 0.43417 0.0
H540 H 0.54355 0.15169 0.39723 0.0
H541 H 0.5326 0.15203 0.49086 0.0
C542 C 0.56824 0.15223 0.57077 0.0
C543 C 0.58948 0.1532 0.60862 0.0
C544 C 0.57408 0.15142 0.5169 0.0
C545 C 0.61653 0.15299 0.59185 0.0
C546 C 0.62221 0.1516 0.53834 0.0
C547 C 0.60701 0.15006 0.44662 0.0
C548 C 0.58647 0.15053 0.40877 0.0
C549 C 0.60119 0.15089 0.50052 0.0
C550 C 0.55974 0.15134 0.42555 0.0
C551 C 0.55346 0.15151 0.47908 0.0
loop_
_geom_bond_atom_site_label_1
_geom_bond_atom_site_label_2
_geom_bond_distance
_geom_bond_site_symmetry_2
_ccdc_geom_bond_type
C0 O2 1.247 . S
C0 O4 1.258 . S
C1 O8 1.247 . S
C1 O9 1.258 . S
O2 C0 1.247 . S
O2 Zn3 2.028 . S
Zn3 O2 2.028 . S
Zn3 O7 2.035 . S
Zn3 O9 2.035 . S
Zn3 O10 2.028 1_554 S
O4 C0 1.258 . S
O4 Zn5 2.035 . S
Zn5 O4 2.035 . S
Zn5 O6 2.028 . S
Zn5 O8 2.028 . S
Zn5 O11 2.035 1_554 S
O6 Zn5 2.028 . S
O6 C12 1.247 . S
O7 Zn3 2.035 . S
O7 C12 1.258 . S
O8 C1 1.247 . S
O8 Zn5 2.028 . S
O9 C1 1.258 . S
O9 Zn3 2.035 . S
O10 Zn3 2.028 1_556 S
O10 C13 1.247 . S
O11 Zn5 2.035 1_556 S
O11 C13 1.258 . S
C12 O6 1.247 . S
C12 O7 1.258 . S
C13 O10 1.247 . S
C13 O11 1.258 . S
C14 O16 1.247 . S
C14 O18 1.258 . S
C15 O22 1.247 . S
C15 O23 1.258 . S
O16 C14 1.247 . S
O16 Zn17 2.028 . S
Zn17 O16 2.028 . S
Zn17 O21 2.035 . S
Zn17 O23 2.035 . S
Zn17 O24 2.028 . S
O18 C14 1.258 . S
O18 Zn19 2.035 . S
Zn19 O18 2.035 . S
Zn19 O20 2.028 . S
Zn19 O22 2.028 . S
Zn19 O25 2.035 . S
O20 Zn19 2.028 . S
O20 C26 1.247 . S
O21 Zn17 2.035 . S
O21 C26 1.258 . S
O22 C15 1.247 . S
O22 Zn19 2.028 . S
O23 C15 1.258 . S
O23 Zn17 2.035 . S
O24 Zn17 2.028 . S
O24 C27 1.247 . S
O25 Zn19 2.035 . S
O25 C27 1.258 . S
C26 O20 1.247 . S
C26 O21 1.258 . S
C27 O24 1.247 . S
C27 O25 1.258 . S
C28 O30 1.247 . S
C28 O32 1.258 . S
C29 O36 1.247 . S
C29 O37 1.258 . S
O30 C28 1.247 . S
O30 Zn31 2.028 . S
Zn31 O30 2.028 . S
Zn31 O35 2.035 . S
Zn31 O37 2.035 . S
Zn31 O38 2.028 . S
O32 C28 1.258 . S
O32 Zn33 2.035 . S
Zn33 O32 2.035 . S
Zn33 O34 2.028 . S
Zn33 O36 2.028 . S
Zn33 O39 2.035 . S
O34 Zn33 2.028 . S
O34 C40 1.247 . S
O35 Zn31 2.035 . S
O35 C40 1.258 . S
O36 C29 1.247 . S
O36 Zn33 2.028 . S
O37 C29 1.258 . S
O37 Zn31 2.035 . S
O38 Zn31 2.028 . S
O38 C41 1.247 . S
O39 Zn33 2.035 . S
O39 C41 1.258 . S
C40 O34 1.247 . S
C40 O35 1.258 . S
C41 O38 1.247 . S
C41 O39 1.258 . S
C42 O44 1.247 . S
C42 O46 1.258 . S
C43 O50 1.247 . S
C43 O51 1.258 . S
O44 C42 1.247 . S
O44 Zn45 2.028 1_556 S
Zn45 O44 2.028 1_554 S
Zn45 O49 2.035 . S
Zn45 O51 2.035 . S
Zn45 O52 2.028 . S
O46 C42 1.258 . S
O46 Zn47 2.035 1_556 S
Zn47 O46 2.035 1_554 S
Zn47 O48 2.028 . S
Zn47 O50 2.028 . S
Zn47 O53 2.035 . S
O48 Zn47 2.028 . S
O48 C54 1.247 . S
O49 Zn45 2.035 . S
O49 C54 1.258 . S
O50 C43 1.247 . S
O50 Zn47 2.028 . S
O51 C43 1.258 . S
O51 Zn45 2.035 . S
O52 Zn45 2.028 . S
O52 C55 1.247 . S
O53 Zn47 2.035 . S
O53 C55 1.258 . S
C54 O48 1.247 . S
C54 O49 1.258 . S
C55 O52 1.247 . S
C55 O53 1.258 . S
C56 O58 1.247 . S
C56 O60 1.258 . S
C57 O64 1.247 . S
C57 O65 1.258 . S
O58 C56 1.247 . S
O58 Zn59 2.028 . S
Zn59 O58 2.028 . S
Zn59 O63 2.035 . S
Zn59 O65 2.035 . S
Zn59 O66 2.028 . S
O60 C56 1.258 . S
O60 Zn61 2.035 . S
Zn61 O60 2.035 . S
Zn61 O62 2.028 . S
Zn61 O64 2.028 . S
Zn61 O67 2.035 . S
O62 Zn61 2.028 . S
O62 C68 1.247 . S
O63 Zn59 2.035 . S
O63 C68 1.258 . S
O64 C57 1.247 . S
O64 Zn61 2.028 . S
O65 C57 1.258 . S
O65 Zn59 2.035 . S
O66 Zn59 2.028 . S
O66 C69 1.247 . S
O67 Zn61 2.035 . S
O67 C69 1.258 . S
C68 O62 1.247 . S
C68 O63 1.258 . S
C69 O66 1.247 . S
C69 O67 1.258 . S
C70 O72 1.247 . S
C70 O74 1.258 . S
C71 O78 1.247 . S
C71 O79 1.258 . S
O72 C70 1.247 . S
O72 Zn73 2.028 . S
Zn73 O72 2.028 . S
Zn73 O77 2.035 . S
Zn73 O79 2.035 . S
Zn73 O80 2.028 . S
O74 C70 1.258 . S
O74 Zn75 2.035 . S
Zn75 O74 2.035 . S
Zn75 O76 2.028 . S
Zn75 O78 2.028 . S
Zn75 O81 2.035 . S
O76 Zn75 2.028 . S
O76 C82 1.247 . S
O77 Zn73 2.035 . S
O77 C82 1.258 . S
O78 C71 1.247 . S
O78 Zn75 2.028 . S
O79 C71 1.258 . S
O79 Zn73 2.035 . S
O80 Zn73 2.028 . S
O80 C83 1.247 . S
O81 Zn75 2.035 . S
O81 C83 1.258 . S
C82 O76 1.247 . S
C82 O77 1.258 . S
C83 O80 1.247 . S
C83 O81 1.258 . S
C84 O86 1.247 . S
C84 O88 1.258 . S
C85 O92 1.247 . S
C85 O93 1.258 . S
O86 C84 1.247 . S
O86 Zn87 2.028 . S
Zn87 O86 2.028 . S
Zn87 O91 2.035 . S
Zn87 O93 2.035 . S
Zn87 O94 2.028 . S
O88 C84 1.258 . S
O88 Zn89 2.035 . S
Zn89 O88 2.035 . S
Zn89 O90 2.028 . S
Zn89 O92 2.028 . S
Zn89 O95 2.035 . S
O90 Zn89 2.028 . S
O90 C96 1.247 . S
O91 Zn87 2.035 . S
O91 C96 1.258 . S
O92 C85 1.247 . S
O92 Zn89 2.028 . S
O93 C85 1.258 . S
O93 Zn87 2.035 . S
O94 Zn87 2.028 . S
O94 C97 1.247 . S
O95 Zn89 2.035 . S
O95 C97 1.258 . S
C96 O90 1.247 . S
C96 O91 1.258 . S
C97 O94 1.247 . S
C97 O95 1.258 . S
C98 O100 1.247 . S
C98 O102 1.258 . S
C99 O106 1.247 . S
C99 O107 1.258 . S
O100 C98 1.247 . S
O100 Zn101 2.028 . S
Zn101 O100 2.028 . S
Zn101 O105 2.035 . S
Zn101 O107 2.035 1_556 S
Zn101 O108 2.028 . S
O102 C98 1.258 . S
O102 Zn103 2.035 . S
Zn103 O102 2.035 . S
Zn103 O104 2.028 . S
Zn103 O106 2.028 1_556 S
Zn103 O109 2.035 . S
O104 Zn103 2.028 . S
O104 C110 1.247 . S
O105 Zn101 2.035 . S
O105 C110 1.258 . S
O106 C99 1.247 . S
O106 Zn103 2.028 1_554 S
O107 C99 1.258 . S
O107 Zn101 2.035 1_554 S
O108 Zn101 2.028 . S
O108 C111 1.247 . S
O109 Zn103 2.035 . S
O109 C111 1.258 . S
C110 O104 1.247 . S
C110 O105 1.258 . S
C111 O108 1.247 . S
C111 O109 1.258 . S
C112 O114 1.247 . S
C112 O116 1.258 . S
C113 O120 1.247 . S
C113 O121 1.258 . S
O114 C112 1.247 . S
O114 Zn115 2.028 . S
Zn115 O114 2.028 . S
Zn115 O119 2.035 . S
Zn115 O121 2.035 . S
Zn115 O122 2.028 . S
O116 C112 1.258 . S
O116 Zn117 2.035 . S
Zn117 O116 2.035 . S
Zn117 O118 2.028 . S
Zn117 O120 2.028 . S
Zn117 O123 2.035 . S
O118 Zn117 2.028 . S
O118 C124 1.247 . S
O119 Zn115 2.035 . S
O119 C124 1.258 . S
O120 C113 1.247 . S
O120 Zn117 2.028 . S
O121 C113 1.258 . S
O121 Zn115 2.035 . S
O122 Zn115 2.028 . S
O122 C125 1.247 . S
O123 Zn117 2.035 . S
O123 C125 1.258 . S
C124 O118 1.247 . S
C124 O119 1.258 . S
C125 O122 1.247 . S
C125 O123 1.258 . S
C126 O128 1.247 . S
C126 O130 1.258 . S
C127 O134 1.247 . S
C127 O135 1.258 . S
O128 C126 1.247 . S
O128 Zn129 2.028 . S
Zn129 O128 2.028 . S
Zn129 O133 2.035 . S
Zn129 O135 2.035 . S
Zn129 O136 2.028 . S
O130 C126 1.258 . S
O130 Zn131 2.035 . S
Zn131 O130 2.035 . S
Zn131 O132 2.028 . S
Zn131 O134 2.028 . S
Zn131 O137 2.035 . S
O132 Zn131 2.028 . S
O132 C138 1.247 . S
O133 Zn129 2.035 . S
O133 C138 1.258 . S
O134 C127 1.247 . S
O134 Zn131 2.028 . S
O135 C127 1.258 . S
O135 Zn129 2.035 . S
O136 Zn129 2.028 . S
O136 C139 1.247 . S
O137 Zn131 2.035 . S
O137 C139 1.258 . S
C138 O132 1.247 . S
C138 O133 1.258 . S
C139 O136 1.247 . S
C139 O137 1.258 . S
C140 O142 1.247 . S
C140 O144 1.258 . S
C141 O148 1.247 . S
C141 O149 1.258 . S
O142 C140 1.247 . S
O142 Zn143 2.028 . S
Zn143 O142 2.028 . S
Zn143 O147 2.035 . S
Zn143 O149 2.035 1_556 S
Zn143 O150 2.028 . S
O144 C140 1.258 . S
O144 Zn145 2.035 . S
Zn145 O144 2.035 . S
Zn145 O146 2.028 . S
Zn145 O148 2.028 1_556 S
Zn145 O151 2.035 . S
O146 Zn145 2.028 . S
O146 C152 1.247 . S
O147 Zn143 2.035 . S
O147 C152 1.258 . S
O148 C141 1.247 . S
O148 Zn145 2.028 1_554 S
O149 C141 1.258 . S
O149 Zn143 2.035 1_554 S
O150 Zn143 2.028 . S
O150 C153 1.247 . S
O151 Zn145 2.035 . S
O151 C153 1.258 . S
C152 O146 1.247 . S
C152 O147 1.258 . S
C153 O150 1.247 . S
C153 O151 1.258 . S
C154 O156 1.247 . S
C154 O158 1.258 . S
C155 O162 1.247 . S
C155 O163 1.258 . S
O156 C154 1.247 . S
O156 Zn157 2.028 . S
Zn157 O156 2.028 . S
Zn157 O161 2.035 . S
Zn157 O163 2.035 . S
Zn157 O164 2.028 . S
O158 C154 1.258 . S
O158 Zn159 2.035 . S
Zn159 O158 2.035 . S
Zn159 O160 2.028 . S
Zn159 O162 2.028 . S
Zn159 O165 2.035 . S
O160 Zn159 2.028 . S
O160 C166 1.247 . S
O161 Zn157 2.035 . S
O161 C166 1.258 . S
O162 C155 1.247 . S
O162 Zn159 2.028 . S
O163 C155 1.258 . S
O163 Zn157 2.035 . S
O164 Zn157 2.028 . S
O164 C167 1.247 . S
O165 Zn159 2.035 . S
O165 C167 1.258 . S
C166 O160 1.247 . S
C166 O161 1.258 . S
C167 O164 1.247 . S
C167 O165 1.258 . S
H168 C174 0.930 . S
H169 C177 0.930 . S
H170 C178 0.930 . S
H171 C179 0.930 . S
H172 C182 0.930 . S
H173 C183 0.930 . S
C174 H168 0.930 . S
C174 C175 1.355 . S
C174 C176 1.415 . S
C175 C174 1.355 . S
C175 C177 1.419 . S
C176 C174 1.415 . S
C176 C181 1.425 . S
C176 C183 1.409 . S
C177 H169 0.930 . S
C177 C175 1.419 . S
C177 C178 1.362 . S
C178 H170 0.930 . S
C178 C177 1.362 . S
C178 C181 1.409 . S
C179 H171 0.930 . S
C179 C180 1.355 . S
C179 C181 1.415 . S
C180 C179 1.355 . S
C180 C182 1.419 . S
C181 C176 1.425 . S
C181 C178 1.409 . S
C181 C179 1.415 . S
C182 H172 0.930 . S
C182 C180 1.419 . S
C182 C183 1.362 . S
C183 H173 0.930 . S
C183 C176 1.409 . S
C183 C182 1.362 . S
H184 C190 0.930 . S
H185 C193 0.930 . S
H186 C194 0.930 . S
H187 C195 0.930 . S
H188 C198 0.930 . S
H189 C199 0.930 . S
C190 H184 0.930 . S
C190 C191 1.355 . S
C190 C192 1.415 . S
C191 C190 1.355 . S
C191 C193 1.419 . S
C192 C190 1.415 . S
C192 C197 1.425 . S
C192 C199 1.409 . S
C193 H185 0.930 . S
C193 C191 1.419 . S
C193 C194 1.362 . S
C194 H186 0.930 . S
C194 C193 1.362 . S
C194 C197 1.409 . S
C195 H187 0.930 . S
C195 C196 1.355 . S
C195 C197 1.415 . S
C196 C195 1.355 . S
C196 C198 1.419 . S
C197 C192 1.425 . S
C197 C194 1.409 . S
C197 C195 1.415 . S
C198 H188 0.930 . S
C198 C196 1.419 . S
C198 C199 1.362 . S
C199 H189 0.930 . S
C199 C192 1.409 . S
C199 C198 1.362 . S
H200 C206 0.930 . S
H201 C209 0.930 . S
H202 C210 0.930 . S
H203 C211 0.930 . S
H204 C214 0.930 . S
H205 C215 0.930 . S
C206 H200 0.930 . S
C206 C207 1.355 . S
C206 C208 1.415 . S
C207 C206 1.355 . S
C207 C209 1.419 . S
C208 C206 1.415 . S
C208 C213 1.425 1_556 S
C208 C215 1.409 1_556 S
C209 H201 0.930 . S
C209 C207 1.419 . S
C209 C210 1.362 . S
C210 H202 0.930 . S
C210 C209 1.362 . S
C210 C213 1.409 1_556 S
C211 H203 0.930 . S
C211 C212 1.355 . S
C211 C213 1.415 . S
C212 C211 1.355 . S
C212 C214 1.419 . S
C213 C208 1.425 1_554 S
C213 C210 1.409 1_554 S
C213 C211 1.415 . S
C214 H204 0.930 . S
C214 C212 1.419 . S
C214 C215 1.362 . S
C215 H205 0.930 . S
C215 C208 1.409 1_554 S
C215 C214 1.362 . S
H216 C222 0.930 . S
H217 C225 0.930 . S
H218 C226 0.930 . S
H219 C227 0.930 . S
H220 C230 0.930 . S
H221 C231 0.930 . S
C222 H216 0.930 . S
C222 C223 1.355 . S
C222 C224 1.415 . S
C223 C222 1.355 . S
C223 C225 1.419 . S
C224 C222 1.415 . S
C224 C229 1.425 . S
C224 C231 1.409 . S
C225 H217 0.930 . S
C225 C223 1.419 . S
C225 C226 1.362 . S
C226 H218 0.930 . S
C226 C225 1.362 . S
C226 C229 1.409 . S
C227 H219 0.930 . S
C227 C228 1.355 . S
C227 C229 1.415 . S
C228 C227 1.355 . S
C228 C230 1.419 . S
C229 C224 1.425 . S
C229 C226 1.409 . S
C229 C227 1.415 . S
C230 H220 0.930 . S
C230 C228 1.419 . S
C230 C231 1.362 . S
C231 H221 0.930 . S
C231 C224 1.409 . S
C231 C230 1.362 . S
H232 C238 0.930 . S
H233 C241 0.930 . S
H234 C242 0.930 . S
H235 C243 0.930 . S
H236 C246 0.930 . S
H237 C247 0.930 . S
C238 H232 0.930 . S
C238 C239 1.355 . S
C238 C240 1.415 . S
C239 C238 1.355 . S
C239 C241 1.419 . S
C240 C238 1.415 . S
C240 C245 1.425 . S
C240 C247 1.409 . S
C241 H233 0.930 . S
C241 C239 1.419 . S
C241 C242 1.362 . S
C242 H234 0.930 . S
C242 C241 1.362 . S
C242 C245 1.409 . S
C243 H235 0.930 . S
C243 C244 1.355 . S
C243 C245 1.415 . S
C244 C243 1.355 . S
C244 C246 1.419 . S
C245 C240 1.425 . S
C245 C242 1.409 . S
C245 C243 1.415 . S
C246 H236 0.930 . S
C246 C244 1.419 . S
C246 C247 1.362 . S
C247 H237 0.930 . S
C247 C240 1.409 . S
C247 C246 1.362 . S
H248 C254 0.930 . S
H249 C257 0.930 . S
H250 C258 0.937 . S
H251 C259 0.930 . S
H252 C262 0.930 . S
H253 C263 0.937 . S
C254 H248 0.930 . S
C254 C255 1.355 . S
C254 C256 1.415 . S
C255 C254 1.355 . S
C255 C257 1.419 . S
C256 C254 1.415 . S
C256 C261 1.425 1_554 S
C256 C263 1.409 1_554 S
C257 H249 0.930 . S
C257 C255 1.419 . S
C257 C258 1.362 . S
C258 H250 0.937 . S
C258 C257 1.362 . S
C258 C261 1.409 1_554 S
C259 H251 0.930 . S
C259 C260 1.355 . S
C259 C261 1.415 . S
C260 C259 1.355 . S
C260 C262 1.419 . S
C261 C256 1.425 1_556 S
C261 C258 1.409 1_556 S
C261 C259 1.415 . S
C262 H252 0.930 . S
C262 C260 1.419 . S
C262 C263 1.362 . S
C263 H253 0.937 . S
C263 C256 1.409 1_556 S
C263 C262 1.362 . S
H264 C270 0.930 . S
H265 C273 0.930 . S
H266 C274 0.930 . S
H267 C275 0.930 . S
H268 C278 0.930 . S
H269 C279 0.930 . S
C270 H264 0.930 . S
C270 C271 1.355 . S
C270 C272 1.415 . S
C271 C270 1.355 . S
C271 C273 1.419 1_554 S
C272 C270 1.415 . S
C272 C277 1.425 1_554 S
C272 C279 1.409 . S
C273 H265 0.930 . S
C273 C271 1.419 1_556 S
C273 C274 1.362 . S
C274 H266 0.930 . S
C274 C273 1.362 . S
C274 C277 1.409 . S
C275 H267 0.930 . S
C275 C276 1.355 . S
C275 C277 1.415 . S
C276 C275 1.355 . S
C276 C278 1.419 1_556 S
C277 C272 1.425 1_556 S
C277 C274 1.409 . S
C277 C275 1.415 . S
C278 H268 0.930 . S
C278 C276 1.419 1_554 S
C278 C279 1.362 . S
C279 H269 0.930 . S
C279 C272 1.409 . S
C279 C278 1.362 . S
H280 C286 0.930 . S
H281 C289 0.930 . S
H282 C290 0.930 . S
H283 C291 0.930 . S
H284 C294 0.930 . S
H285 C295 0.930 . S
C286 H280 0.930 . S
C286 C287 1.355 . S
C286 C288 1.415 . S
C287 C286 1.355 . S
C287 C289 1.419 . S
C288 C286 1.415 . S
C288 C293 1.425 . S
C288 C295 1.409 . S
C289 H281 0.930 . S
C289 C287 1.419 . S
C289 C290 1.362 . S
C290 H282 0.930 . S
C290 C289 1.362 . S
C290 C293 1.409 . S
C291 H283 0.930 . S
C291 C292 1.355 . S
C291 C293 1.415 . S
C292 C291 1.355 . S
C292 C294 1.419 . S
C293 C288 1.425 . S
C293 C290 1.409 . S
C293 C291 1.415 . S
C294 H284 0.930 . S
C294 C292 1.419 . S
C294 C295 1.362 . S
C295 H285 0.930 . S
C295 C288 1.409 . S
C295 C294 1.362 . S
H296 C302 0.930 . S
H297 C305 0.930 . S
H298 C306 0.930 . S
H299 C307 0.930 . S
H300 C310 0.930 . S
H301 C311 0.930 . S
C302 H296 0.930 . S
C302 C303 1.355 . S
C302 C304 1.415 . S
C303 C302 1.355 . S
C303 C305 1.419 . S
C304 C302 1.415 . S
C304 C309 1.425 . S
C304 C311 1.409 . S
C305 H297 0.930 . S
C305 C303 1.419 . S
C305 C306 1.362 . S
C306 H298 0.930 . S
C306 C305 1.362 . S
C306 C309 1.409 . S
C307 H299 0.930 . S
C307 C308 1.355 . S
C307 C309 1.415 . S
C308 C307 1.355 . S
C308 C310 1.419 . S
C309 C304 1.425 . S
C309 C306 1.409 . S
C309 C307 1.415 . S
C310 H300 0.930 . S
C310 C308 1.419 . S
C310 C311 1.362 . S
C311 H301 0.930 . S
C311 C304 1.409 . S
C311 C310 1.362 . S
H312 C318 0.930 . S
H313 C321 0.930 . S
H314 C322 0.930 . S
H315 C323 0.930 . S
H316 C326 0.930 . S
H317 C327 0.930 . S
C318 H312 0.930 . S
C318 C319 1.355 1_556 S
C318 C320 1.415 . S
C319 C318 1.355 1_554 S
C319 C321 1.419 . S
C320 C318 1.415 . S
C320 C325 1.425 1_556 S
C320 C327 1.409 . S
C321 H313 0.930 . S
C321 C319 1.419 . S
C321 C322 1.362 . S
C322 H314 0.930 . S
C322 C321 1.362 . S
C322 C325 1.409 . S
C323 H315 0.930 . S
C323 C324 1.355 1_554 S
C323 C325 1.415 . S
C324 C323 1.355 1_556 S
C324 C326 1.419 . S
C325 C320 1.425 1_554 S
C325 C322 1.409 . S
C325 C323 1.415 . S
C326 H316 0.930 . S
C326 C324 1.419 . S
C326 C327 1.362 . S
C327 H317 0.930 . S
C327 C320 1.409 . S
C327 C326 1.362 . S
H328 C334 0.930 . S
H329 C337 0.930 . S
H330 C338 0.930 . S
H331 C339 0.930 . S
H332 C342 0.930 . S
H333 C343 0.930 . S
C334 H328 0.930 . S
C334 C335 1.355 . S
C334 C336 1.415 . S
C335 C334 1.355 . S
C335 C337 1.419 . S
C336 C334 1.415 . S
C336 C341 1.425 . S
C336 C343 1.409 . S
C337 H329 0.930 . S
C337 C335 1.419 . S
C337 C338 1.362 . S
C338 H330 0.930 . S
C338 C337 1.362 . S
C338 C341 1.409 . S
C339 H331 0.930 . S
C339 C340 1.355 . S
C339 C341 1.415 . S
C340 C339 1.355 . S
C340 C342 1.419 . S
C341 C336 1.425 . S
C341 C338 1.409 . S
C341 C339 1.415 . S
C342 H332 0.930 . S
C342 C340 1.419 . S
C342 C343 1.362 . S
C343 H333 0.930 . S
C343 C336 1.409 . S
C343 C342 1.362 . S
H344 C350 0.930 . S
H345 C353 0.930 . S
H346 C354 0.930 . S
H347 C355 0.930 . S
H348 C358 0.930 . S
H349 C359 0.930 . S
C350 H344 0.930 . S
C350 C351 1.355 . S
C350 C352 1.415 . S
C351 C350 1.355 . S
C351 C353 1.419 . S
C352 C350 1.415 . S
C352 C357 1.425 . S
C352 C359 1.409 . S
C353 H345 0.930 . S
C353 C351 1.419 . S
C353 C354 1.362 . S
C354 H346 0.930 . S
C354 C353 1.362 . S
C354 C357 1.409 . S
C355 H347 0.930 . S
C355 C356 1.355 . S
C355 C357 1.415 . S
C356 C355 1.355 . S
C356 C358 1.419 . S
C357 C352 1.425 . S
C357 C354 1.409 . S
C357 C355 1.415 . S
C358 H348 0.930 . S
C358 C356 1.419 . S
C358 C359 1.362 . S
C359 H349 0.930 . S
C359 C352 1.409 . S
C359 C358 1.362 . S
H360 C366 0.930 . S
H361 C369 0.930 . S
H362 C370 0.930 . S
H363 C371 0.930 . S
H364 C374 0.930 . S
H365 C375 0.930 1_556 S
C366 H360 0.930 . S
C366 C367 1.355 . S
C366 C368 1.415 . S
C367 C366 1.355 . S
C367 C369 1.419 . S
C368 C366 1.415 . S
C368 C373 1.425 . S
C368 C375 1.409 . S
C369 H361 0.930 . S
C369 C367 1.419 . S
C369 C370 1.362 . S
C370 H362 0.930 . S
C370 C369 1.362 . S
C370 C373 1.409 . S
C371 H363 0.930 . S
C371 C372 1.355 . S
C371 C373 1.415 . S
C372 C371 1.355 . S
C372 C374 1.419 . S
C373 C368 1.425 . S
C373 C370 1.409 . S
C373 C371 1.415 . S
C374 H364 0.930 . S
C374 C372 1.419 . S
C374 C375 1.362 . S
C375 H365 0.930 1_554 S
C375 C368 1.409 . S
C375 C374 1.362 . S
H376 C382 0.930 . S
H377 C385 0.930 . S
H378 C386 0.930 . S
H379 C387 0.930 . S
H380 C390 0.930 . S
H381 C391 0.930 . S
C382 H376 0.930 . S
C382 C383 1.355 . S
C382 C384 1.415 . S
C383 C382 1.355 . S
C383 C385 1.419 . S
C384 C382 1.415 . S
C384 C389 1.425 1_655 S
C384 C391 1.409 1_655 S
C385 H377 0.930 . S
C385 C383 1.419 . S
C385 C386 1.362 . S
C386 H378 0.930 . S
C386 C385 1.362 . S
C386 C389 1.409 1_655 S
C387 H379 0.930 . S
C387 C388 1.355 . S
C387 C389 1.415 . S
C388 C387 1.355 . S
C388 C390 1.419 . S
C389 C384 1.425 1_455 S
C389 C386 1.409 1_455 S
C389 C387 1.415 . S
C390 H380 0.930 . S
C390 C388 1.419 . S
C390 C391 1.362 . S
C391 H381 0.930 . S
C391 C384 1.409 1_455 S
C391 C390 1.362 . S
H392 C398 0.930 . S
H393 C401 0.930 . S
H394 C402 0.930 . S
H395 C403 0.930 . S
H396 C406 0.930 . S
H397 C407 0.930 . S
C398 H392 0.930 . S
C398 C399 1.355 . S
C398 C400 1.415 . S
C399 C398 1.355 . S
C399 C401 1.419 . S
C400 C398 1.415 . S
C400 C405 1.425 1_545 S
C400 C407 1.409 1_545 S
C401 H393 0.930 . S
C401 C399 1.419 . S
C401 C402 1.362 . S
C402 H394 0.930 . S
C402 C401 1.362 . S
C402 C405 1.409 1_545 S
C403 H395 0.930 . S
C403 C404 1.355 . S
C403 C405 1.415 . S
C404 C403 1.355 . S
C404 C406 1.419 . S
C405 C400 1.425 1_565 S
C405 C402 1.409 1_565 S
C405 C403 1.415 . S
C406 H396 0.930 . S
C406 C404 1.419 . S
C406 C407 1.362 . S
C407 H397 0.930 . S
C407 C400 1.409 1_565 S
C407 C406 1.362 . S
H408 C414 0.930 . S
H409 C417 0.930 . S
H410 C418 0.930 . S
H411 C419 0.930 . S
H412 C422 0.930 . S
H413 C423 0.930 . S
C414 H408 0.930 . S
C414 C415 1.355 . S
C414 C416 1.415 . S
C415 C414 1.355 . S
C415 C417 1.419 . S
C416 C414 1.415 . S
C416 C421 1.425 . S
C416 C423 1.409 . S
C417 H409 0.930 . S
C417 C415 1.419 . S
C417 C418 1.362 . S
C418 H410 0.930 . S
C418 C417 1.362 . S
C418 C421 1.409 . S
C419 H411 0.930 . S
C419 C420 1.355 . S
C419 C421 1.415 . S
C420 C419 1.355 . S
C420 C422 1.419 . S
C421 C416 1.425 . S
C421 C418 1.409 . S
C421 C419 1.415 . S
C422 H412 0.930 . S
C422 C420 1.419 . S
C422 C423 1.362 . S
C423 H413 0.930 . S
C423 C416 1.409 . S
C423 C422 1.362 . S
H424 C430 0.930 . S
H425 C433 0.930 . S
H426 C434 0.930 . S
H427 C435 0.930 . S
H428 C438 0.930 . S
H429 C439 0.930 . S
C430 H424 0.930 . S
C430 C431 1.355 . S
C430 C432 1.415 . S
C431 C430 1.355 . S
C431 C433 1.419 . S
C432 C430 1.415 . S
C432 C437 1.425 1_455 S
C432 C439 1.409 1_455 S
C433 H425 0.930 . S
C433 C431 1.419 . S
C433 C434 1.362 . S
C434 H426 0.930 . S
C434 C433 1.362 . S
C434 C437 1.409 1_455 S
C435 H427 0.930 . S
C435 C436 1.355 . S
C435 C437 1.415 . S
C436 C435 1.355 . S
C436 C438 1.419 . S
C437 C432 1.425 1_655 S
C437 C434 1.409 1_655 S
C437 C435 1.415 . S
C438 H428 0.930 . S
C438 C436 1.419 . S
C438 C439 1.362 . S
C439 H429 0.930 . S
C439 C432 1.409 1_655 S
C439 C438 1.362 . S
H440 C446 0.930 . S
H441 C449 0.930 . S
H442 C450 0.930 . S
H443 C451 0.930 . S
H444 C454 0.930 . S
H445 C455 0.930 . S
C446 H440 0.930 . S
C446 C447 1.355 . S
C446 C448 1.415 . S
C447 C446 1.355 . S
C447 C449 1.419 . S
C448 C446 1.415 . S
C448 C453 1.425 1_565 S
C448 C455 1.409 1_565 S
C449 H441 0.930 . S
C449 C447 1.419 . S
C449 C450 1.362 . S
C450 H442 0.930 . S
C450 C449 1.362 . S
C450 C453 1.409 1_565 S
C451 H443 0.930 . S
C451 C452 1.355 . S
C451 C453 1.415 . S
C452 C451 1.355 . S
C452 C454 1.419 . S
C453 C448 1.425 1_545 S
C453 C450 1.409 1_545 S
C453 C451 1.415 . S
C454 H444 0.930 . S
C454 C452 1.419 . S
C454 C455 1.362 . S
C455 H445 0.930 . S
C455 C448 1.409 1_545 S
C455 C454 1.362 . S
H456 C462 0.930 . S
H457 C465 0.930 . S
H458 C466 0.930 . S
H459 C467 0.930 . S
H460 C470 0.930 . S
H461 C471 0.930 . S
C462 H456 0.930 . S
C462 C463 1.355 . S
C462 C464 1.415 . S
C463 C462 1.355 . S
C463 C465 1.419 . S
C464 C462 1.415 . S
C464 C469 1.425 . S
C464 C471 1.409 . S
C465 H457 0.930 . S
C465 C463 1.419 . S
C465 C466 1.362 . S
C466 H458 0.930 . S
C466 C465 1.362 . S
C466 C469 1.409 . S
C467 H459 0.930 . S
C467 C468 1.355 . S
C467 C469 1.415 . S
C468 C467 1.355 . S
C468 C470 1.419 . S
C469 C464 1.425 . S
C469 C466 1.409 . S
C469 C467 1.415 . S
C470 H460 0.930 . S
C470 C468 1.419 . S
C470 C471 1.362 . S
C471 H461 0.930 . S
C471 C464 1.409 . S
C471 C470 1.362 . S
H472 C478 0.930 . S
H473 C481 0.930 . S
H474 C482 0.930 . S
H475 C483 0.930 . S
H476 C486 0.930 . S
H477 C487 0.930 . S
C478 H472 0.930 . S
C478 C479 1.355 . S
C478 C480 1.415 . S
C479 C478 1.355 . S
C479 C481 1.419 . S
C480 C478 1.415 . S
C480 C485 1.425 . S
C480 C487 1.409 . S
C481 H473 0.930 . S
C481 C479 1.419 . S
C481 C482 1.362 . S
C482 H474 0.930 . S
C482 C481 1.362 . S
C482 C485 1.409 . S
C483 H475 0.930 . S
C483 C484 1.355 . S
C483 C485 1.415 . S
C484 C483 1.355 . S
C484 C486 1.419 . S
C485 C480 1.425 . S
C485 C482 1.409 . S
C485 C483 1.415 . S
C486 H476 0.930 . S
C486 C484 1.419 . S
C486 C487 1.362 . S
C487 H477 0.930 . S
C487 C480 1.409 . S
C487 C486 1.362 . S
H488 C494 0.930 . S
H489 C497 0.930 . S
H490 C498 0.930 . S
H491 C499 0.930 . S
H492 C502 0.930 . S
H493 C503 0.930 . S
C494 H488 0.930 . S
C494 C495 1.355 . S
C494 C496 1.415 . S
C495 C494 1.355 . S
C495 C497 1.419 . S
C496 C494 1.415 . S
C496 C501 1.425 . S
C496 C503 1.409 . S
C497 H489 0.930 . S
C497 C495 1.419 . S
C497 C498 1.362 . S
C498 H490 0.930 . S
C498 C497 1.362 . S
C498 C501 1.409 . S
C499 H491 0.930 . S
C499 C500 1.355 . S
C499 C501 1.415 . S
C500 C499 1.355 . S
C500 C502 1.419 . S
C501 C496 1.425 . S
C501 C498 1.409 . S
C501 C499 1.415 . S
C502 H492 0.930 . S
C502 C500 1.419 . S
C502 C503 1.362 . S
C503 H493 0.930 . S
C503 C496 1.409 . S
C503 C502 1.362 . S
H504 C510 0.930 . S
H505 C513 0.930 . S
H506 C514 0.930 . S
H507 C515 0.930 . S
H508 C518 0.930 . S
H509 C519 0.930 . S
C510 H504 0.930 . S
C510 C511 1.355 . S
C510 C512 1.415 . S
C511 C510 1.355 . S
C511 C513 1.419 . S
C512 C510 1.415 . S
C512 C517 1.425 . S
C512 C519 1.409 . S
C513 H505 0.930 . S
C513 C511 1.419 . S
C513 C514 1.362 . S
C514 H506 0.930 . S
C514 C513 1.362 . S
C514 C517 1.409 . S
C515 H507 0.930 . S
C515 C516 1.355 . S
C515 C517 1.415 . S
C516 C515 1.355 . S
C516 C518 1.419 . S
C517 C512 1.425 . S
C517 C514 1.409 . S
C517 C515 1.415 . S
C518 H508 0.930 . S
C518 C516 1.419 . S
C518 C519 1.362 . S
C519 H509 0.930 . S
C519 C512 1.409 . S
C519 C518 1.362 . S
H520 C526 0.930 . S
H521 C529 0.930 . S
H522 C530 0.930 . S
H523 C531 0.930 . S
H524 C534 0.930 . S
H525 C535 0.930 . S
C526 H520 0.930 . S
C526 C527 1.355 . S
C526 C528 1.415 . S
C527 C526 1.355 . S
C527 C529 1.419 . S
C528 C526 1.415 . S
C528 C533 1.425 . S
C528 C535 1.409 . S
C529 H521 0.930 . S
C529 C527 1.419 . S
C529 C530 1.362 . S
C530 H522 0.930 . S
C530 C529 1.362 . S
C530 C533 1.409 . S
C531 H523 0.930 . S
C531 C532 1.355 . S
C531 C533 1.415 . S
C532 C531 1.355 . S
C532 C534 1.419 . S
C533 C528 1.425 . S
C533 C530 1.409 . S
C533 C531 1.415 . S
C534 H524 0.930 . S
C534 C532 1.419 . S
C534 C535 1.362 . S
C535 H525 0.930 . S
C535 C528 1.409 . S
C535 C534 1.362 . S
H536 C542 0.930 . S
H537 C545 0.930 . S
H538 C546 0.930 . S
H539 C547 0.930 . S
H540 C550 0.930 . S
H541 C551 0.930 . S
C542 H536 0.930 . S
C542 C543 1.355 . S
C542 C544 1.415 . S
C543 C542 1.355 . S
C543 C545 1.419 . S
C544 C542 1.415 . S
C544 C549 1.425 . S
C544 C551 1.409 . S
C545 H537 0.930 . S
C545 C543 1.419 . S
C545 C546 1.362 . S
C546 H538 0.930 . S
C546 C545 1.362 . S
C546 C549 1.409 . S
C547 H539 0.930 . S
C547 C548 1.355 . S
C547 C549 1.415 . S
C548 C547 1.355 . S
C548 C550 1.419 . S
C549 C544 1.425 . S
C549 C546 1.409 . S
C549 C547 1.415 . S
C550 H540 0.930 . S
C550 C548 1.419 . S
C550 C551 1.362 . S
C551 H541 0.930 . S
C551 C544 1.409 . S
C551 C550 1.362 . S
C175 C12 1.667 . S
C180 C85 1.665 . S
C191 C15 1.654 . S
C196 C98 1.665 . S
C207 C28 1.649 . S
C212 C125 1.655 . S
C223 C43 1.658 . S
C228 C138 1.667 . S
C239 C56 1.666 . S
C244 C140 1.666 . S
C255 C155 1.667 . S
C260 C70 1.663 . S
C271 C0 1.757 . S
C276 C152 1.774 . S
C287 C27 1.777 . S
C292 C167 1.755 . S
C303 C40 1.767 . S
C308 C97 1.788 . S
C319 C55 1.786 . S
C324 C110 1.778 . S
C335 C68 1.783 . S
C340 C113 1.782 . S
C351 C82 1.769 . S
C356 C126 1.759 . S
C367 C1 1.771 . S
C372 C54 1.748 . S
C383 C26 1.739 . S
C388 C69 1.746 . S
C399 C83 1.738 . S
C404 C41 1.760 . S
C415 C96 1.788 . S
C420 C127 1.787 . S
C431 C153 1.784 . S
C436 C111 1.788 . S
C447 C112 1.740 . S
C452 C166 1.758 . S
C463 C84 1.140 . S
C468 C13 1.154 . S
C479 C14 1.155 . S
C484 C99 1.140 . S
C495 C29 1.138 . S
C500 C124 1.129 . S
C511 C139 1.130 . S
C516 C42 1.130 . S
C527 C141 1.141 . S
C532 C57 1.155 . S
C543 C71 1.141 . S
C548 C154 1.130 . S
