# Generated by pormake.
# Topology bto, (3)-cn, num edge types: 1
# Building blocks:
#     Node 0, Type 0, BuildingBlock: OLANEW_clean_sbu_2, # of connection points: 3
#     Node 1, Type 0, BuildingBlock: OLANEW_clean_sbu_2, # of connection points: 3
#     Node 2, Type 0, BuildingBlock: OLANEW_clean_sbu_2, # of connection points: 3
#     Node 3, Type 0, BuildingBlock: OLANEW_clean_sbu_2, # of connection points: 3
#     Node 4, Type 0, BuildingBlock: OLANEW_clean_sbu_2, # of connection points: 3
#     Node 5, Type 0, BuildingBlock: OLANEW_clean_sbu_2, # of connection points: 3
#     Edge 6, Type (0, 0), BuildingBlock: FUNLAD_clean_linker_1, # of connection points: 2
#     Edge 7, Type (0, 0), BuildingBlock: FUNLAD_clean_linker_1, # of connection points: 2
#     Edge 8, Type (0, 0), BuildingBlock: FUNLAD_clean_linker_1, # of connection points: 2
#     Edge 9, Type (0, 0), BuildingBlock: FUNLAD_clean_linker_1, # of connection points: 2
#     Edge 10, Type (0, 0), BuildingBlock: FUNLAD_clean_linker_1, # of connection points: 2
#     Edge 11, Type (0, 0), BuildingBlock: FUNLAD_clean_linker_1, # of connection points: 2
#     Edge 12, Type (0, 0), BuildingBlock: FUNLAD_clean_linker_1, # of connection points: 2
#     Edge 13, Type (0, 0), BuildingBlock: FUNLAD_clean_linker_1, # of connection points: 2
#     Edge 14, Type (0, 0), BuildingBlock: FUNLAD_clean_linker_1, # of connection points: 2
# Relax obj value: 0.000
# Max RMSD: 0.057
# Mean RMSD: 0.056
data_MOF--net-bto--node1-OLANEW_clean_sbu_2--edge1-FUNLAD_clean_linker_1
_symmetry_space_group_name_H-M    P1
_symmetry_Int_Tables_number       1
_symmetry_cell_setting            triclinic
loop_
_symmetry_equiv_pos_as_xyz
'x, y, z'
_cell_length_a     33.168745
_cell_length_b     33.203534
_cell_length_c     59.461491
_cell_angle_alpha  81.833348
_cell_angle_beta   90.006357
_cell_angle_gamma 120.00687
loop_
_atom_site_label
_atom_site_type_symbol
_atom_site_fract_x
_atom_site_fract_y
_atom_site_fract_z
_atom_type_partial_charge
O0 O 0.12458 0.6602 0.09349 0.0
Cd1 Cd 0.11055 0.65542 0.05339 0.0
O2 O 0.0547 0.64575 0.10502 0.0
Cd3 Cd 0.02708 0.64114 0.07149 0.0
O4 O 0.9783 0.6378 0.04604 0.0
C5 C 0.93886 0.60019 0.04729 0.0
O6 O 0.92964 0.56394 0.06295 0.0
C7 C 0.09554 0.65431 0.10934 0.0
C8 C 0.17547 0.6396 0.03241 0.0
O9 O 0.1845 0.68161 0.03335 0.0
O10 O 0.13571 0.60511 0.04111 0.0
O11 O 0.50742 0.30349 0.43822 0.0
Cd12 Cd 0.53098 0.37903 0.41411 0.0
O13 O 0.49592 0.2715 0.40727 0.0
Cd14 Cd 0.4747 0.20957 0.391 0.0
O15 O 0.45236 0.14263 0.37929 0.0
C16 C 0.41175 0.11946 0.37266 0.0
O17 O 0.38341 0.13637 0.3726 0.0
C18 C 0.49517 0.2674 0.42886 0.0
C19 C 0.62155 0.42156 0.39382 0.0
O20 O 0.61373 0.42984 0.41325 0.0
O21 O 0.58665 0.39309 0.38392 0.0
O22 O 0.44945 0.43147 0.73901 0.0
Cd23 Cd 0.4118 0.39945 0.70536 0.0
O24 O 0.43574 0.48731 0.72468 0.0
Cd25 Cd 0.43494 0.55294 0.72328 0.0
O26 O 0.42286 0.60927 0.70787 0.0
C27 C 0.44195 0.65038 0.71308 0.0
O28 O 0.47084 0.6612 0.72923 0.0
C29 C 0.45139 0.47021 0.74042 0.0
C30 C 0.43114 0.33527 0.68994 0.0
O31 O 0.45714 0.3796 0.6829 0.0
O32 O 0.39684 0.32133 0.70478 0.0
O33 O 0.34576 0.92331 0.53174 0.0
Cd34 Cd 0.29744 0.84101 0.54956 0.0
O35 O 0.36035 0.94357 0.56562 0.0
Cd36 Cd 0.38886 0.9968 0.58789 0.0
O37 O 0.40566 0.05031 0.60938 0.0
C38 C 0.38374 0.0385 0.6289 0.0
O39 O 0.35232 0.99413 0.636 0.0
C40 C 0.36491 0.95524 0.54409 0.0
C41 C 0.33982 0.81117 0.58298 0.0
O42 O 0.34342 0.80644 0.5622 0.0
O43 O 0.31672 0.83062 0.58801 0.0
O44 O 0.60252 0.61005 0.90194 0.0
Cd45 Cd 0.61545 0.64198 0.93752 0.0
O46 O 0.53262 0.60203 0.89927 0.0
Cd47 Cd 0.52828 0.62834 0.93031 0.0
O48 O 0.49115 0.64506 0.95441 0.0
C49 C 0.44741 0.62626 0.95285 0.0
O50 O 0.42814 0.59829 0.93769 0.0
C51 C 0.56585 0.59795 0.89143 0.0
C52 C 0.69679 0.65053 0.9552 0.0
O53 O 0.65731 0.61252 0.96065 0.0
O54 O 0.69791 0.68459 0.94151 0.0
O55 O 0.1904 0.68499 0.28272 0.0
Cd56 Cd 0.22298 0.695 0.31971 0.0
O57 O 0.12077 0.65594 0.29987 0.0
Cd58 Cd 0.0449 0.62432 0.30087 0.0
O59 O 0.96995 0.58956 0.3103 0.0
C60 C 0.93968 0.56064 0.29884 0.0
O61 O 0.95335 0.55173 0.2804 0.0
C62 C 0.14665 0.66755 0.28163 0.0
C63 C 0.24773 0.78248 0.33115 0.0
O64 O 0.27709 0.77678 0.32001 0.0
O65 O 0.20666 0.74699 0.33682 0.0
H66 H 0.14592 0.66757 0.13551 0.0
C67 C 0.11012 0.6584 0.13273 0.0
H68 H 0.04482 0.64122 0.1482 0.0
H69 H 0.09773 0.5787 0.24498 0.0
H70 H 0.04149 0.50257 0.23559 0.0
H71 H 0.0097 0.49591 0.19792 0.0
H72 H 0.03435 0.56548 0.16934 0.0
C73 C 0.08112 0.65181 0.15043 0.0
C74 C 0.09726 0.65655 0.17375 0.0
C75 C 0.08144 0.61575 0.1905 0.0
C76 C 0.09907 0.61973 0.21239 0.0
C77 C 0.08446 0.57806 0.22835 0.0
C78 C 0.0524 0.534 0.22312 0.0
C79 C 0.03455 0.53024 0.2019 0.0
C80 C 0.04895 0.57048 0.18567 0.0
H81 H 0.08877 0.64786 0.25914 0.0
C82 C 0.12596 0.66063 0.25954 0.0
H83 H 0.18923 0.6835 0.24022 0.0
H84 H 0.13065 0.74223 0.14636 0.0
H85 H 0.18563 0.81873 0.15593 0.0
H86 H 0.21644 0.82578 0.19382 0.0
H87 H 0.19233 0.75639 0.22238 0.0
C88 C 0.15181 0.66953 0.24011 0.0
C89 C 0.13161 0.66476 0.21763 0.0
C90 C 0.14648 0.70567 0.20104 0.0
C91 C 0.12907 0.7016 0.17913 0.0
C92 C 0.14358 0.74317 0.16309 0.0
C93 C 0.17491 0.78736 0.16841 0.0
C94 C 0.19223 0.79133 0.18974 0.0
C95 C 0.1782 0.75115 0.20596 0.0
H96 H 0.40576 0.03184 0.5449 0.0
C97 C 0.39027 0.00556 0.53375 0.0
H98 H 0.37862 0.99389 0.49971 0.0
H99 H 0.41101 0.20874 0.48848 0.0
H100 H 0.33851 0.1732 0.51234 0.0
H101 H 0.30032 0.09003 0.53087 0.0
H102 H 0.33446 0.042 0.52576 0.0
C103 C 0.39293 0.01961 0.51119 0.0
C104 C 0.41669 0.07039 0.50096 0.0
C105 C 0.39604 0.09793 0.50411 0.0
C106 C 0.41773 0.14574 0.49316 0.0
C107 C 0.39616 0.17231 0.49641 0.0
C108 C 0.35445 0.15233 0.51003 0.0
C109 C 0.33298 0.10552 0.52048 0.0
C110 C 0.35318 0.07841 0.51751 0.0
H111 H 0.46666 0.19054 0.43384 0.0
C112 C 0.47927 0.22068 0.44265 0.0
H113 H 0.49036 0.24337 0.4747 0.0
H114 H 0.4662 0.02792 0.49216 0.0
H115 H 0.53981 0.0641 0.46906 0.0
H116 H 0.57828 0.14749 0.45079 0.0
H117 H 0.54321 0.19507 0.45534 0.0
C118 C 0.47913 0.21397 0.46548 0.0
C119 C 0.45947 0.16561 0.47876 0.0
C120 C 0.481 0.13858 0.47632 0.0
C121 C 0.45927 0.09077 0.48721 0.0
C122 C 0.48118 0.0644 0.48425 0.0
C123 C 0.52351 0.08476 0.4711 0.0
C124 C 0.54513 0.13168 0.46078 0.0
C125 C 0.52441 0.1585 0.46338 0.0
H126 H 0.59026 0.57457 0.86404 0.0
C127 C 0.56176 0.57856 0.87015 0.0
H128 H 0.49428 0.56764 0.86479 0.0
H129 H 0.56106 0.56 0.76133 0.0
H130 H 0.61895 0.64266 0.75979 0.0
H131 H 0.63027 0.68097 0.79374 0.0
H132 H 0.58441 0.63668 0.82951 0.0
C133 C 0.52364 0.56529 0.85845 0.0
C134 C 0.51783 0.54275 0.83787 0.0
C135 C 0.54412 0.56962 0.81694 0.0
C136 C 0.53617 0.54807 0.7971 0.0
C137 C 0.56432 0.57509 0.77666 0.0
C138 C 0.59792 0.62249 0.77559 0.0
C139 C 0.6044 0.64401 0.79472 0.0
C140 C 0.57793 0.61809 0.8152 0.0
H141 H 0.4663 0.52491 0.76146 0.0
C142 C 0.46958 0.49431 0.76019 0.0
H143 H 0.49055 0.44751 0.77612 0.0
H144 H 0.46381 0.48067 0.87563 0.0
H145 H 0.40507 0.39836 0.87704 0.0
H146 H 0.38901 0.36178 0.84232 0.0
H147 H 0.43172 0.40712 0.80606 0.0
C148 C 0.48819 0.47878 0.77689 0.0
C149 C 0.50062 0.50029 0.79802 0.0
C150 C 0.47524 0.47315 0.81909 0.0
C151 C 0.48395 0.4944 0.83904 0.0
C152 C 0.45818 0.46648 0.85989 0.0
C153 C 0.42442 0.41914 0.86096 0.0
C154 C 0.41543 0.39854 0.84142 0.0
C155 C 0.44032 0.42503 0.82069 0.0
H156 H 0.19896 0.5943 0.02029 0.0
C157 C 0.20958 0.63055 0.02163 0.0
H158 H 0.26357 0.70179 0.01429 0.0
H159 H 0.36995 0.57757 0.00615 0.0
H160 H 0.35114 0.55283 0.04697 0.0
H161 H 0.30378 0.5762 0.06773 0.0
H162 H 0.27431 0.62382 0.04771 0.0
C163 C 0.25285 0.66529 0.01358 0.0
C164 C 0.28577 0.65541 0.00173 0.0
C165 C 0.30422 0.62907 0.01385 0.0
C166 C 0.3331 0.61716 0.00202 0.0
C167 C 0.34909 0.58886 0.01436 0.0
C168 C 0.33839 0.57424 0.0378 0.0
C169 C 0.3116 0.58727 0.04948 0.0
C170 C 0.29466 0.61438 0.03775 0.0
H171 H 0.4363 0.66135 0.97923 0.0
C172 C 0.41905 0.6372 0.96724 0.0
H173 H 0.3558 0.59621 0.95285 0.0
H174 H 0.25813 0.70834 0.97357 0.0
H175 H 0.28 0.73623 0.93307 0.0
H176 H 0.3321 0.71776 0.91281 0.0
H177 H 0.36248 0.67109 0.93291 0.0
C178 C 0.37299 0.61904 0.96536 0.0
C179 C 0.34479 0.63306 0.97824 0.0
C180 C 0.32774 0.66084 0.9663 0.0
C181 C 0.2982 0.67201 0.97805 0.0
C182 C 0.28109 0.6992 0.96558 0.0
C183 C 0.29331 0.7154 0.9423 0.0
C184 C 0.32259 0.70496 0.93089 0.0
C185 C 0.33969 0.67802 0.94264 0.0
H186 H 0.6978 0.46855 0.39258 0.0
C187 C 0.66978 0.44456 0.38337 0.0
H188 H 0.6524 0.41408 0.35336 0.0
H189 H 0.83851 0.57878 0.29689 0.0
H190 H 0.77986 0.59215 0.27871 0.0
H191 H 0.69736 0.54598 0.29414 0.0
H192 H 0.67305 0.48628 0.32791 0.0
C193 C 0.68006 0.43684 0.36313 0.0
C194 C 0.72914 0.4617 0.35284 0.0
C195 C 0.74257 0.49574 0.33279 0.0
C196 C 0.79007 0.522 0.32374 0.0
C197 C 0.8028 0.55706 0.30421 0.0
C198 C 0.76951 0.5653 0.29367 0.0
C199 C 0.72307 0.53934 0.30237 0.0
C200 C 0.70958 0.50509 0.32174 0.0
H201 H 0.86481 0.51076 0.29642 0.0
C202 C 0.88951 0.53569 0.30654 0.0
H203 H 0.89846 0.56548 0.33658 0.0
H204 H 0.71394 0.39419 0.38953 0.0
H205 H 0.77238 0.38011 0.40744 0.0
H206 H 0.85506 0.42701 0.39233 0.0
H207 H 0.87969 0.48798 0.3591 0.0
C208 C 0.87397 0.54198 0.32587 0.0
C209 C 0.82388 0.51363 0.33459 0.0
C210 C 0.81022 0.47875 0.35431 0.0
C211 C 0.76271 0.45234 0.36328 0.0
C212 C 0.74977 0.41639 0.38243 0.0
C213 C 0.78292 0.40766 0.39278 0.0
C214 C 0.82945 0.43401 0.38426 0.0
C215 C 0.84312 0.46903 0.3652 0.0
H216 H 0.37498 0.77209 0.59554 0.0
C217 C 0.35997 0.79232 0.60061 0.0
H218 H 0.34237 0.81635 0.62797 0.0
H219 H 0.32315 0.64706 0.7004 0.0
H220 H 0.24483 0.63528 0.7029 0.0
H221 H 0.22403 0.68548 0.67674 0.0
H222 H 0.28134 0.74784 0.64807 0.0
C223 C 0.35831 0.79719 0.6226 0.0
C224 C 0.37274 0.77152 0.64034 0.0
C225 C 0.33875 0.73542 0.65711 0.0
C226 C 0.3505 0.70601 0.67196 0.0
C227 C 0.31587 0.67 0.68848 0.0
C228 C 0.27083 0.66294 0.69015 0.0
C229 C 0.25914 0.69124 0.67544 0.0
C230 C 0.29248 0.727 0.65905 0.0
H231 H 0.44981 0.72131 0.70521 0.0
C232 C 0.43298 0.68637 0.70048 0.0
H233 H 0.38757 0.64185 0.67863 0.0
H234 H 0.44854 0.84418 0.6138 0.0
H235 H 0.52703 0.85626 0.61138 0.0
H236 H 0.5461 0.80186 0.63521 0.0
H237 H 0.48724 0.73576 0.66189 0.0
C238 C 0.40555 0.67705 0.68306 0.0
C239 C 0.39605 0.71259 0.66997 0.0
C240 C 0.4308 0.75039 0.65408 0.0
C241 C 0.41933 0.78053 0.6396 0.0
C242 C 0.45499 0.81913 0.62451 0.0
C243 C 0.50023 0.82666 0.62308 0.0
C244 C 0.511 0.79612 0.63655 0.0
C245 C 0.47685 0.75835 0.65188 0.0
H246 H 0.86814 0.56544 0.03546 0.0
C247 C 0.90178 0.59795 0.0329 0.0
H248 H 0.93985 0.6685 0.01606 0.0
H249 H 0.75125 0.56493 0.95752 0.0
H250 H 0.78518 0.52047 0.94579 0.0
H251 H 0.85721 0.52822 0.96138 0.0
H252 H 0.89562 0.5803 0.98888 0.0
C253 C 0.90704 0.63518 0.01813 0.0
C254 C 0.86635 0.63376 0.00683 0.0
C255 C 0.8447 0.60365 0.99053 0.0
C256 C 0.80351 0.5997 0.9813 0.0
C257 C 0.7825 0.56919 0.96513 0.0
C258 C 0.80168 0.54356 0.95819 0.0
C259 C 0.84221 0.54788 0.96699 0.0
C260 C 0.86371 0.57765 0.98289 0.0
H261 H 0.7724 0.68898 0.95954 0.0
C262 C 0.74007 0.65563 0.96447 0.0
H263 H 0.70879 0.58678 0.98335 0.0
H264 H 0.9007 0.69678 0.03673 0.0
H265 H 0.86728 0.74175 0.04819 0.0
H266 H 0.79498 0.73367 0.03283 0.0
H267 H 0.75589 0.68086 0.00583 0.0
C268 C 0.74053 0.62082 0.97887 0.0
C269 C 0.78449 0.62643 0.98808 0.0
C270 C 0.80672 0.65732 0.00404 0.0
C271 C 0.84799 0.66137 0.0132 0.0
C272 C 0.86934 0.6923 0.02918 0.0
C273 C 0.85046 0.71829 0.03597 0.0
C274 C 0.8098 0.71379 0.0273 0.0
C275 C 0.78789 0.68354 0.01164 0.0
H276 H 0.42091 0.06023 0.36694 0.0
C277 C 0.39665 0.07333 0.36583 0.0
H278 H 0.32986 0.05998 0.35687 0.0
H279 H 0.30912 0.91332 0.29337 0.0
H280 H 0.32248 0.97989 0.265 0.0
H281 H 0.34414 0.05654 0.27618 0.0
H282 H 0.35239 0.06706 0.31582 0.0
C283 C 0.35411 0.04695 0.35876 0.0
C284 C 0.3399 0.0003 0.35223 0.0
C285 C 0.33524 0.99477 0.329 0.0
C286 C 0.32319 0.95071 0.32254 0.0
C287 C 0.31859 0.94612 0.29921 0.0
C288 C 0.3261 0.98403 0.28275 0.0
C289 C 0.33826 0.02717 0.28905 0.0
C290 C 0.34285 0.03271 0.31187 0.0
H291 H 0.2345 0.83085 0.34753 0.0
C292 C 0.2606 0.82834 0.33772 0.0
H293 H 0.32943 0.8649 0.32198 0.0
H294 H 0.34088 0.99746 0.39851 0.0
H295 H 0.32954 0.93165 0.42678 0.0
H296 H 0.31343 0.85674 0.41534 0.0
H297 H 0.30782 0.84698 0.37563 0.0
C298 C 0.30339 0.86639 0.33236 0.0
C299 C 0.31572 0.91226 0.33932 0.0
C300 C 0.32044 0.91779 0.36258 0.0
C301 C 0.33164 0.9616 0.36908 0.0
C302 C 0.33406 0.96553 0.39252 0.0
C303 C 0.32736 0.92792 0.40896 0.0
C304 C 0.31814 0.88571 0.40252 0.0
C305 C 0.31474 0.88051 0.37965 0.0
H306 H 0.36768 0.06285 0.65844 0.0
C307 C 0.39016 0.07436 0.64279 0.0
H308 H 0.44207 0.13265 0.62007 0.0
H309 H 0.37683 0.26947 0.64784 0.0
H310 H 0.35305 0.26256 0.60942 0.0
H311 H 0.35988 0.20724 0.58825 0.0
H312 H 0.39032 0.15835 0.60545 0.0
C313 C 0.42051 0.1205 0.63606 0.0
C314 C 0.42031 0.1564 0.64837 0.0
C315 C 0.40348 0.18557 0.63782 0.0
C316 C 0.40008 0.21787 0.64991 0.0
C317 C 0.38129 0.24515 0.6393 0.0
C318 C 0.3672 0.24134 0.61726 0.0
C319 C 0.37101 0.21017 0.60535 0.0
C320 C 0.38869 0.18238 0.61544 0.0
H321 H 0.46725 0.31526 0.66657 0.0
C322 C 0.43898 0.30144 0.67988 0.0
H323 H 0.38184 0.24006 0.69859 0.0
H324 H 0.45865 0.10923 0.67262 0.0
H325 H 0.48281 0.11641 0.71108 0.0
H326 H 0.47573 0.17158 0.73228 0.0
H327 H 0.44468 0.22016 0.71509 0.0
C328 C 0.41003 0.25468 0.6852 0.0
C329 C 0.41438 0.22155 0.67238 0.0
C330 C 0.43183 0.19291 0.6828 0.0
C331 C 0.43521 0.16057 0.67071 0.0
C332 C 0.45418 0.13347 0.68126 0.0
C333 C 0.46846 0.13747 0.70327 0.0
C334 C 0.46453 0.16858 0.7152 0.0
C335 C 0.44658 0.19618 0.70515 0.0
loop_
_geom_bond_atom_site_label_1
_geom_bond_atom_site_label_2
_geom_bond_distance
_geom_bond_site_symmetry_2
_ccdc_geom_bond_type
O0 Cd1 2.300 . S
O0 C7 1.275 . S
Cd1 O0 2.300 . S
Cd1 O9 2.381 . S
Cd1 O10 2.378 . S
O2 Cd3 2.385 1_455 S
O2 C7 1.255 . S
Cd3 O2 2.385 1_655 S
Cd3 O4 2.317 . S
O4 Cd3 2.317 . S
O4 C5 1.232 . S
C5 O4 1.232 . S
C5 O6 1.218 . S
O6 C5 1.218 . S
C7 O0 1.275 . S
C7 O2 1.255 . S
C8 O9 1.258 . S
C8 O10 1.256 . S
O9 Cd1 2.381 . S
O9 C8 1.258 . S
O10 Cd1 2.378 . S
O10 C8 1.256 . S
O11 Cd12 2.300 . S
O11 C18 1.275 . S
Cd12 O11 2.300 . S
Cd12 O20 2.381 . S
Cd12 O21 2.378 . S
O13 Cd14 2.385 . S
O13 C18 1.255 . S
Cd14 O13 2.385 . S
Cd14 O15 2.317 . S
O15 Cd14 2.317 . S
O15 C16 1.232 . S
C16 O15 1.232 . S
C16 O17 1.218 . S
O17 C16 1.218 . S
C18 O11 1.275 . S
C18 O13 1.255 . S
C19 O20 1.258 . S
C19 O21 1.256 . S
O20 Cd12 2.381 . S
O20 C19 1.258 . S
O21 Cd12 2.378 . S
O21 C19 1.256 . S
O22 Cd23 2.300 . S
O22 C29 1.275 . S
Cd23 O22 2.300 . S
Cd23 O31 2.381 . S
Cd23 O32 2.378 . S
O24 Cd25 2.385 . S
O24 C29 1.255 . S
Cd25 O24 2.385 . S
Cd25 O26 2.317 . S
O26 Cd25 2.317 . S
O26 C27 1.232 . S
C27 O26 1.232 . S
C27 O28 1.218 . S
O28 C27 1.218 . S
C29 O22 1.275 . S
C29 O24 1.255 . S
C30 O31 1.258 . S
C30 O32 1.256 . S
O31 Cd23 2.381 . S
O31 C30 1.258 . S
O32 Cd23 2.378 . S
O32 C30 1.256 . S
O33 Cd34 2.300 . S
O33 C40 1.275 1_565 S
Cd34 O33 2.300 . S
Cd34 O42 2.381 . S
Cd34 O43 2.378 . S
O35 Cd36 2.385 . S
O35 C40 1.255 . S
Cd36 O35 2.385 . S
Cd36 O37 2.317 . S
O37 Cd36 2.317 . S
O37 C38 1.232 . S
C38 O37 1.232 . S
C38 O39 1.218 . S
O39 C38 1.218 . S
C40 O33 1.275 1_545 S
C40 O35 1.255 . S
C41 O42 1.258 . S
C41 O43 1.256 . S
O42 Cd34 2.381 . S
O42 C41 1.258 . S
O43 Cd34 2.378 . S
O43 C41 1.256 . S
O44 Cd45 2.300 . S
O44 C51 1.275 . S
Cd45 O44 2.300 . S
Cd45 O53 2.381 . S
Cd45 O54 2.378 . S
O46 Cd47 2.385 . S
O46 C51 1.255 . S
Cd47 O46 2.385 . S
Cd47 O48 2.317 . S
O48 Cd47 2.317 . S
O48 C49 1.232 . S
C49 O48 1.232 . S
C49 O50 1.218 . S
O50 C49 1.218 . S
C51 O44 1.275 . S
C51 O46 1.255 . S
C52 O53 1.258 . S
C52 O54 1.256 . S
O53 Cd45 2.381 . S
O53 C52 1.258 . S
O54 Cd45 2.378 . S
O54 C52 1.256 . S
O55 Cd56 2.300 . S
O55 C62 1.275 . S
Cd56 O55 2.300 . S
Cd56 O64 2.381 . S
Cd56 O65 2.378 . S
O57 Cd58 2.385 1_455 S
O57 C62 1.255 . S
Cd58 O57 2.385 1_655 S
Cd58 O59 2.317 . S
O59 Cd58 2.317 . S
O59 C60 1.232 . S
C60 O59 1.232 . S
C60 O61 1.218 . S
O61 C60 1.218 . S
C62 O55 1.275 . S
C62 O57 1.255 . S
C63 O64 1.258 . S
C63 O65 1.256 . S
O64 Cd56 2.381 . S
O64 C63 1.258 . S
O65 Cd56 2.378 . S
O65 C63 1.256 . S
H66 C67 0.951 . S
C67 H66 0.951 . S
C67 C73 1.265 . S
H68 C73 0.950 . S
H69 C77 0.949 . S
H70 C78 0.950 . S
H71 C79 0.951 . S
H72 C80 0.951 1_655 S
C73 C67 1.265 . S
C73 H68 0.950 . S
C73 C74 1.478 . S
C74 C73 1.478 . S
C74 C75 1.397 . S
C74 C91 1.394 . S
C75 C74 1.397 . S
C75 C76 1.438 . S
C75 C80 1.429 . S
C76 C75 1.438 . S
C76 C77 1.428 . S
C76 C89 1.394 . S
C77 H69 0.949 . S
C77 C76 1.428 . S
C77 C78 1.345 1_455 S
C78 H70 0.950 . S
C78 C77 1.345 1_655 S
C78 C79 1.424 . S
C79 H71 0.951 . S
C79 C78 1.424 . S
C79 C80 1.347 1_655 S
C80 H72 0.951 1_455 S
C80 C75 1.429 . S
C80 C79 1.347 1_455 S
H81 C82 0.951 . S
C82 H81 0.951 . S
C82 C88 1.265 . S
H83 C88 0.950 . S
H84 C92 0.949 . S
H85 C93 0.950 . S
H86 C94 0.951 . S
H87 C95 0.951 . S
C88 C82 1.265 . S
C88 H83 0.950 . S
C88 C89 1.478 . S
C89 C76 1.394 . S
C89 C88 1.478 . S
C89 C90 1.397 . S
C90 C89 1.397 . S
C90 C91 1.438 . S
C90 C95 1.429 . S
C91 C74 1.394 . S
C91 C90 1.438 . S
C91 C92 1.428 . S
C92 H84 0.949 . S
C92 C91 1.428 . S
C92 C93 1.345 . S
C93 H85 0.950 . S
C93 C92 1.345 . S
C93 C94 1.424 . S
C94 H86 0.951 . S
C94 C93 1.424 . S
C94 C95 1.347 . S
C95 H87 0.951 . S
C95 C90 1.429 . S
C95 C94 1.347 . S
H96 C97 0.951 . S
C97 H96 0.951 . S
C97 C103 1.265 . S
H98 C103 0.950 . S
H99 C107 0.949 . S
H100 C108 0.950 . S
H101 C109 0.951 . S
H102 C110 0.951 . S
C103 C97 1.265 . S
C103 H98 0.950 . S
C103 C104 1.478 . S
C104 C103 1.478 . S
C104 C105 1.397 . S
C104 C121 1.394 . S
C105 C104 1.397 . S
C105 C106 1.438 . S
C105 C110 1.429 . S
C106 C105 1.438 . S
C106 C107 1.428 . S
C106 C119 1.394 . S
C107 H99 0.949 . S
C107 C106 1.428 . S
C107 C108 1.345 . S
C108 H100 0.950 . S
C108 C107 1.345 . S
C108 C109 1.424 . S
C109 H101 0.951 . S
C109 C108 1.424 . S
C109 C110 1.347 . S
C110 H102 0.951 . S
C110 C105 1.429 . S
C110 C109 1.347 . S
H111 C112 0.951 . S
C112 H111 0.951 . S
C112 C118 1.265 . S
H113 C118 0.950 . S
H114 C122 0.949 . S
H115 C123 0.950 . S
H116 C124 0.951 . S
H117 C125 0.951 . S
C118 C112 1.265 . S
C118 H113 0.950 . S
C118 C119 1.478 . S
C119 C106 1.394 . S
C119 C118 1.478 . S
C119 C120 1.397 . S
C120 C119 1.397 . S
C120 C121 1.438 . S
C120 C125 1.429 . S
C121 C104 1.394 . S
C121 C120 1.438 . S
C121 C122 1.428 . S
C122 H114 0.949 . S
C122 C121 1.428 . S
C122 C123 1.345 . S
C123 H115 0.950 . S
C123 C122 1.345 . S
C123 C124 1.424 . S
C124 H116 0.951 . S
C124 C123 1.424 . S
C124 C125 1.347 . S
C125 H117 0.951 . S
C125 C120 1.429 . S
C125 C124 1.347 . S
H126 C127 0.951 . S
C127 H126 0.951 . S
C127 C133 1.265 . S
H128 C133 0.950 . S
H129 C137 0.949 . S
H130 C138 0.950 . S
H131 C139 0.951 . S
H132 C140 0.951 . S
C133 C127 1.265 . S
C133 H128 0.950 . S
C133 C134 1.478 . S
C134 C133 1.478 . S
C134 C135 1.397 . S
C134 C151 1.394 . S
C135 C134 1.397 . S
C135 C136 1.438 . S
C135 C140 1.429 . S
C136 C135 1.438 . S
C136 C137 1.428 . S
C136 C149 1.394 . S
C137 H129 0.949 . S
C137 C136 1.428 . S
C137 C138 1.345 . S
C138 H130 0.950 . S
C138 C137 1.345 . S
C138 C139 1.424 . S
C139 H131 0.951 . S
C139 C138 1.424 . S
C139 C140 1.347 . S
C140 H132 0.951 . S
C140 C135 1.429 . S
C140 C139 1.347 . S
H141 C142 0.951 . S
C142 H141 0.951 . S
C142 C148 1.265 . S
H143 C148 0.950 . S
H144 C152 0.949 . S
H145 C153 0.950 . S
H146 C154 0.951 . S
H147 C155 0.951 . S
C148 C142 1.265 . S
C148 H143 0.950 . S
C148 C149 1.478 . S
C149 C136 1.394 . S
C149 C148 1.478 . S
C149 C150 1.397 . S
C150 C149 1.397 . S
C150 C151 1.438 . S
C150 C155 1.429 . S
C151 C134 1.394 . S
C151 C150 1.438 . S
C151 C152 1.428 . S
C152 H144 0.949 . S
C152 C151 1.428 . S
C152 C153 1.345 . S
C153 H145 0.950 . S
C153 C152 1.345 . S
C153 C154 1.424 . S
C154 H146 0.951 . S
C154 C153 1.424 . S
C154 C155 1.347 . S
C155 H147 0.951 . S
C155 C150 1.429 . S
C155 C154 1.347 . S
H156 C157 0.925 1_556 S
C157 H156 0.925 1_554 S
C157 C163 1.265 . S
H158 C163 0.950 . S
H159 C167 0.949 1_556 S
H160 C168 0.950 . S
H161 C169 0.951 . S
H162 C170 0.951 . S
C163 C157 1.265 . S
C163 H158 0.950 . S
C163 C164 1.478 . S
C164 C163 1.478 . S
C164 C165 1.397 . S
C164 C181 1.394 1_554 S
C165 C164 1.397 . S
C165 C166 1.459 . S
C165 C170 1.429 . S
C166 C165 1.459 . S
C166 C167 1.428 . S
C166 C179 1.374 1_554 S
C167 H159 0.949 1_554 S
C167 C166 1.428 . S
C167 C168 1.345 . S
C168 H160 0.950 . S
C168 C167 1.345 . S
C168 C169 1.424 . S
C169 H161 0.951 . S
C169 C168 1.424 . S
C169 C170 1.347 . S
C170 H162 0.951 . S
C170 C165 1.429 . S
C170 C169 1.347 . S
H171 C172 0.951 . S
C172 H171 0.951 . S
C172 C178 1.265 . S
H173 C178 0.950 . S
H174 C182 0.942 1_554 S
H175 C183 0.950 . S
H176 C184 0.951 . S
H177 C185 0.951 . S
C178 C172 1.265 . S
C178 H173 0.950 . S
C178 C179 1.478 . S
C179 C166 1.374 1_556 S
C179 C178 1.478 . S
C179 C180 1.397 . S
C180 C179 1.397 . S
C180 C181 1.438 . S
C180 C185 1.429 . S
C181 C164 1.394 1_556 S
C181 C180 1.438 . S
C181 C182 1.428 . S
C182 H174 0.942 1_556 S
C182 C181 1.428 . S
C182 C183 1.345 . S
C183 H175 0.950 . S
C183 C182 1.345 . S
C183 C184 1.424 . S
C184 H176 0.951 . S
C184 C183 1.424 . S
C184 C185 1.347 . S
C185 H177 0.951 . S
C185 C180 1.429 . S
C185 C184 1.347 . S
H186 C187 0.951 . S
C187 H186 0.951 . S
C187 C193 1.265 . S
H188 C193 0.950 . S
H189 C197 0.949 . S
H190 C198 0.950 . S
H191 C199 0.951 . S
H192 C200 0.951 . S
C193 C187 1.265 . S
C193 H188 0.950 . S
C193 C194 1.478 . S
C194 C193 1.478 . S
C194 C195 1.397 . S
C194 C211 1.394 . S
C195 C194 1.397 . S
C195 C196 1.438 . S
C195 C200 1.429 . S
C196 C195 1.438 . S
C196 C197 1.428 . S
C196 C209 1.394 . S
C197 H189 0.949 . S
C197 C196 1.428 . S
C197 C198 1.345 . S
C198 H190 0.950 . S
C198 C197 1.345 . S
C198 C199 1.424 . S
C199 H191 0.951 . S
C199 C198 1.424 . S
C199 C200 1.347 . S
C200 H192 0.951 . S
C200 C195 1.429 . S
C200 C199 1.347 . S
H201 C202 0.951 . S
C202 H201 0.951 . S
C202 C208 1.265 . S
H203 C208 0.950 . S
H204 C212 0.949 . S
H205 C213 0.950 . S
H206 C214 0.951 . S
H207 C215 0.951 . S
C208 C202 1.265 . S
C208 H203 0.950 . S
C208 C209 1.478 . S
C209 C196 1.394 . S
C209 C208 1.478 . S
C209 C210 1.397 . S
C210 C209 1.397 . S
C210 C211 1.438 . S
C210 C215 1.429 . S
C211 C194 1.394 . S
C211 C210 1.438 . S
C211 C212 1.428 . S
C212 H204 0.949 . S
C212 C211 1.428 . S
C212 C213 1.345 . S
C213 H205 0.950 . S
C213 C212 1.345 . S
C213 C214 1.424 . S
C214 H206 0.951 . S
C214 C213 1.424 . S
C214 C215 1.347 . S
C215 H207 0.951 . S
C215 C210 1.429 . S
C215 C214 1.347 . S
H216 C217 0.951 . S
C217 H216 0.951 . S
C217 C223 1.265 . S
H218 C223 0.950 . S
H219 C227 0.949 . S
H220 C228 0.950 . S
H221 C229 0.951 . S
H222 C230 0.951 . S
C223 C217 1.265 . S
C223 H218 0.950 . S
C223 C224 1.478 . S
C224 C223 1.478 . S
C224 C225 1.397 . S
C224 C241 1.394 . S
C225 C224 1.397 . S
C225 C226 1.438 . S
C225 C230 1.429 . S
C226 C225 1.438 . S
C226 C227 1.428 . S
C226 C239 1.394 . S
C227 H219 0.949 . S
C227 C226 1.428 . S
C227 C228 1.345 . S
C228 H220 0.950 . S
C228 C227 1.345 . S
C228 C229 1.424 . S
C229 H221 0.951 . S
C229 C228 1.424 . S
C229 C230 1.347 . S
C230 H222 0.951 . S
C230 C225 1.429 . S
C230 C229 1.347 . S
H231 C232 0.951 . S
C232 H231 0.951 . S
C232 C238 1.265 . S
H233 C238 0.950 . S
H234 C242 0.949 . S
H235 C243 0.950 . S
H236 C244 0.951 . S
H237 C245 0.951 . S
C238 C232 1.265 . S
C238 H233 0.950 . S
C238 C239 1.478 . S
C239 C226 1.394 . S
C239 C238 1.478 . S
C239 C240 1.397 . S
C240 C239 1.397 . S
C240 C241 1.438 . S
C240 C245 1.429 . S
C241 C224 1.394 . S
C241 C240 1.438 . S
C241 C242 1.428 . S
C242 H234 0.949 . S
C242 C241 1.428 . S
C242 C243 1.345 . S
C243 H235 0.950 . S
C243 C242 1.345 . S
C243 C244 1.424 . S
C244 H236 0.951 . S
C244 C243 1.424 . S
C244 C245 1.347 . S
C245 H237 0.951 . S
C245 C240 1.429 . S
C245 C244 1.347 . S
H246 C247 0.951 . S
C247 H246 0.951 . S
C247 C253 1.265 . S
H248 C253 0.950 1_556 S
H249 C257 0.949 . S
H250 C258 0.950 . S
H251 C259 0.951 . S
H252 C260 0.951 . S
C253 C247 1.265 . S
C253 H248 0.950 1_554 S
C253 C254 1.478 . S
C254 C253 1.478 . S
C254 C255 1.397 . S
C254 C271 1.394 . S
C255 C254 1.397 . S
C255 C256 1.438 1_554 S
C255 C260 1.429 . S
C256 C255 1.438 1_556 S
C256 C257 1.428 . S
C256 C269 1.394 . S
C257 H249 0.949 . S
C257 C256 1.428 . S
C257 C258 1.345 . S
C258 H250 0.950 . S
C258 C257 1.345 . S
C258 C259 1.423 . S
C259 H251 0.951 . S
C259 C258 1.423 . S
C259 C260 1.348 1_556 S
C260 H252 0.951 . S
C260 C255 1.429 . S
C260 C259 1.348 1_554 S
H261 C262 0.951 . S
C262 H261 0.951 . S
C262 C268 1.265 . S
H263 C268 0.950 1_554 S
H264 C272 0.949 . S
H265 C273 0.950 . S
H266 C274 0.951 . S
H267 C275 0.944 1_556 S
C268 C262 1.265 . S
C268 H263 0.950 1_556 S
C268 C269 1.478 . S
C269 C256 1.394 . S
C269 C268 1.478 . S
C269 C270 1.397 1_556 S
C270 C269 1.397 1_554 S
C270 C271 1.438 . S
C270 C275 1.424 . S
C271 C254 1.394 . S
C271 C270 1.438 . S
C271 C272 1.428 . S
C272 H264 0.949 . S
C272 C271 1.428 . S
C272 C273 1.345 . S
C273 H265 0.950 . S
C273 C272 1.345 . S
C273 C274 1.424 . S
C274 H266 0.951 . S
C274 C273 1.424 . S
C274 C275 1.362 . S
C275 H267 0.944 1_554 S
C275 C270 1.424 . S
C275 C274 1.362 . S
H276 C277 0.951 . S
C277 H276 0.951 . S
C277 C283 1.265 . S
H278 C283 0.950 . S
H279 C287 0.949 . S
H280 C288 0.950 . S
H281 C289 0.951 . S
H282 C290 0.951 . S
C283 C277 1.265 . S
C283 H278 0.950 . S
C283 C284 1.478 . S
C284 C283 1.478 . S
C284 C285 1.397 . S
C284 C301 1.394 1_545 S
C285 C284 1.397 . S
C285 C286 1.438 1_545 S
C285 C290 1.429 . S
C286 C285 1.438 1_565 S
C286 C287 1.428 . S
C286 C299 1.394 . S
C287 H279 0.949 . S
C287 C286 1.428 . S
C287 C288 1.345 1_565 S
C288 H280 0.950 . S
C288 C287 1.345 1_545 S
C288 C289 1.424 . S
C289 H281 0.951 . S
C289 C288 1.424 . S
C289 C290 1.347 . S
C290 H282 0.951 . S
C290 C285 1.429 . S
C290 C289 1.347 . S
H291 C292 0.951 . S
C292 H291 0.951 . S
C292 C298 1.265 . S
H293 C298 0.950 . S
H294 C302 0.949 1_545 S
H295 C303 0.950 . S
H296 C304 0.951 . S
H297 C305 0.951 . S
C298 C292 1.265 . S
C298 H293 0.950 . S
C298 C299 1.478 . S
C299 C286 1.394 . S
C299 C298 1.478 . S
C299 C300 1.397 . S
C300 C299 1.397 . S
C300 C301 1.438 . S
C300 C305 1.429 . S
C301 C284 1.394 1_565 S
C301 C300 1.438 . S
C301 C302 1.428 . S
C302 H294 0.949 1_565 S
C302 C301 1.428 . S
C302 C303 1.345 . S
C303 H295 0.950 . S
C303 C302 1.345 . S
C303 C304 1.424 . S
C304 H296 0.951 . S
C304 C303 1.424 . S
C304 C305 1.347 . S
C305 H297 0.951 . S
C305 C300 1.429 . S
C305 C304 1.347 . S
H306 C307 0.951 . S
C307 H306 0.951 . S
C307 C313 1.265 . S
H308 C313 0.950 . S
H309 C317 0.949 . S
H310 C318 0.950 . S
H311 C319 0.951 . S
H312 C320 0.951 . S
C313 C307 1.265 . S
C313 H308 0.950 . S
C313 C314 1.478 . S
C314 C313 1.478 . S
C314 C315 1.397 . S
C314 C331 1.394 . S
C315 C314 1.397 . S
C315 C316 1.438 . S
C315 C320 1.429 . S
C316 C315 1.438 . S
C316 C317 1.428 . S
C316 C329 1.394 . S
C317 H309 0.949 . S
C317 C316 1.428 . S
C317 C318 1.345 . S
C318 H310 0.950 . S
C318 C317 1.345 . S
C318 C319 1.424 . S
C319 H311 0.951 . S
C319 C318 1.424 . S
C319 C320 1.347 . S
C320 H312 0.951 . S
C320 C315 1.429 . S
C320 C319 1.347 . S
H321 C322 0.951 . S
C322 H321 0.951 . S
C322 C328 1.265 . S
H323 C328 0.950 . S
H324 C332 0.949 . S
H325 C333 0.950 . S
H326 C334 0.951 . S
H327 C335 0.951 . S
C328 C322 1.265 . S
C328 H323 0.950 . S
C328 C329 1.478 . S
C329 C316 1.394 . S
C329 C328 1.478 . S
C329 C330 1.397 . S
C330 C329 1.397 . S
C330 C331 1.438 . S
C330 C335 1.429 . S
C331 C314 1.394 . S
C331 C330 1.438 . S
C331 C332 1.428 . S
C332 H324 0.949 . S
C332 C331 1.428 . S
C332 C333 1.345 . S
C333 H325 0.950 . S
C333 C332 1.345 . S
C333 C334 1.424 . S
C334 H326 0.951 . S
C334 C333 1.424 . S
C334 C335 1.347 . S
C335 H327 0.951 . S
C335 C330 1.429 . S
C335 C334 1.347 . S
C67 C7 1.444 . S
C82 C62 1.473 . S
C97 C40 1.429 . S
C112 C18 1.492 . S
C127 C51 1.436 . S
C142 C29 1.463 . S
C157 C8 1.495 . S
C172 C49 1.352 . S
C187 C19 1.517 . S
C202 C60 1.398 . S
C217 C41 1.517 . S
C232 C27 1.402 . S
C247 C5 1.271 . S
C262 C52 1.475 . S
C277 C16 1.205 . S
C292 C63 1.494 . S
C307 C38 1.374 . S
C322 C30 1.512 . S
