# Generated by pormake.
# Topology nfc, (4)-cn, num edge types: 1
# Building blocks:
#     Node 0, Type 0, BuildingBlock: KOZSID_clean_sbu_0, # of connection points: 4
#     Node 1, Type 0, BuildingBlock: KOZSID_clean_sbu_0, # of connection points: 4
#     Node 2, Type 0, BuildingBlock: KOZSID_clean_sbu_0, # of connection points: 4
#     Node 3, Type 0, BuildingBlock: KOZSID_clean_sbu_0, # of connection points: 4
#     Node 4, Type 0, BuildingBlock: KOZSID_clean_sbu_0, # of connection points: 4
#     Node 5, Type 0, BuildingBlock: KOZSID_clean_sbu_0, # of connection points: 4
#     Node 6, Type 0, BuildingBlock: KOZSID_clean_sbu_0, # of connection points: 4
#     Node 7, Type 0, BuildingBlock: KOZSID_clean_sbu_0, # of connection points: 4
#     Node 8, Type 0, BuildingBlock: KOZSID_clean_sbu_0, # of connection points: 4
#     Node 9, Type 0, BuildingBlock: KOZSID_clean_sbu_0, # of connection points: 4
#     Node 10, Type 0, BuildingBlock: KOZSID_clean_sbu_0, # of connection points: 4
#     Node 11, Type 0, BuildingBlock: KOZSID_clean_sbu_0, # of connection points: 4
#     Node 12, Type 0, BuildingBlock: KOZSID_clean_sbu_0, # of connection points: 4
#     Node 13, Type 0, BuildingBlock: KOZSID_clean_sbu_0, # of connection points: 4
#     Node 14, Type 0, BuildingBlock: KOZSID_clean_sbu_0, # of connection points: 4
#     Node 15, Type 0, BuildingBlock: KOZSID_clean_sbu_0, # of connection points: 4
#     Edge 16, Type (0, 0), BuildingBlock: EZIPEK_clean_linker_0, # of connection points: 2
#     Edge 17, Type (0, 0), BuildingBlock: EZIPEK_clean_linker_0, # of connection points: 2
#     Edge 18, Type (0, 0), BuildingBlock: EZIPEK_clean_linker_0, # of connection points: 2
#     Edge 19, Type (0, 0), BuildingBlock: EZIPEK_clean_linker_0, # of connection points: 2
#     Edge 20, Type (0, 0), BuildingBlock: EZIPEK_clean_linker_0, # of connection points: 2
#     Edge 21, Type (0, 0), BuildingBlock: EZIPEK_clean_linker_0, # of connection points: 2
#     Edge 22, Type (0, 0), BuildingBlock: EZIPEK_clean_linker_0, # of connection points: 2
#     Edge 23, Type (0, 0), BuildingBlock: EZIPEK_clean_linker_0, # of connection points: 2
#     Edge 24, Type (0, 0), BuildingBlock: EZIPEK_clean_linker_0, # of connection points: 2
#     Edge 25, Type (0, 0), BuildingBlock: EZIPEK_clean_linker_0, # of connection points: 2
#     Edge 26, Type (0, 0), BuildingBlock: EZIPEK_clean_linker_0, # of connection points: 2
#     Edge 27, Type (0, 0), BuildingBlock: EZIPEK_clean_linker_0, # of connection points: 2
#     Edge 28, Type (0, 0), BuildingBlock: EZIPEK_clean_linker_0, # of connection points: 2
#     Edge 29, Type (0, 0), BuildingBlock: EZIPEK_clean_linker_0, # of connection points: 2
#     Edge 30, Type (0, 0), BuildingBlock: EZIPEK_clean_linker_0, # of connection points: 2
#     Edge 31, Type (0, 0), BuildingBlock: EZIPEK_clean_linker_0, # of connection points: 2
#     Edge 32, Type (0, 0), BuildingBlock: EZIPEK_clean_linker_0, # of connection points: 2
#     Edge 33, Type (0, 0), BuildingBlock: EZIPEK_clean_linker_0, # of connection points: 2
#     Edge 34, Type (0, 0), BuildingBlock: EZIPEK_clean_linker_0, # of connection points: 2
#     Edge 35, Type (0, 0), BuildingBlock: EZIPEK_clean_linker_0, # of connection points: 2
#     Edge 36, Type (0, 0), BuildingBlock: EZIPEK_clean_linker_0, # of connection points: 2
#     Edge 37, Type (0, 0), BuildingBlock: EZIPEK_clean_linker_0, # of connection points: 2
#     Edge 38, Type (0, 0), BuildingBlock: EZIPEK_clean_linker_0, # of connection points: 2
#     Edge 39, Type (0, 0), BuildingBlock: EZIPEK_clean_linker_0, # of connection points: 2
#     Edge 40, Type (0, 0), BuildingBlock: EZIPEK_clean_linker_0, # of connection points: 2
#     Edge 41, Type (0, 0), BuildingBlock: EZIPEK_clean_linker_0, # of connection points: 2
#     Edge 42, Type (0, 0), BuildingBlock: EZIPEK_clean_linker_0, # of connection points: 2
#     Edge 43, Type (0, 0), BuildingBlock: EZIPEK_clean_linker_0, # of connection points: 2
#     Edge 44, Type (0, 0), BuildingBlock: EZIPEK_clean_linker_0, # of connection points: 2
#     Edge 45, Type (0, 0), BuildingBlock: EZIPEK_clean_linker_0, # of connection points: 2
#     Edge 46, Type (0, 0), BuildingBlock: EZIPEK_clean_linker_0, # of connection points: 2
#     Edge 47, Type (0, 0), BuildingBlock: EZIPEK_clean_linker_0, # of connection points: 2
# Relax obj value: 0.094
# Max RMSD: 0.165
# Mean RMSD: 0.121
data_MOF--net-nfc--node1-KOZSID_clean_sbu_0--edge1-EZIPEK_clean_linker_0
_symmetry_space_group_name_H-M    P1
_symmetry_Int_Tables_number       1
_symmetry_cell_setting            triclinic
loop_
_symmetry_equiv_pos_as_xyz
'x, y, z'
_cell_length_a     33.050842
_cell_length_b     33.251191
_cell_length_c     27.525441
_cell_angle_alpha  82.730771
_cell_angle_beta   85.313159
_cell_angle_gamma 83.13097
loop_
_atom_site_label
_atom_site_type_symbol
_atom_site_fract_x
_atom_site_fract_y
_atom_site_fract_z
_atom_type_partial_charge
C0 C 0.96033 0.06015 0.08425 0.0
C1 C 0.92915 0.08641 0.10369 0.0
C2 C 0.90978 0.10825 0.06499 0.0
C3 C 0.92917 0.09383 0.02361 0.0
N4 N 0.95978 0.06391 0.03332 0.0
Co5 Co 0.9946 0.03644 0.97968 0.0
N6 N 0.96832 0.07143 0.9218 0.0
C7 C 0.93873 0.10253 0.92755 0.0
C8 C 0.92247 0.11951 0.88436 0.0
C9 C 0.94282 0.09817 0.84863 0.0
C10 C 0.97112 0.06916 0.87135 0.0
N11 N 0.02841 0.008 0.92612 0.0
C12 C 0.02784 0.0117 0.87519 0.0
C13 C 0.05794 0.98423 0.85593 0.0
C14 C 0.07662 0.96173 0.89469 0.0
C15 C 0.05761 0.97665 0.93593 0.0
N16 N 0.02198 0.00251 0.03743 0.0
C17 C 0.05363 0.97348 0.03152 0.0
C18 C 0.07105 0.95783 0.0744 0.0
C19 C 0.04963 0.97827 0.11016 0.0
C20 C 0.01951 0.00527 0.0877 0.0
N21 N 0.95404 0.99704 0.97997 0.0
C22 C 0.90343 0.94256 0.95391 0.0
C23 C 0.93995 0.92795 0.97561 0.0
C24 C 0.9651 0.95576 0.98762 0.0
C25 C 0.89028 0.98407 0.95159 0.0
C26 C 0.91531 0.01039 0.96635 0.0
N27 N 0.03526 0.0756 0.98 0.0
C28 C 0.10206 0.08111 1.00592 0.0
C29 C 0.08634 0.11547 0.02849 0.0
C30 C 0.04733 0.13385 0.01825 0.0
C31 C 0.02273 0.11395 0.99242 0.0
C32 C 0.07605 0.06205 0.98089 0.0
H33 H 0.99258 0.12834 0.98676 0.0
H34 H 0.08869 0.03475 0.96616 0.0
H35 H 0.99397 0.94336 1.00097 0.0
H36 H 0.90329 0.0416 0.96417 0.0
C37 C 0.92231 0.11022 0.97484 0.0
C38 C 0.99031 0.03352 0.11632 0.0
C39 C 0.99931 0.03992 0.84275 0.0
C40 C 0.06738 0.96318 0.9845 0.0
H41 H 0.92187 0.0903 0.14196 0.0
H42 H 0.88525 0.1328 0.06682 0.0
H43 H 0.89717 0.14322 0.87968 0.0
H44 H 0.93664 0.10284 0.81024 0.0
H45 H 0.06549 0.9805 0.81766 0.0
H46 H 0.10134 0.93735 0.89296 0.0
H47 H 0.09718 0.93506 0.07896 0.0
H48 H 0.05626 0.97438 0.1484 0.0
H49 H 0.95037 0.89563 0.97966 0.0
H50 H 0.86125 0.99632 0.93704 0.0
H51 H 0.13302 0.06724 1.01106 0.0
H52 H 0.03491 0.16177 0.03308 0.0
C53 C 0.25525 0.82996 0.32732 0.0
C54 C 0.26694 0.86622 0.33863 0.0
C55 C 0.30624 0.86805 0.31969 0.0
C56 C 0.31618 0.83304 0.29783 0.0
N57 N 0.2857 0.80882 0.30184 0.0
Co58 Co 0.28645 0.75627 0.273 0.0
N59 N 0.34486 0.75815 0.24703 0.0
C60 C 0.36986 0.78585 0.25435 0.0
C61 C 0.40853 0.77886 0.23278 0.0
C62 C 0.40819 0.74469 0.21014 0.0
C63 C 0.36909 0.733 0.21901 0.0
N64 N 0.2864 0.70505 0.24158 0.0
C65 C 0.31506 0.68689 0.21086 0.0
C66 C 0.30127 0.65398 0.19328 0.0
C67 C 0.26244 0.65136 0.21342 0.0
C68 C 0.25469 0.68279 0.24177 0.0
N69 N 0.22886 0.75308 0.30146 0.0
C70 C 0.20537 0.72287 0.29884 0.0
C71 C 0.16788 0.72801 0.32384 0.0
C72 C 0.16741 0.76355 0.3439 0.0
C73 C 0.20474 0.77812 0.32968 0.0
N74 N 0.26711 0.78753 0.21141 0.0
C75 C 0.25161 0.81318 0.11331 0.0
C76 C 0.2235 0.79237 0.14421 0.0
C77 C 0.2318 0.77989 0.19305 0.0
C78 C 0.28468 0.82563 0.13349 0.0
C79 C 0.2913 0.8133 0.18288 0.0
N80 N 0.30603 0.72447 0.33425 0.0
C81 C 0.30487 0.66525 0.39509 0.0
C82 C 0.33217 0.67978 0.42359 0.0
C83 C 0.34504 0.71815 0.40584 0.0
C84 C 0.33225 0.73932 0.36167 0.0
C85 C 0.29296 0.68739 0.35099 0.0
H86 H 0.3433 0.76817 0.35109 0.0
H87 H 0.27229 0.67418 0.33166 0.0
H88 H 0.21049 0.76194 0.21418 0.0
H89 H 0.31752 0.82292 0.19633 0.0
C90 C 0.35472 0.82055 0.27663 0.0
C91 C 0.21518 0.81664 0.34243 0.0
C92 C 0.35565 0.69955 0.19729 0.0
C93 C 0.21826 0.69182 0.26956 0.0
H94 H 0.24905 0.88877 0.35897 0.0
H95 H 0.3255 0.89173 0.32231 0.0
H96 H 0.4335 0.79729 0.23198 0.0
H97 H 0.43341 0.73072 0.18819 0.0
H98 H 0.31753 0.63403 0.16829 0.0
H99 H 0.24217 0.62933 0.20779 0.0
H100 H 0.14352 0.70863 0.3264 0.0
H101 H 0.14222 0.7775 0.36592 0.0
H102 H 0.19724 0.78265 0.12968 0.0
H103 H 0.30671 0.84245 0.11056 0.0
H104 H 0.29082 0.63775 0.40641 0.0
H105 H 0.36359 0.73348 0.42656 0.0
C106 C 0.44762 0.96351 0.59122 0.0
C107 C 0.42504 0.97946 0.63059 0.0
C108 C 0.43486 0.01816 0.63089 0.0
C109 C 0.46347 0.02383 0.59251 0.0
N110 N 0.47236 0.99132 0.56719 0.0
Co111 Co 0.52063 0.98519 0.51791 0.0
N112 N 0.53302 0.04348 0.5154 0.0
C113 C 0.51278 0.07093 0.54325 0.0
C114 C 0.52514 0.1092 0.53262 0.0
C115 C 0.5551 0.10608 0.49545 0.0
C116 C 0.55984 0.06582 0.48566 0.0
N117 N 0.57062 0.97816 0.47137 0.0
C118 C 0.59616 0.00528 0.44784 0.0
C119 C 0.62789 0.9854 0.42079 0.0
C120 C 0.62205 0.94495 0.42675 0.0
C121 C 0.58731 0.94207 0.45735 0.0
N122 N 0.50608 0.92815 0.51654 0.0
C123 C 0.52777 0.90031 0.49029 0.0
C124 C 0.50961 0.86521 0.49138 0.0
C125 C 0.47455 0.8706 0.52101 0.0
C126 C 0.47371 0.90834 0.53792 0.0
N127 N 0.4861 0.0036 0.46262 0.0
C128 C 0.44227 0.03447 0.38066 0.0
C129 C 0.4725 0.00158 0.37845 0.0
C130 C 0.49388 0.98659 0.41963 0.0
C131 C 0.43304 0.05089 0.42498 0.0
C132 C 0.45528 0.0349 0.46559 0.0
N133 N 0.55479 0.96687 0.57485 0.0
C134 C 0.56402 0.91667 0.64581 0.0
C135 C 0.56768 0.94753 0.67464 0.0
C136 C 0.5729 0.98639 0.65104 0.0
C137 C 0.56787 0.995 0.60073 0.0
C138 C 0.55791 0.92695 0.59589 0.0
H139 H 0.57217 0.02535 0.58453 0.0
H140 H 0.55298 0.90235 0.57627 0.0
H141 H 0.51721 0.96177 0.41579 0.0
H142 H 0.44788 0.04867 0.49882 0.0
C143 C 0.48266 0.05927 0.57916 0.0
C144 C 0.44471 0.92156 0.5788 0.0
C145 C 0.59179 0.05 0.44961 0.0
C146 C 0.5657 0.90786 0.46656 0.0
H147 H 0.4043 0.9645 0.65738 0.0
H148 H 0.42318 0.03935 0.65682 0.0
H149 H 0.51372 0.13622 0.54985 0.0
H150 H 0.572 0.13056 0.47803 0.0
H151 H 0.65232 0.9989 0.3983 0.0
H152 H 0.64 0.9208 0.40905 0.0
H153 H 0.52088 0.83851 0.47347 0.0
H154 H 0.45306 0.84833 0.53076 0.0
H155 H 0.48019 0.98806 0.34458 0.0
H156 H 0.40957 0.07633 0.42783 0.0
H157 H 0.56151 0.88571 0.66255 0.0
H158 H 0.57815 0.01063 0.67184 0.0
C159 C 0.26264 0.15948 0.82454 0.0
C160 C 0.24208 0.12822 0.84929 0.0
C161 C 0.20146 0.13931 0.84327 0.0
C162 C 0.19948 0.17659 0.81524 0.0
N163 N 0.23644 0.18976 0.80249 0.0
Co164 Co 0.24718 0.24359 0.76491 0.0
N165 N 0.18727 0.26238 0.76179 0.0
C166 C 0.15601 0.24182 0.78228 0.0
C167 C 0.11845 0.26387 0.77805 0.0
C168 C 0.1261 0.30014 0.75167 0.0
C169 C 0.16801 0.29765 0.74015 0.0
N170 N 0.25781 0.29709 0.72618 0.0
C171 C 0.23214 0.32368 0.69784 0.0
C172 C 0.25395 0.34985 0.66515 0.0
C173 C 0.29397 0.3412 0.67492 0.0
C174 C 0.29499 0.30921 0.71148 0.0
N175 N 0.30727 0.22504 0.76872 0.0
C176 C 0.33846 0.24649 0.75034 0.0
C177 C 0.37632 0.22713 0.76045 0.0
C178 C 0.36893 0.19136 0.78798 0.0
C179 C 0.32682 0.19111 0.79299 0.0
N180 N 0.24698 0.22065 0.7013 0.0
C181 C 0.23938 0.20879 0.60296 0.0
C182 C 0.2762 0.21778 0.61809 0.0
C183 C 0.27932 0.22358 0.66696 0.0
C184 C 0.20778 0.2016 0.63878 0.0
C185 C 0.21262 0.20664 0.68775 0.0
N186 N 0.24714 0.26666 0.82873 0.0
C187 C 0.2851 0.28846 0.89071 0.0
C188 C 0.25364 0.28083 0.92672 0.0
C189 C 0.21728 0.2708 0.91165 0.0
C190 C 0.21506 0.26298 0.86339 0.0
C191 C 0.28065 0.28251 0.84183 0.0
H192 H 0.18762 0.25204 0.85621 0.0
H193 H 0.30536 0.28923 0.81575 0.0
H194 H 0.30764 0.23234 0.67527 0.0
H195 H 0.18745 0.2009 0.71354 0.0
C196 C 0.16342 0.20194 0.80547 0.0
C197 C 0.30692 0.15963 0.82457 0.0
C198 C 0.18708 0.32538 0.70144 0.0
C199 C 0.33081 0.28511 0.72453 0.0
H200 H 0.25509 0.10075 0.87048 0.0
H201 H 0.17625 0.12294 0.85923 0.0
H202 H 0.08896 0.25439 0.79152 0.0
H203 H 0.10314 0.32455 0.73956 0.0
H204 H 0.24282 0.37204 0.63581 0.0
H205 H 0.31968 0.35438 0.65479 0.0
H206 H 0.40569 0.23814 0.75007 0.0
H207 H 0.39185 0.16859 0.80388 0.0
H208 H 0.30178 0.22272 0.59162 0.0
H209 H 0.17896 0.1937 0.62874 0.0
H210 H 0.31348 0.29754 0.90052 0.0
H211 H 0.19175 0.2656 0.93811 0.0
C212 C 0.97256 0.01104 0.59165 0.0
C213 C 0.94323 0.98988 0.61936 0.0
C214 C 0.9231 0.97223 0.58752 0.0
C215 C 0.94044 0.98372 0.54163 0.0
N216 N 0.97078 0.00748 0.54194 0.0
Co217 Co 0.99729 0.03552 0.47939 0.0
N218 N 0.96465 0.0123 0.43178 0.0
C219 C 0.93592 0.98692 0.44677 0.0
C220 C 0.9172 0.97536 0.40891 0.0
C221 C 0.93549 0.99378 0.36686 0.0
C222 C 0.96508 0.01545 0.38083 0.0
N223 N 0.0233 0.06416 0.41687 0.0
C224 C 0.02078 0.06158 0.36704 0.0
C225 C 0.04867 0.08455 0.33924 0.0
C226 C 0.06843 0.10249 0.37119 0.0
C227 C 0.05231 0.08944 0.41722 0.0
N228 N 0.03042 0.05823 0.52696 0.0
C229 C 0.05961 0.08308 0.51193 0.0
C230 C 0.07846 0.09447 0.54981 0.0
C231 C 0.05981 0.07646 0.59188 0.0
C232 C 0.02976 0.05535 0.57792 0.0
N233 N 0.03976 0.98831 0.47455 0.0
C234 C 0.09717 0.92579 0.44396 0.0
C235 C 0.10913 0.96357 0.44955 0.0
C236 C 0.08014 0.99416 0.46504 0.0
C237 C 0.05707 0.91827 0.4584 0.0
C238 C 0.02913 0.94968 0.47452 0.0
N239 N 0.9547 0.0825 0.48476 0.0
C240 C 0.9377 0.14526 0.52093 0.0
C241 C 0.89841 0.1348 0.53464 0.0
C242 C 0.88573 0.10171 0.51603 0.0
C243 C 0.91418 0.07647 0.49026 0.0
C244 C 0.96503 0.1192 0.49464 0.0
H245 H 0.90313 0.05095 0.47811 0.0
H246 H 0.99507 0.12785 0.4857 0.0
H247 H 0.09094 0.02268 0.46691 0.0
H248 H 0.99877 0.94255 0.48488 0.0
C249 C 0.92661 0.97574 0.49715 0.0
C250 C 1.00068 0.03444 0.61515 0.0
C251 C 0.99301 0.0378 0.34351 0.0
C252 C 0.06705 0.09642 0.46166 0.0
H253 H 0.93635 0.98805 0.65861 0.0
H254 H 0.89766 0.95434 0.59667 0.0
H255 H 0.89294 0.95586 0.41153 0.0
H256 H 0.92801 0.99121 0.32993 0.0
H257 H 0.05476 0.08752 0.29981 0.0
H258 H 0.09293 0.12158 0.36196 0.0
H259 H 0.10254 0.1142 0.5472 0.0
H260 H 0.06698 0.07935 0.62884 0.0
H261 H 0.14026 0.97012 0.43949 0.0
H262 H 0.04706 0.88886 0.45554 0.0
H263 H 0.94791 0.17195 0.53287 0.0
H264 H 0.85478 0.0939 0.52405 0.0
C265 C 0.28478 0.81148 0.68669 0.0
C266 C 0.2657 0.83947 0.65159 0.0
C267 C 0.2245 0.83787 0.66031 0.0
C268 C 0.22024 0.80815 0.69914 0.0
N269 N 0.25626 0.79028 0.71516 0.0
Co270 Co 0.26237 0.73986 0.76396 0.0
N271 N 0.20369 0.72858 0.76387 0.0
C272 C 0.17413 0.75543 0.74376 0.0
C273 C 0.13618 0.74197 0.7507 0.0
C274 C 0.1417 0.70446 0.77778 0.0
C275 C 0.18291 0.69676 0.78588 0.0
N276 N 0.26887 0.68925 0.81277 0.0
C277 C 0.24311 0.66032 0.83032 0.0
C278 C 0.26157 0.63129 0.86475 0.0
C279 C 0.29904 0.6429 0.87059 0.0
C280 C 0.30182 0.67803 0.83909 0.0
N281 N 0.3209 0.75117 0.76449 0.0
C282 C 0.34608 0.73373 0.79914 0.0
C283 C 0.38265 0.74976 0.79582 0.0
C284 C 0.38071 0.77944 0.7566 0.0
C285 C 0.3432 0.77951 0.73715 0.0
N286 N 0.24752 0.773 0.81832 0.0
C287 C 0.24141 0.80642 0.90681 0.0
C288 C 0.26489 0.82335 0.8665 0.0
C289 C 0.26682 0.80664 0.82201 0.0
C290 C 0.21727 0.77618 0.9003 0.0
C291 C 0.22082 0.75994 0.85589 0.0
N292 N 0.27748 0.70729 0.70955 0.0
C293 C 0.32773 0.66385 0.6663 0.0
C294 C 0.30711 0.67481 0.62329 0.0
C295 C 0.26972 0.69907 0.62546 0.0
C296 C 0.25518 0.71443 0.66903 0.0
C297 C 0.31254 0.68085 0.70909 0.0
H298 H 0.22684 0.7338 0.6688 0.0
H299 H 0.33008 0.67406 0.74097 0.0
H300 H 0.28601 0.81929 0.79184 0.0
H301 H 0.20393 0.73496 0.85357 0.0
C302 C 0.1839 0.79133 0.71522 0.0
C303 C 0.32946 0.80876 0.69441 0.0
C304 C 0.19955 0.66127 0.81991 0.0
C305 C 0.3353 0.70059 0.83206 0.0
H306 H 0.27988 0.8593 0.62267 0.0
H307 H 0.20059 0.85497 0.63913 0.0
H308 H 0.10778 0.75757 0.73759 0.0
H309 H 0.11783 0.6855 0.79137 0.0
H310 H 0.24867 0.60521 0.88495 0.0
H311 H 0.3215 0.62765 0.89519 0.0
H312 H 0.40783 0.74088 0.81912 0.0
H313 H 0.40419 0.79916 0.74433 0.0
H314 H 0.2837 0.84714 0.87033 0.0
H315 H 0.19856 0.76262 0.93077 0.0
H316 H 0.3564 0.64429 0.66599 0.0
H317 H 0.25253 0.70731 0.59311 0.0
C318 C 0.40236 0.0144 0.9853 0.0
C319 C 0.36472 0.00031 0.98353 0.0
C320 C 0.3646 0.96532 0.01562 0.0
C321 C 0.40202 0.96003 0.03518 0.0
N322 N 0.42596 0.98927 0.01729 0.0
Co323 Co 0.4818 0.9934 0.03769 0.0
N324 N 0.48692 0.93619 0.07163 0.0
C325 C 0.45591 0.91303 0.08309 0.0
C326 C 0.46736 0.87583 0.10868 0.0
C327 C 0.50808 0.87557 0.11461 0.0
C328 C 0.5193 0.91278 0.09215 0.0
N329 N 0.53775 0.99771 0.05811 0.0
C330 C 0.56621 0.96876 0.07833 0.0
C331 C 0.60139 0.98551 0.08579 0.0
C332 C 0.59434 0.02646 0.07134 0.0
C333 C 0.55556 0.03239 0.05547 0.0
N334 N 0.47655 0.05064 1.0042 0.0
C335 C 0.50092 0.0794 1.00907 0.0
C336 C 0.49088 0.1157 0.98082 0.0
C337 C 0.45782 0.10976 0.95688 0.0
C338 C 0.44927 0.07008 0.97225 0.0
N339 N 0.4575 0.01342 0.09886 0.0
C340 C 0.42606 0.04237 0.18687 0.0
C341 C 0.40919 0.05871 0.1427 0.0
C342 C 0.42544 0.04363 0.09896 0.0
C343 C 0.45794 0.01094 0.18638 0.0
C344 C 0.47291 0.99691 0.14231 0.0
N345 N 0.50584 0.97354 0.97637 0.0
C346 C 0.54589 0.98493 0.89976 0.0
C347 C 0.53287 0.95071 0.88356 0.0
C348 C 0.50857 0.92634 0.91616 0.0
C349 C 0.49461 0.9388 0.96188 0.0
C350 C 0.53264 0.99538 0.9465 0.0
H351 H 0.47365 0.92098 0.98466 0.0
H352 H 0.54305 0.02202 0.95758 0.0
H353 H 0.41215 0.05638 0.06539 0.0
H354 H 0.49686 0.97253 0.14357 0.0
C355 C 0.41726 0.92608 0.06621 0.0
C356 C 0.41312 0.05329 0.95879 0.0
C357 C 0.5593 0.92659 0.09725 0.0
C358 C 0.53652 0.06927 0.03391 0.0
H359 H 0.33974 0.01419 0.96181 0.0
H360 H 0.3404 0.94571 0.0231 0.0
H361 H 0.44837 0.85178 0.12162 0.0
H362 H 0.52697 0.85133 0.13479 0.0
H363 H 0.6287 0.96995 0.10177 0.0
H364 H 0.61513 0.04915 0.07202 0.0
H365 H 0.50663 0.14279 0.9767 0.0
H366 H 0.44173 0.13225 0.93131 0.0
H367 H 0.3841 0.08287 0.142 0.0
H368 H 0.47137 0.99729 0.22008 0.0
H369 H 0.56519 0.00422 0.87584 0.0
H370 H 0.49822 0.8994 0.90501 0.0
C371 C 0.20064 0.24781 0.36512 0.0
C372 C 0.16749 0.26862 0.38898 0.0
C373 C 0.15137 0.29861 0.35518 0.0
C374 C 0.17536 0.29425 0.31273 0.0
N375 N 0.20523 0.26266 0.317 0.0
Co376 Co 0.24783 0.24621 0.26468 0.0
N377 N 0.22648 0.29244 0.2158 0.0
C378 C 0.19472 0.32109 0.2237 0.0
C379 C 0.18424 0.34624 0.18221 0.0
C380 C 0.21032 0.33247 0.14536 0.0
C381 C 0.23567 0.29975 0.16659 0.0
N382 N 0.29065 0.22997 0.21242 0.0
C383 C 0.29604 0.24562 0.16463 0.0
C384 C 0.32957 0.22516 0.14103 0.0
C385 C 0.34515 0.19464 0.1746 0.0
C386 C 0.32048 0.19836 0.21669 0.0
N387 N 0.2691 0.19986 0.31337 0.0
C388 C 0.3003 0.1707 0.30517 0.0
C389 C 0.31055 0.14525 0.34654 0.0
C390 C 0.2849 0.15937 0.38357 0.0
C391 C 0.26005 0.1926 0.36257 0.0
N392 N 0.21045 0.21142 0.24128 0.0
C393 C 0.16416 0.17424 0.18268 0.0
C394 C 0.20277 0.15602 0.1952 0.0
C395 C 0.22501 0.17467 0.22536 0.0
C396 C 0.14666 0.20756 0.20596 0.0
C397 C 0.17035 0.22577 0.23475 0.0
N398 N 0.28515 0.28105 0.28794 0.0
C399 C 0.35049 0.28791 0.31773 0.0
C400 C 0.33473 0.32436 0.33544 0.0
C401 C 0.29486 0.34048 0.32595 0.0
C402 C 0.27094 0.31875 0.30142 0.0
C403 C 0.32522 0.2667 0.29461 0.0
H404 H 0.24069 0.33238 0.29525 0.0
H405 H 0.33852 0.23822 0.28382 0.0
H406 H 0.25484 0.1603 0.23252 0.0
H407 H 0.15617 0.25259 0.24903 0.0
C408 C 0.17215 0.32048 0.26898 0.0
C409 C 0.22963 0.21755 0.39104 0.0
C410 C 0.26682 0.27537 0.13828 0.0
C411 C 0.32312 0.17154 0.26003 0.0
H412 H 0.15722 0.26375 0.42742 0.0
H413 H 0.12615 0.32175 0.36132 0.0
H414 H 0.15922 0.37039 0.17873 0.0
H415 H 0.20973 0.34449 0.10703 0.0
H416 H 0.34024 0.23047 0.10277 0.0
H417 H 0.37044 0.17156 0.16854 0.0
H418 H 0.33529 0.12078 0.34988 0.0
H419 H 0.2855 0.14731 0.42189 0.0
H420 H 0.21659 0.12892 0.17954 0.0
H421 H 0.11596 0.22128 0.19892 0.0
H422 H 0.38166 0.27506 0.3236 0.0
H423 H 0.28206 0.36934 0.33817 0.0
C424 C 0.70359 0.34756 0.81604 0.0
C425 C 0.71872 0.38063 0.83153 0.0
C426 C 0.75823 0.38029 0.81262 0.0
C427 C 0.76487 0.34727 0.78663 0.0
N428 N 0.73187 0.32673 0.7875 0.0
Co429 Co 0.72795 0.27737 0.75411 0.0
N430 N 0.78808 0.27203 0.73478 0.0
C431 C 0.8157 0.29562 0.7462 0.0
C432 C 0.85484 0.28425 0.72854 0.0
C433 C 0.85202 0.25158 0.70405 0.0
C434 C 0.81111 0.24512 0.70799 0.0
N435 N 0.72365 0.22949 0.718 0.0
C436 C 0.75227 0.20848 0.68992 0.0
C437 C 0.73566 0.17961 0.66771 0.0
C438 C 0.69495 0.18288 0.68169 0.0
C439 C 0.68906 0.21347 0.7114 0.0
N440 N 0.66851 0.28087 0.77663 0.0
C441 C 0.64114 0.25627 0.76705 0.0
C442 C 0.60332 0.26408 0.79049 0.0
C443 C 0.60695 0.29507 0.81742 0.0
C444 C 0.64687 0.3045 0.8085 0.0
N445 N 0.71631 0.31338 0.69231 0.0
C446 C 0.71233 0.33372 0.59139 0.0
C447 C 0.67739 0.32412 0.62047 0.0
C448 C 0.68005 0.3141 0.67103 0.0
C449 C 0.7458 0.34211 0.61457 0.0
C450 C 0.74677 0.33252 0.66536 0.0
N451 N 0.73936 0.24111 0.81525 0.0
C452 C 0.72443 0.18287 0.8731 0.0
C453 C 0.74742 0.19551 0.90741 0.0
C454 C 0.7685 0.22952 0.89397 0.0
C455 C 0.76443 0.25155 0.84775 0.0
C456 C 0.72066 0.20617 0.8274 0.0
H457 H 0.78079 0.27766 0.83961 0.0
H458 H 0.7014 0.19613 0.80312 0.0
H459 H 0.65341 0.304 0.6911 0.0
H460 H 0.77386 0.33764 0.68117 0.0
C461 C 0.80309 0.33097 0.76827 0.0
C462 C 0.66286 0.33608 0.83116 0.0
C463 C 0.79512 0.2156 0.68192 0.0
C464 C 0.65193 0.2266 0.73537 0.0
H465 H 0.70318 0.40201 0.85529 0.0
H466 H 0.78012 0.40043 0.81916 0.0
H467 H 0.88189 0.29901 0.73134 0.0
H468 H 0.87694 0.23534 0.68392 0.0
H469 H 0.75129 0.15875 0.64338 0.0
H470 H 0.67231 0.16516 0.67129 0.0
H471 H 0.57645 0.24881 0.78858 0.0
H472 H 0.58302 0.30905 0.84113 0.0
H473 H 0.65001 0.31943 0.60378 0.0
H474 H 0.77277 0.35171 0.5933 0.0
H475 H 0.70786 0.15643 0.88245 0.0
H476 H 0.78695 0.23985 0.91973 0.0
C477 C 0.75112 0.65127 0.34326 0.0
C478 C 0.73334 0.61649 0.36269 0.0
C479 C 0.69245 0.62487 0.35677 0.0
C480 C 0.68756 0.66409 0.33392 0.0
N481 N 0.72289 0.68125 0.32467 0.0
Co482 Co 0.72944 0.73748 0.29096 0.0
N483 N 0.669 0.75022 0.2836 0.0
C484 C 0.63965 0.72604 0.301 0.0
C485 C 0.60124 0.74197 0.28823 0.0
C486 C 0.60644 0.77811 0.26013 0.0
C487 C 0.6479 0.78207 0.25725 0.0
N488 N 0.73611 0.79319 0.25568 0.0
C489 C 0.70899 0.82015 0.23021 0.0
C490 C 0.72716 0.85346 0.20657 0.0
C491 C 0.76732 0.84703 0.21659 0.0
C492 C 0.77141 0.81028 0.24558 0.0
N493 N 0.78975 0.72526 0.29931 0.0
C494 C 0.81855 0.75091 0.28541 0.0
C495 C 0.85693 0.73532 0.29837 0.0
C496 C 0.85247 0.6975 0.32237 0.0
C497 C 0.81144 0.69202 0.32235 0.0
N498 N 0.73607 0.71597 0.22624 0.0
C499 C 0.73636 0.70516 0.12655 0.0
C500 C 0.77106 0.71567 0.14563 0.0
C501 C 0.76999 0.72166 0.19508 0.0
C502 C 0.7036 0.69517 0.15936 0.0
C503 C 0.70475 0.69939 0.20907 0.0
N504 N 0.72273 0.75925 0.35595 0.0
C505 C 0.75065 0.79221 0.41745 0.0
C506 C 0.72163 0.77816 0.45333 0.0
C507 C 0.69111 0.75754 0.43871 0.0
C508 C 0.69257 0.74797 0.3905 0.0
C509 C 0.74998 0.78337 0.36908 0.0
H510 H 0.66983 0.73009 0.38273 0.0
H511 H 0.77266 0.79528 0.34341 0.0
H512 H 0.7962 0.73274 0.20654 0.0
H513 H 0.67901 0.69099 0.23241 0.0
C514 C 0.65008 0.68622 0.32286 0.0
C515 C 0.79474 0.65474 0.34492 0.0
C516 C 0.66615 0.81494 0.22598 0.0
C517 C 0.80846 0.78946 0.26012 0.0
H518 H 0.74835 0.58823 0.38009 0.0
H519 H 0.66896 0.60497 0.36848 0.0
H520 H 0.57317 0.72789 0.29601 0.0
H521 H 0.58271 0.79839 0.24196 0.0
H522 H 0.71304 0.87918 0.18338 0.0
H523 H 0.79108 0.86607 0.2027 0.0
H524 H 0.88478 0.74987 0.29153 0.0
H525 H 0.87672 0.67646 0.33836 0.0
H526 H 0.79766 0.72242 0.12164 0.0
H527 H 0.67653 0.68572 0.14642 0.0
H528 H 0.77451 0.80888 0.427 0.0
H529 H 0.66773 0.74649 0.46528 0.0
C530 C 0.7978 0.30022 0.18413 0.0
C531 C 0.77967 0.33051 0.15088 0.0
C532 C 0.73989 0.32317 0.14987 0.0
C533 C 0.73558 0.28904 0.18269 0.0
N534 N 0.7699 0.27447 0.20527 0.0
Co535 Co 0.77503 0.22346 0.25363 0.0
N536 N 0.71452 0.21837 0.26053 0.0
C537 C 0.68713 0.24064 0.23155 0.0
C538 C 0.64767 0.23261 0.24447 0.0
C539 C 0.65007 0.20291 0.28374 0.0
C540 C 0.69109 0.19383 0.29249 0.0
N541 N 0.78022 0.17198 0.30102 0.0
C542 C 0.75167 0.14959 0.32757 0.0
C543 C 0.77052 0.11451 0.35285 0.0
C544 C 0.8117 0.11475 0.3423 0.0
C545 C 0.81601 0.14969 0.31089 0.0
N546 N 0.83549 0.22897 0.24742 0.0
C547 C 0.86418 0.20021 0.26594 0.0
C548 C 0.90309 0.21114 0.2573 0.0
C549 C 0.89922 0.24868 0.23022 0.0
C550 C 0.85792 0.25907 0.22411 0.0
N551 N 0.768 0.25656 0.3083 0.0
C552 C 0.75005 0.29562 0.39276 0.0
C553 C 0.7841 0.26657 0.38915 0.0
C554 C 0.79253 0.24736 0.34669 0.0
C555 C 0.72677 0.30689 0.35217 0.0
C556 C 0.73654 0.28725 0.31009 0.0
N557 N 0.78128 0.19052 0.19854 0.0
C558 C 0.80206 0.18807 0.11324 0.0
C559 C 0.77203 0.1628 0.10934 0.0
C560 C 0.75105 0.14653 0.15213 0.0
C561 C 0.75648 0.16063 0.19671 0.0
C562 C 0.80644 0.20122 0.15832 0.0
H563 H 0.73831 0.14963 0.22867 0.0
H564 H 0.82796 0.22251 0.15938 0.0
H565 H 0.81777 0.22384 0.34602 0.0
H566 H 0.7173 0.29574 0.28006 0.0
C567 C 0.69917 0.27164 0.19601 0.0
C568 C 0.84239 0.29555 0.19097 0.0
C569 C 0.70643 0.15887 0.32817 0.0
C570 C 0.85308 0.16435 0.29335 0.0
H571 H 0.794 0.35486 0.12875 0.0
H572 H 0.71675 0.34081 0.12795 0.0
H573 H 0.62024 0.24716 0.22786 0.0
H574 H 0.62452 0.18891 0.30302 0.0
H575 H 0.75598 0.09094 0.37621 0.0
H576 H 0.83571 0.0923 0.35638 0.0
H577 H 0.93103 0.19407 0.26962 0.0
H578 H 0.9241 0.266 0.21561 0.0
H579 H 0.80267 0.25711 0.42003 0.0
H580 H 0.70005 0.3291 0.3539 0.0
H581 H 0.81955 0.20041 0.08091 0.0
H582 H 0.72813 0.12613 0.15039 0.0
C583 C 0.69064 0.75233 0.89439 0.0
C584 C 0.65897 0.77136 0.92247 0.0
C585 C 0.63874 0.80084 0.89139 0.0
C586 C 0.65913 0.79812 0.8463 0.0
N587 N 0.69067 0.76821 0.84649 0.0
Co588 Co 0.73063 0.75647 0.78995 0.0
N589 N 0.70048 0.79913 0.74353 0.0
C590 C 0.66575 0.82305 0.75464 0.0
C591 C 0.64775 0.84371 0.71435 0.0
C592 C 0.6721 0.83217 0.67496 0.0
C593 C 0.704 0.80515 0.69356 0.0
N594 N 0.77164 0.74617 0.73389 0.0
C595 C 0.77158 0.76177 0.68588 0.0
C596 C 0.80678 0.74752 0.65945 0.0
C597 C 0.82921 0.72093 0.69156 0.0
C598 C 0.8067 0.72072 0.73569 0.0
N599 N 0.75962 0.71198 0.83498 0.0
C600 C 0.79313 0.68662 0.82307 0.0
C601 C 0.80632 0.65934 0.86164 0.0
C602 C 0.77992 0.66801 0.90065 0.0
C603 C 0.75202 0.70024 0.88353 0.0
N604 N 0.69709 0.71634 0.77128 0.0
C605 C 0.65147 0.66974 0.7239 0.0
C606 C 0.69287 0.6578 0.7294 0.0
C607 C 0.71506 0.68137 0.75355 0.0
C608 C 0.63205 0.70179 0.74806 0.0
C609 C 0.65542 0.72457 0.77172 0.0
N610 N 0.76407 0.79694 0.80936 0.0
C611 C 0.82389 0.81014 0.847 0.0
C612 C 0.80663 0.84961 0.85315 0.0
C613 C 0.76906 0.86353 0.83385 0.0
C614 C 0.74821 0.83669 0.81257 0.0
C615 C 0.80267 0.78485 0.82427 0.0
H616 H 0.71908 0.84865 0.79987 0.0
H617 H 0.81791 0.75534 0.82038 0.0
H618 H 0.74713 0.67248 0.75425 0.0
H619 H 0.63943 0.74985 0.78794 0.0
C620 C 0.64866 0.8222 0.80285 0.0
C621 C 0.72122 0.72099 0.91551 0.0
C622 C 0.73646 0.78506 0.66253 0.0
C623 C 0.81451 0.6929 0.77723 0.0
H624 H 0.65178 0.76502 0.96158 0.0
H625 H 0.61252 0.82195 0.90061 0.0
H626 H 0.61909 0.86306 0.71366 0.0
H627 H 0.66621 0.84172 0.63694 0.0
H628 H 0.81421 0.75388 0.6204 0.0
H629 H 0.85736 0.70217 0.68306 0.0
H630 H 0.8331 0.63714 0.86195 0.0
H631 H 0.78196 0.65327 0.93786 0.0
H632 H 0.70851 0.63216 0.71222 0.0
H633 H 0.59957 0.71078 0.74592 0.0
H634 H 0.85366 0.79875 0.86002 0.0
H635 H 0.75538 0.89452 0.83652 0.0
C636 C 0.44738 0.51912 0.60667 0.0
C637 C 0.41194 0.54239 0.62149 0.0
C638 C 0.39914 0.56659 0.58072 0.0
C639 C 0.42705 0.55653 0.54346 0.0
N640 N 0.45629 0.5263 0.55764 0.0
Co641 Co 0.5029 0.50172 0.51558 0.0
N642 N 0.48649 0.53997 0.45634 0.0
C643 C 0.45459 0.56966 0.45425 0.0
C644 C 0.44815 0.58798 0.4077 0.0
C645 C 0.47727 0.5686 0.37816 0.0
C646 C 0.50034 0.53964 0.40855 0.0
N647 N 0.5496 0.47704 0.47372 0.0
C648 C 0.55974 0.48535 0.4251 0.0
C649 C 0.59501 0.46151 0.41063 0.0
C650 C 0.60669 0.43611 0.45121 0.0
C651 C 0.57818 0.4461 0.488 0.0
N652 N 0.51924 0.46376 0.57522 0.0
C653 C 0.55043 0.43337 0.57735 0.0
C654 C 0.55792 0.41644 0.62423 0.0
C655 C 0.53051 0.43774 0.65391 0.0
C656 C 0.50729 0.4663 0.62333 0.0
N657 N 0.46772 0.46239 0.49719 0.0
C658 C 0.42347 0.41245 0.45182 0.0
C659 C 0.46165 0.39761 0.46882 0.0
C660 C 0.48289 0.4228 0.4921 0.0
C661 C 0.40624 0.45107 0.46148 0.0
C662 C 0.42872 0.47535 0.48405 0.0
N663 N 0.538 0.54092 0.53363 0.0
C664 C 0.59808 0.55133 0.57252 0.0
C665 C 0.5796 0.58904 0.58417 0.0
C666 C 0.54279 0.60492 0.56408 0.0
C667 C 0.52282 0.58054 0.5382 0.0
C668 C 0.57675 0.52781 0.54744 0.0
H669 H 0.49401 0.59332 0.52511 0.0
H670 H 0.59134 0.49827 0.54233 0.0
H671 H 0.51206 0.41015 0.50402 0.0
H672 H 0.41433 0.50499 0.48859 0.0
C673 C 0.42805 0.57606 0.49544 0.0
C674 C 0.47518 0.4963 0.64132 0.0
C675 C 0.5341 0.51146 0.39034 0.0
C676 C 0.57675 0.42657 0.53608 0.0
H677 H 0.39834 0.54364 0.65848 0.0
H678 H 0.37363 0.58989 0.5791 0.0
H679 H 0.42378 0.61116 0.39629 0.0
H680 H 0.4801 0.57447 0.33858 0.0
H681 H 0.60967 0.46126 0.37402 0.0
H682 H 0.63226 0.41248 0.45333 0.0
H683 H 0.58234 0.39334 0.63566 0.0
H684 H 0.52907 0.43358 0.69357 0.0
H685 H 0.47547 0.36725 0.46285 0.0
H686 H 0.37624 0.46313 0.44964 0.0
H687 H 0.62743 0.53883 0.586 0.0
H688 H 0.52832 0.63484 0.571 0.0
C689 C 0.94403 0.44933 0.05984 0.0
C690 C 0.90623 0.46712 0.07665 0.0
C691 C 0.90298 0.50715 0.05675 0.0
C692 C 0.93881 0.51182 0.0288 0.0
N693 N 0.96496 0.47744 0.03005 0.0
Co694 Co 0.0195 0.47274 0.99145 0.0
N695 N 0.01948 0.53343 0.97366 0.0
C696 C 0.98663 0.56083 0.98008 0.0
C697 C 0.99374 0.60022 0.96361 0.0
C698 C 0.03352 0.59779 0.94489 0.0
C699 C 0.04875 0.55689 0.95095 0.0
N700 N 0.07374 0.46802 0.95219 0.0
C701 C 0.09865 0.4967 0.93106 0.0
C702 C 0.13294 0.47832 0.90666 0.0
C703 C 0.12917 0.43738 0.91142 0.0
C704 C 0.09298 0.43273 0.93864 0.0
N705 N 0.01955 0.41207 1.00975 0.0
C706 C 0.04591 0.38382 0.98941 0.0
C707 C 0.03963 0.34452 1.00771 0.0
C708 C 0.00683 0.34791 0.04137 0.0
C709 C 0.99456 0.38923 0.04178 0.0
N710 N 0.99191 0.46935 0.93191 0.0
C711 C 0.962 0.45579 0.84415 0.0
C712 C 0.94767 0.43569 0.88872 0.0
C713 C 0.96267 0.44342 0.93231 0.0
C714 C 0.98951 0.48448 0.84446 0.0
C715 C 0.00401 0.4908 0.88859 0.0
N716 N 0.0474 0.47574 0.05049 0.0
C717 C 0.10081 0.44967 0.10434 0.0
C718 C 0.08407 0.4761 0.13808 0.0
C719 C 0.05002 0.50373 0.12628 0.0
C720 C 0.03231 0.50326 0.08213 0.0
C721 C 0.08169 0.44966 0.06099 0.0
H722 H 0.00589 0.52455 0.07423 0.0
H723 H 0.09426 0.42784 0.0367 0.0
H724 H 0.95168 0.42739 0.96605 0.0
H725 H 0.02621 0.51193 0.88712 0.0
C726 C 0.95053 0.54862 1.00456 0.0
C727 C 0.95671 0.40487 0.0698 0.0
C728 C 0.0896 0.54176 0.92941 0.0
C729 C 0.0781 0.39552 0.95635 0.0
H730 H 0.88303 0.45244 0.10009 0.0
H731 H 0.87761 0.53024 0.06241 0.0
H732 H 0.97252 0.62755 0.96506 0.0
H733 H 0.04919 0.62314 0.92742 0.0
H734 H 0.15774 0.4931 0.88664 0.0
H735 H 0.15062 0.41373 0.89728 0.0
H736 H 0.0571 0.31664 0.9981 0.0
H737 H 0.9929 0.3228 0.06242 0.0
H738 H 0.92623 0.41334 0.88965 0.0
H739 H 1.00112 0.50062 0.81045 0.0
H740 H 0.12731 0.42807 0.11244 0.0
H741 H 0.03659 0.5248 0.15164 0.0
C742 C 0.48682 0.60534 0.0343 0.0
C743 C 0.50329 0.64218 0.02999 0.0
C744 C 0.54102 0.63613 1.00628 0.0
C745 C 0.54551 0.59606 0.99769 0.0
N746 N 0.51256 0.57634 0.01361 0.0
Co747 Co 0.50735 0.51698 0.01283 0.0
N748 N 0.56575 0.50628 0.98687 0.0
C749 C 0.59339 0.53363 0.97688 0.0
C750 C 0.63066 0.51755 0.95812 0.0
C751 C 0.62638 0.47767 0.95506 0.0
C752 C 0.58656 0.47185 0.9721 0.0
N753 N 0.50202 0.4577 0.01161 0.0
C754 C 0.52864 0.42825 0.993 0.0
C755 C 0.51195 0.39163 0.99604 0.0
C756 C 0.47307 0.39832 0.01659 0.0
C757 C 0.46827 0.43851 0.02479 0.0
N758 N 0.44918 0.52766 0.03974 0.0
C759 C 0.42137 0.50046 0.04953 0.0
C760 C 0.38472 0.51629 0.07024 0.0
C761 C 0.38975 0.55569 0.07517 0.0
C762 C 0.42933 0.56152 0.05711 0.0
N763 N 0.48985 0.52782 0.94423 0.0
C764 C 0.47406 0.525 0.84571 0.0
C765 C 0.44516 0.51495 0.88369 0.0
C766 C 0.45392 0.51583 0.93232 0.0
C767 C 0.50865 0.54128 0.85739 0.0
C768 C 0.5153 0.54346 0.90649 0.0
N769 N 0.52467 0.50583 0.08113 0.0
C770 C 0.50769 0.48424 0.16671 0.0
C771 C 0.54063 0.50182 0.18073 0.0
C772 C 0.56765 0.51802 0.14372 0.0
C773 C 0.55849 0.52083 0.09457 0.0
C774 C 0.50121 0.48533 0.1171 0.0
H775 H 0.57852 0.53635 0.06834 0.0
H776 H 0.47607 0.47072 0.10884 0.0
H777 H 0.43163 0.50525 0.95936 0.0
H778 H 0.54207 0.55634 0.913 0.0
C779 C 0.58216 0.57486 0.9816 0.0
C780 C 0.4478 0.59854 0.06103 0.0
C781 C 0.5688 0.43435 0.96898 0.0
C782 C 0.43178 0.45964 0.04175 0.0
H783 H 0.49002 0.6701 0.04409 0.0
H784 H 0.56346 0.65771 0.99879 0.0
H785 H 0.65719 0.53334 0.94621 0.0
H786 H 0.64941 0.45572 0.94015 0.0
H787 H 0.52607 0.36342 0.98335 0.0
H788 H 0.45051 0.37683 0.02317 0.0
H789 H 0.35812 0.5006 0.08211 0.0
H790 H 0.36741 0.5773 0.0918 0.0
H791 H 0.417 0.50404 0.87603 0.0
H792 H 0.5311 0.55115 0.82881 0.0
H793 H 0.4865 0.47029 0.19402 0.0
H794 H 0.59439 0.53067 0.15287 0.0
C795 C 0.93433 0.49795 0.43081 0.0
C796 C 0.91287 0.47578 0.40422 0.0
C797 C 0.93656 0.4396 0.39936 0.0
C798 C 0.97076 0.44136 0.42378 0.0
N799 N 0.9699 0.47609 0.44445 0.0
Co800 Co 0.01307 0.48989 0.48416 0.0
N801 N 0.03938 0.43264 0.49137 0.0
C802 C 0.03571 0.40501 0.46068 0.0
C803 C 0.06337 0.37093 0.46726 0.0
C804 C 0.08588 0.37744 0.5046 0.0
C805 C 0.06993 0.41489 0.51955 0.0
N806 N 0.05528 0.50274 0.52568 0.0
C807 C 0.07532 0.47736 0.56092 0.0
C808 C 0.091 0.49993 0.59271 0.0
C809 C 0.08383 0.54013 0.57408 0.0
C810 C 0.06243 0.54038 0.53338 0.0
N811 N 0.98801 0.54769 0.47445 0.0
C812 C 0.00604 0.58024 0.48258 0.0
C813 C 0.98316 0.61671 0.46986 0.0
C814 C 0.94876 0.60663 0.4519 0.0
C815 C 0.95243 0.56434 0.45502 0.0
N816 N 0.97805 0.47922 0.54405 0.0
C817 C 0.95019 0.4581 0.64094 0.0
C818 C 0.95702 0.49821 0.62431 0.0
C819 C 0.97088 0.50817 0.57579 0.0
C820 C 0.95258 0.42974 0.60701 0.0
C821 C 0.96619 0.44118 0.55821 0.0
N822 N 0.04867 0.50029 0.42471 0.0
C823 C 0.11099 0.48095 0.37763 0.0
C824 C 0.09133 0.49399 0.33439 0.0
C825 C 0.05235 0.51525 0.3372 0.0
C826 C 0.03178 0.51849 0.38277 0.0
C827 C 0.08897 0.48465 0.42281 0.0
H828 H 1.00111 0.53301 0.38374 0.0
H829 H 0.1036 0.47214 0.45586 0.0
H830 H 0.97908 0.5385 0.56562 0.0
H831 H 0.97007 0.41845 0.53303 0.0
C832 C 0.00315 0.41043 0.43028 0.0
C833 C 0.92315 0.5416 0.43535 0.0
C834 C 0.08381 0.43237 0.56113 0.0
C835 C 0.04046 0.57498 0.50998 0.0
H836 H 0.88408 0.48558 0.38794 0.0
H837 H 0.92971 0.41503 0.38015 0.0
H838 H 0.06636 0.34422 0.44793 0.0
H839 H 0.11085 0.35671 0.5194 0.0
H840 H 0.1061 0.48888 0.62596 0.0
H841 H 0.09072 0.56622 0.5905 0.0
H842 H 0.99003 0.64697 0.47448 0.0
H843 H 0.92403 0.62804 0.43767 0.0
H844 H 0.95514 0.52089 0.64967 0.0
H845 H 0.9471 0.39842 0.61888 0.0
H846 H 0.14168 0.4653 0.37648 0.0
H847 H 0.03675 0.52674 0.30426 0.0
C848 C 0.99263 0.0717 0.19668 0.0
C849 C 0.9908 0.03474 0.17503 0.0
C850 C 0.99618 -0.00053 0.26243 0.0
C851 C 0.99248 0.03681 0.28473 0.0
N852 N 0.97643 0.10951 0.26765 0.0
N853 N 0.97987 0.96406 0.19509 0.0
C854 C 0.98775 0.07306 0.25004 0.0
C855 C 0.98951 0.99895 0.21038 0.0
N856 N 1.00057 0.10603 0.16645 0.0
N857 N 0.00768 0.96374 0.29044 0.0
H858 H 0.9729 0.96266 0.1591 0.0
H859 H 0.97454 0.93816 0.21922 0.0
H860 H 0.014 0.96259 0.32712 0.0
H861 H 0.01496 0.93614 0.27584 0.0
H862 H 0.00678 0.13258 0.17951 0.0
H863 H 0.00537 0.10647 0.12849 0.0
H864 H 0.96893 0.13633 0.2448 0.0
H865 H 0.97038 0.11196 0.30501 0.0
C866 C 0.36998 0.67532 0.50116 0.0
C867 C 0.34221 0.65937 0.47441 0.0
C868 C 0.30512 0.6361 0.55091 0.0
C869 C 0.32466 0.66305 0.57504 0.0
N870 N 0.37915 0.70611 0.57372 0.0
N871 N 0.31187 0.59672 0.48205 0.0
C872 C 0.35904 0.68105 0.55091 0.0
C873 C 0.31751 0.63126 0.50123 0.0
N874 N 0.4073 0.68282 0.47944 0.0
N875 N 0.27494 0.61525 0.57521 0.0
H876 H 0.32749 0.58953 0.44917 0.0
H877 H 0.29705 0.57317 0.50169 0.0
H878 H 0.267 0.61597 0.6126 0.0
H879 H 0.25706 0.5986 0.5575 0.0
H880 H 0.43054 0.69101 0.49835 0.0
H881 H 0.41579 0.67646 0.44356 0.0
H882 H 0.4014 0.7233 0.55553 0.0
H883 H 0.37178 0.71187 0.60984 0.0
C884 C 0.58302 0.93532 0.81231 0.0
C885 C 0.54188 0.943 0.83121 0.0
C886 C 0.51859 0.94232 0.74888 0.0
C887 C 0.55969 0.94133 0.72898 0.0
N888 N 0.63132 0.93937 0.74095 0.0
N889 N 0.47031 0.95874 0.81592 0.0
C890 C 0.59206 0.93838 0.76052 0.0
C891 C 0.50956 0.94722 0.79922 0.0
N892 N 0.61323 0.92412 0.84398 0.0
N893 N 0.48787 0.9391 0.71967 0.0
H894 H 0.46175 0.96289 0.85226 0.0
H895 H 0.44651 0.96755 0.79292 0.0
H896 H 0.49228 0.93793 0.68202 0.0
H897 H 0.45834 0.93416 0.73344 0.0
H898 H 0.64325 0.91431 0.83275 0.0
H899 H 0.60734 0.92082 0.88203 0.0
H900 H 0.65577 0.94186 0.76156 0.0
H901 H 0.63912 0.9398 0.70339 0.0
C902 C 0.25598 0.24217 0.01165 0.0
C903 C 0.25938 0.27935 0.98043 0.0
C904 C 0.27495 0.3116 0.05139 0.0
C905 C 0.26547 0.27652 0.08336 0.0
N906 N 0.24353 0.20917 0.09393 0.0
N907 N 0.26596 0.35145 0.97221 0.0
C908 C 0.25523 0.24196 0.06337 0.0
C909 C 0.26745 0.31461 1.00068 0.0
N910 N 0.2543 0.20668 0.99196 0.0
N911 N 0.29199 0.3417 0.06928 0.0
H912 H 0.2595 0.35518 0.93535 0.0
H913 H 0.26734 0.37886 0.98628 0.0
H914 H 0.29812 0.34028 0.10608 0.0
H915 H 0.30334 0.36607 0.0469 0.0
H916 H 0.25735 0.17795 0.01216 0.0
H917 H 0.25365 0.20511 0.95454 0.0
H918 H 0.23218 0.18445 0.08214 0.0
H919 H 0.24135 0.20841 0.13181 0.0
C920 C 0.00322 0.00012 0.70905 0.0
C921 C 1.0004 0.03611 0.67388 0.0
C922 C 0.00293 0.07427 0.74821 0.0
C923 C 0.99947 0.03889 0.78381 0.0
N924 N 0.98625 0.96867 0.79212 0.0
N925 N 0.98811 0.10949 0.66698 0.0
C926 C 0.99675 0.00213 0.76215 0.0
C927 C 0.99754 0.07364 0.69578 0.0
N928 N 0.01406 0.96322 0.69226 0.0
N929 N 0.01352 0.1087 0.76366 0.0
H930 H 0.98273 0.11066 0.63 0.0
H931 H 0.98148 0.13735 0.68111 0.0
H932 H 0.01971 0.11 0.79995 0.0
H933 H 0.02038 0.13413 0.73955 0.0
H934 H 0.0205 0.93636 0.71557 0.0
H935 H 0.02096 0.96032 0.65512 0.0
H936 H 0.97989 0.94229 0.7788 0.0
H937 H 0.97963 0.96922 0.8297 0.0
C938 C 0.72019 0.27868 0.47764 0.0
C939 C 0.7352 0.30835 0.44148 0.0
C940 C 0.72531 0.35807 0.50127 0.0
C941 C 0.71729 0.32618 0.53901 0.0
N942 N 0.71629 0.2535 0.56342 0.0
N943 N 0.75455 0.37613 0.41861 0.0
C944 C 0.71694 0.28577 0.52733 0.0
C945 C 0.73819 0.34824 0.45303 0.0
N946 N 0.70838 0.24385 0.46442 0.0
N947 N 0.71993 0.39759 0.51141 0.0
H948 H 0.76379 0.36992 0.38291 0.0
H949 H 0.76147 0.4043 0.42636 0.0
H950 H 0.71013 0.40553 0.54628 0.0
H951 H 0.72159 0.42248 0.48453 0.0
H952 H 0.69348 0.22311 0.48907 0.0
H953 H 0.70909 0.23825 0.4279 0.0
H954 H 0.7205 0.22324 0.55606 0.0
H955 H 0.71642 0.25634 0.60062 0.0
C956 C 0.43383 0.08556 0.25173 0.0
C957 C 0.41182 0.05681 0.23478 0.0
C958 C 0.39182 0.03097 0.31937 0.0
C959 C 0.42238 0.05179 0.3351 0.0
N960 N 0.46857 0.10337 0.31915 0.0
N961 N 0.36342 0.00769 0.25035 0.0
C962 C 0.44126 0.08152 0.30233 0.0
C963 C 0.3877 0.03209 0.26819 0.0
N964 N 0.44888 0.11528 0.21882 0.0
N965 N 0.36821 0.0091 0.35353 0.0
H966 H 0.35932 0.00949 0.21288 0.0
H967 H 0.34801 0.98559 0.27196 0.0
H968 H 0.3713 0.00824 0.39111 0.0
H969 H 0.3439 0.99458 0.34523 0.0
H970 H 0.46322 0.13897 0.22866 0.0
H971 H 0.44363 0.118 0.1816 0.0
H972 H 0.48707 0.12214 0.2965 0.0
H973 H 0.47352 0.1017 0.35634 0.0
C974 C 0.72273 0.67475 0.05014 0.0
C975 C 0.733 0.70825 0.07234 0.0
C976 C 0.7415 0.74667 0.99095 0.0
C977 C 0.72565 0.71583 0.96968 0.0
N978 N 0.69498 0.65284 0.98011 0.0
N979 N 0.74107 0.78044 0.06331 0.0
C980 C 0.71422 0.68056 0.99967 0.0
C981 C 0.73937 0.74545 0.04263 0.0
N982 N 0.72297 0.63704 0.07643 0.0
N983 N 0.75967 0.77674 0.962 0.0
H984 H 0.73695 0.78209 0.10097 0.0
H985 H 0.74187 0.80886 0.04254 0.0
H986 H 0.7614 0.77936 0.92377 0.0
H987 H 0.77691 0.79604 0.97651 0.0
H988 H 0.71932 0.61089 0.06075 0.0
H989 H 0.73107 0.63114 0.11268 0.0
H990 H 0.6823 0.62865 1.00134 0.0
H991 H 0.68882 0.65602 0.94315 0.0
C992 C 0.47595 0.54395 0.70663 0.0
C993 C 0.47092 0.50464 0.69415 0.0
C994 C 0.46449 0.47885 0.78148 0.0
C995 C 0.46871 0.51839 0.79399 0.0
N996 N 0.46425 0.59072 0.76831 0.0
N997 N 0.44529 0.43993 0.72001 0.0
C998 C 0.47003 0.55165 0.75644 0.0
C999 C 0.46025 0.47378 0.73173 0.0
N1000 N 0.48735 0.57378 0.67121 0.0
N1001 N 0.46658 0.44559 0.81623 0.0
H1002 H 0.44113 0.43562 0.68392 0.0
H1003 H 0.43328 0.41834 0.74629 0.0
H1004 H 0.4706 0.44705 0.85303 0.0
H1005 H 0.46831 0.4158 0.80753 0.0
H1006 H 0.49559 0.60149 0.67882 0.0
H1007 H 0.49242 0.56934 0.63448 0.0
H1008 H 0.46087 0.61631 0.7423 0.0
H1009 H 0.45819 0.59745 0.80438 0.0
C1010 C 0.71643 0.19226 0.99303 0.0
C1011 C 0.74672 0.17636 0.95904 0.0
C1012 C 0.78351 0.13773 0.02681 0.0
C1013 C 0.7582 0.16054 0.05997 0.0
N1014 N 0.70113 0.2113 0.07487 0.0
N1015 N 0.80789 0.13203 0.94193 0.0
C1016 C 0.72416 0.18758 0.04341 0.0
C1017 C 0.77964 0.14791 0.97546 0.0
N1018 N 0.68061 0.21245 0.97701 0.0
N1019 N 0.81119 0.1067 0.04473 0.0
H1020 H 0.80474 0.13785 0.90419 0.0
H1021 H 0.83494 0.1144 0.95123 0.0
H1022 H 0.81408 0.09891 0.08234 0.0
H1023 H 0.82866 0.08674 0.02301 0.0
H1024 H 0.65571 0.22107 1.00061 0.0
H1025 H 0.67426 0.21714 0.94011 0.0
H1026 H 0.67966 0.23542 0.06328 0.0
H1027 H 0.70521 0.20899 0.11228 0.0
C1028 C 0.09005 0.44166 0.22411 0.0
C1029 C 0.09994 0.47359 0.1873 0.0
C1030 C 0.12108 0.51194 0.2493 0.0
C1031 C 0.10774 0.48179 0.28611 0.0
N1032 N 0.09378 0.41224 0.30905 0.0
N1033 N 0.13588 0.53237 0.16229 0.0
C1034 C 0.09762 0.44442 0.27348 0.0
C1035 C 0.11952 0.50642 0.19914 0.0
N1036 N 0.07035 0.41054 0.21267 0.0
N1037 N 0.13297 0.54667 0.26273 0.0
H1038 H 0.13505 0.52857 0.12533 0.0
H1039 H 0.15305 0.55536 0.1682 0.0
H1040 H 0.13601 0.55013 0.2994 0.0
H1041 H 0.13867 0.57215 0.23816 0.0
H1042 H 0.05777 0.38931 0.23887 0.0
H1043 H 0.06401 0.40723 0.17703 0.0
H1044 H 0.09004 0.38304 0.30154 0.0
H1045 H 0.09848 0.41368 0.34573 0.0
C1046 C 0.73269 0.8202 0.57473 0.0
C1047 C 0.73221 0.78414 0.60844 0.0
C1048 C 0.73154 0.74429 0.5393 0.0
C1049 C 0.72565 0.78079 0.50663 0.0
N1050 N 0.71374 0.85431 0.49532 0.0
N1051 N 0.72451 0.71227 0.62259 0.0
C1052 C 0.72435 0.81908 0.52489 0.0
C1053 C 0.7296 0.74634 0.59056 0.0
N1054 N 0.74242 0.85521 0.58983 0.0
N1055 N 0.74088 0.70757 0.52138 0.0
H1056 H 0.72194 0.7129 0.66027 0.0
H1057 H 0.7184 0.68478 0.61189 0.0
H1058 H 0.74428 0.70477 0.48401 0.0
H1059 H 0.7497 0.68053 0.54326 0.0
H1060 H 0.74708 0.8813 0.56575 0.0
H1061 H 0.74941 0.8569 0.62575 0.0
H1062 H 0.70841 0.88276 0.50818 0.0
H1063 H 0.70646 0.85464 0.4591 0.0
C1064 C 0.54878 0.5411 0.25242 0.0
C1065 C 0.54569 0.50349 0.23397 0.0
C1066 C 0.53557 0.47068 0.31823 0.0
C1067 C 0.54101 0.50762 0.33648 0.0
N1068 N 0.56693 0.57311 0.32067 0.0
N1069 N 0.55091 0.43007 0.25075 0.0
C1070 C 0.55261 0.54113 0.30341 0.0
C1071 C 0.54383 0.46744 0.2674 0.0
N1072 N 0.54519 0.57725 0.22254 0.0
N1073 N 0.52126 0.43912 0.34884 0.0
H1074 H 0.55911 0.42658 0.21397 0.0
H1075 H 0.5533 0.4028 0.27413 0.0
H1076 H 0.51356 0.44055 0.38609 0.0
H1077 H 0.51328 0.41306 0.33625 0.0
H1078 H 0.54314 0.60544 0.2359 0.0
H1079 H 0.53977 0.57966 0.18553 0.0
H1080 H 0.57911 0.59667 0.29758 0.0
H1081 H 0.57029 0.57387 0.35791 0.0
C1082 C 0.27026 0.77995 0.03716 0.0
C1083 C 0.25103 0.81417 0.05941 0.0
C1084 C 0.22742 0.84619 0.97988 0.0
C1085 C 0.24842 0.81275 0.95763 0.0
N1086 N 0.29789 0.75308 0.96228 0.0
N1087 N 0.21629 0.88236 0.05217 0.0
C1088 C 0.2725 0.78138 0.98547 0.0
C1089 C 0.23126 0.84825 0.03074 0.0
N1090 N 0.2849 0.74528 0.06551 0.0
N1091 N 0.20278 0.87497 0.95282 0.0
H1092 H 0.21777 0.88417 0.08955 0.0
H1093 H 0.2049 0.90966 0.0326 0.0
H1094 H 0.2004 0.8747 0.91529 0.0
H1095 H 0.18313 0.89775 0.96783 0.0
H1096 H 0.29442 0.71774 0.05157 0.0
H1097 H 0.2848 0.74283 0.10365 0.0
H1098 H 0.31911 0.73188 0.98023 0.0
H1099 H 0.30065 0.75318 0.92423 0.0
C1100 C 0.98455 0.42338 0.76889 0.0
C1101 C 0.95261 0.4444 0.79631 0.0
C1102 C 0.91276 0.45844 0.7237 0.0
C1103 C 0.94819 0.44556 0.69462 0.0
N1104 N 0.01981 0.41957 0.68916 0.0
N1105 N 0.88539 0.48124 0.80144 0.0
C1106 C 0.98443 0.42811 0.71712 0.0
C1107 C 0.91596 0.46103 0.77446 0.0
N1108 N 0.01555 0.39997 0.79246 0.0
N1109 N 0.8765 0.46882 0.70237 0.0
H1110 H 0.8866 0.48273 0.83891 0.0
H1111 H 0.85984 0.49806 0.78637 0.0
H1112 H 0.87382 0.46716 0.66516 0.0
H1113 H 0.84876 0.47547 0.72206 0.0
H1114 H 0.03793 0.38113 0.77471 0.0
H1115 H 0.01634 0.39626 0.83063 0.0
H1116 H 0.0481 0.41122 0.70384 0.0
H1117 H 0.02175 0.42439 0.65099 0.0
C1118 C 0.24048 0.24914 0.46735 0.0
C1119 C 0.23033 0.21523 0.44602 0.0
C1120 C 0.22562 0.17626 0.52798 0.0
C1121 C 0.23329 0.21108 0.54937 0.0
N1122 N 0.23518 0.28403 0.54004 0.0
N1123 N 0.20214 0.1508 0.45764 0.0
C1124 C 0.23679 0.2486 0.51919 0.0
C1125 C 0.21936 0.18008 0.47689 0.0
N1126 N 0.25469 0.28155 0.43823 0.0
N1127 N 0.22598 0.13919 0.55581 0.0
H1128 H 0.19682 0.15285 0.42051 0.0
H1129 H 0.18984 0.12654 0.47919 0.0
H1130 H 0.23115 0.13498 0.59306 0.0
H1131 H 0.22471 0.1121 0.54095 0.0
H1132 H 0.26574 0.30556 0.45205 0.0
H1133 H 0.25922 0.28253 0.40025 0.0
H1134 H 0.23353 0.31275 0.51971 0.0
H1135 H 0.23083 0.28515 0.57784 0.0
C1136 C 0.12595 0.16649 0.05757 0.0
C1137 C 0.10821 0.12941 0.06721 0.0
C1138 C 0.1278 0.12104 0.15251 0.0
C1139 C 0.14317 0.15955 0.14365 0.0
N1140 N 0.15115 0.22223 0.09011 0.0
N1141 N 0.08831 0.07271 0.12424 0.0
C1142 C 0.14048 0.1833 0.0969 0.0
C1143 C 0.1083 0.10686 0.11476 0.0
N1144 N 0.13035 0.1848 1.01035 0.0
N1145 N 0.13154 0.09825 0.19728 0.0
H1146 H 0.07377 0.06132 0.09765 0.0
H1147 H 0.08347 0.05697 0.15897 0.0
H1148 H 0.14205 0.10919 0.22727 0.0
H1149 H 0.1259 0.06789 0.20454 0.0
H1150 H 0.14739 0.20923 0.99985 0.0
H1151 H 0.12006 0.17318 0.98067 0.0
H1152 H 0.14506 0.24259 0.05894 0.0
H1153 H 0.16395 0.23545 0.11668 0.0
C1154 C 0.12863 0.89996 0.36632 0.0
C1155 C 0.12572 0.89604 0.41848 0.0
C1156 C 0.18204 0.84073 0.42095 0.0
C1157 C 0.18382 0.84365 0.36893 0.0
N1158 N 0.15601 0.87141 0.29196 0.0
N1159 N 0.1453 0.86027 0.49609 0.0
C1160 C 0.15622 0.87192 0.34157 0.0
C1161 C 0.15115 0.86561 0.44602 0.0
N1162 N 0.10578 0.93131 0.34049 0.0
N1163 N 0.21055 0.81482 0.44611 0.0
H1164 H 0.12361 0.87866 0.51549 0.0
H1165 H 0.15985 0.83615 0.51838 0.0
H1166 H 0.23275 0.79529 0.42898 0.0
H1167 H 0.21396 0.81416 0.48345 0.0
H1168 H 0.1098 0.93895 0.30271 0.0
H1169 H 0.08414 0.95162 0.35716 0.0
H1170 H 0.13368 0.88778 0.27054 0.0
H1171 H 0.17679 0.85236 0.27228 0.0
C1172 C 0.34848 0.88105 0.65482 0.0
C1173 C 0.35911 0.83794 0.66443 0.0
C1174 C 0.42852 0.85141 0.62757 0.0
C1175 C 0.41498 0.89246 0.6086 0.0
N1176 N 0.35484 0.94042 0.59497 0.0
N1177 N 0.41002 0.7824 0.64605 0.0
C1178 C 0.3727 0.90539 0.61929 0.0
C1179 C 0.39934 0.82325 0.64637 0.0
N1180 N 0.3168 0.89975 0.6815 0.0
N1181 N 0.46925 0.83932 0.63017 0.0
H1182 H 0.3895 0.76104 0.65735 0.0
H1183 H 0.43784 0.77056 0.62995 0.0
H1184 H 0.49127 0.85948 0.62076 0.0
H1185 H 0.4804 0.81067 0.64691 0.0
H1186 H 0.30982 0.93139 0.67783 0.0
H1187 H 0.30097 0.88403 0.71083 0.0
H1188 H 0.32357 0.94952 0.5996 0.0
H1189 H 0.37048 0.95769 0.56687 0.0
C1190 C 0.33885 0.14266 0.90609 0.0
C1191 C 0.33166 0.13056 0.86027 0.0
C1192 C 0.37916 0.06843 0.87769 0.0
C1193 C 0.38349 0.07902 0.92529 0.0
N1194 N 0.35879 0.1215 0.98873 0.0
N1195 N 0.34068 0.07944 0.80458 0.0
C1196 C 0.3606 0.11467 0.94069 0.0
C1197 C 0.35038 0.0925 0.84684 0.0
N1198 N 0.32651 0.18161 0.91589 0.0
N1199 N 0.40375 0.03628 0.86126 0.0
H1200 H 0.32066 0.09687 0.78069 0.0
H1201 H 0.34998 0.05027 0.79505 0.0
H1202 H 0.42492 0.01818 0.88298 0.0
H1203 H 0.40543 0.02955 0.82519 0.0
H1204 H 0.33573 0.19369 0.94581 0.0
H1205 H 0.30969 0.20281 0.89208 0.0
H1206 H 0.33936 0.14492 1.00285 0.0
H1207 H 0.37367 0.10141 0.01536 0.0
C1208 C 0.89441 0.90252 0.88492 0.0
C1209 C 0.87957 0.91576 0.93082 0.0
C1210 C 0.81517 0.88687 0.92559 0.0
C1211 C 0.82932 0.87607 0.87827 0.0
N1212 N 0.87772 0.88237 0.80817 0.0
N1213 N 0.82553 0.92272 0.99449 0.0
C1214 C 0.86767 0.88632 0.85668 0.0
C1215 C 0.83975 0.9086 0.951 0.0
N1216 N 0.93424 0.90485 0.86827 0.0
N1217 N 0.77885 0.87531 0.94682 0.0
H1218 H 0.84395 0.93533 0.01622 0.0
H1219 H 0.79525 0.92344 1.00838 0.0
H1220 H 0.75917 0.86098 0.92877 0.0
H1221 H 0.7689 0.87778 0.98327 0.0
H1222 H 0.94792 0.89036 0.83872 0.0
H1223 H 0.95485 0.91805 0.88617 0.0
H1224 H 0.90322 0.89357 0.78877 0.0
H1225 H 0.8583 0.87176 0.78581 0.0
C1226 C 0.82636 0.21471 0.59538 0.0
C1227 C 0.82201 0.1949 0.64405 0.0
C1228 C 0.87012 0.13716 0.62164 0.0
C1229 C 0.87204 0.15571 0.57214 0.0
N1230 N 0.84832 0.20894 0.51004 0.0
N1231 N 0.83599 0.13607 0.70329 0.0
C1232 C 0.84918 0.19367 0.55848 0.0
C1233 C 0.84285 0.15572 0.65712 0.0
N1234 N 0.80938 0.25405 0.58481 0.0
N1235 N 0.89524 0.10238 0.63487 0.0
H1236 H 0.81741 0.14942 0.73073 0.0
H1237 H 0.84648 0.10568 0.71373 0.0
H1238 H 0.91512 0.08747 0.60984 0.0
H1239 H 0.89876 0.08973 0.67104 0.0
H1240 H 0.81499 0.27199 0.55168 0.0
H1241 H 0.79163 0.26983 0.61071 0.0
H1242 H 0.8288 0.23423 0.49715 0.0
H1243 H 0.86505 0.19453 0.48206 0.0
C1244 C 0.6512 0.10752 0.33715 0.0
C1245 C 0.6772 0.13026 0.35957 0.0
C1246 C 0.65121 0.09614 0.4407 0.0
C1247 C 0.62146 0.07794 0.41846 0.0
N1248 N 0.58994 0.07235 0.34422 0.0
N1249 N 0.69771 0.14844 0.43512 0.0
C1250 C 0.62068 0.08545 0.3663 0.0
C1251 C 0.67588 0.12505 0.41208 0.0
N1252 N 0.65684 0.10522 0.28786 0.0
N1253 N 0.65717 0.08462 0.48923 0.0
H1254 H 0.7165 0.16895 0.41601 0.0
H1255 H 0.69485 0.14974 0.47286 0.0
H1256 H 0.64036 0.0636 0.51097 0.0
H1257 H 0.68112 0.09291 0.50677 0.0
H1258 H 0.64211 0.08594 0.26995 0.0
H1259 H 0.67933 0.11946 0.26572 0.0
H1260 H 0.58475 0.08056 0.30727 0.0
H1261 H 0.56736 0.05631 0.36382 0.0
C1262 C 0.62124 0.88147 0.20854 0.0
C1263 C 0.64033 0.84469 0.19209 0.0
C1264 C 0.61207 0.86504 0.11133 0.0
C1265 C 0.58972 0.90001 0.1292 0.0
N1266 N 0.5715 0.94067 0.19627 0.0
N1267 N 0.65146 0.79908 0.12987 0.0
C1268 C 0.5941 0.90809 0.17813 0.0
C1269 C 0.63513 0.83588 0.14394 0.0
N1270 N 0.62979 0.89141 0.25307 0.0
N1271 N 0.61197 0.8603 0.06271 0.0
H1272 H 0.66944 0.77773 0.15226 0.0
H1273 H 0.64524 0.78853 0.09754 0.0
H1274 H 0.59544 0.88102 0.03797 0.0
H1275 H 0.63075 0.8379 0.04591 0.0
H1276 H 0.62134 0.91996 0.2648 0.0
H1277 H 0.64794 0.87196 0.27734 0.0
H1278 H 0.56796 0.94452 0.23338 0.0
H1279 H 0.55507 0.96356 0.17449 0.0
C1280 C 0.61207 0.64828 0.60552 0.0
C1281 C 0.59712 0.61014 0.62047 0.0
C1282 C 0.61705 0.61128 0.70423 0.0
C1283 C 0.62964 0.65052 0.68978 0.0
N1284 N 0.6317 0.71019 0.6298 0.0
N1285 N 0.57945 0.55769 0.68548 0.0
C1286 C 0.62469 0.67028 0.64142 0.0
C1287 C 0.59796 0.59223 0.67027 0.0
N1288 N 0.61622 0.66248 0.55671 0.0
N1289 N 0.62386 0.59207 0.75027 0.0
H1290 H 0.56573 0.54209 0.66193 0.0
H1291 H 0.57462 0.54611 0.72217 0.0
H1292 H 0.63536 0.60617 0.77716 0.0
H1293 H 0.62026 0.56149 0.76114 0.0
H1294 H 0.63139 0.68771 0.54316 0.0
H1295 H 0.60797 0.64684 0.52915 0.0
H1296 H 0.62425 0.72737 0.59678 0.0
H1297 H 0.64215 0.72731 0.65441 0.0
C1298 C 0.5839 0.41521 0.88355 0.0
C1299 C 0.58923 0.40567 0.9345 0.0
C1300 C 0.63902 0.34732 0.91807 0.0
C1301 C 0.63629 0.35922 0.86697 0.0
N1302 N 0.60961 0.406 0.80002 0.0
N1303 N 0.62327 0.3651 1.00106 0.0
C1304 C 0.60957 0.39358 0.84937 0.0
C1305 C 0.61701 0.37215 0.95207 0.0
N1306 N 0.5538 0.44472 0.86813 0.0
N1307 N 0.66247 0.31209 0.93384 0.0
H1308 H 0.60661 0.38194 0.02697 0.0
H1309 H 0.64627 0.34417 0.01596 0.0
H1310 H 0.67969 0.29378 0.90983 0.0
H1311 H 0.66304 0.29954 0.97039 0.0
H1312 H 0.54661 0.45214 0.83179 0.0
H1313 H 0.53353 0.45975 0.89259 0.0
H1314 H 0.59438 0.43329 0.78475 0.0
H1315 H 0.62718 0.39016 0.77384 0.0
C1316 C 0.87941 0.32289 0.10782 0.0
C1317 C 0.87207 0.32363 0.15969 0.0
C1318 C 0.92345 0.37418 0.1534 0.0
C1319 C 0.92803 0.37589 0.10111 0.0
N1320 N 0.90377 0.35581 0.02864 0.0
N1321 N 0.88398 0.35532 0.23026 0.0
C1322 C 0.90417 0.35122 0.07858 0.0
C1323 C 0.89341 0.35079 0.18187 0.0
N1324 N 0.8637 0.29404 0.08611 0.0
N1325 N 0.94874 0.39423 0.17629 0.0
H1326 H 0.86274 0.33891 0.25197 0.0
H1327 H 0.89461 0.37751 0.24788 0.0
H1328 H 0.97041 0.41165 0.15702 0.0
H1329 H 0.95065 0.39101 0.21417 0.0
H1330 H 0.8721 0.28794 0.05026 0.0
H1331 H 0.84462 0.27388 0.10507 0.0
H1332 H 0.88329 0.34315 1.00982 0.0
H1333 H 0.92168 0.37511 1.00599 0.0
C1334 C 0.88585 0.57344 0.35966 0.0
C1335 C 0.88638 0.56507 0.4117 0.0
C1336 C 0.82406 0.61283 0.42046 0.0
C1337 C 0.82305 0.62015 0.36858 0.0
N1338 N 0.84635 0.59937 0.28956 0.0
N1339 N 0.85105 0.56972 0.49113 0.0
C1340 C 0.85176 0.59761 0.33851 0.0
C1341 C 0.85371 0.58245 0.4419 0.0
N1342 N 0.9188 0.56026 0.33026 0.0
N1343 N 0.79781 0.63618 0.44918 0.0
H1344 H 0.87234 0.54765 0.50785 0.0
H1345 H 0.82601 0.57825 0.51457 0.0
H1346 H 0.77523 0.65792 0.43471 0.0
H1347 H 0.80009 0.63587 0.48673 0.0
H1348 H 0.92225 0.5698 0.29278 0.0
H1349 H 0.9442 0.54211 0.34368 0.0
H1350 H 0.8639 0.58054 0.26649 0.0
H1351 H 0.82173 0.61691 0.27303 0.0
C1352 C 0.3769 0.38099 0.34236 0.0
C1353 C 0.35968 0.34546 0.36447 0.0
C1354 C 0.38331 0.35439 0.44421 0.0
C1355 C 0.40222 0.38874 0.42167 0.0
N1356 N 0.42222 0.43202 0.34862 0.0
N1357 N 0.35239 0.29387 0.43384 0.0
C1358 C 0.40045 0.40131 0.37049 0.0
C1359 C 0.36479 0.33072 0.41461 0.0
N1360 N 0.37027 0.39554 0.29458 0.0
N1361 N 0.38141 0.34553 0.4942 0.0
H1362 H 0.33763 0.276 0.41397 0.0
H1363 H 0.35939 0.27939 0.4684 0.0
H1364 H 0.39469 0.36216 0.51713 0.0
H1365 H 0.36389 0.32393 0.51338 0.0
H1366 H 0.37737 0.42398 0.27805 0.0
H1367 H 0.35561 0.38001 0.27176 0.0
H1368 H 0.42636 0.43944 0.3108 0.0
H1369 H 0.43877 0.44858 0.36813 0.0
C1370 C 0.43056 0.6157 0.1473 0.0
C1371 C 0.42831 0.62726 0.09605 0.0
C1372 C 0.3868 0.69091 0.11219 0.0
C1373 C 0.38408 0.67647 0.16294 0.0
N1374 N 0.40238 0.62523 0.22986 0.0
N1375 N 0.40118 0.67371 0.02907 0.0
C1376 C 0.40589 0.63891 0.18086 0.0
C1377 C 0.4058 0.66447 0.07825 0.0
N1378 N 0.45694 0.58289 0.16364 0.0
N1379 N 0.37176 0.73007 0.09658 0.0
H1380 H 0.41478 0.65512 1.00309 0.0
H1381 H 0.38165 0.69829 0.01429 0.0
H1382 H 0.35721 0.7501 0.12043 0.0
H1383 H 0.37659 0.74377 0.06073 0.0
H1384 H 0.4623 0.57413 0.20039 0.0
H1385 H 0.47633 0.56637 0.13974 0.0
H1386 H 0.41342 0.59602 0.24473 0.0
H1387 H 0.38639 0.64253 0.25578 0.0
C1388 C 0.162 0.62864 0.90022 0.0
C1389 C 0.17146 0.63015 0.84831 0.0
C1390 C 0.12491 0.57596 0.84864 0.0
C1391 C 0.11862 0.57183 0.90102 0.0
N1392 N 0.13753 0.59089 0.97671 0.0
N1393 N 0.16614 0.59916 0.77507 0.0
C1394 C 0.13903 0.59732 0.92661 0.0
C1395 C 0.15399 0.60202 0.82326 0.0
N1396 N 0.17371 0.65814 0.92458 0.0
N1397 N 0.10194 0.55602 0.82252 0.0
H1398 H 0.18688 0.61744 0.7554 0.0
H1399 H 0.15851 0.57641 0.75586 0.0
H1400 H 0.08085 0.53685 0.83919 0.0
H1401 H 0.10125 0.56114 0.78447 0.0
H1402 H 0.16378 0.66206 0.96074 0.0
H1403 H 0.19072 0.68092 0.90748 0.0
H1404 H 0.15535 0.60477 0.99777 0.0
H1405 H 0.12113 0.56884 0.99714 0.0
C1406 C 0.10005 0.36549 0.61728 0.0
C1407 C 0.11018 0.40515 0.59786 0.0
C1408 C 0.16508 0.39518 0.65397 0.0
C1409 C 0.16065 0.35305 0.66529 0.0
N1410 N 0.12978 0.29669 0.64117 0.0
N1411 N 0.16694 0.44615 0.58401 0.0
C1412 C 0.12993 0.3376 0.64183 0.0
C1413 C 0.14705 0.41689 0.61205 0.0
N1414 N 0.06228 0.35416 0.6131 0.0
N1415 N 0.18556 0.41495 0.68296 0.0
H1416 H 0.15747 0.45923 0.54972 0.0
H1417 H 0.19503 0.45356 0.59293 0.0
H1418 H 0.1968 0.40067 0.7159 0.0
H1419 H 0.18763 0.44626 0.67582 0.0
H1420 H 0.03871 0.37404 0.59758 0.0
H1421 H 0.05354 0.32628 0.6298 0.0
H1422 H 0.10924 0.28475 0.62156 0.0
H1423 H 0.15289 0.27543 0.65538 0.0
loop_
_geom_bond_atom_site_label_1
_geom_bond_atom_site_label_2
_geom_bond_distance
_geom_bond_site_symmetry_2
_ccdc_geom_bond_type
C0 C1 1.443 . S
C0 N4 1.376 . S
C0 C38 1.389 1_545 S
C1 C0 1.443 . S
C1 C2 1.340 . S
C1 H41 0.951 . S
C2 C1 1.340 . S
C2 C3 1.439 . S
C2 H42 0.950 . S
C3 C2 1.439 . S
C3 N4 1.374 . S
C3 C37 1.395 1_554 S
N4 C0 1.376 . S
N4 C3 1.374 . S
N4 Co5 2.008 1_655 S
Co5 N4 2.008 1_455 S
Co5 N6 1.995 1_454 S
Co5 N11 2.008 1_544 S
Co5 N16 1.995 1_545 S
Co5 N21 2.282 1_444 S
Co5 N27 2.283 . S
N6 Co5 1.995 1_656 S
N6 C7 1.376 . S
N6 C10 1.383 . S
C7 N6 1.376 . S
C7 C8 1.446 . S
C7 C37 1.391 . S
C8 C7 1.446 . S
C8 C9 1.339 . S
C8 H43 0.949 . S
C9 C8 1.339 . S
C9 C10 1.439 . S
C9 H44 0.950 . S
C10 N6 1.383 . S
C10 C9 1.439 . S
C10 C39 1.392 1_655 S
N11 Co5 2.008 1_566 S
N11 C12 1.376 . S
N11 C15 1.374 . S
C12 N11 1.376 . S
C12 C13 1.443 . S
C12 C39 1.389 1_565 S
C13 C12 1.443 . S
C13 C14 1.340 . S
C13 H45 0.951 . S
C14 C13 1.340 . S
C14 C15 1.439 . S
C14 H46 0.950 . S
C15 N11 1.374 . S
C15 C14 1.439 . S
C15 C40 1.395 1_556 S
N16 Co5 1.995 1_565 S
N16 C17 1.376 . S
N16 C20 1.383 . S
C17 N16 1.376 . S
C17 C18 1.446 . S
C17 C40 1.391 . S
C18 C17 1.446 . S
C18 C19 1.339 . S
C18 H47 0.949 . S
C19 C18 1.339 . S
C19 C20 1.439 . S
C19 H48 0.950 . S
C20 N16 1.383 . S
C20 C19 1.439 . S
C20 C38 1.392 1_455 S
N21 Co5 2.282 1_666 S
N21 C24 1.332 . S
N21 C26 1.332 . S
C22 C23 1.386 . S
C22 C25 1.388 . S
C23 C22 1.386 . S
C23 C24 1.382 . S
C23 H49 0.950 . S
C24 N21 1.332 . S
C24 C23 1.382 . S
C24 H35 0.958 . S
C25 C22 1.388 . S
C25 C26 1.382 . S
C25 H50 0.950 . S
C26 N21 1.332 . S
C26 C25 1.382 . S
C26 H36 0.948 1_565 S
N27 Co5 2.283 . S
N27 C31 1.332 . S
N27 C32 1.332 . S
C28 C29 1.388 . S
C28 C32 1.382 . S
C28 H51 0.950 . S
C29 C28 1.388 . S
C29 C30 1.386 . S
C30 C29 1.386 . S
C30 C31 1.382 . S
C30 H52 0.950 . S
C31 N27 1.332 . S
C31 C30 1.382 . S
C31 H33 0.961 . S
C32 N27 1.332 . S
C32 C28 1.382 . S
C32 H34 0.948 1_545 S
H33 C31 0.961 . S
H34 C32 0.948 1_565 S
H35 C24 0.958 . S
H36 C26 0.948 1_545 S
C37 C3 1.395 1_556 S
C37 C7 1.391 . S
C38 C0 1.389 1_565 S
C38 C20 1.392 1_655 S
C39 C10 1.392 1_455 S
C39 C12 1.389 1_545 S
C40 C15 1.395 1_554 S
C40 C17 1.391 . S
H41 C1 0.951 . S
H42 C2 0.950 . S
H43 C8 0.949 . S
H44 C9 0.950 . S
H45 C13 0.951 . S
H46 C14 0.950 . S
H47 C18 0.949 . S
H48 C19 0.950 . S
H49 C23 0.950 . S
H50 C25 0.950 . S
H51 C28 0.950 . S
H52 C30 0.950 . S
C53 C54 1.443 . S
C53 N57 1.376 . S
C53 C91 1.389 . S
C54 C53 1.443 . S
C54 C55 1.340 . S
C54 H94 0.951 . S
C55 C54 1.340 . S
C55 C56 1.439 . S
C55 H95 0.950 . S
C56 C55 1.439 . S
C56 N57 1.374 . S
C56 C90 1.395 . S
N57 C53 1.376 . S
N57 C56 1.374 . S
N57 Co58 2.008 . S
Co58 N57 2.008 . S
Co58 N59 1.995 . S
Co58 N64 2.008 . S
Co58 N69 1.995 . S
Co58 N74 2.282 . S
Co58 N80 2.282 . S
N59 Co58 1.995 . S
N59 C60 1.376 . S
N59 C63 1.383 . S
C60 N59 1.376 . S
C60 C61 1.446 . S
C60 C90 1.391 . S
C61 C60 1.446 . S
C61 C62 1.339 . S
C61 H96 0.949 . S
C62 C61 1.339 . S
C62 C63 1.439 . S
C62 H97 0.950 . S
C63 N59 1.383 . S
C63 C62 1.439 . S
C63 C92 1.392 . S
N64 Co58 2.008 . S
N64 C65 1.376 . S
N64 C68 1.374 . S
C65 N64 1.376 . S
C65 C66 1.443 . S
C65 C92 1.389 . S
C66 C65 1.443 . S
C66 C67 1.340 . S
C66 H98 0.951 . S
C67 C66 1.340 . S
C67 C68 1.439 . S
C67 H99 0.950 . S
C68 N64 1.374 . S
C68 C67 1.439 . S
C68 C93 1.395 . S
N69 Co58 1.995 . S
N69 C70 1.376 . S
N69 C73 1.383 . S
C70 N69 1.376 . S
C70 C71 1.446 . S
C70 C93 1.391 . S
C71 C70 1.446 . S
C71 C72 1.339 . S
C71 H100 0.949 . S
C72 C71 1.339 . S
C72 C73 1.439 . S
C72 H101 0.950 . S
C73 N69 1.383 . S
C73 C72 1.439 . S
C73 C91 1.392 . S
N74 Co58 2.282 . S
N74 C77 1.332 . S
N74 C79 1.332 . S
C75 C76 1.386 . S
C75 C78 1.388 . S
C76 C75 1.386 . S
C76 C77 1.382 . S
C76 H102 0.950 . S
C77 N74 1.332 . S
C77 C76 1.382 . S
C77 H88 0.952 . S
C78 C75 1.388 . S
C78 C79 1.382 . S
C78 H103 0.950 . S
C79 N74 1.332 . S
C79 C78 1.382 . S
C79 H89 0.948 . S
N80 Co58 2.282 . S
N80 C84 1.332 . S
N80 C85 1.332 . S
C81 C82 1.388 . S
C81 C85 1.382 . S
C81 H104 0.950 . S
C82 C81 1.388 . S
C82 C83 1.386 . S
C83 C82 1.386 . S
C83 C84 1.382 . S
C83 H105 0.950 . S
C84 N80 1.332 . S
C84 C83 1.382 . S
C84 H86 0.952 . S
C85 N80 1.332 . S
C85 C81 1.382 . S
C85 H87 0.948 . S
H86 C84 0.952 . S
H87 C85 0.948 . S
H88 C77 0.952 . S
H89 C79 0.948 . S
C90 C56 1.395 . S
C90 C60 1.391 . S
C91 C53 1.389 . S
C91 C73 1.392 . S
C92 C63 1.392 . S
C92 C65 1.389 . S
C93 C68 1.395 . S
C93 C70 1.391 . S
H94 C54 0.951 . S
H95 C55 0.950 . S
H96 C61 0.949 . S
H97 C62 0.950 . S
H98 C66 0.951 . S
H99 C67 0.950 . S
H100 C71 0.949 . S
H101 C72 0.950 . S
H102 C76 0.950 . S
H103 C78 0.950 . S
H104 C81 0.950 . S
H105 C83 0.950 . S
C106 C107 1.443 . S
C106 N110 1.376 1_565 S
C106 C144 1.389 . S
C107 C106 1.443 . S
C107 C108 1.340 1_565 S
C107 H147 0.951 . S
C108 C107 1.340 1_545 S
C108 C109 1.439 . S
C108 H148 0.950 . S
C109 C108 1.439 . S
C109 N110 1.374 . S
C109 C143 1.395 . S
N110 C106 1.376 1_545 S
N110 C109 1.374 . S
N110 Co111 2.008 . S
Co111 N110 2.008 . S
Co111 N112 1.995 . S
Co111 N117 2.008 1_545 S
Co111 N122 1.995 1_545 S
Co111 N127 2.282 1_545 S
Co111 N133 2.282 . S
N112 Co111 1.995 . S
N112 C113 1.376 . S
N112 C116 1.383 . S
C113 N112 1.376 . S
C113 C114 1.446 . S
C113 C143 1.391 . S
C114 C113 1.446 . S
C114 C115 1.339 . S
C114 H149 0.949 . S
C115 C114 1.339 . S
C115 C116 1.439 . S
C115 H150 0.950 . S
C116 N112 1.383 . S
C116 C115 1.439 . S
C116 C145 1.392 . S
N117 Co111 2.008 1_565 S
N117 C118 1.376 1_565 S
N117 C121 1.374 . S
C118 N117 1.376 1_545 S
C118 C119 1.443 . S
C118 C145 1.389 . S
C119 C118 1.443 . S
C119 C120 1.340 1_545 S
C119 H151 0.951 . S
C120 C119 1.340 1_565 S
C120 C121 1.439 . S
C120 H152 0.950 . S
C121 N117 1.374 . S
C121 C120 1.439 . S
C121 C146 1.395 . S
N122 Co111 1.995 1_565 S
N122 C123 1.376 . S
N122 C126 1.383 . S
C123 N122 1.376 . S
C123 C124 1.446 . S
C123 C146 1.391 . S
C124 C123 1.446 . S
C124 C125 1.339 . S
C124 H153 0.949 . S
C125 C124 1.339 . S
C125 C126 1.439 . S
C125 H154 0.950 . S
C126 N122 1.383 . S
C126 C125 1.439 . S
C126 C144 1.392 . S
N127 Co111 2.282 1_565 S
N127 C130 1.332 . S
N127 C132 1.332 1_565 S
C128 C129 1.386 . S
C128 C131 1.388 1_565 S
C129 C128 1.386 . S
C129 C130 1.382 . S
C129 H155 0.950 . S
C130 N127 1.332 . S
C130 C129 1.382 . S
C130 H141 0.952 . S
C131 C128 1.388 1_545 S
C131 C132 1.382 . S
C131 H156 0.950 . S
C132 N127 1.332 1_545 S
C132 C131 1.382 . S
C132 H142 0.948 . S
N133 Co111 2.282 . S
N133 C137 1.332 . S
N133 C138 1.332 1_545 S
C134 C135 1.388 1_565 S
C134 C138 1.382 . S
C134 H157 0.950 . S
C135 C134 1.388 1_545 S
C135 C136 1.386 . S
C136 C135 1.386 . S
C136 C137 1.382 . S
C136 H158 0.950 . S
C137 N133 1.332 . S
C137 C136 1.382 . S
C137 H139 0.952 . S
C138 N133 1.332 1_565 S
C138 C134 1.382 . S
C138 H140 0.948 . S
H139 C137 0.952 . S
H140 C138 0.948 . S
H141 C130 0.952 . S
H142 C132 0.948 . S
C143 C109 1.395 . S
C143 C113 1.391 . S
C144 C106 1.389 . S
C144 C126 1.392 . S
C145 C116 1.392 . S
C145 C118 1.389 . S
C146 C121 1.395 . S
C146 C123 1.391 . S
H147 C107 0.951 . S
H148 C108 0.950 . S
H149 C114 0.949 . S
H150 C115 0.950 . S
H151 C119 0.951 . S
H152 C120 0.950 . S
H153 C124 0.949 . S
H154 C125 0.950 . S
H155 C129 0.950 . S
H156 C131 0.950 . S
H157 C134 0.950 . S
H158 C136 0.950 . S
C159 C160 1.443 . S
C159 N163 1.376 . S
C159 C197 1.389 . S
C160 C159 1.443 . S
C160 C161 1.340 . S
C160 H200 0.951 . S
C161 C160 1.340 . S
C161 C162 1.439 . S
C161 H201 0.950 . S
C162 C161 1.439 . S
C162 N163 1.374 . S
C162 C196 1.395 . S
N163 C159 1.376 . S
N163 C162 1.374 . S
N163 Co164 2.008 . S
Co164 N163 2.008 . S
Co164 N165 1.995 . S
Co164 N170 2.008 . S
Co164 N175 1.995 . S
Co164 N180 2.282 . S
Co164 N186 2.282 . S
N165 Co164 1.995 . S
N165 C166 1.376 . S
N165 C169 1.383 . S
C166 N165 1.376 . S
C166 C167 1.446 . S
C166 C196 1.391 . S
C167 C166 1.446 . S
C167 C168 1.339 . S
C167 H202 0.949 . S
C168 C167 1.339 . S
C168 C169 1.439 . S
C168 H203 0.950 . S
C169 N165 1.383 . S
C169 C168 1.439 . S
C169 C198 1.392 . S
N170 Co164 2.008 . S
N170 C171 1.376 . S
N170 C174 1.374 . S
C171 N170 1.376 . S
C171 C172 1.443 . S
C171 C198 1.389 . S
C172 C171 1.443 . S
C172 C173 1.340 . S
C172 H204 0.951 . S
C173 C172 1.340 . S
C173 C174 1.439 . S
C173 H205 0.950 . S
C174 N170 1.374 . S
C174 C173 1.439 . S
C174 C199 1.395 . S
N175 Co164 1.995 . S
N175 C176 1.376 . S
N175 C179 1.383 . S
C176 N175 1.376 . S
C176 C177 1.446 . S
C176 C199 1.391 . S
C177 C176 1.446 . S
C177 C178 1.339 . S
C177 H206 0.949 . S
C178 C177 1.339 . S
C178 C179 1.439 . S
C178 H207 0.950 . S
C179 N175 1.383 . S
C179 C178 1.439 . S
C179 C197 1.392 . S
N180 Co164 2.282 . S
N180 C183 1.332 . S
N180 C185 1.332 . S
C181 C182 1.386 . S
C181 C184 1.388 . S
C182 C181 1.386 . S
C182 C183 1.382 . S
C182 H208 0.950 . S
C183 N180 1.332 . S
C183 C182 1.382 . S
C183 H194 0.952 . S
C184 C181 1.388 . S
C184 C185 1.382 . S
C184 H209 0.950 . S
C185 N180 1.332 . S
C185 C184 1.382 . S
C185 H195 0.948 . S
N186 Co164 2.282 . S
N186 C190 1.332 . S
N186 C191 1.332 . S
C187 C188 1.388 . S
C187 C191 1.382 . S
C187 H210 0.950 . S
C188 C187 1.388 . S
C188 C189 1.386 . S
C189 C188 1.386 . S
C189 C190 1.382 . S
C189 H211 0.950 . S
C190 N186 1.332 . S
C190 C189 1.382 . S
C190 H192 0.952 . S
C191 N186 1.332 . S
C191 C187 1.382 . S
C191 H193 0.948 . S
H192 C190 0.952 . S
H193 C191 0.948 . S
H194 C183 0.952 . S
H195 C185 0.948 . S
C196 C162 1.395 . S
C196 C166 1.391 . S
C197 C159 1.389 . S
C197 C179 1.392 . S
C198 C169 1.392 . S
C198 C171 1.389 . S
C199 C174 1.395 . S
C199 C176 1.391 . S
H200 C160 0.951 . S
H201 C161 0.950 . S
H202 C167 0.949 . S
H203 C168 0.950 . S
H204 C172 0.951 . S
H205 C173 0.950 . S
H206 C177 0.949 . S
H207 C178 0.950 . S
H208 C182 0.950 . S
H209 C184 0.950 . S
H210 C187 0.950 . S
H211 C189 0.950 . S
C212 C213 1.443 . S
C212 N216 1.376 . S
C212 C250 1.389 1_655 S
C213 C212 1.443 . S
C213 C214 1.340 . S
C213 H253 0.951 . S
C214 C213 1.340 . S
C214 C215 1.439 . S
C214 H254 0.950 . S
C215 C214 1.439 . S
C215 N216 1.374 . S
C215 C249 1.395 . S
N216 C212 1.376 . S
N216 C215 1.374 . S
N216 Co217 2.008 1_665 S
Co217 N216 2.008 1_445 S
Co217 N218 1.995 1_445 S
Co217 N223 2.008 . S
Co217 N228 1.995 . S
Co217 N233 2.282 1_545 S
Co217 N239 2.282 1_455 S
N218 Co217 1.995 1_665 S
N218 C219 1.376 . S
N218 C222 1.383 . S
C219 N218 1.376 . S
C219 C220 1.446 . S
C219 C249 1.391 . S
C220 C219 1.446 . S
C220 C221 1.339 . S
C220 H255 0.949 . S
C221 C220 1.339 . S
C221 C222 1.439 . S
C221 H256 0.950 . S
C222 N218 1.383 . S
C222 C221 1.439 . S
C222 C251 1.392 1_565 S
N223 Co217 2.008 . S
N223 C224 1.376 . S
N223 C227 1.374 . S
C224 N223 1.376 . S
C224 C225 1.443 . S
C224 C251 1.389 1_455 S
C225 C224 1.443 . S
C225 C226 1.340 . S
C225 H257 0.951 . S
C226 C225 1.340 . S
C226 C227 1.439 . S
C226 H258 0.950 . S
C227 N223 1.374 . S
C227 C226 1.439 . S
C227 C252 1.395 . S
N228 Co217 1.995 . S
N228 C229 1.376 . S
N228 C232 1.383 . S
C229 N228 1.376 . S
C229 C230 1.446 . S
C229 C252 1.391 . S
C230 C229 1.446 . S
C230 C231 1.339 . S
C230 H259 0.949 . S
C231 C230 1.339 . S
C231 C232 1.439 . S
C231 H260 0.950 . S
C232 N228 1.383 . S
C232 C231 1.439 . S
C232 C250 1.392 1_545 S
N233 Co217 2.282 1_565 S
N233 C236 1.332 . S
N233 C238 1.332 . S
C234 C235 1.386 . S
C234 C237 1.388 . S
C235 C234 1.386 . S
C235 C236 1.382 . S
C235 H261 0.950 . S
C236 N233 1.332 . S
C236 C235 1.382 . S
C236 H247 0.952 . S
C237 C234 1.388 . S
C237 C238 1.382 . S
C237 H262 0.950 . S
C238 N233 1.332 . S
C238 C237 1.382 . S
C238 H248 0.948 . S
N239 Co217 2.282 1_655 S
N239 C243 1.332 . S
N239 C244 1.332 . S
C240 C241 1.388 . S
C240 C244 1.382 . S
C240 H263 0.950 . S
C241 C240 1.388 . S
C241 C242 1.386 . S
C242 C241 1.386 . S
C242 C243 1.382 . S
C242 H264 0.950 . S
C243 N239 1.332 . S
C243 C242 1.382 . S
C243 H245 0.952 . S
C244 N239 1.332 . S
C244 C240 1.382 . S
C244 H246 0.948 . S
H245 C243 0.952 . S
H246 C244 0.948 . S
H247 C236 0.952 . S
H248 C238 0.948 . S
C249 C215 1.395 . S
C249 C219 1.391 . S
C250 C212 1.389 1_455 S
C250 C232 1.392 1_565 S
C251 C222 1.392 1_545 S
C251 C224 1.389 1_655 S
C252 C227 1.395 . S
C252 C229 1.391 . S
H253 C213 0.951 . S
H254 C214 0.950 . S
H255 C220 0.949 . S
H256 C221 0.950 . S
H257 C225 0.951 . S
H258 C226 0.950 . S
H259 C230 0.949 . S
H260 C231 0.950 . S
H261 C235 0.950 . S
H262 C237 0.950 . S
H263 C240 0.950 . S
H264 C242 0.950 . S
C265 C266 1.443 . S
C265 N269 1.376 . S
C265 C303 1.389 . S
C266 C265 1.443 . S
C266 C267 1.340 . S
C266 H306 0.951 . S
C267 C266 1.340 . S
C267 C268 1.439 . S
C267 H307 0.950 . S
C268 C267 1.439 . S
C268 N269 1.374 . S
C268 C302 1.395 . S
N269 C265 1.376 . S
N269 C268 1.374 . S
N269 Co270 2.008 . S
Co270 N269 2.008 . S
Co270 N271 1.995 . S
Co270 N276 2.008 . S
Co270 N281 1.995 . S
Co270 N286 2.282 . S
Co270 N292 2.282 . S
N271 Co270 1.995 . S
N271 C272 1.376 . S
N271 C275 1.383 . S
C272 N271 1.376 . S
C272 C273 1.446 . S
C272 C302 1.391 . S
C273 C272 1.446 . S
C273 C274 1.339 . S
C273 H308 0.949 . S
C274 C273 1.339 . S
C274 C275 1.439 . S
C274 H309 0.950 . S
C275 N271 1.383 . S
C275 C274 1.439 . S
C275 C304 1.392 . S
N276 Co270 2.008 . S
N276 C277 1.376 . S
N276 C280 1.374 . S
C277 N276 1.376 . S
C277 C278 1.443 . S
C277 C304 1.389 . S
C278 C277 1.443 . S
C278 C279 1.340 . S
C278 H310 0.951 . S
C279 C278 1.340 . S
C279 C280 1.439 . S
C279 H311 0.950 . S
C280 N276 1.374 . S
C280 C279 1.439 . S
C280 C305 1.395 . S
N281 Co270 1.995 . S
N281 C282 1.376 . S
N281 C285 1.383 . S
C282 N281 1.376 . S
C282 C283 1.446 . S
C282 C305 1.391 . S
C283 C282 1.446 . S
C283 C284 1.339 . S
C283 H312 0.949 . S
C284 C283 1.339 . S
C284 C285 1.439 . S
C284 H313 0.950 . S
C285 N281 1.383 . S
C285 C284 1.439 . S
C285 C303 1.392 . S
N286 Co270 2.282 . S
N286 C289 1.332 . S
N286 C291 1.332 . S
C287 C288 1.386 . S
C287 C290 1.388 . S
C288 C287 1.386 . S
C288 C289 1.382 . S
C288 H314 0.950 . S
C289 N286 1.332 . S
C289 C288 1.382 . S
C289 H300 0.952 . S
C290 C287 1.388 . S
C290 C291 1.382 . S
C290 H315 0.950 . S
C291 N286 1.332 . S
C291 C290 1.382 . S
C291 H301 0.948 . S
N292 Co270 2.282 . S
N292 C296 1.332 . S
N292 C297 1.332 . S
C293 C294 1.388 . S
C293 C297 1.382 . S
C293 H316 0.950 . S
C294 C293 1.388 . S
C294 C295 1.386 . S
C295 C294 1.386 . S
C295 C296 1.382 . S
C295 H317 0.950 . S
C296 N292 1.332 . S
C296 C295 1.382 . S
C296 H298 0.952 . S
C297 N292 1.332 . S
C297 C293 1.382 . S
C297 H299 0.948 . S
H298 C296 0.952 . S
H299 C297 0.948 . S
H300 C289 0.952 . S
H301 C291 0.948 . S
C302 C268 1.395 . S
C302 C272 1.391 . S
C303 C265 1.389 . S
C303 C285 1.392 . S
C304 C275 1.392 . S
C304 C277 1.389 . S
C305 C280 1.395 . S
C305 C282 1.391 . S
H306 C266 0.951 . S
H307 C267 0.950 . S
H308 C273 0.949 . S
H309 C274 0.950 . S
H310 C278 0.951 . S
H311 C279 0.950 . S
H312 C283 0.949 . S
H313 C284 0.950 . S
H314 C288 0.950 . S
H315 C290 0.950 . S
H316 C293 0.950 . S
H317 C295 0.950 . S
C318 C319 1.443 . S
C318 N322 1.375 . S
C318 C356 1.389 . S
C319 C318 1.443 . S
C319 C320 1.340 1_545 S
C319 H359 0.951 . S
C320 C319 1.340 1_565 S
C320 C321 1.439 . S
C320 H360 0.950 . S
C321 C320 1.439 . S
C321 N322 1.375 1_565 S
C321 C355 1.395 1_556 S
N322 C318 1.375 . S
N322 C321 1.375 1_545 S
N322 Co323 2.008 1_556 S
Co323 N322 2.008 1_554 S
Co323 N324 1.995 1_545 S
Co323 N329 2.008 . S
Co323 N334 1.995 1_554 S
Co323 N339 2.283 . S
Co323 N345 2.282 1_544 S
N324 Co323 1.995 1_565 S
N324 C325 1.376 . S
N324 C328 1.383 . S
C325 N324 1.376 . S
C325 C326 1.446 . S
C325 C355 1.391 . S
C326 C325 1.446 . S
C326 C327 1.339 . S
C326 H361 0.949 . S
C327 C326 1.339 . S
C327 C328 1.439 . S
C327 H362 0.950 . S
C328 N324 1.383 . S
C328 C327 1.439 . S
C328 C357 1.392 . S
N329 Co323 2.008 . S
N329 C330 1.375 1_545 S
N329 C333 1.375 . S
C330 N329 1.375 1_565 S
C330 C331 1.443 . S
C330 C357 1.389 . S
C331 C330 1.443 . S
C331 C332 1.340 1_565 S
C331 H363 0.951 . S
C332 C331 1.340 1_545 S
C332 C333 1.439 . S
C332 H364 0.950 . S
C333 N329 1.375 . S
C333 C332 1.439 . S
C333 C358 1.395 1_554 S
N334 Co323 1.995 1_556 S
N334 C335 1.376 . S
N334 C338 1.383 . S
C335 N334 1.376 . S
C335 C336 1.446 . S
C335 C358 1.391 . S
C336 C335 1.446 . S
C336 C337 1.339 . S
C336 H365 0.949 . S
C337 C336 1.339 . S
C337 C338 1.439 . S
C337 H366 0.950 . S
C338 N334 1.383 . S
C338 C337 1.439 . S
C338 C356 1.392 . S
N339 Co323 2.283 . S
N339 C342 1.332 . S
N339 C344 1.332 1_545 S
C340 C341 1.386 . S
C340 C343 1.388 1_545 S
C341 C340 1.386 . S
C341 C342 1.382 . S
C341 H367 0.950 . S
C342 N339 1.332 . S
C342 C341 1.382 . S
C342 H353 0.952 . S
C343 C340 1.388 1_565 S
C343 C344 1.382 . S
C343 H368 0.950 . S
C344 N339 1.332 1_565 S
C344 C343 1.382 . S
C344 H354 0.948 . S
N345 Co323 2.282 1_566 S
N345 C349 1.332 . S
N345 C350 1.332 1_565 S
C346 C347 1.388 1_545 S
C346 C350 1.382 . S
C346 H369 0.950 . S
C347 C346 1.388 1_565 S
C347 C348 1.386 . S
C348 C347 1.386 . S
C348 C349 1.382 . S
C348 H370 0.950 . S
C349 N345 1.332 . S
C349 C348 1.382 . S
C349 H351 0.952 . S
C350 N345 1.332 1_545 S
C350 C346 1.382 . S
C350 H352 0.948 . S
H351 C349 0.952 . S
H352 C350 0.948 . S
H353 C342 0.952 . S
H354 C344 0.948 . S
C355 C321 1.395 1_554 S
C355 C325 1.391 . S
C356 C318 1.389 . S
C356 C338 1.392 . S
C357 C328 1.392 . S
C357 C330 1.389 . S
C358 C333 1.395 1_556 S
C358 C335 1.391 . S
H359 C319 0.951 . S
H360 C320 0.950 . S
H361 C326 0.949 . S
H362 C327 0.950 . S
H363 C331 0.951 . S
H364 C332 0.950 . S
H365 C336 0.949 . S
H366 C337 0.950 . S
H367 C341 0.950 . S
H368 C343 0.950 . S
H369 C346 0.950 . S
H370 C348 0.950 . S
C371 C372 1.443 . S
C371 N375 1.376 . S
C371 C409 1.389 . S
C372 C371 1.443 . S
C372 C373 1.340 . S
C372 H412 0.951 . S
C373 C372 1.340 . S
C373 C374 1.439 . S
C373 H413 0.950 . S
C374 C373 1.439 . S
C374 N375 1.374 . S
C374 C408 1.395 . S
N375 C371 1.376 . S
N375 C374 1.374 . S
N375 Co376 2.008 . S
Co376 N375 2.008 . S
Co376 N377 1.995 . S
Co376 N382 2.008 . S
Co376 N387 1.995 . S
Co376 N392 2.282 . S
Co376 N398 2.282 . S
N377 Co376 1.995 . S
N377 C378 1.376 . S
N377 C381 1.383 . S
C378 N377 1.376 . S
C378 C379 1.446 . S
C378 C408 1.391 . S
C379 C378 1.446 . S
C379 C380 1.339 . S
C379 H414 0.949 . S
C380 C379 1.339 . S
C380 C381 1.439 . S
C380 H415 0.950 . S
C381 N377 1.383 . S
C381 C380 1.439 . S
C381 C410 1.392 . S
N382 Co376 2.008 . S
N382 C383 1.376 . S
N382 C386 1.374 . S
C383 N382 1.376 . S
C383 C384 1.443 . S
C383 C410 1.389 . S
C384 C383 1.443 . S
C384 C385 1.340 . S
C384 H416 0.951 . S
C385 C384 1.340 . S
C385 C386 1.439 . S
C385 H417 0.950 . S
C386 N382 1.374 . S
C386 C385 1.439 . S
C386 C411 1.395 . S
N387 Co376 1.995 . S
N387 C388 1.376 . S
N387 C391 1.383 . S
C388 N387 1.376 . S
C388 C389 1.446 . S
C388 C411 1.391 . S
C389 C388 1.446 . S
C389 C390 1.339 . S
C389 H418 0.949 . S
C390 C389 1.339 . S
C390 C391 1.439 . S
C390 H419 0.950 . S
C391 N387 1.383 . S
C391 C390 1.439 . S
C391 C409 1.392 . S
N392 Co376 2.282 . S
N392 C395 1.332 . S
N392 C397 1.332 . S
C393 C394 1.386 . S
C393 C396 1.388 . S
C394 C393 1.386 . S
C394 C395 1.382 . S
C394 H420 0.950 . S
C395 N392 1.332 . S
C395 C394 1.382 . S
C395 H406 0.952 . S
C396 C393 1.388 . S
C396 C397 1.382 . S
C396 H421 0.950 . S
C397 N392 1.332 . S
C397 C396 1.382 . S
C397 H407 0.948 . S
N398 Co376 2.282 . S
N398 C402 1.332 . S
N398 C403 1.332 . S
C399 C400 1.388 . S
C399 C403 1.382 . S
C399 H422 0.950 . S
C400 C399 1.388 . S
C400 C401 1.386 . S
C401 C400 1.386 . S
C401 C402 1.382 . S
C401 H423 0.950 . S
C402 N398 1.332 . S
C402 C401 1.382 . S
C402 H404 0.952 . S
C403 N398 1.332 . S
C403 C399 1.382 . S
C403 H405 0.948 . S
H404 C402 0.952 . S
H405 C403 0.948 . S
H406 C395 0.952 . S
H407 C397 0.948 . S
C408 C374 1.395 . S
C408 C378 1.391 . S
C409 C371 1.389 . S
C409 C391 1.392 . S
C410 C381 1.392 . S
C410 C383 1.389 . S
C411 C386 1.395 . S
C411 C388 1.391 . S
H412 C372 0.951 . S
H413 C373 0.950 . S
H414 C379 0.949 . S
H415 C380 0.950 . S
H416 C384 0.951 . S
H417 C385 0.950 . S
H418 C389 0.949 . S
H419 C390 0.950 . S
H420 C394 0.950 . S
H421 C396 0.950 . S
H422 C399 0.950 . S
H423 C401 0.950 . S
C424 C425 1.443 . S
C424 N428 1.376 . S
C424 C462 1.389 . S
C425 C424 1.443 . S
C425 C426 1.340 . S
C425 H465 0.951 . S
C426 C425 1.340 . S
C426 C427 1.439 . S
C426 H466 0.950 . S
C427 C426 1.439 . S
C427 N428 1.374 . S
C427 C461 1.395 . S
N428 C424 1.376 . S
N428 C427 1.374 . S
N428 Co429 2.008 . S
Co429 N428 2.008 . S
Co429 N430 1.995 . S
Co429 N435 2.008 . S
Co429 N440 1.995 . S
Co429 N445 2.282 . S
Co429 N451 2.282 . S
N430 Co429 1.995 . S
N430 C431 1.376 . S
N430 C434 1.383 . S
C431 N430 1.376 . S
C431 C432 1.446 . S
C431 C461 1.391 . S
C432 C431 1.446 . S
C432 C433 1.339 . S
C432 H467 0.949 . S
C433 C432 1.339 . S
C433 C434 1.439 . S
C433 H468 0.950 . S
C434 N430 1.383 . S
C434 C433 1.439 . S
C434 C463 1.392 . S
N435 Co429 2.008 . S
N435 C436 1.376 . S
N435 C439 1.374 . S
C436 N435 1.376 . S
C436 C437 1.443 . S
C436 C463 1.389 . S
C437 C436 1.443 . S
C437 C438 1.340 . S
C437 H469 0.951 . S
C438 C437 1.340 . S
C438 C439 1.439 . S
C438 H470 0.950 . S
C439 N435 1.374 . S
C439 C438 1.439 . S
C439 C464 1.395 . S
N440 Co429 1.995 . S
N440 C441 1.376 . S
N440 C444 1.383 . S
C441 N440 1.376 . S
C441 C442 1.446 . S
C441 C464 1.391 . S
C442 C441 1.446 . S
C442 C443 1.339 . S
C442 H471 0.949 . S
C443 C442 1.339 . S
C443 C444 1.439 . S
C443 H472 0.950 . S
C444 N440 1.383 . S
C444 C443 1.439 . S
C444 C462 1.392 . S
N445 Co429 2.282 . S
N445 C448 1.332 . S
N445 C450 1.332 . S
C446 C447 1.386 . S
C446 C449 1.388 . S
C447 C446 1.386 . S
C447 C448 1.382 . S
C447 H473 0.950 . S
C448 N445 1.332 . S
C448 C447 1.382 . S
C448 H459 0.952 . S
C449 C446 1.388 . S
C449 C450 1.382 . S
C449 H474 0.950 . S
C450 N445 1.332 . S
C450 C449 1.382 . S
C450 H460 0.948 . S
N451 Co429 2.282 . S
N451 C455 1.332 . S
N451 C456 1.332 . S
C452 C453 1.388 . S
C452 C456 1.382 . S
C452 H475 0.950 . S
C453 C452 1.388 . S
C453 C454 1.386 . S
C454 C453 1.386 . S
C454 C455 1.382 . S
C454 H476 0.950 . S
C455 N451 1.332 . S
C455 C454 1.382 . S
C455 H457 0.952 . S
C456 N451 1.332 . S
C456 C452 1.382 . S
C456 H458 0.948 . S
H457 C455 0.952 . S
H458 C456 0.948 . S
H459 C448 0.952 . S
H460 C450 0.948 . S
C461 C427 1.395 . S
C461 C431 1.391 . S
C462 C424 1.389 . S
C462 C444 1.392 . S
C463 C434 1.392 . S
C463 C436 1.389 . S
C464 C439 1.395 . S
C464 C441 1.391 . S
H465 C425 0.951 . S
H466 C426 0.950 . S
H467 C432 0.949 . S
H468 C433 0.950 . S
H469 C437 0.951 . S
H470 C438 0.950 . S
H471 C442 0.949 . S
H472 C443 0.950 . S
H473 C447 0.950 . S
H474 C449 0.950 . S
H475 C452 0.950 . S
H476 C454 0.950 . S
C477 C478 1.443 . S
C477 N481 1.376 . S
C477 C515 1.389 . S
C478 C477 1.443 . S
C478 C479 1.340 . S
C478 H518 0.951 . S
C479 C478 1.340 . S
C479 C480 1.439 . S
C479 H519 0.950 . S
C480 C479 1.439 . S
C480 N481 1.374 . S
C480 C514 1.395 . S
N481 C477 1.376 . S
N481 C480 1.374 . S
N481 Co482 2.008 . S
Co482 N481 2.008 . S
Co482 N483 1.995 . S
Co482 N488 2.008 . S
Co482 N493 1.995 . S
Co482 N498 2.282 . S
Co482 N504 2.282 . S
N483 Co482 1.995 . S
N483 C484 1.376 . S
N483 C487 1.383 . S
C484 N483 1.376 . S
C484 C485 1.446 . S
C484 C514 1.391 . S
C485 C484 1.446 . S
C485 C486 1.339 . S
C485 H520 0.949 . S
C486 C485 1.339 . S
C486 C487 1.439 . S
C486 H521 0.950 . S
C487 N483 1.383 . S
C487 C486 1.439 . S
C487 C516 1.392 . S
N488 Co482 2.008 . S
N488 C489 1.376 . S
N488 C492 1.374 . S
C489 N488 1.376 . S
C489 C490 1.443 . S
C489 C516 1.389 . S
C490 C489 1.443 . S
C490 C491 1.340 . S
C490 H522 0.951 . S
C491 C490 1.340 . S
C491 C492 1.439 . S
C491 H523 0.950 . S
C492 N488 1.374 . S
C492 C491 1.439 . S
C492 C517 1.395 . S
N493 Co482 1.995 . S
N493 C494 1.376 . S
N493 C497 1.383 . S
C494 N493 1.376 . S
C494 C495 1.446 . S
C494 C517 1.391 . S
C495 C494 1.446 . S
C495 C496 1.339 . S
C495 H524 0.949 . S
C496 C495 1.339 . S
C496 C497 1.439 . S
C496 H525 0.950 . S
C497 N493 1.383 . S
C497 C496 1.439 . S
C497 C515 1.392 . S
N498 Co482 2.282 . S
N498 C501 1.332 . S
N498 C503 1.332 . S
C499 C500 1.386 . S
C499 C502 1.388 . S
C500 C499 1.386 . S
C500 C501 1.382 . S
C500 H526 0.950 . S
C501 N498 1.332 . S
C501 C500 1.382 . S
C501 H512 0.952 . S
C502 C499 1.388 . S
C502 C503 1.382 . S
C502 H527 0.950 . S
C503 N498 1.332 . S
C503 C502 1.382 . S
C503 H513 0.948 . S
N504 Co482 2.282 . S
N504 C508 1.332 . S
N504 C509 1.332 . S
C505 C506 1.388 . S
C505 C509 1.382 . S
C505 H528 0.950 . S
C506 C505 1.388 . S
C506 C507 1.386 . S
C507 C506 1.386 . S
C507 C508 1.382 . S
C507 H529 0.950 . S
C508 N504 1.332 . S
C508 C507 1.382 . S
C508 H510 0.952 . S
C509 N504 1.332 . S
C509 C505 1.382 . S
C509 H511 0.948 . S
H510 C508 0.952 . S
H511 C509 0.948 . S
H512 C501 0.952 . S
H513 C503 0.948 . S
C514 C480 1.395 . S
C514 C484 1.391 . S
C515 C477 1.389 . S
C515 C497 1.392 . S
C516 C487 1.392 . S
C516 C489 1.389 . S
C517 C492 1.395 . S
C517 C494 1.391 . S
H518 C478 0.951 . S
H519 C479 0.950 . S
H520 C485 0.949 . S
H521 C486 0.950 . S
H522 C490 0.951 . S
H523 C491 0.950 . S
H524 C495 0.949 . S
H525 C496 0.950 . S
H526 C500 0.950 . S
H527 C502 0.950 . S
H528 C505 0.950 . S
H529 C507 0.950 . S
C530 C531 1.443 . S
C530 N534 1.376 . S
C530 C568 1.389 . S
C531 C530 1.443 . S
C531 C532 1.340 . S
C531 H571 0.951 . S
C532 C531 1.340 . S
C532 C533 1.439 . S
C532 H572 0.950 . S
C533 C532 1.439 . S
C533 N534 1.374 . S
C533 C567 1.395 . S
N534 C530 1.376 . S
N534 C533 1.374 . S
N534 Co535 2.008 . S
Co535 N534 2.008 . S
Co535 N536 1.995 . S
Co535 N541 2.008 . S
Co535 N546 1.995 . S
Co535 N551 2.282 . S
Co535 N557 2.282 . S
N536 Co535 1.995 . S
N536 C537 1.376 . S
N536 C540 1.383 . S
C537 N536 1.376 . S
C537 C538 1.446 . S
C537 C567 1.391 . S
C538 C537 1.446 . S
C538 C539 1.339 . S
C538 H573 0.949 . S
C539 C538 1.339 . S
C539 C540 1.439 . S
C539 H574 0.950 . S
C540 N536 1.383 . S
C540 C539 1.439 . S
C540 C569 1.392 . S
N541 Co535 2.008 . S
N541 C542 1.376 . S
N541 C545 1.374 . S
C542 N541 1.376 . S
C542 C543 1.443 . S
C542 C569 1.389 . S
C543 C542 1.443 . S
C543 C544 1.340 . S
C543 H575 0.951 . S
C544 C543 1.340 . S
C544 C545 1.439 . S
C544 H576 0.950 . S
C545 N541 1.374 . S
C545 C544 1.439 . S
C545 C570 1.395 . S
N546 Co535 1.995 . S
N546 C547 1.376 . S
N546 C550 1.383 . S
C547 N546 1.376 . S
C547 C548 1.446 . S
C547 C570 1.391 . S
C548 C547 1.446 . S
C548 C549 1.339 . S
C548 H577 0.949 . S
C549 C548 1.339 . S
C549 C550 1.439 . S
C549 H578 0.950 . S
C550 N546 1.383 . S
C550 C549 1.439 . S
C550 C568 1.392 . S
N551 Co535 2.282 . S
N551 C554 1.332 . S
N551 C556 1.332 . S
C552 C553 1.386 . S
C552 C555 1.388 . S
C553 C552 1.386 . S
C553 C554 1.382 . S
C553 H579 0.950 . S
C554 N551 1.332 . S
C554 C553 1.382 . S
C554 H565 0.952 . S
C555 C552 1.388 . S
C555 C556 1.382 . S
C555 H580 0.950 . S
C556 N551 1.332 . S
C556 C555 1.382 . S
C556 H566 0.948 . S
N557 Co535 2.282 . S
N557 C561 1.332 . S
N557 C562 1.332 . S
C558 C559 1.388 . S
C558 C562 1.382 . S
C558 H581 0.950 . S
C559 C558 1.388 . S
C559 C560 1.386 . S
C560 C559 1.386 . S
C560 C561 1.382 . S
C560 H582 0.950 . S
C561 N557 1.332 . S
C561 C560 1.382 . S
C561 H563 0.952 . S
C562 N557 1.332 . S
C562 C558 1.382 . S
C562 H564 0.948 . S
H563 C561 0.952 . S
H564 C562 0.948 . S
H565 C554 0.952 . S
H566 C556 0.948 . S
C567 C533 1.395 . S
C567 C537 1.391 . S
C568 C530 1.389 . S
C568 C550 1.392 . S
C569 C540 1.392 . S
C569 C542 1.389 . S
C570 C545 1.395 . S
C570 C547 1.391 . S
H571 C531 0.951 . S
H572 C532 0.950 . S
H573 C538 0.949 . S
H574 C539 0.950 . S
H575 C543 0.951 . S
H576 C544 0.950 . S
H577 C548 0.949 . S
H578 C549 0.950 . S
H579 C553 0.950 . S
H580 C555 0.950 . S
H581 C558 0.950 . S
H582 C560 0.950 . S
C583 C584 1.443 . S
C583 N587 1.376 . S
C583 C621 1.389 . S
C584 C583 1.443 . S
C584 C585 1.340 . S
C584 H624 0.951 . S
C585 C584 1.340 . S
C585 C586 1.439 . S
C585 H625 0.950 . S
C586 C585 1.439 . S
C586 N587 1.374 . S
C586 C620 1.395 . S
N587 C583 1.376 . S
N587 C586 1.374 . S
N587 Co588 2.008 . S
Co588 N587 2.008 . S
Co588 N589 1.995 . S
Co588 N594 2.008 . S
Co588 N599 1.995 . S
Co588 N604 2.282 . S
Co588 N610 2.282 . S
N589 Co588 1.995 . S
N589 C590 1.376 . S
N589 C593 1.383 . S
C590 N589 1.376 . S
C590 C591 1.446 . S
C590 C620 1.391 . S
C591 C590 1.446 . S
C591 C592 1.339 . S
C591 H626 0.949 . S
C592 C591 1.339 . S
C592 C593 1.439 . S
C592 H627 0.950 . S
C593 N589 1.383 . S
C593 C592 1.439 . S
C593 C622 1.392 . S
N594 Co588 2.008 . S
N594 C595 1.376 . S
N594 C598 1.374 . S
C595 N594 1.376 . S
C595 C596 1.443 . S
C595 C622 1.389 . S
C596 C595 1.443 . S
C596 C597 1.340 . S
C596 H628 0.951 . S
C597 C596 1.340 . S
C597 C598 1.439 . S
C597 H629 0.950 . S
C598 N594 1.374 . S
C598 C597 1.439 . S
C598 C623 1.395 . S
N599 Co588 1.995 . S
N599 C600 1.376 . S
N599 C603 1.383 . S
C600 N599 1.376 . S
C600 C601 1.446 . S
C600 C623 1.391 . S
C601 C600 1.446 . S
C601 C602 1.339 . S
C601 H630 0.949 . S
C602 C601 1.339 . S
C602 C603 1.439 . S
C602 H631 0.950 . S
C603 N599 1.383 . S
C603 C602 1.439 . S
C603 C621 1.392 . S
N604 Co588 2.282 . S
N604 C607 1.332 . S
N604 C609 1.332 . S
C605 C606 1.386 . S
C605 C608 1.388 . S
C606 C605 1.386 . S
C606 C607 1.382 . S
C606 H632 0.950 . S
C607 N604 1.332 . S
C607 C606 1.382 . S
C607 H618 0.952 . S
C608 C605 1.388 . S
C608 C609 1.382 . S
C608 H633 0.950 . S
C609 N604 1.332 . S
C609 C608 1.382 . S
C609 H619 0.948 . S
N610 Co588 2.282 . S
N610 C614 1.332 . S
N610 C615 1.332 . S
C611 C612 1.388 . S
C611 C615 1.382 . S
C611 H634 0.950 . S
C612 C611 1.388 . S
C612 C613 1.386 . S
C613 C612 1.386 . S
C613 C614 1.382 . S
C613 H635 0.950 . S
C614 N610 1.332 . S
C614 C613 1.382 . S
C614 H616 0.952 . S
C615 N610 1.332 . S
C615 C611 1.382 . S
C615 H617 0.948 . S
H616 C614 0.952 . S
H617 C615 0.948 . S
H618 C607 0.952 . S
H619 C609 0.948 . S
C620 C586 1.395 . S
C620 C590 1.391 . S
C621 C583 1.389 . S
C621 C603 1.392 . S
C622 C593 1.392 . S
C622 C595 1.389 . S
C623 C598 1.395 . S
C623 C600 1.391 . S
H624 C584 0.951 . S
H625 C585 0.950 . S
H626 C591 0.949 . S
H627 C592 0.950 . S
H628 C596 0.951 . S
H629 C597 0.950 . S
H630 C601 0.949 . S
H631 C602 0.950 . S
H632 C606 0.950 . S
H633 C608 0.950 . S
H634 C611 0.950 . S
H635 C613 0.950 . S
C636 C637 1.443 . S
C636 N640 1.376 . S
C636 C674 1.389 . S
C637 C636 1.443 . S
C637 C638 1.340 . S
C637 H677 0.951 . S
C638 C637 1.340 . S
C638 C639 1.439 . S
C638 H678 0.950 . S
C639 C638 1.439 . S
C639 N640 1.374 . S
C639 C673 1.395 . S
N640 C636 1.376 . S
N640 C639 1.374 . S
N640 Co641 2.008 . S
Co641 N640 2.008 . S
Co641 N642 1.995 . S
Co641 N647 2.008 . S
Co641 N652 1.995 . S
Co641 N657 2.282 . S
Co641 N663 2.282 . S
N642 Co641 1.995 . S
N642 C643 1.376 . S
N642 C646 1.383 . S
C643 N642 1.376 . S
C643 C644 1.446 . S
C643 C673 1.391 . S
C644 C643 1.446 . S
C644 C645 1.339 . S
C644 H679 0.949 . S
C645 C644 1.339 . S
C645 C646 1.439 . S
C645 H680 0.950 . S
C646 N642 1.383 . S
C646 C645 1.439 . S
C646 C675 1.392 . S
N647 Co641 2.008 . S
N647 C648 1.376 . S
N647 C651 1.374 . S
C648 N647 1.376 . S
C648 C649 1.443 . S
C648 C675 1.389 . S
C649 C648 1.443 . S
C649 C650 1.340 . S
C649 H681 0.951 . S
C650 C649 1.340 . S
C650 C651 1.439 . S
C650 H682 0.950 . S
C651 N647 1.374 . S
C651 C650 1.439 . S
C651 C676 1.395 . S
N652 Co641 1.995 . S
N652 C653 1.376 . S
N652 C656 1.383 . S
C653 N652 1.376 . S
C653 C654 1.446 . S
C653 C676 1.391 . S
C654 C653 1.446 . S
C654 C655 1.339 . S
C654 H683 0.949 . S
C655 C654 1.339 . S
C655 C656 1.439 . S
C655 H684 0.950 . S
C656 N652 1.383 . S
C656 C655 1.439 . S
C656 C674 1.392 . S
N657 Co641 2.282 . S
N657 C660 1.332 . S
N657 C662 1.332 . S
C658 C659 1.386 . S
C658 C661 1.388 . S
C659 C658 1.386 . S
C659 C660 1.382 . S
C659 H685 0.950 . S
C660 N657 1.332 . S
C660 C659 1.382 . S
C660 H671 0.952 . S
C661 C658 1.388 . S
C661 C662 1.382 . S
C661 H686 0.950 . S
C662 N657 1.332 . S
C662 C661 1.382 . S
C662 H672 0.948 . S
N663 Co641 2.282 . S
N663 C667 1.332 . S
N663 C668 1.332 . S
C664 C665 1.388 . S
C664 C668 1.382 . S
C664 H687 0.950 . S
C665 C664 1.388 . S
C665 C666 1.386 . S
C666 C665 1.386 . S
C666 C667 1.382 . S
C666 H688 0.950 . S
C667 N663 1.332 . S
C667 C666 1.382 . S
C667 H669 0.952 . S
C668 N663 1.332 . S
C668 C664 1.382 . S
C668 H670 0.948 . S
H669 C667 0.952 . S
H670 C668 0.948 . S
H671 C660 0.952 . S
H672 C662 0.948 . S
C673 C639 1.395 . S
C673 C643 1.391 . S
C674 C636 1.389 . S
C674 C656 1.392 . S
C675 C646 1.392 . S
C675 C648 1.389 . S
C676 C651 1.395 . S
C676 C653 1.391 . S
H677 C637 0.951 . S
H678 C638 0.950 . S
H679 C644 0.949 . S
H680 C645 0.950 . S
H681 C649 0.951 . S
H682 C650 0.950 . S
H683 C654 0.949 . S
H684 C655 0.950 . S
H685 C659 0.950 . S
H686 C661 0.950 . S
H687 C664 0.950 . S
H688 C666 0.950 . S
C689 C690 1.443 . S
C689 N693 1.376 . S
C689 C727 1.389 . S
C690 C689 1.443 . S
C690 C691 1.340 . S
C690 H730 0.951 . S
C691 C690 1.340 . S
C691 C692 1.439 . S
C691 H731 0.950 . S
C692 C691 1.439 . S
C692 N693 1.374 . S
C692 C726 1.395 . S
N693 C689 1.376 . S
N693 C692 1.374 . S
N693 Co694 2.008 1_655 S
Co694 N693 2.008 1_455 S
Co694 N695 1.995 1_454 S
Co694 N700 2.008 1_554 S
Co694 N705 1.995 . S
Co694 N710 2.282 1_454 S
Co694 N716 2.283 . S
N695 Co694 1.995 1_656 S
N695 C696 1.376 . S
N695 C699 1.383 1_655 S
C696 N695 1.376 . S
C696 C697 1.446 . S
C696 C726 1.391 1_556 S
C697 C696 1.446 . S
C697 C698 1.339 1_655 S
C697 H732 0.949 . S
C698 C697 1.339 1_455 S
C698 C699 1.439 . S
C698 H733 0.950 . S
C699 N695 1.383 1_455 S
C699 C698 1.439 . S
C699 C728 1.392 . S
N700 Co694 2.008 1_556 S
N700 C701 1.376 . S
N700 C704 1.374 . S
C701 N700 1.376 . S
C701 C702 1.443 . S
C701 C728 1.389 . S
C702 C701 1.443 . S
C702 C703 1.340 . S
C702 H734 0.951 . S
C703 C702 1.340 . S
C703 C704 1.439 . S
C703 H735 0.950 . S
C704 N700 1.374 . S
C704 C703 1.439 . S
C704 C729 1.395 . S
N705 Co694 1.995 . S
N705 C706 1.376 . S
N705 C709 1.383 1_455 S
C706 N705 1.376 . S
C706 C707 1.446 . S
C706 C729 1.391 1_554 S
C707 C706 1.446 . S
C707 C708 1.339 1_455 S
C707 H736 0.949 . S
C708 C707 1.339 1_655 S
C708 C709 1.439 . S
C708 H737 0.950 . S
C709 N705 1.383 1_655 S
C709 C708 1.439 . S
C709 C727 1.392 . S
N710 Co694 2.282 1_656 S
N710 C713 1.332 1_655 S
N710 C715 1.332 . S
C711 C712 1.386 1_655 S
C711 C714 1.388 . S
C712 C711 1.386 1_455 S
C712 C713 1.382 . S
C712 H738 0.950 . S
C713 N710 1.332 1_455 S
C713 C712 1.382 . S
C713 H724 0.952 . S
C714 C711 1.388 . S
C714 C715 1.382 . S
C714 H739 0.950 . S
C715 N710 1.332 . S
C715 C714 1.382 . S
C715 H725 0.948 . S
N716 Co694 2.283 . S
N716 C720 1.332 1_455 S
N716 C721 1.332 . S
C717 C718 1.388 . S
C717 C721 1.382 . S
C717 H740 0.950 . S
C718 C717 1.388 . S
C718 C719 1.386 1_455 S
C719 C718 1.386 1_655 S
C719 C720 1.382 . S
C719 H741 0.950 . S
C720 N716 1.332 1_655 S
C720 C719 1.382 . S
C720 H722 0.952 . S
C721 N716 1.332 . S
C721 C717 1.382 . S
C721 H723 0.948 . S
H722 C720 0.952 . S
H723 C721 0.948 . S
H724 C713 0.952 . S
H725 C715 0.948 . S
C726 C692 1.395 . S
C726 C696 1.391 1_554 S
C727 C689 1.389 . S
C727 C709 1.392 . S
C728 C699 1.392 . S
C728 C701 1.389 . S
C729 C704 1.395 . S
C729 C706 1.391 1_556 S
H730 C690 0.951 . S
H731 C691 0.950 . S
H732 C697 0.949 . S
H733 C698 0.950 . S
H734 C702 0.951 . S
H735 C703 0.950 . S
H736 C707 0.949 . S
H737 C708 0.950 . S
H738 C712 0.950 . S
H739 C714 0.950 . S
H740 C717 0.950 . S
H741 C719 0.950 . S
C742 C743 1.443 . S
C742 N746 1.376 . S
C742 C780 1.389 . S
C743 C742 1.443 . S
C743 C744 1.340 . S
C743 H783 0.951 . S
C744 C743 1.340 . S
C744 C745 1.439 . S
C744 H784 0.950 . S
C745 C744 1.439 . S
C745 N746 1.374 . S
C745 C779 1.395 1_554 S
N746 C742 1.376 . S
N746 C745 1.374 . S
N746 Co747 2.008 . S
Co747 N746 2.008 . S
Co747 N748 1.995 1_554 S
Co747 N753 2.008 1_554 S
Co747 N758 1.995 . S
Co747 N763 2.282 1_554 S
Co747 N769 2.282 . S
N748 Co747 1.995 1_556 S
N748 C749 1.376 . S
N748 C752 1.383 . S
C749 N748 1.376 . S
C749 C750 1.446 . S
C749 C779 1.391 . S
C750 C749 1.446 . S
C750 C751 1.339 . S
C750 H785 0.949 . S
C751 C750 1.339 . S
C751 C752 1.439 . S
C751 H786 0.950 . S
C752 N748 1.383 . S
C752 C751 1.439 . S
C752 C781 1.392 . S
N753 Co747 2.008 1_556 S
N753 C754 1.376 . S
N753 C757 1.374 . S
C754 N753 1.376 . S
C754 C755 1.443 . S
C754 C781 1.389 . S
C755 C754 1.443 . S
C755 C756 1.340 . S
C755 H787 0.951 . S
C756 C755 1.340 . S
C756 C757 1.439 . S
C756 H788 0.950 . S
C757 N753 1.374 . S
C757 C756 1.439 . S
C757 C782 1.395 1_556 S
N758 Co747 1.995 . S
N758 C759 1.376 . S
N758 C762 1.383 . S
C759 N758 1.376 . S
C759 C760 1.446 . S
C759 C782 1.391 . S
C760 C759 1.446 . S
C760 C761 1.339 . S
C760 H789 0.949 . S
C761 C760 1.339 . S
C761 C762 1.439 . S
C761 H790 0.950 . S
C762 N758 1.383 . S
C762 C761 1.439 . S
C762 C780 1.392 . S
N763 Co747 2.282 1_556 S
N763 C766 1.332 . S
N763 C768 1.332 . S
C764 C765 1.386 . S
C764 C767 1.388 . S
C765 C764 1.386 . S
C765 C766 1.382 . S
C765 H791 0.950 . S
C766 N763 1.332 . S
C766 C765 1.382 . S
C766 H777 0.952 . S
C767 C764 1.388 . S
C767 C768 1.382 . S
C767 H792 0.950 . S
C768 N763 1.332 . S
C768 C767 1.382 . S
C768 H778 0.948 . S
N769 Co747 2.282 . S
N769 C773 1.332 . S
N769 C774 1.332 . S
C770 C771 1.388 . S
C770 C774 1.382 . S
C770 H793 0.950 . S
C771 C770 1.388 . S
C771 C772 1.386 . S
C772 C771 1.386 . S
C772 C773 1.382 . S
C772 H794 0.950 . S
C773 N769 1.332 . S
C773 C772 1.382 . S
C773 H775 0.952 . S
C774 N769 1.332 . S
C774 C770 1.382 . S
C774 H776 0.948 . S
H775 C773 0.952 . S
H776 C774 0.948 . S
H777 C766 0.952 . S
H778 C768 0.948 . S
C779 C745 1.395 1_556 S
C779 C749 1.391 . S
C780 C742 1.389 . S
C780 C762 1.392 . S
C781 C752 1.392 . S
C781 C754 1.389 . S
C782 C757 1.395 1_554 S
C782 C759 1.391 . S
H783 C743 0.951 . S
H784 C744 0.950 . S
H785 C750 0.949 . S
H786 C751 0.950 . S
H787 C755 0.951 . S
H788 C756 0.950 . S
H789 C760 0.949 . S
H790 C761 0.950 . S
H791 C765 0.950 . S
H792 C767 0.950 . S
H793 C770 0.950 . S
H794 C772 0.950 . S
C795 C796 1.443 . S
C795 N799 1.376 . S
C795 C833 1.389 . S
C796 C795 1.443 . S
C796 C797 1.340 . S
C796 H836 0.951 . S
C797 C796 1.340 . S
C797 C798 1.439 . S
C797 H837 0.950 . S
C798 C797 1.439 . S
C798 N799 1.374 . S
C798 C832 1.395 . S
N799 C795 1.376 . S
N799 C798 1.374 . S
N799 Co800 2.008 1_655 S
Co800 N799 2.008 1_455 S
Co800 N801 1.995 . S
Co800 N806 2.008 . S
Co800 N811 1.995 1_455 S
Co800 N816 2.282 1_455 S
Co800 N822 2.282 . S
N801 Co800 1.995 . S
N801 C802 1.376 1_455 S
N801 C805 1.383 . S
C802 N801 1.376 1_655 S
C802 C803 1.446 . S
C802 C832 1.391 . S
C803 C802 1.446 . S
C803 C804 1.339 1_655 S
C803 H838 0.949 . S
C804 C803 1.339 1_455 S
C804 C805 1.439 . S
C804 H839 0.950 . S
C805 N801 1.383 . S
C805 C804 1.439 . S
C805 C834 1.392 . S
N806 Co800 2.008 . S
N806 C807 1.376 . S
N806 C810 1.374 . S
C807 N806 1.376 . S
C807 C808 1.443 . S
C807 C834 1.389 . S
C808 C807 1.443 . S
C808 C809 1.340 . S
C808 H840 0.951 . S
C809 C808 1.340 . S
C809 C810 1.439 . S
C809 H841 0.950 . S
C810 N806 1.374 . S
C810 C809 1.439 . S
C810 C835 1.395 . S
N811 Co800 1.995 1_655 S
N811 C812 1.376 1_655 S
N811 C815 1.383 . S
C812 N811 1.376 1_455 S
C812 C813 1.446 . S
C812 C835 1.391 . S
C813 C812 1.446 . S
C813 C814 1.339 1_455 S
C813 H842 0.949 . S
C814 C813 1.339 1_655 S
C814 C815 1.439 . S
C814 H843 0.950 . S
C815 N811 1.383 . S
C815 C814 1.439 . S
C815 C833 1.392 . S
N816 Co800 2.282 1_655 S
N816 C819 1.332 1_655 S
N816 C821 1.332 . S
C817 C818 1.386 1_655 S
C817 C820 1.388 . S
C818 C817 1.386 1_455 S
C818 C819 1.382 . S
C818 H844 0.950 . S
C819 N816 1.332 1_455 S
C819 C818 1.382 . S
C819 H830 0.952 . S
C820 C817 1.388 . S
C820 C821 1.382 . S
C820 H845 0.950 . S
C821 N816 1.332 . S
C821 C820 1.382 . S
C821 H831 0.948 . S
N822 Co800 2.282 . S
N822 C826 1.332 1_455 S
N822 C827 1.332 . S
C823 C824 1.388 . S
C823 C827 1.382 . S
C823 H846 0.950 . S
C824 C823 1.388 . S
C824 C825 1.386 1_455 S
C825 C824 1.386 1_655 S
C825 C826 1.382 . S
C825 H847 0.950 . S
C826 N822 1.332 1_655 S
C826 C825 1.382 . S
C826 H828 0.952 . S
C827 N822 1.332 . S
C827 C823 1.382 . S
C827 H829 0.948 . S
H828 C826 0.952 . S
H829 C827 0.948 . S
H830 C819 0.952 . S
H831 C821 0.948 . S
C832 C798 1.395 . S
C832 C802 1.391 . S
C833 C795 1.389 . S
C833 C815 1.392 . S
C834 C805 1.392 . S
C834 C807 1.389 . S
C835 C810 1.395 . S
C835 C812 1.391 . S
H836 C796 0.951 . S
H837 C797 0.950 . S
H838 C803 0.949 . S
H839 C804 0.950 . S
H840 C808 0.951 . S
H841 C809 0.950 . S
H842 C813 0.949 . S
H843 C814 0.950 . S
H844 C818 0.950 . S
H845 C820 0.950 . S
H846 C823 0.950 . S
H847 C825 0.950 . S
C848 C849 1.363 1_445 S
C848 C854 1.379 . S
C848 N856 1.356 . S
C849 C848 1.363 1_665 S
C849 C855 1.363 . S
C850 C851 1.363 1_565 S
C850 C855 1.379 . S
C850 N857 1.356 . S
C851 C850 1.363 1_545 S
C851 C854 1.363 1_655 S
N852 C854 1.356 . S
N852 H864 0.984 . S
N852 H865 0.985 . S
N853 C855 1.356 . S
N853 H858 0.984 . S
N853 H859 0.985 . S
C854 C848 1.379 . S
C854 C851 1.363 1_455 S
C854 N852 1.356 . S
C855 C849 1.363 . S
C855 C850 1.379 . S
C855 N853 1.356 . S
N856 C848 1.356 . S
N856 H862 0.984 . S
N856 H863 0.984 . S
N857 C850 1.356 . S
N857 H860 0.984 . S
N857 H861 0.985 . S
H858 N853 0.984 . S
H859 N853 0.985 . S
H860 N857 0.984 . S
H861 N857 0.985 . S
H862 N856 0.984 . S
H863 N856 0.984 . S
H864 N852 0.984 . S
H865 N852 0.985 . S
C866 C867 1.363 . S
C866 C872 1.379 . S
C866 N874 1.356 . S
C867 C866 1.363 . S
C867 C873 1.363 . S
C868 C869 1.363 . S
C868 C873 1.379 . S
C868 N875 1.356 . S
C869 C868 1.363 . S
C869 C872 1.363 . S
N870 C872 1.356 . S
N870 H882 0.984 . S
N870 H883 0.985 . S
N871 C873 1.356 . S
N871 H876 0.984 . S
N871 H877 0.985 . S
C872 C866 1.379 . S
C872 C869 1.363 . S
C872 N870 1.356 . S
C873 C867 1.363 . S
C873 C868 1.379 . S
C873 N871 1.356 . S
N874 C866 1.356 . S
N874 H880 0.984 . S
N874 H881 0.984 . S
N875 C868 1.356 . S
N875 H878 0.984 . S
N875 H879 0.985 . S
H876 N871 0.984 . S
H877 N871 0.985 . S
H878 N875 0.984 . S
H879 N875 0.985 . S
H880 N874 0.984 . S
H881 N874 0.984 . S
H882 N870 0.984 . S
H883 N870 0.985 . S
C884 C885 1.363 . S
C884 C890 1.379 1_565 S
C884 N892 1.356 . S
C885 C884 1.363 . S
C885 C891 1.363 . S
C886 C887 1.363 1_565 S
C886 C891 1.379 . S
C886 N893 1.356 . S
C887 C886 1.363 1_545 S
C887 C890 1.363 . S
N888 C890 1.356 . S
N888 H900 0.984 . S
N888 H901 0.985 . S
N889 C891 1.356 . S
N889 H894 0.984 . S
N889 H895 0.985 . S
C890 C884 1.379 1_545 S
C890 C887 1.363 . S
C890 N888 1.356 . S
C891 C885 1.363 . S
C891 C886 1.379 . S
C891 N889 1.356 . S
N892 C884 1.356 . S
N892 H898 0.984 . S
N892 H899 0.984 . S
N893 C886 1.356 . S
N893 H896 0.984 1_565 S
N893 H897 0.985 . S
H894 N889 0.984 . S
H895 N889 0.985 . S
H896 N893 0.984 1_545 S
H897 N893 0.985 . S
H898 N892 0.984 . S
H899 N892 0.984 . S
H900 N888 0.984 . S
H901 N888 0.985 . S
C902 C903 1.363 1_554 S
C902 C908 1.379 . S
C902 N910 1.356 1_554 S
C903 C902 1.363 1_556 S
C903 C909 1.363 . S
C904 C905 1.363 . S
C904 C909 1.379 1_554 S
C904 N911 1.356 . S
C905 C904 1.363 . S
C905 C908 1.363 . S
N906 C908 1.356 . S
N906 H918 0.984 . S
N906 H919 0.985 . S
N907 C909 1.356 . S
N907 H912 0.984 . S
N907 H913 0.985 . S
C908 C902 1.379 . S
C908 C905 1.363 . S
C908 N906 1.356 . S
C909 C903 1.363 . S
C909 C904 1.379 1_556 S
C909 N907 1.356 . S
N910 C902 1.356 1_556 S
N910 H916 0.984 1_556 S
N910 H917 0.984 . S
N911 C904 1.356 . S
N911 H914 0.984 . S
N911 H915 0.985 . S
H912 N907 0.984 . S
H913 N907 0.985 . S
H914 N911 0.984 . S
H915 N911 0.985 . S
H916 N910 0.984 1_554 S
H917 N910 0.984 . S
H918 N906 0.984 . S
H919 N906 0.985 . S
C920 C921 1.363 1_655 S
C920 C926 1.379 . S
C920 N928 1.356 . S
C921 C920 1.363 1_455 S
C921 C927 1.363 1_565 S
C922 C923 1.363 . S
C922 C927 1.379 . S
C922 N929 1.356 . S
C923 C922 1.363 . S
C923 C926 1.363 1_445 S
N924 C926 1.356 . S
N924 H936 0.984 . S
N924 H937 0.985 . S
N925 C927 1.356 . S
N925 H930 0.984 . S
N925 H931 0.985 . S
C926 C920 1.379 . S
C926 C923 1.363 1_665 S
C926 N924 1.356 . S
C927 C921 1.363 1_545 S
C927 C922 1.379 . S
C927 N925 1.356 . S
N928 C920 1.356 . S
N928 H934 0.984 . S
N928 H935 0.984 . S
N929 C922 1.356 . S
N929 H932 0.984 . S
N929 H933 0.985 . S
H930 N925 0.984 . S
H931 N925 0.985 . S
H932 N929 0.984 . S
H933 N929 0.985 . S
H934 N928 0.984 . S
H935 N928 0.984 . S
H936 N924 0.984 . S
H937 N924 0.985 . S
C938 C939 1.363 . S
C938 C944 1.379 . S
C938 N946 1.356 . S
C939 C938 1.363 . S
C939 C945 1.363 . S
C940 C941 1.363 . S
C940 C945 1.379 . S
C940 N947 1.356 . S
C941 C940 1.363 . S
C941 C944 1.363 . S
N942 C944 1.356 . S
N942 H954 0.984 . S
N942 H955 0.985 . S
N943 C945 1.356 . S
N943 H948 0.984 . S
N943 H949 0.985 . S
C944 C938 1.379 . S
C944 C941 1.363 . S
C944 N942 1.356 . S
C945 C939 1.363 . S
C945 C940 1.379 . S
C945 N943 1.356 . S
N946 C938 1.356 . S
N946 H952 0.984 . S
N946 H953 0.984 . S
N947 C940 1.356 . S
N947 H950 0.984 . S
N947 H951 0.985 . S
H948 N943 0.984 . S
H949 N943 0.985 . S
H950 N947 0.984 . S
H951 N947 0.985 . S
H952 N946 0.984 . S
H953 N946 0.984 . S
H954 N942 0.984 . S
H955 N942 0.985 . S
C956 C957 1.363 . S
C956 C962 1.379 . S
C956 N964 1.356 . S
C957 C956 1.363 . S
C957 C963 1.363 1_545 S
C958 C959 1.363 . S
C958 C963 1.379 . S
C958 N965 1.356 . S
C959 C958 1.363 . S
C959 C962 1.363 1_565 S
N960 C962 1.356 . S
N960 H972 0.984 . S
N960 H973 0.985 . S
N961 C963 1.356 . S
N961 H966 0.984 . S
N961 H967 0.985 . S
C962 C956 1.379 . S
C962 C959 1.363 1_545 S
C962 N960 1.356 . S
C963 C957 1.363 1_565 S
C963 C958 1.379 . S
C963 N961 1.356 . S
N964 C956 1.356 . S
N964 H970 0.984 . S
N964 H971 0.984 . S
N965 C958 1.356 . S
N965 H968 0.984 . S
N965 H969 0.985 . S
H966 N961 0.984 . S
H967 N961 0.985 . S
H968 N965 0.984 . S
H969 N965 0.985 . S
H970 N964 0.984 . S
H971 N964 0.984 . S
H972 N960 0.984 . S
H973 N960 0.985 . S
C974 C975 1.363 1_556 S
C974 C980 1.379 . S
C974 N982 1.356 1_556 S
C975 C974 1.363 1_554 S
C975 C981 1.363 . S
C976 C977 1.363 . S
C976 C981 1.379 1_556 S
C976 N983 1.356 . S
C977 C976 1.363 . S
C977 C980 1.363 . S
N978 C980 1.356 . S
N978 H990 0.984 . S
N978 H991 0.985 . S
N979 C981 1.356 . S
N979 H984 0.984 . S
N979 H985 0.985 . S
C980 C974 1.379 . S
C980 C977 1.363 . S
C980 N978 1.356 . S
C981 C975 1.363 . S
C981 C976 1.379 1_554 S
C981 N979 1.356 . S
N982 C974 1.356 1_554 S
N982 H988 0.984 . S
N982 H989 0.984 . S
N983 C976 1.356 . S
N983 H986 0.984 . S
N983 H987 0.985 . S
H984 N979 0.984 . S
H985 N979 0.985 . S
H986 N983 0.984 . S
H987 N983 0.985 . S
H988 N982 0.984 . S
H989 N982 0.984 . S
H990 N978 0.984 . S
H991 N978 0.985 . S
C992 C993 1.363 . S
C992 C998 1.379 . S
C992 N1000 1.356 . S
C993 C992 1.363 . S
C993 C999 1.363 . S
C994 C995 1.363 . S
C994 C999 1.379 . S
C994 N1001 1.356 . S
C995 C994 1.363 . S
C995 C998 1.363 . S
N996 C998 1.356 . S
N996 H1008 0.984 . S
N996 H1009 0.985 . S
N997 C999 1.356 . S
N997 H1002 0.984 . S
N997 H1003 0.985 . S
C998 C992 1.379 . S
C998 C995 1.363 . S
C998 N996 1.356 . S
C999 C993 1.363 . S
C999 C994 1.379 . S
C999 N997 1.356 . S
N1000 C992 1.356 . S
N1000 H1006 0.984 . S
N1000 H1007 0.984 . S
N1001 C994 1.356 . S
N1001 H1004 0.984 . S
N1001 H1005 0.985 . S
H1002 N997 0.984 . S
H1003 N997 0.985 . S
H1004 N1001 0.984 . S
H1005 N1001 0.985 . S
H1006 N1000 0.984 . S
H1007 N1000 0.984 . S
H1008 N996 0.984 . S
H1009 N996 0.985 . S
C1010 C1011 1.363 . S
C1010 C1016 1.379 1_556 S
C1010 N1018 1.356 . S
C1011 C1010 1.363 . S
C1011 C1017 1.363 . S
C1012 C1013 1.363 . S
C1012 C1017 1.379 1_554 S
C1012 N1019 1.356 . S
C1013 C1012 1.363 . S
C1013 C1016 1.363 . S
N1014 C1016 1.356 . S
N1014 H1026 0.984 . S
N1014 H1027 0.985 . S
N1015 C1017 1.356 . S
N1015 H1020 0.984 . S
N1015 H1021 0.985 . S
C1016 C1010 1.379 1_554 S
C1016 C1013 1.363 . S
C1016 N1014 1.356 . S
C1017 C1011 1.363 . S
C1017 C1012 1.379 1_556 S
C1017 N1015 1.356 . S
N1018 C1010 1.356 . S
N1018 H1024 0.984 . S
N1018 H1025 0.984 . S
N1019 C1012 1.356 . S
N1019 H1022 0.984 . S
N1019 H1023 0.985 . S
H1020 N1015 0.984 . S
H1021 N1015 0.985 . S
H1022 N1019 0.984 . S
H1023 N1019 0.985 . S
H1024 N1018 0.984 . S
H1025 N1018 0.984 . S
H1026 N1014 0.984 . S
H1027 N1014 0.985 . S
C1028 C1029 1.363 1_655 S
C1028 C1034 1.379 . S
C1028 N1036 1.356 . S
C1029 C1028 1.363 1_455 S
C1029 C1035 1.363 . S
C1030 C1031 1.363 . S
C1030 C1035 1.379 . S
C1030 N1037 1.356 . S
C1031 C1030 1.363 . S
C1031 C1034 1.363 1_455 S
N1032 C1034 1.356 . S
N1032 H1044 0.984 . S
N1032 H1045 0.985 . S
N1033 C1035 1.356 . S
N1033 H1038 0.984 . S
N1033 H1039 0.985 . S
C1034 C1028 1.379 . S
C1034 C1031 1.363 1_655 S
C1034 N1032 1.356 . S
C1035 C1029 1.363 . S
C1035 C1030 1.379 . S
C1035 N1033 1.356 . S
N1036 C1028 1.356 . S
N1036 H1042 0.984 . S
N1036 H1043 0.984 . S
N1037 C1030 1.356 . S
N1037 H1040 0.984 . S
N1037 H1041 0.985 . S
H1038 N1033 0.984 . S
H1039 N1033 0.985 . S
H1040 N1037 0.984 . S
H1041 N1037 0.985 . S
H1042 N1036 0.984 . S
H1043 N1036 0.984 . S
H1044 N1032 0.984 . S
H1045 N1032 0.985 . S
C1046 C1047 1.363 . S
C1046 C1052 1.379 . S
C1046 N1054 1.356 . S
C1047 C1046 1.363 . S
C1047 C1053 1.363 . S
C1048 C1049 1.363 . S
C1048 C1053 1.379 . S
C1048 N1055 1.356 . S
C1049 C1048 1.363 . S
C1049 C1052 1.363 . S
N1050 C1052 1.356 . S
N1050 H1062 0.984 . S
N1050 H1063 0.985 . S
N1051 C1053 1.356 . S
N1051 H1056 0.984 . S
N1051 H1057 0.985 . S
C1052 C1046 1.379 . S
C1052 C1049 1.363 . S
C1052 N1050 1.356 . S
C1053 C1047 1.363 . S
C1053 C1048 1.379 . S
C1053 N1051 1.356 . S
N1054 C1046 1.356 . S
N1054 H1060 0.984 . S
N1054 H1061 0.984 . S
N1055 C1048 1.356 . S
N1055 H1058 0.984 . S
N1055 H1059 0.985 . S
H1056 N1051 0.984 . S
H1057 N1051 0.985 . S
H1058 N1055 0.984 . S
H1059 N1055 0.985 . S
H1060 N1054 0.984 . S
H1061 N1054 0.984 . S
H1062 N1050 0.984 . S
H1063 N1050 0.985 . S
C1064 C1065 1.363 . S
C1064 C1070 1.379 . S
C1064 N1072 1.356 . S
C1065 C1064 1.363 . S
C1065 C1071 1.363 . S
C1066 C1067 1.363 . S
C1066 C1071 1.379 . S
C1066 N1073 1.356 . S
C1067 C1066 1.363 . S
C1067 C1070 1.363 . S
N1068 C1070 1.356 . S
N1068 H1080 0.984 . S
N1068 H1081 0.985 . S
N1069 C1071 1.356 . S
N1069 H1074 0.984 . S
N1069 H1075 0.985 . S
C1070 C1064 1.379 . S
C1070 C1067 1.363 . S
C1070 N1068 1.356 . S
C1071 C1065 1.363 . S
C1071 C1066 1.379 . S
C1071 N1069 1.356 . S
N1072 C1064 1.356 . S
N1072 H1078 0.984 . S
N1072 H1079 0.984 . S
N1073 C1066 1.356 . S
N1073 H1076 0.984 . S
N1073 H1077 0.985 . S
H1074 N1069 0.984 . S
H1075 N1069 0.985 . S
H1076 N1073 0.984 . S
H1077 N1073 0.985 . S
H1078 N1072 0.984 . S
H1079 N1072 0.984 . S
H1080 N1068 0.984 . S
H1081 N1068 0.985 . S
C1082 C1083 1.363 . S
C1082 C1088 1.379 1_554 S
C1082 N1090 1.356 . S
C1083 C1082 1.363 . S
C1083 C1089 1.363 . S
C1084 C1085 1.363 . S
C1084 C1089 1.379 1_556 S
C1084 N1091 1.356 . S
C1085 C1084 1.363 . S
C1085 C1088 1.363 . S
N1086 C1088 1.356 . S
N1086 H1098 0.984 . S
N1086 H1099 0.985 . S
N1087 C1089 1.356 . S
N1087 H1092 0.984 . S
N1087 H1093 0.985 . S
C1088 C1082 1.379 1_556 S
C1088 C1085 1.363 . S
C1088 N1086 1.356 . S
C1089 C1083 1.363 . S
C1089 C1084 1.379 1_554 S
C1089 N1087 1.356 . S
N1090 C1082 1.356 . S
N1090 H1096 0.984 . S
N1090 H1097 0.984 . S
N1091 C1084 1.356 . S
N1091 H1094 0.984 . S
N1091 H1095 0.985 . S
H1092 N1087 0.984 . S
H1093 N1087 0.985 . S
H1094 N1091 0.984 . S
H1095 N1091 0.985 . S
H1096 N1090 0.984 . S
H1097 N1090 0.984 . S
H1098 N1086 0.984 . S
H1099 N1086 0.985 . S
C1100 C1101 1.363 1_455 S
C1100 C1106 1.379 . S
C1100 N1108 1.356 . S
C1101 C1100 1.363 1_655 S
C1101 C1107 1.363 . S
C1102 C1103 1.363 . S
C1102 C1107 1.379 . S
C1102 N1109 1.356 . S
C1103 C1102 1.363 . S
C1103 C1106 1.363 1_655 S
N1104 C1106 1.356 . S
N1104 H1116 0.984 . S
N1104 H1117 0.985 . S
N1105 C1107 1.356 . S
N1105 H1110 0.984 . S
N1105 H1111 0.985 . S
C1106 C1100 1.379 . S
C1106 C1103 1.363 1_455 S
C1106 N1104 1.356 . S
C1107 C1101 1.363 . S
C1107 C1102 1.379 . S
C1107 N1105 1.356 . S
N1108 C1100 1.356 . S
N1108 H1114 0.984 . S
N1108 H1115 0.984 . S
N1109 C1102 1.356 . S
N1109 H1112 0.984 . S
N1109 H1113 0.985 . S
H1110 N1105 0.984 . S
H1111 N1105 0.985 . S
H1112 N1109 0.984 . S
H1113 N1109 0.985 . S
H1114 N1108 0.984 . S
H1115 N1108 0.984 . S
H1116 N1104 0.984 . S
H1117 N1104 0.985 . S
C1118 C1119 1.363 . S
C1118 C1124 1.379 . S
C1118 N1126 1.356 . S
C1119 C1118 1.363 . S
C1119 C1125 1.363 . S
C1120 C1121 1.363 . S
C1120 C1125 1.379 . S
C1120 N1127 1.356 . S
C1121 C1120 1.363 . S
C1121 C1124 1.363 . S
N1122 C1124 1.356 . S
N1122 H1134 0.984 . S
N1122 H1135 0.985 . S
N1123 C1125 1.356 . S
N1123 H1128 0.984 . S
N1123 H1129 0.985 . S
C1124 C1118 1.379 . S
C1124 C1121 1.363 . S
C1124 N1122 1.356 . S
C1125 C1119 1.363 . S
C1125 C1120 1.379 . S
C1125 N1123 1.356 . S
N1126 C1118 1.356 . S
N1126 H1132 0.984 . S
N1126 H1133 0.984 . S
N1127 C1120 1.356 . S
N1127 H1130 0.984 . S
N1127 H1131 0.985 . S
H1128 N1123 0.984 . S
H1129 N1123 0.985 . S
H1130 N1127 0.984 . S
H1131 N1127 0.985 . S
H1132 N1126 0.984 . S
H1133 N1126 0.984 . S
H1134 N1122 0.984 . S
H1135 N1122 0.985 . S
C1136 C1137 1.363 . S
C1136 C1142 1.379 . S
C1136 N1144 1.356 . S
C1137 C1136 1.363 . S
C1137 C1143 1.363 . S
C1138 C1139 1.363 . S
C1138 C1143 1.379 . S
C1138 N1145 1.356 . S
C1139 C1138 1.363 . S
C1139 C1142 1.363 . S
N1140 C1142 1.356 . S
N1140 H1152 0.984 . S
N1140 H1153 0.985 . S
N1141 C1143 1.356 . S
N1141 H1146 0.984 . S
N1141 H1147 0.985 . S
C1142 C1136 1.379 . S
C1142 C1139 1.363 . S
C1142 N1140 1.356 . S
C1143 C1137 1.363 . S
C1143 C1138 1.379 . S
C1143 N1141 1.356 . S
N1144 C1136 1.356 . S
N1144 H1150 0.984 . S
N1144 H1151 0.984 . S
N1145 C1138 1.356 . S
N1145 H1148 0.984 . S
N1145 H1149 0.985 . S
H1146 N1141 0.984 . S
H1147 N1141 0.985 . S
H1148 N1145 0.984 . S
H1149 N1145 0.985 . S
H1150 N1144 0.984 . S
H1151 N1144 0.984 . S
H1152 N1140 0.984 . S
H1153 N1140 0.985 . S
C1154 C1155 1.363 . S
C1154 C1160 1.379 . S
C1154 N1162 1.356 . S
C1155 C1154 1.363 . S
C1155 C1161 1.363 . S
C1156 C1157 1.363 . S
C1156 C1161 1.379 . S
C1156 N1163 1.356 . S
C1157 C1156 1.363 . S
C1157 C1160 1.363 . S
N1158 C1160 1.356 . S
N1158 H1170 0.984 . S
N1158 H1171 0.985 . S
N1159 C1161 1.356 . S
N1159 H1164 0.984 . S
N1159 H1165 0.985 . S
C1160 C1154 1.379 . S
C1160 C1157 1.363 . S
C1160 N1158 1.356 . S
C1161 C1155 1.363 . S
C1161 C1156 1.379 . S
C1161 N1159 1.356 . S
N1162 C1154 1.356 . S
N1162 H1168 0.984 . S
N1162 H1169 0.984 . S
N1163 C1156 1.356 . S
N1163 H1166 0.984 . S
N1163 H1167 0.985 . S
H1164 N1159 0.984 . S
H1165 N1159 0.985 . S
H1166 N1163 0.984 . S
H1167 N1163 0.985 . S
H1168 N1162 0.984 . S
H1169 N1162 0.984 . S
H1170 N1158 0.984 . S
H1171 N1158 0.985 . S
C1172 C1173 1.363 . S
C1172 C1178 1.379 . S
C1172 N1180 1.356 . S
C1173 C1172 1.363 . S
C1173 C1179 1.363 . S
C1174 C1175 1.363 . S
C1174 C1179 1.379 . S
C1174 N1181 1.356 . S
C1175 C1174 1.363 . S
C1175 C1178 1.363 . S
N1176 C1178 1.356 . S
N1176 H1188 0.984 . S
N1176 H1189 0.985 . S
N1177 C1179 1.356 . S
N1177 H1182 0.984 . S
N1177 H1183 0.985 . S
C1178 C1172 1.379 . S
C1178 C1175 1.363 . S
C1178 N1176 1.356 . S
C1179 C1173 1.363 . S
C1179 C1174 1.379 . S
C1179 N1177 1.356 . S
N1180 C1172 1.356 . S
N1180 H1186 0.984 . S
N1180 H1187 0.984 . S
N1181 C1174 1.356 . S
N1181 H1184 0.984 . S
N1181 H1185 0.985 . S
H1182 N1177 0.984 . S
H1183 N1177 0.985 . S
H1184 N1181 0.984 . S
H1185 N1181 0.985 . S
H1186 N1180 0.984 . S
H1187 N1180 0.984 . S
H1188 N1176 0.984 . S
H1189 N1176 0.985 . S
C1190 C1191 1.363 . S
C1190 C1196 1.379 . S
C1190 N1198 1.356 . S
C1191 C1190 1.363 . S
C1191 C1197 1.363 . S
C1192 C1193 1.363 . S
C1192 C1197 1.379 . S
C1192 N1199 1.356 . S
C1193 C1192 1.363 . S
C1193 C1196 1.363 . S
N1194 C1196 1.356 . S
N1194 H1206 0.984 . S
N1194 H1207 0.985 . S
N1195 C1197 1.356 . S
N1195 H1200 0.984 . S
N1195 H1201 0.985 . S
C1196 C1190 1.379 . S
C1196 C1193 1.363 . S
C1196 N1194 1.356 . S
C1197 C1191 1.363 . S
C1197 C1192 1.379 . S
C1197 N1195 1.356 . S
N1198 C1190 1.356 . S
N1198 H1204 0.984 . S
N1198 H1205 0.984 . S
N1199 C1192 1.356 . S
N1199 H1202 0.984 . S
N1199 H1203 0.985 . S
H1200 N1195 0.984 . S
H1201 N1195 0.985 . S
H1202 N1199 0.984 . S
H1203 N1199 0.985 . S
H1204 N1198 0.984 . S
H1205 N1198 0.984 . S
H1206 N1194 0.984 . S
H1207 N1194 0.985 . S
C1208 C1209 1.363 . S
C1208 C1214 1.379 . S
C1208 N1216 1.356 . S
C1209 C1208 1.363 . S
C1209 C1215 1.363 . S
C1210 C1211 1.363 . S
C1210 C1215 1.379 . S
C1210 N1217 1.356 . S
C1211 C1210 1.363 . S
C1211 C1214 1.363 . S
N1212 C1214 1.356 . S
N1212 H1224 0.984 . S
N1212 H1225 0.985 . S
N1213 C1215 1.356 . S
N1213 H1218 0.984 . S
N1213 H1219 0.985 . S
C1214 C1208 1.379 . S
C1214 C1211 1.363 . S
C1214 N1212 1.356 . S
C1215 C1209 1.363 . S
C1215 C1210 1.379 . S
C1215 N1213 1.356 . S
N1216 C1208 1.356 . S
N1216 H1222 0.984 . S
N1216 H1223 0.984 . S
N1217 C1210 1.356 . S
N1217 H1220 0.984 . S
N1217 H1221 0.985 . S
H1218 N1213 0.984 . S
H1219 N1213 0.985 . S
H1220 N1217 0.984 . S
H1221 N1217 0.985 . S
H1222 N1216 0.984 . S
H1223 N1216 0.984 . S
H1224 N1212 0.984 . S
H1225 N1212 0.985 . S
C1226 C1227 1.363 . S
C1226 C1232 1.379 . S
C1226 N1234 1.356 . S
C1227 C1226 1.363 . S
C1227 C1233 1.363 . S
C1228 C1229 1.363 . S
C1228 C1233 1.379 . S
C1228 N1235 1.356 . S
C1229 C1228 1.363 . S
C1229 C1232 1.363 . S
N1230 C1232 1.356 . S
N1230 H1242 0.984 . S
N1230 H1243 0.985 . S
N1231 C1233 1.356 . S
N1231 H1236 0.984 . S
N1231 H1237 0.985 . S
C1232 C1226 1.379 . S
C1232 C1229 1.363 . S
C1232 N1230 1.356 . S
C1233 C1227 1.363 . S
C1233 C1228 1.379 . S
C1233 N1231 1.356 . S
N1234 C1226 1.356 . S
N1234 H1240 0.984 . S
N1234 H1241 0.984 . S
N1235 C1228 1.356 . S
N1235 H1238 0.984 . S
N1235 H1239 0.985 . S
H1236 N1231 0.984 . S
H1237 N1231 0.985 . S
H1238 N1235 0.984 . S
H1239 N1235 0.985 . S
H1240 N1234 0.984 . S
H1241 N1234 0.984 . S
H1242 N1230 0.984 . S
H1243 N1230 0.985 . S
C1244 C1245 1.363 . S
C1244 C1250 1.379 . S
C1244 N1252 1.356 . S
C1245 C1244 1.363 . S
C1245 C1251 1.363 . S
C1246 C1247 1.363 . S
C1246 C1251 1.379 . S
C1246 N1253 1.356 . S
C1247 C1246 1.363 . S
C1247 C1250 1.363 . S
N1248 C1250 1.356 . S
N1248 H1260 0.984 . S
N1248 H1261 0.985 . S
N1249 C1251 1.356 . S
N1249 H1254 0.984 . S
N1249 H1255 0.985 . S
C1250 C1244 1.379 . S
C1250 C1247 1.363 . S
C1250 N1248 1.356 . S
C1251 C1245 1.363 . S
C1251 C1246 1.379 . S
C1251 N1249 1.356 . S
N1252 C1244 1.356 . S
N1252 H1258 0.984 . S
N1252 H1259 0.984 . S
N1253 C1246 1.356 . S
N1253 H1256 0.984 . S
N1253 H1257 0.985 . S
H1254 N1249 0.984 . S
H1255 N1249 0.985 . S
H1256 N1253 0.984 . S
H1257 N1253 0.985 . S
H1258 N1252 0.984 . S
H1259 N1252 0.984 . S
H1260 N1248 0.984 . S
H1261 N1248 0.985 . S
C1262 C1263 1.363 . S
C1262 C1268 1.379 . S
C1262 N1270 1.356 . S
C1263 C1262 1.363 . S
C1263 C1269 1.363 . S
C1264 C1265 1.363 . S
C1264 C1269 1.379 . S
C1264 N1271 1.356 . S
C1265 C1264 1.363 . S
C1265 C1268 1.363 . S
N1266 C1268 1.356 . S
N1266 H1278 0.984 . S
N1266 H1279 0.985 . S
N1267 C1269 1.356 . S
N1267 H1272 0.984 . S
N1267 H1273 0.985 . S
C1268 C1262 1.379 . S
C1268 C1265 1.363 . S
C1268 N1266 1.356 . S
C1269 C1263 1.363 . S
C1269 C1264 1.379 . S
C1269 N1267 1.356 . S
N1270 C1262 1.356 . S
N1270 H1276 0.984 . S
N1270 H1277 0.984 . S
N1271 C1264 1.356 . S
N1271 H1274 0.984 . S
N1271 H1275 0.985 . S
H1272 N1267 0.984 . S
H1273 N1267 0.985 . S
H1274 N1271 0.984 . S
H1275 N1271 0.985 . S
H1276 N1270 0.984 . S
H1277 N1270 0.984 . S
H1278 N1266 0.984 . S
H1279 N1266 0.985 . S
C1280 C1281 1.363 . S
C1280 C1286 1.379 . S
C1280 N1288 1.356 . S
C1281 C1280 1.363 . S
C1281 C1287 1.363 . S
C1282 C1283 1.363 . S
C1282 C1287 1.379 . S
C1282 N1289 1.356 . S
C1283 C1282 1.363 . S
C1283 C1286 1.363 . S
N1284 C1286 1.356 . S
N1284 H1296 0.984 . S
N1284 H1297 0.985 . S
N1285 C1287 1.356 . S
N1285 H1290 0.984 . S
N1285 H1291 0.985 . S
C1286 C1280 1.379 . S
C1286 C1283 1.363 . S
C1286 N1284 1.356 . S
C1287 C1281 1.363 . S
C1287 C1282 1.379 . S
C1287 N1285 1.356 . S
N1288 C1280 1.356 . S
N1288 H1294 0.984 . S
N1288 H1295 0.984 . S
N1289 C1282 1.356 . S
N1289 H1292 0.984 . S
N1289 H1293 0.985 . S
H1290 N1285 0.984 . S
H1291 N1285 0.985 . S
H1292 N1289 0.984 . S
H1293 N1289 0.985 . S
H1294 N1288 0.984 . S
H1295 N1288 0.984 . S
H1296 N1284 0.984 . S
H1297 N1284 0.985 . S
C1298 C1299 1.363 . S
C1298 C1304 1.379 . S
C1298 N1306 1.356 . S
C1299 C1298 1.363 . S
C1299 C1305 1.363 . S
C1300 C1301 1.363 . S
C1300 C1305 1.379 . S
C1300 N1307 1.356 . S
C1301 C1300 1.363 . S
C1301 C1304 1.363 . S
N1302 C1304 1.356 . S
N1302 H1314 0.984 . S
N1302 H1315 0.985 . S
N1303 C1305 1.356 . S
N1303 H1308 0.984 . S
N1303 H1309 0.985 . S
C1304 C1298 1.379 . S
C1304 C1301 1.363 . S
C1304 N1302 1.356 . S
C1305 C1299 1.363 . S
C1305 C1300 1.379 . S
C1305 N1303 1.356 . S
N1306 C1298 1.356 . S
N1306 H1312 0.984 . S
N1306 H1313 0.984 . S
N1307 C1300 1.356 . S
N1307 H1310 0.984 . S
N1307 H1311 0.985 . S
H1308 N1303 0.984 . S
H1309 N1303 0.985 . S
H1310 N1307 0.984 . S
H1311 N1307 0.985 . S
H1312 N1306 0.984 . S
H1313 N1306 0.984 . S
H1314 N1302 0.984 . S
H1315 N1302 0.985 . S
C1316 C1317 1.363 . S
C1316 C1322 1.379 . S
C1316 N1324 1.356 . S
C1317 C1316 1.363 . S
C1317 C1323 1.363 . S
C1318 C1319 1.363 . S
C1318 C1323 1.379 . S
C1318 N1325 1.356 . S
C1319 C1318 1.363 . S
C1319 C1322 1.363 . S
N1320 C1322 1.356 . S
N1320 H1332 0.984 . S
N1320 H1333 0.985 . S
N1321 C1323 1.356 . S
N1321 H1326 0.984 . S
N1321 H1327 0.985 . S
C1322 C1316 1.379 . S
C1322 C1319 1.363 . S
C1322 N1320 1.356 . S
C1323 C1317 1.363 . S
C1323 C1318 1.379 . S
C1323 N1321 1.356 . S
N1324 C1316 1.356 . S
N1324 H1330 0.984 . S
N1324 H1331 0.984 . S
N1325 C1318 1.356 . S
N1325 H1328 0.984 . S
N1325 H1329 0.985 . S
H1326 N1321 0.984 . S
H1327 N1321 0.985 . S
H1328 N1325 0.984 . S
H1329 N1325 0.985 . S
H1330 N1324 0.984 . S
H1331 N1324 0.984 . S
H1332 N1320 0.984 . S
H1333 N1320 0.985 . S
C1334 C1335 1.363 . S
C1334 C1340 1.379 . S
C1334 N1342 1.356 . S
C1335 C1334 1.363 . S
C1335 C1341 1.363 . S
C1336 C1337 1.363 . S
C1336 C1341 1.379 . S
C1336 N1343 1.356 . S
C1337 C1336 1.363 . S
C1337 C1340 1.363 . S
N1338 C1340 1.356 . S
N1338 H1350 0.984 . S
N1338 H1351 0.985 . S
N1339 C1341 1.356 . S
N1339 H1344 0.984 . S
N1339 H1345 0.985 . S
C1340 C1334 1.379 . S
C1340 C1337 1.363 . S
C1340 N1338 1.356 . S
C1341 C1335 1.363 . S
C1341 C1336 1.379 . S
C1341 N1339 1.356 . S
N1342 C1334 1.356 . S
N1342 H1348 0.984 . S
N1342 H1349 0.984 . S
N1343 C1336 1.356 . S
N1343 H1346 0.984 . S
N1343 H1347 0.985 . S
H1344 N1339 0.984 . S
H1345 N1339 0.985 . S
H1346 N1343 0.984 . S
H1347 N1343 0.985 . S
H1348 N1342 0.984 . S
H1349 N1342 0.984 . S
H1350 N1338 0.984 . S
H1351 N1338 0.985 . S
C1352 C1353 1.363 . S
C1352 C1358 1.379 . S
C1352 N1360 1.356 . S
C1353 C1352 1.363 . S
C1353 C1359 1.363 . S
C1354 C1355 1.363 . S
C1354 C1359 1.379 . S
C1354 N1361 1.356 . S
C1355 C1354 1.363 . S
C1355 C1358 1.363 . S
N1356 C1358 1.356 . S
N1356 H1368 0.984 . S
N1356 H1369 0.985 . S
N1357 C1359 1.356 . S
N1357 H1362 0.984 . S
N1357 H1363 0.985 . S
C1358 C1352 1.379 . S
C1358 C1355 1.363 . S
C1358 N1356 1.356 . S
C1359 C1353 1.363 . S
C1359 C1354 1.379 . S
C1359 N1357 1.356 . S
N1360 C1352 1.356 . S
N1360 H1366 0.984 . S
N1360 H1367 0.984 . S
N1361 C1354 1.356 . S
N1361 H1364 0.984 . S
N1361 H1365 0.985 . S
H1362 N1357 0.984 . S
H1363 N1357 0.985 . S
H1364 N1361 0.984 . S
H1365 N1361 0.985 . S
H1366 N1360 0.984 . S
H1367 N1360 0.984 . S
H1368 N1356 0.984 . S
H1369 N1356 0.985 . S
C1370 C1371 1.363 . S
C1370 C1376 1.379 . S
C1370 N1378 1.356 . S
C1371 C1370 1.363 . S
C1371 C1377 1.363 . S
C1372 C1373 1.363 . S
C1372 C1377 1.379 . S
C1372 N1379 1.356 . S
C1373 C1372 1.363 . S
C1373 C1376 1.363 . S
N1374 C1376 1.356 . S
N1374 H1386 0.984 . S
N1374 H1387 0.985 . S
N1375 C1377 1.356 . S
N1375 H1380 0.984 . S
N1375 H1381 0.985 . S
C1376 C1370 1.379 . S
C1376 C1373 1.363 . S
C1376 N1374 1.356 . S
C1377 C1371 1.363 . S
C1377 C1372 1.379 . S
C1377 N1375 1.356 . S
N1378 C1370 1.356 . S
N1378 H1384 0.984 . S
N1378 H1385 0.984 . S
N1379 C1372 1.356 . S
N1379 H1382 0.984 . S
N1379 H1383 0.985 . S
H1380 N1375 0.984 . S
H1381 N1375 0.985 . S
H1382 N1379 0.984 . S
H1383 N1379 0.985 . S
H1384 N1378 0.984 . S
H1385 N1378 0.984 . S
H1386 N1374 0.984 . S
H1387 N1374 0.985 . S
C1388 C1389 1.363 . S
C1388 C1394 1.379 . S
C1388 N1396 1.356 . S
C1389 C1388 1.363 . S
C1389 C1395 1.363 . S
C1390 C1391 1.363 . S
C1390 C1395 1.379 . S
C1390 N1397 1.356 . S
C1391 C1390 1.363 . S
C1391 C1394 1.363 . S
N1392 C1394 1.356 . S
N1392 H1404 0.984 . S
N1392 H1405 0.985 . S
N1393 C1395 1.356 . S
N1393 H1398 0.984 . S
N1393 H1399 0.985 . S
C1394 C1388 1.379 . S
C1394 C1391 1.363 . S
C1394 N1392 1.356 . S
C1395 C1389 1.363 . S
C1395 C1390 1.379 . S
C1395 N1393 1.356 . S
N1396 C1388 1.356 . S
N1396 H1402 0.984 . S
N1396 H1403 0.984 . S
N1397 C1390 1.356 . S
N1397 H1400 0.984 . S
N1397 H1401 0.985 . S
H1398 N1393 0.984 . S
H1399 N1393 0.985 . S
H1400 N1397 0.984 . S
H1401 N1397 0.985 . S
H1402 N1396 0.984 . S
H1403 N1396 0.984 . S
H1404 N1392 0.984 . S
H1405 N1392 0.985 . S
C1406 C1407 1.363 . S
C1406 C1412 1.379 . S
C1406 N1414 1.356 . S
C1407 C1406 1.363 . S
C1407 C1413 1.363 . S
C1408 C1409 1.363 . S
C1408 C1413 1.379 . S
C1408 N1415 1.356 . S
C1409 C1408 1.363 . S
C1409 C1412 1.363 . S
N1410 C1412 1.356 . S
N1410 H1422 0.984 . S
N1410 H1423 0.985 . S
N1411 C1413 1.356 . S
N1411 H1416 0.984 . S
N1411 H1417 0.985 . S
C1412 C1406 1.379 . S
C1412 C1409 1.363 . S
C1412 N1410 1.356 . S
C1413 C1407 1.363 . S
C1413 C1408 1.379 . S
C1413 N1411 1.356 . S
N1414 C1406 1.356 . S
N1414 H1420 0.984 . S
N1414 H1421 0.984 . S
N1415 C1408 1.356 . S
N1415 H1418 0.984 . S
N1415 H1419 0.985 . S
H1416 N1411 0.984 . S
H1417 N1411 0.985 . S
H1418 N1415 0.984 . S
H1419 N1415 0.985 . S
H1420 N1414 0.984 . S
H1421 N1414 0.984 . S
H1422 N1410 0.984 . S
H1423 N1410 0.985 . S
C849 C38 2.275 . S
C851 C251 2.279 . S
C867 C82 0.752 . S
C869 C294 0.752 . S
C885 C347 0.656 . S
C887 C135 0.653 . S
C903 C188 1.460 . S
C905 C410 1.462 . S
C921 C250 2.279 . S
C923 C39 2.275 . S
C939 C552 0.752 . S
C941 C446 0.752 . S
C957 C340 0.656 . S
C959 C128 0.653 . S
C975 C499 1.460 . S
C977 C621 1.462 . S
C993 C674 1.507 . S
C995 C764 1.504 . S
C1011 C453 0.628 . S
C1013 C559 0.625 . S
C1029 C718 0.645 . S
C1031 C824 0.648 . S
C1047 C622 1.482 . S
C1049 C506 1.481 . S
C1065 C771 1.504 . S
C1067 C675 1.506 . S
C1083 C75 0.628 . S
C1085 C287 0.625 . S
C1101 C711 0.645 . S
C1103 C817 0.648 . S
C1119 C409 1.482 . S
C1121 C181 1.481 . S
C1137 C29 1.293 . S
C1139 C393 1.293 . S
C1155 C234 1.491 . S
C1157 C91 1.495 . S
C1173 C303 2.002 . S
C1175 C144 2.005 . S
C1191 C197 1.680 . S
C1193 C356 1.679 . S
C1209 C22 1.293 . S
C1211 C612 1.294 . S
C1227 C463 1.495 . S
C1229 C241 1.491 . S
C1245 C569 2.002 . S
C1247 C145 2.002 . S
C1263 C516 1.680 . S
C1265 C357 1.682 . S
C1281 C665 1.322 . S
C1283 C605 1.321 . S
C1299 C781 1.545 . S
C1301 C462 1.542 . S
C1317 C568 2.009 . S
C1319 C727 2.011 . S
C1335 C833 1.678 . S
C1337 C515 1.681 . S
C1353 C400 1.321 . S
C1355 C658 1.322 . S
C1371 C780 1.545 . S
C1373 C92 1.542 . S
C1389 C304 2.009 . S
C1391 C728 2.007 . S
C1407 C834 1.678 . S
C1409 C198 1.677 . S
