# Generated by pormake.
# Topology wgj, (5)-cn, num edge types: 1
# Building blocks:
#     Node 0, Type 0, BuildingBlock: XOMCOT_clean_sbu_1, # of connection points: 5
#     Node 1, Type 0, BuildingBlock: XOMCOT_clean_sbu_1, # of connection points: 5
#     Node 2, Type 0, BuildingBlock: XOMCOT_clean_sbu_1, # of connection points: 5
#     Node 3, Type 0, BuildingBlock: XOMCOT_clean_sbu_1, # of connection points: 5
#     Node 4, Type 0, BuildingBlock: XOMCOT_clean_sbu_1, # of connection points: 5
#     Node 5, Type 0, BuildingBlock: XOMCOT_clean_sbu_1, # of connection points: 5
#     Node 6, Type 0, BuildingBlock: XOMCOT_clean_sbu_1, # of connection points: 5
#     Node 7, Type 0, BuildingBlock: XOMCOT_clean_sbu_1, # of connection points: 5
#     Node 8, Type 0, BuildingBlock: XOMCOT_clean_sbu_1, # of connection points: 5
#     Node 9, Type 0, BuildingBlock: XOMCOT_clean_sbu_1, # of connection points: 5
#     Node 10, Type 0, BuildingBlock: XOMCOT_clean_sbu_1, # of connection points: 5
#     Node 11, Type 0, BuildingBlock: XOMCOT_clean_sbu_1, # of connection points: 5
#     Node 12, Type 0, BuildingBlock: XOMCOT_clean_sbu_1, # of connection points: 5
#     Node 13, Type 0, BuildingBlock: XOMCOT_clean_sbu_1, # of connection points: 5
#     Node 14, Type 0, BuildingBlock: XOMCOT_clean_sbu_1, # of connection points: 5
#     Node 15, Type 0, BuildingBlock: XOMCOT_clean_sbu_1, # of connection points: 5
#     Node 16, Type 0, BuildingBlock: XOMCOT_clean_sbu_1, # of connection points: 5
#     Node 17, Type 0, BuildingBlock: XOMCOT_clean_sbu_1, # of connection points: 5
#     Node 18, Type 0, BuildingBlock: XOMCOT_clean_sbu_1, # of connection points: 5
#     Node 19, Type 0, BuildingBlock: XOMCOT_clean_sbu_1, # of connection points: 5
#     Node 20, Type 0, BuildingBlock: XOMCOT_clean_sbu_1, # of connection points: 5
#     Node 21, Type 0, BuildingBlock: XOMCOT_clean_sbu_1, # of connection points: 5
#     Node 22, Type 0, BuildingBlock: XOMCOT_clean_sbu_1, # of connection points: 5
#     Node 23, Type 0, BuildingBlock: XOMCOT_clean_sbu_1, # of connection points: 5
#     Node 24, Type 0, BuildingBlock: XOMCOT_clean_sbu_1, # of connection points: 5
#     Node 25, Type 0, BuildingBlock: XOMCOT_clean_sbu_1, # of connection points: 5
#     Node 26, Type 0, BuildingBlock: XOMCOT_clean_sbu_1, # of connection points: 5
#     Node 27, Type 0, BuildingBlock: XOMCOT_clean_sbu_1, # of connection points: 5
#     Node 28, Type 0, BuildingBlock: XOMCOT_clean_sbu_1, # of connection points: 5
#     Node 29, Type 0, BuildingBlock: XOMCOT_clean_sbu_1, # of connection points: 5
#     Node 30, Type 0, BuildingBlock: XOMCOT_clean_sbu_1, # of connection points: 5
#     Node 31, Type 0, BuildingBlock: XOMCOT_clean_sbu_1, # of connection points: 5
#     Edge 32, Type (0, 0), BuildingBlock: CIFDUS_clean_linker_0, # of connection points: 2
#     Edge 33, Type (0, 0), BuildingBlock: CIFDUS_clean_linker_0, # of connection points: 2
#     Edge 34, Type (0, 0), BuildingBlock: CIFDUS_clean_linker_0, # of connection points: 2
#     Edge 35, Type (0, 0), BuildingBlock: CIFDUS_clean_linker_0, # of connection points: 2
#     Edge 36, Type (0, 0), BuildingBlock: CIFDUS_clean_linker_0, # of connection points: 2
#     Edge 37, Type (0, 0), BuildingBlock: CIFDUS_clean_linker_0, # of connection points: 2
#     Edge 38, Type (0, 0), BuildingBlock: CIFDUS_clean_linker_0, # of connection points: 2
#     Edge 39, Type (0, 0), BuildingBlock: CIFDUS_clean_linker_0, # of connection points: 2
#     Edge 40, Type (0, 0), BuildingBlock: CIFDUS_clean_linker_0, # of connection points: 2
#     Edge 41, Type (0, 0), BuildingBlock: CIFDUS_clean_linker_0, # of connection points: 2
#     Edge 42, Type (0, 0), BuildingBlock: CIFDUS_clean_linker_0, # of connection points: 2
#     Edge 43, Type (0, 0), BuildingBlock: CIFDUS_clean_linker_0, # of connection points: 2
#     Edge 44, Type (0, 0), BuildingBlock: CIFDUS_clean_linker_0, # of connection points: 2
#     Edge 45, Type (0, 0), BuildingBlock: CIFDUS_clean_linker_0, # of connection points: 2
#     Edge 46, Type (0, 0), BuildingBlock: CIFDUS_clean_linker_0, # of connection points: 2
#     Edge 47, Type (0, 0), BuildingBlock: CIFDUS_clean_linker_0, # of connection points: 2
#     Edge 48, Type (0, 0), BuildingBlock: CIFDUS_clean_linker_0, # of connection points: 2
#     Edge 49, Type (0, 0), BuildingBlock: CIFDUS_clean_linker_0, # of connection points: 2
#     Edge 50, Type (0, 0), BuildingBlock: CIFDUS_clean_linker_0, # of connection points: 2
#     Edge 51, Type (0, 0), BuildingBlock: CIFDUS_clean_linker_0, # of connection points: 2
#     Edge 52, Type (0, 0), BuildingBlock: CIFDUS_clean_linker_0, # of connection points: 2
#     Edge 53, Type (0, 0), BuildingBlock: CIFDUS_clean_linker_0, # of connection points: 2
#     Edge 54, Type (0, 0), BuildingBlock: CIFDUS_clean_linker_0, # of connection points: 2
#     Edge 55, Type (0, 0), BuildingBlock: CIFDUS_clean_linker_0, # of connection points: 2
#     Edge 56, Type (0, 0), BuildingBlock: CIFDUS_clean_linker_0, # of connection points: 2
#     Edge 57, Type (0, 0), BuildingBlock: CIFDUS_clean_linker_0, # of connection points: 2
#     Edge 58, Type (0, 0), BuildingBlock: CIFDUS_clean_linker_0, # of connection points: 2
#     Edge 59, Type (0, 0), BuildingBlock: CIFDUS_clean_linker_0, # of connection points: 2
#     Edge 60, Type (0, 0), BuildingBlock: CIFDUS_clean_linker_0, # of connection points: 2
#     Edge 61, Type (0, 0), BuildingBlock: CIFDUS_clean_linker_0, # of connection points: 2
#     Edge 62, Type (0, 0), BuildingBlock: CIFDUS_clean_linker_0, # of connection points: 2
#     Edge 63, Type (0, 0), BuildingBlock: CIFDUS_clean_linker_0, # of connection points: 2
#     Edge 64, Type (0, 0), BuildingBlock: CIFDUS_clean_linker_0, # of connection points: 2
#     Edge 65, Type (0, 0), BuildingBlock: CIFDUS_clean_linker_0, # of connection points: 2
#     Edge 66, Type (0, 0), BuildingBlock: CIFDUS_clean_linker_0, # of connection points: 2
#     Edge 67, Type (0, 0), BuildingBlock: CIFDUS_clean_linker_0, # of connection points: 2
#     Edge 68, Type (0, 0), BuildingBlock: CIFDUS_clean_linker_0, # of connection points: 2
#     Edge 69, Type (0, 0), BuildingBlock: CIFDUS_clean_linker_0, # of connection points: 2
#     Edge 70, Type (0, 0), BuildingBlock: CIFDUS_clean_linker_0, # of connection points: 2
#     Edge 71, Type (0, 0), BuildingBlock: CIFDUS_clean_linker_0, # of connection points: 2
#     Edge 72, Type (0, 0), BuildingBlock: CIFDUS_clean_linker_0, # of connection points: 2
#     Edge 73, Type (0, 0), BuildingBlock: CIFDUS_clean_linker_0, # of connection points: 2
#     Edge 74, Type (0, 0), BuildingBlock: CIFDUS_clean_linker_0, # of connection points: 2
#     Edge 75, Type (0, 0), BuildingBlock: CIFDUS_clean_linker_0, # of connection points: 2
#     Edge 76, Type (0, 0), BuildingBlock: CIFDUS_clean_linker_0, # of connection points: 2
#     Edge 77, Type (0, 0), BuildingBlock: CIFDUS_clean_linker_0, # of connection points: 2
#     Edge 78, Type (0, 0), BuildingBlock: CIFDUS_clean_linker_0, # of connection points: 2
#     Edge 79, Type (0, 0), BuildingBlock: CIFDUS_clean_linker_0, # of connection points: 2
#     Edge 80, Type (0, 0), BuildingBlock: CIFDUS_clean_linker_0, # of connection points: 2
#     Edge 81, Type (0, 0), BuildingBlock: CIFDUS_clean_linker_0, # of connection points: 2
#     Edge 82, Type (0, 0), BuildingBlock: CIFDUS_clean_linker_0, # of connection points: 2
#     Edge 83, Type (0, 0), BuildingBlock: CIFDUS_clean_linker_0, # of connection points: 2
#     Edge 84, Type (0, 0), BuildingBlock: CIFDUS_clean_linker_0, # of connection points: 2
#     Edge 85, Type (0, 0), BuildingBlock: CIFDUS_clean_linker_0, # of connection points: 2
#     Edge 86, Type (0, 0), BuildingBlock: CIFDUS_clean_linker_0, # of connection points: 2
#     Edge 87, Type (0, 0), BuildingBlock: CIFDUS_clean_linker_0, # of connection points: 2
#     Edge 88, Type (0, 0), BuildingBlock: CIFDUS_clean_linker_0, # of connection points: 2
#     Edge 89, Type (0, 0), BuildingBlock: CIFDUS_clean_linker_0, # of connection points: 2
#     Edge 90, Type (0, 0), BuildingBlock: CIFDUS_clean_linker_0, # of connection points: 2
#     Edge 91, Type (0, 0), BuildingBlock: CIFDUS_clean_linker_0, # of connection points: 2
#     Edge 92, Type (0, 0), BuildingBlock: CIFDUS_clean_linker_0, # of connection points: 2
#     Edge 93, Type (0, 0), BuildingBlock: CIFDUS_clean_linker_0, # of connection points: 2
#     Edge 94, Type (0, 0), BuildingBlock: CIFDUS_clean_linker_0, # of connection points: 2
#     Edge 95, Type (0, 0), BuildingBlock: CIFDUS_clean_linker_0, # of connection points: 2
#     Edge 96, Type (0, 0), BuildingBlock: CIFDUS_clean_linker_0, # of connection points: 2
#     Edge 97, Type (0, 0), BuildingBlock: CIFDUS_clean_linker_0, # of connection points: 2
#     Edge 98, Type (0, 0), BuildingBlock: CIFDUS_clean_linker_0, # of connection points: 2
#     Edge 99, Type (0, 0), BuildingBlock: CIFDUS_clean_linker_0, # of connection points: 2
#     Edge 100, Type (0, 0), BuildingBlock: CIFDUS_clean_linker_0, # of connection points: 2
#     Edge 101, Type (0, 0), BuildingBlock: CIFDUS_clean_linker_0, # of connection points: 2
#     Edge 102, Type (0, 0), BuildingBlock: CIFDUS_clean_linker_0, # of connection points: 2
#     Edge 103, Type (0, 0), BuildingBlock: CIFDUS_clean_linker_0, # of connection points: 2
#     Edge 104, Type (0, 0), BuildingBlock: CIFDUS_clean_linker_0, # of connection points: 2
#     Edge 105, Type (0, 0), BuildingBlock: CIFDUS_clean_linker_0, # of connection points: 2
#     Edge 106, Type (0, 0), BuildingBlock: CIFDUS_clean_linker_0, # of connection points: 2
#     Edge 107, Type (0, 0), BuildingBlock: CIFDUS_clean_linker_0, # of connection points: 2
#     Edge 108, Type (0, 0), BuildingBlock: CIFDUS_clean_linker_0, # of connection points: 2
#     Edge 109, Type (0, 0), BuildingBlock: CIFDUS_clean_linker_0, # of connection points: 2
#     Edge 110, Type (0, 0), BuildingBlock: CIFDUS_clean_linker_0, # of connection points: 2
#     Edge 111, Type (0, 0), BuildingBlock: CIFDUS_clean_linker_0, # of connection points: 2
# Relax obj value: 0.262
# Max RMSD: 0.143
# Mean RMSD: 0.143
data_MOF--net-wgj--node1-XOMCOT_clean_sbu_1--edge1-CIFDUS_clean_linker_0
_symmetry_space_group_name_H-M    P1
_symmetry_Int_Tables_number       1
_symmetry_cell_setting            triclinic
loop_
_symmetry_equiv_pos_as_xyz
'x, y, z'
_cell_length_a     60.217469
_cell_length_b     60.252887
_cell_length_c     26.797589
_cell_angle_alpha  89.956456
_cell_angle_beta   89.863325
_cell_angle_gamma 90.135774
loop_
_atom_site_label
_atom_site_type_symbol
_atom_site_fract_x
_atom_site_fract_y
_atom_site_fract_z
_atom_type_partial_charge
C0 C 0.19175 0.18892 0.2532 0.0
C1 C 0.20549 0.20419 0.23094 0.0
N2 N 0.21927 0.21239 0.26591 0.0
N3 N 0.19691 0.18721 0.30195 0.0
C4 C 0.21391 0.20156 0.30854 0.0
H5 H 0.1779 0.18071 0.23549 0.0
Co6 Co 0.17905 0.17237 0.34769 0.0
C7 C 0.20928 0.16483 0.43898 0.0
O8 O 0.19226 0.16739 0.46921 0.0
N9 N 0.15957 0.1572 0.39145 0.0
C10 C 0.14324 0.13017 0.43513 0.0
C11 C 0.16314 0.13814 0.41675 0.0
C12 C 0.13722 0.15992 0.39341 0.0
N13 N 0.12694 0.14379 0.41986 0.0
O14 O 0.1834 0.14497 0.30979 0.0
H15 H 0.17895 0.12974 0.41901 0.0
H16 H 0.1284 0.17269 0.37329 0.0
O17 O 0.20611 0.16628 0.39141 0.0
C18 C 0.16664 0.14087 0.28186 0.0
O19 O 0.14918 0.1538 0.28525 0.0
N20 N 0.17299 0.20005 0.37866 0.0
C21 C 0.16462 0.24543 0.39362 0.0
C22 C 0.1819 0.23464 0.41899 0.0
C23 C 0.18603 0.21209 0.41051 0.0
C24 C 0.15559 0.21009 0.35533 0.0
C25 C 0.15102 0.23262 0.3624 0.0
H26 H 0.20082 0.20527 0.42656 0.0
H27 H 0.14616 0.20093 0.32789 0.0
H28 H 0.22109 0.20522 0.34456 0.0
H29 H 0.20468 0.20952 0.19242 0.0
H30 H 0.14075 0.11476 0.45518 0.0
H31 H 0.19287 0.24375 0.44357 0.0
H32 H 0.13782 0.24017 0.34097 0.0
C33 C 0.08316 0.93858 0.50391 0.0
C34 C 0.0693 0.95405 0.48294 0.0
N35 N 0.0643 0.96921 0.51805 0.0
N36 N 0.08703 0.94407 0.55186 0.0
C37 C 0.07538 0.96287 0.55939 0.0
H38 H 0.08924 0.92375 0.48589 0.0
Co39 Co 0.10267 0.92642 0.59581 0.0
C40 C 0.10782 0.95592 0.68864 0.0
O41 O 0.10403 0.93879 0.71786 0.0
N42 N 0.11899 0.90736 0.63819 0.0
C43 C 0.14789 0.8931 0.67874 0.0
C44 C 0.13752 0.91238 0.66413 0.0
C45 C 0.11882 0.88484 0.63683 0.0
N46 N 0.13625 0.87567 0.66101 0.0
O47 O 0.12966 0.93253 0.55772 0.0
H48 H 0.14417 0.92893 0.66871 0.0
H49 H 0.10748 0.87533 0.6142 0.0
O50 O 0.10787 0.95303 0.64094 0.0
C51 C 0.13353 0.91673 0.52699 0.0
O52 O 0.12062 0.89914 0.52813 0.0
N53 N 0.0753 0.91866 0.62682 0.0
C54 C 0.03097 0.9056 0.64316 0.0
C55 C 0.03931 0.92541 0.66359 0.0
C56 C 0.06147 0.93175 0.65469 0.0
C57 C 0.06731 0.89949 0.60656 0.0
C58 C 0.0455 0.89247 0.61492 0.0
H59 H 0.06669 0.94788 0.66736 0.0
H60 H 0.0774 0.89035 0.5804 0.0
H61 H 0.07447 0.9714 0.59483 0.0
H62 H 0.06246 0.95349 0.44564 0.0
H63 H 0.16348 0.89214 0.69859 0.0
H64 H 0.02864 0.9363 0.68498 0.0
H65 H 0.0397 0.87751 0.59669 0.0
C66 C 0.32415 0.83903 0.75843 0.0
C67 C 0.30772 0.8262 0.73801 0.0
N68 N 0.29488 0.81847 0.7753 0.0
N69 N 0.32159 0.83973 0.80841 0.0
C70 C 0.30356 0.82698 0.81768 0.0
H71 H 0.3379 0.8462 0.73812 0.0
Co72 Co 0.34249 0.85266 0.85009 0.0
C73 C 0.31955 0.85953 0.95008 0.0
O74 O 0.33874 0.85533 0.97132 0.0
N75 N 0.36486 0.86616 0.88936 0.0
C76 C 0.38451 0.8938 0.9227 0.0
C77 C 0.36351 0.88635 0.91103 0.0
C78 C 0.38696 0.86188 0.88792 0.0
N79 N 0.39933 0.87846 0.90771 0.0
O80 O 0.3379 0.88097 0.81591 0.0
H81 H 0.34837 0.89584 0.91463 0.0
H82 H 0.3941 0.84798 0.86825 0.0
O83 O 0.31842 0.85917 0.902 0.0
C84 C 0.35335 0.88389 0.78358 0.0
O85 O 0.36943 0.86924 0.78109 0.0
N86 N 0.34857 0.82408 0.87681 0.0
C87 C 0.35696 0.77847 0.88845 0.0
C88 C 0.34033 0.7891 0.91647 0.0
C89 C 0.33618 0.81178 0.90963 0.0
C90 C 0.3649 0.81402 0.84973 0.0
C91 C 0.36954 0.79143 0.85529 0.0
H92 H 0.32197 0.81867 0.92829 0.0
H93 H 0.37351 0.82333 0.82109 0.0
H94 H 0.29746 0.82323 0.85474 0.0
H95 H 0.30632 0.82158 0.6991 0.0
H96 H 0.38858 0.90978 0.93872 0.0
H97 H 0.33002 0.77982 0.94229 0.0
H98 H 0.38206 0.78398 0.8316 0.0
C99 C 0.44228 0.08493 1.01735 0.0
C100 C 0.45805 0.06986 1.00234 0.0
N101 N 0.46228 0.0562 0.04095 0.0
N102 N 0.43653 0.08064 0.06503 0.0
C103 C 0.44876 0.06288 0.07814 0.0
H104 H 0.4366 0.09902 0.99599 0.0
Co105 Co 0.42019 0.09924 0.10547 0.0
C106 C 0.41223 0.07087 0.19911 0.0
O107 O 0.41595 0.08819 0.22769 0.0
N108 N 0.40336 0.11899 0.14467 0.0
C109 C 0.37387 0.13397 0.18156 0.0
C110 C 0.38411 0.11445 0.16846 0.0
C111 C 0.40417 0.14147 0.14301 0.0
N112 N 0.38632 0.15108 0.16492 0.0
O113 O 0.39408 0.09359 0.0642 0.0
H114 H 0.377 0.09806 0.17261 0.0
H115 H 0.41648 0.1506 0.12193 0.0
O116 O 0.41304 0.07323 0.15131 0.0
C117 C 0.39209 0.10925 0.03213 0.0
O118 O 0.40601 0.12602 0.03414 0.0
N119 N 0.44697 0.1068 0.13913 0.0
C120 C 0.49168 0.11783 0.1555 0.0
C121 C 0.4817 0.10018 0.18133 0.0
C122 C 0.45945 0.09458 0.17181 0.0
C123 C 0.45641 0.12445 0.1151 0.0
C124 C 0.47866 0.13021 0.12255 0.0
H125 H 0.45329 0.07939 0.18771 0.0
H126 H 0.44709 0.1331 0.08674 0.0
H127 H 0.4487 0.05573 0.11515 0.0
H128 H 0.4669 0.07005 0.96714 0.0
H129 H 0.35785 0.13531 0.19967 0.0
H130 H 0.49143 0.08987 0.20612 0.0
H131 H 0.48584 0.14377 0.10138 0.0
C132 C 0.19717 0.83845 0.29257 0.0
C133 C 0.21333 0.82521 0.31266 0.0
N134 N 0.2259 0.81737 0.27509 0.0
N135 N 0.19968 0.83924 0.24258 0.0
C136 C 0.21741 0.82625 0.23298 0.0
H137 H 0.18359 0.84581 0.31298 0.0
Co138 Co 0.17912 0.85222 0.20056 0.0
C139 C 0.20209 0.8574 0.10044 0.0
O140 O 0.18287 0.85265 0.07984 0.0
N141 N 0.15716 0.86583 0.16048 0.0
C142 C 0.13807 0.89341 0.12552 0.0
C143 C 0.15892 0.88581 0.13787 0.0
C144 C 0.13501 0.86178 0.16154 0.0
N145 N 0.123 0.8783 0.14083 0.0
O146 O 0.1842 0.8806 0.23408 0.0
H147 H 0.17424 0.89508 0.13414 0.0
H148 H 0.12752 0.84817 0.18168 0.0
O149 O 0.20329 0.85799 0.14849 0.0
C150 C 0.16837 0.88378 0.26539 0.0
O151 O 0.15203 0.86933 0.26691 0.0
N152 N 0.17232 0.8236 0.1751 0.0
C153 C 0.16022 0.77885 0.16387 0.0
C154 C 0.17818 0.78782 0.13699 0.0
C155 C 0.18408 0.81024 0.14331 0.0
C156 C 0.15535 0.8148 0.20252 0.0
C157 C 0.14874 0.79276 0.1968 0.0
H158 H 0.19881 0.81617 0.12473 0.0
H159 H 0.14745 0.82479 0.23091 0.0
H160 H 0.22334 0.82251 0.19581 0.0
H161 H 0.21467 0.82035 0.35144 0.0
H162 H 0.13427 0.90933 0.10894 0.0
H163 H 0.18783 0.77752 0.11196 0.0
H164 H 0.13531 0.78641 0.21973 0.0
C165 C 0.43741 0.95088 0.54849 0.0
C166 C 0.45173 0.96748 0.56249 0.0
N167 N 0.45839 0.97822 0.52109 0.0
N168 N 0.43492 0.95118 0.49836 0.0
C169 C 0.44794 0.96815 0.48293 0.0
H170 H 0.43057 0.93868 0.5736 0.0
Co171 Co 0.42138 0.93009 0.45707 0.0
C172 C 0.40332 0.96045 0.37138 0.0
O173 O 0.38675 0.94756 0.35802 0.0
N174 N 0.40836 0.90813 0.41608 0.0
C175 C 0.40276 0.88433 0.3538 0.0
C176 C 0.41096 0.90493 0.3666 0.0
C177 C 0.39862 0.88914 0.43229 0.0
N178 N 0.39509 0.87421 0.39538 0.0
O179 O 0.39303 0.93511 0.49106 0.0
H180 H 0.41955 0.91621 0.34175 0.0
H181 H 0.39512 0.88584 0.47094 0.0
O182 O 0.41607 0.95449 0.40733 0.0
C183 C 0.39231 0.92271 0.52999 0.0
O184 O 0.40885 0.90901 0.53812 0.0
N185 N 0.44939 0.9234 0.43023 0.0
C186 C 0.49359 0.91182 0.41176 0.0
C187 C 0.48215 0.92604 0.37904 0.0
C188 C 0.45996 0.93182 0.38916 0.0
C189 C 0.45999 0.90893 0.46101 0.0
C190 C 0.48204 0.90303 0.45272 0.0
H191 H 0.45157 0.94335 0.36479 0.0
H192 H 0.45134 0.90244 0.49332 0.0
H193 H 0.4512 0.97193 0.44413 0.0
H194 H 0.4576 0.97073 0.59993 0.0
H195 H 0.40374 0.87699 0.31706 0.0
H196 H 0.49049 0.9332 0.34698 0.0
H197 H 0.49007 0.89175 0.47847 0.0
C198 C 0.33697 0.19236 0.78688 0.0
C199 C 0.32138 0.2069 0.80499 0.0
N200 N 0.30746 0.21209 0.7675 0.0
N201 N 0.33285 0.18835 0.73829 0.0
C202 C 0.3147 0.20052 0.72759 0.0
H203 H 0.35104 0.18599 0.80728 0.0
Co204 Co 0.35166 0.17304 0.6961 0.0
C205 C 0.32281 0.16568 0.60187 0.0
O206 O 0.34003 0.16827 0.5722 0.0
N207 N 0.3718 0.15736 0.65539 0.0
C208 C 0.3883 0.13031 0.61251 0.0
C209 C 0.36825 0.13867 0.62875 0.0
C210 C 0.39423 0.15947 0.65637 0.0
N211 N 0.40462 0.14332 0.63043 0.0
O212 O 0.34605 0.14605 0.7346 0.0
H213 H 0.35225 0.13079 0.62394 0.0
H214 H 0.40292 0.17191 0.67784 0.0
O215 O 0.32565 0.16692 0.64953 0.0
C216 C 0.36183 0.1431 0.76593 0.0
O217 O 0.37884 0.15677 0.76478 0.0
N218 N 0.35907 0.2004 0.66515 0.0
C219 C 0.37083 0.24491 0.6488 0.0
C220 C 0.35359 0.23497 0.62156 0.0
C221 C 0.34761 0.2128 0.63104 0.0
C222 C 0.37619 0.2098 0.69092 0.0
C223 C 0.38234 0.23191 0.6834 0.0
H224 H 0.3329 0.20651 0.61335 0.0
H225 H 0.38428 0.20041 0.72004 0.0
H226 H 0.30779 0.20201 0.69052 0.0
H227 H 0.32074 0.21363 0.8424 0.0
H228 H 0.39078 0.11508 0.59186 0.0
H229 H 0.34392 0.24465 0.5954 0.0
H230 H 0.39562 0.23897 0.70556 0.0
C231 C 0.08543 0.07985 0.04005 0.0
C232 C 0.07133 0.06364 0.05747 0.0
N233 N 0.06616 0.05018 1.01908 0.0
N234 N 0.08917 0.07655 0.99101 0.0
C235 C 0.07734 0.05825 0.97937 0.0
H236 H 0.09145 0.0939 0.06114 0.0
Co237 Co 0.10315 0.09647 0.94909 0.0
C238 C 0.11201 0.06871 0.85389 0.0
O239 O 0.11042 0.08615 0.82469 0.0
N240 N 0.11745 0.11771 0.90863 0.0
C241 C 0.14497 0.13698 0.87362 0.0
C242 C 0.13744 0.11606 0.88615 0.0
C243 C 0.11333 0.13981 0.90969 0.0
N244 N 0.12985 0.15199 0.88893 0.0
O245 O 0.13071 0.09195 0.98591 0.0
H246 H 0.1468 0.10084 0.88274 0.0
H247 H 0.09961 0.14703 0.92991 0.0
O248 O 0.1099 0.07124 0.90143 0.0
C249 C 0.1332 0.10758 1.01783 0.0
O250 O 0.11877 0.12389 1.01812 0.0
N251 N 0.07521 0.10262 0.9199 0.0
C252 C 0.02957 0.11058 0.90786 0.0
C253 C 0.0407 0.0949 0.87806 0.0
C254 C 0.06346 0.09099 0.88495 0.0
C255 C 0.06478 0.11835 0.94793 0.0
C256 C 0.04216 0.1227 0.9424 0.0
H257 H 0.07086 0.07757 0.86451 0.0
H258 H 0.07381 0.12656 0.9775 0.0
H259 H 0.07552 0.05199 0.94178 0.0
H260 H 0.06462 0.06244 0.09488 0.0
H261 H 0.1609 0.14084 0.85694 0.0
H262 H 0.03174 0.0851 0.85086 0.0
H263 H 0.03441 0.13452 0.96731 0.0
C264 C 0.83701 0.82906 0.78766 0.0
C265 C 0.82201 0.81356 0.80478 0.0
N266 N 0.80719 0.80963 0.76822 0.0
N267 N 0.83159 0.83483 0.74071 0.0
C268 C 0.81334 0.8228 0.72989 0.0
H269 H 0.85142 0.83519 0.80742 0.0
Co270 Co 0.84874 0.85261 0.70026 0.0
C271 C 0.81867 0.86062 0.60866 0.0
O272 O 0.83577 0.86016 0.57812 0.0
N273 N 0.86725 0.87092 0.66085 0.0
C274 C 0.88127 0.90137 0.62589 0.0
C275 C 0.86206 0.89054 0.63978 0.0
C276 C 0.88976 0.8704 0.6599 0.0
N277 N 0.89886 0.88887 0.63928 0.0
O278 O 0.84123 0.87779 0.74328 0.0
H279 H 0.84549 0.89736 0.63798 0.0
H280 H 0.89931 0.85775 0.67857 0.0
O281 O 0.82198 0.85815 0.65588 0.0
C282 C 0.85679 0.88501 0.77163 0.0
O283 O 0.87707 0.87782 0.7641 0.0
N284 N 0.85762 0.82674 0.66525 0.0
C285 C 0.8695 0.78237 0.64823 0.0
C286 C 0.85193 0.79213 0.62189 0.0
C287 C 0.84591 0.81423 0.63169 0.0
C288 C 0.87535 0.81766 0.68937 0.0
C289 C 0.88153 0.79559 0.68156 0.0
H290 H 0.83081 0.82022 0.6153 0.0
H291 H 0.88361 0.82705 0.71827 0.0
H292 H 0.80545 0.82271 0.69367 0.0
H293 H 0.82227 0.80551 0.84089 0.0
H294 H 0.88204 0.91777 0.60954 0.0
H295 H 0.84191 0.7823 0.59665 0.0
H296 H 0.89508 0.78865 0.70299 0.0
C297 C 0.94715 0.08678 0.55075 0.0
C298 C 0.9621 0.07225 0.57128 0.0
N299 N 0.96809 0.05759 0.53582 0.0
N300 N 0.94355 0.08113 0.50284 0.0
C301 C 0.95656 0.06333 0.49463 0.0
H302 H 0.93983 0.101 0.56903 0.0
Co303 Co 0.92624 0.09775 0.4607 0.0
C304 C 0.91827 0.06802 0.36932 0.0
O305 O 0.91888 0.08548 0.33993 0.0
N306 N 0.90834 0.11581 0.42002 0.0
C307 C 0.87739 0.12993 0.38807 0.0
C308 C 0.88801 0.11074 0.40231 0.0
C309 C 0.90958 0.13822 0.41637 0.0
N310 N 0.89084 0.14736 0.39752 0.0
O311 O 0.90053 0.09036 0.50288 0.0
H312 H 0.88058 0.09439 0.40384 0.0
H313 H 0.92324 0.14775 0.43113 0.0
O314 O 0.92097 0.07074 0.41669 0.0
C315 C 0.89207 0.10591 0.52949 0.0
O316 O 0.8983 0.12645 0.52089 0.0
N317 N 0.95255 0.10646 0.42638 0.0
C318 C 0.99668 0.11913 0.40693 0.0
C319 C 0.98692 0.10125 0.38146 0.0
C320 C 0.96498 0.09483 0.39251 0.0
C321 C 0.96169 0.12427 0.45021 0.0
C322 C 0.98363 0.13085 0.44119 0.0
H323 H 0.95898 0.07964 0.3764 0.0
H324 H 0.95234 0.13254 0.47924 0.0
H325 H 0.95791 0.05503 0.45895 0.0
H326 H 0.96878 0.07301 0.60871 0.0
H327 H 0.86033 0.13095 0.37575 0.0
H328 H 0.99663 0.09141 0.35561 0.0
H329 H 0.99055 0.14462 0.46202 0.0
C330 C 0.68754 0.19599 0.27886 0.0
C331 C 0.70247 0.2118 0.29436 0.0
N332 N 0.7175 0.21507 0.25761 0.0
N333 N 0.6931 0.18925 0.23268 0.0
C334 C 0.71153 0.2009 0.22088 0.0
H335 H 0.67277 0.19071 0.29864 0.0
Co336 Co 0.67454 0.17221 0.19383 0.0
C337 C 0.69953 0.16661 0.09598 0.0
O338 O 0.68059 0.17007 0.073 0.0
N339 N 0.65444 0.15462 0.15607 0.0
C340 C 0.63893 0.12625 0.11538 0.0
C341 C 0.65866 0.13563 0.13096 0.0
C342 C 0.63194 0.15589 0.15658 0.0
N343 N 0.62215 0.13895 0.1321 0.0
O344 O 0.68267 0.14639 0.23415 0.0
H345 H 0.67498 0.12847 0.12622 0.0
H346 H 0.62263 0.16828 0.17664 0.0
O347 O 0.6997 0.16673 0.14409 0.0
C348 C 0.66752 0.13929 0.26396 0.0
O349 O 0.64728 0.14696 0.25884 0.0
N350 N 0.66518 0.19877 0.16201 0.0
C351 C 0.6517 0.24298 0.14842 0.0
C352 C 0.67083 0.23482 0.1247 0.0
C353 C 0.67741 0.21271 0.13225 0.0
C354 C 0.6467 0.20666 0.18552 0.0
C355 C 0.63939 0.22839 0.17839 0.0
H356 H 0.69326 0.20773 0.11746 0.0
H357 H 0.63863 0.19666 0.21371 0.0
H358 H 0.71973 0.19977 0.18506 0.0
H359 H 0.70138 0.22112 0.32876 0.0
H360 H 0.637 0.11066 0.09575 0.0
H361 H 0.68112 0.24567 0.10213 0.0
H362 H 0.62507 0.23415 0.19916 0.0
C363 C 0.58052 0.94197 0.04 0.0
C364 C 0.56514 0.95749 0.05469 0.0
N365 N 0.56053 0.97054 1.0152 0.0
N366 N 0.58566 0.94535 0.99162 0.0
C367 C 0.57347 0.96303 0.97777 0.0
H368 H 0.58629 0.92817 0.06218 0.0
Co369 Co 0.60093 0.92582 0.95129 0.0
C370 C 0.61136 0.95411 0.85762 0.0
O371 O 0.60978 0.93684 0.82791 0.0
N372 N 0.61649 0.90509 0.91234 0.0
C373 C 0.64516 0.88667 0.88018 0.0
C374 C 0.63688 0.90735 0.89191 0.0
C375 C 0.61289 0.88291 0.91297 0.0
N376 N 0.63007 0.87125 0.89388 0.0
O377 O 0.62755 0.93054 0.99154 0.0
H378 H 0.64593 0.92284 0.88946 0.0
H379 H 0.59895 0.87526 0.93172 0.0
O380 O 0.60867 0.95135 0.90496 0.0
C381 C 0.62923 0.91494 1.02385 0.0
O382 O 0.6146 0.89875 1.02295 0.0
N383 N 0.57371 0.91929 0.91846 0.0
C384 C 0.5284 0.91069 0.9015 0.0
C385 C 0.53985 0.92702 0.87397 0.0
C386 C 0.56245 0.93118 0.88317 0.0
C387 C 0.56296 0.90296 0.94433 0.0
C388 C 0.54053 0.89824 0.93619 0.0
H389 H 0.57 0.94507 0.86451 0.0
H390 H 0.57147 0.89457 0.97436 0.0
H391 H 0.5731 0.96945 0.94011 0.0
H392 H 0.55677 0.95798 0.09045 0.0
H393 H 0.66149 0.88325 0.86513 0.0
H394 H 0.53122 0.93716 0.84689 0.0
H395 H 0.53245 0.8859 0.95939 0.0
C396 C 0.8302 0.19011 0.77595 0.0
C397 C 0.81436 0.20457 0.7588 0.0
N398 N 0.8006 0.20944 0.79698 0.0
N399 N 0.82633 0.18581 0.82449 0.0
C400 C 0.80812 0.19767 0.83627 0.0
H401 H 0.84433 0.184 0.75515 0.0
Co402 Co 0.84582 0.17069 0.86448 0.0
C403 C 0.82071 0.1618 0.96136 0.0
O404 O 0.83964 0.16374 0.98525 0.0
N405 N 0.86678 0.15506 0.90313 0.0
C406 C 0.88542 0.12614 0.93337 0.0
C407 C 0.86473 0.13418 0.92098 0.0
C408 C 0.88887 0.15925 0.90506 0.0
N409 N 0.90066 0.1419 0.92284 0.0
O410 O 0.83991 0.14398 0.82476 0.0
H411 H 0.84941 0.12478 0.92129 0.0
H412 H 0.89652 0.17376 0.88874 0.0
O413 O 0.82071 0.16386 0.91347 0.0
C414 C 0.85593 0.13813 0.79596 0.0
O415 O 0.87531 0.14784 0.80149 0.0
N416 N 0.85305 0.19809 0.89563 0.0
C417 C 0.86176 0.24363 0.9083 0.0
C418 C 0.84536 0.23279 0.93682 0.0
C419 C 0.84105 0.21011 0.92954 0.0
C420 C 0.86942 0.20827 0.86872 0.0
C421 C 0.8742 0.23081 0.87474 0.0
H422 H 0.82692 0.20311 0.9484 0.0
H423 H 0.87773 0.19918 0.83935 0.0
H424 H 0.80148 0.19895 0.87369 0.0
H425 H 0.81357 0.21159 0.72167 0.0
H426 H 0.88904 0.10956 0.94655 0.0
H427 H 0.83522 0.24194 0.96308 0.0
H428 H 0.88656 0.23838 0.85072 0.0
C429 C 0.5842 0.08496 0.51447 0.0
C430 C 0.56895 0.06976 0.49726 0.0
N431 N 0.56369 0.05597 0.53515 0.0
N432 N 0.58853 0.08065 0.56278 0.0
C433 C 0.57587 0.06292 0.57432 0.0
H434 H 0.59107 0.09878 0.49375 0.0
Co435 Co 0.60531 0.09824 0.60415 0.0
C436 C 0.61275 0.06838 0.69668 0.0
O437 O 0.61186 0.0855 0.72695 0.0
N438 N 0.62251 0.11708 0.64467 0.0
C439 C 0.65096 0.13217 0.6855 0.0
C440 C 0.64186 0.11265 0.66799 0.0
C441 C 0.62059 0.13945 0.64727 0.0
N442 N 0.63764 0.14901 0.67185 0.0
O443 O 0.63129 0.09127 0.56291 0.0
H444 H 0.64954 0.09646 0.66966 0.0
H445 H 0.60763 0.14877 0.62899 0.0
O446 O 0.61066 0.07161 0.64932 0.0
C447 C 0.6387 0.10708 0.53534 0.0
O448 O 0.63143 0.12727 0.54349 0.0
N449 N 0.57873 0.10673 0.63717 0.0
C450 C 0.53446 0.11921 0.65393 0.0
C451 C 0.54422 0.1021 0.68186 0.0
C452 C 0.56628 0.09577 0.67222 0.0
C453 C 0.5696 0.12389 0.61113 0.0
C454 C 0.5476 0.13037 0.61879 0.0
H455 H 0.57238 0.08112 0.69044 0.0
H456 H 0.57907 0.13166 0.58151 0.0
H457 H 0.57456 0.05609 0.61155 0.0
H458 H 0.56191 0.06928 0.46016 0.0
H459 H 0.66683 0.134 0.70395 0.0
H460 H 0.53445 0.09274 0.70859 0.0
H461 H 0.54071 0.14357 0.5962 0.0
C462 C 0.68868 0.8304 0.26838 0.0
C463 C 0.7031 0.81407 0.2531 0.0
N464 N 0.71531 0.80787 0.29275 0.0
N465 N 0.69199 0.83454 0.31725 0.0
C466 C 0.70848 0.82074 0.33083 0.0
H467 H 0.67564 0.83765 0.24608 0.0
Co468 Co 0.67386 0.85104 0.35856 0.0
C469 C 0.70364 0.85888 0.45115 0.0
O470 O 0.6866 0.85745 0.48174 0.0
N471 N 0.65468 0.86795 0.39869 0.0
C472 C 0.63996 0.89654 0.43956 0.0
C473 C 0.65937 0.88706 0.4228 0.0
C474 C 0.6322 0.86665 0.39966 0.0
N475 N 0.62288 0.88378 0.4245 0.0
O476 O 0.68004 0.87734 0.31807 0.0
H477 H 0.67572 0.89442 0.4254 0.0
H478 H 0.62275 0.85402 0.3804 0.0
O479 O 0.70035 0.85694 0.40379 0.0
C480 C 0.66417 0.88001 0.28684 0.0
O481 O 0.6471 0.86644 0.28907 0.0
N482 N 0.66562 0.82425 0.39152 0.0
C483 C 0.65371 0.77974 0.40788 0.0
C484 C 0.67038 0.7899 0.43651 0.0
C485 C 0.6764 0.81208 0.42717 0.0
C486 C 0.64875 0.81477 0.36505 0.0
C487 C 0.64263 0.79261 0.37235 0.0
H488 H 0.69075 0.81849 0.44607 0.0
H489 H 0.64096 0.82409 0.3354 0.0
H490 H 0.71458 0.8193 0.36861 0.0
H491 H 0.70345 0.80627 0.21674 0.0
H492 H 0.63841 0.91231 0.45856 0.0
H493 H 0.67961 0.78036 0.46371 0.0
H494 H 0.62972 0.78541 0.34935 0.0
C495 C 0.94231 0.94139 1.01919 0.0
C496 C 0.95721 0.95685 1.00151 0.0
N497 N 0.96208 0.97093 0.039 0.0
N498 N 0.93782 0.9458 0.0674 0.0
C499 C 0.94998 0.96394 0.0784 0.0
H500 H 0.93596 0.9272 0.99899 0.0
Co501 Co 0.92206 0.92729 0.10893 0.0
C502 C 0.91306 0.95571 0.20236 0.0
O503 O 0.91344 0.9381 0.23128 0.0
N504 N 0.90591 0.9074 0.14937 0.0
C505 C 0.87677 0.88923 0.18067 0.0
C506 C 0.88503 0.90976 0.16701 0.0
C507 C 0.90994 0.88536 0.15294 0.0
N508 N 0.89247 0.87386 0.17141 0.0
O509 O 0.89561 0.93331 0.0687 0.0
H510 H 0.87574 0.92509 0.16608 0.0
H511 H 0.92443 0.87747 0.1373 0.0
O512 O 0.91581 0.95325 0.15495 0.0
C513 C 0.88868 0.91733 0.04114 0.0
O514 O 0.89684 0.89742 0.0485 0.0
N515 N 0.94914 0.92 0.14094 0.0
C516 C 0.99449 0.91105 0.15494 0.0
C517 C 0.98362 0.92745 0.1832 0.0
C518 C 0.96101 0.93183 0.17535 0.0
C519 C 0.95931 0.90353 0.11454 0.0
C520 C 0.98176 0.89864 0.12121 0.0
H521 H 0.95395 0.94586 0.19423 0.0
H522 H 0.95027 0.89521 0.08513 0.0
H523 H 0.95116 0.97094 0.11546 0.0
H524 H 0.96443 0.95725 0.96449 0.0
H525 H 0.86011 0.88576 0.19384 0.0
H526 H 0.99273 0.93753 0.20963 0.0
H527 H 0.98937 0.88624 0.0975 0.0
C528 C 0.69346 0.69049 0.77091 0.0
C529 C 0.70946 0.70469 0.75286 0.0
N530 N 0.72435 0.70834 0.78943 0.0
N531 N 0.69833 0.68517 0.81842 0.0
C532 C 0.7173 0.69616 0.82866 0.0
H533 H 0.67859 0.68525 0.7516 0.0
Co534 Co 0.67908 0.67019 0.85973 0.0
C535 C 0.70681 0.66126 0.95366 0.0
O536 O 0.68944 0.66496 0.98224 0.0
N537 N 0.65828 0.65489 0.90001 0.0
C538 C 0.63941 0.62682 0.9341 0.0
C539 C 0.66022 0.63455 0.92071 0.0
C540 C 0.63618 0.65908 0.90144 0.0
N541 N 0.62425 0.64227 0.92154 0.0
O542 O 0.68423 0.64354 0.81967 0.0
H543 H 0.6755 0.62519 0.92231 0.0
H544 H 0.62862 0.67313 0.88328 0.0
O545 O 0.70462 0.66257 0.90593 0.0
C546 C 0.66825 0.63678 0.79196 0.0
O547 O 0.64837 0.64507 0.79925 0.0
N548 N 0.67278 0.6976 0.89157 0.0
C549 C 0.66434 0.74308 0.90554 0.0
C550 C 0.6813 0.73227 0.93211 0.0
C551 C 0.68549 0.70963 0.92408 0.0
C552 C 0.65604 0.70781 0.86623 0.0
C553 C 0.65137 0.73029 0.87299 0.0
H554 H 0.70003 0.70266 0.94109 0.0
H555 H 0.64734 0.69883 0.83732 0.0
H556 H 0.72489 0.69657 0.86521 0.0
H557 H 0.70965 0.71238 0.71634 0.0
H558 H 0.63569 0.61062 0.94949 0.0
H559 H 0.69194 0.74143 0.95733 0.0
H560 H 0.63864 0.73785 0.85018 0.0
C561 C 0.5806 0.43845 1.01772 0.0
C562 C 0.56615 0.45399 0.99911 0.0
N563 N 0.56239 0.46918 0.03497 0.0
N564 N 0.58595 0.44387 0.06497 0.0
C565 C 0.57474 0.46277 0.07433 0.0
H566 H 0.58599 0.4236 0.99873 0.0
Co567 Co 0.6019 0.42581 0.10736 0.0
C568 C 0.60752 0.45476 0.20112 0.0
O569 O 0.60404 0.43749 0.23013 0.0
N570 N 0.61846 0.40642 0.1482 0.0
C571 C 0.64751 0.39147 0.18689 0.0
C572 C 0.63709 0.41101 0.17416 0.0
C573 C 0.61824 0.38397 0.14498 0.0
N574 N 0.63574 0.37438 0.16796 0.0
O575 O 0.62861 0.43197 0.06829 0.0
H576 H 0.64377 0.42747 0.17994 0.0
H577 H 0.60683 0.37487 0.12173 0.0
O578 O 0.60745 0.45204 0.15337 0.0
C579 C 0.63146 0.4164 0.03637 0.0
O580 O 0.61782 0.39938 0.03719 0.0
N581 N 0.57478 0.41785 0.13908 0.0
C582 C 0.53055 0.40471 0.15584 0.0
C583 C 0.53903 0.42426 0.1772 0.0
C584 C 0.56114 0.43066 0.16808 0.0
C585 C 0.56664 0.39894 0.11796 0.0
C586 C 0.54488 0.39186 0.12653 0.0
H587 H 0.56642 0.44665 0.18144 0.0
H588 H 0.57652 0.39013 0.09084 0.0
H589 H 0.57443 0.47088 0.1103 0.0
H590 H 0.55847 0.4537 0.96265 0.0
H591 H 0.6632 0.39014 0.20621 0.0
H592 H 0.52845 0.43494 0.19938 0.0
H593 H 0.53894 0.37714 0.10757 0.0
C594 C 0.84195 0.322 0.28034 0.0
C595 C 0.82609 0.30765 0.26258 0.0
N596 N 0.80817 0.30889 0.29262 0.0
N597 N 0.83408 0.33236 0.32125 0.0
C598 C 0.8133 0.32432 0.32728 0.0
H599 H 0.85877 0.32348 0.26657 0.0
Co600 Co 0.85189 0.34912 0.36342 0.0
C601 C 0.82136 0.35356 0.45475 0.0
O602 O 0.83746 0.34683 0.48408 0.0
N603 N 0.87116 0.36648 0.40383 0.0
C604 C 0.88594 0.39198 0.45427 0.0
C605 C 0.86656 0.38188 0.43902 0.0
C606 C 0.8934 0.36858 0.39662 0.0
N607 N 0.90285 0.38362 0.42736 0.0
O608 O 0.84641 0.37516 0.32214 0.0
H609 H 0.85015 0.38656 0.45126 0.0
H610 H 0.90256 0.35981 0.36815 0.0
O611 O 0.82521 0.35569 0.4076 0.0
C612 C 0.86105 0.37639 0.28749 0.0
O613 O 0.87696 0.36156 0.28642 0.0
N614 N 0.85898 0.3224 0.39854 0.0
C615 C 0.87061 0.27813 0.41854 0.0
C616 C 0.84901 0.28574 0.42769 0.0
C617 C 0.84353 0.30793 0.41765 0.0
C618 C 0.88008 0.31507 0.3899 0.0
C619 C 0.88638 0.29329 0.40078 0.0
H620 H 0.82641 0.31274 0.42169 0.0
H621 H 0.89173 0.32536 0.37014 0.0
H622 H 0.80266 0.32847 0.35843 0.0
H623 H 0.82832 0.29584 0.23256 0.0
H624 H 0.88735 0.40515 0.48152 0.0
H625 H 0.83624 0.27442 0.44068 0.0
H626 H 0.90306 0.28791 0.39173 0.0
C627 C 0.94337 0.58468 0.52209 0.0
C628 C 0.95902 0.56956 0.50672 0.0
N629 N 0.96351 0.55601 0.54537 0.0
N630 N 0.93794 0.58053 0.57004 0.0
C631 C 0.95022 0.56276 0.58287 0.0
H632 H 0.93767 0.59878 0.50081 0.0
Co633 Co 0.9223 0.59939 0.61146 0.0
C634 C 0.9169 0.57031 0.70634 0.0
O635 O 0.92085 0.58711 0.73631 0.0
N636 N 0.90628 0.61958 0.65165 0.0
C637 C 0.88044 0.63594 0.69859 0.0
C638 C 0.88907 0.61589 0.68303 0.0
C639 C 0.90711 0.642 0.6473 0.0
N640 N 0.89173 0.65233 0.67562 0.0
O641 O 0.89539 0.59294 0.57408 0.0
H642 H 0.88234 0.59974 0.69205 0.0
H643 H 0.91816 0.65074 0.6223 0.0
O644 O 0.91672 0.57364 0.65882 0.0
C645 C 0.89302 0.60773 0.54016 0.0
O646 O 0.90712 0.62436 0.5387 0.0
N647 N 0.94966 0.6076 0.64149 0.0
C648 C 0.99405 0.6209 0.65424 0.0
C649 C 0.98564 0.60207 0.67893 0.0
C650 C 0.96338 0.59565 0.67205 0.0
C651 C 0.95776 0.62582 0.61728 0.0
C652 C 0.97959 0.63299 0.62381 0.0
H653 H 0.95802 0.58022 0.68839 0.0
H654 H 0.94769 0.63396 0.58951 0.0
H655 H 0.95052 0.55574 0.61998 0.0
H656 H 0.96773 0.56973 0.47134 0.0
H657 H 0.86622 0.63826 0.7228 0.0
H658 H 0.99635 0.592 0.70211 0.0
H659 H 0.98548 0.64715 0.60258 0.0
C660 C 0.69301 0.33385 0.79757 0.0
C661 C 0.70877 0.3193 0.81492 0.0
N662 N 0.72168 0.31326 0.77616 0.0
N663 N 0.69607 0.33693 0.74819 0.0
C664 C 0.71368 0.32423 0.73627 0.0
H665 H 0.67953 0.3408 0.81911 0.0
Co666 Co 0.67708 0.35165 0.7057 0.0
C667 C 0.70662 0.36104 0.61276 0.0
O668 O 0.68962 0.36184 0.58217 0.0
N669 N 0.65693 0.36664 0.66451 0.0
C670 C 0.63875 0.39468 0.62946 0.0
C671 C 0.65927 0.38694 0.64388 0.0
C672 C 0.63483 0.36256 0.66276 0.0
N673 N 0.62328 0.3794 0.64186 0.0
O674 O 0.68212 0.37893 0.74335 0.0
H675 H 0.67464 0.39626 0.64291 0.0
H676 H 0.62711 0.34852 0.68103 0.0
O677 O 0.70312 0.35765 0.65961 0.0
C678 C 0.66603 0.38168 0.77411 0.0
O679 O 0.64937 0.36759 0.77297 0.0
N680 N 0.67019 0.3241 0.6755 0.0
C681 C 0.65957 0.27948 0.65805 0.0
C682 C 0.67426 0.29092 0.62629 0.0
C683 C 0.67964 0.31321 0.63607 0.0
C684 C 0.65527 0.31336 0.70537 0.0
C685 C 0.64983 0.29112 0.69757 0.0
H686 H 0.69213 0.32099 0.61329 0.0
H687 H 0.64828 0.32194 0.73715 0.0
H688 H 0.71956 0.32183 0.69847 0.0
H689 H 0.71016 0.31308 0.85269 0.0
H690 H 0.63542 0.41083 0.61348 0.0
H691 H 0.68232 0.28241 0.59564 0.0
H692 H 0.63833 0.28297 0.72281 0.0
C693 C 0.94601 0.44209 0.04575 0.0
C694 C 0.96057 0.4583 0.06115 0.0
N695 N 0.9644 0.47201 1.02235 0.0
N696 N 0.94077 0.44561 0.99752 0.0
C697 C 0.95214 0.46403 0.9844 0.0
H698 H 0.94056 0.42801 0.06761 0.0
Co699 Co 0.92526 0.42626 0.95702 0.0
C700 C 0.9163 0.45498 0.86334 0.0
O701 O 0.91757 0.4379 0.83302 0.0
N702 N 0.9094 0.40575 0.91766 0.0
C703 C 0.8807 0.38772 0.88426 0.0
C704 C 0.88916 0.40829 0.8969 0.0
C705 C 0.91273 0.38353 0.91743 0.0
N706 N 0.89557 0.37213 0.8975 0.0
O707 O 0.89856 0.43154 0.9965 0.0
H708 H 0.88035 0.42388 0.89464 0.0
H709 H 0.92644 0.37555 0.93597 0.0
O710 O 0.91855 0.45183 0.91058 0.0
C711 C 0.89684 0.41592 0.02879 0.0
O712 O 0.91148 0.39982 1.02788 0.0
N713 N 0.95234 0.41903 0.92512 0.0
C714 C 0.99609 0.40566 0.90533 0.0
C715 C 0.9866 0.42363 0.8795 0.0
C716 C 0.96461 0.43012 0.88998 0.0
C717 C 0.96161 0.40192 0.95096 0.0
C718 C 0.98312 0.39471 0.94109 0.0
H719 H 0.95822 0.4447 0.87184 0.0
H720 H 0.9525 0.3944 0.9814 0.0
H721 H 0.95275 0.47058 0.94683 0.0
H722 H 0.96833 0.45946 0.09745 0.0
H723 H 0.86443 0.38447 0.86875 0.0
H724 H 0.99623 0.43285 0.85228 0.0
H725 H 0.98993 0.38131 0.96323 0.0
C726 C 0.82726 0.68799 0.2988 0.0
C727 C 0.81079 0.70265 0.31162 0.0
N728 N 0.8004 0.70907 0.26963 0.0
N729 N 0.82722 0.68495 0.24886 0.0
C730 C 0.81047 0.69788 0.23244 0.0
H731 H 0.83932 0.68144 0.32448 0.0
Co732 Co 0.84861 0.67145 0.20818 0.0
C733 C 0.81774 0.65189 0.12397 0.0
O734 O 0.83019 0.63497 0.11113 0.0
N735 N 0.87095 0.65852 0.16802 0.0
C736 C 0.8941 0.65069 0.10554 0.0
C737 C 0.87342 0.65886 0.11799 0.0
C738 C 0.89056 0.65049 0.18493 0.0
N739 N 0.90502 0.64549 0.14788 0.0
O740 O 0.84416 0.6434 0.24354 0.0
H741 H 0.86149 0.66573 0.09219 0.0
H742 H 0.89485 0.64969 0.22386 0.0
O743 O 0.82422 0.66501 0.15887 0.0
C744 C 0.8566 0.6433 0.28232 0.0
O745 O 0.8698 0.66033 0.29003 0.0
N746 N 0.85469 0.6993 0.17974 0.0
C747 C 0.86231 0.74459 0.16373 0.0
C748 C 0.84817 0.73241 0.13201 0.0
C749 C 0.84467 0.70964 0.14044 0.0
C750 C 0.86932 0.71052 0.20904 0.0
C751 C 0.87335 0.7331 0.20182 0.0
H752 H 0.83309 0.70075 0.11704 0.0
H753 H 0.87698 0.70209 0.24019 0.0
H754 H 0.80654 0.70007 0.19346 0.0
H755 H 0.80789 0.70934 0.34854 0.0
H756 H 0.90071 0.6494 0.0681 0.0
H757 H 0.83951 0.74049 0.10169 0.0
H758 H 0.88417 0.74166 0.22769 0.0
C759 C 0.5809 0.58735 0.54867 0.0
C760 C 0.56494 0.57431 0.57067 0.0
N761 N 0.55686 0.56031 0.53594 0.0
N762 N 0.58317 0.58146 0.50051 0.0
C763 C 0.56839 0.56486 0.49374 0.0
H764 H 0.58949 0.60111 0.56596 0.0
Co765 Co 0.59953 0.59834 0.45627 0.0
C766 C 0.60729 0.568 0.36513 0.0
O767 O 0.60639 0.58516 0.33491 0.0
N768 N 0.61622 0.61707 0.41393 0.0
C769 C 0.64443 0.63288 0.37312 0.0
C770 C 0.63568 0.61311 0.39042 0.0
C771 C 0.61395 0.63944 0.41178 0.0
N772 N 0.63083 0.64944 0.38722 0.0
O773 O 0.626 0.59171 0.49606 0.0
H774 H 0.64376 0.59712 0.3888 0.0
H775 H 0.60097 0.64847 0.43079 0.0
O776 O 0.60478 0.57116 0.41248 0.0
C777 C 0.63518 0.60718 0.52167 0.0
O778 O 0.6296 0.62784 0.51265 0.0
N779 N 0.57256 0.60599 0.42378 0.0
C780 C 0.52721 0.61484 0.4092 0.0
C781 C 0.53797 0.59787 0.38263 0.0
C782 C 0.56049 0.5935 0.3909 0.0
C783 C 0.56263 0.6233 0.44786 0.0
C784 C 0.54011 0.62809 0.441 0.0
H785 H 0.5672 0.57885 0.374 0.0
H786 H 0.57178 0.63229 0.47607 0.0
H787 H 0.56508 0.5574 0.45783 0.0
H788 H 0.55924 0.57564 0.60886 0.0
H789 H 0.66033 0.63509 0.35479 0.0
H790 H 0.5288 0.58722 0.35746 0.0
H791 H 0.5326 0.64107 0.46322 0.0
C792 C 0.33276 0.33495 0.29686 0.0
C793 C 0.31925 0.31891 0.31685 0.0
N794 N 0.3065 0.3106 0.28012 0.0
N795 N 0.32847 0.33709 0.24776 0.0
C796 C 0.31216 0.32218 0.23867 0.0
H797 H 0.34585 0.34347 0.31654 0.0
Co798 Co 0.34686 0.35363 0.20606 0.0
C799 C 0.32225 0.35847 0.10802 0.0
O800 O 0.3416 0.3553 0.08641 0.0
N801 N 0.36668 0.37081 0.16674 0.0
C802 C 0.38136 0.40082 0.13091 0.0
C803 C 0.36194 0.39016 0.14376 0.0
C804 C 0.3892 0.37043 0.16826 0.0
N805 N 0.39864 0.38855 0.14698 0.0
O806 O 0.33941 0.38035 0.24446 0.0
H807 H 0.34542 0.39693 0.13978 0.0
H808 H 0.39849 0.35828 0.18904 0.0
O809 O 0.32137 0.35833 0.15622 0.0
C810 C 0.35513 0.38454 0.27539 0.0
O811 O 0.37295 0.37204 0.27421 0.0
N812 N 0.35615 0.32666 0.17554 0.0
C813 C 0.37058 0.28286 0.15981 0.0
C814 C 0.3515 0.29099 0.13602 0.0
C815 C 0.34443 0.31284 0.14469 0.0
C816 C 0.37471 0.31891 0.19882 0.0
C817 C 0.38241 0.29734 0.19088 0.0
H818 H 0.32868 0.31771 0.12938 0.0
H819 H 0.38273 0.32899 0.2268 0.0
H820 H 0.30566 0.31879 0.20189 0.0
H821 H 0.31951 0.31321 0.35515 0.0
H822 H 0.38249 0.41695 0.11335 0.0
H823 H 0.34161 0.28032 0.11229 0.0
H824 H 0.39676 0.29164 0.2115 0.0
C825 C 0.44203 0.58084 0.03348 0.0
C826 C 0.4566 0.56509 0.05051 0.0
N827 N 0.46053 0.55066 1.01313 0.0
N828 N 0.43673 0.57627 0.98582 0.0
C829 C 0.44809 0.55769 0.97444 0.0
H830 H 0.43653 0.59539 0.05358 0.0
Co831 Co 0.42133 0.59582 0.94662 0.0
C832 C 0.41353 0.57224 0.8479 0.0
O833 O 0.41648 0.59157 0.82611 0.0
N834 N 0.40536 0.61686 0.9088 0.0
C835 C 0.37643 0.63465 0.8762 0.0
C836 C 0.38477 0.61425 0.88983 0.0
C837 C 0.40904 0.63903 0.90657 0.0
N838 N 0.39167 0.65031 0.8872 0.0
O839 O 0.39459 0.589 0.98636 0.0
H840 H 0.3758 0.59868 0.88895 0.0
H841 H 0.42325 0.64707 0.92312 0.0
O842 O 0.41478 0.57123 0.89594 0.0
C843 C 0.38741 0.6044 1.01535 0.0
O844 O 0.39539 0.62453 1.00976 0.0
N845 N 0.44881 0.6037 0.91579 0.0
C846 C 0.49473 0.61183 0.90603 0.0
C847 C 0.48414 0.59527 0.87773 0.0
C848 C 0.46133 0.59121 0.88369 0.0
C849 C 0.45871 0.62038 0.94211 0.0
C850 C 0.48145 0.62487 0.9375 0.0
H851 H 0.45462 0.57675 0.86572 0.0
H852 H 0.44932 0.629 0.97051 0.0
H853 H 0.44857 0.55044 0.93754 0.0
H854 H 0.46436 0.56478 0.08689 0.0
H855 H 0.36002 0.63774 0.86141 0.0
H856 H 0.49359 0.58469 0.85294 0.0
H857 H 0.48876 0.63741 0.9613 0.0
C858 C 0.1902 0.68985 0.78635 0.0
C859 C 0.20483 0.7041 0.80897 0.0
N860 N 0.21877 0.71192 0.77383 0.0
N861 N 0.19509 0.68841 0.73737 0.0
C862 C 0.2126 0.70212 0.73068 0.0
H863 H 0.17625 0.68169 0.80409 0.0
Co864 Co 0.17714 0.67245 0.69476 0.0
C865 C 0.20184 0.66907 0.59637 0.0
O866 O 0.1825 0.6727 0.57529 0.0
N867 N 0.15754 0.65561 0.65428 0.0
C868 C 0.14289 0.62582 0.61767 0.0
C869 C 0.16232 0.63647 0.63048 0.0
C870 C 0.13502 0.65598 0.65588 0.0
N871 N 0.1256 0.63795 0.63438 0.0
O872 O 0.18524 0.64553 0.73201 0.0
H873 H 0.17884 0.62974 0.62619 0.0
H874 H 0.1257 0.66785 0.67742 0.0
O875 O 0.20275 0.66852 0.64455 0.0
C876 C 0.17001 0.63753 0.76052 0.0
O877 O 0.14973 0.64514 0.7558 0.0
N878 N 0.1678 0.6998 0.66586 0.0
C879 C 0.15384 0.74399 0.65309 0.0
C880 C 0.17337 0.73624 0.63037 0.0
C881 C 0.18019 0.71419 0.63757 0.0
C882 C 0.14894 0.70726 0.68859 0.0
C883 C 0.14143 0.72899 0.68191 0.0
H884 H 0.19623 0.70954 0.62331 0.0
H885 H 0.14053 0.69682 0.71543 0.0
H886 H 0.22025 0.70543 0.69486 0.0
H887 H 0.20444 0.70932 0.84761 0.0
H888 H 0.14176 0.60974 0.59995 0.0
H889 H 0.18374 0.74733 0.60856 0.0
H890 H 0.12674 0.73437 0.70185 0.0
C891 C 0.08528 0.44546 0.54544 0.0
C892 C 0.06952 0.46063 0.55993 0.0
N893 N 0.06377 0.47273 0.51969 0.0
N894 N 0.08951 0.44813 0.49641 0.0
C895 C 0.0764 0.46502 0.48194 0.0
H896 H 0.09191 0.43231 0.56836 0.0
Co897 Co 0.10468 0.42861 0.45593 0.0
C898 C 0.11436 0.45653 0.36127 0.0
O899 O 0.1137 0.43897 0.33224 0.0
N900 N 0.12006 0.408 0.41665 0.0
C901 C 0.1481 0.38959 0.38195 0.0
C902 C 0.14039 0.4102 0.39598 0.0
C903 C 0.11594 0.38592 0.41538 0.0
N904 N 0.13273 0.37426 0.39458 0.0
O905 O 0.13165 0.43374 0.49511 0.0
H906 H 0.14968 0.42557 0.39433 0.0
H907 H 0.10182 0.3783 0.43353 0.0
O908 O 0.11155 0.45404 0.40865 0.0
C909 C 0.13352 0.41824 0.52769 0.0
O910 O 0.11891 0.40203 0.52739 0.0
N911 N 0.07732 0.42152 0.42449 0.0
C912 C 0.03257 0.41079 0.40735 0.0
C913 C 0.04373 0.42622 0.37684 0.0
C914 C 0.06606 0.43161 0.38643 0.0
C915 C 0.0668 0.40604 0.45328 0.0
C916 C 0.0446 0.40041 0.4454 0.0
H917 H 0.07346 0.44482 0.36514 0.0
H918 H 0.0755 0.39875 0.48451 0.0
H919 H 0.07516 0.47063 0.44373 0.0
H920 H 0.06171 0.46146 0.59629 0.0
H921 H 0.16421 0.38614 0.3658 0.0
H922 H 0.03495 0.43491 0.34754 0.0
H923 H 0.03676 0.38834 0.46975 0.0
C924 C 0.32778 0.68754 0.25316 0.0
C925 C 0.31252 0.70151 0.2319 0.0
N926 N 0.2994 0.70942 0.26844 0.0
N927 N 0.32402 0.68633 0.30266 0.0
C928 C 0.30664 0.69991 0.31103 0.0
H929 H 0.34162 0.67982 0.23427 0.0
Co930 Co 0.34338 0.67232 0.34524 0.0
C931 C 0.31942 0.66746 0.44472 0.0
O932 O 0.33876 0.67095 0.46597 0.0
N933 N 0.36431 0.65779 0.38622 0.0
C934 C 0.38268 0.63029 0.42319 0.0
C935 C 0.36212 0.63766 0.40789 0.0
C936 C 0.38636 0.66218 0.38871 0.0
N937 N 0.39798 0.64569 0.41068 0.0
O938 O 0.33696 0.64433 0.30993 0.0
H939 H 0.34679 0.6283 0.40947 0.0
H940 H 0.39415 0.67614 0.37046 0.0
O941 O 0.31843 0.6675 0.39656 0.0
C942 C 0.35279 0.63693 0.28234 0.0
O943 O 0.37268 0.64555 0.28782 0.0
N944 N 0.35119 0.70057 0.37118 0.0
C945 C 0.36187 0.7459 0.37501 0.0
C946 C 0.34544 0.73695 0.40644 0.0
C947 C 0.34001 0.71427 0.40331 0.0
C948 C 0.36756 0.70906 0.34151 0.0
C949 C 0.37328 0.73148 0.34309 0.0
H950 H 0.32573 0.70852 0.4238 0.0
H951 H 0.37526 0.69855 0.31375 0.0
H952 H 0.30016 0.70365 0.34777 0.0
H953 H 0.31216 0.70674 0.19325 0.0
H954 H 0.38616 0.61436 0.44009 0.0
H955 H 0.33583 0.74765 0.4307 0.0
H956 H 0.38599 0.73764 0.31795 0.0
C957 C 0.08346 0.58623 1.01244 0.0
C958 C 0.06852 0.57076 0.99504 0.0
N959 N 0.06567 0.5552 0.03068 0.0
N960 N 0.08991 0.58039 0.05869 0.0
C961 C 0.07894 0.56138 0.06864 0.0
H962 H 0.0887 0.60121 0.99347 0.0
Co963 Co 0.10716 0.59767 0.09993 0.0
C964 C 0.11214 0.56881 0.19366 0.0
O965 O 0.10932 0.58626 0.22235 0.0
N966 N 0.12513 0.61611 0.14051 0.0
C967 C 0.15523 0.62933 0.17859 0.0
C968 C 0.14421 0.61043 0.16352 0.0
C969 C 0.12514 0.63861 0.14179 0.0
N970 N 0.14331 0.64715 0.16439 0.0
O971 O 0.13292 0.58979 0.0589 0.0
H972 H 0.15057 0.5937 0.166 0.0
H973 H 0.11331 0.64869 0.12207 0.0
O974 O 0.11186 0.57135 0.1459 0.0
C975 C 0.14065 0.60522 0.03069 0.0
O976 O 0.13389 0.62564 0.03816 0.0
N977 N 0.08068 0.60694 0.13243 0.0
C978 C 0.03575 0.61962 0.13841 0.0
C979 C 0.04344 0.60052 0.16319 0.0
C980 C 0.06596 0.59436 0.15947 0.0
C981 C 0.07353 0.62594 0.11011 0.0
C982 C 0.05152 0.63287 0.11376 0.0
H983 H 0.0707 0.57839 0.17402 0.0
H984 H 0.08435 0.63462 0.0845 0.0
H985 H 0.07952 0.55296 0.10425 0.0
H986 H 0.06001 0.57125 0.95954 0.0
H987 H 0.17133 0.62982 0.19642 0.0
H988 H 0.03191 0.58948 0.18192 0.0
H989 H 0.04665 0.64784 0.09432 0.0
C990 C 0.19614 0.33277 0.77297 0.0
C991 C 0.21197 0.31826 0.75614 0.0
N992 N 0.22602 0.31399 0.79394 0.0
N993 N 0.20021 0.33781 0.82107 0.0
C994 C 0.21871 0.32631 0.83271 0.0
H995 H 0.18191 0.33834 0.75201 0.0
Co996 Co 0.18052 0.35359 0.86054 0.0
C997 C 0.20437 0.36026 0.95939 0.0
O998 O 0.18513 0.35641 0.98105 0.0
N999 N 0.15961 0.37011 0.89792 0.0
C1000 C 0.14427 0.40034 0.9309 0.0
C1001 C 0.16387 0.38962 0.92077 0.0
C1002 C 0.13715 0.3697 0.89362 0.0
N1003 N 0.12737 0.388 0.91311 0.0
O1004 O 0.18681 0.38029 0.82101 0.0
H1005 H 0.18025 0.3966 0.92601 0.0
H1006 H 0.12829 0.35746 0.872 0.0
O1007 O 0.2053 0.36003 0.91121 0.0
C1008 C 0.17169 0.38211 0.78755 0.0
O1009 O 0.15533 0.36766 0.78754 0.0
N1010 N 0.17243 0.32633 0.89201 0.0
C1011 C 0.16298 0.28077 0.90335 0.0
C1012 C 0.18074 0.29078 0.92885 0.0
C1013 C 0.18542 0.31338 0.92207 0.0
C1014 C 0.15451 0.31706 0.8688 0.0
C1015 C 0.14938 0.29449 0.87422 0.0
H1016 H 0.20067 0.31954 0.93761 0.0
H1017 H 0.14532 0.32669 0.84188 0.0
H1018 H 0.22583 0.32579 0.86969 0.0
H1019 H 0.21257 0.31083 0.71942 0.0
H1020 H 0.1428 0.41661 0.9476 0.0
H1021 H 0.19177 0.28098 0.95186 0.0
H1022 H 0.13584 0.2876 0.85263 0.0
C1023 C 0.43611 0.44473 0.5107 0.0
C1024 C 0.45095 0.45911 0.48915 0.0
N1025 N 0.45947 0.47211 0.5252 0.0
N1026 N 0.43497 0.44869 0.56014 0.0
C1027 C 0.4492 0.46572 0.56783 0.0
H1028 H 0.42791 0.43119 0.49183 0.0
Co1029 Co 0.42098 0.42914 0.60365 0.0
C1030 C 0.41518 0.45385 0.70171 0.0
O1031 O 0.41989 0.43495 0.72379 0.0
N1032 N 0.40647 0.4081 0.64487 0.0
C1033 C 0.37958 0.39075 0.68709 0.0
C1034 C 0.38724 0.41097 0.6702 0.0
C1035 C 0.40957 0.3858 0.64518 0.0
N1036 N 0.39355 0.37495 0.67082 0.0
O1037 O 0.39298 0.434 0.56789 0.0
H1038 H 0.37864 0.42662 0.67379 0.0
H1039 H 0.42251 0.37745 0.62457 0.0
O1040 O 0.41493 0.4544 0.65348 0.0
C1041 C 0.38928 0.41777 0.53802 0.0
O1042 O 0.40297 0.40084 0.53862 0.0
N1043 N 0.44928 0.42252 0.63176 0.0
C1044 C 0.49481 0.41344 0.64364 0.0
C1045 C 0.48455 0.43081 0.66989 0.0
C1046 C 0.46197 0.43533 0.66283 0.0
C1047 C 0.45889 0.40523 0.60698 0.0
C1048 C 0.48145 0.40026 0.61266 0.0
H1049 H 0.4556 0.45024 0.67943 0.0
H1050 H 0.44934 0.39616 0.5796 0.0
H1051 H 0.45327 0.47215 0.60433 0.0
H1052 H 0.45589 0.45918 0.45029 0.0
H1053 H 0.36418 0.38773 0.70689 0.0
H1054 H 0.49411 0.44155 0.69414 0.0
H1055 H 0.48858 0.38707 0.59043 0.0
H1056 H 0.12894 0.08622 0.10605 0.0
H1057 H 0.172 0.1302 1.02411 0.0
H1058 H 0.19049 0.14119 0.10159 0.0
H1059 H 0.18874 0.14415 0.19363 0.0
H1060 H 0.14273 0.10305 0.27519 0.0
H1061 H 0.13149 0.08468 0.19787 0.0
C1062 C 0.14311 0.09736 0.10502 0.0
C1063 C 0.14946 0.10697 0.05921 0.0
C1064 C 0.1529 0.10441 0.1502 0.0
C1065 C 0.16723 0.1221 0.05865 0.0
C1066 C 0.17758 0.12864 0.10316 0.0
C1067 C 0.17705 0.13044 0.19463 0.0
C1068 C 0.16691 0.12464 0.24031 0.0
C1069 C 0.16983 0.12073 0.14941 0.0
C1070 C 0.15116 0.10742 0.24076 0.0
C1071 C 0.14449 0.09713 0.19635 0.0
H1072 H 0.12835 0.93762 0.43838 0.0
H1073 H 0.17346 0.89646 0.52118 0.0
H1074 H 0.19278 0.88637 0.44403 0.0
H1075 H 0.19126 0.8828 0.3523 0.0
H1076 H 0.14357 0.921 0.26963 0.0
H1077 H 0.13133 0.93921 0.34644 0.0
C1078 C 0.14313 0.92737 0.43965 0.0
C1079 C 0.14981 0.91821 0.4856 0.0
C1080 C 0.15349 0.92082 0.39463 0.0
C1081 C 0.16839 0.90418 0.4865 0.0
C1082 C 0.17924 0.89815 0.44219 0.0
C1083 C 0.17901 0.89594 0.35087 0.0
C1084 C 0.16866 0.90087 0.30508 0.0
C1085 C 0.17124 0.90548 0.39581 0.0
C1086 C 0.1522 0.91735 0.30411 0.0
C1087 C 0.14493 0.92749 0.34827 0.0
H1088 H 0.33279 0.88266 0.69372 0.0
H1089 H 0.37601 0.92261 0.78469 0.0
H1090 H 0.38865 0.9429 0.71075 0.0
H1091 H 0.39371 0.94297 0.61946 0.0
H1092 H 0.35286 0.90087 0.52799 0.0
H1093 H 0.33261 0.88812 0.6021 0.0
C1094 C 0.34411 0.89657 0.69755 0.0
C1095 C 0.35313 0.90143 0.74485 0.0
C1096 C 0.35204 0.90751 0.65431 0.0
C1097 C 0.3684 0.91896 0.749 0.0
C1098 C 0.37589 0.93033 0.7065 0.0
C1099 C 0.37959 0.93191 0.61557 0.0
C1100 C 0.37449 0.92323 0.56811 0.0
C1101 C 0.36871 0.92394 0.65875 0.0
C1102 C 0.35667 0.90828 0.5638 0.0
C1103 C 0.34536 0.90069 0.60642 0.0
H1104 H 0.33906 0.14638 0.85309 0.0
H1105 H 0.38552 0.10528 0.77365 0.0
H1106 H 0.39603 0.0869 0.85152 0.0
H1107 H 0.39768 0.08833 0.94363 0.0
H1108 H 0.35346 0.1317 1.02341 0.0
H1109 H 0.33607 0.14299 0.94494 0.0
C1110 C 0.35062 0.13261 0.85262 0.0
C1111 C 0.36109 0.12681 0.80739 0.0
C1112 C 0.35729 0.12278 0.89815 0.0
C1113 C 0.37679 0.1096 0.80768 0.0
C1114 C 0.38304 0.09932 0.85243 0.0
C1115 C 0.38346 0.09936 0.9439 0.0
C1116 C 0.37647 0.10873 0.98946 0.0
C1117 C 0.37419 0.1065 0.89819 0.0
C1118 C 0.3587 0.12378 0.98906 0.0
C1119 C 0.34898 0.1305 0.944 0.0
H1120 H 0.87634 0.92165 0.81149 0.0
H1121 H 0.82851 0.87034 0.84375 0.0
H1122 H 0.83177 0.87801 0.93308 0.0
H1123 H 0.85392 0.89438 1.00195 0.0
H1124 H 0.89937 0.94784 0.9699 0.0
H1125 H 0.89104 0.94472 0.88085 0.0
C1126 C 0.86589 0.91286 0.83797 0.0
C1127 C 0.85224 0.89539 0.8209 0.0
C1128 C 0.86772 0.91754 0.88946 0.0
C1129 C 0.83897 0.88397 0.8557 0.0
C1130 C 0.84105 0.88819 0.90697 0.0
C1131 C 0.86125 0.90599 0.97567 0.0
C1132 C 0.87739 0.92122 0.99261 0.0
C1133 C 0.85615 0.90423 0.92438 0.0
C1134 C 0.88685 0.93606 0.95806 0.0
C1135 C 0.88225 0.93409 0.90693 0.0
H1136 H 0.87922 0.10317 0.75922 0.0
H1137 H 0.82591 0.14791 0.72346 0.0
H1138 H 0.83043 0.13956 0.63468 0.0
H1139 H 0.85478 0.12523 0.567 0.0
H1140 H 0.90572 0.0778 0.60284 0.0
H1141 H 0.89665 0.08103 0.69156 0.0
C1142 C 0.86789 0.11027 0.73217 0.0
C1143 C 0.85232 0.12627 0.74803 0.0
C1144 C 0.87046 0.10517 0.68102 0.0
C1145 C 0.83793 0.13549 0.71247 0.0
C1146 C 0.8407 0.1309 0.66149 0.0
C1147 C 0.86322 0.11488 0.59407 0.0
C1148 C 0.88106 0.10144 0.57826 0.0
C1149 C 0.85765 0.11659 0.64519 0.0
C1150 C 0.89192 0.08821 0.61381 0.0
C1151 C 0.88686 0.09023 0.66475 0.0
H1152 H 0.64835 0.10261 0.30494 0.0
H1153 H 0.69683 0.15363 0.3338 0.0
H1154 H 0.69468 0.14582 0.4233 0.0
H1155 H 0.67328 0.12956 0.49368 0.0
H1156 H 0.6269 0.0766 0.46495 0.0
H1157 H 0.63427 0.07963 0.37535 0.0
C1158 C 0.65921 0.11128 0.33065 0.0
C1159 C 0.67276 0.12868 0.31261 0.0
C1160 C 0.65795 0.10658 0.38227 0.0
C1161 C 0.6865 0.13999 0.34646 0.0
C1162 C 0.68504 0.13571 0.39785 0.0
C1163 C 0.66553 0.11803 0.46797 0.0
C1164 C 0.64941 0.10298 0.48608 0.0
C1165 C 0.67003 0.11976 0.41633 0.0
C1166 C 0.63941 0.08825 0.45223 0.0
C1167 C 0.64346 0.09016 0.40079 0.0
H1168 H 0.68469 0.87578 0.19714 0.0
H1169 H 0.64179 0.91872 0.28161 0.0
H1170 H 0.6301 0.93736 0.2049 0.0
H1171 H 0.62625 0.9359 0.11305 0.0
H1172 H 0.66703 0.89094 1.0286 0.0
H1173 H 0.68569 0.87899 0.10508 0.0
C1174 C 0.67367 0.88998 0.19885 0.0
C1175 C 0.66454 0.89624 0.24522 0.0
C1176 C 0.66632 0.90001 0.15409 0.0
C1177 C 0.64952 0.91403 0.24663 0.0
C1178 C 0.64257 0.92446 0.20257 0.0
C1179 C 0.64001 0.92434 0.11124 0.0
C1180 C 0.64565 0.91473 0.06499 0.0
C1181 C 0.65005 0.9169 0.15588 0.0
C1182 C 0.66284 0.89903 0.06347 0.0
C1183 C 0.67328 0.89196 0.10741 0.0
H1184 H 0.6712 0.62782 0.56191 0.0
H1185 H 0.62257 0.57701 0.59242 0.0
H1186 H 0.63063 0.57948 0.68162 0.0
H1187 H 0.64633 0.60159 0.75151 0.0
H1188 H 0.69813 0.64911 0.72076 0.0
H1189 H 0.69448 0.64211 0.63129 0.0
C1190 C 0.66303 0.61664 0.58789 0.0
C1191 C 0.64596 0.60258 0.57052 0.0
C1192 C 0.66814 0.6178 0.63924 0.0
C1193 C 0.63561 0.58812 0.60463 0.0
C1194 C 0.64012 0.58965 0.65585 0.0
C1195 C 0.65751 0.60966 0.72534 0.0
C1196 C 0.6723 0.62608 0.74283 0.0
C1197 C 0.65559 0.60521 0.67378 0.0
C1198 C 0.6866 0.63645 0.70845 0.0
C1199 C 0.68436 0.63259 0.6571 0.0
H1200 H 0.68803 0.3799 0.86225 0.0
H1201 H 0.64132 0.41893 0.77868 0.0
H1202 H 0.62936 0.43763 0.85513 0.0
H1203 H 0.62652 0.43672 0.94711 0.0
H1204 H 0.67099 0.39534 0.03104 0.0
H1205 H 0.6898 0.38411 0.95403 0.0
C1206 C 0.67607 0.39331 0.86059 0.0
C1207 C 0.66594 0.3984 0.81463 0.0
C1208 C 0.66857 0.4033 0.9053 0.0
C1209 C 0.64978 0.41515 0.81332 0.0
C1210 C 0.6427 0.42561 0.85725 0.0
C1211 C 0.64108 0.42618 0.94861 0.0
C1212 C 0.64773 0.41732 0.99488 0.0
C1213 C 0.65118 0.41904 0.90375 0.0
C1214 C 0.666 0.40288 0.99611 0.0
C1215 C 0.67653 0.39618 0.95189 0.0
H1216 H 0.89964 0.43553 0.11939 0.0
H1217 H 0.85861 0.39243 0.0307 0.0
H1218 H 0.83979 0.37901 0.10598 0.0
H1219 H 0.84092 0.37378 0.19752 0.0
H1220 H 0.88366 0.4152 0.28618 0.0
H1221 H 0.89556 0.43534 0.21131 0.0
C1222 C 0.88576 0.4241 0.11649 0.0
C1223 C 0.88013 0.41539 0.06939 0.0
C1224 C 0.87561 0.41582 0.16037 0.0
C1225 C 0.86279 0.39984 0.06632 0.0
C1226 C 0.85227 0.3919 0.10954 0.0
C1227 C 0.85195 0.38797 0.20059 0.0
C1228 C 0.861 0.39336 0.24748 0.0
C1229 C 0.85929 0.39896 0.15692 0.0
C1230 C 0.876 0.41117 0.25075 0.0
C1231 C 0.88306 0.42247 0.20774 0.0
H1232 H 0.83445 0.64323 0.36986 0.0
H1233 H 0.88151 0.60596 0.28296 0.0
H1234 H 0.89441 0.58706 0.35841 0.0
H1235 H 0.89804 0.58788 0.45042 0.0
H1236 H 0.85268 0.62727 0.5372 0.0
H1237 H 0.83304 0.63823 0.46123 0.0
C1238 C 0.84667 0.63008 0.3672 0.0
C1239 C 0.85667 0.62563 0.32068 0.0
C1240 C 0.85463 0.61998 0.41123 0.0
C1241 C 0.8731 0.60919 0.31801 0.0
C1242 C 0.88076 0.59867 0.3614 0.0
C1243 C 0.88313 0.5979 0.45277 0.0
C1244 C 0.87649 0.60636 0.4995 0.0
C1245 C 0.87245 0.6048 0.4085 0.0
C1246 C 0.85771 0.62007 0.5019 0.0
C1247 C 0.84669 0.6266 0.45828 0.0
H1248 H 0.39048 0.44077 0.45068 0.0
H1249 H 0.35212 0.39275 0.53303 0.0
H1250 H 0.33342 0.38115 0.45641 0.0
H1251 H 0.33428 0.37898 0.36435 0.0
H1252 H 0.37531 0.42455 0.28154 0.0
H1253 H 0.38621 0.44309 0.35897 0.0
C1254 C 0.37721 0.42858 0.45212 0.0
C1255 C 0.37235 0.41799 0.49783 0.0
C1256 C 0.36726 0.42124 0.40721 0.0
C1257 C 0.35574 0.40157 0.49868 0.0
C1258 C 0.34528 0.39468 0.45461 0.0
C1259 C 0.34467 0.3937 0.36314 0.0
C1260 C 0.35353 0.40071 0.31699 0.0
C1261 C 0.35171 0.40361 0.4083 0.0
C1262 C 0.36775 0.41924 0.31631 0.0
C1263 C 0.37428 0.42962 0.3608 0.0
H1264 H 0.34972 0.623 0.05359 0.0
H1265 H 0.40151 0.5763 0.08804 0.0
H1266 H 0.39324 0.57981 0.17703 0.0
H1267 H 0.37626 0.60213 0.24501 0.0
H1268 H 0.32132 0.64516 0.21115 0.0
H1269 H 0.32537 0.63676 0.1223 0.0
C1270 C 0.35849 0.61279 0.08042 0.0
C1271 C 0.37638 0.59953 0.064 0.0
C1272 C 0.35329 0.61456 0.13182 0.0
C1273 C 0.38767 0.58657 0.09938 0.0
C1274 C 0.38307 0.58876 0.15051 0.0
C1275 C 0.3645 0.60887 0.21845 0.0
C1276 C 0.34879 0.62465 0.23484 0.0
C1277 C 0.36663 0.60353 0.16728 0.0
C1278 C 0.3337 0.63319 0.19982 0.0
C1279 C 0.33614 0.6285 0.14874 0.0
H1280 H 0.17718 0.62456 0.98904 0.0
H1281 H 0.12555 0.57677 0.9597 0.0
H1282 H 0.13257 0.57991 0.87002 0.0
H1283 H 0.1482 0.60218 0.80032 0.0
H1284 H 0.20191 0.64767 0.82919 0.0
H1285 H 0.19974 0.63917 0.91837 0.0
C1286 C 0.16818 0.61408 0.96311 0.0
C1287 C 0.15079 0.60049 0.98115 0.0
C1288 C 0.17247 0.61586 0.91137 0.0
C1289 C 0.13912 0.58718 0.94703 0.0
C1290 C 0.14298 0.58919 0.89556 0.0
C1291 C 0.16012 0.60945 0.82585 0.0
C1292 C 0.17504 0.62576 0.80803 0.0
C1293 C 0.15888 0.60429 0.87723 0.0
C1294 C 0.19029 0.6351 0.84167 0.0
C1295 C 0.18887 0.6304 0.89291 0.0
H1296 H 0.1909 0.37802 0.69655 0.0
H1297 H 0.15003 0.42138 0.78492 0.0
H1298 H 0.13732 0.44028 0.70932 0.0
H1299 H 0.13195 0.43902 0.61763 0.0
H1300 H 0.17118 0.39401 0.52963 0.0
H1301 H 0.19072 0.3816 0.60457 0.0
C1302 C 0.18015 0.3924 0.69932 0.0
C1303 C 0.17191 0.39868 0.74654 0.0
C1304 C 0.17226 0.40265 0.65526 0.0
C1305 C 0.15717 0.41668 0.74931 0.0
C1306 C 0.1496 0.42726 0.70587 0.0
C1307 C 0.14558 0.42735 0.61465 0.0
C1308 C 0.1505 0.41786 0.5678 0.0
C1309 C 0.15623 0.41971 0.65849 0.0
C1310 C 0.16753 0.40202 0.56489 0.0
C1311 C 0.17848 0.39468 0.60798 0.0
H1312 H 0.12618 0.26991 0.39394 0.0
H1313 H 0.19757 0.27681 0.39706 0.0
H1314 H 0.19401 0.31704 0.39763 0.0
H1315 H 0.17081 0.35044 0.39644 0.0
H1316 H 0.09953 0.34389 0.39012 0.0
H1317 H 0.10293 0.30349 0.3911 0.0
C1318 C 0.14099 0.28018 0.3945 0.0
C1319 C 0.16211 0.27012 0.39594 0.0
C1320 C 0.13887 0.30347 0.39399 0.0
C1321 C 0.18105 0.28388 0.39715 0.0
C1322 C 0.17906 0.30699 0.39693 0.0
C1323 C 0.156 0.34025 0.39463 0.0
C1324 C 0.13492 0.35034 0.39311 0.0
C1325 C 0.15808 0.31698 0.39516 0.0
C1326 C 0.11595 0.33667 0.39178 0.0
C1327 C 0.11789 0.31352 0.39219 0.0
H1328 H 0.93496 0.86223 0.65087 0.0
H1329 H 0.91601 0.93057 0.62759 0.0
H1330 H 0.95475 0.9417 0.62842 0.0
H1331 H 0.99442 0.93232 0.63486 0.0
H1332 H 0.01348 0.8643 0.66038 0.0
H1333 H 0.97449 0.85302 0.6604 0.0
C1334 C 0.93915 0.8796 0.6464 0.0
C1335 C 0.92216 0.89537 0.63897 0.0
C1336 C 0.96169 0.88609 0.64758 0.0
C1337 C 0.92836 0.91779 0.63259 0.0
C1338 C 0.95068 0.92431 0.63348 0.0
C1339 C 0.99006 0.91508 0.64125 0.0
C1340 C 1.007 0.89922 0.64762 0.0
C1341 C 0.96751 0.90863 0.64096 0.0
C1342 C 1.0009 0.87687 0.65493 0.0
C1343 C 0.97855 0.87039 0.65499 0.0
H1344 H 0.35312 0.67329 0.89323 0.0
H1345 H 0.42402 0.68142 0.87854 0.0
H1346 H 0.41971 0.72173 0.87926 0.0
H1347 H 0.39579 0.7548 0.88425 0.0
H1348 H 0.32475 0.74642 0.89633 0.0
H1349 H 0.3292 0.70622 0.89687 0.0
C1350 C 0.36763 0.68381 0.88954 0.0
C1351 C 0.38889 0.67418 0.88569 0.0
C1352 C 0.36503 0.70704 0.89 0.0
C1353 C 0.40749 0.68827 0.88198 0.0
C1354 C 0.40503 0.71137 0.88224 0.0
C1355 C 0.38125 0.74421 0.88675 0.0
C1356 C 0.35997 0.75382 0.89062 0.0
C1357 C 0.38388 0.72097 0.88634 0.0
C1358 C 0.34139 0.73968 0.89439 0.0
C1359 C 0.34389 0.7166 0.89419 0.0
H1360 H 0.52264 0.11592 0.08198 0.0
H1361 H 0.5149 0.12953 0.23881 0.0
H1362 H 0.55469 0.13802 0.24537 0.0
H1363 H 0.5918 0.14172 0.20596 0.0
H1364 H 0.5999 0.12527 0.05069 0.0
H1365 H 0.55999 0.11768 0.04374 0.0
C1366 C 0.52973 0.12078 0.11752 0.0
C1367 C 0.5159 0.12234 0.1598 0.0
C1368 C 0.55268 0.12512 0.12114 0.0
C1369 C 0.52526 0.12828 0.20583 0.0
C1370 C 0.54797 0.13317 0.2095 0.0
C1371 C 0.58472 0.13658 0.17064 0.0
C1372 C 0.59867 0.13428 0.12867 0.0
C1373 C 0.56185 0.13171 0.16737 0.0
C1374 C 0.58945 0.12715 0.08335 0.0
C1375 C 0.56666 0.12286 0.07942 0.0
H1376 H 0.11665 0.68321 0.15965 0.0
H1377 H 0.18537 0.6637 0.17117 0.0
H1378 H 0.19675 0.70254 0.17025 0.0
H1379 H 0.18729 0.74241 0.16625 0.0
H1380 H 0.11858 0.76167 0.15389 0.0
H1381 H 0.10725 0.72272 0.15399 0.0
C1382 C 0.13414 0.68736 0.16154 0.0
C1383 C 0.15003 0.6703 0.16552 0.0
C1384 C 0.14065 0.70983 0.16045 0.0
C1385 C 0.17262 0.67627 0.16881 0.0
C1386 C 0.17922 0.69857 0.16783 0.0
C1387 C 0.16987 0.73805 0.16289 0.0
C1388 C 0.15382 0.75498 0.15996 0.0
C1389 C 0.1634 0.71552 0.16353 0.0
C1390 C 0.13127 0.74901 0.15647 0.0
C1391 C 0.12477 0.72672 0.15655 0.0
H1392 H 0.52619 0.91337 0.48136 0.0
H1393 H 0.51476 0.89811 0.32642 0.0
H1394 H 0.55375 0.88706 0.31686 0.0
H1395 H 0.59123 0.88137 0.35335 0.0
H1396 H 0.60254 0.89857 0.50716 0.0
H1397 H 0.56348 0.90896 0.51675 0.0
C1398 C 0.53222 0.90757 0.44551 0.0
C1399 C 0.51755 0.9064 0.40474 0.0
C1400 C 0.55463 0.90144 0.44029 0.0
C1401 C 0.52573 0.89925 0.3583 0.0
C1402 C 0.54798 0.89281 0.35294 0.0
C1403 C 0.58499 0.88719 0.38898 0.0
C1404 C 0.59962 0.88898 0.42976 0.0
C1405 C 0.56258 0.89369 0.39378 0.0
C1406 C 0.59153 0.89703 0.47545 0.0
C1407 C 0.56924 0.90298 0.48086 0.0
H1408 H 0.39433 0.34507 0.59603 0.0
H1409 H 0.38437 0.35209 0.7543 0.0
H1410 H 0.37705 0.31217 0.76187 0.0
H1411 H 0.37281 0.27538 0.7231 0.0
H1412 H 0.37981 0.26854 0.56381 0.0
H1413 H 0.38879 0.30818 0.55658 0.0
C1414 C 0.39078 0.3377 0.6321 0.0
C1415 C 0.39017 0.35132 0.67477 0.0
C1416 C 0.3859 0.31484 0.63579 0.0
C1417 C 0.38502 0.34181 0.72119 0.0
C1418 C 0.38082 0.31905 0.72543 0.0
C1419 C 0.37642 0.28258 0.68685 0.0
C1420 C 0.37586 0.26903 0.64407 0.0
C1421 C 0.38111 0.30541 0.68297 0.0
C1422 C 0.38014 0.27864 0.59722 0.0
C1423 C 0.38534 0.30127 0.59315 0.0
H1424 H 0.92437 0.10419 0.90928 0.0
H1425 H 0.93109 0.1746 0.93394 0.0
H1426 H 0.97149 0.17139 0.92906 0.0
H1427 H 1.00497 0.1486 0.91784 0.0
H1428 H 0.9982 0.07793 0.89577 0.0
H1429 H 0.95788 0.08133 0.89877 0.0
C1430 C 0.93464 0.1188 0.91424 0.0
C1431 C 0.92459 0.13962 0.92221 0.0
C1432 C 0.95792 0.11683 0.91122 0.0
C1433 C 0.9383 0.15841 0.92746 0.0
C1434 C 0.96143 0.15657 0.92474 0.0
C1435 C 0.99473 0.13389 0.9139 0.0
C1436 C 1.00483 0.11304 0.90638 0.0
C1437 C 0.97144 0.13588 0.91655 0.0
C1438 C 0.99108 0.09428 0.90063 0.0
C1439 C 0.96794 0.09615 0.9029 0.0
H1440 H 0.871 0.75238 0.72371 0.0
H1441 H 0.87791 0.75801 0.56415 0.0
H1442 H 0.8861 0.7182 0.55841 0.0
H1443 H 0.89137 0.68163 0.59926 0.0
H1444 H 0.88184 0.67583 0.75806 0.0
H1445 H 0.8746 0.71574 0.76387 0.0
C1446 C 0.87441 0.74487 0.68773 0.0
C1447 C 0.87412 0.75814 0.64444 0.0
C1448 C 0.87862 0.72192 0.6847 0.0
C1449 C 0.8781 0.74814 0.59795 0.0
C1450 C 0.88282 0.7254 0.59472 0.0
C1451 C 0.88783 0.6892 0.63508 0.0
C1452 C 0.88733 0.67586 0.67833 0.0
C1453 C 0.88318 0.71211 0.63787 0.0
C1454 C 0.88227 0.68576 0.72438 0.0
C1455 C 0.87819 0.70857 0.72767 0.0
H1456 H 0.02807 0.12221 0.47932 0.0
H1457 H 0.01924 0.12797 0.32036 0.0
H1458 H 0.05867 0.13742 0.3103 0.0
H1459 H 0.09603 0.14367 0.34708 0.0
H1460 H 0.10517 0.13471 0.50502 0.0
H1461 H 0.0654 0.12703 0.51547 0.0
C1462 C 0.03479 0.12565 0.44252 0.0
C1463 C 0.02071 0.12461 0.40066 0.0
C1464 C 0.05757 0.13055 0.43699 0.0
C1465 C 0.02973 0.12869 0.35311 0.0
C1466 C 0.05226 0.13414 0.34741 0.0
C1467 C 0.08917 0.14024 0.38373 0.0
C1468 C 0.10337 0.14004 0.42545 0.0
C1469 C 0.06637 0.13513 0.38908 0.0
C1470 C 0.09448 0.13505 0.4726 0.0
C1471 C 0.07178 0.13065 0.47848 0.0
H1472 H 0.60896 0.33885 0.15248 0.0
H1473 H 0.67739 0.35728 0.17698 0.0
H1474 H 0.68844 0.31854 0.17081 0.0
H1475 H 0.67878 0.27907 0.15937 0.0
H1476 H 0.61047 0.26066 0.13421 0.0
H1477 H 0.59944 0.29964 0.13865 0.0
C1478 C 0.62632 0.33449 0.15605 0.0
C1479 C 0.64221 0.35122 0.16539 0.0
C1480 C 0.63268 0.31207 0.15195 0.0
C1481 C 0.66462 0.34496 0.17063 0.0
C1482 C 0.67104 0.32272 0.16663 0.0
C1483 C 0.66153 0.28363 0.15402 0.0
C1484 C 0.6455 0.26693 0.14623 0.0
C1485 C 0.65523 0.30611 0.15729 0.0
C1486 C 0.62315 0.27314 0.14041 0.0
C1487 C 0.61682 0.29544 0.14301 0.0
H1488 H 0.42322 0.91644 0.8991 0.0
H1489 H 0.42966 0.84542 0.91208 0.0
H1490 H 0.47014 0.8489 0.90902 0.0
H1491 H 0.50384 0.87222 0.9041 0.0
H1492 H 0.49711 0.94335 0.89236 0.0
H1493 H 0.45677 0.93966 0.89291 0.0
C1494 C 0.43344 0.90172 0.90177 0.0
C1495 C 0.4233 0.88067 0.90627 0.0
C1496 C 0.45675 0.90385 0.89975 0.0
C1497 C 0.43694 0.86178 0.90844 0.0
C1498 C 0.46013 0.86378 0.9068 0.0
C1499 C 0.49357 0.88694 0.90169 0.0
C1500 C 0.5037 0.90804 0.89798 0.0
C1501 C 0.47024 0.88474 0.90261 0.0
C1502 C 0.48997 0.92686 0.89431 0.0
C1503 C 0.46681 0.92479 0.89515 0.0
H1504 H 0.8571 0.34894 0.90637 0.0
H1505 H 0.9279 0.3413 0.88954 0.0
H1506 H 0.9239 0.30098 0.89353 0.0
H1507 H 0.90034 0.26778 0.90194 0.0
H1508 H 0.82937 0.27536 0.91679 0.0
H1509 H 0.83345 0.31563 0.91421 0.0
C1510 C 0.87163 0.33847 0.90298 0.0
C1511 C 0.8928 0.34824 0.89751 0.0
C1512 C 0.86921 0.3152 0.90556 0.0
C1513 C 0.91145 0.3343 0.89414 0.0
C1514 C 0.90916 0.31121 0.89634 0.0
C1515 C 0.88572 0.2782 0.90443 0.0
C1516 C 0.86458 0.26834 0.90983 0.0
C1517 C 0.88813 0.30145 0.90217 0.0
C1518 C 0.84591 0.2823 0.91363 0.0
C1519 C 0.8482 0.30542 0.9116 0.0
H1520 H 0.4345 0.14414 0.70535 0.0
H1521 H 0.42742 0.13264 0.54767 0.0
H1522 H 0.4672 0.12466 0.54066 0.0
H1523 H 0.50397 0.12055 0.57962 0.0
H1524 H 0.51085 0.1292 0.73841 0.0
H1525 H 0.4713 0.13856 0.74513 0.0
C1526 C 0.4418 0.14007 0.66951 0.0
C1527 C 0.42817 0.13922 0.62687 0.0
C1528 C 0.46461 0.13488 0.66614 0.0
C1529 C 0.43765 0.13343 0.5808 0.0
C1530 C 0.46036 0.12888 0.57686 0.0
C1531 C 0.4968 0.12459 0.61565 0.0
C1532 C 0.51035 0.12441 0.65842 0.0
C1533 C 0.47399 0.12949 0.61927 0.0
C1534 C 0.50076 0.12924 0.705 0.0
C1535 C 0.47817 0.13466 0.70878 0.0
H1536 H 0.65473 0.74854 0.33477 0.0
H1537 H 0.64177 0.75677 0.49182 0.0
H1538 H 0.6325 0.71721 0.49911 0.0
H1539 H 0.6281 0.68005 0.4604 0.0
H1540 H 0.644 0.67144 0.30496 0.0
H1541 H 0.65205 0.71123 0.2971 0.0
C1542 C 0.64981 0.74163 0.37053 0.0
C1543 C 0.64872 0.75558 0.41265 0.0
C1544 C 0.64499 0.71879 0.37457 0.0
C1545 C 0.64271 0.74637 0.45893 0.0
C1546 C 0.63736 0.72377 0.46303 0.0
C1547 C 0.63316 0.68701 0.42482 0.0
C1548 C 0.63519 0.67295 0.38305 0.0
C1549 C 0.63838 0.70981 0.42107 0.0
C1550 C 0.64227 0.682 0.33741 0.0
C1551 C 0.64685 0.70472 0.33299 0.0
H1552 H 0.01864 0.87255 0.15012 0.0
H1553 H 0.02613 0.94362 0.16204 0.0
H1554 H 0.06641 0.93981 0.15848 0.0
H1555 H 0.09968 0.91644 0.14998 0.0
H1556 H 0.09235 0.8455 0.13665 0.0
H1557 H 0.05196 0.84915 0.14217 0.0
C1558 C 0.02905 0.88723 0.15186 0.0
C1559 C 0.01918 0.90835 0.15658 0.0
C1560 C 0.05232 0.88496 0.14911 0.0
C1561 C 0.03311 0.92711 0.15938 0.0
C1562 C 0.05622 0.92498 0.15679 0.0
C1563 C 0.08926 0.9018 0.14769 0.0
C1564 C 0.0991 0.88071 0.14252 0.0
C1565 C 0.06602 0.90402 0.15122 0.0
C1566 C 0.08526 0.8619 0.1408 0.0
C1567 C 0.06215 0.86398 0.1439 0.0
H1568 H 0.62559 0.7669 0.90267 0.0
H1569 H 0.69672 0.77509 0.91171 0.0
H1570 H 0.69244 0.81531 0.90895 0.0
H1571 H 0.66863 0.84832 0.90185 0.0
H1572 H 0.59766 0.84012 0.8899 0.0
H1573 H 0.60182 0.79987 0.89526 0.0
C1574 C 0.6402 0.77743 0.90387 0.0
C1575 C 0.66146 0.76776 0.9076 0.0
C1576 C 0.63768 0.80065 0.90133 0.0
C1577 C 0.6801 0.78188 0.90983 0.0
C1578 C 0.6777 0.80496 0.90768 0.0
C1579 C 0.65407 0.83776 0.89982 0.0
C1580 C 0.63283 0.84737 0.89525 0.0
C1581 C 0.65659 0.81455 0.90298 0.0
C1582 C 0.61418 0.83329 0.89375 0.0
C1583 C 0.61655 0.81022 0.89671 0.0
H1584 H 0.43442 0.36177 0.16006 0.0
H1585 H 0.41589 0.43024 0.13737 0.0
H1586 H 0.45469 0.44126 0.14013 0.0
H1587 H 0.49426 0.43167 0.14768 0.0
H1588 H 0.51288 0.36345 0.17217 0.0
H1589 H 0.47383 0.35235 0.17095 0.0
C1590 C 0.43874 0.37914 0.15618 0.0
C1591 C 0.4219 0.395 0.14822 0.0
C1592 C 0.46127 0.38553 0.15842 0.0
C1593 C 0.4282 0.41743 0.14264 0.0
C1594 C 0.45052 0.42387 0.14466 0.0
C1595 C 0.48977 0.41442 0.15362 0.0
C1596 C 0.50658 0.39845 0.16007 0.0
C1597 C 0.46722 0.40808 0.15247 0.0
C1598 C 0.50037 0.3761 0.16676 0.0
C1599 C 0.478 0.36972 0.16607 0.0
H1600 H 0.91016 0.18186 0.44732 0.0
H1601 H 0.85764 0.16613 0.34355 0.0
H1602 H 0.84575 0.20471 0.34403 0.0
H1603 H 0.85039 0.24331 0.37289 0.0
H1604 H 0.90437 0.25954 0.47166 0.0
H1605 H 0.91558 0.22047 0.47394 0.0
C1606 C 0.89629 0.18673 0.42423 0.0
C1607 C 0.88481 0.1707 0.39568 0.0
C1608 C 0.88966 0.20917 0.42401 0.0
C1609 C 0.86667 0.17776 0.36661 0.0
C1610 C 0.85985 0.19995 0.36667 0.0
C1611 C 0.86444 0.23819 0.39537 0.0
C1612 C 0.87637 0.2542 0.42264 0.0
C1613 C 0.87114 0.21579 0.39538 0.0
C1614 C 0.89486 0.24747 0.45068 0.0
C1615 C 0.9013 0.22516 0.45182 0.0
H1616 H 0.03033 0.59402 0.64445 0.0
H1617 H 1.01159 0.66228 0.66753 0.0
H1618 H 0.05051 0.67366 0.6626 0.0
H1619 H 0.08978 0.66448 0.64876 0.0
H1620 H 0.1086 0.59607 0.62671 0.0
H1621 H 0.06993 0.58471 0.63327 0.0
C1622 C 0.03482 0.61133 0.64924 0.0
C1623 C 0.01801 0.62725 0.65652 0.0
C1624 C 0.05729 0.61784 0.6457 0.0
C1625 C 0.02414 0.64969 0.6617 0.0
C1626 C 0.04641 0.65622 0.6588 0.0
C1627 C 0.08555 0.64705 0.64581 0.0
C1628 C 0.10241 0.63129 0.63703 0.0
C1629 C 0.06314 0.64049 0.65026 0.0
C1630 C 0.09625 0.60878 0.63261 0.0
C1631 C 0.07402 0.60216 0.63685 0.0
H1632 H 0.66294 0.24712 0.7281 0.0
H1633 H 0.64605 0.25776 0.57377 0.0
H1634 H 0.63691 0.21827 0.56465 0.0
H1635 H 0.63347 0.18059 0.60117 0.0
H1636 H 0.65273 0.16977 0.75386 0.0
H1637 H 0.66112 0.20938 0.76337 0.0
C1638 C 0.65721 0.24076 0.69251 0.0
C1639 C 0.65499 0.25535 0.65174 0.0
C1640 C 0.65235 0.21802 0.68744 0.0
C1641 C 0.64793 0.24685 0.60562 0.0
C1642 C 0.64262 0.2243 0.6005 0.0
C1643 C 0.63934 0.18703 0.63654 0.0
C1644 C 0.64224 0.1724 0.67704 0.0
C1645 C 0.64466 0.20973 0.64122 0.0
C1646 C 0.65035 0.18077 0.72236 0.0
C1647 C 0.65512 0.20338 0.72773 0.0
H1648 H 0.09128 0.36137 0.90282 0.0
H1649 H 0.11114 0.43011 0.91249 0.0
H1650 H 0.07257 0.44165 0.90738 0.0
H1651 H 0.03273 0.43242 0.90359 0.0
H1652 H 0.01265 0.36385 0.8939 0.0
H1653 H 0.05152 0.35221 0.89447 0.0
C1654 C 0.08723 0.37887 0.90334 0.0
C1655 C 0.10432 0.39472 0.90877 0.0
C1656 C 0.06482 0.38553 0.90007 0.0
C1657 C 0.09853 0.41738 0.90962 0.0
C1658 C 0.07637 0.42409 0.9062 0.0
C1659 C 0.03689 0.41497 0.9006 0.0
C1660 C 0.01977 0.39905 0.89865 0.0
C1661 C 0.05933 0.40833 0.90184 0.0
C1662 C 0.02549 0.37645 0.89566 0.0
C1663 C 0.04773 0.36977 0.8961 0.0
H1664 H 0.85514 0.84966 0.15548 0.0
H1665 H 0.9249 0.84406 0.18895 0.0
H1666 H 0.92202 0.80361 0.18695 0.0
H1667 H 0.89977 0.76979 0.17579 0.0
H1668 H 0.82978 0.77514 0.14387 0.0
H1669 H 0.83276 0.8156 0.1442 0.0
C1670 C 0.86964 0.83959 0.16294 0.0
C1671 C 0.89021 0.84995 0.17265 0.0
C1672 C 0.86789 0.81625 0.16134 0.0
C1673 C 0.90892 0.83656 0.18118 0.0
C1674 C 0.90728 0.81342 0.18006 0.0
C1675 C 0.88512 0.77977 0.16907 0.0
C1676 C 0.86457 0.76927 0.15979 0.0
C1677 C 0.88687 0.80307 0.17008 0.0
C1678 C 0.84589 0.78262 0.15033 0.0
C1679 C 0.84753 0.80582 0.15105 0.0
H1680 H 0.50239 0.65308 0.41134 0.0
H1681 H 0.49605 0.58173 0.40524 0.0
H1682 H 0.45576 0.58495 0.40573 0.0
H1683 H 0.42211 0.60784 0.40819 0.0
H1684 H 0.42807 0.67907 0.41668 0.0
H1685 H 0.46854 0.67602 0.41551 0.0
C1686 C 0.49222 0.63821 0.41032 0.0
C1687 C 0.50246 0.6172 0.40768 0.0
C1688 C 0.46888 0.64013 0.41132 0.0
C1689 C 0.48884 0.59817 0.40602 0.0
C1690 C 0.4657 0.59996 0.40686 0.0
C1691 C 0.43221 0.6227 0.41047 0.0
C1692 C 0.42193 0.64367 0.41263 0.0
C1693 C 0.45552 0.62083 0.40963 0.0
C1694 C 0.43545 0.66273 0.41457 0.0
C1695 C 0.45864 0.661 0.414 0.0
H1696 H 0.41363 0.18681 0.15625 0.0
H1697 H 0.34461 0.16814 0.16991 0.0
H1698 H 0.33379 0.20693 0.16793 0.0
H1699 H 0.34364 0.24643 0.16369 0.0
H1700 H 0.4124 0.26558 0.14902 0.0
H1701 H 0.42345 0.22654 0.14942 0.0
C1702 C 0.39621 0.19118 0.15843 0.0
C1703 C 0.38008 0.17432 0.1637 0.0
C1704 C 0.38996 0.21374 0.15688 0.0
C1705 C 0.35757 0.18052 0.1669 0.0
C1706 C 0.35127 0.20282 0.16531 0.0
C1707 C 0.36102 0.24209 0.15974 0.0
C1708 C 0.37713 0.259 0.15612 0.0
C1709 C 0.36729 0.21958 0.16043 0.0
C1710 C 0.39963 0.25296 0.15214 0.0
C1711 C 0.40597 0.2306 0.15233 0.0
H1712 H 0.59996 0.60442 0.91379 0.0
H1713 H 0.59417 0.67544 0.92818 0.0
H1714 H 0.55377 0.67252 0.92301 0.0
H1715 H 0.51992 0.64984 0.91351 0.0
H1716 H 0.5258 0.57864 0.90144 0.0
H1717 H 0.56609 0.58167 0.90593 0.0
C1718 C 0.58989 0.61924 0.91646 0.0
C1719 C 0.60025 0.64015 0.92145 0.0
C1720 C 0.56656 0.61745 0.91324 0.0
C1721 C 0.58677 0.65917 0.92392 0.0
C1722 C 0.5636 0.6575 0.92105 0.0
C1723 C 0.52996 0.63494 0.91208 0.0
C1724 C 0.51958 0.61405 0.90663 0.0
C1725 C 0.55329 0.63674 0.91545 0.0
C1726 C 0.53311 0.59502 0.9044 0.0
C1727 C 0.55626 0.5967 0.90754 0.0
H1728 H 0.10978 0.83955 0.64884 0.0
H1729 H 0.178 0.85911 0.67189 0.0
H1730 H 0.18943 0.82043 0.67007 0.0
H1731 H 0.18027 0.78073 0.66249 0.0
H1732 H 0.11223 0.76098 0.63862 0.0
H1733 H 0.1007 0.79986 0.63952 0.0
C1734 C 0.12717 0.83543 0.6531 0.0
C1735 C 0.14289 0.8525 0.66073 0.0
C1736 C 0.13376 0.81297 0.65162 0.0
C1737 C 0.16535 0.84657 0.66682 0.0
C1738 C 0.17199 0.82433 0.66535 0.0
C1739 C 0.16296 0.78493 0.65675 0.0
C1740 C 0.14717 0.76786 0.65029 0.0
C1741 C 0.15637 0.80738 0.65775 0.0
C1742 C 0.12474 0.7737 0.64394 0.0
C1743 C 0.11812 0.79597 0.64442 0.0
H1744 H 0.93294 0.38602 0.35202 0.0
H1745 H 0.9251 0.39488 0.51069 0.0
H1746 H 0.9644 0.40437 0.51831 0.0
H1747 H 1.00121 0.40958 0.48039 0.0
H1748 H 1.00939 0.40192 0.32151 0.0
H1749 H 0.96986 0.39271 0.31331 0.0
C1750 C 0.9399 0.38993 0.38824 0.0
C1751 C 0.92607 0.38962 0.43083 0.0
C1752 C 0.96259 0.39564 0.39226 0.0
C1753 C 0.93528 0.39514 0.47736 0.0
C1754 C 0.9578 0.40048 0.48175 0.0
C1755 C 0.99436 0.4058 0.44396 0.0
C1756 C 1.00832 0.4062 0.40168 0.0
C1757 C 0.97163 0.4007 0.43955 0.0
C1758 C 0.99904 0.40176 0.35463 0.0
C1759 C 0.97645 0.39639 0.34998 0.0
H1760 H 0.36929 0.7754 0.45108 0.0
H1761 H 0.36352 0.77116 0.29104 0.0
H1762 H 0.37221 0.8106 0.28325 0.0
H1763 H 0.38261 0.846 0.32131 0.0
H1764 H 0.39017 0.84999 0.48143 0.0
H1765 H 0.37922 0.81142 0.48946 0.0
C1766 C 0.36978 0.7832 0.41461 0.0
C1767 C 0.36598 0.77028 0.37171 0.0
C1768 C 0.37511 0.80596 0.41025 0.0
C1769 C 0.36673 0.78063 0.32463 0.0
C1770 C 0.37162 0.80322 0.32013 0.0
C1771 C 0.38205 0.83857 0.35807 0.0
C1772 C 0.38748 0.85136 0.40045 0.0
C1773 C 0.37614 0.81601 0.36262 0.0
C1774 C 0.38606 0.84108 0.44774 0.0
C1775 C 0.37987 0.81876 0.45255 0.0
H1776 H 1.0018 0.61456 0.20745 0.0
H1777 H 0.01445 0.63526 0.05565 0.0
H1778 H 0.97566 0.64497 0.04539 0.0
H1779 H 0.93816 0.64857 0.07917 0.0
H1780 H 0.92426 0.62605 0.22902 0.0
H1781 H 0.96318 0.61615 0.23988 0.0
C1782 C 0.99606 0.62106 0.17204 0.0
C1783 C 1.01143 0.62463 0.13294 0.0
C1784 C 0.97335 0.6264 0.16583 0.0
C1785 C 1.00342 0.633 0.08723 0.0
C1786 C 0.98106 0.63839 0.081 0.0
C1787 C 0.94341 0.64127 0.11409 0.0
C1788 C 0.92798 0.63839 0.15325 0.0
C1789 C 0.96588 0.63534 0.12008 0.0
C1790 C 0.93558 0.62899 0.19831 0.0
C1791 C 0.95794 0.62315 0.20456 0.0
H1792 H 0.12423 0.25638 0.90209 0.0
H1793 H 0.19556 0.24913 0.9014 0.0
H1794 H 0.19163 0.20898 0.8968 0.0
H1795 H 0.16815 0.1757 0.89208 0.0
H1796 H 0.09688 0.18257 0.89014 0.0
H1797 H 0.10064 0.22289 0.89615 0.0
C1798 C 0.13894 0.24606 0.90077 0.0
C1799 C 0.16017 0.25602 0.90269 0.0
C1800 C 0.1366 0.22278 0.89734 0.0
C1801 C 0.17897 0.24215 0.90129 0.0
C1802 C 0.17676 0.21908 0.89807 0.0
C1803 C 0.15341 0.18596 0.89232 0.0
C1804 C 0.13223 0.17594 0.89046 0.0
C1805 C 0.15568 0.2092 0.89587 0.0
C1806 C 0.11338 0.1897 0.89189 0.0
C1807 C 0.11552 0.21282 0.89521 0.0
H1808 H 0.59998 0.4178 0.64414 0.0
H1809 H 0.59234 0.34666 0.63793 0.0
H1810 H 0.55195 0.35071 0.6393 0.0
H1811 H 0.51865 0.37455 0.64255 0.0
H1812 H 0.52681 0.44575 0.64607 0.0
H1813 H 0.56699 0.4415 0.64579 0.0
C1814 C 0.58956 0.40315 0.64239 0.0
C1815 C 0.59936 0.38193 0.64074 0.0
C1816 C 0.56632 0.4056 0.6432 0.0
C1817 C 0.58537 0.36318 0.63961 0.0
C1818 C 0.56222 0.3655 0.64025 0.0
C1819 C 0.52919 0.38915 0.64302 0.0
C1820 C 0.51949 0.41045 0.64488 0.0
C1821 C 0.55248 0.38663 0.64216 0.0
C1822 C 0.5336 0.42913 0.64587 0.0
C1823 C 0.55668 0.42674 0.64518 0.0
H1824 H 0.25526 0.22167 0.32162 0.0
H1825 H 0.21606 0.24596 0.19864 0.0
H1826 H 0.23992 0.27846 0.19159 0.0
H1827 H 0.27135 0.30073 0.22194 0.0
H1828 H 0.31036 0.27638 0.34519 0.0
H1829 H 0.28686 0.24364 0.35127 0.0
C1830 C 0.25188 0.23411 0.29344 0.0
C1831 C 0.23392 0.23122 0.2607 0.0
C1832 C 0.2655 0.25298 0.28992 0.0
C1833 C 0.22996 0.24744 0.2239 0.0
C1834 C 0.2435 0.2662 0.22005 0.0
C1835 C 0.27478 0.2882 0.24989 0.0
C1836 C 0.29247 0.29123 0.28332 0.0
C1837 C 0.26127 0.2692 0.25301 0.0
C1838 C 0.29658 0.27484 0.31961 0.0
C1839 C 0.28325 0.25594 0.3229 0.0
H1840 H 0.03735 0.98421 0.5906 0.0
H1841 H 0.05462 0.99301 0.43559 0.0
H1842 H 0.0257 0.02116 0.42686 0.0
H1843 H 0.99554 0.04318 0.46352 0.0
H1844 H 0.97827 0.0342 0.6185 0.0
H1845 H 1.00742 1.00635 0.62734 0.0
C1846 C 0.03501 0.99253 0.55514 0.0
C1847 C 0.04815 0.98664 0.51384 0.0
C1848 C 0.01833 1.00857 0.5504 0.0
C1849 C 0.04459 0.9972 0.46779 0.0
C1850 C 0.0281 0.01329 0.46282 0.0
C1851 C 0.998 0.03493 0.49902 0.0
C1852 C 0.98474 0.04066 0.54025 0.0
C1853 C 0.01479 0.01899 0.50381 0.0
C1854 C 0.9884 0.03017 0.58635 0.0
C1855 C 1.00501 0.01423 0.59138 0.0
H1856 H 0.28728 0.78467 0.83873 0.0
H1857 H 0.26593 0.81357 0.69976 0.0
H1858 H 0.24082 0.78227 0.6856 0.0
H1859 H 0.22553 0.74627 0.71212 0.0
H1860 H 0.24632 0.71763 0.85163 0.0
H1861 H 0.27121 0.74916 0.86638 0.0
C1862 C 0.27681 0.78428 0.80588 0.0
C1863 C 0.27835 0.80138 0.77037 0.0
C1864 C 0.26263 0.76614 0.7978 0.0
C1865 C 0.26504 0.80049 0.72742 0.0
C1866 C 0.25076 0.7826 0.71927 0.0
C1867 C 0.23577 0.74687 0.74534 0.0
C1868 C 0.23441 0.72966 0.78051 0.0
C1869 C 0.24965 0.76519 0.75387 0.0
C1870 C 0.24725 0.73077 0.8241 0.0
C1871 C 0.26138 0.74877 0.83256 0.0
H1872 H 0.54347 0.99518 0.08936 0.0
H1873 H 0.53691 0.98085 0.93229 0.0
H1874 H 0.50565 1.00625 0.92655 0.0
H1875 H 0.47956 0.03195 0.96652 0.0
H1876 H 0.48586 0.04594 0.12372 0.0
H1877 H 0.51732 0.02073 0.12937 0.0
C1878 C 0.53515 0.99756 0.05396 0.0
C1879 C 0.54268 0.98626 1.01138 0.0
C1880 C 0.51691 1.01189 0.05105 0.0
C1881 C 0.53183 0.98968 0.96554 0.0
C1882 C 0.51377 1.00404 0.96227 0.0
C1883 C 0.48788 0.0295 1.00192 0.0
C1884 C 0.48026 0.04064 0.0446 0.0
C1885 C 0.50613 0.01517 1.00481 0.0
C1886 C 0.49107 0.03721 0.09044 0.0
C1887 C 0.50922 0.02296 0.09364 0.0
H1888 H 0.29405 0.74335 0.33198 0.0
H1889 H 0.27093 0.71617 0.19278 0.0
H1890 H 0.24656 0.74821 0.18084 0.0
H1891 H 0.23178 0.78377 0.21061 0.0
H1892 H 0.25509 0.81105 0.34965 0.0
H1893 H 0.27961 0.77914 0.36124 0.0
C1894 C 0.28341 0.74434 0.29948 0.0
C1895 C 0.28401 0.72742 0.26351 0.0
C1896 C 0.26976 0.76289 0.29265 0.0
C1897 C 0.27062 0.72907 0.22086 0.0
C1898 C 0.25678 0.74736 0.21403 0.0
C1899 C 0.24253 0.7829 0.24294 0.0
C1900 C 0.2418 0.79974 0.27911 0.0
C1901 C 0.25633 0.76443 0.24954 0.0
C1902 C 0.25541 0.79819 0.32145 0.0
C1903 C 0.26935 0.77997 0.32811 0.0
H1904 H 0.49562 0.97937 0.57537 0.0
H1905 H 0.46066 0.01266 0.457 0.0
H1906 H 0.49096 0.03971 0.4493 0.0
H1907 H 0.52688 0.05419 0.47809 0.0
H1908 H 0.56217 0.01988 0.59492 0.0
H1909 H 0.53207 0.99293 0.60182 0.0
C1910 C 0.49456 0.99271 0.54833 0.0
C1911 C 0.47591 0.99431 0.51725 0.0
C1912 C 0.51206 1.0079 0.54384 0.0
C1913 C 0.47492 1.01125 0.48133 0.0
C1914 C 0.49219 0.02665 0.47698 0.0
C1915 C 0.52816 0.04064 0.50451 0.0
C1916 C 0.54671 0.03915 0.53616 0.0
C1917 C 0.51084 0.02513 0.50812 0.0
C1918 C 0.54793 0.02162 0.57068 0.0
C1919 C 0.53076 1.00616 0.57455 0.0
H1920 H 0.30632 0.24925 0.82321 0.0
H1921 H 0.27008 0.21221 0.71223 0.0
H1922 H 0.24151 0.24093 0.71025 0.0
H1923 H 0.22693 0.27631 0.74025 0.0
H1924 H 0.26315 0.31371 0.85066 0.0
H1925 H 0.29156 0.28478 0.85353 0.0
C1926 C 0.29203 0.24733 0.7991 0.0
C1927 C 0.29026 0.22861 0.768 0.0
C1928 C 0.27575 0.26393 0.79807 0.0
C1929 C 0.27187 0.22656 0.73618 0.0
C1930 C 0.25553 0.24293 0.73516 0.0
C1931 C 0.24118 0.27833 0.76443 0.0
C1932 C 0.24303 0.29725 0.79488 0.0
C1933 C 0.25739 0.26172 0.76573 0.0
C1934 C 0.26132 0.29927 0.82703 0.0
C1935 C 0.27757 0.28277 0.82856 0.0
H1936 H 0.02844 0.04956 0.07262 0.0
H1937 H 0.06575 0.01327 0.96219 0.0
H1938 H 0.03613 0.98547 0.95729 0.0
H1939 H 0.99986 0.9715 0.98517 0.0
H1940 H 0.96246 1.00814 0.09498 0.0
H1941 H 0.99209 0.03579 0.09991 0.0
C1942 C 0.03022 0.03539 0.04805 0.0
C1943 C 0.04929 0.03331 1.01812 0.0
C1944 C 0.01312 0.01967 0.04522 0.0
C1945 C 0.05115 0.01518 0.98547 0.0
C1946 C 0.03427 0.99933 0.98271 0.0
C1947 C 0.99805 0.9857 1.00962 0.0
C1948 C 0.97898 0.98781 0.03958 0.0
C1949 C 0.01514 1.00147 1.01228 0.0
C1950 C 0.97707 1.00607 0.07187 0.0
C1951 C 0.99397 0.02189 0.07463 0.0
H1952 H 0.72508 0.74707 0.73972 0.0
H1953 H 0.76287 0.70619 0.84053 0.0
H1954 H 0.79204 0.73449 0.84392 0.0
H1955 H 0.80673 0.77072 0.81764 0.0
H1956 H 0.76865 0.81159 0.71723 0.0
H1957 H 0.73968 0.78321 0.71359 0.0
C1958 C 0.73984 0.74421 0.76184 0.0
C1959 C 0.74192 0.72453 0.78958 0.0
C1960 C 0.7564 0.76054 0.76374 0.0
C1961 C 0.76089 0.72128 0.81906 0.0
C1962 C 0.77755 0.73742 0.82093 0.0
C1963 C 0.79197 0.77353 0.79548 0.0
C1964 C 0.78981 0.79324 0.76783 0.0
C1965 C 0.77542 0.75715 0.79359 0.0
C1966 C 0.77078 0.79646 0.73847 0.0
C1967 C 0.7542 0.78028 0.7365 0.0
H1968 H 0.73548 0.23704 0.33558 0.0
H1969 H 0.73764 0.23215 0.17477 0.0
H1970 H 0.76553 0.26132 0.17155 0.0
H1971 H 0.78942 0.28842 0.21424 0.0
H1972 H 0.78647 0.29384 0.37461 0.0
H1973 H 0.75809 0.26498 0.3778 0.0
C1974 C 0.74179 0.24244 0.2997 0.0
C1975 C 0.73439 0.23213 0.25562 0.0
C1976 C 0.75752 0.25963 0.29789 0.0
C1977 C 0.74319 0.23929 0.20957 0.0
C1978 C 0.75904 0.25622 0.20755 0.0
C1979 C 0.78249 0.28329 0.24981 0.0
C1980 C 0.79 0.29334 0.294 0.0
C1981 C 0.76634 0.26648 0.25146 0.0
C1982 C 0.78074 0.2867 0.3399 0.0
C1983 C 0.76467 0.27 0.34183 0.0
H1984 H 0.72257 0.27624 0.83202 0.0
H1985 H 0.75813 0.31219 0.71777 0.0
H1986 H 0.78575 0.28259 0.71313 0.0
H1987 H 0.79973 0.24675 0.74197 0.0
H1988 H 0.76402 0.21044 0.85552 0.0
H1989 H 0.73652 0.24015 0.86062 0.0
C1990 C 0.73653 0.2777 0.80664 0.0
C1991 C 0.73843 0.29637 0.77545 0.0
C1992 C 0.75219 0.26058 0.80396 0.0
C1993 C 0.75633 0.29788 0.74191 0.0
C1994 C 0.77209 0.28101 0.73931 0.0
C1995 C 0.78576 0.24515 0.76728 0.0
C1996 C 0.78383 0.22637 0.79812 0.0
C1997 C 0.7701 0.26224 0.76997 0.0
C1998 C 0.76591 0.22482 0.83162 0.0
C1999 C 0.75019 0.24176 0.83448 0.0
H2000 H 0.74203 0.79233 0.22069 0.0
H2001 H 0.72044 0.78063 0.372 0.0
H2002 H 0.74448 0.74823 0.3775 0.0
H2003 H 0.77168 0.72329 0.33941 0.0
H2004 H 0.79423 0.73566 0.18886 0.0
H2005 H 0.76929 0.7672 0.1824 0.0
C2006 C 0.74258 0.78259 0.25469 0.0
C2007 C 0.72972 0.78897 0.29596 0.0
C2008 C 0.7564 0.76395 0.25757 0.0
C2009 C 0.73059 0.77634 0.34005 0.0
C2010 C 0.74416 0.75769 0.34309 0.0
C2011 C 0.7712 0.73293 0.30527 0.0
C2012 C 0.78476 0.72697 0.26476 0.0
C2013 C 0.7572 0.7514 0.30215 0.0
C2014 C 0.78371 0.73949 0.22044 0.0
C2015 C 0.76959 0.75774 0.21682 0.0
H2016 H 0.52396 0.46953 0.98396 0.0
H2017 H 0.56414 0.50789 0.08546 0.0
H2018 H 0.53562 0.53665 0.08841 0.0
H2019 H 0.49937 0.55071 0.06217 0.0
H2020 H 0.45917 0.51249 0.96055 0.0
H2021 H 0.48787 0.48385 0.95681 0.0
C2022 C 0.52663 0.48433 1.00611 0.0
C2023 C 0.54615 0.48662 0.03436 0.0
C2024 C 0.51018 0.50071 1.00768 0.0
C2025 C 0.54916 0.50569 0.06374 0.0
C2026 C 0.5329 0.52213 0.06534 0.0
C2027 C 0.49676 0.53598 0.03975 0.0
C2028 C 0.47711 0.53357 1.01203 0.0
C2029 C 0.5133 0.51971 0.03774 0.0
C2030 C 0.4742 0.51468 0.98207 0.0
C2031 C 0.49057 0.49833 0.98002 0.0
H2032 H 0.04655 0.49758 0.59336 0.0
H2033 H 0.03902 0.48143 0.43738 0.0
H2034 H 1.00706 0.50589 0.43175 0.0
H2035 H 0.98067 0.53139 0.47149 0.0
H2036 H 0.98793 0.54709 0.62764 0.0
H2037 H 0.02003 0.52272 0.63322 0.0
C2038 C 0.03785 0.49932 0.55823 0.0
C2039 C 0.04535 0.4878 0.51591 0.0
C2040 C 0.01919 0.51309 0.5554 0.0
C2041 C 0.034 0.49043 0.47042 0.0
C2042 C 0.01552 0.50425 0.46721 0.0
C2043 C 0.98933 0.52945 0.50663 0.0
C2044 C 0.9818 0.54084 0.54905 0.0
C2045 C 1.00794 0.51561 0.50949 0.0
C2046 C 0.99306 0.53813 0.5946 0.0
C2047 C 1.01158 0.52438 0.59775 0.0
H2048 H 1.00404 0.47296 0.06764 0.0
H2049 H 0.96145 0.50976 0.96874 0.0
H2050 H 0.98973 0.53882 0.96072 0.0
H2051 H 0.02627 0.55389 0.98332 0.0
H2052 H 0.0691 0.51649 0.08089 0.0
H2053 H 0.04092 0.48751 0.08836 0.0
C2054 C 1.00088 0.48748 0.04487 0.0
C2055 C 0.98068 0.48941 1.01923 0.0
C2056 C 0.01726 0.5039 0.04009 0.0
C2057 C 0.97694 0.508 0.98877 0.0
C2058 C 0.99307 0.52457 0.98421 0.0
C2059 C 0.02958 0.53926 1.00557 0.0
C2060 C 0.04973 0.53739 0.03161 0.0
C2061 C 0.01331 0.52266 1.00966 0.0
C2062 C 0.05361 0.51845 0.06097 0.0
C2063 C 0.03753 0.50186 0.06519 0.0
H2064 H 0.46893 0.50774 0.582 0.0
H2065 H 0.49302 0.46885 0.45815 0.0
H2066 H 0.52545 0.49275 0.45076 0.0
H2067 H 0.5474 0.52435 0.48012 0.0
H2068 H 0.52321 0.56368 0.60327 0.0
H2069 H 0.49088 0.53964 0.6111 0.0
C2070 C 0.48132 0.50448 0.55356 0.0
C2071 C 0.47838 0.48665 0.52048 0.0
C2072 C 0.50011 0.51824 0.54966 0.0
C2073 C 0.49455 0.48272 0.4835 0.0
C2074 C 0.51326 0.49628 0.47948 0.0
C2075 C 0.535 0.52778 0.50843 0.0
C2076 C 0.53792 0.54578 0.5411 0.0
C2077 C 0.51621 0.51408 0.51234 0.0
C2078 C 0.52174 0.54975 0.57807 0.0
C2079 C 0.50307 0.5361 0.58237 0.0
H2080 H 0.22074 0.16303 0.53811 0.0
H2081 H 0.24992 0.16389 0.3909 0.0
H2082 H 0.28709 0.16359 0.42799 0.0
H2083 H 0.31153 0.16409 0.50235 0.0
H2084 H 0.28219 0.16385 0.64945 0.0
H2085 H 0.2451 0.16287 0.61227 0.0
C2086 C 0.23517 0.16304 0.51387 0.0
C2087 C 0.23224 0.16343 0.46133 0.0
C2088 C 0.25663 0.16302 0.53561 0.0
C2089 C 0.2514 0.16348 0.43116 0.0
C2090 C 0.27276 0.16337 0.4525 0.0
C2091 C 0.29708 0.1637 0.52651 0.0
C2092 C 0.29996 0.16398 0.57909 0.0
C2093 C 0.27562 0.16328 0.5047 0.0
C2094 C 0.28077 0.16354 0.60917 0.0
C2095 C 0.25945 0.16304 0.58779 0.0
H2096 H 0.1144 0.05766 0.75423 0.0
H2097 H 0.11079 0.02797 0.90065 0.0
H2098 H 0.10967 0.99104 0.86284 0.0
H2099 H 0.10871 0.96693 0.78819 0.0
H2100 H 0.11194 0.9965 0.64166 0.0
H2101 H 0.11424 0.03344 0.67947 0.0
C2102 C 0.11351 0.04315 0.77809 0.0
C2103 C 0.11275 0.0459 0.83066 0.0
C2104 C 0.11273 0.02178 0.75592 0.0
C2105 C 0.11152 0.02665 0.86038 0.0
C2106 C 0.11081 1.00542 0.83864 0.0
C2107 C 0.11 0.9814 0.76429 0.0
C2108 C 0.11015 0.97865 0.71172 0.0
C2109 C 0.11126 1.00274 0.78644 0.0
C2110 C 0.11184 0.99784 0.68196 0.0
C2111 C 0.11312 0.01907 0.7037 0.0
H2112 H 0.24695 0.86187 0.12455 0.0
H2113 H 0.20259 0.8576 0.99868 0.0
H2114 H 0.23393 0.85864 0.94143 0.0
H2115 H 0.27456 0.85936 0.92554 0.0
H2116 H 0.31893 0.86405 0.05127 0.0
H2117 H 0.28752 0.86437 0.10847 0.0
C2118 C 0.24409 0.86136 0.08464 0.0
C2119 C 0.22212 0.85958 0.06665 0.0
C2120 C 0.26246 0.86197 0.05107 0.0
C2121 C 0.21909 0.85888 1.01438 0.0
C2122 C 0.23714 0.85948 0.98117 0.0
C2123 C 0.27738 0.8607 0.96537 0.0
C2124 C 0.29939 0.86161 0.98343 0.0
C2125 C 0.25899 0.86083 0.99886 0.0
C2126 C 0.30239 0.86321 0.03559 0.0
C2127 C 0.28431 0.86339 0.06875 0.0
H2128 H 0.39109 0.97246 0.27585 0.0
H2129 H 0.42397 0.99772 0.40692 0.0
H2130 H 0.42943 0.03351 0.36576 0.0
H2131 H 0.42441 0.05817 0.29314 0.0
H2132 H 0.39355 0.03282 0.15979 0.0
H2133 H 0.3878 0.99682 0.20092 0.0
C2134 C 0.39945 0.98579 0.29545 0.0
C2135 C 0.40706 0.98218 0.34483 0.0
C2136 C 0.40286 1.00647 0.27103 0.0
C2137 C 0.41808 0.99973 0.36906 0.0
C2138 C 0.42112 0.02035 0.3455 0.0
C2139 C 0.41637 0.04482 0.27291 0.0
C2140 C 0.40921 0.04848 0.22329 0.0
C2141 C 0.41351 0.02398 0.29659 0.0
C2142 C 0.39919 0.03068 0.19783 0.0
C2143 C 0.39587 1.01003 0.2215 0.0
H2144 H 0.80635 0.86246 0.50986 0.0
H2145 H 0.7785 0.85999 0.6583 0.0
H2146 H 0.74103 0.85979 0.62302 0.0
H2147 H 0.71592 0.85963 0.55 0.0
H2148 H 0.74376 0.86123 0.40151 0.0
H2149 H 0.78122 0.8625 0.43682 0.0
C2150 C 0.79213 0.86199 0.53473 0.0
C2151 C 0.79554 0.86134 0.58709 0.0
C2152 C 0.77047 0.86169 0.51402 0.0
C2153 C 0.77666 0.86061 0.61813 0.0
C2154 C 0.75512 0.86045 0.59784 0.0
C2155 C 0.73013 0.86035 0.52513 0.0
C2156 C 0.72672 0.86041 0.47274 0.0
C2157 C 0.75178 0.8609 0.54584 0.0
C2158 C 0.7456 0.86124 0.4417 0.0
C2159 C 0.76713 0.86193 0.46201 0.0
H2160 H 0.91602 0.05729 0.26976 0.0
H2161 H 0.91666 0.02714 0.41585 0.0
H2162 H 0.91443 0.99029 0.37751 0.0
H2163 H 0.91287 0.96637 0.30234 0.0
H2164 H 0.91322 0.99663 0.15632 0.0
H2165 H 0.91442 0.03345 0.19477 0.0
C2166 C 0.9156 0.04272 0.29347 0.0
C2167 C 0.91646 0.04528 0.34607 0.0
C2168 C 0.91448 0.02144 0.27101 0.0
C2169 C 0.91598 0.02594 0.37556 0.0
C2170 C 0.91472 1.00477 0.35351 0.0
C2171 C 0.91307 0.98097 0.27871 0.0
C2172 C 0.91281 0.97844 0.22606 0.0
C2173 C 0.91401 1.00227 0.30125 0.0
C2174 C 0.91327 0.9978 0.19665 0.0
C2175 C 0.91401 0.01896 0.21876 0.0
H2176 H 0.77661 0.16546 0.93117 0.0
H2177 H 0.81707 0.15537 0.06184 0.0
H2178 H 0.78417 0.15577 0.11469 0.0
H2179 H 0.74342 0.16002 0.12554 0.0
H2180 H 0.70294 0.16946 0.9946 0.0
H2181 H 0.73575 0.16825 0.94167 0.0
C2182 C 0.77825 0.16311 0.9711 0.0
C2183 C 0.79962 0.1604 0.9919 0.0
C2184 C 0.75899 0.16336 1.00203 0.0
C2185 C 0.80108 0.15755 0.04413 0.0
C2186 C 0.78214 0.1578 0.07478 0.0
C2187 C 0.74173 0.1617 0.08544 0.0
C2188 C 0.7204 0.16486 0.06474 0.0
C2189 C 0.76093 0.16087 0.0544 0.0
C2190 C 0.71889 0.167 1.01233 0.0
C2191 C 0.73778 0.16632 0.98161 0.0
H2192 H 0.6148 0.05642 0.79564 0.0
H2193 H 0.61236 0.02802 0.64799 0.0
H2194 H 0.61242 0.99069 0.68429 0.0
H2195 H 0.61235 0.96585 0.75815 0.0
H2196 H 0.61391 0.99442 0.90573 0.0
H2197 H 0.61507 0.03166 0.86929 0.0
C2198 C 0.61439 0.04212 0.77115 0.0
C2199 C 0.61366 0.04533 0.71872 0.0
C2200 C 0.61425 0.02056 0.79244 0.0
C2201 C 0.61303 0.02633 0.6882 0.0
C2202 C 0.61302 1.00488 0.70908 0.0
C2203 C 0.61308 0.98017 0.78255 0.0
C2204 C 0.61313 0.97703 0.83506 0.0
C2205 C 0.61354 1.00174 0.76118 0.0
C2206 C 0.61394 0.99604 0.86548 0.0
C2207 C 0.61456 0.01746 0.84453 0.0
H2208 H 0.71969 0.67296 0.04808 0.0
H2209 H 0.74472 0.64271 0.91358 0.0
H2210 H 0.78079 0.63683 0.95397 0.0
H2211 H 0.80537 0.63989 1.02851 0.0
H2212 H 0.78054 0.67232 0.16066 0.0
H2213 H 0.74461 0.67778 0.12038 0.0
C2214 C 0.73298 0.66501 1.02746 0.0
C2215 C 0.72919 0.65806 0.9777 0.0
C2216 C 0.75391 0.66211 0.0507 0.0
C2217 C 0.74694 0.64817 0.95174 0.0
C2218 C 0.76763 0.64478 0.97498 0.0
C2219 C 0.7921 0.64817 0.04853 0.0
C2220 C 0.79589 0.65566 0.09796 0.0
C2221 C 0.77134 0.6516 1.02459 0.0
C2222 C 0.77841 0.66655 0.12274 0.0
C2223 C 0.75771 0.66958 0.09968 0.0
H2224 H 0.60653 0.46588 0.30081 0.0
H2225 H 0.61168 0.49531 0.15436 0.0
H2226 H 0.61263 0.53231 0.19199 0.0
H2227 H 0.61119 0.55658 0.26625 0.0
H2228 H 0.60546 0.52734 0.41277 0.0
H2229 H 0.60562 0.49023 0.37537 0.0
C2230 C 0.60798 0.48034 0.27692 0.0
C2231 C 0.6091 0.47752 0.22438 0.0
C2232 C 0.60838 0.50174 0.29897 0.0
C2233 C 0.61089 0.49669 0.19462 0.0
C2234 C 0.61138 0.51796 0.21625 0.0
C2235 C 0.61007 0.54215 0.29028 0.0
C2236 C 0.60836 0.54505 0.34271 0.0
C2237 C 0.61003 0.52073 0.26836 0.0
C2238 C 0.60688 0.52588 0.37261 0.0
C2239 C 0.60692 0.50456 0.35109 0.0
H2240 H 0.71956 0.36664 0.5149 0.0
H2241 H 0.74623 0.3544 0.6617 0.0
H2242 H 0.78357 0.35157 0.62619 0.0
H2243 H 0.80877 0.35147 0.55324 0.0
H2244 H 0.78225 0.36352 0.40629 0.0
H2245 H 0.745 0.36755 0.44206 0.0
C2246 C 0.73352 0.36349 0.53936 0.0
C2247 C 0.72979 0.36077 0.59131 0.0
C2248 C 0.75512 0.36178 0.51851 0.0
C2249 C 0.74832 0.35666 0.62187 0.0
C2250 C 0.76978 0.35497 0.60145 0.0
C2251 C 0.79491 0.35508 0.52884 0.0
C2252 C 0.79859 0.35717 0.47675 0.0
C2253 C 0.7734 0.35734 0.54978 0.0
C2254 C 0.78018 0.36187 0.44628 0.0
C2255 C 0.75877 0.36413 0.46683 0.0
H2256 H 0.91259 0.46752 0.7647 0.0
H2257 H 0.91763 0.49497 0.91295 0.0
H2258 H 0.91772 0.53247 0.87798 0.0
H2259 H 0.91733 0.55779 0.80519 0.0
H2260 H 0.91257 0.53044 0.65683 0.0
H2261 H 0.91133 0.49292 0.69191 0.0
C2262 C 0.91358 0.48166 0.78957 0.0
C2263 C 0.91506 0.47811 0.8418 0.0
C2264 C 0.91371 0.50339 0.76904 0.0
C2265 C 0.91638 0.4969 0.87287 0.0
C2266 C 0.91649 0.51848 0.85277 0.0
C2267 C 0.9159 0.54368 0.78033 0.0
C2268 C 0.91501 0.54724 0.72804 0.0
C2269 C 0.91529 0.52197 0.80089 0.0
C2270 C 0.91321 0.52849 0.69699 0.0
C2271 C 0.91255 0.50691 0.71714 0.0
H2272 H 0.27724 0.36248 0.13301 0.0
H2273 H 0.32139 0.35788 1.00636 0.0
H2274 H 0.29002 0.35868 0.94971 0.0
H2275 H 0.24941 0.35961 0.9343 0.0
H2276 H 0.20517 0.36477 0.06058 0.0
H2277 H 0.23661 0.36494 0.11737 0.0
C2278 C 0.28004 0.36179 0.09307 0.0
C2279 C 0.30201 0.36006 0.07477 0.0
C2280 C 0.26163 0.36233 0.05971 0.0
C2281 C 0.30493 0.35916 1.02242 0.0
C2282 C 0.28685 0.35962 0.98948 0.0
C2283 C 0.24662 0.36102 0.97415 0.0
C2284 C 0.22462 0.36214 0.99245 0.0
C2285 C 0.26503 0.36108 1.00745 0.0
C2286 C 0.22169 0.36379 0.04467 0.0
C2287 C 0.23979 0.36388 0.07763 0.0
H2288 H 0.41294 0.52737 0.87372 0.0
H2289 H 0.41048 0.57111 0.74633 0.0
H2290 H 0.41021 0.53944 0.69017 0.0
H2291 H 0.41196 0.49872 0.67549 0.0
H2292 H 0.41367 0.45509 0.80322 0.0
H2293 H 0.41286 0.48673 0.85921 0.0
C2294 C 0.41214 0.53002 0.83375 0.0
C2295 C 0.41179 0.55193 0.81498 0.0
C2296 C 0.41194 0.51147 0.80083 0.0
C2297 C 0.41084 0.55467 0.76263 0.0
C2298 C 0.41069 0.53643 0.73003 0.0
C2299 C 0.41194 0.49609 0.71552 0.0
C2300 C 0.41297 0.4742 0.73437 0.0
C2301 C 0.41142 0.51466 0.74845 0.0
C2302 C 0.413 0.4715 0.7868 0.0
C2303 C 0.41254 0.48972 0.81934 0.0
H2304 H 0.27424 0.66786 0.42075 0.0
H2305 H 0.31885 0.66365 0.5461 0.0
H2306 H 0.28759 0.66343 0.60363 0.0
H2307 H 0.24698 0.66549 0.62026 0.0
H2308 H 0.20242 0.66929 0.49468 0.0
H2309 H 0.23363 0.66856 0.43722 0.0
C2310 C 0.27715 0.6667 0.46057 0.0
C2311 C 0.29922 0.66583 0.47832 0.0
C2312 C 0.25882 0.6666 0.49435 0.0
C2313 C 0.30229 0.66444 0.53053 0.0
C2314 C 0.28429 0.66432 0.56394 0.0
C2315 C 0.24405 0.66603 0.58038 0.0
C2316 C 0.22202 0.66752 0.56263 0.0
C2317 C 0.26238 0.66557 0.54656 0.0
C2318 C 0.21894 0.66822 0.51033 0.0
C2319 C 0.23693 0.66779 0.47693 0.0
H2320 H 0.11685 0.46727 0.26149 0.0
H2321 H 0.11333 0.49741 0.40731 0.0
H2322 H 0.11281 0.53426 0.36877 0.0
H2323 H 0.1125 0.55817 0.29358 0.0
H2324 H 0.11541 0.52802 0.14771 0.0
H2325 H 0.11702 0.49121 0.1863 0.0
C2326 C 0.1161 0.48186 0.28507 0.0
C2327 C 0.11522 0.47928 0.33768 0.0
C2328 C 0.11563 0.50316 0.26248 0.0
C2329 C 0.11414 0.49862 0.36702 0.0
C2330 C 0.11378 0.5198 0.34486 0.0
C2331 C 0.11358 0.5436 0.27001 0.0
C2332 C 0.11388 0.54615 0.21738 0.0
C2333 C 0.1144 0.52231 0.29261 0.0
C2334 C 0.11523 0.52683 0.18804 0.0
C2335 C 0.11612 0.50567 0.21022 0.0
loop_
_geom_bond_atom_site_label_1
_geom_bond_atom_site_label_2
_geom_bond_distance
_geom_bond_site_symmetry_2
_ccdc_geom_bond_type
C0 C1 1.351 . S
C0 N3 1.368 . S
C0 H5 0.931 . S
C1 C0 1.351 . S
C1 N2 1.373 . S
C1 H29 0.930 . S
N2 C1 1.373 . S
N2 C4 1.340 . S
N3 C0 1.368 . S
N3 C4 1.321 . S
N3 Co6 2.135 . S
C4 N2 1.340 . S
C4 N3 1.321 . S
C4 H28 0.930 . S
H5 C0 0.931 . S
Co6 N3 2.135 . S
Co6 N9 2.121 . S
Co6 O14 2.055 . S
Co6 O17 2.039 . S
Co6 N20 2.140 . S
C7 O8 1.227 . S
C7 O17 1.265 . S
O8 C7 1.227 . S
N9 Co6 2.121 . S
N9 C11 1.375 . S
N9 C12 1.313 . S
C10 C11 1.338 . S
C10 N13 1.377 . S
C10 H30 0.930 . S
C11 N9 1.375 . S
C11 C10 1.338 . S
C11 H15 0.931 . S
C12 N9 1.313 . S
C12 N13 1.344 . S
C12 H16 0.930 . S
N13 C10 1.377 . S
N13 C12 1.344 . S
O14 Co6 2.055 . S
O14 C18 1.253 . S
H15 C11 0.931 . S
H16 C12 0.930 . S
O17 Co6 2.039 . S
O17 C7 1.265 . S
C18 O14 1.253 . S
C18 O19 1.227 . S
O19 C18 1.227 . S
N20 Co6 2.140 . S
N20 C23 1.346 . S
N20 C24 1.345 . S
C21 C22 1.387 . S
C21 C25 1.391 . S
C22 C21 1.387 . S
C22 C23 1.369 . S
C22 H31 0.929 . S
C23 N20 1.346 . S
C23 C22 1.369 . S
C23 H26 0.928 . S
C24 N20 1.345 . S
C24 C25 1.371 . S
C24 H27 0.931 . S
C25 C21 1.391 . S
C25 C24 1.371 . S
C25 H32 0.930 . S
H26 C23 0.928 . S
H27 C24 0.931 . S
H28 C4 0.930 . S
H29 C1 0.930 . S
H30 C10 0.930 . S
H31 C22 0.929 . S
H32 C25 0.930 . S
C33 C34 1.351 . S
C33 N36 1.368 . S
C33 H38 0.931 . S
C34 C33 1.351 . S
C34 N35 1.373 . S
C34 H62 0.930 . S
N35 C34 1.373 . S
N35 C37 1.340 . S
N36 C33 1.368 . S
N36 C37 1.321 . S
N36 Co39 2.135 . S
C37 N35 1.340 . S
C37 N36 1.321 . S
C37 H61 0.930 . S
H38 C33 0.931 . S
Co39 N36 2.135 . S
Co39 N42 2.121 . S
Co39 O47 2.055 . S
Co39 O50 2.039 . S
Co39 N53 2.140 . S
C40 O41 1.227 . S
C40 O50 1.265 . S
O41 C40 1.227 . S
N42 Co39 2.121 . S
N42 C44 1.375 . S
N42 C45 1.313 . S
C43 C44 1.338 . S
C43 N46 1.377 . S
C43 H63 0.930 . S
C44 N42 1.375 . S
C44 C43 1.338 . S
C44 H48 0.931 . S
C45 N42 1.313 . S
C45 N46 1.344 . S
C45 H49 0.930 . S
N46 C43 1.377 . S
N46 C45 1.344 . S
O47 Co39 2.055 . S
O47 C51 1.253 . S
H48 C44 0.931 . S
H49 C45 0.930 . S
O50 Co39 2.039 . S
O50 C40 1.265 . S
C51 O47 1.253 . S
C51 O52 1.227 . S
O52 C51 1.227 . S
N53 Co39 2.140 . S
N53 C56 1.346 . S
N53 C57 1.345 . S
C54 C55 1.387 . S
C54 C58 1.391 . S
C55 C54 1.387 . S
C55 C56 1.369 . S
C55 H64 0.929 . S
C56 N53 1.346 . S
C56 C55 1.369 . S
C56 H59 0.928 . S
C57 N53 1.345 . S
C57 C58 1.371 . S
C57 H60 0.931 . S
C58 C54 1.391 . S
C58 C57 1.371 . S
C58 H65 0.930 . S
H59 C56 0.928 . S
H60 C57 0.931 . S
H61 C37 0.930 . S
H62 C34 0.930 . S
H63 C43 0.930 . S
H64 C55 0.929 . S
H65 C58 0.930 . S
C66 C67 1.351 . S
C66 N69 1.368 . S
C66 H71 0.931 . S
C67 C66 1.351 . S
C67 N68 1.373 . S
C67 H95 0.930 . S
N68 C67 1.373 . S
N68 C70 1.340 . S
N69 C66 1.368 . S
N69 C70 1.321 . S
N69 Co72 2.135 . S
C70 N68 1.340 . S
C70 N69 1.321 . S
C70 H94 0.930 . S
H71 C66 0.931 . S
Co72 N69 2.135 . S
Co72 N75 2.121 . S
Co72 O80 2.055 . S
Co72 O83 2.039 . S
Co72 N86 2.140 . S
C73 O74 1.227 . S
C73 O83 1.265 . S
O74 C73 1.227 . S
N75 Co72 2.121 . S
N75 C77 1.375 . S
N75 C78 1.313 . S
C76 C77 1.338 . S
C76 N79 1.377 . S
C76 H96 0.930 . S
C77 N75 1.375 . S
C77 C76 1.338 . S
C77 H81 0.931 . S
C78 N75 1.313 . S
C78 N79 1.344 . S
C78 H82 0.930 . S
N79 C76 1.377 . S
N79 C78 1.344 . S
O80 Co72 2.055 . S
O80 C84 1.253 . S
H81 C77 0.931 . S
H82 C78 0.930 . S
O83 Co72 2.039 . S
O83 C73 1.265 . S
C84 O80 1.253 . S
C84 O85 1.227 . S
O85 C84 1.227 . S
N86 Co72 2.140 . S
N86 C89 1.346 . S
N86 C90 1.345 . S
C87 C88 1.387 . S
C87 C91 1.391 . S
C88 C87 1.387 . S
C88 C89 1.369 . S
C88 H97 0.929 . S
C89 N86 1.346 . S
C89 C88 1.369 . S
C89 H92 0.928 . S
C90 N86 1.345 . S
C90 C91 1.371 . S
C90 H93 0.931 . S
C91 C87 1.391 . S
C91 C90 1.371 . S
C91 H98 0.930 . S
H92 C89 0.928 . S
H93 C90 0.931 . S
H94 C70 0.930 . S
H95 C67 0.930 . S
H96 C76 0.930 . S
H97 C88 0.929 . S
H98 C91 0.930 . S
C99 C100 1.351 . S
C99 N102 1.368 1_556 S
C99 H104 0.931 . S
C100 C99 1.351 . S
C100 N101 1.373 1_556 S
C100 H128 0.930 . S
N101 C100 1.373 1_554 S
N101 C103 1.340 . S
N102 C99 1.368 1_554 S
N102 C103 1.321 . S
N102 Co105 2.135 . S
C103 N101 1.340 . S
C103 N102 1.321 . S
C103 H127 0.930 . S
H104 C99 0.931 . S
Co105 N102 2.135 . S
Co105 N108 2.121 . S
Co105 O113 2.055 . S
Co105 O116 2.039 . S
Co105 N119 2.140 . S
C106 O107 1.227 . S
C106 O116 1.265 . S
O107 C106 1.227 . S
N108 Co105 2.121 . S
N108 C110 1.375 . S
N108 C111 1.313 . S
C109 C110 1.338 . S
C109 N112 1.377 . S
C109 H129 0.930 . S
C110 N108 1.375 . S
C110 C109 1.338 . S
C110 H114 0.931 . S
C111 N108 1.313 . S
C111 N112 1.344 . S
C111 H115 0.930 . S
N112 C109 1.377 . S
N112 C111 1.344 . S
O113 Co105 2.055 . S
O113 C117 1.253 1_554 S
H114 C110 0.931 . S
H115 C111 0.930 . S
O116 Co105 2.039 . S
O116 C106 1.265 . S
C117 O113 1.253 1_556 S
C117 O118 1.227 1_556 S
O118 C117 1.227 1_554 S
N119 Co105 2.140 . S
N119 C122 1.346 . S
N119 C123 1.345 . S
C120 C121 1.387 . S
C120 C124 1.391 . S
C121 C120 1.387 . S
C121 C122 1.369 . S
C121 H130 0.929 . S
C122 N119 1.346 . S
C122 C121 1.369 . S
C122 H125 0.928 . S
C123 N119 1.345 . S
C123 C124 1.371 . S
C123 H126 0.931 . S
C124 C120 1.391 . S
C124 C123 1.371 . S
C124 H131 0.930 . S
H125 C122 0.928 . S
H126 C123 0.931 . S
H127 C103 0.930 . S
H128 C100 0.930 . S
H129 C109 0.930 . S
H130 C121 0.929 . S
H131 C124 0.930 . S
C132 C133 1.351 . S
C132 N135 1.368 . S
C132 H137 0.931 . S
C133 C132 1.351 . S
C133 N134 1.373 . S
C133 H161 0.930 . S
N134 C133 1.373 . S
N134 C136 1.340 . S
N135 C132 1.368 . S
N135 C136 1.321 . S
N135 Co138 2.135 . S
C136 N134 1.340 . S
C136 N135 1.321 . S
C136 H160 0.930 . S
H137 C132 0.931 . S
Co138 N135 2.135 . S
Co138 N141 2.121 . S
Co138 O146 2.055 . S
Co138 O149 2.039 . S
Co138 N152 2.140 . S
C139 O140 1.227 . S
C139 O149 1.265 . S
O140 C139 1.227 . S
N141 Co138 2.121 . S
N141 C143 1.375 . S
N141 C144 1.313 . S
C142 C143 1.338 . S
C142 N145 1.377 . S
C142 H162 0.930 . S
C143 N141 1.375 . S
C143 C142 1.338 . S
C143 H147 0.931 . S
C144 N141 1.313 . S
C144 N145 1.344 . S
C144 H148 0.930 . S
N145 C142 1.377 . S
N145 C144 1.344 . S
O146 Co138 2.055 . S
O146 C150 1.253 . S
H147 C143 0.931 . S
H148 C144 0.930 . S
O149 Co138 2.039 . S
O149 C139 1.265 . S
C150 O146 1.253 . S
C150 O151 1.227 . S
O151 C150 1.227 . S
N152 Co138 2.140 . S
N152 C155 1.346 . S
N152 C156 1.345 . S
C153 C154 1.387 . S
C153 C157 1.391 . S
C154 C153 1.387 . S
C154 C155 1.369 . S
C154 H163 0.929 . S
C155 N152 1.346 . S
C155 C154 1.369 . S
C155 H158 0.928 . S
C156 N152 1.345 . S
C156 C157 1.371 . S
C156 H159 0.931 . S
C157 C153 1.391 . S
C157 C156 1.371 . S
C157 H164 0.930 . S
H158 C155 0.928 . S
H159 C156 0.931 . S
H160 C136 0.930 . S
H161 C133 0.930 . S
H162 C142 0.930 . S
H163 C154 0.929 . S
H164 C157 0.930 . S
C165 C166 1.351 . S
C165 N168 1.368 . S
C165 H170 0.931 . S
C166 C165 1.351 . S
C166 N167 1.373 . S
C166 H194 0.930 . S
N167 C166 1.373 . S
N167 C169 1.340 . S
N168 C165 1.368 . S
N168 C169 1.321 . S
N168 Co171 2.135 . S
C169 N167 1.340 . S
C169 N168 1.321 . S
C169 H193 0.930 . S
H170 C165 0.931 . S
Co171 N168 2.135 . S
Co171 N174 2.121 . S
Co171 O179 2.055 . S
Co171 O182 2.039 . S
Co171 N185 2.140 . S
C172 O173 1.227 . S
C172 O182 1.265 . S
O173 C172 1.227 . S
N174 Co171 2.121 . S
N174 C176 1.375 . S
N174 C177 1.313 . S
C175 C176 1.338 . S
C175 N178 1.377 . S
C175 H195 0.930 . S
C176 N174 1.375 . S
C176 C175 1.338 . S
C176 H180 0.931 . S
C177 N174 1.313 . S
C177 N178 1.344 . S
C177 H181 0.930 . S
N178 C175 1.377 . S
N178 C177 1.344 . S
O179 Co171 2.055 . S
O179 C183 1.253 . S
H180 C176 0.931 . S
H181 C177 0.930 . S
O182 Co171 2.039 . S
O182 C172 1.265 . S
C183 O179 1.253 . S
C183 O184 1.227 . S
O184 C183 1.227 . S
N185 Co171 2.140 . S
N185 C188 1.346 . S
N185 C189 1.345 . S
C186 C187 1.387 . S
C186 C190 1.391 . S
C187 C186 1.387 . S
C187 C188 1.369 . S
C187 H196 0.929 . S
C188 N185 1.346 . S
C188 C187 1.369 . S
C188 H191 0.928 . S
C189 N185 1.345 . S
C189 C190 1.371 . S
C189 H192 0.931 . S
C190 C186 1.391 . S
C190 C189 1.371 . S
C190 H197 0.930 . S
H191 C188 0.928 . S
H192 C189 0.931 . S
H193 C169 0.930 . S
H194 C166 0.930 . S
H195 C175 0.930 . S
H196 C187 0.929 . S
H197 C190 0.930 . S
C198 C199 1.351 . S
C198 N201 1.368 . S
C198 H203 0.931 . S
C199 C198 1.351 . S
C199 N200 1.373 . S
C199 H227 0.930 . S
N200 C199 1.373 . S
N200 C202 1.340 . S
N201 C198 1.368 . S
N201 C202 1.321 . S
N201 Co204 2.135 . S
C202 N200 1.340 . S
C202 N201 1.321 . S
C202 H226 0.930 . S
H203 C198 0.931 . S
Co204 N201 2.135 . S
Co204 N207 2.121 . S
Co204 O212 2.055 . S
Co204 O215 2.039 . S
Co204 N218 2.140 . S
C205 O206 1.227 . S
C205 O215 1.265 . S
O206 C205 1.227 . S
N207 Co204 2.121 . S
N207 C209 1.375 . S
N207 C210 1.313 . S
C208 C209 1.338 . S
C208 N211 1.377 . S
C208 H228 0.930 . S
C209 N207 1.375 . S
C209 C208 1.338 . S
C209 H213 0.931 . S
C210 N207 1.313 . S
C210 N211 1.344 . S
C210 H214 0.930 . S
N211 C208 1.377 . S
N211 C210 1.344 . S
O212 Co204 2.055 . S
O212 C216 1.253 . S
H213 C209 0.931 . S
H214 C210 0.930 . S
O215 Co204 2.039 . S
O215 C205 1.265 . S
C216 O212 1.253 . S
C216 O217 1.227 . S
O217 C216 1.227 . S
N218 Co204 2.140 . S
N218 C221 1.346 . S
N218 C222 1.345 . S
C219 C220 1.387 . S
C219 C223 1.391 . S
C220 C219 1.387 . S
C220 C221 1.369 . S
C220 H229 0.929 . S
C221 N218 1.346 . S
C221 C220 1.369 . S
C221 H224 0.928 . S
C222 N218 1.345 . S
C222 C223 1.371 . S
C222 H225 0.931 . S
C223 C219 1.391 . S
C223 C222 1.371 . S
C223 H230 0.930 . S
H224 C221 0.928 . S
H225 C222 0.931 . S
H226 C202 0.930 . S
H227 C199 0.930 . S
H228 C208 0.930 . S
H229 C220 0.929 . S
H230 C223 0.930 . S
C231 C232 1.351 . S
C231 N234 1.368 1_554 S
C231 H236 0.931 . S
C232 C231 1.351 . S
C232 N233 1.373 1_554 S
C232 H260 0.930 . S
N233 C232 1.373 1_556 S
N233 C235 1.340 . S
N234 C231 1.368 1_556 S
N234 C235 1.321 . S
N234 Co237 2.135 . S
C235 N233 1.340 . S
C235 N234 1.321 . S
C235 H259 0.930 . S
H236 C231 0.931 . S
Co237 N234 2.135 . S
Co237 N240 2.121 . S
Co237 O245 2.055 . S
Co237 O248 2.039 . S
Co237 N251 2.140 . S
C238 O239 1.227 . S
C238 O248 1.265 . S
O239 C238 1.227 . S
N240 Co237 2.121 . S
N240 C242 1.375 . S
N240 C243 1.313 . S
C241 C242 1.338 . S
C241 N244 1.377 . S
C241 H261 0.930 . S
C242 N240 1.375 . S
C242 C241 1.338 . S
C242 H246 0.931 . S
C243 N240 1.313 . S
C243 N244 1.344 . S
C243 H247 0.930 . S
N244 C241 1.377 . S
N244 C243 1.344 . S
O245 Co237 2.055 . S
O245 C249 1.253 1_556 S
H246 C242 0.931 . S
H247 C243 0.930 . S
O248 Co237 2.039 . S
O248 C238 1.265 . S
C249 O245 1.253 1_554 S
C249 O250 1.227 1_554 S
O250 C249 1.227 1_556 S
N251 Co237 2.140 . S
N251 C254 1.346 . S
N251 C255 1.345 . S
C252 C253 1.387 . S
C252 C256 1.391 . S
C253 C252 1.387 . S
C253 C254 1.369 . S
C253 H262 0.929 . S
C254 N251 1.346 . S
C254 C253 1.369 . S
C254 H257 0.928 . S
C255 N251 1.345 . S
C255 C256 1.371 . S
C255 H258 0.931 . S
C256 C252 1.391 . S
C256 C255 1.371 . S
C256 H263 0.930 . S
H257 C254 0.928 . S
H258 C255 0.931 . S
H259 C235 0.930 . S
H260 C232 0.930 . S
H261 C241 0.930 . S
H262 C253 0.929 . S
H263 C256 0.930 . S
C264 C265 1.351 . S
C264 N267 1.368 . S
C264 H269 0.931 . S
C265 C264 1.351 . S
C265 N266 1.373 . S
C265 H293 0.930 . S
N266 C265 1.373 . S
N266 C268 1.340 . S
N267 C264 1.368 . S
N267 C268 1.321 . S
N267 Co270 2.135 . S
C268 N266 1.340 . S
C268 N267 1.321 . S
C268 H292 0.930 . S
H269 C264 0.931 . S
Co270 N267 2.135 . S
Co270 N273 2.121 . S
Co270 O278 2.055 . S
Co270 O281 2.039 . S
Co270 N284 2.140 . S
C271 O272 1.227 . S
C271 O281 1.265 . S
O272 C271 1.227 . S
N273 Co270 2.121 . S
N273 C275 1.375 . S
N273 C276 1.313 . S
C274 C275 1.338 . S
C274 N277 1.377 . S
C274 H294 0.930 . S
C275 N273 1.375 . S
C275 C274 1.338 . S
C275 H279 0.931 . S
C276 N273 1.313 . S
C276 N277 1.344 . S
C276 H280 0.930 . S
N277 C274 1.377 . S
N277 C276 1.344 . S
O278 Co270 2.055 . S
O278 C282 1.253 . S
H279 C275 0.931 . S
H280 C276 0.930 . S
O281 Co270 2.039 . S
O281 C271 1.265 . S
C282 O278 1.253 . S
C282 O283 1.227 . S
O283 C282 1.227 . S
N284 Co270 2.140 . S
N284 C287 1.346 . S
N284 C288 1.345 . S
C285 C286 1.387 . S
C285 C289 1.391 . S
C286 C285 1.387 . S
C286 C287 1.369 . S
C286 H295 0.929 . S
C287 N284 1.346 . S
C287 C286 1.369 . S
C287 H290 0.928 . S
C288 N284 1.345 . S
C288 C289 1.371 . S
C288 H291 0.931 . S
C289 C285 1.391 . S
C289 C288 1.371 . S
C289 H296 0.930 . S
H290 C287 0.928 . S
H291 C288 0.931 . S
H292 C268 0.930 . S
H293 C265 0.930 . S
H294 C274 0.930 . S
H295 C286 0.929 . S
H296 C289 0.930 . S
C297 C298 1.351 . S
C297 N300 1.368 . S
C297 H302 0.931 . S
C298 C297 1.351 . S
C298 N299 1.373 . S
C298 H326 0.930 . S
N299 C298 1.373 . S
N299 C301 1.340 . S
N300 C297 1.368 . S
N300 C301 1.321 . S
N300 Co303 2.135 . S
C301 N299 1.340 . S
C301 N300 1.321 . S
C301 H325 0.930 . S
H302 C297 0.931 . S
Co303 N300 2.135 . S
Co303 N306 2.121 . S
Co303 O311 2.055 . S
Co303 O314 2.039 . S
Co303 N317 2.140 . S
C304 O305 1.227 . S
C304 O314 1.265 . S
O305 C304 1.227 . S
N306 Co303 2.121 . S
N306 C308 1.375 . S
N306 C309 1.313 . S
C307 C308 1.338 . S
C307 N310 1.377 . S
C307 H327 0.930 . S
C308 N306 1.375 . S
C308 C307 1.338 . S
C308 H312 0.931 . S
C309 N306 1.313 . S
C309 N310 1.344 . S
C309 H313 0.930 . S
N310 C307 1.377 . S
N310 C309 1.344 . S
O311 Co303 2.055 . S
O311 C315 1.253 . S
H312 C308 0.931 . S
H313 C309 0.930 . S
O314 Co303 2.039 . S
O314 C304 1.265 . S
C315 O311 1.253 . S
C315 O316 1.227 . S
O316 C315 1.227 . S
N317 Co303 2.140 . S
N317 C320 1.346 . S
N317 C321 1.345 . S
C318 C319 1.387 . S
C318 C322 1.391 . S
C319 C318 1.387 . S
C319 C320 1.369 . S
C319 H328 0.929 . S
C320 N317 1.346 . S
C320 C319 1.369 . S
C320 H323 0.928 . S
C321 N317 1.345 . S
C321 C322 1.371 . S
C321 H324 0.931 . S
C322 C318 1.391 . S
C322 C321 1.371 . S
C322 H329 0.930 . S
H323 C320 0.928 . S
H324 C321 0.931 . S
H325 C301 0.930 . S
H326 C298 0.930 . S
H327 C307 0.930 . S
H328 C319 0.929 . S
H329 C322 0.930 . S
C330 C331 1.351 . S
C330 N333 1.368 . S
C330 H335 0.931 . S
C331 C330 1.351 . S
C331 N332 1.373 . S
C331 H359 0.930 . S
N332 C331 1.373 . S
N332 C334 1.340 . S
N333 C330 1.368 . S
N333 C334 1.321 . S
N333 Co336 2.135 . S
C334 N332 1.340 . S
C334 N333 1.321 . S
C334 H358 0.930 . S
H335 C330 0.931 . S
Co336 N333 2.135 . S
Co336 N339 2.121 . S
Co336 O344 2.055 . S
Co336 O347 2.039 . S
Co336 N350 2.140 . S
C337 O338 1.227 . S
C337 O347 1.265 . S
O338 C337 1.227 . S
N339 Co336 2.121 . S
N339 C341 1.375 . S
N339 C342 1.313 . S
C340 C341 1.338 . S
C340 N343 1.377 . S
C340 H360 0.930 . S
C341 N339 1.375 . S
C341 C340 1.338 . S
C341 H345 0.931 . S
C342 N339 1.313 . S
C342 N343 1.344 . S
C342 H346 0.930 . S
N343 C340 1.377 . S
N343 C342 1.344 . S
O344 Co336 2.055 . S
O344 C348 1.253 . S
H345 C341 0.931 . S
H346 C342 0.930 . S
O347 Co336 2.039 . S
O347 C337 1.265 . S
C348 O344 1.253 . S
C348 O349 1.227 . S
O349 C348 1.227 . S
N350 Co336 2.140 . S
N350 C353 1.346 . S
N350 C354 1.345 . S
C351 C352 1.387 . S
C351 C355 1.391 . S
C352 C351 1.387 . S
C352 C353 1.369 . S
C352 H361 0.929 . S
C353 N350 1.346 . S
C353 C352 1.369 . S
C353 H356 0.928 . S
C354 N350 1.345 . S
C354 C355 1.371 . S
C354 H357 0.931 . S
C355 C351 1.391 . S
C355 C354 1.371 . S
C355 H362 0.930 . S
H356 C353 0.928 . S
H357 C354 0.931 . S
H358 C334 0.930 . S
H359 C331 0.930 . S
H360 C340 0.930 . S
H361 C352 0.929 . S
H362 C355 0.930 . S
C363 C364 1.351 . S
C363 N366 1.368 1_554 S
C363 H368 0.931 . S
C364 C363 1.351 . S
C364 N365 1.373 1_554 S
C364 H392 0.930 . S
N365 C364 1.373 1_556 S
N365 C367 1.340 . S
N366 C363 1.368 1_556 S
N366 C367 1.321 . S
N366 Co369 2.135 . S
C367 N365 1.340 . S
C367 N366 1.321 . S
C367 H391 0.930 . S
H368 C363 0.931 . S
Co369 N366 2.135 . S
Co369 N372 2.121 . S
Co369 O377 2.055 . S
Co369 O380 2.039 . S
Co369 N383 2.140 . S
C370 O371 1.227 . S
C370 O380 1.265 . S
O371 C370 1.227 . S
N372 Co369 2.121 . S
N372 C374 1.375 . S
N372 C375 1.313 . S
C373 C374 1.338 . S
C373 N376 1.377 . S
C373 H393 0.930 . S
C374 N372 1.375 . S
C374 C373 1.338 . S
C374 H378 0.931 . S
C375 N372 1.313 . S
C375 N376 1.344 . S
C375 H379 0.930 . S
N376 C373 1.377 . S
N376 C375 1.344 . S
O377 Co369 2.055 . S
O377 C381 1.253 1_556 S
H378 C374 0.931 . S
H379 C375 0.930 . S
O380 Co369 2.039 . S
O380 C370 1.265 . S
C381 O377 1.253 1_554 S
C381 O382 1.227 1_554 S
O382 C381 1.227 1_556 S
N383 Co369 2.140 . S
N383 C386 1.346 . S
N383 C387 1.345 . S
C384 C385 1.387 . S
C384 C388 1.391 . S
C385 C384 1.387 . S
C385 C386 1.369 . S
C385 H394 0.929 . S
C386 N383 1.346 . S
C386 C385 1.369 . S
C386 H389 0.928 . S
C387 N383 1.345 . S
C387 C388 1.371 . S
C387 H390 0.931 . S
C388 C384 1.391 . S
C388 C387 1.371 . S
C388 H395 0.930 . S
H389 C386 0.928 . S
H390 C387 0.931 . S
H391 C367 0.930 . S
H392 C364 0.930 . S
H393 C373 0.930 . S
H394 C385 0.929 . S
H395 C388 0.930 . S
C396 C397 1.351 . S
C396 N399 1.368 . S
C396 H401 0.931 . S
C397 C396 1.351 . S
C397 N398 1.373 . S
C397 H425 0.930 . S
N398 C397 1.373 . S
N398 C400 1.340 . S
N399 C396 1.368 . S
N399 C400 1.321 . S
N399 Co402 2.135 . S
C400 N398 1.340 . S
C400 N399 1.321 . S
C400 H424 0.930 . S
H401 C396 0.931 . S
Co402 N399 2.135 . S
Co402 N405 2.121 . S
Co402 O410 2.055 . S
Co402 O413 2.039 . S
Co402 N416 2.140 . S
C403 O404 1.227 . S
C403 O413 1.265 . S
O404 C403 1.227 . S
N405 Co402 2.121 . S
N405 C407 1.375 . S
N405 C408 1.313 . S
C406 C407 1.338 . S
C406 N409 1.377 . S
C406 H426 0.930 . S
C407 N405 1.375 . S
C407 C406 1.338 . S
C407 H411 0.931 . S
C408 N405 1.313 . S
C408 N409 1.344 . S
C408 H412 0.930 . S
N409 C406 1.377 . S
N409 C408 1.344 . S
O410 Co402 2.055 . S
O410 C414 1.253 . S
H411 C407 0.931 . S
H412 C408 0.930 . S
O413 Co402 2.039 . S
O413 C403 1.265 . S
C414 O410 1.253 . S
C414 O415 1.227 . S
O415 C414 1.227 . S
N416 Co402 2.140 . S
N416 C419 1.346 . S
N416 C420 1.345 . S
C417 C418 1.387 . S
C417 C421 1.391 . S
C418 C417 1.387 . S
C418 C419 1.369 . S
C418 H427 0.929 . S
C419 N416 1.346 . S
C419 C418 1.369 . S
C419 H422 0.928 . S
C420 N416 1.345 . S
C420 C421 1.371 . S
C420 H423 0.931 . S
C421 C417 1.391 . S
C421 C420 1.371 . S
C421 H428 0.930 . S
H422 C419 0.928 . S
H423 C420 0.931 . S
H424 C400 0.930 . S
H425 C397 0.930 . S
H426 C406 0.930 . S
H427 C418 0.929 . S
H428 C421 0.930 . S
C429 C430 1.351 . S
C429 N432 1.368 . S
C429 H434 0.931 . S
C430 C429 1.351 . S
C430 N431 1.373 . S
C430 H458 0.930 . S
N431 C430 1.373 . S
N431 C433 1.340 . S
N432 C429 1.368 . S
N432 C433 1.321 . S
N432 Co435 2.135 . S
C433 N431 1.340 . S
C433 N432 1.321 . S
C433 H457 0.930 . S
H434 C429 0.931 . S
Co435 N432 2.135 . S
Co435 N438 2.121 . S
Co435 O443 2.055 . S
Co435 O446 2.039 . S
Co435 N449 2.140 . S
C436 O437 1.227 . S
C436 O446 1.265 . S
O437 C436 1.227 . S
N438 Co435 2.121 . S
N438 C440 1.375 . S
N438 C441 1.313 . S
C439 C440 1.338 . S
C439 N442 1.377 . S
C439 H459 0.930 . S
C440 N438 1.375 . S
C440 C439 1.338 . S
C440 H444 0.931 . S
C441 N438 1.313 . S
C441 N442 1.344 . S
C441 H445 0.930 . S
N442 C439 1.377 . S
N442 C441 1.344 . S
O443 Co435 2.055 . S
O443 C447 1.253 . S
H444 C440 0.931 . S
H445 C441 0.930 . S
O446 Co435 2.039 . S
O446 C436 1.265 . S
C447 O443 1.253 . S
C447 O448 1.227 . S
O448 C447 1.227 . S
N449 Co435 2.140 . S
N449 C452 1.346 . S
N449 C453 1.345 . S
C450 C451 1.387 . S
C450 C454 1.391 . S
C451 C450 1.387 . S
C451 C452 1.369 . S
C451 H460 0.929 . S
C452 N449 1.346 . S
C452 C451 1.369 . S
C452 H455 0.928 . S
C453 N449 1.345 . S
C453 C454 1.371 . S
C453 H456 0.931 . S
C454 C450 1.391 . S
C454 C453 1.371 . S
C454 H461 0.930 . S
H455 C452 0.928 . S
H456 C453 0.931 . S
H457 C433 0.930 . S
H458 C430 0.930 . S
H459 C439 0.930 . S
H460 C451 0.929 . S
H461 C454 0.930 . S
C462 C463 1.351 . S
C462 N465 1.368 . S
C462 H467 0.931 . S
C463 C462 1.351 . S
C463 N464 1.373 . S
C463 H491 0.930 . S
N464 C463 1.373 . S
N464 C466 1.340 . S
N465 C462 1.368 . S
N465 C466 1.321 . S
N465 Co468 2.135 . S
C466 N464 1.340 . S
C466 N465 1.321 . S
C466 H490 0.930 . S
H467 C462 0.931 . S
Co468 N465 2.135 . S
Co468 N471 2.121 . S
Co468 O476 2.055 . S
Co468 O479 2.039 . S
Co468 N482 2.140 . S
C469 O470 1.227 . S
C469 O479 1.265 . S
O470 C469 1.227 . S
N471 Co468 2.121 . S
N471 C473 1.375 . S
N471 C474 1.313 . S
C472 C473 1.338 . S
C472 N475 1.377 . S
C472 H492 0.930 . S
C473 N471 1.375 . S
C473 C472 1.338 . S
C473 H477 0.931 . S
C474 N471 1.313 . S
C474 N475 1.344 . S
C474 H478 0.930 . S
N475 C472 1.377 . S
N475 C474 1.344 . S
O476 Co468 2.055 . S
O476 C480 1.253 . S
H477 C473 0.931 . S
H478 C474 0.930 . S
O479 Co468 2.039 . S
O479 C469 1.265 . S
C480 O476 1.253 . S
C480 O481 1.227 . S
O481 C480 1.227 . S
N482 Co468 2.140 . S
N482 C485 1.346 . S
N482 C486 1.345 . S
C483 C484 1.387 . S
C483 C487 1.391 . S
C484 C483 1.387 . S
C484 C485 1.369 . S
C484 H493 0.929 . S
C485 N482 1.346 . S
C485 C484 1.369 . S
C485 H488 0.928 . S
C486 N482 1.345 . S
C486 C487 1.371 . S
C486 H489 0.931 . S
C487 C483 1.391 . S
C487 C486 1.371 . S
C487 H494 0.930 . S
H488 C485 0.928 . S
H489 C486 0.931 . S
H490 C466 0.930 . S
H491 C463 0.930 . S
H492 C472 0.930 . S
H493 C484 0.929 . S
H494 C487 0.930 . S
C495 C496 1.351 . S
C495 N498 1.368 1_556 S
C495 H500 0.931 . S
C496 C495 1.351 . S
C496 N497 1.373 1_556 S
C496 H524 0.930 . S
N497 C496 1.373 1_554 S
N497 C499 1.340 . S
N498 C495 1.368 1_554 S
N498 C499 1.321 . S
N498 Co501 2.135 . S
C499 N497 1.340 . S
C499 N498 1.321 . S
C499 H523 0.930 . S
H500 C495 0.931 . S
Co501 N498 2.135 . S
Co501 N504 2.121 . S
Co501 O509 2.055 . S
Co501 O512 2.039 . S
Co501 N515 2.140 . S
C502 O503 1.227 . S
C502 O512 1.265 . S
O503 C502 1.227 . S
N504 Co501 2.121 . S
N504 C506 1.375 . S
N504 C507 1.313 . S
C505 C506 1.338 . S
C505 N508 1.377 . S
C505 H525 0.930 . S
C506 N504 1.375 . S
C506 C505 1.338 . S
C506 H510 0.931 . S
C507 N504 1.313 . S
C507 N508 1.344 . S
C507 H511 0.930 . S
N508 C505 1.377 . S
N508 C507 1.344 . S
O509 Co501 2.055 . S
O509 C513 1.253 1_554 S
H510 C506 0.931 . S
H511 C507 0.930 . S
O512 Co501 2.039 . S
O512 C502 1.265 . S
C513 O509 1.253 1_556 S
C513 O514 1.227 1_556 S
O514 C513 1.227 1_554 S
N515 Co501 2.140 . S
N515 C518 1.346 . S
N515 C519 1.345 . S
C516 C517 1.387 . S
C516 C520 1.391 . S
C517 C516 1.387 . S
C517 C518 1.369 . S
C517 H526 0.929 . S
C518 N515 1.346 . S
C518 C517 1.369 . S
C518 H521 0.928 . S
C519 N515 1.345 . S
C519 C520 1.371 . S
C519 H522 0.931 . S
C520 C516 1.391 . S
C520 C519 1.371 . S
C520 H527 0.930 . S
H521 C518 0.928 . S
H522 C519 0.931 . S
H523 C499 0.930 . S
H524 C496 0.930 . S
H525 C505 0.930 . S
H526 C517 0.929 . S
H527 C520 0.930 . S
C528 C529 1.351 . S
C528 N531 1.368 . S
C528 H533 0.931 . S
C529 C528 1.351 . S
C529 N530 1.373 . S
C529 H557 0.930 . S
N530 C529 1.373 . S
N530 C532 1.340 . S
N531 C528 1.368 . S
N531 C532 1.321 . S
N531 Co534 2.135 . S
C532 N530 1.340 . S
C532 N531 1.321 . S
C532 H556 0.930 . S
H533 C528 0.931 . S
Co534 N531 2.135 . S
Co534 N537 2.121 . S
Co534 O542 2.055 . S
Co534 O545 2.039 . S
Co534 N548 2.140 . S
C535 O536 1.227 . S
C535 O545 1.265 . S
O536 C535 1.227 . S
N537 Co534 2.121 . S
N537 C539 1.375 . S
N537 C540 1.313 . S
C538 C539 1.338 . S
C538 N541 1.377 . S
C538 H558 0.930 . S
C539 N537 1.375 . S
C539 C538 1.338 . S
C539 H543 0.931 . S
C540 N537 1.313 . S
C540 N541 1.344 . S
C540 H544 0.930 . S
N541 C538 1.377 . S
N541 C540 1.344 . S
O542 Co534 2.055 . S
O542 C546 1.253 . S
H543 C539 0.931 . S
H544 C540 0.930 . S
O545 Co534 2.039 . S
O545 C535 1.265 . S
C546 O542 1.253 . S
C546 O547 1.227 . S
O547 C546 1.227 . S
N548 Co534 2.140 . S
N548 C551 1.346 . S
N548 C552 1.345 . S
C549 C550 1.387 . S
C549 C553 1.391 . S
C550 C549 1.387 . S
C550 C551 1.369 . S
C550 H559 0.929 . S
C551 N548 1.346 . S
C551 C550 1.369 . S
C551 H554 0.928 . S
C552 N548 1.345 . S
C552 C553 1.371 . S
C552 H555 0.931 . S
C553 C549 1.391 . S
C553 C552 1.371 . S
C553 H560 0.930 . S
H554 C551 0.928 . S
H555 C552 0.931 . S
H556 C532 0.930 . S
H557 C529 0.930 . S
H558 C538 0.930 . S
H559 C550 0.929 . S
H560 C553 0.930 . S
C561 C562 1.351 . S
C561 N564 1.368 1_556 S
C561 H566 0.931 . S
C562 C561 1.351 . S
C562 N563 1.373 1_556 S
C562 H590 0.930 . S
N563 C562 1.373 1_554 S
N563 C565 1.340 . S
N564 C561 1.368 1_554 S
N564 C565 1.321 . S
N564 Co567 2.135 . S
C565 N563 1.340 . S
C565 N564 1.321 . S
C565 H589 0.930 . S
H566 C561 0.931 . S
Co567 N564 2.135 . S
Co567 N570 2.121 . S
Co567 O575 2.055 . S
Co567 O578 2.039 . S
Co567 N581 2.140 . S
C568 O569 1.227 . S
C568 O578 1.265 . S
O569 C568 1.227 . S
N570 Co567 2.121 . S
N570 C572 1.375 . S
N570 C573 1.313 . S
C571 C572 1.338 . S
C571 N574 1.377 . S
C571 H591 0.930 . S
C572 N570 1.375 . S
C572 C571 1.338 . S
C572 H576 0.931 . S
C573 N570 1.313 . S
C573 N574 1.344 . S
C573 H577 0.930 . S
N574 C571 1.377 . S
N574 C573 1.344 . S
O575 Co567 2.055 . S
O575 C579 1.253 1_554 S
H576 C572 0.931 . S
H577 C573 0.930 . S
O578 Co567 2.039 . S
O578 C568 1.265 . S
C579 O575 1.253 1_556 S
C579 O580 1.227 1_556 S
O580 C579 1.227 1_554 S
N581 Co567 2.140 . S
N581 C584 1.346 . S
N581 C585 1.345 . S
C582 C583 1.387 . S
C582 C586 1.391 . S
C583 C582 1.387 . S
C583 C584 1.369 . S
C583 H592 0.929 . S
C584 N581 1.346 . S
C584 C583 1.369 . S
C584 H587 0.928 . S
C585 N581 1.345 . S
C585 C586 1.371 . S
C585 H588 0.931 . S
C586 C582 1.391 . S
C586 C585 1.371 . S
C586 H593 0.930 . S
H587 C584 0.928 . S
H588 C585 0.931 . S
H589 C565 0.930 . S
H590 C562 0.930 . S
H591 C571 0.930 . S
H592 C583 0.929 . S
H593 C586 0.930 . S
C594 C595 1.351 . S
C594 N597 1.368 . S
C594 H599 0.931 . S
C595 C594 1.351 . S
C595 N596 1.373 . S
C595 H623 0.930 . S
N596 C595 1.373 . S
N596 C598 1.340 . S
N597 C594 1.368 . S
N597 C598 1.321 . S
N597 Co600 2.135 . S
C598 N596 1.340 . S
C598 N597 1.321 . S
C598 H622 0.930 . S
H599 C594 0.931 . S
Co600 N597 2.135 . S
Co600 N603 2.121 . S
Co600 O608 2.055 . S
Co600 O611 2.039 . S
Co600 N614 2.140 . S
C601 O602 1.227 . S
C601 O611 1.265 . S
O602 C601 1.227 . S
N603 Co600 2.121 . S
N603 C605 1.375 . S
N603 C606 1.313 . S
C604 C605 1.338 . S
C604 N607 1.377 . S
C604 H624 0.930 . S
C605 N603 1.375 . S
C605 C604 1.338 . S
C605 H609 0.931 . S
C606 N603 1.313 . S
C606 N607 1.344 . S
C606 H610 0.930 . S
N607 C604 1.377 . S
N607 C606 1.344 . S
O608 Co600 2.055 . S
O608 C612 1.253 . S
H609 C605 0.931 . S
H610 C606 0.930 . S
O611 Co600 2.039 . S
O611 C601 1.265 . S
C612 O608 1.253 . S
C612 O613 1.227 . S
O613 C612 1.227 . S
N614 Co600 2.140 . S
N614 C617 1.346 . S
N614 C618 1.345 . S
C615 C616 1.387 . S
C615 C619 1.391 . S
C616 C615 1.387 . S
C616 C617 1.369 . S
C616 H625 0.929 . S
C617 N614 1.346 . S
C617 C616 1.369 . S
C617 H620 0.928 . S
C618 N614 1.345 . S
C618 C619 1.371 . S
C618 H621 0.931 . S
C619 C615 1.391 . S
C619 C618 1.371 . S
C619 H626 0.930 . S
H620 C617 0.928 . S
H621 C618 0.931 . S
H622 C598 0.930 . S
H623 C595 0.930 . S
H624 C604 0.930 . S
H625 C616 0.929 . S
H626 C619 0.930 . S
C627 C628 1.351 . S
C627 N630 1.368 . S
C627 H632 0.931 . S
C628 C627 1.351 . S
C628 N629 1.373 . S
C628 H656 0.930 . S
N629 C628 1.373 . S
N629 C631 1.340 . S
N630 C627 1.368 . S
N630 C631 1.321 . S
N630 Co633 2.135 . S
C631 N629 1.340 . S
C631 N630 1.321 . S
C631 H655 0.930 . S
H632 C627 0.931 . S
Co633 N630 2.135 . S
Co633 N636 2.121 . S
Co633 O641 2.055 . S
Co633 O644 2.039 . S
Co633 N647 2.140 . S
C634 O635 1.227 . S
C634 O644 1.265 . S
O635 C634 1.227 . S
N636 Co633 2.121 . S
N636 C638 1.375 . S
N636 C639 1.313 . S
C637 C638 1.338 . S
C637 N640 1.377 . S
C637 H657 0.930 . S
C638 N636 1.375 . S
C638 C637 1.338 . S
C638 H642 0.931 . S
C639 N636 1.313 . S
C639 N640 1.344 . S
C639 H643 0.930 . S
N640 C637 1.377 . S
N640 C639 1.344 . S
O641 Co633 2.055 . S
O641 C645 1.253 . S
H642 C638 0.931 . S
H643 C639 0.930 . S
O644 Co633 2.039 . S
O644 C634 1.265 . S
C645 O641 1.253 . S
C645 O646 1.227 . S
O646 C645 1.227 . S
N647 Co633 2.140 . S
N647 C650 1.346 . S
N647 C651 1.345 . S
C648 C649 1.387 . S
C648 C652 1.391 . S
C649 C648 1.387 . S
C649 C650 1.369 . S
C649 H658 0.929 . S
C650 N647 1.346 . S
C650 C649 1.369 . S
C650 H653 0.928 . S
C651 N647 1.345 . S
C651 C652 1.371 . S
C651 H654 0.931 . S
C652 C648 1.391 . S
C652 C651 1.371 . S
C652 H659 0.930 . S
H653 C650 0.928 . S
H654 C651 0.931 . S
H655 C631 0.930 . S
H656 C628 0.930 . S
H657 C637 0.930 . S
H658 C649 0.929 . S
H659 C652 0.930 . S
C660 C661 1.351 . S
C660 N663 1.368 . S
C660 H665 0.931 . S
C661 C660 1.351 . S
C661 N662 1.373 . S
C661 H689 0.930 . S
N662 C661 1.373 . S
N662 C664 1.340 . S
N663 C660 1.368 . S
N663 C664 1.321 . S
N663 Co666 2.135 . S
C664 N662 1.340 . S
C664 N663 1.321 . S
C664 H688 0.930 . S
H665 C660 0.931 . S
Co666 N663 2.135 . S
Co666 N669 2.121 . S
Co666 O674 2.055 . S
Co666 O677 2.039 . S
Co666 N680 2.140 . S
C667 O668 1.227 . S
C667 O677 1.265 . S
O668 C667 1.227 . S
N669 Co666 2.121 . S
N669 C671 1.375 . S
N669 C672 1.313 . S
C670 C671 1.338 . S
C670 N673 1.377 . S
C670 H690 0.930 . S
C671 N669 1.375 . S
C671 C670 1.338 . S
C671 H675 0.931 . S
C672 N669 1.313 . S
C672 N673 1.344 . S
C672 H676 0.930 . S
N673 C670 1.377 . S
N673 C672 1.344 . S
O674 Co666 2.055 . S
O674 C678 1.253 . S
H675 C671 0.931 . S
H676 C672 0.930 . S
O677 Co666 2.039 . S
O677 C667 1.265 . S
C678 O674 1.253 . S
C678 O679 1.227 . S
O679 C678 1.227 . S
N680 Co666 2.140 . S
N680 C683 1.346 . S
N680 C684 1.345 . S
C681 C682 1.387 . S
C681 C685 1.391 . S
C682 C681 1.387 . S
C682 C683 1.369 . S
C682 H691 0.929 . S
C683 N680 1.346 . S
C683 C682 1.369 . S
C683 H686 0.928 . S
C684 N680 1.345 . S
C684 C685 1.371 . S
C684 H687 0.931 . S
C685 C681 1.391 . S
C685 C684 1.371 . S
C685 H692 0.930 . S
H686 C683 0.928 . S
H687 C684 0.931 . S
H688 C664 0.930 . S
H689 C661 0.930 . S
H690 C670 0.930 . S
H691 C682 0.929 . S
H692 C685 0.930 . S
C693 C694 1.351 . S
C693 N696 1.368 1_554 S
C693 H698 0.931 . S
C694 C693 1.351 . S
C694 N695 1.373 1_554 S
C694 H722 0.930 . S
N695 C694 1.373 1_556 S
N695 C697 1.340 . S
N696 C693 1.368 1_556 S
N696 C697 1.321 . S
N696 Co699 2.135 . S
C697 N695 1.340 . S
C697 N696 1.321 . S
C697 H721 0.930 . S
H698 C693 0.931 . S
Co699 N696 2.135 . S
Co699 N702 2.121 . S
Co699 O707 2.055 . S
Co699 O710 2.039 . S
Co699 N713 2.140 . S
C700 O701 1.227 . S
C700 O710 1.265 . S
O701 C700 1.227 . S
N702 Co699 2.121 . S
N702 C704 1.375 . S
N702 C705 1.313 . S
C703 C704 1.338 . S
C703 N706 1.377 . S
C703 H723 0.930 . S
C704 N702 1.375 . S
C704 C703 1.338 . S
C704 H708 0.931 . S
C705 N702 1.313 . S
C705 N706 1.344 . S
C705 H709 0.930 . S
N706 C703 1.377 . S
N706 C705 1.344 . S
O707 Co699 2.055 . S
O707 C711 1.253 1_556 S
H708 C704 0.931 . S
H709 C705 0.930 . S
O710 Co699 2.039 . S
O710 C700 1.265 . S
C711 O707 1.253 1_554 S
C711 O712 1.227 1_554 S
O712 C711 1.227 1_556 S
N713 Co699 2.140 . S
N713 C716 1.346 . S
N713 C717 1.345 . S
C714 C715 1.387 . S
C714 C718 1.391 . S
C715 C714 1.387 . S
C715 C716 1.369 . S
C715 H724 0.929 . S
C716 N713 1.346 . S
C716 C715 1.369 . S
C716 H719 0.928 . S
C717 N713 1.345 . S
C717 C718 1.371 . S
C717 H720 0.931 . S
C718 C714 1.391 . S
C718 C717 1.371 . S
C718 H725 0.930 . S
H719 C716 0.928 . S
H720 C717 0.931 . S
H721 C697 0.930 . S
H722 C694 0.930 . S
H723 C703 0.930 . S
H724 C715 0.929 . S
H725 C718 0.930 . S
C726 C727 1.351 . S
C726 N729 1.368 . S
C726 H731 0.931 . S
C727 C726 1.351 . S
C727 N728 1.373 . S
C727 H755 0.930 . S
N728 C727 1.373 . S
N728 C730 1.340 . S
N729 C726 1.368 . S
N729 C730 1.321 . S
N729 Co732 2.135 . S
C730 N728 1.340 . S
C730 N729 1.321 . S
C730 H754 0.930 . S
H731 C726 0.931 . S
Co732 N729 2.135 . S
Co732 N735 2.121 . S
Co732 O740 2.055 . S
Co732 O743 2.039 . S
Co732 N746 2.140 . S
C733 O734 1.227 . S
C733 O743 1.265 . S
O734 C733 1.227 . S
N735 Co732 2.121 . S
N735 C737 1.375 . S
N735 C738 1.313 . S
C736 C737 1.338 . S
C736 N739 1.377 . S
C736 H756 0.930 . S
C737 N735 1.375 . S
C737 C736 1.338 . S
C737 H741 0.931 . S
C738 N735 1.313 . S
C738 N739 1.344 . S
C738 H742 0.930 . S
N739 C736 1.377 . S
N739 C738 1.344 . S
O740 Co732 2.055 . S
O740 C744 1.253 . S
H741 C737 0.931 . S
H742 C738 0.930 . S
O743 Co732 2.039 . S
O743 C733 1.265 . S
C744 O740 1.253 . S
C744 O745 1.227 . S
O745 C744 1.227 . S
N746 Co732 2.140 . S
N746 C749 1.346 . S
N746 C750 1.345 . S
C747 C748 1.387 . S
C747 C751 1.391 . S
C748 C747 1.387 . S
C748 C749 1.369 . S
C748 H757 0.929 . S
C749 N746 1.346 . S
C749 C748 1.369 . S
C749 H752 0.928 . S
C750 N746 1.345 . S
C750 C751 1.371 . S
C750 H753 0.931 . S
C751 C747 1.391 . S
C751 C750 1.371 . S
C751 H758 0.930 . S
H752 C749 0.928 . S
H753 C750 0.931 . S
H754 C730 0.930 . S
H755 C727 0.930 . S
H756 C736 0.930 . S
H757 C748 0.929 . S
H758 C751 0.930 . S
C759 C760 1.351 . S
C759 N762 1.368 . S
C759 H764 0.931 . S
C760 C759 1.351 . S
C760 N761 1.373 . S
C760 H788 0.930 . S
N761 C760 1.373 . S
N761 C763 1.340 . S
N762 C759 1.368 . S
N762 C763 1.321 . S
N762 Co765 2.135 . S
C763 N761 1.340 . S
C763 N762 1.321 . S
C763 H787 0.930 . S
H764 C759 0.931 . S
Co765 N762 2.135 . S
Co765 N768 2.121 . S
Co765 O773 2.055 . S
Co765 O776 2.039 . S
Co765 N779 2.140 . S
C766 O767 1.227 . S
C766 O776 1.265 . S
O767 C766 1.227 . S
N768 Co765 2.121 . S
N768 C770 1.375 . S
N768 C771 1.313 . S
C769 C770 1.338 . S
C769 N772 1.377 . S
C769 H789 0.930 . S
C770 N768 1.375 . S
C770 C769 1.338 . S
C770 H774 0.931 . S
C771 N768 1.313 . S
C771 N772 1.344 . S
C771 H775 0.930 . S
N772 C769 1.377 . S
N772 C771 1.344 . S
O773 Co765 2.055 . S
O773 C777 1.253 . S
H774 C770 0.931 . S
H775 C771 0.930 . S
O776 Co765 2.039 . S
O776 C766 1.265 . S
C777 O773 1.253 . S
C777 O778 1.227 . S
O778 C777 1.227 . S
N779 Co765 2.140 . S
N779 C782 1.346 . S
N779 C783 1.345 . S
C780 C781 1.387 . S
C780 C784 1.391 . S
C781 C780 1.387 . S
C781 C782 1.369 . S
C781 H790 0.929 . S
C782 N779 1.346 . S
C782 C781 1.369 . S
C782 H785 0.928 . S
C783 N779 1.345 . S
C783 C784 1.371 . S
C783 H786 0.931 . S
C784 C780 1.391 . S
C784 C783 1.371 . S
C784 H791 0.930 . S
H785 C782 0.928 . S
H786 C783 0.931 . S
H787 C763 0.930 . S
H788 C760 0.930 . S
H789 C769 0.930 . S
H790 C781 0.929 . S
H791 C784 0.930 . S
C792 C793 1.351 . S
C792 N795 1.368 . S
C792 H797 0.931 . S
C793 C792 1.351 . S
C793 N794 1.373 . S
C793 H821 0.930 . S
N794 C793 1.373 . S
N794 C796 1.340 . S
N795 C792 1.368 . S
N795 C796 1.321 . S
N795 Co798 2.135 . S
C796 N794 1.340 . S
C796 N795 1.321 . S
C796 H820 0.930 . S
H797 C792 0.931 . S
Co798 N795 2.135 . S
Co798 N801 2.121 . S
Co798 O806 2.055 . S
Co798 O809 2.039 . S
Co798 N812 2.140 . S
C799 O800 1.227 . S
C799 O809 1.265 . S
O800 C799 1.227 . S
N801 Co798 2.121 . S
N801 C803 1.375 . S
N801 C804 1.313 . S
C802 C803 1.338 . S
C802 N805 1.377 . S
C802 H822 0.930 . S
C803 N801 1.375 . S
C803 C802 1.338 . S
C803 H807 0.931 . S
C804 N801 1.313 . S
C804 N805 1.344 . S
C804 H808 0.930 . S
N805 C802 1.377 . S
N805 C804 1.344 . S
O806 Co798 2.055 . S
O806 C810 1.253 . S
H807 C803 0.931 . S
H808 C804 0.930 . S
O809 Co798 2.039 . S
O809 C799 1.265 . S
C810 O806 1.253 . S
C810 O811 1.227 . S
O811 C810 1.227 . S
N812 Co798 2.140 . S
N812 C815 1.346 . S
N812 C816 1.345 . S
C813 C814 1.387 . S
C813 C817 1.391 . S
C814 C813 1.387 . S
C814 C815 1.369 . S
C814 H823 0.929 . S
C815 N812 1.346 . S
C815 C814 1.369 . S
C815 H818 0.928 . S
C816 N812 1.345 . S
C816 C817 1.371 . S
C816 H819 0.931 . S
C817 C813 1.391 . S
C817 C816 1.371 . S
C817 H824 0.930 . S
H818 C815 0.928 . S
H819 C816 0.931 . S
H820 C796 0.930 . S
H821 C793 0.930 . S
H822 C802 0.930 . S
H823 C814 0.929 . S
H824 C817 0.930 . S
C825 C826 1.351 . S
C825 N828 1.368 1_554 S
C825 H830 0.931 . S
C826 C825 1.351 . S
C826 N827 1.373 1_554 S
C826 H854 0.930 . S
N827 C826 1.373 1_556 S
N827 C829 1.340 . S
N828 C825 1.368 1_556 S
N828 C829 1.321 . S
N828 Co831 2.135 . S
C829 N827 1.340 . S
C829 N828 1.321 . S
C829 H853 0.930 . S
H830 C825 0.931 . S
Co831 N828 2.135 . S
Co831 N834 2.121 . S
Co831 O839 2.055 . S
Co831 O842 2.039 . S
Co831 N845 2.140 . S
C832 O833 1.227 . S
C832 O842 1.265 . S
O833 C832 1.227 . S
N834 Co831 2.121 . S
N834 C836 1.375 . S
N834 C837 1.313 . S
C835 C836 1.338 . S
C835 N838 1.377 . S
C835 H855 0.930 . S
C836 N834 1.375 . S
C836 C835 1.338 . S
C836 H840 0.931 . S
C837 N834 1.313 . S
C837 N838 1.344 . S
C837 H841 0.930 . S
N838 C835 1.377 . S
N838 C837 1.344 . S
O839 Co831 2.055 . S
O839 C843 1.253 1_556 S
H840 C836 0.931 . S
H841 C837 0.930 . S
O842 Co831 2.039 . S
O842 C832 1.265 . S
C843 O839 1.253 1_554 S
C843 O844 1.227 1_554 S
O844 C843 1.227 1_556 S
N845 Co831 2.140 . S
N845 C848 1.346 . S
N845 C849 1.345 . S
C846 C847 1.387 . S
C846 C850 1.391 . S
C847 C846 1.387 . S
C847 C848 1.369 . S
C847 H856 0.929 . S
C848 N845 1.346 . S
C848 C847 1.369 . S
C848 H851 0.928 . S
C849 N845 1.345 . S
C849 C850 1.371 . S
C849 H852 0.931 . S
C850 C846 1.391 . S
C850 C849 1.371 . S
C850 H857 0.930 . S
H851 C848 0.928 . S
H852 C849 0.931 . S
H853 C829 0.930 . S
H854 C826 0.930 . S
H855 C835 0.930 . S
H856 C847 0.929 . S
H857 C850 0.930 . S
C858 C859 1.351 . S
C858 N861 1.368 . S
C858 H863 0.931 . S
C859 C858 1.351 . S
C859 N860 1.373 . S
C859 H887 0.930 . S
N860 C859 1.373 . S
N860 C862 1.340 . S
N861 C858 1.368 . S
N861 C862 1.321 . S
N861 Co864 2.135 . S
C862 N860 1.340 . S
C862 N861 1.321 . S
C862 H886 0.930 . S
H863 C858 0.931 . S
Co864 N861 2.135 . S
Co864 N867 2.121 . S
Co864 O872 2.055 . S
Co864 O875 2.039 . S
Co864 N878 2.140 . S
C865 O866 1.227 . S
C865 O875 1.265 . S
O866 C865 1.227 . S
N867 Co864 2.121 . S
N867 C869 1.375 . S
N867 C870 1.313 . S
C868 C869 1.338 . S
C868 N871 1.377 . S
C868 H888 0.930 . S
C869 N867 1.375 . S
C869 C868 1.338 . S
C869 H873 0.931 . S
C870 N867 1.313 . S
C870 N871 1.344 . S
C870 H874 0.930 . S
N871 C868 1.377 . S
N871 C870 1.344 . S
O872 Co864 2.055 . S
O872 C876 1.253 . S
H873 C869 0.931 . S
H874 C870 0.930 . S
O875 Co864 2.039 . S
O875 C865 1.265 . S
C876 O872 1.253 . S
C876 O877 1.227 . S
O877 C876 1.227 . S
N878 Co864 2.140 . S
N878 C881 1.346 . S
N878 C882 1.345 . S
C879 C880 1.387 . S
C879 C883 1.391 . S
C880 C879 1.387 . S
C880 C881 1.369 . S
C880 H889 0.929 . S
C881 N878 1.346 . S
C881 C880 1.369 . S
C881 H884 0.928 . S
C882 N878 1.345 . S
C882 C883 1.371 . S
C882 H885 0.931 . S
C883 C879 1.391 . S
C883 C882 1.371 . S
C883 H890 0.930 . S
H884 C881 0.928 . S
H885 C882 0.931 . S
H886 C862 0.930 . S
H887 C859 0.930 . S
H888 C868 0.930 . S
H889 C880 0.929 . S
H890 C883 0.930 . S
C891 C892 1.351 . S
C891 N894 1.368 . S
C891 H896 0.931 . S
C892 C891 1.351 . S
C892 N893 1.373 . S
C892 H920 0.930 . S
N893 C892 1.373 . S
N893 C895 1.340 . S
N894 C891 1.368 . S
N894 C895 1.321 . S
N894 Co897 2.135 . S
C895 N893 1.340 . S
C895 N894 1.321 . S
C895 H919 0.930 . S
H896 C891 0.931 . S
Co897 N894 2.135 . S
Co897 N900 2.121 . S
Co897 O905 2.055 . S
Co897 O908 2.039 . S
Co897 N911 2.140 . S
C898 O899 1.227 . S
C898 O908 1.265 . S
O899 C898 1.227 . S
N900 Co897 2.121 . S
N900 C902 1.375 . S
N900 C903 1.313 . S
C901 C902 1.338 . S
C901 N904 1.377 . S
C901 H921 0.930 . S
C902 N900 1.375 . S
C902 C901 1.338 . S
C902 H906 0.931 . S
C903 N900 1.313 . S
C903 N904 1.344 . S
C903 H907 0.930 . S
N904 C901 1.377 . S
N904 C903 1.344 . S
O905 Co897 2.055 . S
O905 C909 1.253 . S
H906 C902 0.931 . S
H907 C903 0.930 . S
O908 Co897 2.039 . S
O908 C898 1.265 . S
C909 O905 1.253 . S
C909 O910 1.227 . S
O910 C909 1.227 . S
N911 Co897 2.140 . S
N911 C914 1.346 . S
N911 C915 1.345 . S
C912 C913 1.387 . S
C912 C916 1.391 . S
C913 C912 1.387 . S
C913 C914 1.369 . S
C913 H922 0.929 . S
C914 N911 1.346 . S
C914 C913 1.369 . S
C914 H917 0.928 . S
C915 N911 1.345 . S
C915 C916 1.371 . S
C915 H918 0.931 . S
C916 C912 1.391 . S
C916 C915 1.371 . S
C916 H923 0.930 . S
H917 C914 0.928 . S
H918 C915 0.931 . S
H919 C895 0.930 . S
H920 C892 0.930 . S
H921 C901 0.930 . S
H922 C913 0.929 . S
H923 C916 0.930 . S
C924 C925 1.351 . S
C924 N927 1.368 . S
C924 H929 0.931 . S
C925 C924 1.351 . S
C925 N926 1.373 . S
C925 H953 0.930 . S
N926 C925 1.373 . S
N926 C928 1.340 . S
N927 C924 1.368 . S
N927 C928 1.321 . S
N927 Co930 2.135 . S
C928 N926 1.340 . S
C928 N927 1.321 . S
C928 H952 0.930 . S
H929 C924 0.931 . S
Co930 N927 2.135 . S
Co930 N933 2.121 . S
Co930 O938 2.055 . S
Co930 O941 2.039 . S
Co930 N944 2.140 . S
C931 O932 1.227 . S
C931 O941 1.265 . S
O932 C931 1.227 . S
N933 Co930 2.121 . S
N933 C935 1.375 . S
N933 C936 1.313 . S
C934 C935 1.338 . S
C934 N937 1.377 . S
C934 H954 0.930 . S
C935 N933 1.375 . S
C935 C934 1.338 . S
C935 H939 0.931 . S
C936 N933 1.313 . S
C936 N937 1.344 . S
C936 H940 0.930 . S
N937 C934 1.377 . S
N937 C936 1.344 . S
O938 Co930 2.055 . S
O938 C942 1.253 . S
H939 C935 0.931 . S
H940 C936 0.930 . S
O941 Co930 2.039 . S
O941 C931 1.265 . S
C942 O938 1.253 . S
C942 O943 1.227 . S
O943 C942 1.227 . S
N944 Co930 2.140 . S
N944 C947 1.346 . S
N944 C948 1.345 . S
C945 C946 1.387 . S
C945 C949 1.391 . S
C946 C945 1.387 . S
C946 C947 1.369 . S
C946 H955 0.929 . S
C947 N944 1.346 . S
C947 C946 1.369 . S
C947 H950 0.928 . S
C948 N944 1.345 . S
C948 C949 1.371 . S
C948 H951 0.931 . S
C949 C945 1.391 . S
C949 C948 1.371 . S
C949 H956 0.930 . S
H950 C947 0.928 . S
H951 C948 0.931 . S
H952 C928 0.930 . S
H953 C925 0.930 . S
H954 C934 0.930 . S
H955 C946 0.929 . S
H956 C949 0.930 . S
C957 C958 1.351 . S
C957 N960 1.368 1_556 S
C957 H962 0.931 . S
C958 C957 1.351 . S
C958 N959 1.373 1_556 S
C958 H986 0.930 . S
N959 C958 1.373 1_554 S
N959 C961 1.340 . S
N960 C957 1.368 1_554 S
N960 C961 1.321 . S
N960 Co963 2.135 . S
C961 N959 1.340 . S
C961 N960 1.321 . S
C961 H985 0.930 . S
H962 C957 0.931 . S
Co963 N960 2.135 . S
Co963 N966 2.121 . S
Co963 O971 2.055 . S
Co963 O974 2.039 . S
Co963 N977 2.140 . S
C964 O965 1.227 . S
C964 O974 1.265 . S
O965 C964 1.227 . S
N966 Co963 2.121 . S
N966 C968 1.375 . S
N966 C969 1.313 . S
C967 C968 1.338 . S
C967 N970 1.377 . S
C967 H987 0.930 . S
C968 N966 1.375 . S
C968 C967 1.338 . S
C968 H972 0.931 . S
C969 N966 1.313 . S
C969 N970 1.344 . S
C969 H973 0.930 . S
N970 C967 1.377 . S
N970 C969 1.344 . S
O971 Co963 2.055 . S
O971 C975 1.253 1_554 S
H972 C968 0.931 . S
H973 C969 0.930 . S
O974 Co963 2.039 . S
O974 C964 1.265 . S
C975 O971 1.253 1_556 S
C975 O976 1.227 1_556 S
O976 C975 1.227 1_554 S
N977 Co963 2.140 . S
N977 C980 1.346 . S
N977 C981 1.345 . S
C978 C979 1.387 . S
C978 C982 1.391 . S
C979 C978 1.387 . S
C979 C980 1.369 . S
C979 H988 0.929 . S
C980 N977 1.346 . S
C980 C979 1.369 . S
C980 H983 0.928 . S
C981 N977 1.345 . S
C981 C982 1.371 . S
C981 H984 0.931 . S
C982 C978 1.391 . S
C982 C981 1.371 . S
C982 H989 0.930 . S
H983 C980 0.928 . S
H984 C981 0.931 . S
H985 C961 0.930 . S
H986 C958 0.930 . S
H987 C967 0.930 . S
H988 C979 0.929 . S
H989 C982 0.930 . S
C990 C991 1.351 . S
C990 N993 1.368 . S
C990 H995 0.931 . S
C991 C990 1.351 . S
C991 N992 1.373 . S
C991 H1019 0.930 . S
N992 C991 1.373 . S
N992 C994 1.340 . S
N993 C990 1.368 . S
N993 C994 1.321 . S
N993 Co996 2.135 . S
C994 N992 1.340 . S
C994 N993 1.321 . S
C994 H1018 0.930 . S
H995 C990 0.931 . S
Co996 N993 2.135 . S
Co996 N999 2.121 . S
Co996 O1004 2.055 . S
Co996 O1007 2.039 . S
Co996 N1010 2.140 . S
C997 O998 1.227 . S
C997 O1007 1.265 . S
O998 C997 1.227 . S
N999 Co996 2.121 . S
N999 C1001 1.375 . S
N999 C1002 1.313 . S
C1000 C1001 1.338 . S
C1000 N1003 1.377 . S
C1000 H1020 0.930 . S
C1001 N999 1.375 . S
C1001 C1000 1.338 . S
C1001 H1005 0.931 . S
C1002 N999 1.313 . S
C1002 N1003 1.344 . S
C1002 H1006 0.930 . S
N1003 C1000 1.377 . S
N1003 C1002 1.344 . S
O1004 Co996 2.055 . S
O1004 C1008 1.253 . S
H1005 C1001 0.931 . S
H1006 C1002 0.930 . S
O1007 Co996 2.039 . S
O1007 C997 1.265 . S
C1008 O1004 1.253 . S
C1008 O1009 1.227 . S
O1009 C1008 1.227 . S
N1010 Co996 2.140 . S
N1010 C1013 1.346 . S
N1010 C1014 1.345 . S
C1011 C1012 1.387 . S
C1011 C1015 1.391 . S
C1012 C1011 1.387 . S
C1012 C1013 1.369 . S
C1012 H1021 0.929 . S
C1013 N1010 1.346 . S
C1013 C1012 1.369 . S
C1013 H1016 0.928 . S
C1014 N1010 1.345 . S
C1014 C1015 1.371 . S
C1014 H1017 0.931 . S
C1015 C1011 1.391 . S
C1015 C1014 1.371 . S
C1015 H1022 0.930 . S
H1016 C1013 0.928 . S
H1017 C1014 0.931 . S
H1018 C994 0.930 . S
H1019 C991 0.930 . S
H1020 C1000 0.930 . S
H1021 C1012 0.929 . S
H1022 C1015 0.930 . S
C1023 C1024 1.351 . S
C1023 N1026 1.368 . S
C1023 H1028 0.931 . S
C1024 C1023 1.351 . S
C1024 N1025 1.373 . S
C1024 H1052 0.930 . S
N1025 C1024 1.373 . S
N1025 C1027 1.340 . S
N1026 C1023 1.368 . S
N1026 C1027 1.321 . S
N1026 Co1029 2.135 . S
C1027 N1025 1.340 . S
C1027 N1026 1.321 . S
C1027 H1051 0.930 . S
H1028 C1023 0.931 . S
Co1029 N1026 2.135 . S
Co1029 N1032 2.121 . S
Co1029 O1037 2.055 . S
Co1029 O1040 2.039 . S
Co1029 N1043 2.140 . S
C1030 O1031 1.227 . S
C1030 O1040 1.265 . S
O1031 C1030 1.227 . S
N1032 Co1029 2.121 . S
N1032 C1034 1.375 . S
N1032 C1035 1.313 . S
C1033 C1034 1.338 . S
C1033 N1036 1.377 . S
C1033 H1053 0.930 . S
C1034 N1032 1.375 . S
C1034 C1033 1.338 . S
C1034 H1038 0.931 . S
C1035 N1032 1.313 . S
C1035 N1036 1.344 . S
C1035 H1039 0.930 . S
N1036 C1033 1.377 . S
N1036 C1035 1.344 . S
O1037 Co1029 2.055 . S
O1037 C1041 1.253 . S
H1038 C1034 0.931 . S
H1039 C1035 0.930 . S
O1040 Co1029 2.039 . S
O1040 C1030 1.265 . S
C1041 O1037 1.253 . S
C1041 O1042 1.227 . S
O1042 C1041 1.227 . S
N1043 Co1029 2.140 . S
N1043 C1046 1.346 . S
N1043 C1047 1.345 . S
C1044 C1045 1.387 . S
C1044 C1048 1.391 . S
C1045 C1044 1.387 . S
C1045 C1046 1.369 . S
C1045 H1054 0.929 . S
C1046 N1043 1.346 . S
C1046 C1045 1.369 . S
C1046 H1049 0.928 . S
C1047 N1043 1.345 . S
C1047 C1048 1.371 . S
C1047 H1050 0.931 . S
C1048 C1044 1.391 . S
C1048 C1047 1.371 . S
C1048 H1055 0.930 . S
H1049 C1046 0.928 . S
H1050 C1047 0.931 . S
H1051 C1027 0.930 . S
H1052 C1024 0.930 . S
H1053 C1033 0.930 . S
H1054 C1045 0.929 . S
H1055 C1048 0.930 . S
H1056 C1062 0.930 . S
H1057 C1065 0.930 . S
H1058 C1066 0.930 . S
H1059 C1067 0.930 . S
H1060 C1070 0.930 . S
H1061 C1071 0.930 . S
C1062 H1056 0.930 . S
C1062 C1063 1.355 . S
C1062 C1064 1.415 . S
C1063 C1062 1.355 . S
C1063 C1065 1.419 . S
C1064 C1062 1.415 . S
C1064 C1069 1.425 . S
C1064 C1071 1.409 . S
C1065 H1057 0.930 . S
C1065 C1063 1.419 . S
C1065 C1066 1.362 . S
C1066 H1058 0.930 . S
C1066 C1065 1.362 . S
C1066 C1069 1.409 . S
C1067 H1059 0.930 . S
C1067 C1068 1.355 . S
C1067 C1069 1.415 . S
C1068 C1067 1.355 . S
C1068 C1070 1.419 . S
C1069 C1064 1.425 . S
C1069 C1066 1.409 . S
C1069 C1067 1.415 . S
C1070 H1060 0.930 . S
C1070 C1068 1.419 . S
C1070 C1071 1.362 . S
C1071 H1061 0.930 . S
C1071 C1064 1.409 . S
C1071 C1070 1.362 . S
H1072 C1078 0.930 . S
H1073 C1081 0.930 . S
H1074 C1082 0.930 . S
H1075 C1083 0.930 . S
H1076 C1086 0.930 . S
H1077 C1087 0.930 . S
C1078 H1072 0.930 . S
C1078 C1079 1.355 . S
C1078 C1080 1.415 . S
C1079 C1078 1.355 . S
C1079 C1081 1.419 . S
C1080 C1078 1.415 . S
C1080 C1085 1.425 . S
C1080 C1087 1.409 . S
C1081 H1073 0.930 . S
C1081 C1079 1.419 . S
C1081 C1082 1.362 . S
C1082 H1074 0.930 . S
C1082 C1081 1.362 . S
C1082 C1085 1.409 . S
C1083 H1075 0.930 . S
C1083 C1084 1.355 . S
C1083 C1085 1.415 . S
C1084 C1083 1.355 . S
C1084 C1086 1.419 . S
C1085 C1080 1.425 . S
C1085 C1082 1.409 . S
C1085 C1083 1.415 . S
C1086 H1076 0.930 . S
C1086 C1084 1.419 . S
C1086 C1087 1.362 . S
C1087 H1077 0.930 . S
C1087 C1080 1.409 . S
C1087 C1086 1.362 . S
H1088 C1094 0.930 . S
H1089 C1097 0.930 . S
H1090 C1098 0.930 . S
H1091 C1099 0.930 . S
H1092 C1102 0.930 . S
H1093 C1103 0.930 . S
C1094 H1088 0.930 . S
C1094 C1095 1.355 . S
C1094 C1096 1.415 . S
C1095 C1094 1.355 . S
C1095 C1097 1.419 . S
C1096 C1094 1.415 . S
C1096 C1101 1.425 . S
C1096 C1103 1.409 . S
C1097 H1089 0.930 . S
C1097 C1095 1.419 . S
C1097 C1098 1.362 . S
C1098 H1090 0.930 . S
C1098 C1097 1.362 . S
C1098 C1101 1.409 . S
C1099 H1091 0.930 . S
C1099 C1100 1.355 . S
C1099 C1101 1.415 . S
C1100 C1099 1.355 . S
C1100 C1102 1.419 . S
C1101 C1096 1.425 . S
C1101 C1098 1.409 . S
C1101 C1099 1.415 . S
C1102 H1092 0.930 . S
C1102 C1100 1.419 . S
C1102 C1103 1.362 . S
C1103 H1093 0.930 . S
C1103 C1096 1.409 . S
C1103 C1102 1.362 . S
H1104 C1110 0.930 . S
H1105 C1113 0.930 . S
H1106 C1114 0.930 . S
H1107 C1115 0.930 . S
H1108 C1118 0.930 . S
H1109 C1119 0.930 . S
C1110 H1104 0.930 . S
C1110 C1111 1.355 . S
C1110 C1112 1.415 . S
C1111 C1110 1.355 . S
C1111 C1113 1.419 . S
C1112 C1110 1.415 . S
C1112 C1117 1.425 . S
C1112 C1119 1.409 . S
C1113 H1105 0.930 . S
C1113 C1111 1.419 . S
C1113 C1114 1.362 . S
C1114 H1106 0.930 . S
C1114 C1113 1.362 . S
C1114 C1117 1.409 . S
C1115 H1107 0.930 . S
C1115 C1116 1.355 . S
C1115 C1117 1.415 . S
C1116 C1115 1.355 . S
C1116 C1118 1.419 . S
C1117 C1112 1.425 . S
C1117 C1114 1.409 . S
C1117 C1115 1.415 . S
C1118 H1108 0.930 . S
C1118 C1116 1.419 . S
C1118 C1119 1.362 . S
C1119 H1109 0.930 . S
C1119 C1112 1.409 . S
C1119 C1118 1.362 . S
H1120 C1126 0.930 . S
H1121 C1129 0.930 . S
H1122 C1130 0.930 . S
H1123 C1131 0.930 . S
H1124 C1134 0.930 . S
H1125 C1135 0.930 . S
C1126 H1120 0.930 . S
C1126 C1127 1.355 . S
C1126 C1128 1.415 . S
C1127 C1126 1.355 . S
C1127 C1129 1.419 . S
C1128 C1126 1.415 . S
C1128 C1133 1.425 . S
C1128 C1135 1.409 . S
C1129 H1121 0.930 . S
C1129 C1127 1.419 . S
C1129 C1130 1.362 . S
C1130 H1122 0.930 . S
C1130 C1129 1.362 . S
C1130 C1133 1.409 . S
C1131 H1123 0.930 . S
C1131 C1132 1.355 . S
C1131 C1133 1.415 . S
C1132 C1131 1.355 . S
C1132 C1134 1.419 . S
C1133 C1128 1.425 . S
C1133 C1130 1.409 . S
C1133 C1131 1.415 . S
C1134 H1124 0.930 . S
C1134 C1132 1.419 . S
C1134 C1135 1.362 . S
C1135 H1125 0.930 . S
C1135 C1128 1.409 . S
C1135 C1134 1.362 . S
H1136 C1142 0.930 . S
H1137 C1145 0.930 . S
H1138 C1146 0.930 . S
H1139 C1147 0.930 . S
H1140 C1150 0.930 . S
H1141 C1151 0.930 . S
C1142 H1136 0.930 . S
C1142 C1143 1.355 . S
C1142 C1144 1.415 . S
C1143 C1142 1.355 . S
C1143 C1145 1.419 . S
C1144 C1142 1.415 . S
C1144 C1149 1.425 . S
C1144 C1151 1.409 . S
C1145 H1137 0.930 . S
C1145 C1143 1.419 . S
C1145 C1146 1.362 . S
C1146 H1138 0.930 . S
C1146 C1145 1.362 . S
C1146 C1149 1.409 . S
C1147 H1139 0.930 . S
C1147 C1148 1.355 . S
C1147 C1149 1.415 . S
C1148 C1147 1.355 . S
C1148 C1150 1.419 . S
C1149 C1144 1.425 . S
C1149 C1146 1.409 . S
C1149 C1147 1.415 . S
C1150 H1140 0.930 . S
C1150 C1148 1.419 . S
C1150 C1151 1.362 . S
C1151 H1141 0.930 . S
C1151 C1144 1.409 . S
C1151 C1150 1.362 . S
H1152 C1158 0.930 . S
H1153 C1161 0.930 . S
H1154 C1162 0.930 . S
H1155 C1163 0.930 . S
H1156 C1166 0.930 . S
H1157 C1167 0.930 . S
C1158 H1152 0.930 . S
C1158 C1159 1.355 . S
C1158 C1160 1.415 . S
C1159 C1158 1.355 . S
C1159 C1161 1.419 . S
C1160 C1158 1.415 . S
C1160 C1165 1.425 . S
C1160 C1167 1.409 . S
C1161 H1153 0.930 . S
C1161 C1159 1.419 . S
C1161 C1162 1.362 . S
C1162 H1154 0.930 . S
C1162 C1161 1.362 . S
C1162 C1165 1.409 . S
C1163 H1155 0.930 . S
C1163 C1164 1.355 . S
C1163 C1165 1.415 . S
C1164 C1163 1.355 . S
C1164 C1166 1.419 . S
C1165 C1160 1.425 . S
C1165 C1162 1.409 . S
C1165 C1163 1.415 . S
C1166 H1156 0.930 . S
C1166 C1164 1.419 . S
C1166 C1167 1.362 . S
C1167 H1157 0.930 . S
C1167 C1160 1.409 . S
C1167 C1166 1.362 . S
H1168 C1174 0.930 . S
H1169 C1177 0.930 . S
H1170 C1178 0.930 . S
H1171 C1179 0.930 . S
H1172 C1182 0.930 . S
H1173 C1183 0.930 . S
C1174 H1168 0.930 . S
C1174 C1175 1.355 . S
C1174 C1176 1.415 . S
C1175 C1174 1.355 . S
C1175 C1177 1.419 . S
C1176 C1174 1.415 . S
C1176 C1181 1.425 . S
C1176 C1183 1.409 . S
C1177 H1169 0.930 . S
C1177 C1175 1.419 . S
C1177 C1178 1.362 . S
C1178 H1170 0.930 . S
C1178 C1177 1.362 . S
C1178 C1181 1.409 . S
C1179 H1171 0.930 . S
C1179 C1180 1.355 . S
C1179 C1181 1.415 . S
C1180 C1179 1.355 . S
C1180 C1182 1.419 . S
C1181 C1176 1.425 . S
C1181 C1178 1.409 . S
C1181 C1179 1.415 . S
C1182 H1172 0.930 . S
C1182 C1180 1.419 . S
C1182 C1183 1.362 . S
C1183 H1173 0.930 . S
C1183 C1176 1.409 . S
C1183 C1182 1.362 . S
H1184 C1190 0.930 . S
H1185 C1193 0.930 . S
H1186 C1194 0.930 . S
H1187 C1195 0.930 . S
H1188 C1198 0.930 . S
H1189 C1199 0.930 . S
C1190 H1184 0.930 . S
C1190 C1191 1.355 . S
C1190 C1192 1.415 . S
C1191 C1190 1.355 . S
C1191 C1193 1.419 . S
C1192 C1190 1.415 . S
C1192 C1197 1.425 . S
C1192 C1199 1.409 . S
C1193 H1185 0.930 . S
C1193 C1191 1.419 . S
C1193 C1194 1.362 . S
C1194 H1186 0.930 . S
C1194 C1193 1.362 . S
C1194 C1197 1.409 . S
C1195 H1187 0.930 . S
C1195 C1196 1.355 . S
C1195 C1197 1.415 . S
C1196 C1195 1.355 . S
C1196 C1198 1.419 . S
C1197 C1192 1.425 . S
C1197 C1194 1.409 . S
C1197 C1195 1.415 . S
C1198 H1188 0.930 . S
C1198 C1196 1.419 . S
C1198 C1199 1.362 . S
C1199 H1189 0.930 . S
C1199 C1192 1.409 . S
C1199 C1198 1.362 . S
H1200 C1206 0.930 . S
H1201 C1209 0.930 . S
H1202 C1210 0.930 . S
H1203 C1211 0.930 . S
H1204 C1214 0.930 . S
H1205 C1215 0.930 . S
C1206 H1200 0.930 . S
C1206 C1207 1.355 . S
C1206 C1208 1.415 . S
C1207 C1206 1.355 . S
C1207 C1209 1.419 . S
C1208 C1206 1.415 . S
C1208 C1213 1.425 . S
C1208 C1215 1.409 . S
C1209 H1201 0.930 . S
C1209 C1207 1.419 . S
C1209 C1210 1.362 . S
C1210 H1202 0.930 . S
C1210 C1209 1.362 . S
C1210 C1213 1.409 . S
C1211 H1203 0.930 . S
C1211 C1212 1.355 . S
C1211 C1213 1.415 . S
C1212 C1211 1.355 . S
C1212 C1214 1.419 . S
C1213 C1208 1.425 . S
C1213 C1210 1.409 . S
C1213 C1211 1.415 . S
C1214 H1204 0.930 . S
C1214 C1212 1.419 . S
C1214 C1215 1.362 . S
C1215 H1205 0.930 . S
C1215 C1208 1.409 . S
C1215 C1214 1.362 . S
H1216 C1222 0.930 . S
H1217 C1225 0.930 . S
H1218 C1226 0.930 . S
H1219 C1227 0.930 . S
H1220 C1230 0.930 . S
H1221 C1231 0.930 . S
C1222 H1216 0.930 . S
C1222 C1223 1.355 . S
C1222 C1224 1.415 . S
C1223 C1222 1.355 . S
C1223 C1225 1.419 . S
C1224 C1222 1.415 . S
C1224 C1229 1.425 . S
C1224 C1231 1.409 . S
C1225 H1217 0.930 . S
C1225 C1223 1.419 . S
C1225 C1226 1.362 . S
C1226 H1218 0.930 . S
C1226 C1225 1.362 . S
C1226 C1229 1.409 . S
C1227 H1219 0.930 . S
C1227 C1228 1.355 . S
C1227 C1229 1.415 . S
C1228 C1227 1.355 . S
C1228 C1230 1.419 . S
C1229 C1224 1.425 . S
C1229 C1226 1.409 . S
C1229 C1227 1.415 . S
C1230 H1220 0.930 . S
C1230 C1228 1.419 . S
C1230 C1231 1.362 . S
C1231 H1221 0.930 . S
C1231 C1224 1.409 . S
C1231 C1230 1.362 . S
H1232 C1238 0.930 . S
H1233 C1241 0.930 . S
H1234 C1242 0.930 . S
H1235 C1243 0.930 . S
H1236 C1246 0.930 . S
H1237 C1247 0.930 . S
C1238 H1232 0.930 . S
C1238 C1239 1.355 . S
C1238 C1240 1.415 . S
C1239 C1238 1.355 . S
C1239 C1241 1.419 . S
C1240 C1238 1.415 . S
C1240 C1245 1.425 . S
C1240 C1247 1.409 . S
C1241 H1233 0.930 . S
C1241 C1239 1.419 . S
C1241 C1242 1.362 . S
C1242 H1234 0.930 . S
C1242 C1241 1.362 . S
C1242 C1245 1.409 . S
C1243 H1235 0.930 . S
C1243 C1244 1.355 . S
C1243 C1245 1.415 . S
C1244 C1243 1.355 . S
C1244 C1246 1.419 . S
C1245 C1240 1.425 . S
C1245 C1242 1.409 . S
C1245 C1243 1.415 . S
C1246 H1236 0.930 . S
C1246 C1244 1.419 . S
C1246 C1247 1.362 . S
C1247 H1237 0.930 . S
C1247 C1240 1.409 . S
C1247 C1246 1.362 . S
H1248 C1254 0.930 . S
H1249 C1257 0.930 . S
H1250 C1258 0.930 . S
H1251 C1259 0.930 . S
H1252 C1262 0.930 . S
H1253 C1263 0.930 . S
C1254 H1248 0.930 . S
C1254 C1255 1.355 . S
C1254 C1256 1.415 . S
C1255 C1254 1.355 . S
C1255 C1257 1.419 . S
C1256 C1254 1.415 . S
C1256 C1261 1.425 . S
C1256 C1263 1.409 . S
C1257 H1249 0.930 . S
C1257 C1255 1.419 . S
C1257 C1258 1.362 . S
C1258 H1250 0.930 . S
C1258 C1257 1.362 . S
C1258 C1261 1.409 . S
C1259 H1251 0.930 . S
C1259 C1260 1.355 . S
C1259 C1261 1.415 . S
C1260 C1259 1.355 . S
C1260 C1262 1.419 . S
C1261 C1256 1.425 . S
C1261 C1258 1.409 . S
C1261 C1259 1.415 . S
C1262 H1252 0.930 . S
C1262 C1260 1.419 . S
C1262 C1263 1.362 . S
C1263 H1253 0.930 . S
C1263 C1256 1.409 . S
C1263 C1262 1.362 . S
H1264 C1270 0.930 . S
H1265 C1273 0.930 . S
H1266 C1274 0.930 . S
H1267 C1275 0.930 . S
H1268 C1278 0.930 . S
H1269 C1279 0.930 . S
C1270 H1264 0.930 . S
C1270 C1271 1.355 . S
C1270 C1272 1.415 . S
C1271 C1270 1.355 . S
C1271 C1273 1.419 . S
C1272 C1270 1.415 . S
C1272 C1277 1.425 . S
C1272 C1279 1.409 . S
C1273 H1265 0.930 . S
C1273 C1271 1.419 . S
C1273 C1274 1.362 . S
C1274 H1266 0.930 . S
C1274 C1273 1.362 . S
C1274 C1277 1.409 . S
C1275 H1267 0.930 . S
C1275 C1276 1.355 . S
C1275 C1277 1.415 . S
C1276 C1275 1.355 . S
C1276 C1278 1.419 . S
C1277 C1272 1.425 . S
C1277 C1274 1.409 . S
C1277 C1275 1.415 . S
C1278 H1268 0.930 . S
C1278 C1276 1.419 . S
C1278 C1279 1.362 . S
C1279 H1269 0.930 . S
C1279 C1272 1.409 . S
C1279 C1278 1.362 . S
H1280 C1286 0.930 . S
H1281 C1289 0.930 . S
H1282 C1290 0.930 . S
H1283 C1291 0.930 . S
H1284 C1294 0.930 . S
H1285 C1295 0.930 . S
C1286 H1280 0.930 . S
C1286 C1287 1.355 . S
C1286 C1288 1.415 . S
C1287 C1286 1.355 . S
C1287 C1289 1.419 . S
C1288 C1286 1.415 . S
C1288 C1293 1.425 . S
C1288 C1295 1.409 . S
C1289 H1281 0.930 . S
C1289 C1287 1.419 . S
C1289 C1290 1.362 . S
C1290 H1282 0.930 . S
C1290 C1289 1.362 . S
C1290 C1293 1.409 . S
C1291 H1283 0.930 . S
C1291 C1292 1.355 . S
C1291 C1293 1.415 . S
C1292 C1291 1.355 . S
C1292 C1294 1.419 . S
C1293 C1288 1.425 . S
C1293 C1290 1.409 . S
C1293 C1291 1.415 . S
C1294 H1284 0.930 . S
C1294 C1292 1.419 . S
C1294 C1295 1.362 . S
C1295 H1285 0.930 . S
C1295 C1288 1.409 . S
C1295 C1294 1.362 . S
H1296 C1302 0.930 . S
H1297 C1305 0.930 . S
H1298 C1306 0.930 . S
H1299 C1307 0.930 . S
H1300 C1310 0.930 . S
H1301 C1311 0.930 . S
C1302 H1296 0.930 . S
C1302 C1303 1.355 . S
C1302 C1304 1.415 . S
C1303 C1302 1.355 . S
C1303 C1305 1.419 . S
C1304 C1302 1.415 . S
C1304 C1309 1.425 . S
C1304 C1311 1.409 . S
C1305 H1297 0.930 . S
C1305 C1303 1.419 . S
C1305 C1306 1.362 . S
C1306 H1298 0.930 . S
C1306 C1305 1.362 . S
C1306 C1309 1.409 . S
C1307 H1299 0.930 . S
C1307 C1308 1.355 . S
C1307 C1309 1.415 . S
C1308 C1307 1.355 . S
C1308 C1310 1.419 . S
C1309 C1304 1.425 . S
C1309 C1306 1.409 . S
C1309 C1307 1.415 . S
C1310 H1300 0.930 . S
C1310 C1308 1.419 . S
C1310 C1311 1.362 . S
C1311 H1301 0.930 . S
C1311 C1304 1.409 . S
C1311 C1310 1.362 . S
H1312 C1318 0.930 . S
H1313 C1321 0.930 . S
H1314 C1322 0.930 . S
H1315 C1323 0.930 . S
H1316 C1326 0.930 . S
H1317 C1327 0.930 . S
C1318 H1312 0.930 . S
C1318 C1319 1.355 . S
C1318 C1320 1.415 . S
C1319 C1318 1.355 . S
C1319 C1321 1.419 . S
C1320 C1318 1.415 . S
C1320 C1325 1.425 . S
C1320 C1327 1.409 . S
C1321 H1313 0.930 . S
C1321 C1319 1.419 . S
C1321 C1322 1.362 . S
C1322 H1314 0.930 . S
C1322 C1321 1.362 . S
C1322 C1325 1.409 . S
C1323 H1315 0.930 . S
C1323 C1324 1.355 . S
C1323 C1325 1.415 . S
C1324 C1323 1.355 . S
C1324 C1326 1.419 . S
C1325 C1320 1.425 . S
C1325 C1322 1.409 . S
C1325 C1323 1.415 . S
C1326 H1316 0.930 . S
C1326 C1324 1.419 . S
C1326 C1327 1.362 . S
C1327 H1317 0.930 . S
C1327 C1320 1.409 . S
C1327 C1326 1.362 . S
H1328 C1334 0.930 . S
H1329 C1337 0.930 . S
H1330 C1338 0.930 . S
H1331 C1339 0.930 . S
H1332 C1342 0.930 . S
H1333 C1343 0.930 . S
C1334 H1328 0.930 . S
C1334 C1335 1.355 . S
C1334 C1336 1.415 . S
C1335 C1334 1.355 . S
C1335 C1337 1.419 . S
C1336 C1334 1.415 . S
C1336 C1341 1.425 . S
C1336 C1343 1.409 . S
C1337 H1329 0.930 . S
C1337 C1335 1.419 . S
C1337 C1338 1.362 . S
C1338 H1330 0.930 . S
C1338 C1337 1.362 . S
C1338 C1341 1.409 . S
C1339 H1331 0.930 . S
C1339 C1340 1.355 . S
C1339 C1341 1.415 . S
C1340 C1339 1.355 . S
C1340 C1342 1.419 . S
C1341 C1336 1.425 . S
C1341 C1338 1.409 . S
C1341 C1339 1.415 . S
C1342 H1332 0.930 . S
C1342 C1340 1.419 . S
C1342 C1343 1.362 . S
C1343 H1333 0.930 . S
C1343 C1336 1.409 . S
C1343 C1342 1.362 . S
H1344 C1350 0.930 . S
H1345 C1353 0.930 . S
H1346 C1354 0.930 . S
H1347 C1355 0.930 . S
H1348 C1358 0.930 . S
H1349 C1359 0.930 . S
C1350 H1344 0.930 . S
C1350 C1351 1.355 . S
C1350 C1352 1.415 . S
C1351 C1350 1.355 . S
C1351 C1353 1.419 . S
C1352 C1350 1.415 . S
C1352 C1357 1.425 . S
C1352 C1359 1.409 . S
C1353 H1345 0.930 . S
C1353 C1351 1.419 . S
C1353 C1354 1.362 . S
C1354 H1346 0.930 . S
C1354 C1353 1.362 . S
C1354 C1357 1.409 . S
C1355 H1347 0.930 . S
C1355 C1356 1.355 . S
C1355 C1357 1.415 . S
C1356 C1355 1.355 . S
C1356 C1358 1.419 . S
C1357 C1352 1.425 . S
C1357 C1354 1.409 . S
C1357 C1355 1.415 . S
C1358 H1348 0.930 . S
C1358 C1356 1.419 . S
C1358 C1359 1.362 . S
C1359 H1349 0.930 . S
C1359 C1352 1.409 . S
C1359 C1358 1.362 . S
H1360 C1366 0.930 . S
H1361 C1369 0.930 . S
H1362 C1370 0.930 . S
H1363 C1371 0.930 . S
H1364 C1374 0.930 . S
H1365 C1375 0.930 . S
C1366 H1360 0.930 . S
C1366 C1367 1.355 . S
C1366 C1368 1.415 . S
C1367 C1366 1.355 . S
C1367 C1369 1.419 . S
C1368 C1366 1.415 . S
C1368 C1373 1.425 . S
C1368 C1375 1.409 . S
C1369 H1361 0.930 . S
C1369 C1367 1.419 . S
C1369 C1370 1.362 . S
C1370 H1362 0.930 . S
C1370 C1369 1.362 . S
C1370 C1373 1.409 . S
C1371 H1363 0.930 . S
C1371 C1372 1.355 . S
C1371 C1373 1.415 . S
C1372 C1371 1.355 . S
C1372 C1374 1.419 . S
C1373 C1368 1.425 . S
C1373 C1370 1.409 . S
C1373 C1371 1.415 . S
C1374 H1364 0.930 . S
C1374 C1372 1.419 . S
C1374 C1375 1.362 . S
C1375 H1365 0.930 . S
C1375 C1368 1.409 . S
C1375 C1374 1.362 . S
H1376 C1382 0.930 . S
H1377 C1385 0.930 . S
H1378 C1386 0.930 . S
H1379 C1387 0.930 . S
H1380 C1390 0.930 . S
H1381 C1391 0.930 . S
C1382 H1376 0.930 . S
C1382 C1383 1.355 . S
C1382 C1384 1.415 . S
C1383 C1382 1.355 . S
C1383 C1385 1.419 . S
C1384 C1382 1.415 . S
C1384 C1389 1.425 . S
C1384 C1391 1.409 . S
C1385 H1377 0.930 . S
C1385 C1383 1.419 . S
C1385 C1386 1.362 . S
C1386 H1378 0.930 . S
C1386 C1385 1.362 . S
C1386 C1389 1.409 . S
C1387 H1379 0.930 . S
C1387 C1388 1.355 . S
C1387 C1389 1.415 . S
C1388 C1387 1.355 . S
C1388 C1390 1.419 . S
C1389 C1384 1.425 . S
C1389 C1386 1.409 . S
C1389 C1387 1.415 . S
C1390 H1380 0.930 . S
C1390 C1388 1.419 . S
C1390 C1391 1.362 . S
C1391 H1381 0.930 . S
C1391 C1384 1.409 . S
C1391 C1390 1.362 . S
H1392 C1398 0.930 . S
H1393 C1401 0.930 . S
H1394 C1402 0.930 . S
H1395 C1403 0.930 . S
H1396 C1406 0.930 . S
H1397 C1407 0.930 . S
C1398 H1392 0.930 . S
C1398 C1399 1.355 . S
C1398 C1400 1.415 . S
C1399 C1398 1.355 . S
C1399 C1401 1.419 . S
C1400 C1398 1.415 . S
C1400 C1405 1.425 . S
C1400 C1407 1.409 . S
C1401 H1393 0.930 . S
C1401 C1399 1.419 . S
C1401 C1402 1.362 . S
C1402 H1394 0.930 . S
C1402 C1401 1.362 . S
C1402 C1405 1.409 . S
C1403 H1395 0.930 . S
C1403 C1404 1.355 . S
C1403 C1405 1.415 . S
C1404 C1403 1.355 . S
C1404 C1406 1.419 . S
C1405 C1400 1.425 . S
C1405 C1402 1.409 . S
C1405 C1403 1.415 . S
C1406 H1396 0.930 . S
C1406 C1404 1.419 . S
C1406 C1407 1.362 . S
C1407 H1397 0.930 . S
C1407 C1400 1.409 . S
C1407 C1406 1.362 . S
H1408 C1414 0.930 . S
H1409 C1417 0.930 . S
H1410 C1418 0.930 . S
H1411 C1419 0.930 . S
H1412 C1422 0.930 . S
H1413 C1423 0.930 . S
C1414 H1408 0.930 . S
C1414 C1415 1.355 . S
C1414 C1416 1.415 . S
C1415 C1414 1.355 . S
C1415 C1417 1.419 . S
C1416 C1414 1.415 . S
C1416 C1421 1.425 . S
C1416 C1423 1.409 . S
C1417 H1409 0.930 . S
C1417 C1415 1.419 . S
C1417 C1418 1.362 . S
C1418 H1410 0.930 . S
C1418 C1417 1.362 . S
C1418 C1421 1.409 . S
C1419 H1411 0.930 . S
C1419 C1420 1.355 . S
C1419 C1421 1.415 . S
C1420 C1419 1.355 . S
C1420 C1422 1.419 . S
C1421 C1416 1.425 . S
C1421 C1418 1.409 . S
C1421 C1419 1.415 . S
C1422 H1412 0.930 . S
C1422 C1420 1.419 . S
C1422 C1423 1.362 . S
C1423 H1413 0.930 . S
C1423 C1416 1.409 . S
C1423 C1422 1.362 . S
H1424 C1430 0.930 . S
H1425 C1433 0.930 . S
H1426 C1434 0.930 . S
H1427 C1435 0.930 . S
H1428 C1438 0.930 . S
H1429 C1439 0.930 . S
C1430 H1424 0.930 . S
C1430 C1431 1.355 . S
C1430 C1432 1.415 . S
C1431 C1430 1.355 . S
C1431 C1433 1.419 . S
C1432 C1430 1.415 . S
C1432 C1437 1.425 . S
C1432 C1439 1.409 . S
C1433 H1425 0.930 . S
C1433 C1431 1.419 . S
C1433 C1434 1.362 . S
C1434 H1426 0.930 . S
C1434 C1433 1.362 . S
C1434 C1437 1.409 . S
C1435 H1427 0.930 . S
C1435 C1436 1.355 . S
C1435 C1437 1.415 . S
C1436 C1435 1.355 . S
C1436 C1438 1.419 . S
C1437 C1432 1.425 . S
C1437 C1434 1.409 . S
C1437 C1435 1.415 . S
C1438 H1428 0.930 . S
C1438 C1436 1.419 . S
C1438 C1439 1.362 . S
C1439 H1429 0.930 . S
C1439 C1432 1.409 . S
C1439 C1438 1.362 . S
H1440 C1446 0.930 . S
H1441 C1449 0.930 . S
H1442 C1450 0.930 . S
H1443 C1451 0.930 . S
H1444 C1454 0.930 . S
H1445 C1455 0.930 . S
C1446 H1440 0.930 . S
C1446 C1447 1.355 . S
C1446 C1448 1.415 . S
C1447 C1446 1.355 . S
C1447 C1449 1.419 . S
C1448 C1446 1.415 . S
C1448 C1453 1.425 . S
C1448 C1455 1.409 . S
C1449 H1441 0.930 . S
C1449 C1447 1.419 . S
C1449 C1450 1.362 . S
C1450 H1442 0.930 . S
C1450 C1449 1.362 . S
C1450 C1453 1.409 . S
C1451 H1443 0.930 . S
C1451 C1452 1.355 . S
C1451 C1453 1.415 . S
C1452 C1451 1.355 . S
C1452 C1454 1.419 . S
C1453 C1448 1.425 . S
C1453 C1450 1.409 . S
C1453 C1451 1.415 . S
C1454 H1444 0.930 . S
C1454 C1452 1.419 . S
C1454 C1455 1.362 . S
C1455 H1445 0.930 . S
C1455 C1448 1.409 . S
C1455 C1454 1.362 . S
H1456 C1462 0.930 . S
H1457 C1465 0.930 . S
H1458 C1466 0.930 . S
H1459 C1467 0.930 . S
H1460 C1470 0.930 . S
H1461 C1471 0.930 . S
C1462 H1456 0.930 . S
C1462 C1463 1.355 . S
C1462 C1464 1.415 . S
C1463 C1462 1.355 . S
C1463 C1465 1.419 . S
C1464 C1462 1.415 . S
C1464 C1469 1.425 . S
C1464 C1471 1.409 . S
C1465 H1457 0.930 . S
C1465 C1463 1.419 . S
C1465 C1466 1.362 . S
C1466 H1458 0.930 . S
C1466 C1465 1.362 . S
C1466 C1469 1.409 . S
C1467 H1459 0.930 . S
C1467 C1468 1.355 . S
C1467 C1469 1.415 . S
C1468 C1467 1.355 . S
C1468 C1470 1.419 . S
C1469 C1464 1.425 . S
C1469 C1466 1.409 . S
C1469 C1467 1.415 . S
C1470 H1460 0.930 . S
C1470 C1468 1.419 . S
C1470 C1471 1.362 . S
C1471 H1461 0.930 . S
C1471 C1464 1.409 . S
C1471 C1470 1.362 . S
H1472 C1478 0.930 . S
H1473 C1481 0.930 . S
H1474 C1482 0.930 . S
H1475 C1483 0.930 . S
H1476 C1486 0.930 . S
H1477 C1487 0.930 . S
C1478 H1472 0.930 . S
C1478 C1479 1.355 . S
C1478 C1480 1.415 . S
C1479 C1478 1.355 . S
C1479 C1481 1.419 . S
C1480 C1478 1.415 . S
C1480 C1485 1.425 . S
C1480 C1487 1.409 . S
C1481 H1473 0.930 . S
C1481 C1479 1.419 . S
C1481 C1482 1.362 . S
C1482 H1474 0.930 . S
C1482 C1481 1.362 . S
C1482 C1485 1.409 . S
C1483 H1475 0.930 . S
C1483 C1484 1.355 . S
C1483 C1485 1.415 . S
C1484 C1483 1.355 . S
C1484 C1486 1.419 . S
C1485 C1480 1.425 . S
C1485 C1482 1.409 . S
C1485 C1483 1.415 . S
C1486 H1476 0.930 . S
C1486 C1484 1.419 . S
C1486 C1487 1.362 . S
C1487 H1477 0.930 . S
C1487 C1480 1.409 . S
C1487 C1486 1.362 . S
H1488 C1494 0.930 . S
H1489 C1497 0.930 . S
H1490 C1498 0.930 . S
H1491 C1499 0.930 . S
H1492 C1502 0.930 . S
H1493 C1503 0.930 . S
C1494 H1488 0.930 . S
C1494 C1495 1.355 . S
C1494 C1496 1.415 . S
C1495 C1494 1.355 . S
C1495 C1497 1.419 . S
C1496 C1494 1.415 . S
C1496 C1501 1.425 . S
C1496 C1503 1.409 . S
C1497 H1489 0.930 . S
C1497 C1495 1.419 . S
C1497 C1498 1.362 . S
C1498 H1490 0.930 . S
C1498 C1497 1.362 . S
C1498 C1501 1.409 . S
C1499 H1491 0.930 . S
C1499 C1500 1.355 . S
C1499 C1501 1.415 . S
C1500 C1499 1.355 . S
C1500 C1502 1.419 . S
C1501 C1496 1.425 . S
C1501 C1498 1.409 . S
C1501 C1499 1.415 . S
C1502 H1492 0.930 . S
C1502 C1500 1.419 . S
C1502 C1503 1.362 . S
C1503 H1493 0.930 . S
C1503 C1496 1.409 . S
C1503 C1502 1.362 . S
H1504 C1510 0.930 . S
H1505 C1513 0.930 . S
H1506 C1514 0.930 . S
H1507 C1515 0.930 . S
H1508 C1518 0.930 . S
H1509 C1519 0.930 . S
C1510 H1504 0.930 . S
C1510 C1511 1.355 . S
C1510 C1512 1.415 . S
C1511 C1510 1.355 . S
C1511 C1513 1.419 . S
C1512 C1510 1.415 . S
C1512 C1517 1.425 . S
C1512 C1519 1.409 . S
C1513 H1505 0.930 . S
C1513 C1511 1.419 . S
C1513 C1514 1.362 . S
C1514 H1506 0.930 . S
C1514 C1513 1.362 . S
C1514 C1517 1.409 . S
C1515 H1507 0.930 . S
C1515 C1516 1.355 . S
C1515 C1517 1.415 . S
C1516 C1515 1.355 . S
C1516 C1518 1.419 . S
C1517 C1512 1.425 . S
C1517 C1514 1.409 . S
C1517 C1515 1.415 . S
C1518 H1508 0.930 . S
C1518 C1516 1.419 . S
C1518 C1519 1.362 . S
C1519 H1509 0.930 . S
C1519 C1512 1.409 . S
C1519 C1518 1.362 . S
H1520 C1526 0.930 . S
H1521 C1529 0.930 . S
H1522 C1530 0.930 . S
H1523 C1531 0.930 . S
H1524 C1534 0.930 . S
H1525 C1535 0.930 . S
C1526 H1520 0.930 . S
C1526 C1527 1.355 . S
C1526 C1528 1.415 . S
C1527 C1526 1.355 . S
C1527 C1529 1.419 . S
C1528 C1526 1.415 . S
C1528 C1533 1.425 . S
C1528 C1535 1.409 . S
C1529 H1521 0.930 . S
C1529 C1527 1.419 . S
C1529 C1530 1.362 . S
C1530 H1522 0.930 . S
C1530 C1529 1.362 . S
C1530 C1533 1.409 . S
C1531 H1523 0.930 . S
C1531 C1532 1.355 . S
C1531 C1533 1.415 . S
C1532 C1531 1.355 . S
C1532 C1534 1.419 . S
C1533 C1528 1.425 . S
C1533 C1530 1.409 . S
C1533 C1531 1.415 . S
C1534 H1524 0.930 . S
C1534 C1532 1.419 . S
C1534 C1535 1.362 . S
C1535 H1525 0.930 . S
C1535 C1528 1.409 . S
C1535 C1534 1.362 . S
H1536 C1542 0.930 . S
H1537 C1545 0.930 . S
H1538 C1546 0.930 . S
H1539 C1547 0.930 . S
H1540 C1550 0.930 . S
H1541 C1551 0.930 . S
C1542 H1536 0.930 . S
C1542 C1543 1.355 . S
C1542 C1544 1.415 . S
C1543 C1542 1.355 . S
C1543 C1545 1.419 . S
C1544 C1542 1.415 . S
C1544 C1549 1.425 . S
C1544 C1551 1.409 . S
C1545 H1537 0.930 . S
C1545 C1543 1.419 . S
C1545 C1546 1.362 . S
C1546 H1538 0.930 . S
C1546 C1545 1.362 . S
C1546 C1549 1.409 . S
C1547 H1539 0.930 . S
C1547 C1548 1.355 . S
C1547 C1549 1.415 . S
C1548 C1547 1.355 . S
C1548 C1550 1.419 . S
C1549 C1544 1.425 . S
C1549 C1546 1.409 . S
C1549 C1547 1.415 . S
C1550 H1540 0.930 . S
C1550 C1548 1.419 . S
C1550 C1551 1.362 . S
C1551 H1541 0.930 . S
C1551 C1544 1.409 . S
C1551 C1550 1.362 . S
H1552 C1558 0.930 . S
H1553 C1561 0.930 . S
H1554 C1562 0.930 . S
H1555 C1563 0.930 . S
H1556 C1566 0.930 . S
H1557 C1567 0.930 . S
C1558 H1552 0.930 . S
C1558 C1559 1.355 . S
C1558 C1560 1.415 . S
C1559 C1558 1.355 . S
C1559 C1561 1.419 . S
C1560 C1558 1.415 . S
C1560 C1565 1.425 . S
C1560 C1567 1.409 . S
C1561 H1553 0.930 . S
C1561 C1559 1.419 . S
C1561 C1562 1.362 . S
C1562 H1554 0.930 . S
C1562 C1561 1.362 . S
C1562 C1565 1.409 . S
C1563 H1555 0.930 . S
C1563 C1564 1.355 . S
C1563 C1565 1.415 . S
C1564 C1563 1.355 . S
C1564 C1566 1.419 . S
C1565 C1560 1.425 . S
C1565 C1562 1.409 . S
C1565 C1563 1.415 . S
C1566 H1556 0.930 . S
C1566 C1564 1.419 . S
C1566 C1567 1.362 . S
C1567 H1557 0.930 . S
C1567 C1560 1.409 . S
C1567 C1566 1.362 . S
H1568 C1574 0.930 . S
H1569 C1577 0.930 . S
H1570 C1578 0.930 . S
H1571 C1579 0.930 . S
H1572 C1582 0.930 . S
H1573 C1583 0.930 . S
C1574 H1568 0.930 . S
C1574 C1575 1.355 . S
C1574 C1576 1.415 . S
C1575 C1574 1.355 . S
C1575 C1577 1.419 . S
C1576 C1574 1.415 . S
C1576 C1581 1.425 . S
C1576 C1583 1.409 . S
C1577 H1569 0.930 . S
C1577 C1575 1.419 . S
C1577 C1578 1.362 . S
C1578 H1570 0.930 . S
C1578 C1577 1.362 . S
C1578 C1581 1.409 . S
C1579 H1571 0.930 . S
C1579 C1580 1.355 . S
C1579 C1581 1.415 . S
C1580 C1579 1.355 . S
C1580 C1582 1.419 . S
C1581 C1576 1.425 . S
C1581 C1578 1.409 . S
C1581 C1579 1.415 . S
C1582 H1572 0.930 . S
C1582 C1580 1.419 . S
C1582 C1583 1.362 . S
C1583 H1573 0.930 . S
C1583 C1576 1.409 . S
C1583 C1582 1.362 . S
H1584 C1590 0.930 . S
H1585 C1593 0.930 . S
H1586 C1594 0.930 . S
H1587 C1595 0.930 . S
H1588 C1598 0.930 . S
H1589 C1599 0.930 . S
C1590 H1584 0.930 . S
C1590 C1591 1.355 . S
C1590 C1592 1.415 . S
C1591 C1590 1.355 . S
C1591 C1593 1.419 . S
C1592 C1590 1.415 . S
C1592 C1597 1.425 . S
C1592 C1599 1.409 . S
C1593 H1585 0.930 . S
C1593 C1591 1.419 . S
C1593 C1594 1.362 . S
C1594 H1586 0.930 . S
C1594 C1593 1.362 . S
C1594 C1597 1.409 . S
C1595 H1587 0.930 . S
C1595 C1596 1.355 . S
C1595 C1597 1.415 . S
C1596 C1595 1.355 . S
C1596 C1598 1.419 . S
C1597 C1592 1.425 . S
C1597 C1594 1.409 . S
C1597 C1595 1.415 . S
C1598 H1588 0.930 . S
C1598 C1596 1.419 . S
C1598 C1599 1.362 . S
C1599 H1589 0.930 . S
C1599 C1592 1.409 . S
C1599 C1598 1.362 . S
H1600 C1606 0.930 . S
H1601 C1609 0.930 . S
H1602 C1610 0.930 . S
H1603 C1611 0.930 . S
H1604 C1614 0.930 . S
H1605 C1615 0.930 . S
C1606 H1600 0.930 . S
C1606 C1607 1.355 . S
C1606 C1608 1.415 . S
C1607 C1606 1.355 . S
C1607 C1609 1.419 . S
C1608 C1606 1.415 . S
C1608 C1613 1.425 . S
C1608 C1615 1.409 . S
C1609 H1601 0.930 . S
C1609 C1607 1.419 . S
C1609 C1610 1.362 . S
C1610 H1602 0.930 . S
C1610 C1609 1.362 . S
C1610 C1613 1.409 . S
C1611 H1603 0.930 . S
C1611 C1612 1.355 . S
C1611 C1613 1.415 . S
C1612 C1611 1.355 . S
C1612 C1614 1.419 . S
C1613 C1608 1.425 . S
C1613 C1610 1.409 . S
C1613 C1611 1.415 . S
C1614 H1604 0.930 . S
C1614 C1612 1.419 . S
C1614 C1615 1.362 . S
C1615 H1605 0.930 . S
C1615 C1608 1.409 . S
C1615 C1614 1.362 . S
H1616 C1622 0.930 . S
H1617 C1625 0.930 . S
H1618 C1626 0.930 . S
H1619 C1627 0.930 . S
H1620 C1630 0.930 . S
H1621 C1631 0.930 . S
C1622 H1616 0.930 . S
C1622 C1623 1.355 . S
C1622 C1624 1.415 . S
C1623 C1622 1.355 . S
C1623 C1625 1.419 . S
C1624 C1622 1.415 . S
C1624 C1629 1.425 . S
C1624 C1631 1.409 . S
C1625 H1617 0.930 . S
C1625 C1623 1.419 . S
C1625 C1626 1.362 . S
C1626 H1618 0.930 . S
C1626 C1625 1.362 . S
C1626 C1629 1.409 . S
C1627 H1619 0.930 . S
C1627 C1628 1.355 . S
C1627 C1629 1.415 . S
C1628 C1627 1.355 . S
C1628 C1630 1.419 . S
C1629 C1624 1.425 . S
C1629 C1626 1.409 . S
C1629 C1627 1.415 . S
C1630 H1620 0.930 . S
C1630 C1628 1.419 . S
C1630 C1631 1.362 . S
C1631 H1621 0.930 . S
C1631 C1624 1.409 . S
C1631 C1630 1.362 . S
H1632 C1638 0.930 . S
H1633 C1641 0.930 . S
H1634 C1642 0.930 . S
H1635 C1643 0.930 . S
H1636 C1646 0.930 . S
H1637 C1647 0.930 . S
C1638 H1632 0.930 . S
C1638 C1639 1.355 . S
C1638 C1640 1.415 . S
C1639 C1638 1.355 . S
C1639 C1641 1.419 . S
C1640 C1638 1.415 . S
C1640 C1645 1.425 . S
C1640 C1647 1.409 . S
C1641 H1633 0.930 . S
C1641 C1639 1.419 . S
C1641 C1642 1.362 . S
C1642 H1634 0.930 . S
C1642 C1641 1.362 . S
C1642 C1645 1.409 . S
C1643 H1635 0.930 . S
C1643 C1644 1.355 . S
C1643 C1645 1.415 . S
C1644 C1643 1.355 . S
C1644 C1646 1.419 . S
C1645 C1640 1.425 . S
C1645 C1642 1.409 . S
C1645 C1643 1.415 . S
C1646 H1636 0.930 . S
C1646 C1644 1.419 . S
C1646 C1647 1.362 . S
C1647 H1637 0.930 . S
C1647 C1640 1.409 . S
C1647 C1646 1.362 . S
H1648 C1654 0.930 . S
H1649 C1657 0.930 . S
H1650 C1658 0.930 . S
H1651 C1659 0.930 . S
H1652 C1662 0.930 . S
H1653 C1663 0.930 . S
C1654 H1648 0.930 . S
C1654 C1655 1.355 . S
C1654 C1656 1.415 . S
C1655 C1654 1.355 . S
C1655 C1657 1.419 . S
C1656 C1654 1.415 . S
C1656 C1661 1.425 . S
C1656 C1663 1.409 . S
C1657 H1649 0.930 . S
C1657 C1655 1.419 . S
C1657 C1658 1.362 . S
C1658 H1650 0.930 . S
C1658 C1657 1.362 . S
C1658 C1661 1.409 . S
C1659 H1651 0.930 . S
C1659 C1660 1.355 . S
C1659 C1661 1.415 . S
C1660 C1659 1.355 . S
C1660 C1662 1.419 . S
C1661 C1656 1.425 . S
C1661 C1658 1.409 . S
C1661 C1659 1.415 . S
C1662 H1652 0.930 . S
C1662 C1660 1.419 . S
C1662 C1663 1.362 . S
C1663 H1653 0.930 . S
C1663 C1656 1.409 . S
C1663 C1662 1.362 . S
H1664 C1670 0.930 . S
H1665 C1673 0.930 . S
H1666 C1674 0.930 . S
H1667 C1675 0.930 . S
H1668 C1678 0.930 . S
H1669 C1679 0.930 . S
C1670 H1664 0.930 . S
C1670 C1671 1.355 . S
C1670 C1672 1.415 . S
C1671 C1670 1.355 . S
C1671 C1673 1.419 . S
C1672 C1670 1.415 . S
C1672 C1677 1.425 . S
C1672 C1679 1.409 . S
C1673 H1665 0.930 . S
C1673 C1671 1.419 . S
C1673 C1674 1.362 . S
C1674 H1666 0.930 . S
C1674 C1673 1.362 . S
C1674 C1677 1.409 . S
C1675 H1667 0.930 . S
C1675 C1676 1.355 . S
C1675 C1677 1.415 . S
C1676 C1675 1.355 . S
C1676 C1678 1.419 . S
C1677 C1672 1.425 . S
C1677 C1674 1.409 . S
C1677 C1675 1.415 . S
C1678 H1668 0.930 . S
C1678 C1676 1.419 . S
C1678 C1679 1.362 . S
C1679 H1669 0.930 . S
C1679 C1672 1.409 . S
C1679 C1678 1.362 . S
H1680 C1686 0.930 . S
H1681 C1689 0.930 . S
H1682 C1690 0.930 . S
H1683 C1691 0.930 . S
H1684 C1694 0.930 . S
H1685 C1695 0.930 . S
C1686 H1680 0.930 . S
C1686 C1687 1.355 . S
C1686 C1688 1.415 . S
C1687 C1686 1.355 . S
C1687 C1689 1.419 . S
C1688 C1686 1.415 . S
C1688 C1693 1.425 . S
C1688 C1695 1.409 . S
C1689 H1681 0.930 . S
C1689 C1687 1.419 . S
C1689 C1690 1.362 . S
C1690 H1682 0.930 . S
C1690 C1689 1.362 . S
C1690 C1693 1.409 . S
C1691 H1683 0.930 . S
C1691 C1692 1.355 . S
C1691 C1693 1.415 . S
C1692 C1691 1.355 . S
C1692 C1694 1.419 . S
C1693 C1688 1.425 . S
C1693 C1690 1.409 . S
C1693 C1691 1.415 . S
C1694 H1684 0.930 . S
C1694 C1692 1.419 . S
C1694 C1695 1.362 . S
C1695 H1685 0.930 . S
C1695 C1688 1.409 . S
C1695 C1694 1.362 . S
H1696 C1702 0.930 . S
H1697 C1705 0.930 . S
H1698 C1706 0.930 . S
H1699 C1707 0.930 . S
H1700 C1710 0.930 . S
H1701 C1711 0.930 . S
C1702 H1696 0.930 . S
C1702 C1703 1.355 . S
C1702 C1704 1.415 . S
C1703 C1702 1.355 . S
C1703 C1705 1.419 . S
C1704 C1702 1.415 . S
C1704 C1709 1.425 . S
C1704 C1711 1.409 . S
C1705 H1697 0.930 . S
C1705 C1703 1.419 . S
C1705 C1706 1.362 . S
C1706 H1698 0.930 . S
C1706 C1705 1.362 . S
C1706 C1709 1.409 . S
C1707 H1699 0.930 . S
C1707 C1708 1.355 . S
C1707 C1709 1.415 . S
C1708 C1707 1.355 . S
C1708 C1710 1.419 . S
C1709 C1704 1.425 . S
C1709 C1706 1.409 . S
C1709 C1707 1.415 . S
C1710 H1700 0.930 . S
C1710 C1708 1.419 . S
C1710 C1711 1.362 . S
C1711 H1701 0.930 . S
C1711 C1704 1.409 . S
C1711 C1710 1.362 . S
H1712 C1718 0.930 . S
H1713 C1721 0.930 . S
H1714 C1722 0.930 . S
H1715 C1723 0.930 . S
H1716 C1726 0.930 . S
H1717 C1727 0.930 . S
C1718 H1712 0.930 . S
C1718 C1719 1.355 . S
C1718 C1720 1.415 . S
C1719 C1718 1.355 . S
C1719 C1721 1.419 . S
C1720 C1718 1.415 . S
C1720 C1725 1.425 . S
C1720 C1727 1.409 . S
C1721 H1713 0.930 . S
C1721 C1719 1.419 . S
C1721 C1722 1.362 . S
C1722 H1714 0.930 . S
C1722 C1721 1.362 . S
C1722 C1725 1.409 . S
C1723 H1715 0.930 . S
C1723 C1724 1.355 . S
C1723 C1725 1.415 . S
C1724 C1723 1.355 . S
C1724 C1726 1.419 . S
C1725 C1720 1.425 . S
C1725 C1722 1.409 . S
C1725 C1723 1.415 . S
C1726 H1716 0.930 . S
C1726 C1724 1.419 . S
C1726 C1727 1.362 . S
C1727 H1717 0.930 . S
C1727 C1720 1.409 . S
C1727 C1726 1.362 . S
H1728 C1734 0.930 . S
H1729 C1737 0.930 . S
H1730 C1738 0.930 . S
H1731 C1739 0.930 . S
H1732 C1742 0.930 . S
H1733 C1743 0.930 . S
C1734 H1728 0.930 . S
C1734 C1735 1.355 . S
C1734 C1736 1.415 . S
C1735 C1734 1.355 . S
C1735 C1737 1.419 . S
C1736 C1734 1.415 . S
C1736 C1741 1.425 . S
C1736 C1743 1.409 . S
C1737 H1729 0.930 . S
C1737 C1735 1.419 . S
C1737 C1738 1.362 . S
C1738 H1730 0.930 . S
C1738 C1737 1.362 . S
C1738 C1741 1.409 . S
C1739 H1731 0.930 . S
C1739 C1740 1.355 . S
C1739 C1741 1.415 . S
C1740 C1739 1.355 . S
C1740 C1742 1.419 . S
C1741 C1736 1.425 . S
C1741 C1738 1.409 . S
C1741 C1739 1.415 . S
C1742 H1732 0.930 . S
C1742 C1740 1.419 . S
C1742 C1743 1.362 . S
C1743 H1733 0.930 . S
C1743 C1736 1.409 . S
C1743 C1742 1.362 . S
H1744 C1750 0.930 . S
H1745 C1753 0.930 . S
H1746 C1754 0.930 . S
H1747 C1755 0.930 . S
H1748 C1758 0.930 . S
H1749 C1759 0.930 . S
C1750 H1744 0.930 . S
C1750 C1751 1.355 . S
C1750 C1752 1.415 . S
C1751 C1750 1.355 . S
C1751 C1753 1.419 . S
C1752 C1750 1.415 . S
C1752 C1757 1.425 . S
C1752 C1759 1.409 . S
C1753 H1745 0.930 . S
C1753 C1751 1.419 . S
C1753 C1754 1.362 . S
C1754 H1746 0.930 . S
C1754 C1753 1.362 . S
C1754 C1757 1.409 . S
C1755 H1747 0.930 . S
C1755 C1756 1.355 . S
C1755 C1757 1.415 . S
C1756 C1755 1.355 . S
C1756 C1758 1.419 . S
C1757 C1752 1.425 . S
C1757 C1754 1.409 . S
C1757 C1755 1.415 . S
C1758 H1748 0.930 . S
C1758 C1756 1.419 . S
C1758 C1759 1.362 . S
C1759 H1749 0.930 . S
C1759 C1752 1.409 . S
C1759 C1758 1.362 . S
H1760 C1766 0.930 . S
H1761 C1769 0.930 . S
H1762 C1770 0.930 . S
H1763 C1771 0.930 . S
H1764 C1774 0.930 . S
H1765 C1775 0.930 . S
C1766 H1760 0.930 . S
C1766 C1767 1.355 . S
C1766 C1768 1.415 . S
C1767 C1766 1.355 . S
C1767 C1769 1.419 . S
C1768 C1766 1.415 . S
C1768 C1773 1.425 . S
C1768 C1775 1.409 . S
C1769 H1761 0.930 . S
C1769 C1767 1.419 . S
C1769 C1770 1.362 . S
C1770 H1762 0.930 . S
C1770 C1769 1.362 . S
C1770 C1773 1.409 . S
C1771 H1763 0.930 . S
C1771 C1772 1.355 . S
C1771 C1773 1.415 . S
C1772 C1771 1.355 . S
C1772 C1774 1.419 . S
C1773 C1768 1.425 . S
C1773 C1770 1.409 . S
C1773 C1771 1.415 . S
C1774 H1764 0.930 . S
C1774 C1772 1.419 . S
C1774 C1775 1.362 . S
C1775 H1765 0.930 . S
C1775 C1768 1.409 . S
C1775 C1774 1.362 . S
H1776 C1782 0.930 . S
H1777 C1785 0.930 . S
H1778 C1786 0.930 . S
H1779 C1787 0.930 . S
H1780 C1790 0.930 . S
H1781 C1791 0.930 . S
C1782 H1776 0.930 . S
C1782 C1783 1.355 . S
C1782 C1784 1.415 . S
C1783 C1782 1.355 . S
C1783 C1785 1.419 . S
C1784 C1782 1.415 . S
C1784 C1789 1.425 . S
C1784 C1791 1.409 . S
C1785 H1777 0.930 . S
C1785 C1783 1.419 . S
C1785 C1786 1.362 . S
C1786 H1778 0.930 . S
C1786 C1785 1.362 . S
C1786 C1789 1.409 . S
C1787 H1779 0.930 . S
C1787 C1788 1.355 . S
C1787 C1789 1.415 . S
C1788 C1787 1.355 . S
C1788 C1790 1.419 . S
C1789 C1784 1.425 . S
C1789 C1786 1.409 . S
C1789 C1787 1.415 . S
C1790 H1780 0.930 . S
C1790 C1788 1.419 . S
C1790 C1791 1.362 . S
C1791 H1781 0.930 . S
C1791 C1784 1.409 . S
C1791 C1790 1.362 . S
H1792 C1798 0.930 . S
H1793 C1801 0.930 . S
H1794 C1802 0.930 . S
H1795 C1803 0.930 . S
H1796 C1806 0.930 . S
H1797 C1807 0.930 . S
C1798 H1792 0.930 . S
C1798 C1799 1.355 . S
C1798 C1800 1.415 . S
C1799 C1798 1.355 . S
C1799 C1801 1.419 . S
C1800 C1798 1.415 . S
C1800 C1805 1.425 . S
C1800 C1807 1.409 . S
C1801 H1793 0.930 . S
C1801 C1799 1.419 . S
C1801 C1802 1.362 . S
C1802 H1794 0.930 . S
C1802 C1801 1.362 . S
C1802 C1805 1.409 . S
C1803 H1795 0.930 . S
C1803 C1804 1.355 . S
C1803 C1805 1.415 . S
C1804 C1803 1.355 . S
C1804 C1806 1.419 . S
C1805 C1800 1.425 . S
C1805 C1802 1.409 . S
C1805 C1803 1.415 . S
C1806 H1796 0.930 . S
C1806 C1804 1.419 . S
C1806 C1807 1.362 . S
C1807 H1797 0.930 . S
C1807 C1800 1.409 . S
C1807 C1806 1.362 . S
H1808 C1814 0.930 . S
H1809 C1817 0.930 . S
H1810 C1818 0.930 . S
H1811 C1819 0.930 . S
H1812 C1822 0.930 . S
H1813 C1823 0.930 . S
C1814 H1808 0.930 . S
C1814 C1815 1.355 . S
C1814 C1816 1.415 . S
C1815 C1814 1.355 . S
C1815 C1817 1.419 . S
C1816 C1814 1.415 . S
C1816 C1821 1.425 . S
C1816 C1823 1.409 . S
C1817 H1809 0.930 . S
C1817 C1815 1.419 . S
C1817 C1818 1.362 . S
C1818 H1810 0.930 . S
C1818 C1817 1.362 . S
C1818 C1821 1.409 . S
C1819 H1811 0.930 . S
C1819 C1820 1.355 . S
C1819 C1821 1.415 . S
C1820 C1819 1.355 . S
C1820 C1822 1.419 . S
C1821 C1816 1.425 . S
C1821 C1818 1.409 . S
C1821 C1819 1.415 . S
C1822 H1812 0.930 . S
C1822 C1820 1.419 . S
C1822 C1823 1.362 . S
C1823 H1813 0.930 . S
C1823 C1816 1.409 . S
C1823 C1822 1.362 . S
H1824 C1830 0.930 . S
H1825 C1833 0.930 . S
H1826 C1834 0.930 . S
H1827 C1835 0.930 . S
H1828 C1838 0.930 . S
H1829 C1839 0.930 . S
C1830 H1824 0.930 . S
C1830 C1831 1.355 . S
C1830 C1832 1.415 . S
C1831 C1830 1.355 . S
C1831 C1833 1.419 . S
C1832 C1830 1.415 . S
C1832 C1837 1.425 . S
C1832 C1839 1.409 . S
C1833 H1825 0.930 . S
C1833 C1831 1.419 . S
C1833 C1834 1.362 . S
C1834 H1826 0.930 . S
C1834 C1833 1.362 . S
C1834 C1837 1.409 . S
C1835 H1827 0.930 . S
C1835 C1836 1.355 . S
C1835 C1837 1.415 . S
C1836 C1835 1.355 . S
C1836 C1838 1.419 . S
C1837 C1832 1.425 . S
C1837 C1834 1.409 . S
C1837 C1835 1.415 . S
C1838 H1828 0.930 . S
C1838 C1836 1.419 . S
C1838 C1839 1.362 . S
C1839 H1829 0.930 . S
C1839 C1832 1.409 . S
C1839 C1838 1.362 . S
H1840 C1846 0.930 . S
H1841 C1849 0.930 . S
H1842 C1850 0.930 1_545 S
H1843 C1851 0.930 . S
H1844 C1854 0.930 . S
H1845 C1855 0.930 1_565 S
C1846 H1840 0.930 . S
C1846 C1847 1.355 . S
C1846 C1848 1.415 . S
C1847 C1846 1.355 . S
C1847 C1849 1.419 . S
C1848 C1846 1.415 . S
C1848 C1853 1.425 1_465 S
C1848 C1855 1.409 1_465 S
C1849 H1841 0.930 . S
C1849 C1847 1.419 . S
C1849 C1850 1.362 . S
C1850 H1842 0.930 1_565 S
C1850 C1849 1.362 . S
C1850 C1853 1.409 1_465 S
C1851 H1843 0.930 . S
C1851 C1852 1.355 . S
C1851 C1853 1.415 . S
C1852 C1851 1.355 . S
C1852 C1854 1.419 . S
C1853 C1848 1.425 1_645 S
C1853 C1850 1.409 1_645 S
C1853 C1851 1.415 . S
C1854 H1844 0.930 . S
C1854 C1852 1.419 . S
C1854 C1855 1.362 . S
C1855 H1845 0.930 1_545 S
C1855 C1848 1.409 1_645 S
C1855 C1854 1.362 . S
H1856 C1862 0.930 . S
H1857 C1865 0.930 . S
H1858 C1866 0.930 . S
H1859 C1867 0.930 . S
H1860 C1870 0.930 . S
H1861 C1871 0.930 . S
C1862 H1856 0.930 . S
C1862 C1863 1.355 . S
C1862 C1864 1.415 . S
C1863 C1862 1.355 . S
C1863 C1865 1.419 . S
C1864 C1862 1.415 . S
C1864 C1869 1.425 . S
C1864 C1871 1.409 . S
C1865 H1857 0.930 . S
C1865 C1863 1.419 . S
C1865 C1866 1.362 . S
C1866 H1858 0.930 . S
C1866 C1865 1.362 . S
C1866 C1869 1.409 . S
C1867 H1859 0.930 . S
C1867 C1868 1.355 . S
C1867 C1869 1.415 . S
C1868 C1867 1.355 . S
C1868 C1870 1.419 . S
C1869 C1864 1.425 . S
C1869 C1866 1.409 . S
C1869 C1867 1.415 . S
C1870 H1860 0.930 . S
C1870 C1868 1.419 . S
C1870 C1871 1.362 . S
C1871 H1861 0.930 . S
C1871 C1864 1.409 . S
C1871 C1870 1.362 . S
H1872 C1878 0.930 . S
H1873 C1881 0.930 . S
H1874 C1882 0.930 . S
H1875 C1883 0.930 . S
H1876 C1886 0.930 . S
H1877 C1887 0.930 . S
C1878 H1872 0.930 . S
C1878 C1879 1.355 1_544 S
C1878 C1880 1.415 . S
C1879 C1878 1.355 1_566 S
C1879 C1881 1.419 . S
C1880 C1878 1.415 . S
C1880 C1885 1.425 1_544 S
C1880 C1887 1.409 . S
C1881 H1873 0.930 . S
C1881 C1879 1.419 . S
C1881 C1882 1.362 . S
C1882 H1874 0.930 . S
C1882 C1881 1.362 . S
C1882 C1885 1.409 . S
C1883 H1875 0.930 . S
C1883 C1884 1.355 1_566 S
C1883 C1885 1.415 . S
C1884 C1883 1.355 1_544 S
C1884 C1886 1.419 . S
C1885 C1880 1.425 1_566 S
C1885 C1882 1.409 . S
C1885 C1883 1.415 . S
C1886 H1876 0.930 . S
C1886 C1884 1.419 . S
C1886 C1887 1.362 . S
C1887 H1877 0.930 . S
C1887 C1880 1.409 . S
C1887 C1886 1.362 . S
H1888 C1894 0.930 . S
H1889 C1897 0.930 . S
H1890 C1898 0.930 . S
H1891 C1899 0.930 . S
H1892 C1902 0.930 . S
H1893 C1903 0.930 . S
C1894 H1888 0.930 . S
C1894 C1895 1.355 . S
C1894 C1896 1.415 . S
C1895 C1894 1.355 . S
C1895 C1897 1.419 . S
C1896 C1894 1.415 . S
C1896 C1901 1.425 . S
C1896 C1903 1.409 . S
C1897 H1889 0.930 . S
C1897 C1895 1.419 . S
C1897 C1898 1.362 . S
C1898 H1890 0.930 . S
C1898 C1897 1.362 . S
C1898 C1901 1.409 . S
C1899 H1891 0.930 . S
C1899 C1900 1.355 . S
C1899 C1901 1.415 . S
C1900 C1899 1.355 . S
C1900 C1902 1.419 . S
C1901 C1896 1.425 . S
C1901 C1898 1.409 . S
C1901 C1899 1.415 . S
C1902 H1892 0.930 . S
C1902 C1900 1.419 . S
C1902 C1903 1.362 . S
C1903 H1893 0.930 . S
C1903 C1896 1.409 . S
C1903 C1902 1.362 . S
H1904 C1910 0.930 . S
H1905 C1913 0.930 . S
H1906 C1914 0.930 . S
H1907 C1915 0.930 . S
H1908 C1918 0.930 . S
H1909 C1919 0.930 . S
C1910 H1904 0.930 . S
C1910 C1911 1.355 . S
C1910 C1912 1.415 . S
C1911 C1910 1.355 . S
C1911 C1913 1.419 1_565 S
C1912 C1910 1.415 . S
C1912 C1917 1.425 1_565 S
C1912 C1919 1.409 . S
C1913 H1905 0.930 . S
C1913 C1911 1.419 1_545 S
C1913 C1914 1.362 . S
C1914 H1906 0.930 . S
C1914 C1913 1.362 . S
C1914 C1917 1.409 . S
C1915 H1907 0.930 . S
C1915 C1916 1.355 . S
C1915 C1917 1.415 . S
C1916 C1915 1.355 . S
C1916 C1918 1.419 1_545 S
C1917 C1912 1.425 1_545 S
C1917 C1914 1.409 . S
C1917 C1915 1.415 . S
C1918 H1908 0.930 . S
C1918 C1916 1.419 1_565 S
C1918 C1919 1.362 . S
C1919 H1909 0.930 . S
C1919 C1912 1.409 . S
C1919 C1918 1.362 . S
H1920 C1926 0.930 . S
H1921 C1929 0.930 . S
H1922 C1930 0.930 . S
H1923 C1931 0.930 . S
H1924 C1934 0.930 . S
H1925 C1935 0.930 . S
C1926 H1920 0.930 . S
C1926 C1927 1.355 . S
C1926 C1928 1.415 . S
C1927 C1926 1.355 . S
C1927 C1929 1.419 . S
C1928 C1926 1.415 . S
C1928 C1933 1.425 . S
C1928 C1935 1.409 . S
C1929 H1921 0.930 . S
C1929 C1927 1.419 . S
C1929 C1930 1.362 . S
C1930 H1922 0.930 . S
C1930 C1929 1.362 . S
C1930 C1933 1.409 . S
C1931 H1923 0.930 . S
C1931 C1932 1.355 . S
C1931 C1933 1.415 . S
C1932 C1931 1.355 . S
C1932 C1934 1.419 . S
C1933 C1928 1.425 . S
C1933 C1930 1.409 . S
C1933 C1931 1.415 . S
C1934 H1924 0.930 . S
C1934 C1932 1.419 . S
C1934 C1935 1.362 . S
C1935 H1925 0.930 . S
C1935 C1928 1.409 . S
C1935 C1934 1.362 . S
H1936 C1942 0.930 . S
H1937 C1945 0.930 . S
H1938 C1946 0.930 . S
H1939 C1947 0.930 . S
H1940 C1950 0.930 . S
H1941 C1951 0.930 . S
C1942 H1936 0.930 . S
C1942 C1943 1.355 . S
C1942 C1944 1.392 1_456 S
C1943 C1942 1.355 . S
C1943 C1945 1.419 1_545 S
C1944 C1942 1.392 1_654 S
C1944 C1949 1.424 1_644 S
C1944 C1951 1.433 . S
C1945 H1937 0.930 . S
C1945 C1943 1.419 1_565 S
C1945 C1946 1.362 . S
C1946 H1938 0.930 . S
C1946 C1945 1.362 . S
C1946 C1949 1.433 . S
C1947 H1939 0.930 . S
C1947 C1948 1.355 . S
C1947 C1949 1.392 1_654 S
C1948 C1947 1.355 . S
C1948 C1950 1.419 1_565 S
C1949 C1944 1.424 1_466 S
C1949 C1946 1.433 . S
C1949 C1947 1.392 1_456 S
C1950 H1940 0.930 . S
C1950 C1948 1.419 1_545 S
C1950 C1951 1.362 . S
C1951 H1941 0.930 . S
C1951 C1944 1.433 . S
C1951 C1950 1.362 . S
H1952 C1958 0.930 . S
H1953 C1961 0.930 . S
H1954 C1962 0.930 . S
H1955 C1963 0.930 . S
H1956 C1966 0.930 . S
H1957 C1967 0.930 . S
C1958 H1952 0.930 . S
C1958 C1959 1.355 . S
C1958 C1960 1.415 . S
C1959 C1958 1.355 . S
C1959 C1961 1.419 . S
C1960 C1958 1.415 . S
C1960 C1965 1.425 . S
C1960 C1967 1.409 . S
C1961 H1953 0.930 . S
C1961 C1959 1.419 . S
C1961 C1962 1.362 . S
C1962 H1954 0.930 . S
C1962 C1961 1.362 . S
C1962 C1965 1.409 . S
C1963 H1955 0.930 . S
C1963 C1964 1.355 . S
C1963 C1965 1.415 . S
C1964 C1963 1.355 . S
C1964 C1966 1.419 . S
C1965 C1960 1.425 . S
C1965 C1962 1.409 . S
C1965 C1963 1.415 . S
C1966 H1956 0.930 . S
C1966 C1964 1.419 . S
C1966 C1967 1.362 . S
C1967 H1957 0.930 . S
C1967 C1960 1.409 . S
C1967 C1966 1.362 . S
H1968 C1974 0.930 . S
H1969 C1977 0.930 . S
H1970 C1978 0.930 . S
H1971 C1979 0.930 . S
H1972 C1982 0.930 . S
H1973 C1983 0.930 . S
C1974 H1968 0.930 . S
C1974 C1975 1.355 . S
C1974 C1976 1.415 . S
C1975 C1974 1.355 . S
C1975 C1977 1.419 . S
C1976 C1974 1.415 . S
C1976 C1981 1.425 . S
C1976 C1983 1.409 . S
C1977 H1969 0.930 . S
C1977 C1975 1.419 . S
C1977 C1978 1.362 . S
C1978 H1970 0.930 . S
C1978 C1977 1.362 . S
C1978 C1981 1.409 . S
C1979 H1971 0.930 . S
C1979 C1980 1.355 . S
C1979 C1981 1.415 . S
C1980 C1979 1.355 . S
C1980 C1982 1.419 . S
C1981 C1976 1.425 . S
C1981 C1978 1.409 . S
C1981 C1979 1.415 . S
C1982 H1972 0.930 . S
C1982 C1980 1.419 . S
C1982 C1983 1.362 . S
C1983 H1973 0.930 . S
C1983 C1976 1.409 . S
C1983 C1982 1.362 . S
H1984 C1990 0.930 . S
H1985 C1993 0.930 . S
H1986 C1994 0.930 . S
H1987 C1995 0.930 . S
H1988 C1998 0.930 . S
H1989 C1999 0.930 . S
C1990 H1984 0.930 . S
C1990 C1991 1.355 . S
C1990 C1992 1.415 . S
C1991 C1990 1.355 . S
C1991 C1993 1.419 . S
C1992 C1990 1.415 . S
C1992 C1997 1.425 . S
C1992 C1999 1.409 . S
C1993 H1985 0.930 . S
C1993 C1991 1.419 . S
C1993 C1994 1.362 . S
C1994 H1986 0.930 . S
C1994 C1993 1.362 . S
C1994 C1997 1.409 . S
C1995 H1987 0.930 . S
C1995 C1996 1.355 . S
C1995 C1997 1.415 . S
C1996 C1995 1.355 . S
C1996 C1998 1.419 . S
C1997 C1992 1.425 . S
C1997 C1994 1.409 . S
C1997 C1995 1.415 . S
C1998 H1988 0.930 . S
C1998 C1996 1.419 . S
C1998 C1999 1.362 . S
C1999 H1989 0.930 . S
C1999 C1992 1.409 . S
C1999 C1998 1.362 . S
H2000 C2006 0.930 . S
H2001 C2009 0.930 . S
H2002 C2010 0.930 . S
H2003 C2011 0.930 . S
H2004 C2014 0.930 . S
H2005 C2015 0.930 . S
C2006 H2000 0.930 . S
C2006 C2007 1.355 . S
C2006 C2008 1.415 . S
C2007 C2006 1.355 . S
C2007 C2009 1.419 . S
C2008 C2006 1.415 . S
C2008 C2013 1.425 . S
C2008 C2015 1.409 . S
C2009 H2001 0.930 . S
C2009 C2007 1.419 . S
C2009 C2010 1.362 . S
C2010 H2002 0.930 . S
C2010 C2009 1.362 . S
C2010 C2013 1.409 . S
C2011 H2003 0.930 . S
C2011 C2012 1.355 . S
C2011 C2013 1.415 . S
C2012 C2011 1.355 . S
C2012 C2014 1.419 . S
C2013 C2008 1.425 . S
C2013 C2010 1.409 . S
C2013 C2011 1.415 . S
C2014 H2004 0.930 . S
C2014 C2012 1.419 . S
C2014 C2015 1.362 . S
C2015 H2005 0.930 . S
C2015 C2008 1.409 . S
C2015 C2014 1.362 . S
H2016 C2022 0.930 . S
H2017 C2025 0.930 . S
H2018 C2026 0.930 . S
H2019 C2027 0.930 . S
H2020 C2030 0.930 . S
H2021 C2031 0.930 . S
C2022 H2016 0.930 . S
C2022 C2023 1.355 . S
C2022 C2024 1.415 . S
C2023 C2022 1.355 . S
C2023 C2025 1.419 1_554 S
C2024 C2022 1.415 . S
C2024 C2029 1.425 1_554 S
C2024 C2031 1.409 . S
C2025 H2017 0.930 . S
C2025 C2023 1.419 1_556 S
C2025 C2026 1.362 . S
C2026 H2018 0.930 . S
C2026 C2025 1.362 . S
C2026 C2029 1.409 . S
C2027 H2019 0.930 . S
C2027 C2028 1.355 . S
C2027 C2029 1.415 . S
C2028 C2027 1.355 . S
C2028 C2030 1.419 1_556 S
C2029 C2024 1.425 1_556 S
C2029 C2026 1.409 . S
C2029 C2027 1.415 . S
C2030 H2020 0.930 . S
C2030 C2028 1.419 1_554 S
C2030 C2031 1.362 . S
C2031 H2021 0.930 . S
C2031 C2024 1.409 . S
C2031 C2030 1.362 . S
H2032 C2038 0.930 . S
H2033 C2041 0.930 . S
H2034 C2042 0.900 1_655 S
H2035 C2043 0.930 . S
H2036 C2046 0.930 . S
H2037 C2047 0.900 1_455 S
C2038 H2032 0.930 . S
C2038 C2039 1.355 . S
C2038 C2040 1.415 . S
C2039 C2038 1.355 . S
C2039 C2041 1.419 . S
C2040 C2038 1.415 . S
C2040 C2045 1.425 1_455 S
C2040 C2047 1.392 1_455 S
C2041 H2033 0.930 . S
C2041 C2039 1.419 . S
C2041 C2042 1.410 . S
C2042 H2034 0.900 1_455 S
C2042 C2041 1.410 . S
C2042 C2045 1.392 1_455 S
C2043 H2035 0.930 . S
C2043 C2044 1.355 . S
C2043 C2045 1.415 . S
C2044 C2043 1.355 . S
C2044 C2046 1.419 . S
C2045 C2040 1.425 1_655 S
C2045 C2042 1.392 1_655 S
C2045 C2043 1.415 . S
C2046 H2036 0.930 . S
C2046 C2044 1.419 . S
C2046 C2047 1.410 . S
C2047 H2037 0.900 1_655 S
C2047 C2040 1.392 1_655 S
C2047 C2046 1.410 . S
H2048 C2054 0.930 1_554 S
H2049 C2057 0.930 . S
H2050 C2058 0.930 . S
H2051 C2059 0.930 1_556 S
H2052 C2062 0.930 . S
H2053 C2063 0.930 . S
C2054 H2048 0.930 1_556 S
C2054 C2055 1.355 . S
C2054 C2056 1.402 1_656 S
C2055 C2054 1.355 . S
C2055 C2057 1.419 . S
C2056 C2054 1.402 1_454 S
C2056 C2061 1.425 1_454 S
C2056 C2063 1.422 . S
C2057 H2049 0.930 . S
C2057 C2055 1.419 . S
C2057 C2058 1.362 . S
C2058 H2050 0.930 . S
C2058 C2057 1.362 . S
C2058 C2061 1.422 . S
C2059 H2051 0.930 1_554 S
C2059 C2060 1.355 . S
C2059 C2061 1.402 1_454 S
C2060 C2059 1.355 . S
C2060 C2062 1.419 . S
C2061 C2056 1.425 1_656 S
C2061 C2058 1.422 . S
C2061 C2059 1.402 1_656 S
C2062 H2052 0.930 . S
C2062 C2060 1.419 . S
C2062 C2063 1.362 . S
C2063 H2053 0.930 . S
C2063 C2056 1.422 . S
C2063 C2062 1.362 . S
H2064 C2070 0.930 . S
H2065 C2073 0.930 . S
H2066 C2074 0.930 . S
H2067 C2075 0.930 . S
H2068 C2078 0.930 . S
H2069 C2079 0.930 . S
C2070 H2064 0.930 . S
C2070 C2071 1.355 . S
C2070 C2072 1.415 . S
C2071 C2070 1.355 . S
C2071 C2073 1.419 . S
C2072 C2070 1.415 . S
C2072 C2077 1.425 . S
C2072 C2079 1.409 . S
C2073 H2065 0.930 . S
C2073 C2071 1.419 . S
C2073 C2074 1.362 . S
C2074 H2066 0.930 . S
C2074 C2073 1.362 . S
C2074 C2077 1.409 . S
C2075 H2067 0.930 . S
C2075 C2076 1.355 . S
C2075 C2077 1.415 . S
C2076 C2075 1.355 . S
C2076 C2078 1.419 . S
C2077 C2072 1.425 . S
C2077 C2074 1.409 . S
C2077 C2075 1.415 . S
C2078 H2068 0.930 . S
C2078 C2076 1.419 . S
C2078 C2079 1.362 . S
C2079 H2069 0.930 . S
C2079 C2072 1.409 . S
C2079 C2078 1.362 . S
H2080 C2086 0.930 . S
H2081 C2089 0.930 . S
H2082 C2090 0.930 . S
H2083 C2091 0.930 . S
H2084 C2094 0.930 . S
H2085 C2095 0.930 . S
C2086 H2080 0.930 . S
C2086 C2087 1.355 . S
C2086 C2088 1.415 . S
C2087 C2086 1.355 . S
C2087 C2089 1.419 . S
C2088 C2086 1.415 . S
C2088 C2093 1.425 . S
C2088 C2095 1.409 . S
C2089 H2081 0.930 . S
C2089 C2087 1.419 . S
C2089 C2090 1.362 . S
C2090 H2082 0.930 . S
C2090 C2089 1.362 . S
C2090 C2093 1.409 . S
C2091 H2083 0.930 . S
C2091 C2092 1.355 . S
C2091 C2093 1.415 . S
C2092 C2091 1.355 . S
C2092 C2094 1.419 . S
C2093 C2088 1.425 . S
C2093 C2090 1.409 . S
C2093 C2091 1.415 . S
C2094 H2084 0.930 . S
C2094 C2092 1.419 . S
C2094 C2095 1.362 . S
C2095 H2085 0.930 . S
C2095 C2088 1.409 . S
C2095 C2094 1.362 . S
H2096 C2102 0.930 . S
H2097 C2105 0.930 . S
H2098 C2106 0.930 1_565 S
H2099 C2107 0.930 . S
H2100 C2110 0.930 . S
H2101 C2111 0.930 1_545 S
C2102 H2096 0.930 . S
C2102 C2103 1.355 . S
C2102 C2104 1.415 . S
C2103 C2102 1.355 . S
C2103 C2105 1.419 . S
C2104 C2102 1.415 . S
C2104 C2109 1.425 1_545 S
C2104 C2111 1.409 1_545 S
C2105 H2097 0.930 . S
C2105 C2103 1.419 . S
C2105 C2106 1.362 . S
C2106 H2098 0.930 1_545 S
C2106 C2105 1.362 . S
C2106 C2109 1.409 1_545 S
C2107 H2099 0.930 . S
C2107 C2108 1.355 . S
C2107 C2109 1.415 . S
C2108 C2107 1.355 . S
C2108 C2110 1.419 . S
C2109 C2104 1.425 1_565 S
C2109 C2106 1.409 1_565 S
C2109 C2107 1.415 . S
C2110 H2100 0.930 . S
C2110 C2108 1.419 . S
C2110 C2111 1.362 . S
C2111 H2101 0.930 1_565 S
C2111 C2104 1.409 1_565 S
C2111 C2110 1.362 . S
H2112 C2118 0.930 . S
H2113 C2121 0.928 1_556 S
H2114 C2122 0.930 . S
H2115 C2123 0.930 . S
H2116 C2126 0.928 1_554 S
H2117 C2127 0.930 . S
C2118 H2112 0.930 . S
C2118 C2119 1.355 . S
C2118 C2120 1.415 . S
C2119 C2118 1.355 . S
C2119 C2121 1.419 . S
C2120 C2118 1.415 . S
C2120 C2125 1.425 1_554 S
C2120 C2127 1.409 . S
C2121 H2113 0.928 1_554 S
C2121 C2119 1.419 . S
C2121 C2122 1.362 1_554 S
C2122 H2114 0.930 . S
C2122 C2121 1.362 1_556 S
C2122 C2125 1.409 . S
C2123 H2115 0.930 . S
C2123 C2124 1.355 . S
C2123 C2125 1.415 . S
C2124 C2123 1.355 . S
C2124 C2126 1.419 . S
C2125 C2120 1.425 1_556 S
C2125 C2122 1.409 . S
C2125 C2123 1.415 . S
C2126 H2116 0.928 1_556 S
C2126 C2124 1.419 . S
C2126 C2127 1.362 1_556 S
C2127 H2117 0.930 . S
C2127 C2120 1.409 . S
C2127 C2126 1.362 1_554 S
H2128 C2134 0.930 . S
H2129 C2137 0.930 . S
H2130 C2138 0.930 . S
H2131 C2139 0.930 . S
H2132 C2142 0.930 . S
H2133 C2143 0.930 . S
C2134 H2128 0.930 . S
C2134 C2135 1.355 . S
C2134 C2136 1.415 . S
C2135 C2134 1.355 . S
C2135 C2137 1.419 . S
C2136 C2134 1.415 . S
C2136 C2141 1.425 1_565 S
C2136 C2143 1.409 . S
C2137 H2129 0.930 . S
C2137 C2135 1.419 . S
C2137 C2138 1.362 1_565 S
C2138 H2130 0.930 . S
C2138 C2137 1.362 1_545 S
C2138 C2141 1.409 . S
C2139 H2131 0.930 . S
C2139 C2140 1.355 . S
C2139 C2141 1.415 . S
C2140 C2139 1.355 . S
C2140 C2142 1.419 . S
C2141 C2136 1.425 1_545 S
C2141 C2138 1.409 . S
C2141 C2139 1.415 . S
C2142 H2132 0.930 . S
C2142 C2140 1.419 . S
C2142 C2143 1.362 1_545 S
C2143 H2133 0.930 . S
C2143 C2136 1.409 . S
C2143 C2142 1.362 1_565 S
H2144 C2150 0.930 . S
H2145 C2153 0.930 . S
H2146 C2154 0.930 . S
H2147 C2155 0.930 . S
H2148 C2158 0.930 . S
H2149 C2159 0.930 . S
C2150 H2144 0.930 . S
C2150 C2151 1.355 . S
C2150 C2152 1.415 . S
C2151 C2150 1.355 . S
C2151 C2153 1.419 . S
C2152 C2150 1.415 . S
C2152 C2157 1.425 . S
C2152 C2159 1.409 . S
C2153 H2145 0.930 . S
C2153 C2151 1.419 . S
C2153 C2154 1.362 . S
C2154 H2146 0.930 . S
C2154 C2153 1.362 . S
C2154 C2157 1.409 . S
C2155 H2147 0.930 . S
C2155 C2156 1.355 . S
C2155 C2157 1.415 . S
C2156 C2155 1.355 . S
C2156 C2158 1.419 . S
C2157 C2152 1.425 . S
C2157 C2154 1.409 . S
C2157 C2155 1.415 . S
C2158 H2148 0.930 . S
C2158 C2156 1.419 . S
C2158 C2159 1.362 . S
C2159 H2149 0.930 . S
C2159 C2152 1.409 . S
C2159 C2158 1.362 . S
H2160 C2166 0.930 . S
H2161 C2169 0.930 . S
H2162 C2170 0.930 . S
H2163 C2171 0.930 . S
H2164 C2174 0.930 . S
H2165 C2175 0.930 . S
C2166 H2160 0.930 . S
C2166 C2167 1.355 . S
C2166 C2168 1.415 . S
C2167 C2166 1.355 . S
C2167 C2169 1.419 . S
C2168 C2166 1.415 . S
C2168 C2173 1.425 1_545 S
C2168 C2175 1.409 1_545 S
C2169 H2161 0.930 . S
C2169 C2167 1.419 . S
C2169 C2170 1.362 . S
C2170 H2162 0.930 . S
C2170 C2169 1.362 . S
C2170 C2173 1.409 1_545 S
C2171 H2163 0.930 . S
C2171 C2172 1.355 . S
C2171 C2173 1.415 . S
C2172 C2171 1.355 . S
C2172 C2174 1.419 . S
C2173 C2168 1.425 1_565 S
C2173 C2170 1.409 1_565 S
C2173 C2171 1.415 . S
C2174 H2164 0.930 . S
C2174 C2172 1.419 . S
C2174 C2175 1.362 . S
C2175 H2165 0.930 . S
C2175 C2168 1.409 1_565 S
C2175 C2174 1.362 . S
H2176 C2182 0.930 . S
H2177 C2185 0.930 . S
H2178 C2186 0.930 . S
H2179 C2187 0.930 . S
H2180 C2190 0.930 . S
H2181 C2191 0.930 . S
C2182 H2176 0.930 . S
C2182 C2183 1.355 . S
C2182 C2184 1.415 . S
C2183 C2182 1.355 . S
C2183 C2185 1.419 . S
C2184 C2182 1.415 . S
C2184 C2189 1.425 1_556 S
C2184 C2191 1.409 . S
C2185 H2177 0.930 . S
C2185 C2183 1.419 . S
C2185 C2186 1.362 1_556 S
C2186 H2178 0.930 . S
C2186 C2185 1.362 1_554 S
C2186 C2189 1.409 . S
C2187 H2179 0.930 . S
C2187 C2188 1.355 . S
C2187 C2189 1.415 . S
C2188 C2187 1.355 . S
C2188 C2190 1.419 . S
C2189 C2184 1.425 1_554 S
C2189 C2186 1.409 . S
C2189 C2187 1.415 . S
C2190 H2180 0.930 . S
C2190 C2188 1.419 . S
C2190 C2191 1.362 1_554 S
C2191 H2181 0.930 . S
C2191 C2184 1.409 . S
C2191 C2190 1.362 1_556 S
H2192 C2198 0.930 . S
H2193 C2201 0.930 . S
H2194 C2202 0.930 1_565 S
H2195 C2203 0.930 . S
H2196 C2206 0.930 . S
H2197 C2207 0.930 1_545 S
C2198 H2192 0.930 . S
C2198 C2199 1.355 . S
C2198 C2200 1.415 . S
C2199 C2198 1.355 . S
C2199 C2201 1.419 . S
C2200 C2198 1.415 . S
C2200 C2205 1.425 1_545 S
C2200 C2207 1.409 1_545 S
C2201 H2193 0.930 . S
C2201 C2199 1.419 . S
C2201 C2202 1.362 . S
C2202 H2194 0.930 1_545 S
C2202 C2201 1.362 . S
C2202 C2205 1.409 1_545 S
C2203 H2195 0.930 . S
C2203 C2204 1.355 . S
C2203 C2205 1.415 . S
C2204 C2203 1.355 . S
C2204 C2206 1.419 . S
C2205 C2200 1.425 1_565 S
C2205 C2202 1.409 1_565 S
C2205 C2203 1.415 . S
C2206 H2196 0.930 . S
C2206 C2204 1.419 . S
C2206 C2207 1.362 . S
C2207 H2197 0.930 1_565 S
C2207 C2200 1.409 1_565 S
C2207 C2206 1.362 . S
H2208 C2214 0.930 . S
H2209 C2217 0.930 . S
H2210 C2218 0.930 . S
H2211 C2219 0.930 . S
H2212 C2222 0.930 . S
H2213 C2223 0.930 . S
C2214 H2208 0.930 . S
C2214 C2215 1.355 . S
C2214 C2216 1.415 . S
C2215 C2214 1.355 . S
C2215 C2217 1.419 . S
C2216 C2214 1.415 . S
C2216 C2221 1.425 1_556 S
C2216 C2223 1.409 . S
C2217 H2209 0.930 . S
C2217 C2215 1.419 . S
C2217 C2218 1.362 1_556 S
C2218 H2210 0.930 . S
C2218 C2217 1.362 1_554 S
C2218 C2221 1.409 . S
C2219 H2211 0.930 . S
C2219 C2220 1.355 . S
C2219 C2221 1.415 . S
C2220 C2219 1.355 . S
C2220 C2222 1.419 . S
C2221 C2216 1.425 1_554 S
C2221 C2218 1.409 . S
C2221 C2219 1.415 . S
C2222 H2212 0.930 . S
C2222 C2220 1.419 . S
C2222 C2223 1.362 1_554 S
C2223 H2213 0.930 . S
C2223 C2216 1.409 . S
C2223 C2222 1.362 1_556 S
H2224 C2230 0.930 . S
H2225 C2233 0.930 . S
H2226 C2234 0.930 . S
H2227 C2235 0.930 . S
H2228 C2238 0.930 . S
H2229 C2239 0.930 . S
C2230 H2224 0.930 . S
C2230 C2231 1.355 . S
C2230 C2232 1.415 . S
C2231 C2230 1.355 . S
C2231 C2233 1.419 . S
C2232 C2230 1.415 . S
C2232 C2237 1.425 . S
C2232 C2239 1.409 . S
C2233 H2225 0.930 . S
C2233 C2231 1.419 . S
C2233 C2234 1.362 . S
C2234 H2226 0.930 . S
C2234 C2233 1.362 . S
C2234 C2237 1.409 . S
C2235 H2227 0.930 . S
C2235 C2236 1.355 . S
C2235 C2237 1.415 . S
C2236 C2235 1.355 . S
C2236 C2238 1.419 . S
C2237 C2232 1.425 . S
C2237 C2234 1.409 . S
C2237 C2235 1.415 . S
C2238 H2228 0.930 . S
C2238 C2236 1.419 . S
C2238 C2239 1.362 . S
C2239 H2229 0.930 . S
C2239 C2232 1.409 . S
C2239 C2238 1.362 . S
H2240 C2246 0.930 . S
H2241 C2249 0.930 . S
H2242 C2250 0.930 . S
H2243 C2251 0.930 . S
H2244 C2254 0.930 . S
H2245 C2255 0.930 . S
C2246 H2240 0.930 . S
C2246 C2247 1.355 . S
C2246 C2248 1.415 . S
C2247 C2246 1.355 . S
C2247 C2249 1.419 . S
C2248 C2246 1.415 . S
C2248 C2253 1.425 . S
C2248 C2255 1.409 . S
C2249 H2241 0.930 . S
C2249 C2247 1.419 . S
C2249 C2250 1.362 . S
C2250 H2242 0.930 . S
C2250 C2249 1.362 . S
C2250 C2253 1.409 . S
C2251 H2243 0.930 . S
C2251 C2252 1.355 . S
C2251 C2253 1.415 . S
C2252 C2251 1.355 . S
C2252 C2254 1.419 . S
C2253 C2248 1.425 . S
C2253 C2250 1.409 . S
C2253 C2251 1.415 . S
C2254 H2244 0.930 . S
C2254 C2252 1.419 . S
C2254 C2255 1.362 . S
C2255 H2245 0.930 . S
C2255 C2248 1.409 . S
C2255 C2254 1.362 . S
H2256 C2262 0.930 . S
H2257 C2265 0.930 . S
H2258 C2266 0.930 . S
H2259 C2267 0.930 . S
H2260 C2270 0.930 . S
H2261 C2271 0.930 . S
C2262 H2256 0.930 . S
C2262 C2263 1.355 . S
C2262 C2264 1.415 . S
C2263 C2262 1.355 . S
C2263 C2265 1.419 . S
C2264 C2262 1.415 . S
C2264 C2269 1.425 . S
C2264 C2271 1.409 . S
C2265 H2257 0.930 . S
C2265 C2263 1.419 . S
C2265 C2266 1.362 . S
C2266 H2258 0.930 . S
C2266 C2265 1.362 . S
C2266 C2269 1.409 . S
C2267 H2259 0.930 . S
C2267 C2268 1.355 . S
C2267 C2269 1.415 . S
C2268 C2267 1.355 . S
C2268 C2270 1.419 . S
C2269 C2264 1.425 . S
C2269 C2266 1.409 . S
C2269 C2267 1.415 . S
C2270 H2260 0.930 . S
C2270 C2268 1.419 . S
C2270 C2271 1.362 . S
C2271 H2261 0.930 . S
C2271 C2264 1.409 . S
C2271 C2270 1.362 . S
H2272 C2278 0.930 . S
H2273 C2281 0.930 1_556 S
H2274 C2282 0.930 . S
H2275 C2283 0.930 . S
H2276 C2286 0.930 1_554 S
H2277 C2287 0.930 . S
C2278 H2272 0.930 . S
C2278 C2279 1.355 . S
C2278 C2280 1.415 . S
C2279 C2278 1.355 . S
C2279 C2281 1.419 . S
C2280 C2278 1.415 . S
C2280 C2285 1.425 1_554 S
C2280 C2287 1.409 . S
C2281 H2273 0.930 1_554 S
C2281 C2279 1.419 . S
C2281 C2282 1.362 1_554 S
C2282 H2274 0.930 . S
C2282 C2281 1.362 1_556 S
C2282 C2285 1.409 . S
C2283 H2275 0.930 . S
C2283 C2284 1.355 . S
C2283 C2285 1.415 . S
C2284 C2283 1.355 . S
C2284 C2286 1.419 . S
C2285 C2280 1.425 1_556 S
C2285 C2282 1.409 . S
C2285 C2283 1.415 . S
C2286 H2276 0.930 1_556 S
C2286 C2284 1.419 . S
C2286 C2287 1.362 1_556 S
C2287 H2277 0.930 . S
C2287 C2280 1.409 . S
C2287 C2286 1.362 1_554 S
H2288 C2294 0.930 . S
H2289 C2297 0.930 . S
H2290 C2298 0.930 . S
H2291 C2299 0.930 . S
H2292 C2302 0.930 . S
H2293 C2303 0.930 . S
C2294 H2288 0.930 . S
C2294 C2295 1.355 . S
C2294 C2296 1.415 . S
C2295 C2294 1.355 . S
C2295 C2297 1.419 . S
C2296 C2294 1.415 . S
C2296 C2301 1.425 . S
C2296 C2303 1.409 . S
C2297 H2289 0.930 . S
C2297 C2295 1.419 . S
C2297 C2298 1.362 . S
C2298 H2290 0.930 . S
C2298 C2297 1.362 . S
C2298 C2301 1.409 . S
C2299 H2291 0.930 . S
C2299 C2300 1.355 . S
C2299 C2301 1.415 . S
C2300 C2299 1.355 . S
C2300 C2302 1.419 . S
C2301 C2296 1.425 . S
C2301 C2298 1.409 . S
C2301 C2299 1.415 . S
C2302 H2292 0.930 . S
C2302 C2300 1.419 . S
C2302 C2303 1.362 . S
C2303 H2293 0.930 . S
C2303 C2296 1.409 . S
C2303 C2302 1.362 . S
H2304 C2310 0.930 . S
H2305 C2313 0.930 . S
H2306 C2314 0.930 . S
H2307 C2315 0.930 . S
H2308 C2318 0.930 . S
H2309 C2319 0.930 . S
C2310 H2304 0.930 . S
C2310 C2311 1.355 . S
C2310 C2312 1.415 . S
C2311 C2310 1.355 . S
C2311 C2313 1.419 . S
C2312 C2310 1.415 . S
C2312 C2317 1.425 . S
C2312 C2319 1.409 . S
C2313 H2305 0.930 . S
C2313 C2311 1.419 . S
C2313 C2314 1.362 . S
C2314 H2306 0.930 . S
C2314 C2313 1.362 . S
C2314 C2317 1.409 . S
C2315 H2307 0.930 . S
C2315 C2316 1.355 . S
C2315 C2317 1.415 . S
C2316 C2315 1.355 . S
C2316 C2318 1.419 . S
C2317 C2312 1.425 . S
C2317 C2314 1.409 . S
C2317 C2315 1.415 . S
C2318 H2308 0.930 . S
C2318 C2316 1.419 . S
C2318 C2319 1.362 . S
C2319 H2309 0.930 . S
C2319 C2312 1.409 . S
C2319 C2318 1.362 . S
H2320 C2326 0.930 . S
H2321 C2329 0.930 . S
H2322 C2330 0.930 . S
H2323 C2331 0.930 . S
H2324 C2334 0.930 . S
H2325 C2335 0.930 . S
C2326 H2320 0.930 . S
C2326 C2327 1.355 . S
C2326 C2328 1.415 . S
C2327 C2326 1.355 . S
C2327 C2329 1.419 . S
C2328 C2326 1.415 . S
C2328 C2333 1.425 . S
C2328 C2335 1.409 . S
C2329 H2321 0.930 . S
C2329 C2327 1.419 . S
C2329 C2330 1.362 . S
C2330 H2322 0.930 . S
C2330 C2329 1.362 . S
C2330 C2333 1.409 . S
C2331 H2323 0.930 . S
C2331 C2332 1.355 . S
C2331 C2333 1.415 . S
C2332 C2331 1.355 . S
C2332 C2334 1.419 . S
C2333 C2328 1.425 . S
C2333 C2330 1.409 . S
C2333 C2331 1.415 . S
C2334 H2324 0.930 . S
C2334 C2332 1.419 . S
C2334 C2335 1.362 . S
C2335 H2325 0.930 . S
C2335 C2328 1.409 . S
C2335 C2334 1.362 . S
C1063 C249 1.677 . S
C1068 C18 1.671 . S
C1079 C51 1.684 . S
C1084 C150 1.666 . S
C1095 C84 1.689 . S
C1100 C183 1.664 . S
C1111 C216 1.686 . S
C1116 C117 1.665 . S
C1127 C282 1.691 . S
C1132 C513 1.673 . S
C1143 C414 1.672 . S
C1148 C315 1.692 . S
C1159 C348 1.692 . S
C1164 C447 1.673 . S
C1175 C480 1.665 . S
C1180 C381 1.685 . S
C1191 C777 1.685 . S
C1196 C546 1.682 . S
C1207 C678 1.682 . S
C1212 C579 1.666 . S
C1223 C711 1.680 . S
C1228 C612 1.668 . S
C1239 C744 1.665 . S
C1244 C645 1.686 . S
C1255 C1041 1.677 . S
C1260 C810 1.670 . S
C1271 C843 1.673 . S
C1276 C942 1.692 . S
C1287 C975 1.687 . S
C1292 C876 1.680 . S
C1303 C1008 1.691 . S
C1308 C909 1.664 . S
C1319 C21 1.435 . S
C1324 N904 1.444 . S
C1335 N277 1.449 . S
C1340 C54 1.448 1_655 S
C1351 N838 1.423 . S
C1356 C87 1.413 . S
C1367 C120 1.407 . S
C1372 N343 1.393 . S
C1383 N970 1.427 . S
C1388 C153 1.447 . S
C1399 C186 1.408 . S
C1404 N475 1.392 . S
C1415 N1036 1.409 . S
C1420 C219 1.434 . S
C1431 N409 1.431 . S
C1436 C252 1.419 1_655 S
C1447 C285 1.440 . S
C1452 N640 1.417 . S
C1463 C318 1.422 1_455 S
C1468 N13 1.399 . S
C1479 N574 1.412 . S
C1484 C351 1.436 . S
C1495 N79 1.443 . S
C1500 C384 1.433 . S
C1511 N706 1.402 . S
C1516 C417 1.403 . S
C1527 N211 1.394 . S
C1532 C450 1.404 . S
C1543 C483 1.432 . S
C1548 N772 1.407 . S
C1559 C516 1.442 1_455 S
C1564 N145 1.448 . S
C1575 C549 1.434 . S
C1580 N376 1.444 . S
C1591 N805 1.442 . S
C1596 C582 1.453 . S
C1607 N310 1.449 . S
C1612 C615 1.447 . S
C1623 C648 1.452 1_455 S
C1628 N871 1.447 . S
C1639 C681 1.405 . S
C1644 N442 1.393 . S
C1655 N1003 1.449 . S
C1660 C714 1.449 1_455 S
C1671 N508 1.393 . S
C1676 C747 1.406 . S
C1687 C780 1.451 . S
C1692 N937 1.448 . S
C1703 N112 1.438 . S
C1708 C813 1.452 . S
C1719 N541 1.406 . S
C1724 C846 1.404 . S
C1735 N46 1.442 . S
C1740 C879 1.453 . S
C1751 N607 1.405 . S
C1756 C912 1.430 1_655 S
C1767 C945 1.410 . S
C1772 N178 1.419 . S
C1783 C978 1.430 1_655 S
C1788 N739 1.441 . S
C1799 C1011 1.427 . S
C1804 N244 1.439 . S
C1815 N673 1.449 . S
C1820 C1044 1.448 . S
C1831 N2 0.859 . S
C1836 N794 0.859 . S
C1847 N35 0.898 . S
C1852 N299 0.898 . S
C1863 N68 0.873 . S
C1868 N860 0.873 . S
C1879 N365 0.859 . S
C1884 N101 0.859 . S
C1895 N926 0.893 . S
C1900 N134 0.893 . S
C1911 N167 0.994 . S
C1916 N431 0.994 . S
C1927 N200 0.975 . S
C1932 N992 0.975 . S
C1943 N233 0.984 . S
C1948 N497 0.984 . S
C1959 N530 0.985 . S
C1964 N266 0.985 . S
C1975 N332 0.919 . S
C1980 N596 0.919 . S
C1991 N662 0.989 . S
C1996 N398 0.989 . S
C2007 N464 0.858 . S
C2012 N728 0.858 . S
C2023 N563 0.953 . S
C2028 N827 0.953 . S
C2039 N893 0.883 . S
C2044 N629 0.883 . S
C2055 N695 0.987 . S
C2060 N959 0.987 . S
C2071 N1025 0.857 . S
C2076 N761 0.857 . S
C2087 C7 1.764 . S
C2092 C205 1.788 . S
C2103 C238 1.802 . S
C2108 C40 1.758 . S
C2119 C139 1.801 . S
C2124 C73 1.795 . S
C2135 C172 1.758 . S
C2140 C106 1.807 . S
C2151 C271 1.758 . S
C2156 C469 1.802 . S
C2167 C304 1.758 . S
C2172 C502 1.806 . S
C2183 C403 1.775 . S
C2188 C337 1.814 . S
C2199 C436 1.811 . S
C2204 C370 1.759 . S
C2215 C535 1.813 . S
C2220 C733 1.761 . S
C2231 C568 1.759 . S
C2236 C766 1.801 . S
C2247 C667 1.768 . S
C2252 C601 1.783 . S
C2263 C700 1.765 . S
C2268 C634 1.814 . S
C2279 C799 1.788 . S
C2284 C997 1.806 . S
C2295 C832 1.784 . S
C2300 C1030 1.809 . S
C2311 C931 1.776 . S
C2316 C865 1.813 . S
C2327 C898 1.793 . S
C2332 C964 1.761 . S
