# Generated by pormake.
# Topology ukj, (4)-cn, num edge types: 1
# Building blocks:
#     Node 0, Type 0, BuildingBlock: QUQFOY_clean_sbu_1, # of connection points: 4
#     Node 1, Type 0, BuildingBlock: QUQFOY_clean_sbu_1, # of connection points: 4
#     Node 2, Type 0, BuildingBlock: QUQFOY_clean_sbu_1, # of connection points: 4
#     Node 3, Type 0, BuildingBlock: QUQFOY_clean_sbu_1, # of connection points: 4
#     Node 4, Type 0, BuildingBlock: QUQFOY_clean_sbu_1, # of connection points: 4
#     Node 5, Type 0, BuildingBlock: QUQFOY_clean_sbu_1, # of connection points: 4
#     Node 6, Type 0, BuildingBlock: QUQFOY_clean_sbu_1, # of connection points: 4
#     Node 7, Type 0, BuildingBlock: QUQFOY_clean_sbu_1, # of connection points: 4
#     Node 8, Type 0, BuildingBlock: QUQFOY_clean_sbu_1, # of connection points: 4
#     Node 9, Type 0, BuildingBlock: QUQFOY_clean_sbu_1, # of connection points: 4
#     Node 10, Type 0, BuildingBlock: QUQFOY_clean_sbu_1, # of connection points: 4
#     Node 11, Type 0, BuildingBlock: QUQFOY_clean_sbu_1, # of connection points: 4
#     Node 12, Type 0, BuildingBlock: QUQFOY_clean_sbu_1, # of connection points: 4
#     Node 13, Type 0, BuildingBlock: QUQFOY_clean_sbu_1, # of connection points: 4
#     Node 14, Type 0, BuildingBlock: QUQFOY_clean_sbu_1, # of connection points: 4
#     Node 15, Type 0, BuildingBlock: QUQFOY_clean_sbu_1, # of connection points: 4
#     Node 16, Type 0, BuildingBlock: QUQFOY_clean_sbu_1, # of connection points: 4
#     Node 17, Type 0, BuildingBlock: QUQFOY_clean_sbu_1, # of connection points: 4
#     Node 18, Type 0, BuildingBlock: QUQFOY_clean_sbu_1, # of connection points: 4
#     Node 19, Type 0, BuildingBlock: QUQFOY_clean_sbu_1, # of connection points: 4
#     Node 20, Type 0, BuildingBlock: QUQFOY_clean_sbu_1, # of connection points: 4
#     Node 21, Type 0, BuildingBlock: QUQFOY_clean_sbu_1, # of connection points: 4
#     Node 22, Type 0, BuildingBlock: QUQFOY_clean_sbu_1, # of connection points: 4
#     Node 23, Type 0, BuildingBlock: QUQFOY_clean_sbu_1, # of connection points: 4
#     Node 24, Type 0, BuildingBlock: QUQFOY_clean_sbu_1, # of connection points: 4
#     Node 25, Type 0, BuildingBlock: QUQFOY_clean_sbu_1, # of connection points: 4
#     Node 26, Type 0, BuildingBlock: QUQFOY_clean_sbu_1, # of connection points: 4
#     Node 27, Type 0, BuildingBlock: QUQFOY_clean_sbu_1, # of connection points: 4
#     Node 28, Type 0, BuildingBlock: QUQFOY_clean_sbu_1, # of connection points: 4
#     Node 29, Type 0, BuildingBlock: QUQFOY_clean_sbu_1, # of connection points: 4
#     Node 30, Type 0, BuildingBlock: QUQFOY_clean_sbu_1, # of connection points: 4
#     Node 31, Type 0, BuildingBlock: QUQFOY_clean_sbu_1, # of connection points: 4
#     Edge 32, Type (0, 0), BuildingBlock: CIFDUS_clean_linker_0, # of connection points: 2
#     Edge 33, Type (0, 0), BuildingBlock: CIFDUS_clean_linker_0, # of connection points: 2
#     Edge 34, Type (0, 0), BuildingBlock: CIFDUS_clean_linker_0, # of connection points: 2
#     Edge 35, Type (0, 0), BuildingBlock: CIFDUS_clean_linker_0, # of connection points: 2
#     Edge 36, Type (0, 0), BuildingBlock: CIFDUS_clean_linker_0, # of connection points: 2
#     Edge 37, Type (0, 0), BuildingBlock: CIFDUS_clean_linker_0, # of connection points: 2
#     Edge 38, Type (0, 0), BuildingBlock: CIFDUS_clean_linker_0, # of connection points: 2
#     Edge 39, Type (0, 0), BuildingBlock: CIFDUS_clean_linker_0, # of connection points: 2
#     Edge 40, Type (0, 0), BuildingBlock: CIFDUS_clean_linker_0, # of connection points: 2
#     Edge 41, Type (0, 0), BuildingBlock: CIFDUS_clean_linker_0, # of connection points: 2
#     Edge 42, Type (0, 0), BuildingBlock: CIFDUS_clean_linker_0, # of connection points: 2
#     Edge 43, Type (0, 0), BuildingBlock: CIFDUS_clean_linker_0, # of connection points: 2
#     Edge 44, Type (0, 0), BuildingBlock: CIFDUS_clean_linker_0, # of connection points: 2
#     Edge 45, Type (0, 0), BuildingBlock: CIFDUS_clean_linker_0, # of connection points: 2
#     Edge 46, Type (0, 0), BuildingBlock: CIFDUS_clean_linker_0, # of connection points: 2
#     Edge 47, Type (0, 0), BuildingBlock: CIFDUS_clean_linker_0, # of connection points: 2
#     Edge 48, Type (0, 0), BuildingBlock: CIFDUS_clean_linker_0, # of connection points: 2
#     Edge 49, Type (0, 0), BuildingBlock: CIFDUS_clean_linker_0, # of connection points: 2
#     Edge 50, Type (0, 0), BuildingBlock: CIFDUS_clean_linker_0, # of connection points: 2
#     Edge 51, Type (0, 0), BuildingBlock: CIFDUS_clean_linker_0, # of connection points: 2
#     Edge 52, Type (0, 0), BuildingBlock: CIFDUS_clean_linker_0, # of connection points: 2
#     Edge 53, Type (0, 0), BuildingBlock: CIFDUS_clean_linker_0, # of connection points: 2
#     Edge 54, Type (0, 0), BuildingBlock: CIFDUS_clean_linker_0, # of connection points: 2
#     Edge 55, Type (0, 0), BuildingBlock: CIFDUS_clean_linker_0, # of connection points: 2
#     Edge 56, Type (0, 0), BuildingBlock: CIFDUS_clean_linker_0, # of connection points: 2
#     Edge 57, Type (0, 0), BuildingBlock: CIFDUS_clean_linker_0, # of connection points: 2
#     Edge 58, Type (0, 0), BuildingBlock: CIFDUS_clean_linker_0, # of connection points: 2
#     Edge 59, Type (0, 0), BuildingBlock: CIFDUS_clean_linker_0, # of connection points: 2
#     Edge 60, Type (0, 0), BuildingBlock: CIFDUS_clean_linker_0, # of connection points: 2
#     Edge 61, Type (0, 0), BuildingBlock: CIFDUS_clean_linker_0, # of connection points: 2
#     Edge 62, Type (0, 0), BuildingBlock: CIFDUS_clean_linker_0, # of connection points: 2
#     Edge 63, Type (0, 0), BuildingBlock: CIFDUS_clean_linker_0, # of connection points: 2
#     Edge 64, Type (0, 0), BuildingBlock: CIFDUS_clean_linker_0, # of connection points: 2
#     Edge 65, Type (0, 0), BuildingBlock: CIFDUS_clean_linker_0, # of connection points: 2
#     Edge 66, Type (0, 0), BuildingBlock: CIFDUS_clean_linker_0, # of connection points: 2
#     Edge 67, Type (0, 0), BuildingBlock: CIFDUS_clean_linker_0, # of connection points: 2
#     Edge 68, Type (0, 0), BuildingBlock: CIFDUS_clean_linker_0, # of connection points: 2
#     Edge 69, Type (0, 0), BuildingBlock: CIFDUS_clean_linker_0, # of connection points: 2
#     Edge 70, Type (0, 0), BuildingBlock: CIFDUS_clean_linker_0, # of connection points: 2
#     Edge 71, Type (0, 0), BuildingBlock: CIFDUS_clean_linker_0, # of connection points: 2
#     Edge 72, Type (0, 0), BuildingBlock: CIFDUS_clean_linker_0, # of connection points: 2
#     Edge 73, Type (0, 0), BuildingBlock: CIFDUS_clean_linker_0, # of connection points: 2
#     Edge 74, Type (0, 0), BuildingBlock: CIFDUS_clean_linker_0, # of connection points: 2
#     Edge 75, Type (0, 0), BuildingBlock: CIFDUS_clean_linker_0, # of connection points: 2
#     Edge 76, Type (0, 0), BuildingBlock: CIFDUS_clean_linker_0, # of connection points: 2
#     Edge 77, Type (0, 0), BuildingBlock: CIFDUS_clean_linker_0, # of connection points: 2
#     Edge 78, Type (0, 0), BuildingBlock: CIFDUS_clean_linker_0, # of connection points: 2
#     Edge 79, Type (0, 0), BuildingBlock: CIFDUS_clean_linker_0, # of connection points: 2
#     Edge 80, Type (0, 0), BuildingBlock: CIFDUS_clean_linker_0, # of connection points: 2
#     Edge 81, Type (0, 0), BuildingBlock: CIFDUS_clean_linker_0, # of connection points: 2
#     Edge 82, Type (0, 0), BuildingBlock: CIFDUS_clean_linker_0, # of connection points: 2
#     Edge 83, Type (0, 0), BuildingBlock: CIFDUS_clean_linker_0, # of connection points: 2
#     Edge 84, Type (0, 0), BuildingBlock: CIFDUS_clean_linker_0, # of connection points: 2
#     Edge 85, Type (0, 0), BuildingBlock: CIFDUS_clean_linker_0, # of connection points: 2
#     Edge 86, Type (0, 0), BuildingBlock: CIFDUS_clean_linker_0, # of connection points: 2
#     Edge 87, Type (0, 0), BuildingBlock: CIFDUS_clean_linker_0, # of connection points: 2
#     Edge 88, Type (0, 0), BuildingBlock: CIFDUS_clean_linker_0, # of connection points: 2
#     Edge 89, Type (0, 0), BuildingBlock: CIFDUS_clean_linker_0, # of connection points: 2
#     Edge 90, Type (0, 0), BuildingBlock: CIFDUS_clean_linker_0, # of connection points: 2
#     Edge 91, Type (0, 0), BuildingBlock: CIFDUS_clean_linker_0, # of connection points: 2
#     Edge 92, Type (0, 0), BuildingBlock: CIFDUS_clean_linker_0, # of connection points: 2
#     Edge 93, Type (0, 0), BuildingBlock: CIFDUS_clean_linker_0, # of connection points: 2
#     Edge 94, Type (0, 0), BuildingBlock: CIFDUS_clean_linker_0, # of connection points: 2
#     Edge 95, Type (0, 0), BuildingBlock: CIFDUS_clean_linker_0, # of connection points: 2
# Relax obj value: 0.042
# Max RMSD: 0.113
# Mean RMSD: 0.110
data_MOF--net-ukj--node1-QUQFOY_clean_sbu_1--edge1-CIFDUS_clean_linker_0
_symmetry_space_group_name_H-M    P1
_symmetry_Int_Tables_number       1
_symmetry_cell_setting            triclinic
loop_
_symmetry_equiv_pos_as_xyz
'x, y, z'
_cell_length_a     22.723451
_cell_length_b     72.824893
_cell_length_c     49.268689
_cell_angle_alpha  90.082009
_cell_angle_beta   89.999862
_cell_angle_gamma 89.476658
loop_
_atom_site_label
_atom_site_type_symbol
_atom_site_fract_x
_atom_site_fract_y
_atom_site_fract_z
_atom_type_partial_charge
O0 O 0.12773 0.37057 0.23946 0.0
Cd1 Cd 0.12684 0.36066 0.27845 0.0
Cd2 Cd 0.08367 0.39336 0.28706 0.0
O3 O 0.06145 0.3924 0.24612 0.0
O4 O 0.1237 0.33338 0.27473 0.0
O5 O 0.05147 0.3501 0.29252 0.0
C6 C 0.07106 0.33425 0.28455 0.0
C7 C 0.02374 0.4029 0.32295 0.0
C8 C 0.09329 0.38282 0.23011 0.0
C9 C 0.20924 0.38564 0.30338 0.0
O10 O 0.17149 0.39755 0.29574 0.0
O11 O 0.19724 0.36864 0.30187 0.0
O12 O 0.04289 0.41442 0.3052 0.0
O13 O 0.03393 0.38564 0.31873 0.0
O14 O 0.0965 0.951 0.23861 0.0
Cd15 Cd 0.0975 0.96175 0.27717 0.0
Cd16 Cd 0.14286 0.92917 0.28729 0.0
O17 O 0.16293 0.92932 0.24608 0.0
O18 O 0.10189 0.98898 0.27271 0.0
O19 O 0.17335 0.97217 0.29091 0.0
C20 C 0.15453 0.98799 0.28253 0.0
C21 C 0.20479 0.91878 0.32208 0.0
C22 C 0.13075 0.9385 0.22975 0.0
C23 C 0.01669 0.93702 0.30372 0.0
O24 O 0.05543 0.92515 0.29699 0.0
O25 O 0.02727 0.95404 0.30095 0.0
O26 O 0.18284 0.90762 0.30451 0.0
O27 O 0.19591 0.93615 0.31838 0.0
O28 O 0.12392 0.94515 0.06055 0.0
Cd29 Cd 0.12772 0.95402 1.02111 0.0
Cd30 Cd 0.0726 0.92317 1.0141 0.0
O31 O 0.04914 0.92645 0.05471 0.0
O32 O 0.12798 0.98156 1.02262 0.0
O33 O 0.05419 0.96545 1.00587 0.0
C34 C 0.07521 0.98121 1.01284 0.0
C35 C 0.01243 0.91541 0.97749 0.0
C36 C 0.0844 0.9349 0.07037 0.0
C37 C 0.20115 0.92483 0.99908 0.0
O38 O 0.15853 0.91504 1.00712 0.0
O39 O 0.19595 0.94227 0.99898 0.0
O40 O 0.02528 0.90358 0.99612 0.0
O41 O 0.02879 0.93217 0.98121 0.0
O42 O 0.09648 0.3721 0.06089 0.0
Cd43 Cd 0.09279 0.36242 1.02178 0.0
Cd44 Cd 0.15283 0.39221 1.01375 0.0
O45 O 0.17437 0.38942 0.0546 0.0
O46 O 0.08277 0.33518 0.02475 0.0
O47 O 0.16369 0.34801 1.00894 0.0
C48 C 0.13634 0.33333 1.01632 0.0
C49 C 0.21701 0.39868 0.97799 0.0
C50 C 0.13743 0.38192 0.07045 0.0
C51 C 0.02445 0.39229 0.99809 0.0
O52 O 0.06845 0.40161 1.00584 0.0
O53 O 0.02718 0.37481 0.99868 0.0
O54 O 0.20407 0.41088 0.99611 0.0
O55 O 0.19776 0.38221 0.98166 0.0
O56 O 0.83697 0.70165 0.8092 0.0
Cd57 Cd 0.83683 0.71208 0.77047 0.0
Cd58 Cd 0.88789 0.68023 0.76165 0.0
O59 O 0.90936 0.68179 0.8026 0.0
O60 O 0.82876 0.73928 0.77511 0.0
O61 O 0.90909 0.72589 0.75883 0.0
C62 C 0.88245 0.7407 0.76686 0.0
C63 C 0.94928 0.67107 0.726 0.0
C64 C 0.8745 0.69031 0.81858 0.0
C65 C 0.76144 0.68505 0.74505 0.0
O66 O 0.80143 0.67405 0.75317 0.0
O67 O 0.7698 0.70229 0.74617 0.0
O68 O 0.93231 0.65959 0.74426 0.0
O69 O 0.93619 0.68823 0.72958 0.0
O70 O 0.89624 0.11889 0.80952 0.0
Cd71 Cd 0.89737 0.10828 0.77087 0.0
Cd72 Cd 0.84669 0.14004 0.76134 0.0
O73 O 0.82438 0.1388 0.80221 0.0
O74 O 0.90491 0.08109 0.77573 0.0
O75 O 0.82521 0.09452 0.75892 0.0
C76 C 0.85141 0.07971 0.76721 0.0
C77 C 0.78364 0.14814 0.72577 0.0
C78 C 0.85849 0.13031 0.81851 0.0
C79 C 0.97371 0.13511 0.74537 0.0
O80 O 0.9334 0.14625 0.75281 0.0
O81 O 0.96521 0.11788 0.74694 0.0
O82 O 0.80092 0.16011 0.74332 0.0
O83 O 0.79814 0.13115 0.72985 0.0
O84 O 0.85581 0.11581 0.98583 0.0
Cd85 Cd 0.84973 0.10456 1.02385 0.0
Cd86 Cd 0.89853 0.13611 0.03602 0.0
O87 O 0.92445 0.13605 0.99552 0.0
O88 O 0.8515 0.07714 1.0188 0.0
O89 O 0.9226 0.09261 0.03891 0.0
C90 C 0.9032 0.07718 0.02973 0.0
C91 C 0.95737 0.14041 0.07429 0.0
C92 C 0.89292 0.12766 0.97819 0.0
C93 C 0.76978 0.13137 0.04864 0.0
O94 O 0.8111 0.14243 0.04316 0.0
O95 O 0.77817 0.11413 0.04602 0.0
O96 O 0.94412 0.15398 0.0585 0.0
O97 O 0.94145 0.12417 0.06689 0.0
O98 O 0.87526 0.70088 0.98709 0.0
Cd99 Cd 0.88333 0.71109 0.02565 0.0
Cd100 Cd 0.82212 0.68116 0.03558 0.0
O101 O 0.79816 0.6834 0.99485 0.0
O102 O 0.88592 0.73873 1.02272 0.0
O103 O 0.81162 0.72359 0.04071 0.0
C104 C 0.83344 0.73901 0.03289 0.0
C105 C 0.76286 0.67772 0.07395 0.0
C106 C 0.83401 0.69083 0.97835 0.0
C107 C 0.95165 0.68093 0.04912 0.0
O108 O 0.90655 0.67176 0.04243 0.0
O109 O 0.95016 0.69843 0.04789 0.0
O110 O 0.7709 0.66425 0.05722 0.0
O111 O 0.78363 0.69353 0.06732 0.0
O112 O 0.1393 0.86683 0.73847 0.0
Cd113 Cd 0.14065 0.85609 0.777 0.0
Cd114 Cd 0.0892 0.88779 0.78694 0.0
O115 O 0.06762 0.8868 0.74596 0.0
O116 O 0.14865 0.82893 0.77192 0.0
O117 O 0.06878 0.8422 0.78889 0.0
C118 C 0.09523 0.82745 0.7805 0.0
C119 C 0.02614 0.89614 0.82243 0.0
C120 C 0.10177 0.87836 0.72959 0.0
C121 C 0.21629 0.88294 0.80299 0.0
O122 O 0.17567 0.89401 0.79576 0.0
O123 O 0.20838 0.8657 0.80103 0.0
O124 O 0.04375 0.908 0.80486 0.0
O125 O 0.04012 0.8791 0.81837 0.0
O126 O 0.10861 0.44674 0.7402 0.0
Cd127 Cd 0.10487 0.45604 0.77945 0.0
Cd128 Cd 0.16176 0.42514 0.78713 0.0
O129 O 0.18404 0.42793 0.74632 0.0
O130 O 0.10432 0.48354 0.77742 0.0
O131 O 0.17846 0.46724 0.7943 0.0
C132 C 0.15726 0.48302 0.78703 0.0
C133 C 0.22385 0.41687 0.82303 0.0
C134 C 0.14843 0.4363 0.73053 0.0
C135 C 0.03292 0.42736 0.80254 0.0
O136 O 0.07614 0.41741 0.79489 0.0
O137 O 0.03705 0.44479 0.8019 0.0
O138 O 0.20951 0.40517 0.80452 0.0
O139 O 0.20769 0.43377 0.8196 0.0
O140 O 0.1435 0.45051 0.56161 0.0
Cd141 Cd 0.14375 0.461 0.52288 0.0
Cd142 Cd 0.09313 0.4296 0.51366 0.0
O143 O 0.0718 0.43088 0.55464 0.0
O144 O 0.15199 0.48811 0.52746 0.0
O145 O 0.07186 0.47518 0.51092 0.0
C146 C 0.09857 0.48985 0.51887 0.0
C147 C 0.03012 0.42218 0.47798 0.0
C148 C 0.1062 0.43923 0.57078 0.0
C149 C 0.21921 0.43381 0.4968 0.0
O150 O 0.17948 0.42286 0.5047 0.0
O151 O 0.21053 0.45106 0.49841 0.0
O152 O 0.04681 0.41 0.49543 0.0
O153 O 0.04488 0.43904 0.48234 0.0
O154 O 0.09854 0.87231 0.55983 0.0
Cd155 Cd 0.09491 0.86296 0.52057 0.0
Cd156 Cd 0.1556 0.89243 0.51325 0.0
O157 O 0.17805 0.88893 0.5539 0.0
O158 O 0.08279 0.83588 0.52317 0.0
O159 O 0.16482 0.84828 0.50771 0.0
C160 C 0.13629 0.83376 0.51479 0.0
C161 C 0.21753 0.8985 0.47669 0.0
C162 C 0.14053 0.88159 0.56962 0.0
C163 C 0.0282 0.893 0.49713 0.0
O164 O 0.07161 0.90221 0.5058 0.0
O165 O 0.03093 0.87554 0.4971 0.0
O166 O 0.20734 0.91072 0.49516 0.0
O167 O 0.19746 0.88216 0.48061 0.0
O168 O 0.84899 0.20116 0.31019 0.0
Cd169 Cd 0.8466 0.21242 0.27205 0.0
Cd170 Cd 0.89561 0.18062 0.26063 0.0
O171 O 0.91803 0.18045 0.3016 0.0
O172 O 0.84786 0.23977 0.27689 0.0
O173 O 0.92054 0.22377 0.25814 0.0
C174 C 0.90025 0.23937 0.2667 0.0
C175 C 0.95677 0.17577 0.22323 0.0
C176 C 0.88526 0.18903 0.31843 0.0
C177 C 0.76871 0.18655 0.24536 0.0
O178 O 0.80878 0.17507 0.25184 0.0
O179 O 0.77753 0.20369 0.24823 0.0
O180 O 0.94215 0.16233 0.23887 0.0
O181 O 0.94116 0.19216 0.23045 0.0
O182 O 0.88303 0.61755 0.31014 0.0
Cd183 Cd 0.88674 0.60629 0.27201 0.0
Cd184 Cd 0.83725 0.63808 0.26015 0.0
O185 O 0.81406 0.63819 0.3011 0.0
O186 O 0.88449 0.57894 0.27669 0.0
O187 O 0.81294 0.59518 0.25755 0.0
C188 C 0.83239 0.57953 0.2662 0.0
C189 C 0.77541 0.64286 0.22285 0.0
C190 C 0.84629 0.62962 0.31814 0.0
C191 C 0.96512 0.63215 0.24569 0.0
O192 O 0.92437 0.64358 0.25154 0.0
O193 O 0.95672 0.61502 0.24881 0.0
O194 O 0.79042 0.65632 0.23839 0.0
O195 O 0.79149 0.6265 0.22995 0.0
O196 O 0.84399 0.61815 0.48639 0.0
Cd197 Cd 0.84196 0.60712 0.52475 0.0
Cd198 Cd 0.89068 0.63901 0.53538 0.0
O199 O 0.91434 0.63806 0.49461 0.0
O200 O 0.83434 0.58008 0.51909 0.0
O201 O 0.91332 0.5928 0.53711 0.0
C202 C 0.8872 0.57825 0.52832 0.0
C203 C 0.95025 0.64831 0.57146 0.0
C204 C 0.88122 0.6297 0.47791 0.0
C205 C 0.7636 0.63353 0.55049 0.0
O206 O 0.80321 0.64476 0.54339 0.0
O207 O 0.77315 0.61635 0.54855 0.0
O208 O 0.9322 0.65979 0.5533 0.0
O209 O 0.93914 0.63111 0.56765 0.0
O210 O 0.88271 0.19566 0.48755 0.0
Cd211 Cd 0.88563 0.2051 0.52675 0.0
Cd212 Cd 0.83021 0.17432 0.53461 0.0
O213 O 0.80811 0.17695 0.49375 0.0
O214 O 0.88556 0.23258 0.52478 0.0
O215 O 0.81176 0.21647 0.54152 0.0
C216 C 0.83272 0.23221 0.53446 0.0
C217 C 0.76889 0.16664 0.57081 0.0
C218 C 0.84348 0.1852 0.47793 0.0
C219 C 0.95819 0.1765 0.55057 0.0
O220 O 0.91593 0.16649 0.54267 0.0
O221 O 0.95308 0.19391 0.54971 0.0
O222 O 0.78294 0.15471 0.55245 0.0
O223 O 0.7846 0.18345 0.56695 0.0
O224 O 0.6309 0.37239 0.73893 0.0
Cd225 Cd 0.63369 0.36307 0.77813 0.0
Cd226 Cd 0.57547 0.39381 0.78576 0.0
O227 O 0.55471 0.39097 0.74471 0.0
O228 O 0.63494 0.33554 0.776 0.0
O229 O 0.55997 0.3517 0.79246 0.0
C230 C 0.58173 0.33595 0.78529 0.0
C231 C 0.51157 0.40161 0.82133 0.0
C232 C 0.59108 0.38274 0.72909 0.0
C233 C 0.70394 0.39199 0.80188 0.0
O234 O 0.6606 0.40183 0.79412 0.0
O235 O 0.70034 0.37454 0.80108 0.0
O236 O 0.52598 0.41346 0.80309 0.0
O237 O 0.52896 0.38483 0.81783 0.0
O238 O 0.59127 0.95398 0.73901 0.0
Cd239 Cd 0.59037 0.96488 0.77749 0.0
Cd240 Cd 0.64075 0.93287 0.7876 0.0
O241 O 0.6619 0.93364 0.74648 0.0
O242 O 0.5832 0.99205 0.77219 0.0
O243 O 0.66262 0.97867 0.78934 0.0
C244 C 0.63661 0.99344 0.78081 0.0
C245 C 0.70311 0.9237 0.82302 0.0
C246 C 0.62803 0.9422 0.73012 0.0
C247 C 0.51356 0.93844 0.80347 0.0
O248 O 0.55392 0.9272 0.79643 0.0
O249 O 0.52199 0.95564 0.80141 0.0
O250 O 0.68444 0.91214 0.8052 0.0
O251 O 0.69072 0.94088 0.81927 0.0
O252 O 0.62972 0.95072 0.56125 0.0
Cd253 Cd 0.63479 0.96122 0.52271 0.0
Cd254 Cd 0.57445 0.93176 0.51308 0.0
O255 O 0.55115 0.93386 0.55393 0.0
O256 O 0.64859 0.98819 0.52723 0.0
O257 O 0.56612 0.9768 0.51063 0.0
C258 C 0.59546 0.99091 0.51872 0.0
C259 C 0.51524 0.92914 0.47468 0.0
C260 C 0.58812 0.94093 0.57025 0.0
C261 C 0.70195 0.93159 0.49769 0.0
O262 O 0.65839 0.92213 0.50549 0.0
O263 O 0.69916 0.94905 0.49882 0.0
O264 O 0.52227 0.91547 0.49111 0.0
O265 O 0.53664 0.94483 0.48179 0.0
O266 O 0.60344 0.36557 0.5613 0.0
Cd267 Cd 0.60331 0.35456 0.5229 0.0
Cd268 Cd 0.64785 0.38674 0.51216 0.0
O269 O 0.66972 0.3868 0.5532 0.0
O270 O 0.60764 0.32732 0.52771 0.0
O271 O 0.67868 0.34353 0.50882 0.0
C272 C 0.65996 0.32788 0.51751 0.0
C273 C 0.70753 0.39593 0.47608 0.0
C274 C 0.63787 0.37792 0.56982 0.0
C275 C 0.5213 0.37963 0.49691 0.0
O276 O 0.5601 0.39132 0.50339 0.0
O277 O 0.5322 0.36256 0.49955 0.0
O278 O 0.68785 0.40759 0.49369 0.0
O279 O 0.69801 0.37872 0.4805 0.0
O280 O 0.34168 0.7023 0.30973 0.0
Cd281 Cd 0.33883 0.71361 0.27159 0.0
Cd282 Cd 0.39094 0.68254 0.26033 0.0
O283 O 0.41435 0.68286 0.30125 0.0
O284 O 0.3298 0.74069 0.27744 0.0
O285 O 0.4097 0.72791 0.25973 0.0
C286 C 0.38289 0.74246 0.26856 0.0
C287 C 0.45183 0.67908 0.22248 0.0
C288 C 0.38008 0.69087 0.31807 0.0
C289 C 0.26379 0.68681 0.24518 0.0
O290 O 0.30471 0.67573 0.25207 0.0
O291 O 0.27144 0.70404 0.24743 0.0
O292 O 0.44013 0.6653 0.23801 0.0
O293 O 0.43334 0.69514 0.23002 0.0
O294 O 0.38779 0.1183 0.30816 0.0
Cd295 Cd 0.38728 0.10812 0.26929 0.0
Cd296 Cd 0.34117 0.1406 0.26045 0.0
O297 O 0.31952 0.13953 0.30151 0.0
O298 O 0.38368 0.08082 0.27296 0.0
O299 O 0.3117 0.09768 0.2553 0.0
C300 C 0.33092 0.08181 0.26327 0.0
C301 C 0.28169 0.15102 0.22483 0.0
C302 C 0.35245 0.13033 0.31751 0.0
C303 C 0.46759 0.1336 0.24431 0.0
O304 O 0.4287 0.14517 0.25188 0.0
O305 O 0.45722 0.11649 0.2458 0.0
O306 O 0.3009 0.1621 0.2432 0.0
O307 O 0.29132 0.13365 0.22827 0.0
O308 O 0.35907 0.12129 0.4869 0.0
Cd309 Cd 0.35679 0.11161 0.526 0.0
Cd310 Cd 0.4151 0.1416 0.53353 0.0
O311 O 0.43716 0.13858 0.49272 0.0
O312 O 0.34391 0.08459 0.52263 0.0
O313 O 0.42659 0.09649 0.53819 0.0
C314 C 0.39739 0.08216 0.53083 0.0
C315 C 0.47633 0.14839 0.57013 0.0
C316 C 0.39983 0.13105 0.47706 0.0
C317 C 0.28804 0.14112 0.54992 0.0
O318 O 0.33046 0.1507 0.54114 0.0
O319 O 0.29233 0.12368 0.54987 0.0
O320 O 0.46501 0.16043 0.55159 0.0
O321 O 0.45805 0.13183 0.56623 0.0
O322 O 0.38263 0.7033 0.48599 0.0
Cd323 Cd 0.3854 0.71499 0.52395 0.0
Cd324 Cd 0.33571 0.68391 0.53564 0.0
O325 O 0.31106 0.68398 0.49489 0.0
O326 O 0.39477 0.7419 0.51742 0.0
O327 O 0.31477 0.72996 0.53558 0.0
C328 C 0.34186 0.7442 0.52639 0.0
C329 C 0.27723 0.67999 0.57404 0.0
C330 C 0.34472 0.69184 0.47789 0.0
C331 C 0.46256 0.68842 0.55029 0.0
O332 O 0.42255 0.67726 0.54335 0.0
O333 O 0.45353 0.70562 0.54811 0.0
O334 O 0.2893 0.66637 0.55809 0.0
O335 O 0.29345 0.6962 0.56654 0.0
O336 O 0.63842 0.86949 0.23957 0.0
Cd337 Cd 0.63845 0.85843 0.27792 0.0
Cd338 Cd 0.58834 0.89003 0.28805 0.0
O339 O 0.56735 0.88973 0.24687 0.0
O340 O 0.64696 0.83131 0.27237 0.0
O341 O 0.56662 0.84435 0.28923 0.0
C342 C 0.59349 0.82969 0.2808 0.0
C343 C 0.52597 0.89448 0.32514 0.0
C344 C 0.60177 0.88126 0.2306 0.0
C345 C 0.71426 0.88486 0.30471 0.0
O346 O 0.67461 0.89618 0.2972 0.0
O347 O 0.70536 0.86768 0.30263 0.0
O348 O 0.53996 0.90798 0.30949 0.0
O349 O 0.54289 0.87816 0.31807 0.0
O350 O 0.59663 0.44959 0.23846 0.0
Cd351 Cd 0.59904 0.45949 0.27748 0.0
Cd352 Cd 0.64218 0.42677 0.28584 0.0
O353 O 0.6627 0.42764 0.24464 0.0
O354 O 0.60357 0.48676 0.27406 0.0
O355 O 0.67532 0.4696 0.29126 0.0
C356 C 0.6564 0.48557 0.28361 0.0
C357 C 0.70336 0.41718 0.32131 0.0
C358 C 0.63046 0.43724 0.22885 0.0
C359 C 0.51709 0.43465 0.30293 0.0
O360 O 0.55461 0.42269 0.29515 0.0
O361 O 0.52913 0.45164 0.30129 0.0
O362 O 0.68353 0.40568 0.30365 0.0
O363 O 0.69301 0.43445 0.31725 0.0
O364 O 0.61898 0.44913 0.06025 0.0
Cd365 Cd 0.6225 0.45888 1.02124 0.0
Cd366 Cd 0.56672 0.42814 1.01258 0.0
O367 O 0.54497 0.43024 0.0536 0.0
O368 O 0.62149 0.48642 1.02387 0.0
O369 O 0.54838 0.47035 1.00645 0.0
C370 C 0.56873 0.48606 1.01407 0.0
C371 C 0.5048 0.42037 0.97643 0.0
C372 C 0.58018 0.43842 0.0696 0.0
C373 C 0.69574 0.43018 0.99746 0.0
O374 O 0.65251 0.4203 1.00452 0.0
O375 O 0.69132 0.44763 0.99876 0.0
O376 O 0.51961 0.40846 0.99462 0.0
O377 O 0.52034 0.4372 0.98034 0.0
O378 O 0.6116 0.87201 0.06164 0.0
Cd379 Cd 0.60911 0.86239 1.02249 0.0
Cd380 Cd 0.66155 0.8936 1.01445 0.0
O381 O 0.6844 0.89136 0.05533 0.0
O382 O 0.61048 0.8349 0.02509 0.0
O383 O 0.68353 0.85102 1.00776 0.0
C384 C 0.66327 0.8353 1.01534 0.0
C385 C 0.72058 0.90212 0.97778 0.0
C386 C 0.64972 0.88288 0.07121 0.0
C387 C 0.53333 0.89051 0.99928 0.0
O388 O 0.5751 0.90078 1.00698 0.0
O389 O 0.53978 0.87312 0.99994 0.0
O390 O 0.70618 0.91376 0.99648 0.0
O391 O 0.70685 0.88512 0.98155 0.0
O392 O 0.35795 0.20372 0.80853 0.0
Cd393 Cd 0.35671 0.21418 0.7699 0.0
Cd394 Cd 0.40253 0.18144 0.76001 0.0
O395 O 0.42509 0.18225 0.80097 0.0
O396 O 0.35934 0.24148 0.77454 0.0
O397 O 0.43142 0.22527 0.75572 0.0
C398 C 0.41184 0.24092 0.76451 0.0
C399 C 0.4627 0.17069 0.72468 0.0
C400 C 0.3932 0.19151 0.81737 0.0
C401 C 0.27501 0.18876 0.74508 0.0
O402 O 0.31456 0.17711 0.75161 0.0
O403 O 0.28527 0.20586 0.74715 0.0
O404 O 0.44196 0.15973 0.74278 0.0
O405 O 0.4536 0.18809 0.72804 0.0
O406 O 0.38232 0.61602 0.80959 0.0
Cd407 Cd 0.38378 0.60463 0.77146 0.0
Cd408 Cd 0.33644 0.63678 0.76023 0.0
O409 O 0.31461 0.6372 0.80134 0.0
O410 O 0.38126 0.57731 0.77678 0.0
O411 O 0.30912 0.59333 0.75776 0.0
C412 C 0.32874 0.57777 0.76674 0.0
C413 C 0.27663 0.64281 0.72266 0.0
C414 C 0.34722 0.62843 0.81802 0.0
C415 C 0.46351 0.63015 0.74529 0.0
O416 O 0.42359 0.64172 0.75164 0.0
O417 O 0.45415 0.61303 0.74799 0.0
O418 O 0.29253 0.65585 0.73881 0.0
O419 O 0.28977 0.62614 0.72952 0.0
O420 O 0.35246 0.62017 0.98629 0.0
Cd421 Cd 0.34601 0.60995 0.02491 0.0
Cd422 Cd 0.4057 0.64024 0.03459 0.0
O423 O 0.42858 0.63816 0.99363 0.0
O424 O 0.34466 0.58231 1.02187 0.0
O425 O 0.41863 0.59775 0.03966 0.0
C426 C 0.39731 0.58223 0.03185 0.0
C427 C 0.46498 0.64443 0.07286 0.0
C428 C 0.39272 0.63051 0.97733 0.0
C429 C 0.27645 0.63972 0.04875 0.0
O430 O 0.32093 0.6491 0.04187 0.0
O431 O 0.27874 0.62223 0.04743 0.0
O432 O 0.45558 0.65772 0.05601 0.0
O433 O 0.44589 0.62837 0.06632 0.0
O434 O 0.38989 0.20479 0.98553 0.0
Cd435 Cd 0.3928 0.21566 0.024 0.0
Cd436 Cd 0.34292 0.18388 0.03417 0.0
O437 O 0.31868 0.18514 0.99349 0.0
O438 O 0.40056 0.2428 1.01864 0.0
O439 O 0.32137 0.23015 0.03641 0.0
C440 C 0.34751 0.24469 0.02765 0.0
C441 C 0.28356 0.17487 0.07048 0.0
C442 C 0.35219 0.19342 0.97691 0.0
C443 C 0.47087 0.18841 0.0485 0.0
O444 O 0.43022 0.17752 0.04147 0.0
O445 O 0.46224 0.2057 0.04715 0.0
O446 O 0.30035 0.16333 0.05209 0.0
O447 O 0.29589 0.19199 0.06683 0.0
H448 H 0.18605 0.38265 0.19612 0.0
H449 H -0.00251 0.38955 0.1981 0.0
H450 H -0.00502 0.39061 0.14833 0.0
H451 H 0.04614 0.38723 0.10448 0.0
H452 H 0.23533 0.38248 0.10252 0.0
H453 H 0.23831 0.38308 0.1523 0.0
C454 C 0.14452 0.38456 0.18559 0.0
C455 C 0.09187 0.38579 0.20054 0.0
C456 C 0.1437 0.38547 0.15715 0.0
C457 C 0.03841 0.38857 0.18689 0.0
C458 C 0.03703 0.38908 0.15851 0.0
C459 C 0.08802 0.38651 0.11502 0.0
C460 C 0.14046 0.38457 0.10006 0.0
C461 C 0.08929 0.38719 0.14347 0.0
C462 C 0.19455 0.38396 0.11373 0.0
C463 C 0.19615 0.38422 0.14212 0.0
H464 H 0.17585 0.93028 0.10434 0.0
H465 H 0.98671 0.9351 0.10265 0.0
H466 H 0.98439 0.936 0.15245 0.0
H467 H 0.03735 0.93781 0.19608 0.0
H468 H 0.22592 0.93083 0.19781 0.0
H469 H 0.22762 0.92821 0.14817 0.0
C470 C 0.13412 0.93131 0.11497 0.0
C471 C 0.08151 0.93283 0.10007 0.0
C472 C 0.13325 0.93152 0.14343 0.0
C473 C 0.0276 0.93389 0.11384 0.0
C474 C 0.02639 0.93451 0.14223 0.0
C475 C 0.07871 0.93555 0.18552 0.0
C476 C 0.1316 0.93476 0.20035 0.0
C477 C 0.07906 0.93371 0.15717 0.0
C478 C 0.18482 0.9315 0.1867 0.0
C479 C 0.18574 0.93009 0.15839 0.0
H480 H 0.78218 0.69005 0.85301 0.0
H481 H 0.97095 0.68369 0.85021 0.0
H482 H 0.97434 0.68222 0.89989 0.0
H483 H 0.9241 0.68525 0.94392 0.0
H484 H 0.73494 0.68983 0.94689 0.0
H485 H 0.73081 0.68928 0.8971 0.0
C486 C 0.82398 0.68819 0.86333 0.0
C487 C 0.87641 0.68725 0.84815 0.0
C488 C 0.82535 0.68708 0.89176 0.0
C489 C 0.93017 0.68449 0.86156 0.0
C490 C 0.93208 0.68372 0.88991 0.0
C491 C 0.88194 0.68592 0.9336 0.0
C492 C 0.82987 0.68781 0.94884 0.0
C493 C 0.88006 0.68538 0.90517 0.0
C494 C 0.77544 0.68836 0.93546 0.0
C495 C 0.7732 0.68816 0.90707 0.0
H496 H 0.80315 0.13236 0.94336 0.0
H497 H -0.00744 0.13153 0.94785 0.0
H498 H -0.00144 0.13332 0.89817 0.0
H499 H 0.94921 0.13223 0.8536 0.0
H500 H 0.75983 0.13497 0.84932 0.0
H501 H 0.75414 0.13553 0.89902 0.0
C502 C 0.8457 0.13282 0.9334 0.0
C503 C 0.89742 0.13159 0.94898 0.0
C504 C 0.84859 0.13409 0.90504 0.0
C505 C 0.95233 0.13247 0.93612 0.0
C506 C 0.95566 0.13339 0.90779 0.0
C507 C 0.90677 0.13317 0.86363 0.0
C508 C 0.8549 0.1333 0.84803 0.0
C509 C 0.90404 0.13376 0.89206 0.0
C510 C 0.80019 0.13484 0.86103 0.0
C511 C 0.79699 0.13506 0.88937 0.0
H512 H 0.19344 0.87942 0.69491 0.0
H513 H 0.00454 0.88505 0.69849 0.0
H514 H 0.00034 0.88738 0.64888 0.0
H515 H 0.05018 0.88558 0.60457 0.0
H516 H 0.23951 0.88192 0.60106 0.0
H517 H 0.24413 0.88124 0.65079 0.0
C518 C 0.15143 0.8813 0.68478 0.0
C519 C 0.09922 0.88181 0.70014 0.0
C520 C 0.1496 0.88293 0.65642 0.0
C521 C 0.04516 0.88459 0.68699 0.0
C522 C 0.0428 0.88585 0.65868 0.0
C523 C 0.09246 0.8848 0.61477 0.0
C524 C 0.14446 0.88356 0.59934 0.0
C525 C 0.09465 0.88469 0.64321 0.0
C526 C 0.19903 0.88288 0.61261 0.0
C527 C 0.20158 0.8824 0.64097 0.0
H528 H 0.19865 0.4372 0.60498 0.0
H529 H 0.00939 0.43388 0.60242 0.0
H530 H 0.00621 0.43183 0.65207 0.0
H531 H 0.05718 0.43324 0.6961 0.0
H532 H 0.24672 0.43447 0.69869 0.0
H533 H 0.25027 0.43488 0.6489 0.0
C534 C 0.15679 0.43588 0.61536 0.0
C535 C 0.1042 0.43595 0.60027 0.0
C536 C 0.15553 0.43437 0.64374 0.0
C537 C 0.05028 0.43389 0.61372 0.0
C538 C 0.04852 0.43279 0.64204 0.0
C539 C 0.09925 0.43341 0.68569 0.0
C540 C 0.15166 0.43405 0.70085 0.0
C541 C 0.1008 0.43336 0.65724 0.0
C542 C 0.20595 0.43396 0.68732 0.0
C543 C 0.20789 0.4343 0.65894 0.0
H544 H 0.79314 0.18657 0.35251 0.0
H545 H 0.98245 0.18267 0.34973 0.0
H546 H 0.98582 0.18017 0.39937 0.0
H547 H 0.93487 0.18171 0.4435 0.0
H548 H 0.74529 0.18362 0.44613 0.0
H549 H 0.74166 0.1841 0.39636 0.0
C550 C 0.83505 0.18497 0.36283 0.0
C551 C 0.88759 0.18504 0.34772 0.0
C552 C 0.83641 0.18326 0.39118 0.0
C553 C 0.9416 0.18266 0.36107 0.0
C554 C 0.94346 0.18133 0.38938 0.0
C555 C 0.89279 0.18201 0.43309 0.0
C556 C 0.84036 0.18286 0.44826 0.0
C557 C 0.8912 0.18201 0.40463 0.0
C558 C 0.78606 0.18296 0.43476 0.0
C559 C 0.78408 0.18333 0.40638 0.0
H560 H 0.93648 0.63305 0.35308 0.0
H561 H 0.74705 0.63417 0.34872 0.0
H562 H 0.74127 0.6353 0.39844 0.0
H563 H 0.79062 0.63301 0.44293 0.0
H564 H 0.98005 0.63386 0.44722 0.0
H565 H 0.98571 0.6351 0.39754 0.0
C566 C 0.89399 0.63381 0.36309 0.0
C567 C 0.84218 0.63332 0.34748 0.0
C568 C 0.89121 0.63469 0.3915 0.0
C569 C 0.78736 0.63456 0.36044 0.0
C570 C 0.78414 0.63509 0.3888 0.0
C571 C 0.83307 0.6337 0.43291 0.0
C572 C 0.88495 0.63309 0.44849 0.0
C573 C 0.83578 0.6347 0.4045 0.0
C574 C 0.93969 0.63429 0.43552 0.0
C575 C 0.94286 0.63491 0.40718 0.0
H576 H 0.54449 0.3799 0.60338 0.0
H577 H 0.73331 0.38498 0.60169 0.0
H578 H 0.73493 0.38793 0.65131 0.0
H579 H 0.68291 0.38655 0.69514 0.0
H580 H 0.49358 0.38352 0.69669 0.0
H581 H 0.49145 0.3825 0.64691 0.0
C582 C 0.58589 0.38183 0.61393 0.0
C583 C 0.63887 0.38197 0.59914 0.0
C584 C 0.58621 0.38384 0.64226 0.0
C585 C 0.69215 0.38481 0.61278 0.0
C586 C 0.69302 0.38641 0.64108 0.0
C587 C 0.64118 0.38589 0.68449 0.0
C588 C 0.58845 0.38489 0.69938 0.0
C589 C 0.64042 0.38558 0.65602 0.0
C590 C 0.53457 0.38432 0.68555 0.0
C591 C 0.53346 0.38363 0.65717 0.0
H592 H 0.53595 0.94141 0.6956 0.0
H593 H 0.72469 0.93515 0.69875 0.0
H594 H 0.72838 0.93312 0.64908 0.0
H595 H 0.67832 0.9357 0.6049 0.0
H596 H 0.48913 0.94012 0.60173 0.0
H597 H 0.48482 0.94008 0.6515 0.0
C598 C 0.57781 0.93943 0.68536 0.0
C599 C 0.63014 0.9387 0.70064 0.0
C600 C 0.57933 0.938 0.65696 0.0
C601 C 0.68399 0.93579 0.68733 0.0
C602 C 0.68605 0.93471 0.65899 0.0
C603 C 0.63612 0.93644 0.61517 0.0
C604 C 0.58409 0.93814 0.59984 0.0
C605 C 0.63411 0.93618 0.64362 0.0
C606 C 0.52962 0.93879 0.6132 0.0
C607 C 0.52726 0.93888 0.64159 0.0
H608 H 0.28962 0.68767 0.35306 0.0
H609 H 0.4791 0.68643 0.34885 0.0
H610 H 0.48466 0.68546 0.39855 0.0
H611 H 0.43523 0.68797 0.44298 0.0
H612 H 0.24578 0.68739 0.44721 0.0
H613 H 0.24024 0.68585 0.39753 0.0
C614 C 0.33209 0.68694 0.36308 0.0
C615 C 0.38397 0.68736 0.34749 0.0
C616 C 0.33476 0.68615 0.39152 0.0
C617 C 0.43872 0.68612 0.36052 0.0
C618 C 0.44183 0.68567 0.38888 0.0
C619 C 0.39278 0.68725 0.43296 0.0
C620 C 0.34088 0.68803 0.44854 0.0
C621 C 0.39013 0.68614 0.40455 0.0
C622 C 0.28616 0.68681 0.43554 0.0
C623 C 0.28307 0.68604 0.40719 0.0
H624 H 0.30768 0.13574 0.44332 0.0
H625 H 0.49707 0.13176 0.44452 0.0
H626 H 0.49898 0.1319 0.39472 0.0
H627 H 0.44586 0.13085 0.35114 0.0
H628 H 0.25699 0.13691 0.34989 0.0
H629 H 0.25548 0.13844 0.39964 0.0
C630 C 0.34937 0.13509 0.43261 0.0
C631 C 0.40219 0.13351 0.44739 0.0
C632 C 0.35002 0.13548 0.40414 0.0
C633 C 0.456 0.13298 0.43347 0.0
C634 C 0.457 0.13297 0.40507 0.0
C635 C 0.40446 0.13267 0.36182 0.0
C636 C 0.35146 0.13352 0.34707 0.0
C637 C 0.4042 0.13385 0.39025 0.0
C638 C 0.29818 0.13621 0.36092 0.0
C639 C 0.29737 0.137 0.3893 0.0
H640 H 0.69525 0.88356 0.19715 0.0
H641 H 0.50574 0.88681 0.19822 0.0
H642 H 0.50428 0.88849 0.14849 0.0
H643 H 0.55699 0.88647 0.10484 0.0
H644 H 0.74666 0.88525 0.10378 0.0
H645 H 0.74836 0.88552 0.1536 0.0
C646 C 0.6537 0.88484 0.18644 0.0
C647 C 0.60056 0.88483 0.20114 0.0
C648 C 0.65341 0.88609 0.15801 0.0
C649 C 0.54704 0.88679 0.18724 0.0
C650 C 0.54627 0.88766 0.15887 0.0
C651 C 0.59867 0.88647 0.11559 0.0
C652 C 0.6517 0.88561 0.10086 0.0
C653 C 0.59913 0.88692 0.14407 0.0
C654 C 0.70545 0.88591 0.11481 0.0
C655 C 0.70633 0.88597 0.14322 0.0
H656 H 0.67272 0.43312 0.1028 0.0
H657 H 0.48338 0.43723 0.10239 0.0
H658 H 0.48231 0.43645 0.1522 0.0
H659 H 0.53629 0.43705 0.19564 0.0
H660 H 0.7251 0.43077 0.19599 0.0
H661 H 0.72566 0.42976 0.14621 0.0
C662 C 0.63123 0.43363 0.11369 0.0
C663 C 0.57818 0.43545 0.09917 0.0
C664 C 0.63107 0.43287 0.14215 0.0
C665 C 0.52461 0.43582 0.11327 0.0
C666 C 0.5241 0.43548 0.14168 0.0
C667 C 0.57744 0.43527 0.18475 0.0
C668 C 0.63072 0.43421 0.19926 0.0
C669 C 0.57716 0.43438 0.15629 0.0
C670 C 0.6837 0.43161 0.18514 0.0
C671 C 0.68397 0.43112 0.15674 0.0
H672 H 0.30126 0.1898 0.85165 0.0
H673 H 0.49062 0.18633 0.84893 0.0
H674 H 0.49432 0.18569 0.8987 0.0
H675 H 0.44354 0.18889 0.94272 0.0
H676 H 0.25396 0.19028 0.94547 0.0
H677 H 0.25006 0.18877 0.89574 0.0
C678 C 0.34325 0.18867 0.86203 0.0
C679 C 0.39571 0.18834 0.84687 0.0
C680 C 0.3448 0.18803 0.89048 0.0
C681 C 0.44983 0.18659 0.86031 0.0
C682 C 0.45188 0.18633 0.88869 0.0
C683 C 0.40141 0.18864 0.93235 0.0
C684 C 0.34904 0.18994 0.94749 0.0
C685 C 0.39969 0.18747 0.90394 0.0
C686 C 0.29468 0.18931 0.9341 0.0
C687 C 0.29254 0.18854 0.90574 0.0
H688 H 0.44049 0.62972 0.8517 0.0
H689 H 0.25173 0.63614 0.8499 0.0
H690 H 0.24991 0.63857 0.89957 0.0
H691 H 0.30154 0.636 0.94341 0.0
H692 H 0.49073 0.63133 0.94519 0.0
H693 H 0.49329 0.6313 0.89537 0.0
C694 C 0.39905 0.63186 0.86223 0.0
C695 C 0.34615 0.6325 0.84736 0.0
C696 C 0.3986 0.63349 0.89062 0.0
C697 C 0.29284 0.63559 0.86101 0.0
C698 C 0.29185 0.63688 0.88936 0.0
C699 C 0.34336 0.63523 0.93282 0.0
C700 C 0.39591 0.63344 0.94776 0.0
C701 C 0.34433 0.63543 0.90435 0.0
C702 C 0.44989 0.63272 0.93401 0.0
C703 C 0.45122 0.63259 0.9056 0.0
H704 H 0.87675 0.27269 0.28987 0.0
H705 H 0.00859 0.24322 0.24363 0.0
H706 H 0.07362 0.26966 0.24601 0.0
H707 H 0.09366 0.30101 0.2615 0.0
H708 H 0.96205 0.3307 0.3075 0.0
H709 H 0.89672 0.30424 0.30519 0.0
C710 C 0.91952 0.27209 0.28012 0.0
C711 C 0.9376 0.25598 0.26651 0.0
C712 C 0.95706 0.28732 0.28178 0.0
C713 C -0.0066 0.25543 0.25418 0.0
C714 C 0.03077 0.27054 0.25561 0.0
C715 C 0.05087 0.30167 0.27122 0.0
C716 C 0.03299 0.31781 0.2848 0.0
C717 C 0.01324 0.2865 0.26951 0.0
C718 C 0.97709 0.31844 0.29702 0.0
C719 C 0.93958 0.30333 0.29561 0.0
H720 H 0.13292 1.02138 0.25956 0.0
H721 H 0.26454 0.99103 0.30452 0.0
H722 H 0.33139 1.01705 0.30156 0.0
H723 H 0.35279 0.04836 0.28601 0.0
H724 H 0.2211 0.07872 0.2411 0.0
H725 H 0.15436 0.05267 0.24397 0.0
C726 C 0.17606 1.02048 0.26891 0.0
C727 C 0.19348 1.00426 0.28237 0.0
C728 C 0.21457 0.03544 0.26687 0.0
C729 C 0.24981 1.00334 0.29413 0.0
C730 C 0.2882 1.0182 0.29235 0.0
C731 C 0.30968 0.04925 0.27664 0.0
C732 C 0.29219 0.06548 0.26323 0.0
C733 C 0.2712 1.03428 0.27864 0.0
C734 C 0.23589 0.0664 0.25145 0.0
C735 C 0.19755 0.05152 0.25318 0.0
H736 H 0.0973 1.01443 0.0361 0.0
H737 H 0.96833 0.98579 0.98813 0.0
H738 H 0.90307 1.01263 0.98984 0.0
H739 H 0.8818 0.04414 1.00552 0.0
H740 H 0.01055 0.07261 0.05387 0.0
H741 H 0.07614 0.0459 0.0517 0.0
C742 C 0.05518 1.0141 0.02576 0.0
C743 C 0.03801 0.9981 1.01186 0.0
C744 C 0.01738 1.02951 0.02719 0.0
C745 C 0.98288 0.99791 0.99889 0.0
C746 C 0.94536 1.01325 0.99996 0.0
C747 C 0.924 0.04447 1.01577 0.0
C748 C 0.94094 0.06038 0.02996 0.0
C749 C 0.96189 1.02907 1.01425 0.0
C750 C -0.00388 0.06056 0.0429 0.0
C751 C 0.03386 0.0453 0.04157 0.0
H752 H 0.22997 0.25197 0.03393 0.0
H753 H 0.39546 0.27809 1.01668 0.0
H754 H 0.34485 0.30748 1.01033 0.0
H755 H 0.25351 0.32592 1.00949 0.0
H756 H 0.08788 0.29985 0.02666 0.0
H757 H 0.1384 0.27041 0.03281 0.0
C758 C 0.25505 0.26412 0.02903 0.0
C759 C 0.3166 0.26277 0.02598 0.0
C760 C 0.22549 0.28102 0.02503 0.0
C761 C 0.34815 0.27868 1.01928 0.0
C762 C 0.31918 0.29552 1.01552 0.0
C763 C 0.22833 0.31377 1.0143 0.0
C764 C 0.16682 0.31516 1.01746 0.0
C765 C 0.25781 0.29685 1.01817 0.0
C766 C 0.13517 0.29924 0.02398 0.0
C767 C 0.1641 0.28237 0.02764 0.0
H768 H 4e-05 0.74707 0.76104 0.0
H769 H 0.83473 0.77445 0.77771 0.0
H770 H 0.88584 0.80342 0.78463 0.0
H771 H 0.97767 0.82108 0.78634 0.0
H772 H 0.14298 0.79371 0.76961 0.0
H773 H 0.09187 0.76473 0.76271 0.0
C774 C 0.97511 0.7594 0.76593 0.0
C775 C 0.91351 0.75854 0.76869 0.0
C776 C 0.00492 0.77604 0.77023 0.0
C777 C 0.8821 0.77467 0.77534 0.0
C778 C 0.91135 0.79127 0.77943 0.0
C779 C 0.0026 0.80874 0.78145 0.0
C780 C 0.06419 0.80961 0.77866 0.0
C781 C 0.9728 0.7921 0.77713 0.0
C782 C 0.0956 0.79348 0.77199 0.0
C783 C 0.06636 0.77688 0.76792 0.0
H784 H 0.75428 0.99961 0.78692 0.0
H785 H 0.58978 1.02722 0.76948 0.0
H786 H 0.64159 0.05605 0.76251 0.0
H787 H 0.73379 0.07352 0.76101 0.0
H788 H 0.89831 0.04592 0.77843 0.0
H789 H 0.84651 1.01708 0.78537 0.0
C790 C 0.72968 1.01197 0.78185 0.0
C791 C 0.6681 1.01121 0.77889 0.0
C792 C 0.75989 1.02852 0.77751 0.0
C793 C 0.63713 1.02736 0.772 0.0
C794 C 0.66677 0.04387 0.76789 0.0
C795 C 0.75841 0.06117 0.76606 0.0
C796 C 0.81998 0.06193 0.76904 0.0
C797 C 0.7282 0.04461 0.77039 0.0
C798 C 0.85097 0.04578 0.7759 0.0
C799 C 0.82133 1.02926 0.78 0.0
H800 H 0.6415 0.80234 0.03923 0.0
H801 H 0.77112 0.83064 0.99134 0.0
H802 H 0.83637 0.80378 0.99354 0.0
H803 H 0.85688 0.77215 1.00921 0.0
H804 H 0.72696 0.74416 0.05739 0.0
H805 H 0.66226 0.77102 0.05523 0.0
C806 C 0.6838 0.80261 0.02905 0.0
C807 C 0.70105 0.81849 1.01496 0.0
C808 C 0.72152 0.7872 0.03074 0.0
C809 C 0.75645 0.8186 1.00221 0.0
C810 C 0.79397 0.80325 1.00356 0.0
C811 C 0.81469 0.77199 1.01948 0.0
C812 C 0.79709 0.75611 0.03355 0.0
C813 C 0.77715 0.78749 1.01791 0.0
C814 C 0.74189 0.75615 0.04649 0.0
C815 C 0.70463 0.77151 0.04516 0.0
H816 H 0.35118 0.54481 0.7911 0.0
H817 H 0.21966 0.57379 0.74419 0.0
H818 H 0.15403 0.54751 0.74754 0.0
H819 H 0.13375 0.51624 0.76373 0.0
H820 H 0.26548 0.48717 0.81038 0.0
H821 H 0.33069 0.51359 0.8075 0.0
C822 C 0.30833 0.54534 0.78143 0.0
C823 C 0.29064 0.56127 0.76727 0.0
C824 C 0.27046 0.53021 0.78366 0.0
C825 C 0.23465 0.56173 0.75511 0.0
C826 C 0.19692 0.54671 0.75711 0.0
C827 C 0.17647 0.51574 0.77353 0.0
C828 C 0.19443 0.49973 0.7874 0.0
C829 C 0.21421 0.53091 0.77144 0.0
C830 C 0.2503 0.4993 0.79968 0.0
C831 C 0.2878 0.5144 0.79793 0.0
H832 H 0.00411 0.57104 0.53584 0.0
H833 H 0.83946 0.54487 0.51692 0.0
H834 H 0.89032 0.51546 0.51118 0.0
H835 H 0.98171 0.49708 0.51123 0.0
H836 H 0.14641 0.52326 0.53003 0.0
H837 H 0.09555 0.55267 0.53575 0.0
C838 C 0.97927 0.55887 0.53071 0.0
C839 C 0.91796 0.56019 0.52698 0.0
C840 C 0.00893 0.54199 0.52708 0.0
C841 C 0.88663 0.54429 0.52002 0.0
C842 C 0.91572 0.52744 0.51661 0.0
C843 C 0.00657 0.50924 0.51634 0.0
C844 C 0.06788 0.50792 0.52008 0.0
C845 C 0.97692 0.52614 0.51991 0.0
C846 C 0.09923 0.52384 0.52695 0.0
C847 C 0.07014 0.54069 0.53034 0.0
H848 H 0.22498 0.75206 0.53252 0.0
H849 H 0.39189 0.77719 0.51485 0.0
H850 H 0.34291 0.80682 0.50828 0.0
H851 H 0.25269 0.82572 0.50757 0.0
H852 H 0.08566 0.80062 0.5251 0.0
H853 H 0.13451 0.77091 0.53127 0.0
C854 C 0.25071 0.76405 0.52746 0.0
C855 C 0.31213 0.76239 0.52437 0.0
C856 C 0.22212 0.78106 0.52333 0.0
C857 C 0.34462 0.77805 0.51746 0.0
C858 C 0.3166 0.79502 0.51359 0.0
C859 C 0.22685 0.81372 0.51245 0.0
C860 C 0.16549 0.81544 0.51575 0.0
C861 C 0.25534 0.79668 0.51633 0.0
C862 C 0.13289 0.79973 0.52234 0.0
C863 C 0.16084 0.78272 0.52601 0.0
H864 H 0.854 0.54611 0.28932 0.0
H865 H 0.72418 0.57616 0.24282 0.0
H866 H 0.65773 0.55008 0.24505 0.0
H867 H 0.63581 0.51888 0.26052 0.0
H868 H 0.76545 0.48858 0.30672 0.0
H869 H 0.83223 0.51468 0.30455 0.0
C870 C 0.81138 0.54691 0.27948 0.0
C871 C 0.79429 0.56309 0.26584 0.0
C872 C 0.77301 0.53188 0.28105 0.0
C873 C 0.73864 0.56389 0.25339 0.0
C874 C 0.70044 0.54899 0.25474 0.0
C875 C 0.67849 0.51801 0.27031 0.0
C876 C 0.69539 0.50181 0.2839 0.0
C877 C 0.71697 0.53297 0.26867 0.0
C878 C 0.75116 0.50089 0.29621 0.0
C879 C 0.78949 0.5158 0.2949 0.0
H880 H 0.6384 0.29473 0.54079 0.0
H881 H 0.7693 0.32393 0.49482 0.0
H882 H 0.83535 0.29729 0.49718 0.0
H883 H 0.85594 0.26564 0.5122 0.0
H884 H 0.72465 0.23649 0.55802 0.0
H885 H 0.65924 0.26325 0.55611 0.0
C886 C 0.68122 0.29525 0.53112 0.0
C887 C 0.69863 0.31132 0.51751 0.0
C888 C 0.71925 0.27994 0.53278 0.0
C889 C 0.75456 0.31175 0.50533 0.0
C890 C 0.7925 0.29653 0.50676 0.0
C891 C 0.81326 0.26519 0.52202 0.0
C892 C 0.79543 0.24906 0.53534 0.0
C893 C 0.77543 0.28058 0.52052 0.0
C894 C 0.73967 0.24871 0.54769 0.0
C895 C 0.70207 0.264 0.54651 0.0
H896 H 0.38876 0.27393 0.78857 0.0
H897 H 0.52144 0.24491 0.74229 0.0
H898 H 0.58673 0.2713 0.74582 0.0
H899 H 0.60629 0.3027 0.76205 0.0
H900 H 0.47323 0.33166 0.80818 0.0
H901 H 0.40849 0.30515 0.80502 0.0
C902 C 0.43178 0.2734 0.77906 0.0
C903 C 0.44989 0.25744 0.76502 0.0
C904 C 0.46941 0.28857 0.78142 0.0
C905 C 0.50611 0.257 0.75309 0.0
C906 C 0.54364 0.27208 0.75521 0.0
C907 C 0.56338 0.30316 0.77167 0.0
C908 C 0.54489 0.31917 0.78547 0.0
C909 C 0.5259 0.28792 0.76944 0.0
C910 C 0.4888 0.31954 0.79753 0.0
C911 C 0.45157 0.30439 0.79562 0.0
H912 H 0.51381 0.07338 0.53676 0.0
H913 H 0.3442 0.04936 0.52111 0.0
H914 H 0.39055 1.0193 0.51478 0.0
H915 H 0.47931 0.99977 0.51312 0.0
H916 H 0.64899 1.02365 0.52896 0.0
H917 H 0.60269 0.05375 0.53539 0.0
C918 C 0.4869 0.06154 0.53224 0.0
C919 C 0.4255 0.06367 0.52955 0.0
C920 C 0.51397 0.04426 0.52828 0.0
C921 C 0.39149 0.04816 0.5234 0.0
C922 C 0.418 1.03094 0.51964 0.0
C923 C 0.50627 1.01158 0.51772 0.0
C924 C 0.56765 1.00942 0.52036 0.0
C925 C 0.47925 1.02884 0.52179 0.0
C926 C 0.60171 1.02489 0.52668 0.0
C927 C 0.57522 0.04212 0.53048 0.0
H928 H 0.47664 0.82294 0.28818 0.0
H929 H 0.64149 0.79623 0.26838 0.0
H930 H 0.59081 0.76717 0.2617 0.0
H931 H 0.49956 0.74927 0.26112 0.0
H932 H 0.3347 0.77591 0.28103 0.0
H933 H 0.38534 0.805 0.28766 0.0
C934 C 0.50158 0.81073 0.28264 0.0
C935 C 0.56289 0.8118 0.27892 0.0
C936 C 0.47202 0.79404 0.27851 0.0
C937 C 0.59433 0.79584 0.27147 0.0
C938 C 0.56533 0.7792 0.26753 0.0
C939 C 0.4746 0.76147 0.26666 0.0
C940 C 0.41331 0.76038 0.27041 0.0
C941 C 0.50414 0.77815 0.2708 0.0
C942 C 0.38185 0.77633 0.2779 0.0
C943 C 0.41083 0.79298 0.28181 0.0
H944 H 0.59061 0.51919 0.03774 0.0
H945 H 0.46074 0.4906 0.99024 0.0
H946 H 0.39526 0.51739 0.99251 0.0
H947 H 0.37442 0.54901 1.00821 0.0
H948 H 0.5045 0.57738 0.0559 0.0
H949 H 0.56965 0.5506 0.05362 0.0
C950 C 0.54821 0.51885 0.02766 0.0
C951 C 0.53095 0.50288 1.01367 0.0
C952 C 0.51032 0.53424 0.02937 0.0
C953 C 0.47543 0.50269 1.00104 0.0
C954 C 0.43777 0.518 1.00243 0.0
C955 C 0.41676 0.54928 1.01834 0.0
C956 C 0.43423 0.56523 0.03233 0.0
C957 C 0.45455 0.53383 1.01669 0.0
C958 C 0.48964 0.56533 0.04507 0.0
C959 C 0.52716 0.55001 0.04368 0.0
H960 H 0.00533 0.44353 0.43388 0.0
H961 H -0.00126 0.38761 0.46249 0.0
H962 H 0.98451 0.37669 0.41619 0.0
H963 H -0.00604 0.38255 0.36726 0.0
H964 H 0.00398 0.43842 0.33862 0.0
H965 H -0.00451 0.44975 0.38504 0.0
C966 C -0.0009 0.42901 0.43011 0.0
C967 C 0.00451 0.4164 0.45162 0.0
C968 C -0.00761 0.42274 0.40326 0.0
C969 C -0.00434 0.39763 0.44632 0.0
C970 C 0.9878 0.39134 0.41977 0.0
C971 C -0.00742 0.39722 0.37107 0.0
C972 C 0.00101 0.40957 0.34949 0.0
C973 C 0.9892 0.40368 0.39797 0.0
C974 C -0.00158 0.42855 0.35483 0.0
C975 C -0.0061 0.43507 0.38146 0.0
H976 H 0.24378 0.93837 0.36579 0.0
H977 H 0.22084 0.88295 0.33673 0.0
H978 H 0.23441 0.87116 0.38257 0.0
H979 H 0.23286 0.87713 0.43166 0.0
H980 H 0.2533 0.93259 0.46091 0.0
H981 H 0.26219 0.94365 0.41442 0.0
C982 C 0.2434 0.92368 0.36933 0.0
C983 C 0.22985 0.91163 0.34788 0.0
C984 C 0.25003 0.91696 0.39596 0.0
C985 C 0.23029 0.89261 0.35286 0.0
C986 C 0.23777 0.88582 0.37916 0.0
C987 C 0.24097 0.89156 0.42794 0.0
C988 C 0.24092 0.90405 0.44978 0.0
C989 C 0.2446 0.89794 0.40104 0.0
C990 C 0.25227 0.92267 0.44452 0.0
C991 C 0.25699 0.92906 0.41786 0.0
H992 H -0.00436 0.87526 0.86619 0.0
H993 H -0.00075 0.93126 0.83773 0.0
H994 H 0.98365 0.94241 0.88384 0.0
H995 H 0.98885 0.93635 0.93285 0.0
H996 H 0.98779 0.88037 0.96146 0.0
H997 H 0.98101 0.86924 0.91488 0.0
C998 C 0.99138 0.88989 0.86994 0.0
C999 C 6e-05 0.90238 0.84856 0.0
C1000 C 0.98363 0.89628 0.89671 0.0
C1001 C -0.00636 0.9213 0.85381 0.0
C1002 C 0.98498 0.92773 0.88026 0.0
C1003 C 0.98545 0.92173 0.92897 0.0
C1004 C 0.9903 0.90923 0.95064 0.0
C1005 C 0.98298 0.91536 0.90202 0.0
C1006 C 0.98498 0.89034 0.9452 0.0
C1007 C 0.98149 0.88392 0.91849 0.0
H1008 H 0.25389 0.4376 0.86707 0.0
H1009 H 0.24565 0.38154 0.83891 0.0
H1010 H 0.25425 0.3705 0.88542 0.0
H1011 H 0.24293 0.37701 0.93419 0.0
H1012 H 0.24936 0.43311 0.96233 0.0
H1013 H 0.264 0.44374 0.91597 0.0
C1014 C 0.25568 0.42295 0.87101 0.0
C1015 C 0.24749 0.41046 0.84953 0.0
C1016 C 0.25938 0.41666 0.89796 0.0
C1017 C 0.25094 0.39152 0.85503 0.0
C1018 C 0.25549 0.38516 0.88171 0.0
C1019 C 0.24919 0.39152 0.9303 0.0
C1020 C 0.24339 0.40425 0.95169 0.0
C1021 C 0.25641 0.39763 0.90342 0.0
C1022 C 0.25262 0.42298 0.94627 0.0
C1023 C 0.2607 0.42912 0.91967 0.0
H1024 H 0.97496 0.69096 0.68064 0.0
H1025 H 0.97531 0.63564 0.71192 0.0
H1026 H 0.98644 0.62347 0.66608 0.0
H1027 H 0.97685 0.62841 0.61688 0.0
H1028 H 0.9738 0.68374 0.58562 0.0
H1029 H 0.98418 0.69591 0.63146 0.0
C1030 C 0.97914 0.67626 0.67753 0.0
C1031 C 0.97298 0.66426 0.69971 0.0
C1032 C 0.98419 0.66929 0.65096 0.0
C1033 C 0.97911 0.64524 0.69525 0.0
C1034 C 0.98517 0.63822 0.66896 0.0
C1035 C 0.98012 0.64311 0.61999 0.0
C1036 C 0.97323 0.65512 0.59782 0.0
C1037 C 0.98478 0.65009 0.64657 0.0
C1038 C 0.97815 0.67414 0.60229 0.0
C1039 C 0.9838 0.68115 0.62858 0.0
H1040 H 0.75299 0.127 0.68223 0.0
H1041 H 0.75588 0.18314 0.71034 0.0
H1042 H 0.73949 0.19405 0.66421 0.0
H1043 H 0.74452 0.18776 0.61525 0.0
H1044 H 0.74436 0.13165 0.58697 0.0
H1045 H 0.73792 0.12073 0.63362 0.0
C1046 C 0.74841 0.1416 0.6784 0.0
C1047 C 0.75716 0.15421 0.69968 0.0
C1048 C 0.74021 0.14785 0.65162 0.0
C1049 C 0.75027 0.17309 0.69435 0.0
C1050 C 0.74115 0.17938 0.66788 0.0
C1051 C 0.74134 0.17316 0.61921 0.0
C1052 C 0.74644 0.16056 0.59762 0.0
C1053 C 0.73915 0.16691 0.6462 0.0
C1054 C 0.74139 0.14169 0.60317 0.0
C1055 C 0.7381 0.13539 0.62992 0.0
H1056 H 0.98299 0.14267 0.20012 0.0
H1057 H 0.98295 0.20091 0.18399 0.0
H1058 H -0.0055 0.19488 0.13557 0.0
H1059 H 0.9849 0.17321 0.09757 0.0
H1060 H 0.98057 0.115 0.11372 0.0
H1061 H -0.00836 0.12089 0.16218 0.0
C1062 C 0.98711 0.15406 0.18612 0.0
C1063 C 0.98076 0.17221 0.19568 0.0
C1064 C -0.00791 0.1505 0.15815 0.0
C1065 C 0.98693 0.18679 0.17723 0.0
C1066 C -0.00681 0.18336 0.14945 0.0
C1067 C 0.98795 0.16177 0.11159 0.0
C1068 C 0.98057 0.14371 0.10202 0.0
C1069 C -0.00725 0.16528 0.13958 0.0
C1070 C 0.98536 0.12906 0.12049 0.0
C1071 C 0.99137 0.13242 0.14829 0.0
H1072 H 0.73657 0.64498 0.09764 0.0
H1073 H 0.7417 0.70323 0.11354 0.0
H1074 H 0.73476 0.69749 0.16218 0.0
H1075 H 0.74724 0.67586 0.2 0.0
H1076 H 0.74694 0.61757 0.18406 0.0
H1077 H 0.73081 0.62341 0.13587 0.0
C1078 C 0.73444 0.65645 0.11166 0.0
C1079 C 0.74096 0.67449 0.10192 0.0
C1080 C 0.73229 0.65303 0.13975 0.0
C1081 C 0.73757 0.68919 0.12044 0.0
C1082 C 0.73395 0.68591 0.14834 0.0
C1083 C 0.74211 0.66441 0.18612 0.0
C1084 C 0.74964 0.64631 0.19561 0.0
C1085 C 0.73444 0.66787 0.15825 0.0
C1086 C 0.74213 0.63165 0.17733 0.0
C1087 C 0.73319 0.63498 0.14968 0.0
H1088 H 0.47829 0.44145 0.93219 0.0
H1089 H 0.47947 0.38538 0.96043 0.0
H1090 H 0.47019 0.37439 0.91389 0.0
H1091 H 0.48261 0.38057 0.86513 0.0
H1092 H 0.48378 0.43664 0.83692 0.0
H1093 H 0.46997 0.44765 0.88325 0.0
C1094 C 0.47482 0.42685 0.92827 0.0
C1095 C 0.48116 0.41428 0.94979 0.0
C1096 C 0.47085 0.42055 0.9013 0.0
C1097 C 0.47565 0.3954 0.94429 0.0
C1098 C 0.47069 0.38907 0.91759 0.0
C1099 C 0.4782 0.39518 0.86899 0.0
C1100 C 0.48579 0.40774 0.84759 0.0
C1101 C 0.47152 0.40148 0.89586 0.0
C1102 C 0.47901 0.42663 0.85299 0.0
C1103 C 0.47144 0.43297 0.87957 0.0
H1104 H 0.74171 0.88181 0.93211 0.0
H1105 H 0.74446 0.93736 0.96267 0.0
H1106 H 0.74963 0.94915 0.91645 0.0
H1107 H 0.73401 0.94386 0.86759 0.0
H1108 H 0.72872 0.88829 0.83719 0.0
H1109 H 0.74495 0.87646 0.88284 0.0
C1110 C 0.74513 0.89648 0.92873 0.0
C1111 C 0.74136 0.90866 0.95089 0.0
C1112 C 0.74667 0.90323 0.90197 0.0
C1113 C 0.7465 0.92762 0.94605 0.0
C1114 C 0.74909 0.93442 0.91954 0.0
C1115 C 0.73799 0.92918 0.87081 0.0
C1116 C 0.72882 0.91702 0.849 0.0
C1117 C 0.74616 0.92239 0.89733 0.0
C1118 C 0.73477 0.89802 0.85359 0.0
C1119 C 0.7438 0.89119 0.87979 0.0
H1120 H 0.48743 0.89664 0.45053 0.0
H1121 H 0.49674 0.95486 0.43512 0.0
H1122 H 0.48954 0.94922 0.38641 0.0
H1123 H 0.5 0.92757 0.34839 0.0
H1124 H 0.4966 0.86928 0.36388 0.0
H1125 H 0.48094 0.87516 0.41214 0.0
C1126 C 0.48621 0.90815 0.4366 0.0
C1127 C 0.49377 0.92614 0.44653 0.0
C1128 C 0.48405 0.90477 0.40848 0.0
C1129 C 0.49166 0.94086 0.42811 0.0
C1130 C 0.48791 0.93764 0.40017 0.0
C1131 C 0.4943 0.91613 0.36218 0.0
C1132 C 0.50065 0.89799 0.35251 0.0
C1133 C 0.48711 0.91961 0.3901 0.0
C1134 C 0.49259 0.88337 0.37072 0.0
C1135 C 0.48394 0.88673 0.39841 0.0
H1136 H 0.7327 0.37551 0.43099 0.0
H1137 H 0.73212 0.43115 0.46124 0.0
H1138 H 0.74205 0.44281 0.41512 0.0
H1139 H 0.73147 0.43738 0.3661 0.0
H1140 H 0.7279 0.38175 0.33587 0.0
H1141 H 0.74027 0.37001 0.38185 0.0
C1142 C 0.73645 0.39016 0.4276 0.0
C1143 C 0.73042 0.40243 0.44956 0.0
C1144 C 0.74053 0.39684 0.40086 0.0
C1145 C 0.73584 0.42138 0.44473 0.0
C1146 C 0.74121 0.42809 0.41828 0.0
C1147 C 0.73506 0.4227 0.36945 0.0
C1148 C 0.7275 0.41049 0.34756 0.0
C1149 C 0.74059 0.41599 0.39612 0.0
C1150 C 0.73279 0.3915 0.35233 0.0
C1151 C 0.73956 0.38474 0.3787 0.0
H1152 H 0.48441 0.64661 0.19901 0.0
H1153 H 0.47319 0.70483 0.18341 0.0
H1154 H 0.48805 0.69927 0.13503 0.0
H1155 H 0.48524 0.67761 0.09669 0.0
H1156 H 0.49126 0.61933 0.11231 0.0
H1157 H 0.49876 0.6252 0.16094 0.0
C1158 C 0.48672 0.65814 0.18515 0.0
C1159 C 0.47649 0.6761 0.19485 0.0
C1160 C 0.49363 0.6548 0.15718 0.0
C1161 C 0.48025 0.69085 0.17655 0.0
C1162 C 0.48844 0.68767 0.14879 0.0
C1163 C 0.4899 0.66619 0.11064 0.0
C1164 C 0.48655 0.64804 0.10082 0.0
C1165 C 0.49231 0.66965 0.13874 0.0
C1166 C 0.49301 0.63343 0.11926 0.0
C1167 C 0.49695 0.63678 0.14716 0.0
H1168 H 0.25389 0.1318 0.17902 0.0
H1169 H 0.26095 0.18685 0.21133 0.0
H1170 H 0.25164 0.19945 0.1657 0.0
H1171 H 0.26024 0.19473 0.11639 0.0
H1172 H 0.25621 0.13963 0.0841 0.0
H1173 H 0.24443 0.1273 0.12973 0.0
C1174 C 0.25174 0.14656 0.17618 0.0
C1175 C 0.25935 0.15833 0.19859 0.0
C1176 C 0.24779 0.15377 0.14973 0.0
C1177 C 0.25594 0.17743 0.19448 0.0
C1178 C 0.25093 0.18468 0.16831 0.0
C1179 C 0.25517 0.18006 0.11924 0.0
C1180 C 0.26035 0.16813 0.09683 0.0
C1181 C 0.24974 0.17298 0.14569 0.0
C1182 C 0.25317 0.14916 0.10095 0.0
C1183 C 0.2467 0.14206 0.12712 0.0
H1184 H 0.50057 0.18975 0.68029 0.0
H1185 H 0.4781 0.13469 0.71065 0.0
H1186 H 0.49168 0.12234 0.66507 0.0
H1187 H 0.4908 0.12765 0.61581 0.0
H1188 H 0.51102 0.18275 0.58529 0.0
H1189 H 0.51897 0.19442 0.63153 0.0
C1190 C 0.50022 0.17501 0.67708 0.0
C1191 C 0.48695 0.16324 0.69884 0.0
C1192 C 0.50696 0.16796 0.65061 0.0
C1193 C 0.48739 0.14415 0.69428 0.0
C1194 C 0.49489 0.13704 0.66813 0.0
C1195 C 0.49865 0.14214 0.61921 0.0
C1196 C 0.4989 0.15432 0.59705 0.0
C1197 C 0.50178 0.14887 0.64597 0.0
C1198 C 0.5098 0.17304 0.60191 0.0
C1199 C 0.514 0.17978 0.62843 0.0
H1200 H 0.25608 0.67652 0.70031 0.0
H1201 H 0.24758 0.61856 0.68251 0.0
H1202 H 0.23628 0.62531 0.63429 0.0
H1203 H 0.24707 0.64729 0.59683 0.0
H1204 H 0.25974 0.70517 0.61457 0.0
H1205 H 0.24996 0.69884 0.66297 0.0
C1206 C 0.25022 0.66536 0.686 0.0
C1207 C 0.25382 0.64704 0.69506 0.0
C1208 C 0.24528 0.66932 0.65812 0.0
C1209 C 0.2456 0.63279 0.67617 0.0
C1210 C 0.23947 0.63663 0.64849 0.0
C1211 C 0.24618 0.65858 0.6112 0.0
C1212 C 0.25527 0.67666 0.60202 0.0
C1213 C 0.24207 0.6548 0.63914 0.0
C1214 C 0.25339 0.69111 0.62098 0.0
C1215 C 0.24817 0.68748 0.64876 0.0
H1216 H 0.24604 0.42058 0.3118 0.0
H1217 H 0.3077 0.36431 0.31111 0.0
H1218 H 0.40923 0.37474 0.31465 0.0
H1219 H 0.48038 0.39977 0.31169 0.0
H1220 H 0.41875 0.45603 0.31081 0.0
H1221 H 0.31723 0.44562 0.31456 0.0
C1222 C 0.28158 0.41056 0.31284 0.0
C1223 C 0.26927 0.39169 0.3107 0.0
C1224 C 0.33989 0.41665 0.31436 0.0
C1225 C 0.31585 0.37891 0.3125 0.0
C1226 C 0.374 0.38487 0.3144 0.0
C1227 C 0.44486 0.40979 0.31273 0.0
C1228 C 0.45716 0.42865 0.31047 0.0
C1229 C 0.38655 0.40371 0.31437 0.0
C1230 C 0.4106 0.44143 0.31229 0.0
C1231 C 0.35246 0.43548 0.3143 0.0
H1232 H 0.74687 0.92045 0.31121 0.0
H1233 H 0.81452 0.8649 0.31497 0.0
H1234 H 0.91459 0.87651 0.31884 0.0
H1235 H 0.98315 0.90213 0.31483 0.0
H1236 H 0.91586 0.95764 0.30927 0.0
H1237 H 0.81531 0.94631 0.31288 0.0
C1238 C 0.78336 0.91085 0.31331 0.0
C1239 C 0.77316 0.8918 0.31231 0.0
C1240 C 0.84093 0.91761 0.31497 0.0
C1241 C 0.82099 0.87961 0.31544 0.0
C1242 C 0.87833 0.88624 0.31754 0.0
C1243 C 0.94659 0.91181 0.31482 0.0
C1244 C 0.95708 0.9307 0.3113 0.0
C1245 C 0.8889 0.90518 0.31633 0.0
C1246 C 0.90915 0.94303 0.31177 0.0
C1247 C 0.85156 0.93655 0.31368 0.0
H1248 H 0.30778 0.94081 0.98993 0.0
H1249 H 0.22311 0.88808 0.99447 0.0
H1250 H 0.31832 0.87257 0.99178 0.0
H1251 H 0.42636 0.87398 0.99358 0.0
H1252 H 0.51092 0.92676 0.98994 0.0
H1253 H 0.41552 0.94206 0.98648 0.0
C1254 C 0.31004 0.92593 0.98985 0.0
C1255 C 0.25827 0.9157 0.99281 0.0
C1256 C 0.3652 0.91702 0.9887 0.0
C1257 C 0.2622 0.89638 0.99254 0.0
C1258 C 0.31675 0.88744 0.99104 0.0
C1259 C 0.42398 0.88879 0.99151 0.0
C1260 C 0.47583 0.89917 0.99243 0.0
C1261 C 0.3687 0.89762 0.98996 0.0
C1262 C 0.47177 0.91839 0.98965 0.0
C1263 C 0.41712 0.92721 0.9877 0.0
H1264 H 0.91608 0.37752 0.98848 0.0
H1265 H 0.00657 0.42928 0.99356 0.0
H1266 H 0.91311 0.4458 0.99076 0.0
H1267 H 0.8048 0.44557 0.99227 0.0
H1268 H 0.71454 0.39374 0.98786 0.0
H1269 H 0.80828 0.37745 0.98466 0.0
C1270 C 0.91551 0.39242 0.98849 0.0
C1271 C 0.96843 0.40206 0.99163 0.0
C1272 C 0.86133 0.40192 0.98724 0.0
C1273 C 0.96661 0.42141 0.99147 0.0
C1274 C 0.91304 0.43093 0.98992 0.0
C1275 C 0.80558 0.43075 0.99009 0.0
C1276 C 0.75252 0.42095 0.99071 0.0
C1277 C 0.85995 0.42134 0.98864 0.0
C1278 C 0.75458 0.4017 0.98779 0.0
C1279 C 0.8083 0.39231 0.98599 0.0
H1280 H 0.73189 0.64919 0.73885 0.0
H1281 H 0.65932 0.70413 0.73487 0.0
H1282 H 0.56035 0.69161 0.73085 0.0
H1283 H 0.49417 0.66535 0.7345 0.0
H1284 H 0.56643 0.61045 0.74036 0.0
H1285 H 0.66594 0.62272 0.73717 0.0
C1286 C 0.69456 0.65846 0.73671 0.0
C1287 C 0.70305 0.67761 0.73762 0.0
C1288 C 0.63769 0.65118 0.73495 0.0
C1289 C 0.65416 0.68937 0.73443 0.0
C1290 C 0.59747 0.68221 0.73225 0.0
C1291 C 0.53159 0.656 0.73468 0.0
C1292 C 0.52277 0.63701 0.73813 0.0
C1293 C 0.58864 0.66317 0.73343 0.0
C1294 C 0.57183 0.62512 0.7379 0.0
C1295 C 0.62881 0.63214 0.73623 0.0
H1296 H 0.00521 0.17089 0.73959 0.0
H1297 H 0.07515 0.11562 0.73544 0.0
H1298 H 0.17471 0.12765 0.73155 0.0
H1299 H 0.2423 0.1536 0.73498 0.0
H1300 H 0.17279 0.20885 0.74058 0.0
H1301 H 0.07261 0.19705 0.73784 0.0
C1302 C 0.04208 0.16144 0.73743 0.0
C1303 C 0.03261 0.14234 0.73823 0.0
C1304 C 0.09938 0.16845 0.73567 0.0
C1305 C 0.081 0.13036 0.73508 0.0
C1306 C 0.13806 0.13724 0.73297 0.0
C1307 C 0.20532 0.16312 0.73521 0.0
C1308 C 0.21517 0.18209 0.7384 0.0
C1309 C 0.14786 0.15622 0.73412 0.0
C1310 C 0.16664 0.1942 0.73828 0.0
C1311 C 0.10926 0.18744 0.73686 0.0
H1312 H 0.50108 0.15246 0.0551 0.0
H1313 H 0.57393 0.20702 0.05634 0.0
H1314 H 0.6731 0.19396 0.05968 0.0
H1315 H 0.73919 0.16717 0.05694 0.0
H1316 H 0.66632 0.11264 0.05416 0.0
H1317 H 0.56702 0.12563 0.05706 0.0
C1318 C 0.53852 0.16155 0.05646 0.0
C1319 C 0.52994 0.18073 0.05509 0.0
C1320 C 0.59548 0.15394 0.05789 0.0
C1321 C 0.57908 0.19223 0.05721 0.0
C1322 C 0.6359 0.18476 0.05899 0.0
C1323 C 0.7017 0.15807 0.05733 0.0
C1324 C 0.71036 0.13892 0.05495 0.0
C1325 C 0.64466 0.16564 0.05853 0.0
C1326 C 0.66112 0.1274 0.05581 0.0
C1327 C 0.60423 0.13483 0.05735 0.0
H1328 H 0.16593 0.62559 0.05521 0.0
H1329 H 0.26179 0.67649 0.0569 0.0
H1330 H 0.16999 0.69381 0.06 0.0
H1331 H 0.06203 0.69481 0.05695 0.0
H1332 H 0.96606 0.64393 0.05503 0.0
H1333 H 0.05779 0.62653 0.05765 0.0
C1334 C 0.16681 0.64044 0.05676 0.0
C1335 C 0.22084 0.64966 0.05538 0.0
C1336 C 0.11355 0.65045 0.05824 0.0
C1337 C 0.22094 0.66896 0.05755 0.0
C1338 C 0.16833 0.67895 0.05929 0.0
C1339 C 0.06108 0.67993 0.05758 0.0
C1340 C 0.00707 0.67078 0.05536 0.0
C1341 C 0.11427 0.66989 0.05881 0.0
C1342 C 0.0069 0.65144 0.05638 0.0
C1343 C 0.05947 0.6414 0.05783 0.0
H1344 H 0.48382 0.90286 0.8123 0.0
H1345 H 0.41042 0.95774 0.81018 0.0
H1346 H 0.31127 0.94524 0.81335 0.0
H1347 H 0.2456 0.91871 0.81074 0.0
H1348 H 0.31916 0.86383 0.81129 0.0
H1349 H 0.41808 0.8764 0.81508 0.0
C1350 C 0.44624 0.91214 0.81294 0.0
C1351 C 0.45465 0.93122 0.81056 0.0
C1352 C 0.38931 0.90484 0.81424 0.0
C1353 C 0.40537 0.94301 0.81181 0.0
C1354 C 0.34857 0.93585 0.81348 0.0
C1355 C 0.28315 0.90946 0.8121 0.0
C1356 C 0.27488 0.89033 0.81029 0.0
C1357 C 0.34001 0.91678 0.81377 0.0
C1358 C 0.3241 0.87859 0.81244 0.0
C1359 C 0.38078 0.88578 0.81449 0.0
H1360 H 0.81209 0.37613 0.80999 0.0
H1361 H 0.72258 0.42866 0.80863 0.0
H1362 H 0.81644 0.44439 0.81185 0.0
H1363 H 0.92453 0.44337 0.80953 0.0
H1364 H 0.01396 0.39081 0.81001 0.0
H1365 H 0.92001 0.37514 0.813 0.0
C1366 C 0.813 0.391 0.81091 0.0
C1367 C 0.76024 0.40114 0.80867 0.0
C1368 C 0.86738 0.40005 0.81234 0.0
C1369 C 0.76244 0.42045 0.81 0.0
C1370 C 0.81622 0.42951 0.81179 0.0
C1371 C 0.92355 0.42851 0.8108 0.0
C1372 C 0.97635 0.41833 0.80914 0.0
C1373 C 0.8691 0.41948 0.81211 0.0
C1374 C 0.97407 0.39905 0.81091 0.0
C1375 C 0.92025 0.39001 0.81258 0.0
H1376 H 0.25134 0.39791 0.49124 0.0
H1377 H 0.31937 0.45295 0.48545 0.0
H1378 H 0.41917 0.44063 0.48118 0.0
H1379 H 0.48761 0.4146 0.48527 0.0
H1380 H 0.42009 0.35961 0.49277 0.0
H1381 H 0.31949 0.37157 0.48974 0.0
C1382 C 0.28784 0.40724 0.48862 0.0
C1383 C 0.27786 0.42636 0.48915 0.0
C1384 C 0.34528 0.40007 0.4867 0.0
C1385 C 0.32569 0.43819 0.48536 0.0
C1386 C 0.38288 0.43115 0.48302 0.0
C1387 C 0.45096 0.40516 0.48583 0.0
C1388 C 0.46142 0.38625 0.48972 0.0
C1389 C 0.3933 0.41216 0.48464 0.0
C1390 C 0.41339 0.37423 0.48997 0.0
C1391 C 0.35579 0.38108 0.48839 0.0
H1392 H 0.91983 0.87828 0.48831 0.0
H1393 H 0.01161 0.9299 0.49097 0.0
H1394 H 0.91842 0.94658 0.48789 0.0
H1395 H 0.8105 0.94655 0.49036 0.0
H1396 H 0.71873 0.89491 0.48913 0.0
H1397 H 0.81197 0.87833 0.48536 0.0
C1398 C 0.91956 0.89317 0.48769 0.0
C1399 C 0.97265 0.90278 0.49029 0.0
C1400 C 0.86562 0.90274 0.48645 0.0
C1401 C 0.97138 0.9221 0.48934 0.0
C1402 C 0.91804 0.93169 0.48763 0.0
C1403 C 0.81079 0.9317 0.48875 0.0
C1404 C 0.75766 0.92202 0.49046 0.0
C1405 C 0.86477 0.92217 0.4871 0.0
C1406 C 0.75897 0.90274 0.48821 0.0
C1407 C 0.81235 0.89321 0.4861 0.0
H1408 H 0.50004 0.16886 0.23552 0.0
H1409 H 0.56891 0.11342 0.23724 0.0
H1410 H 0.66908 0.12513 0.234 0.0
H1411 H 0.73679 0.15111 0.23692 0.0
H1412 H 0.6676 0.20654 0.23711 0.0
H1413 H 0.56775 0.19477 0.23299 0.0
C1414 C 0.53686 0.15929 0.23479 0.0
C1415 C 0.52697 0.14028 0.2371 0.0
C1416 C 0.5943 0.16612 0.23351 0.0
C1417 C 0.57519 0.1281 0.23568 0.0
C1418 C 0.63255 0.1348 0.23397 0.0
C1419 C 0.7 0.16066 0.23565 0.0
C1420 C 0.70971 0.1797 0.23781 0.0
C1421 C 0.64262 0.15379 0.23385 0.0
C1422 C 0.66149 0.19184 0.23574 0.0
C1423 C 0.6043 0.18511 0.23349 0.0
H1424 H -0.00408 0.66751 0.23586 0.0
H1425 H 0.06778 0.61248 0.23995 0.0
H1426 H 0.16729 0.62465 0.2366 0.0
H1427 H 0.23365 0.65101 0.23848 0.0
H1428 H 0.16161 0.70607 0.23605 0.0
H1429 H 0.06241 0.69372 0.23241 0.0
C1430 C 0.03324 0.65812 0.23561 0.0
C1431 C 0.0243 0.63911 0.23861 0.0
C1432 C 0.09038 0.66523 0.23421 0.0
C1433 C 0.07326 0.62717 0.23787 0.0
C1434 C 0.13026 0.63413 0.23608 0.0
C1435 C 0.19639 0.66035 0.23674 0.0
C1436 C 0.20514 0.67946 0.23799 0.0
C1437 C 0.13935 0.65316 0.23517 0.0
C1438 C 0.15628 0.69131 0.23536 0.0
C1439 C 0.09943 0.68426 0.23339 0.0
H1440 H 0.73141 0.66908 0.55914 0.0
H1441 H 0.66217 0.61406 0.5576 0.0
H1442 H 0.56213 0.62639 0.561 0.0
H1443 H 0.49449 0.65277 0.55832 0.0
H1444 H 0.56386 0.70778 0.55826 0.0
H1445 H 0.66375 0.69542 0.56195 0.0
C1446 C 0.69454 0.65974 0.55995 0.0
C1447 C 0.70431 0.64067 0.55764 0.0
C1448 C 0.63712 0.66693 0.56138 0.0
C1449 C 0.656 0.62879 0.55913 0.0
C1450 C 0.59871 0.63584 0.56095 0.0
C1451 C 0.53134 0.66209 0.55952 0.0
C1452 C 0.52166 0.68118 0.55754 0.0
C1453 C 0.58873 0.65489 0.56113 0.0
C1454 C 0.56995 0.69304 0.55952 0.0
C1455 C 0.62717 0.68597 0.56151 0.0
H1456 H 0.06532 0.19263 0.55711 0.0
H1457 H 0.9789 0.14011 0.55965 0.0
H1458 H 0.0738 0.12448 0.56316 0.0
H1459 H 0.18145 0.12544 0.55958 0.0
H1460 H 0.26796 0.17791 0.55567 0.0
H1461 H 0.17327 0.19371 0.55902 0.0
C1462 C 0.06717 0.17779 0.55896 0.0
C1463 C 0.01503 0.16758 0.55768 0.0
C1464 C 0.1221 0.1688 0.56046 0.0
C1465 C 0.01834 0.14834 0.56022 0.0
C1466 C 0.07267 0.13935 0.56219 0.0
C1467 C 0.17972 0.14033 0.55998 0.0
C1468 C 0.23174 0.15043 0.55694 0.0
C1469 C 0.12492 0.14939 0.5614 0.0
C1470 C 0.22858 0.16974 0.55764 0.0
C1471 C 0.17437 0.17883 0.5595 0.0
loop_
_geom_bond_atom_site_label_1
_geom_bond_atom_site_label_2
_geom_bond_distance
_geom_bond_site_symmetry_2
_ccdc_geom_bond_type
O0 Cd1 2.223 . S
O0 C8 1.315 . S
Cd1 O0 2.223 . S
Cd1 O4 2.297 . S
Cd1 O5 2.439 . S
Cd1 O11 2.240 . S
Cd2 O3 2.240 . S
Cd2 O10 2.223 . S
Cd2 O12 2.297 . S
Cd2 O13 2.439 . S
O3 Cd2 2.240 . S
O3 C8 1.279 . S
O4 Cd1 2.297 . S
O4 C6 1.247 . S
O5 Cd1 2.439 . S
O5 C6 1.208 . S
C6 O4 1.247 . S
C6 O5 1.208 . S
C7 O12 1.247 . S
C7 O13 1.208 . S
C8 O0 1.315 . S
C8 O3 1.279 . S
C9 O10 1.315 . S
C9 O11 1.279 . S
O10 Cd2 2.223 . S
O10 C9 1.315 . S
O11 Cd1 2.240 . S
O11 C9 1.279 . S
O12 Cd2 2.297 . S
O12 C7 1.247 . S
O13 Cd2 2.439 . S
O13 C7 1.208 . S
O14 Cd15 2.223 . S
O14 C22 1.315 . S
Cd15 O14 2.223 . S
Cd15 O18 2.297 . S
Cd15 O19 2.439 . S
Cd15 O25 2.240 . S
Cd16 O17 2.240 . S
Cd16 O24 2.223 . S
Cd16 O26 2.297 . S
Cd16 O27 2.439 . S
O17 Cd16 2.240 . S
O17 C22 1.279 . S
O18 Cd15 2.297 . S
O18 C20 1.247 . S
O19 Cd15 2.439 . S
O19 C20 1.208 . S
C20 O18 1.247 . S
C20 O19 1.208 . S
C21 O26 1.247 . S
C21 O27 1.208 . S
C22 O14 1.315 . S
C22 O17 1.279 . S
C23 O24 1.315 . S
C23 O25 1.279 . S
O24 Cd16 2.223 . S
O24 C23 1.315 . S
O25 Cd15 2.240 . S
O25 C23 1.279 . S
O26 Cd16 2.297 . S
O26 C21 1.247 . S
O27 Cd16 2.439 . S
O27 C21 1.208 . S
O28 Cd29 2.223 . S
O28 C36 1.315 . S
Cd29 O28 2.223 . S
Cd29 O32 2.297 . S
Cd29 O33 2.439 1_554 S
Cd29 O39 2.240 1_554 S
Cd30 O31 2.240 1_556 S
Cd30 O38 2.223 1_556 S
Cd30 O40 2.297 . S
Cd30 O41 2.439 . S
O31 Cd30 2.240 1_554 S
O31 C36 1.279 . S
O32 Cd29 2.297 . S
O32 C34 1.247 . S
O33 Cd29 2.439 1_556 S
O33 C34 1.208 1_556 S
C34 O32 1.247 . S
C34 O33 1.208 1_554 S
C35 O40 1.247 . S
C35 O41 1.208 . S
C36 O28 1.315 . S
C36 O31 1.279 . S
C37 O38 1.315 . S
C37 O39 1.279 1_554 S
O38 Cd30 2.223 1_554 S
O38 C37 1.315 . S
O39 Cd29 2.240 1_556 S
O39 C37 1.279 1_556 S
O40 Cd30 2.297 . S
O40 C35 1.247 . S
O41 Cd30 2.439 . S
O41 C35 1.208 . S
O42 Cd43 2.223 . S
O42 C50 1.315 . S
Cd43 O42 2.223 . S
Cd43 O46 2.297 . S
Cd43 O47 2.439 1_554 S
Cd43 O53 2.240 1_554 S
Cd44 O45 2.240 1_556 S
Cd44 O52 2.223 1_556 S
Cd44 O54 2.297 . S
Cd44 O55 2.439 . S
O45 Cd44 2.240 1_554 S
O45 C50 1.279 . S
O46 Cd43 2.297 . S
O46 C48 1.247 . S
O47 Cd43 2.439 1_556 S
O47 C48 1.208 1_556 S
C48 O46 1.247 . S
C48 O47 1.208 1_554 S
C49 O54 1.247 . S
C49 O55 1.208 . S
C50 O42 1.315 . S
C50 O45 1.279 . S
C51 O52 1.315 . S
C51 O53 1.279 1_554 S
O52 Cd44 2.223 1_554 S
O52 C51 1.315 . S
O53 Cd43 2.240 1_556 S
O53 C51 1.279 1_556 S
O54 Cd44 2.297 . S
O54 C49 1.247 . S
O55 Cd44 2.439 . S
O55 C49 1.208 . S
O56 Cd57 2.223 . S
O56 C64 1.315 . S
Cd57 O56 2.223 . S
Cd57 O60 2.297 . S
Cd57 O61 2.439 . S
Cd57 O67 2.240 . S
Cd58 O59 2.240 . S
Cd58 O66 2.223 . S
Cd58 O68 2.297 . S
Cd58 O69 2.439 . S
O59 Cd58 2.240 . S
O59 C64 1.279 . S
O60 Cd57 2.297 . S
O60 C62 1.247 . S
O61 Cd57 2.439 . S
O61 C62 1.208 . S
C62 O60 1.247 . S
C62 O61 1.208 . S
C63 O68 1.247 . S
C63 O69 1.208 . S
C64 O56 1.315 . S
C64 O59 1.279 . S
C65 O66 1.315 . S
C65 O67 1.279 . S
O66 Cd58 2.223 . S
O66 C65 1.315 . S
O67 Cd57 2.240 . S
O67 C65 1.279 . S
O68 Cd58 2.297 . S
O68 C63 1.247 . S
O69 Cd58 2.439 . S
O69 C63 1.208 . S
O70 Cd71 2.223 . S
O70 C78 1.315 . S
Cd71 O70 2.223 . S
Cd71 O74 2.297 . S
Cd71 O75 2.439 . S
Cd71 O81 2.240 . S
Cd72 O73 2.240 . S
Cd72 O80 2.223 . S
Cd72 O82 2.297 . S
Cd72 O83 2.439 . S
O73 Cd72 2.240 . S
O73 C78 1.279 . S
O74 Cd71 2.297 . S
O74 C76 1.247 . S
O75 Cd71 2.439 . S
O75 C76 1.208 . S
C76 O74 1.247 . S
C76 O75 1.208 . S
C77 O82 1.247 . S
C77 O83 1.208 . S
C78 O70 1.315 . S
C78 O73 1.279 . S
C79 O80 1.315 . S
C79 O81 1.279 . S
O80 Cd72 2.223 . S
O80 C79 1.315 . S
O81 Cd71 2.240 . S
O81 C79 1.279 . S
O82 Cd72 2.297 . S
O82 C77 1.247 . S
O83 Cd72 2.439 . S
O83 C77 1.208 . S
O84 Cd85 2.223 . S
O84 C92 1.315 . S
Cd85 O84 2.223 . S
Cd85 O88 2.297 . S
Cd85 O89 2.439 1_556 S
Cd85 O95 2.240 1_556 S
Cd86 O87 2.240 1_554 S
Cd86 O94 2.223 1_554 S
Cd86 O96 2.297 . S
Cd86 O97 2.439 . S
O87 Cd86 2.240 1_556 S
O87 C92 1.279 . S
O88 Cd85 2.297 . S
O88 C90 1.247 . S
O89 Cd85 2.439 1_554 S
O89 C90 1.208 1_554 S
C90 O88 1.247 . S
C90 O89 1.208 1_556 S
C91 O96 1.247 . S
C91 O97 1.208 . S
C92 O84 1.315 . S
C92 O87 1.279 . S
C93 O94 1.315 . S
C93 O95 1.279 1_556 S
O94 Cd86 2.223 1_556 S
O94 C93 1.315 . S
O95 Cd85 2.240 1_554 S
O95 C93 1.279 1_554 S
O96 Cd86 2.297 . S
O96 C91 1.247 . S
O97 Cd86 2.439 . S
O97 C91 1.208 . S
O98 Cd99 2.223 . S
O98 C106 1.315 . S
Cd99 O98 2.223 . S
Cd99 O102 2.297 . S
Cd99 O103 2.439 1_556 S
Cd99 O109 2.240 1_556 S
Cd100 O101 2.240 1_554 S
Cd100 O108 2.223 1_554 S
Cd100 O110 2.297 . S
Cd100 O111 2.439 . S
O101 Cd100 2.240 1_556 S
O101 C106 1.279 . S
O102 Cd99 2.297 . S
O102 C104 1.247 . S
O103 Cd99 2.439 1_554 S
O103 C104 1.208 1_554 S
C104 O102 1.247 . S
C104 O103 1.208 1_556 S
C105 O110 1.247 . S
C105 O111 1.208 . S
C106 O98 1.315 . S
C106 O101 1.279 . S
C107 O108 1.315 . S
C107 O109 1.279 1_556 S
O108 Cd100 2.223 1_556 S
O108 C107 1.315 . S
O109 Cd99 2.240 1_554 S
O109 C107 1.279 1_554 S
O110 Cd100 2.297 . S
O110 C105 1.247 . S
O111 Cd100 2.439 . S
O111 C105 1.208 . S
O112 Cd113 2.223 . S
O112 C120 1.315 . S
Cd113 O112 2.223 . S
Cd113 O116 2.297 . S
Cd113 O117 2.439 . S
Cd113 O123 2.240 . S
Cd114 O115 2.240 . S
Cd114 O122 2.223 . S
Cd114 O124 2.297 . S
Cd114 O125 2.439 . S
O115 Cd114 2.240 . S
O115 C120 1.279 . S
O116 Cd113 2.297 . S
O116 C118 1.247 . S
O117 Cd113 2.439 . S
O117 C118 1.208 . S
C118 O116 1.247 . S
C118 O117 1.208 . S
C119 O124 1.247 . S
C119 O125 1.208 . S
C120 O112 1.315 . S
C120 O115 1.279 . S
C121 O122 1.315 . S
C121 O123 1.279 . S
O122 Cd114 2.223 . S
O122 C121 1.315 . S
O123 Cd113 2.240 . S
O123 C121 1.279 . S
O124 Cd114 2.297 . S
O124 C119 1.247 . S
O125 Cd114 2.439 . S
O125 C119 1.208 . S
O126 Cd127 2.223 . S
O126 C134 1.315 . S
Cd127 O126 2.223 . S
Cd127 O130 2.297 . S
Cd127 O131 2.439 . S
Cd127 O137 2.240 . S
Cd128 O129 2.240 . S
Cd128 O136 2.223 . S
Cd128 O138 2.297 . S
Cd128 O139 2.439 . S
O129 Cd128 2.240 . S
O129 C134 1.279 . S
O130 Cd127 2.297 . S
O130 C132 1.247 . S
O131 Cd127 2.439 . S
O131 C132 1.208 . S
C132 O130 1.247 . S
C132 O131 1.208 . S
C133 O138 1.247 . S
C133 O139 1.208 . S
C134 O126 1.315 . S
C134 O129 1.279 . S
C135 O136 1.315 . S
C135 O137 1.279 . S
O136 Cd128 2.223 . S
O136 C135 1.315 . S
O137 Cd127 2.240 . S
O137 C135 1.279 . S
O138 Cd128 2.297 . S
O138 C133 1.247 . S
O139 Cd128 2.439 . S
O139 C133 1.208 . S
O140 Cd141 2.223 . S
O140 C148 1.315 . S
Cd141 O140 2.223 . S
Cd141 O144 2.297 . S
Cd141 O145 2.439 . S
Cd141 O151 2.240 . S
Cd142 O143 2.240 . S
Cd142 O150 2.223 . S
Cd142 O152 2.297 . S
Cd142 O153 2.439 . S
O143 Cd142 2.240 . S
O143 C148 1.279 . S
O144 Cd141 2.297 . S
O144 C146 1.247 . S
O145 Cd141 2.439 . S
O145 C146 1.208 . S
C146 O144 1.247 . S
C146 O145 1.208 . S
C147 O152 1.247 . S
C147 O153 1.208 . S
C148 O140 1.315 . S
C148 O143 1.279 . S
C149 O150 1.315 . S
C149 O151 1.279 . S
O150 Cd142 2.223 . S
O150 C149 1.315 . S
O151 Cd141 2.240 . S
O151 C149 1.279 . S
O152 Cd142 2.297 . S
O152 C147 1.247 . S
O153 Cd142 2.439 . S
O153 C147 1.208 . S
O154 Cd155 2.223 . S
O154 C162 1.315 . S
Cd155 O154 2.223 . S
Cd155 O158 2.297 . S
Cd155 O159 2.439 . S
Cd155 O165 2.240 . S
Cd156 O157 2.240 . S
Cd156 O164 2.223 . S
Cd156 O166 2.297 . S
Cd156 O167 2.439 . S
O157 Cd156 2.240 . S
O157 C162 1.279 . S
O158 Cd155 2.297 . S
O158 C160 1.247 . S
O159 Cd155 2.439 . S
O159 C160 1.208 . S
C160 O158 1.247 . S
C160 O159 1.208 . S
C161 O166 1.247 . S
C161 O167 1.208 . S
C162 O154 1.315 . S
C162 O157 1.279 . S
C163 O164 1.315 . S
C163 O165 1.279 . S
O164 Cd156 2.223 . S
O164 C163 1.315 . S
O165 Cd155 2.240 . S
O165 C163 1.279 . S
O166 Cd156 2.297 . S
O166 C161 1.247 . S
O167 Cd156 2.439 . S
O167 C161 1.208 . S
O168 Cd169 2.223 . S
O168 C176 1.315 . S
Cd169 O168 2.223 . S
Cd169 O172 2.297 . S
Cd169 O173 2.439 . S
Cd169 O179 2.240 . S
Cd170 O171 2.240 . S
Cd170 O178 2.223 . S
Cd170 O180 2.297 . S
Cd170 O181 2.439 . S
O171 Cd170 2.240 . S
O171 C176 1.279 . S
O172 Cd169 2.297 . S
O172 C174 1.247 . S
O173 Cd169 2.439 . S
O173 C174 1.208 . S
C174 O172 1.247 . S
C174 O173 1.208 . S
C175 O180 1.247 . S
C175 O181 1.208 . S
C176 O168 1.315 . S
C176 O171 1.279 . S
C177 O178 1.315 . S
C177 O179 1.279 . S
O178 Cd170 2.223 . S
O178 C177 1.315 . S
O179 Cd169 2.240 . S
O179 C177 1.279 . S
O180 Cd170 2.297 . S
O180 C175 1.247 . S
O181 Cd170 2.439 . S
O181 C175 1.208 . S
O182 Cd183 2.223 . S
O182 C190 1.315 . S
Cd183 O182 2.223 . S
Cd183 O186 2.297 . S
Cd183 O187 2.439 . S
Cd183 O193 2.240 . S
Cd184 O185 2.240 . S
Cd184 O192 2.223 . S
Cd184 O194 2.297 . S
Cd184 O195 2.439 . S
O185 Cd184 2.240 . S
O185 C190 1.279 . S
O186 Cd183 2.297 . S
O186 C188 1.247 . S
O187 Cd183 2.439 . S
O187 C188 1.208 . S
C188 O186 1.247 . S
C188 O187 1.208 . S
C189 O194 1.247 . S
C189 O195 1.208 . S
C190 O182 1.315 . S
C190 O185 1.279 . S
C191 O192 1.315 . S
C191 O193 1.279 . S
O192 Cd184 2.223 . S
O192 C191 1.315 . S
O193 Cd183 2.240 . S
O193 C191 1.279 . S
O194 Cd184 2.297 . S
O194 C189 1.247 . S
O195 Cd184 2.439 . S
O195 C189 1.208 . S
O196 Cd197 2.223 . S
O196 C204 1.315 . S
Cd197 O196 2.223 . S
Cd197 O200 2.297 . S
Cd197 O201 2.439 . S
Cd197 O207 2.240 . S
Cd198 O199 2.240 . S
Cd198 O206 2.223 . S
Cd198 O208 2.297 . S
Cd198 O209 2.439 . S
O199 Cd198 2.240 . S
O199 C204 1.279 . S
O200 Cd197 2.297 . S
O200 C202 1.247 . S
O201 Cd197 2.439 . S
O201 C202 1.208 . S
C202 O200 1.247 . S
C202 O201 1.208 . S
C203 O208 1.247 . S
C203 O209 1.208 . S
C204 O196 1.315 . S
C204 O199 1.279 . S
C205 O206 1.315 . S
C205 O207 1.279 . S
O206 Cd198 2.223 . S
O206 C205 1.315 . S
O207 Cd197 2.240 . S
O207 C205 1.279 . S
O208 Cd198 2.297 . S
O208 C203 1.247 . S
O209 Cd198 2.439 . S
O209 C203 1.208 . S
O210 Cd211 2.223 . S
O210 C218 1.315 . S
Cd211 O210 2.223 . S
Cd211 O214 2.297 . S
Cd211 O215 2.439 . S
Cd211 O221 2.240 . S
Cd212 O213 2.240 . S
Cd212 O220 2.223 . S
Cd212 O222 2.297 . S
Cd212 O223 2.439 . S
O213 Cd212 2.240 . S
O213 C218 1.279 . S
O214 Cd211 2.297 . S
O214 C216 1.247 . S
O215 Cd211 2.439 . S
O215 C216 1.208 . S
C216 O214 1.247 . S
C216 O215 1.208 . S
C217 O222 1.247 . S
C217 O223 1.208 . S
C218 O210 1.315 . S
C218 O213 1.279 . S
C219 O220 1.315 . S
C219 O221 1.279 . S
O220 Cd212 2.223 . S
O220 C219 1.315 . S
O221 Cd211 2.240 . S
O221 C219 1.279 . S
O222 Cd212 2.297 . S
O222 C217 1.247 . S
O223 Cd212 2.439 . S
O223 C217 1.208 . S
O224 Cd225 2.223 . S
O224 C232 1.315 . S
Cd225 O224 2.223 . S
Cd225 O228 2.297 . S
Cd225 O229 2.439 . S
Cd225 O235 2.240 . S
Cd226 O227 2.240 . S
Cd226 O234 2.223 . S
Cd226 O236 2.297 . S
Cd226 O237 2.439 . S
O227 Cd226 2.240 . S
O227 C232 1.279 . S
O228 Cd225 2.297 . S
O228 C230 1.247 . S
O229 Cd225 2.439 . S
O229 C230 1.208 . S
C230 O228 1.247 . S
C230 O229 1.208 . S
C231 O236 1.247 . S
C231 O237 1.208 . S
C232 O224 1.315 . S
C232 O227 1.279 . S
C233 O234 1.315 . S
C233 O235 1.279 . S
O234 Cd226 2.223 . S
O234 C233 1.315 . S
O235 Cd225 2.240 . S
O235 C233 1.279 . S
O236 Cd226 2.297 . S
O236 C231 1.247 . S
O237 Cd226 2.439 . S
O237 C231 1.208 . S
O238 Cd239 2.223 . S
O238 C246 1.315 . S
Cd239 O238 2.223 . S
Cd239 O242 2.297 . S
Cd239 O243 2.439 . S
Cd239 O249 2.240 . S
Cd240 O241 2.240 . S
Cd240 O248 2.223 . S
Cd240 O250 2.297 . S
Cd240 O251 2.439 . S
O241 Cd240 2.240 . S
O241 C246 1.279 . S
O242 Cd239 2.297 . S
O242 C244 1.247 . S
O243 Cd239 2.439 . S
O243 C244 1.208 . S
C244 O242 1.247 . S
C244 O243 1.208 . S
C245 O250 1.247 . S
C245 O251 1.208 . S
C246 O238 1.315 . S
C246 O241 1.279 . S
C247 O248 1.315 . S
C247 O249 1.279 . S
O248 Cd240 2.223 . S
O248 C247 1.315 . S
O249 Cd239 2.240 . S
O249 C247 1.279 . S
O250 Cd240 2.297 . S
O250 C245 1.247 . S
O251 Cd240 2.439 . S
O251 C245 1.208 . S
O252 Cd253 2.223 . S
O252 C260 1.315 . S
Cd253 O252 2.223 . S
Cd253 O256 2.297 . S
Cd253 O257 2.439 . S
Cd253 O263 2.240 . S
Cd254 O255 2.240 . S
Cd254 O262 2.223 . S
Cd254 O264 2.297 . S
Cd254 O265 2.439 . S
O255 Cd254 2.240 . S
O255 C260 1.279 . S
O256 Cd253 2.297 . S
O256 C258 1.247 . S
O257 Cd253 2.439 . S
O257 C258 1.208 . S
C258 O256 1.247 . S
C258 O257 1.208 . S
C259 O264 1.247 . S
C259 O265 1.208 . S
C260 O252 1.315 . S
C260 O255 1.279 . S
C261 O262 1.315 . S
C261 O263 1.279 . S
O262 Cd254 2.223 . S
O262 C261 1.315 . S
O263 Cd253 2.240 . S
O263 C261 1.279 . S
O264 Cd254 2.297 . S
O264 C259 1.247 . S
O265 Cd254 2.439 . S
O265 C259 1.208 . S
O266 Cd267 2.223 . S
O266 C274 1.315 . S
Cd267 O266 2.223 . S
Cd267 O270 2.297 . S
Cd267 O271 2.439 . S
Cd267 O277 2.240 . S
Cd268 O269 2.240 . S
Cd268 O276 2.223 . S
Cd268 O278 2.297 . S
Cd268 O279 2.439 . S
O269 Cd268 2.240 . S
O269 C274 1.279 . S
O270 Cd267 2.297 . S
O270 C272 1.247 . S
O271 Cd267 2.439 . S
O271 C272 1.208 . S
C272 O270 1.247 . S
C272 O271 1.208 . S
C273 O278 1.247 . S
C273 O279 1.208 . S
C274 O266 1.315 . S
C274 O269 1.279 . S
C275 O276 1.315 . S
C275 O277 1.279 . S
O276 Cd268 2.223 . S
O276 C275 1.315 . S
O277 Cd267 2.240 . S
O277 C275 1.279 . S
O278 Cd268 2.297 . S
O278 C273 1.247 . S
O279 Cd268 2.439 . S
O279 C273 1.208 . S
O280 Cd281 2.223 . S
O280 C288 1.315 . S
Cd281 O280 2.223 . S
Cd281 O284 2.297 . S
Cd281 O285 2.439 . S
Cd281 O291 2.240 . S
Cd282 O283 2.240 . S
Cd282 O290 2.223 . S
Cd282 O292 2.297 . S
Cd282 O293 2.439 . S
O283 Cd282 2.240 . S
O283 C288 1.279 . S
O284 Cd281 2.297 . S
O284 C286 1.247 . S
O285 Cd281 2.439 . S
O285 C286 1.208 . S
C286 O284 1.247 . S
C286 O285 1.208 . S
C287 O292 1.247 . S
C287 O293 1.208 . S
C288 O280 1.315 . S
C288 O283 1.279 . S
C289 O290 1.315 . S
C289 O291 1.279 . S
O290 Cd282 2.223 . S
O290 C289 1.315 . S
O291 Cd281 2.240 . S
O291 C289 1.279 . S
O292 Cd282 2.297 . S
O292 C287 1.247 . S
O293 Cd282 2.439 . S
O293 C287 1.208 . S
O294 Cd295 2.223 . S
O294 C302 1.315 . S
Cd295 O294 2.223 . S
Cd295 O298 2.297 . S
Cd295 O299 2.439 . S
Cd295 O305 2.240 . S
Cd296 O297 2.240 . S
Cd296 O304 2.223 . S
Cd296 O306 2.297 . S
Cd296 O307 2.439 . S
O297 Cd296 2.240 . S
O297 C302 1.279 . S
O298 Cd295 2.297 . S
O298 C300 1.247 . S
O299 Cd295 2.439 . S
O299 C300 1.208 . S
C300 O298 1.247 . S
C300 O299 1.208 . S
C301 O306 1.247 . S
C301 O307 1.208 . S
C302 O294 1.315 . S
C302 O297 1.279 . S
C303 O304 1.315 . S
C303 O305 1.279 . S
O304 Cd296 2.223 . S
O304 C303 1.315 . S
O305 Cd295 2.240 . S
O305 C303 1.279 . S
O306 Cd296 2.297 . S
O306 C301 1.247 . S
O307 Cd296 2.439 . S
O307 C301 1.208 . S
O308 Cd309 2.223 . S
O308 C316 1.315 . S
Cd309 O308 2.223 . S
Cd309 O312 2.297 . S
Cd309 O313 2.439 . S
Cd309 O319 2.240 . S
Cd310 O311 2.240 . S
Cd310 O318 2.223 . S
Cd310 O320 2.297 . S
Cd310 O321 2.439 . S
O311 Cd310 2.240 . S
O311 C316 1.279 . S
O312 Cd309 2.297 . S
O312 C314 1.247 . S
O313 Cd309 2.439 . S
O313 C314 1.208 . S
C314 O312 1.247 . S
C314 O313 1.208 . S
C315 O320 1.247 . S
C315 O321 1.208 . S
C316 O308 1.315 . S
C316 O311 1.279 . S
C317 O318 1.315 . S
C317 O319 1.279 . S
O318 Cd310 2.223 . S
O318 C317 1.315 . S
O319 Cd309 2.240 . S
O319 C317 1.279 . S
O320 Cd310 2.297 . S
O320 C315 1.247 . S
O321 Cd310 2.439 . S
O321 C315 1.208 . S
O322 Cd323 2.223 . S
O322 C330 1.315 . S
Cd323 O322 2.223 . S
Cd323 O326 2.297 . S
Cd323 O327 2.439 . S
Cd323 O333 2.240 . S
Cd324 O325 2.240 . S
Cd324 O332 2.223 . S
Cd324 O334 2.297 . S
Cd324 O335 2.439 . S
O325 Cd324 2.240 . S
O325 C330 1.279 . S
O326 Cd323 2.297 . S
O326 C328 1.247 . S
O327 Cd323 2.439 . S
O327 C328 1.208 . S
C328 O326 1.247 . S
C328 O327 1.208 . S
C329 O334 1.247 . S
C329 O335 1.208 . S
C330 O322 1.315 . S
C330 O325 1.279 . S
C331 O332 1.315 . S
C331 O333 1.279 . S
O332 Cd324 2.223 . S
O332 C331 1.315 . S
O333 Cd323 2.240 . S
O333 C331 1.279 . S
O334 Cd324 2.297 . S
O334 C329 1.247 . S
O335 Cd324 2.439 . S
O335 C329 1.208 . S
O336 Cd337 2.223 . S
O336 C344 1.315 . S
Cd337 O336 2.223 . S
Cd337 O340 2.297 . S
Cd337 O341 2.439 . S
Cd337 O347 2.240 . S
Cd338 O339 2.240 . S
Cd338 O346 2.223 . S
Cd338 O348 2.297 . S
Cd338 O349 2.439 . S
O339 Cd338 2.240 . S
O339 C344 1.279 . S
O340 Cd337 2.297 . S
O340 C342 1.247 . S
O341 Cd337 2.439 . S
O341 C342 1.208 . S
C342 O340 1.247 . S
C342 O341 1.208 . S
C343 O348 1.247 . S
C343 O349 1.208 . S
C344 O336 1.315 . S
C344 O339 1.279 . S
C345 O346 1.315 . S
C345 O347 1.279 . S
O346 Cd338 2.223 . S
O346 C345 1.315 . S
O347 Cd337 2.240 . S
O347 C345 1.279 . S
O348 Cd338 2.297 . S
O348 C343 1.247 . S
O349 Cd338 2.439 . S
O349 C343 1.208 . S
O350 Cd351 2.223 . S
O350 C358 1.315 . S
Cd351 O350 2.223 . S
Cd351 O354 2.297 . S
Cd351 O355 2.439 . S
Cd351 O361 2.240 . S
Cd352 O353 2.240 . S
Cd352 O360 2.223 . S
Cd352 O362 2.297 . S
Cd352 O363 2.439 . S
O353 Cd352 2.240 . S
O353 C358 1.279 . S
O354 Cd351 2.297 . S
O354 C356 1.247 . S
O355 Cd351 2.439 . S
O355 C356 1.208 . S
C356 O354 1.247 . S
C356 O355 1.208 . S
C357 O362 1.247 . S
C357 O363 1.208 . S
C358 O350 1.315 . S
C358 O353 1.279 . S
C359 O360 1.315 . S
C359 O361 1.279 . S
O360 Cd352 2.223 . S
O360 C359 1.315 . S
O361 Cd351 2.240 . S
O361 C359 1.279 . S
O362 Cd352 2.297 . S
O362 C357 1.247 . S
O363 Cd352 2.439 . S
O363 C357 1.208 . S
O364 Cd365 2.223 . S
O364 C372 1.315 . S
Cd365 O364 2.223 . S
Cd365 O368 2.297 . S
Cd365 O369 2.439 1_554 S
Cd365 O375 2.240 1_554 S
Cd366 O367 2.240 1_556 S
Cd366 O374 2.223 1_556 S
Cd366 O376 2.297 . S
Cd366 O377 2.439 . S
O367 Cd366 2.240 1_554 S
O367 C372 1.279 . S
O368 Cd365 2.297 . S
O368 C370 1.247 . S
O369 Cd365 2.439 1_556 S
O369 C370 1.208 1_556 S
C370 O368 1.247 . S
C370 O369 1.208 1_554 S
C371 O376 1.247 . S
C371 O377 1.208 . S
C372 O364 1.315 . S
C372 O367 1.279 . S
C373 O374 1.315 . S
C373 O375 1.279 1_554 S
O374 Cd366 2.223 1_554 S
O374 C373 1.315 . S
O375 Cd365 2.240 1_556 S
O375 C373 1.279 1_556 S
O376 Cd366 2.297 . S
O376 C371 1.247 . S
O377 Cd366 2.439 . S
O377 C371 1.208 . S
O378 Cd379 2.223 . S
O378 C386 1.315 . S
Cd379 O378 2.223 . S
Cd379 O382 2.297 . S
Cd379 O383 2.439 1_554 S
Cd379 O389 2.240 1_554 S
Cd380 O381 2.240 1_556 S
Cd380 O388 2.223 1_556 S
Cd380 O390 2.297 . S
Cd380 O391 2.439 . S
O381 Cd380 2.240 1_554 S
O381 C386 1.279 . S
O382 Cd379 2.297 . S
O382 C384 1.247 . S
O383 Cd379 2.439 1_556 S
O383 C384 1.208 1_556 S
C384 O382 1.247 . S
C384 O383 1.208 1_554 S
C385 O390 1.247 . S
C385 O391 1.208 . S
C386 O378 1.315 . S
C386 O381 1.279 . S
C387 O388 1.315 . S
C387 O389 1.279 1_554 S
O388 Cd380 2.223 1_554 S
O388 C387 1.315 . S
O389 Cd379 2.240 1_556 S
O389 C387 1.279 1_556 S
O390 Cd380 2.297 . S
O390 C385 1.247 . S
O391 Cd380 2.439 . S
O391 C385 1.208 . S
O392 Cd393 2.223 . S
O392 C400 1.315 . S
Cd393 O392 2.223 . S
Cd393 O396 2.297 . S
Cd393 O397 2.439 . S
Cd393 O403 2.240 . S
Cd394 O395 2.240 . S
Cd394 O402 2.223 . S
Cd394 O404 2.297 . S
Cd394 O405 2.439 . S
O395 Cd394 2.240 . S
O395 C400 1.279 . S
O396 Cd393 2.297 . S
O396 C398 1.247 . S
O397 Cd393 2.439 . S
O397 C398 1.208 . S
C398 O396 1.247 . S
C398 O397 1.208 . S
C399 O404 1.247 . S
C399 O405 1.208 . S
C400 O392 1.315 . S
C400 O395 1.279 . S
C401 O402 1.315 . S
C401 O403 1.279 . S
O402 Cd394 2.223 . S
O402 C401 1.315 . S
O403 Cd393 2.240 . S
O403 C401 1.279 . S
O404 Cd394 2.297 . S
O404 C399 1.247 . S
O405 Cd394 2.439 . S
O405 C399 1.208 . S
O406 Cd407 2.223 . S
O406 C414 1.315 . S
Cd407 O406 2.223 . S
Cd407 O410 2.297 . S
Cd407 O411 2.439 . S
Cd407 O417 2.240 . S
Cd408 O409 2.240 . S
Cd408 O416 2.223 . S
Cd408 O418 2.297 . S
Cd408 O419 2.439 . S
O409 Cd408 2.240 . S
O409 C414 1.279 . S
O410 Cd407 2.297 . S
O410 C412 1.247 . S
O411 Cd407 2.439 . S
O411 C412 1.208 . S
C412 O410 1.247 . S
C412 O411 1.208 . S
C413 O418 1.247 . S
C413 O419 1.208 . S
C414 O406 1.315 . S
C414 O409 1.279 . S
C415 O416 1.315 . S
C415 O417 1.279 . S
O416 Cd408 2.223 . S
O416 C415 1.315 . S
O417 Cd407 2.240 . S
O417 C415 1.279 . S
O418 Cd408 2.297 . S
O418 C413 1.247 . S
O419 Cd408 2.439 . S
O419 C413 1.208 . S
O420 Cd421 2.223 . S
O420 C428 1.315 . S
Cd421 O420 2.223 . S
Cd421 O424 2.297 . S
Cd421 O425 2.439 1_556 S
Cd421 O431 2.240 1_556 S
Cd422 O423 2.240 1_554 S
Cd422 O430 2.223 1_554 S
Cd422 O432 2.297 . S
Cd422 O433 2.439 . S
O423 Cd422 2.240 1_556 S
O423 C428 1.279 . S
O424 Cd421 2.297 . S
O424 C426 1.247 . S
O425 Cd421 2.439 1_554 S
O425 C426 1.208 1_554 S
C426 O424 1.247 . S
C426 O425 1.208 1_556 S
C427 O432 1.247 . S
C427 O433 1.208 . S
C428 O420 1.315 . S
C428 O423 1.279 . S
C429 O430 1.315 . S
C429 O431 1.279 1_556 S
O430 Cd422 2.223 1_556 S
O430 C429 1.315 . S
O431 Cd421 2.240 1_554 S
O431 C429 1.279 1_554 S
O432 Cd422 2.297 . S
O432 C427 1.247 . S
O433 Cd422 2.439 . S
O433 C427 1.208 . S
O434 Cd435 2.223 . S
O434 C442 1.315 . S
Cd435 O434 2.223 . S
Cd435 O438 2.297 . S
Cd435 O439 2.439 1_556 S
Cd435 O445 2.240 1_556 S
Cd436 O437 2.240 1_554 S
Cd436 O444 2.223 1_554 S
Cd436 O446 2.297 . S
Cd436 O447 2.439 . S
O437 Cd436 2.240 1_556 S
O437 C442 1.279 . S
O438 Cd435 2.297 . S
O438 C440 1.247 . S
O439 Cd435 2.439 1_554 S
O439 C440 1.208 1_554 S
C440 O438 1.247 . S
C440 O439 1.208 1_556 S
C441 O446 1.247 . S
C441 O447 1.208 . S
C442 O434 1.315 . S
C442 O437 1.279 . S
C443 O444 1.315 . S
C443 O445 1.279 1_556 S
O444 Cd436 2.223 1_556 S
O444 C443 1.315 . S
O445 Cd435 2.240 1_554 S
O445 C443 1.279 1_554 S
O446 Cd436 2.297 . S
O446 C441 1.247 . S
O447 Cd436 2.439 . S
O447 C441 1.208 . S
H448 C454 0.930 . S
H449 C457 0.930 . S
H450 C458 0.930 . S
H451 C459 0.930 . S
H452 C462 0.930 . S
H453 C463 0.930 . S
C454 H448 0.930 . S
C454 C455 1.355 . S
C454 C456 1.415 . S
C455 C454 1.355 . S
C455 C457 1.419 . S
C456 C454 1.415 . S
C456 C461 1.425 . S
C456 C463 1.409 . S
C457 H449 0.930 . S
C457 C455 1.419 . S
C457 C458 1.362 . S
C458 H450 0.930 . S
C458 C457 1.362 . S
C458 C461 1.409 . S
C459 H451 0.930 . S
C459 C460 1.355 . S
C459 C461 1.415 . S
C460 C459 1.355 . S
C460 C462 1.419 . S
C461 C456 1.425 . S
C461 C458 1.409 . S
C461 C459 1.415 . S
C462 H452 0.930 . S
C462 C460 1.419 . S
C462 C463 1.362 . S
C463 H453 0.930 . S
C463 C456 1.409 . S
C463 C462 1.362 . S
H464 C470 0.930 . S
H465 C473 0.930 . S
H466 C474 0.930 . S
H467 C475 0.930 . S
H468 C478 0.930 . S
H469 C479 0.930 . S
C470 H464 0.930 . S
C470 C471 1.355 . S
C470 C472 1.415 . S
C471 C470 1.355 . S
C471 C473 1.419 . S
C472 C470 1.415 . S
C472 C477 1.425 . S
C472 C479 1.409 . S
C473 H465 0.930 . S
C473 C471 1.419 . S
C473 C474 1.362 . S
C474 H466 0.930 . S
C474 C473 1.362 . S
C474 C477 1.409 . S
C475 H467 0.930 . S
C475 C476 1.355 . S
C475 C477 1.415 . S
C476 C475 1.355 . S
C476 C478 1.419 . S
C477 C472 1.425 . S
C477 C474 1.409 . S
C477 C475 1.415 . S
C478 H468 0.930 . S
C478 C476 1.419 . S
C478 C479 1.362 . S
C479 H469 0.930 . S
C479 C472 1.409 . S
C479 C478 1.362 . S
H480 C486 0.930 . S
H481 C489 0.930 . S
H482 C490 0.930 . S
H483 C491 0.930 . S
H484 C494 0.930 . S
H485 C495 0.930 . S
C486 H480 0.930 . S
C486 C487 1.355 . S
C486 C488 1.415 . S
C487 C486 1.355 . S
C487 C489 1.419 . S
C488 C486 1.415 . S
C488 C493 1.425 . S
C488 C495 1.409 . S
C489 H481 0.930 . S
C489 C487 1.419 . S
C489 C490 1.362 . S
C490 H482 0.930 . S
C490 C489 1.362 . S
C490 C493 1.409 . S
C491 H483 0.930 . S
C491 C492 1.355 . S
C491 C493 1.415 . S
C492 C491 1.355 . S
C492 C494 1.419 . S
C493 C488 1.425 . S
C493 C490 1.409 . S
C493 C491 1.415 . S
C494 H484 0.930 . S
C494 C492 1.419 . S
C494 C495 1.362 . S
C495 H485 0.930 . S
C495 C488 1.409 . S
C495 C494 1.362 . S
H496 C502 0.930 . S
H497 C505 0.930 . S
H498 C506 0.930 . S
H499 C507 0.930 . S
H500 C510 0.930 . S
H501 C511 0.930 . S
C502 H496 0.930 . S
C502 C503 1.355 . S
C502 C504 1.415 . S
C503 C502 1.355 . S
C503 C505 1.419 . S
C504 C502 1.415 . S
C504 C509 1.425 . S
C504 C511 1.409 . S
C505 H497 0.930 . S
C505 C503 1.419 . S
C505 C506 1.362 . S
C506 H498 0.930 . S
C506 C505 1.362 . S
C506 C509 1.409 . S
C507 H499 0.930 . S
C507 C508 1.355 . S
C507 C509 1.415 . S
C508 C507 1.355 . S
C508 C510 1.419 . S
C509 C504 1.425 . S
C509 C506 1.409 . S
C509 C507 1.415 . S
C510 H500 0.930 . S
C510 C508 1.419 . S
C510 C511 1.362 . S
C511 H501 0.930 . S
C511 C504 1.409 . S
C511 C510 1.362 . S
H512 C518 0.930 . S
H513 C521 0.930 . S
H514 C522 0.930 . S
H515 C523 0.930 . S
H516 C526 0.930 . S
H517 C527 0.930 . S
C518 H512 0.930 . S
C518 C519 1.355 . S
C518 C520 1.415 . S
C519 C518 1.355 . S
C519 C521 1.419 . S
C520 C518 1.415 . S
C520 C525 1.425 . S
C520 C527 1.409 . S
C521 H513 0.930 . S
C521 C519 1.419 . S
C521 C522 1.362 . S
C522 H514 0.930 . S
C522 C521 1.362 . S
C522 C525 1.409 . S
C523 H515 0.930 . S
C523 C524 1.355 . S
C523 C525 1.415 . S
C524 C523 1.355 . S
C524 C526 1.419 . S
C525 C520 1.425 . S
C525 C522 1.409 . S
C525 C523 1.415 . S
C526 H516 0.930 . S
C526 C524 1.419 . S
C526 C527 1.362 . S
C527 H517 0.930 . S
C527 C520 1.409 . S
C527 C526 1.362 . S
H528 C534 0.930 . S
H529 C537 0.930 . S
H530 C538 0.930 . S
H531 C539 0.930 . S
H532 C542 0.930 . S
H533 C543 0.930 . S
C534 H528 0.930 . S
C534 C535 1.355 . S
C534 C536 1.415 . S
C535 C534 1.355 . S
C535 C537 1.419 . S
C536 C534 1.415 . S
C536 C541 1.425 . S
C536 C543 1.409 . S
C537 H529 0.930 . S
C537 C535 1.419 . S
C537 C538 1.362 . S
C538 H530 0.930 . S
C538 C537 1.362 . S
C538 C541 1.409 . S
C539 H531 0.930 . S
C539 C540 1.355 . S
C539 C541 1.415 . S
C540 C539 1.355 . S
C540 C542 1.419 . S
C541 C536 1.425 . S
C541 C538 1.409 . S
C541 C539 1.415 . S
C542 H532 0.930 . S
C542 C540 1.419 . S
C542 C543 1.362 . S
C543 H533 0.930 . S
C543 C536 1.409 . S
C543 C542 1.362 . S
H544 C550 0.930 . S
H545 C553 0.930 . S
H546 C554 0.930 . S
H547 C555 0.930 . S
H548 C558 0.930 . S
H549 C559 0.930 . S
C550 H544 0.930 . S
C550 C551 1.355 . S
C550 C552 1.415 . S
C551 C550 1.355 . S
C551 C553 1.419 . S
C552 C550 1.415 . S
C552 C557 1.425 . S
C552 C559 1.409 . S
C553 H545 0.930 . S
C553 C551 1.419 . S
C553 C554 1.362 . S
C554 H546 0.930 . S
C554 C553 1.362 . S
C554 C557 1.409 . S
C555 H547 0.930 . S
C555 C556 1.355 . S
C555 C557 1.415 . S
C556 C555 1.355 . S
C556 C558 1.419 . S
C557 C552 1.425 . S
C557 C554 1.409 . S
C557 C555 1.415 . S
C558 H548 0.930 . S
C558 C556 1.419 . S
C558 C559 1.362 . S
C559 H549 0.930 . S
C559 C552 1.409 . S
C559 C558 1.362 . S
H560 C566 0.930 . S
H561 C569 0.930 . S
H562 C570 0.930 . S
H563 C571 0.930 . S
H564 C574 0.930 . S
H565 C575 0.930 . S
C566 H560 0.930 . S
C566 C567 1.355 . S
C566 C568 1.415 . S
C567 C566 1.355 . S
C567 C569 1.419 . S
C568 C566 1.415 . S
C568 C573 1.425 . S
C568 C575 1.409 . S
C569 H561 0.930 . S
C569 C567 1.419 . S
C569 C570 1.362 . S
C570 H562 0.930 . S
C570 C569 1.362 . S
C570 C573 1.409 . S
C571 H563 0.930 . S
C571 C572 1.355 . S
C571 C573 1.415 . S
C572 C571 1.355 . S
C572 C574 1.419 . S
C573 C568 1.425 . S
C573 C570 1.409 . S
C573 C571 1.415 . S
C574 H564 0.930 . S
C574 C572 1.419 . S
C574 C575 1.362 . S
C575 H565 0.930 . S
C575 C568 1.409 . S
C575 C574 1.362 . S
H576 C582 0.930 . S
H577 C585 0.930 . S
H578 C586 0.930 . S
H579 C587 0.930 . S
H580 C590 0.930 . S
H581 C591 0.930 . S
C582 H576 0.930 . S
C582 C583 1.355 . S
C582 C584 1.415 . S
C583 C582 1.355 . S
C583 C585 1.419 . S
C584 C582 1.415 . S
C584 C589 1.425 . S
C584 C591 1.409 . S
C585 H577 0.930 . S
C585 C583 1.419 . S
C585 C586 1.362 . S
C586 H578 0.930 . S
C586 C585 1.362 . S
C586 C589 1.409 . S
C587 H579 0.930 . S
C587 C588 1.355 . S
C587 C589 1.415 . S
C588 C587 1.355 . S
C588 C590 1.419 . S
C589 C584 1.425 . S
C589 C586 1.409 . S
C589 C587 1.415 . S
C590 H580 0.930 . S
C590 C588 1.419 . S
C590 C591 1.362 . S
C591 H581 0.930 . S
C591 C584 1.409 . S
C591 C590 1.362 . S
H592 C598 0.930 . S
H593 C601 0.930 . S
H594 C602 0.930 . S
H595 C603 0.930 . S
H596 C606 0.930 . S
H597 C607 0.930 . S
C598 H592 0.930 . S
C598 C599 1.355 . S
C598 C600 1.415 . S
C599 C598 1.355 . S
C599 C601 1.419 . S
C600 C598 1.415 . S
C600 C605 1.425 . S
C600 C607 1.409 . S
C601 H593 0.930 . S
C601 C599 1.419 . S
C601 C602 1.362 . S
C602 H594 0.930 . S
C602 C601 1.362 . S
C602 C605 1.409 . S
C603 H595 0.930 . S
C603 C604 1.355 . S
C603 C605 1.415 . S
C604 C603 1.355 . S
C604 C606 1.419 . S
C605 C600 1.425 . S
C605 C602 1.409 . S
C605 C603 1.415 . S
C606 H596 0.930 . S
C606 C604 1.419 . S
C606 C607 1.362 . S
C607 H597 0.930 . S
C607 C600 1.409 . S
C607 C606 1.362 . S
H608 C614 0.930 . S
H609 C617 0.930 . S
H610 C618 0.930 . S
H611 C619 0.930 . S
H612 C622 0.930 . S
H613 C623 0.930 . S
C614 H608 0.930 . S
C614 C615 1.355 . S
C614 C616 1.415 . S
C615 C614 1.355 . S
C615 C617 1.419 . S
C616 C614 1.415 . S
C616 C621 1.425 . S
C616 C623 1.409 . S
C617 H609 0.930 . S
C617 C615 1.419 . S
C617 C618 1.362 . S
C618 H610 0.930 . S
C618 C617 1.362 . S
C618 C621 1.409 . S
C619 H611 0.930 . S
C619 C620 1.355 . S
C619 C621 1.415 . S
C620 C619 1.355 . S
C620 C622 1.419 . S
C621 C616 1.425 . S
C621 C618 1.409 . S
C621 C619 1.415 . S
C622 H612 0.930 . S
C622 C620 1.419 . S
C622 C623 1.362 . S
C623 H613 0.930 . S
C623 C616 1.409 . S
C623 C622 1.362 . S
H624 C630 0.930 . S
H625 C633 0.930 . S
H626 C634 0.930 . S
H627 C635 0.930 . S
H628 C638 0.930 . S
H629 C639 0.930 . S
C630 H624 0.930 . S
C630 C631 1.355 . S
C630 C632 1.415 . S
C631 C630 1.355 . S
C631 C633 1.419 . S
C632 C630 1.415 . S
C632 C637 1.425 . S
C632 C639 1.409 . S
C633 H625 0.930 . S
C633 C631 1.419 . S
C633 C634 1.362 . S
C634 H626 0.930 . S
C634 C633 1.362 . S
C634 C637 1.409 . S
C635 H627 0.930 . S
C635 C636 1.355 . S
C635 C637 1.415 . S
C636 C635 1.355 . S
C636 C638 1.419 . S
C637 C632 1.425 . S
C637 C634 1.409 . S
C637 C635 1.415 . S
C638 H628 0.930 . S
C638 C636 1.419 . S
C638 C639 1.362 . S
C639 H629 0.930 . S
C639 C632 1.409 . S
C639 C638 1.362 . S
H640 C646 0.930 . S
H641 C649 0.930 . S
H642 C650 0.930 . S
H643 C651 0.930 . S
H644 C654 0.930 . S
H645 C655 0.930 . S
C646 H640 0.930 . S
C646 C647 1.355 . S
C646 C648 1.415 . S
C647 C646 1.355 . S
C647 C649 1.419 . S
C648 C646 1.415 . S
C648 C653 1.425 . S
C648 C655 1.409 . S
C649 H641 0.930 . S
C649 C647 1.419 . S
C649 C650 1.362 . S
C650 H642 0.930 . S
C650 C649 1.362 . S
C650 C653 1.409 . S
C651 H643 0.930 . S
C651 C652 1.355 . S
C651 C653 1.415 . S
C652 C651 1.355 . S
C652 C654 1.419 . S
C653 C648 1.425 . S
C653 C650 1.409 . S
C653 C651 1.415 . S
C654 H644 0.930 . S
C654 C652 1.419 . S
C654 C655 1.362 . S
C655 H645 0.930 . S
C655 C648 1.409 . S
C655 C654 1.362 . S
H656 C662 0.930 . S
H657 C665 0.930 . S
H658 C666 0.930 . S
H659 C667 0.930 . S
H660 C670 0.930 . S
H661 C671 0.930 . S
C662 H656 0.930 . S
C662 C663 1.355 . S
C662 C664 1.415 . S
C663 C662 1.355 . S
C663 C665 1.419 . S
C664 C662 1.415 . S
C664 C669 1.425 . S
C664 C671 1.409 . S
C665 H657 0.930 . S
C665 C663 1.419 . S
C665 C666 1.362 . S
C666 H658 0.930 . S
C666 C665 1.362 . S
C666 C669 1.409 . S
C667 H659 0.930 . S
C667 C668 1.355 . S
C667 C669 1.415 . S
C668 C667 1.355 . S
C668 C670 1.419 . S
C669 C664 1.425 . S
C669 C666 1.409 . S
C669 C667 1.415 . S
C670 H660 0.930 . S
C670 C668 1.419 . S
C670 C671 1.362 . S
C671 H661 0.930 . S
C671 C664 1.409 . S
C671 C670 1.362 . S
H672 C678 0.930 . S
H673 C681 0.930 . S
H674 C682 0.930 . S
H675 C683 0.930 . S
H676 C686 0.930 . S
H677 C687 0.930 . S
C678 H672 0.930 . S
C678 C679 1.355 . S
C678 C680 1.415 . S
C679 C678 1.355 . S
C679 C681 1.419 . S
C680 C678 1.415 . S
C680 C685 1.425 . S
C680 C687 1.409 . S
C681 H673 0.930 . S
C681 C679 1.419 . S
C681 C682 1.362 . S
C682 H674 0.930 . S
C682 C681 1.362 . S
C682 C685 1.409 . S
C683 H675 0.930 . S
C683 C684 1.355 . S
C683 C685 1.415 . S
C684 C683 1.355 . S
C684 C686 1.419 . S
C685 C680 1.425 . S
C685 C682 1.409 . S
C685 C683 1.415 . S
C686 H676 0.930 . S
C686 C684 1.419 . S
C686 C687 1.362 . S
C687 H677 0.930 . S
C687 C680 1.409 . S
C687 C686 1.362 . S
H688 C694 0.930 . S
H689 C697 0.930 . S
H690 C698 0.930 . S
H691 C699 0.930 . S
H692 C702 0.930 . S
H693 C703 0.930 . S
C694 H688 0.930 . S
C694 C695 1.355 . S
C694 C696 1.415 . S
C695 C694 1.355 . S
C695 C697 1.419 . S
C696 C694 1.415 . S
C696 C701 1.425 . S
C696 C703 1.409 . S
C697 H689 0.930 . S
C697 C695 1.419 . S
C697 C698 1.362 . S
C698 H690 0.930 . S
C698 C697 1.362 . S
C698 C701 1.409 . S
C699 H691 0.930 . S
C699 C700 1.355 . S
C699 C701 1.415 . S
C700 C699 1.355 . S
C700 C702 1.419 . S
C701 C696 1.425 . S
C701 C698 1.409 . S
C701 C699 1.415 . S
C702 H692 0.930 . S
C702 C700 1.419 . S
C702 C703 1.362 . S
C703 H693 0.930 . S
C703 C696 1.409 . S
C703 C702 1.362 . S
H704 C710 0.930 . S
H705 C713 0.930 . S
H706 C714 0.930 . S
H707 C715 0.930 . S
H708 C718 0.930 . S
H709 C719 0.930 . S
C710 H704 0.930 . S
C710 C711 1.355 . S
C710 C712 1.415 . S
C711 C710 1.355 . S
C711 C713 1.419 . S
C712 C710 1.415 . S
C712 C717 1.425 1_655 S
C712 C719 1.409 1_655 S
C713 H705 0.930 . S
C713 C711 1.419 . S
C713 C714 1.362 . S
C714 H706 0.930 . S
C714 C713 1.362 . S
C714 C717 1.409 1_655 S
C715 H707 0.930 . S
C715 C716 1.355 . S
C715 C717 1.415 . S
C716 C715 1.355 . S
C716 C718 1.419 . S
C717 C712 1.425 1_455 S
C717 C714 1.409 1_455 S
C717 C715 1.415 . S
C718 H708 0.930 . S
C718 C716 1.419 . S
C718 C719 1.362 . S
C719 H709 0.930 . S
C719 C712 1.409 1_455 S
C719 C718 1.362 . S
H720 C726 0.930 . S
H721 C729 0.930 . S
H722 C730 0.930 . S
H723 C731 0.930 . S
H724 C734 0.930 . S
H725 C735 0.930 . S
C726 H720 0.930 . S
C726 C727 1.355 . S
C726 C728 1.415 . S
C727 C726 1.355 . S
C727 C729 1.419 . S
C728 C726 1.415 . S
C728 C733 1.425 1_565 S
C728 C735 1.409 1_565 S
C729 H721 0.930 . S
C729 C727 1.419 . S
C729 C730 1.362 . S
C730 H722 0.930 . S
C730 C729 1.362 . S
C730 C733 1.409 1_565 S
C731 H723 0.930 . S
C731 C732 1.355 . S
C731 C733 1.415 . S
C732 C731 1.355 . S
C732 C734 1.419 . S
C733 C728 1.425 1_545 S
C733 C730 1.409 1_545 S
C733 C731 1.415 . S
C734 H724 0.930 . S
C734 C732 1.419 . S
C734 C735 1.362 . S
C735 H725 0.930 . S
C735 C728 1.409 1_545 S
C735 C734 1.362 . S
H736 C742 0.930 . S
H737 C745 0.930 . S
H738 C746 0.930 . S
H739 C747 0.930 . S
H740 C750 0.930 . S
H741 C751 0.930 . S
C742 H736 0.930 . S
C742 C743 1.339 1_554 S
C742 C744 1.415 . S
C743 C742 1.339 1_556 S
C743 C745 1.439 . S
C744 C742 1.415 . S
C744 C749 1.425 1_464 S
C744 C751 1.409 1_565 S
C745 H737 0.930 . S
C745 C743 1.439 . S
C745 C746 1.362 1_455 S
C746 H738 0.930 . S
C746 C745 1.362 1_655 S
C746 C749 1.409 1_565 S
C747 H739 0.930 . S
C747 C748 1.347 1_556 S
C747 C749 1.415 . S
C748 C747 1.347 1_554 S
C748 C750 1.429 . S
C749 C744 1.425 1_646 S
C749 C746 1.409 1_545 S
C749 C747 1.415 . S
C750 H740 0.930 . S
C750 C748 1.429 . S
C750 C751 1.362 1_655 S
C751 H741 0.930 . S
C751 C744 1.409 1_545 S
C751 C750 1.362 1_455 S
H752 C758 0.930 . S
H753 C761 0.930 . S
H754 C762 0.930 . S
H755 C763 0.930 . S
H756 C766 0.930 . S
H757 C767 0.930 . S
C758 H752 0.930 . S
C758 C759 1.355 . S
C758 C760 1.415 . S
C759 C758 1.355 . S
C759 C761 1.419 1_556 S
C760 C758 1.415 . S
C760 C765 1.425 1_556 S
C760 C767 1.409 . S
C761 H753 0.930 . S
C761 C759 1.419 1_554 S
C761 C762 1.362 . S
C762 H754 0.930 . S
C762 C761 1.362 . S
C762 C765 1.409 . S
C763 H755 0.930 . S
C763 C764 1.355 . S
C763 C765 1.415 . S
C764 C763 1.355 . S
C764 C766 1.419 1_554 S
C765 C760 1.425 1_554 S
C765 C762 1.409 . S
C765 C763 1.415 . S
C766 H756 0.930 . S
C766 C764 1.419 1_556 S
C766 C767 1.362 . S
C767 H757 0.930 . S
C767 C760 1.409 . S
C767 C766 1.362 . S
H768 C774 0.930 . S
H769 C777 0.930 . S
H770 C778 0.930 . S
H771 C779 0.930 . S
H772 C782 0.930 . S
H773 C783 0.930 . S
C774 H768 0.930 . S
C774 C775 1.355 1_455 S
C774 C776 1.415 . S
C775 C774 1.355 1_655 S
C775 C777 1.419 . S
C776 C774 1.415 . S
C776 C781 1.425 1_455 S
C776 C783 1.409 . S
C777 H769 0.930 . S
C777 C775 1.419 . S
C777 C778 1.362 . S
C778 H770 0.930 . S
C778 C777 1.362 . S
C778 C781 1.409 . S
C779 H771 0.930 . S
C779 C780 1.355 1_655 S
C779 C781 1.415 . S
C780 C779 1.355 1_455 S
C780 C782 1.419 . S
C781 C776 1.425 1_655 S
C781 C778 1.409 . S
C781 C779 1.415 . S
C782 H772 0.930 . S
C782 C780 1.419 . S
C782 C783 1.362 . S
C783 H773 0.930 . S
C783 C776 1.409 . S
C783 C782 1.362 . S
H784 C790 0.930 . S
H785 C793 0.930 . S
H786 C794 0.930 1_545 S
H787 C795 0.930 . S
H788 C798 0.930 . S
H789 C799 0.930 1_565 S
C790 H784 0.930 . S
C790 C791 1.355 . S
C790 C792 1.415 . S
C791 C790 1.355 . S
C791 C793 1.419 . S
C792 C790 1.415 . S
C792 C797 1.425 1_565 S
C792 C799 1.409 1_565 S
C793 H785 0.930 . S
C793 C791 1.419 . S
C793 C794 1.362 . S
C794 H786 0.930 1_565 S
C794 C793 1.362 . S
C794 C797 1.409 1_565 S
C795 H787 0.930 . S
C795 C796 1.355 . S
C795 C797 1.415 . S
C796 C795 1.355 . S
C796 C798 1.419 . S
C797 C792 1.425 1_545 S
C797 C794 1.409 1_545 S
C797 C795 1.415 . S
C798 H788 0.930 . S
C798 C796 1.419 . S
C798 C799 1.362 . S
C799 H789 0.930 1_545 S
C799 C792 1.409 1_545 S
C799 C798 1.362 . S
H800 C806 0.930 . S
H801 C809 0.930 . S
H802 C810 0.930 . S
H803 C811 0.930 . S
H804 C814 0.930 . S
H805 C815 0.930 . S
C806 H800 0.930 . S
C806 C807 1.355 . S
C806 C808 1.415 . S
C807 C806 1.355 . S
C807 C809 1.419 1_554 S
C808 C806 1.415 . S
C808 C813 1.425 1_554 S
C808 C815 1.409 . S
C809 H801 0.930 . S
C809 C807 1.419 1_556 S
C809 C810 1.362 . S
C810 H802 0.930 . S
C810 C809 1.362 . S
C810 C813 1.409 . S
C811 H803 0.930 . S
C811 C812 1.355 . S
C811 C813 1.415 . S
C812 C811 1.355 . S
C812 C814 1.419 1_556 S
C813 C808 1.425 1_556 S
C813 C810 1.409 . S
C813 C811 1.415 . S
C814 H804 0.930 . S
C814 C812 1.419 1_554 S
C814 C815 1.362 . S
C815 H805 0.930 . S
C815 C808 1.409 . S
C815 C814 1.362 . S
H816 C822 0.930 . S
H817 C825 0.930 . S
H818 C826 0.930 . S
H819 C827 0.930 . S
H820 C830 0.930 . S
H821 C831 0.930 . S
C822 H816 0.930 . S
C822 C823 1.355 . S
C822 C824 1.415 . S
C823 C822 1.355 . S
C823 C825 1.419 . S
C824 C822 1.415 . S
C824 C829 1.425 . S
C824 C831 1.409 . S
C825 H817 0.930 . S
C825 C823 1.419 . S
C825 C826 1.362 . S
C826 H818 0.930 . S
C826 C825 1.362 . S
C826 C829 1.409 . S
C827 H819 0.930 . S
C827 C828 1.355 . S
C827 C829 1.415 . S
C828 C827 1.355 . S
C828 C830 1.419 . S
C829 C824 1.425 . S
C829 C826 1.409 . S
C829 C827 1.415 . S
C830 H820 0.930 . S
C830 C828 1.419 . S
C830 C831 1.362 . S
C831 H821 0.930 . S
C831 C824 1.409 . S
C831 C830 1.362 . S
H832 C838 0.930 . S
H833 C841 0.930 . S
H834 C842 0.930 . S
H835 C843 0.930 . S
H836 C846 0.930 . S
H837 C847 0.930 . S
C838 H832 0.930 . S
C838 C839 1.355 1_455 S
C838 C840 1.415 . S
C839 C838 1.355 1_655 S
C839 C841 1.419 . S
C840 C838 1.415 . S
C840 C845 1.425 1_455 S
C840 C847 1.409 . S
C841 H833 0.930 . S
C841 C839 1.419 . S
C841 C842 1.362 . S
C842 H834 0.930 . S
C842 C841 1.362 . S
C842 C845 1.409 . S
C843 H835 0.930 . S
C843 C844 1.355 1_655 S
C843 C845 1.415 . S
C844 C843 1.355 1_455 S
C844 C846 1.419 . S
C845 C840 1.425 1_655 S
C845 C842 1.409 . S
C845 C843 1.415 . S
C846 H836 0.930 . S
C846 C844 1.419 . S
C846 C847 1.362 . S
C847 H837 0.930 . S
C847 C840 1.409 . S
C847 C846 1.362 . S
H848 C854 0.930 . S
H849 C857 0.930 . S
H850 C858 0.930 . S
H851 C859 0.930 . S
H852 C862 0.930 . S
H853 C863 0.930 . S
C854 H848 0.930 . S
C854 C855 1.355 . S
C854 C856 1.415 . S
C855 C854 1.355 . S
C855 C857 1.419 . S
C856 C854 1.415 . S
C856 C861 1.425 . S
C856 C863 1.409 . S
C857 H849 0.930 . S
C857 C855 1.419 . S
C857 C858 1.362 . S
C858 H850 0.930 . S
C858 C857 1.362 . S
C858 C861 1.409 . S
C859 H851 0.930 . S
C859 C860 1.355 . S
C859 C861 1.415 . S
C860 C859 1.355 . S
C860 C862 1.419 . S
C861 C856 1.425 . S
C861 C858 1.409 . S
C861 C859 1.415 . S
C862 H852 0.930 . S
C862 C860 1.419 . S
C862 C863 1.362 . S
C863 H853 0.930 . S
C863 C856 1.409 . S
C863 C862 1.362 . S
H864 C870 0.930 . S
H865 C873 0.930 . S
H866 C874 0.930 . S
H867 C875 0.930 . S
H868 C878 0.930 . S
H869 C879 0.930 . S
C870 H864 0.930 . S
C870 C871 1.355 . S
C870 C872 1.415 . S
C871 C870 1.355 . S
C871 C873 1.419 . S
C872 C870 1.415 . S
C872 C877 1.425 . S
C872 C879 1.409 . S
C873 H865 0.930 . S
C873 C871 1.419 . S
C873 C874 1.362 . S
C874 H866 0.930 . S
C874 C873 1.362 . S
C874 C877 1.409 . S
C875 H867 0.930 . S
C875 C876 1.355 . S
C875 C877 1.415 . S
C876 C875 1.355 . S
C876 C878 1.419 . S
C877 C872 1.425 . S
C877 C874 1.409 . S
C877 C875 1.415 . S
C878 H868 0.930 . S
C878 C876 1.419 . S
C878 C879 1.362 . S
C879 H869 0.930 . S
C879 C872 1.409 . S
C879 C878 1.362 . S
H880 C886 0.930 . S
H881 C889 0.930 . S
H882 C890 0.930 . S
H883 C891 0.930 . S
H884 C894 0.930 . S
H885 C895 0.930 . S
C886 H880 0.930 . S
C886 C887 1.355 . S
C886 C888 1.415 . S
C887 C886 1.355 . S
C887 C889 1.419 . S
C888 C886 1.415 . S
C888 C893 1.425 . S
C888 C895 1.409 . S
C889 H881 0.930 . S
C889 C887 1.419 . S
C889 C890 1.362 . S
C890 H882 0.930 . S
C890 C889 1.362 . S
C890 C893 1.409 . S
C891 H883 0.930 . S
C891 C892 1.355 . S
C891 C893 1.415 . S
C892 C891 1.355 . S
C892 C894 1.419 . S
C893 C888 1.425 . S
C893 C890 1.409 . S
C893 C891 1.415 . S
C894 H884 0.930 . S
C894 C892 1.419 . S
C894 C895 1.362 . S
C895 H885 0.930 . S
C895 C888 1.409 . S
C895 C894 1.362 . S
H896 C902 0.930 . S
H897 C905 0.930 . S
H898 C906 0.930 . S
H899 C907 0.930 . S
H900 C910 0.930 . S
H901 C911 0.930 . S
C902 H896 0.930 . S
C902 C903 1.355 . S
C902 C904 1.415 . S
C903 C902 1.355 . S
C903 C905 1.419 . S
C904 C902 1.415 . S
C904 C909 1.425 . S
C904 C911 1.409 . S
C905 H897 0.930 . S
C905 C903 1.419 . S
C905 C906 1.362 . S
C906 H898 0.930 . S
C906 C905 1.362 . S
C906 C909 1.409 . S
C907 H899 0.930 . S
C907 C908 1.355 . S
C907 C909 1.415 . S
C908 C907 1.355 . S
C908 C910 1.419 . S
C909 C904 1.425 . S
C909 C906 1.409 . S
C909 C907 1.415 . S
C910 H900 0.930 . S
C910 C908 1.419 . S
C910 C911 1.362 . S
C911 H901 0.930 . S
C911 C904 1.409 . S
C911 C910 1.362 . S
H912 C918 0.930 . S
H913 C921 0.930 . S
H914 C922 0.930 . S
H915 C923 0.930 . S
H916 C926 0.930 . S
H917 C927 0.930 . S
C918 H912 0.930 . S
C918 C919 1.355 . S
C918 C920 1.415 . S
C919 C918 1.355 . S
C919 C921 1.419 . S
C920 C918 1.415 . S
C920 C925 1.425 1_545 S
C920 C927 1.409 1_545 S
C921 H913 0.930 . S
C921 C919 1.419 . S
C921 C922 1.362 . S
C922 H914 0.930 . S
C922 C921 1.362 . S
C922 C925 1.409 1_545 S
C923 H915 0.930 . S
C923 C924 1.355 . S
C923 C925 1.415 . S
C924 C923 1.355 . S
C924 C926 1.419 . S
C925 C920 1.425 1_565 S
C925 C922 1.409 1_565 S
C925 C923 1.415 . S
C926 H916 0.930 . S
C926 C924 1.419 . S
C926 C927 1.362 . S
C927 H917 0.930 . S
C927 C920 1.409 1_565 S
C927 C926 1.362 . S
H928 C934 0.930 . S
H929 C937 0.930 . S
H930 C938 0.930 . S
H931 C939 0.930 . S
H932 C942 0.930 . S
H933 C943 0.930 . S
C934 H928 0.930 . S
C934 C935 1.355 . S
C934 C936 1.415 . S
C935 C934 1.355 . S
C935 C937 1.419 . S
C936 C934 1.415 . S
C936 C941 1.425 . S
C936 C943 1.409 . S
C937 H929 0.930 . S
C937 C935 1.419 . S
C937 C938 1.362 . S
C938 H930 0.930 . S
C938 C937 1.362 . S
C938 C941 1.409 . S
C939 H931 0.930 . S
C939 C940 1.355 . S
C939 C941 1.415 . S
C940 C939 1.355 . S
C940 C942 1.419 . S
C941 C936 1.425 . S
C941 C938 1.409 . S
C941 C939 1.415 . S
C942 H932 0.930 . S
C942 C940 1.419 . S
C942 C943 1.362 . S
C943 H933 0.930 . S
C943 C936 1.409 . S
C943 C942 1.362 . S
H944 C950 0.930 . S
H945 C953 0.930 . S
H946 C954 0.930 . S
H947 C955 0.930 . S
H948 C958 0.930 . S
H949 C959 0.930 . S
C950 H944 0.930 . S
C950 C951 1.355 1_556 S
C950 C952 1.415 . S
C951 C950 1.355 1_554 S
C951 C953 1.419 . S
C952 C950 1.415 . S
C952 C957 1.425 1_556 S
C952 C959 1.409 . S
C953 H945 0.930 . S
C953 C951 1.419 . S
C953 C954 1.362 . S
C954 H946 0.930 . S
C954 C953 1.362 . S
C954 C957 1.409 . S
C955 H947 0.930 . S
C955 C956 1.355 1_554 S
C955 C957 1.415 . S
C956 C955 1.355 1_556 S
C956 C958 1.419 . S
C957 C952 1.425 1_554 S
C957 C954 1.409 . S
C957 C955 1.415 . S
C958 H948 0.930 . S
C958 C956 1.419 . S
C958 C959 1.362 . S
C959 H949 0.930 . S
C959 C952 1.409 . S
C959 C958 1.362 . S
H960 C966 0.930 . S
H961 C969 0.930 . S
H962 C970 0.930 . S
H963 C971 0.930 . S
H964 C974 0.930 . S
H965 C975 0.930 . S
C966 H960 0.930 . S
C966 C967 1.355 . S
C966 C968 1.415 . S
C967 C966 1.355 . S
C967 C969 1.419 . S
C968 C966 1.415 . S
C968 C973 1.425 . S
C968 C975 1.409 . S
C969 H961 0.930 . S
C969 C967 1.419 . S
C969 C970 1.362 . S
C970 H962 0.930 . S
C970 C969 1.362 . S
C970 C973 1.409 . S
C971 H963 0.930 . S
C971 C972 1.355 . S
C971 C973 1.415 . S
C972 C971 1.355 . S
C972 C974 1.419 . S
C973 C968 1.425 . S
C973 C970 1.409 . S
C973 C971 1.415 . S
C974 H964 0.930 . S
C974 C972 1.419 . S
C974 C975 1.362 . S
C975 H965 0.930 . S
C975 C968 1.409 . S
C975 C974 1.362 . S
H976 C982 0.930 . S
H977 C985 0.930 . S
H978 C986 0.930 . S
H979 C987 0.930 . S
H980 C990 0.930 . S
H981 C991 0.930 . S
C982 H976 0.930 . S
C982 C983 1.355 . S
C982 C984 1.415 . S
C983 C982 1.355 . S
C983 C985 1.419 . S
C984 C982 1.415 . S
C984 C989 1.425 . S
C984 C991 1.409 . S
C985 H977 0.930 . S
C985 C983 1.419 . S
C985 C986 1.362 . S
C986 H978 0.930 . S
C986 C985 1.362 . S
C986 C989 1.409 . S
C987 H979 0.930 . S
C987 C988 1.355 . S
C987 C989 1.415 . S
C988 C987 1.355 . S
C988 C990 1.419 . S
C989 C984 1.425 . S
C989 C986 1.409 . S
C989 C987 1.415 . S
C990 H980 0.930 . S
C990 C988 1.419 . S
C990 C991 1.362 . S
C991 H981 0.930 . S
C991 C984 1.409 . S
C991 C990 1.362 . S
H992 C998 0.930 . S
H993 C1001 0.930 . S
H994 C1002 0.930 . S
H995 C1003 0.930 . S
H996 C1006 0.930 . S
H997 C1007 0.930 . S
C998 H992 0.930 . S
C998 C999 1.355 . S
C998 C1000 1.415 . S
C999 C998 1.355 . S
C999 C1001 1.419 . S
C1000 C998 1.415 . S
C1000 C1005 1.425 . S
C1000 C1007 1.409 . S
C1001 H993 0.930 . S
C1001 C999 1.419 . S
C1001 C1002 1.362 . S
C1002 H994 0.930 . S
C1002 C1001 1.362 . S
C1002 C1005 1.409 . S
C1003 H995 0.930 . S
C1003 C1004 1.355 . S
C1003 C1005 1.415 . S
C1004 C1003 1.355 . S
C1004 C1006 1.419 . S
C1005 C1000 1.425 . S
C1005 C1002 1.409 . S
C1005 C1003 1.415 . S
C1006 H996 0.930 . S
C1006 C1004 1.419 . S
C1006 C1007 1.362 . S
C1007 H997 0.930 . S
C1007 C1000 1.409 . S
C1007 C1006 1.362 . S
H1008 C1014 0.930 . S
H1009 C1017 0.930 . S
H1010 C1018 0.930 . S
H1011 C1019 0.930 . S
H1012 C1022 0.930 . S
H1013 C1023 0.930 . S
C1014 H1008 0.930 . S
C1014 C1015 1.355 . S
C1014 C1016 1.415 . S
C1015 C1014 1.355 . S
C1015 C1017 1.419 . S
C1016 C1014 1.415 . S
C1016 C1021 1.425 . S
C1016 C1023 1.409 . S
C1017 H1009 0.930 . S
C1017 C1015 1.419 . S
C1017 C1018 1.362 . S
C1018 H1010 0.930 . S
C1018 C1017 1.362 . S
C1018 C1021 1.409 . S
C1019 H1011 0.930 . S
C1019 C1020 1.355 . S
C1019 C1021 1.415 . S
C1020 C1019 1.355 . S
C1020 C1022 1.419 . S
C1021 C1016 1.425 . S
C1021 C1018 1.409 . S
C1021 C1019 1.415 . S
C1022 H1012 0.930 . S
C1022 C1020 1.419 . S
C1022 C1023 1.362 . S
C1023 H1013 0.930 . S
C1023 C1016 1.409 . S
C1023 C1022 1.362 . S
H1024 C1030 0.930 . S
H1025 C1033 0.930 . S
H1026 C1034 0.930 . S
H1027 C1035 0.930 . S
H1028 C1038 0.930 1_455 S
H1029 C1039 0.930 1_455 S
C1030 H1024 0.930 . S
C1030 C1031 1.355 . S
C1030 C1032 1.415 . S
C1031 C1030 1.355 . S
C1031 C1033 1.419 . S
C1032 C1030 1.415 . S
C1032 C1037 1.425 . S
C1032 C1039 1.409 . S
C1033 H1025 0.930 . S
C1033 C1031 1.419 . S
C1033 C1034 1.362 . S
C1034 H1026 0.930 . S
C1034 C1033 1.362 . S
C1034 C1037 1.409 . S
C1035 H1027 0.930 . S
C1035 C1036 1.355 . S
C1035 C1037 1.415 . S
C1036 C1035 1.355 . S
C1036 C1038 1.419 . S
C1037 C1032 1.425 . S
C1037 C1034 1.409 . S
C1037 C1035 1.415 . S
C1038 H1028 0.930 1_655 S
C1038 C1036 1.419 . S
C1038 C1039 1.362 . S
C1039 H1029 0.930 1_655 S
C1039 C1032 1.409 . S
C1039 C1038 1.362 . S
H1040 C1046 0.930 . S
H1041 C1049 0.930 . S
H1042 C1050 0.930 . S
H1043 C1051 0.930 . S
H1044 C1054 0.930 . S
H1045 C1055 0.930 . S
C1046 H1040 0.930 . S
C1046 C1047 1.355 . S
C1046 C1048 1.415 . S
C1047 C1046 1.355 . S
C1047 C1049 1.419 . S
C1048 C1046 1.415 . S
C1048 C1053 1.425 . S
C1048 C1055 1.409 . S
C1049 H1041 0.930 . S
C1049 C1047 1.419 . S
C1049 C1050 1.362 . S
C1050 H1042 0.930 . S
C1050 C1049 1.362 . S
C1050 C1053 1.409 . S
C1051 H1043 0.930 . S
C1051 C1052 1.355 . S
C1051 C1053 1.415 . S
C1052 C1051 1.355 . S
C1052 C1054 1.419 . S
C1053 C1048 1.425 . S
C1053 C1050 1.409 . S
C1053 C1051 1.415 . S
C1054 H1044 0.930 . S
C1054 C1052 1.419 . S
C1054 C1055 1.362 . S
C1055 H1045 0.930 . S
C1055 C1048 1.409 . S
C1055 C1054 1.362 . S
H1056 C1062 0.930 . S
H1057 C1065 0.930 . S
H1058 C1066 0.930 . S
H1059 C1067 0.930 . S
H1060 C1070 0.930 . S
H1061 C1071 0.930 . S
C1062 H1056 0.930 . S
C1062 C1063 1.355 . S
C1062 C1064 1.415 . S
C1063 C1062 1.355 . S
C1063 C1065 1.419 . S
C1064 C1062 1.415 . S
C1064 C1069 1.425 . S
C1064 C1071 1.409 . S
C1065 H1057 0.930 . S
C1065 C1063 1.419 . S
C1065 C1066 1.362 . S
C1066 H1058 0.930 . S
C1066 C1065 1.362 . S
C1066 C1069 1.409 . S
C1067 H1059 0.930 . S
C1067 C1068 1.355 . S
C1067 C1069 1.415 . S
C1068 C1067 1.355 . S
C1068 C1070 1.419 . S
C1069 C1064 1.425 . S
C1069 C1066 1.409 . S
C1069 C1067 1.415 . S
C1070 H1060 0.930 . S
C1070 C1068 1.419 . S
C1070 C1071 1.362 . S
C1071 H1061 0.930 . S
C1071 C1064 1.409 . S
C1071 C1070 1.362 . S
H1072 C1078 0.930 . S
H1073 C1081 0.930 . S
H1074 C1082 0.930 . S
H1075 C1083 0.930 . S
H1076 C1086 0.930 . S
H1077 C1087 0.930 . S
C1078 H1072 0.930 . S
C1078 C1079 1.355 . S
C1078 C1080 1.415 . S
C1079 C1078 1.355 . S
C1079 C1081 1.419 . S
C1080 C1078 1.415 . S
C1080 C1085 1.425 . S
C1080 C1087 1.409 . S
C1081 H1073 0.930 . S
C1081 C1079 1.419 . S
C1081 C1082 1.362 . S
C1082 H1074 0.930 . S
C1082 C1081 1.362 . S
C1082 C1085 1.409 . S
C1083 H1075 0.930 . S
C1083 C1084 1.355 . S
C1083 C1085 1.415 . S
C1084 C1083 1.355 . S
C1084 C1086 1.419 . S
C1085 C1080 1.425 . S
C1085 C1082 1.409 . S
C1085 C1083 1.415 . S
C1086 H1076 0.930 . S
C1086 C1084 1.419 . S
C1086 C1087 1.362 . S
C1087 H1077 0.930 . S
C1087 C1080 1.409 . S
C1087 C1086 1.362 . S
H1088 C1094 0.930 . S
H1089 C1097 0.930 . S
H1090 C1098 0.930 . S
H1091 C1099 0.930 . S
H1092 C1102 0.930 . S
H1093 C1103 0.930 . S
C1094 H1088 0.930 . S
C1094 C1095 1.355 . S
C1094 C1096 1.415 . S
C1095 C1094 1.355 . S
C1095 C1097 1.419 . S
C1096 C1094 1.415 . S
C1096 C1101 1.425 . S
C1096 C1103 1.409 . S
C1097 H1089 0.930 . S
C1097 C1095 1.419 . S
C1097 C1098 1.362 . S
C1098 H1090 0.930 . S
C1098 C1097 1.362 . S
C1098 C1101 1.409 . S
C1099 H1091 0.930 . S
C1099 C1100 1.355 . S
C1099 C1101 1.415 . S
C1100 C1099 1.355 . S
C1100 C1102 1.419 . S
C1101 C1096 1.425 . S
C1101 C1098 1.409 . S
C1101 C1099 1.415 . S
C1102 H1092 0.930 . S
C1102 C1100 1.419 . S
C1102 C1103 1.362 . S
C1103 H1093 0.930 . S
C1103 C1096 1.409 . S
C1103 C1102 1.362 . S
H1104 C1110 0.930 . S
H1105 C1113 0.930 . S
H1106 C1114 0.930 . S
H1107 C1115 0.930 . S
H1108 C1118 0.930 . S
H1109 C1119 0.930 . S
C1110 H1104 0.930 . S
C1110 C1111 1.355 . S
C1110 C1112 1.415 . S
C1111 C1110 1.355 . S
C1111 C1113 1.419 . S
C1112 C1110 1.415 . S
C1112 C1117 1.425 . S
C1112 C1119 1.409 . S
C1113 H1105 0.930 . S
C1113 C1111 1.419 . S
C1113 C1114 1.362 . S
C1114 H1106 0.930 . S
C1114 C1113 1.362 . S
C1114 C1117 1.409 . S
C1115 H1107 0.930 . S
C1115 C1116 1.355 . S
C1115 C1117 1.415 . S
C1116 C1115 1.355 . S
C1116 C1118 1.419 . S
C1117 C1112 1.425 . S
C1117 C1114 1.409 . S
C1117 C1115 1.415 . S
C1118 H1108 0.930 . S
C1118 C1116 1.419 . S
C1118 C1119 1.362 . S
C1119 H1109 0.930 . S
C1119 C1112 1.409 . S
C1119 C1118 1.362 . S
H1120 C1126 0.930 . S
H1121 C1129 0.930 . S
H1122 C1130 0.930 . S
H1123 C1131 0.930 . S
H1124 C1134 0.930 . S
H1125 C1135 0.930 . S
C1126 H1120 0.930 . S
C1126 C1127 1.355 . S
C1126 C1128 1.415 . S
C1127 C1126 1.355 . S
C1127 C1129 1.419 . S
C1128 C1126 1.415 . S
C1128 C1133 1.425 . S
C1128 C1135 1.409 . S
C1129 H1121 0.930 . S
C1129 C1127 1.419 . S
C1129 C1130 1.362 . S
C1130 H1122 0.930 . S
C1130 C1129 1.362 . S
C1130 C1133 1.409 . S
C1131 H1123 0.930 . S
C1131 C1132 1.355 . S
C1131 C1133 1.415 . S
C1132 C1131 1.355 . S
C1132 C1134 1.419 . S
C1133 C1128 1.425 . S
C1133 C1130 1.409 . S
C1133 C1131 1.415 . S
C1134 H1124 0.930 . S
C1134 C1132 1.419 . S
C1134 C1135 1.362 . S
C1135 H1125 0.930 . S
C1135 C1128 1.409 . S
C1135 C1134 1.362 . S
H1136 C1142 0.930 . S
H1137 C1145 0.930 . S
H1138 C1146 0.930 . S
H1139 C1147 0.930 . S
H1140 C1150 0.930 . S
H1141 C1151 0.930 . S
C1142 H1136 0.930 . S
C1142 C1143 1.355 . S
C1142 C1144 1.415 . S
C1143 C1142 1.355 . S
C1143 C1145 1.419 . S
C1144 C1142 1.415 . S
C1144 C1149 1.425 . S
C1144 C1151 1.409 . S
C1145 H1137 0.930 . S
C1145 C1143 1.419 . S
C1145 C1146 1.362 . S
C1146 H1138 0.930 . S
C1146 C1145 1.362 . S
C1146 C1149 1.409 . S
C1147 H1139 0.930 . S
C1147 C1148 1.355 . S
C1147 C1149 1.415 . S
C1148 C1147 1.355 . S
C1148 C1150 1.419 . S
C1149 C1144 1.425 . S
C1149 C1146 1.409 . S
C1149 C1147 1.415 . S
C1150 H1140 0.930 . S
C1150 C1148 1.419 . S
C1150 C1151 1.362 . S
C1151 H1141 0.930 . S
C1151 C1144 1.409 . S
C1151 C1150 1.362 . S
H1152 C1158 0.930 . S
H1153 C1161 0.930 . S
H1154 C1162 0.930 . S
H1155 C1163 0.930 . S
H1156 C1166 0.930 . S
H1157 C1167 0.930 . S
C1158 H1152 0.930 . S
C1158 C1159 1.355 . S
C1158 C1160 1.415 . S
C1159 C1158 1.355 . S
C1159 C1161 1.419 . S
C1160 C1158 1.415 . S
C1160 C1165 1.425 . S
C1160 C1167 1.409 . S
C1161 H1153 0.930 . S
C1161 C1159 1.419 . S
C1161 C1162 1.362 . S
C1162 H1154 0.930 . S
C1162 C1161 1.362 . S
C1162 C1165 1.409 . S
C1163 H1155 0.930 . S
C1163 C1164 1.355 . S
C1163 C1165 1.415 . S
C1164 C1163 1.355 . S
C1164 C1166 1.419 . S
C1165 C1160 1.425 . S
C1165 C1162 1.409 . S
C1165 C1163 1.415 . S
C1166 H1156 0.930 . S
C1166 C1164 1.419 . S
C1166 C1167 1.362 . S
C1167 H1157 0.930 . S
C1167 C1160 1.409 . S
C1167 C1166 1.362 . S
H1168 C1174 0.930 . S
H1169 C1177 0.930 . S
H1170 C1178 0.930 . S
H1171 C1179 0.930 . S
H1172 C1182 0.930 . S
H1173 C1183 0.930 . S
C1174 H1168 0.930 . S
C1174 C1175 1.355 . S
C1174 C1176 1.415 . S
C1175 C1174 1.355 . S
C1175 C1177 1.419 . S
C1176 C1174 1.415 . S
C1176 C1181 1.425 . S
C1176 C1183 1.409 . S
C1177 H1169 0.930 . S
C1177 C1175 1.419 . S
C1177 C1178 1.362 . S
C1178 H1170 0.930 . S
C1178 C1177 1.362 . S
C1178 C1181 1.409 . S
C1179 H1171 0.930 . S
C1179 C1180 1.355 . S
C1179 C1181 1.415 . S
C1180 C1179 1.355 . S
C1180 C1182 1.419 . S
C1181 C1176 1.425 . S
C1181 C1178 1.409 . S
C1181 C1179 1.415 . S
C1182 H1172 0.930 . S
C1182 C1180 1.419 . S
C1182 C1183 1.362 . S
C1183 H1173 0.930 . S
C1183 C1176 1.409 . S
C1183 C1182 1.362 . S
H1184 C1190 0.930 . S
H1185 C1193 0.930 . S
H1186 C1194 0.930 . S
H1187 C1195 0.930 . S
H1188 C1198 0.930 . S
H1189 C1199 0.930 . S
C1190 H1184 0.930 . S
C1190 C1191 1.355 . S
C1190 C1192 1.415 . S
C1191 C1190 1.355 . S
C1191 C1193 1.419 . S
C1192 C1190 1.415 . S
C1192 C1197 1.425 . S
C1192 C1199 1.409 . S
C1193 H1185 0.930 . S
C1193 C1191 1.419 . S
C1193 C1194 1.362 . S
C1194 H1186 0.930 . S
C1194 C1193 1.362 . S
C1194 C1197 1.409 . S
C1195 H1187 0.930 . S
C1195 C1196 1.355 . S
C1195 C1197 1.415 . S
C1196 C1195 1.355 . S
C1196 C1198 1.419 . S
C1197 C1192 1.425 . S
C1197 C1194 1.409 . S
C1197 C1195 1.415 . S
C1198 H1188 0.930 . S
C1198 C1196 1.419 . S
C1198 C1199 1.362 . S
C1199 H1189 0.930 . S
C1199 C1192 1.409 . S
C1199 C1198 1.362 . S
H1200 C1206 0.930 . S
H1201 C1209 0.930 . S
H1202 C1210 0.930 . S
H1203 C1211 0.930 . S
H1204 C1214 0.930 . S
H1205 C1215 0.930 . S
C1206 H1200 0.930 . S
C1206 C1207 1.355 . S
C1206 C1208 1.415 . S
C1207 C1206 1.355 . S
C1207 C1209 1.419 . S
C1208 C1206 1.415 . S
C1208 C1213 1.425 . S
C1208 C1215 1.409 . S
C1209 H1201 0.930 . S
C1209 C1207 1.419 . S
C1209 C1210 1.362 . S
C1210 H1202 0.930 . S
C1210 C1209 1.362 . S
C1210 C1213 1.409 . S
C1211 H1203 0.930 . S
C1211 C1212 1.355 . S
C1211 C1213 1.415 . S
C1212 C1211 1.355 . S
C1212 C1214 1.419 . S
C1213 C1208 1.425 . S
C1213 C1210 1.409 . S
C1213 C1211 1.415 . S
C1214 H1204 0.930 . S
C1214 C1212 1.419 . S
C1214 C1215 1.362 . S
C1215 H1205 0.930 . S
C1215 C1208 1.409 . S
C1215 C1214 1.362 . S
H1216 C1222 0.930 . S
H1217 C1225 0.930 . S
H1218 C1226 0.930 . S
H1219 C1227 0.930 . S
H1220 C1230 0.930 . S
H1221 C1231 0.930 . S
C1222 H1216 0.930 . S
C1222 C1223 1.355 . S
C1222 C1224 1.415 . S
C1223 C1222 1.355 . S
C1223 C1225 1.419 . S
C1224 C1222 1.415 . S
C1224 C1229 1.425 . S
C1224 C1231 1.409 . S
C1225 H1217 0.930 . S
C1225 C1223 1.419 . S
C1225 C1226 1.362 . S
C1226 H1218 0.930 . S
C1226 C1225 1.362 . S
C1226 C1229 1.409 . S
C1227 H1219 0.930 . S
C1227 C1228 1.355 . S
C1227 C1229 1.415 . S
C1228 C1227 1.355 . S
C1228 C1230 1.419 . S
C1229 C1224 1.425 . S
C1229 C1226 1.409 . S
C1229 C1227 1.415 . S
C1230 H1220 0.930 . S
C1230 C1228 1.419 . S
C1230 C1231 1.362 . S
C1231 H1221 0.930 . S
C1231 C1224 1.409 . S
C1231 C1230 1.362 . S
H1232 C1238 0.930 . S
H1233 C1241 0.930 . S
H1234 C1242 0.930 . S
H1235 C1243 0.930 . S
H1236 C1246 0.930 . S
H1237 C1247 0.930 . S
C1238 H1232 0.930 . S
C1238 C1239 1.355 . S
C1238 C1240 1.415 . S
C1239 C1238 1.355 . S
C1239 C1241 1.419 . S
C1240 C1238 1.415 . S
C1240 C1245 1.425 . S
C1240 C1247 1.409 . S
C1241 H1233 0.930 . S
C1241 C1239 1.419 . S
C1241 C1242 1.362 . S
C1242 H1234 0.930 . S
C1242 C1241 1.362 . S
C1242 C1245 1.409 . S
C1243 H1235 0.930 . S
C1243 C1244 1.355 . S
C1243 C1245 1.415 . S
C1244 C1243 1.355 . S
C1244 C1246 1.419 . S
C1245 C1240 1.425 . S
C1245 C1242 1.409 . S
C1245 C1243 1.415 . S
C1246 H1236 0.930 . S
C1246 C1244 1.419 . S
C1246 C1247 1.362 . S
C1247 H1237 0.930 . S
C1247 C1240 1.409 . S
C1247 C1246 1.362 . S
H1248 C1254 0.930 . S
H1249 C1257 0.930 . S
H1250 C1258 0.930 . S
H1251 C1259 0.930 . S
H1252 C1262 0.930 . S
H1253 C1263 0.935 . S
C1254 H1248 0.930 . S
C1254 C1255 1.355 . S
C1254 C1256 1.415 . S
C1255 C1254 1.355 . S
C1255 C1257 1.419 . S
C1256 C1254 1.415 . S
C1256 C1261 1.425 . S
C1256 C1263 1.409 . S
C1257 H1249 0.930 . S
C1257 C1255 1.419 . S
C1257 C1258 1.362 . S
C1258 H1250 0.930 . S
C1258 C1257 1.362 . S
C1258 C1261 1.409 . S
C1259 H1251 0.930 . S
C1259 C1260 1.355 . S
C1259 C1261 1.415 . S
C1260 C1259 1.355 . S
C1260 C1262 1.419 . S
C1261 C1256 1.425 . S
C1261 C1258 1.409 . S
C1261 C1259 1.415 . S
C1262 H1252 0.930 . S
C1262 C1260 1.419 . S
C1262 C1263 1.362 . S
C1263 H1253 0.935 . S
C1263 C1256 1.409 . S
C1263 C1262 1.362 . S
H1264 C1270 0.930 . S
H1265 C1273 0.930 1_455 S
H1266 C1274 0.930 . S
H1267 C1275 0.933 . S
H1268 C1278 0.930 . S
H1269 C1279 0.930 . S
C1270 H1264 0.930 . S
C1270 C1271 1.355 . S
C1270 C1272 1.415 . S
C1271 C1270 1.355 . S
C1271 C1273 1.419 1_554 S
C1272 C1270 1.415 . S
C1272 C1277 1.438 . S
C1272 C1279 1.409 . S
C1273 H1265 0.930 1_655 S
C1273 C1271 1.419 1_556 S
C1273 C1274 1.362 . S
C1274 H1266 0.930 . S
C1274 C1273 1.362 . S
C1274 C1277 1.399 1_556 S
C1275 H1267 0.933 . S
C1275 C1276 1.352 1_556 S
C1275 C1277 1.414 1_556 S
C1276 C1275 1.352 1_554 S
C1276 C1278 1.419 . S
C1277 C1272 1.438 . S
C1277 C1274 1.399 1_554 S
C1277 C1275 1.414 1_554 S
C1278 H1268 0.930 . S
C1278 C1276 1.419 . S
C1278 C1279 1.362 . S
C1279 H1269 0.930 . S
C1279 C1272 1.409 . S
C1279 C1278 1.362 . S
H1280 C1286 0.930 . S
H1281 C1289 0.930 . S
H1282 C1290 0.930 . S
H1283 C1291 0.930 . S
H1284 C1294 0.930 . S
H1285 C1295 0.930 . S
C1286 H1280 0.930 . S
C1286 C1287 1.355 . S
C1286 C1288 1.415 . S
C1287 C1286 1.355 . S
C1287 C1289 1.419 . S
C1288 C1286 1.415 . S
C1288 C1293 1.425 . S
C1288 C1295 1.409 . S
C1289 H1281 0.930 . S
C1289 C1287 1.419 . S
C1289 C1290 1.362 . S
C1290 H1282 0.930 . S
C1290 C1289 1.362 . S
C1290 C1293 1.409 . S
C1291 H1283 0.930 . S
C1291 C1292 1.355 . S
C1291 C1293 1.415 . S
C1292 C1291 1.355 . S
C1292 C1294 1.419 . S
C1293 C1288 1.425 . S
C1293 C1290 1.409 . S
C1293 C1291 1.415 . S
C1294 H1284 0.930 . S
C1294 C1292 1.419 . S
C1294 C1295 1.362 . S
C1295 H1285 0.930 . S
C1295 C1288 1.409 . S
C1295 C1294 1.362 . S
H1296 C1302 0.930 . S
H1297 C1305 0.930 . S
H1298 C1306 0.930 . S
H1299 C1307 0.930 . S
H1300 C1310 0.930 . S
H1301 C1311 0.930 . S
C1302 H1296 0.930 . S
C1302 C1303 1.355 . S
C1302 C1304 1.415 . S
C1303 C1302 1.355 . S
C1303 C1305 1.419 . S
C1304 C1302 1.415 . S
C1304 C1309 1.425 . S
C1304 C1311 1.409 . S
C1305 H1297 0.930 . S
C1305 C1303 1.419 . S
C1305 C1306 1.362 . S
C1306 H1298 0.930 . S
C1306 C1305 1.362 . S
C1306 C1309 1.409 . S
C1307 H1299 0.930 . S
C1307 C1308 1.355 . S
C1307 C1309 1.415 . S
C1308 C1307 1.355 . S
C1308 C1310 1.419 . S
C1309 C1304 1.425 . S
C1309 C1306 1.409 . S
C1309 C1307 1.415 . S
C1310 H1300 0.930 . S
C1310 C1308 1.419 . S
C1310 C1311 1.362 . S
C1311 H1301 0.930 . S
C1311 C1304 1.409 . S
C1311 C1310 1.362 . S
H1312 C1318 0.930 . S
H1313 C1321 0.930 . S
H1314 C1322 0.930 . S
H1315 C1323 0.930 . S
H1316 C1326 0.930 . S
H1317 C1327 0.930 . S
C1318 H1312 0.930 . S
C1318 C1319 1.355 . S
C1318 C1320 1.415 . S
C1319 C1318 1.355 . S
C1319 C1321 1.419 . S
C1320 C1318 1.415 . S
C1320 C1325 1.425 . S
C1320 C1327 1.409 . S
C1321 H1313 0.930 . S
C1321 C1319 1.419 . S
C1321 C1322 1.362 . S
C1322 H1314 0.930 . S
C1322 C1321 1.362 . S
C1322 C1325 1.409 . S
C1323 H1315 0.930 . S
C1323 C1324 1.355 . S
C1323 C1325 1.415 . S
C1324 C1323 1.355 . S
C1324 C1326 1.419 . S
C1325 C1320 1.425 . S
C1325 C1322 1.409 . S
C1325 C1323 1.415 . S
C1326 H1316 0.930 . S
C1326 C1324 1.419 . S
C1326 C1327 1.362 . S
C1327 H1317 0.930 . S
C1327 C1320 1.409 . S
C1327 C1326 1.362 . S
H1328 C1334 0.930 . S
H1329 C1337 0.925 1_554 S
H1330 C1338 0.932 . S
H1331 C1339 0.930 1_554 S
H1332 C1342 0.930 1_655 S
H1333 C1343 0.930 . S
C1334 H1328 0.930 . S
C1334 C1335 1.355 . S
C1334 C1336 1.415 . S
C1335 C1334 1.355 . S
C1335 C1337 1.427 . S
C1336 C1334 1.415 . S
C1336 C1341 1.425 . S
C1336 C1343 1.409 . S
C1337 H1329 0.925 1_556 S
C1337 C1335 1.427 . S
C1337 C1338 1.361 1_556 S
C1338 H1330 0.932 . S
C1338 C1337 1.361 1_554 S
C1338 C1341 1.408 1_554 S
C1339 H1331 0.930 1_556 S
C1339 C1340 1.355 . S
C1339 C1341 1.415 . S
C1340 C1339 1.355 . S
C1340 C1342 1.419 . S
C1341 C1336 1.425 . S
C1341 C1338 1.408 1_556 S
C1341 C1339 1.415 . S
C1342 H1332 0.930 1_455 S
C1342 C1340 1.419 . S
C1342 C1343 1.362 . S
C1343 H1333 0.930 . S
C1343 C1336 1.409 . S
C1343 C1342 1.362 . S
H1344 C1350 0.930 . S
H1345 C1353 0.930 . S
H1346 C1354 0.930 . S
H1347 C1355 0.930 . S
H1348 C1358 0.930 . S
H1349 C1359 0.930 . S
C1350 H1344 0.930 . S
C1350 C1351 1.355 . S
C1350 C1352 1.415 . S
C1351 C1350 1.355 . S
C1351 C1353 1.419 . S
C1352 C1350 1.415 . S
C1352 C1357 1.425 . S
C1352 C1359 1.409 . S
C1353 H1345 0.930 . S
C1353 C1351 1.419 . S
C1353 C1354 1.362 . S
C1354 H1346 0.930 . S
C1354 C1353 1.362 . S
C1354 C1357 1.409 . S
C1355 H1347 0.930 . S
C1355 C1356 1.355 . S
C1355 C1357 1.415 . S
C1356 C1355 1.355 . S
C1356 C1358 1.419 . S
C1357 C1352 1.425 . S
C1357 C1354 1.409 . S
C1357 C1355 1.415 . S
C1358 H1348 0.930 . S
C1358 C1356 1.419 . S
C1358 C1359 1.362 . S
C1359 H1349 0.930 . S
C1359 C1352 1.409 . S
C1359 C1358 1.362 . S
H1360 C1366 0.930 . S
H1361 C1369 0.930 . S
H1362 C1370 0.930 . S
H1363 C1371 0.930 . S
H1364 C1374 0.930 1_455 S
H1365 C1375 0.930 . S
C1366 H1360 0.930 . S
C1366 C1367 1.355 . S
C1366 C1368 1.415 . S
C1367 C1366 1.355 . S
C1367 C1369 1.419 . S
C1368 C1366 1.415 . S
C1368 C1373 1.425 . S
C1368 C1375 1.409 . S
C1369 H1361 0.930 . S
C1369 C1367 1.419 . S
C1369 C1370 1.362 . S
C1370 H1362 0.930 . S
C1370 C1369 1.362 . S
C1370 C1373 1.409 . S
C1371 H1363 0.930 . S
C1371 C1372 1.355 . S
C1371 C1373 1.415 . S
C1372 C1371 1.355 . S
C1372 C1374 1.419 . S
C1373 C1368 1.425 . S
C1373 C1370 1.409 . S
C1373 C1371 1.415 . S
C1374 H1364 0.930 1_655 S
C1374 C1372 1.419 . S
C1374 C1375 1.362 . S
C1375 H1365 0.930 . S
C1375 C1368 1.409 . S
C1375 C1374 1.362 . S
H1376 C1382 0.930 . S
H1377 C1385 0.930 . S
H1378 C1386 0.930 . S
H1379 C1387 0.930 . S
H1380 C1390 0.930 . S
H1381 C1391 0.930 . S
C1382 H1376 0.930 . S
C1382 C1383 1.355 . S
C1382 C1384 1.415 . S
C1383 C1382 1.355 . S
C1383 C1385 1.419 . S
C1384 C1382 1.415 . S
C1384 C1389 1.425 . S
C1384 C1391 1.409 . S
C1385 H1377 0.930 . S
C1385 C1383 1.419 . S
C1385 C1386 1.362 . S
C1386 H1378 0.930 . S
C1386 C1385 1.362 . S
C1386 C1389 1.409 . S
C1387 H1379 0.930 . S
C1387 C1388 1.355 . S
C1387 C1389 1.415 . S
C1388 C1387 1.355 . S
C1388 C1390 1.419 . S
C1389 C1384 1.425 . S
C1389 C1386 1.409 . S
C1389 C1387 1.415 . S
C1390 H1380 0.930 . S
C1390 C1388 1.419 . S
C1390 C1391 1.362 . S
C1391 H1381 0.930 . S
C1391 C1384 1.409 . S
C1391 C1390 1.362 . S
H1392 C1398 0.930 . S
H1393 C1401 0.930 1_455 S
H1394 C1402 0.930 . S
H1395 C1403 0.930 . S
H1396 C1406 0.930 . S
H1397 C1407 0.930 . S
C1398 H1392 0.930 . S
C1398 C1399 1.355 . S
C1398 C1400 1.415 . S
C1399 C1398 1.355 . S
C1399 C1401 1.419 . S
C1400 C1398 1.415 . S
C1400 C1405 1.425 . S
C1400 C1407 1.409 . S
C1401 H1393 0.930 1_655 S
C1401 C1399 1.419 . S
C1401 C1402 1.362 . S
C1402 H1394 0.930 . S
C1402 C1401 1.362 . S
C1402 C1405 1.409 . S
C1403 H1395 0.930 . S
C1403 C1404 1.355 . S
C1403 C1405 1.415 . S
C1404 C1403 1.355 . S
C1404 C1406 1.419 . S
C1405 C1400 1.425 . S
C1405 C1402 1.409 . S
C1405 C1403 1.415 . S
C1406 H1396 0.930 . S
C1406 C1404 1.419 . S
C1406 C1407 1.362 . S
C1407 H1397 0.930 . S
C1407 C1400 1.409 . S
C1407 C1406 1.362 . S
H1408 C1414 0.930 . S
H1409 C1417 0.930 . S
H1410 C1418 0.930 . S
H1411 C1419 0.930 . S
H1412 C1422 0.930 . S
H1413 C1423 0.930 . S
C1414 H1408 0.930 . S
C1414 C1415 1.355 . S
C1414 C1416 1.415 . S
C1415 C1414 1.355 . S
C1415 C1417 1.419 . S
C1416 C1414 1.415 . S
C1416 C1421 1.425 . S
C1416 C1423 1.409 . S
C1417 H1409 0.930 . S
C1417 C1415 1.419 . S
C1417 C1418 1.362 . S
C1418 H1410 0.930 . S
C1418 C1417 1.362 . S
C1418 C1421 1.409 . S
C1419 H1411 0.930 . S
C1419 C1420 1.355 . S
C1419 C1421 1.415 . S
C1420 C1419 1.355 . S
C1420 C1422 1.419 . S
C1421 C1416 1.425 . S
C1421 C1418 1.409 . S
C1421 C1419 1.415 . S
C1422 H1412 0.930 . S
C1422 C1420 1.419 . S
C1422 C1423 1.362 . S
C1423 H1413 0.930 . S
C1423 C1416 1.409 . S
C1423 C1422 1.362 . S
H1424 C1430 0.930 . S
H1425 C1433 0.930 . S
H1426 C1434 0.930 . S
H1427 C1435 0.930 . S
H1428 C1438 0.930 . S
H1429 C1439 0.930 . S
C1430 H1424 0.930 . S
C1430 C1431 1.355 . S
C1430 C1432 1.415 . S
C1431 C1430 1.355 . S
C1431 C1433 1.419 . S
C1432 C1430 1.415 . S
C1432 C1437 1.425 . S
C1432 C1439 1.409 . S
C1433 H1425 0.930 . S
C1433 C1431 1.419 . S
C1433 C1434 1.362 . S
C1434 H1426 0.930 . S
C1434 C1433 1.362 . S
C1434 C1437 1.409 . S
C1435 H1427 0.930 . S
C1435 C1436 1.355 . S
C1435 C1437 1.415 . S
C1436 C1435 1.355 . S
C1436 C1438 1.419 . S
C1437 C1432 1.425 . S
C1437 C1434 1.409 . S
C1437 C1435 1.415 . S
C1438 H1428 0.930 . S
C1438 C1436 1.419 . S
C1438 C1439 1.362 . S
C1439 H1429 0.930 . S
C1439 C1432 1.409 . S
C1439 C1438 1.362 . S
H1440 C1446 0.930 . S
H1441 C1449 0.930 . S
H1442 C1450 0.930 . S
H1443 C1451 0.930 . S
H1444 C1454 0.930 . S
H1445 C1455 0.930 . S
C1446 H1440 0.930 . S
C1446 C1447 1.355 . S
C1446 C1448 1.415 . S
C1447 C1446 1.355 . S
C1447 C1449 1.419 . S
C1448 C1446 1.415 . S
C1448 C1453 1.425 . S
C1448 C1455 1.409 . S
C1449 H1441 0.930 . S
C1449 C1447 1.419 . S
C1449 C1450 1.362 . S
C1450 H1442 0.930 . S
C1450 C1449 1.362 . S
C1450 C1453 1.409 . S
C1451 H1443 0.930 . S
C1451 C1452 1.355 . S
C1451 C1453 1.415 . S
C1452 C1451 1.355 . S
C1452 C1454 1.419 . S
C1453 C1448 1.425 . S
C1453 C1450 1.409 . S
C1453 C1451 1.415 . S
C1454 H1444 0.930 . S
C1454 C1452 1.419 . S
C1454 C1455 1.362 . S
C1455 H1445 0.930 . S
C1455 C1448 1.409 . S
C1455 C1454 1.362 . S
H1456 C1462 0.930 . S
H1457 C1465 0.930 1_655 S
H1458 C1466 0.930 . S
H1459 C1467 0.930 . S
H1460 C1470 0.930 . S
H1461 C1471 0.930 . S
C1462 H1456 0.930 . S
C1462 C1463 1.355 . S
C1462 C1464 1.415 . S
C1463 C1462 1.355 . S
C1463 C1465 1.419 . S
C1464 C1462 1.415 . S
C1464 C1469 1.425 . S
C1464 C1471 1.409 . S
C1465 H1457 0.930 1_455 S
C1465 C1463 1.419 . S
C1465 C1466 1.362 . S
C1466 H1458 0.930 . S
C1466 C1465 1.362 . S
C1466 C1469 1.409 . S
C1467 H1459 0.930 . S
C1467 C1468 1.355 . S
C1467 C1469 1.415 . S
C1468 C1467 1.355 . S
C1468 C1470 1.419 . S
C1469 C1464 1.425 . S
C1469 C1466 1.409 . S
C1469 C1467 1.415 . S
C1470 H1460 0.930 . S
C1470 C1468 1.419 . S
C1470 C1471 1.362 . S
C1471 H1461 0.930 . S
C1471 C1464 1.409 . S
C1471 C1470 1.362 . S
C455 C8 1.371 . S
C460 C50 1.434 . S
C471 C36 1.419 . S
C476 C22 1.414 . S
C487 C64 1.363 . S
C492 C106 1.348 . S
C503 C92 1.426 . S
C508 C78 1.402 . S
C519 C120 1.340 . S
C524 C162 1.274 . S
C535 C148 1.322 . S
C540 C134 1.372 . S
C551 C176 1.368 . S
C556 C218 1.339 . S
C567 C190 1.367 . S
C572 C204 1.342 . S
C583 C274 1.370 . S
C588 C232 1.306 . S
C599 C246 1.319 . S
C604 C260 1.372 . S
C615 C288 1.365 . S
C620 C330 1.293 . S
C631 C316 1.372 . S
C636 C302 1.320 . S
C647 C344 1.377 . S
C652 C386 1.435 . S
C663 C372 1.349 . S
C668 C358 1.423 . S
C679 C400 1.393 . S
C684 C442 1.342 . S
C695 C414 1.403 . S
C700 C428 1.428 . S
C711 C174 1.572 . S
C716 C6 1.572 . S
C727 C20 1.588 . S
C732 C300 1.588 . S
C743 C34 1.522 1_556 S
C748 C90 1.522 1_554 S
C759 C440 1.480 . S
C764 C48 1.478 . S
C775 C62 1.547 . S
C780 C118 1.547 . S
C791 C244 1.549 . S
C796 C76 1.549 . S
C807 C384 1.535 . S
C812 C104 1.534 . S
C823 C412 1.604 . S
C828 C132 1.604 . S
C839 C202 1.496 . S
C844 C146 1.496 . S
C855 C328 1.495 . S
C860 C160 1.495 . S
C871 C188 1.580 . S
C876 C356 1.580 . S
C887 C272 1.543 . S
C892 C216 1.543 . S
C903 C398 1.603 . S
C908 C230 1.603 . S
C919 C314 1.533 . S
C924 C258 1.533 . S
C935 C342 1.546 . S
C940 C286 1.546 . S
C951 C370 1.504 . S
C956 C426 1.504 . S
C967 C147 1.425 . S
C972 C7 1.424 . S
C983 C21 1.421 . S
C988 C161 1.429 . S
C999 C119 1.362 . S
C1004 C35 1.359 . S
C1015 C133 1.375 . S
C1020 C49 1.351 . S
C1031 C63 1.417 . S
C1036 C203 1.439 . S
C1047 C77 1.417 . S
C1052 C217 1.438 . S
C1063 C175 1.372 . S
C1068 C91 1.372 . S
C1079 C105 1.372 . S
C1084 C189 1.372 . S
C1095 C371 1.355 . S
C1100 C231 1.373 . S
C1111 C385 1.357 . S
C1116 C245 1.365 . S
C1127 C259 1.418 . S
C1132 C343 1.440 . S
C1143 C273 1.418 . S
C1148 C357 1.434 . S
C1159 C287 1.379 . S
C1164 C427 1.363 . S
C1175 C301 1.371 . S
C1180 C441 1.352 . S
C1191 C399 1.418 . S
C1196 C315 1.433 . S
C1207 C413 1.440 . S
C1212 C329 1.425 . S
C1223 C9 1.547 . S
C1228 C359 1.530 . S
C1239 C345 1.571 . S
C1244 C23 1.550 1_655 S
C1255 C37 1.494 . S
C1260 C387 1.499 . S
C1271 C51 1.493 1_655 S
C1276 C373 1.510 . S
C1287 C65 1.551 . S
C1292 C415 1.531 . S
C1303 C79 1.572 1_455 S
C1308 C401 1.552 . S
C1319 C443 1.533 . S
C1324 C93 1.541 . S
C1335 C429 1.497 . S
C1340 C107 1.494 1_455 S
C1351 C247 1.569 . S
C1356 C121 1.571 . S
C1367 C233 1.531 . S
C1372 C135 1.532 1_655 S
C1383 C149 1.524 . S
C1388 C275 1.545 . S
C1399 C163 1.505 1_655 S
C1404 C261 1.525 . S
C1415 C303 1.566 . S
C1420 C177 1.573 . S
C1431 C191 1.562 1_455 S
C1436 C289 1.573 . S
C1447 C205 1.540 . S
C1452 C331 1.549 . S
C1463 C219 1.509 1_455 S
C1468 C317 1.502 . S
