# Generated by pormake.
# Topology wft, (7)-cn, num edge types: 1
# Building blocks:
#     Node 0, Type 0, BuildingBlock: HICVOG_clean_sbu_0, # of connection points: 7
#     Node 1, Type 0, BuildingBlock: HICVOG_clean_sbu_0, # of connection points: 7
#     Node 2, Type 0, BuildingBlock: HICVOG_clean_sbu_0, # of connection points: 7
#     Node 3, Type 0, BuildingBlock: HICVOG_clean_sbu_0, # of connection points: 7
#     Node 4, Type 0, BuildingBlock: HICVOG_clean_sbu_0, # of connection points: 7
#     Node 5, Type 0, BuildingBlock: HICVOG_clean_sbu_0, # of connection points: 7
#     Node 6, Type 0, BuildingBlock: HICVOG_clean_sbu_0, # of connection points: 7
#     Node 7, Type 0, BuildingBlock: HICVOG_clean_sbu_0, # of connection points: 7
#     Edge 8, Type (0, 0), BuildingBlock: CIFDUS_clean_linker_0, # of connection points: 2
#     Edge 9, Type (0, 0), BuildingBlock: CIFDUS_clean_linker_0, # of connection points: 2
#     Edge 10, Type (0, 0), BuildingBlock: CIFDUS_clean_linker_0, # of connection points: 2
#     Edge 11, Type (0, 0), BuildingBlock: CIFDUS_clean_linker_0, # of connection points: 2
#     Edge 12, Type (0, 0), BuildingBlock: CIFDUS_clean_linker_0, # of connection points: 2
#     Edge 13, Type (0, 0), BuildingBlock: CIFDUS_clean_linker_0, # of connection points: 2
#     Edge 14, Type (0, 0), BuildingBlock: CIFDUS_clean_linker_0, # of connection points: 2
#     Edge 15, Type (0, 0), BuildingBlock: CIFDUS_clean_linker_0, # of connection points: 2
#     Edge 16, Type (0, 0), BuildingBlock: CIFDUS_clean_linker_0, # of connection points: 2
#     Edge 17, Type (0, 0), BuildingBlock: CIFDUS_clean_linker_0, # of connection points: 2
#     Edge 18, Type (0, 0), BuildingBlock: CIFDUS_clean_linker_0, # of connection points: 2
#     Edge 19, Type (0, 0), BuildingBlock: CIFDUS_clean_linker_0, # of connection points: 2
#     Edge 20, Type (0, 0), BuildingBlock: CIFDUS_clean_linker_0, # of connection points: 2
#     Edge 21, Type (0, 0), BuildingBlock: CIFDUS_clean_linker_0, # of connection points: 2
#     Edge 22, Type (0, 0), BuildingBlock: CIFDUS_clean_linker_0, # of connection points: 2
#     Edge 23, Type (0, 0), BuildingBlock: CIFDUS_clean_linker_0, # of connection points: 2
#     Edge 24, Type (0, 0), BuildingBlock: CIFDUS_clean_linker_0, # of connection points: 2
#     Edge 25, Type (0, 0), BuildingBlock: CIFDUS_clean_linker_0, # of connection points: 2
#     Edge 26, Type (0, 0), BuildingBlock: CIFDUS_clean_linker_0, # of connection points: 2
#     Edge 27, Type (0, 0), BuildingBlock: CIFDUS_clean_linker_0, # of connection points: 2
#     Edge 28, Type (0, 0), BuildingBlock: CIFDUS_clean_linker_0, # of connection points: 2
#     Edge 29, Type (0, 0), BuildingBlock: CIFDUS_clean_linker_0, # of connection points: 2
#     Edge 30, Type (0, 0), BuildingBlock: CIFDUS_clean_linker_0, # of connection points: 2
#     Edge 31, Type (0, 0), BuildingBlock: CIFDUS_clean_linker_0, # of connection points: 2
#     Edge 32, Type (0, 0), BuildingBlock: CIFDUS_clean_linker_0, # of connection points: 2
#     Edge 33, Type (0, 0), BuildingBlock: CIFDUS_clean_linker_0, # of connection points: 2
#     Edge 34, Type (0, 0), BuildingBlock: CIFDUS_clean_linker_0, # of connection points: 2
#     Edge 35, Type (0, 0), BuildingBlock: CIFDUS_clean_linker_0, # of connection points: 2
# Relax obj value: 0.203
# Max RMSD: 0.210
# Mean RMSD: 0.210
data_MOF--net-wft--node1-HICVOG_clean_sbu_0--edge1-CIFDUS_clean_linker_0
_symmetry_space_group_name_H-M    P1
_symmetry_Int_Tables_number       1
_symmetry_cell_setting            triclinic
loop_
_symmetry_equiv_pos_as_xyz
'x, y, z'
_cell_length_a     28.794528
_cell_length_b     28.77892
_cell_length_c     27.137855
_cell_angle_alpha  89.635262
_cell_angle_beta   90.057935
_cell_angle_gamma 89.968806
loop_
_atom_site_label
_atom_site_type_symbol
_atom_site_fract_x
_atom_site_fract_y
_atom_site_fract_z
_atom_type_partial_charge
Zn0 Zn 0.31467 0.30601 0.36205 0.0
C1 C 0.3238 0.27608 0.21707 0.0
N2 N 0.27711 0.27731 0.22056 0.0
C3 C 0.26998 0.28326 0.26883 0.0
N4 N 0.3106 0.28623 0.29373 0.0
N5 N 0.34503 0.2808 0.26137 0.0
C6 C 0.50306 0.24886 0.25044 0.0
O7 O 0.50203 0.23053 0.29487 0.0
O8 O 0.2828 0.26267 0.41076 0.0
Zn9 Zn 0.40791 0.25621 0.27964 0.0
N10 N 0.28879 0.36826 0.36778 0.0
C11 C 0.2602 0.43744 0.32986 0.0
C12 C 0.27323 0.39094 0.32685 0.0
C13 C 0.29232 0.39065 0.41177 0.0
N14 N 0.26471 0.45999 0.37333 0.0
C15 C 0.28056 0.43803 0.4146 0.0
O16 O 0.43481 0.28399 0.34203 0.0
C17 C 0.4214 0.30534 0.38024 0.0
O18 O 0.37882 0.31377 0.38766 0.0
H19 H 0.27245 0.37383 0.29167 0.0
H20 H 0.30653 0.37241 0.44338 0.0
C21 C 0.42698 0.15681 0.27884 0.0
C22 C 0.41971 0.11061 0.29417 0.0
C23 C 0.34955 0.13376 0.33275 0.0
C24 C 0.35833 0.17978 0.31967 0.0
N25 N 0.39709 0.19063 0.29345 0.0
N26 N 0.38067 0.10044 0.32038 0.0
H27 H 0.45615 0.1658 0.25584 0.0
C28 C 0.30693 0.23379 0.43584 0.0
O29 O 0.35099 0.2283 0.42489 0.0
O30 O 0.46483 0.26367 0.23155 0.0
H31 H 0.3345 0.20666 0.3307 0.0
H32 H 0.24789 0.45589 0.29754 0.0
H33 H 0.31883 0.12474 0.35363 0.0
Zn34 Zn 0.26571 0.64585 0.72668 0.0
C35 C 0.2961 0.78262 0.73327 0.0
N36 N 0.28745 0.77705 0.78126 0.0
C37 C 0.28508 0.73053 0.78672 0.0
N38 N 0.29194 0.70788 0.74367 0.0
N39 N 0.29954 0.74123 0.71024 0.0
C40 C 0.25677 0.76289 0.57587 0.0
O41 O 0.2307 0.73448 0.60177 0.0
O42 O 0.27488 0.58745 0.77365 0.0
Zn43 Zn 0.32681 0.73554 0.6454 0.0
N44 N 0.19955 0.65786 0.71807 0.0
C45 C 0.13915 0.70821 0.6902 0.0
C46 C 0.18553 0.70071 0.70266 0.0
C47 C 0.16839 0.62281 0.7232 0.0
N48 N 0.1089 0.6721 0.69186 0.0
C49 C 0.12234 0.62907 0.7074 0.0
O50 O 0.32462 0.67269 0.61473 0.0
C51 C 0.30931 0.63187 0.62144 0.0
O52 O 0.28775 0.62096 0.66061 0.0
H53 H 0.21012 0.72873 0.6991 0.0
H54 H 0.17954 0.59029 0.73881 0.0
C55 C 0.42051 0.74397 0.61057 0.0
C56 C 0.46853 0.75252 0.61476 0.0
C57 C 0.45705 0.77667 0.69739 0.0
C58 C 0.40977 0.76762 0.69321 0.0
N59 N 0.39226 0.75167 0.64992 0.0
N60 N 0.48522 0.76875 0.65835 0.0
H61 H 0.40575 0.72996 0.57713 0.0
C62 C 0.26307 0.54925 0.75279 0.0
O63 O 0.24806 0.55106 0.70717 0.0
O64 O 0.29578 0.77534 0.59359 0.0
H65 H 0.38761 0.77249 0.72471 0.0
H66 H 0.12762 0.74206 0.67768 0.0
H67 H 0.47143 0.78935 0.73161 0.0
Zn68 Zn 0.64913 0.79679 0.2746 0.0
C69 C 0.78456 0.75709 0.26785 0.0
N70 N 0.77773 0.75777 0.21893 0.0
C71 C 0.73149 0.76449 0.21478 0.0
N72 N 0.71046 0.76837 0.25909 0.0
N73 N 0.74392 0.76219 0.29249 0.0
C74 C 0.75301 0.80913 0.43443 0.0
O75 O 0.71088 0.82218 0.4219 0.0
O76 O 0.59346 0.7995 0.22471 0.0
Zn77 Zn 0.73547 0.74001 0.36026 0.0
N78 N 0.66275 0.86076 0.29066 0.0
C79 C 0.7125 0.91842 0.32428 0.0
C80 C 0.70374 0.87228 0.31224 0.0
C81 C 0.63003 0.89354 0.28086 0.0
N82 N 0.67953 0.95107 0.3151 0.0
C83 C 0.63808 0.94006 0.29395 0.0
O84 O 0.66982 0.7396 0.38608 0.0
C85 C 0.62833 0.75064 0.37519 0.0
O86 O 0.61852 0.77059 0.33471 0.0
H87 H 0.72937 0.84601 0.32039 0.0
H88 H 0.5983 0.88311 0.26296 0.0
C89 C 0.76065 0.65048 0.40467 0.0
C90 C 0.7721 0.60276 0.40281 0.0
C91 C 0.77048 0.60672 0.31531 0.0
C92 C 0.7582 0.6533 0.31737 0.0
N93 N 0.75442 0.67475 0.36173 0.0
N94 N 0.77699 0.58271 0.35778 0.0
H95 H 0.75662 0.66813 0.43948 0.0
C96 C 0.55928 0.77096 0.22536 0.0
O97 O 0.56434 0.73118 0.24874 0.0
O98 O 0.7725 0.77656 0.4104 0.0
H99 H 0.751 0.67181 0.28357 0.0
H100 H 0.745 0.92816 0.34136 0.0
H101 H 0.77403 0.58945 0.28022 0.0
Zn102 Zn 0.78398 0.4145 0.73525 0.0
C103 C 0.75558 0.27631 0.742 0.0
N104 N 0.75733 0.2811 0.79102 0.0
C105 C 0.76388 0.32707 0.79694 0.0
N106 N 0.76599 0.35007 0.75327 0.0
N107 N 0.75984 0.31789 0.71876 0.0
C108 C 0.81242 0.30461 0.57538 0.0
O109 O 0.82877 0.34589 0.58596 0.0
O110 O 0.79339 0.46747 0.78663 0.0
Zn111 Zn 0.746 0.33074 0.64953 0.0
N112 N 0.84435 0.40845 0.70494 0.0
C113 C 0.90573 0.36498 0.66902 0.0
C114 C 0.8612 0.36711 0.68877 0.0
C115 C 0.8704 0.44762 0.70243 0.0
N116 N 0.93209 0.40398 0.66757 0.0
C117 C 0.91587 0.44556 0.68403 0.0
O118 O 0.75934 0.39573 0.62399 0.0
C119 C 0.75066 0.43667 0.63853 0.0
O120 O 0.74298 0.4447 0.68368 0.0
H121 H 0.84063 0.33596 0.69102 0.0
H122 H 0.85595 0.47939 0.71649 0.0
C123 C 0.65875 0.31968 0.59754 0.0
C124 C 0.60991 0.31861 0.59445 0.0
C125 C 0.60551 0.32447 0.6816 0.0
C126 C 0.65365 0.32642 0.68438 0.0
N127 N 0.67941 0.32364 0.64253 0.0
N128 N 0.58487 0.32093 0.63692 0.0
H129 H 0.6801 0.3191 0.56476 0.0
C130 C 0.76527 0.50188 0.78947 0.0
O131 O 0.72322 0.49706 0.77146 0.0
O132 O 0.77898 0.2882 0.601 0.0
H133 H 0.67024 0.33076 0.71975 0.0
H134 H 0.91956 0.33244 0.65571 0.0
H135 H 0.5846 0.32651 0.71462 0.0
Zn136 Zn 0.90677 0.29426 0.23599 0.0
C137 C 0.77253 0.25126 0.24047 0.0
N138 N 0.77805 0.2553 0.28924 0.0
C139 C 0.82374 0.26378 0.29413 0.0
N140 N 0.84592 0.26495 0.25021 0.0
N141 N 0.81366 0.25564 0.21635 0.0
C142 C 0.79892 0.2987 0.07758 0.0
O143 O 0.83713 0.31813 0.09406 0.0
O144 O 0.96242 0.29207 0.2851 0.0
Zn145 Zn 0.82534 0.2315 0.1503 0.0
N146 N 0.89342 0.35933 0.22704 0.0
C147 C 0.84348 0.42494 0.22032 0.0
C148 C 0.84965 0.37703 0.22559 0.0
C149 C 0.93101 0.3873 0.22305 0.0
N150 N 0.88129 0.45311 0.21753 0.0
C151 C 0.92521 0.43558 0.21929 0.0
O152 O 0.88997 0.23933 0.12261 0.0
C153 C 0.92992 0.25529 0.13278 0.0
O154 O 0.93788 0.27498 0.17353 0.0
H155 H 0.81988 0.35435 0.22858 0.0
H156 H 0.965 0.37155 0.22253 0.0
C157 C 0.81549 0.13694 0.11313 0.0
C158 C 0.81368 0.08812 0.11886 0.0
C159 C 0.81307 0.09743 0.20579 0.0
C160 C 0.81629 0.14527 0.19993 0.0
N161 N 0.81644 0.16437 0.15395 0.0
N162 N 0.81213 0.07015 0.16537 0.0
H163 H 0.81814 0.15299 0.07711 0.0
C164 C 0.99582 0.26279 0.28206 0.0
O165 O 0.98908 0.22432 0.25732 0.0
O166 O 0.78406 0.26182 0.09865 0.0
H167 H 0.81934 0.16685 0.23211 0.0
H168 H 0.80893 0.43968 0.21896 0.0
H169 H 0.81239 0.08193 0.2422 0.0
Zn170 Zn 0.29187 0.14094 0.78002 0.0
C171 C 0.25923 0.278 0.7632 0.0
N172 N 0.26908 0.26952 0.71581 0.0
C173 C 0.27562 0.22328 0.71513 0.0
N174 N 0.2697 0.20354 0.7599 0.0
N175 N 0.25788 0.23795 0.79018 0.0
C176 C 0.29947 0.27541 0.93414 0.0
O177 O 0.32021 0.30916 0.90995 0.0
O178 O 0.3005 0.08856 0.72845 0.0
Zn179 Zn 0.22955 0.22914 0.85555 0.0
N180 N 0.35267 0.15117 0.80768 0.0
C181 C 0.40347 0.19114 0.86199 0.0
C182 C 0.35935 0.1848 0.84183 0.0
C183 C 0.38822 0.1237 0.79272 0.0
N184 N 0.43883 0.16289 0.84788 0.0
C185 C 0.43243 0.12879 0.81394 0.0
O186 O 0.21973 0.16302 0.87578 0.0
C187 C 0.22897 0.12065 0.868 0.0
O188 O 0.25535 0.1087 0.83296 0.0
H189 H 0.33066 0.20638 0.85324 0.0
H190 H 0.38185 0.09825 0.76451 0.0
C191 C 0.13904 0.25237 0.89666 0.0
C192 C 0.09085 0.26075 0.8922 0.0
C193 C 0.10027 0.27089 0.80584 0.0
C194 C 0.14701 0.25972 0.81013 0.0
N195 N 0.16609 0.25256 0.85533 0.0
N196 N 0.07333 0.2706 0.84668 0.0
H197 H 0.15432 0.24251 0.93163 0.0
C198 C 0.27172 0.05515 0.72264 0.0
O199 O 0.22901 0.06026 0.73862 0.0
O200 O 0.26897 0.25061 0.91284 0.0
H201 H 0.16739 0.25454 0.77738 0.0
H202 H 0.40943 0.21786 0.88913 0.0
H203 H 0.08495 0.27744 0.77005 0.0
Zn204 Zn 0.22877 0.79874 0.14241 0.0
C205 C 0.23728 0.7845 0.2893 0.0
N206 N 0.28304 0.79144 0.28144 0.0
C207 C 0.28654 0.79398 0.23239 0.0
N208 N 0.24438 0.78865 0.21098 0.0
N209 N 0.21292 0.78301 0.24658 0.0
C210 C 0.05893 0.78218 0.28049 0.0
O211 O 0.06393 0.82369 0.26083 0.0
O212 O 0.27602 0.77679 0.09271 0.0
Zn213 Zn 0.14888 0.76113 0.22975 0.0
N214 N 0.21921 0.865 0.13414 0.0
C215 C 0.19353 0.93608 0.16903 0.0
C216 C 0.20416 0.88913 0.17394 0.0
C217 C 0.22398 0.88601 0.08933 0.0
N218 N 0.19798 0.95699 0.12437 0.0
C219 C 0.21292 0.93347 0.08395 0.0
O220 O 0.11932 0.79688 0.17349 0.0
C221 C 0.13013 0.78792 0.12927 0.0
O222 O 0.16916 0.76975 0.11943 0.0
H223 H 0.19966 0.87188 0.20907 0.0
H224 H 0.23494 0.86552 0.05827 0.0
C225 C 0.11886 0.67348 0.19741 0.0
C226 C 0.12288 0.62641 0.18543 0.0
C227 C 0.20491 0.63345 0.18674 0.0
C228 C 0.20072 0.67983 0.20047 0.0
N229 N 0.15774 0.69883 0.20576 0.0
N230 N 0.166 0.6076 0.18044 0.0
H231 H 0.08527 0.68941 0.2027 0.0
C232 C 0.27174 0.73667 0.07356 0.0
O233 O 0.25149 0.70373 0.09934 0.0
O234 O 0.09355 0.75412 0.27955 0.0
H235 H 0.23154 0.69992 0.2076 0.0
H236 H 0.18136 0.95572 0.20033 0.0
H237 H 0.23881 0.61775 0.18254 0.0
Zn238 Zn 0.75414 0.91054 0.77305 0.0
C239 C 0.79378 0.77503 0.7698 0.0
N240 N 0.79472 0.78118 0.72083 0.0
C241 C 0.78894 0.8275 0.71553 0.0
N242 N 0.78397 0.84925 0.75938 0.0
N243 N 0.7886 0.81597 0.79341 0.0
C244 C 0.73473 0.80167 0.93279 0.0
O245 O 0.72072 0.84368 0.92077 0.0
O246 O 0.76547 0.96844 0.72674 0.0
Zn247 Zn 0.8064 0.82277 0.86221 0.0
N248 N 0.68811 0.89685 0.77892 0.0
C249 C 0.63007 0.84465 0.80834 0.0
C250 C 0.67653 0.85544 0.80004 0.0
C251 C 0.65464 0.92788 0.76563 0.0
N252 N 0.59702 0.87668 0.7975 0.0
C253 C 0.60801 0.91857 0.77706 0.0
O254 O 0.80459 0.88717 0.89 0.0
C255 C 0.79156 0.92817 0.87953 0.0
O256 O 0.77316 0.93778 0.83824 0.0
H257 H 0.70306 0.83115 0.81118 0.0
H258 H 0.66402 0.95973 0.74713 0.0
C259 C 0.89209 0.80338 0.91331 0.0
C260 C 0.93994 0.7936 0.91674 0.0
C261 C 0.94272 0.78412 0.82991 0.0
C262 C 0.89581 0.79506 0.82658 0.0
N263 N 0.87114 0.80397 0.86821 0.0
N264 N 0.96364 0.78399 0.87462 0.0
H265 H 0.87205 0.81229 0.94562 0.0
C266 C 0.74848 1.0063 0.74401 0.0
O267 O 0.72569 1.00452 0.78583 0.0
O268 O 0.76819 0.78359 0.90893 0.0
H269 H 0.87981 0.79745 0.79077 0.0
H270 H 0.62046 0.81176 0.82491 0.0
H271 H 0.96267 0.77681 0.7971 0.0
H272 H 0.30846 0.20762 0.15381 0.0
H273 H 0.38362 0.33557 0.17087 0.0
H274 H 0.38708 0.34526 0.08096 0.0
H275 H 0.35427 0.3247 0.99892 0.0
H276 H 0.27438 0.19828 0.98555 0.0
H277 H 0.28692 0.18085 0.07205 0.0
C278 C 0.32752 0.23647 0.13764 0.0
C279 C 0.34593 0.27069 0.1686 0.0
C280 C 0.32685 0.243 0.08643 0.0
C281 C 0.36995 0.30834 0.14761 0.0
C282 C 0.37093 0.31437 0.09621 0.0
C283 C 0.3402 0.29307 0.01484 0.0
C284 C 0.31236 0.26358 0.9858 0.0
C285 C 0.34711 0.28323 0.0654 0.0
C286 C 0.29496 0.22234 0.007 0.0
C287 C 0.30234 0.21204 0.05658 0.0
H288 H 0.30885 0.67398 0.00764 0.0
H289 H 0.22078 0.79445 0.01905 0.0
H290 H 0.20627 0.79355 0.93105 0.0
H291 H 0.22514 0.76488 0.85043 0.0
H292 H 0.32396 0.65397 0.83312 0.0
H293 H 0.32616 0.64261 0.9232 0.0
C294 C 0.28671 0.69993 0.99048 0.0
C295 C 0.26648 0.73496 0.01954 0.0
C296 C 0.27992 0.70018 0.93885 0.0
C297 C 0.23736 0.76801 0.99725 0.0
C298 C 0.22873 0.76718 0.94699 0.0
C299 C 0.24631 0.73735 0.8663 0.0
C300 C 0.27434 0.71036 0.83546 0.0
C301 C 0.25056 0.73416 0.91741 0.0
C302 C 0.30148 0.6747 0.85621 0.0
C303 C 0.30351 0.66902 0.90775 0.0
H304 H 0.6861 0.84294 0.00703 0.0
H305 H 0.75313 0.71432 0.96692 0.0
H306 H 0.74872 0.68743 0.05213 0.0
H307 H 0.74011 0.70684 0.13923 0.0
H308 H 0.67752 0.83653 0.18121 0.0
H309 H 0.66482 0.85641 0.09404 0.0
C310 C 0.69858 0.80849 0.01663 0.0
C311 C 0.72087 0.78107 0.98077 0.0
C312 C 0.69708 0.79372 0.06615 0.0
C313 C 0.73652 0.73642 0.99386 0.0
C314 C 0.73413 0.72105 0.04265 0.0
C315 C 0.72219 0.73872 0.12916 0.0
C316 C 0.70971 0.77026 0.1661 0.0
C317 C 0.71662 0.75033 0.07932 0.0
C318 C 0.68678 0.81156 0.15318 0.0
C319 C 0.68017 0.8231 0.10336 0.0
H320 H 0.70516 0.311 0.87026 0.0
H321 H 0.83245 0.38239 0.83572 0.0
H322 H 0.8515 0.38633 0.92398 0.0
H323 H 0.83871 0.35509 0.00818 0.0
H324 H 0.71423 0.27665 0.0394 0.0
H325 H 0.68707 0.28985 0.95527 0.0
C326 C 0.73625 0.32901 0.88232 0.0
C327 C 0.76739 0.34648 0.8469 0.0
C328 C 0.74792 0.32863 0.93243 0.0
C329 C 0.8077 0.3694 0.86249 0.0
C330 C 0.81888 0.37081 0.91287 0.0
C331 C 0.80512 0.3418 0.99692 0.0
C332 C 0.77878 0.31427 0.02991 0.0
C333 C 0.79037 0.34834 0.94785 0.0
C334 C 0.7354 0.29737 0.01467 0.0
C335 C 0.71985 0.30494 0.96655 0.0
H336 H 0.81008 0.20758 0.37054 0.0
H337 H 0.87989 0.33396 0.32835 0.0
H338 H 0.8898 0.35415 0.41556 0.0
H339 H 0.86479 0.34243 0.50175 0.0
H340 H 0.78836 0.21866 0.54163 0.0
H341 H 0.79523 0.19043 0.45733 0.0
C342 C 0.82884 0.23884 0.38062 0.0
C343 C 0.84425 0.26935 0.34343 0.0
C344 C 0.83227 0.25097 0.43034 0.0
C345 C 0.86835 0.30974 0.35645 0.0
C346 C 0.87331 0.32151 0.40629 0.0
C347 C 0.85055 0.30875 0.49236 0.0
C348 C 0.82533 0.28301 0.52786 0.0
C349 C 0.85333 0.29344 0.44334 0.0
C350 C 0.80738 0.23939 0.515 0.0
C351 C 0.81123 0.22329 0.46676 0.0
H352 H 0.21451 0.21842 0.64222 0.0
H353 H 0.35363 0.17893 0.68259 0.0
H354 H 0.37375 0.16983 0.59523 0.0
H355 H 0.35589 0.19037 0.50888 0.0
H356 H 0.21788 0.23698 0.47028 0.0
H357 H 0.19276 0.2253 0.55528 0.0
C358 C 0.24861 0.20577 0.63175 0.0
C359 C 0.28257 0.19907 0.66828 0.0
C360 C 0.2603 0.20313 0.58174 0.0
C361 C 0.32688 0.18353 0.65487 0.0
C362 C 0.33847 0.17912 0.60494 0.0
C363 C 0.31998 0.19683 0.51872 0.0
C364 C 0.28905 0.2156 0.48343 0.0
C365 C 0.30616 0.19148 0.56813 0.0
C366 C 0.24257 0.22329 0.4968 0.0
C367 C 0.22821 0.21669 0.54546 0.0
H368 H 0.28094 0.72828 0.35064 0.0
H369 H 0.15983 0.81555 0.34032 0.0
H370 H 0.15219 0.81381 0.43093 0.0
H371 H 0.18821 0.79618 0.5137 0.0
H372 H 0.31783 0.72112 0.51793 0.0
H373 H 0.31481 0.70992 0.42933 0.0
C374 C 0.2522 0.7462 0.36815 0.0
C375 C 0.22111 0.77211 0.33919 0.0
C376 C 0.25066 0.74826 0.41941 0.0
C377 C 0.18386 0.79489 0.36201 0.0
C378 C 0.18016 0.79461 0.41379 0.0
C379 C 0.21562 0.7776 0.49483 0.0
C380 C 0.25352 0.75976 0.52192 0.0
C381 C 0.2147 0.77311 0.44298 0.0
C382 C 0.28873 0.73539 0.49757 0.0
C383 C 0.28688 0.72879 0.44703 0.0
H384 H 0.84747 0.81623 0.64105 0.0
H385 H 0.71758 0.88083 0.67888 0.0
H386 H 0.6977 0.88789 0.59109 0.0
H387 H 0.71119 0.86105 0.50582 0.0
H388 H 0.8398 0.79157 0.47035 0.0
H389 H 0.86666 0.80157 0.55483 0.0
C390 C 0.8156 0.8335 0.62984 0.0
C391 C 0.78399 0.84805 0.666 0.0
C392 C 0.80384 0.83551 0.57977 0.0
C393 C 0.74265 0.87002 0.65153 0.0
C394 C 0.73106 0.87331 0.60138 0.0
C395 C 0.74557 0.84909 0.51623 0.0
C396 C 0.77307 0.82467 0.48195 0.0
C397 C 0.76038 0.85395 0.5654 0.0
C398 C 0.81764 0.80979 0.49606 0.0
C399 C 0.83302 0.81545 0.54443 0.0
H400 H 0.51407 0.11998 0.28494 0.0
H401 H 0.40447 1.01751 0.2876 0.0
H402 H 0.46211 0.95541 0.28527 0.0
H403 H 0.54297 0.93065 0.28943 0.0
H404 H 0.65261 0.03317 0.2848 0.0
H405 H 0.59486 0.09505 0.28106 0.0
C406 C 0.50243 0.08424 0.28342 0.0
C407 C 0.45474 0.07361 0.28598 0.0
C408 C 0.53571 0.04867 0.28235 0.0
C409 C 0.44089 0.02676 0.28573 0.0
C410 C 0.47383 0.99119 0.28442 0.0
C411 C 0.55467 0.96626 0.28603 0.0
C412 C 0.60244 0.97692 0.28697 0.0
C413 C 0.52135 1.00177 0.28364 0.0
C414 C 0.61619 1.02378 0.28436 0.0
C415 C 0.5832 0.05927 0.28204 0.0
H416 H 1.0093 0.44285 0.687 0.0
H417 H 0.89456 0.53982 0.68505 0.0
H418 H 0.94833 0.60418 0.69527 0.0
H419 H 0.02809 0.63312 0.70488 0.0
H420 H 0.14226 0.53553 0.69888 0.0
H421 H 0.08834 0.47168 0.69225 0.0
C422 C 0.99584 0.47803 0.68834 0.0
C423 C 0.94774 0.48598 0.68624 0.0
C424 C 0.02689 0.51502 0.69341 0.0
C425 C 0.9312 0.53205 0.68806 0.0
C426 C 0.96202 0.56914 0.69352 0.0
C427 C 0.04124 0.5979 0.70226 0.0
C428 C 0.08937 0.58954 0.70426 0.0
C429 C 1.00994 0.56097 0.69656 0.0
C430 C 0.10561 0.54351 0.69999 0.0
C431 C 0.0747 0.50668 0.69525 0.0
H432 H 0.93169 0.51977 0.17349 0.0
H433 H 1.00954 0.42367 0.26435 0.0
H434 H 0.07802 0.47216 0.25738 0.0
H435 H 0.11589 0.54232 0.22703 0.0
H436 H 0.03768 0.64328 0.14324 0.0
H437 H 0.96904 0.59292 0.14644 0.0
C438 C 0.96362 0.50956 0.19183 0.0
C439 C 0.96589 0.46705 0.2176 0.0
C440 C 1.00275 0.53861 0.18912 0.0
C441 C 1.00732 0.45479 0.24198 0.0
C442 C 0.04647 0.4829 0.23866 0.0
C443 C 0.08394 0.55301 0.20898 0.0
C444 C 0.08178 0.59598 0.18456 0.0
C445 C 0.04466 0.52463 0.21207 0.0
C446 C 0.03999 0.61015 0.16226 0.0
C447 C 1.00084 0.58143 0.16411 0.0
H448 H 0.42686 0.03782 0.78633 0.0
H449 H 0.52557 0.14676 0.8168 0.0
H450 H 0.58955 0.09241 0.80296 0.0
H451 H 0.61658 1.01265 0.78859 0.0
H452 H 0.51674 0.90472 0.75745 0.0
H453 H 0.45381 0.96101 0.76352 0.0
C454 C 0.46216 0.05046 0.78829 0.0
C455 C 0.47117 0.09673 0.80183 0.0
C456 C 0.49858 1.01919 0.78022 0.0
C457 C 0.51755 0.11137 0.80647 0.0
C458 C 0.55415 0.08035 0.79842 0.0
C459 C 0.58121 1.00158 0.78162 0.0
C460 C 0.57141 0.95444 0.77231 0.0
C461 C 0.54499 0.03397 0.78601 0.0
C462 C 0.52519 0.94071 0.76478 0.0
C463 C 0.48915 0.97282 0.76841 0.0
H464 H 0.56892 0.18254 0.24397 0.0
H465 H 0.54251 0.32556 0.20599 0.0
H466 H 0.62565 0.33729 0.18938 0.0
H467 H 0.70746 0.30976 0.20075 0.0
H468 H 0.73147 0.16709 0.24218 0.0
H469 H 0.64847 0.15186 0.24051 0.0
C470 C 0.58113 0.21591 0.23042 0.0
C471 C 0.54942 0.25311 0.22618 0.0
C472 C 0.629 0.22239 0.22157 0.0
C473 C 0.56591 0.2962 0.20896 0.0
C474 C 0.61366 0.30298 0.2 0.0
C475 C 0.69452 0.27482 0.2069 0.0
C476 C 0.7262 0.23915 0.21979 0.0
C477 C 0.64586 0.26676 0.20804 0.0
C478 C 0.70853 0.19463 0.22996 0.0
C479 C 0.66068 0.18614 0.23013 0.0
H480 H 0.31151 0.34263 0.81285 0.0
H481 H 0.18087 0.32317 0.73834 0.0
H482 H 0.16664 0.40602 0.73899 0.0
H483 H 0.19698 0.48438 0.74605 0.0
H484 H 0.33121 0.50801 0.81101 0.0
H485 H 0.33841 0.42426 0.82924 0.0
C486 C 0.27893 0.35652 0.79915 0.0
C487 C 0.24581 0.32583 0.77861 0.0
C488 C 0.27233 0.40548 0.79652 0.0
C489 C 0.20532 0.34495 0.75775 0.0
C490 C 0.1977 0.39283 0.75687 0.0
C491 C 0.22734 0.47147 0.76549 0.0
C492 C 0.26348 0.50254 0.7771 0.0
C493 C 0.23169 0.42343 0.77427 0.0
C494 C 0.30261 0.4851 0.80214 0.0
C495 C 0.30689 0.43701 0.812 0.0
H496 H 0.48627 0.71999 0.1888 0.0
H497 H 0.52246 0.85771 0.23701 0.0
H498 H 0.44058 0.87982 0.23689 0.0
H499 H 0.35765 0.85623 0.23525 0.0
H500 H 0.32104 0.72074 0.18152 0.0
H501 H 0.40339 0.70195 0.17047 0.0
C502 C 0.47634 0.75524 0.19794 0.0
C503 C 0.51092 0.78698 0.21323 0.0
C504 C 0.42877 0.76813 0.19693 0.0
C505 C 0.49711 0.83253 0.22485 0.0
C506 C 0.44999 0.84516 0.22515 0.0
C507 C 0.36767 0.82338 0.219 0.0
C508 C 0.33297 0.79023 0.20843 0.0
C509 C 0.41536 0.81284 0.21278 0.0
C510 C 0.34673 0.74735 0.18868 0.0
C511 C 0.39403 0.73632 0.18316 0.0
H512 H 0.85368 0.70128 0.76525 0.0
H513 H 0.72004 0.74232 0.82121 0.0
H514 H 0.70008 0.66083 0.83673 0.0
H515 H 0.71657 0.57722 0.823 0.0
H516 H 0.85341 0.53624 0.77584 0.0
H517 H 0.87628 0.61769 0.76875 0.0
C518 C 0.82084 0.69238 0.78242 0.0
C519 C 0.78845 0.72794 0.79227 0.0
C520 C 0.80984 0.6452 0.79196 0.0
C521 C 0.74586 0.71582 0.81403 0.0
C522 C 0.73422 0.66906 0.82238 0.0
C523 C 0.75181 0.58602 0.81243 0.0
C524 C 0.78274 0.5502 0.79872 0.0
C525 C 0.7653 0.6333 0.80988 0.0
C526 C 0.82845 0.56261 0.78577 0.0
C527 C 0.84161 0.60946 0.78163 0.0
H528 H 0.06918 0.21344 0.32168 0.0
H529 H 0.03352 0.34602 0.25786 0.0
H530 H 0.11535 0.36703 0.25291 0.0
H531 H 0.19781 0.34313 0.25598 0.0
H532 H 0.23494 0.21364 0.32576 0.0
H533 H 0.15256 0.19613 0.33979 0.0
C534 C 0.07933 0.24743 0.30803 0.0
C535 C 0.04482 0.27828 0.29035 0.0
C536 C 0.12705 0.25963 0.30601 0.0
C537 C 0.05886 0.32203 0.27252 0.0
C538 C 0.10594 0.33385 0.26917 0.0
C539 C 0.18793 0.31197 0.27605 0.0
C540 C 0.22257 0.28003 0.29044 0.0
C541 C 0.14043 0.30244 0.28447 0.0
C542 C 0.20908 0.23924 0.31528 0.0
C543 C 0.16185 0.22897 0.32273 0.0
H544 H 0.22724 0.98231 0.67723 0.0
H545 H 0.35457 1.01865 0.75093 0.0
H546 H 0.37669 0.93688 0.75526 0.0
H547 H 0.35524 0.85437 0.74823 0.0
H548 H 0.2302 0.81691 0.67128 0.0
H549 H 0.21262 0.89923 0.65656 0.0
C550 C 0.26052 0.97244 0.69282 0.0
C551 C 0.28922 1.00695 0.71375 0.0
C552 C 0.27361 0.92495 0.69443 0.0
C553 C 0.33212 0.99329 0.73396 0.0
C554 C 0.34473 0.94634 0.73673 0.0
C555 C 0.3252 0.86423 0.72638 0.0
C556 C 0.29456 0.82947 0.71 0.0
C557 C 0.31524 0.91175 0.71835 0.0
C558 C 0.25504 0.84285 0.683 0.0
C559 C 0.24461 0.89006 0.67531 0.0
H560 H 0.85784 0.69789 0.25471 0.0
H561 H 0.81931 0.82563 0.32558 0.0
H562 H 0.90139 0.84395 0.33948 0.0
H563 H 0.9847 0.82857 0.32078 0.0
H564 H 1.023 0.69688 0.2579 0.0
H565 H 0.94123 0.67507 0.25201 0.0
C566 C 0.86742 0.72894 0.27474 0.0
C567 C 0.83227 0.76023 0.28931 0.0
C568 C 0.91495 0.73895 0.28327 0.0
C569 C 0.8454 0.80055 0.31473 0.0
C570 C 0.89251 0.81133 0.32212 0.0
C571 C 0.97523 0.79455 0.30707 0.0
C572 C 1.01042 0.76473 0.28924 0.0
C573 C 0.92773 0.78155 0.30505 0.0
C574 C 0.99717 0.72072 0.2718 0.0
C575 C 0.95012 0.70825 0.26816 0.0
H576 H 0.81731 0.21093 0.71038 0.0
H577 H 0.67137 0.23681 0.73086 0.0
H578 H 0.65523 0.15374 0.72538 0.0
H579 H 0.6842 0.0734 0.73049 0.0
H580 H 0.83 0.04569 0.71152 0.0
H581 H 0.84471 0.12917 0.69986 0.0
C582 C 0.78179 0.19845 0.71118 0.0
C583 C 0.74538 0.23036 0.7197 0.0
C584 C 0.77294 0.15 0.70937 0.0
C585 C 0.69975 0.21341 0.72266 0.0
C586 C 0.69062 0.16566 0.72037 0.0
C587 C 0.719 0.08549 0.72202 0.0
C588 C 0.75595 0.05323 0.72172 0.0
C589 C 0.72712 0.13355 0.71593 0.0
C590 C 0.80087 0.06953 0.71122 0.0
C591 C 0.80931 0.11744 0.70515 0.0
H592 H 0.31978 0.52252 0.42104 0.0
H593 H 0.25672 0.41504 0.50966 0.0
H594 H 0.26219 0.46465 0.58269 0.0
H595 H 0.28051 0.54075 0.6196 0.0
H596 H 0.34778 0.64584 0.53067 0.0
H597 H 0.3452 0.59495 0.45962 0.0
C598 C 0.30748 0.5099 0.45646 0.0
C599 C 0.28751 0.46547 0.45999 0.0
C600 C 0.31125 0.53829 0.49811 0.0
C601 C 0.27235 0.44913 0.50614 0.0
C602 C 0.2753 0.47756 0.54778 0.0
C603 C 0.29494 0.55248 0.5849 0.0
C604 C 0.3131 0.59784 0.5805 0.0
C605 C 0.29406 0.52255 0.54402 0.0
C606 C 0.33247 0.61177 0.53516 0.0
C607 C 0.33119 0.58256 0.49436 0.0
H608 H 0.63855 0.72659 0.47166 0.0
H609 H 0.53464 0.76292 0.3632 0.0
H610 H 0.47504 0.76343 0.42712 0.0
H611 H 0.45375 0.76035 0.51485 0.0
H612 H 0.55862 0.72624 0.6231 0.0
H613 H 0.61637 0.7184 0.55816 0.0
C614 C 0.60277 0.73395 0.46176 0.0
C615 C 0.59127 0.74494 0.41267 0.0
C616 C 0.5688 0.73513 0.4988 0.0
C617 C 0.54464 0.75456 0.40072 0.0
C618 C 0.51047 0.75498 0.4373 0.0
C619 C 0.48895 0.75024 0.52424 0.0
C620 C 0.5017 0.74388 0.57395 0.0
C621 C 0.52233 0.7463 0.48666 0.0
C622 C 0.54786 0.73175 0.58524 0.0
C623 C 0.58096 0.72712 0.54811 0.0
H624 H 0.80007 0.43913 0.55443 0.0
H625 H 0.70604 0.52125 0.64152 0.0
H626 H 0.70661 0.58243 0.57795 0.0
H627 H 0.73004 0.60965 0.4945 0.0
H628 H 0.82662 0.52668 0.41067 0.0
H629 H 0.82887 0.46901 0.47626 0.0
C630 C 0.77964 0.47041 0.55961 0.0
C631 C 0.75235 0.47526 0.60214 0.0
C632 C 0.78064 0.50538 0.52344 0.0
C633 C 0.72703 0.51652 0.60883 0.0
C634 C 0.72737 0.55147 0.57248 0.0
C635 C 0.75242 0.57958 0.49101 0.0
C636 C 0.77789 0.57261 0.44723 0.0
C637 C 0.75362 0.54602 0.52921 0.0
C638 C 0.80618 0.53288 0.44348 0.0
C639 C 0.80755 0.49971 0.48102 0.0
H640 H 0.51191 0.27674 0.3907 0.0
H641 H 0.4063 0.3618 0.45847 0.0
H642 H 0.45687 0.37555 0.52856 0.0
H643 H 0.52808 0.35909 0.57369 0.0
H644 H 0.63414 0.27319 0.50867 0.0
H645 H 0.58672 0.26478 0.43424 0.0
C646 C 0.50023 0.29878 0.42049 0.0
C647 C 0.45507 0.31774 0.4194 0.0
C648 C 0.52946 0.30628 0.46135 0.0
C649 C 0.4406 0.34629 0.4584 0.0
C650 C 0.4695 0.35423 0.49863 0.0
C651 C 0.54102 0.33865 0.54316 0.0
C652 C 0.58446 0.31663 0.54693 0.0
C653 C 0.51348 0.33358 0.50099 0.0
C654 C 0.60098 0.29087 0.5067 0.0
C655 C 0.57371 0.28577 0.46424 0.0
H656 H 0.82716 0.91975 0.97196 0.0
H657 H 0.76552 1.01985 0.87242 0.0
H658 H 0.76818 0.07886 0.93651 0.0
H659 H 0.78458 0.10104 0.02243 0.0
H660 H 0.8469 1.00006 0.12084 0.0
H661 H 0.84695 0.9427 0.05565 0.0
C662 C 0.81451 0.95451 0.96402 0.0
C663 C 0.79586 0.96503 0.91736 0.0
C664 C 0.81598 0.98829 1.00106 0.0
C665 C 0.77983 1.01048 0.90798 0.0
C666 C 0.78132 0.04437 0.9447 0.0
C667 C 0.79892 0.06683 0.02951 0.0
C668 C 0.81568 0.05519 0.07681 0.0
C669 C 0.7989 0.03356 0.99163 0.0
C670 C 0.83329 1.01013 0.08511 0.0
C671 C 0.83352 0.97715 0.04775 0.0
H672 H 0.92147 0.23183 0.03639 0.0
H673 H 1.02207 0.27743 0.14372 0.0
H674 H 0.08164 0.28158 0.0797 0.0
H675 H 0.10422 0.27595 0.99193 0.0
H676 H 1.00176 0.23185 0.88564 0.0
H677 H 0.94424 0.22386 0.95044 0.0
C678 C 0.95651 0.24223 0.04603 0.0
C679 C 0.96709 0.25428 0.09487 0.0
C680 C 0.99041 0.24527 0.00899 0.0
C681 C 1.01277 0.26801 0.1064 0.0
C682 C 0.04693 0.27048 0.06976 0.0
C683 C 0.06953 0.26404 0.98302 0.0
C684 C 0.05756 0.25467 0.9337 0.0
C685 C 0.03604 0.25972 0.02071 0.0
C686 C 1.01204 0.2399 0.92303 0.0
C687 C 0.97899 0.23507 0.96014 0.0
H688 H 0.16425 1.00941 0.05548 0.0
H689 H 0.27065 0.91534 0.00463 0.0
H690 H 0.28018 0.96188 0.93004 0.0
H691 H 0.26397 0.03358 0.88307 0.0
H692 H 0.16071 0.12959 0.93682 0.0
H693 H 0.14433 0.07786 0.00613 0.0
C694 C 0.18944 0.99883 0.02805 0.0
C695 C 0.21661 0.95879 0.03608 0.0
C696 C 0.19553 0.02631 0.98566 0.0
C697 C 0.24865 0.94549 0.9996 0.0
C698 C 0.25446 0.97239 0.95691 0.0
C699 C 0.23725 0.04279 0.90942 0.0
C700 C 0.21383 0.0856 0.90485 0.0
C701 C 0.22877 1.01339 0.95003 0.0
C702 C 0.17948 0.09703 0.93954 0.0
C703 C 0.17018 0.06753 0.97933 0.0
H704 H 0.0282 0.82128 0.9282 0.0
H705 H 0.91095 0.76985 0.01093 0.0
H706 H 0.95857 0.76727 0.08588 0.0
H707 H 0.03606 0.774 0.12629 0.0
H708 H 0.15171 0.82515 0.04127 0.0
H709 H 0.10245 0.83321 0.96876 0.0
C710 C 1.01289 0.80959 0.96263 0.0
C711 C 0.9662 0.7955 0.9638 0.0
C712 C 0.04043 0.80777 0.00511 0.0
C713 C 0.94674 0.78122 0.00897 0.0
C714 C 0.97406 0.77945 0.0518 0.0
C715 C 0.05007 0.78748 0.09197 0.0
C716 C 0.09772 0.79791 0.08849 0.0
C717 C 1.02125 0.79192 0.05014 0.0
C718 C 0.11559 0.81544 0.04409 0.0
C719 C 0.08732 0.82041 0.0028 0.0
loop_
_geom_bond_atom_site_label_1
_geom_bond_atom_site_label_2
_geom_bond_distance
_geom_bond_site_symmetry_2
_ccdc_geom_bond_type
Zn0 N4 2.020 . S
Zn0 O8 2.019 . S
Zn0 N10 2.119 . S
Zn0 O18 1.975 . S
C1 N2 1.334 . S
C1 N5 1.336 . S
N2 C1 1.334 . S
N2 C3 1.334 . S
C3 N2 1.334 . S
C3 N4 1.336 . S
N4 Zn0 2.020 . S
N4 C3 1.336 . S
N4 N5 1.354 . S
N5 C1 1.336 . S
N5 N4 1.354 . S
N5 Zn9 2.020 . S
C6 O7 1.244 . S
C6 O30 1.257 . S
O7 C6 1.244 . S
O8 Zn0 2.019 . S
O8 C28 1.257 . S
Zn9 N5 2.020 . S
Zn9 O16 1.975 . S
Zn9 N25 2.119 . S
Zn9 O30 2.019 . S
N10 Zn0 2.119 . S
N10 C12 1.334 . S
N10 C13 1.328 . S
C11 C12 1.391 . S
C11 N14 1.329 . S
C11 H32 0.930 . S
C12 N10 1.334 . S
C12 C11 1.391 . S
C12 H19 0.930 . S
C13 N10 1.328 . S
C13 C15 1.392 . S
C13 H20 0.930 . S
N14 C11 1.329 . S
N14 C15 1.331 . S
C15 C13 1.392 . S
C15 N14 1.331 . S
O16 Zn9 1.975 . S
O16 C17 1.252 . S
C17 O16 1.252 . S
C17 O18 1.252 . S
O18 Zn0 1.975 . S
O18 C17 1.252 . S
H19 C12 0.930 . S
H20 C13 0.930 . S
C21 C22 1.392 . S
C21 N25 1.328 . S
C21 H27 0.930 . S
C22 C21 1.392 . S
C22 N26 1.331 . S
C23 C24 1.391 . S
C23 N26 1.329 . S
C23 H33 0.930 . S
C24 C23 1.391 . S
C24 N25 1.334 . S
C24 H31 0.930 . S
N25 Zn9 2.119 . S
N25 C21 1.328 . S
N25 C24 1.334 . S
N26 C22 1.331 . S
N26 C23 1.329 . S
H27 C21 0.930 . S
C28 O8 1.257 . S
C28 O29 1.244 . S
O29 C28 1.244 . S
O30 C6 1.257 . S
O30 Zn9 2.019 . S
H31 C24 0.930 . S
H32 C11 0.930 . S
H33 C23 0.930 . S
Zn34 N38 2.020 . S
Zn34 O42 2.019 . S
Zn34 N44 2.119 . S
Zn34 O52 1.975 . S
C35 N36 1.334 . S
C35 N39 1.336 . S
N36 C35 1.334 . S
N36 C37 1.334 . S
C37 N36 1.334 . S
C37 N38 1.336 . S
N38 Zn34 2.020 . S
N38 C37 1.336 . S
N38 N39 1.354 . S
N39 C35 1.336 . S
N39 N38 1.354 . S
N39 Zn43 2.020 . S
C40 O41 1.244 . S
C40 O64 1.257 . S
O41 C40 1.244 . S
O42 Zn34 2.019 . S
O42 C62 1.257 . S
Zn43 N39 2.020 . S
Zn43 O50 1.975 . S
Zn43 N59 2.119 . S
Zn43 O64 2.019 . S
N44 Zn34 2.119 . S
N44 C46 1.334 . S
N44 C47 1.328 . S
C45 C46 1.391 . S
C45 N48 1.329 . S
C45 H66 0.930 . S
C46 N44 1.334 . S
C46 C45 1.391 . S
C46 H53 0.930 . S
C47 N44 1.328 . S
C47 C49 1.392 . S
C47 H54 0.930 . S
N48 C45 1.329 . S
N48 C49 1.331 . S
C49 C47 1.392 . S
C49 N48 1.331 . S
O50 Zn43 1.975 . S
O50 C51 1.252 . S
C51 O50 1.252 . S
C51 O52 1.252 . S
O52 Zn34 1.975 . S
O52 C51 1.252 . S
H53 C46 0.930 . S
H54 C47 0.930 . S
C55 C56 1.392 . S
C55 N59 1.328 . S
C55 H61 0.930 . S
C56 C55 1.392 . S
C56 N60 1.331 . S
C57 C58 1.391 . S
C57 N60 1.329 . S
C57 H67 0.930 . S
C58 C57 1.391 . S
C58 N59 1.334 . S
C58 H65 0.930 . S
N59 Zn43 2.119 . S
N59 C55 1.328 . S
N59 C58 1.334 . S
N60 C56 1.331 . S
N60 C57 1.329 . S
H61 C55 0.930 . S
C62 O42 1.257 . S
C62 O63 1.244 . S
O63 C62 1.244 . S
O64 C40 1.257 . S
O64 Zn43 2.019 . S
H65 C58 0.930 . S
H66 C45 0.930 . S
H67 C57 0.930 . S
Zn68 N72 2.020 . S
Zn68 O76 2.019 . S
Zn68 N78 2.119 . S
Zn68 O86 1.975 . S
C69 N70 1.334 . S
C69 N73 1.336 . S
N70 C69 1.334 . S
N70 C71 1.334 . S
C71 N70 1.334 . S
C71 N72 1.336 . S
N72 Zn68 2.020 . S
N72 C71 1.336 . S
N72 N73 1.354 . S
N73 C69 1.336 . S
N73 N72 1.354 . S
N73 Zn77 2.020 . S
C74 O75 1.244 . S
C74 O98 1.257 . S
O75 C74 1.244 . S
O76 Zn68 2.019 . S
O76 C96 1.257 . S
Zn77 N73 2.020 . S
Zn77 O84 1.975 . S
Zn77 N93 2.119 . S
Zn77 O98 2.019 . S
N78 Zn68 2.119 . S
N78 C80 1.334 . S
N78 C81 1.328 . S
C79 C80 1.391 . S
C79 N82 1.329 . S
C79 H100 0.930 . S
C80 N78 1.334 . S
C80 C79 1.391 . S
C80 H87 0.930 . S
C81 N78 1.328 . S
C81 C83 1.392 . S
C81 H88 0.930 . S
N82 C79 1.329 . S
N82 C83 1.331 . S
C83 C81 1.392 . S
C83 N82 1.331 . S
O84 Zn77 1.975 . S
O84 C85 1.252 . S
C85 O84 1.252 . S
C85 O86 1.252 . S
O86 Zn68 1.975 . S
O86 C85 1.252 . S
H87 C80 0.930 . S
H88 C81 0.930 . S
C89 C90 1.392 . S
C89 N93 1.328 . S
C89 H95 0.930 . S
C90 C89 1.392 . S
C90 N94 1.331 . S
C91 C92 1.391 . S
C91 N94 1.329 . S
C91 H101 0.930 . S
C92 C91 1.391 . S
C92 N93 1.334 . S
C92 H99 0.930 . S
N93 Zn77 2.119 . S
N93 C89 1.328 . S
N93 C92 1.334 . S
N94 C90 1.331 . S
N94 C91 1.329 . S
H95 C89 0.930 . S
C96 O76 1.257 . S
C96 O97 1.244 . S
O97 C96 1.244 . S
O98 C74 1.257 . S
O98 Zn77 2.019 . S
H99 C92 0.930 . S
H100 C79 0.930 . S
H101 C91 0.930 . S
Zn102 N106 2.020 . S
Zn102 O110 2.019 . S
Zn102 N112 2.119 . S
Zn102 O120 1.975 . S
C103 N104 1.334 . S
C103 N107 1.336 . S
N104 C103 1.334 . S
N104 C105 1.334 . S
C105 N104 1.334 . S
C105 N106 1.336 . S
N106 Zn102 2.020 . S
N106 C105 1.336 . S
N106 N107 1.354 . S
N107 C103 1.336 . S
N107 N106 1.354 . S
N107 Zn111 2.020 . S
C108 O109 1.244 . S
C108 O132 1.257 . S
O109 C108 1.244 . S
O110 Zn102 2.019 . S
O110 C130 1.257 . S
Zn111 N107 2.020 . S
Zn111 O118 1.975 . S
Zn111 N127 2.119 . S
Zn111 O132 2.019 . S
N112 Zn102 2.119 . S
N112 C114 1.334 . S
N112 C115 1.328 . S
C113 C114 1.391 . S
C113 N116 1.329 . S
C113 H134 0.930 . S
C114 N112 1.334 . S
C114 C113 1.391 . S
C114 H121 0.930 . S
C115 N112 1.328 . S
C115 C117 1.392 . S
C115 H122 0.930 . S
N116 C113 1.329 . S
N116 C117 1.331 . S
C117 C115 1.392 . S
C117 N116 1.331 . S
O118 Zn111 1.975 . S
O118 C119 1.252 . S
C119 O118 1.252 . S
C119 O120 1.252 . S
O120 Zn102 1.975 . S
O120 C119 1.252 . S
H121 C114 0.930 . S
H122 C115 0.930 . S
C123 C124 1.392 . S
C123 N127 1.328 . S
C123 H129 0.930 . S
C124 C123 1.392 . S
C124 N128 1.331 . S
C125 C126 1.391 . S
C125 N128 1.329 . S
C125 H135 0.930 . S
C126 C125 1.391 . S
C126 N127 1.334 . S
C126 H133 0.930 . S
N127 Zn111 2.119 . S
N127 C123 1.328 . S
N127 C126 1.334 . S
N128 C124 1.331 . S
N128 C125 1.329 . S
H129 C123 0.930 . S
C130 O110 1.257 . S
C130 O131 1.244 . S
O131 C130 1.244 . S
O132 C108 1.257 . S
O132 Zn111 2.019 . S
H133 C126 0.930 . S
H134 C113 0.930 . S
H135 C125 0.930 . S
Zn136 N140 2.020 . S
Zn136 O144 2.019 . S
Zn136 N146 2.119 . S
Zn136 O154 1.975 . S
C137 N138 1.334 . S
C137 N141 1.336 . S
N138 C137 1.334 . S
N138 C139 1.334 . S
C139 N138 1.334 . S
C139 N140 1.336 . S
N140 Zn136 2.020 . S
N140 C139 1.336 . S
N140 N141 1.354 . S
N141 C137 1.336 . S
N141 N140 1.354 . S
N141 Zn145 2.020 . S
C142 O143 1.244 . S
C142 O166 1.257 . S
O143 C142 1.244 . S
O144 Zn136 2.019 . S
O144 C164 1.257 . S
Zn145 N141 2.020 . S
Zn145 O152 1.975 . S
Zn145 N161 2.119 . S
Zn145 O166 2.019 . S
N146 Zn136 2.119 . S
N146 C148 1.334 . S
N146 C149 1.328 . S
C147 C148 1.391 . S
C147 N150 1.329 . S
C147 H168 0.930 . S
C148 N146 1.334 . S
C148 C147 1.391 . S
C148 H155 0.930 . S
C149 N146 1.328 . S
C149 C151 1.392 . S
C149 H156 0.930 . S
N150 C147 1.329 . S
N150 C151 1.331 . S
C151 C149 1.392 . S
C151 N150 1.331 . S
O152 Zn145 1.975 . S
O152 C153 1.252 . S
C153 O152 1.252 . S
C153 O154 1.252 . S
O154 Zn136 1.975 . S
O154 C153 1.252 . S
H155 C148 0.930 . S
H156 C149 0.930 . S
C157 C158 1.392 . S
C157 N161 1.328 . S
C157 H163 0.930 . S
C158 C157 1.392 . S
C158 N162 1.331 . S
C159 C160 1.391 . S
C159 N162 1.329 . S
C159 H169 0.930 . S
C160 C159 1.391 . S
C160 N161 1.334 . S
C160 H167 0.930 . S
N161 Zn145 2.119 . S
N161 C157 1.328 . S
N161 C160 1.334 . S
N162 C158 1.331 . S
N162 C159 1.329 . S
H163 C157 0.930 . S
C164 O144 1.257 . S
C164 O165 1.244 . S
O165 C164 1.244 . S
O166 C142 1.257 . S
O166 Zn145 2.019 . S
H167 C160 0.930 . S
H168 C147 0.930 . S
H169 C159 0.930 . S
Zn170 N174 2.020 . S
Zn170 O178 2.019 . S
Zn170 N180 2.119 . S
Zn170 O188 1.975 . S
C171 N172 1.334 . S
C171 N175 1.336 . S
N172 C171 1.334 . S
N172 C173 1.334 . S
C173 N172 1.334 . S
C173 N174 1.336 . S
N174 Zn170 2.020 . S
N174 C173 1.336 . S
N174 N175 1.354 . S
N175 C171 1.336 . S
N175 N174 1.354 . S
N175 Zn179 2.020 . S
C176 O177 1.244 . S
C176 O200 1.257 . S
O177 C176 1.244 . S
O178 Zn170 2.019 . S
O178 C198 1.257 . S
Zn179 N175 2.020 . S
Zn179 O186 1.975 . S
Zn179 N195 2.119 . S
Zn179 O200 2.019 . S
N180 Zn170 2.119 . S
N180 C182 1.334 . S
N180 C183 1.328 . S
C181 C182 1.391 . S
C181 N184 1.329 . S
C181 H202 0.930 . S
C182 N180 1.334 . S
C182 C181 1.391 . S
C182 H189 0.930 . S
C183 N180 1.328 . S
C183 C185 1.392 . S
C183 H190 0.930 . S
N184 C181 1.329 . S
N184 C185 1.331 . S
C185 C183 1.392 . S
C185 N184 1.331 . S
O186 Zn179 1.975 . S
O186 C187 1.252 . S
C187 O186 1.252 . S
C187 O188 1.252 . S
O188 Zn170 1.975 . S
O188 C187 1.252 . S
H189 C182 0.930 . S
H190 C183 0.930 . S
C191 C192 1.392 . S
C191 N195 1.328 . S
C191 H197 0.930 . S
C192 C191 1.392 . S
C192 N196 1.331 . S
C193 C194 1.391 . S
C193 N196 1.329 . S
C193 H203 0.930 . S
C194 C193 1.391 . S
C194 N195 1.334 . S
C194 H201 0.930 . S
N195 Zn179 2.119 . S
N195 C191 1.328 . S
N195 C194 1.334 . S
N196 C192 1.331 . S
N196 C193 1.329 . S
H197 C191 0.930 . S
C198 O178 1.257 . S
C198 O199 1.244 . S
O199 C198 1.244 . S
O200 C176 1.257 . S
O200 Zn179 2.019 . S
H201 C194 0.930 . S
H202 C181 0.930 . S
H203 C193 0.930 . S
Zn204 N208 2.020 . S
Zn204 O212 2.019 . S
Zn204 N214 2.119 . S
Zn204 O222 1.975 . S
C205 N206 1.334 . S
C205 N209 1.336 . S
N206 C205 1.334 . S
N206 C207 1.334 . S
C207 N206 1.334 . S
C207 N208 1.336 . S
N208 Zn204 2.020 . S
N208 C207 1.336 . S
N208 N209 1.354 . S
N209 C205 1.336 . S
N209 N208 1.354 . S
N209 Zn213 2.020 . S
C210 O211 1.244 . S
C210 O234 1.257 . S
O211 C210 1.244 . S
O212 Zn204 2.019 . S
O212 C232 1.257 . S
Zn213 N209 2.020 . S
Zn213 O220 1.975 . S
Zn213 N229 2.119 . S
Zn213 O234 2.019 . S
N214 Zn204 2.119 . S
N214 C216 1.334 . S
N214 C217 1.328 . S
C215 C216 1.391 . S
C215 N218 1.329 . S
C215 H236 0.930 . S
C216 N214 1.334 . S
C216 C215 1.391 . S
C216 H223 0.930 . S
C217 N214 1.328 . S
C217 C219 1.392 . S
C217 H224 0.930 . S
N218 C215 1.329 . S
N218 C219 1.331 . S
C219 C217 1.392 . S
C219 N218 1.331 . S
O220 Zn213 1.975 . S
O220 C221 1.252 . S
C221 O220 1.252 . S
C221 O222 1.252 . S
O222 Zn204 1.975 . S
O222 C221 1.252 . S
H223 C216 0.930 . S
H224 C217 0.930 . S
C225 C226 1.392 . S
C225 N229 1.328 . S
C225 H231 0.930 . S
C226 C225 1.392 . S
C226 N230 1.331 . S
C227 C228 1.391 . S
C227 N230 1.329 . S
C227 H237 0.930 . S
C228 C227 1.391 . S
C228 N229 1.334 . S
C228 H235 0.930 . S
N229 Zn213 2.119 . S
N229 C225 1.328 . S
N229 C228 1.334 . S
N230 C226 1.331 . S
N230 C227 1.329 . S
H231 C225 0.930 . S
C232 O212 1.257 . S
C232 O233 1.244 . S
O233 C232 1.244 . S
O234 C210 1.257 . S
O234 Zn213 2.019 . S
H235 C228 0.930 . S
H236 C215 0.930 . S
H237 C227 0.930 . S
Zn238 N242 2.020 . S
Zn238 O246 2.019 . S
Zn238 N248 2.119 . S
Zn238 O256 1.975 . S
C239 N240 1.334 . S
C239 N243 1.336 . S
N240 C239 1.334 . S
N240 C241 1.334 . S
C241 N240 1.334 . S
C241 N242 1.336 . S
N242 Zn238 2.020 . S
N242 C241 1.336 . S
N242 N243 1.354 . S
N243 C239 1.336 . S
N243 N242 1.354 . S
N243 Zn247 2.020 . S
C244 O245 1.244 . S
C244 O268 1.257 . S
O245 C244 1.244 . S
O246 Zn238 2.019 . S
O246 C266 1.257 . S
Zn247 N243 2.020 . S
Zn247 O254 1.975 . S
Zn247 N263 2.119 . S
Zn247 O268 2.019 . S
N248 Zn238 2.119 . S
N248 C250 1.334 . S
N248 C251 1.328 . S
C249 C250 1.391 . S
C249 N252 1.329 . S
C249 H270 0.930 . S
C250 N248 1.334 . S
C250 C249 1.391 . S
C250 H257 0.930 . S
C251 N248 1.328 . S
C251 C253 1.392 . S
C251 H258 0.930 . S
N252 C249 1.329 . S
N252 C253 1.331 . S
C253 C251 1.392 . S
C253 N252 1.331 . S
O254 Zn247 1.975 . S
O254 C255 1.252 . S
C255 O254 1.252 . S
C255 O256 1.252 . S
O256 Zn238 1.975 . S
O256 C255 1.252 . S
H257 C250 0.930 . S
H258 C251 0.930 . S
C259 C260 1.392 . S
C259 N263 1.328 . S
C259 H265 0.930 . S
C260 C259 1.392 . S
C260 N264 1.331 . S
C261 C262 1.391 . S
C261 N264 1.329 . S
C261 H271 0.930 . S
C262 C261 1.391 . S
C262 N263 1.334 . S
C262 H269 0.930 . S
N263 Zn247 2.119 . S
N263 C259 1.328 . S
N263 C262 1.334 . S
N264 C260 1.331 . S
N264 C261 1.329 . S
H265 C259 0.930 . S
C266 O246 1.257 . S
C266 O267 1.244 . S
O267 C266 1.244 . S
O268 C244 1.257 . S
O268 Zn247 2.019 . S
H269 C262 0.930 . S
H270 C249 0.930 . S
H271 C261 0.930 . S
H272 C278 0.930 . S
H273 C281 0.930 . S
H274 C282 0.930 . S
H275 C283 0.930 . S
H276 C286 0.930 1_556 S
H277 C287 0.930 . S
C278 H272 0.930 . S
C278 C279 1.355 . S
C278 C280 1.415 . S
C279 C278 1.355 . S
C279 C281 1.419 . S
C280 C278 1.415 . S
C280 C285 1.425 . S
C280 C287 1.409 . S
C281 H273 0.930 . S
C281 C279 1.419 . S
C281 C282 1.362 . S
C282 H274 0.930 . S
C282 C281 1.362 . S
C282 C285 1.409 . S
C283 H275 0.930 . S
C283 C284 1.355 . S
C283 C285 1.415 . S
C284 C283 1.355 . S
C284 C286 1.419 . S
C285 C280 1.425 . S
C285 C282 1.409 . S
C285 C283 1.415 . S
C286 H276 0.930 1_554 S
C286 C284 1.419 . S
C286 C287 1.362 . S
C287 H277 0.930 . S
C287 C280 1.409 . S
C287 C286 1.362 . S
H288 C294 0.930 . S
H289 C297 0.930 . S
H290 C298 0.930 . S
H291 C299 0.930 . S
H292 C302 0.930 . S
H293 C303 0.930 . S
C294 H288 0.930 . S
C294 C295 1.355 . S
C294 C296 1.415 . S
C295 C294 1.355 . S
C295 C297 1.419 . S
C296 C294 1.415 . S
C296 C301 1.425 . S
C296 C303 1.409 . S
C297 H289 0.930 . S
C297 C295 1.419 . S
C297 C298 1.362 . S
C298 H290 0.930 . S
C298 C297 1.362 . S
C298 C301 1.409 . S
C299 H291 0.930 . S
C299 C300 1.355 . S
C299 C301 1.415 . S
C300 C299 1.355 . S
C300 C302 1.419 . S
C301 C296 1.425 . S
C301 C298 1.409 . S
C301 C299 1.415 . S
C302 H292 0.930 . S
C302 C300 1.419 . S
C302 C303 1.362 . S
C303 H293 0.930 . S
C303 C296 1.409 . S
C303 C302 1.362 . S
H304 C310 0.930 . S
H305 C313 0.930 . S
H306 C314 0.930 . S
H307 C315 0.930 . S
H308 C318 0.930 . S
H309 C319 0.930 . S
C310 H304 0.930 . S
C310 C311 1.355 . S
C310 C312 1.415 . S
C311 C310 1.355 . S
C311 C313 1.419 . S
C312 C310 1.415 . S
C312 C317 1.425 . S
C312 C319 1.409 . S
C313 H305 0.930 . S
C313 C311 1.419 . S
C313 C314 1.362 . S
C314 H306 0.930 . S
C314 C313 1.362 . S
C314 C317 1.409 . S
C315 H307 0.930 . S
C315 C316 1.355 . S
C315 C317 1.415 . S
C316 C315 1.355 . S
C316 C318 1.419 . S
C317 C312 1.425 . S
C317 C314 1.409 . S
C317 C315 1.415 . S
C318 H308 0.930 . S
C318 C316 1.419 . S
C318 C319 1.362 . S
C319 H309 0.930 . S
C319 C312 1.409 . S
C319 C318 1.362 . S
H320 C326 0.930 . S
H321 C329 0.930 . S
H322 C330 0.930 . S
H323 C331 0.930 . S
H324 C334 0.930 . S
H325 C335 0.930 . S
C326 H320 0.930 . S
C326 C327 1.355 . S
C326 C328 1.415 . S
C327 C326 1.355 . S
C327 C329 1.419 . S
C328 C326 1.415 . S
C328 C333 1.425 . S
C328 C335 1.409 . S
C329 H321 0.930 . S
C329 C327 1.419 . S
C329 C330 1.362 . S
C330 H322 0.930 . S
C330 C329 1.362 . S
C330 C333 1.409 . S
C331 H323 0.930 . S
C331 C332 1.355 . S
C331 C333 1.415 . S
C332 C331 1.355 . S
C332 C334 1.419 . S
C333 C328 1.425 . S
C333 C330 1.409 . S
C333 C331 1.415 . S
C334 H324 0.930 . S
C334 C332 1.419 . S
C334 C335 1.362 . S
C335 H325 0.930 . S
C335 C328 1.409 . S
C335 C334 1.362 . S
H336 C342 0.930 . S
H337 C345 0.930 . S
H338 C346 0.930 . S
H339 C347 0.930 . S
H340 C350 0.930 . S
H341 C351 0.930 . S
C342 H336 0.930 . S
C342 C343 1.355 . S
C342 C344 1.415 . S
C343 C342 1.355 . S
C343 C345 1.419 . S
C344 C342 1.415 . S
C344 C349 1.425 . S
C344 C351 1.409 . S
C345 H337 0.930 . S
C345 C343 1.419 . S
C345 C346 1.362 . S
C346 H338 0.930 . S
C346 C345 1.362 . S
C346 C349 1.409 . S
C347 H339 0.930 . S
C347 C348 1.355 . S
C347 C349 1.415 . S
C348 C347 1.355 . S
C348 C350 1.419 . S
C349 C344 1.425 . S
C349 C346 1.409 . S
C349 C347 1.415 . S
C350 H340 0.930 . S
C350 C348 1.419 . S
C350 C351 1.362 . S
C351 H341 0.930 . S
C351 C344 1.409 . S
C351 C350 1.362 . S
H352 C358 0.930 . S
H353 C361 0.930 . S
H354 C362 0.930 . S
H355 C363 0.930 . S
H356 C366 0.930 . S
H357 C367 0.930 . S
C358 H352 0.930 . S
C358 C359 1.355 . S
C358 C360 1.415 . S
C359 C358 1.355 . S
C359 C361 1.419 . S
C360 C358 1.415 . S
C360 C365 1.425 . S
C360 C367 1.409 . S
C361 H353 0.930 . S
C361 C359 1.419 . S
C361 C362 1.362 . S
C362 H354 0.930 . S
C362 C361 1.362 . S
C362 C365 1.409 . S
C363 H355 0.930 . S
C363 C364 1.355 . S
C363 C365 1.415 . S
C364 C363 1.355 . S
C364 C366 1.419 . S
C365 C360 1.425 . S
C365 C362 1.409 . S
C365 C363 1.415 . S
C366 H356 0.930 . S
C366 C364 1.419 . S
C366 C367 1.362 . S
C367 H357 0.930 . S
C367 C360 1.409 . S
C367 C366 1.362 . S
H368 C374 0.930 . S
H369 C377 0.930 . S
H370 C378 0.930 . S
H371 C379 0.930 . S
H372 C382 0.930 . S
H373 C383 0.930 . S
C374 H368 0.930 . S
C374 C375 1.355 . S
C374 C376 1.415 . S
C375 C374 1.355 . S
C375 C377 1.419 . S
C376 C374 1.415 . S
C376 C381 1.425 . S
C376 C383 1.409 . S
C377 H369 0.930 . S
C377 C375 1.419 . S
C377 C378 1.362 . S
C378 H370 0.930 . S
C378 C377 1.362 . S
C378 C381 1.409 . S
C379 H371 0.930 . S
C379 C380 1.355 . S
C379 C381 1.415 . S
C380 C379 1.355 . S
C380 C382 1.419 . S
C381 C376 1.425 . S
C381 C378 1.409 . S
C381 C379 1.415 . S
C382 H372 0.930 . S
C382 C380 1.419 . S
C382 C383 1.362 . S
C383 H373 0.930 . S
C383 C376 1.409 . S
C383 C382 1.362 . S
H384 C390 0.930 . S
H385 C393 0.930 . S
H386 C394 0.930 . S
H387 C395 0.930 . S
H388 C398 0.930 . S
H389 C399 0.930 . S
C390 H384 0.930 . S
C390 C391 1.355 . S
C390 C392 1.415 . S
C391 C390 1.355 . S
C391 C393 1.419 . S
C392 C390 1.415 . S
C392 C397 1.425 . S
C392 C399 1.409 . S
C393 H385 0.930 . S
C393 C391 1.419 . S
C393 C394 1.362 . S
C394 H386 0.930 . S
C394 C393 1.362 . S
C394 C397 1.409 . S
C395 H387 0.930 . S
C395 C396 1.355 . S
C395 C397 1.415 . S
C396 C395 1.355 . S
C396 C398 1.419 . S
C397 C392 1.425 . S
C397 C394 1.409 . S
C397 C395 1.415 . S
C398 H388 0.930 . S
C398 C396 1.419 . S
C398 C399 1.362 . S
C399 H389 0.930 . S
C399 C392 1.409 . S
C399 C398 1.362 . S
H400 C406 0.930 . S
H401 C409 0.930 . S
H402 C410 0.930 1_565 S
H403 C411 0.930 . S
H404 C414 0.930 . S
H405 C415 0.930 1_545 S
C406 H400 0.930 . S
C406 C407 1.355 . S
C406 C408 1.415 . S
C407 C406 1.355 . S
C407 C409 1.419 . S
C408 C406 1.415 . S
C408 C413 1.425 1_545 S
C408 C415 1.409 1_545 S
C409 H401 0.930 . S
C409 C407 1.419 . S
C409 C410 1.362 . S
C410 H402 0.930 1_545 S
C410 C409 1.362 . S
C410 C413 1.409 1_545 S
C411 H403 0.930 . S
C411 C412 1.355 . S
C411 C413 1.415 . S
C412 C411 1.355 . S
C412 C414 1.419 . S
C413 C408 1.425 1_565 S
C413 C410 1.409 1_565 S
C413 C411 1.415 . S
C414 H404 0.930 . S
C414 C412 1.419 . S
C414 C415 1.362 . S
C415 H405 0.930 1_565 S
C415 C408 1.409 1_565 S
C415 C414 1.362 . S
H416 C422 0.930 . S
H417 C425 0.930 . S
H418 C426 0.930 . S
H419 C427 0.930 . S
H420 C430 0.930 . S
H421 C431 0.930 . S
C422 H416 0.930 . S
C422 C423 1.355 . S
C422 C424 1.423 . S
C423 C422 1.355 . S
C423 C425 1.419 . S
C424 C422 1.423 . S
C424 C429 1.425 1_655 S
C424 C431 1.400 1_655 S
C425 H417 0.930 . S
C425 C423 1.419 . S
C425 C426 1.362 . S
C426 H418 0.930 . S
C426 C425 1.362 . S
C426 C429 1.400 1_655 S
C427 H419 0.930 . S
C427 C428 1.355 . S
C427 C429 1.423 . S
C428 C427 1.355 . S
C428 C430 1.419 . S
C429 C424 1.425 1_455 S
C429 C426 1.400 1_455 S
C429 C427 1.423 . S
C430 H420 0.930 . S
C430 C428 1.419 . S
C430 C431 1.362 . S
C431 H421 0.930 . S
C431 C424 1.400 1_455 S
C431 C430 1.362 . S
H432 C438 0.930 1_455 S
H433 C441 0.930 . S
H434 C442 0.930 . S
H435 C443 0.930 1_655 S
H436 C446 0.930 . S
H437 C447 0.930 . S
C438 H432 0.930 1_655 S
C438 C439 1.355 . S
C438 C440 1.415 1_655 S
C439 C438 1.355 . S
C439 C441 1.419 . S
C440 C438 1.415 1_455 S
C440 C445 1.425 1_455 S
C440 C447 1.409 . S
C441 H433 0.930 . S
C441 C439 1.419 . S
C441 C442 1.362 . S
C442 H434 0.930 . S
C442 C441 1.362 . S
C442 C445 1.409 . S
C443 H435 0.930 1_455 S
C443 C444 1.355 . S
C443 C445 1.415 1_455 S
C444 C443 1.355 . S
C444 C446 1.419 . S
C445 C440 1.425 1_655 S
C445 C442 1.409 . S
C445 C443 1.415 1_655 S
C446 H436 0.930 . S
C446 C444 1.419 . S
C446 C447 1.362 . S
C447 H437 0.930 . S
C447 C440 1.409 . S
C447 C446 1.362 . S
H448 C454 0.930 . S
H449 C457 0.930 . S
H450 C458 0.930 . S
H451 C459 0.930 . S
H452 C462 0.930 . S
H453 C463 0.930 . S
C454 H448 0.930 . S
C454 C455 1.355 1_565 S
C454 C456 1.415 . S
C455 C454 1.355 1_545 S
C455 C457 1.419 . S
C456 C454 1.415 . S
C456 C461 1.425 1_565 S
C456 C463 1.409 . S
C457 H449 0.930 . S
C457 C455 1.419 . S
C457 C458 1.362 . S
C458 H450 0.930 . S
C458 C457 1.362 . S
C458 C461 1.409 . S
C459 H451 0.930 . S
C459 C460 1.355 1_545 S
C459 C461 1.415 . S
C460 C459 1.355 1_565 S
C460 C462 1.419 . S
C461 C456 1.425 1_545 S
C461 C458 1.409 . S
C461 C459 1.415 . S
C462 H452 0.930 . S
C462 C460 1.419 . S
C462 C463 1.362 . S
C463 H453 0.930 . S
C463 C456 1.409 . S
C463 C462 1.362 . S
H464 C470 0.930 . S
H465 C473 0.930 . S
H466 C474 0.930 . S
H467 C475 0.930 . S
H468 C478 0.930 . S
H469 C479 0.930 . S
C470 H464 0.930 . S
C470 C471 1.355 . S
C470 C472 1.415 . S
C471 C470 1.355 . S
C471 C473 1.419 . S
C472 C470 1.415 . S
C472 C477 1.425 . S
C472 C479 1.409 . S
C473 H465 0.930 . S
C473 C471 1.419 . S
C473 C474 1.362 . S
C474 H466 0.930 . S
C474 C473 1.362 . S
C474 C477 1.409 . S
C475 H467 0.930 . S
C475 C476 1.355 . S
C475 C477 1.415 . S
C476 C475 1.355 . S
C476 C478 1.419 . S
C477 C472 1.425 . S
C477 C474 1.409 . S
C477 C475 1.415 . S
C478 H468 0.930 . S
C478 C476 1.419 . S
C478 C479 1.362 . S
C479 H469 0.930 . S
C479 C472 1.409 . S
C479 C478 1.362 . S
H480 C486 0.930 . S
H481 C489 0.930 . S
H482 C490 0.930 . S
H483 C491 0.930 . S
H484 C494 0.930 . S
H485 C495 0.930 . S
C486 H480 0.930 . S
C486 C487 1.355 . S
C486 C488 1.415 . S
C487 C486 1.355 . S
C487 C489 1.419 . S
C488 C486 1.415 . S
C488 C493 1.425 . S
C488 C495 1.409 . S
C489 H481 0.930 . S
C489 C487 1.419 . S
C489 C490 1.362 . S
C490 H482 0.930 . S
C490 C489 1.362 . S
C490 C493 1.409 . S
C491 H483 0.930 . S
C491 C492 1.355 . S
C491 C493 1.415 . S
C492 C491 1.355 . S
C492 C494 1.419 . S
C493 C488 1.425 . S
C493 C490 1.409 . S
C493 C491 1.415 . S
C494 H484 0.930 . S
C494 C492 1.419 . S
C494 C495 1.362 . S
C495 H485 0.930 . S
C495 C488 1.409 . S
C495 C494 1.362 . S
H496 C502 0.930 . S
H497 C505 0.930 . S
H498 C506 0.930 . S
H499 C507 0.930 . S
H500 C510 0.930 . S
H501 C511 0.930 . S
C502 H496 0.930 . S
C502 C503 1.355 . S
C502 C504 1.415 . S
C503 C502 1.355 . S
C503 C505 1.419 . S
C504 C502 1.415 . S
C504 C509 1.425 . S
C504 C511 1.409 . S
C505 H497 0.930 . S
C505 C503 1.419 . S
C505 C506 1.362 . S
C506 H498 0.930 . S
C506 C505 1.362 . S
C506 C509 1.409 . S
C507 H499 0.930 . S
C507 C508 1.355 . S
C507 C509 1.415 . S
C508 C507 1.355 . S
C508 C510 1.419 . S
C509 C504 1.425 . S
C509 C506 1.409 . S
C509 C507 1.415 . S
C510 H500 0.930 . S
C510 C508 1.419 . S
C510 C511 1.362 . S
C511 H501 0.930 . S
C511 C504 1.409 . S
C511 C510 1.362 . S
H512 C518 0.930 . S
H513 C521 0.930 . S
H514 C522 0.930 . S
H515 C523 0.930 . S
H516 C526 0.930 . S
H517 C527 0.930 . S
C518 H512 0.930 . S
C518 C519 1.355 . S
C518 C520 1.415 . S
C519 C518 1.355 . S
C519 C521 1.419 . S
C520 C518 1.415 . S
C520 C525 1.425 . S
C520 C527 1.409 . S
C521 H513 0.930 . S
C521 C519 1.419 . S
C521 C522 1.362 . S
C522 H514 0.930 . S
C522 C521 1.362 . S
C522 C525 1.409 . S
C523 H515 0.930 . S
C523 C524 1.355 . S
C523 C525 1.415 . S
C524 C523 1.355 . S
C524 C526 1.419 . S
C525 C520 1.425 . S
C525 C522 1.409 . S
C525 C523 1.415 . S
C526 H516 0.930 . S
C526 C524 1.419 . S
C526 C527 1.362 . S
C527 H517 0.930 . S
C527 C520 1.409 . S
C527 C526 1.362 . S
H528 C534 0.930 . S
H529 C537 0.930 . S
H530 C538 0.930 . S
H531 C539 0.930 . S
H532 C542 0.930 . S
H533 C543 0.930 . S
C534 H528 0.930 . S
C534 C535 1.355 . S
C534 C536 1.415 . S
C535 C534 1.355 . S
C535 C537 1.419 . S
C536 C534 1.415 . S
C536 C541 1.425 . S
C536 C543 1.409 . S
C537 H529 0.930 . S
C537 C535 1.419 . S
C537 C538 1.362 . S
C538 H530 0.930 . S
C538 C537 1.362 . S
C538 C541 1.409 . S
C539 H531 0.930 . S
C539 C540 1.355 . S
C539 C541 1.415 . S
C540 C539 1.355 . S
C540 C542 1.419 . S
C541 C536 1.425 . S
C541 C538 1.409 . S
C541 C539 1.415 . S
C542 H532 0.930 . S
C542 C540 1.419 . S
C542 C543 1.362 . S
C543 H533 0.930 . S
C543 C536 1.409 . S
C543 C542 1.362 . S
H544 C550 0.930 . S
H545 C553 0.930 . S
H546 C554 0.930 . S
H547 C555 0.930 . S
H548 C558 0.930 . S
H549 C559 0.930 . S
C550 H544 0.930 . S
C550 C551 1.355 . S
C550 C552 1.415 . S
C551 C550 1.355 . S
C551 C553 1.419 . S
C552 C550 1.415 . S
C552 C557 1.425 . S
C552 C559 1.409 . S
C553 H545 0.930 . S
C553 C551 1.419 . S
C553 C554 1.362 . S
C554 H546 0.930 . S
C554 C553 1.362 . S
C554 C557 1.409 . S
C555 H547 0.930 . S
C555 C556 1.355 . S
C555 C557 1.415 . S
C556 C555 1.355 . S
C556 C558 1.419 . S
C557 C552 1.425 . S
C557 C554 1.409 . S
C557 C555 1.415 . S
C558 H548 0.930 . S
C558 C556 1.419 . S
C558 C559 1.362 . S
C559 H549 0.930 . S
C559 C552 1.409 . S
C559 C558 1.362 . S
H560 C566 0.930 . S
H561 C569 0.930 . S
H562 C570 0.930 . S
H563 C571 0.930 . S
H564 C574 0.930 . S
H565 C575 0.930 . S
C566 H560 0.930 . S
C566 C567 1.355 . S
C566 C568 1.415 . S
C567 C566 1.355 . S
C567 C569 1.419 . S
C568 C566 1.415 . S
C568 C573 1.425 . S
C568 C575 1.409 . S
C569 H561 0.930 . S
C569 C567 1.419 . S
C569 C570 1.362 . S
C570 H562 0.930 . S
C570 C569 1.362 . S
C570 C573 1.409 . S
C571 H563 0.930 . S
C571 C572 1.355 . S
C571 C573 1.415 . S
C572 C571 1.355 . S
C572 C574 1.419 . S
C573 C568 1.425 . S
C573 C570 1.409 . S
C573 C571 1.415 . S
C574 H564 0.930 . S
C574 C572 1.419 . S
C574 C575 1.362 . S
C575 H565 0.930 . S
C575 C568 1.409 . S
C575 C574 1.362 . S
H576 C582 0.930 . S
H577 C585 0.930 . S
H578 C586 0.930 . S
H579 C587 0.930 . S
H580 C590 0.930 . S
H581 C591 0.930 . S
C582 H576 0.930 . S
C582 C583 1.355 . S
C582 C584 1.415 . S
C583 C582 1.355 . S
C583 C585 1.419 . S
C584 C582 1.415 . S
C584 C589 1.425 . S
C584 C591 1.409 . S
C585 H577 0.930 . S
C585 C583 1.419 . S
C585 C586 1.362 . S
C586 H578 0.930 . S
C586 C585 1.362 . S
C586 C589 1.409 . S
C587 H579 0.930 . S
C587 C588 1.355 . S
C587 C589 1.415 . S
C588 C587 1.355 . S
C588 C590 1.419 . S
C589 C584 1.425 . S
C589 C586 1.409 . S
C589 C587 1.415 . S
C590 H580 0.930 . S
C590 C588 1.419 . S
C590 C591 1.362 . S
C591 H581 0.930 . S
C591 C584 1.409 . S
C591 C590 1.362 . S
H592 C598 0.930 . S
H593 C601 0.930 . S
H594 C602 0.930 . S
H595 C603 0.930 . S
H596 C606 0.930 . S
H597 C607 0.930 . S
C598 H592 0.930 . S
C598 C599 1.355 . S
C598 C600 1.415 . S
C599 C598 1.355 . S
C599 C601 1.419 . S
C600 C598 1.415 . S
C600 C605 1.425 . S
C600 C607 1.409 . S
C601 H593 0.930 . S
C601 C599 1.419 . S
C601 C602 1.362 . S
C602 H594 0.930 . S
C602 C601 1.362 . S
C602 C605 1.409 . S
C603 H595 0.930 . S
C603 C604 1.355 . S
C603 C605 1.415 . S
C604 C603 1.355 . S
C604 C606 1.419 . S
C605 C600 1.425 . S
C605 C602 1.409 . S
C605 C603 1.415 . S
C606 H596 0.930 . S
C606 C604 1.419 . S
C606 C607 1.362 . S
C607 H597 0.930 . S
C607 C600 1.409 . S
C607 C606 1.362 . S
H608 C614 0.930 . S
H609 C617 0.930 . S
H610 C618 0.930 . S
H611 C619 0.930 . S
H612 C622 0.930 . S
H613 C623 0.930 . S
C614 H608 0.930 . S
C614 C615 1.355 . S
C614 C616 1.415 . S
C615 C614 1.355 . S
C615 C617 1.419 . S
C616 C614 1.415 . S
C616 C621 1.425 . S
C616 C623 1.409 . S
C617 H609 0.930 . S
C617 C615 1.419 . S
C617 C618 1.362 . S
C618 H610 0.930 . S
C618 C617 1.362 . S
C618 C621 1.409 . S
C619 H611 0.930 . S
C619 C620 1.355 . S
C619 C621 1.415 . S
C620 C619 1.355 . S
C620 C622 1.419 . S
C621 C616 1.425 . S
C621 C618 1.409 . S
C621 C619 1.415 . S
C622 H612 0.930 . S
C622 C620 1.419 . S
C622 C623 1.362 . S
C623 H613 0.930 . S
C623 C616 1.409 . S
C623 C622 1.362 . S
H624 C630 0.930 . S
H625 C633 0.930 . S
H626 C634 0.930 . S
H627 C635 0.930 . S
H628 C638 0.930 . S
H629 C639 0.930 . S
C630 H624 0.930 . S
C630 C631 1.355 . S
C630 C632 1.415 . S
C631 C630 1.355 . S
C631 C633 1.419 . S
C632 C630 1.415 . S
C632 C637 1.425 . S
C632 C639 1.409 . S
C633 H625 0.930 . S
C633 C631 1.419 . S
C633 C634 1.362 . S
C634 H626 0.930 . S
C634 C633 1.362 . S
C634 C637 1.409 . S
C635 H627 0.930 . S
C635 C636 1.355 . S
C635 C637 1.415 . S
C636 C635 1.355 . S
C636 C638 1.419 . S
C637 C632 1.425 . S
C637 C634 1.409 . S
C637 C635 1.415 . S
C638 H628 0.930 . S
C638 C636 1.419 . S
C638 C639 1.362 . S
C639 H629 0.930 . S
C639 C632 1.409 . S
C639 C638 1.362 . S
H640 C646 0.930 . S
H641 C649 0.930 . S
H642 C650 0.930 . S
H643 C651 0.930 . S
H644 C654 0.930 . S
H645 C655 0.930 . S
C646 H640 0.930 . S
C646 C647 1.355 . S
C646 C648 1.415 . S
C647 C646 1.355 . S
C647 C649 1.419 . S
C648 C646 1.415 . S
C648 C653 1.425 . S
C648 C655 1.409 . S
C649 H641 0.930 . S
C649 C647 1.419 . S
C649 C650 1.362 . S
C650 H642 0.930 . S
C650 C649 1.362 . S
C650 C653 1.409 . S
C651 H643 0.930 . S
C651 C652 1.355 . S
C651 C653 1.415 . S
C652 C651 1.355 . S
C652 C654 1.419 . S
C653 C648 1.425 . S
C653 C650 1.409 . S
C653 C651 1.415 . S
C654 H644 0.930 . S
C654 C652 1.419 . S
C654 C655 1.362 . S
C655 H645 0.930 . S
C655 C648 1.409 . S
C655 C654 1.362 . S
H656 C662 0.930 . S
H657 C665 0.930 . S
H658 C666 0.930 . S
H659 C667 0.930 . S
H660 C670 0.930 . S
H661 C671 0.930 1_565 S
C662 H656 0.930 . S
C662 C663 1.355 . S
C662 C664 1.415 . S
C663 C662 1.355 . S
C663 C665 1.419 . S
C664 C662 1.415 . S
C664 C669 1.425 1_566 S
C664 C671 1.409 1_566 S
C665 H657 0.930 . S
C665 C663 1.419 . S
C665 C666 1.362 1_565 S
C666 H658 0.930 . S
C666 C665 1.362 1_545 S
C666 C669 1.409 1_556 S
C667 H659 0.930 . S
C667 C668 1.355 . S
C667 C669 1.415 . S
C668 C667 1.355 . S
C668 C670 1.419 . S
C669 C664 1.425 1_544 S
C669 C666 1.409 1_554 S
C669 C667 1.415 . S
C670 H660 0.930 . S
C670 C668 1.419 . S
C670 C671 1.362 . S
C671 H661 0.930 1_545 S
C671 C664 1.409 1_544 S
C671 C670 1.362 . S
H672 C678 0.930 . S
H673 C681 0.930 . S
H674 C682 0.930 . S
H675 C683 0.930 . S
H676 C686 0.930 . S
H677 C687 0.930 . S
C678 H672 0.930 . S
C678 C679 1.355 . S
C678 C680 1.415 1_554 S
C679 C678 1.355 . S
C679 C681 1.419 . S
C680 C678 1.415 1_556 S
C680 C685 1.425 1_656 S
C680 C687 1.409 . S
C681 H673 0.930 . S
C681 C679 1.419 . S
C681 C682 1.362 1_655 S
C682 H674 0.930 . S
C682 C681 1.362 1_455 S
C682 C685 1.409 . S
C683 H675 0.930 . S
C683 C684 1.355 . S
C683 C685 1.415 1_556 S
C684 C683 1.355 . S
C684 C686 1.419 . S
C685 C680 1.425 1_454 S
C685 C682 1.409 . S
C685 C683 1.415 1_554 S
C686 H676 0.930 . S
C686 C684 1.419 . S
C686 C687 1.362 1_455 S
C687 H677 0.930 . S
C687 C680 1.409 . S
C687 C686 1.362 1_655 S
H688 C694 0.930 . S
H689 C697 0.930 . S
H690 C698 0.930 . S
H691 C699 0.930 . S
H692 C702 0.930 . S
H693 C703 0.930 . S
C694 H688 0.930 . S
C694 C695 1.355 . S
C694 C696 1.426 . S
C695 C694 1.355 . S
C695 C697 1.419 . S
C696 C694 1.426 . S
C696 C701 1.424 1_564 S
C696 C703 1.399 1_564 S
C697 H689 0.930 . S
C697 C695 1.419 . S
C697 C698 1.362 . S
C698 H690 0.930 . S
C698 C697 1.362 . S
C698 C701 1.409 1_564 S
C699 H691 0.930 . S
C699 C700 1.355 . S
C699 C701 1.415 . S
C700 C699 1.355 . S
C700 C702 1.419 . S
C701 C696 1.424 1_546 S
C701 C698 1.409 1_546 S
C701 C699 1.415 . S
C702 H692 0.930 . S
C702 C700 1.419 . S
C702 C703 1.362 . S
C703 H693 0.930 . S
C703 C696 1.399 1_546 S
C703 C702 1.362 . S
H704 C710 0.930 . S
H705 C713 0.930 . S
H706 C714 0.930 . S
H707 C715 0.933 . S
H708 C718 0.930 . S
H709 C719 0.930 . S
C710 H704 0.930 . S
C710 C711 1.355 . S
C710 C712 1.415 1_655 S
C711 C710 1.355 . S
C711 C713 1.419 . S
C712 C710 1.415 1_455 S
C712 C717 1.425 1_456 S
C712 C719 1.409 . S
C713 H705 0.930 . S
C713 C711 1.419 . S
C713 C714 1.362 1_556 S
C714 H706 0.930 . S
C714 C713 1.362 1_554 S
C714 C717 1.409 . S
C715 H707 0.933 . S
C715 C716 1.355 . S
C715 C717 1.415 1_455 S
C716 C715 1.355 . S
C716 C718 1.419 . S
C717 C712 1.425 1_654 S
C717 C714 1.409 . S
C717 C715 1.415 1_655 S
C718 H708 0.930 . S
C718 C716 1.419 . S
C718 C719 1.362 1_554 S
C719 H709 0.930 . S
C719 C712 1.409 . S
C719 C718 1.362 1_556 S
C279 C1 1.506 . S
C284 C176 1.623 1_554 S
C295 C232 1.616 1_556 S
C300 C37 1.552 . S
C311 C244 1.681 1_554 S
C316 C71 1.605 . S
C327 C105 1.609 . S
C332 C142 1.667 1_556 S
C343 C139 1.559 . S
C348 C108 1.677 . S
C359 C173 1.597 . S
C364 C28 1.645 . S
C375 C205 1.600 . S
C380 C40 1.649 . S
C391 C241 1.584 . S
C396 C74 1.684 . S
C407 C22 0.987 . S
C412 C83 0.908 . S
C423 C117 1.039 . S
C428 C49 0.994 . S
C439 C151 1.023 . S
C444 C226 0.917 . S
C455 C185 0.937 . S
C460 C253 0.932 . S
C471 C6 2.287 . S
C476 C137 2.230 . S
C487 C171 2.236 . S
C492 C62 2.286 . S
C503 C96 2.278 . S
C508 C207 2.209 . S
C519 C239 2.213 . S
C524 C130 2.257 . S
C535 C164 2.283 1_455 S
C540 C3 2.211 . S
C551 C198 2.250 1_565 S
C556 C35 2.269 . S
C567 C69 2.225 . S
C572 C210 2.243 1_655 S
C583 C103 2.268 . S
C588 C266 2.255 1_545 S
C599 C15 0.938 . S
C604 C51 0.989 . S
C615 C85 1.001 . S
C620 C56 0.998 . S
C631 C119 0.998 . S
C636 C90 1.017 . S
C647 C17 0.987 . S
C652 C124 0.950 . S
C663 C255 0.995 . S
C668 C158 0.924 . S
C679 C153 0.998 . S
C684 C192 1.014 . S
C695 C219 1.018 . S
C700 C187 0.991 . S
C711 C260 0.971 . S
C716 C221 0.986 . S
