# Generated by pormake.
# Topology rkf, (6)-cn, num edge types: 1
# Building blocks:
#     Node 0, Type 0, BuildingBlock: INOVEN_clean_sbu_0, # of connection points: 6
#     Node 1, Type 0, BuildingBlock: INOVEN_clean_sbu_0, # of connection points: 6
#     Node 2, Type 0, BuildingBlock: INOVEN_clean_sbu_0, # of connection points: 6
#     Node 3, Type 0, BuildingBlock: INOVEN_clean_sbu_0, # of connection points: 6
#     Node 4, Type 0, BuildingBlock: INOVEN_clean_sbu_0, # of connection points: 6
#     Node 5, Type 0, BuildingBlock: INOVEN_clean_sbu_0, # of connection points: 6
#     Edge 6, Type (0, 0), BuildingBlock: EZIPEK_clean_linker_0, # of connection points: 2
#     Edge 7, Type (0, 0), BuildingBlock: EZIPEK_clean_linker_0, # of connection points: 2
#     Edge 8, Type (0, 0), BuildingBlock: EZIPEK_clean_linker_0, # of connection points: 2
#     Edge 9, Type (0, 0), BuildingBlock: EZIPEK_clean_linker_0, # of connection points: 2
#     Edge 10, Type (0, 0), BuildingBlock: EZIPEK_clean_linker_0, # of connection points: 2
#     Edge 11, Type (0, 0), BuildingBlock: EZIPEK_clean_linker_0, # of connection points: 2
#     Edge 12, Type (0, 0), BuildingBlock: EZIPEK_clean_linker_0, # of connection points: 2
#     Edge 13, Type (0, 0), BuildingBlock: EZIPEK_clean_linker_0, # of connection points: 2
#     Edge 14, Type (0, 0), BuildingBlock: EZIPEK_clean_linker_0, # of connection points: 2
#     Edge 15, Type (0, 0), BuildingBlock: EZIPEK_clean_linker_0, # of connection points: 2
#     Edge 16, Type (0, 0), BuildingBlock: EZIPEK_clean_linker_0, # of connection points: 2
#     Edge 17, Type (0, 0), BuildingBlock: EZIPEK_clean_linker_0, # of connection points: 2
#     Edge 18, Type (0, 0), BuildingBlock: EZIPEK_clean_linker_0, # of connection points: 2
#     Edge 19, Type (0, 0), BuildingBlock: EZIPEK_clean_linker_0, # of connection points: 2
#     Edge 20, Type (0, 0), BuildingBlock: EZIPEK_clean_linker_0, # of connection points: 2
#     Edge 21, Type (0, 0), BuildingBlock: EZIPEK_clean_linker_0, # of connection points: 2
#     Edge 22, Type (0, 0), BuildingBlock: EZIPEK_clean_linker_0, # of connection points: 2
#     Edge 23, Type (0, 0), BuildingBlock: EZIPEK_clean_linker_0, # of connection points: 2
# Relax obj value: 0.995
# Max RMSD: 0.254
# Mean RMSD: 0.254
data_MOF--net-rkf--node1-INOVEN_clean_sbu_0--edge1-EZIPEK_clean_linker_0
_symmetry_space_group_name_H-M    P1
_symmetry_Int_Tables_number       1
_symmetry_cell_setting            triclinic
loop_
_symmetry_equiv_pos_as_xyz
'x, y, z'
_cell_length_a     19.515421
_cell_length_b     19.366067
_cell_length_c     32.680318
_cell_angle_alpha  89.662366
_cell_angle_beta   91.36236
_cell_angle_gamma 121.73413
loop_
_atom_site_label
_atom_site_type_symbol
_atom_site_fract_x
_atom_site_fract_y
_atom_site_fract_z
_atom_type_partial_charge
Gd0 Gd 0.35228 0.02924 0.23275 0.0
Gd1 Gd 0.37909 0.18873 1.20142 0.0
C2 C 0.35642 0.15328 0.30057 0.0
C3 C 0.38531 0.91983 0.25056 0.0
C4 C 0.41375 0.90342 0.28925 0.0
C5 C 0.37543 0.82295 0.30276 0.0
C6 C 0.45739 0.96717 0.31763 0.0
C7 C 0.39545 0.87146 0.37274 0.0
C8 C 0.44854 0.95106 0.35953 0.0
C9 C 0.3668 0.80693 0.34464 0.0
C10 C 0.21641 0.03137 0.22595 0.0
C11 C 0.31532 0.0428 1.1327 0.0
C12 C 0.39891 0.33068 1.19056 0.0
C13 C 0.358 0.37594 1.19007 0.0
C14 C 0.3811 0.43683 1.16096 0.0
C15 C 0.2973 0.3602 1.21773 0.0
C16 C 0.27509 0.45754 1.18245 0.0
C17 C 0.25607 0.40125 1.21399 0.0
C18 C 0.34025 0.47751 1.15726 0.0
C19 C 0.5137 0.18278 1.20942 0.0
O20 O 0.37038 0.0936 0.29472 0.0
O21 O 0.34341 0.18771 0.26838 0.0
O22 O 0.3125 0.90725 0.2521 0.0
O23 O 0.43602 -0.01241 0.23208 0.0
O24 O 0.22701 -0.01068 0.25391 0.0
O25 O 0.27553 0.06429 1.20281 0.0
O26 O 0.32314 0.11404 1.14168 0.0
O27 O 0.33144 0.00414 1.16204 0.0
O28 O 0.38261 0.27961 1.16043 0.0
O29 O 0.40634 0.3037 0.22597 0.0
O30 O 0.50109 0.22042 1.18043 0.0
O31 O 0.45568 0.15349 0.23312 0.0
H32 H 0.34219 0.77301 0.28129 0.0
H33 H 0.48792 0.02982 0.30785 0.0
H34 H 0.47155 0.00152 0.38086 0.0
H35 H 0.32692 0.745 0.35443 0.0
H36 H 0.42833 0.45024 1.13977 0.0
H37 H 0.27948 0.31401 0.24092 0.0
H38 H 0.20576 0.38474 0.23349 0.0
H39 H 0.35497 0.51978 1.13229 0.0
Gd40 Gd 0.41403 0.34967 0.56073 0.0
Gd41 Gd 0.24929 0.32004 0.53602 0.0
C42 C 0.29322 0.35424 0.6331 0.0
C43 C 0.56347 0.43051 0.58531 0.0
C44 C 0.60445 0.44662 0.62586 0.0
C45 C 0.62719 0.39322 0.64082 0.0
C46 C 0.60809 0.50541 0.65261 0.0
C47 C 0.62343 0.43461 0.70991 0.0
C48 C 0.61829 0.49978 0.69478 0.0
C49 C 0.63633 0.38704 0.68278 0.0
C50 C 0.29704 0.19555 0.56716 0.0
C51 C 0.34488 0.27453 0.46891 0.0
C52 C 0.10401 0.26884 0.51044 0.0
C53 C 0.06264 0.31143 0.4992 0.0
C54 C 0.07122 0.37564 0.52336 0.0
C55 C 0.02725 0.29779 0.46 0.0
C56 C 0.02241 0.41957 0.46628 0.0
C57 C 0.00687 0.35125 0.44372 0.0
C58 C 0.05056 0.42938 0.50696 0.0
C59 C 0.37379 0.47457 0.52943 0.0
O60 O 0.36328 0.36012 0.6241 0.0
O61 O 0.2409 0.34149 0.60314 0.0
O62 O 0.5262 0.35495 0.5724 0.0
O63 O 0.52091 0.464 0.57848 0.0
O64 O 0.37097 0.21661 0.56019 0.0
O65 O 0.29158 0.25613 0.57484 0.0
O66 O 0.27553 0.26291 0.48191 0.0
O67 O 0.4109 0.31493 0.49295 0.0
O68 O 0.12298 0.26907 0.54909 0.0
O69 O 0.16228 0.28336 0.4862 0.0
O70 O 0.30189 0.45677 0.53822 0.0
O71 O 0.37258 0.41111 0.52075 0.0
H72 H 0.6284 0.34961 0.62071 0.0
H73 H 0.59375 0.54942 0.64172 0.0
H74 H 0.60923 0.53764 0.71546 0.0
H75 H 0.64215 0.33757 0.69409 0.0
H76 H 0.09933 0.38791 0.55358 0.0
H77 H 0.02196 0.24995 0.44061 0.0
H78 H -0.01459 0.34308 0.41219 0.0
H79 H 0.06302 0.48214 0.52459 0.0
Gd80 Gd 0.1764 0.39981 0.89846 0.0
Gd81 Gd 0.02759 0.24006 0.86587 0.0
C82 C 0.03397 0.27403 0.96392 0.0
C83 C 0.26442 0.54206 0.93082 0.0
C84 C 0.25638 0.57726 0.96884 0.0
C85 C 0.18043 0.56083 0.98076 0.0
C86 C 0.32011 0.60893 0.99775 0.0
C87 C 0.22591 0.58093 1.05159 0.0
C88 C 0.30482 0.61039 1.03909 0.0
C89 C 0.16565 0.56458 1.0221 0.0
C90 C 0.19925 0.27673 0.88967 0.0
C91 C 0.17298 0.34558 0.80293 0.0
C92 C 0.91144 0.09207 0.85304 0.0
C93 C 0.82413 0.05201 0.85669 0.0
C94 C 0.79093 0.08811 0.87956 0.0
C95 C 0.77427 -0.01379 0.83101 0.0
C96 C 0.66384 0.0079 0.842 0.0
C97 C 0.69454 0.96379 0.82392 0.0
C98 C 0.71059 0.06506 0.87276 0.0
C99 C 0.02022 0.37561 0.85886 0.0
O100 O 0.10696 0.34125 0.95874 0.0
O101 O -0.00979 0.22897 0.93205 0.0
O102 O 0.27798 0.48318 0.93682 0.0
O103 O 0.21128 0.52619 0.90119 0.0
O104 O 0.25802 0.35157 0.88576 0.0
O105 O 0.1368 0.27298 0.90117 0.0
O106 O 0.11692 0.27129 0.8147 0.0
O107 O 0.19654 0.40881 0.82826 0.0
O108 O 0.95407 0.1162 0.88711 0.0
O109 O 0.94175 0.14655 0.82421 0.0
O110 O -0.01662 0.31534 0.83327 0.0
O111 O 0.04982 0.3564 0.88761 0.0
H112 H 0.13019 0.53544 0.95912 0.0
H113 H 0.37926 0.62263 0.98914 0.0
H114 H 0.35225 0.62438 1.06152 0.0
H115 H 0.10448 0.54199 1.03132 0.0
H116 H 0.82862 0.13849 0.90012 0.0
H117 H 0.79887 0.95728 0.8134 0.0
H118 H 0.66041 0.91808 0.80061 0.0
H119 H 0.68773 0.09683 0.8891 0.0
Gd120 Gd 0.94545 0.18517 0.22837 0.0
Gd121 Gd 0.80112 0.03622 1.20993 0.0
C122 C 0.8708 0.04774 0.30091 0.0
C123 C 0.04448 0.33203 0.25373 0.0
C124 C 0.03612 0.38571 0.28158 0.0
C125 C -0.03025 0.3538 0.307 0.0
C126 C 0.08893 0.46983 0.27945 0.0
C127 C 0.01477 0.48998 0.33243 0.0
C128 C 0.07825 0.52159 0.30449 0.0
C129 C -0.04096 0.40507 0.33209 0.0
C130 C -0.02545 0.07712 1.19396 0.0
C131 C 0.90544 0.15706 1.13201 0.0
C132 C 0.6744 0.90103 1.18536 0.0
C133 C 0.65336 0.81965 1.17292 0.0
C134 C 0.57632 0.75256 1.18073 0.0
C135 C 0.70892 0.80863 1.15225 0.0
C136 C 0.60788 0.66558 1.14331 0.0
C137 C 0.68619 0.73219 1.13747 0.0
C138 C 0.55371 0.67543 1.16618 0.0
C139 C 0.77765 0.15307 0.2409 0.0
O140 O 0.91089 0.127 0.29286 0.0
O141 O 0.83277 -0.00334 0.26991 0.0
O142 O 0.04299 0.26901 0.26967 0.0
O143 O -0.00061 0.3139 1.22077 0.0
O144 O 0.01859 0.15533 1.19025 0.0
O145 O 0.92238 0.05947 1.22052 0.0
O146 O 0.84592 0.08376 1.14376 0.0
O147 O 0.95073 0.21057 1.16058 0.0
O148 O 0.72071 0.96022 1.16089 0.0
O149 O 0.69485 0.91967 0.22372 0.0
O150 O 0.74058 0.07861 0.25231 0.0
O151 O 0.82516 0.16074 1.21384 0.0
H152 H 0.92656 0.28895 0.3078 0.0
H153 H 0.1387 0.49545 0.25859 0.0
H154 H 0.12147 0.58599 0.30271 0.0
H155 H 0.90901 0.37671 0.35267 0.0
H156 H 0.53311 0.76026 1.19711 0.0
H157 H 0.76894 0.85948 1.14634 0.0
H158 H 0.72895 0.72559 1.12002 0.0
H159 H 0.49347 0.6246 1.17132 0.0
Gd160 Gd 0.81871 0.90763 0.56743 0.0
Gd161 Gd 0.86185 0.7901 0.53975 0.0
C162 C 0.88526 0.83061 0.63794 0.0
C163 C 0.73484 0.96572 0.59375 0.0
C164 C 0.6962 0.97223 0.63018 0.0
C165 C 0.7278 0.97528 0.66949 0.0
C166 C 0.62538 0.97404 0.62537 0.0
C167 C 0.61936 -0.01573 0.69881 0.0
C168 C 0.58703 -0.0199 0.65956 0.0
C169 C 0.68976 -0.01831 0.70356 0.0
C170 C -0.02327 0.9741 0.55329 0.0
C171 C 0.84691 0.90965 0.47023 0.0
C172 C 0.92519 0.71194 0.51272 0.0
C173 C 0.00625 0.72605 0.51673 0.0
C174 C 0.02355 0.67428 0.49616 0.0
C175 C 0.06929 0.79862 0.53442 0.0
C176 C 0.16534 0.77875 0.49923 0.0
C177 C 0.14929 0.82513 0.52568 0.0
C178 C 0.10318 0.70044 0.48798 0.0
C179 C 0.70182 0.72318 0.55133 0.0
O180 O 0.84135 0.86447 0.63064 0.0
O181 O 0.90729 0.80479 0.60619 0.0
O182 O 0.81378 0.00788 0.59315 0.0
O183 O 0.70298 0.89258 0.57854 0.0
O184 O 0.93913 0.01261 0.54766 0.0
O185 O 0.93087 0.90701 0.56957 0.0
O186 O 0.87478 0.86135 0.47967 0.0
O187 O 0.81288 0.92848 0.49914 0.0
O188 O 0.92004 0.76632 0.49126 0.0
O189 O 0.88393 0.69196 0.54614 0.0
O190 O 0.74038 0.68718 0.55912 0.0
O191 O 0.74903 0.79021 0.53499 0.0
H192 H 0.78194 0.97324 0.6738 0.0
H193 H 0.60004 0.97116 0.59511 0.0
H194 H 0.53309 -0.01748 0.65546 0.0
H195 H 0.71588 -0.01433 0.7337 0.0
H196 H -0.02441 0.61769 0.48282 0.0
H197 H 0.05635 0.83853 0.55107 0.0
H198 H 0.19668 0.88584 0.53473 0.0
H199 H 0.11543 0.6648 0.46793 0.0
Gd200 Gd 0.00798 0.78883 0.90186 0.0
Gd201 Gd 0.17313 0.86521 0.86939 0.0
C202 C 0.16471 0.88617 0.9686 0.0
C203 C 0.87291 0.67769 0.93167 0.0
C204 C 0.82224 0.64152 0.96729 0.0
C205 C 0.82471 0.6897 0.9997 0.0
C206 C 0.76532 0.5576 0.96693 0.0
C207 C 0.70833 0.57175 1.02889 0.0
C208 C 0.70853 0.52265 0.99771 0.0
C209 C 0.76794 0.6549 1.03031 0.0
C210 C 0.07617 0.94692 0.88673 0.0
C211 C 0.02056 0.82018 0.80436 0.0
C212 C 0.31086 0.94818 0.83467 0.0
C213 C 0.3797 0.03152 0.83636 0.0
C214 C 0.43274 0.0592 0.80386 0.0
C215 C 0.38602 0.08649 0.86633 0.0
C216 C 0.4876 0.19792 0.82653 0.0
C217 C 0.44072 0.16982 0.86166 0.0
C218 C 0.48613 0.14201 0.79886 0.0
C219 C 0.09714 0.70198 0.87916 0.0
O220 O 0.08496 0.83339 0.96333 0.0
O221 O 0.21027 0.91129 0.93563 0.0
O222 O 0.88625 0.74801 0.91898 0.0
O223 O 0.93515 0.66978 0.92858 0.0
O224 O -0.00148 0.89647 0.8848 0.0
O225 O 0.11136 0.91353 0.90161 0.0
O226 O 0.09996 0.86462 0.8121 0.0
O227 O -0.028 0.77547 0.83403 0.0
O228 O 0.24437 0.93977 0.81936 0.0
O229 O 0.29928 0.90404 0.8671 0.0
O230 O 0.173 0.7518 0.88604 0.0
O231 O 0.06682 0.74072 0.86508 0.0
H232 H 0.86836 0.75444 1.00052 0.0
H233 H 0.76285 0.51971 0.94196 0.0
H234 H 0.66281 0.45854 0.99622 0.0
H235 H 0.76839 0.69353 1.05428 0.0
H236 H 0.42847 0.01741 0.78055 0.0
H237 H 0.34472 0.06563 0.89149 0.0
H238 H 0.44013 0.21231 0.88284 0.0
H239 H 0.52116 0.16285 0.77131 0.0
C240 C -0.00674 0.96123 1.20804 0.0
C241 C 0.00696 0.02647 1.18288 0.0
C242 C 0.14703 0.0839 1.18464 0.0
C243 C 0.1399 0.02424 1.21269 0.0
N244 N 0.05087 0.88851 0.23985 0.0
N245 N 0.08477 0.11003 1.12745 0.0
C246 C 0.06113 0.9563 1.22104 0.0
C247 C 0.07916 0.06903 1.16238 0.0
N248 N 0.91635 0.90546 1.21867 0.0
N249 N 0.21435 0.15951 1.18379 0.0
H250 H 0.03369 0.10469 1.11347 0.0
H251 H 0.1386 0.14312 1.11177 0.0
H252 H 0.25834 0.1793 1.20681 0.0
H253 H 0.21868 0.20538 1.16503 0.0
H254 H 0.9009 0.85754 0.23856 0.0
H255 H 0.86778 0.90857 1.20695 0.0
H256 H -0.00532 0.83701 0.245 0.0
H257 H 0.09804 0.88017 0.2473 0.0
C258 C 0.09548 0.05289 0.60037 0.0
C259 C 0.06388 0.01621 0.56134 0.0
C260 C 0.19932 0.06015 0.5389 0.0
C261 C 0.22928 0.11259 0.5729 0.0
N262 N 0.21627 0.13446 0.6432 0.0
N263 N 0.08242 0.9704 0.49632 0.0
C264 C 0.18019 0.09956 0.60642 0.0
C265 C 0.11476 0.01386 0.53169 0.0
N266 N 0.04477 0.04485 0.63075 0.0
N267 N 0.25205 0.05582 0.51395 0.0
H268 H 0.02069 0.93534 0.49052 0.0
H269 H 0.11626 0.97023 0.47232 0.0
H270 H 0.31401 0.08919 0.52012 0.0
H271 H 0.23482 0.01506 0.48964 0.0
H272 H 0.06371 0.06902 0.66005 0.0
H273 H -0.01768 0.01333 0.62688 0.0
H274 H 0.1858 0.12676 0.67013 0.0
H275 H 0.27901 0.16821 0.64683 0.0
C276 C 0.13801 0.07616 0.92589 0.0
C277 C 0.11457 0.0352 0.88751 0.0
C278 C 0.18829 0.16391 0.85153 0.0
C279 C 0.20434 0.20431 0.88933 0.0
N280 N 0.21664 0.20529 0.96223 0.0
N281 N 0.10685 0.03792 0.81387 0.0
C282 C 0.18714 0.16194 0.92655 0.0
C283 C 0.13749 0.07838 0.85019 0.0
N284 N 0.10913 0.03311 0.96124 0.0
N285 N 0.22086 0.20859 0.81719 0.0
H286 H 0.06381 0.97614 0.81252 0.0
H287 H 0.1173 0.06592 0.7855 0.0
H288 H 0.26192 0.2711 0.81912 0.0
H289 H 0.21302 0.18411 0.78798 0.0
H290 H 0.12116 0.05907 0.99029 0.0
H291 H 0.06871 0.97047 0.9615 0.0
H292 H 0.21046 0.17966 0.99099 0.0
H293 H 0.25321 0.2686 0.96222 0.0
C294 C 0.24386 0.56256 1.16533 0.0
C295 C 0.21703 0.47917 1.16695 0.0
C296 C 0.16896 0.45898 1.09694 0.0
C297 C 0.20417 0.54436 1.09277 0.0
N298 N 0.25329 0.67376 1.12532 0.0
N299 N 0.12562 0.34459 1.14111 0.0
C300 C 0.23314 0.59496 1.12812 0.0
C301 C 0.16532 0.42654 1.13582 0.0
N302 N 0.2863 0.61077 1.19805 0.0
N303 N 0.14732 0.40754 1.06439 0.0
H304 H 0.12303 0.31905 1.16964 0.0
H305 H 0.09285 0.30337 1.1175 0.0
H306 H 0.15431 0.42495 1.03382 0.0
H307 H 0.15431 0.42495 1.03382 0.0
H308 H 0.31542 0.6738 1.19807 0.0
H309 H 0.2931 0.58575 0.22513 0.0
H310 H 0.27122 0.71299 1.15037 0.0
H311 H 0.24585 0.6976 1.098 0.0
C312 C 0.94821 0.47475 0.42949 0.0
C313 C 0.02269 0.48574 0.44363 0.0
C314 C 0.08916 0.58237 0.38914 0.0
C315 C 0.01585 0.5414 0.36697 0.0
N316 N 0.87744 0.49775 0.37325 0.0
N317 N 0.16869 0.56424 0.44067 0.0
C318 C 0.94604 0.50748 0.39063 0.0
C319 C 0.0953 0.5455 0.4252 0.0
N320 N 0.88052 0.42812 0.45142 0.0
N321 N 0.15107 0.65438 0.37563 0.0
H322 H 0.17551 0.5401 0.46794 0.0
H323 H 0.22216 0.60238 0.42555 0.0
H324 H 0.14395 0.68207 0.34972 0.0
H325 H 0.20446 0.68891 0.39263 0.0
H326 H 0.82316 0.41337 0.44175 0.0
H327 H 0.88324 0.40502 0.47997 0.0
H328 H 0.82309 0.47293 0.38828 0.0
H329 H 0.87786 0.51869 0.34365 0.0
C330 C 0.53612 0.93576 0.80241 0.0
C331 C 0.59699 0.01 0.82002 0.0
C332 C 0.62245 0.07437 0.75349 0.0
C333 C 0.58406 -0.00414 0.7357 0.0
N334 N 0.48298 0.85354 0.74122 0.0
N335 N 0.65023 0.15315 0.81611 0.0
C336 C 0.53155 0.92741 0.75936 0.0
C337 C 0.62267 0.08086 0.79673 0.0
N338 N 0.4921 0.86993 0.82627 0.0
N339 N 0.66264 0.14113 0.72934 0.0
H340 H 0.64489 0.15607 0.84762 0.0
H341 H 0.66907 0.20736 0.80083 0.0
H342 H 0.66035 0.13634 0.69746 0.0
H343 H 0.6987 0.20006 0.74072 0.0
H344 H 0.49731 0.87337 0.8582 0.0
H345 H 0.49731 0.87337 0.8582 0.0
H346 H 0.44572 0.80149 0.75811 0.0
H347 H 0.47937 0.84609 0.70947 0.0
C348 C 0.62659 0.55129 1.13137 0.0
C349 C 0.58385 0.58962 1.12113 0.0
C350 C 0.57954 0.55479 1.04957 0.0
C351 C 0.64248 0.54075 1.05837 0.0
N352 N 0.71065 0.50241 1.10666 0.0
N353 N 0.49658 0.60357 1.07292 0.0
C354 C 0.65899 0.52867 1.09925 0.0
C355 C 0.55045 0.58052 1.08129 0.0
N356 N 0.64058 0.54323 1.17166 0.0
N357 N 0.55195 0.55154 1.01059 0.0
H358 H 0.47433 0.62346 1.0957 0.0
H359 H 0.47304 0.60032 1.04347 0.0
H360 H 0.57137 0.53362 0.98556 0.0
H361 H 0.57137 0.53362 0.98556 0.0
H362 H 0.67051 0.51496 1.18212 0.0
H363 H 0.61694 0.56145 1.19465 0.0
H364 H 0.73041 0.49725 1.1357 0.0
H365 H 0.73324 0.48511 1.08276 0.0
C366 C 0.22469 0.85058 0.43451 0.0
C367 C 0.23493 0.81878 0.47186 0.0
C368 C 0.35999 0.83397 0.4468 0.0
C369 C 0.34529 0.85939 0.40854 0.0
N370 N 0.26193 0.89048 0.36538 0.0
N371 N 0.30902 0.77673 0.51394 0.0
C372 C 0.27802 0.86829 0.40255 0.0
C373 C 0.30237 0.81035 0.47834 0.0
N374 N 0.16146 0.86085 0.42725 0.0
N375 N 0.42896 0.83289 0.4527 0.0
H376 H 0.26916 0.76198 0.53785 0.0
H377 H 0.35171 0.7609 0.51945 0.0
H378 H 0.47106 0.84914 0.42978 0.0
H379 H 0.44707 0.82073 0.4806 0.0
H380 H 0.11674 0.8485 0.448 0.0
H381 H 0.11674 0.8485 0.448 0.0
H382 H 0.21058 0.89311 0.35945 0.0
H383 H 0.29763 0.9042 0.33991 0.0
C384 C 0.46945 0.29252 0.78448 0.0
C385 C 0.52024 0.28145 0.81158 0.0
C386 C 0.63883 0.39873 0.78194 0.0
C387 C 0.58847 0.39783 0.7497 0.0
N388 N 0.45193 0.34172 0.72138 0.0
N389 N 0.65122 0.32784 0.84092 0.0
C390 C 0.50325 0.34661 0.75186 0.0
C391 C 0.60456 0.33728 0.81242 0.0
N392 N 0.3876 0.24439 0.78687 0.0
N393 N 0.71904 0.45693 0.78244 0.0
H394 H 0.62576 0.28457 0.86402 0.0
H395 H 0.71391 0.36097 0.84139 0.0
H396 H 0.74413 0.50201 0.76019 0.0
H397 H 0.75921 0.46418 0.80596 0.0
H398 H 0.34851 0.24837 0.76601 0.0
H399 H 0.35913 0.20286 0.8103 0.0
H400 H 0.46925 0.37433 0.69422 0.0
H401 H 0.46925 0.37433 0.69422 0.0
C402 C 0.61571 0.19497 0.26243 0.0
C403 C 0.5942 0.19714 1.22059 0.0
C404 C 0.72769 0.22881 1.20232 0.0
C405 C 0.73446 0.19677 0.23991 0.0
N406 N 0.69146 0.16086 0.30918 0.0
N407 N 0.63259 0.21016 1.14915 0.0
C408 C 0.6807 0.18402 0.27129 0.0
C409 C 0.65143 0.21394 1.18993 0.0
N410 N 0.57797 0.20791 0.29341 0.0
N411 N 0.79325 0.27244 1.17863 0.0
H412 H 0.57515 0.19117 1.13762 0.0
H413 H 0.67247 0.21662 1.1266 0.0
H414 H 0.85092 0.28963 1.18937 0.0
H415 H 0.79123 0.30058 1.1517 0.0
H416 H 0.59509 0.21106 0.32412 0.0
H417 H 0.53814 0.22753 0.28824 0.0
H418 H 0.64852 0.14094 0.33187 0.0
H419 H 0.74285 0.15949 0.317 0.0
C420 C 0.47774 0.59724 0.57024 0.0
C421 C 0.44935 0.55544 0.53211 0.0
C422 C 0.58426 0.63709 0.50393 0.0
C423 C 0.6139 0.67541 0.54272 0.0
N424 N 0.58922 0.70604 0.60999 0.0
N425 N 0.46761 0.55177 0.45992 0.0
C426 C 0.56036 0.66051 0.57487 0.0
C427 C 0.5003 0.58109 0.49803 0.0
N428 N 0.42742 0.57277 0.60269 0.0
N429 N 0.63677 0.65067 0.47348 0.0
H430 H 0.40586 0.51155 0.4549 0.0
H431 H 0.4997 0.5729 0.43305 0.0
H432 H 0.69851 0.6928 0.47604 0.0
H433 H 0.62012 0.6169 0.44644 0.0
H434 H 0.44606 0.59439 0.63245 0.0
H435 H 0.3664 0.52835 0.60033 0.0
H436 H 0.55299 0.70433 0.63329 0.0
H437 H 0.64999 0.75033 0.61471 0.0
C438 C 0.05833 0.50939 0.82667 0.0
C439 C 0.02066 0.45241 0.85852 0.0
C440 C 0.02659 0.5576 0.90242 0.0
C441 C 0.06393 0.61479 0.87071 0.0
N442 N 0.10042 0.6428 0.79982 0.0
N443 N 0.94583 0.41551 0.9206 0.0
C444 C 0.07437 0.58969 0.83175 0.0
C445 C -0.00288 0.47449 0.8944 0.0
N446 N 0.0834 0.4885 0.7928 0.0
N447 N 0.02327 0.5831 0.94084 0.0
H448 H 0.92205 0.35388 0.91493 0.0
H449 H 0.92056 0.42692 0.94541 0.0
H450 H 0.04729 0.64403 0.9483 0.0
H451 H 0.0035 0.54497 0.96612 0.0
H452 H 0.12048 0.53008 0.77101 0.0
H453 H 0.07072 0.42986 0.78749 0.0
H454 H 0.10107 0.62582 0.76973 0.0
H455 H 0.11578 0.7029 0.80279 0.0
C456 C 0.41285 0.26472 0.35714 0.0
C457 C 0.35507 0.18349 0.3441 0.0
C458 C 0.28601 0.1643 0.41037 0.0
C459 C 0.34811 0.243 0.42554 0.0
N460 N 0.47097 0.36909 0.41048 0.0
N461 N 0.24053 0.05362 0.36122 0.0
C462 C 0.41178 0.2929 0.39808 0.0
C463 C 0.29324 0.13304 0.37169 0.0
N464 N 0.46796 0.31666 0.32971 0.0
N465 N 0.21727 0.11904 0.43187 0.0
H466 H 0.23984 0.0294 0.33275 0.0
H467 H 0.20112 0.01025 0.38173 0.0
H468 H 0.20976 0.13183 0.46156 0.0
H469 H 0.16454 0.07066 0.41896 0.0
H470 H 0.50515 0.37898 0.33434 0.0
H471 H 0.47352 0.29838 0.30073 0.0
H472 H 0.52573 0.40341 0.39594 0.0
H473 H 0.4664 0.39839 0.4359 0.0
C474 C 0.31947 0.40607 0.70969 0.0
C475 C 0.26615 0.35371 0.6777 0.0
C476 C 0.15335 0.31328 0.72586 0.0
C477 C 0.2071 0.35536 0.75945 0.0
N478 N 0.34595 0.43268 0.78299 0.0
N479 N 0.13064 0.24076 0.66226 0.0
C480 C 0.2915 0.39942 0.75118 0.0
C481 C 0.18273 0.30289 0.68784 0.0
N482 N 0.39624 0.46532 0.70049 0.0
N483 N 0.0732 0.28502 0.72944 0.0
H484 H 0.1485 0.22454 0.63616 0.0
H485 H 0.07138 0.19831 0.66983 0.0
H486 H 0.04941 0.29435 0.7556 0.0
H487 H 0.03229 0.26152 0.70476 0.0
H488 H 0.43518 0.51048 0.72124 0.0
H489 H 0.41879 0.47353 0.67115 0.0
H490 H 0.40747 0.45693 0.77965 0.0
H491 H 0.32892 0.42928 0.81325 0.0
C492 C -0.02223 0.28892 1.03212 0.0
C493 C -0.00067 0.24414 1.00679 0.0
C494 C 0.93772 0.13218 1.05815 0.0
C495 C 0.92713 0.18173 1.08655 0.0
N496 N 0.93775 0.3101 1.09844 0.0
N497 N 0.00759 0.12533 0.99896 0.0
C498 C 0.94743 0.2608 1.07269 0.0
C499 C -0.01943 0.16612 1.02066 0.0
N500 N -0.01614 0.35777 1.01692 0.0
N501 N 0.90661 0.05193 1.06633 0.0
H502 H 0.03982 0.14777 0.97213 0.0
H503 H 0.00504 0.07324 1.00955 0.0
H504 H 0.87919 0.02443 1.09354 0.0
H505 H 0.90268 0.01068 1.04467 0.0
H506 H -0.0396 0.38865 1.0311 0.0
H507 H 0.00841 0.38157 0.98853 0.0
H508 H -0.03682 0.37204 1.0937 0.0
H509 H 0.90604 0.28939 1.12538 0.0
C510 C 0.87357 0.94484 0.35137 0.0
C511 C 0.86853 0.01509 0.34475 0.0
C512 C 0.86473 0.02418 0.42078 0.0
C513 C 0.85576 0.94627 0.4267 0.0
N514 N 0.83138 0.8247 0.39228 0.0
N515 N 0.84185 0.1111 0.37592 0.0
C516 C 0.85454 0.90451 0.39045 0.0
C517 C 0.85894 0.05155 0.38031 0.0
N518 N 0.90117 0.91851 0.321 0.0
N519 N 0.88342 0.07516 0.45346 0.0
H520 H 0.83513 0.13171 0.34755 0.0
H521 H 0.82561 0.13364 0.40027 0.0
H522 H 0.89961 0.06423 0.4822 0.0
H523 H 0.89335 0.13328 0.45088 0.0
H524 H 0.91245 0.87189 0.32501 0.0
H525 H 0.9235 0.95105 0.29409 0.0
H526 H 0.82322 0.79017 0.3662 0.0
H527 H 0.81027 0.79032 0.41876 0.0
C528 C -0.00108 0.84306 0.68641 0.0
C529 C 0.91969 0.82999 0.68113 0.0
C530 C 0.91162 0.82278 0.75731 0.0
C531 C -0.01501 0.82279 0.76181 0.0
N532 N 0.08589 0.81201 0.72606 0.0
N533 N 0.79461 0.78894 0.71415 0.0
C534 C 0.02487 0.82696 0.72501 0.0
C535 C 0.87446 0.81467 0.71737 0.0
N536 N 0.05235 0.87518 0.65535 0.0
N537 N 0.87866 0.83493 0.79079 0.0
H538 H 0.76392 0.77833 0.68614 0.0
H539 H 0.75699 0.76931 0.73923 0.0
H540 H 0.9054 0.84669 0.81986 0.0
H541 H 0.83017 0.84338 0.78871 0.0
H542 H 0.11271 0.89301 0.65906 0.0
H543 H 0.04008 0.8941 0.6278 0.0
H544 H 0.1117 0.80662 0.69964 0.0
H545 H 0.10378 0.79498 0.75257 0.0
C546 C 0.26582 0.01023 1.01489 0.0
C547 C 0.20344 0.92573 1.01107 0.0
C548 C 0.20969 0.91994 1.08764 0.0
C549 C 0.27799 0.00119 1.09075 0.0
N550 N 0.3803 0.11637 1.05428 0.0
N551 N 0.1315 0.79748 1.04609 0.0
C552 C 0.30841 0.04389 1.05343 0.0
C553 C 0.17979 0.88008 1.04817 0.0
N554 N 0.28255 0.06089 0.98237 0.0
N555 N 0.16999 0.88123 1.12227 0.0
H556 H 0.1115 0.76548 1.01848 0.0
H557 H 0.11903 0.76032 1.07152 0.0
H558 H 0.18688 0.90822 1.15121 0.0
H559 H 0.11523 0.82587 1.12169 0.0
H560 H 0.32009 0.12377 0.98473 0.0
H561 H 0.25233 0.0424 0.95424 0.0
H562 H 0.41069 0.14621 1.02792 0.0
H563 H 0.41387 0.14234 1.08121 0.0
loop_
_geom_bond_atom_site_label_1
_geom_bond_atom_site_label_2
_geom_bond_distance
_geom_bond_site_symmetry_2
_ccdc_geom_bond_type
Gd0 C3 2.818 . S
Gd0 O20 2.377 . S
Gd0 O22 2.448 . S
Gd0 O23 2.506 . S
Gd0 O24 2.435 . S
Gd0 O25 2.717 . S
Gd0 O27 2.395 1_554 S
Gd0 O31 2.327 . S
Gd1 C12 2.818 . S
Gd1 O21 2.395 1_556 S
Gd1 O25 2.327 1_556 S
Gd1 O26 2.377 . S
Gd1 O28 2.448 . S
Gd1 O29 2.506 . S
Gd1 O30 2.435 . S
Gd1 O31 2.717 1_556 S
C2 O20 1.240 . S
C2 O21 1.240 . S
C3 Gd0 2.818 . S
C3 C4 1.510 . S
C3 O22 1.249 . S
C3 O23 1.252 . S
C4 C3 1.510 . S
C4 C5 1.404 . S
C4 C6 1.352 . S
C5 C4 1.404 . S
C5 C9 1.389 1_545 S
C5 H32 0.930 1_545 S
C6 C4 1.352 . S
C6 C8 1.374 . S
C6 H33 0.931 . S
C7 C8 1.359 . S
C7 C9 1.364 1_545 S
C8 C6 1.374 . S
C8 C7 1.359 . S
C8 H34 0.931 . S
C9 C5 1.389 1_565 S
C9 C7 1.364 1_565 S
C9 H35 0.931 . S
C10 O24 1.256 . S
C10 O25 1.257 . S
C11 O26 1.240 . S
C11 O27 1.240 . S
C12 Gd1 2.818 . S
C12 C13 1.510 . S
C12 O28 1.249 . S
C12 O29 1.252 . S
C13 C12 1.510 . S
C13 C14 1.404 . S
C13 C15 1.352 . S
C14 C13 1.404 . S
C14 C18 1.389 . S
C14 H36 0.930 . S
C15 C13 1.352 . S
C15 C17 1.374 . S
C15 H37 0.931 . S
C16 C17 1.359 . S
C16 C18 1.364 . S
C17 C15 1.374 . S
C17 C16 1.359 . S
C17 H38 0.931 . S
C18 C14 1.389 . S
C18 C16 1.364 . S
C18 H39 0.931 . S
C19 O30 1.256 1_554 S
C19 O31 1.257 . S
O20 Gd0 2.377 . S
O20 C2 1.240 . S
O21 Gd1 2.395 1_554 S
O21 C2 1.240 . S
O22 Gd0 2.448 . S
O22 C3 1.249 . S
O23 Gd0 2.506 . S
O23 C3 1.252 . S
O24 Gd0 2.435 . S
O24 C10 1.256 . S
O25 Gd0 2.717 . S
O25 Gd1 2.327 1_554 S
O25 C10 1.257 . S
O26 Gd1 2.377 . S
O26 C11 1.240 . S
O27 Gd0 2.395 1_556 S
O27 C11 1.240 . S
O28 Gd1 2.448 . S
O28 C12 1.249 . S
O29 Gd1 2.506 . S
O29 C12 1.252 . S
O30 Gd1 2.435 . S
O30 C19 1.256 1_556 S
O31 Gd0 2.327 . S
O31 Gd1 2.717 1_554 S
O31 C19 1.257 . S
H32 C5 0.930 1_565 S
H33 C6 0.931 . S
H34 C8 0.931 . S
H35 C9 0.931 . S
H36 C14 0.930 . S
H37 C15 0.931 . S
H38 C17 0.931 . S
H39 C18 0.931 . S
Gd40 C43 2.818 . S
Gd40 O60 2.377 . S
Gd40 O62 2.448 . S
Gd40 O63 2.506 . S
Gd40 O64 2.435 . S
Gd40 O65 2.717 . S
Gd40 O67 2.395 . S
Gd40 O71 2.327 . S
Gd41 C52 2.818 . S
Gd41 O61 2.395 . S
Gd41 O65 2.327 . S
Gd41 O66 2.377 . S
Gd41 O68 2.448 . S
Gd41 O69 2.506 . S
Gd41 O70 2.435 . S
Gd41 O71 2.717 . S
C42 O60 1.240 . S
C42 O61 1.240 . S
C43 Gd40 2.818 . S
C43 C44 1.510 . S
C43 O62 1.249 . S
C43 O63 1.252 . S
C44 C43 1.510 . S
C44 C45 1.404 . S
C44 C46 1.352 . S
C45 C44 1.404 . S
C45 C49 1.389 . S
C45 H72 0.930 . S
C46 C44 1.352 . S
C46 C48 1.374 . S
C46 H73 0.931 . S
C47 C48 1.359 . S
C47 C49 1.364 . S
C48 C46 1.374 . S
C48 C47 1.359 . S
C48 H74 0.931 . S
C49 C45 1.389 . S
C49 C47 1.364 . S
C49 H75 0.931 . S
C50 O64 1.256 . S
C50 O65 1.257 . S
C51 O66 1.240 . S
C51 O67 1.240 . S
C52 Gd41 2.818 . S
C52 C53 1.510 . S
C52 O68 1.249 . S
C52 O69 1.252 . S
C53 C52 1.510 . S
C53 C54 1.404 . S
C53 C55 1.352 . S
C54 C53 1.404 . S
C54 C58 1.389 . S
C54 H76 0.930 . S
C55 C53 1.352 . S
C55 C57 1.374 . S
C55 H77 0.931 . S
C56 C57 1.359 . S
C56 C58 1.364 . S
C57 C55 1.374 . S
C57 C56 1.359 . S
C57 H78 0.931 . S
C58 C54 1.389 . S
C58 C56 1.364 . S
C58 H79 0.931 . S
C59 O70 1.256 . S
C59 O71 1.257 . S
O60 Gd40 2.377 . S
O60 C42 1.240 . S
O61 Gd41 2.395 . S
O61 C42 1.240 . S
O62 Gd40 2.448 . S
O62 C43 1.249 . S
O63 Gd40 2.506 . S
O63 C43 1.252 . S
O64 Gd40 2.435 . S
O64 C50 1.256 . S
O65 Gd40 2.717 . S
O65 Gd41 2.327 . S
O65 C50 1.257 . S
O66 Gd41 2.377 . S
O66 C51 1.240 . S
O67 Gd40 2.395 . S
O67 C51 1.240 . S
O68 Gd41 2.448 . S
O68 C52 1.249 . S
O69 Gd41 2.506 . S
O69 C52 1.252 . S
O70 Gd41 2.435 . S
O70 C59 1.256 . S
O71 Gd40 2.327 . S
O71 Gd41 2.717 . S
O71 C59 1.257 . S
H72 C45 0.930 . S
H73 C46 0.931 . S
H74 C48 0.931 . S
H75 C49 0.931 . S
H76 C54 0.930 . S
H77 C55 0.931 . S
H78 C57 0.931 . S
H79 C58 0.931 . S
Gd80 C83 2.818 . S
Gd80 O100 2.377 1_455 S
Gd80 O102 2.448 . S
Gd80 O103 2.506 . S
Gd80 O104 2.435 . S
Gd80 O105 2.717 1_455 S
Gd80 O107 2.395 . S
Gd80 O111 2.327 . S
Gd81 C92 2.818 . S
Gd81 O101 2.395 . S
Gd81 O105 2.327 . S
Gd81 O106 2.377 1_655 S
Gd81 O108 2.448 . S
Gd81 O109 2.506 . S
Gd81 O110 2.435 . S
Gd81 O111 2.717 1_655 S
C82 O100 1.240 . S
C82 O101 1.240 . S
C83 Gd80 2.818 . S
C83 C84 1.510 . S
C83 O102 1.249 . S
C83 O103 1.252 . S
C84 C83 1.510 . S
C84 C85 1.404 . S
C84 C86 1.352 . S
C85 C84 1.404 . S
C85 C89 1.389 . S
C85 H112 0.930 . S
C86 C84 1.352 . S
C86 C88 1.374 . S
C86 H113 0.931 . S
C87 C88 1.359 . S
C87 C89 1.364 . S
C88 C86 1.374 . S
C88 C87 1.359 . S
C88 H114 0.931 . S
C89 C85 1.389 . S
C89 C87 1.364 . S
C89 H115 0.931 . S
C90 O104 1.256 . S
C90 O105 1.257 1_455 S
C91 O106 1.240 . S
C91 O107 1.240 . S
C92 Gd81 2.818 . S
C92 C93 1.510 . S
C92 O108 1.249 . S
C92 O109 1.252 . S
C93 C92 1.510 . S
C93 C94 1.404 . S
C93 C95 1.352 . S
C94 C93 1.404 . S
C94 C98 1.389 . S
C94 H116 0.930 . S
C95 C93 1.352 . S
C95 C97 1.374 . S
C95 H117 0.931 . S
C96 C97 1.359 . S
C96 C98 1.364 . S
C97 C95 1.374 . S
C97 C96 1.359 . S
C97 H118 0.931 . S
C98 C94 1.389 . S
C98 C96 1.364 . S
C98 H119 0.931 . S
C99 O110 1.256 . S
C99 O111 1.257 1_655 S
O100 Gd80 2.377 1_655 S
O100 C82 1.240 . S
O101 Gd81 2.395 . S
O101 C82 1.240 . S
O102 Gd80 2.448 . S
O102 C83 1.249 . S
O103 Gd80 2.506 . S
O103 C83 1.252 . S
O104 Gd80 2.435 . S
O104 C90 1.256 . S
O105 Gd80 2.717 1_655 S
O105 Gd81 2.327 . S
O105 C90 1.257 1_655 S
O106 Gd81 2.377 1_455 S
O106 C91 1.240 . S
O107 Gd80 2.395 . S
O107 C91 1.240 . S
O108 Gd81 2.448 . S
O108 C92 1.249 . S
O109 Gd81 2.506 . S
O109 C92 1.252 . S
O110 Gd81 2.435 . S
O110 C99 1.256 . S
O111 Gd80 2.327 . S
O111 Gd81 2.717 1_455 S
O111 C99 1.257 1_455 S
H112 C85 0.930 . S
H113 C86 0.931 . S
H114 C88 0.931 . S
H115 C89 0.931 . S
H116 C94 0.930 . S
H117 C95 0.931 . S
H118 C97 0.931 . S
H119 C98 0.931 . S
Gd120 C123 2.818 . S
Gd120 O140 2.377 1_545 S
Gd120 O142 2.448 . S
Gd120 O143 2.506 . S
Gd120 O144 2.435 . S
Gd120 O145 2.717 1_545 S
Gd120 O147 2.395 1_554 S
Gd120 O151 2.327 . S
Gd121 C132 2.818 . S
Gd121 O141 2.395 1_556 S
Gd121 O145 2.327 1_556 S
Gd121 O146 2.377 1_565 S
Gd121 O148 2.448 . S
Gd121 O149 2.506 . S
Gd121 O150 2.435 . S
Gd121 O151 2.717 1_566 S
C122 O140 1.240 . S
C122 O141 1.240 . S
C123 Gd120 2.818 . S
C123 C124 1.510 . S
C123 O142 1.249 . S
C123 O143 1.252 . S
C124 C123 1.510 . S
C124 C125 1.404 . S
C124 C126 1.352 . S
C125 C124 1.404 . S
C125 C129 1.389 . S
C125 H152 0.940 . S
C126 C124 1.352 . S
C126 C128 1.374 . S
C126 H153 0.931 . S
C127 C128 1.359 . S
C127 C129 1.364 . S
C128 C126 1.374 . S
C128 C127 1.359 . S
C128 H154 0.931 . S
C129 C125 1.389 . S
C129 C127 1.364 . S
C129 H155 0.931 1_655 S
C130 O144 1.256 . S
C130 O145 1.257 1_545 S
C131 O146 1.240 . S
C131 O147 1.240 . S
C132 Gd121 2.818 . S
C132 C133 1.510 . S
C132 O148 1.249 . S
C132 O149 1.252 . S
C133 C132 1.510 . S
C133 C134 1.404 . S
C133 C135 1.352 . S
C134 C133 1.404 . S
C134 C138 1.389 . S
C134 H156 0.930 . S
C135 C133 1.352 . S
C135 C137 1.374 . S
C135 H157 0.931 . S
C136 C137 1.359 . S
C136 C138 1.364 . S
C137 C135 1.374 . S
C137 C136 1.359 . S
C137 H158 0.931 . S
C138 C134 1.389 . S
C138 C136 1.364 . S
C138 H159 0.931 . S
C139 O150 1.256 1_554 S
C139 O151 1.257 1_565 S
O140 Gd120 2.377 1_565 S
O140 C122 1.240 . S
O141 Gd121 2.395 1_554 S
O141 C122 1.240 . S
O142 Gd120 2.448 . S
O142 C123 1.249 . S
O143 Gd120 2.506 . S
O143 C123 1.252 . S
O144 Gd120 2.435 . S
O144 C130 1.256 . S
O145 Gd120 2.717 1_565 S
O145 Gd121 2.327 1_554 S
O145 C130 1.257 1_565 S
O146 Gd121 2.377 1_545 S
O146 C131 1.240 . S
O147 Gd120 2.395 1_556 S
O147 C131 1.240 . S
O148 Gd121 2.448 . S
O148 C132 1.249 . S
O149 Gd121 2.506 . S
O149 C132 1.252 . S
O150 Gd121 2.435 . S
O150 C139 1.256 1_556 S
O151 Gd120 2.327 . S
O151 Gd121 2.717 1_544 S
O151 C139 1.257 1_545 S
H152 C125 0.940 . S
H153 C126 0.931 . S
H154 C128 0.931 . S
H155 C129 0.931 1_455 S
H156 C134 0.930 . S
H157 C135 0.931 . S
H158 C137 0.931 . S
H159 C138 0.931 . S
Gd160 C163 2.818 . S
Gd160 O180 2.377 . S
Gd160 O182 2.448 . S
Gd160 O183 2.506 . S
Gd160 O184 2.435 1_655 S
Gd160 O185 2.717 1_655 S
Gd160 O187 2.395 . S
Gd160 O191 2.327 . S
Gd161 C172 2.818 1_655 S
Gd161 O181 2.395 . S
Gd161 O185 2.327 1_655 S
Gd161 O186 2.377 . S
Gd161 O188 2.448 . S
Gd161 O189 2.506 1_655 S
Gd161 O190 2.435 . S
Gd161 O191 2.717 . S
C162 O180 1.240 . S
C162 O181 1.240 . S
C163 Gd160 2.818 . S
C163 C164 1.510 . S
C163 O182 1.249 . S
C163 O183 1.252 . S
C164 C163 1.510 . S
C164 C165 1.404 . S
C164 C166 1.352 . S
C165 C164 1.404 . S
C165 C169 1.389 . S
C165 H192 0.930 . S
C166 C164 1.352 . S
C166 C168 1.374 . S
C166 H193 0.931 . S
C167 C168 1.359 . S
C167 C169 1.364 . S
C168 C166 1.374 . S
C168 C167 1.359 . S
C168 H194 0.931 . S
C169 C165 1.389 . S
C169 C167 1.364 . S
C169 H195 0.931 1_565 S
C170 O184 1.256 . S
C170 O185 1.257 . S
C171 O186 1.240 . S
C171 O187 1.240 . S
C172 Gd161 2.818 1_455 S
C172 C173 1.510 . S
C172 O188 1.249 1_455 S
C172 O189 1.252 . S
C173 C172 1.510 . S
C173 C174 1.404 . S
C173 C175 1.352 . S
C174 C173 1.404 . S
C174 C178 1.389 . S
C174 H196 0.930 . S
C175 C173 1.352 . S
C175 C177 1.374 . S
C175 H197 0.931 . S
C176 C177 1.359 . S
C176 C178 1.364 . S
C177 C175 1.374 . S
C177 C176 1.359 . S
C177 H198 0.931 . S
C178 C174 1.389 . S
C178 C176 1.364 . S
C178 H199 0.931 . S
C179 O190 1.256 . S
C179 O191 1.257 . S
O180 Gd160 2.377 . S
O180 C162 1.240 . S
O181 Gd161 2.395 . S
O181 C162 1.240 . S
O182 Gd160 2.448 . S
O182 C163 1.249 . S
O183 Gd160 2.506 . S
O183 C163 1.252 . S
O184 Gd160 2.435 1_455 S
O184 C170 1.256 . S
O185 Gd160 2.717 1_455 S
O185 Gd161 2.327 1_455 S
O185 C170 1.257 . S
O186 Gd161 2.377 . S
O186 C171 1.240 . S
O187 Gd160 2.395 . S
O187 C171 1.240 . S
O188 Gd161 2.448 . S
O188 C172 1.249 1_655 S
O189 Gd161 2.506 1_455 S
O189 C172 1.252 . S
O190 Gd161 2.435 . S
O190 C179 1.256 . S
O191 Gd160 2.327 . S
O191 Gd161 2.717 . S
O191 C179 1.257 . S
H192 C165 0.930 . S
H193 C166 0.931 . S
H194 C168 0.931 . S
H195 C169 0.931 1_545 S
H196 C174 0.930 . S
H197 C175 0.931 . S
H198 C177 0.931 . S
H199 C178 0.931 . S
Gd200 C203 2.818 . S
Gd200 O220 2.377 . S
Gd200 O222 2.448 . S
Gd200 O223 2.506 . S
Gd200 O224 2.435 1_565 S
Gd200 O225 2.717 1_565 S
Gd200 O227 2.395 . S
Gd200 O231 2.327 . S
Gd201 C212 2.818 1_565 S
Gd201 O221 2.395 . S
Gd201 O225 2.327 1_565 S
Gd201 O226 2.377 . S
Gd201 O228 2.448 . S
Gd201 O229 2.506 1_565 S
Gd201 O230 2.435 . S
Gd201 O231 2.717 . S
C202 O220 1.240 . S
C202 O221 1.240 . S
C203 Gd200 2.818 . S
C203 C204 1.510 . S
C203 O222 1.249 . S
C203 O223 1.252 . S
C204 C203 1.510 . S
C204 C205 1.404 . S
C204 C206 1.352 . S
C205 C204 1.404 . S
C205 C209 1.389 1_455 S
C205 H232 0.930 1_455 S
C206 C204 1.352 . S
C206 C208 1.374 . S
C206 H233 0.931 . S
C207 C208 1.359 . S
C207 C209 1.364 1_455 S
C208 C206 1.374 . S
C208 C207 1.359 . S
C208 H234 0.931 . S
C209 C205 1.389 1_655 S
C209 C207 1.364 1_655 S
C209 H235 0.931 . S
C210 O224 1.256 . S
C210 O225 1.257 . S
C211 O226 1.240 . S
C211 O227 1.240 . S
C212 Gd201 2.818 1_545 S
C212 C213 1.510 . S
C212 O228 1.249 1_545 S
C212 O229 1.252 . S
C213 C212 1.510 . S
C213 C214 1.404 . S
C213 C215 1.352 . S
C214 C213 1.404 . S
C214 C218 1.389 . S
C214 H236 0.930 . S
C215 C213 1.352 . S
C215 C217 1.374 . S
C215 H237 0.931 . S
C216 C217 1.359 . S
C216 C218 1.364 . S
C217 C215 1.374 . S
C217 C216 1.359 . S
C217 H238 0.931 . S
C218 C214 1.389 . S
C218 C216 1.364 . S
C218 H239 0.931 . S
C219 O230 1.256 . S
C219 O231 1.257 . S
O220 Gd200 2.377 . S
O220 C202 1.240 . S
O221 Gd201 2.395 . S
O221 C202 1.240 . S
O222 Gd200 2.448 . S
O222 C203 1.249 . S
O223 Gd200 2.506 . S
O223 C203 1.252 . S
O224 Gd200 2.435 1_545 S
O224 C210 1.256 . S
O225 Gd200 2.717 1_545 S
O225 Gd201 2.327 1_545 S
O225 C210 1.257 . S
O226 Gd201 2.377 . S
O226 C211 1.240 . S
O227 Gd200 2.395 . S
O227 C211 1.240 . S
O228 Gd201 2.448 . S
O228 C212 1.249 1_565 S
O229 Gd201 2.506 1_545 S
O229 C212 1.252 . S
O230 Gd201 2.435 . S
O230 C219 1.256 . S
O231 Gd200 2.327 . S
O231 Gd201 2.717 . S
O231 C219 1.257 . S
H232 C205 0.930 1_655 S
H233 C206 0.931 . S
H234 C208 0.931 . S
H235 C209 0.931 . S
H236 C214 0.930 . S
H237 C215 0.931 . S
H238 C217 0.931 . S
H239 C218 0.931 . S
C240 C241 1.363 . S
C240 C246 1.379 . S
C240 N248 1.356 . S
C241 C240 1.363 . S
C241 C247 1.363 1_554 S
C242 C243 1.363 1_556 S
C242 C247 1.379 . S
C242 N249 1.356 . S
C243 C242 1.363 1_554 S
C243 C246 1.363 . S
N244 C246 1.356 . S
N244 H256 0.984 . S
N244 H257 0.985 . S
N245 C247 1.356 1_565 S
N245 H250 0.984 1_455 S
N245 H251 0.985 . S
C246 C240 1.379 . S
C246 C243 1.363 . S
C246 N244 1.356 . S
C247 C241 1.363 1_556 S
C247 C242 1.379 . S
C247 N245 1.356 1_545 S
N248 C240 1.356 . S
N248 H254 0.984 . S
N248 H255 0.984 1_455 S
N249 C242 1.356 . S
N249 H252 0.984 . S
N249 H253 0.985 . S
H250 N245 0.984 1_655 S
H251 N245 0.985 . S
H252 N249 0.984 . S
H253 N249 0.985 . S
H254 N248 0.984 . S
H255 N248 0.984 1_655 S
H256 N244 0.984 . S
H257 N244 0.985 . S
C258 C259 1.363 . S
C258 C264 1.379 . S
C258 N266 1.357 . S
C259 C258 1.363 . S
C259 C265 1.363 . S
C260 C261 1.363 . S
C260 C265 1.379 . S
C260 N267 1.356 . S
C261 C260 1.363 . S
C261 C264 1.363 . S
N262 C264 1.356 . S
N262 H274 0.984 . S
N262 H275 0.985 . S
N263 C265 1.356 . S
N263 H268 0.984 1_545 S
N263 H269 0.985 . S
C264 C258 1.379 . S
C264 C261 1.363 . S
C264 N262 1.356 . S
C265 C259 1.363 . S
C265 C260 1.379 . S
C265 N263 1.356 . S
N266 C258 1.357 . S
N266 H272 0.985 1_455 S
N266 H273 0.984 1_545 S
N267 C260 1.356 . S
N267 H270 0.984 . S
N267 H271 0.985 . S
H268 N263 0.984 1_565 S
H269 N263 0.985 . S
H270 N267 0.984 . S
H271 N267 0.985 . S
H272 N266 0.985 1_655 S
H273 N266 0.984 1_565 S
H274 N262 0.984 . S
H275 N262 0.985 . S
C276 C277 1.363 . S
C276 C282 1.379 . S
C276 N284 1.356 . S
C277 C276 1.363 . S
C277 C283 1.363 . S
C278 C279 1.363 . S
C278 C283 1.379 . S
C278 N285 1.356 . S
C279 C278 1.363 . S
C279 C282 1.363 . S
N280 C282 1.356 1_655 S
N280 H292 0.984 . S
N280 H293 0.985 . S
N281 C283 1.356 . S
N281 H286 0.984 . S
N281 H287 0.985 . S
C282 C276 1.379 . S
C282 C279 1.363 . S
C282 N280 1.356 1_455 S
C283 C277 1.363 . S
C283 C278 1.379 . S
C283 N281 1.356 . S
N284 C276 1.356 . S
N284 H290 0.984 1_545 S
N284 H291 0.984 . S
N285 C278 1.356 . S
N285 H288 0.984 . S
N285 H289 0.985 . S
H286 N281 0.984 . S
H287 N281 0.985 . S
H288 N285 0.984 . S
H289 N285 0.985 . S
H290 N284 0.984 1_565 S
H291 N284 0.984 . S
H292 N280 0.984 . S
H293 N280 0.985 . S
C294 C295 1.363 . S
C294 C300 1.379 . S
C294 N302 1.356 . S
C295 C294 1.363 . S
C295 C301 1.363 . S
C296 C297 1.363 . S
C296 C301 1.379 . S
C296 N303 1.356 . S
C297 C296 1.363 . S
C297 C300 1.363 . S
N298 C300 1.356 . S
N298 H310 0.984 . S
N298 H311 0.985 . S
N299 C301 1.356 . S
N299 H304 0.984 . S
N299 H305 0.985 . S
C300 C294 1.379 . S
C300 C297 1.363 . S
C300 N298 1.356 . S
C301 C295 1.363 . S
C301 C296 1.379 . S
C301 N299 1.356 . S
N302 C294 1.356 . S
N302 H308 0.984 . S
N302 H309 0.984 . S
N303 C296 1.356 . S
N303 H306 0.984 . S
N303 H307 0.985 . S
H304 N299 0.984 . S
H305 N299 0.985 . S
H306 N303 0.984 . S
H307 N303 0.985 . S
H308 N302 0.984 . S
H309 N302 0.984 . S
H310 N298 0.984 . S
H311 N298 0.985 . S
C312 C313 1.363 . S
C312 C318 1.376 1_455 S
C312 N320 1.356 . S
C313 C312 1.363 . S
C313 C319 1.363 . S
C314 C315 1.363 . S
C314 C319 1.379 1_655 S
C314 N321 1.356 . S
C315 C314 1.363 . S
C315 C318 1.367 . S
N316 C318 1.356 . S
N316 H328 0.984 1_655 S
N316 H329 0.985 . S
N317 C319 1.356 . S
N317 H322 0.984 . S
N317 H323 0.985 . S
C318 C312 1.376 1_655 S
C318 C315 1.367 . S
C318 N316 1.356 . S
C319 C313 1.363 . S
C319 C314 1.379 1_455 S
C319 N317 1.356 . S
N320 C312 1.356 . S
N320 H326 0.984 . S
N320 H327 0.984 . S
N321 C314 1.356 . S
N321 H324 0.984 . S
N321 H325 0.985 . S
H322 N317 0.984 . S
H323 N317 0.985 . S
H324 N321 0.984 . S
H325 N321 0.985 . S
H326 N320 0.984 . S
H327 N320 0.984 . S
H328 N316 0.984 1_455 S
H329 N316 0.985 . S
C330 C331 1.363 . S
C330 C336 1.379 . S
C330 N338 1.356 . S
C331 C330 1.363 . S
C331 C337 1.363 . S
C332 C333 1.363 . S
C332 C337 1.379 1_565 S
C332 N339 1.356 . S
C333 C332 1.363 . S
C333 C336 1.363 1_565 S
N334 C336 1.356 1_565 S
N334 H346 0.984 1_565 S
N334 H347 0.985 . S
N335 C337 1.356 . S
N335 H340 0.984 . S
N335 H341 0.985 . S
C336 C330 1.379 . S
C336 C333 1.363 1_545 S
C336 N334 1.356 1_545 S
C337 C331 1.363 . S
C337 C332 1.379 1_545 S
C337 N335 1.356 . S
N338 C330 1.356 . S
N338 H344 0.984 . S
N338 H345 0.984 . S
N339 C332 1.356 . S
N339 H342 0.984 . S
N339 H343 0.985 . S
H340 N335 0.984 . S
H341 N335 0.985 . S
H342 N339 0.984 . S
H343 N339 0.985 . S
H344 N338 0.984 . S
H345 N338 0.984 . S
H346 N334 0.984 1_545 S
H347 N334 0.985 . S
C348 C349 1.363 . S
C348 C354 1.379 . S
C348 N356 1.356 . S
C349 C348 1.363 . S
C349 C355 1.363 . S
C350 C351 1.363 . S
C350 C355 1.379 . S
C350 N357 1.356 1_655 S
C351 C350 1.363 . S
C351 C354 1.363 . S
N352 C354 1.356 . S
N352 H364 0.984 . S
N352 H365 0.985 . S
N353 C355 1.356 . S
N353 H358 0.984 . S
N353 H359 0.985 . S
C354 C348 1.379 . S
C354 C351 1.363 . S
C354 N352 1.356 . S
C355 C349 1.363 . S
C355 C350 1.379 . S
C355 N353 1.356 . S
N356 C348 1.356 . S
N356 H362 0.984 . S
N356 H363 0.984 . S
N357 C350 1.356 1_455 S
N357 H360 0.984 . S
N357 H361 0.985 . S
H358 N353 0.984 . S
H359 N353 0.985 . S
H360 N357 0.984 . S
H361 N357 0.985 . S
H362 N356 0.984 . S
H363 N356 0.984 . S
H364 N352 0.984 . S
H365 N352 0.985 . S
C366 C367 1.363 . S
C366 C372 1.379 . S
C366 N374 1.356 . S
C367 C366 1.363 . S
C367 C373 1.363 . S
C368 C369 1.363 . S
C368 C373 1.379 . S
C368 N375 1.356 . S
C369 C368 1.363 . S
C369 C372 1.363 . S
N370 C372 1.356 . S
N370 H382 0.984 . S
N370 H383 0.985 1_565 S
N371 C373 1.356 . S
N371 H376 0.984 . S
N371 H377 0.985 . S
C372 C366 1.379 . S
C372 C369 1.363 . S
C372 N370 1.356 . S
C373 C367 1.363 . S
C373 C368 1.379 . S
C373 N371 1.356 . S
N374 C366 1.356 . S
N374 H380 0.984 . S
N374 H381 0.984 . S
N375 C368 1.356 . S
N375 H378 0.984 . S
N375 H379 0.985 . S
H376 N371 0.984 . S
H377 N371 0.985 . S
H378 N375 0.984 . S
H379 N375 0.985 . S
H380 N374 0.984 . S
H381 N374 0.984 . S
H382 N370 0.984 . S
H383 N370 0.985 1_545 S
C384 C385 1.363 . S
C384 C390 1.379 . S
C384 N392 1.356 . S
C385 C384 1.363 . S
C385 C391 1.363 . S
C386 C387 1.363 . S
C386 C391 1.379 . S
C386 N393 1.356 . S
C387 C386 1.363 . S
C387 C390 1.363 . S
N388 C390 1.356 . S
N388 H400 0.984 . S
N388 H401 0.985 . S
N389 C391 1.356 . S
N389 H394 0.984 . S
N389 H395 0.985 . S
C390 C384 1.379 . S
C390 C387 1.363 . S
C390 N388 1.356 . S
C391 C385 1.363 . S
C391 C386 1.379 . S
C391 N389 1.356 . S
N392 C384 1.356 . S
N392 H398 0.984 . S
N392 H399 0.984 . S
N393 C386 1.356 . S
N393 H396 0.984 . S
N393 H397 0.985 . S
H394 N389 0.984 . S
H395 N389 0.985 . S
H396 N393 0.984 . S
H397 N393 0.985 . S
H398 N392 0.984 . S
H399 N392 0.984 . S
H400 N388 0.984 . S
H401 N388 0.985 . S
C402 C403 1.363 . S
C402 C408 1.379 . S
C402 N410 1.356 . S
C403 C402 1.363 . S
C403 C409 1.363 1_554 S
C404 C405 1.363 1_556 S
C404 C409 1.379 . S
C404 N411 1.356 1_545 S
C405 C404 1.363 1_554 S
C405 C408 1.363 . S
N406 C408 1.356 . S
N406 H418 0.984 . S
N406 H419 0.985 . S
N407 C409 1.356 . S
N407 H412 0.984 . S
N407 H413 0.985 . S
C408 C402 1.379 . S
C408 C405 1.363 . S
C408 N406 1.356 . S
C409 C403 1.363 1_556 S
C409 C404 1.379 . S
C409 N407 1.356 . S
N410 C402 1.356 . S
N410 H416 0.984 . S
N410 H417 0.984 . S
N411 C404 1.356 1_565 S
N411 H414 0.984 . S
N411 H415 0.985 . S
H412 N407 0.984 . S
H413 N407 0.985 . S
H414 N411 0.984 . S
H415 N411 0.985 . S
H416 N410 0.984 . S
H417 N410 0.984 . S
H418 N406 0.984 . S
H419 N406 0.985 . S
C420 C421 1.363 . S
C420 C426 1.379 . S
C420 N428 1.356 . S
C421 C420 1.363 . S
C421 C427 1.363 . S
C422 C423 1.363 . S
C422 C427 1.379 . S
C422 N429 1.356 . S
C423 C422 1.363 . S
C423 C426 1.363 . S
N424 C426 1.356 . S
N424 H436 0.984 . S
N424 H437 0.985 . S
N425 C427 1.356 . S
N425 H430 0.984 . S
N425 H431 0.985 . S
C426 C420 1.379 . S
C426 C423 1.363 . S
C426 N424 1.356 . S
C427 C421 1.363 . S
C427 C422 1.379 . S
C427 N425 1.356 . S
N428 C420 1.356 . S
N428 H434 0.984 . S
N428 H435 0.984 . S
N429 C422 1.356 . S
N429 H432 0.984 . S
N429 H433 0.985 . S
H430 N425 0.984 . S
H431 N425 0.985 . S
H432 N429 0.984 . S
H433 N429 0.985 . S
H434 N428 0.984 . S
H435 N428 0.984 . S
H436 N424 0.984 . S
H437 N424 0.985 . S
C438 C439 1.363 . S
C438 C444 1.379 . S
C438 N446 1.356 . S
C439 C438 1.363 . S
C439 C445 1.363 . S
C440 C441 1.363 . S
C440 C445 1.379 . S
C440 N447 1.356 . S
C441 C440 1.363 . S
C441 C444 1.363 . S
N442 C444 1.356 . S
N442 H454 0.984 . S
N442 H455 0.985 . S
N443 C445 1.356 1_655 S
N443 H448 0.984 . S
N443 H449 0.985 . S
C444 C438 1.379 . S
C444 C441 1.363 . S
C444 N442 1.356 . S
C445 C439 1.363 . S
C445 C440 1.379 . S
C445 N443 1.356 1_455 S
N446 C438 1.356 . S
N446 H452 0.984 . S
N446 H453 0.984 . S
N447 C440 1.356 . S
N447 H450 0.984 . S
N447 H451 0.985 . S
H448 N443 0.984 . S
H449 N443 0.985 . S
H450 N447 0.984 . S
H451 N447 0.985 . S
H452 N446 0.984 . S
H453 N446 0.984 . S
H454 N442 0.984 . S
H455 N442 0.985 . S
C456 C457 1.363 . S
C456 C462 1.379 . S
C456 N464 1.356 . S
C457 C456 1.363 . S
C457 C463 1.363 . S
C458 C459 1.363 . S
C458 C463 1.379 . S
C458 N465 1.356 . S
C459 C458 1.363 . S
C459 C462 1.363 . S
N460 C462 1.356 . S
N460 H472 0.984 . S
N460 H473 0.985 . S
N461 C463 1.356 . S
N461 H466 0.984 . S
N461 H467 0.985 . S
C462 C456 1.379 . S
C462 C459 1.363 . S
C462 N460 1.356 . S
C463 C457 1.363 . S
C463 C458 1.379 . S
C463 N461 1.356 . S
N464 C456 1.356 . S
N464 H470 0.984 . S
N464 H471 0.984 . S
N465 C458 1.356 . S
N465 H468 0.984 . S
N465 H469 0.985 . S
H466 N461 0.984 . S
H467 N461 0.985 . S
H468 N465 0.984 . S
H469 N465 0.985 . S
H470 N464 0.984 . S
H471 N464 0.984 . S
H472 N460 0.984 . S
H473 N460 0.985 . S
C474 C475 1.363 . S
C474 C480 1.379 . S
C474 N482 1.356 . S
C475 C474 1.363 . S
C475 C481 1.363 . S
C476 C477 1.363 . S
C476 C481 1.379 . S
C476 N483 1.356 . S
C477 C476 1.363 . S
C477 C480 1.363 . S
N478 C480 1.356 . S
N478 H490 0.984 . S
N478 H491 0.985 . S
N479 C481 1.356 . S
N479 H484 0.984 . S
N479 H485 0.985 . S
C480 C474 1.379 . S
C480 C477 1.363 . S
C480 N478 1.356 . S
C481 C475 1.363 . S
C481 C476 1.379 . S
C481 N479 1.356 . S
N482 C474 1.356 . S
N482 H488 0.984 . S
N482 H489 0.984 . S
N483 C476 1.356 . S
N483 H486 0.984 . S
N483 H487 0.985 1_455 S
H484 N479 0.984 . S
H485 N479 0.985 . S
H486 N483 0.984 . S
H487 N483 0.985 1_655 S
H488 N482 0.984 . S
H489 N482 0.984 . S
H490 N478 0.984 . S
H491 N478 0.985 . S
C492 C493 1.363 . S
C492 C498 1.379 . S
C492 N500 1.356 . S
C493 C492 1.363 . S
C493 C499 1.363 . S
C494 C495 1.363 . S
C494 C499 1.379 . S
C494 N501 1.356 . S
C495 C494 1.363 . S
C495 C498 1.363 . S
N496 C498 1.356 . S
N496 H508 0.984 . S
N496 H509 0.985 . S
N497 C499 1.356 . S
N497 H502 0.984 . S
N497 H503 0.985 . S
C498 C492 1.379 . S
C498 C495 1.363 . S
C498 N496 1.356 . S
C499 C493 1.363 . S
C499 C494 1.379 . S
C499 N497 1.356 . S
N500 C492 1.356 . S
N500 H506 0.984 1_655 S
N500 H507 0.984 . S
N501 C494 1.356 . S
N501 H504 0.984 . S
N501 H505 0.985 1_545 S
H502 N497 0.984 . S
H503 N497 0.985 . S
H504 N501 0.984 . S
H505 N501 0.985 1_565 S
H506 N500 0.984 1_455 S
H507 N500 0.984 . S
H508 N496 0.984 . S
H509 N496 0.985 . S
C510 C511 1.363 . S
C510 C516 1.379 . S
C510 N518 1.356 . S
C511 C510 1.363 . S
C511 C517 1.363 . S
C512 C513 1.363 . S
C512 C517 1.379 . S
C512 N519 1.356 . S
C513 C512 1.363 . S
C513 C516 1.363 . S
N514 C516 1.356 . S
N514 H526 0.984 . S
N514 H527 0.985 . S
N515 C517 1.356 . S
N515 H520 0.984 . S
N515 H521 0.985 1_565 S
C516 C510 1.379 . S
C516 C513 1.363 . S
C516 N514 1.356 . S
C517 C511 1.363 . S
C517 C512 1.379 . S
C517 N515 1.356 . S
N518 C510 1.356 . S
N518 H524 0.984 . S
N518 H525 0.984 . S
N519 C512 1.356 . S
N519 H522 0.984 . S
N519 H523 0.985 1_665 S
H520 N515 0.984 . S
H521 N515 0.985 1_545 S
H522 N519 0.984 . S
H523 N519 0.985 1_445 S
H524 N518 0.984 . S
H525 N518 0.984 . S
H526 N514 0.984 . S
H527 N514 0.985 . S
C528 C529 1.363 . S
C528 C534 1.379 . S
C528 N536 1.356 . S
C529 C528 1.363 . S
C529 C535 1.363 1_455 S
C530 C531 1.363 . S
C530 C535 1.379 1_455 S
C530 N537 1.356 1_455 S
C531 C530 1.363 . S
C531 C534 1.363 . S
N532 C534 1.356 . S
N532 H544 0.984 . S
N532 H545 0.985 . S
N533 C535 1.356 . S
N533 H538 0.984 . S
N533 H539 0.985 . S
C534 C528 1.379 . S
C534 C531 1.363 . S
C534 N532 1.356 . S
C535 C529 1.363 1_655 S
C535 C530 1.379 1_655 S
C535 N533 1.356 . S
N536 C528 1.356 . S
N536 H542 0.984 . S
N536 H543 0.984 . S
N537 C530 1.356 1_655 S
N537 H540 0.984 1_655 S
N537 H541 0.985 . S
H538 N533 0.984 . S
H539 N533 0.985 . S
H540 N537 0.984 1_455 S
H541 N537 0.985 . S
H542 N536 0.984 . S
H543 N536 0.984 . S
H544 N532 0.984 . S
H545 N532 0.985 . S
C546 C547 1.363 . S
C546 C552 1.379 . S
C546 N554 1.356 . S
C547 C546 1.363 . S
C547 C553 1.363 1_545 S
C548 C549 1.363 . S
C548 C553 1.379 1_545 S
C548 N555 1.356 1_545 S
C549 C548 1.363 . S
C549 C552 1.363 . S
N550 C552 1.356 . S
N550 H562 0.984 . S
N550 H563 0.985 . S
N551 C553 1.356 . S
N551 H556 0.984 . S
N551 H557 0.985 . S
C552 C546 1.379 . S
C552 C549 1.363 . S
C552 N550 1.356 . S
C553 C547 1.363 1_565 S
C553 C548 1.379 1_565 S
C553 N551 1.356 . S
N554 C546 1.356 . S
N554 H560 0.984 . S
N554 H561 0.984 . S
N555 C548 1.356 1_565 S
N555 H558 0.984 1_565 S
N555 H559 0.985 . S
H556 N551 0.984 . S
H557 N551 0.985 . S
H558 N555 0.984 1_545 S
H559 N555 0.985 . S
H560 N554 0.984 . S
H561 N554 0.984 . S
H562 N550 0.984 . S
H563 N550 0.985 . S
C241 C130 1.295 1_455 S
C243 C10 1.295 . S
C259 C170 1.296 1_545 S
C261 C50 1.296 . S
C277 C210 1.296 . S
C279 C90 1.296 . S
C295 C16 1.127 . S
C297 C87 1.278 . S
C313 C56 1.127 . S
C315 C127 1.277 . S
C331 C96 1.128 . S
C333 C167 1.278 . S
C349 C136 1.127 . S
C351 C207 1.277 1_655 S
C367 C176 1.127 . S
C369 C7 1.277 1_565 S
C385 C216 1.128 . S
C387 C47 1.278 . S
C403 C19 1.752 . S
C405 C139 1.752 1_545 S
C421 C59 1.754 . S
C423 C179 1.754 . S
C439 C99 1.753 1_455 S
C441 C219 1.753 . S
C457 C2 4.224 . S
C459 C51 4.282 . S
C475 C42 4.224 . S
C477 C91 4.282 . S
C493 C82 4.224 . S
C495 C131 4.282 . S
C511 C122 4.224 . S
C513 C171 4.282 . S
C529 C162 4.225 1_455 S
C531 C211 4.282 . S
C547 C202 4.225 1_545 S
C549 C11 4.282 . S
