# Generated by pormake.
# Topology sow, (4)-cn, num edge types: 1
# Building blocks:
#     Node 0, Type 0, BuildingBlock: ICAMEG_clean_sbu_1, # of connection points: 4
#     Node 1, Type 0, BuildingBlock: ICAMEG_clean_sbu_1, # of connection points: 4
#     Node 2, Type 0, BuildingBlock: ICAMEG_clean_sbu_1, # of connection points: 4
#     Node 3, Type 0, BuildingBlock: ICAMEG_clean_sbu_1, # of connection points: 4
#     Node 4, Type 0, BuildingBlock: ICAMEG_clean_sbu_1, # of connection points: 4
#     Node 5, Type 0, BuildingBlock: ICAMEG_clean_sbu_1, # of connection points: 4
#     Node 6, Type 0, BuildingBlock: ICAMEG_clean_sbu_1, # of connection points: 4
#     Node 7, Type 0, BuildingBlock: ICAMEG_clean_sbu_1, # of connection points: 4
#     Edge 8, Type (0, 0), BuildingBlock: TEMPAE_clean_linker_10, # of connection points: 2
#     Edge 9, Type (0, 0), BuildingBlock: TEMPAE_clean_linker_10, # of connection points: 2
#     Edge 10, Type (0, 0), BuildingBlock: TEMPAE_clean_linker_10, # of connection points: 2
#     Edge 11, Type (0, 0), BuildingBlock: TEMPAE_clean_linker_10, # of connection points: 2
#     Edge 12, Type (0, 0), BuildingBlock: TEMPAE_clean_linker_10, # of connection points: 2
#     Edge 13, Type (0, 0), BuildingBlock: TEMPAE_clean_linker_10, # of connection points: 2
#     Edge 14, Type (0, 0), BuildingBlock: TEMPAE_clean_linker_10, # of connection points: 2
#     Edge 15, Type (0, 0), BuildingBlock: TEMPAE_clean_linker_10, # of connection points: 2
#     Edge 16, Type (0, 0), BuildingBlock: TEMPAE_clean_linker_10, # of connection points: 2
#     Edge 17, Type (0, 0), BuildingBlock: TEMPAE_clean_linker_10, # of connection points: 2
#     Edge 18, Type (0, 0), BuildingBlock: TEMPAE_clean_linker_10, # of connection points: 2
#     Edge 19, Type (0, 0), BuildingBlock: TEMPAE_clean_linker_10, # of connection points: 2
#     Edge 20, Type (0, 0), BuildingBlock: TEMPAE_clean_linker_10, # of connection points: 2
#     Edge 21, Type (0, 0), BuildingBlock: TEMPAE_clean_linker_10, # of connection points: 2
#     Edge 22, Type (0, 0), BuildingBlock: TEMPAE_clean_linker_10, # of connection points: 2
#     Edge 23, Type (0, 0), BuildingBlock: TEMPAE_clean_linker_10, # of connection points: 2
# Relax obj value: 0.053
# Max RMSD: 0.148
# Mean RMSD: 0.148
data_MOF--net-sow--node1-ICAMEG_clean_sbu_1--edge1-TEMPAE_clean_linker_10
_symmetry_space_group_name_H-M    P1
_symmetry_Int_Tables_number       1
_symmetry_cell_setting            triclinic
loop_
_symmetry_equiv_pos_as_xyz
'x, y, z'
_cell_length_a     43.110791
_cell_length_b     19.012308
_cell_length_c     26.812663
_cell_angle_alpha  89.998427
_cell_angle_beta   89.992
_cell_angle_gamma 90.000768
loop_
_atom_site_label
_atom_site_type_symbol
_atom_site_fract_x
_atom_site_fract_y
_atom_site_fract_z
_atom_type_partial_charge
Co0 Co 0.12723 0.2788 0.0491 0.0
Co1 Co 0.14335 0.1373 0.12631 0.0
O2 O 0.15578 0.21532 0.08353 0.0
C3 C 0.16507 0.21343 0.97039 0.0
O4 O 0.16116 0.15376 0.99413 0.0
C5 C 0.18265 0.22775 0.18985 0.0
O6 O 0.16917 0.28221 0.16905 0.0
O7 O 0.1122 0.19684 0.16094 0.0
O8 O 0.10097 0.28765 0.11026 0.0
H9 H 0.06688 0.97964 0.2129 0.0
H10 H 0.19479 0.30787 0.04868 0.0
O11 O 0.15276 0.2698 0.98683 0.0
H12 H 0.14685 0.51427 0.12905 0.0
H13 H 0.10104 0.47741 0.93227 0.0
H14 H 0.05884 0.2968 0.04549 0.0
H15 H 0.11441 0.41662 0.09807 0.0
H16 H 0.13607 0.39692 0.97742 0.0
O17 O 0.17524 0.16549 0.17696 0.0
H18 H 0.08307 0.07633 0.15738 0.0
H19 H 0.1778 0.03298 0.18829 0.0
H20 H 0.023 0.37652 0.00145 0.0
H21 H 0.22807 0.40377 0.07961 0.0
H22 H 0.04406 0.46765 0.94431 0.0
H23 H 0.20415 0.50819 0.11987 0.0
O24 O 0.10064 0.19935 0.02664 0.0
H25 H 0.24806 0.0837 0.05322 0.0
H26 H 0.14193 0.99463 0.08009 0.0
H27 H 0.17954 0.92225 0.03342 0.0
H28 H 0.23294 0.96709 0.01934 0.0
H29 H 0.20961 0.15463 0.09925 0.0
H30 H 0.16258 0.93633 0.24457 0.0
H31 H 0.10682 0.9089 0.25701 0.0
O32 O 0.11094 0.10792 0.07732 0.0
C33 C 0.09695 0.25236 0.15027 0.0
C34 C 0.09128 0.99084 0.20761 0.0
C35 C 0.145 0.96657 0.22541 0.0
N36 N 0.13135 0.05985 0.16923 0.0
C37 C 0.10059 0.04536 0.17607 0.0
C38 C 0.15347 0.02145 0.19357 0.0
C39 C 0.11369 0.95123 0.23239 0.0
C40 C 0.18417 0.35331 0.06583 0.0
N41 N 0.15269 0.35687 0.07126 0.0
C42 C 0.20315 0.40745 0.08336 0.0
C43 C 0.1897 0.46584 0.10615 0.0
C44 C 0.15756 0.46924 0.11134 0.0
C45 C 0.13931 0.41381 0.09374 0.0
C46 C 0.09158 0.438 0.95711 0.0
C47 C 0.0682 0.33657 0.02094 0.0
C48 C 0.1113 0.39217 0.98269 0.0
N49 N 0.09952 0.34248 0.01429 0.0
C50 C 0.04778 0.38145 0.99599 0.0
C51 C 0.05962 0.43251 0.9639 0.0
C52 C 0.09599 0.13652 0.04159 0.0
C53 C 0.22485 0.06363 0.05912 0.0
C54 C 0.16515 0.01434 0.07426 0.0
C55 C 0.18637 0.97309 0.04789 0.0
C56 C 0.21636 0.99818 0.04012 0.0
N57 N 0.17359 0.0787 0.09246 0.0
C58 C 0.20303 0.1034 0.08535 0.0
Co59 Co 0.37318 0.21861 0.54909 0.0
Co60 Co 0.35665 0.36031 0.62598 0.0
O61 O 0.34437 0.28215 0.58311 0.0
C62 C 0.33567 0.28472 0.4701 0.0
O63 O 0.33885 0.344 0.49459 0.0
C64 C 0.31736 0.26891 0.68905 0.0
O65 O 0.33013 0.21459 0.66697 0.0
O66 O 0.38806 0.30132 0.66024 0.0
O67 O 0.39872 0.20872 0.611 0.0
H68 H 0.43319 0.51885 0.71145 0.0
H69 H 0.30557 0.18966 0.54596 0.0
O70 O 0.34833 0.2285 0.48611 0.0
H71 H 0.35228 0.98246 0.62715 0.0
H72 H 0.40028 0.02105 0.43189 0.0
H73 H 0.44154 0.19954 0.54765 0.0
H74 H 0.38517 0.08048 0.59809 0.0
H75 H 0.36491 0.10151 0.47639 0.0
O76 O 0.32513 0.33131 0.67705 0.0
H77 H 0.4169 0.42228 0.65595 0.0
H78 H 0.32227 0.46358 0.68905 0.0
H79 H 0.4777 0.11983 0.50428 0.0
H80 H 0.27188 0.09284 0.57435 0.0
H81 H 0.45711 0.02977 0.44586 0.0
H82 H 0.29518 0.9883 0.61531 0.0
O83 O 0.40018 0.29798 0.52767 0.0
H84 H 0.25113 0.41337 0.55573 0.0
H85 H 0.35735 0.5033 0.58018 0.0
H86 H 0.319 0.57609 0.53541 0.0
H87 H 0.2655 0.53099 0.52277 0.0
H88 H 0.29031 0.34199 0.59977 0.0
H89 H 0.33765 0.5599 0.74548 0.0
H90 H 0.39337 0.58844 0.75675 0.0
O91 O 0.3887 0.39049 0.57664 0.0
C92 C 0.40289 0.24491 0.65056 0.0
C93 C 0.4088 0.50724 0.70665 0.0
C94 C 0.35515 0.53026 0.72575 0.0
N95 N 0.36866 0.43777 0.66888 0.0
C96 C 0.39942 0.4528 0.6751 0.0
C97 C 0.34661 0.47554 0.69385 0.0
C98 C 0.38645 0.54619 0.73209 0.0
C99 C 0.31594 0.14404 0.56328 0.0
N100 N 0.34731 0.14053 0.57008 0.0
C101 C 0.29672 0.08948 0.57946 0.0
C102 C 0.30981 0.03092 0.60255 0.0
C103 C 0.34185 0.02766 0.60924 0.0
C104 C 0.36034 0.08335 0.59278 0.0
C105 C 0.40953 0.06002 0.45728 0.0
C106 C 0.43238 0.16028 0.52251 0.0
C107 C 0.38962 0.10583 0.48248 0.0
N108 N 0.40114 0.15497 0.51476 0.0
C109 C 0.45298 0.11538 0.49796 0.0
C110 C 0.44141 0.06492 0.46516 0.0
C111 C 0.40426 0.36139 0.54181 0.0
C112 C 0.27437 0.43359 0.56104 0.0
C113 C 0.33412 0.48335 0.57481 0.0
C114 C 0.31248 0.52485 0.54954 0.0
C115 C 0.28245 0.49959 0.54255 0.0
N116 N 0.32604 0.41857 0.5927 0.0
C117 C 0.29661 0.39355 0.58614 0.0
Co118 Co 0.62461 0.23165 0.95454 0.0
Co119 Co 0.64296 0.3564 0.86588 0.0
O120 O 0.65472 0.28686 0.91623 0.0
C121 C 0.66547 0.29611 0.02998 0.0
O122 O 0.66345 0.35477 0.00439 0.0
C123 C 0.68756 0.26371 0.81389 0.0
O124 O 0.67451 0.21012 0.83647 0.0
O125 O 0.61585 0.28714 0.83209 0.0
O126 O 0.59701 0.22143 0.89471 0.0
H127 H 0.56829 0.48615 0.75522 0.0
H128 H 0.69076 0.18889 0.95614 0.0
O129 O 0.6512 0.24113 0.01551 0.0
H130 H 0.63446 0.98607 0.88586 0.0
H131 H 0.59292 0.04847 0.08024 0.0
H132 H 0.55595 0.22839 0.96183 0.0
H133 H 0.60622 0.09295 0.91153 0.0
H134 H 0.63014 0.11817 0.03081 0.0
O135 O 0.67827 0.32617 0.82233 0.0
H136 H 0.58356 0.40067 0.81983 0.0
H137 H 0.67817 0.45798 0.80246 0.0
H138 H 0.51793 0.15941 0.01013 0.0
H139 H 0.71984 0.08273 0.93154 0.0
H140 H 0.53636 0.06866 0.06984 0.0
H141 H 0.6917 0.98045 0.89594 0.0
O142 O 0.60167 0.31809 0.97409 0.0
H143 H 0.74213 0.43918 0.94504 0.0
H144 H 0.63471 0.50397 0.90146 0.0
H145 H 0.66792 0.58977 0.94517 0.0
H146 H 0.72202 0.55753 0.96727 0.0
H147 H 0.70796 0.35461 0.90192 0.0
H148 H 0.66387 0.54415 0.73756 0.0
H149 H 0.60865 0.55871 0.7136 0.0
O150 O 0.60679 0.38812 0.90703 0.0
C151 C 0.59679 0.24208 0.84937 0.0
C152 C 0.59245 0.48058 0.76551 0.0
C153 C 0.64612 0.51298 0.75554 0.0
N154 N 0.63165 0.425 0.81544 0.0
C155 C 0.60122 0.43245 0.80224 0.0
C156 C 0.65404 0.46415 0.79233 0.0
C157 C 0.6151 0.52117 0.74213 0.0
C158 C 0.67829 0.14431 0.94121 0.0
N159 N 0.64682 0.14704 0.93547 0.0
C160 C 0.69491 0.08446 0.92711 0.0
C161 C 0.6791 0.02714 0.90705 0.0
C162 C 0.647 0.0303 0.90134 0.0
C163 C 0.63114 0.09106 0.91579 0.0
C164 C 0.5846 0.08774 0.05426 0.0
C165 C 0.56415 0.1887 0.98751 0.0
C166 C 0.60557 0.12746 0.02624 0.0
N167 N 0.59522 0.17685 0.99315 0.0
C168 C 0.54251 0.14995 0.01487 0.0
C169 C 0.55287 0.09909 0.0484 0.0
C170 C 0.59424 0.37212 0.94863 0.0
C171 C 0.7186 0.45387 0.93553 0.0
C172 C 0.65819 0.48944 0.91113 0.0
C173 C 0.67692 0.53833 0.93572 0.0
C174 C 0.70731 0.52025 0.94803 0.0
N175 N 0.66943 0.42442 0.89903 0.0
C176 C 0.69921 0.40634 0.9109 0.0
Co177 Co 0.87392 0.27097 0.45101 0.0
Co178 Co 0.85588 0.13176 0.37273 0.0
O179 O 0.84449 0.20894 0.41716 0.0
C180 C 0.83794 0.20311 0.53108 0.0
O181 O 0.84087 0.14429 0.50594 0.0
C182 C 0.81617 0.22533 0.31207 0.0
O183 O 0.82974 0.2787 0.33409 0.0
O184 O 0.88698 0.19129 0.33779 0.0
O185 O 0.89861 0.28185 0.38845 0.0
H186 H 0.93017 0.97352 0.28186 0.0
H187 H 0.80654 0.30143 0.45747 0.0
O188 O 0.84999 0.25985 0.51475 0.0
H189 H 0.85288 0.50929 0.37652 0.0
H190 H 0.90331 0.46535 0.56942 0.0
H191 H 0.94236 0.28861 0.45037 0.0
H192 H 0.88575 0.40981 0.40296 0.0
H193 H 0.86706 0.38647 0.52535 0.0
O194 O 0.82357 0.16242 0.32341 0.0
H195 H 0.91533 0.07029 0.33827 0.0
H196 H 0.81994 0.02924 0.31128 0.0
H197 H 0.97938 0.36678 0.49326 0.0
H198 H 0.7729 0.39998 0.43209 0.0
H199 H 0.9599 0.45596 0.55331 0.0
H200 H 0.79601 0.50473 0.39105 0.0
O201 O 0.90091 0.19065 0.47035 0.0
H202 H 0.7519 0.0798 0.44901 0.0
H203 H 0.85704 0.98798 0.41725 0.0
H204 H 0.81969 0.91591 0.46468 0.0
H205 H 0.76682 0.96215 0.48128 0.0
H206 H 0.79009 0.15041 0.40218 0.0
H207 H 0.83384 0.93175 0.25469 0.0
H208 H 0.88922 0.90345 0.23966 0.0
O209 O 0.88875 0.09991 0.42015 0.0
C210 C 0.90217 0.24705 0.34813 0.0
C211 C 0.90592 0.98525 0.2882 0.0
C212 C 0.85183 0.96197 0.27285 0.0
N213 N 0.86681 0.055 0.3284 0.0
C214 C 0.89737 0.03988 0.3202 0.0
C215 C 0.84413 0.01719 0.30493 0.0
C216 C 0.88294 0.94602 0.26449 0.0
C217 C 0.81683 0.34718 0.44018 0.0
N218 N 0.84809 0.35005 0.43197 0.0
C219 C 0.79763 0.40268 0.42565 0.0
C220 C 0.81062 0.4614 0.40259 0.0
C221 C 0.84252 0.46396 0.39438 0.0
C222 C 0.86101 0.40742 0.40935 0.0
C223 C 0.91208 0.42677 0.5433 0.0
C224 C 0.93368 0.32751 0.47624 0.0
C225 C 0.89167 0.38185 0.51834 0.0
N226 N 0.90258 0.33323 0.48513 0.0
C227 C 0.95477 0.37152 0.50051 0.0
C228 C 0.94383 0.42149 0.53423 0.0
C229 C 0.90477 0.12777 0.45496 0.0
C230 C 0.77488 0.05913 0.44202 0.0
C231 C 0.83403 0.00829 0.42412 0.0
C232 C 0.81296 0.96721 0.45092 0.0
C233 C 0.78326 0.99308 0.46009 0.0
N234 N 0.82572 0.07325 0.40686 0.0
C235 C 0.79655 0.09871 0.41532 0.0
Co236 Co 0.85736 0.8484 0.8503 0.0
Co237 Co 0.87369 0.73324 0.94644 0.0
O238 O 0.84471 0.78579 0.90444 0.0
C239 C 0.81486 0.74859 0.80129 0.0
O240 O 0.82877 0.69826 0.82622 0.0
C241 C 0.83447 0.81198 0.01723 0.0
O242 O 0.83689 0.86637 0.98737 0.0
O243 O 0.89843 0.81937 0.95997 0.0
O244 O 0.89317 0.8844 0.89028 0.0
H245 H 0.9789 0.65783 0.00693 0.0
H246 H 0.79188 0.85188 0.88424 0.0
O247 O 0.82259 0.81258 0.80797 0.0
H248 H 0.83205 0.09138 0.9128 0.0
H249 H 0.83757 0.01867 0.70997 0.0
H250 H 0.91735 0.88762 0.8034 0.0
H251 H 0.86563 0.99958 0.87657 0.0
H252 H 0.82284 0.94103 0.77976 0.0
O253 O 0.84758 0.75392 0.00643 0.0
H254 H 0.94224 0.72378 0.95403 0.0
H255 H 0.866 0.63144 0.03013 0.0
H256 H 0.93314 0.96456 0.73385 0.0
H257 H 0.75737 0.94234 0.92014 0.0
H258 H 0.89309 0.03086 0.68662 0.0
H259 H 0.77754 0.06301 0.93479 0.0
O260 O 0.88488 0.77531 0.82185 0.0
H261 H 0.77533 0.59306 0.9316 0.0
H262 H 0.88916 0.58733 0.91371 0.0
H263 H 0.85865 0.48085 0.89471 0.0
H264 H 0.80129 0.4833 0.90371 0.0
H265 H 0.80671 0.69842 0.94992 0.0
H266 H 0.90186 0.56501 0.08421 0.0
H267 H 0.95875 0.57773 0.07258 0.0
O268 O 0.90089 0.71224 0.88782 0.0
C269 C 0.90598 0.87092 0.9321 0.0
C270 C 0.95416 0.65165 0.01225 0.0
C271 C 0.91092 0.59962 0.05566 0.0
N272 N 0.90202 0.68096 0.98868 0.0
C273 C 0.93328 0.6887 0.98231 0.0
C274 C 0.89073 0.63747 0.025 0.0
C275 C 0.94284 0.60677 0.04911 0.0
C276 C 0.80068 0.90447 0.89009 0.0
N277 N 0.83067 0.92053 0.87817 0.0
C278 C 0.78109 0.95537 0.9106 0.0
C279 C 0.79241 0.02304 0.91886 0.0
C280 C 0.82303 0.03898 0.90661 0.0
C281 C 0.84196 0.98673 0.88627 0.0
C282 C 0.85525 0.99022 0.73035 0.0
C283 C 0.89983 0.91666 0.7833 0.0
C284 C 0.84705 0.94617 0.76991 0.0
N285 N 0.86927 0.9104 0.79602 0.0
C286 C 0.90889 0.95999 0.74382 0.0
C287 C 0.8864 0.99707 0.71729 0.0
C288 C 0.90246 0.7294 0.84187 0.0
C289 C 0.8003 0.59124 0.92776 0.0
C290 C 0.86421 0.58883 0.91762 0.0
C291 C 0.84706 0.52834 0.90691 0.0
C292 C 0.81489 0.52971 0.912 0.0
N293 N 0.84973 0.64892 0.93315 0.0
C294 C 0.81821 0.65065 0.93827 0.0
Co295 Co 0.6419 0.65244 0.34938 0.0
Co296 Co 0.62792 0.76369 0.44838 0.0
O297 O 0.65601 0.71124 0.40471 0.0
C298 C 0.68639 0.74907 0.30153 0.0
O299 O 0.67335 0.8002 0.32688 0.0
C300 C 0.66752 0.68235 0.51725 0.0
O301 O 0.66469 0.62846 0.48703 0.0
O302 O 0.60293 0.67783 0.46153 0.0
O303 O 0.6054 0.61871 0.38894 0.0
H304 H 0.524 0.83978 0.51405 0.0
H305 H 0.7072 0.63979 0.38297 0.0
O306 O 0.67742 0.68579 0.30757 0.0
H307 H 0.66157 0.40427 0.4066 0.0
H308 H 0.65722 0.4866 0.20496 0.0
H309 H 0.58097 0.62294 0.30217 0.0
H310 H 0.63021 0.5013 0.37218 0.0
H311 H 0.67397 0.5588 0.2765 0.0
O312 O 0.65464 0.74088 0.50714 0.0
H313 H 0.55955 0.77438 0.4589 0.0
H314 H 0.63733 0.86341 0.53289 0.0
H315 H 0.56318 0.55147 0.23097 0.0
H316 H 0.7395 0.54406 0.41722 0.0
H317 H 0.60143 0.48259 0.1818 0.0
H318 H 0.71658 0.42535 0.42934 0.0
O319 O 0.61614 0.72997 0.32276 0.0
H320 H 0.72695 0.90016 0.42991 0.0
H321 H 0.61289 0.91118 0.41861 0.0
H322 H 0.64387 0.01688 0.39927 0.0
H323 H 0.70135 0.01177 0.40491 0.0
H324 H 0.69511 0.79597 0.4492 0.0
H325 H 0.6026 0.92924 0.5892 0.0
H326 H 0.5455 0.91792 0.57978 0.0
O327 O 0.60002 0.78721 0.39117 0.0
C328 C 0.59375 0.62957 0.43202 0.0
C329 C 0.54884 0.84536 0.51841 0.0
C330 C 0.59296 0.89551 0.56062 0.0
N331 N 0.60048 0.81563 0.49233 0.0
C332 C 0.56909 0.80863 0.48719 0.0
C333 C 0.6125 0.85801 0.52869 0.0
C334 C 0.56092 0.88914 0.55531 0.0
C335 C 0.69721 0.58808 0.38772 0.0
N336 N 0.66691 0.57606 0.37546 0.0
C337 C 0.71557 0.53417 0.40728 0.0
C338 C 0.7027 0.46761 0.41414 0.0
C339 C 0.67179 0.45576 0.40148 0.0
C340 C 0.65412 0.51096 0.38216 0.0
C341 C 0.6403 0.51621 0.22618 0.0
C342 C 0.59771 0.59267 0.28125 0.0
C343 C 0.64965 0.55719 0.26673 0.0
N344 N 0.62841 0.59442 0.29387 0.0
C345 C 0.58752 0.55249 0.24084 0.0
C346 C 0.60901 0.51395 0.21322 0.0
C347 C 0.59854 0.77413 0.34457 0.0
C348 C 0.70194 0.90329 0.42774 0.0
C349 C 0.63788 0.90862 0.42124 0.0
C350 C 0.6553 0.96865 0.41031 0.0
C351 C 0.68755 0.96578 0.41353 0.0
N352 N 0.65219 0.8476 0.4353 0.0
C353 C 0.68378 0.84447 0.43872 0.0
Co354 Co 0.3566 0.6456 0.14314 0.0
Co355 Co 0.37321 0.78532 0.06469 0.0
O356 O 0.34449 0.72091 0.09774 0.0
C357 C 0.3164 0.73931 0.20258 0.0
O358 O 0.32917 0.79252 0.1792 0.0
C359 C 0.34 0.71132 0.98424 0.0
O360 O 0.34283 0.65369 0.01074 0.0
O361 O 0.4027 0.70771 0.04873 0.0
O362 O 0.38964 0.61425 0.09592 0.0
H363 H 0.4772 0.89343 0.02836 0.0
H364 H 0.2906 0.66047 0.1138 0.0
O365 O 0.32422 0.67635 0.1922 0.0
H366 H 0.32234 0.42602 0.05394 0.0
H367 H 0.33598 0.45061 0.2658 0.0
H368 H 0.41657 0.58662 0.1778 0.0
H369 H 0.35903 0.50089 0.10052 0.0
H370 H 0.32149 0.54436 0.2066 0.0
O371 O 0.35129 0.76922 0.99979 0.0
H372 H 0.44098 0.81204 0.07 0.0
H373 H 0.36565 0.89698 0.98756 0.0
H374 H 0.43208 0.49297 0.23639 0.0
H375 H 0.25305 0.587 0.06781 0.0
H376 H 0.39162 0.42422 0.28086 0.0
H377 H 0.2691 0.46947 0.03673 0.0
O378 O 0.38723 0.70728 0.17722 0.0
H379 H 0.26839 0.89939 0.07721 0.0
H380 H 0.38027 0.92791 0.10971 0.0
H381 H 0.34415 0.02329 0.13267 0.0
H382 H 0.28775 0.0093 0.11645 0.0
H383 H 0.30528 0.80569 0.05454 0.0
H384 H 0.40112 0.9789 0.94464 0.0
H385 H 0.45731 0.97765 0.96513 0.0
O386 O 0.39568 0.80161 0.12849 0.0
C387 C 0.40655 0.64432 0.06317 0.0
C388 C 0.45275 0.89458 0.01916 0.0
C389 C 0.41006 0.94248 0.97214 0.0
N390 N 0.40122 0.84994 0.03139 0.0
C391 C 0.43212 0.84871 0.0427 0.0
C392 C 0.3901 0.89583 0.99645 0.0
C393 C 0.44158 0.94178 0.98367 0.0
C394 C 0.29752 0.60878 0.10125 0.0
N395 N 0.32692 0.58489 0.10995 0.0
C396 C 0.27622 0.56758 0.07503 0.0
C397 C 0.28521 0.50157 0.05767 0.0
C398 C 0.31513 0.47727 0.06714 0.0
C399 C 0.33581 0.51992 0.09347 0.0
C400 C 0.35381 0.48001 0.2465 0.0
C401 C 0.39883 0.55655 0.19671 0.0
C402 C 0.34575 0.53323 0.21301 0.0
N403 N 0.36817 0.57054 0.18848 0.0
C404 C 0.40775 0.50374 0.22996 0.0
C405 C 0.38504 0.46525 0.25495 0.0
C406 C 0.40037 0.76602 0.1681 0.0
C407 C 0.29292 0.90642 0.08408 0.0
C408 C 0.35578 0.92162 0.10233 0.0
C409 C 0.33544 0.97579 0.1154 0.0
C410 C 0.3038 0.96794 0.10625 0.0
N411 N 0.34492 0.86153 0.08046 0.0
C412 C 0.31395 0.85358 0.07121 0.0
Co413 Co 0.14428 0.85726 0.64926 0.0
Co414 Co 0.12931 0.72739 0.56233 0.0
O415 O 0.15754 0.78864 0.59935 0.0
C416 C 0.18947 0.76867 0.70206 0.0
O417 O 0.17635 0.71439 0.68044 0.0
C418 C 0.16621 0.80003 0.4855 0.0
O419 O 0.16229 0.85809 0.51119 0.0
O420 O 0.10248 0.80849 0.54385 0.0
O421 O 0.10749 0.88401 0.60809 0.0
H422 H 0.02525 0.63209 0.51166 0.0
H423 H 0.20923 0.86178 0.61283 0.0
O424 O 0.18012 0.8308 0.69269 0.0
H425 H 0.164 0.09116 0.56723 0.0
H426 H 0.16242 0.04704 0.77697 0.0
H427 H 0.08404 0.89813 0.69459 0.0
H428 H 0.13292 0.00304 0.61267 0.0
H429 H 0.17782 0.96182 0.71217 0.0
O430 O 0.15436 0.7424 0.50041 0.0
H431 H 0.06102 0.70906 0.5583 0.0
H432 H 0.13828 0.61569 0.48559 0.0
H433 H 0.06758 0.98277 0.75905 0.0
H434 H 0.24125 0.94868 0.56778 0.0
H435 H 0.10693 0.05802 0.80073 0.0
H436 H 0.21848 0.06405 0.54426 0.0
O437 O 0.11842 0.78603 0.68366 0.0
H438 H 0.23091 0.60143 0.58342 0.0
H439 H 0.11755 0.58492 0.60523 0.0
H440 H 0.15067 0.48507 0.63017 0.0
H441 H 0.2078 0.49292 0.61918 0.0
H442 H 0.19697 0.69994 0.559 0.0
H443 H 0.10332 0.53821 0.43775 0.0
H444 H 0.04637 0.54589 0.45086 0.0
O445 O 0.1034 0.71161 0.6232 0.0
C446 C 0.09441 0.86324 0.56804 0.0
C447 C 0.05003 0.62808 0.50573 0.0
C448 C 0.09384 0.57546 0.46421 0.0
N449 N 0.10171 0.66644 0.52499 0.0
C450 C 0.0704 0.67138 0.53214 0.0
C451 C 0.11352 0.61957 0.49131 0.0
C452 C 0.06189 0.57978 0.47159 0.0
C453 C 0.19935 0.91228 0.60335 0.0
N454 N 0.16929 0.92743 0.61549 0.0
C455 C 0.21753 0.96113 0.57766 0.0
C456 C 0.20475 0.02584 0.56445 0.0
C457 C 0.17414 0.04103 0.57721 0.0
C458 C 0.15664 0.99086 0.60282 0.0
C459 C 0.14504 0.01473 0.75896 0.0
C460 C 0.10125 0.93108 0.71223 0.0
C461 C 0.15362 0.96633 0.72227 0.0
N462 N 0.13179 0.92548 0.69925 0.0
C463 C 0.09181 0.97875 0.74884 0.0
C464 C 0.1139 0.02087 0.77227 0.0
C465 C 0.10188 0.7352 0.66771 0.0
C466 C 0.20605 0.59714 0.58805 0.0
C467 C 0.14239 0.58873 0.60038 0.0
C468 C 0.16102 0.53198 0.61448 0.0
C469 C 0.19307 0.53638 0.60827 0.0
N470 N 0.1553 0.64805 0.58042 0.0
C471 C 0.1867 0.65269 0.57414 0.0
C472 C 0.27272 0.20294 0.72544 0.0
C473 C 0.29423 0.25798 0.72872 0.0
C474 C 0.2502 0.19318 0.76271 0.0
C475 C 0.25012 0.23788 0.80501 0.0
C476 C 0.27224 0.29275 0.80875 0.0
C477 C 0.29364 0.30297 0.77004 0.0
C478 C 0.22624 0.13591 0.75644 0.0
C479 C 0.27359 0.34013 0.85394 0.0
C480 C 0.17933 0.26287 0.88739 0.0
C481 C 0.18564 0.21633 0.92657 0.0
C482 C 0.19941 0.26792 0.84633 0.0
C483 C 0.22704 0.22756 0.8456 0.0
C484 C 0.23338 0.18022 0.88511 0.0
C485 C 0.21227 0.17425 0.92472 0.0
C486 C 0.19127 0.31708 0.80408 0.0
C487 C 0.26303 0.13797 0.88657 0.0
H488 H 0.27305 0.16862 0.69314 0.0
H489 H 0.31046 0.34525 0.77262 0.0
H490 H 0.22802 0.09746 0.78741 0.0
H491 H 0.2026 0.15895 0.75805 0.0
H492 H 0.22885 0.10728 0.72056 0.0
H493 H 0.29318 0.378 0.85209 0.0
H494 H 0.25168 0.37027 0.8574 0.0
H495 H 0.27608 0.30801 0.88827 0.0
H496 H 0.15856 0.29499 0.88873 0.0
H497 H 0.21723 0.13866 0.95531 0.0
H498 H 0.19286 0.28904 0.76787 0.0
H499 H 0.20805 0.36126 0.80285 0.0
H500 H 0.16755 0.33922 0.80799 0.0
H501 H 0.26514 0.10523 0.85253 0.0
H502 H 0.26428 0.10302 0.91973 0.0
H503 H 0.28325 0.17411 0.88724 0.0
C504 C 0.22546 0.29753 0.22848 0.0
C505 C 0.20612 0.23832 0.22916 0.0
C506 C 0.24807 0.3075 0.26556 0.0
C507 C 0.25052 0.25833 0.30509 0.0
C508 C 0.23074 0.19883 0.30611 0.0
C509 C 0.20914 0.18895 0.26763 0.0
C510 C 0.26955 0.37004 0.26213 0.0
C511 C 0.232 0.1462 0.34828 0.0
C512 C 0.32288 0.24079 0.38499 0.0
C513 C 0.31498 0.28162 0.42652 0.0
C514 C 0.30271 0.23546 0.34405 0.0
C515 C 0.27343 0.26923 0.34587 0.0
C516 C 0.26543 0.31061 0.3879 0.0
C517 C 0.28661 0.31743 0.42734 0.0
C518 C 0.31258 0.19314 0.29912 0.0
C519 C 0.23406 0.34547 0.39211 0.0
H520 H 0.22333 0.33532 0.19837 0.0
H521 H 0.19403 0.14334 0.2683 0.0
H522 H 0.2667 0.4042 0.29533 0.0
H523 H 0.29401 0.35183 0.26173 0.0
H524 H 0.2653 0.40208 0.22815 0.0
H525 H 0.21431 0.10407 0.34429 0.0
H526 H 0.25524 0.12133 0.34985 0.0
H527 H 0.22825 0.17338 0.38442 0.0
H528 H 0.34498 0.21352 0.3844 0.0
H529 H 0.28045 0.34845 0.45981 0.0
H530 H 0.30951 0.22462 0.26461 0.0
H531 H 0.29776 0.14573 0.29555 0.0
H532 H 0.33717 0.17603 0.30158 0.0
H533 H 0.2302 0.38128 0.36007 0.0
H534 H 0.23156 0.3761 0.42717 0.0
H535 H 0.21556 0.30488 0.39091 0.0
C536 C 0.7905 0.19146 0.23243 0.0
C537 C 0.79293 0.23803 0.27271 0.0
C538 C 0.76936 0.20389 0.19365 0.0
C539 C 0.7494 0.26301 0.19618 0.0
C540 C 0.75121 0.30923 0.23755 0.0
C541 C 0.77341 0.29689 0.27491 0.0
C542 C 0.76875 0.15432 0.14962 0.0
C543 C 0.72951 0.37122 0.24257 0.0
C544 C 0.71398 0.32875 0.07496 0.0
C545 C 0.68582 0.29207 0.07406 0.0
C546 C 0.73483 0.32033 0.11476 0.0
C547 C 0.72675 0.27617 0.15532 0.0
C548 C 0.69765 0.24158 0.1555 0.0
C549 C 0.67778 0.24886 0.11435 0.0
C550 C 0.76602 0.35635 0.11239 0.0
C551 C 0.68769 0.19607 0.19879 0.0
H552 H 0.80575 0.14616 0.23059 0.0
H553 H 0.77512 0.33255 0.30637 0.0
H554 H 0.74569 0.12883 0.14672 0.0
H555 H 0.77258 0.18416 0.11457 0.0
H556 H 0.78668 0.11253 0.15246 0.0
H557 H 0.73276 0.39972 0.27838 0.0
H558 H 0.73333 0.40867 0.21147 0.0
H559 H 0.70507 0.35319 0.24018 0.0
H560 H 0.72027 0.36169 0.04353 0.0
H561 H 0.65586 0.22091 0.11374 0.0
H562 H 0.78473 0.31624 0.11232 0.0
H563 H 0.7695 0.38976 0.14582 0.0
H564 H 0.76853 0.38968 0.07859 0.0
H565 H 0.70266 0.14874 0.20094 0.0
H566 H 0.66318 0.17866 0.19538 0.0
H567 H 0.69044 0.22519 0.23439 0.0
C568 C 0.73255 0.19598 0.77958 0.0
C569 C 0.71147 0.25179 0.77547 0.0
C570 C 0.75523 0.18467 0.74272 0.0
C571 C 0.75589 0.22861 0.70001 0.0
C572 C 0.73437 0.28456 0.69562 0.0
C573 C 0.7128 0.2962 0.73384 0.0
C574 C 0.77856 0.1262 0.74962 0.0
C575 C 0.73369 0.33144 0.65011 0.0
C576 C 0.82589 0.25049 0.6156 0.0
C577 C 0.81854 0.20493 0.5763 0.0
C578 C 0.80661 0.2555 0.65765 0.0
C579 C 0.77872 0.21616 0.65933 0.0
C580 C 0.77148 0.16926 0.61994 0.0
C581 C 0.79181 0.16329 0.57927 0.0
C582 C 0.81571 0.30415 0.69968 0.0
C583 C 0.74152 0.12813 0.61945 0.0
H584 H 0.73164 0.16199 0.81203 0.0
H585 H 0.69632 0.33904 0.73047 0.0
H586 H 0.77563 0.08613 0.71995 0.0
H587 H 0.80247 0.14731 0.74621 0.0
H588 H 0.7762 0.09989 0.78644 0.0
H589 H 0.71462 0.37071 0.65165 0.0
H590 H 0.75599 0.36001 0.64647 0.0
H591 H 0.73076 0.29906 0.61599 0.0
H592 H 0.84676 0.28221 0.61343 0.0
H593 H 0.78605 0.12841 0.54864 0.0
H594 H 0.8137 0.27662 0.73604 0.0
H595 H 0.79976 0.34988 0.70074 0.0
H596 H 0.8398 0.32405 0.69552 0.0
H597 H 0.73925 0.0966 0.65404 0.0
H598 H 0.73988 0.09219 0.58688 0.0
H599 H 0.72159 0.16508 0.61833 0.0
C600 C 0.82446 0.78161 0.10592 0.0
C601 C 0.81508 0.81607 0.06231 0.0
C602 C 0.8051 0.77955 0.14792 0.0
C603 C 0.77513 0.80975 0.14528 0.0
C604 C 0.76609 0.8471 0.10193 0.0
C605 C 0.78645 0.85077 0.06109 0.0
C606 C 0.81638 0.74362 0.19473 0.0
C607 C 0.73443 0.88044 0.09793 0.0
C608 C 0.71463 0.71693 0.22379 0.0
C609 C 0.70963 0.76502 0.26258 0.0
C610 C 0.73538 0.7319 0.18504 0.0
C611 C 0.75233 0.79573 0.18573 0.0
C612 C 0.74765 0.84436 0.22512 0.0
C613 C 0.72599 0.82877 0.26275 0.0
C614 C 0.73881 0.67964 0.1429 0.0
C615 C 0.76477 0.91354 0.22777 0.0
H616 H 0.8469 0.75588 0.10704 0.0
H617 H 0.77932 0.87761 0.02729 0.0
H618 H 0.8125 0.77822 0.22752 0.0
H619 H 0.80302 0.69454 0.20097 0.0
H620 H 0.84142 0.7301 0.1927 0.0
H621 H 0.73098 0.90777 0.06173 0.0
H622 H 0.71623 0.83954 0.10211 0.0
H623 H 0.7312 0.91901 0.12854 0.0
H624 H 0.70171 0.66801 0.22301 0.0
H625 H 0.72211 0.86636 0.29253 0.0
H626 H 0.76279 0.65851 0.14227 0.0
H627 H 0.7347 0.70611 0.10659 0.0
H628 H 0.72243 0.63477 0.14632 0.0
H629 H 0.78632 0.91389 0.20522 0.0
H630 H 0.77074 0.92646 0.26703 0.0
H631 H 0.74935 0.95597 0.21384 0.0
C632 C 0.67746 0.71127 0.60606 0.0
C633 C 0.68684 0.67718 0.5623 0.0
C634 C 0.69689 0.71344 0.64792 0.0
C635 C 0.7269 0.68352 0.64505 0.0
C636 C 0.73592 0.64629 0.60163 0.0
C637 C 0.7155 0.64264 0.56086 0.0
C638 C 0.68572 0.74969 0.69468 0.0
C639 C 0.76768 0.61351 0.59734 0.0
C640 C 0.78712 0.77839 0.72275 0.0
C641 C 0.79204 0.73119 0.7621 0.0
C642 C 0.76659 0.76231 0.68395 0.0
C643 C 0.74979 0.69829 0.68519 0.0
C644 C 0.75441 0.65057 0.72515 0.0
C645 C 0.77592 0.66716 0.76276 0.0
C646 C 0.76305 0.81382 0.64137 0.0
C647 C 0.73718 0.58159 0.72839 0.0
H648 H 0.65501 0.73696 0.60732 0.0
H649 H 0.72263 0.61617 0.52691 0.0
H650 H 0.68989 0.7156 0.72764 0.0
H651 H 0.69893 0.79911 0.7004 0.0
H652 H 0.66062 0.76274 0.69291 0.0
H653 H 0.7709 0.5852 0.56146 0.0
H654 H 0.78571 0.65497 0.6004 0.0
H655 H 0.77142 0.57598 0.62842 0.0
H656 H 0.79987 0.82752 0.72166 0.0
H657 H 0.77978 0.63034 0.79303 0.0
H658 H 0.73904 0.83474 0.64062 0.0
H659 H 0.76717 0.78679 0.60527 0.0
H660 H 0.77936 0.85888 0.64438 0.0
H661 H 0.71451 0.5834 0.70895 0.0
H662 H 0.73321 0.56629 0.76788 0.0
H663 H 0.75145 0.53977 0.71086 0.0
C664 C 0.29273 0.67345 0.93855 0.0
C665 C 0.32055 0.7114 0.93923 0.0
C666 C 0.27207 0.67967 0.89838 0.0
C667 C 0.28009 0.72283 0.85728 0.0
C668 C 0.30903 0.75808 0.85669 0.0
C669 C 0.32865 0.75317 0.89826 0.0
C670 C 0.24109 0.6428 0.90103 0.0
C671 C 0.31899 0.80196 0.81257 0.0
C672 C 0.23301 0.69906 0.73855 0.0
C673 C 0.2134 0.75771 0.74048 0.0
C674 C 0.25546 0.68786 0.77566 0.0
C675 C 0.25737 0.73495 0.81649 0.0
C676 C 0.23734 0.7939 0.81873 0.0
C677 C 0.21596 0.80521 0.78022 0.0
C678 C 0.27695 0.62556 0.77119 0.0
C679 C 0.23805 0.8443 0.8623 0.0
H680 H 0.28642 0.64168 0.97058 0.0
H681 H 0.35034 0.78208 0.89883 0.0
H682 H 0.22213 0.68227 0.89987 0.0
H683 H 0.23808 0.60781 0.86832 0.0
H684 H 0.23854 0.6109 0.93551 0.0
H685 H 0.3434 0.8201 0.8159 0.0
H686 H 0.31654 0.77118 0.7776 0.0
H687 H 0.30379 0.84879 0.8092 0.0
H688 H 0.23109 0.66245 0.70769 0.0
H689 H 0.20054 0.85022 0.78199 0.0
H690 H 0.26963 0.58393 0.79766 0.0
H691 H 0.30103 0.64085 0.78094 0.0
H692 H 0.27683 0.60293 0.73298 0.0
H693 H 0.23428 0.81511 0.89764 0.0
H694 H 0.22011 0.88603 0.85918 0.0
H695 H 0.26112 0.86981 0.86484 0.0
C696 C 0.29286 0.7082 0.2843 0.0
C697 C 0.29368 0.75235 0.24253 0.0
C698 C 0.27197 0.7207 0.32339 0.0
C699 C 0.25063 0.77711 0.31963 0.0
C700 C 0.25105 0.82116 0.27702 0.0
C701 C 0.27305 0.80908 0.23934 0.0
C702 C 0.27289 0.67374 0.36883 0.0
C703 C 0.22794 0.88018 0.27085 0.0
C704 C 0.17954 0.75447 0.40125 0.0
C705 C 0.18625 0.79965 0.44105 0.0
C706 C 0.19955 0.74947 0.36019 0.0
C707 C 0.22751 0.78859 0.35996 0.0
C708 C 0.23414 0.83519 0.39981 0.0
C709 C 0.2131 0.84105 0.43958 0.0
C710 C 0.1911 0.7012 0.31757 0.0
C711 C 0.26409 0.87626 0.40163 0.0
H712 H 0.30907 0.66473 0.28691 0.0
H713 H 0.27363 0.84294 0.2068 0.0
H714 H 0.27557 0.70605 0.40304 0.0
H715 H 0.25073 0.64452 0.3723 0.0
H716 H 0.29218 0.63506 0.36724 0.0
H717 H 0.22954 0.9055 0.23359 0.0
H718 H 0.20404 0.85984 0.27607 0.0
H719 H 0.23188 0.92086 0.2998 0.0
H720 H 0.1586 0.72286 0.40232 0.0
H721 H 0.21836 0.87553 0.47067 0.0
H722 H 0.20742 0.65614 0.31636 0.0
H723 H 0.19315 0.72949 0.28151 0.0
H724 H 0.16713 0.68029 0.32109 0.0
H725 H 0.284 0.83928 0.40298 0.0
H726 H 0.26534 0.91157 0.43458 0.0
H727 H 0.26676 0.90843 0.36741 0.0
C728 C 0.04865 0.32169 0.16814 0.0
C729 C 0.07067 0.2716 0.18335 0.0
C730 C 0.02063 0.33025 0.1942 0.0
C731 C 0.01462 0.28807 0.2366 0.0
C732 C 0.03767 0.24116 0.25418 0.0
C733 C 0.06538 0.23353 0.2274 0.0
C734 C 0.99672 0.38115 0.1745 0.0
C735 C 0.0323 0.19566 0.29958 0.0
C736 C 0.94902 0.32018 0.32816 0.0
C737 C 0.92789 0.26742 0.31425 0.0
C738 C 0.97671 0.33045 0.30153 0.0
C739 C 0.98332 0.28724 0.25991 0.0
C740 C 0.96109 0.23753 0.24353 0.0
C741 C 0.93366 0.22827 0.27084 0.0
C742 C 0.99974 0.38434 0.31995 0.0
C743 C 0.96712 0.19078 0.199 0.0
H744 H 0.05252 0.35184 0.13441 0.0
H745 H 0.0823 0.19521 0.23988 0.0
H746 H 0.97725 0.35133 0.15763 0.0
H747 H 0.98698 0.41339 0.20522 0.0
H748 H 0.0065 0.41681 0.14567 0.0
H749 H 0.05351 0.16659 0.31092 0.0
H750 H 0.02439 0.22821 0.33148 0.0
H751 H 0.01374 0.15683 0.29154 0.0
H752 H 0.94476 0.35124 0.36135 0.0
H753 H 0.91743 0.18784 0.25936 0.0
H754 H 0.00884 0.41609 0.28848 0.0
H755 H 0.01975 0.35706 0.33735 0.0
H756 H 0.98938 0.42031 0.34805 0.0
H757 H 0.97451 0.2227 0.16646 0.0
H758 H 0.94636 0.15962 0.18831 0.0
H759 H 0.98627 0.15376 0.20774 0.0
C760 C 0.44837 0.16857 0.67328 0.0
C761 C 0.42863 0.22517 0.68459 0.0
C762 C 0.47581 0.15732 0.70046 0.0
C763 C 0.48374 0.20401 0.73955 0.0
C764 C 0.46299 0.25846 0.7531 0.0
C765 C 0.43565 0.26807 0.72571 0.0
C766 C 0.49711 0.098 0.68545 0.0
C767 C 0.47056 0.30957 0.79454 0.0
C768 C 0.54728 0.17541 0.83524 0.0
C769 C 0.57063 0.22005 0.81694 0.0
C770 C 0.51952 0.16547 0.8087 0.0
C771 C 0.51496 0.20142 0.76306 0.0
C772 C 0.53929 0.24238 0.74272 0.0
C773 C 0.56688 0.25075 0.76969 0.0
C774 C 0.49434 0.12031 0.83116 0.0
C775 C 0.53538 0.28182 0.69419 0.0
H776 H 0.44313 0.13471 0.64186 0.0
H777 H 0.42053 0.31161 0.7352 0.0
H778 H 0.51775 0.11982 0.66618 0.0
H779 H 0.50549 0.06916 0.71881 0.0
H780 H 0.48554 0.06019 0.65991 0.0
H781 H 0.45103 0.34593 0.80267 0.0
H782 H 0.47652 0.28074 0.8292 0.0
H783 H 0.49111 0.34142 0.78397 0.0
H784 H 0.54999 0.15075 0.87143 0.0
H785 H 0.58481 0.28478 0.75483 0.0
H786 H 0.48376 0.08593 0.80238 0.0
H787 H 0.47571 0.15453 0.84619 0.0
H788 H 0.50324 0.08694 0.86203 0.0
H789 H 0.52667 0.24615 0.66462 0.0
H790 H 0.5574 0.30606 0.68125 0.0
H791 H 0.51793 0.3242 0.69912 0.0
C792 C 0.06823 0.74755 0.74292 0.0
C793 C 0.07644 0.70945 0.70007 0.0
C794 C 0.0399 0.73562 0.76702 0.0
C795 C 0.01971 0.68287 0.7487 0.0
C796 C 0.02929 0.63927 0.70883 0.0
C797 C 0.05747 0.65349 0.68461 0.0
C798 C 0.03047 0.78378 0.80927 0.0
C799 C 0.00882 0.58109 0.68929 0.0
C800 C 0.95042 0.65575 0.83321 0.0
C801 C 0.92911 0.70324 0.81229 0.0
C802 C 0.97933 0.64374 0.81066 0.0
C803 C 0.98718 0.68094 0.76674 0.0
C804 C 0.96481 0.72432 0.74331 0.0
C805 C 0.9359 0.73409 0.766 0.0
C806 C 0.00224 0.59538 0.83588 0.0
C807 C 0.97231 0.76546 0.69656 0.0
H808 H 0.08285 0.79024 0.7557 0.0
H809 H 0.06381 0.62297 0.65201 0.0
H810 H 0.0108 0.81737 0.79714 0.0
H811 H 0.02246 0.75269 0.84179 0.0
H812 H 0.04973 0.81861 0.82145 0.0
H813 H 0.02201 0.54339 0.66577 0.0
H814 H 0.99778 0.55192 0.72044 0.0
H815 H 0.99001 0.60409 0.66625 0.0
H816 H 0.94526 0.63075 0.86859 0.0
H817 H 0.9195 0.77004 0.74903 0.0
H818 H 0.01966 0.62721 0.85631 0.0
H819 H 0.01486 0.56308 0.80801 0.0
H820 H 0.99068 0.55983 0.86302 0.0
H821 H 0.99026 0.80559 0.70505 0.0
H822 H 0.95165 0.79276 0.68108 0.0
H823 H 0.98191 0.73019 0.66747 0.0
C824 C 0.43551 0.74499 0.24055 0.0
C825 C 0.42536 0.78952 0.20214 0.0
C826 C 0.46335 0.75813 0.26575 0.0
C827 C 0.48122 0.81787 0.25275 0.0
C828 C 0.4697 0.86656 0.21745 0.0
C829 C 0.44192 0.85167 0.19234 0.0
C830 C 0.47481 0.70485 0.30336 0.0
C831 C 0.48777 0.93162 0.20345 0.0
C832 C 0.54902 0.84275 0.34028 0.0
C833 C 0.5718 0.80223 0.3162 0.0
C834 C 0.51993 0.85378 0.31816 0.0
C835 C 0.51356 0.82322 0.27119 0.0
C836 C 0.53745 0.78839 0.24467 0.0
C837 C 0.56639 0.77893 0.26733 0.0
C838 C 0.49529 0.89293 0.34696 0.0
C839 C 0.53165 0.75517 0.19431 0.0
H840 H 0.42278 0.69726 0.24891 0.0
H841 H 0.4341 0.88701 0.16321 0.0
H842 H 0.49562 0.67769 0.28839 0.0
H843 H 0.48177 0.73135 0.33846 0.0
H844 H 0.45701 0.66449 0.31226 0.0
H845 H 0.47301 0.97075 0.18385 0.0
H846 H 0.49806 0.95672 0.23695 0.0
H847 H 0.5071 0.91681 0.17823 0.0
H848 H 0.55311 0.86215 0.37772 0.0
H849 H 0.58396 0.74865 0.24796 0.0
H850 H 0.47909 0.85458 0.36412 0.0
H851 H 0.48153 0.92735 0.32191 0.0
H852 H 0.50547 0.92553 0.37721 0.0
H853 H 0.51582 0.70954 0.19876 0.0
H854 H 0.5534 0.73642 0.1765 0.0
H855 H 0.52021 0.79309 0.16885 0.0
C856 C 0.0685 0.0232 0.0237 0.0
C857 C 0.06995 0.09665 0.01932 0.0
C858 C 0.04232 0.98577 0.00739 0.0
C859 C 0.01669 0.02289 0.98744 0.0
C860 C 0.01825 0.09685 0.98208 0.0
C861 C 0.04501 0.1327 0.99747 0.0
C862 C 0.04186 0.90667 0.01238 0.0
C863 C 0.9912 0.13844 0.96176 0.0
C864 C 0.95616 0.92695 0.91048 0.0
C865 C 0.93333 0.91269 0.94628 0.0
C866 C 0.98365 0.96176 0.92349 0.0
C867 C 0.98793 0.98468 0.97324 0.0
C868 C 0.96465 0.97139 0.0094 0.0
C869 C 0.9378 0.93428 0.99564 0.0
C870 C 0.00835 0.97265 0.88426 0.0
C871 C 0.96807 0.99648 0.06255 0.0
H872 H 0.08772 0.99496 0.04036 0.0
H873 H 0.0458 0.18946 0.99423 0.0
H874 H 0.02371 0.89078 0.03946 0.0
H875 H 0.03594 0.88209 0.97607 0.0
H876 H 0.0645 0.88538 0.02522 0.0
H877 H 0.99623 0.19568 0.95963 0.0
H878 H 0.98502 0.11943 0.92394 0.0
H879 H 0.97058 0.13052 0.9859 0.0
H880 H 0.953 0.9086 0.87256 0.0
H881 H 0.92014 0.92277 0.02326 0.0
H882 H 0.03025 0.94697 0.89618 0.0
H883 H 0.01331 0.02955 0.87983 0.0
H884 H 0.0015 0.95087 0.84742 0.0
H885 H 0.98868 0.97166 0.07996 0.0
H886 H 0.94738 0.98405 0.08562 0.0
H887 H 0.97186 0.05421 0.06316 0.0
C888 C 0.56152 0.5679 0.496 0.0
C889 C 0.56627 0.58812 0.44639 0.0
C890 C 0.53476 0.53056 0.50989 0.0
C891 C 0.51184 0.51533 0.47353 0.0
C892 C 0.51637 0.53678 0.42351 0.0
C893 C 0.54375 0.57204 0.41043 0.0
C894 C 0.53106 0.50717 0.56339 0.0
C895 C 0.49208 0.52364 0.38398 0.0
C896 C 0.45571 0.3658 0.4991 0.0
C897 C 0.43027 0.40155 0.51966 0.0
C898 C 0.48233 0.40223 0.4837 0.0
C899 C 0.48325 0.47641 0.48778 0.0
C900 C 0.45715 0.51312 0.50652 0.0
C901 C 0.43111 0.47518 0.52283 0.0
C902 C 0.50988 0.36109 0.4647 0.0
C903 C 0.45696 0.59238 0.5102 0.0
H904 H 0.57892 0.58059 0.52378 0.0
H905 H 0.54709 0.58906 0.37224 0.0
H906 H 0.51006 0.53159 0.57987 0.0
H907 H 0.52779 0.44931 0.56492 0.0
H908 H 0.55142 0.52136 0.58671 0.0
H909 H 0.49906 0.54451 0.34693 0.0
H910 H 0.48762 0.46641 0.38038 0.0
H911 H 0.46989 0.54878 0.39504 0.0
H912 H 0.4554 0.30891 0.49688 0.0
H913 H 0.41149 0.50318 0.5385 0.0
H914 H 0.53021 0.37062 0.48917 0.0
H915 H 0.51626 0.37911 0.42672 0.0
H916 H 0.50531 0.3036 0.46342 0.0
H917 H 0.47479 0.60989 0.5373 0.0
H918 H 0.43407 0.61315 0.5223 0.0
H919 H 0.46294 0.61598 0.47359 0.0
C920 C 0.46092 0.64102 0.03151 0.0
C921 C 0.43353 0.60505 0.04359 0.0
C922 C 0.48773 0.60446 0.01715 0.0
C923 C 0.48689 0.53022 0.0134 0.0
C924 C 0.45907 0.49369 0.02443 0.0
C925 C 0.43283 0.53151 0.04014 0.0
C926 C 0.51713 0.6452 0.00689 0.0
C927 C 0.45701 0.41471 0.01956 0.0
C928 C 0.5473 0.44387 0.93063 0.0
C929 C 0.56781 0.41524 0.96576 0.0
C930 C 0.52073 0.48068 0.94566 0.0
C931 C 0.51498 0.49093 0.99712 0.0
C932 C 0.53602 0.46353 0.03283 0.0
C933 C 0.56195 0.42489 0.0167 0.0
C934 C 0.49849 0.50736 0.90644 0.0
C935 C 0.53113 0.47504 0.08799 0.0
H936 H 0.46173 0.69779 0.03489 0.0
H937 H 0.41169 0.50356 0.04944 0.0
H938 H 0.53599 0.62626 0.03166 0.0
H939 H 0.52478 0.63629 0.96791 0.0
H940 H 0.51412 0.70264 0.01277 0.0
H941 H 0.43341 0.39452 0.02804 0.0
H942 H 0.46335 0.39858 0.98111 0.0
H943 H 0.47377 0.3893 0.04526 0.0
H944 H 0.55147 0.43546 0.89124 0.0
H945 H 0.57782 0.40278 0.04388 0.0
H946 H 0.49626 0.56535 0.90917 0.0
H947 H 0.4751 0.48471 0.91281 0.0
H948 H 0.50606 0.49373 0.86802 0.0
H949 H 0.52903 0.53213 0.09596 0.0
H950 H 0.5504 0.45323 0.11074 0.0
H951 H 0.50915 0.44987 0.09996 0.0
C952 C 0.06205 0.91898 0.50165 0.0
C953 C 0.06645 0.9011 0.55175 0.0
C954 C 0.03521 0.95505 0.48646 0.0
C955 C 0.01191 0.97106 0.52205 0.0
C956 C 0.01596 0.95103 0.57246 0.0
C957 C 0.04343 0.91725 0.58682 0.0
C958 C 0.03202 0.97707 0.4326 0.0
C959 C 0.99127 0.96498 0.61121 0.0
C960 C 0.95665 0.12191 0.496 0.0
C961 C 0.93092 0.08682 0.47581 0.0
C962 C 0.98317 0.08485 0.51096 0.0
C963 C 0.9837 0.01065 0.5069 0.0
C964 C 0.95741 0.97461 0.48819 0.0
C965 C 0.93147 0.01322 0.47223 0.0
C966 C 0.01094 0.12531 0.52987 0.0
C967 C 0.9568 0.89537 0.48464 0.0
H968 H 0.0799 0.90609 0.47466 0.0
H969 H 0.04661 0.90185 0.6254 0.0
H970 H 0.01084 0.95347 0.41616 0.0
H971 H 0.02942 0.03506 0.43027 0.0
H972 H 0.05234 0.9611 0.40976 0.0
H973 H 0.9973 0.94228 0.64815 0.0
H974 H 0.98786 0.02246 0.61565 0.0
H975 H 0.9688 0.94242 0.59891 0.0
H976 H 0.95657 0.17878 0.49848 0.0
H977 H 0.91164 0.98577 0.4568 0.0
H978 H 0.03141 0.11401 0.50607 0.0
H979 H 0.01678 0.1083 0.5683 0.0
H980 H 0.0069 0.18303 0.5301 0.0
H981 H 0.97492 0.87714 0.45827 0.0
H982 H 0.93397 0.87522 0.47178 0.0
H983 H 0.96212 0.87182 0.52153 0.0
loop_
_geom_bond_atom_site_label_1
_geom_bond_atom_site_label_2
_geom_bond_distance
_geom_bond_site_symmetry_2
_ccdc_geom_bond_type
Co0 O2 2.143 . S
Co0 O8 2.074 . S
Co0 O11 2.093 1_554 S
Co0 O24 2.097 . S
Co0 N41 2.151 . S
Co0 N49 2.214 . S
Co1 O2 2.160 . S
Co1 O7 2.058 . S
Co1 O17 2.057 . S
Co1 O32 2.037 . S
Co1 N36 2.145 . S
Co1 N57 2.257 . S
O2 Co0 2.143 . S
O2 Co1 2.160 . S
C3 O4 1.263 1_556 S
C3 O11 1.226 . S
O4 C3 1.263 1_554 S
C5 O6 1.245 . S
C5 O17 1.232 . S
O6 C5 1.245 . S
O7 Co1 2.058 . S
O7 C33 1.269 . S
O8 Co0 2.074 . S
O8 C33 1.257 . S
H9 C34 0.930 1_565 S
H10 C40 0.930 . S
O11 Co0 2.093 1_556 S
O11 C3 1.226 . S
H12 C44 0.929 . S
H13 C46 0.930 . S
H14 C47 0.930 . S
H15 C45 0.929 . S
H16 C48 0.928 . S
O17 Co1 2.057 . S
O17 C5 1.232 . S
H18 C37 0.929 . S
H19 C38 0.929 . S
H20 C50 0.931 . S
H21 C42 0.929 . S
H22 C51 0.930 . S
H23 C43 0.931 . S
O24 Co0 2.097 . S
O24 C52 1.214 . S
H25 C53 0.929 . S
H26 C54 0.929 . S
H27 C55 0.930 . S
H28 C56 0.929 1_565 S
H29 C58 0.930 . S
H30 C35 0.930 . S
H31 C39 0.930 . S
O32 Co1 2.037 . S
O32 C52 1.234 . S
C33 O7 1.269 . S
C33 O8 1.257 . S
C34 H9 0.930 1_545 S
C34 C37 1.388 . S
C34 C39 1.418 1_545 S
C35 H30 0.930 . S
C35 C38 1.404 . S
C35 C39 1.353 1_545 S
N36 Co1 2.145 . S
N36 C37 1.397 . S
N36 C38 1.334 . S
C37 H18 0.929 . S
C37 C34 1.388 . S
C37 N36 1.397 . S
C38 H19 0.929 . S
C38 C35 1.404 . S
C38 N36 1.334 . S
C39 H31 0.930 . S
C39 C34 1.418 1_565 S
C39 C35 1.353 1_565 S
C40 H10 0.930 . S
C40 N41 1.330 . S
C40 C42 1.446 . S
N41 Co0 2.151 . S
N41 C40 1.330 . S
N41 C45 1.418 . S
C42 H21 0.929 . S
C42 C40 1.446 . S
C42 C43 1.332 . S
C43 H23 0.931 . S
C43 C42 1.332 . S
C43 C44 1.267 . S
C44 H12 0.929 . S
C44 C43 1.267 . S
C44 C45 1.251 . S
C45 H15 0.929 . S
C45 N41 1.418 . S
C45 C44 1.251 . S
C46 H13 0.930 . S
C46 C48 1.406 . S
C46 C51 1.261 . S
C47 H14 0.930 . S
C47 N49 1.325 . S
C47 C50 1.357 1_554 S
C48 H16 0.928 . S
C48 C46 1.406 . S
C48 N49 1.261 1_556 S
N49 Co0 2.214 . S
N49 C47 1.325 . S
N49 C48 1.261 1_554 S
C50 H20 0.931 . S
C50 C47 1.357 1_556 S
C50 C51 1.312 . S
C51 H22 0.930 . S
C51 C46 1.261 . S
C51 C50 1.312 . S
C52 O24 1.214 . S
C52 O32 1.234 . S
C53 H25 0.929 . S
C53 C56 1.391 . S
C53 C58 1.391 . S
C54 H26 0.929 . S
C54 C55 1.390 1_545 S
C54 N57 1.391 . S
C55 H27 0.930 . S
C55 C54 1.390 1_565 S
C55 C56 1.392 1_565 S
C56 H28 0.929 1_545 S
C56 C53 1.391 . S
C56 C55 1.392 1_545 S
N57 Co1 2.257 . S
N57 C54 1.391 . S
N57 C58 1.388 . S
C58 H29 0.930 . S
C58 C53 1.391 . S
C58 N57 1.388 . S
Co59 O61 2.143 . S
Co59 O67 2.074 . S
Co59 O70 2.093 . S
Co59 O83 2.097 . S
Co59 N100 2.151 . S
Co59 N108 2.214 . S
Co60 O61 2.160 . S
Co60 O66 2.058 . S
Co60 O76 2.057 . S
Co60 O91 2.037 . S
Co60 N95 2.145 . S
Co60 N116 2.257 . S
O61 Co59 2.143 . S
O61 Co60 2.160 . S
C62 O63 1.278 . S
C62 O70 1.224 . S
O63 C62 1.278 . S
C64 O65 1.245 . S
C64 O76 1.232 . S
O65 C64 1.245 . S
O66 Co60 2.058 . S
O66 C92 1.269 . S
O67 Co59 2.074 . S
O67 C92 1.257 . S
H68 C93 0.930 . S
H69 C99 0.930 . S
O70 Co59 2.093 . S
O70 C62 1.224 . S
H71 C103 0.929 . S
H72 C105 0.930 . S
H73 C106 0.930 . S
H74 C104 0.929 . S
H75 C107 0.928 . S
O76 Co60 2.057 . S
O76 C64 1.232 . S
H77 C96 0.929 . S
H78 C97 0.929 . S
H79 C109 0.931 . S
H80 C101 0.929 . S
H81 C110 0.930 . S
H82 C102 0.931 . S
O83 Co59 2.097 . S
O83 C111 1.214 . S
H84 C112 0.929 . S
H85 C113 0.929 . S
H86 C114 0.930 . S
H87 C115 0.929 . S
H88 C117 0.930 . S
H89 C94 0.930 . S
H90 C98 0.930 . S
O91 Co60 2.037 . S
O91 C111 1.234 . S
C92 O66 1.269 . S
C92 O67 1.257 . S
C93 H68 0.930 . S
C93 C96 1.388 . S
C93 C98 1.418 . S
C94 H89 0.930 . S
C94 C97 1.404 . S
C94 C98 1.353 . S
N95 Co60 2.145 . S
N95 C96 1.397 . S
N95 C97 1.334 . S
C96 H77 0.929 . S
C96 C93 1.388 . S
C96 N95 1.397 . S
C97 H78 0.929 . S
C97 C94 1.404 . S
C97 N95 1.334 . S
C98 H90 0.930 . S
C98 C93 1.418 . S
C98 C94 1.353 . S
C99 H69 0.930 . S
C99 N100 1.330 . S
C99 C101 1.446 1_545 S
N100 Co59 2.151 . S
N100 C99 1.330 . S
N100 C104 1.418 . S
C101 H80 0.929 . S
C101 C99 1.446 1_565 S
C101 C102 1.332 . S
C102 H82 0.931 . S
C102 C101 1.332 . S
C102 C103 1.267 . S
C103 H71 0.929 . S
C103 C102 1.267 . S
C103 C104 1.251 1_565 S
C104 H74 0.929 . S
C104 N100 1.418 . S
C104 C103 1.251 1_545 S
C105 H72 0.930 . S
C105 C107 1.406 . S
C105 C110 1.261 . S
C106 H73 0.930 . S
C106 N108 1.325 . S
C106 C109 1.357 . S
C107 H75 0.928 . S
C107 C105 1.406 . S
C107 N108 1.261 . S
N108 Co59 2.214 . S
N108 C106 1.325 . S
N108 C107 1.261 . S
C109 H79 0.931 . S
C109 C106 1.357 . S
C109 C110 1.312 . S
C110 H81 0.930 . S
C110 C105 1.261 . S
C110 C109 1.312 . S
C111 O83 1.214 . S
C111 O91 1.234 . S
C112 H84 0.929 . S
C112 C115 1.391 . S
C112 C117 1.391 . S
C113 H85 0.929 . S
C113 C114 1.390 . S
C113 N116 1.391 . S
C114 H86 0.930 . S
C114 C113 1.390 . S
C114 C115 1.392 . S
C115 H87 0.929 . S
C115 C112 1.391 . S
C115 C114 1.392 . S
N116 Co60 2.257 . S
N116 C113 1.391 . S
N116 C117 1.388 . S
C117 H88 0.930 . S
C117 C112 1.391 . S
C117 N116 1.388 . S
Co118 O120 2.143 . S
Co118 O126 2.074 . S
Co118 O129 2.093 1_556 S
Co118 O142 2.097 . S
Co118 N159 2.151 . S
Co118 N167 2.214 . S
Co119 O120 2.160 . S
Co119 O125 2.058 . S
Co119 O135 2.057 . S
Co119 O150 2.037 . S
Co119 N154 2.145 . S
Co119 N175 2.257 . S
O120 Co118 2.143 . S
O120 Co119 2.160 . S
C121 O122 1.263 1_554 S
C121 O129 1.226 . S
O122 C121 1.263 1_556 S
C123 O124 1.245 . S
C123 O135 1.232 . S
O124 C123 1.245 . S
O125 Co119 2.058 . S
O125 C151 1.269 . S
O126 Co118 2.074 . S
O126 C151 1.257 . S
H127 C152 0.930 . S
H128 C158 0.930 . S
O129 Co118 2.093 1_554 S
O129 C121 1.226 . S
H130 C162 0.929 . S
H131 C164 0.930 . S
H132 C165 0.930 . S
H133 C163 0.929 . S
H134 C166 0.928 . S
O135 Co119 2.057 . S
O135 C123 1.232 . S
H136 C155 0.929 . S
H137 C156 0.929 . S
H138 C168 0.931 . S
H139 C160 0.929 . S
H140 C169 0.930 . S
H141 C161 0.931 . S
O142 Co118 2.097 . S
O142 C170 1.214 . S
H143 C171 0.929 . S
H144 C172 0.929 . S
H145 C173 0.930 . S
H146 C174 0.929 . S
H147 C176 0.930 . S
H148 C153 0.930 . S
H149 C157 0.930 . S
O150 Co119 2.037 . S
O150 C170 1.234 . S
C151 O125 1.269 . S
C151 O126 1.257 . S
C152 H127 0.930 . S
C152 C155 1.388 . S
C152 C157 1.418 . S
C153 H148 0.930 . S
C153 C156 1.404 . S
C153 C157 1.353 . S
N154 Co119 2.145 . S
N154 C155 1.397 . S
N154 C156 1.334 . S
C155 H136 0.929 . S
C155 C152 1.388 . S
C155 N154 1.397 . S
C156 H137 0.929 . S
C156 C153 1.404 . S
C156 N154 1.334 . S
C157 H149 0.930 . S
C157 C152 1.418 . S
C157 C153 1.353 . S
C158 H128 0.930 . S
C158 N159 1.330 . S
C158 C160 1.446 1_545 S
N159 Co118 2.151 . S
N159 C158 1.330 . S
N159 C163 1.418 . S
C160 H139 0.929 . S
C160 C158 1.446 1_565 S
C160 C161 1.332 . S
C161 H141 0.931 . S
C161 C160 1.332 . S
C161 C162 1.267 . S
C162 H130 0.929 . S
C162 C161 1.267 . S
C162 C163 1.251 1_565 S
C163 H133 0.929 . S
C163 N159 1.418 . S
C163 C162 1.251 1_545 S
C164 H131 0.930 . S
C164 C166 1.406 . S
C164 C169 1.261 . S
C165 H132 0.930 . S
C165 N167 1.325 . S
C165 C168 1.357 1_556 S
C166 H134 0.928 . S
C166 C164 1.406 . S
C166 N167 1.261 1_554 S
N167 Co118 2.214 . S
N167 C165 1.325 . S
N167 C166 1.261 1_556 S
C168 H138 0.931 . S
C168 C165 1.357 1_554 S
C168 C169 1.312 . S
C169 H140 0.930 . S
C169 C164 1.261 . S
C169 C168 1.312 . S
C170 O142 1.214 . S
C170 O150 1.234 . S
C171 H143 0.929 . S
C171 C174 1.391 . S
C171 C176 1.391 . S
C172 H144 0.929 . S
C172 C173 1.390 . S
C172 N175 1.391 . S
C173 H145 0.930 . S
C173 C172 1.390 . S
C173 C174 1.392 . S
C174 H146 0.929 . S
C174 C171 1.391 . S
C174 C173 1.392 . S
N175 Co119 2.257 . S
N175 C172 1.391 . S
N175 C176 1.388 . S
C176 H147 0.930 . S
C176 C171 1.391 . S
C176 N175 1.388 . S
Co177 O179 2.143 . S
Co177 O185 2.074 . S
Co177 O188 2.093 . S
Co177 O201 2.097 . S
Co177 N218 2.151 . S
Co177 N226 2.214 . S
Co178 O179 2.160 . S
Co178 O184 2.058 . S
Co178 O194 2.057 . S
Co178 O209 2.037 . S
Co178 N213 2.145 . S
Co178 N234 2.257 . S
O179 Co177 2.143 . S
O179 Co178 2.160 . S
C180 O181 1.278 . S
C180 O188 1.224 . S
O181 C180 1.278 . S
C182 O183 1.245 . S
C182 O194 1.232 . S
O183 C182 1.245 . S
O184 Co178 2.058 . S
O184 C210 1.269 . S
O185 Co177 2.074 . S
O185 C210 1.257 . S
H186 C211 0.930 1_565 S
H187 C217 0.930 . S
O188 Co177 2.093 . S
O188 C180 1.224 . S
H189 C221 0.929 . S
H190 C223 0.930 . S
H191 C224 0.930 . S
H192 C222 0.929 . S
H193 C225 0.928 . S
O194 Co178 2.057 . S
O194 C182 1.232 . S
H195 C214 0.929 . S
H196 C215 0.929 . S
H197 C227 0.931 . S
H198 C219 0.929 . S
H199 C228 0.930 . S
H200 C220 0.931 . S
O201 Co177 2.097 . S
O201 C229 1.214 . S
H202 C230 0.929 . S
H203 C231 0.929 . S
H204 C232 0.930 . S
H205 C233 0.929 1_565 S
H206 C235 0.930 . S
H207 C212 0.930 . S
H208 C216 0.930 . S
O209 Co178 2.037 . S
O209 C229 1.234 . S
C210 O184 1.269 . S
C210 O185 1.257 . S
C211 H186 0.930 1_545 S
C211 C214 1.388 . S
C211 C216 1.418 1_545 S
C212 H207 0.930 . S
C212 C215 1.404 . S
C212 C216 1.353 1_545 S
N213 Co178 2.145 . S
N213 C214 1.397 . S
N213 C215 1.334 . S
C214 H195 0.929 . S
C214 C211 1.388 . S
C214 N213 1.397 . S
C215 H196 0.929 . S
C215 C212 1.404 . S
C215 N213 1.334 . S
C216 H208 0.930 . S
C216 C211 1.418 1_565 S
C216 C212 1.353 1_565 S
C217 H187 0.930 . S
C217 N218 1.330 . S
C217 C219 1.446 . S
N218 Co177 2.151 . S
N218 C217 1.330 . S
N218 C222 1.418 . S
C219 H198 0.929 . S
C219 C217 1.446 . S
C219 C220 1.332 . S
C220 H200 0.931 . S
C220 C219 1.332 . S
C220 C221 1.267 . S
C221 H189 0.929 . S
C221 C220 1.267 . S
C221 C222 1.251 . S
C222 H192 0.929 . S
C222 N218 1.418 . S
C222 C221 1.251 . S
C223 H190 0.930 . S
C223 C225 1.406 . S
C223 C228 1.261 . S
C224 H191 0.930 . S
C224 N226 1.325 . S
C224 C227 1.357 . S
C225 H193 0.928 . S
C225 C223 1.406 . S
C225 N226 1.261 . S
N226 Co177 2.214 . S
N226 C224 1.325 . S
N226 C225 1.261 . S
C227 H197 0.931 . S
C227 C224 1.357 . S
C227 C228 1.312 . S
C228 H199 0.930 . S
C228 C223 1.261 . S
C228 C227 1.312 . S
C229 O201 1.214 . S
C229 O209 1.234 . S
C230 H202 0.929 . S
C230 C233 1.391 . S
C230 C235 1.391 . S
C231 H203 0.929 . S
C231 C232 1.390 1_545 S
C231 N234 1.391 . S
C232 H204 0.930 . S
C232 C231 1.390 1_565 S
C232 C233 1.392 1_565 S
C233 H205 0.929 1_545 S
C233 C230 1.391 . S
C233 C232 1.392 1_545 S
N234 Co178 2.257 . S
N234 C231 1.391 . S
N234 C235 1.388 . S
C235 H206 0.930 . S
C235 C230 1.391 . S
C235 N234 1.388 . S
Co236 O238 2.143 . S
Co236 O244 2.074 . S
Co236 O247 2.093 . S
Co236 O260 2.097 . S
Co236 N277 2.151 . S
Co236 N285 2.214 . S
Co237 O238 2.160 . S
Co237 O243 2.058 . S
Co237 O253 2.057 . S
Co237 O268 2.037 . S
Co237 N272 2.145 . S
Co237 N293 2.257 . S
O238 Co236 2.143 . S
O238 Co237 2.160 . S
C239 O240 1.278 . S
C239 O247 1.224 . S
O240 C239 1.278 . S
C241 O242 1.255 . S
C241 O253 1.234 . S
O242 C241 1.255 . S
O243 Co237 2.058 . S
O243 C269 1.269 . S
O244 Co236 2.074 . S
O244 C269 1.257 . S
H245 C270 0.930 . S
H246 C276 0.930 . S
O247 Co236 2.093 . S
O247 C239 1.224 . S
H248 C280 0.929 . S
H249 C282 0.930 1_545 S
H250 C283 0.930 . S
H251 C281 0.929 . S
H252 C284 0.928 . S
O253 Co237 2.057 . S
O253 C241 1.234 . S
H254 C273 0.929 . S
H255 C274 0.929 . S
H256 C286 0.931 . S
H257 C278 0.929 . S
H258 C287 0.930 1_545 S
H259 C279 0.931 . S
O260 Co236 2.097 . S
O260 C288 1.214 . S
H261 C289 0.929 . S
H262 C290 0.929 . S
H263 C291 0.930 . S
H264 C292 0.929 . S
H265 C294 0.930 . S
H266 C271 0.930 . S
H267 C275 0.930 . S
O268 Co237 2.037 . S
O268 C288 1.234 . S
C269 O243 1.269 . S
C269 O244 1.257 . S
C270 H245 0.930 . S
C270 C273 1.388 1_554 S
C270 C275 1.418 . S
C271 H266 0.930 . S
C271 C274 1.404 . S
C271 C275 1.353 . S
N272 Co237 2.145 . S
N272 C273 1.397 . S
N272 C274 1.334 1_556 S
C273 H254 0.929 . S
C273 C270 1.388 1_556 S
C273 N272 1.397 . S
C274 H255 0.929 . S
C274 C271 1.404 . S
C274 N272 1.334 1_554 S
C275 H267 0.930 . S
C275 C270 1.418 . S
C275 C271 1.353 . S
C276 H246 0.930 . S
C276 N277 1.330 . S
C276 C278 1.446 . S
N277 Co236 2.151 . S
N277 C276 1.330 . S
N277 C281 1.418 . S
C278 H257 0.929 . S
C278 C276 1.446 . S
C278 C279 1.332 1_565 S
C279 H259 0.931 . S
C279 C278 1.332 1_545 S
C279 C280 1.267 . S
C280 H248 0.929 . S
C280 C279 1.267 . S
C280 C281 1.251 1_545 S
C281 H251 0.929 . S
C281 N277 1.418 . S
C281 C280 1.251 1_565 S
C282 H249 0.930 1_565 S
C282 C284 1.406 . S
C282 C287 1.261 . S
C283 H250 0.930 . S
C283 N285 1.325 . S
C283 C286 1.357 . S
C284 H252 0.928 . S
C284 C282 1.406 . S
C284 N285 1.261 . S
N285 Co236 2.214 . S
N285 C283 1.325 . S
N285 C284 1.261 . S
C286 H256 0.931 . S
C286 C283 1.357 . S
C286 C287 1.312 . S
C287 H258 0.930 1_565 S
C287 C282 1.261 . S
C287 C286 1.312 . S
C288 O260 1.214 . S
C288 O268 1.234 . S
C289 H261 0.929 . S
C289 C292 1.391 . S
C289 C294 1.391 . S
C290 H262 0.929 . S
C290 C291 1.390 . S
C290 N293 1.391 . S
C291 H263 0.930 . S
C291 C290 1.390 . S
C291 C292 1.392 . S
C292 H264 0.929 . S
C292 C289 1.391 . S
C292 C291 1.392 . S
N293 Co237 2.257 . S
N293 C290 1.391 . S
N293 C294 1.388 . S
C294 H265 0.930 . S
C294 C289 1.391 . S
C294 N293 1.388 . S
Co295 O297 2.143 . S
Co295 O303 2.074 . S
Co295 O306 2.093 . S
Co295 O319 2.097 . S
Co295 N336 2.151 . S
Co295 N344 2.214 . S
Co296 O297 2.160 . S
Co296 O302 2.058 . S
Co296 O312 2.057 . S
Co296 O327 2.037 . S
Co296 N331 2.145 . S
Co296 N352 2.257 . S
O297 Co295 2.143 . S
O297 Co296 2.160 . S
C298 O299 1.278 . S
C298 O306 1.224 . S
O299 C298 1.278 . S
C300 O301 1.245 . S
C300 O312 1.232 . S
O301 C300 1.245 . S
O302 Co296 2.058 . S
O302 C328 1.269 . S
O303 Co295 2.074 . S
O303 C328 1.257 . S
H304 C329 0.930 . S
H305 C335 0.930 . S
O306 Co295 2.093 . S
O306 C298 1.224 . S
H307 C339 0.929 . S
H308 C341 0.930 . S
H309 C342 0.930 . S
H310 C340 0.929 . S
H311 C343 0.928 . S
O312 Co296 2.057 . S
O312 C300 1.232 . S
H313 C332 0.929 . S
H314 C333 0.929 . S
H315 C345 0.931 . S
H316 C337 0.929 . S
H317 C346 0.930 . S
H318 C338 0.931 . S
O319 Co295 2.097 . S
O319 C347 1.214 . S
H320 C348 0.929 . S
H321 C349 0.929 . S
H322 C350 0.930 . S
H323 C351 0.929 . S
H324 C353 0.930 . S
H325 C330 0.930 . S
H326 C334 0.930 . S
O327 Co296 2.037 . S
O327 C347 1.234 . S
C328 O302 1.269 . S
C328 O303 1.257 . S
C329 H304 0.930 . S
C329 C332 1.388 . S
C329 C334 1.418 . S
C330 H325 0.930 . S
C330 C333 1.404 . S
C330 C334 1.353 . S
N331 Co296 2.145 . S
N331 C332 1.397 . S
N331 C333 1.334 . S
C332 H313 0.929 . S
C332 C329 1.388 . S
C332 N331 1.397 . S
C333 H314 0.929 . S
C333 C330 1.404 . S
C333 N331 1.334 . S
C334 H326 0.930 . S
C334 C329 1.418 . S
C334 C330 1.353 . S
C335 H305 0.930 . S
C335 N336 1.330 . S
C335 C337 1.446 . S
N336 Co295 2.151 . S
N336 C335 1.330 . S
N336 C340 1.418 . S
C337 H316 0.929 . S
C337 C335 1.446 . S
C337 C338 1.332 . S
C338 H318 0.931 . S
C338 C337 1.332 . S
C338 C339 1.267 . S
C339 H307 0.929 . S
C339 C338 1.267 . S
C339 C340 1.251 . S
C340 H310 0.929 . S
C340 N336 1.418 . S
C340 C339 1.251 . S
C341 H308 0.930 . S
C341 C343 1.406 . S
C341 C346 1.261 . S
C342 H309 0.930 . S
C342 N344 1.325 . S
C342 C345 1.357 . S
C343 H311 0.928 . S
C343 C341 1.406 . S
C343 N344 1.261 . S
N344 Co295 2.214 . S
N344 C342 1.325 . S
N344 C343 1.261 . S
C345 H315 0.931 . S
C345 C342 1.357 . S
C345 C346 1.312 . S
C346 H317 0.930 . S
C346 C341 1.261 . S
C346 C345 1.312 . S
C347 O319 1.214 . S
C347 O327 1.234 . S
C348 H320 0.929 . S
C348 C351 1.391 1_565 S
C348 C353 1.391 . S
C349 H321 0.929 . S
C349 C350 1.390 1_565 S
C349 N352 1.391 . S
C350 H322 0.930 . S
C350 C349 1.390 1_545 S
C350 C351 1.392 . S
C351 H323 0.929 . S
C351 C348 1.391 1_545 S
C351 C350 1.392 . S
N352 Co296 2.257 . S
N352 C349 1.391 . S
N352 C353 1.388 . S
C353 H324 0.930 . S
C353 C348 1.391 . S
C353 N352 1.388 . S
Co354 O356 2.143 . S
Co354 O362 2.074 . S
Co354 O365 2.093 . S
Co354 O378 2.097 . S
Co354 N395 2.151 . S
Co354 N403 2.214 . S
Co355 O356 2.160 . S
Co355 O361 2.058 . S
Co355 O371 2.057 . S
Co355 O386 2.037 . S
Co355 N390 2.145 . S
Co355 N411 2.257 . S
O356 Co354 2.143 . S
O356 Co355 2.160 . S
C357 O358 1.278 . S
C357 O365 1.224 . S
O358 C357 1.278 . S
C359 O360 1.255 . S
C359 O371 1.234 . S
O360 C359 1.255 . S
O361 Co355 2.058 . S
O361 C387 1.269 . S
O362 Co354 2.074 . S
O362 C387 1.257 . S
H363 C388 0.930 . S
H364 C394 0.930 . S
O365 Co354 2.093 . S
O365 C357 1.224 . S
H366 C398 0.929 . S
H367 C400 0.930 . S
H368 C401 0.930 . S
H369 C399 0.929 . S
H370 C402 0.928 . S
O371 Co355 2.057 . S
O371 C359 1.234 . S
H372 C391 0.929 . S
H373 C392 0.929 . S
H374 C404 0.931 . S
H375 C396 0.929 . S
H376 C405 0.930 . S
H377 C397 0.931 . S
O378 Co354 2.097 . S
O378 C406 1.214 . S
H379 C407 0.929 . S
H380 C408 0.929 . S
H381 C409 0.930 . S
H382 C410 0.929 . S
H383 C412 0.930 . S
H384 C389 0.930 . S
H385 C393 0.930 . S
O386 Co355 2.037 . S
O386 C406 1.234 . S
C387 O361 1.269 . S
C387 O362 1.257 . S
C388 H363 0.930 . S
C388 C391 1.388 1_556 S
C388 C393 1.418 . S
C389 H384 0.930 . S
C389 C392 1.404 . S
C389 C393 1.353 . S
N390 Co355 2.145 . S
N390 C391 1.397 . S
N390 C392 1.334 1_554 S
C391 H372 0.929 . S
C391 C388 1.388 1_554 S
C391 N390 1.397 . S
C392 H373 0.929 . S
C392 C389 1.404 . S
C392 N390 1.334 1_556 S
C393 H385 0.930 . S
C393 C388 1.418 . S
C393 C389 1.353 . S
C394 H364 0.930 . S
C394 N395 1.330 . S
C394 C396 1.446 . S
N395 Co354 2.151 . S
N395 C394 1.330 . S
N395 C399 1.418 . S
C396 H375 0.929 . S
C396 C394 1.446 . S
C396 C397 1.332 . S
C397 H377 0.931 . S
C397 C396 1.332 . S
C397 C398 1.267 . S
C398 H366 0.929 . S
C398 C397 1.267 . S
C398 C399 1.251 . S
C399 H369 0.929 . S
C399 N395 1.418 . S
C399 C398 1.251 . S
C400 H367 0.930 . S
C400 C402 1.406 . S
C400 C405 1.261 . S
C401 H368 0.930 . S
C401 N403 1.325 . S
C401 C404 1.357 . S
C402 H370 0.928 . S
C402 C400 1.406 . S
C402 N403 1.261 . S
N403 Co354 2.214 . S
N403 C401 1.325 . S
N403 C402 1.261 . S
C404 H374 0.931 . S
C404 C401 1.357 . S
C404 C405 1.312 . S
C405 H376 0.930 . S
C405 C400 1.261 . S
C405 C404 1.312 . S
C406 O378 1.214 . S
C406 O386 1.234 . S
C407 H379 0.929 . S
C407 C410 1.391 1_565 S
C407 C412 1.391 . S
C408 H380 0.929 . S
C408 C409 1.390 1_565 S
C408 N411 1.391 . S
C409 H381 0.930 . S
C409 C408 1.390 1_545 S
C409 C410 1.392 . S
C410 H382 0.929 . S
C410 C407 1.391 1_545 S
C410 C409 1.392 . S
N411 Co355 2.257 . S
N411 C408 1.391 . S
N411 C412 1.388 . S
C412 H383 0.930 . S
C412 C407 1.391 . S
C412 N411 1.388 . S
Co413 O415 2.143 . S
Co413 O421 2.074 . S
Co413 O424 2.093 . S
Co413 O437 2.097 . S
Co413 N454 2.151 . S
Co413 N462 2.214 . S
Co414 O415 2.160 . S
Co414 O420 2.058 . S
Co414 O430 2.057 . S
Co414 O445 2.037 . S
Co414 N449 2.145 . S
Co414 N470 2.257 . S
O415 Co413 2.143 . S
O415 Co414 2.160 . S
C416 O417 1.278 . S
C416 O424 1.224 . S
O417 C416 1.278 . S
C418 O419 1.245 . S
C418 O430 1.232 . S
O419 C418 1.245 . S
O420 Co414 2.058 . S
O420 C446 1.269 . S
O421 Co413 2.074 . S
O421 C446 1.257 . S
H422 C447 0.930 . S
H423 C453 0.930 . S
O424 Co413 2.093 . S
O424 C416 1.224 . S
H425 C457 0.929 . S
H426 C459 0.930 1_545 S
H427 C460 0.930 . S
H428 C458 0.929 . S
H429 C461 0.928 . S
O430 Co414 2.057 . S
O430 C418 1.232 . S
H431 C450 0.929 . S
H432 C451 0.929 . S
H433 C463 0.931 . S
H434 C455 0.929 . S
H435 C464 0.930 1_545 S
H436 C456 0.931 . S
O437 Co413 2.097 . S
O437 C465 1.214 . S
H438 C466 0.929 . S
H439 C467 0.929 . S
H440 C468 0.930 . S
H441 C469 0.929 . S
H442 C471 0.930 . S
H443 C448 0.930 . S
H444 C452 0.930 . S
O445 Co414 2.037 . S
O445 C465 1.234 . S
C446 O420 1.269 . S
C446 O421 1.257 . S
C447 H422 0.930 . S
C447 C450 1.388 . S
C447 C452 1.418 . S
C448 H443 0.930 . S
C448 C451 1.404 . S
C448 C452 1.353 . S
N449 Co414 2.145 . S
N449 C450 1.397 . S
N449 C451 1.334 . S
C450 H431 0.929 . S
C450 C447 1.388 . S
C450 N449 1.397 . S
C451 H432 0.929 . S
C451 C448 1.404 . S
C451 N449 1.334 . S
C452 H444 0.930 . S
C452 C447 1.418 . S
C452 C448 1.353 . S
C453 H423 0.930 . S
C453 N454 1.330 . S
C453 C455 1.446 . S
N454 Co413 2.151 . S
N454 C453 1.330 . S
N454 C458 1.418 . S
C455 H434 0.929 . S
C455 C453 1.446 . S
C455 C456 1.332 1_565 S
C456 H436 0.931 . S
C456 C455 1.332 1_545 S
C456 C457 1.267 . S
C457 H425 0.929 . S
C457 C456 1.267 . S
C457 C458 1.251 1_545 S
C458 H428 0.929 . S
C458 N454 1.418 . S
C458 C457 1.251 1_565 S
C459 H426 0.930 1_565 S
C459 C461 1.406 . S
C459 C464 1.261 . S
C460 H427 0.930 . S
C460 N462 1.325 . S
C460 C463 1.357 . S
C461 H429 0.928 . S
C461 C459 1.406 . S
C461 N462 1.261 . S
N462 Co413 2.214 . S
N462 C460 1.325 . S
N462 C461 1.261 . S
C463 H433 0.931 . S
C463 C460 1.357 . S
C463 C464 1.312 . S
C464 H435 0.930 1_565 S
C464 C459 1.261 . S
C464 C463 1.312 . S
C465 O437 1.214 . S
C465 O445 1.234 . S
C466 H438 0.929 . S
C466 C469 1.391 . S
C466 C471 1.391 . S
C467 H439 0.929 . S
C467 C468 1.390 . S
C467 N470 1.391 . S
C468 H440 0.930 . S
C468 C467 1.390 . S
C468 C469 1.392 . S
C469 H441 0.929 . S
C469 C466 1.391 . S
C469 C468 1.392 . S
N470 Co414 2.257 . S
N470 C467 1.391 . S
N470 C471 1.388 . S
C471 H442 0.930 . S
C471 C466 1.391 . S
C471 N470 1.388 . S
C472 C473 1.391 . S
C472 C474 1.394 . S
C472 H488 0.931 . S
C473 C472 1.391 . S
C473 C477 1.376 . S
C474 C472 1.394 . S
C474 C475 1.369 . S
C474 C478 1.531 . S
C475 C474 1.369 . S
C475 C476 1.410 . S
C475 C483 1.503 . S
C476 C475 1.410 . S
C476 C477 1.392 . S
C476 C479 1.511 . S
C477 C473 1.376 . S
C477 C476 1.392 . S
C477 H489 0.929 . S
C478 C474 1.531 . S
C478 H490 0.960 . S
C478 H491 0.962 . S
C478 H492 0.960 . S
C479 C476 1.511 . S
C479 H493 0.961 . S
C479 H494 0.961 . S
C479 H495 0.961 . S
C480 C481 1.370 . S
C480 C482 1.363 . S
C480 H496 0.931 . S
C481 C480 1.370 . S
C481 C485 1.408 . S
C482 C480 1.363 . S
C482 C483 1.370 . S
C482 C486 1.524 . S
C483 C475 1.503 . S
C483 C482 1.370 . S
C483 C484 1.403 . S
C484 C483 1.403 . S
C484 C485 1.404 . S
C484 C487 1.539 . S
C485 C481 1.408 . S
C485 C484 1.404 . S
C485 H497 0.930 . S
C486 C482 1.524 . S
C486 H498 0.956 . S
C486 H499 0.961 . S
C486 H500 0.961 . S
C487 C484 1.539 . S
C487 H501 0.958 . S
C487 H502 0.961 . S
C487 H503 0.960 . S
H488 C472 0.931 . S
H489 C477 0.929 . S
H490 C478 0.960 . S
H491 C478 0.962 . S
H492 C478 0.960 . S
H493 C479 0.961 . S
H494 C479 0.961 . S
H495 C479 0.961 . S
H496 C480 0.931 . S
H497 C485 0.930 . S
H498 C486 0.956 . S
H499 C486 0.961 . S
H500 C486 0.961 . S
H501 C487 0.958 . S
H502 C487 0.961 . S
H503 C487 0.960 . S
C504 C505 1.391 . S
C504 C506 1.394 . S
C504 H520 0.931 . S
C505 C504 1.391 . S
C505 C509 1.376 . S
C506 C504 1.394 . S
C506 C507 1.369 . S
C506 C510 1.531 . S
C507 C506 1.369 . S
C507 C508 1.410 . S
C507 C515 1.503 . S
C508 C507 1.410 . S
C508 C509 1.392 . S
C508 C511 1.511 . S
C509 C505 1.376 . S
C509 C508 1.392 . S
C509 H521 0.929 . S
C510 C506 1.531 . S
C510 H522 0.960 . S
C510 H523 0.962 . S
C510 H524 0.960 . S
C511 C508 1.511 . S
C511 H525 0.961 . S
C511 H526 0.961 . S
C511 H527 0.961 . S
C512 C513 1.370 . S
C512 C514 1.363 . S
C512 H528 0.931 . S
C513 C512 1.370 . S
C513 C517 1.408 . S
C514 C512 1.363 . S
C514 C515 1.370 . S
C514 C518 1.524 . S
C515 C507 1.503 . S
C515 C514 1.370 . S
C515 C516 1.403 . S
C516 C515 1.403 . S
C516 C517 1.404 . S
C516 C519 1.539 . S
C517 C513 1.408 . S
C517 C516 1.404 . S
C517 H529 0.930 . S
C518 C514 1.524 . S
C518 H530 0.956 . S
C518 H531 0.961 . S
C518 H532 0.961 . S
C519 C516 1.539 . S
C519 H533 0.958 . S
C519 H534 0.961 . S
C519 H535 0.960 . S
H520 C504 0.931 . S
H521 C509 0.929 . S
H522 C510 0.960 . S
H523 C510 0.962 . S
H524 C510 0.960 . S
H525 C511 0.961 . S
H526 C511 0.961 . S
H527 C511 0.961 . S
H528 C512 0.931 . S
H529 C517 0.930 . S
H530 C518 0.956 . S
H531 C518 0.961 . S
H532 C518 0.961 . S
H533 C519 0.958 . S
H534 C519 0.961 . S
H535 C519 0.960 . S
C536 C537 1.391 . S
C536 C538 1.394 . S
C536 H552 0.931 . S
C537 C536 1.391 . S
C537 C541 1.376 . S
C538 C536 1.394 . S
C538 C539 1.369 . S
C538 C542 1.531 . S
C539 C538 1.369 . S
C539 C540 1.410 . S
C539 C547 1.503 . S
C540 C539 1.410 . S
C540 C541 1.392 . S
C540 C543 1.511 . S
C541 C537 1.376 . S
C541 C540 1.392 . S
C541 H553 0.929 . S
C542 C538 1.531 . S
C542 H554 0.960 . S
C542 H555 0.962 . S
C542 H556 0.960 . S
C543 C540 1.511 . S
C543 H557 0.961 . S
C543 H558 0.961 . S
C543 H559 0.961 . S
C544 C545 1.370 . S
C544 C546 1.363 . S
C544 H560 0.931 . S
C545 C544 1.370 . S
C545 C549 1.408 . S
C546 C544 1.363 . S
C546 C547 1.370 . S
C546 C550 1.524 . S
C547 C539 1.503 . S
C547 C546 1.370 . S
C547 C548 1.403 . S
C548 C547 1.403 . S
C548 C549 1.404 . S
C548 C551 1.539 . S
C549 C545 1.408 . S
C549 C548 1.404 . S
C549 H561 0.930 . S
C550 C546 1.524 . S
C550 H562 0.956 . S
C550 H563 0.961 . S
C550 H564 0.961 . S
C551 C548 1.539 . S
C551 H565 0.958 . S
C551 H566 0.961 . S
C551 H567 0.960 . S
H552 C536 0.931 . S
H553 C541 0.929 . S
H554 C542 0.960 . S
H555 C542 0.962 . S
H556 C542 0.960 . S
H557 C543 0.961 . S
H558 C543 0.961 . S
H559 C543 0.961 . S
H560 C544 0.931 . S
H561 C549 0.930 . S
H562 C550 0.956 . S
H563 C550 0.961 . S
H564 C550 0.961 . S
H565 C551 0.958 . S
H566 C551 0.961 . S
H567 C551 0.960 . S
C568 C569 1.391 . S
C568 C570 1.394 . S
C568 H584 0.931 . S
C569 C568 1.391 . S
C569 C573 1.376 . S
C570 C568 1.394 . S
C570 C571 1.369 . S
C570 C574 1.531 . S
C571 C570 1.369 . S
C571 C572 1.410 . S
C571 C579 1.503 . S
C572 C571 1.410 . S
C572 C573 1.392 . S
C572 C575 1.511 . S
C573 C569 1.376 . S
C573 C572 1.392 . S
C573 H585 0.929 . S
C574 C570 1.531 . S
C574 H586 0.960 . S
C574 H587 0.962 . S
C574 H588 0.960 . S
C575 C572 1.511 . S
C575 H589 0.961 . S
C575 H590 0.961 . S
C575 H591 0.961 . S
C576 C577 1.370 . S
C576 C578 1.363 . S
C576 H592 0.931 . S
C577 C576 1.370 . S
C577 C581 1.408 . S
C578 C576 1.363 . S
C578 C579 1.370 . S
C578 C582 1.524 . S
C579 C571 1.503 . S
C579 C578 1.370 . S
C579 C580 1.403 . S
C580 C579 1.403 . S
C580 C581 1.404 . S
C580 C583 1.539 . S
C581 C577 1.408 . S
C581 C580 1.404 . S
C581 H593 0.930 . S
C582 C578 1.524 . S
C582 H594 0.956 . S
C582 H595 0.961 . S
C582 H596 0.961 . S
C583 C580 1.539 . S
C583 H597 0.958 . S
C583 H598 0.961 . S
C583 H599 0.960 . S
H584 C568 0.931 . S
H585 C573 0.929 . S
H586 C574 0.960 . S
H587 C574 0.962 . S
H588 C574 0.960 . S
H589 C575 0.961 . S
H590 C575 0.961 . S
H591 C575 0.961 . S
H592 C576 0.931 . S
H593 C581 0.930 . S
H594 C582 0.956 . S
H595 C582 0.961 . S
H596 C582 0.961 . S
H597 C583 0.958 . S
H598 C583 0.961 . S
H599 C583 0.960 . S
C600 C601 1.391 . S
C600 C602 1.394 . S
C600 H616 0.931 . S
C601 C600 1.391 . S
C601 C605 1.376 . S
C602 C600 1.394 . S
C602 C603 1.369 . S
C602 C606 1.531 . S
C603 C602 1.369 . S
C603 C604 1.410 . S
C603 C611 1.503 . S
C604 C603 1.410 . S
C604 C605 1.392 . S
C604 C607 1.511 . S
C605 C601 1.376 . S
C605 C604 1.392 . S
C605 H617 0.929 . S
C606 C602 1.531 . S
C606 H618 0.960 . S
C606 H619 0.962 . S
C606 H620 0.960 . S
C607 C604 1.511 . S
C607 H621 0.961 . S
C607 H622 0.961 . S
C607 H623 0.961 . S
C608 C609 1.370 . S
C608 C610 1.363 . S
C608 H624 0.931 . S
C609 C608 1.370 . S
C609 C613 1.408 . S
C610 C608 1.363 . S
C610 C611 1.370 . S
C610 C614 1.524 . S
C611 C603 1.503 . S
C611 C610 1.370 . S
C611 C612 1.403 . S
C612 C611 1.403 . S
C612 C613 1.404 . S
C612 C615 1.539 . S
C613 C609 1.408 . S
C613 C612 1.404 . S
C613 H625 0.930 . S
C614 C610 1.524 . S
C614 H626 0.956 . S
C614 H627 0.961 . S
C614 H628 0.961 . S
C615 C612 1.539 . S
C615 H629 0.958 . S
C615 H630 0.961 . S
C615 H631 0.960 . S
H616 C600 0.931 . S
H617 C605 0.929 . S
H618 C606 0.960 . S
H619 C606 0.962 . S
H620 C606 0.960 . S
H621 C607 0.961 . S
H622 C607 0.961 . S
H623 C607 0.961 . S
H624 C608 0.931 . S
H625 C613 0.930 . S
H626 C614 0.956 . S
H627 C614 0.961 . S
H628 C614 0.961 . S
H629 C615 0.958 . S
H630 C615 0.961 . S
H631 C615 0.960 . S
C632 C633 1.391 . S
C632 C634 1.394 . S
C632 H648 0.931 . S
C633 C632 1.391 . S
C633 C637 1.376 . S
C634 C632 1.394 . S
C634 C635 1.369 . S
C634 C638 1.531 . S
C635 C634 1.369 . S
C635 C636 1.410 . S
C635 C643 1.503 . S
C636 C635 1.410 . S
C636 C637 1.392 . S
C636 C639 1.511 . S
C637 C633 1.376 . S
C637 C636 1.392 . S
C637 H649 0.929 . S
C638 C634 1.531 . S
C638 H650 0.960 . S
C638 H651 0.962 . S
C638 H652 0.960 . S
C639 C636 1.511 . S
C639 H653 0.961 . S
C639 H654 0.961 . S
C639 H655 0.961 . S
C640 C641 1.370 . S
C640 C642 1.363 . S
C640 H656 0.931 . S
C641 C640 1.370 . S
C641 C645 1.408 . S
C642 C640 1.363 . S
C642 C643 1.370 . S
C642 C646 1.524 . S
C643 C635 1.503 . S
C643 C642 1.370 . S
C643 C644 1.403 . S
C644 C643 1.403 . S
C644 C645 1.404 . S
C644 C647 1.539 . S
C645 C641 1.408 . S
C645 C644 1.404 . S
C645 H657 0.930 . S
C646 C642 1.524 . S
C646 H658 0.956 . S
C646 H659 0.961 . S
C646 H660 0.961 . S
C647 C644 1.539 . S
C647 H661 0.958 . S
C647 H662 0.961 . S
C647 H663 0.960 . S
H648 C632 0.931 . S
H649 C637 0.929 . S
H650 C638 0.960 . S
H651 C638 0.962 . S
H652 C638 0.960 . S
H653 C639 0.961 . S
H654 C639 0.961 . S
H655 C639 0.961 . S
H656 C640 0.931 . S
H657 C645 0.930 . S
H658 C646 0.956 . S
H659 C646 0.961 . S
H660 C646 0.961 . S
H661 C647 0.958 . S
H662 C647 0.961 . S
H663 C647 0.960 . S
C664 C665 1.391 . S
C664 C666 1.394 . S
C664 H680 0.931 . S
C665 C664 1.391 . S
C665 C669 1.376 . S
C666 C664 1.394 . S
C666 C667 1.369 . S
C666 C670 1.531 . S
C667 C666 1.369 . S
C667 C668 1.410 . S
C667 C675 1.503 . S
C668 C667 1.410 . S
C668 C669 1.392 . S
C668 C671 1.511 . S
C669 C665 1.376 . S
C669 C668 1.392 . S
C669 H681 0.929 . S
C670 C666 1.531 . S
C670 H682 0.960 . S
C670 H683 0.962 . S
C670 H684 0.960 . S
C671 C668 1.511 . S
C671 H685 0.961 . S
C671 H686 0.961 . S
C671 H687 0.961 . S
C672 C673 1.370 . S
C672 C674 1.363 . S
C672 H688 0.931 . S
C673 C672 1.370 . S
C673 C677 1.408 . S
C674 C672 1.363 . S
C674 C675 1.370 . S
C674 C678 1.524 . S
C675 C667 1.503 . S
C675 C674 1.370 . S
C675 C676 1.403 . S
C676 C675 1.403 . S
C676 C677 1.404 . S
C676 C679 1.539 . S
C677 C673 1.408 . S
C677 C676 1.404 . S
C677 H689 0.930 . S
C678 C674 1.524 . S
C678 H690 0.956 . S
C678 H691 0.961 . S
C678 H692 0.961 . S
C679 C676 1.539 . S
C679 H693 0.958 . S
C679 H694 0.961 . S
C679 H695 0.960 . S
H680 C664 0.931 . S
H681 C669 0.929 . S
H682 C670 0.960 . S
H683 C670 0.962 . S
H684 C670 0.960 . S
H685 C671 0.961 . S
H686 C671 0.961 . S
H687 C671 0.961 . S
H688 C672 0.931 . S
H689 C677 0.930 . S
H690 C678 0.956 . S
H691 C678 0.961 . S
H692 C678 0.961 . S
H693 C679 0.958 . S
H694 C679 0.961 . S
H695 C679 0.960 . S
C696 C697 1.391 . S
C696 C698 1.394 . S
C696 H712 0.931 . S
C697 C696 1.391 . S
C697 C701 1.376 . S
C698 C696 1.394 . S
C698 C699 1.369 . S
C698 C702 1.531 . S
C699 C698 1.369 . S
C699 C700 1.410 . S
C699 C707 1.503 . S
C700 C699 1.410 . S
C700 C701 1.392 . S
C700 C703 1.511 . S
C701 C697 1.376 . S
C701 C700 1.392 . S
C701 H713 0.929 . S
C702 C698 1.531 . S
C702 H714 0.960 . S
C702 H715 0.962 . S
C702 H716 0.960 . S
C703 C700 1.511 . S
C703 H717 0.961 . S
C703 H718 0.961 . S
C703 H719 0.961 . S
C704 C705 1.370 . S
C704 C706 1.363 . S
C704 H720 0.931 . S
C705 C704 1.370 . S
C705 C709 1.408 . S
C706 C704 1.363 . S
C706 C707 1.370 . S
C706 C710 1.524 . S
C707 C699 1.503 . S
C707 C706 1.370 . S
C707 C708 1.403 . S
C708 C707 1.403 . S
C708 C709 1.404 . S
C708 C711 1.539 . S
C709 C705 1.408 . S
C709 C708 1.404 . S
C709 H721 0.930 . S
C710 C706 1.524 . S
C710 H722 0.956 . S
C710 H723 0.961 . S
C710 H724 0.961 . S
C711 C708 1.539 . S
C711 H725 0.958 . S
C711 H726 0.961 . S
C711 H727 0.960 . S
H712 C696 0.931 . S
H713 C701 0.929 . S
H714 C702 0.960 . S
H715 C702 0.962 . S
H716 C702 0.960 . S
H717 C703 0.961 . S
H718 C703 0.961 . S
H719 C703 0.961 . S
H720 C704 0.931 . S
H721 C709 0.930 . S
H722 C710 0.956 . S
H723 C710 0.961 . S
H724 C710 0.961 . S
H725 C711 0.958 . S
H726 C711 0.961 . S
H727 C711 0.960 . S
C728 C729 1.391 . S
C728 C730 1.394 . S
C728 H744 0.931 . S
C729 C728 1.391 . S
C729 C733 1.376 . S
C730 C728 1.394 . S
C730 C731 1.369 . S
C730 C734 1.531 1_455 S
C731 C730 1.369 . S
C731 C732 1.410 . S
C731 C739 1.503 1_455 S
C732 C731 1.410 . S
C732 C733 1.392 . S
C732 C735 1.511 . S
C733 C729 1.376 . S
C733 C732 1.392 . S
C733 H745 0.929 . S
C734 C730 1.531 1_655 S
C734 H746 0.960 . S
C734 H747 0.962 . S
C734 H748 0.960 . S
C735 C732 1.511 . S
C735 H749 0.961 . S
C735 H750 0.961 . S
C735 H751 0.961 . S
C736 C737 1.370 . S
C736 C738 1.363 . S
C736 H752 0.931 . S
C737 C736 1.370 . S
C737 C741 1.408 . S
C738 C736 1.363 . S
C738 C739 1.370 . S
C738 C742 1.524 . S
C739 C731 1.503 1_655 S
C739 C738 1.370 . S
C739 C740 1.403 . S
C740 C739 1.403 . S
C740 C741 1.404 . S
C740 C743 1.539 1_655 S
C741 C737 1.408 . S
C741 C740 1.404 . S
C741 H753 0.930 . S
C742 C738 1.524 . S
C742 H754 0.956 . S
C742 H755 0.961 . S
C742 H756 0.961 . S
C743 C740 1.539 1_455 S
C743 H757 0.954 1_455 S
C743 H758 0.961 . S
C743 H759 0.960 . S
H744 C728 0.931 . S
H745 C733 0.929 . S
H746 C734 0.960 . S
H747 C734 0.962 . S
H748 C734 0.960 . S
H749 C735 0.961 . S
H750 C735 0.961 . S
H751 C735 0.961 . S
H752 C736 0.931 . S
H753 C741 0.930 . S
H754 C742 0.956 . S
H755 C742 0.961 . S
H756 C742 0.961 . S
H757 C743 0.954 1_655 S
H758 C743 0.961 . S
H759 C743 0.960 . S
C760 C761 1.391 . S
C760 C762 1.394 . S
C760 H776 0.931 . S
C761 C760 1.391 . S
C761 C765 1.376 . S
C762 C760 1.394 . S
C762 C763 1.369 . S
C762 C766 1.531 . S
C763 C762 1.369 . S
C763 C764 1.410 . S
C763 C771 1.503 . S
C764 C763 1.410 . S
C764 C765 1.392 . S
C764 C767 1.511 . S
C765 C761 1.376 . S
C765 C764 1.392 . S
C765 H777 0.929 . S
C766 C762 1.531 . S
C766 H778 0.960 . S
C766 H779 0.962 . S
C766 H780 0.960 . S
C767 C764 1.511 . S
C767 H781 0.961 . S
C767 H782 0.961 . S
C767 H783 0.961 . S
C768 C769 1.370 . S
C768 C770 1.363 . S
C768 H784 0.931 . S
C769 C768 1.370 . S
C769 C773 1.408 . S
C770 C768 1.363 . S
C770 C771 1.370 . S
C770 C774 1.524 . S
C771 C763 1.503 . S
C771 C770 1.370 . S
C771 C772 1.403 . S
C772 C771 1.403 . S
C772 C773 1.404 . S
C772 C775 1.539 . S
C773 C769 1.408 . S
C773 C772 1.404 . S
C773 H785 0.930 . S
C774 C770 1.524 . S
C774 H786 0.956 . S
C774 H787 0.961 . S
C774 H788 0.961 . S
C775 C772 1.539 . S
C775 H789 0.958 . S
C775 H790 0.961 . S
C775 H791 0.960 . S
H776 C760 0.931 . S
H777 C765 0.929 . S
H778 C766 0.960 . S
H779 C766 0.962 . S
H780 C766 0.960 . S
H781 C767 0.961 . S
H782 C767 0.961 . S
H783 C767 0.961 . S
H784 C768 0.931 . S
H785 C773 0.930 . S
H786 C774 0.956 . S
H787 C774 0.961 . S
H788 C774 0.961 . S
H789 C775 0.958 . S
H790 C775 0.961 . S
H791 C775 0.960 . S
C792 C793 1.391 . S
C792 C794 1.394 . S
C792 H808 0.931 . S
C793 C792 1.391 . S
C793 C797 1.376 . S
C794 C792 1.394 . S
C794 C795 1.369 . S
C794 C798 1.531 . S
C795 C794 1.369 . S
C795 C796 1.410 . S
C795 C803 1.503 1_455 S
C796 C795 1.410 . S
C796 C797 1.392 . S
C796 C799 1.511 . S
C797 C793 1.376 . S
C797 C796 1.392 . S
C797 H809 0.929 . S
C798 C794 1.531 . S
C798 H810 0.960 1_455 S
C798 H811 0.962 . S
C798 H812 0.960 . S
C799 C796 1.511 . S
C799 H813 0.961 . S
C799 H814 0.961 . S
C799 H815 0.961 1_455 S
C800 C801 1.370 . S
C800 C802 1.363 . S
C800 H816 0.931 . S
C801 C800 1.370 . S
C801 C805 1.408 . S
C802 C800 1.363 . S
C802 C803 1.370 . S
C802 C806 1.524 1_655 S
C803 C795 1.503 1_655 S
C803 C802 1.370 . S
C803 C804 1.403 . S
C804 C803 1.403 . S
C804 C805 1.404 . S
C804 C807 1.539 . S
C805 C801 1.408 . S
C805 C804 1.404 . S
C805 H817 0.930 . S
C806 C802 1.524 1_455 S
C806 H818 0.956 . S
C806 H819 0.961 . S
C806 H820 0.961 . S
C807 C804 1.539 . S
C807 H821 0.958 . S
C807 H822 0.961 . S
C807 H823 0.960 . S
H808 C792 0.931 . S
H809 C797 0.929 . S
H810 C798 0.960 1_655 S
H811 C798 0.962 . S
H812 C798 0.960 . S
H813 C799 0.961 . S
H814 C799 0.961 . S
H815 C799 0.961 1_655 S
H816 C800 0.931 . S
H817 C805 0.930 . S
H818 C806 0.956 . S
H819 C806 0.961 . S
H820 C806 0.961 . S
H821 C807 0.958 . S
H822 C807 0.961 . S
H823 C807 0.960 . S
C824 C825 1.391 . S
C824 C826 1.394 . S
C824 H840 0.931 . S
C825 C824 1.391 . S
C825 C829 1.376 . S
C826 C824 1.394 . S
C826 C827 1.369 . S
C826 C830 1.531 . S
C827 C826 1.369 . S
C827 C828 1.410 . S
C827 C835 1.503 . S
C828 C827 1.410 . S
C828 C829 1.392 . S
C828 C831 1.511 . S
C829 C825 1.376 . S
C829 C828 1.392 . S
C829 H841 0.929 . S
C830 C826 1.531 . S
C830 H842 0.960 . S
C830 H843 0.962 . S
C830 H844 0.960 . S
C831 C828 1.511 . S
C831 H845 0.961 . S
C831 H846 0.961 . S
C831 H847 0.961 . S
C832 C833 1.370 . S
C832 C834 1.363 . S
C832 H848 0.931 . S
C833 C832 1.370 . S
C833 C837 1.408 . S
C834 C832 1.363 . S
C834 C835 1.370 . S
C834 C838 1.524 . S
C835 C827 1.503 . S
C835 C834 1.370 . S
C835 C836 1.403 . S
C836 C835 1.403 . S
C836 C837 1.404 . S
C836 C839 1.539 . S
C837 C833 1.408 . S
C837 C836 1.404 . S
C837 H849 0.930 . S
C838 C834 1.524 . S
C838 H850 0.956 . S
C838 H851 0.961 . S
C838 H852 0.961 . S
C839 C836 1.539 . S
C839 H853 0.958 . S
C839 H854 0.961 . S
C839 H855 0.960 . S
H840 C824 0.931 . S
H841 C829 0.929 . S
H842 C830 0.960 . S
H843 C830 0.962 . S
H844 C830 0.960 . S
H845 C831 0.961 . S
H846 C831 0.961 . S
H847 C831 0.961 . S
H848 C832 0.931 . S
H849 C837 0.930 . S
H850 C838 0.956 . S
H851 C838 0.961 . S
H852 C838 0.961 . S
H853 C839 0.958 . S
H854 C839 0.961 . S
H855 C839 0.960 . S
C856 C857 1.391 . S
C856 C858 1.394 1_545 S
C856 H872 0.931 . S
C857 C856 1.391 . S
C857 C861 1.376 . S
C858 C856 1.394 1_565 S
C858 C859 1.369 1_565 S
C858 C862 1.531 . S
C859 C858 1.369 1_545 S
C859 C860 1.410 . S
C859 C867 1.503 1_444 S
C860 C859 1.410 . S
C860 C861 1.392 . S
C860 C863 1.511 1_455 S
C861 C857 1.376 . S
C861 C860 1.392 . S
C861 H873 0.929 . S
C862 C858 1.531 . S
C862 H874 0.960 . S
C862 H875 0.962 . S
C862 H876 0.960 . S
C863 C860 1.511 1_655 S
C863 H877 0.961 1_554 S
C863 H878 0.961 1_554 S
C863 H879 0.961 . S
C864 C865 1.370 . S
C864 C866 1.363 . S
C864 H880 0.931 . S
C865 C864 1.370 . S
C865 C869 1.408 1_556 S
C866 C864 1.363 . S
C866 C867 1.371 . S
C866 C870 1.524 1_655 S
C867 C859 1.503 1_666 S
C867 C866 1.371 . S
C867 C868 1.402 1_556 S
C868 C867 1.402 1_554 S
C868 C869 1.404 . S
C868 C871 1.539 . S
C869 C865 1.408 1_554 S
C869 C868 1.404 . S
C869 H881 0.930 . S
C870 C866 1.524 1_455 S
C870 H882 0.956 . S
C870 H883 0.961 1_565 S
C870 H884 0.961 . S
C871 C868 1.539 . S
C871 H885 0.958 . S
C871 H886 0.961 . S
C871 H887 0.960 1_565 S
H872 C856 0.931 . S
H873 C861 0.929 . S
H874 C862 0.960 . S
H875 C862 0.962 . S
H876 C862 0.960 . S
H877 C863 0.961 1_556 S
H878 C863 0.961 1_556 S
H879 C863 0.961 . S
H880 C864 0.931 . S
H881 C869 0.930 . S
H882 C870 0.956 . S
H883 C870 0.961 1_545 S
H884 C870 0.961 . S
H885 C871 0.958 . S
H886 C871 0.961 . S
H887 C871 0.960 1_545 S
C888 C889 1.391 . S
C888 C890 1.394 . S
C888 H904 0.931 . S
C889 C888 1.391 . S
C889 C893 1.376 . S
C890 C888 1.394 . S
C890 C891 1.369 . S
C890 C894 1.531 . S
C891 C890 1.369 . S
C891 C892 1.410 . S
C891 C899 1.503 . S
C892 C891 1.410 . S
C892 C893 1.392 . S
C892 C895 1.511 . S
C893 C889 1.376 . S
C893 C892 1.392 . S
C893 H905 0.929 . S
C894 C890 1.531 . S
C894 H906 0.960 . S
C894 H907 0.962 . S
C894 H908 0.960 . S
C895 C892 1.511 . S
C895 H909 0.961 . S
C895 H910 0.961 . S
C895 H911 0.961 . S
C896 C897 1.370 . S
C896 C898 1.363 . S
C896 H912 0.931 . S
C897 C896 1.370 . S
C897 C901 1.408 . S
C898 C896 1.363 . S
C898 C899 1.370 . S
C898 C902 1.524 . S
C899 C891 1.503 . S
C899 C898 1.370 . S
C899 C900 1.403 . S
C900 C899 1.403 . S
C900 C901 1.404 . S
C900 C903 1.539 . S
C901 C897 1.408 . S
C901 C900 1.404 . S
C901 H913 0.930 . S
C902 C898 1.524 . S
C902 H914 0.956 . S
C902 H915 0.961 . S
C902 H916 0.961 . S
C903 C900 1.539 . S
C903 H917 0.958 . S
C903 H918 0.961 . S
C903 H919 0.960 . S
H904 C888 0.931 . S
H905 C893 0.929 . S
H906 C894 0.960 . S
H907 C894 0.962 . S
H908 C894 0.960 . S
H909 C895 0.961 . S
H910 C895 0.961 . S
H911 C895 0.961 . S
H912 C896 0.931 . S
H913 C901 0.930 . S
H914 C902 0.956 . S
H915 C902 0.961 . S
H916 C902 0.961 . S
H917 C903 0.958 . S
H918 C903 0.961 . S
H919 C903 0.960 . S
C920 C921 1.391 . S
C920 C922 1.394 . S
C920 H936 0.931 . S
C921 C920 1.391 . S
C921 C925 1.376 . S
C922 C920 1.394 . S
C922 C923 1.369 . S
C922 C926 1.531 . S
C923 C922 1.369 . S
C923 C924 1.410 . S
C923 C931 1.503 1_554 S
C924 C923 1.410 . S
C924 C925 1.392 . S
C924 C927 1.511 1_554 S
C925 C921 1.376 . S
C925 C924 1.392 . S
C925 H937 0.929 . S
C926 C922 1.531 . S
C926 H938 0.960 . S
C926 H939 0.962 . S
C926 H940 0.960 . S
C927 C924 1.511 1_556 S
C927 H941 0.961 . S
C927 H942 0.961 . S
C927 H943 0.961 1_556 S
C928 C929 1.370 . S
C928 C930 1.363 . S
C928 H944 0.931 . S
C929 C928 1.370 . S
C929 C933 1.408 1_556 S
C930 C928 1.363 . S
C930 C931 1.370 . S
C930 C934 1.524 . S
C931 C923 1.503 1_556 S
C931 C930 1.370 . S
C931 C932 1.403 1_556 S
C932 C931 1.403 1_554 S
C932 C933 1.404 . S
C932 C935 1.539 . S
C933 C929 1.408 1_554 S
C933 C932 1.404 . S
C933 H945 0.930 . S
C934 C930 1.524 . S
C934 H946 0.956 . S
C934 H947 0.961 . S
C934 H948 0.961 . S
C935 C932 1.539 . S
C935 H949 0.958 . S
C935 H950 0.961 . S
C935 H951 0.960 . S
H936 C920 0.931 . S
H937 C925 0.929 . S
H938 C926 0.960 . S
H939 C926 0.962 . S
H940 C926 0.960 . S
H941 C927 0.961 . S
H942 C927 0.961 . S
H943 C927 0.961 1_554 S
H944 C928 0.931 . S
H945 C933 0.930 . S
H946 C934 0.956 . S
H947 C934 0.961 . S
H948 C934 0.961 . S
H949 C935 0.958 . S
H950 C935 0.961 . S
H951 C935 0.960 . S
C952 C953 1.391 . S
C952 C954 1.394 . S
C952 H968 0.931 . S
C953 C952 1.391 . S
C953 C957 1.376 . S
C954 C952 1.394 . S
C954 C955 1.369 . S
C954 C958 1.531 . S
C955 C954 1.369 . S
C955 C956 1.410 . S
C955 C963 1.503 1_465 S
C956 C955 1.410 . S
C956 C957 1.392 . S
C956 C959 1.511 1_455 S
C957 C953 1.376 . S
C957 C956 1.392 . S
C957 H969 0.929 . S
C958 C954 1.531 . S
C958 H970 0.960 . S
C958 H971 0.962 1_565 S
C958 H972 0.960 . S
C959 C956 1.511 1_655 S
C959 H973 0.961 . S
C959 H974 0.961 . S
C959 H975 0.961 . S
C960 C961 1.370 . S
C960 C962 1.363 . S
C960 H976 0.931 . S
C961 C960 1.370 . S
C961 C965 1.408 . S
C962 C960 1.363 . S
C962 C963 1.370 . S
C962 C966 1.524 1_655 S
C963 C955 1.503 1_645 S
C963 C962 1.370 . S
C963 C964 1.403 1_545 S
C964 C963 1.403 1_565 S
C964 C965 1.404 1_565 S
C964 C967 1.539 . S
C965 C961 1.408 . S
C965 C964 1.404 1_545 S
C965 H977 0.930 . S
C966 C962 1.524 1_455 S
C966 H978 0.956 . S
C966 H979 0.961 . S
C966 H980 0.961 . S
C967 C964 1.539 . S
C967 H981 0.958 . S
C967 H982 0.961 . S
C967 H983 0.960 . S
H968 C952 0.931 . S
H969 C957 0.929 . S
H970 C958 0.960 . S
H971 C958 0.962 1_545 S
H972 C958 0.960 . S
H973 C959 0.961 . S
H974 C959 0.961 . S
H975 C959 0.961 . S
H976 C960 0.931 . S
H977 C965 0.930 . S
H978 C966 0.956 . S
H979 C966 0.961 . S
H980 C966 0.961 . S
H981 C967 0.958 . S
H982 C967 0.961 . S
H983 C967 0.960 . S
C473 C64 1.623 . S
C481 C3 1.607 . S
C505 C5 1.617 . S
C513 C62 1.600 . S
C537 C182 1.628 . S
C545 C121 1.613 . S
C569 C123 1.621 . S
C577 C180 1.593 . S
C601 C241 1.571 1_554 S
C609 C298 1.614 . S
C633 C300 1.583 . S
C641 C239 1.614 . S
C665 C359 1.609 1_556 S
C673 C416 1.617 . S
C697 C357 1.605 . S
C705 C418 1.599 . S
C729 C33 0.686 . S
C737 C210 0.720 . S
C761 C92 0.742 . S
C769 C151 0.725 . S
C793 C465 0.760 . S
C801 C288 0.736 . S
C825 C406 0.757 . S
C833 C347 0.735 . S
C857 C52 1.523 . S
C865 C269 1.531 . S
C889 C328 1.510 . S
C897 C111 1.537 . S
C921 C387 1.520 . S
C929 C170 1.535 . S
C953 C446 1.516 . S
C961 C229 1.536 . S
