# Generated by pormake.
# Topology wji, (4)-cn, num edge types: 1
# Building blocks:
#     Node 0, Type 0, BuildingBlock: CEKHIL_clean_sbu_0, # of connection points: 4
#     Node 1, Type 0, BuildingBlock: CEKHIL_clean_sbu_0, # of connection points: 4
#     Node 2, Type 0, BuildingBlock: CEKHIL_clean_sbu_0, # of connection points: 4
#     Node 3, Type 0, BuildingBlock: CEKHIL_clean_sbu_0, # of connection points: 4
#     Node 4, Type 0, BuildingBlock: CEKHIL_clean_sbu_0, # of connection points: 4
#     Node 5, Type 0, BuildingBlock: CEKHIL_clean_sbu_0, # of connection points: 4
#     Node 6, Type 0, BuildingBlock: CEKHIL_clean_sbu_0, # of connection points: 4
#     Node 7, Type 0, BuildingBlock: CEKHIL_clean_sbu_0, # of connection points: 4
#     Node 8, Type 0, BuildingBlock: CEKHIL_clean_sbu_0, # of connection points: 4
#     Node 9, Type 0, BuildingBlock: CEKHIL_clean_sbu_0, # of connection points: 4
#     Node 10, Type 0, BuildingBlock: CEKHIL_clean_sbu_0, # of connection points: 4
#     Node 11, Type 0, BuildingBlock: CEKHIL_clean_sbu_0, # of connection points: 4
#     Edge 12, Type (0, 0), BuildingBlock: OJICUG_clean_linker_0, # of connection points: 2
#     Edge 13, Type (0, 0), BuildingBlock: OJICUG_clean_linker_0, # of connection points: 2
#     Edge 14, Type (0, 0), BuildingBlock: OJICUG_clean_linker_0, # of connection points: 2
#     Edge 15, Type (0, 0), BuildingBlock: OJICUG_clean_linker_0, # of connection points: 2
#     Edge 16, Type (0, 0), BuildingBlock: OJICUG_clean_linker_0, # of connection points: 2
#     Edge 17, Type (0, 0), BuildingBlock: OJICUG_clean_linker_0, # of connection points: 2
#     Edge 18, Type (0, 0), BuildingBlock: OJICUG_clean_linker_0, # of connection points: 2
#     Edge 19, Type (0, 0), BuildingBlock: OJICUG_clean_linker_0, # of connection points: 2
#     Edge 20, Type (0, 0), BuildingBlock: OJICUG_clean_linker_0, # of connection points: 2
#     Edge 21, Type (0, 0), BuildingBlock: OJICUG_clean_linker_0, # of connection points: 2
#     Edge 22, Type (0, 0), BuildingBlock: OJICUG_clean_linker_0, # of connection points: 2
#     Edge 23, Type (0, 0), BuildingBlock: OJICUG_clean_linker_0, # of connection points: 2
#     Edge 24, Type (0, 0), BuildingBlock: OJICUG_clean_linker_0, # of connection points: 2
#     Edge 25, Type (0, 0), BuildingBlock: OJICUG_clean_linker_0, # of connection points: 2
#     Edge 26, Type (0, 0), BuildingBlock: OJICUG_clean_linker_0, # of connection points: 2
#     Edge 27, Type (0, 0), BuildingBlock: OJICUG_clean_linker_0, # of connection points: 2
#     Edge 28, Type (0, 0), BuildingBlock: OJICUG_clean_linker_0, # of connection points: 2
#     Edge 29, Type (0, 0), BuildingBlock: OJICUG_clean_linker_0, # of connection points: 2
#     Edge 30, Type (0, 0), BuildingBlock: OJICUG_clean_linker_0, # of connection points: 2
#     Edge 31, Type (0, 0), BuildingBlock: OJICUG_clean_linker_0, # of connection points: 2
#     Edge 32, Type (0, 0), BuildingBlock: OJICUG_clean_linker_0, # of connection points: 2
#     Edge 33, Type (0, 0), BuildingBlock: OJICUG_clean_linker_0, # of connection points: 2
#     Edge 34, Type (0, 0), BuildingBlock: OJICUG_clean_linker_0, # of connection points: 2
#     Edge 35, Type (0, 0), BuildingBlock: OJICUG_clean_linker_0, # of connection points: 2
# Relax obj value: 0.212
# Max RMSD: 0.138
# Mean RMSD: 0.138
data_MOF--net-wji--node1-CEKHIL_clean_sbu_0--edge1-OJICUG_clean_linker_0
_symmetry_space_group_name_H-M    P1
_symmetry_Int_Tables_number       1
_symmetry_cell_setting            triclinic
loop_
_symmetry_equiv_pos_as_xyz
'x, y, z'
_cell_length_a     40.948712
_cell_length_b     41.000667
_cell_length_c     16.760445
_cell_angle_alpha  89.971807
_cell_angle_beta   90.009456
_cell_angle_gamma 119.98213
loop_
_atom_site_label
_atom_site_type_symbol
_atom_site_fract_x
_atom_site_fract_y
_atom_site_fract_z
_atom_type_partial_charge
Co0 Co 0.43502 0.33257 0.44581 0.0
O1 O 0.44797 0.31249 0.53734 0.0
O2 O 0.41809 0.27898 0.43151 0.0
C3 C 0.49222 0.38568 0.43512 0.0
O4 O 0.41706 0.34537 0.34037 0.0
Co5 Co 0.43704 0.40968 0.46671 0.0
O6 O 0.42069 0.402 0.35499 0.0
C7 C 0.3725 0.33892 0.52785 0.0
C8 C 0.43179 0.28004 0.50236 0.0
C9 C 0.41232 0.37262 0.31444 0.0
O10 O 0.38573 0.31905 0.49832 0.0
O11 O 0.38987 0.37494 0.52569 0.0
O12 O 0.48658 0.35427 0.40398 0.0
O13 O 0.46464 0.38319 0.4768 0.0
Co14 Co 0.11115 0.43379 0.61392 0.0
O15 O 0.14479 0.44774 0.70454 0.0
O16 O 0.1477 0.4166 0.60027 0.0
C17 C 0.11504 0.49077 0.60026 0.0
O18 O 0.07964 0.41465 0.50972 0.0
Co19 Co 0.03611 0.43594 0.6359 0.0
O20 O 0.02657 0.41822 0.52512 0.0
C21 C 0.04274 0.37191 0.69854 0.0
C22 C 0.16076 0.43103 0.67042 0.0
C23 C 0.04734 0.40947 0.48457 0.0
O24 O 0.07582 0.38513 0.66882 0.0
O25 O 0.02386 0.38908 0.69588 0.0
O26 O 0.14065 0.48478 0.56932 0.0
O27 O 0.0903 0.46375 0.64363 0.0
Co28 Co 0.68775 0.1064 0.77982 0.0
O29 O 0.70699 0.14065 0.86941 0.0
O30 O 0.74155 0.14285 0.76656 0.0
C31 C 0.63465 0.11005 0.76279 0.0
O32 O 0.67571 0.07401 0.67719 0.0
Co33 Co 0.61045 0.03164 0.80382 0.0
O34 O 0.61902 0.02122 0.69399 0.0
C35 C 0.68116 0.0388 0.86802 0.0
C36 C 0.73983 0.15634 0.83594 0.0
C37 C 0.64861 0.04151 0.65321 0.0
O38 O 0.70099 0.07161 0.83733 0.0
O39 O 0.6451 0.01989 0.86528 0.0
O40 O 0.66643 0.13549 0.73223 0.0
O41 O 0.63679 0.08582 0.80818 0.0
Co42 Co 0.58875 0.682 0.94776 0.0
O43 O 0.57287 0.70221 0.03383 0.0
O44 O 0.60611 0.73564 0.9307 0.0
C45 C 0.53209 0.62886 0.93242 0.0
O46 O 0.60998 0.66885 0.84798 0.0
Co47 Co 0.58612 0.6055 0.97713 0.0
O48 O 0.60483 0.61187 0.86722 0.0
C49 C 0.64936 0.67652 0.04025 0.0
C50 C 0.59041 0.73466 -0.00089 0.0
C51 C 0.6148 0.64124 0.82529 0.0
O52 O 0.63629 0.69606 0.00841 0.0
O53 O 0.63245 0.64052 0.03806 0.0
O54 O 0.53898 0.65982 0.89689 0.0
O55 O 0.55795 0.63164 0.98032 0.0
Co56 Co 0.91518 0.58475 0.11749 0.0
O57 O 0.87757 0.56859 0.20066 0.0
O58 O 0.87971 0.60275 0.09688 0.0
C59 C 0.91148 0.52806 0.1024 0.0
O60 O 0.95108 0.60625 0.02003 0.0
Co61 Co 0.98834 0.58151 0.15161 0.0
O62 O 1.00209 0.59989 0.04169 0.0
C63 C 0.98004 0.64451 0.21406 0.0
C64 C 0.86358 0.58651 0.1639 0.0
C65 C 0.98346 0.61045 0.99865 0.0
O66 O 0.94787 0.63177 0.18025 0.0
O67 O 0.99911 0.62754 0.21308 0.0
O68 O 0.88815 0.53547 0.06502 0.0
O69 O 0.93394 0.55345 0.15186 0.0
Co70 Co 0.33955 0.91191 0.28229 0.0
O71 O 0.31827 0.87844 0.37253 0.0
O72 O 0.28594 0.87534 0.26497 0.0
C73 C 0.39259 0.90758 0.27412 0.0
O74 O 0.35458 0.9435 0.17764 0.0
Co75 Co 0.4163 0.98649 0.31088 0.0
O76 O 0.41464 0.99094 0.19466 0.0
C77 C 0.34468 0.97969 0.36716 0.0
C78 C 0.28621 0.86236 0.33595 0.0
C79 C 0.38538 0.97245 0.15176 0.0
O80 O 0.32539 0.94729 0.33431 0.0
O81 O 0.38076 0.99833 0.36831 0.0
O82 O 0.36142 0.88216 0.24145 0.0
O83 O 0.3897 0.93228 0.31647 0.0
Co84 Co 0.68568 0.58258 0.38545 0.0
O85 O 0.70415 0.56691 0.29568 0.0
O86 O 0.73968 0.60007 0.39648 0.0
C87 C 0.63257 0.52595 0.40298 0.0
O88 O 0.67447 0.60323 0.48877 0.0
Co89 Co 0.60844 0.58049 0.3647 0.0
O90 O 0.61754 0.59916 0.47478 0.0
C91 C 0.67873 0.64392 0.29921 0.0
C92 C 0.73732 0.58421 0.32758 0.0
C93 C 0.64747 0.60848 0.51431 0.0
O94 O 0.69863 0.63051 0.32778 0.0
O95 O 0.64273 0.62713 0.30376 0.0
O96 O 0.6644 0.53218 0.43319 0.0
O97 O 0.63461 0.55246 0.35825 0.0
Co98 Co 0.11114 0.68419 0.55463 0.0
O99 O 0.14407 0.70402 0.46286 0.0
O100 O 0.1477 0.73786 0.56809 0.0
C101 C 0.11532 0.63118 0.5667 0.0
O102 O 0.08063 0.67182 0.66022 0.0
Co103 Co 0.03606 0.60683 0.53529 0.0
O104 O 0.02763 0.61504 0.64682 0.0
C105 C 0.04189 0.6772 0.4728 0.0
C106 C 0.16031 0.7366 0.49735 0.0
C107 C 0.04874 0.64464 0.68672 0.0
O108 O 0.07513 0.6973 0.50169 0.0
O109 O 0.02329 0.64119 0.47586 0.0
O110 O 0.14116 0.66277 0.59709 0.0
O111 O 0.09015 0.63343 0.52478 0.0
Co112 Co 0.43672 0.10468 0.71408 0.0
O113 O 0.44895 0.1388 0.62513 0.0
O114 O 0.41919 0.14079 0.73279 0.0
C115 C 0.49433 0.10953 0.72196 0.0
O116 O 0.42003 0.07198 0.81736 0.0
Co117 Co 0.43984 0.03093 0.68094 0.0
O118 O 0.43407 0.02577 0.79715 0.0
C119 C 0.37445 0.0373 0.62713 0.0
C120 C 0.43257 0.15432 0.66217 0.0
C121 C 0.42268 0.04324 0.84163 0.0
O122 O 0.3874 0.06946 0.66098 0.0
O123 O 0.39214 0.01893 0.62464 0.0
O124 O 0.48824 0.13446 0.75588 0.0
O125 O 0.46698 0.08514 0.67868 0.0
Co126 Co 0.33943 0.43197 0.88047 0.0
O127 O 0.31867 0.44773 0.79524 0.0
O128 O 0.28585 0.41471 0.89921 0.0
C129 C 0.39267 0.48862 0.89474 0.0
O130 O 0.3533 0.41093 0.97964 0.0
Co131 Co 0.41559 0.43435 0.84841 0.0
O132 O 0.4104 0.41646 0.95886 0.0
C133 C 0.34412 0.37129 0.78669 0.0
C134 C 0.28644 0.43033 0.83094 0.0
C135 C 0.3813 0.40647 0.00168 0.0
O136 O 0.32487 0.38441 0.81973 0.0
O137 O 0.38016 0.38809 0.78767 0.0
O138 O 0.36185 0.48164 0.93117 0.0
O139 O 0.38966 0.46278 0.84652 0.0
Co140 Co 0.91543 0.33531 0.04991 0.0
O141 O 0.87945 0.31486 0.96366 0.0
O142 O 0.87921 0.28165 0.06727 0.0
C143 C 0.91169 0.38838 0.06439 0.0
O144 O 0.94974 0.34881 0.14998 0.0
Co145 Co 0.98925 0.41177 0.02003 0.0
O146 O 1.0015 0.40584 0.13033 0.0
C147 C 0.98156 0.34072 0.95765 0.0
C148 C 0.86457 0.28247 0.99862 0.0
C149 C 0.98212 0.37659 0.17262 0.0
O150 O 0.94903 0.32123 0.98989 0.0
O151 O 1.0006 0.37673 0.95928 0.0
O152 O 0.88767 0.35742 0.10004 0.0
O153 O 0.9349 0.38558 0.01686 0.0
Co154 Co 0.5892 0.91067 0.2168 0.0
O155 O 0.57405 0.87621 0.12756 0.0
O156 O 0.60648 0.8742 0.23049 0.0
C157 C 0.5325 0.90717 0.23378 0.0
O158 O 0.60975 0.94327 0.31911 0.0
Co159 Co 0.5869 0.98547 0.19213 0.0
O160 O 0.60602 0.9961 0.30186 0.0
C161 C 0.65031 0.97804 0.12817 0.0
C162 C 0.59121 0.86058 0.16121 0.0
C163 C 0.6153 0.97585 0.34282 0.0
O164 O 0.63722 0.94526 0.15902 0.0
O165 O 0.63327 0.99705 0.13074 0.0
O166 O 0.53881 0.88177 0.26463 0.0
O167 O 0.55887 0.93127 0.18818 0.0
C168 C 0.36504 0.39578 0.14786 0.0
C169 C 0.3815 0.3898 0.08042 0.0
H170 H 0.36177 0.39438 0.27544 0.0
C171 C 0.40286 0.37158 0.09024 0.0
H172 H 0.34848 0.40962 0.14249 0.0
C173 C 0.4102 0.36243 0.16628 0.0
C174 C 0.39666 0.37171 0.23409 0.0
H175 H 0.41558 0.36608 0.03913 0.0
H176 H 0.42876 0.35085 0.17214 0.0
C177 C 0.37278 0.38708 0.22391 0.0
C178 C 0.99263 0.37022 0.3954 0.0
C179 C 0.03207 0.39303 0.405 0.0
H180 H 0.94566 0.34638 0.3143 0.0
C181 C 0.05488 0.4046 0.33694 0.0
H182 H 0.97429 0.36061 0.4471 0.0
C183 C 0.03833 0.39664 0.26096 0.0
C184 C 0.9987 0.37658 0.25152 0.0
H185 H 0.08518 0.4222 0.34232 0.0
H186 H 0.0566 0.408 0.20943 0.0
C187 C 0.9761 0.36186 0.31943 0.0
C188 C 0.62325 0.96934 0.48964 0.0
C189 C 0.63249 0.99192 0.42145 0.0
H190 H 0.6218 0.96783 0.61725 0.0
C191 C 0.65371 0.03149 0.43042 0.0
H192 H 0.60701 0.93895 0.48479 0.0
C193 C 0.66239 0.04818 0.50615 0.0
C194 C 0.64966 0.02558 0.5744 0.0
H195 H 0.66168 0.04969 0.37859 0.0
H196 H 0.67628 0.07856 0.51104 0.0
C197 C 0.6316 0.98603 0.56538 0.0
C198 C 0.63247 0.6482 0.60288 0.0
C199 C 0.64909 0.62539 0.5935 0.0
H200 H 0.60907 0.67184 0.6837 0.0
C201 C 0.66027 0.61383 0.66167 0.0
H202 H 0.62376 0.65776 0.55107 0.0
C203 C 0.65151 0.62169 0.73753 0.0
C204 C 0.6318 0.64161 0.74673 0.0
H205 H 0.67293 0.5962 0.65644 0.0
H206 H 0.65829 0.61027 0.78914 0.0
C207 C 0.62411 0.65644 0.67875 0.0
C208 C 0.05692 0.65415 0.83486 0.0
C209 C 0.03423 0.64587 0.76702 0.0
H210 H 0.05836 0.64948 0.96183 0.0
C211 C 0.99511 0.63136 0.77709 0.0
H212 H 0.08696 0.66502 0.829 0.0
C213 C 0.97856 0.62247 0.85301 0.0
C214 C 1.00078 0.62737 0.92037 0.0
H215 H 0.97692 0.62479 0.7255 0.0
H216 H 0.94821 0.60928 0.85823 0.0
C217 C 0.04032 0.6448 0.91076 0.0
C218 C 0.43408 0.01336 0.95815 0.0
C219 C 0.41256 0.0278 0.92391 0.0
H220 H 0.44097 0.98303 0.05385 0.0
C221 C 0.37924 0.02102 0.96289 0.0
H222 H 0.45973 0.01774 0.92966 0.0
C223 C 0.36806 1.00025 0.03497 0.0
C224 C 0.38996 0.98592 0.06827 0.0
H225 H 0.36163 0.03104 0.93705 0.0
H226 H 0.34316 0.99649 0.06578 0.0
C227 C 0.42295 0.99278 0.02868 0.0
C228 C 0.59668 0.45591 0.41878 0.0
C229 C 0.59685 0.49019 0.41418 0.0
H230 H 0.56309 0.39565 0.42624 0.0
C231 C 0.56239 0.48986 0.41616 0.0
H232 H 0.62288 0.45543 0.41667 0.0
C233 C 0.52837 0.45586 0.42371 0.0
C234 C 0.52812 0.4215 0.42646 0.0
H235 H 0.56178 0.51593 0.41261 0.0
H236 H 0.50221 0.4564 0.42599 0.0
C237 C 0.56254 0.42178 0.4235 0.0
C238 C 0.14929 0.56085 0.58475 0.0
C239 C 0.11512 0.52661 0.59012 0.0
H240 H 0.1761 0.62107 0.57589 0.0
C241 C 0.08104 0.52705 0.5887 0.0
H242 H 0.17594 0.56126 0.58635 0.0
C243 C 0.08112 0.56107 0.58057 0.0
C244 C 0.11529 0.59537 0.57667 0.0
H245 H 0.05432 0.50103 0.59278 0.0
H246 H 0.05445 0.5606 0.5785 0.0
C247 C 0.14939 0.59501 0.57946 0.0
C248 C 0.56432 0.14363 0.73874 0.0
C249 C 0.53018 0.10949 0.73149 0.0
H250 H 0.62444 0.1705 0.75155 0.0
C251 C 0.53071 0.0755 0.73282 0.0
H252 H 0.56466 0.17022 0.73739 0.0
C253 C 0.56471 0.07563 0.74347 0.0
C254 C 0.59888 0.1098 0.74975 0.0
H255 H 0.50479 0.0488 0.72727 0.0
H256 H 0.56434 0.04905 0.74587 0.0
C257 C 0.59846 0.14381 0.74631 0.0
C258 C 0.48312 0.57849 0.84601 0.0
C259 C 0.49639 0.59316 0.9223 0.0
H260 H 0.44014 0.53282 0.77786 0.0
C261 C 0.47546 0.57325 0.9896 0.0
H262 H 0.49897 0.59335 0.79341 0.0
C263 C 0.44127 0.5395 0.9807 0.0
C264 C 0.42836 0.52442 0.90451 0.0
H265 H 0.48526 0.58416 0.04903 0.0
H266 H 0.42528 0.52484 0.03332 0.0
C267 C 0.4497 0.54394 0.83725 0.0
C268 C 0.90615 0.43538 0.14986 0.0
C269 C 0.91158 0.42407 0.07438 0.0
H270 H 0.90312 0.47818 0.21793 0.0
C271 C 0.91683 0.44714 0.00794 0.0
H272 H 0.90217 0.41809 0.20191 0.0
C273 C 0.91594 0.48066 0.01661 0.0
C274 C 0.91129 0.4923 0.09232 0.0
H275 H 0.92094 0.43888 0.94907 0.0
H276 H 0.91963 0.49785 0.96455 0.0
C277 C 0.90678 0.46964 0.15898 0.0
C278 C 0.4286 0.87356 0.25897 0.0
C279 C 0.42852 0.9077 0.26465 0.0
H280 H 0.46191 0.84672 0.24748 0.0
C281 C 0.46299 0.94173 0.26183 0.0
H282 H 0.4024 0.84694 0.26147 0.0
C283 C 0.49688 0.94161 0.25133 0.0
C284 C 0.49696 0.90744 0.24663 0.0
H285 H 0.4637 0.96843 0.26609 0.0
H286 H 0.52305 0.96821 0.24781 0.0
C287 C 0.46259 0.87343 0.2515 0.0
C288 C 0.33898 0.31453 0.72594 0.0
C289 C 0.32536 0.33981 0.73094 0.0
H290 H 0.36321 0.29122 0.64816 0.0
C291 C 0.30907 0.346 0.66324 0.0
H292 H 0.3507 0.30854 0.77816 0.0
C293 C 0.31701 0.33679 0.58838 0.0
C294 C 0.34059 0.32112 0.58305 0.0
H295 H 0.29747 0.36465 0.66614 0.0
H296 H 0.31142 0.34872 0.53597 0.0
C297 C 0.34607 0.30453 0.65112 0.0
C298 C 0.03365 0.33663 0.89622 0.0
C299 C 0.99462 0.32243 0.90143 0.0
H300 H 0.08129 0.36268 0.81876 0.0
C301 C 0.97232 0.30672 0.8333 0.0
H302 H 0.05124 0.34789 0.94874 0.0
C303 C 0.98956 0.31603 0.75853 0.0
C304 C 0.02874 0.34003 0.75367 0.0
H305 H 0.94199 0.29462 0.8363 0.0
H306 H 0.97202 0.31082 0.70627 0.0
C307 C 0.05088 0.34512 0.82144 0.0
C308 C 0.70629 0.03052 0.06688 0.0
C309 C 0.68182 0.99148 0.07219 0.0
H310 H 0.72802 0.07791 0.98884 0.0
C311 C 0.67596 0.96913 0.0045 0.0
H312 H 0.71206 0.04816 0.1191 0.0
C313 C 0.68427 0.98619 0.92957 0.0
C314 C 0.69907 0.02526 0.92415 0.0
H315 H 0.65801 0.93881 0.00763 0.0
H316 H 0.67247 0.96855 0.87731 0.0
C317 C 0.71545 0.04757 0.99196 0.0
C318 C 0.70539 0.6803 0.10154 0.0
C319 C 0.68067 0.69463 0.09665 0.0
H320 H 0.72631 0.65335 0.17826 0.0
C321 C 0.67388 0.70989 0.16523 0.0
H322 H 0.71191 0.66941 0.04869 0.0
C323 C 0.68131 0.69988 0.23972 0.0
C324 C 0.69636 0.67576 0.24391 0.0
H325 H 0.65577 0.72213 0.16251 0.0
H326 H 0.66886 0.70482 0.29209 0.0
C327 C 0.71359 0.67103 0.17607 0.0
C328 C 0.98808 0.67874 0.41285 0.0
C329 C 0.02739 0.69461 0.41754 0.0
H330 H 0.94039 0.65074 0.33588 0.0
C331 C 0.04918 0.71121 0.34915 0.0
H332 H 0.97079 0.66678 0.46555 0.0
C333 C 0.03179 0.70124 0.2746 0.0
C334 C 0.99287 0.67587 0.27012 0.0
H335 H 0.07966 0.72463 0.35165 0.0
H336 H 0.04934 0.70733 0.22206 0.0
C337 C 0.97064 0.6695 0.33828 0.0
C338 C 0.30907 0.96938 0.48951 0.0
C339 C 0.32575 0.99242 0.42267 0.0
H340 H 0.31223 0.96733 0.61649 0.0
C341 C 0.34037 0.03139 0.43009 0.0
H342 H 0.29655 0.93909 0.48485 0.0
C343 C 0.34835 0.0476 0.5059 0.0
C344 C 0.34249 0.02454 0.57246 0.0
H345 H 0.35239 0.04962 0.37869 0.0
H346 H 0.36624 0.07789 0.51037 0.0
C347 C 0.31804 0.98558 0.5653 0.0
C348 C 0.42701 0.21626 0.49951 0.0
C349 C 0.42903 0.24639 0.54318 0.0
H350 H 0.42706 0.16397 0.5031 0.0
C351 C 0.42994 0.24494 0.62727 0.0
H352 H 0.4263 0.21646 0.43491 0.0
C353 C 0.42942 0.21436 0.66665 0.0
C354 C 0.42906 0.18505 0.62275 0.0
H355 H 0.43125 0.26763 0.66279 0.0
H356 H 0.43069 0.21436 0.7312 0.0
C357 C 0.42757 0.18626 0.53876 0.0
C358 C 0.24875 0.42383 0.70804 0.0
C359 C 0.25242 0.42738 0.79171 0.0
H360 H 0.21661 0.42117 0.60421 0.0
C361 C 0.22478 0.43035 0.83523 0.0
H362 H 0.26957 0.4213 0.67284 0.0
C363 C 0.195 0.43133 0.79556 0.0
C364 C 0.19158 0.42824 0.71169 0.0
H365 H 0.22692 0.43332 0.89953 0.0
H366 H 0.17465 0.43464 0.8307 0.0
C367 C 0.2184 0.42367 0.6686 0.0
C368 C 0.80474 0.21908 0.00151 0.0
C369 C 0.8339 0.24856 0.95828 0.0
H370 H 0.75183 0.16725 0.99641 0.0
C371 C 0.83285 0.24649 0.87421 0.0
H372 H 0.80468 0.21986 0.0661 0.0
C373 C 0.80318 0.21594 0.83423 0.0
C374 C 0.77319 0.18727 0.87729 0.0
H375 H 0.85507 0.26868 0.83912 0.0
H376 H 0.80308 0.21542 0.76961 0.0
C377 C 0.77444 0.18908 0.96142 0.0
C378 C 0.59337 0.8279 0.03595 0.0
C379 C 0.59368 0.82965 0.12007 0.0
H380 H 0.59321 0.79725 0.93142 0.0
C381 C 0.59486 0.80095 0.1633 0.0
H382 H 0.5927 0.84975 0.00084 0.0
C383 C 0.59413 0.77045 0.12346 0.0
C384 C 0.5934 0.76846 0.03938 0.0
H385 H 0.59508 0.80142 0.22792 0.0
H386 H 0.59405 0.74824 0.15866 0.0
C387 C 0.59383 0.79796 0.99602 0.0
C388 C 0.8073 0.60779 0.31406 0.0
C389 C 0.77033 0.58628 0.2847 0.0
H390 H 0.86586 0.62495 0.2978 0.0
C391 C 0.76489 0.5668 0.21201 0.0
H392 H 0.81263 0.62334 0.3693 0.0
C393 C 0.79541 0.56836 0.17044 0.0
C394 C 0.83212 0.58931 0.2006 0.0
H395 H 0.73686 0.54984 0.18747 0.0
H396 H 0.79015 0.55217 0.11611 0.0
C397 C 0.83779 0.60899 0.27276 0.0
C398 C 0.19333 0.77146 0.37208 0.0
C399 C 0.19112 0.77018 0.45617 0.0
H400 H 0.22436 0.80193 0.26781 0.0
C401 C 0.21928 0.80046 0.49952 0.0
H402 H 0.17191 0.74866 0.33681 0.0
C403 C 0.24971 0.83047 0.45993 0.0
C404 C 0.25222 0.83153 0.37593 0.0
H405 H 0.21847 0.80039 0.56411 0.0
H406 H 0.27151 0.85289 0.49532 0.0
C407 C 0.22324 0.80204 0.33237 0.0
loop_
_geom_bond_atom_site_label_1
_geom_bond_atom_site_label_2
_geom_bond_distance
_geom_bond_site_symmetry_2
_ccdc_geom_bond_type
Co0 O1 2.216 . S
Co0 O2 2.091 . S
Co0 O4 2.004 . S
Co0 O10 2.021 . S
Co0 O12 2.137 . S
Co0 O13 2.244 . S
O1 Co0 2.216 . S
O1 C8 1.247 . S
O2 Co0 2.091 . S
O2 C8 1.261 . S
C3 O12 1.247 . S
C3 O13 1.272 . S
O4 Co0 2.004 . S
O4 C9 1.259 . S
Co5 O6 2.061 . S
Co5 O11 2.052 . S
Co5 O13 2.135 . S
O6 Co5 2.061 . S
O6 C9 1.235 . S
C7 O10 1.238 . S
C7 O11 1.241 . S
C8 O1 1.247 . S
C8 O2 1.261 . S
C9 O4 1.259 . S
C9 O6 1.235 . S
O10 Co0 2.021 . S
O10 C7 1.238 . S
O11 Co5 2.052 . S
O11 C7 1.241 . S
O12 Co0 2.137 . S
O12 C3 1.247 . S
O13 Co0 2.244 . S
O13 C3 1.272 . S
O13 Co5 2.135 . S
Co14 O15 2.216 . S
Co14 O16 2.091 . S
Co14 O18 2.004 . S
Co14 O24 2.021 . S
Co14 O26 2.137 . S
Co14 O27 2.244 . S
O15 Co14 2.216 . S
O15 C22 1.247 . S
O16 Co14 2.091 . S
O16 C22 1.261 . S
C17 O26 1.247 . S
C17 O27 1.272 . S
O18 Co14 2.004 . S
O18 C23 1.259 . S
Co19 O20 2.061 . S
Co19 O25 2.052 . S
Co19 O27 2.135 . S
O20 Co19 2.061 . S
O20 C23 1.235 . S
C21 O24 1.238 . S
C21 O25 1.241 . S
C22 O15 1.247 . S
C22 O16 1.261 . S
C23 O18 1.259 . S
C23 O20 1.235 . S
O24 Co14 2.021 . S
O24 C21 1.238 . S
O25 Co19 2.052 . S
O25 C21 1.241 . S
O26 Co14 2.137 . S
O26 C17 1.247 . S
O27 Co14 2.244 . S
O27 C17 1.272 . S
O27 Co19 2.135 . S
Co28 O29 2.216 . S
Co28 O30 2.091 . S
Co28 O32 2.004 . S
Co28 O38 2.021 . S
Co28 O40 2.137 . S
Co28 O41 2.244 . S
O29 Co28 2.216 . S
O29 C36 1.247 . S
O30 Co28 2.091 . S
O30 C36 1.261 . S
C31 O40 1.247 . S
C31 O41 1.272 . S
O32 Co28 2.004 . S
O32 C37 1.259 . S
Co33 O34 2.061 . S
Co33 O39 2.052 . S
Co33 O41 2.135 . S
O34 Co33 2.061 . S
O34 C37 1.235 . S
C35 O38 1.238 . S
C35 O39 1.241 . S
C36 O29 1.247 . S
C36 O30 1.261 . S
C37 O32 1.259 . S
C37 O34 1.235 . S
O38 Co28 2.021 . S
O38 C35 1.238 . S
O39 Co33 2.052 . S
O39 C35 1.241 . S
O40 Co28 2.137 . S
O40 C31 1.247 . S
O41 Co28 2.244 . S
O41 C31 1.272 . S
O41 Co33 2.135 . S
Co42 O43 2.216 1_556 S
Co42 O44 2.091 . S
Co42 O46 2.004 . S
Co42 O52 2.021 . S
Co42 O54 2.137 . S
Co42 O55 2.244 . S
O43 Co42 2.216 1_554 S
O43 C50 1.247 1_554 S
O44 Co42 2.091 . S
O44 C50 1.261 . S
C45 O54 1.247 . S
C45 O55 1.272 . S
O46 Co42 2.004 . S
O46 C51 1.259 . S
Co47 O48 2.061 . S
Co47 O53 2.052 1_556 S
Co47 O55 2.135 . S
O48 Co47 2.061 . S
O48 C51 1.235 . S
C49 O52 1.238 1_554 S
C49 O53 1.241 . S
C50 O43 1.247 1_556 S
C50 O44 1.261 . S
C51 O46 1.259 . S
C51 O48 1.235 . S
O52 Co42 2.021 . S
O52 C49 1.238 1_556 S
O53 Co47 2.052 1_554 S
O53 C49 1.241 . S
O54 Co42 2.137 . S
O54 C45 1.247 . S
O55 Co42 2.244 . S
O55 C45 1.272 . S
O55 Co47 2.135 . S
Co56 O57 2.216 . S
Co56 O58 2.091 . S
Co56 O60 2.004 1_554 S
Co56 O66 2.021 . S
Co56 O68 2.137 . S
Co56 O69 2.244 . S
O57 Co56 2.216 . S
O57 C64 1.247 . S
O58 Co56 2.091 . S
O58 C64 1.261 . S
C59 O68 1.247 . S
C59 O69 1.272 . S
O60 Co56 2.004 1_556 S
O60 C65 1.259 . S
Co61 O62 2.061 . S
Co61 O67 2.052 . S
Co61 O69 2.135 . S
O62 Co61 2.061 . S
O62 C65 1.235 1_554 S
C63 O66 1.238 . S
C63 O67 1.241 . S
C64 O57 1.247 . S
C64 O58 1.261 . S
C65 O60 1.259 . S
C65 O62 1.235 1_556 S
O66 Co56 2.021 . S
O66 C63 1.238 . S
O67 Co61 2.052 . S
O67 C63 1.241 . S
O68 Co56 2.137 . S
O68 C59 1.247 . S
O69 Co56 2.244 . S
O69 C59 1.272 . S
O69 Co61 2.135 . S
Co70 O71 2.216 . S
Co70 O72 2.091 . S
Co70 O74 2.004 . S
Co70 O80 2.021 . S
Co70 O82 2.137 . S
Co70 O83 2.244 . S
O71 Co70 2.216 . S
O71 C78 1.247 . S
O72 Co70 2.091 . S
O72 C78 1.261 . S
C73 O82 1.247 . S
C73 O83 1.272 . S
O74 Co70 2.004 . S
O74 C79 1.259 . S
Co75 O76 2.061 . S
Co75 O81 2.052 . S
Co75 O83 2.135 . S
O76 Co75 2.061 . S
O76 C79 1.235 . S
C77 O80 1.238 . S
C77 O81 1.241 . S
C78 O71 1.247 . S
C78 O72 1.261 . S
C79 O74 1.259 . S
C79 O76 1.235 . S
O80 Co70 2.021 . S
O80 C77 1.238 . S
O81 Co75 2.052 . S
O81 C77 1.241 . S
O82 Co70 2.137 . S
O82 C73 1.247 . S
O83 Co70 2.244 . S
O83 C73 1.272 . S
O83 Co75 2.135 . S
Co84 O85 2.216 . S
Co84 O86 2.091 . S
Co84 O88 2.004 . S
Co84 O94 2.021 . S
Co84 O96 2.137 . S
Co84 O97 2.244 . S
O85 Co84 2.216 . S
O85 C92 1.247 . S
O86 Co84 2.091 . S
O86 C92 1.261 . S
C87 O96 1.247 . S
C87 O97 1.272 . S
O88 Co84 2.004 . S
O88 C93 1.259 . S
Co89 O90 2.061 . S
Co89 O95 2.052 . S
Co89 O97 2.135 . S
O90 Co89 2.061 . S
O90 C93 1.235 . S
C91 O94 1.238 . S
C91 O95 1.241 . S
C92 O85 1.247 . S
C92 O86 1.261 . S
C93 O88 1.259 . S
C93 O90 1.235 . S
O94 Co84 2.021 . S
O94 C91 1.238 . S
O95 Co89 2.052 . S
O95 C91 1.241 . S
O96 Co84 2.137 . S
O96 C87 1.247 . S
O97 Co84 2.244 . S
O97 C87 1.272 . S
O97 Co89 2.135 . S
Co98 O99 2.216 . S
Co98 O100 2.091 . S
Co98 O102 2.004 . S
Co98 O108 2.021 . S
Co98 O110 2.137 . S
Co98 O111 2.244 . S
O99 Co98 2.216 . S
O99 C106 1.247 . S
O100 Co98 2.091 . S
O100 C106 1.261 . S
C101 O110 1.247 . S
C101 O111 1.272 . S
O102 Co98 2.004 . S
O102 C107 1.259 . S
Co103 O104 2.061 . S
Co103 O109 2.052 . S
Co103 O111 2.135 . S
O104 Co103 2.061 . S
O104 C107 1.235 . S
C105 O108 1.238 . S
C105 O109 1.241 . S
C106 O99 1.247 . S
C106 O100 1.261 . S
C107 O102 1.259 . S
C107 O104 1.235 . S
O108 Co98 2.021 . S
O108 C105 1.238 . S
O109 Co103 2.052 . S
O109 C105 1.241 . S
O110 Co98 2.137 . S
O110 C101 1.247 . S
O111 Co98 2.244 . S
O111 C101 1.272 . S
O111 Co103 2.135 . S
Co112 O113 2.216 . S
Co112 O114 2.091 . S
Co112 O116 2.004 . S
Co112 O122 2.021 . S
Co112 O124 2.137 . S
Co112 O125 2.244 . S
O113 Co112 2.216 . S
O113 C120 1.247 . S
O114 Co112 2.091 . S
O114 C120 1.261 . S
C115 O124 1.247 . S
C115 O125 1.272 . S
O116 Co112 2.004 . S
O116 C121 1.259 . S
Co117 O118 2.061 . S
Co117 O123 2.052 . S
Co117 O125 2.135 . S
O118 Co117 2.061 . S
O118 C121 1.235 . S
C119 O122 1.238 . S
C119 O123 1.241 . S
C120 O113 1.247 . S
C120 O114 1.261 . S
C121 O116 1.259 . S
C121 O118 1.235 . S
O122 Co112 2.021 . S
O122 C119 1.238 . S
O123 Co117 2.052 . S
O123 C119 1.241 . S
O124 Co112 2.137 . S
O124 C115 1.247 . S
O125 Co112 2.244 . S
O125 C115 1.272 . S
O125 Co117 2.135 . S
Co126 O127 2.216 . S
Co126 O128 2.091 . S
Co126 O130 2.004 1_556 S
Co126 O136 2.021 . S
Co126 O138 2.137 . S
Co126 O139 2.244 . S
O127 Co126 2.216 . S
O127 C134 1.247 . S
O128 Co126 2.091 . S
O128 C134 1.261 . S
C129 O138 1.247 . S
C129 O139 1.272 . S
O130 Co126 2.004 1_554 S
O130 C135 1.259 . S
Co131 O132 2.061 . S
Co131 O137 2.052 . S
Co131 O139 2.135 . S
O132 Co131 2.061 . S
O132 C135 1.235 1_556 S
C133 O136 1.238 . S
C133 O137 1.241 . S
C134 O127 1.247 . S
C134 O128 1.261 . S
C135 O130 1.259 . S
C135 O132 1.235 1_554 S
O136 Co126 2.021 . S
O136 C133 1.238 . S
O137 Co131 2.052 . S
O137 C133 1.241 . S
O138 Co126 2.137 . S
O138 C129 1.247 . S
O139 Co126 2.244 . S
O139 C129 1.272 . S
O139 Co131 2.135 . S
Co140 O141 2.216 1_554 S
Co140 O142 2.091 . S
Co140 O144 2.004 . S
Co140 O150 2.021 . S
Co140 O152 2.137 . S
Co140 O153 2.244 . S
O141 Co140 2.216 1_556 S
O141 C148 1.247 1_556 S
O142 Co140 2.091 . S
O142 C148 1.261 . S
C143 O152 1.247 . S
C143 O153 1.272 . S
O144 Co140 2.004 . S
O144 C149 1.259 . S
Co145 O146 2.061 . S
Co145 O151 2.052 1_554 S
Co145 O153 2.135 . S
O146 Co145 2.061 . S
O146 C149 1.235 . S
C147 O150 1.238 1_556 S
C147 O151 1.241 . S
C148 O141 1.247 1_554 S
C148 O142 1.261 . S
C149 O144 1.259 . S
C149 O146 1.235 . S
O150 Co140 2.021 . S
O150 C147 1.238 1_554 S
O151 Co145 2.052 1_556 S
O151 C147 1.241 . S
O152 Co140 2.137 . S
O152 C143 1.247 . S
O153 Co140 2.244 . S
O153 C143 1.272 . S
O153 Co145 2.135 . S
Co154 O155 2.216 . S
Co154 O156 2.091 . S
Co154 O158 2.004 . S
Co154 O164 2.021 . S
Co154 O166 2.137 . S
Co154 O167 2.244 . S
O155 Co154 2.216 . S
O155 C162 1.247 . S
O156 Co154 2.091 . S
O156 C162 1.261 . S
C157 O166 1.247 . S
C157 O167 1.272 . S
O158 Co154 2.004 . S
O158 C163 1.259 . S
Co159 O160 2.061 . S
Co159 O165 2.052 . S
Co159 O167 2.135 . S
O160 Co159 2.061 . S
O160 C163 1.235 . S
C161 O164 1.238 . S
C161 O165 1.241 . S
C162 O155 1.247 . S
C162 O156 1.261 . S
C163 O158 1.259 . S
C163 O160 1.235 . S
O164 Co154 2.021 . S
O164 C161 1.238 . S
O165 Co159 2.052 . S
O165 C161 1.241 . S
O166 Co154 2.137 . S
O166 C157 1.247 . S
O167 Co154 2.244 . S
O167 C157 1.272 . S
O167 Co159 2.135 . S
C168 C169 1.387 . S
C168 H172 0.950 . S
C168 C177 1.390 . S
C169 C168 1.387 . S
C169 C171 1.387 . S
H170 C177 0.950 . S
C171 C169 1.387 . S
C171 C173 1.390 . S
C171 H175 0.950 . S
H172 C168 0.950 . S
C173 C171 1.390 . S
C173 C174 1.387 . S
C173 H176 0.950 . S
C174 C173 1.387 . S
C174 C177 1.387 . S
H175 C171 0.950 . S
H176 C173 0.950 . S
C177 C168 1.390 . S
C177 H170 0.950 . S
C177 C174 1.387 . S
C178 C179 1.387 1_655 S
C178 H182 0.950 . S
C178 C187 1.390 . S
C179 C178 1.387 1_455 S
C179 C181 1.387 . S
H180 C187 0.950 . S
C181 C179 1.387 . S
C181 C183 1.390 . S
C181 H185 0.950 . S
H182 C178 0.950 . S
C183 C181 1.390 . S
C183 C184 1.387 1_455 S
C183 H186 0.950 . S
C184 C183 1.387 1_655 S
C184 C187 1.387 . S
H185 C181 0.950 . S
H186 C183 0.950 . S
C187 C178 1.390 . S
C187 H180 0.950 . S
C187 C184 1.387 . S
C188 C189 1.387 . S
C188 H192 0.950 . S
C188 C197 1.390 1_565 S
C189 C188 1.387 . S
C189 C191 1.387 . S
H190 C197 0.950 . S
C191 C189 1.387 . S
C191 C193 1.390 1_565 S
C191 H195 0.950 . S
H192 C188 0.950 . S
C193 C191 1.390 1_545 S
C193 C194 1.387 . S
C193 H196 0.950 . S
C194 C193 1.387 . S
C194 C197 1.387 . S
H195 C191 0.950 . S
H196 C193 0.950 . S
C197 C188 1.390 1_545 S
C197 H190 0.950 . S
C197 C194 1.387 . S
C198 C199 1.387 . S
C198 H202 0.950 . S
C198 C207 1.390 . S
C199 C198 1.387 . S
C199 C201 1.387 . S
H200 C207 0.950 . S
C201 C199 1.387 . S
C201 C203 1.390 . S
C201 H205 0.950 . S
H202 C198 0.950 . S
C203 C201 1.390 . S
C203 C204 1.387 . S
C203 H206 0.950 . S
C204 C203 1.387 . S
C204 C207 1.387 . S
H205 C201 0.950 . S
H206 C203 0.950 . S
C207 C198 1.390 . S
C207 H200 0.950 . S
C207 C204 1.387 . S
C208 C209 1.387 . S
C208 H212 0.950 . S
C208 C217 1.390 1_455 S
C209 C208 1.387 . S
C209 C211 1.387 . S
H210 C217 0.950 . S
C211 C209 1.387 . S
C211 C213 1.390 1_455 S
C211 H215 0.950 . S
H212 C208 0.950 . S
C213 C211 1.390 1_655 S
C213 C214 1.387 . S
C213 H216 0.950 . S
C214 C213 1.387 . S
C214 C217 1.387 . S
H215 C211 0.950 . S
H216 C213 0.950 . S
C217 C208 1.390 1_655 S
C217 H210 0.950 . S
C217 C214 1.387 . S
C218 C219 1.387 . S
C218 H222 0.950 . S
C218 C227 1.390 1_546 S
C219 C218 1.387 . S
C219 C221 1.387 . S
H220 C227 0.950 . S
C221 C219 1.387 . S
C221 C223 1.390 1_546 S
C221 H225 0.950 . S
H222 C218 0.950 . S
C223 C221 1.390 1_564 S
C223 C224 1.387 . S
C223 H226 0.950 . S
C224 C223 1.387 . S
C224 C227 1.387 . S
H225 C221 0.950 . S
H226 C223 0.950 . S
C227 C218 1.390 1_564 S
C227 H220 0.950 . S
C227 C224 1.387 . S
C228 C229 1.387 . S
C228 H232 0.950 . S
C228 C237 1.390 . S
C229 C228 1.387 . S
C229 C231 1.387 . S
H230 C237 0.950 . S
C231 C229 1.387 . S
C231 C233 1.390 . S
C231 H235 0.950 . S
H232 C228 0.950 . S
C233 C231 1.390 . S
C233 C234 1.387 . S
C233 H236 0.950 . S
C234 C233 1.387 . S
C234 C237 1.387 . S
H235 C231 0.950 . S
H236 C233 0.950 . S
C237 C228 1.390 . S
C237 H230 0.950 . S
C237 C234 1.387 . S
C238 C239 1.387 . S
C238 H242 0.950 . S
C238 C247 1.390 . S
C239 C238 1.387 . S
C239 C241 1.387 . S
H240 C247 0.950 . S
C241 C239 1.387 . S
C241 C243 1.390 . S
C241 H245 0.950 . S
H242 C238 0.950 . S
C243 C241 1.390 . S
C243 C244 1.387 . S
C243 H246 0.950 . S
C244 C243 1.387 . S
C244 C247 1.387 . S
H245 C241 0.950 . S
H246 C243 0.950 . S
C247 C238 1.390 . S
C247 H240 0.950 . S
C247 C244 1.387 . S
C248 C249 1.387 . S
C248 H252 0.950 . S
C248 C257 1.390 . S
C249 C248 1.387 . S
C249 C251 1.387 . S
H250 C257 0.950 . S
C251 C249 1.387 . S
C251 C253 1.390 . S
C251 H255 0.950 . S
H252 C248 0.950 . S
C253 C251 1.390 . S
C253 C254 1.387 . S
C253 H256 0.950 . S
C254 C253 1.387 . S
C254 C257 1.387 . S
H255 C251 0.950 . S
H256 C253 0.950 . S
C257 C248 1.390 . S
C257 H250 0.950 . S
C257 C254 1.387 . S
C258 C259 1.387 . S
C258 H262 0.950 . S
C258 C267 1.390 . S
C259 C258 1.387 . S
C259 C261 1.387 . S
H260 C267 0.950 . S
C261 C259 1.387 . S
C261 C263 1.390 . S
C261 H265 0.950 1_556 S
H262 C258 0.950 . S
C263 C261 1.390 . S
C263 C264 1.387 . S
C263 H266 0.950 1_556 S
C264 C263 1.387 . S
C264 C267 1.387 . S
H265 C261 0.950 1_554 S
H266 C263 0.950 1_554 S
C267 C258 1.390 . S
C267 H260 0.950 . S
C267 C264 1.387 . S
C268 C269 1.387 . S
C268 H272 0.950 . S
C268 C277 1.390 . S
C269 C268 1.387 . S
C269 C271 1.387 . S
H270 C277 0.950 . S
C271 C269 1.387 . S
C271 C273 1.390 . S
C271 H275 0.950 1_554 S
H272 C268 0.950 . S
C273 C271 1.390 . S
C273 C274 1.387 . S
C273 H276 0.950 1_554 S
C274 C273 1.387 . S
C274 C277 1.387 . S
H275 C271 0.950 1_556 S
H276 C273 0.950 1_556 S
C277 C268 1.390 . S
C277 H270 0.950 . S
C277 C274 1.387 . S
C278 C279 1.387 . S
C278 H282 0.950 . S
C278 C287 1.390 . S
C279 C278 1.387 . S
C279 C281 1.387 . S
H280 C287 0.950 . S
C281 C279 1.387 . S
C281 C283 1.390 . S
C281 H285 0.950 . S
H282 C278 0.950 . S
C283 C281 1.390 . S
C283 C284 1.387 . S
C283 H286 0.950 . S
C284 C283 1.387 . S
C284 C287 1.387 . S
H285 C281 0.950 . S
H286 C283 0.950 . S
C287 C278 1.390 . S
C287 H280 0.950 . S
C287 C284 1.387 . S
C288 C289 1.387 . S
C288 H292 0.950 . S
C288 C297 1.390 . S
C289 C288 1.387 . S
C289 C291 1.387 . S
H290 C297 0.950 . S
C291 C289 1.387 . S
C291 C293 1.390 . S
C291 H295 0.950 . S
H292 C288 0.950 . S
C293 C291 1.390 . S
C293 C294 1.387 . S
C293 H296 0.950 . S
C294 C293 1.387 . S
C294 C297 1.387 . S
H295 C291 0.950 . S
H296 C293 0.950 . S
C297 C288 1.390 . S
C297 H290 0.950 . S
C297 C294 1.387 . S
C298 C299 1.388 1_455 S
C298 H302 0.952 1_455 S
C298 C307 1.389 . S
C299 C298 1.388 1_655 S
C299 C301 1.387 . S
H300 C307 0.950 . S
C301 C299 1.387 . S
C301 C303 1.389 . S
C301 H305 0.950 . S
H302 C298 0.952 1_655 S
C303 C301 1.389 . S
C303 C304 1.388 1_655 S
C303 H306 0.949 . S
C304 C303 1.388 1_455 S
C304 C307 1.387 . S
H305 C301 0.950 . S
H306 C303 0.949 . S
C307 C298 1.389 . S
C307 H300 0.950 . S
C307 C304 1.387 . S
C308 C309 1.387 . S
C308 H312 0.950 . S
C308 C317 1.390 1_564 S
C309 C308 1.387 . S
C309 C311 1.387 . S
H310 C317 0.950 . S
C311 C309 1.387 . S
C311 C313 1.390 1_564 S
C311 H315 0.950 . S
H312 C308 0.950 . S
C313 C311 1.390 1_546 S
C313 C314 1.387 . S
C313 H316 0.950 . S
C314 C313 1.387 . S
C314 C317 1.387 . S
H315 C311 0.950 . S
H316 C313 0.950 . S
C317 C308 1.390 1_546 S
C317 H310 0.950 . S
C317 C314 1.387 . S
C318 C319 1.387 . S
C318 H322 0.950 . S
C318 C327 1.390 . S
C319 C318 1.387 . S
C319 C321 1.387 . S
H320 C327 0.950 . S
C321 C319 1.387 . S
C321 C323 1.390 . S
C321 H325 0.950 . S
H322 C318 0.950 . S
C323 C321 1.390 . S
C323 C324 1.387 . S
C323 H326 0.950 . S
C324 C323 1.387 . S
C324 C327 1.387 . S
H325 C321 0.950 . S
H326 C323 0.950 . S
C327 C318 1.390 . S
C327 H320 0.950 . S
C327 C324 1.387 . S
C328 C329 1.387 1_655 S
C328 H332 0.950 . S
C328 C337 1.390 . S
C329 C328 1.387 1_455 S
C329 C331 1.387 . S
H330 C337 0.950 . S
C331 C329 1.387 . S
C331 C333 1.390 . S
C331 H335 0.950 . S
H332 C328 0.950 . S
C333 C331 1.390 . S
C333 C334 1.387 1_455 S
C333 H336 0.950 . S
C334 C333 1.387 1_655 S
C334 C337 1.387 . S
H335 C331 0.950 . S
H336 C333 0.950 . S
C337 C328 1.390 . S
C337 H330 0.950 . S
C337 C334 1.387 . S
C338 C339 1.387 . S
C338 H342 0.950 . S
C338 C347 1.390 1_565 S
C339 C338 1.387 . S
C339 C341 1.387 . S
H340 C347 0.950 . S
C341 C339 1.387 . S
C341 C343 1.390 1_565 S
C341 H345 0.950 . S
H342 C338 0.950 . S
C343 C341 1.390 1_545 S
C343 C344 1.387 . S
C343 H346 0.950 . S
C344 C343 1.387 . S
C344 C347 1.387 . S
H345 C341 0.950 . S
H346 C343 0.950 . S
C347 C338 1.390 1_545 S
C347 H340 0.950 . S
C347 C344 1.387 . S
C348 C349 1.387 . S
C348 H352 0.950 . S
C348 C357 1.390 . S
C349 C348 1.387 . S
C349 C351 1.387 . S
H350 C357 0.950 . S
C351 C349 1.387 . S
C351 C353 1.390 . S
C351 H355 0.950 . S
H352 C348 0.950 . S
C353 C351 1.390 . S
C353 C354 1.387 . S
C353 H356 0.950 . S
C354 C353 1.387 . S
C354 C357 1.387 . S
H355 C351 0.950 . S
H356 C353 0.950 . S
C357 C348 1.390 . S
C357 H350 0.950 . S
C357 C354 1.387 . S
C358 C359 1.387 . S
C358 H362 0.950 . S
C358 C367 1.390 . S
C359 C358 1.387 . S
C359 C361 1.387 . S
H360 C367 0.950 . S
C361 C359 1.387 . S
C361 C363 1.390 . S
C361 H365 0.950 . S
H362 C358 0.950 . S
C363 C361 1.390 . S
C363 C364 1.387 . S
C363 H366 0.950 . S
C364 C363 1.387 . S
C364 C367 1.387 . S
H365 C361 0.950 . S
H366 C363 0.950 . S
C367 C358 1.390 . S
C367 H360 0.950 . S
C367 C364 1.387 . S
C368 C369 1.387 . S
C368 H372 0.950 1_556 S
C368 C377 1.390 . S
C369 C368 1.387 . S
C369 C371 1.387 . S
H370 C377 0.950 . S
C371 C369 1.387 . S
C371 C373 1.390 . S
C371 H375 0.950 . S
H372 C368 0.950 1_554 S
C373 C371 1.390 . S
C373 C374 1.387 . S
C373 H376 0.950 . S
C374 C373 1.387 . S
C374 C377 1.387 . S
H375 C371 0.950 . S
H376 C373 0.950 . S
C377 C368 1.390 . S
C377 H370 0.950 . S
C377 C374 1.387 . S
C378 C379 1.387 . S
C378 H382 0.950 . S
C378 C387 1.390 . S
C379 C378 1.387 . S
C379 C381 1.387 . S
H380 C387 0.950 1_556 S
C381 C379 1.387 . S
C381 C383 1.390 . S
C381 H385 0.950 . S
H382 C378 0.950 . S
C383 C381 1.390 . S
C383 C384 1.387 . S
C383 H386 0.950 . S
C384 C383 1.387 . S
C384 C387 1.387 . S
H385 C381 0.950 . S
H386 C383 0.950 . S
C387 C378 1.390 . S
C387 H380 0.950 1_554 S
C387 C384 1.387 . S
C388 C389 1.387 . S
C388 H392 0.950 . S
C388 C397 1.390 . S
C389 C388 1.387 . S
C389 C391 1.387 . S
H390 C397 0.950 . S
C391 C389 1.387 . S
C391 C393 1.390 . S
C391 H395 0.950 . S
H392 C388 0.950 . S
C393 C391 1.390 . S
C393 C394 1.387 . S
C393 H396 0.950 . S
C394 C393 1.387 . S
C394 C397 1.387 . S
H395 C391 0.950 . S
H396 C393 0.950 . S
C397 C388 1.390 . S
C397 H390 0.950 . S
C397 C394 1.387 . S
C398 C399 1.387 . S
C398 H402 0.950 . S
C398 C407 1.390 . S
C399 C398 1.387 . S
C399 C401 1.387 . S
H400 C407 0.950 . S
C401 C399 1.387 . S
C401 C403 1.390 . S
C401 H405 0.950 . S
H402 C398 0.950 . S
C403 C401 1.390 . S
C403 C404 1.387 . S
C403 H406 0.950 . S
C404 C403 1.387 . S
C404 C407 1.387 . S
H405 C401 0.950 . S
H406 C403 0.950 . S
C407 C398 1.390 . S
C407 H400 0.950 . S
C407 C404 1.387 . S
C169 C135 1.523 . S
C174 C9 1.525 . S
C179 C23 1.526 . S
C184 C149 1.525 . S
C189 C163 1.526 . S
C194 C37 1.526 . S
C199 C93 1.526 . S
C204 C51 1.525 . S
C209 C107 1.525 . S
C214 C65 1.526 . S
C219 C121 1.524 . S
C224 C79 1.524 . S
C229 C87 1.584 . S
C234 C3 1.583 . S
C239 C17 1.584 . S
C244 C101 1.583 . S
C249 C115 1.583 . S
C254 C31 1.583 . S
C259 C45 1.585 . S
C264 C129 1.583 . S
C269 C143 1.585 . S
C274 C59 1.583 . S
C279 C73 1.583 . S
C284 C157 1.583 . S
C289 C133 1.403 . S
C294 C7 1.405 . S
C299 C147 1.404 . S
C304 C21 1.406 . S
C309 C161 1.405 . S
C314 C35 1.405 . S
C319 C49 1.403 . S
C324 C91 1.406 . S
C329 C105 1.402 . S
C334 C63 1.405 . S
C339 C77 1.403 . S
C344 C119 1.403 . S
C349 C8 1.308 . S
C354 C120 1.308 . S
C359 C134 1.307 . S
C364 C22 1.307 . S
C369 C148 1.308 1_556 S
C374 C36 1.308 . S
C379 C162 1.307 . S
C384 C50 1.307 1_554 S
C389 C92 1.307 . S
C394 C64 1.307 . S
C399 C106 1.308 . S
C404 C78 1.308 . S
