# Generated by pormake.
# Topology fee, (5)-cn, num edge types: 1
# Building blocks:
#     Node 0, Type 0, BuildingBlock: XOMCOT_clean_sbu_0, # of connection points: 5
#     Node 1, Type 0, BuildingBlock: XOMCOT_clean_sbu_0, # of connection points: 5
#     Node 2, Type 0, BuildingBlock: XOMCOT_clean_sbu_0, # of connection points: 5
#     Node 3, Type 0, BuildingBlock: XOMCOT_clean_sbu_0, # of connection points: 5
#     Edge 4, Type (0, 0), BuildingBlock: UVAHIK_clean_linker_0, # of connection points: 2
#     Edge 5, Type (0, 0), BuildingBlock: UVAHIK_clean_linker_0, # of connection points: 2
#     Edge 6, Type (0, 0), BuildingBlock: UVAHIK_clean_linker_0, # of connection points: 2
#     Edge 7, Type (0, 0), BuildingBlock: UVAHIK_clean_linker_0, # of connection points: 2
#     Edge 8, Type (0, 0), BuildingBlock: UVAHIK_clean_linker_0, # of connection points: 2
#     Edge 9, Type (0, 0), BuildingBlock: UVAHIK_clean_linker_0, # of connection points: 2
#     Edge 10, Type (0, 0), BuildingBlock: UVAHIK_clean_linker_0, # of connection points: 2
#     Edge 11, Type (0, 0), BuildingBlock: UVAHIK_clean_linker_0, # of connection points: 2
#     Edge 12, Type (0, 0), BuildingBlock: UVAHIK_clean_linker_0, # of connection points: 2
#     Edge 13, Type (0, 0), BuildingBlock: UVAHIK_clean_linker_0, # of connection points: 2
# Relax obj value: 0.155
# Max RMSD: 0.169
# Mean RMSD: 0.153
data_MOF--net-fee--node1-XOMCOT_clean_sbu_0--edge1-UVAHIK_clean_linker_0
_symmetry_space_group_name_H-M    P1
_symmetry_Int_Tables_number       1
_symmetry_cell_setting            triclinic
loop_
_symmetry_equiv_pos_as_xyz
'x, y, z'
_cell_length_a     49.059189
_cell_length_b     48.903173
_cell_length_c     22.093926
_cell_angle_alpha  96.398922
_cell_angle_beta   96.201337
_cell_angle_gamma 89.876566
loop_
_atom_site_label
_atom_site_type_symbol
_atom_site_fract_x
_atom_site_fract_y
_atom_site_fract_z
_atom_type_partial_charge
Co0 Co 0.18281 0.52468 0.05065 0.0
C1 C 0.19018 0.52557 0.18556 0.0
C2 C 0.20414 0.56314 0.15667 0.0
C3 C 0.20734 0.56548 0.21963 0.0
N4 N 0.19355 0.53808 0.1354 0.0
N5 N 0.19846 0.54192 0.23775 0.0
H6 H 0.18151 0.50513 0.18382 0.0
H7 H 0.20847 0.57901 0.1286 0.0
C8 C 0.23092 0.54701 0.99397 0.0
O9 O 0.23558 0.52301 0.96395 0.0
N10 N 0.17145 0.51167 0.96483 0.0
C11 C 0.15524 0.48968 0.94321 0.0
C12 C 0.15124 0.48789 0.88041 0.0
C13 C 0.17588 0.52367 0.91441 0.0
N14 N 0.16437 0.5092 0.8622 0.0
C15 C 0.1986 0.46827 0.0482 0.0
C16 C 0.25443 0.47717 0.07281 0.0
C17 C 0.24462 0.45013 0.05546 0.0
C18 C 0.21615 0.44586 0.04635 0.0
C19 C 0.23593 0.49901 0.07564 0.0
N20 N 0.20861 0.49454 0.05783 0.0
H21 H 0.17688 0.46433 0.04194 0.0
H22 H 0.24375 0.5196 0.09014 0.0
H23 H 0.14607 0.47608 0.97069 0.0
H24 H 0.18647 0.54307 0.9156 0.0
O25 O 0.151 0.50723 0.07411 0.0
O26 O 0.1525 0.54996 0.04971 0.0
O27 O 0.21111 0.55013 0.02703 0.0
C28 C 0.1384 0.53026 0.06704 0.0
H29 H 0.21454 0.5836 0.24975 0.0
H30 H 0.1397 0.47194 0.85059 0.0
H31 H 0.27616 0.48166 0.08235 0.0
H32 H 0.20732 0.42535 0.03737 0.0
Co33 Co 0.4682 0.18753 0.05252 0.0
C34 C 0.45742 0.18528 0.18293 0.0
C35 C 0.44785 0.22447 0.15149 0.0
C36 C 0.44318 0.22573 0.21191 0.0
N37 N 0.45657 0.19905 0.13288 0.0
N38 N 0.44923 0.20112 0.23177 0.0
H39 H 0.46428 0.16432 0.18422 0.0
H40 H 0.44603 0.24141 0.1239 0.0
C41 C 0.4169 0.21276 1.00412 0.0
O42 O 0.40476 0.18902 1.00598 0.0
N43 N 0.47989 0.17643 0.97265 0.0
C44 C 0.5051 0.16755 0.96199 0.0
C45 C 0.50616 0.16314 0.89972 0.0
C46 C 0.46586 0.17723 0.91687 0.0
N47 N 0.48151 0.16929 0.87127 0.0
C48 C 0.51488 0.21633 0.11959 0.0
C49 C 0.52109 0.25199 0.03296 0.0
C50 C 0.53952 0.2537 0.08619 0.0
C51 C 0.53617 0.23585 0.13029 0.0
C52 C 0.49984 0.23269 0.02469 0.0
N53 N 0.49703 0.21511 0.06751 0.0
H54 H 0.5127 0.20209 0.15289 0.0
H55 H 0.4859 0.23152 0.98313 0.0
H56 H 0.52181 0.16522 0.99715 0.0
H57 H 0.4448 0.18373 0.90982 0.0
O58 O 0.48776 0.15672 0.08335 0.0
O59 O 0.44439 0.15559 0.04255 0.0
O60 O 0.44272 0.2153 0.01778 0.0
C61 C 0.46531 0.14251 0.06618 0.0
H62 H 0.43696 0.2438 0.23977 0.0
H63 H 0.52408 0.1569 0.8773 0.0
H64 H 0.52304 0.26558 0.9981 0.0
H65 H 0.55019 0.23659 0.17184 0.0
Co66 Co 0.80846 0.53776 0.16729 0.0
C67 C 0.80352 0.54116 0.03381 0.0
C68 C 0.79379 0.57946 0.08399 0.0
C69 C 0.79159 0.5828 0.02264 0.0
N70 N 0.8011 0.55335 0.0908 0.0
N71 N 0.79779 0.55874 0.99117 0.0
H72 H 0.80945 0.51993 0.02394 0.0
H73 H 0.79083 0.59519 0.12108 0.0
C74 C 0.76077 0.55846 0.23329 0.0
O75 O 0.75748 0.53369 0.24941 0.0
N76 N 0.81667 0.52265 0.24535 0.0
C77 C 0.8296 0.4989 0.25531 0.0
C78 C 0.8333 0.49686 0.31715 0.0
C79 C 0.81421 0.53538 0.30208 0.0
N80 N 0.82347 0.51976 0.34664 0.0
C81 C 0.78767 0.48256 0.13294 0.0
C82 C 0.73348 0.49672 0.10677 0.0
C83 C 0.74013 0.46896 0.10888 0.0
C84 C 0.76775 0.46186 0.11929 0.0
C85 C 0.75422 0.51671 0.1195 0.0
N86 N 0.78053 0.50963 0.13814 0.0
H87 H 0.80881 0.47671 0.1394 0.0
H88 H 0.74888 0.53799 0.1165 0.0
H89 H 0.83719 0.48439 0.22085 0.0
H90 H 0.8066 0.55603 0.31087 0.0
O91 O 0.83971 0.5191 0.13746 0.0
O92 O 0.84061 0.56113 0.18752 0.0
O93 O 0.78056 0.56349 0.20285 0.0
C94 C 0.85383 0.54101 0.16036 0.0
H95 H 0.78671 0.60175 1.00296 0.0
H96 H 0.84262 0.47977 0.33856 0.0
H97 H 0.71245 0.50291 0.09615 0.0
H98 H 0.77383 0.44054 0.1191 0.0
Co99 Co 0.46381 0.80625 0.13133 0.0
C100 C 0.45411 0.80684 0.99511 0.0
C101 C 0.4501 0.76655 0.02297 0.0
C102 C 0.44587 0.76454 0.96013 0.0
N103 N 0.45517 0.79306 0.04511 0.0
N104 N 0.4484 0.78987 0.94253 0.0
H105 H 0.45756 0.82872 0.99677 0.0
H106 H 0.45018 0.74963 0.05059 0.0
C107 C 0.41064 0.78083 0.13976 0.0
O108 O 0.40002 0.80386 0.1232 0.0
N109 N 0.47269 0.81892 0.2173 0.0
C110 C 0.49671 0.8307 0.24208 0.0
C111 C 0.49627 0.83586 0.30432 0.0
C112 C 0.45795 0.81686 0.26484 0.0
N113 N 0.47196 0.82713 0.3187 0.0
C114 C 0.51303 0.77898 0.101 0.0
C115 C 0.51505 0.74429 0.19224 0.0
C116 C 0.53651 0.74385 0.15518 0.0
C117 C 0.53518 0.76116 0.10841 0.0
C118 C 0.49319 0.76211 0.18283 0.0
N119 N 0.49254 0.7793 0.13811 0.0
H120 H 0.51246 0.79289 0.06612 0.0
H121 H 0.47717 0.76266 0.21283 0.0
H122 H 0.51371 0.83459 0.21678 0.0
H123 H 0.43763 0.80781 0.2603 0.0
O124 O 0.48478 0.83682 0.11092 0.0
O125 O 0.44056 0.83786 0.12308 0.0
O126 O 0.43658 0.77876 0.15033 0.0
C127 C 0.46229 0.8509 0.11249 0.0
H128 H 0.44216 0.74567 0.92977 0.0
H129 H 0.51303 0.84439 0.33677 0.0
H130 H 0.51522 0.73107 0.22849 0.0
H131 H 0.55148 0.76151 0.07912 0.0
C132 C 0.14729 0.50337 0.75185 0.0
C133 C 0.16671 0.51437 0.79987 0.0
C134 C 0.15061 0.50656 0.69101 0.0
C135 C 0.186 0.54836 0.59393 0.0
H136 H 0.17375 0.48449 0.4731 0.0
C137 C 0.2146 0.54932 0.34813 0.0
C138 C 0.19622 0.53672 0.29997 0.0
C139 C 0.21139 0.54598 0.40893 0.0
C140 C 0.17695 0.50262 0.50606 0.0
H141 H 0.20474 0.53776 0.8211 0.0
H142 H 0.21034 0.54359 0.71497 0.0
H143 H 0.16673 0.48081 0.57949 0.0
H144 H 0.1602 0.51046 0.27787 0.0
H145 H 0.15438 0.50477 0.38407 0.0
H146 H 0.19596 0.57028 0.5206 0.0
C147 C 0.19244 0.5326 0.72461 0.0
C148 C 0.17293 0.5005 0.56707 0.0
C149 C 0.18918 0.52931 0.78552 0.0
C150 C 0.17489 0.52015 0.3139 0.0
C151 C 0.17157 0.51692 0.37483 0.0
C152 C 0.18989 0.55052 0.53289 0.0
C153 C 0.17337 0.52095 0.67662 0.0
C154 C 0.17744 0.52334 0.61171 0.0
C155 C 0.18961 0.53006 0.42316 0.0
C156 C 0.18547 0.52766 0.48817 0.0
H157 H 0.12947 0.49221 0.76112 0.0
H158 H 0.13529 0.49779 0.65517 0.0
H159 H 0.18929 0.56642 0.62708 0.0
H160 H 0.23149 0.56183 0.33878 0.0
H161 H 0.22604 0.55589 0.44483 0.0
C162 C 0.45394 0.18672 0.783 0.0
C163 C 0.47446 0.16934 0.80605 0.0
C164 C 0.4486 0.18815 0.71991 0.0
C165 C 0.46024 0.15202 0.56751 0.0
H166 H 0.44968 0.22462 0.51463 0.0
C167 C 0.46716 0.17498 0.31733 0.0
C168 C 0.44892 0.19435 0.29367 0.0
C169 C 0.46822 0.17019 0.37889 0.0
C170 C 0.45221 0.20414 0.52851 0.0
H171 H 0.50457 0.13891 0.78015 0.0
H172 H 0.49573 0.14187 0.67068 0.0
H173 H 0.45483 0.21944 0.62348 0.0
H174 H 0.41645 0.22271 0.31543 0.0
H175 H 0.41822 0.21435 0.42235 0.0
H176 H 0.45803 0.13683 0.47224 0.0
C177 C 0.4836 0.15428 0.70123 0.0
C178 C 0.45513 0.20116 0.59105 0.0
C179 C 0.48891 0.15284 0.76424 0.0
C180 C 0.43114 0.20809 0.33245 0.0
C181 C 0.43217 0.20331 0.39381 0.0
C182 C 0.45736 0.15502 0.50485 0.0
C183 C 0.46362 0.17222 0.67826 0.0
C184 C 0.4593 0.17509 0.61143 0.0
C185 C 0.45103 0.18465 0.41812 0.0
C186 C 0.4534 0.18114 0.48459 0.0
H187 H 0.4425 0.19985 0.81368 0.0
H188 H 0.43279 0.20192 0.70379 0.0
H189 H 0.46306 0.13158 0.58151 0.0
H190 H 0.48132 0.16423 0.28896 0.0
H191 H 0.48317 0.15586 0.39623 0.0
C192 C 0.78296 0.56857 0.88537 0.0
C193 C 0.79942 0.55371 0.9261 0.0
C194 C 0.78542 0.56478 0.82257 0.0
C195 C 0.83402 0.54159 0.71242 0.0
H196 H 0.76957 0.53728 0.59345 0.0
C197 C 0.84003 0.51255 0.45355 0.0
C198 C 0.8222 0.52562 0.41181 0.0
C199 C 0.8376 0.51668 0.51633 0.0
C200 C 0.78781 0.53885 0.62601 0.0
H201 H 0.83125 0.52304 0.93264 0.0
H202 H 0.83542 0.51626 0.82278 0.0
H203 H 0.7642 0.54221 0.70254 0.0
H204 H 0.78805 0.55372 0.40401 0.0
H205 H 0.78431 0.56154 0.51363 0.0
H206 H 0.85767 0.53848 0.63609 0.0
C207 C 0.82072 0.53098 0.83961 0.0
C208 C 0.78471 0.54158 0.68856 0.0
C209 C 0.81812 0.53464 0.90245 0.0
C210 C 0.80229 0.54349 0.43473 0.0
C211 C 0.7999 0.54768 0.49761 0.0
C212 C 0.83714 0.53899 0.64988 0.0
C213 C 0.80451 0.54614 0.79901 0.0
C214 C 0.80778 0.54292 0.73248 0.0
C215 C 0.81734 0.53409 0.53916 0.0
C216 C 0.81406 0.53753 0.60583 0.0
H217 H 0.76816 0.58319 0.90206 0.0
H218 H 0.77275 0.57691 0.7926 0.0
H219 H 0.85221 0.54302 0.74513 0.0
H220 H 0.85584 0.49894 0.43781 0.0
H221 H 0.85124 0.50568 0.54681 0.0
C222 C 0.4608 0.81999 0.86635 0.0
C223 C 0.44691 0.79676 0.88035 0.0
C224 C 0.46071 0.82558 0.80559 0.0
C225 C 0.42532 0.80835 0.64827 0.0
H226 H 0.49468 0.83072 0.59926 0.0
C227 C 0.44758 0.80578 0.39441 0.0
C228 C 0.46424 0.82693 0.37981 0.0
C229 C 0.44289 0.804 0.45531 0.0
C230 C 0.47502 0.82487 0.61226 0.0
H231 H 0.42103 0.76191 0.84118 0.0
H232 H 0.42146 0.77126 0.73546 0.0
H233 H 0.49137 0.82443 0.7058 0.0
H234 H 0.48739 0.86382 0.41694 0.0
H235 H 0.47911 0.86086 0.52269 0.0
H236 H 0.40918 0.80837 0.5541 0.0
C237 C 0.43226 0.7853 0.77144 0.0
C238 C 0.47312 0.82129 0.67349 0.0
C239 C 0.43231 0.77973 0.83215 0.0
C240 C 0.47496 0.84695 0.42689 0.0
C241 C 0.47025 0.84523 0.48753 0.0
C242 C 0.42724 0.81189 0.58683 0.0
C243 C 0.44676 0.80809 0.75729 0.0
C244 C 0.44828 0.81291 0.69233 0.0
C245 C 0.45471 0.82338 0.50274 0.0
C246 C 0.45215 0.82016 0.56811 0.0
H247 H 0.47238 0.83349 0.90205 0.0
H248 H 0.47178 0.84355 0.79645 0.0
H249 H 0.40578 0.80219 0.66131 0.0
H250 H 0.4392 0.78994 0.35924 0.0
H251 H 0.43095 0.78682 0.4655 0.0
C252 C 0.89804 0.51836 0.14148 0.0
C253 C 0.88353 0.54256 0.15595 0.0
C254 C 0.92612 0.51942 0.13682 0.0
C255 C 0.9804 0.56297 0.10104 0.0
H256 H 0.02842 0.51235 0.18339 0.0
C257 C 0.09752 0.5599 0.08325 0.0
C258 C 0.10953 0.53376 0.07897 0.0
C259 C 0.07034 0.56302 0.0964 0.0
C260 C 0.01528 0.52642 0.15949 0.0
H261 H 0.88686 0.58689 0.17643 0.0
H262 H 0.9362 0.5888 0.1669 0.0
H263 H 0.9801 0.51412 0.19967 0.0
H264 H 0.10245 0.49033 0.08363 0.0
H265 H 0.05502 0.49557 0.10454 0.0
H266 H 0.01527 0.57454 0.05887 0.0
C267 C 0.92572 0.56904 0.15973 0.0
C268 C 0.98766 0.52752 0.16918 0.0
C269 C 0.89761 0.56792 0.16542 0.0
C270 C 0.09382 0.51078 0.0872 0.0
C271 C 0.06666 0.51384 0.09969 0.0
C272 C 0.00803 0.56164 0.0907 0.0
C273 C 0.94021 0.54475 0.14568 0.0
C274 C 0.96989 0.5455 0.13939 0.0
C275 C 0.05461 0.54001 0.10502 0.0
C276 C 0.02571 0.543 0.11906 0.0
H277 H 0.88774 0.4985 0.13406 0.0
H278 H 0.93678 0.50044 0.12533 0.0
H279 H 0.96702 0.57687 0.07722 0.0
H280 H 0.10922 0.57799 0.07737 0.0
H281 H 0.06182 0.5835 0.10074 0.0
C282 C 0.44018 0.8969 0.12386 0.0
C283 C 0.46154 0.88035 0.1037 0.0
C284 C 0.44012 0.92511 0.11864 0.0
C285 C 0.48639 0.9824 0.09538 0.0
H286 H 0.41771 0.0208 0.06881 0.0
C287 C 0.48326 0.10076 0.11217 0.0
C288 C 0.46385 0.11285 0.0722 0.0
C289 C 0.48239 0.07248 0.11635 0.0
C290 C 0.43714 0.01043 0.07548 0.0
H291 H 0.49913 0.87999 0.06047 0.0
H292 H 0.49851 0.92897 0.04877 0.0
H293 H 0.41728 0.97131 0.07082 0.0
H294 H 0.42842 0.10498 1.005 0.0
H295 H 0.4275 0.05554 1.01023 0.0
H296 H 0.50632 0.02127 0.09692 0.0
C297 C 0.48224 0.92049 0.07065 0.0
C298 C 0.43687 0.98198 0.07764 0.0
C299 C 0.48253 0.89236 0.07688 0.0
C300 C 0.4435 0.09621 0.03662 0.0
C301 C 0.44291 0.06785 0.03994 0.0
C302 C 0.48668 0.01077 0.09224 0.0
C303 C 0.4612 0.93734 0.09212 0.0
C304 C 0.46149 0.96757 0.08801 0.0
C305 C 0.4624 0.05556 0.07977 0.0
C306 C 0.46205 0.02523 0.08264 0.0
H307 H 0.42384 0.8882 0.1452 0.0
H308 H 0.42384 0.93737 0.13677 0.0
H309 H 0.50578 0.9722 0.10438 0.0
H310 H 0.49904 0.11319 0.14053 0.0
H311 H 0.49737 0.06396 0.14858 0.0
C312 C 0.41185 0.26389 0.01404 0.0
C313 C 0.40033 0.23761 0.99542 0.0
C314 C 0.39547 0.28727 0.01438 0.0
C315 C 0.32223 0.30726 0.01503 0.0
H316 H 0.35122 0.37946 0.99838 0.0
C317 C 0.25581 0.40436 1.00052 0.0
C318 C 0.26354 0.42649 0.0456 0.0
C319 C 0.2729 0.38178 0.9916 0.0
C320 C 0.34299 0.35939 1.00333 0.0
H321 H 0.36299 0.21544 0.95821 0.0
H322 H 0.33463 0.25633 0.95541 0.0
H323 H 0.37986 0.33897 0.98191 0.0
H324 H 0.29596 0.44211 0.11572 0.0
H325 H 0.32632 0.40297 0.09792 0.0
H326 H 0.28501 0.32786 0.03424 0.0
C327 C 0.35609 0.25886 0.97262 0.0
C328 C 0.35936 0.33616 0.99419 0.0
C329 C 0.37239 0.23538 0.97356 0.0
C330 C 0.28933 0.42571 0.0802 0.0
C331 C 0.30671 0.40327 0.07029 0.0
C332 C 0.30572 0.3304 0.02283 0.0
C333 C 0.36723 0.28508 0.99476 0.0
C334 C 0.34931 0.30975 1.00051 0.0
C335 C 0.29844 0.38101 0.02641 0.0
C336 C 0.31604 0.35665 0.0176 0.0
H337 H 0.43335 0.26638 0.0311 0.0
H338 H 0.40489 0.3069 0.0325 0.0
H339 H 0.31385 0.28751 0.02183 0.0
H340 H 0.23657 0.40446 0.9715 0.0
H341 H 0.26627 0.36497 0.95696 0.0
C342 C 0.6969 0.45105 0.14069 0.0
C343 C 0.71844 0.44761 0.10365 0.0
C344 C 0.67784 0.42988 0.14072 0.0
C345 C 0.66854 0.35442 0.09761 0.0
H346 H 0.5927 0.3705 0.12099 0.0
C347 C 0.58002 0.27459 0.04915 0.0
C348 C 0.5622 0.27401 0.0946 0.0
C349 C 0.60018 0.29504 0.05424 0.0
C350 C 0.6139 0.36577 0.11507 0.0
H351 H 0.73646 0.41992 0.03591 0.0
H352 H 0.70252 0.38333 0.03366 0.0
H353 H 0.62478 0.40821 0.11803 0.0
H354 H 0.55146 0.29388 0.18123 0.0
H355 H 0.58654 0.3303 0.18956 0.0
H356 H 0.65711 0.31185 0.09217 0.0
C357 C 0.7008 0.40194 0.06444 0.0
C358 C 0.63234 0.38735 0.11349 0.0
C359 C 0.72012 0.42296 0.06521 0.0
C360 C 0.56513 0.29391 0.14585 0.0
C361 C 0.58499 0.31473 0.15038 0.0
C362 C 0.64997 0.33286 0.09817 0.0
C363 C 0.67965 0.40493 0.10296 0.0
C364 C 0.65992 0.38197 0.1046 0.0
C365 C 0.60253 0.31556 0.10434 0.0
C366 C 0.6225 0.33836 0.10684 0.0
H367 H 0.69542 0.46974 0.17143 0.0
H368 H 0.66219 0.43285 0.17175 0.0
H369 H 0.6897 0.34941 0.09214 0.0
H370 H 0.5781 0.25938 1.00929 0.0
H371 H 0.61336 0.29536 0.01801 0.0
C372 C 0.57059 0.7093 0.1182 0.0
C373 C 0.56042 0.72587 0.16666 0.0
C374 C 0.59257 0.69169 0.12971 0.0
C375 C 0.62632 0.64409 0.17618 0.0
H376 H 0.69169 0.6707 0.28072 0.0
C377 C 0.71264 0.57114 0.25134 0.0
C378 C 0.73896 0.57912 0.24004 0.0
C379 C 0.69096 0.58969 0.24838 0.0
C380 C 0.67353 0.66301 0.25154 0.0
H381 H 0.56571 0.73767 0.26478 0.0
H382 H 0.60428 0.70705 0.28479 0.0
H383 H 0.65364 0.7021 0.26081 0.0
H384 H 0.76353 0.6132 0.22022 0.0
H385 H 0.72571 0.64566 0.21597 0.0
H386 H 0.6462 0.60506 0.16663 0.0
C387 C 0.59516 0.70757 0.23804 0.0
C388 C 0.65175 0.6809 0.24039 0.0
C389 C 0.57298 0.7249 0.22664 0.0
C390 C 0.74346 0.60642 0.22899 0.0
C391 C 0.72184 0.62504 0.22676 0.0
C392 C 0.64794 0.62613 0.18794 0.0
C393 C 0.60503 0.69063 0.18977 0.0
C394 C 0.62803 0.67165 0.20222 0.0
C395 C 0.69525 0.61665 0.23487 0.0
C396 C 0.67182 0.63545 0.22542 0.0
H397 H 0.5612 0.70958 0.07158 0.0
H398 H 0.59995 0.67899 0.0916 0.0
H399 H 0.60817 0.63636 0.14704 0.0
H400 H 0.70848 0.55024 0.25981 0.0
H401 H 0.67069 0.5828 0.25547 0.0
C402 C 0.4047 0.72957 0.12934 0.0
C403 C 0.39307 0.75593 0.13389 0.0
C404 C 0.38807 0.70614 0.11303 0.0
C405 C 0.31929 0.68611 0.03425 0.0
H406 H 0.33461 0.61628 0.09785 0.0
C407 C 0.24105 0.59725 1.01018 0.0
C408 C 0.2502 0.57029 0.99606 0.0
C409 C 0.25959 0.61927 0.02093 0.0
C410 C 0.33035 0.63557 0.07907 0.0
H411 H 0.3548 0.77823 0.12934 0.0
H412 H 0.32579 0.73742 0.10325 0.0
H413 H 0.36437 0.656 0.13468 0.0
H414 H 0.28579 0.54523 0.98051 0.0
H415 H 0.31848 0.58397 1.00014 0.0
H416 H 0.2848 0.66583 0.98004 0.0
C417 C 0.3478 0.73483 0.10993 0.0
C418 C 0.34735 0.65835 0.10022 0.0
C419 C 0.36441 0.75824 0.12556 0.0
C420 C 0.27818 0.56585 0.99082 0.0
C421 C 0.29687 0.58793 1.00259 0.0
C422 C 0.3022 0.66345 0.0136 0.0
C423 C 0.35945 0.70854 0.10157 0.0
C424 C 0.34183 0.68401 0.07858 0.0
C425 C 0.28775 0.61478 0.0186 0.0
C426 C 0.30739 0.63803 0.03622 0.0
H427 H 0.42673 0.72706 0.13536 0.0
H428 H 0.3978 0.68627 0.10682 0.0
H429 H 0.31482 0.70531 0.01524 0.0
H430 H 0.21958 0.60126 0.01454 0.0
H431 H 0.25199 0.63969 0.03361 0.0
loop_
_geom_bond_atom_site_label_1
_geom_bond_atom_site_label_2
_geom_bond_distance
_geom_bond_site_symmetry_2
_ccdc_geom_bond_type
Co0 N4 2.148 . S
Co0 N10 2.128 1_554 S
Co0 N20 2.194 . S
Co0 O25 2.351 . S
Co0 O26 2.155 . S
Co0 O27 2.096 . S
C1 N4 1.301 . S
C1 N5 1.328 . S
C1 H6 0.930 . S
C2 C3 1.333 . S
C2 N4 1.317 . S
C2 H7 0.930 . S
C3 C2 1.333 . S
C3 N5 1.350 . S
C3 H29 0.931 . S
N4 Co0 2.148 . S
N4 C1 1.301 . S
N4 C2 1.317 . S
N5 C1 1.328 . S
N5 C3 1.350 . S
H6 C1 0.930 . S
H7 C2 0.930 . S
C8 O9 1.224 . S
C8 O27 1.247 . S
O9 C8 1.224 . S
N10 Co0 2.128 1_556 S
N10 C11 1.355 . S
N10 C13 1.311 . S
C11 N10 1.355 . S
C11 C12 1.363 . S
C11 H23 0.929 . S
C12 C11 1.363 . S
C12 N14 1.375 . S
C12 H30 0.931 . S
C13 N10 1.311 . S
C13 N14 1.347 . S
C13 H24 0.929 . S
N14 C12 1.375 . S
N14 C13 1.347 . S
C15 C18 1.365 . S
C15 N20 1.328 . S
C15 H21 0.929 . S
C16 C17 1.362 . S
C16 C19 1.378 . S
C16 H31 0.929 . S
C17 C16 1.362 . S
C17 C18 1.366 . S
C18 C15 1.365 . S
C18 C17 1.366 . S
C18 H32 0.930 . S
C19 C16 1.378 . S
C19 N20 1.315 . S
C19 H22 0.930 . S
N20 Co0 2.194 . S
N20 C15 1.328 . S
N20 C19 1.315 . S
H21 C15 0.929 . S
H22 C19 0.930 . S
H23 C11 0.929 . S
H24 C13 0.929 . S
O25 Co0 2.351 . S
O25 C28 1.244 . S
O26 Co0 2.155 . S
O26 C28 1.240 . S
O27 Co0 2.096 . S
O27 C8 1.247 . S
C28 O25 1.244 . S
C28 O26 1.240 . S
H29 C3 0.931 . S
H30 C12 0.931 . S
H31 C16 0.929 . S
H32 C18 0.930 . S
Co33 N37 2.148 . S
Co33 N43 2.128 1_554 S
Co33 N53 2.194 . S
Co33 O58 2.351 . S
Co33 O59 2.155 . S
Co33 O60 2.096 . S
C34 N37 1.301 . S
C34 N38 1.328 . S
C34 H39 0.930 . S
C35 C36 1.333 . S
C35 N37 1.317 . S
C35 H40 0.930 . S
C36 C35 1.333 . S
C36 N38 1.350 . S
C36 H62 0.931 . S
N37 Co33 2.148 . S
N37 C34 1.301 . S
N37 C35 1.317 . S
N38 C34 1.328 . S
N38 C36 1.350 . S
H39 C34 0.930 . S
H40 C35 0.930 . S
C41 O42 1.224 . S
C41 O60 1.247 . S
O42 C41 1.224 . S
N43 Co33 2.128 1_556 S
N43 C44 1.355 . S
N43 C46 1.311 . S
C44 N43 1.355 . S
C44 C45 1.363 . S
C44 H56 0.929 . S
C45 C44 1.363 . S
C45 N47 1.375 . S
C45 H63 0.931 . S
C46 N43 1.311 . S
C46 N47 1.347 . S
C46 H57 0.929 . S
N47 C45 1.375 . S
N47 C46 1.347 . S
C48 C51 1.365 . S
C48 N53 1.328 . S
C48 H54 0.929 . S
C49 C50 1.362 . S
C49 C52 1.378 . S
C49 H64 0.929 . S
C50 C49 1.362 . S
C50 C51 1.366 . S
C51 C48 1.365 . S
C51 C50 1.366 . S
C51 H65 0.930 . S
C52 C49 1.378 . S
C52 N53 1.315 . S
C52 H55 0.930 . S
N53 Co33 2.194 . S
N53 C48 1.328 . S
N53 C52 1.315 . S
H54 C48 0.929 . S
H55 C52 0.930 . S
H56 C44 0.929 . S
H57 C46 0.929 . S
O58 Co33 2.351 . S
O58 C61 1.244 . S
O59 Co33 2.155 . S
O59 C61 1.240 . S
O60 Co33 2.096 . S
O60 C41 1.247 . S
C61 O58 1.244 . S
C61 O59 1.240 . S
H62 C36 0.931 . S
H63 C45 0.931 . S
H64 C49 0.929 . S
H65 C51 0.930 . S
Co66 N70 2.148 . S
Co66 N76 2.128 . S
Co66 N86 2.194 . S
Co66 O91 2.351 . S
Co66 O92 2.155 . S
Co66 O93 2.096 . S
C67 N70 1.301 1_556 S
C67 N71 1.328 . S
C67 H72 0.930 . S
C68 C69 1.333 1_554 S
C68 N70 1.317 . S
C68 H73 0.930 . S
C69 C68 1.333 1_556 S
C69 N71 1.350 . S
C69 H95 0.931 . S
N70 Co66 2.148 . S
N70 C67 1.301 1_554 S
N70 C68 1.317 . S
N71 C67 1.328 . S
N71 C69 1.350 . S
H72 C67 0.930 . S
H73 C68 0.930 . S
C74 O75 1.224 . S
C74 O93 1.247 . S
O75 C74 1.224 . S
N76 Co66 2.128 . S
N76 C77 1.355 . S
N76 C79 1.311 . S
C77 N76 1.355 . S
C77 C78 1.363 . S
C77 H89 0.929 . S
C78 C77 1.363 . S
C78 N80 1.375 . S
C78 H96 0.931 . S
C79 N76 1.311 . S
C79 N80 1.347 . S
C79 H90 0.929 . S
N80 C78 1.375 . S
N80 C79 1.347 . S
C81 C84 1.365 . S
C81 N86 1.328 . S
C81 H87 0.929 . S
C82 C83 1.362 . S
C82 C85 1.378 . S
C82 H97 0.929 . S
C83 C82 1.362 . S
C83 C84 1.366 . S
C84 C81 1.365 . S
C84 C83 1.366 . S
C84 H98 0.930 . S
C85 C82 1.378 . S
C85 N86 1.315 . S
C85 H88 0.930 . S
N86 Co66 2.194 . S
N86 C81 1.328 . S
N86 C85 1.315 . S
H87 C81 0.929 . S
H88 C85 0.930 . S
H89 C77 0.929 . S
H90 C79 0.929 . S
O91 Co66 2.351 . S
O91 C94 1.244 . S
O92 Co66 2.155 . S
O92 C94 1.240 . S
O93 Co66 2.096 . S
O93 C74 1.247 . S
C94 O91 1.244 . S
C94 O92 1.240 . S
H95 C69 0.931 . S
H96 C78 0.931 . S
H97 C82 0.929 . S
H98 C84 0.930 . S
Co99 N103 2.148 . S
Co99 N109 2.128 . S
Co99 N119 2.194 . S
Co99 O124 2.351 . S
Co99 O125 2.155 . S
Co99 O126 2.096 . S
C100 N103 1.301 1_556 S
C100 N104 1.328 . S
C100 H105 0.930 . S
C101 C102 1.333 . S
C101 N103 1.317 1_556 S
C101 H106 0.930 1_556 S
C102 C101 1.333 . S
C102 N104 1.350 . S
C102 H128 0.931 . S
N103 Co99 2.148 . S
N103 C100 1.301 1_554 S
N103 C101 1.317 1_554 S
N104 C100 1.328 . S
N104 C102 1.350 . S
H105 C100 0.930 . S
H106 C101 0.930 1_554 S
C107 O108 1.224 . S
C107 O126 1.247 . S
O108 C107 1.224 . S
N109 Co99 2.128 . S
N109 C110 1.355 . S
N109 C112 1.311 . S
C110 N109 1.355 . S
C110 C111 1.363 . S
C110 H122 0.929 . S
C111 C110 1.363 . S
C111 N113 1.375 . S
C111 H129 0.931 . S
C112 N109 1.311 . S
C112 N113 1.347 . S
C112 H123 0.929 . S
N113 C111 1.375 . S
N113 C112 1.347 . S
C114 C117 1.365 . S
C114 N119 1.328 . S
C114 H120 0.929 . S
C115 C116 1.362 . S
C115 C118 1.378 . S
C115 H130 0.929 . S
C116 C115 1.362 . S
C116 C117 1.366 . S
C117 C114 1.365 . S
C117 C116 1.366 . S
C117 H131 0.930 . S
C118 C115 1.378 . S
C118 N119 1.315 . S
C118 H121 0.930 . S
N119 Co99 2.194 . S
N119 C114 1.328 . S
N119 C118 1.315 . S
H120 C114 0.929 . S
H121 C118 0.930 . S
H122 C110 0.929 . S
H123 C112 0.929 . S
O124 Co99 2.351 . S
O124 C127 1.244 . S
O125 Co99 2.155 . S
O125 C127 1.240 . S
O126 Co99 2.096 . S
O126 C107 1.247 . S
C127 O124 1.244 . S
C127 O125 1.240 . S
H128 C102 0.931 . S
H129 C111 0.931 . S
H130 C115 0.929 . S
H131 C117 0.930 . S
C132 C133 1.349 . S
C132 C134 1.327 . S
C132 H157 0.950 . S
C133 C132 1.349 . S
C133 C149 1.349 . S
C134 C132 1.327 . S
C134 C153 1.429 . S
C134 H158 0.950 . S
C135 C152 1.574 . S
C135 C154 1.368 . S
C135 H159 0.949 . S
H136 C140 0.949 . S
C137 C138 1.349 . S
C137 C139 1.327 . S
C137 H160 0.950 . S
C138 C137 1.349 . S
C138 C150 1.349 . S
C139 C137 1.327 . S
C139 C155 1.429 . S
C139 H161 0.950 . S
C140 H136 0.949 . S
C140 C148 1.574 . S
C140 C156 1.368 . S
H141 C149 0.950 . S
H142 C147 0.950 . S
H143 C148 0.949 . S
H144 C150 0.950 . S
H145 C151 0.950 . S
H146 C152 0.949 . S
C147 H142 0.950 . S
C147 C149 1.327 . S
C147 C153 1.429 . S
C148 C140 1.574 . S
C148 H143 0.949 . S
C148 C154 1.368 . S
C149 C133 1.349 . S
C149 H141 0.950 . S
C149 C147 1.327 . S
C150 C138 1.349 . S
C150 H144 0.950 . S
C150 C151 1.327 . S
C151 H145 0.950 . S
C151 C150 1.327 . S
C151 C155 1.429 . S
C152 C135 1.574 . S
C152 H146 0.949 . S
C152 C156 1.368 . S
C153 C134 1.429 . S
C153 C147 1.429 . S
C153 C154 1.523 . S
C154 C135 1.368 . S
C154 C148 1.368 . S
C154 C153 1.523 . S
C155 C139 1.429 . S
C155 C151 1.429 . S
C155 C156 1.523 . S
C156 C140 1.368 . S
C156 C152 1.368 . S
C156 C155 1.523 . S
H157 C132 0.950 . S
H158 C134 0.950 . S
H159 C135 0.949 . S
H160 C137 0.950 . S
H161 C139 0.950 . S
C162 C163 1.349 . S
C162 C164 1.327 . S
C162 H187 0.950 . S
C163 C162 1.349 . S
C163 C179 1.349 . S
C164 C162 1.327 . S
C164 C183 1.429 . S
C164 H188 0.950 . S
C165 C182 1.574 . S
C165 C184 1.368 . S
C165 H189 0.949 . S
H166 C170 0.949 . S
C167 C168 1.349 . S
C167 C169 1.327 . S
C167 H190 0.950 . S
C168 C167 1.349 . S
C168 C180 1.349 . S
C169 C167 1.327 . S
C169 C185 1.429 . S
C169 H191 0.950 . S
C170 H166 0.949 . S
C170 C178 1.574 . S
C170 C186 1.368 . S
H171 C179 0.950 . S
H172 C177 0.950 . S
H173 C178 0.949 . S
H174 C180 0.950 . S
H175 C181 0.950 . S
H176 C182 0.949 . S
C177 H172 0.950 . S
C177 C179 1.327 . S
C177 C183 1.429 . S
C178 C170 1.574 . S
C178 H173 0.949 . S
C178 C184 1.368 . S
C179 C163 1.349 . S
C179 H171 0.950 . S
C179 C177 1.327 . S
C180 C168 1.349 . S
C180 H174 0.950 . S
C180 C181 1.327 . S
C181 H175 0.950 . S
C181 C180 1.327 . S
C181 C185 1.429 . S
C182 C165 1.574 . S
C182 H176 0.949 . S
C182 C186 1.368 . S
C183 C164 1.429 . S
C183 C177 1.429 . S
C183 C184 1.523 . S
C184 C165 1.368 . S
C184 C178 1.368 . S
C184 C183 1.523 . S
C185 C169 1.429 . S
C185 C181 1.429 . S
C185 C186 1.523 . S
C186 C170 1.368 . S
C186 C182 1.368 . S
C186 C185 1.523 . S
H187 C162 0.950 . S
H188 C164 0.950 . S
H189 C165 0.949 . S
H190 C167 0.950 . S
H191 C169 0.950 . S
C192 C193 1.349 . S
C192 C194 1.327 . S
C192 H217 0.950 . S
C193 C192 1.349 . S
C193 C209 1.349 . S
C194 C192 1.327 . S
C194 C213 1.429 . S
C194 H218 0.950 . S
C195 C212 1.574 . S
C195 C214 1.368 . S
C195 H219 0.949 . S
H196 C200 0.949 . S
C197 C198 1.349 . S
C197 C199 1.327 . S
C197 H220 0.950 . S
C198 C197 1.349 . S
C198 C210 1.349 . S
C199 C197 1.327 . S
C199 C215 1.429 . S
C199 H221 0.950 . S
C200 H196 0.949 . S
C200 C208 1.574 . S
C200 C216 1.368 . S
H201 C209 0.950 . S
H202 C207 0.950 . S
H203 C208 0.949 . S
H204 C210 0.950 . S
H205 C211 0.950 . S
H206 C212 0.949 . S
C207 H202 0.950 . S
C207 C209 1.327 . S
C207 C213 1.429 . S
C208 C200 1.574 . S
C208 H203 0.949 . S
C208 C214 1.368 . S
C209 C193 1.349 . S
C209 H201 0.950 . S
C209 C207 1.327 . S
C210 C198 1.349 . S
C210 H204 0.950 . S
C210 C211 1.327 . S
C211 H205 0.950 . S
C211 C210 1.327 . S
C211 C215 1.429 . S
C212 C195 1.574 . S
C212 H206 0.949 . S
C212 C216 1.368 . S
C213 C194 1.429 . S
C213 C207 1.429 . S
C213 C214 1.523 . S
C214 C195 1.368 . S
C214 C208 1.368 . S
C214 C213 1.523 . S
C215 C199 1.429 . S
C215 C211 1.429 . S
C215 C216 1.523 . S
C216 C200 1.368 . S
C216 C212 1.368 . S
C216 C215 1.523 . S
H217 C192 0.950 . S
H218 C194 0.950 . S
H219 C195 0.949 . S
H220 C197 0.950 . S
H221 C199 0.950 . S
C222 C223 1.349 . S
C222 C224 1.327 . S
C222 H247 0.950 . S
C223 C222 1.349 . S
C223 C239 1.349 . S
C224 C222 1.327 . S
C224 C243 1.429 . S
C224 H248 0.950 . S
C225 C242 1.574 . S
C225 C244 1.368 . S
C225 H249 0.949 . S
H226 C230 0.949 . S
C227 C228 1.349 . S
C227 C229 1.327 . S
C227 H250 0.950 . S
C228 C227 1.349 . S
C228 C240 1.349 . S
C229 C227 1.327 . S
C229 C245 1.429 . S
C229 H251 0.950 . S
C230 H226 0.949 . S
C230 C238 1.574 . S
C230 C246 1.368 . S
H231 C239 0.950 . S
H232 C237 0.950 . S
H233 C238 0.949 . S
H234 C240 0.950 . S
H235 C241 0.950 . S
H236 C242 0.949 . S
C237 H232 0.950 . S
C237 C239 1.327 . S
C237 C243 1.429 . S
C238 C230 1.574 . S
C238 H233 0.949 . S
C238 C244 1.368 . S
C239 C223 1.349 . S
C239 H231 0.950 . S
C239 C237 1.327 . S
C240 C228 1.349 . S
C240 H234 0.950 . S
C240 C241 1.327 . S
C241 H235 0.950 . S
C241 C240 1.327 . S
C241 C245 1.429 . S
C242 C225 1.574 . S
C242 H236 0.949 . S
C242 C246 1.368 . S
C243 C224 1.429 . S
C243 C237 1.429 . S
C243 C244 1.523 . S
C244 C225 1.368 . S
C244 C238 1.368 . S
C244 C243 1.523 . S
C245 C229 1.429 . S
C245 C241 1.429 . S
C245 C246 1.523 . S
C246 C230 1.368 . S
C246 C242 1.368 . S
C246 C245 1.523 . S
H247 C222 0.950 . S
H248 C224 0.950 . S
H249 C225 0.949 . S
H250 C227 0.950 . S
H251 C229 0.950 . S
C252 C253 1.349 . S
C252 C254 1.327 . S
C252 H277 0.950 . S
C253 C252 1.349 . S
C253 C269 1.349 . S
C254 C252 1.327 . S
C254 C273 1.429 . S
C254 H278 0.950 . S
C255 C272 1.574 1_655 S
C255 C274 1.368 . S
C255 H279 0.949 . S
H256 C260 0.949 . S
C257 C258 1.349 . S
C257 C259 1.327 . S
C257 H280 0.950 . S
C258 C257 1.349 . S
C258 C270 1.349 . S
C259 C257 1.327 . S
C259 C275 1.429 . S
C259 H281 0.950 . S
C260 H256 0.949 . S
C260 C268 1.574 1_455 S
C260 C276 1.368 . S
H261 C269 0.950 . S
H262 C267 0.950 . S
H263 C268 0.949 . S
H264 C270 0.950 . S
H265 C271 0.950 . S
H266 C272 0.949 . S
C267 H262 0.950 . S
C267 C269 1.327 . S
C267 C273 1.429 . S
C268 C260 1.574 1_655 S
C268 H263 0.949 . S
C268 C274 1.368 . S
C269 C253 1.349 . S
C269 H261 0.950 . S
C269 C267 1.327 . S
C270 C258 1.349 . S
C270 H264 0.950 . S
C270 C271 1.327 . S
C271 H265 0.950 . S
C271 C270 1.327 . S
C271 C275 1.429 . S
C272 C255 1.574 1_455 S
C272 H266 0.949 . S
C272 C276 1.368 . S
C273 C254 1.429 . S
C273 C267 1.429 . S
C273 C274 1.523 . S
C274 C255 1.368 . S
C274 C268 1.368 . S
C274 C273 1.523 . S
C275 C259 1.429 . S
C275 C271 1.429 . S
C275 C276 1.523 . S
C276 C260 1.368 . S
C276 C272 1.368 . S
C276 C275 1.523 . S
H277 C252 0.950 . S
H278 C254 0.950 . S
H279 C255 0.949 . S
H280 C257 0.950 . S
H281 C259 0.950 . S
C282 C283 1.349 . S
C282 C284 1.327 . S
C282 H307 0.950 . S
C283 C282 1.349 . S
C283 C299 1.349 . S
C284 C282 1.327 . S
C284 C303 1.429 . S
C284 H308 0.950 . S
C285 C302 1.574 1_565 S
C285 C304 1.368 . S
C285 H309 0.949 . S
H286 C290 0.953 . S
C287 C288 1.349 . S
C287 C289 1.327 . S
C287 H310 0.950 . S
C288 C287 1.349 . S
C288 C300 1.349 . S
C289 C287 1.327 . S
C289 C305 1.429 . S
C289 H311 0.950 . S
C290 H286 0.953 . S
C290 C298 1.574 1_545 S
C290 C306 1.368 . S
H291 C299 0.950 . S
H292 C297 0.950 . S
H293 C298 0.949 . S
H294 C300 0.950 1_556 S
H295 C301 0.950 1_556 S
H296 C302 0.949 . S
C297 H292 0.950 . S
C297 C299 1.327 . S
C297 C303 1.429 . S
C298 C290 1.574 1_565 S
C298 H293 0.949 . S
C298 C304 1.368 . S
C299 C283 1.349 . S
C299 H291 0.950 . S
C299 C297 1.327 . S
C300 C288 1.349 . S
C300 H294 0.950 1_554 S
C300 C301 1.327 . S
C301 H295 0.950 1_554 S
C301 C300 1.327 . S
C301 C305 1.429 . S
C302 C285 1.574 1_545 S
C302 H296 0.949 . S
C302 C306 1.368 . S
C303 C284 1.429 . S
C303 C297 1.429 . S
C303 C304 1.523 . S
C304 C285 1.368 . S
C304 C298 1.368 . S
C304 C303 1.523 . S
C305 C289 1.429 . S
C305 C301 1.429 . S
C305 C306 1.523 . S
C306 C290 1.368 . S
C306 C302 1.368 . S
C306 C305 1.523 . S
H307 C282 0.950 . S
H308 C284 0.950 . S
H309 C285 0.949 . S
H310 C287 0.950 . S
H311 C289 0.950 . S
C312 C313 1.349 . S
C312 C314 1.327 . S
C312 H337 0.950 . S
C313 C312 1.349 . S
C313 C329 1.349 1_554 S
C314 C312 1.327 . S
C314 C333 1.429 . S
C314 H338 0.950 . S
C315 C332 1.574 . S
C315 C334 1.368 1_556 S
C315 H339 0.949 . S
H316 C320 0.949 . S
C317 C318 1.349 . S
C317 C319 1.327 1_554 S
C317 H340 0.950 1_554 S
C318 C317 1.349 . S
C318 C330 1.349 . S
C319 C317 1.327 1_556 S
C319 C335 1.429 1_556 S
C319 H341 0.950 . S
C320 H316 0.949 . S
C320 C328 1.574 . S
C320 C336 1.368 . S
H321 C329 0.950 . S
H322 C327 0.950 . S
H323 C328 0.949 . S
H324 C330 0.950 . S
H325 C331 0.950 . S
H326 C332 0.949 . S
C327 H322 0.950 . S
C327 C329 1.327 . S
C327 C333 1.429 1_556 S
C328 C320 1.574 . S
C328 H323 0.949 . S
C328 C334 1.368 . S
C329 C313 1.349 1_556 S
C329 H321 0.950 . S
C329 C327 1.327 . S
C330 C318 1.349 . S
C330 H324 0.950 . S
C330 C331 1.327 . S
C331 H325 0.950 . S
C331 C330 1.327 . S
C331 C335 1.429 . S
C332 C315 1.574 . S
C332 H326 0.949 . S
C332 C336 1.368 1_556 S
C333 C314 1.429 . S
C333 C327 1.429 1_554 S
C333 C334 1.523 . S
C334 C315 1.368 1_554 S
C334 C328 1.368 . S
C334 C333 1.523 . S
C335 C319 1.429 1_554 S
C335 C331 1.429 . S
C335 C336 1.523 . S
C336 C320 1.368 . S
C336 C332 1.368 1_554 S
C336 C335 1.523 . S
H337 C312 0.950 . S
H338 C314 0.950 . S
H339 C315 0.949 . S
H340 C317 0.950 1_556 S
H341 C319 0.950 . S
C342 C343 1.349 . S
C342 C344 1.327 . S
C342 H367 0.950 . S
C343 C342 1.349 . S
C343 C359 1.349 . S
C344 C342 1.327 . S
C344 C363 1.429 . S
C344 H368 0.950 . S
C345 C362 1.574 . S
C345 C364 1.368 . S
C345 H369 0.949 . S
H346 C350 0.949 . S
C347 C348 1.349 . S
C347 C349 1.327 . S
C347 H370 0.950 . S
C348 C347 1.349 . S
C348 C360 1.349 . S
C349 C347 1.327 . S
C349 C365 1.429 . S
C349 H371 0.950 . S
C350 H346 0.949 . S
C350 C358 1.574 . S
C350 C366 1.368 . S
H351 C359 0.950 . S
H352 C357 0.950 . S
H353 C358 0.949 . S
H354 C360 0.950 . S
H355 C361 0.950 . S
H356 C362 0.949 . S
C357 H352 0.950 . S
C357 C359 1.327 . S
C357 C363 1.429 . S
C358 C350 1.574 . S
C358 H353 0.949 . S
C358 C364 1.368 . S
C359 C343 1.349 . S
C359 H351 0.950 . S
C359 C357 1.327 . S
C360 C348 1.349 . S
C360 H354 0.950 . S
C360 C361 1.327 . S
C361 H355 0.950 . S
C361 C360 1.327 . S
C361 C365 1.429 . S
C362 C345 1.574 . S
C362 H356 0.949 . S
C362 C366 1.368 . S
C363 C344 1.429 . S
C363 C357 1.429 . S
C363 C364 1.523 . S
C364 C345 1.368 . S
C364 C358 1.368 . S
C364 C363 1.523 . S
C365 C349 1.429 . S
C365 C361 1.429 . S
C365 C366 1.523 . S
C366 C350 1.368 . S
C366 C362 1.368 . S
C366 C365 1.523 . S
H367 C342 0.950 . S
H368 C344 0.950 . S
H369 C345 0.949 . S
H370 C347 0.950 . S
H371 C349 0.950 . S
C372 C373 1.349 . S
C372 C374 1.327 . S
C372 H397 0.950 . S
C373 C372 1.349 . S
C373 C389 1.349 . S
C374 C372 1.327 . S
C374 C393 1.429 . S
C374 H398 0.950 . S
C375 C392 1.574 . S
C375 C394 1.368 . S
C375 H399 0.949 . S
H376 C380 0.949 . S
C377 C378 1.349 . S
C377 C379 1.327 . S
C377 H400 0.950 . S
C378 C377 1.349 . S
C378 C390 1.349 . S
C379 C377 1.327 . S
C379 C395 1.429 . S
C379 H401 0.950 . S
C380 H376 0.949 . S
C380 C388 1.574 . S
C380 C396 1.368 . S
H381 C389 0.950 . S
H382 C387 0.950 . S
H383 C388 0.949 . S
H384 C390 0.950 . S
H385 C391 0.950 . S
H386 C392 0.949 . S
C387 H382 0.950 . S
C387 C389 1.327 . S
C387 C393 1.429 . S
C388 C380 1.574 . S
C388 H383 0.949 . S
C388 C394 1.368 . S
C389 C373 1.349 . S
C389 H381 0.950 . S
C389 C387 1.327 . S
C390 C378 1.349 . S
C390 H384 0.950 . S
C390 C391 1.327 . S
C391 H385 0.950 . S
C391 C390 1.327 . S
C391 C395 1.429 . S
C392 C375 1.574 . S
C392 H386 0.949 . S
C392 C396 1.368 . S
C393 C374 1.429 . S
C393 C387 1.429 . S
C393 C394 1.523 . S
C394 C375 1.368 . S
C394 C388 1.368 . S
C394 C393 1.523 . S
C395 C379 1.429 . S
C395 C391 1.429 . S
C395 C396 1.523 . S
C396 C380 1.368 . S
C396 C392 1.368 . S
C396 C395 1.523 . S
H397 C372 0.950 . S
H398 C374 0.950 . S
H399 C375 0.949 . S
H400 C377 0.950 . S
H401 C379 0.950 . S
C402 C403 1.349 . S
C402 C404 1.327 . S
C402 H427 0.950 . S
C403 C402 1.349 . S
C403 C419 1.349 . S
C404 C402 1.327 . S
C404 C423 1.429 . S
C404 H428 0.950 . S
C405 C422 1.574 . S
C405 C424 1.368 . S
C405 H429 0.949 . S
H406 C410 0.949 . S
C407 C408 1.349 . S
C407 C409 1.327 . S
C407 H430 0.950 . S
C408 C407 1.349 . S
C408 C420 1.349 . S
C409 C407 1.327 . S
C409 C425 1.429 . S
C409 H431 0.950 . S
C410 H406 0.949 . S
C410 C418 1.574 . S
C410 C426 1.368 . S
H411 C419 0.950 . S
H412 C417 0.950 . S
H413 C418 0.949 . S
H414 C420 0.950 . S
H415 C421 0.950 . S
H416 C422 0.949 . S
C417 H412 0.950 . S
C417 C419 1.327 . S
C417 C423 1.429 . S
C418 C410 1.574 . S
C418 H413 0.949 . S
C418 C424 1.368 . S
C419 C403 1.349 . S
C419 H411 0.950 . S
C419 C417 1.327 . S
C420 C408 1.349 . S
C420 H414 0.950 . S
C420 C421 1.327 . S
C421 H415 0.950 . S
C421 C420 1.327 . S
C421 C425 1.429 . S
C422 C405 1.574 . S
C422 H416 0.949 . S
C422 C426 1.368 . S
C423 C404 1.429 . S
C423 C417 1.429 . S
C423 C424 1.523 . S
C424 C405 1.368 . S
C424 C418 1.368 . S
C424 C423 1.523 . S
C425 C409 1.429 . S
C425 C421 1.429 . S
C425 C426 1.523 . S
C426 C410 1.368 . S
C426 C422 1.368 . S
C426 C425 1.523 . S
H427 C402 0.950 . S
H428 C404 0.950 . S
H429 C405 0.949 . S
H430 C407 0.950 . S
H431 C409 0.950 . S
C133 N14 1.443 . S
C138 N5 1.450 . S
C163 N47 1.451 . S
C168 N38 1.460 . S
C193 N71 1.460 . S
C198 N80 1.451 . S
C223 N104 1.450 . S
C228 N113 1.443 . S
C253 C94 0.855 . S
C258 C28 0.855 . S
C283 C127 0.855 . S
C288 C61 0.855 . S
C313 C41 1.416 . S
C318 C17 1.433 . S
C343 C83 1.169 . S
C348 C50 1.169 . S
C373 C116 1.433 . S
C378 C74 1.416 . S
C403 C107 1.728 . S
C408 C8 1.728 . S
