# Generated by pormake.
# Topology wjf, (4)-cn, num edge types: 1
# Building blocks:
#     Node 0, Type 0, BuildingBlock: KUFVIS_clean_sbu_0, # of connection points: 4
#     Node 1, Type 0, BuildingBlock: KUFVIS_clean_sbu_0, # of connection points: 4
#     Node 2, Type 0, BuildingBlock: KUFVIS_clean_sbu_0, # of connection points: 4
#     Node 3, Type 0, BuildingBlock: KUFVIS_clean_sbu_0, # of connection points: 4
#     Node 4, Type 0, BuildingBlock: KUFVIS_clean_sbu_0, # of connection points: 4
#     Node 5, Type 0, BuildingBlock: KUFVIS_clean_sbu_0, # of connection points: 4
#     Node 6, Type 0, BuildingBlock: KUFVIS_clean_sbu_0, # of connection points: 4
#     Node 7, Type 0, BuildingBlock: KUFVIS_clean_sbu_0, # of connection points: 4
#     Node 8, Type 0, BuildingBlock: KUFVIS_clean_sbu_0, # of connection points: 4
#     Node 9, Type 0, BuildingBlock: KUFVIS_clean_sbu_0, # of connection points: 4
#     Node 10, Type 0, BuildingBlock: KUFVIS_clean_sbu_0, # of connection points: 4
#     Node 11, Type 0, BuildingBlock: KUFVIS_clean_sbu_0, # of connection points: 4
#     Edge 12, Type (0, 0), BuildingBlock: KIFKEQ_clean_linker_1, # of connection points: 2
#     Edge 13, Type (0, 0), BuildingBlock: KIFKEQ_clean_linker_1, # of connection points: 2
#     Edge 14, Type (0, 0), BuildingBlock: KIFKEQ_clean_linker_1, # of connection points: 2
#     Edge 15, Type (0, 0), BuildingBlock: KIFKEQ_clean_linker_1, # of connection points: 2
#     Edge 16, Type (0, 0), BuildingBlock: KIFKEQ_clean_linker_1, # of connection points: 2
#     Edge 17, Type (0, 0), BuildingBlock: KIFKEQ_clean_linker_1, # of connection points: 2
#     Edge 18, Type (0, 0), BuildingBlock: KIFKEQ_clean_linker_1, # of connection points: 2
#     Edge 19, Type (0, 0), BuildingBlock: KIFKEQ_clean_linker_1, # of connection points: 2
#     Edge 20, Type (0, 0), BuildingBlock: KIFKEQ_clean_linker_1, # of connection points: 2
#     Edge 21, Type (0, 0), BuildingBlock: KIFKEQ_clean_linker_1, # of connection points: 2
#     Edge 22, Type (0, 0), BuildingBlock: KIFKEQ_clean_linker_1, # of connection points: 2
#     Edge 23, Type (0, 0), BuildingBlock: KIFKEQ_clean_linker_1, # of connection points: 2
#     Edge 24, Type (0, 0), BuildingBlock: KIFKEQ_clean_linker_1, # of connection points: 2
#     Edge 25, Type (0, 0), BuildingBlock: KIFKEQ_clean_linker_1, # of connection points: 2
#     Edge 26, Type (0, 0), BuildingBlock: KIFKEQ_clean_linker_1, # of connection points: 2
#     Edge 27, Type (0, 0), BuildingBlock: KIFKEQ_clean_linker_1, # of connection points: 2
#     Edge 28, Type (0, 0), BuildingBlock: KIFKEQ_clean_linker_1, # of connection points: 2
#     Edge 29, Type (0, 0), BuildingBlock: KIFKEQ_clean_linker_1, # of connection points: 2
#     Edge 30, Type (0, 0), BuildingBlock: KIFKEQ_clean_linker_1, # of connection points: 2
#     Edge 31, Type (0, 0), BuildingBlock: KIFKEQ_clean_linker_1, # of connection points: 2
#     Edge 32, Type (0, 0), BuildingBlock: KIFKEQ_clean_linker_1, # of connection points: 2
#     Edge 33, Type (0, 0), BuildingBlock: KIFKEQ_clean_linker_1, # of connection points: 2
#     Edge 34, Type (0, 0), BuildingBlock: KIFKEQ_clean_linker_1, # of connection points: 2
#     Edge 35, Type (0, 0), BuildingBlock: KIFKEQ_clean_linker_1, # of connection points: 2
# Relax obj value: 0.142
# Max RMSD: 0.205
# Mean RMSD: 0.179
data_MOF--net-wjf--node1-KUFVIS_clean_sbu_0--edge1-KIFKEQ_clean_linker_1
_symmetry_space_group_name_H-M    P1
_symmetry_Int_Tables_number       1
_symmetry_cell_setting            triclinic
loop_
_symmetry_equiv_pos_as_xyz
'x, y, z'
_cell_length_a     48.321703
_cell_length_b     51.024842
_cell_length_c     28.393922
_cell_angle_alpha  89.964387
_cell_angle_beta   89.969103
_cell_angle_gamma 118.22883
loop_
_atom_site_label
_atom_site_type_symbol
_atom_site_fract_x
_atom_site_fract_y
_atom_site_fract_z
_atom_type_partial_charge
Mn0 Mn 0.33664 0.3922 0.12341 0.0
Mn1 Mn 0.36946 0.45076 0.04894 0.0
C2 C 0.38969 0.42558 0.12817 0.0
C3 C 0.31309 0.37154 0.1956 0.0
C4 C 0.35643 0.38933 0.02134 0.0
O5 O 0.29771 0.39269 0.0967 0.0
O6 O 0.3232 0.43007 0.04535 0.0
C7 C 0.34655 0.48725 0.10016 0.0
N8 N 0.37066 0.48421 0.08081 0.0
C9 C 0.40763 0.53484 0.09953 0.0
C10 C 0.38319 0.53858 0.11955 0.0
C11 C 0.35254 0.51462 0.12008 0.0
C12 C 0.40031 0.50693 0.08088 0.0
H13 H 0.32293 0.46893 0.10024 0.0
C14 C 0.29802 0.40906 0.0625 0.0
O15 O 0.31085 0.3547 0.15989 0.0
O16 O 0.32718 0.39997 0.18826 0.0
N17 N 0.41416 0.47339 0.04655 0.0
C18 C 0.43481 0.46623 0.02478 0.0
C19 C 0.46631 0.48795 0.01985 0.0
C20 C 0.47618 0.51687 0.03679 0.0
C21 C 0.45439 0.52386 0.05836 0.0
C22 C 0.42323 0.50136 0.0618 0.0
H23 H 0.4272 0.44422 0.01072 0.0
O24 O 0.3787 0.39896 0.14505 0.0
O25 O 0.36935 0.43241 0.10947 0.0
O26 O 0.34235 0.37621 0.05928 0.0
O27 O 0.36926 0.41737 0.01467 0.0
C28 C 0.46225 0.55232 0.07613 0.0
C29 C 0.43896 0.55772 0.09715 0.0
H30 H 0.38768 0.55972 0.13459 0.0
H31 H 0.33356 0.51731 0.13551 0.0
H32 H 0.48274 0.48252 0.00216 0.0
H33 H 0.50048 0.53362 0.03264 0.0
H34 H 0.48616 0.5702 0.07395 0.0
H35 H 0.44533 0.57961 0.11103 0.0
Mn36 Mn 0.95329 0.33328 0.37751 0.0
Mn37 Mn 0.03176 0.37333 0.36447 0.0
C38 C 0.97436 0.34725 0.30341 0.0
C39 C 0.90869 0.28674 0.38008 0.0
C40 C 0.99066 0.40053 0.39492 0.0
O41 O 0.96948 0.32853 0.44131 0.0
O42 O 0.02154 0.35417 0.42778 0.0
C43 C 0.04669 0.32336 0.36454 0.0
N44 N 0.04782 0.34768 0.34292 0.0
C45 C 0.07627 0.34251 0.27715 0.0
C46 C 0.0756 0.31752 0.29885 0.0
C47 C 0.06067 0.30787 0.34268 0.0
C48 C 0.06202 0.35709 0.30068 0.0
H49 H 0.03517 0.31582 0.39817 0.0
C50 C 0.99795 0.33832 0.45427 0.0
O51 O 0.90829 0.31008 0.39778 0.0
O52 O 0.93536 0.29026 0.36439 0.0
N53 N 0.04521 0.3929 0.30491 0.0
C54 C 0.04248 0.41651 0.28769 0.0
C55 C 0.05532 0.42831 0.24342 0.0
C56 C 0.07117 0.41599 0.21762 0.0
C57 C 0.0741 0.39201 0.2364 0.0
C58 C 0.06084 0.38118 0.2807 0.0
H59 H 0.03035 0.42608 0.30739 0.0
O60 O 0.94519 0.33982 0.31126 0.0
O61 O 0.99043 0.34576 0.33921 0.0
O62 O 0.96433 0.3766 0.39355 0.0
O63 O 0.017 0.40147 0.38549 0.0
C64 C 0.08921 0.37809 0.21257 0.0
C65 C 0.09018 0.35329 0.23284 0.0
H66 H 0.08628 0.30545 0.28204 0.0
H67 H 0.05993 0.28852 0.35955 0.0
H68 H 0.05296 0.44683 0.22916 0.0
H69 H 0.08083 0.42501 0.18333 0.0
H70 H 0.09986 0.38608 0.1784 0.0
H71 H 0.10148 0.34253 0.21386 0.0
Mn72 Mn 0.61786 0.95257 0.76542 0.0
Mn73 Mn 0.55314 0.91319 0.69889 0.0
C74 C 0.5791 0.96689 0.76224 0.0
C75 C 0.64392 0.96049 0.83775 0.0
C76 C 0.61639 0.95719 0.65841 0.0
O77 O 0.62016 0.91439 0.75054 0.0
O78 O 0.57357 0.88849 0.71385 0.0
C79 C 0.51406 0.868 0.76929 0.0
N80 N 0.51784 0.88966 0.73797 0.0
C81 C 0.46494 0.88093 0.75063 0.0
C82 C 0.46037 0.85838 0.78286 0.0
C83 C 0.48511 0.85201 0.79241 0.0
C84 C 0.49436 0.89622 0.72892 0.0
H85 H 0.53299 0.86295 0.77644 0.0
C86 C 0.59922 0.89085 0.73068 0.0
O87 O 0.65933 0.97094 0.79874 0.0
O88 O 0.61379 0.94396 0.83423 0.0
N89 N 0.53055 0.93394 0.68112 0.0
C90 C 0.53946 0.95754 0.65137 0.0
C91 C 0.5178 0.96752 0.63945 0.0
C92 C 0.48705 0.95273 0.65737 0.0
C93 C 0.47831 0.92823 0.68743 0.0
C94 C 0.50098 0.91947 0.69838 0.0
H95 H 0.56294 0.96872 0.637 0.0
O96 O 0.60718 0.98523 0.77631 0.0
O97 O 0.57399 0.9401 0.7518 0.0
O98 O 0.63095 0.9669 0.69731 0.0
O99 O 0.5879 0.93681 0.65534 0.0
C100 C 0.44815 0.91241 0.70754 0.0
C101 C 0.44156 0.88896 0.73942 0.0
H102 H 0.43805 0.84595 0.80066 0.0
H103 H 0.4818 0.83472 0.81735 0.0
H104 H 0.52472 0.98646 0.61631 0.0
H105 H 0.47043 0.9605 0.64806 0.0
H106 H 0.42994 0.91832 0.69919 0.0
H107 H 0.41846 0.87735 0.7553 0.0
Mn108 Mn 0.66851 0.61228 0.14578 0.0
Mn109 Mn 0.64744 0.55021 0.08128 0.0
C110 C 0.61701 0.57503 0.14821 0.0
C111 C 0.68913 0.63654 0.21702 0.0
C112 C 0.65797 0.6093 0.04021 0.0
O113 O 0.71031 0.61592 0.12367 0.0
O114 O 0.69323 0.57023 0.09265 0.0
C115 C 0.66122 0.51495 0.15112 0.0
N116 N 0.64073 0.51761 0.12112 0.0
C117 C 0.60105 0.46746 0.13682 0.0
C118 C 0.62175 0.46407 0.16776 0.0
C119 C 0.65192 0.48799 0.17513 0.0
C120 C 0.61154 0.49492 0.11424 0.0
H121 H 0.6845 0.53325 0.15652 0.0
C122 C 0.71513 0.59588 0.10437 0.0
O123 O 0.68982 0.65152 0.17954 0.0
O124 O 0.67789 0.60811 0.21224 0.0
N125 N 0.60377 0.52798 0.06657 0.0
C126 C 0.58633 0.5353 0.03692 0.0
C127 C 0.55541 0.51397 0.02626 0.0
C128 C 0.54294 0.48525 0.04554 0.0
C129 C 0.56148 0.47812 0.07544 0.0
C130 C 0.59212 0.50028 0.08479 0.0
H131 H 0.59601 0.55718 0.02135 0.0
O132 O 0.62456 0.60148 0.16334 0.0
O133 O 0.64015 0.57062 0.13421 0.0
O134 O 0.6617 0.6236 0.07875 0.0
O135 O 0.65363 0.5826 0.03767 0.0
C136 C 0.55071 0.44997 0.09662 0.0
C137 C 0.57037 0.44472 0.12762 0.0
H138 H 0.61471 0.44327 0.18618 0.0
H139 H 0.66801 0.48558 0.19904 0.0
H140 H 0.54139 0.51959 0.00277 0.0
H141 H 0.51914 0.46877 0.0372 0.0
H142 H 0.52722 0.43227 0.08969 0.0
H143 H 0.56166 0.42315 0.14425 0.0
Mn144 Mn 0.04035 0.67017 0.3712 0.0
Mn145 Mn 0.96185 0.63 0.35889 0.0
C146 C 0.01909 0.6557 0.29732 0.0
C147 C 0.08498 0.71675 0.37285 0.0
C148 C 0.00304 0.60305 0.39013 0.0
O149 O 0.02427 0.67529 0.43496 0.0
O150 O 0.97219 0.64957 0.42185 0.0
C151 C 0.94687 0.67992 0.35783 0.0
N152 N 0.94572 0.65547 0.33673 0.0
C153 C 0.91718 0.6602 0.27072 0.0
C154 C 0.91787 0.68532 0.29189 0.0
C155 C 0.93284 0.69526 0.33558 0.0
C156 C 0.93147 0.64577 0.29464 0.0
H157 H 0.95842 0.68768 0.39134 0.0
C158 C 0.99582 0.66553 0.4481 0.0
O159 O 0.0854 0.69351 0.39103 0.0
O160 O 0.05828 0.71312 0.35721 0.0
N161 N 0.94831 0.61001 0.29972 0.0
C162 C 0.95104 0.5863 0.28303 0.0
C163 C 0.93816 0.57421 0.23896 0.0
C164 C 0.92227 0.58635 0.21282 0.0
C165 C 0.91934 0.61045 0.23107 0.0
C166 C 0.93264 0.62156 0.27519 0.0
H167 H 0.9632 0.57687 0.30299 0.0
O168 O 0.04828 0.66318 0.30506 0.0
O169 O 0.00311 0.65741 0.33309 0.0
O170 O 0.02937 0.62697 0.38819 0.0
O171 O 0.97668 0.60203 0.38061 0.0
C172 C 0.90422 0.62421 0.20686 0.0
C173 C 0.90325 0.64913 0.22658 0.0
H174 H 0.90717 0.69727 0.27477 0.0
H175 H 0.9336 0.71471 0.35203 0.0
H176 H 0.94051 0.5556 0.22513 0.0
H177 H 0.91258 0.5771 0.17869 0.0
H178 H 0.89355 0.616 0.17279 0.0
H179 H 0.89193 0.65976 0.20732 0.0
Mn180 Mn 0.37859 0.05154 0.75824 0.0
Mn181 Mn 0.44353 0.08977 0.69134 0.0
C182 C 0.41728 0.03707 0.75684 0.0
C183 C 0.35238 0.0444 0.83042 0.0
C184 C 0.38029 0.04539 0.65153 0.0
O185 O 0.37644 0.08956 0.74122 0.0
O186 O 0.42307 0.11472 0.70412 0.0
C187 C 0.4824 0.13606 0.76024 0.0
N188 N 0.4787 0.11389 0.73011 0.0
C189 C 0.53152 0.12275 0.74396 0.0
C190 C 0.53601 0.14582 0.77497 0.0
C191 C 0.51128 0.15239 0.78332 0.0
C192 C 0.50218 0.10716 0.72222 0.0
H193 H 0.46348 0.14126 0.76645 0.0
C194 C 0.3974 0.11267 0.7203 0.0
O195 O 0.33705 0.0336 0.7915 0.0
O196 O 0.3825 0.06099 0.82677 0.0
N197 N 0.46612 0.0687 0.67554 0.0
C198 C 0.45727 0.04461 0.64695 0.0
C199 C 0.47893 0.03438 0.63638 0.0
C200 C 0.50961 0.04941 0.6544 0.0
C201 C 0.51829 0.07441 0.68323 0.0
C202 C 0.49563 0.0834 0.69288 0.0
H203 H 0.43384 0.03323 0.6325 0.0
O204 O 0.38912 0.01896 0.77101 0.0
O205 O 0.42248 0.06372 0.74515 0.0
O206 O 0.3656 0.03635 0.69054 0.0
O207 O 0.40888 0.0655 0.64812 0.0
C208 C 0.54838 0.09051 0.70336 0.0
C209 C 0.5549 0.11449 0.73402 0.0
H210 H 0.55827 0.15851 0.79275 0.0
H211 H 0.51452 0.17009 0.80732 0.0
H212 H 0.47205 0.01505 0.61418 0.0
H213 H 0.52622 0.04144 0.64615 0.0
H214 H 0.56659 0.08443 0.69598 0.0
H215 H 0.57794 0.12633 0.74995 0.0
Mn216 Mn 0.6251 0.6685 0.6327 0.0
Mn217 Mn 0.66356 0.62828 0.64335 0.0
C218 C 0.63168 0.65312 0.7062 0.0
C219 C 0.62665 0.71492 0.63164 0.0
C220 C 0.59561 0.60168 0.61161 0.0
O221 O 0.64651 0.67441 0.5689 0.0
O222 O 0.67305 0.64872 0.58099 0.0
C223 C 0.72836 0.67826 0.64572 0.0
N224 N 0.70502 0.65347 0.66609 0.0
C225 C 0.73807 0.65723 0.73186 0.0
C226 C 0.76254 0.68268 0.71144 0.0
C227 C 0.75762 0.69327 0.66824 0.0
C228 C 0.70945 0.64315 0.70771 0.0
H229 H 0.72465 0.68651 0.61258 0.0
C230 C 0.66535 0.66492 0.55529 0.0
O231 O 0.60322 0.69171 0.61316 0.0
O232 O 0.64973 0.71139 0.64765 0.0
N233 N 0.65692 0.60747 0.70183 0.0
C234 C 0.63044 0.58353 0.71789 0.0
C235 C 0.6311 0.57078 0.76146 0.0
C236 C 0.65903 0.58252 0.78772 0.0
C237 C 0.6861 0.60688 0.77012 0.0
C238 C 0.68404 0.61864 0.72648 0.0
H239 H 0.60892 0.5744 0.69782 0.0
O240 O 0.60998 0.66069 0.69881 0.0
O241 O 0.64951 0.65532 0.67032 0.0
O242 O 0.59315 0.62553 0.61458 0.0
O243 O 0.62091 0.60052 0.62089 0.0
C244 C 0.71489 0.62029 0.79454 0.0
C245 C 0.74081 0.64551 0.77552 0.0
H246 H 0.78511 0.69438 0.72877 0.0
H247 H 0.77635 0.71298 0.65236 0.0
H248 H 0.61011 0.55199 0.7748 0.0
H249 H 0.65938 0.57278 0.82148 0.0
H250 H 0.71724 0.61159 0.82824 0.0
H251 H 0.76269 0.65587 0.79495 0.0
Mn252 Mn 0.94248 0.61338 0.85911 0.0
Mn253 Mn 0.90379 0.55277 0.92749 0.0
C254 C 0.9578 0.57682 0.8585 0.0
C255 C 0.9445 0.63614 0.78699 0.0
C256 C 0.95112 0.61359 0.96431 0.0
O257 O 0.90399 0.61631 0.88184 0.0
O258 O 0.87617 0.57056 0.91333 0.0
C259 C 0.85479 0.51327 0.86085 0.0
N260 N 0.8788 0.51828 0.89076 0.0
C261 C 0.87042 0.46823 0.8813 0.0
C262 C 0.84551 0.46245 0.85048 0.0
C263 C 0.83779 0.48514 0.84 0.0
C264 C 0.8867 0.49677 0.9006 0.0
H265 H 0.84862 0.53061 0.85321 0.0
C266 C 0.87936 0.59602 0.90135 0.0
O267 O 0.95898 0.6519 0.8237 0.0
O268 O 0.92797 0.60771 0.79301 0.0
N269 N 0.9274 0.53294 0.94471 0.0
C270 C 0.95313 0.54268 0.97305 0.0
C271 C 0.96461 0.523 0.98571 0.0
C272 C 0.94914 0.49338 0.96999 0.0
C273 C 0.92241 0.48376 0.94147 0.0
C274 C 0.91227 0.50446 0.92959 0.0
H275 H 0.96475 0.56526 0.98593 0.0
O276 O 0.97605 0.60302 0.84164 0.0
O277 O 0.93034 0.57226 0.87307 0.0
O278 O 0.96166 0.62664 0.9249 0.0
O279 O 0.92896 0.58695 0.96855 0.0
C280 C 0.90554 0.45451 0.92404 0.0
C281 C 0.8798 0.44684 0.89356 0.0
H282 H 0.83223 0.44073 0.83454 0.0
H283 H 0.81864 0.48087 0.81619 0.0
H284 H 0.98514 0.53056 0.00795 0.0
H285 H 0.95803 0.47825 0.97989 0.0
H286 H 0.91238 0.43781 0.9334 0.0
H287 H 0.86742 0.42445 0.87967 0.0
Mn288 Mn 0.32838 0.95223 0.22492 0.0
Mn289 Mn 0.35404 0.91309 0.2917 0.0
C290 C 0.38144 0.96649 0.22757 0.0
C291 C 0.31008 0.96001 0.15253 0.0
C292 C 0.33497 0.95731 0.33184 0.0
O293 O 0.28796 0.91416 0.24065 0.0
O294 O 0.30886 0.88839 0.27739 0.0
C295 C 0.34755 0.86757 0.2218 0.0
N296 N 0.36558 0.88935 0.25278 0.0
C297 C 0.40959 0.88039 0.24001 0.0
C298 C 0.39147 0.85773 0.20814 0.0
C299 C 0.36036 0.85141 0.19881 0.0
C300 C 0.39562 0.89586 0.2616 0.0
H301 H 0.32357 0.86256 0.21485 0.0
C302 C 0.28549 0.89073 0.26087 0.0
O303 O 0.30523 0.97057 0.19149 0.0
O304 O 0.32355 0.94335 0.15619 0.0
N305 N 0.39743 0.93385 0.30894 0.0
C306 C 0.41226 0.95753 0.33842 0.0
C307 C 0.4439 0.96744 0.35014 0.0
C308 C 0.45972 0.95249 0.33232 0.0
C309 C 0.44383 0.92791 0.30255 0.0
C310 C 0.4124 0.91923 0.29179 0.0
H311 H 0.40005 0.96881 0.35274 0.0
O312 O 0.37166 0.98479 0.21335 0.0
O313 O 0.35982 0.93976 0.23846 0.0
O314 O 0.32994 0.96686 0.29288 0.0
O315 O 0.34313 0.93695 0.33506 0.0
C316 C 0.45802 0.91192 0.28258 0.0
C317 C 0.44102 0.88836 0.25102 0.0
H318 H 0.40123 0.84516 0.19045 0.0
H319 H 0.34625 0.83402 0.17414 0.0
H320 H 0.45602 0.98644 0.37307 0.0
H321 H 0.48411 0.9602 0.34148 0.0
H322 H 0.48213 0.91776 0.29079 0.0
H323 H 0.45238 0.87661 0.23524 0.0
Mn324 Mn 0.37393 0.3329 0.60947 0.0
Mn325 Mn 0.33674 0.37362 0.62809 0.0
C326 C 0.36892 0.34637 0.68487 0.0
C327 C 0.37096 0.28596 0.60448 0.0
C328 C 0.40444 0.40054 0.59492 0.0
O329 O 0.35203 0.32948 0.54683 0.0
O330 O 0.32671 0.35569 0.56381 0.0
C331 C 0.2719 0.32365 0.62918 0.0
N332 N 0.29553 0.34748 0.65102 0.0
C333 C 0.26407 0.3395 0.72062 0.0
C334 C 0.23932 0.315 0.69875 0.0
C335 C 0.24328 0.30703 0.65284 0.0
C336 C 0.292 0.35529 0.69522 0.0
H337 H 0.27492 0.31732 0.59404 0.0
C338 C 0.33378 0.34013 0.53559 0.0
O339 O 0.39462 0.30923 0.58638 0.0
O340 O 0.34837 0.28981 0.62163 0.0
N341 N 0.34397 0.3922 0.68862 0.0
C342 C 0.37016 0.41639 0.70474 0.0
C343 C 0.37014 0.42713 0.75027 0.0
C344 C 0.34314 0.41312 0.77853 0.0
C345 C 0.31623 0.38872 0.76073 0.0
C346 C 0.31754 0.37917 0.71494 0.0
H347 H 0.39101 0.42721 0.68323 0.0
O348 O 0.3899 0.3383 0.67493 0.0
O349 O 0.35069 0.34556 0.65045 0.0
O350 O 0.40638 0.37632 0.59419 0.0
O351 O 0.37942 0.4018 0.60612 0.0
C352 C 0.28829 0.37328 0.78684 0.0
C353 C 0.26225 0.34865 0.76683 0.0
H354 H 0.21725 0.30204 0.71695 0.0
H355 H 0.22434 0.28806 0.63581 0.0
H356 H 0.39096 0.44606 0.76366 0.0
H357 H 0.34334 0.42125 0.81382 0.0
H358 H 0.28665 0.38004 0.82245 0.0
H359 H 0.24097 0.33683 0.78737 0.0
Mn360 Mn 0.05065 0.38984 0.86524 0.0
Mn361 Mn 0.08833 0.45037 0.93416 0.0
C362 C 0.0344 0.42571 0.86548 0.0
C363 C 0.04866 0.3675 0.79286 0.0
C364 C 0.04201 0.38911 0.9707 0.0
O365 O 0.09003 0.38802 0.88611 0.0
O366 O 0.11648 0.4331 0.92035 0.0
C367 C 0.1374 0.49041 0.86789 0.0
N368 N 0.11313 0.48503 0.89752 0.0
C369 C 0.12056 0.53474 0.88747 0.0
C370 C 0.14576 0.54091 0.85699 0.0
C371 C 0.15409 0.51858 0.84694 0.0
C372 C 0.10466 0.50619 0.90697 0.0
H373 H 0.144 0.47334 0.8605 0.0
C374 C 0.11431 0.40842 0.90607 0.0
O375 O 0.0347 0.35149 0.82967 0.0
O376 O 0.06455 0.39598 0.79883 0.0
N377 N 0.06407 0.46963 0.95088 0.0
C378 C 0.03797 0.45944 0.97857 0.0
C379 C 0.02574 0.47866 0.99044 0.0
C380 C 0.04085 0.50828 0.97461 0.0
C381 C 0.06793 0.51836 0.94672 0.0
C382 C 0.07881 0.49811 0.93558 0.0
H383 H 0.02659 0.43684 0.99144 0.0
O384 O 0.0163 0.39935 0.84911 0.0
O385 O 0.06211 0.43076 0.8795 0.0
O386 O 0.03212 0.37597 0.93124 0.0
O387 O 0.06338 0.41606 0.97512 0.0
C388 C 0.08441 0.54762 0.92914 0.0
C389 C 0.1105 0.55572 0.89914 0.0
H390 H 0.15878 0.56265 0.84092 0.0
H391 H 0.17345 0.52314 0.82335 0.0
H392 H 0.00487 0.47073 0.01207 0.0
H393 H 0.0314 0.52306 0.9839 0.0
H394 H 0.07699 0.56399 0.93798 0.0
H395 H 0.12256 0.57811 0.88508 0.0
Mn396 Mn 0.66642 0.0511 0.23161 0.0
Mn397 Mn 0.63954 0.08924 0.29831 0.0
C398 C 0.61327 0.0365 0.23308 0.0
C399 C 0.68563 0.04408 0.15956 0.0
C400 C 0.6587 0.04506 0.33834 0.0
O401 O 0.70644 0.08921 0.24829 0.0
O402 O 0.68486 0.11432 0.28525 0.0
C403 C 0.64661 0.13541 0.2292 0.0
N404 N 0.62828 0.11323 0.25947 0.0
C405 C 0.5842 0.12196 0.24585 0.0
C406 C 0.60264 0.14503 0.2147 0.0
C407 C 0.63393 0.15167 0.20615 0.0
C408 C 0.59806 0.10643 0.26754 0.0
H409 H 0.67073 0.14066 0.22284 0.0
C410 C 0.7085 0.11235 0.26894 0.0
O411 O 0.69019 0.0333 0.19851 0.0
O412 O 0.67191 0.06052 0.16308 0.0
N413 N 0.59592 0.06804 0.31429 0.0
C414 C 0.5808 0.04391 0.34291 0.0
C415 C 0.54892 0.03357 0.35359 0.0
C416 C 0.53316 0.04855 0.33564 0.0
C417 C 0.54935 0.07358 0.30679 0.0
C418 C 0.581 0.08266 0.29699 0.0
H419 H 0.59295 0.03258 0.35729 0.0
O420 O 0.6234 0.01842 0.21904 0.0
O421 O 0.63463 0.06318 0.24463 0.0
O422 O 0.66434 0.036 0.29937 0.0
O423 O 0.65014 0.06512 0.34165 0.0
C424 C 0.53525 0.08964 0.28676 0.0
C425 C 0.55257 0.11363 0.25599 0.0
H426 H 0.59296 0.15767 0.19695 0.0
H427 H 0.64828 0.16937 0.18204 0.0
H428 H 0.53656 0.01421 0.3758 0.0
H429 H 0.50858 0.0405 0.34397 0.0
H430 H 0.51097 0.08351 0.29429 0.0
H431 H 0.54127 0.12542 0.24012 0.0
H432 H 0.30232 0.31718 0.22988 0.0
H433 H 0.30624 0.40021 0.27161 0.0
H434 H 0.29989 0.30306 0.31288 0.0
H435 H 0.30429 0.38648 0.35386 0.0
H436 H 0.35178 0.31886 0.45903 0.0
H437 H 0.33849 0.32051 0.3767 0.0
H438 H 0.27532 0.35433 0.41803 0.0
H439 H 0.28903 0.35329 0.50024 0.0
C440 C 0.30184 0.33205 0.25667 0.0
C441 C 0.30463 0.35988 0.24422 0.0
C442 C 0.30078 0.32412 0.30423 0.0
C443 C 0.30219 0.34373 0.34016 0.0
C444 C 0.30284 0.37064 0.32733 0.0
C445 C 0.3041 0.37862 0.28002 0.0
C446 C 0.33463 0.32616 0.45071 0.0
C447 C 0.32193 0.33643 0.48637 0.0
C448 C 0.32685 0.32694 0.40339 0.0
C449 C 0.30611 0.33791 0.39059 0.0
C450 C 0.29186 0.34631 0.42652 0.0
C451 C 0.29969 0.34563 0.47375 0.0
H452 H 0.95762 0.31999 0.52975 0.0
H453 H 0.05328 0.34483 0.49031 0.0
H454 H 0.97114 0.31982 0.61242 0.0
H455 H 0.06654 0.34395 0.57276 0.0
H456 H 0.0013 0.31455 0.76041 0.0
H457 H 0.98884 0.29968 0.67774 0.0
H458 H 0.07287 0.37847 0.63486 0.0
H459 H 0.0853 0.39288 0.7166 0.0
C460 C 0.98133 0.3247 0.53856 0.0
C461 C 0.00451 0.33304 0.50343 0.0
C462 C 0.98904 0.32442 0.58602 0.0
C463 C 0.02005 0.3323 0.5993 0.0
C464 C 0.0426 0.33839 0.56382 0.0
C465 C 0.03496 0.33886 0.5165 0.0
C466 C 0.01748 0.32815 0.73325 0.0
C467 C 0.04415 0.35496 0.74486 0.0
C468 C 0.01022 0.31981 0.68595 0.0
C469 C 0.02972 0.33798 0.64961 0.0
C470 C 0.05746 0.36373 0.66176 0.0
C471 C 0.06452 0.37212 0.70874 0.0
H472 H 0.62224 0.9334 0.9226 0.0
H473 H 0.69837 0.0108 0.85895 0.0
H474 H 0.64068 0.9545 0.00068 0.0
H475 H 0.7165 0.03218 0.93729 0.0
H476 H 0.69127 0.07146 0.07489 0.0
H477 H 0.68866 0.05049 0.99668 0.0
H478 H 0.68696 0.97275 0.05964 0.0
H479 H 0.69016 0.99399 0.13807 0.0
C480 C 0.64335 0.95461 0.92534 0.0
C481 C 0.65881 0.97044 0.8846 0.0
C482 C 0.65397 0.96666 0.9701 0.0
C483 C 0.67995 0.99508 0.97512 0.0
C484 C 0.69635 0.01029 0.93447 0.0
C485 C 0.68608 0.99795 0.88966 0.0
C486 C 0.69125 0.05028 0.07202 0.0
C487 C 0.69086 0.03437 0.11267 0.0
C488 C 0.68983 0.03829 0.02719 0.0
C489 C 0.68741 0.00988 0.02202 0.0
C490 C 0.68867 0.99463 0.06257 0.0
C491 C 0.69072 0.0069 0.10744 0.0
H492 H 0.69048 0.68809 0.24857 0.0
H493 H 0.70398 0.61409 0.29343 0.0
H494 H 0.69206 0.70312 0.33103 0.0
H495 H 0.70502 0.62852 0.37491 0.0
H496 H 0.716 0.66152 0.51929 0.0
H497 H 0.73057 0.66319 0.43685 0.0
H498 H 0.65567 0.68231 0.39709 0.0
H499 H 0.64169 0.68153 0.47982 0.0
C500 C 0.69462 0.67554 0.27589 0.0
C501 C 0.69694 0.64983 0.26462 0.0
C502 C 0.69519 0.68393 0.32313 0.0
C503 C 0.69842 0.66692 0.35976 0.0
C504 C 0.70286 0.64243 0.34787 0.0
C505 C 0.70208 0.63399 0.30099 0.0
C506 C 0.70296 0.66659 0.49306 0.0
C507 C 0.67731 0.67087 0.50615 0.0
C508 C 0.71128 0.66749 0.44571 0.0
C509 C 0.69395 0.67234 0.41014 0.0
C510 C 0.66969 0.67868 0.42347 0.0
C511 C 0.66153 0.67807 0.47098 0.0
H512 H 0.90778 0.61127 0.71068 0.0
H513 H 0.9925 0.68877 0.75445 0.0
H514 H 0.92049 0.62567 0.62893 0.0
H515 H 0.00522 0.70364 0.67179 0.0
H516 H 0.03611 0.68351 0.52355 0.0
H517 H 0.02257 0.68355 0.60628 0.0
H518 H 0.92738 0.66021 0.56677 0.0
H519 H 0.94066 0.65944 0.48428 0.0
C520 C 0.92878 0.63186 0.70282 0.0
C521 C 0.94924 0.64878 0.73896 0.0
C522 C 0.93602 0.64025 0.65582 0.0
C523 C 0.96401 0.66576 0.64364 0.0
C524 C 0.98365 0.6837 0.67999 0.0
C525 C 0.97622 0.67536 0.72731 0.0
C526 C 0.01245 0.67896 0.53241 0.0
C527 C 0.98933 0.67087 0.4973 0.0
C528 C 0.00472 0.67915 0.57992 0.0
C529 C 0.97374 0.67144 0.59327 0.0
C530 C 0.95128 0.66561 0.5578 0.0
C531 C 0.95893 0.66522 0.51045 0.0
H532 H 0.30619 0.01047 0.13114 0.0
H533 H 0.30486 0.93304 0.06765 0.0
H534 H 0.30975 0.03202 0.05278 0.0
H535 H 0.30782 0.9543 0.98953 0.0
H536 H 0.29796 0.99413 0.852 0.0
H537 H 0.28001 0.97268 0.93041 0.0
H538 H 0.35585 0.05039 0.99339 0.0
H539 H 0.37411 0.07155 0.91519 0.0
C540 C 0.30569 0.99765 0.10045 0.0
C541 C 0.30532 0.97007 0.10559 0.0
C542 C 0.30795 0.01009 0.05563 0.0
C543 C 0.3092 0.99492 0.015 0.0
C544 C 0.30666 0.96645 0.02008 0.0
C545 C 0.30504 0.95429 0.06486 0.0
C546 C 0.31029 0.00698 0.88263 0.0
C547 C 0.33752 0.03452 0.87738 0.0
C548 C 0.30013 0.99459 0.92749 0.0
C549 C 0.31659 0.00978 0.96806 0.0
C550 C 0.34251 0.03823 0.96288 0.0
C551 C 0.35302 0.05034 0.91805 0.0
H552 H 0.17614 0.44764 0.90232 0.0
H553 H 0.11108 0.3572 0.94079 0.0
H554 H 0.21892 0.44229 0.93825 0.0
H555 H 0.15422 0.35185 0.97755 0.0
H556 H 0.23688 0.38369 0.09575 0.0
H557 H 0.19047 0.3779 0.05143 0.0
H558 H 0.24764 0.41228 0.92676 0.0
H559 H 0.29334 0.41826 0.97022 0.0
C560 C 0.17122 0.42637 0.91749 0.0
C561 C 0.14051 0.40274 0.91842 0.0
C562 C 0.19562 0.4233 0.93817 0.0
C563 C 0.18977 0.39668 0.96082 0.0
C564 C 0.15922 0.37262 0.96047 0.0
C565 C 0.13475 0.37554 0.93892 0.0
C566 C 0.23927 0.38966 0.0588 0.0
C567 C 0.26884 0.40231 0.03687 0.0
C568 C 0.2128 0.38617 0.03341 0.0
C569 C 0.21573 0.39509 0.98591 0.0
C570 C 0.24488 0.40578 0.96352 0.0
C571 C 0.27107 0.40938 0.98864 0.0
H572 H 0.84788 0.27206 0.40344 0.0
H573 H 0.90389 0.2381 0.33391 0.0
H574 H 0.80018 0.22886 0.37631 0.0
H575 H 0.85665 0.19597 0.30497 0.0
H576 H 0.76314 0.11077 0.28827 0.0
H577 H 0.81135 0.15109 0.32041 0.0
H578 H 0.77214 0.21128 0.30549 0.0
H579 H 0.72372 0.17071 0.2755 0.0
C580 C 0.85001 0.25524 0.38283 0.0
C581 C 0.87967 0.25861 0.37074 0.0
C582 C 0.82269 0.23065 0.36666 0.0
C583 C 0.82445 0.20908 0.33757 0.0
C584 C 0.85419 0.21187 0.32745 0.0
C585 C 0.8814 0.2362 0.34404 0.0
C586 C 0.76516 0.13278 0.29107 0.0
C587 C 0.73972 0.1376 0.27934 0.0
C588 C 0.79274 0.15592 0.30972 0.0
C589 C 0.79557 0.18447 0.31642 0.0
C590 C 0.77056 0.18947 0.30234 0.0
C591 C 0.74293 0.1663 0.28441 0.0
H592 H 0.65576 0.89185 0.71615 0.0
H593 H 0.55604 0.8325 0.7241 0.0
H594 H 0.66415 0.85092 0.68795 0.0
H595 H 0.56435 0.79144 0.69788 0.0
H596 H 0.66891 0.76306 0.68074 0.0
H597 H 0.66343 0.80562 0.70702 0.0
H598 H 0.57674 0.77351 0.62874 0.0
H599 H 0.58161 0.73005 0.60412 0.0
C600 C 0.63576 0.86989 0.71307 0.0
C601 C 0.60527 0.8654 0.72226 0.0
C602 C 0.6405 0.8464 0.6967 0.0
C603 C 0.61485 0.81787 0.68974 0.0
C604 C 0.58457 0.81323 0.70131 0.0
C605 C 0.57983 0.8367 0.71702 0.0
C606 C 0.64884 0.76522 0.6686 0.0
C607 C 0.62555 0.74302 0.64055 0.0
C608 C 0.64575 0.78977 0.68364 0.0
C609 C 0.61942 0.79293 0.67066 0.0
C610 C 0.59694 0.77145 0.64052 0.0
C611 C 0.59988 0.74669 0.62586 0.0
H612 H 0.74253 0.56036 0.10205 0.0
H613 H 0.75699 0.6476 0.06222 0.0
H614 H 0.78399 0.56549 0.0481 0.0
H615 H 0.79841 0.6526 0.00729 0.0
H616 H 0.88823 0.64806 0.94106 0.0
H617 H 0.85182 0.65315 0.99584 0.0
H618 H 0.78038 0.56456 0.95978 0.0
H619 H 0.81671 0.55935 0.90595 0.0
C620 C 0.75536 0.58105 0.08289 0.0
C621 C 0.74654 0.60351 0.08611 0.0
C622 C 0.77873 0.58383 0.05148 0.0
C623 C 0.79356 0.60901 0.02236 0.0
C624 C 0.78708 0.63285 0.02902 0.0
C625 C 0.76367 0.63012 0.06083 0.0
C626 C 0.86431 0.63021 0.94345 0.0
C627 C 0.85524 0.60322 0.91956 0.0
C628 C 0.84364 0.63301 0.97518 0.0
C629 C 0.81373 0.60886 0.98316 0.0
C630 C 0.80369 0.58317 0.9554 0.0
C631 C 0.82427 0.58033 0.92406 0.0
H632 H 0.08974 0.7653 0.32624 0.0
H633 H 0.14584 0.73139 0.39557 0.0
H634 H 0.13696 0.80734 0.29672 0.0
H635 H 0.1935 0.77443 0.36776 0.0
H636 H 0.26976 0.83221 0.26639 0.0
H637 H 0.2212 0.79172 0.29632 0.0
H638 H 0.18253 0.85228 0.31201 0.0
H639 H 0.23093 0.89258 0.28005 0.0
C640 C 0.11225 0.76718 0.33617 0.0
C641 C 0.114 0.74482 0.36303 0.0
C642 C 0.13944 0.79145 0.31925 0.0
C643 C 0.16918 0.7942 0.32911 0.0
C644 C 0.17098 0.77267 0.3583 0.0
C645 C 0.14369 0.74816 0.37486 0.0
C646 C 0.25064 0.83673 0.27543 0.0
C647 C 0.25409 0.86554 0.27071 0.0
C648 C 0.22293 0.8136 0.29332 0.0
C649 C 0.19805 0.81873 0.30768 0.0
C650 C 0.20106 0.84737 0.30116 0.0
C651 C 0.22874 0.87049 0.28258 0.0
H652 H 0.44009 0.17114 0.71318 0.0
H653 H 0.34105 0.11046 0.69957 0.0
H654 H 0.43196 0.21122 0.68139 0.0
H655 H 0.3329 0.15027 0.66564 0.0
H656 H 0.41723 0.2713 0.5817 0.0
H657 H 0.42182 0.22826 0.60975 0.0
H658 H 0.33178 0.19498 0.67916 0.0
H659 H 0.32661 0.23692 0.64929 0.0
C660 C 0.41647 0.16647 0.70373 0.0
C661 C 0.39117 0.1377 0.70911 0.0
C662 C 0.41186 0.18935 0.68473 0.0
C663 C 0.38188 0.18399 0.66986 0.0
C664 C 0.35632 0.15539 0.67688 0.0
C665 C 0.3609 0.13254 0.6966 0.0
C666 C 0.39813 0.25439 0.60198 0.0
C667 C 0.37167 0.25766 0.61338 0.0
C668 C 0.40092 0.2299 0.61873 0.0
C669 C 0.37745 0.20831 0.64769 0.0
C670 C 0.35027 0.2109 0.65686 0.0
C671 C 0.34735 0.23513 0.63972 0.0
H672 H 0.31624 0.31524 0.73723 0.0
H673 H 0.41171 0.38572 0.74407 0.0
H674 H 0.3111 0.31822 0.82264 0.0
H675 H 0.40656 0.38998 0.8286 0.0
H676 H 0.40276 0.38124 0.98163 0.0
H677 H 0.40372 0.3663 0.9002 0.0
H678 H 0.3073 0.34819 0.88306 0.0
H679 H 0.30613 0.36131 0.96532 0.0
C680 C 0.33579 0.33188 0.75709 0.0
C681 C 0.364 0.35099 0.73439 0.0
C682 C 0.333 0.33351 0.80592 0.0
C683 C 0.35851 0.35416 0.83279 0.0
C684 C 0.38666 0.37327 0.80949 0.0
C685 C 0.38952 0.37129 0.76097 0.0
C686 C 0.38144 0.37265 0.96087 0.0
C687 C 0.35421 0.37173 0.97957 0.0
C688 C 0.38208 0.3647 0.91399 0.0
C689 C 0.3558 0.35673 0.8846 0.0
C690 C 0.32788 0.35394 0.90456 0.0
C691 C 0.32709 0.36128 0.95176 0.0
H692 H 0.96774 0.38202 0.23791 0.0
H693 H 0.00211 0.31875 0.25838 0.0
H694 H 0.98052 0.38502 0.15409 0.0
H695 H 0.01568 0.32216 0.17443 0.0
H696 H 0.07337 0.3791 0.0405 0.0
H697 H 0.05505 0.36419 0.12117 0.0
H698 H 0.96305 0.35093 0.0816 0.0
H699 H 0.98143 0.36544 0.00034 0.0
C700 C 0.97844 0.36908 0.22435 0.0
C701 C 0.98527 0.35117 0.25451 0.0
C702 C 0.98535 0.37047 0.17647 0.0
C703 C 0.99889 0.35368 0.15787 0.0
C704 C 0.00536 0.33541 0.18802 0.0
C705 C 0.9981 0.3338 0.23596 0.0
C706 C 0.04894 0.37196 0.04886 0.0
C707 C 0.02863 0.37312 0.01463 0.0
C708 C 0.03851 0.36352 0.0949 0.0
C709 C 0.00781 0.35679 0.1076 0.0
C710 C 0.98693 0.35626 0.07261 0.0
C711 C 0.99725 0.36421 0.02622 0.0
H712 H 0.62253 0.92904 0.58154 0.0
H713 H 0.64406 0.01565 0.63478 0.0
H714 H 0.64047 0.95004 0.50339 0.0
H715 H 0.6597 0.03663 0.55621 0.0
H716 H 0.69422 0.07288 0.41426 0.0
H717 H 0.69202 0.05179 0.4921 0.0
H718 H 0.62258 0.96567 0.44072 0.0
H719 H 0.62703 0.9867 0.36235 0.0
C720 C 0.6315 0.95273 0.57636 0.0
C721 C 0.63217 0.97085 0.6139 0.0
C722 C 0.64139 0.96477 0.53145 0.0
C723 C 0.65113 0.99507 0.52271 0.0
C724 C 0.65294 0.01335 0.56117 0.0
C725 C 0.64388 0.00139 0.60639 0.0
C726 C 0.67919 0.04926 0.41968 0.0
C727 C 0.66093 0.03127 0.38262 0.0
C728 C 0.67755 0.03718 0.46441 0.0
C729 C 0.65672 0.00699 0.47348 0.0
C730 C 0.63934 0.98885 0.43546 0.0
C731 C 0.64171 1.00083 0.39038 0.0
H732 H 0.6875 0.68032 0.75266 0.0
H733 H 0.58963 0.61711 0.77024 0.0
H734 H 0.69689 0.67492 0.83622 0.0
H735 H 0.59865 0.61218 0.85381 0.0
H736 H 0.6196 0.63134 0.00961 0.0
H737 H 0.61494 0.64504 0.92809 0.0
H738 H 0.69368 0.63192 0.8878 0.0
H739 H 0.69786 0.61778 0.96869 0.0
C740 C 0.66821 0.66483 0.77431 0.0
C741 C 0.63818 0.64807 0.75493 0.0
C742 C 0.67344 0.66207 0.82208 0.0
C743 C 0.64844 0.64324 0.85143 0.0
C744 C 0.61826 0.62708 0.83209 0.0
C745 C 0.61317 0.6296 0.78432 0.0
C746 C 0.63637 0.63227 0.98345 0.0
C747 C 0.65919 0.62379 0.99506 0.0
C748 C 0.63355 0.63976 0.93689 0.0
C749 C 0.65383 0.63929 0.90167 0.0
C750 C 0.67786 0.63258 0.9142 0.0
C751 C 0.68027 0.62456 0.96038 0.0
H752 H 0.99132 0.68401 0.25178 0.0
H753 H 0.02549 0.62052 0.23232 0.0
H754 H 0.97762 0.68021 0.1679 0.0
H755 H 0.01254 0.6171 0.14853 0.0
H756 H 0.01157 0.63632 0.99425 0.0
H757 H 0.0299 0.65055 0.07555 0.0
H758 H 0.93829 0.63851 0.11495 0.0
H759 H 0.92003 0.62392 0.03425 0.0
C760 C 0.99525 0.66881 0.22961 0.0
C761 C 0.00807 0.65152 0.24846 0.0
C762 C 0.9879 0.66698 0.18169 0.0
C763 C 0.99425 0.64852 0.1518 0.0
C764 C 0.00778 0.63178 0.17068 0.0
C765 C 0.01479 0.63342 0.21856 0.0
C766 C 0.99583 0.63774 0.02011 0.0
C767 C 0.96457 0.62928 0.00843 0.0
C768 C 0.00611 0.64551 0.06654 0.0
C769 C 0.98533 0.64528 0.1015 0.0
C770 C 0.95476 0.63894 0.08873 0.0
C771 C 0.94436 0.63067 0.04266 0.0
H772 H 0.30059 0.92929 0.40874 0.0
H773 H 0.36592 0.01579 0.35523 0.0
H774 H 0.30363 0.95034 0.48678 0.0
H775 H 0.37121 0.03682 0.43371 0.0
H776 H 0.3727 0.07318 0.5754 0.0
H777 H 0.35393 0.05207 0.4976 0.0
H778 H 0.33711 0.96593 0.54951 0.0
H779 H 0.35359 0.987 0.62782 0.0
C780 C 0.31536 0.95297 0.41384 0.0
C781 C 0.33289 0.97104 0.37626 0.0
C782 C 0.31749 0.96503 0.45868 0.0
C783 C 0.3381 0.99532 0.46732 0.0
C784 C 0.35466 0.01356 0.42881 0.0
C785 C 0.35178 0.00157 0.38366 0.0
C786 C 0.3641 0.04956 0.5701 0.0
C787 C 0.36431 0.03158 0.60729 0.0
C788 C 0.35373 0.03746 0.5254 0.0
C789 C 0.34437 0.00726 0.5165 0.0
C790 C 0.34353 0.98912 0.55464 0.0
C791 C 0.35308 1.00112 0.59968 0.0
H792 H 0.41308 0.48123 0.1645 0.0
H793 H 0.44015 0.41713 0.11319 0.0
H794 H 0.46851 0.51744 0.17589 0.0
H795 H 0.49542 0.45288 0.12564 0.0
H796 H 0.59135 0.51963 0.18758 0.0
H797 H 0.53546 0.48243 0.18882 0.0
H798 H 0.51269 0.545 0.11914 0.0
H799 H 0.56825 0.58104 0.11537 0.0
C800 C 0.43102 0.47509 0.15537 0.0
C801 C 0.42276 0.44712 0.13591 0.0
C802 C 0.46259 0.49559 0.16227 0.0
C803 C 0.48628 0.48806 0.15096 0.0
C804 C 0.47772 0.45932 0.13437 0.0
C805 C 0.44619 0.43897 0.127 0.0
C806 C 0.57428 0.52488 0.17141 0.0
C807 C 0.58392 0.55232 0.14897 0.0
C808 C 0.54241 0.50389 0.17266 0.0
C809 C 0.51979 0.51066 0.15319 0.0
C810 C 0.52954 0.53895 0.13364 0.0
C811 C 0.5613 0.55953 0.13137 0.0
H812 H 0.05047 0.58846 0.37894 0.0
H813 H 0.9541 0.5524 0.42465 0.0
H814 H 0.04688 0.53936 0.38614 0.0
H815 H 0.95081 0.50363 0.4339 0.0
H816 H 0.94315 0.41489 0.38273 0.0
H817 H 0.94676 0.46408 0.3875 0.0
H818 H 0.04301 0.5006 0.43455 0.0
H819 H 0.03968 0.45169 0.42773 0.0
C820 C 0.02875 0.5702 0.39161 0.0
C821 C 0.00255 0.57435 0.4009 0.0
C822 C 0.02665 0.54194 0.39592 0.0
C823 C 0.9984 0.51721 0.41025 0.0
C824 C 0.9727 0.52182 0.42166 0.0
C825 C 0.97468 0.54993 0.41673 0.0
C826 C 0.96491 0.43335 0.39476 0.0
C827 C 0.99115 0.42935 0.40454 0.0
C828 C 0.96702 0.46166 0.39766 0.0
C829 C 0.99533 0.48662 0.41104 0.0
C830 C 0.02107 0.4822 0.423 0.0
C831 C 0.01907 0.45403 0.41948 0.0
H832 H 0.58423 0.01823 0.72784 0.0
H833 H 0.52092 0.93853 0.80236 0.0
H834 H 0.54527 0.0359 0.73152 0.0
H835 H 0.48109 0.95561 0.80389 0.0
H836 H 0.47524 0.06612 0.79729 0.0
H837 H 0.51506 0.04909 0.80146 0.0
H838 H 0.45124 0.96757 0.732 0.0
H839 H 0.41231 0.98517 0.72563 0.0
C840 C 0.56176 0.00439 0.74448 0.0
C841 C 0.55481 0.97644 0.76285 0.0
C842 C 0.53962 0.01457 0.74676 0.0
C843 C 0.51018 0.99699 0.76745 0.0
C844 C 0.50356 0.96939 0.78723 0.0
C845 C 0.52603 0.95946 0.78578 0.0
C846 C 0.47022 0.04492 0.78188 0.0
C847 C 0.44156 0.02755 0.75898 0.0
C848 C 0.49268 0.03503 0.78484 0.0
C849 C 0.48615 0.0071 0.76665 0.0
C850 C 0.45682 0.98916 0.74601 0.0
C851 C 0.4347 0.99929 0.7422 0.0
H852 H 0.59407 0.55157 0.57491 0.0
H853 H 0.53358 0.5872 0.62171 0.0
H854 H 0.5485 0.5033 0.56223 0.0
H855 H 0.48799 0.53858 0.61122 0.0
H856 H 0.4076 0.45266 0.56466 0.0
H857 H 0.45367 0.50142 0.56055 0.0
H858 H 0.51189 0.46262 0.60513 0.0
H859 H 0.46589 0.41368 0.60699 0.0
C860 C 0.57097 0.5491 0.58241 0.0
C861 C 0.56749 0.57326 0.59948 0.0
C862 C 0.54478 0.52128 0.57549 0.0
C863 C 0.51437 0.51669 0.58613 0.0
C864 C 0.51087 0.54117 0.6019 0.0
C865 C 0.53708 0.56914 0.60815 0.0
C866 C 0.43034 0.4545 0.57283 0.0
C867 C 0.43305 0.42927 0.58625 0.0
C868 C 0.45679 0.48257 0.57092 0.0
C869 C 0.48666 0.48629 0.58314 0.0
C870 C 0.48947 0.46078 0.59485 0.0
C871 C 0.46303 0.4326 0.59604 0.0
H872 H 0.01318 0.58331 0.88991 0.0
H873 H 0.9274 0.52091 0.82186 0.0
H874 H 0.03242 0.54687 0.88683 0.0
H875 H 0.94611 0.4837 0.82079 0.0
H876 H 0.9786 0.41965 0.89439 0.0
H877 H 0.95946 0.45606 0.88774 0.0
H878 H 0.04676 0.51834 0.8228 0.0
H879 H 0.06537 0.48116 0.82739 0.0
C880 C 0.99838 0.56159 0.87481 0.0
C881 C 0.96831 0.55421 0.85807 0.0
C882 C 0.00943 0.54087 0.87291 0.0
C883 C 0.99062 0.51245 0.85423 0.0
C884 C 0.96087 0.50538 0.83601 0.0
C885 C 0.95003 0.52639 0.83712 0.0
C886 C 0.99365 0.44118 0.87881 0.0
C887 C 0.02395 0.44834 0.86336 0.0
C888 C 0.98266 0.46188 0.87485 0.0
C889 C 0.00174 0.49003 0.85539 0.0
C890 C 0.03177 0.49688 0.83859 0.0
C891 C 0.04255 0.47589 0.84174 0.0
H892 H 0.58443 0.06562 0.19252 0.0
H893 H 0.56632 0.98449 0.264 0.0
H894 H 0.52763 0.04862 0.18817 0.0
H895 H 0.50984 0.9669 0.25738 0.0
H896 H 0.41117 0.93798 0.18764 0.0
H897 H 0.46805 0.955 0.18596 0.0
H898 H 0.48425 0.03547 0.25763 0.0
H899 H 0.42766 0.01789 0.26143 0.0
C900 C 0.56824 0.04439 0.20785 0.0
C901 C 0.57949 0.02696 0.23077 0.0
C902 C 0.53591 0.03451 0.20477 0.0
C903 C 0.51449 0.00653 0.22286 0.0
C904 C 0.52586 0.98853 0.24347 0.0
C905 C 0.55808 0.99865 0.24743 0.0
C906 C 0.42701 0.95895 0.20401 0.0
C907 C 0.41525 0.97601 0.22678 0.0
C908 C 0.45939 0.96884 0.20249 0.0
C909 C 0.48039 0.99647 0.22205 0.0
C910 C 0.46856 0.01412 0.24256 0.0
C911 C 0.43627 0.004 0.2449 0.0
loop_
_geom_bond_atom_site_label_1
_geom_bond_atom_site_label_2
_geom_bond_distance
_geom_bond_site_symmetry_2
_ccdc_geom_bond_type
Mn0 O5 2.095 . S
Mn0 O15 2.162 . S
Mn0 O16 2.297 . S
Mn0 O24 2.385 . S
Mn0 O25 2.209 . S
Mn0 O26 2.094 . S
Mn1 O6 2.121 1_556 S
Mn1 N8 2.257 . S
Mn1 N17 2.282 . S
Mn1 O25 2.215 1_556 S
Mn1 O27 2.117 . S
C2 O24 1.234 . S
C2 O25 1.283 . S
C3 O15 1.281 . S
C3 O16 1.236 . S
C4 O26 1.240 1_556 S
C4 O27 1.264 . S
O5 Mn0 2.095 . S
O5 C14 1.250 . S
O6 Mn1 2.121 1_554 S
O6 C14 1.258 . S
C7 N8 1.326 1_554 S
C7 C11 1.460 . S
C7 H13 0.929 . S
N8 Mn1 2.257 . S
N8 C7 1.326 1_556 S
N8 C12 1.362 . S
C9 C10 1.258 . S
C9 C12 1.431 . S
C9 C29 1.449 . S
C10 C9 1.258 . S
C10 C11 1.477 1_556 S
C10 H30 0.931 . S
C11 C7 1.460 . S
C11 C10 1.477 1_554 S
C11 H31 0.930 . S
C12 N8 1.362 . S
C12 C9 1.431 . S
C12 C22 1.476 . S
H13 C7 0.929 . S
C14 O5 1.250 . S
C14 O6 1.258 . S
O15 Mn0 2.162 . S
O15 C3 1.281 . S
O16 Mn0 2.297 . S
O16 C3 1.236 . S
N17 Mn1 2.282 . S
N17 C18 1.328 . S
N17 C22 1.318 . S
C18 N17 1.328 . S
C18 C19 1.457 . S
C18 H23 0.929 . S
C19 C18 1.457 . S
C19 C20 1.291 . S
C19 H32 0.931 . S
C20 C19 1.291 . S
C20 C21 1.373 . S
C20 H33 0.929 . S
C21 C20 1.373 . S
C21 C22 1.396 . S
C21 C28 1.403 . S
C22 C12 1.476 . S
C22 N17 1.318 . S
C22 C21 1.396 . S
H23 C18 0.929 . S
O24 Mn0 2.385 . S
O24 C2 1.234 . S
O25 Mn0 2.209 . S
O25 Mn1 2.215 1_554 S
O25 C2 1.283 . S
O26 Mn0 2.094 . S
O26 C4 1.240 1_554 S
O27 Mn1 2.117 . S
O27 C4 1.264 . S
C28 C21 1.403 . S
C28 C29 1.399 . S
C28 H34 0.929 . S
C29 C9 1.449 . S
C29 C28 1.399 . S
C29 H35 0.930 . S
H30 C10 0.931 . S
H31 C11 0.930 . S
H32 C19 0.931 . S
H33 C20 0.929 . S
H34 C28 0.929 . S
H35 C29 0.930 . S
Mn36 O41 2.095 . S
Mn36 O51 2.162 . S
Mn36 O52 2.297 . S
Mn36 O60 2.385 . S
Mn36 O61 2.209 . S
Mn36 O62 2.094 . S
Mn37 O42 2.121 . S
Mn37 N44 2.257 . S
Mn37 N53 2.282 . S
Mn37 O61 2.215 1_455 S
Mn37 O63 2.117 1_455 S
C38 O60 1.234 . S
C38 O61 1.283 . S
C39 O51 1.281 . S
C39 O52 1.236 . S
C40 O62 1.240 . S
C40 O63 1.264 . S
O41 Mn36 2.095 . S
O41 C50 1.250 . S
O42 Mn37 2.121 . S
O42 C50 1.258 1_455 S
C43 N44 1.326 . S
C43 C47 1.460 . S
C43 H49 0.929 . S
N44 Mn37 2.257 . S
N44 C43 1.326 . S
N44 C48 1.362 . S
C45 C46 1.258 . S
C45 C48 1.431 . S
C45 C65 1.449 . S
C46 C45 1.258 . S
C46 C47 1.477 . S
C46 H66 0.931 . S
C47 C43 1.460 . S
C47 C46 1.477 . S
C47 H67 0.930 . S
C48 N44 1.362 . S
C48 C45 1.431 . S
C48 C58 1.476 . S
H49 C43 0.929 . S
C50 O41 1.250 . S
C50 O42 1.258 1_655 S
O51 Mn36 2.162 . S
O51 C39 1.281 . S
O52 Mn36 2.297 . S
O52 C39 1.236 . S
N53 Mn37 2.282 . S
N53 C54 1.328 . S
N53 C58 1.318 . S
C54 N53 1.328 . S
C54 C55 1.457 . S
C54 H59 0.929 . S
C55 C54 1.457 . S
C55 C56 1.291 . S
C55 H68 0.931 . S
C56 C55 1.291 . S
C56 C57 1.373 . S
C56 H69 0.929 . S
C57 C56 1.373 . S
C57 C58 1.396 . S
C57 C64 1.403 . S
C58 C48 1.476 . S
C58 N53 1.318 . S
C58 C57 1.396 . S
H59 C54 0.929 . S
O60 Mn36 2.385 . S
O60 C38 1.234 . S
O61 Mn36 2.209 . S
O61 Mn37 2.215 1_655 S
O61 C38 1.283 . S
O62 Mn36 2.094 . S
O62 C40 1.240 . S
O63 Mn37 2.117 1_655 S
O63 C40 1.264 . S
C64 C57 1.403 . S
C64 C65 1.399 . S
C64 H70 0.929 . S
C65 C45 1.449 . S
C65 C64 1.399 . S
C65 H71 0.930 . S
H66 C46 0.931 . S
H67 C47 0.930 . S
H68 C55 0.931 . S
H69 C56 0.929 . S
H70 C64 0.929 . S
H71 C65 0.930 . S
Mn72 O77 2.095 . S
Mn72 O87 2.162 . S
Mn72 O88 2.297 . S
Mn72 O96 2.385 . S
Mn72 O97 2.209 . S
Mn72 O98 2.094 . S
Mn73 O78 2.121 . S
Mn73 N80 2.257 . S
Mn73 N89 2.282 . S
Mn73 O97 2.215 . S
Mn73 O99 2.117 . S
C74 O96 1.234 . S
C74 O97 1.283 . S
C75 O87 1.281 . S
C75 O88 1.236 . S
C76 O98 1.240 . S
C76 O99 1.264 . S
O77 Mn72 2.095 . S
O77 C86 1.250 . S
O78 Mn73 2.121 . S
O78 C86 1.258 . S
C79 N80 1.326 . S
C79 C83 1.460 . S
C79 H85 0.929 . S
N80 Mn73 2.257 . S
N80 C79 1.326 . S
N80 C84 1.362 . S
C81 C82 1.258 . S
C81 C84 1.431 . S
C81 C101 1.449 . S
C82 C81 1.258 . S
C82 C83 1.477 . S
C82 H102 0.931 . S
C83 C79 1.460 . S
C83 C82 1.477 . S
C83 H103 0.930 . S
C84 N80 1.362 . S
C84 C81 1.431 . S
C84 C94 1.476 . S
H85 C79 0.929 . S
C86 O77 1.250 . S
C86 O78 1.258 . S
O87 Mn72 2.162 . S
O87 C75 1.281 . S
O88 Mn72 2.297 . S
O88 C75 1.236 . S
N89 Mn73 2.282 . S
N89 C90 1.328 . S
N89 C94 1.318 . S
C90 N89 1.328 . S
C90 C91 1.457 . S
C90 H95 0.929 . S
C91 C90 1.457 . S
C91 C92 1.291 . S
C91 H104 0.931 1_565 S
C92 C91 1.291 . S
C92 C93 1.373 . S
C92 H105 0.929 . S
C93 C92 1.373 . S
C93 C94 1.396 . S
C93 C100 1.403 . S
C94 C84 1.476 . S
C94 N89 1.318 . S
C94 C93 1.396 . S
H95 C90 0.929 . S
O96 Mn72 2.385 . S
O96 C74 1.234 . S
O97 Mn72 2.209 . S
O97 Mn73 2.215 . S
O97 C74 1.283 . S
O98 Mn72 2.094 . S
O98 C76 1.240 . S
O99 Mn73 2.117 . S
O99 C76 1.264 . S
C100 C93 1.403 . S
C100 C101 1.399 . S
C100 H106 0.929 . S
C101 C81 1.449 . S
C101 C100 1.399 . S
C101 H107 0.930 . S
H102 C82 0.931 . S
H103 C83 0.930 . S
H104 C91 0.931 1_545 S
H105 C92 0.929 . S
H106 C100 0.929 . S
H107 C101 0.930 . S
Mn108 O113 2.095 . S
Mn108 O123 2.162 . S
Mn108 O124 2.297 . S
Mn108 O132 2.385 . S
Mn108 O133 2.209 . S
Mn108 O134 2.094 . S
Mn109 O114 2.121 1_556 S
Mn109 N116 2.257 . S
Mn109 N125 2.282 . S
Mn109 O133 2.215 1_556 S
Mn109 O135 2.117 . S
C110 O132 1.234 . S
C110 O133 1.283 . S
C111 O123 1.281 . S
C111 O124 1.236 . S
C112 O134 1.240 1_556 S
C112 O135 1.264 . S
O113 Mn108 2.095 . S
O113 C122 1.250 . S
O114 Mn109 2.121 1_554 S
O114 C122 1.258 . S
C115 N116 1.326 1_554 S
C115 C119 1.460 . S
C115 H121 0.929 . S
N116 Mn109 2.257 . S
N116 C115 1.326 1_556 S
N116 C120 1.362 . S
C117 C118 1.258 . S
C117 C120 1.431 . S
C117 C137 1.449 . S
C118 C117 1.258 . S
C118 C119 1.477 1_556 S
C118 H138 0.931 . S
C119 C115 1.460 . S
C119 C118 1.477 1_554 S
C119 H139 0.930 . S
C120 N116 1.362 . S
C120 C117 1.431 . S
C120 C130 1.476 . S
H121 C115 0.929 . S
C122 O113 1.250 . S
C122 O114 1.258 . S
O123 Mn108 2.162 . S
O123 C111 1.281 . S
O124 Mn108 2.297 . S
O124 C111 1.236 . S
N125 Mn109 2.282 . S
N125 C126 1.328 . S
N125 C130 1.318 . S
C126 N125 1.328 . S
C126 C127 1.457 . S
C126 H131 0.929 . S
C127 C126 1.457 . S
C127 C128 1.291 . S
C127 H140 0.931 . S
C128 C127 1.291 . S
C128 C129 1.373 . S
C128 H141 0.929 . S
C129 C128 1.373 . S
C129 C130 1.396 . S
C129 C136 1.403 . S
C130 C120 1.476 . S
C130 N125 1.318 . S
C130 C129 1.396 . S
H131 C126 0.929 . S
O132 Mn108 2.385 . S
O132 C110 1.234 . S
O133 Mn108 2.209 . S
O133 Mn109 2.215 1_554 S
O133 C110 1.283 . S
O134 Mn108 2.094 . S
O134 C112 1.240 1_554 S
O135 Mn109 2.117 . S
O135 C112 1.264 . S
C136 C129 1.403 . S
C136 C137 1.399 . S
C136 H142 0.929 . S
C137 C117 1.449 . S
C137 C136 1.399 . S
C137 H143 0.930 . S
H138 C118 0.931 . S
H139 C119 0.930 . S
H140 C127 0.931 . S
H141 C128 0.929 . S
H142 C136 0.929 . S
H143 C137 0.930 . S
Mn144 O149 2.095 . S
Mn144 O159 2.162 . S
Mn144 O160 2.297 . S
Mn144 O168 2.385 . S
Mn144 O169 2.209 . S
Mn144 O170 2.094 . S
Mn145 O150 2.121 . S
Mn145 N152 2.257 . S
Mn145 N161 2.282 . S
Mn145 O169 2.215 1_655 S
Mn145 O171 2.117 1_655 S
C146 O168 1.234 . S
C146 O169 1.283 . S
C147 O159 1.281 . S
C147 O160 1.236 . S
C148 O170 1.240 . S
C148 O171 1.264 . S
O149 Mn144 2.095 . S
O149 C158 1.250 . S
O150 Mn145 2.121 . S
O150 C158 1.258 1_655 S
C151 N152 1.326 . S
C151 C155 1.460 . S
C151 H157 0.929 . S
N152 Mn145 2.257 . S
N152 C151 1.326 . S
N152 C156 1.362 . S
C153 C154 1.258 . S
C153 C156 1.431 . S
C153 C173 1.449 . S
C154 C153 1.258 . S
C154 C155 1.477 . S
C154 H174 0.931 . S
C155 C151 1.460 . S
C155 C154 1.477 . S
C155 H175 0.930 . S
C156 N152 1.362 . S
C156 C153 1.431 . S
C156 C166 1.476 . S
H157 C151 0.929 . S
C158 O149 1.250 . S
C158 O150 1.258 1_455 S
O159 Mn144 2.162 . S
O159 C147 1.281 . S
O160 Mn144 2.297 . S
O160 C147 1.236 . S
N161 Mn145 2.282 . S
N161 C162 1.328 . S
N161 C166 1.318 . S
C162 N161 1.328 . S
C162 C163 1.457 . S
C162 H167 0.929 . S
C163 C162 1.457 . S
C163 C164 1.291 . S
C163 H176 0.931 . S
C164 C163 1.291 . S
C164 C165 1.373 . S
C164 H177 0.929 . S
C165 C164 1.373 . S
C165 C166 1.396 . S
C165 C172 1.403 . S
C166 C156 1.476 . S
C166 N161 1.318 . S
C166 C165 1.396 . S
H167 C162 0.929 . S
O168 Mn144 2.385 . S
O168 C146 1.234 . S
O169 Mn144 2.209 . S
O169 Mn145 2.215 1_455 S
O169 C146 1.283 . S
O170 Mn144 2.094 . S
O170 C148 1.240 . S
O171 Mn145 2.117 1_455 S
O171 C148 1.264 . S
C172 C165 1.403 . S
C172 C173 1.399 . S
C172 H178 0.929 . S
C173 C153 1.449 . S
C173 C172 1.399 . S
C173 H179 0.930 . S
H174 C154 0.931 . S
H175 C155 0.930 . S
H176 C163 0.931 . S
H177 C164 0.929 . S
H178 C172 0.929 . S
H179 C173 0.930 . S
Mn180 O185 2.095 . S
Mn180 O195 2.162 . S
Mn180 O196 2.297 . S
Mn180 O204 2.385 . S
Mn180 O205 2.209 . S
Mn180 O206 2.094 . S
Mn181 O186 2.121 . S
Mn181 N188 2.257 . S
Mn181 N197 2.282 . S
Mn181 O205 2.215 . S
Mn181 O207 2.117 . S
C182 O204 1.234 . S
C182 O205 1.283 . S
C183 O195 1.281 . S
C183 O196 1.236 . S
C184 O206 1.240 . S
C184 O207 1.264 . S
O185 Mn180 2.095 . S
O185 C194 1.250 . S
O186 Mn181 2.121 . S
O186 C194 1.258 . S
C187 N188 1.326 . S
C187 C191 1.460 . S
C187 H193 0.929 . S
N188 Mn181 2.257 . S
N188 C187 1.326 . S
N188 C192 1.362 . S
C189 C190 1.258 . S
C189 C192 1.431 . S
C189 C209 1.449 . S
C190 C189 1.258 . S
C190 C191 1.477 . S
C190 H210 0.931 . S
C191 C187 1.460 . S
C191 C190 1.477 . S
C191 H211 0.930 . S
C192 N188 1.362 . S
C192 C189 1.431 . S
C192 C202 1.476 . S
H193 C187 0.929 . S
C194 O185 1.250 . S
C194 O186 1.258 . S
O195 Mn180 2.162 . S
O195 C183 1.281 . S
O196 Mn180 2.297 . S
O196 C183 1.236 . S
N197 Mn181 2.282 . S
N197 C198 1.328 . S
N197 C202 1.318 . S
C198 N197 1.328 . S
C198 C199 1.457 . S
C198 H203 0.929 . S
C199 C198 1.457 . S
C199 C200 1.291 . S
C199 H212 0.931 1_545 S
C200 C199 1.291 . S
C200 C201 1.373 . S
C200 H213 0.929 . S
C201 C200 1.373 . S
C201 C202 1.396 . S
C201 C208 1.403 . S
C202 C192 1.476 . S
C202 N197 1.318 . S
C202 C201 1.396 . S
H203 C198 0.929 . S
O204 Mn180 2.385 . S
O204 C182 1.234 . S
O205 Mn180 2.209 . S
O205 Mn181 2.215 . S
O205 C182 1.283 . S
O206 Mn180 2.094 . S
O206 C184 1.240 . S
O207 Mn181 2.117 . S
O207 C184 1.264 . S
C208 C201 1.403 . S
C208 C209 1.399 . S
C208 H214 0.929 . S
C209 C189 1.449 . S
C209 C208 1.399 . S
C209 H215 0.930 . S
H210 C190 0.931 . S
H211 C191 0.930 . S
H212 C199 0.931 1_565 S
H213 C200 0.929 . S
H214 C208 0.929 . S
H215 C209 0.930 . S
Mn216 O221 2.095 . S
Mn216 O231 2.162 . S
Mn216 O232 2.297 . S
Mn216 O240 2.385 . S
Mn216 O241 2.209 . S
Mn216 O242 2.094 . S
Mn217 O222 2.121 . S
Mn217 N224 2.257 . S
Mn217 N233 2.282 . S
Mn217 O241 2.215 . S
Mn217 O243 2.117 . S
C218 O240 1.234 . S
C218 O241 1.283 . S
C219 O231 1.281 . S
C219 O232 1.236 . S
C220 O242 1.240 . S
C220 O243 1.264 . S
O221 Mn216 2.095 . S
O221 C230 1.250 . S
O222 Mn217 2.121 . S
O222 C230 1.258 . S
C223 N224 1.326 . S
C223 C227 1.460 . S
C223 H229 0.929 . S
N224 Mn217 2.257 . S
N224 C223 1.326 . S
N224 C228 1.362 . S
C225 C226 1.258 . S
C225 C228 1.431 . S
C225 C245 1.449 . S
C226 C225 1.258 . S
C226 C227 1.477 . S
C226 H246 0.931 . S
C227 C223 1.460 . S
C227 C226 1.477 . S
C227 H247 0.930 . S
C228 N224 1.362 . S
C228 C225 1.431 . S
C228 C238 1.476 . S
H229 C223 0.929 . S
C230 O221 1.250 . S
C230 O222 1.258 . S
O231 Mn216 2.162 . S
O231 C219 1.281 . S
O232 Mn216 2.297 . S
O232 C219 1.236 . S
N233 Mn217 2.282 . S
N233 C234 1.328 . S
N233 C238 1.318 . S
C234 N233 1.328 . S
C234 C235 1.457 . S
C234 H239 0.929 . S
C235 C234 1.457 . S
C235 C236 1.291 . S
C235 H248 0.931 . S
C236 C235 1.291 . S
C236 C237 1.373 . S
C236 H249 0.929 . S
C237 C236 1.373 . S
C237 C238 1.396 . S
C237 C244 1.403 . S
C238 C228 1.476 . S
C238 N233 1.318 . S
C238 C237 1.396 . S
H239 C234 0.929 . S
O240 Mn216 2.385 . S
O240 C218 1.234 . S
O241 Mn216 2.209 . S
O241 Mn217 2.215 . S
O241 C218 1.283 . S
O242 Mn216 2.094 . S
O242 C220 1.240 . S
O243 Mn217 2.117 . S
O243 C220 1.264 . S
C244 C237 1.403 . S
C244 C245 1.399 . S
C244 H250 0.929 . S
C245 C225 1.449 . S
C245 C244 1.399 . S
C245 H251 0.930 . S
H246 C226 0.931 . S
H247 C227 0.930 . S
H248 C235 0.931 . S
H249 C236 0.929 . S
H250 C244 0.929 . S
H251 C245 0.930 . S
Mn252 O257 2.095 . S
Mn252 O267 2.162 1_655 S
Mn252 O268 2.297 . S
Mn252 O276 2.385 1_655 S
Mn252 O277 2.209 . S
Mn252 O278 2.094 1_655 S
Mn253 O258 2.121 1_554 S
Mn253 N260 2.257 . S
Mn253 N269 2.282 . S
Mn253 O277 2.215 1_554 S
Mn253 O279 2.117 . S
C254 O276 1.234 1_655 S
C254 O277 1.283 . S
C255 O267 1.281 1_655 S
C255 O268 1.236 . S
C256 O278 1.240 1_654 S
C256 O279 1.264 . S
O257 Mn252 2.095 . S
O257 C266 1.250 . S
O258 Mn253 2.121 1_556 S
O258 C266 1.258 . S
C259 N260 1.326 1_556 S
C259 C263 1.460 . S
C259 H265 0.929 . S
N260 Mn253 2.257 . S
N260 C259 1.326 1_554 S
N260 C264 1.362 . S
C261 C262 1.258 . S
C261 C264 1.431 . S
C261 C281 1.449 . S
C262 C261 1.258 . S
C262 C263 1.477 1_554 S
C262 H282 0.931 . S
C263 C259 1.460 . S
C263 C262 1.477 1_556 S
C263 H283 0.930 . S
C264 N260 1.362 . S
C264 C261 1.431 . S
C264 C274 1.476 . S
H265 C259 0.929 . S
C266 O257 1.250 . S
C266 O258 1.258 . S
O267 Mn252 2.162 1_455 S
O267 C255 1.281 1_455 S
O268 Mn252 2.297 . S
O268 C255 1.236 . S
N269 Mn253 2.282 . S
N269 C270 1.328 . S
N269 C274 1.318 . S
C270 N269 1.328 . S
C270 C271 1.484 . S
C270 H275 0.931 . S
C271 C270 1.484 . S
C271 C272 1.296 . S
C271 H284 0.899 1_655 S
C272 C271 1.296 . S
C272 C273 1.373 . S
C272 H285 0.929 . S
C273 C272 1.373 . S
C273 C274 1.396 . S
C273 C280 1.403 . S
C274 C264 1.476 . S
C274 N269 1.318 . S
C274 C273 1.396 . S
H275 C270 0.931 . S
O276 Mn252 2.385 1_455 S
O276 C254 1.234 1_455 S
O277 Mn252 2.209 . S
O277 Mn253 2.215 1_556 S
O277 C254 1.283 . S
O278 Mn252 2.094 1_455 S
O278 C256 1.240 1_456 S
O279 Mn253 2.117 . S
O279 C256 1.264 . S
C280 C273 1.403 . S
C280 C281 1.399 . S
C280 H286 0.929 . S
C281 C261 1.449 . S
C281 C280 1.399 . S
C281 H287 0.930 . S
H282 C262 0.931 . S
H283 C263 0.930 . S
H284 C271 0.899 1_455 S
H285 C272 0.929 . S
H286 C280 0.929 . S
H287 C281 0.930 . S
Mn288 O293 2.095 . S
Mn288 O303 2.162 . S
Mn288 O304 2.297 . S
Mn288 O312 2.385 . S
Mn288 O313 2.209 . S
Mn288 O314 2.094 . S
Mn289 O294 2.121 . S
Mn289 N296 2.257 . S
Mn289 N305 2.282 . S
Mn289 O313 2.215 . S
Mn289 O315 2.117 . S
C290 O312 1.234 . S
C290 O313 1.283 . S
C291 O303 1.281 . S
C291 O304 1.236 . S
C292 O314 1.240 . S
C292 O315 1.264 . S
O293 Mn288 2.095 . S
O293 C302 1.250 . S
O294 Mn289 2.121 . S
O294 C302 1.258 . S
C295 N296 1.326 . S
C295 C299 1.460 . S
C295 H301 0.929 . S
N296 Mn289 2.257 . S
N296 C295 1.326 . S
N296 C300 1.362 . S
C297 C298 1.258 . S
C297 C300 1.431 . S
C297 C317 1.449 . S
C298 C297 1.258 . S
C298 C299 1.477 . S
C298 H318 0.931 . S
C299 C295 1.460 . S
C299 C298 1.477 . S
C299 H319 0.930 . S
C300 N296 1.362 . S
C300 C297 1.431 . S
C300 C310 1.476 . S
H301 C295 0.929 . S
C302 O293 1.250 . S
C302 O294 1.258 . S
O303 Mn288 2.162 . S
O303 C291 1.281 . S
O304 Mn288 2.297 . S
O304 C291 1.236 . S
N305 Mn289 2.282 . S
N305 C306 1.328 . S
N305 C310 1.318 . S
C306 N305 1.328 . S
C306 C307 1.457 . S
C306 H311 0.929 . S
C307 C306 1.457 . S
C307 C308 1.291 . S
C307 H320 0.931 1_565 S
C308 C307 1.291 . S
C308 C309 1.373 . S
C308 H321 0.929 . S
C309 C308 1.373 . S
C309 C310 1.396 . S
C309 C316 1.403 . S
C310 C300 1.476 . S
C310 N305 1.318 . S
C310 C309 1.396 . S
H311 C306 0.929 . S
O312 Mn288 2.385 . S
O312 C290 1.234 . S
O313 Mn288 2.209 . S
O313 Mn289 2.215 . S
O313 C290 1.283 . S
O314 Mn288 2.094 . S
O314 C292 1.240 . S
O315 Mn289 2.117 . S
O315 C292 1.264 . S
C316 C309 1.403 . S
C316 C317 1.399 . S
C316 H322 0.929 . S
C317 C297 1.449 . S
C317 C316 1.399 . S
C317 H323 0.930 . S
H318 C298 0.931 . S
H319 C299 0.930 . S
H320 C307 0.931 1_545 S
H321 C308 0.929 . S
H322 C316 0.929 . S
H323 C317 0.930 . S
Mn324 O329 2.095 . S
Mn324 O339 2.162 . S
Mn324 O340 2.297 . S
Mn324 O348 2.385 . S
Mn324 O349 2.209 . S
Mn324 O350 2.094 . S
Mn325 O330 2.121 . S
Mn325 N332 2.257 . S
Mn325 N341 2.282 . S
Mn325 O349 2.215 . S
Mn325 O351 2.117 . S
C326 O348 1.234 . S
C326 O349 1.283 . S
C327 O339 1.281 . S
C327 O340 1.236 . S
C328 O350 1.240 . S
C328 O351 1.264 . S
O329 Mn324 2.095 . S
O329 C338 1.250 . S
O330 Mn325 2.121 . S
O330 C338 1.258 . S
C331 N332 1.326 . S
C331 C335 1.460 . S
C331 H337 0.929 . S
N332 Mn325 2.257 . S
N332 C331 1.326 . S
N332 C336 1.362 . S
C333 C334 1.258 . S
C333 C336 1.431 . S
C333 C353 1.449 . S
C334 C333 1.258 . S
C334 C335 1.477 . S
C334 H354 0.931 . S
C335 C331 1.460 . S
C335 C334 1.477 . S
C335 H355 0.930 . S
C336 N332 1.362 . S
C336 C333 1.431 . S
C336 C346 1.476 . S
H337 C331 0.929 . S
C338 O329 1.250 . S
C338 O330 1.258 . S
O339 Mn324 2.162 . S
O339 C327 1.281 . S
O340 Mn324 2.297 . S
O340 C327 1.236 . S
N341 Mn325 2.282 . S
N341 C342 1.328 . S
N341 C346 1.318 . S
C342 N341 1.328 . S
C342 C343 1.457 . S
C342 H347 0.929 . S
C343 C342 1.457 . S
C343 C344 1.291 . S
C343 H356 0.931 . S
C344 C343 1.291 . S
C344 C345 1.373 . S
C344 H357 0.929 . S
C345 C344 1.373 . S
C345 C346 1.396 . S
C345 C352 1.403 . S
C346 C336 1.476 . S
C346 N341 1.318 . S
C346 C345 1.396 . S
H347 C342 0.929 . S
O348 Mn324 2.385 . S
O348 C326 1.234 . S
O349 Mn324 2.209 . S
O349 Mn325 2.215 . S
O349 C326 1.283 . S
O350 Mn324 2.094 . S
O350 C328 1.240 . S
O351 Mn325 2.117 . S
O351 C328 1.264 . S
C352 C345 1.403 . S
C352 C353 1.399 . S
C352 H358 0.929 . S
C353 C333 1.449 . S
C353 C352 1.399 . S
C353 H359 0.930 . S
H354 C334 0.931 . S
H355 C335 0.930 . S
H356 C343 0.931 . S
H357 C344 0.929 . S
H358 C352 0.929 . S
H359 C353 0.930 . S
Mn360 O365 2.095 . S
Mn360 O375 2.162 1_455 S
Mn360 O376 2.297 . S
Mn360 O384 2.385 1_455 S
Mn360 O385 2.209 . S
Mn360 O386 2.094 1_455 S
Mn361 O366 2.121 1_554 S
Mn361 N368 2.257 . S
Mn361 N377 2.282 . S
Mn361 O385 2.215 1_554 S
Mn361 O387 2.117 . S
C362 O384 1.234 1_455 S
C362 O385 1.283 . S
C363 O375 1.281 1_455 S
C363 O376 1.236 . S
C364 O386 1.240 1_454 S
C364 O387 1.264 . S
O365 Mn360 2.095 . S
O365 C374 1.250 . S
O366 Mn361 2.121 1_556 S
O366 C374 1.258 . S
C367 N368 1.326 1_556 S
C367 C371 1.460 . S
C367 H373 0.929 . S
N368 Mn361 2.257 . S
N368 C367 1.326 1_554 S
N368 C372 1.362 . S
C369 C370 1.258 . S
C369 C372 1.431 . S
C369 C389 1.449 . S
C370 C369 1.258 . S
C370 C371 1.477 1_554 S
C370 H390 0.931 . S
C371 C367 1.460 . S
C371 C370 1.477 1_556 S
C371 H391 0.930 . S
C372 N368 1.362 . S
C372 C369 1.431 . S
C372 C382 1.476 . S
H373 C367 0.929 . S
C374 O365 1.250 . S
C374 O366 1.258 . S
O375 Mn360 2.162 1_655 S
O375 C363 1.281 1_655 S
O376 Mn360 2.297 . S
O376 C363 1.236 . S
N377 Mn361 2.282 . S
N377 C378 1.328 . S
N377 C382 1.318 . S
C378 N377 1.328 . S
C378 C379 1.484 . S
C378 H383 0.931 . S
C379 C378 1.484 . S
C379 C380 1.296 . S
C379 H392 0.899 1_455 S
C380 C379 1.296 . S
C380 C381 1.373 . S
C380 H393 0.929 . S
C381 C380 1.373 . S
C381 C382 1.396 . S
C381 C388 1.403 . S
C382 C372 1.476 . S
C382 N377 1.318 . S
C382 C381 1.396 . S
H383 C378 0.931 . S
O384 Mn360 2.385 1_655 S
O384 C362 1.234 1_655 S
O385 Mn360 2.209 . S
O385 Mn361 2.215 1_556 S
O385 C362 1.283 . S
O386 Mn360 2.094 1_655 S
O386 C364 1.240 1_656 S
O387 Mn361 2.117 . S
O387 C364 1.264 . S
C388 C381 1.403 . S
C388 C389 1.399 . S
C388 H394 0.929 . S
C389 C369 1.449 . S
C389 C388 1.399 . S
C389 H395 0.930 . S
H390 C370 0.931 . S
H391 C371 0.930 . S
H392 C379 0.899 1_655 S
H393 C380 0.929 . S
H394 C388 0.929 . S
H395 C389 0.930 . S
Mn396 O401 2.095 . S
Mn396 O411 2.162 . S
Mn396 O412 2.297 . S
Mn396 O420 2.385 . S
Mn396 O421 2.209 . S
Mn396 O422 2.094 . S
Mn397 O402 2.121 . S
Mn397 N404 2.257 . S
Mn397 N413 2.282 . S
Mn397 O421 2.215 . S
Mn397 O423 2.117 . S
C398 O420 1.234 . S
C398 O421 1.283 . S
C399 O411 1.281 . S
C399 O412 1.236 . S
C400 O422 1.240 . S
C400 O423 1.264 . S
O401 Mn396 2.095 . S
O401 C410 1.250 . S
O402 Mn397 2.121 . S
O402 C410 1.258 . S
C403 N404 1.326 . S
C403 C407 1.460 . S
C403 H409 0.929 . S
N404 Mn397 2.257 . S
N404 C403 1.326 . S
N404 C408 1.362 . S
C405 C406 1.258 . S
C405 C408 1.431 . S
C405 C425 1.449 . S
C406 C405 1.258 . S
C406 C407 1.477 . S
C406 H426 0.931 . S
C407 C403 1.460 . S
C407 C406 1.477 . S
C407 H427 0.930 . S
C408 N404 1.362 . S
C408 C405 1.431 . S
C408 C418 1.476 . S
H409 C403 0.929 . S
C410 O401 1.250 . S
C410 O402 1.258 . S
O411 Mn396 2.162 . S
O411 C399 1.281 . S
O412 Mn396 2.297 . S
O412 C399 1.236 . S
N413 Mn397 2.282 . S
N413 C414 1.328 . S
N413 C418 1.318 . S
C414 N413 1.328 . S
C414 C415 1.457 . S
C414 H419 0.929 . S
C415 C414 1.457 . S
C415 C416 1.291 . S
C415 H428 0.931 1_545 S
C416 C415 1.291 . S
C416 C417 1.373 . S
C416 H429 0.929 . S
C417 C416 1.373 . S
C417 C418 1.396 . S
C417 C424 1.403 . S
C418 C408 1.476 . S
C418 N413 1.318 . S
C418 C417 1.396 . S
H419 C414 0.929 . S
O420 Mn396 2.385 . S
O420 C398 1.234 . S
O421 Mn396 2.209 . S
O421 Mn397 2.215 . S
O421 C398 1.283 . S
O422 Mn396 2.094 . S
O422 C400 1.240 . S
O423 Mn397 2.117 . S
O423 C400 1.264 . S
C424 C417 1.403 . S
C424 C425 1.399 . S
C424 H430 0.929 . S
C425 C405 1.449 . S
C425 C424 1.399 . S
C425 H431 0.930 . S
H426 C406 0.931 . S
H427 C407 0.930 . S
H428 C415 0.931 1_565 S
H429 C416 0.929 . S
H430 C424 0.929 . S
H431 C425 0.930 . S
H432 C440 0.950 . S
H433 C445 0.950 . S
H434 C442 0.950 . S
H435 C444 0.950 . S
H436 C446 0.950 . S
H437 C448 0.950 . S
H438 C450 0.950 . S
H439 C451 0.950 . S
C440 H432 0.950 . S
C440 C441 1.386 . S
C440 C442 1.391 . S
C441 C440 1.386 . S
C441 C445 1.393 . S
C442 H434 0.950 . S
C442 C440 1.391 . S
C442 C443 1.400 . S
C443 C442 1.400 . S
C443 C444 1.398 . S
C443 C449 1.491 . S
C444 H435 0.950 . S
C444 C443 1.398 . S
C444 C445 1.391 . S
C445 H433 0.950 . S
C445 C441 1.393 . S
C445 C444 1.391 . S
C446 H436 0.950 . S
C446 C447 1.386 . S
C446 C448 1.391 . S
C447 C446 1.386 . S
C447 C451 1.393 . S
C448 H437 0.950 . S
C448 C446 1.391 . S
C448 C449 1.400 . S
C449 C443 1.491 . S
C449 C448 1.400 . S
C449 C450 1.398 . S
C450 H438 0.950 . S
C450 C449 1.398 . S
C450 C451 1.391 . S
C451 H439 0.950 . S
C451 C447 1.393 . S
C451 C450 1.391 . S
H452 C460 0.950 . S
H453 C465 0.950 . S
H454 C462 0.950 . S
H455 C464 0.950 . S
H456 C466 0.950 . S
H457 C468 0.950 . S
H458 C470 0.950 . S
H459 C471 0.950 . S
C460 H452 0.950 . S
C460 C461 1.386 . S
C460 C462 1.391 . S
C461 C460 1.386 . S
C461 C465 1.393 1_655 S
C462 H454 0.950 . S
C462 C460 1.391 . S
C462 C463 1.400 . S
C463 C462 1.400 . S
C463 C464 1.398 1_655 S
C463 C469 1.491 . S
C464 H455 0.950 . S
C464 C463 1.398 1_455 S
C464 C465 1.391 . S
C465 H453 0.950 . S
C465 C461 1.393 1_455 S
C465 C464 1.391 . S
C466 H456 0.950 . S
C466 C467 1.386 . S
C466 C468 1.391 . S
C467 C466 1.386 . S
C467 C471 1.393 1_455 S
C468 H457 0.950 . S
C468 C466 1.391 . S
C468 C469 1.400 1_455 S
C469 C463 1.491 . S
C469 C468 1.400 1_655 S
C469 C470 1.398 . S
C470 H458 0.950 . S
C470 C469 1.398 . S
C470 C471 1.391 . S
C471 H459 0.950 . S
C471 C467 1.393 1_655 S
C471 C470 1.391 . S
H472 C480 0.950 . S
H473 C485 0.950 . S
H474 C482 0.950 . S
H475 C484 0.950 . S
H476 C486 0.950 . S
H477 C488 0.950 . S
H478 C490 0.950 . S
H479 C491 0.950 . S
C480 H472 0.950 . S
C480 C481 1.386 . S
C480 C482 1.391 . S
C481 C480 1.386 . S
C481 C485 1.393 1_565 S
C482 H474 0.950 . S
C482 C480 1.391 . S
C482 C483 1.400 . S
C483 C482 1.400 . S
C483 C484 1.398 1_565 S
C483 C489 1.491 1_566 S
C484 H475 0.950 . S
C484 C483 1.398 1_545 S
C484 C485 1.391 . S
C485 H473 0.950 . S
C485 C481 1.393 1_545 S
C485 C484 1.391 . S
C486 H476 0.950 . S
C486 C487 1.386 . S
C486 C488 1.391 . S
C487 C486 1.386 . S
C487 C491 1.393 1_545 S
C488 H477 0.950 . S
C488 C486 1.391 . S
C488 C489 1.400 . S
C489 C483 1.491 1_544 S
C489 C488 1.400 . S
C489 C490 1.398 1_545 S
C490 H478 0.950 . S
C490 C489 1.398 1_565 S
C490 C491 1.391 . S
C491 H479 0.950 . S
C491 C487 1.393 1_565 S
C491 C490 1.391 . S
H492 C500 0.950 . S
H493 C505 0.950 . S
H494 C502 0.950 . S
H495 C504 0.950 . S
H496 C506 0.950 . S
H497 C508 0.950 . S
H498 C510 0.950 . S
H499 C511 0.950 . S
C500 H492 0.950 . S
C500 C501 1.386 . S
C500 C502 1.391 . S
C501 C500 1.386 . S
C501 C505 1.393 . S
C502 H494 0.950 . S
C502 C500 1.391 . S
C502 C503 1.400 . S
C503 C502 1.400 . S
C503 C504 1.398 . S
C503 C509 1.491 . S
C504 H495 0.950 . S
C504 C503 1.398 . S
C504 C505 1.391 . S
C505 H493 0.950 . S
C505 C501 1.393 . S
C505 C504 1.391 . S
C506 H496 0.950 . S
C506 C507 1.386 . S
C506 C508 1.391 . S
C507 C506 1.386 . S
C507 C511 1.393 . S
C508 H497 0.950 . S
C508 C506 1.391 . S
C508 C509 1.400 . S
C509 C503 1.491 . S
C509 C508 1.400 . S
C509 C510 1.398 . S
C510 H498 0.950 . S
C510 C509 1.398 . S
C510 C511 1.391 . S
C511 H499 0.950 . S
C511 C507 1.393 . S
C511 C510 1.391 . S
H512 C520 0.950 . S
H513 C525 0.950 . S
H514 C522 0.941 . S
H515 C524 0.944 . S
H516 C526 0.950 . S
H517 C528 0.950 . S
H518 C530 0.950 . S
H519 C531 0.950 . S
C520 H512 0.950 . S
C520 C521 1.386 . S
C520 C522 1.396 . S
C521 C520 1.386 . S
C521 C525 1.393 . S
C522 H514 0.941 . S
C522 C520 1.396 . S
C522 C523 1.414 1_655 S
C523 C522 1.414 1_455 S
C523 C524 1.406 . S
C523 C529 1.491 . S
C524 H515 0.944 . S
C524 C523 1.406 . S
C524 C525 1.389 1_455 S
C525 H513 0.950 . S
C525 C521 1.393 . S
C525 C524 1.389 1_655 S
C526 H516 0.950 . S
C526 C527 1.386 . S
C526 C528 1.391 . S
C527 C526 1.386 . S
C527 C531 1.393 . S
C528 H517 0.950 . S
C528 C526 1.391 . S
C528 C529 1.400 . S
C529 C523 1.491 . S
C529 C528 1.400 . S
C529 C530 1.398 . S
C530 H518 0.950 . S
C530 C529 1.398 . S
C530 C531 1.391 . S
C531 H519 0.950 . S
C531 C527 1.393 . S
C531 C530 1.391 . S
H532 C540 0.950 . S
H533 C545 0.950 . S
H534 C542 0.950 . S
H535 C544 0.950 . S
H536 C546 0.950 . S
H537 C548 0.950 . S
H538 C550 0.950 . S
H539 C551 0.950 . S
C540 H532 0.950 . S
C540 C541 1.386 1_545 S
C540 C542 1.391 . S
C541 C540 1.386 1_565 S
C541 C545 1.393 . S
C542 H534 0.950 . S
C542 C540 1.391 . S
C542 C543 1.400 1_545 S
C543 C542 1.400 1_565 S
C543 C544 1.398 . S
C543 C549 1.491 1_564 S
C544 H535 0.950 . S
C544 C543 1.398 . S
C544 C545 1.391 . S
C545 H533 0.950 . S
C545 C541 1.393 . S
C545 C544 1.391 . S
C546 H536 0.950 . S
C546 C547 1.386 1_565 S
C546 C548 1.391 . S
C547 C546 1.386 1_545 S
C547 C551 1.393 . S
C548 H537 0.950 . S
C548 C546 1.391 . S
C548 C549 1.400 1_565 S
C549 C543 1.491 1_546 S
C549 C548 1.400 1_545 S
C549 C550 1.398 . S
C550 H538 0.950 . S
C550 C549 1.398 . S
C550 C551 1.391 . S
C551 H539 0.950 . S
C551 C547 1.393 . S
C551 C550 1.391 . S
H552 C560 0.950 . S
H553 C565 0.950 1_554 S
H554 C562 0.950 . S
H555 C564 0.950 . S
H556 C566 0.950 . S
H557 C568 0.950 . S
H558 C570 0.950 . S
H559 C571 0.950 1_556 S
C560 H552 0.950 . S
C560 C561 1.386 . S
C560 C562 1.391 . S
C561 C560 1.386 . S
C561 C565 1.393 . S
C562 H554 0.950 . S
C562 C560 1.391 . S
C562 C563 1.400 . S
C563 C562 1.400 . S
C563 C564 1.398 1_556 S
C563 C569 1.491 1_556 S
C564 H555 0.950 . S
C564 C563 1.398 1_554 S
C564 C565 1.391 1_554 S
C565 H553 0.950 1_556 S
C565 C561 1.393 . S
C565 C564 1.391 1_556 S
C566 H556 0.950 . S
C566 C567 1.386 . S
C566 C568 1.391 . S
C567 C566 1.386 . S
C567 C571 1.393 . S
C568 H557 0.950 . S
C568 C566 1.391 . S
C568 C569 1.400 . S
C569 C563 1.491 1_554 S
C569 C568 1.400 . S
C569 C570 1.398 1_554 S
C570 H558 0.950 . S
C570 C569 1.398 1_556 S
C570 C571 1.391 1_556 S
C571 H559 0.950 1_554 S
C571 C567 1.393 . S
C571 C570 1.391 1_554 S
H572 C580 0.950 . S
H573 C585 0.950 . S
H574 C582 0.950 . S
H575 C584 0.950 . S
H576 C586 0.950 . S
H577 C588 0.950 . S
H578 C590 0.950 . S
H579 C591 0.950 . S
C580 H572 0.950 . S
C580 C581 1.386 . S
C580 C582 1.391 . S
C581 C580 1.386 . S
C581 C585 1.393 . S
C582 H574 0.950 . S
C582 C580 1.391 . S
C582 C583 1.400 . S
C583 C582 1.400 . S
C583 C584 1.398 . S
C583 C589 1.491 . S
C584 H575 0.950 . S
C584 C583 1.398 . S
C584 C585 1.391 . S
C585 H573 0.950 . S
C585 C581 1.393 . S
C585 C584 1.391 . S
C586 H576 0.950 . S
C586 C587 1.386 . S
C586 C588 1.391 . S
C587 C586 1.386 . S
C587 C591 1.393 . S
C588 H577 0.950 . S
C588 C586 1.391 . S
C588 C589 1.400 . S
C589 C583 1.491 . S
C589 C588 1.400 . S
C589 C590 1.398 . S
C590 H578 0.950 . S
C590 C589 1.398 . S
C590 C591 1.391 . S
C591 H579 0.950 . S
C591 C587 1.393 . S
C591 C590 1.391 . S
H592 C600 0.950 . S
H593 C605 0.950 . S
H594 C602 0.950 . S
H595 C604 0.950 . S
H596 C606 0.950 . S
H597 C608 0.950 . S
H598 C610 0.950 . S
H599 C611 0.950 . S
C600 H592 0.950 . S
C600 C601 1.386 . S
C600 C602 1.391 . S
C601 C600 1.386 . S
C601 C605 1.393 . S
C602 H594 0.950 . S
C602 C600 1.391 . S
C602 C603 1.400 . S
C603 C602 1.400 . S
C603 C604 1.398 . S
C603 C609 1.491 . S
C604 H595 0.950 . S
C604 C603 1.398 . S
C604 C605 1.391 . S
C605 H593 0.950 . S
C605 C601 1.393 . S
C605 C604 1.391 . S
C606 H596 0.950 . S
C606 C607 1.386 . S
C606 C608 1.391 . S
C607 C606 1.386 . S
C607 C611 1.393 . S
C608 H597 0.950 . S
C608 C606 1.391 . S
C608 C609 1.400 . S
C609 C603 1.491 . S
C609 C608 1.400 . S
C609 C610 1.398 . S
C610 H598 0.950 . S
C610 C609 1.398 . S
C610 C611 1.391 . S
C611 H599 0.950 . S
C611 C607 1.393 . S
C611 C610 1.391 . S
H612 C620 0.950 . S
H613 C625 0.950 . S
H614 C622 0.950 . S
H615 C624 0.950 . S
H616 C626 0.950 . S
H617 C628 0.950 . S
H618 C630 0.950 . S
H619 C631 0.950 . S
C620 H612 0.950 . S
C620 C621 1.386 . S
C620 C622 1.391 . S
C621 C620 1.386 . S
C621 C625 1.393 . S
C622 H614 0.950 . S
C622 C620 1.391 . S
C622 C623 1.400 . S
C623 C622 1.400 . S
C623 C624 1.398 . S
C623 C629 1.491 1_554 S
C624 H615 0.950 . S
C624 C623 1.398 . S
C624 C625 1.391 . S
C625 H613 0.950 . S
C625 C621 1.393 . S
C625 C624 1.391 . S
C626 H616 0.950 . S
C626 C627 1.386 . S
C626 C628 1.391 . S
C627 C626 1.386 . S
C627 C631 1.393 . S
C628 H617 0.950 . S
C628 C626 1.391 . S
C628 C629 1.400 . S
C629 C623 1.491 1_556 S
C629 C628 1.400 . S
C629 C630 1.398 . S
C630 H618 0.950 . S
C630 C629 1.398 . S
C630 C631 1.391 . S
C631 H619 0.950 . S
C631 C627 1.393 . S
C631 C630 1.391 . S
H632 C640 0.950 . S
H633 C645 0.950 . S
H634 C642 0.950 . S
H635 C644 0.950 . S
H636 C646 0.950 . S
H637 C648 0.950 . S
H638 C650 0.950 . S
H639 C651 0.950 . S
C640 H632 0.950 . S
C640 C641 1.386 . S
C640 C642 1.391 . S
C641 C640 1.386 . S
C641 C645 1.393 . S
C642 H634 0.950 . S
C642 C640 1.391 . S
C642 C643 1.400 . S
C643 C642 1.400 . S
C643 C644 1.398 . S
C643 C649 1.491 . S
C644 H635 0.950 . S
C644 C643 1.398 . S
C644 C645 1.391 . S
C645 H633 0.950 . S
C645 C641 1.393 . S
C645 C644 1.391 . S
C646 H636 0.950 . S
C646 C647 1.386 . S
C646 C648 1.391 . S
C647 C646 1.386 . S
C647 C651 1.393 . S
C648 H637 0.950 . S
C648 C646 1.391 . S
C648 C649 1.400 . S
C649 C643 1.491 . S
C649 C648 1.400 . S
C649 C650 1.398 . S
C650 H638 0.950 . S
C650 C649 1.398 . S
C650 C651 1.391 . S
C651 H639 0.950 . S
C651 C647 1.393 . S
C651 C650 1.391 . S
H652 C660 0.950 . S
H653 C665 0.950 . S
H654 C662 0.950 . S
H655 C664 0.950 . S
H656 C666 0.950 . S
H657 C668 0.950 . S
H658 C670 0.950 . S
H659 C671 0.950 . S
C660 H652 0.950 . S
C660 C661 1.386 . S
C660 C662 1.391 . S
C661 C660 1.386 . S
C661 C665 1.393 . S
C662 H654 0.950 . S
C662 C660 1.391 . S
C662 C663 1.400 . S
C663 C662 1.400 . S
C663 C664 1.398 . S
C663 C669 1.491 . S
C664 H655 0.950 . S
C664 C663 1.398 . S
C664 C665 1.391 . S
C665 H653 0.950 . S
C665 C661 1.393 . S
C665 C664 1.391 . S
C666 H656 0.950 . S
C666 C667 1.386 . S
C666 C668 1.391 . S
C667 C666 1.386 . S
C667 C671 1.393 . S
C668 H657 0.950 . S
C668 C666 1.391 . S
C668 C669 1.400 . S
C669 C663 1.491 . S
C669 C668 1.400 . S
C669 C670 1.398 . S
C670 H658 0.950 . S
C670 C669 1.398 . S
C670 C671 1.391 . S
C671 H659 0.950 . S
C671 C667 1.393 . S
C671 C670 1.391 . S
H672 C680 0.950 . S
H673 C685 0.950 . S
H674 C682 0.950 . S
H675 C684 0.950 . S
H676 C686 0.950 . S
H677 C688 0.950 . S
H678 C690 0.950 . S
H679 C691 0.950 . S
C680 H672 0.950 . S
C680 C681 1.386 . S
C680 C682 1.391 . S
C681 C680 1.386 . S
C681 C685 1.393 . S
C682 H674 0.950 . S
C682 C680 1.391 . S
C682 C683 1.400 . S
C683 C682 1.400 . S
C683 C684 1.398 . S
C683 C689 1.491 . S
C684 H675 0.950 . S
C684 C683 1.398 . S
C684 C685 1.391 . S
C685 H673 0.950 . S
C685 C681 1.393 . S
C685 C684 1.391 . S
C686 H676 0.950 . S
C686 C687 1.386 . S
C686 C688 1.391 . S
C687 C686 1.386 . S
C687 C691 1.393 . S
C688 H677 0.950 . S
C688 C686 1.391 . S
C688 C689 1.400 . S
C689 C683 1.491 . S
C689 C688 1.400 . S
C689 C690 1.398 . S
C690 H678 0.950 . S
C690 C689 1.398 . S
C690 C691 1.391 . S
C691 H679 0.950 . S
C691 C687 1.393 . S
C691 C690 1.391 . S
H692 C700 0.950 . S
H693 C705 0.950 . S
H694 C702 0.950 . S
H695 C704 0.950 . S
H696 C706 0.950 . S
H697 C708 0.950 . S
H698 C710 0.950 . S
H699 C711 0.950 . S
C700 H692 0.950 . S
C700 C701 1.386 . S
C700 C702 1.391 . S
C701 C700 1.386 . S
C701 C705 1.393 1_655 S
C702 H694 0.950 . S
C702 C700 1.391 . S
C702 C703 1.400 . S
C703 C702 1.400 . S
C703 C704 1.398 1_655 S
C703 C709 1.491 . S
C704 H695 0.950 . S
C704 C703 1.398 1_455 S
C704 C705 1.391 . S
C705 H693 0.950 . S
C705 C701 1.393 1_455 S
C705 C704 1.391 . S
C706 H696 0.950 . S
C706 C707 1.386 1_455 S
C706 C708 1.391 . S
C707 C706 1.386 1_655 S
C707 C711 1.393 . S
C708 H697 0.950 . S
C708 C706 1.391 . S
C708 C709 1.400 1_455 S
C709 C703 1.491 . S
C709 C708 1.400 1_655 S
C709 C710 1.398 . S
C710 H698 0.950 . S
C710 C709 1.398 . S
C710 C711 1.391 . S
C711 H699 0.950 . S
C711 C707 1.393 . S
C711 C710 1.391 . S
H712 C720 0.950 . S
H713 C725 0.950 . S
H714 C722 0.950 . S
H715 C724 0.950 . S
H716 C726 0.950 . S
H717 C728 0.950 . S
H718 C730 0.950 . S
H719 C731 0.950 . S
C720 H712 0.950 . S
C720 C721 1.386 . S
C720 C722 1.391 . S
C721 C720 1.386 . S
C721 C725 1.393 1_565 S
C722 H714 0.950 . S
C722 C720 1.391 . S
C722 C723 1.409 . S
C723 C722 1.409 . S
C723 C724 1.389 1_565 S
C723 C729 1.491 1_565 S
C724 H715 0.950 . S
C724 C723 1.389 1_545 S
C724 C725 1.391 . S
C725 H713 0.950 . S
C725 C721 1.393 1_545 S
C725 C724 1.391 . S
C726 H716 0.950 . S
C726 C727 1.386 . S
C726 C728 1.391 . S
C727 C726 1.386 . S
C727 C731 1.393 1_545 S
C728 H717 0.950 . S
C728 C726 1.391 . S
C728 C729 1.410 . S
C729 C723 1.491 1_545 S
C729 C728 1.410 . S
C729 C730 1.389 1_545 S
C730 H718 0.950 . S
C730 C729 1.389 1_565 S
C730 C731 1.391 . S
C731 H719 0.950 . S
C731 C727 1.393 1_565 S
C731 C730 1.391 . S
H732 C740 0.950 . S
H733 C745 0.950 . S
H734 C742 0.950 . S
H735 C744 0.950 . S
H736 C746 0.950 . S
H737 C748 0.950 . S
H738 C750 0.950 . S
H739 C751 0.950 . S
C740 H732 0.950 . S
C740 C741 1.386 . S
C740 C742 1.391 . S
C741 C740 1.386 . S
C741 C745 1.393 . S
C742 H734 0.950 . S
C742 C740 1.391 . S
C742 C743 1.400 . S
C743 C742 1.400 . S
C743 C744 1.398 . S
C743 C749 1.491 . S
C744 H735 0.950 . S
C744 C743 1.398 . S
C744 C745 1.391 . S
C745 H733 0.950 . S
C745 C741 1.393 . S
C745 C744 1.391 . S
C746 H736 0.950 . S
C746 C747 1.386 . S
C746 C748 1.391 . S
C747 C746 1.386 . S
C747 C751 1.393 . S
C748 H737 0.950 . S
C748 C746 1.391 . S
C748 C749 1.400 . S
C749 C743 1.491 . S
C749 C748 1.400 . S
C749 C750 1.398 . S
C750 H738 0.950 . S
C750 C749 1.398 . S
C750 C751 1.391 . S
C751 H739 0.950 . S
C751 C747 1.393 . S
C751 C750 1.391 . S
H752 C760 0.950 . S
H753 C765 0.950 . S
H754 C762 0.950 . S
H755 C764 0.950 . S
H756 C766 0.950 . S
H757 C768 0.950 . S
H758 C770 0.950 . S
H759 C771 0.950 . S
C760 H752 0.950 . S
C760 C761 1.386 1_655 S
C760 C762 1.391 . S
C761 C760 1.386 1_455 S
C761 C765 1.393 . S
C762 H754 0.950 . S
C762 C760 1.391 . S
C762 C763 1.400 1_655 S
C763 C762 1.400 1_455 S
C763 C764 1.398 . S
C763 C769 1.491 . S
C764 H755 0.950 . S
C764 C763 1.398 . S
C764 C765 1.391 . S
C765 H753 0.950 . S
C765 C761 1.393 . S
C765 C764 1.391 . S
C766 H756 0.950 . S
C766 C767 1.386 . S
C766 C768 1.391 . S
C767 C766 1.386 . S
C767 C771 1.393 1_455 S
C768 H757 0.950 . S
C768 C766 1.391 . S
C768 C769 1.400 . S
C769 C763 1.491 . S
C769 C768 1.400 . S
C769 C770 1.398 1_455 S
C770 H758 0.950 . S
C770 C769 1.398 1_655 S
C770 C771 1.391 . S
C771 H759 0.950 . S
C771 C767 1.393 1_655 S
C771 C770 1.391 . S
H772 C780 0.950 . S
H773 C785 0.950 . S
H774 C782 0.950 . S
H775 C784 0.950 . S
H776 C786 0.950 . S
H777 C788 0.950 . S
H778 C790 0.950 . S
H779 C791 0.950 . S
C780 H772 0.950 . S
C780 C781 1.386 . S
C780 C782 1.391 . S
C781 C780 1.386 . S
C781 C785 1.393 1_565 S
C782 H774 0.950 . S
C782 C780 1.391 . S
C782 C783 1.410 . S
C783 C782 1.410 . S
C783 C784 1.392 1_565 S
C783 C789 1.488 1_565 S
C784 H775 0.950 . S
C784 C783 1.392 1_545 S
C784 C785 1.391 . S
C785 H773 0.950 . S
C785 C781 1.393 1_545 S
C785 C784 1.391 . S
C786 H776 0.950 . S
C786 C787 1.386 . S
C786 C788 1.391 . S
C787 C786 1.386 . S
C787 C791 1.393 1_545 S
C788 H777 0.950 . S
C788 C786 1.391 . S
C788 C789 1.410 . S
C789 C783 1.488 1_545 S
C789 C788 1.410 . S
C789 C790 1.392 1_545 S
C790 H778 0.950 . S
C790 C789 1.392 1_565 S
C790 C791 1.391 . S
C791 H779 0.950 . S
C791 C787 1.393 1_565 S
C791 C790 1.391 . S
H792 C800 0.950 . S
H793 C805 0.950 . S
H794 C802 0.950 . S
H795 C804 0.950 . S
H796 C806 0.950 . S
H797 C808 0.950 . S
H798 C810 0.950 . S
H799 C811 0.950 . S
C800 H792 0.950 . S
C800 C801 1.386 . S
C800 C802 1.391 . S
C801 C800 1.386 . S
C801 C805 1.393 . S
C802 H794 0.950 . S
C802 C800 1.391 . S
C802 C803 1.400 . S
C803 C802 1.400 . S
C803 C804 1.398 . S
C803 C809 1.491 . S
C804 H795 0.950 . S
C804 C803 1.398 . S
C804 C805 1.391 . S
C805 H793 0.950 . S
C805 C801 1.393 . S
C805 C804 1.391 . S
C806 H796 0.950 . S
C806 C807 1.386 . S
C806 C808 1.391 . S
C807 C806 1.386 . S
C807 C811 1.393 . S
C808 H797 0.950 . S
C808 C806 1.391 . S
C808 C809 1.400 . S
C809 C803 1.491 . S
C809 C808 1.400 . S
C809 C810 1.398 . S
C810 H798 0.950 . S
C810 C809 1.398 . S
C810 C811 1.391 . S
C811 H799 0.950 . S
C811 C807 1.393 . S
C811 C810 1.391 . S
H812 C820 0.950 . S
H813 C825 0.950 . S
H814 C822 0.950 . S
H815 C824 0.950 . S
H816 C826 0.950 . S
H817 C828 0.950 . S
H818 C830 0.950 . S
H819 C831 0.950 . S
C820 H812 0.950 . S
C820 C821 1.386 . S
C820 C822 1.391 . S
C821 C820 1.386 . S
C821 C825 1.393 1_455 S
C822 H814 0.950 . S
C822 C820 1.391 . S
C822 C823 1.400 . S
C823 C822 1.400 . S
C823 C824 1.398 1_455 S
C823 C829 1.491 1_455 S
C824 H815 0.950 . S
C824 C823 1.398 1_655 S
C824 C825 1.391 . S
C825 H813 0.950 . S
C825 C821 1.393 1_655 S
C825 C824 1.391 . S
C826 H816 0.950 . S
C826 C827 1.386 . S
C826 C828 1.391 . S
C827 C826 1.386 . S
C827 C831 1.393 1_655 S
C828 H817 0.950 . S
C828 C826 1.391 . S
C828 C829 1.400 . S
C829 C823 1.491 1_655 S
C829 C828 1.400 . S
C829 C830 1.398 1_655 S
C830 H818 0.950 . S
C830 C829 1.398 1_455 S
C830 C831 1.391 . S
C831 H819 0.950 . S
C831 C827 1.393 1_455 S
C831 C830 1.391 . S
H832 C840 0.950 . S
H833 C845 0.950 . S
H834 C842 0.950 1_545 S
H835 C844 0.950 . S
H836 C846 0.950 . S
H837 C848 0.950 1_565 S
H838 C850 0.950 . S
H839 C851 0.950 . S
C840 H832 0.950 . S
C840 C841 1.386 . S
C840 C842 1.391 . S
C841 C840 1.386 . S
C841 C845 1.393 . S
C842 H834 0.950 1_565 S
C842 C840 1.391 . S
C842 C843 1.400 . S
C843 C842 1.400 . S
C843 C844 1.398 . S
C843 C849 1.491 1_565 S
C844 H835 0.950 . S
C844 C843 1.398 . S
C844 C845 1.391 . S
C845 H833 0.950 . S
C845 C841 1.393 . S
C845 C844 1.391 . S
C846 H836 0.950 . S
C846 C847 1.386 . S
C846 C848 1.391 . S
C847 C846 1.386 . S
C847 C851 1.393 . S
C848 H837 0.950 1_545 S
C848 C846 1.391 . S
C848 C849 1.400 . S
C849 C843 1.491 1_545 S
C849 C848 1.400 . S
C849 C850 1.398 . S
C850 H838 0.950 . S
C850 C849 1.398 . S
C850 C851 1.391 . S
C851 H839 0.950 . S
C851 C847 1.393 . S
C851 C850 1.391 . S
H852 C860 0.950 . S
H853 C865 0.950 . S
H854 C862 0.950 . S
H855 C864 0.950 . S
H856 C866 0.950 . S
H857 C868 0.950 . S
H858 C870 0.950 . S
H859 C871 0.950 . S
C860 H852 0.950 . S
C860 C861 1.386 . S
C860 C862 1.391 . S
C861 C860 1.386 . S
C861 C865 1.393 . S
C862 H854 0.950 . S
C862 C860 1.391 . S
C862 C863 1.400 . S
C863 C862 1.400 . S
C863 C864 1.398 . S
C863 C869 1.491 . S
C864 H855 0.950 . S
C864 C863 1.398 . S
C864 C865 1.391 . S
C865 H853 0.950 . S
C865 C861 1.393 . S
C865 C864 1.391 . S
C866 H856 0.950 . S
C866 C867 1.386 . S
C866 C868 1.391 . S
C867 C866 1.386 . S
C867 C871 1.393 . S
C868 H857 0.950 . S
C868 C866 1.391 . S
C868 C869 1.400 . S
C869 C863 1.491 . S
C869 C868 1.400 . S
C869 C870 1.398 . S
C870 H858 0.950 . S
C870 C869 1.398 . S
C870 C871 1.391 . S
C871 H859 0.950 . S
C871 C867 1.393 . S
C871 C870 1.391 . S
H872 C880 0.950 . S
H873 C885 0.950 . S
H874 C882 0.950 . S
H875 C884 0.950 . S
H876 C886 0.950 . S
H877 C888 0.950 . S
H878 C890 0.950 . S
H879 C891 0.950 . S
C880 H872 0.950 . S
C880 C881 1.386 1_455 S
C880 C882 1.391 . S
C881 C880 1.386 1_655 S
C881 C885 1.393 . S
C882 H874 0.950 . S
C882 C880 1.391 . S
C882 C883 1.400 1_455 S
C883 C882 1.400 1_655 S
C883 C884 1.398 . S
C883 C889 1.491 1_655 S
C884 H875 0.950 . S
C884 C883 1.398 . S
C884 C885 1.391 . S
C885 H873 0.950 . S
C885 C881 1.393 . S
C885 C884 1.391 . S
C886 H876 0.950 . S
C886 C887 1.386 1_655 S
C886 C888 1.391 . S
C887 C886 1.386 1_455 S
C887 C891 1.393 . S
C888 H877 0.950 . S
C888 C886 1.391 . S
C888 C889 1.400 1_655 S
C889 C883 1.491 1_455 S
C889 C888 1.400 1_455 S
C889 C890 1.398 . S
C890 H878 0.950 . S
C890 C889 1.398 . S
C890 C891 1.391 . S
C891 H879 0.950 . S
C891 C887 1.393 . S
C891 C890 1.391 . S
H892 C900 0.950 . S
H893 C905 0.950 . S
H894 C902 0.950 . S
H895 C904 0.950 . S
H896 C906 0.950 . S
H897 C908 0.950 . S
H898 C910 0.950 . S
H899 C911 0.950 . S
C900 H892 0.950 . S
C900 C901 1.386 . S
C900 C902 1.391 . S
C901 C900 1.386 . S
C901 C905 1.393 1_545 S
C902 H894 0.950 . S
C902 C900 1.391 . S
C902 C903 1.400 . S
C903 C902 1.400 . S
C903 C904 1.398 1_545 S
C903 C909 1.491 1_545 S
C904 H895 0.950 . S
C904 C903 1.398 1_565 S
C904 C905 1.391 . S
C905 H893 0.950 . S
C905 C901 1.393 1_565 S
C905 C904 1.391 . S
C906 H896 0.950 . S
C906 C907 1.386 . S
C906 C908 1.391 . S
C907 C906 1.386 . S
C907 C911 1.393 1_565 S
C908 H897 0.950 . S
C908 C906 1.391 . S
C908 C909 1.400 . S
C909 C903 1.491 1_565 S
C909 C908 1.400 . S
C909 C910 1.398 1_565 S
C910 H898 0.950 . S
C910 C909 1.398 1_545 S
C910 C911 1.391 . S
C911 H899 0.950 . S
C911 C907 1.393 1_545 S
C911 C910 1.391 . S
C441 C3 1.587 . S
C447 C338 1.515 . S
C461 C50 1.535 . S
C467 C363 1.576 . S
C481 C75 1.372 . S
C487 C399 1.365 . S
C501 C111 1.585 . S
C507 C230 1.522 . S
C521 C255 1.578 . S
C527 C158 1.526 . S
C541 C291 1.361 . S
C547 C183 1.368 . S
C561 C374 1.397 . S
C567 C14 1.404 . S
C581 C39 1.485 . S
C587 C410 1.374 . S
C601 C86 1.405 . S
C607 C219 1.492 . S
C621 C122 1.398 . S
C627 C266 1.396 . S
C641 C147 1.493 . S
C647 C302 1.408 . S
C661 C194 1.382 . S
C667 C327 1.488 . S
C681 C326 0.785 . S
C687 C4 0.755 . S
C701 C38 0.790 . S
C707 C364 0.805 1_655 S
C721 C76 0.613 . S
C727 C400 0.655 . S
C741 C218 0.796 . S
C747 C112 0.764 . S
C761 C146 0.773 . S
C767 C256 0.748 1_455 S
C781 C292 0.592 . S
C787 C184 0.627 . S
C801 C2 1.556 . S
C807 C110 1.555 . S
C821 C148 1.338 . S
C827 C40 1.334 . S
C841 C74 1.454 . S
C847 C182 1.455 . S
C861 C220 1.337 . S
C867 C328 1.341 . S
C881 C254 1.565 . S
C887 C362 1.566 . S
C901 C398 1.445 . S
C907 C290 1.443 . S
