# Generated by pormake.
# Topology ukw, (4)-cn, num edge types: 1
# Building blocks:
#     Node 0, Type 0, BuildingBlock: NAWXER_clean_sbu_0, # of connection points: 4
#     Node 1, Type 0, BuildingBlock: NAWXER_clean_sbu_0, # of connection points: 4
#     Node 2, Type 0, BuildingBlock: NAWXER_clean_sbu_0, # of connection points: 4
#     Node 3, Type 0, BuildingBlock: NAWXER_clean_sbu_0, # of connection points: 4
#     Node 4, Type 0, BuildingBlock: NAWXER_clean_sbu_0, # of connection points: 4
#     Node 5, Type 0, BuildingBlock: NAWXER_clean_sbu_0, # of connection points: 4
#     Node 6, Type 0, BuildingBlock: NAWXER_clean_sbu_0, # of connection points: 4
#     Node 7, Type 0, BuildingBlock: NAWXER_clean_sbu_0, # of connection points: 4
#     Node 8, Type 0, BuildingBlock: NAWXER_clean_sbu_0, # of connection points: 4
#     Node 9, Type 0, BuildingBlock: NAWXER_clean_sbu_0, # of connection points: 4
#     Node 10, Type 0, BuildingBlock: NAWXER_clean_sbu_0, # of connection points: 4
#     Node 11, Type 0, BuildingBlock: NAWXER_clean_sbu_0, # of connection points: 4
#     Node 12, Type 0, BuildingBlock: NAWXER_clean_sbu_0, # of connection points: 4
#     Node 13, Type 0, BuildingBlock: NAWXER_clean_sbu_0, # of connection points: 4
#     Node 14, Type 0, BuildingBlock: NAWXER_clean_sbu_0, # of connection points: 4
#     Node 15, Type 0, BuildingBlock: NAWXER_clean_sbu_0, # of connection points: 4
#     Node 16, Type 0, BuildingBlock: NAWXER_clean_sbu_0, # of connection points: 4
#     Node 17, Type 0, BuildingBlock: NAWXER_clean_sbu_0, # of connection points: 4
#     Node 18, Type 0, BuildingBlock: NAWXER_clean_sbu_0, # of connection points: 4
#     Node 19, Type 0, BuildingBlock: NAWXER_clean_sbu_0, # of connection points: 4
#     Node 20, Type 0, BuildingBlock: NAWXER_clean_sbu_0, # of connection points: 4
#     Node 21, Type 0, BuildingBlock: NAWXER_clean_sbu_0, # of connection points: 4
#     Node 22, Type 0, BuildingBlock: NAWXER_clean_sbu_0, # of connection points: 4
#     Node 23, Type 0, BuildingBlock: NAWXER_clean_sbu_0, # of connection points: 4
#     Node 24, Type 0, BuildingBlock: NAWXER_clean_sbu_0, # of connection points: 4
#     Node 25, Type 0, BuildingBlock: NAWXER_clean_sbu_0, # of connection points: 4
#     Node 26, Type 0, BuildingBlock: NAWXER_clean_sbu_0, # of connection points: 4
#     Node 27, Type 0, BuildingBlock: NAWXER_clean_sbu_0, # of connection points: 4
#     Node 28, Type 0, BuildingBlock: NAWXER_clean_sbu_0, # of connection points: 4
#     Node 29, Type 0, BuildingBlock: NAWXER_clean_sbu_0, # of connection points: 4
#     Node 30, Type 0, BuildingBlock: NAWXER_clean_sbu_0, # of connection points: 4
#     Node 31, Type 0, BuildingBlock: NAWXER_clean_sbu_0, # of connection points: 4
#     Node 32, Type 0, BuildingBlock: NAWXER_clean_sbu_0, # of connection points: 4
#     Node 33, Type 0, BuildingBlock: NAWXER_clean_sbu_0, # of connection points: 4
#     Node 34, Type 0, BuildingBlock: NAWXER_clean_sbu_0, # of connection points: 4
#     Node 35, Type 0, BuildingBlock: NAWXER_clean_sbu_0, # of connection points: 4
#     Node 36, Type 0, BuildingBlock: NAWXER_clean_sbu_0, # of connection points: 4
#     Node 37, Type 0, BuildingBlock: NAWXER_clean_sbu_0, # of connection points: 4
#     Node 38, Type 0, BuildingBlock: NAWXER_clean_sbu_0, # of connection points: 4
#     Node 39, Type 0, BuildingBlock: NAWXER_clean_sbu_0, # of connection points: 4
#     Node 40, Type 0, BuildingBlock: NAWXER_clean_sbu_0, # of connection points: 4
#     Node 41, Type 0, BuildingBlock: NAWXER_clean_sbu_0, # of connection points: 4
#     Node 42, Type 0, BuildingBlock: NAWXER_clean_sbu_0, # of connection points: 4
#     Node 43, Type 0, BuildingBlock: NAWXER_clean_sbu_0, # of connection points: 4
#     Node 44, Type 0, BuildingBlock: NAWXER_clean_sbu_0, # of connection points: 4
#     Node 45, Type 0, BuildingBlock: NAWXER_clean_sbu_0, # of connection points: 4
#     Node 46, Type 0, BuildingBlock: NAWXER_clean_sbu_0, # of connection points: 4
#     Node 47, Type 0, BuildingBlock: NAWXER_clean_sbu_0, # of connection points: 4
#     Node 48, Type 0, BuildingBlock: NAWXER_clean_sbu_0, # of connection points: 4
#     Node 49, Type 0, BuildingBlock: NAWXER_clean_sbu_0, # of connection points: 4
#     Node 50, Type 0, BuildingBlock: NAWXER_clean_sbu_0, # of connection points: 4
#     Node 51, Type 0, BuildingBlock: NAWXER_clean_sbu_0, # of connection points: 4
#     Node 52, Type 0, BuildingBlock: NAWXER_clean_sbu_0, # of connection points: 4
#     Node 53, Type 0, BuildingBlock: NAWXER_clean_sbu_0, # of connection points: 4
#     Node 54, Type 0, BuildingBlock: NAWXER_clean_sbu_0, # of connection points: 4
#     Node 55, Type 0, BuildingBlock: NAWXER_clean_sbu_0, # of connection points: 4
#     Node 56, Type 0, BuildingBlock: NAWXER_clean_sbu_0, # of connection points: 4
#     Node 57, Type 0, BuildingBlock: NAWXER_clean_sbu_0, # of connection points: 4
#     Node 58, Type 0, BuildingBlock: NAWXER_clean_sbu_0, # of connection points: 4
#     Node 59, Type 0, BuildingBlock: NAWXER_clean_sbu_0, # of connection points: 4
#     Node 60, Type 0, BuildingBlock: NAWXER_clean_sbu_0, # of connection points: 4
#     Node 61, Type 0, BuildingBlock: NAWXER_clean_sbu_0, # of connection points: 4
#     Node 62, Type 0, BuildingBlock: NAWXER_clean_sbu_0, # of connection points: 4
#     Node 63, Type 0, BuildingBlock: NAWXER_clean_sbu_0, # of connection points: 4
#     Node 64, Type 0, BuildingBlock: NAWXER_clean_sbu_0, # of connection points: 4
#     Node 65, Type 0, BuildingBlock: NAWXER_clean_sbu_0, # of connection points: 4
#     Node 66, Type 0, BuildingBlock: NAWXER_clean_sbu_0, # of connection points: 4
#     Node 67, Type 0, BuildingBlock: NAWXER_clean_sbu_0, # of connection points: 4
#     Node 68, Type 0, BuildingBlock: NAWXER_clean_sbu_0, # of connection points: 4
#     Node 69, Type 0, BuildingBlock: NAWXER_clean_sbu_0, # of connection points: 4
#     Node 70, Type 0, BuildingBlock: NAWXER_clean_sbu_0, # of connection points: 4
#     Node 71, Type 0, BuildingBlock: NAWXER_clean_sbu_0, # of connection points: 4
#     Node 72, Type 0, BuildingBlock: NAWXER_clean_sbu_0, # of connection points: 4
#     Node 73, Type 0, BuildingBlock: NAWXER_clean_sbu_0, # of connection points: 4
#     Node 74, Type 0, BuildingBlock: NAWXER_clean_sbu_0, # of connection points: 4
#     Node 75, Type 0, BuildingBlock: NAWXER_clean_sbu_0, # of connection points: 4
#     Node 76, Type 0, BuildingBlock: NAWXER_clean_sbu_0, # of connection points: 4
#     Node 77, Type 0, BuildingBlock: NAWXER_clean_sbu_0, # of connection points: 4
#     Node 78, Type 0, BuildingBlock: NAWXER_clean_sbu_0, # of connection points: 4
#     Node 79, Type 0, BuildingBlock: NAWXER_clean_sbu_0, # of connection points: 4
#     Node 80, Type 0, BuildingBlock: NAWXER_clean_sbu_0, # of connection points: 4
#     Node 81, Type 0, BuildingBlock: NAWXER_clean_sbu_0, # of connection points: 4
#     Node 82, Type 0, BuildingBlock: NAWXER_clean_sbu_0, # of connection points: 4
#     Node 83, Type 0, BuildingBlock: NAWXER_clean_sbu_0, # of connection points: 4
#     Node 84, Type 0, BuildingBlock: NAWXER_clean_sbu_0, # of connection points: 4
#     Node 85, Type 0, BuildingBlock: NAWXER_clean_sbu_0, # of connection points: 4
#     Node 86, Type 0, BuildingBlock: NAWXER_clean_sbu_0, # of connection points: 4
#     Node 87, Type 0, BuildingBlock: NAWXER_clean_sbu_0, # of connection points: 4
#     Node 88, Type 0, BuildingBlock: NAWXER_clean_sbu_0, # of connection points: 4
#     Node 89, Type 0, BuildingBlock: NAWXER_clean_sbu_0, # of connection points: 4
#     Node 90, Type 0, BuildingBlock: NAWXER_clean_sbu_0, # of connection points: 4
#     Node 91, Type 0, BuildingBlock: NAWXER_clean_sbu_0, # of connection points: 4
#     Node 92, Type 0, BuildingBlock: NAWXER_clean_sbu_0, # of connection points: 4
#     Node 93, Type 0, BuildingBlock: NAWXER_clean_sbu_0, # of connection points: 4
#     Node 94, Type 0, BuildingBlock: NAWXER_clean_sbu_0, # of connection points: 4
#     Node 95, Type 0, BuildingBlock: NAWXER_clean_sbu_0, # of connection points: 4
#     Edge 96, Type (0, 0), BuildingBlock: XIVTED_clean_linker_0, # of connection points: 2
#     Edge 97, Type (0, 0), BuildingBlock: XIVTED_clean_linker_0, # of connection points: 2
#     Edge 98, Type (0, 0), BuildingBlock: XIVTED_clean_linker_0, # of connection points: 2
#     Edge 99, Type (0, 0), BuildingBlock: XIVTED_clean_linker_0, # of connection points: 2
#     Edge 100, Type (0, 0), BuildingBlock: XIVTED_clean_linker_0, # of connection points: 2
#     Edge 101, Type (0, 0), BuildingBlock: XIVTED_clean_linker_0, # of connection points: 2
#     Edge 102, Type (0, 0), BuildingBlock: XIVTED_clean_linker_0, # of connection points: 2
#     Edge 103, Type (0, 0), BuildingBlock: XIVTED_clean_linker_0, # of connection points: 2
#     Edge 104, Type (0, 0), BuildingBlock: XIVTED_clean_linker_0, # of connection points: 2
#     Edge 105, Type (0, 0), BuildingBlock: XIVTED_clean_linker_0, # of connection points: 2
#     Edge 106, Type (0, 0), BuildingBlock: XIVTED_clean_linker_0, # of connection points: 2
#     Edge 107, Type (0, 0), BuildingBlock: XIVTED_clean_linker_0, # of connection points: 2
#     Edge 108, Type (0, 0), BuildingBlock: XIVTED_clean_linker_0, # of connection points: 2
#     Edge 109, Type (0, 0), BuildingBlock: XIVTED_clean_linker_0, # of connection points: 2
#     Edge 110, Type (0, 0), BuildingBlock: XIVTED_clean_linker_0, # of connection points: 2
#     Edge 111, Type (0, 0), BuildingBlock: XIVTED_clean_linker_0, # of connection points: 2
#     Edge 112, Type (0, 0), BuildingBlock: XIVTED_clean_linker_0, # of connection points: 2
#     Edge 113, Type (0, 0), BuildingBlock: XIVTED_clean_linker_0, # of connection points: 2
#     Edge 114, Type (0, 0), BuildingBlock: XIVTED_clean_linker_0, # of connection points: 2
#     Edge 115, Type (0, 0), BuildingBlock: XIVTED_clean_linker_0, # of connection points: 2
#     Edge 116, Type (0, 0), BuildingBlock: XIVTED_clean_linker_0, # of connection points: 2
#     Edge 117, Type (0, 0), BuildingBlock: XIVTED_clean_linker_0, # of connection points: 2
#     Edge 118, Type (0, 0), BuildingBlock: XIVTED_clean_linker_0, # of connection points: 2
#     Edge 119, Type (0, 0), BuildingBlock: XIVTED_clean_linker_0, # of connection points: 2
#     Edge 120, Type (0, 0), BuildingBlock: XIVTED_clean_linker_0, # of connection points: 2
#     Edge 121, Type (0, 0), BuildingBlock: XIVTED_clean_linker_0, # of connection points: 2
#     Edge 122, Type (0, 0), BuildingBlock: XIVTED_clean_linker_0, # of connection points: 2
#     Edge 123, Type (0, 0), BuildingBlock: XIVTED_clean_linker_0, # of connection points: 2
#     Edge 124, Type (0, 0), BuildingBlock: XIVTED_clean_linker_0, # of connection points: 2
#     Edge 125, Type (0, 0), BuildingBlock: XIVTED_clean_linker_0, # of connection points: 2
#     Edge 126, Type (0, 0), BuildingBlock: XIVTED_clean_linker_0, # of connection points: 2
#     Edge 127, Type (0, 0), BuildingBlock: XIVTED_clean_linker_0, # of connection points: 2
#     Edge 128, Type (0, 0), BuildingBlock: XIVTED_clean_linker_0, # of connection points: 2
#     Edge 129, Type (0, 0), BuildingBlock: XIVTED_clean_linker_0, # of connection points: 2
#     Edge 130, Type (0, 0), BuildingBlock: XIVTED_clean_linker_0, # of connection points: 2
#     Edge 131, Type (0, 0), BuildingBlock: XIVTED_clean_linker_0, # of connection points: 2
#     Edge 132, Type (0, 0), BuildingBlock: XIVTED_clean_linker_0, # of connection points: 2
#     Edge 133, Type (0, 0), BuildingBlock: XIVTED_clean_linker_0, # of connection points: 2
#     Edge 134, Type (0, 0), BuildingBlock: XIVTED_clean_linker_0, # of connection points: 2
#     Edge 135, Type (0, 0), BuildingBlock: XIVTED_clean_linker_0, # of connection points: 2
#     Edge 136, Type (0, 0), BuildingBlock: XIVTED_clean_linker_0, # of connection points: 2
#     Edge 137, Type (0, 0), BuildingBlock: XIVTED_clean_linker_0, # of connection points: 2
#     Edge 138, Type (0, 0), BuildingBlock: XIVTED_clean_linker_0, # of connection points: 2
#     Edge 139, Type (0, 0), BuildingBlock: XIVTED_clean_linker_0, # of connection points: 2
#     Edge 140, Type (0, 0), BuildingBlock: XIVTED_clean_linker_0, # of connection points: 2
#     Edge 141, Type (0, 0), BuildingBlock: XIVTED_clean_linker_0, # of connection points: 2
#     Edge 142, Type (0, 0), BuildingBlock: XIVTED_clean_linker_0, # of connection points: 2
#     Edge 143, Type (0, 0), BuildingBlock: XIVTED_clean_linker_0, # of connection points: 2
#     Edge 144, Type (0, 0), BuildingBlock: XIVTED_clean_linker_0, # of connection points: 2
#     Edge 145, Type (0, 0), BuildingBlock: XIVTED_clean_linker_0, # of connection points: 2
#     Edge 146, Type (0, 0), BuildingBlock: XIVTED_clean_linker_0, # of connection points: 2
#     Edge 147, Type (0, 0), BuildingBlock: XIVTED_clean_linker_0, # of connection points: 2
#     Edge 148, Type (0, 0), BuildingBlock: XIVTED_clean_linker_0, # of connection points: 2
#     Edge 149, Type (0, 0), BuildingBlock: XIVTED_clean_linker_0, # of connection points: 2
#     Edge 150, Type (0, 0), BuildingBlock: XIVTED_clean_linker_0, # of connection points: 2
#     Edge 151, Type (0, 0), BuildingBlock: XIVTED_clean_linker_0, # of connection points: 2
#     Edge 152, Type (0, 0), BuildingBlock: XIVTED_clean_linker_0, # of connection points: 2
#     Edge 153, Type (0, 0), BuildingBlock: XIVTED_clean_linker_0, # of connection points: 2
#     Edge 154, Type (0, 0), BuildingBlock: XIVTED_clean_linker_0, # of connection points: 2
#     Edge 155, Type (0, 0), BuildingBlock: XIVTED_clean_linker_0, # of connection points: 2
#     Edge 156, Type (0, 0), BuildingBlock: XIVTED_clean_linker_0, # of connection points: 2
#     Edge 157, Type (0, 0), BuildingBlock: XIVTED_clean_linker_0, # of connection points: 2
#     Edge 158, Type (0, 0), BuildingBlock: XIVTED_clean_linker_0, # of connection points: 2
#     Edge 159, Type (0, 0), BuildingBlock: XIVTED_clean_linker_0, # of connection points: 2
#     Edge 160, Type (0, 0), BuildingBlock: XIVTED_clean_linker_0, # of connection points: 2
#     Edge 161, Type (0, 0), BuildingBlock: XIVTED_clean_linker_0, # of connection points: 2
#     Edge 162, Type (0, 0), BuildingBlock: XIVTED_clean_linker_0, # of connection points: 2
#     Edge 163, Type (0, 0), BuildingBlock: XIVTED_clean_linker_0, # of connection points: 2
#     Edge 164, Type (0, 0), BuildingBlock: XIVTED_clean_linker_0, # of connection points: 2
#     Edge 165, Type (0, 0), BuildingBlock: XIVTED_clean_linker_0, # of connection points: 2
#     Edge 166, Type (0, 0), BuildingBlock: XIVTED_clean_linker_0, # of connection points: 2
#     Edge 167, Type (0, 0), BuildingBlock: XIVTED_clean_linker_0, # of connection points: 2
#     Edge 168, Type (0, 0), BuildingBlock: XIVTED_clean_linker_0, # of connection points: 2
#     Edge 169, Type (0, 0), BuildingBlock: XIVTED_clean_linker_0, # of connection points: 2
#     Edge 170, Type (0, 0), BuildingBlock: XIVTED_clean_linker_0, # of connection points: 2
#     Edge 171, Type (0, 0), BuildingBlock: XIVTED_clean_linker_0, # of connection points: 2
#     Edge 172, Type (0, 0), BuildingBlock: XIVTED_clean_linker_0, # of connection points: 2
#     Edge 173, Type (0, 0), BuildingBlock: XIVTED_clean_linker_0, # of connection points: 2
#     Edge 174, Type (0, 0), BuildingBlock: XIVTED_clean_linker_0, # of connection points: 2
#     Edge 175, Type (0, 0), BuildingBlock: XIVTED_clean_linker_0, # of connection points: 2
#     Edge 176, Type (0, 0), BuildingBlock: XIVTED_clean_linker_0, # of connection points: 2
#     Edge 177, Type (0, 0), BuildingBlock: XIVTED_clean_linker_0, # of connection points: 2
#     Edge 178, Type (0, 0), BuildingBlock: XIVTED_clean_linker_0, # of connection points: 2
#     Edge 179, Type (0, 0), BuildingBlock: XIVTED_clean_linker_0, # of connection points: 2
#     Edge 180, Type (0, 0), BuildingBlock: XIVTED_clean_linker_0, # of connection points: 2
#     Edge 181, Type (0, 0), BuildingBlock: XIVTED_clean_linker_0, # of connection points: 2
#     Edge 182, Type (0, 0), BuildingBlock: XIVTED_clean_linker_0, # of connection points: 2
#     Edge 183, Type (0, 0), BuildingBlock: XIVTED_clean_linker_0, # of connection points: 2
#     Edge 184, Type (0, 0), BuildingBlock: XIVTED_clean_linker_0, # of connection points: 2
#     Edge 185, Type (0, 0), BuildingBlock: XIVTED_clean_linker_0, # of connection points: 2
#     Edge 186, Type (0, 0), BuildingBlock: XIVTED_clean_linker_0, # of connection points: 2
#     Edge 187, Type (0, 0), BuildingBlock: XIVTED_clean_linker_0, # of connection points: 2
#     Edge 188, Type (0, 0), BuildingBlock: XIVTED_clean_linker_0, # of connection points: 2
#     Edge 189, Type (0, 0), BuildingBlock: XIVTED_clean_linker_0, # of connection points: 2
#     Edge 190, Type (0, 0), BuildingBlock: XIVTED_clean_linker_0, # of connection points: 2
#     Edge 191, Type (0, 0), BuildingBlock: XIVTED_clean_linker_0, # of connection points: 2
#     Edge 192, Type (0, 0), BuildingBlock: XIVTED_clean_linker_0, # of connection points: 2
#     Edge 193, Type (0, 0), BuildingBlock: XIVTED_clean_linker_0, # of connection points: 2
#     Edge 194, Type (0, 0), BuildingBlock: XIVTED_clean_linker_0, # of connection points: 2
#     Edge 195, Type (0, 0), BuildingBlock: XIVTED_clean_linker_0, # of connection points: 2
#     Edge 196, Type (0, 0), BuildingBlock: XIVTED_clean_linker_0, # of connection points: 2
#     Edge 197, Type (0, 0), BuildingBlock: XIVTED_clean_linker_0, # of connection points: 2
#     Edge 198, Type (0, 0), BuildingBlock: XIVTED_clean_linker_0, # of connection points: 2
#     Edge 199, Type (0, 0), BuildingBlock: XIVTED_clean_linker_0, # of connection points: 2
#     Edge 200, Type (0, 0), BuildingBlock: XIVTED_clean_linker_0, # of connection points: 2
#     Edge 201, Type (0, 0), BuildingBlock: XIVTED_clean_linker_0, # of connection points: 2
#     Edge 202, Type (0, 0), BuildingBlock: XIVTED_clean_linker_0, # of connection points: 2
#     Edge 203, Type (0, 0), BuildingBlock: XIVTED_clean_linker_0, # of connection points: 2
#     Edge 204, Type (0, 0), BuildingBlock: XIVTED_clean_linker_0, # of connection points: 2
#     Edge 205, Type (0, 0), BuildingBlock: XIVTED_clean_linker_0, # of connection points: 2
#     Edge 206, Type (0, 0), BuildingBlock: XIVTED_clean_linker_0, # of connection points: 2
#     Edge 207, Type (0, 0), BuildingBlock: XIVTED_clean_linker_0, # of connection points: 2
#     Edge 208, Type (0, 0), BuildingBlock: XIVTED_clean_linker_0, # of connection points: 2
#     Edge 209, Type (0, 0), BuildingBlock: XIVTED_clean_linker_0, # of connection points: 2
#     Edge 210, Type (0, 0), BuildingBlock: XIVTED_clean_linker_0, # of connection points: 2
#     Edge 211, Type (0, 0), BuildingBlock: XIVTED_clean_linker_0, # of connection points: 2
#     Edge 212, Type (0, 0), BuildingBlock: XIVTED_clean_linker_0, # of connection points: 2
#     Edge 213, Type (0, 0), BuildingBlock: XIVTED_clean_linker_0, # of connection points: 2
#     Edge 214, Type (0, 0), BuildingBlock: XIVTED_clean_linker_0, # of connection points: 2
#     Edge 215, Type (0, 0), BuildingBlock: XIVTED_clean_linker_0, # of connection points: 2
#     Edge 216, Type (0, 0), BuildingBlock: XIVTED_clean_linker_0, # of connection points: 2
#     Edge 217, Type (0, 0), BuildingBlock: XIVTED_clean_linker_0, # of connection points: 2
#     Edge 218, Type (0, 0), BuildingBlock: XIVTED_clean_linker_0, # of connection points: 2
#     Edge 219, Type (0, 0), BuildingBlock: XIVTED_clean_linker_0, # of connection points: 2
#     Edge 220, Type (0, 0), BuildingBlock: XIVTED_clean_linker_0, # of connection points: 2
#     Edge 221, Type (0, 0), BuildingBlock: XIVTED_clean_linker_0, # of connection points: 2
#     Edge 222, Type (0, 0), BuildingBlock: XIVTED_clean_linker_0, # of connection points: 2
#     Edge 223, Type (0, 0), BuildingBlock: XIVTED_clean_linker_0, # of connection points: 2
#     Edge 224, Type (0, 0), BuildingBlock: XIVTED_clean_linker_0, # of connection points: 2
#     Edge 225, Type (0, 0), BuildingBlock: XIVTED_clean_linker_0, # of connection points: 2
#     Edge 226, Type (0, 0), BuildingBlock: XIVTED_clean_linker_0, # of connection points: 2
#     Edge 227, Type (0, 0), BuildingBlock: XIVTED_clean_linker_0, # of connection points: 2
#     Edge 228, Type (0, 0), BuildingBlock: XIVTED_clean_linker_0, # of connection points: 2
#     Edge 229, Type (0, 0), BuildingBlock: XIVTED_clean_linker_0, # of connection points: 2
#     Edge 230, Type (0, 0), BuildingBlock: XIVTED_clean_linker_0, # of connection points: 2
#     Edge 231, Type (0, 0), BuildingBlock: XIVTED_clean_linker_0, # of connection points: 2
#     Edge 232, Type (0, 0), BuildingBlock: XIVTED_clean_linker_0, # of connection points: 2
#     Edge 233, Type (0, 0), BuildingBlock: XIVTED_clean_linker_0, # of connection points: 2
#     Edge 234, Type (0, 0), BuildingBlock: XIVTED_clean_linker_0, # of connection points: 2
#     Edge 235, Type (0, 0), BuildingBlock: XIVTED_clean_linker_0, # of connection points: 2
#     Edge 236, Type (0, 0), BuildingBlock: XIVTED_clean_linker_0, # of connection points: 2
#     Edge 237, Type (0, 0), BuildingBlock: XIVTED_clean_linker_0, # of connection points: 2
#     Edge 238, Type (0, 0), BuildingBlock: XIVTED_clean_linker_0, # of connection points: 2
#     Edge 239, Type (0, 0), BuildingBlock: XIVTED_clean_linker_0, # of connection points: 2
#     Edge 240, Type (0, 0), BuildingBlock: XIVTED_clean_linker_0, # of connection points: 2
#     Edge 241, Type (0, 0), BuildingBlock: XIVTED_clean_linker_0, # of connection points: 2
#     Edge 242, Type (0, 0), BuildingBlock: XIVTED_clean_linker_0, # of connection points: 2
#     Edge 243, Type (0, 0), BuildingBlock: XIVTED_clean_linker_0, # of connection points: 2
#     Edge 244, Type (0, 0), BuildingBlock: XIVTED_clean_linker_0, # of connection points: 2
#     Edge 245, Type (0, 0), BuildingBlock: XIVTED_clean_linker_0, # of connection points: 2
#     Edge 246, Type (0, 0), BuildingBlock: XIVTED_clean_linker_0, # of connection points: 2
#     Edge 247, Type (0, 0), BuildingBlock: XIVTED_clean_linker_0, # of connection points: 2
#     Edge 248, Type (0, 0), BuildingBlock: XIVTED_clean_linker_0, # of connection points: 2
#     Edge 249, Type (0, 0), BuildingBlock: XIVTED_clean_linker_0, # of connection points: 2
#     Edge 250, Type (0, 0), BuildingBlock: XIVTED_clean_linker_0, # of connection points: 2
#     Edge 251, Type (0, 0), BuildingBlock: XIVTED_clean_linker_0, # of connection points: 2
#     Edge 252, Type (0, 0), BuildingBlock: XIVTED_clean_linker_0, # of connection points: 2
#     Edge 253, Type (0, 0), BuildingBlock: XIVTED_clean_linker_0, # of connection points: 2
#     Edge 254, Type (0, 0), BuildingBlock: XIVTED_clean_linker_0, # of connection points: 2
#     Edge 255, Type (0, 0), BuildingBlock: XIVTED_clean_linker_0, # of connection points: 2
#     Edge 256, Type (0, 0), BuildingBlock: XIVTED_clean_linker_0, # of connection points: 2
#     Edge 257, Type (0, 0), BuildingBlock: XIVTED_clean_linker_0, # of connection points: 2
#     Edge 258, Type (0, 0), BuildingBlock: XIVTED_clean_linker_0, # of connection points: 2
#     Edge 259, Type (0, 0), BuildingBlock: XIVTED_clean_linker_0, # of connection points: 2
#     Edge 260, Type (0, 0), BuildingBlock: XIVTED_clean_linker_0, # of connection points: 2
#     Edge 261, Type (0, 0), BuildingBlock: XIVTED_clean_linker_0, # of connection points: 2
#     Edge 262, Type (0, 0), BuildingBlock: XIVTED_clean_linker_0, # of connection points: 2
#     Edge 263, Type (0, 0), BuildingBlock: XIVTED_clean_linker_0, # of connection points: 2
#     Edge 264, Type (0, 0), BuildingBlock: XIVTED_clean_linker_0, # of connection points: 2
#     Edge 265, Type (0, 0), BuildingBlock: XIVTED_clean_linker_0, # of connection points: 2
#     Edge 266, Type (0, 0), BuildingBlock: XIVTED_clean_linker_0, # of connection points: 2
#     Edge 267, Type (0, 0), BuildingBlock: XIVTED_clean_linker_0, # of connection points: 2
#     Edge 268, Type (0, 0), BuildingBlock: XIVTED_clean_linker_0, # of connection points: 2
#     Edge 269, Type (0, 0), BuildingBlock: XIVTED_clean_linker_0, # of connection points: 2
#     Edge 270, Type (0, 0), BuildingBlock: XIVTED_clean_linker_0, # of connection points: 2
#     Edge 271, Type (0, 0), BuildingBlock: XIVTED_clean_linker_0, # of connection points: 2
#     Edge 272, Type (0, 0), BuildingBlock: XIVTED_clean_linker_0, # of connection points: 2
#     Edge 273, Type (0, 0), BuildingBlock: XIVTED_clean_linker_0, # of connection points: 2
#     Edge 274, Type (0, 0), BuildingBlock: XIVTED_clean_linker_0, # of connection points: 2
#     Edge 275, Type (0, 0), BuildingBlock: XIVTED_clean_linker_0, # of connection points: 2
#     Edge 276, Type (0, 0), BuildingBlock: XIVTED_clean_linker_0, # of connection points: 2
#     Edge 277, Type (0, 0), BuildingBlock: XIVTED_clean_linker_0, # of connection points: 2
#     Edge 278, Type (0, 0), BuildingBlock: XIVTED_clean_linker_0, # of connection points: 2
#     Edge 279, Type (0, 0), BuildingBlock: XIVTED_clean_linker_0, # of connection points: 2
#     Edge 280, Type (0, 0), BuildingBlock: XIVTED_clean_linker_0, # of connection points: 2
#     Edge 281, Type (0, 0), BuildingBlock: XIVTED_clean_linker_0, # of connection points: 2
#     Edge 282, Type (0, 0), BuildingBlock: XIVTED_clean_linker_0, # of connection points: 2
#     Edge 283, Type (0, 0), BuildingBlock: XIVTED_clean_linker_0, # of connection points: 2
#     Edge 284, Type (0, 0), BuildingBlock: XIVTED_clean_linker_0, # of connection points: 2
#     Edge 285, Type (0, 0), BuildingBlock: XIVTED_clean_linker_0, # of connection points: 2
#     Edge 286, Type (0, 0), BuildingBlock: XIVTED_clean_linker_0, # of connection points: 2
#     Edge 287, Type (0, 0), BuildingBlock: XIVTED_clean_linker_0, # of connection points: 2
# Relax obj value: 0.131
# Max RMSD: 0.268
# Mean RMSD: 0.268
data_MOF--net-ukw--node1-NAWXER_clean_sbu_0--edge1-XIVTED_clean_linker_0
_symmetry_space_group_name_H-M    P1
_symmetry_Int_Tables_number       1
_symmetry_cell_setting            triclinic
loop_
_symmetry_equiv_pos_as_xyz
'x, y, z'
_cell_length_a     76.804146
_cell_length_b     76.7999
_cell_length_c     76.813562
_cell_angle_alpha  89.982281
_cell_angle_beta   89.994328
_cell_angle_gamma 90.052691
loop_
_atom_site_label
_atom_site_type_symbol
_atom_site_fract_x
_atom_site_fract_y
_atom_site_fract_z
_atom_type_partial_charge
C0 C -0.00017 0.07417 0.35346 0.0
C1 C 0.05893 0.08839 0.33712 0.0
O2 O 0.00223 0.09072 0.35339 0.0
Zn3 Zn 0.02352 0.10818 0.34724 0.0
O4 O 0.01214 0.06412 0.34898 0.0
Zn5 Zn 0.02898 0.08181 0.34424 0.0
O6 O 0.0343 0.09283 0.37005 0.0
O7 O 0.02605 0.12037 0.36851 0.0
O8 O 0.05132 0.07374 0.33681 0.0
O9 O 0.05023 0.10217 0.34077 0.0
O10 O 0.01525 0.12183 0.32819 0.0
O11 O 0.01836 0.09419 0.32132 0.0
C12 C 0.03235 0.10784 0.37724 0.0
C13 C 0.01382 0.10971 0.31711 0.0
C14 C 0.16267 0.7489 0.6008 0.0
C15 C 0.1496 0.80901 0.58785 0.0
O16 O 0.14631 0.75195 0.60238 0.0
Zn17 Zn 0.12922 0.774 0.59823 0.0
O18 O 0.17277 0.76086 0.5955 0.0
Zn19 Zn 0.15545 0.77849 0.59293 0.0
O20 O 0.14713 0.78316 0.61982 0.0
O21 O 0.11918 0.77621 0.62066 0.0
O22 O 0.16374 0.80079 0.58567 0.0
O23 O 0.13581 0.80072 0.59239 0.0
O24 O 0.11362 0.76674 0.58018 0.0
O25 O 0.14067 0.76902 0.57105 0.0
C26 C 0.13281 0.78156 0.62834 0.0
C27 C 0.12471 0.7651 0.56808 0.0
C28 C 0.45679 0.88982 0.8787 0.0
C29 C 0.47981 0.88676 0.82024 0.0
O30 O 0.45801 0.90517 0.87216 0.0
Zn31 Zn 0.46581 0.91582 0.84706 0.0
O32 O 0.46124 0.87672 0.86972 0.0
Zn33 Zn 0.468 0.88902 0.84934 0.0
O34 O 0.49093 0.90392 0.85746 0.0
O35 O 0.48392 0.93143 0.85302 0.0
O36 O 0.47648 0.87471 0.83101 0.0
O37 O 0.47655 0.90263 0.82439 0.0
O38 O 0.44507 0.92675 0.8388 0.0
O39 O 0.44324 0.89811 0.83949 0.0
C40 C 0.49495 0.92018 0.85792 0.0
C41 C 0.43633 0.91298 0.83629 0.0
C42 C 0.32513 0.24571 0.10466 0.0
C43 C 0.33654 0.18562 0.08976 0.0
O44 O 0.34156 0.2428 0.10361 0.0
Zn45 Zn 0.35796 0.22046 0.09841 0.0
O46 O 0.31439 0.23347 0.10184 0.0
Zn47 Zn 0.33126 0.21599 0.09638 0.0
O48 O 0.34267 0.21085 0.12184 0.0
O49 O 0.37041 0.21818 0.1197 0.0
O50 O 0.32218 0.19377 0.08961 0.0
O51 O 0.35072 0.1939 0.09283 0.0
O52 O 0.37152 0.22744 0.07885 0.0
O53 O 0.34348 0.22598 0.07292 0.0
C54 C 0.35782 0.21248 0.12876 0.0
C55 C 0.35912 0.22959 0.06818 0.0
C56 C -0.00048 0.92275 0.13647 0.0
C57 C 0.05831 0.91364 0.15667 0.0
O58 O 0.00291 0.90641 0.13746 0.0
Zn59 Zn 0.02511 0.89081 0.14541 0.0
O60 O 0.01099 0.93376 0.14095 0.0
Zn61 Zn 0.02865 0.91756 0.14716 0.0
O62 O 0.0357 0.90597 0.12225 0.0
O63 O 0.02991 0.87793 0.12488 0.0
O64 O 0.05001 0.92773 0.15457 0.0
O65 O 0.0507 0.89901 0.15389 0.0
O66 O 0.01663 0.87734 0.16437 0.0
O67 O 0.018 0.90536 0.17039 0.0
C68 C 0.03534 0.89057 0.11574 0.0
C69 C 0.01417 0.88973 0.17498 0.0
C70 C 0.3586 0.78489 0.36563 0.0
C71 C 0.3615 0.76173 0.42411 0.0
O72 O 0.34342 0.78494 0.3727 0.0
Zn73 Zn 0.33287 0.77771 0.39823 0.0
O74 O 0.3716 0.7792 0.37408 0.0
Zn75 Zn 0.35945 0.77367 0.39484 0.0
O76 O 0.34275 0.75213 0.38703 0.0
O77 O 0.31586 0.76073 0.39252 0.0
O78 O 0.37351 0.76445 0.41315 0.0
O79 O 0.3458 0.76596 0.42028 0.0
O80 O 0.32389 0.79918 0.40722 0.0
O81 O 0.35235 0.79931 0.40354 0.0
C82 C 0.32627 0.74916 0.38702 0.0
C83 C 0.33828 0.80724 0.40772 0.0
C84 C 0.46014 0.10549 0.61274 0.0
C85 C 0.48249 0.10854 0.67131 0.0
O86 O 0.46085 0.09013 0.61931 0.0
Zn87 Zn 0.46849 0.07944 0.6445 0.0
O88 O 0.46524 0.11845 0.62158 0.0
Zn89 Zn 0.47141 0.10606 0.642 0.0
O90 O 0.49415 0.09061 0.63441 0.0
O91 O 0.48621 0.06338 0.63892 0.0
O92 O 0.47978 0.12045 0.66024 0.0
O93 O 0.47895 0.09267 0.66736 0.0
O94 O 0.44754 0.06884 0.65245 0.0
O95 O 0.44616 0.09751 0.65143 0.0
C96 C 0.49768 0.07424 0.63418 0.0
C97 C 0.43895 0.08275 0.65457 0.0
C98 C 0.15525 0.18611 0.90558 0.0
C99 C 0.16847 0.24514 0.88787 0.0
O100 O 0.14137 0.19454 0.90169 0.0
Zn101 Zn 0.13491 0.22098 0.89462 0.0
O102 O 0.16978 0.19397 0.90587 0.0
Zn103 Zn 0.16136 0.21608 0.89792 0.0
O104 O 0.14864 0.22702 0.9205 0.0
O105 O 0.121 0.22945 0.91338 0.0
O106 O 0.17874 0.23318 0.89279 0.0
O107 O 0.15198 0.24241 0.88793 0.0
O108 O 0.12287 0.21765 0.87338 0.0
O109 O 0.15058 0.20995 0.87219 0.0
C110 C 0.13302 0.23138 0.92449 0.0
C111 C 0.13558 0.2114 0.86488 0.0
C112 C 0.31789 0.01225 0.11779 0.0
C113 C 0.37824 0.02943 0.11244 0.0
O114 O 0.32161 0.01589 0.10192 0.0
Zn115 Zn 0.34411 0.02531 0.08804 0.0
O116 O 0.32943 0.01413 0.12942 0.0
Zn117 Zn 0.3481 0.02137 0.11461 0.0
O118 O 0.34187 0.04778 0.10725 0.0
O119 O 0.33683 0.04733 0.07898 0.0
O120 O 0.36993 0.02423 0.12574 0.0
O121 O 0.37045 0.03061 0.09766 0.0
O122 O 0.34776 0.0073 0.07127 0.0
O123 O 0.35337 -0.00093 0.09823 0.0
C124 C 0.33785 0.05576 0.09313 0.0
C125 C 0.35265 0.99563 0.08189 0.0
C126 C 0.24824 0.10904 0.32784 0.0
C127 C 0.18872 0.09072 0.33725 0.0
O128 O 0.24498 0.10731 0.34414 0.0
Zn129 Zn 0.22258 0.10037 0.35979 0.0
O130 O 0.23647 0.10577 0.31671 0.0
Zn131 Zn 0.21886 0.09889 0.33294 0.0
O132 O 0.21213 0.1237 0.34496 0.0
O133 O 0.21885 0.12109 0.37281 0.0
O134 O 0.19719 0.09137 0.3231 0.0
O135 O 0.19651 0.09374 0.35171 0.0
O136 O 0.23016 0.08079 0.37294 0.0
O137 O 0.2295 0.07552 0.34476 0.0
C138 C 0.21299 0.1302 0.36035 0.0
C139 C 0.23295 0.07053 0.36034 0.0
C140 C 0.13724 -0.00193 0.58076 0.0
C141 C 0.15317 0.93873 0.59338 0.0
O142 O 0.13675 0.9953 0.59725 0.0
Zn143 Zn 0.14263 0.97347 0.61426 0.0
O144 O 0.14223 0.98606 0.57061 0.0
Zn145 Zn 0.14643 0.9689 0.58793 0.0
O146 O 0.12029 0.96319 0.59802 0.0
O147 O 0.12104 0.97055 0.62584 0.0
O148 O 0.15402 0.94704 0.57915 0.0
O149 O 0.14912 0.94679 0.60745 0.0
O150 O 0.16133 0.98137 0.62871 0.0
O151 O 0.16902 0.97899 0.60124 0.0
C152 C 0.11267 0.96465 0.61287 0.0
C153 C 0.17279 0.98308 0.61699 0.0
C154 C 0.30833 0.90675 0.82862 0.0
C155 C 0.24977 0.88355 0.8272 0.0
O156 O 0.30188 0.90578 0.84398 0.0
Zn157 Zn 0.27777 0.89736 0.8554 0.0
O158 O 0.29921 0.90223 0.81564 0.0
Zn159 Zn 0.27875 0.89551 0.82835 0.0
O160 O 0.2677 0.91966 0.83849 0.0
O161 O 0.26969 0.91752 0.86706 0.0
O162 O 0.26026 0.88624 0.81473 0.0
O163 O 0.25435 0.8872 0.84288 0.0
O164 O 0.28517 0.87882 0.87024 0.0
O165 O 0.28715 0.87251 0.84228 0.0
C166 C 0.26516 0.92613 0.85373 0.0
C167 C 0.28901 0.86812 0.85829 0.0
C168 C 0.3214 0.98066 0.38302 0.0
C169 C 0.38062 0.95927 0.38466 0.0
O170 O 0.32606 0.97738 0.39874 0.0
Zn171 Zn 0.349 0.96666 0.41128 0.0
O172 O 0.33182 0.97748 0.37063 0.0
Zn173 Zn 0.35099 0.96971 0.38431 0.0
O174 O 0.34339 0.94424 0.39286 0.0
O175 O 0.34101 0.94521 0.42145 0.0
O176 O 0.37171 0.96438 0.37173 0.0
O177 O 0.374 0.9596 0.4 0.0
O178 O 0.3556 0.98446 0.42722 0.0
O179 O 0.35802 0.99241 0.39965 0.0
C180 C 0.34014 0.93665 0.40736 0.0
C181 C 0.35929 0.99596 0.41595 0.0
C182 C 0.28712 0.12667 0.64028 0.0
C183 C 0.26562 0.06757 0.64233 0.0
O184 O 0.28753 0.12084 0.65596 0.0
Zn185 Zn 0.28057 0.09647 0.66874 0.0
O186 O 0.28166 0.11698 0.62808 0.0
Zn187 Zn 0.27701 0.09702 0.64193 0.0
O188 O 0.25484 0.10558 0.65728 0.0
O189 O 0.26299 0.10344 0.68475 0.0
O190 O 0.26849 0.07743 0.62943 0.0
O191 O 0.26945 0.07287 0.65773 0.0
O192 O 0.30205 0.0895 0.67907 0.0
O193 O 0.30266 0.08912 0.65035 0.0
C194 C 0.25147 0.1073 0.67357 0.0
C195 C 0.31035 0.087 0.66504 0.0
C196 C 0.13497 -0.00304 0.91007 0.0
C197 C 0.15448 0.05639 0.90254 0.0
O198 O 0.13623 0.0008 0.89383 0.0
Zn199 Zn 0.14375 0.02366 0.87888 0.0
O200 O 0.13912 0.00814 0.92149 0.0
Zn201 Zn 0.14585 0.02619 0.90584 0.0
O202 O 0.12082 0.03349 0.89467 0.0
O203 O 0.12314 0.02923 0.8663 0.0
O204 O 0.15379 0.04745 0.91641 0.0
O205 O 0.1512 0.04913 0.88787 0.0
O206 O 0.16285 0.01597 0.86506 0.0
O207 O 0.16876 0.01573 0.89312 0.0
C208 C 0.11421 0.03409 0.87932 0.0
C209 C 0.17335 0.01266 0.87733 0.0
C210 C 0.24635 0.88452 0.17108 0.0
C211 C 0.18657 0.90261 0.16466 0.0
O212 O 0.24245 0.88624 0.15491 0.0
Zn213 Zn 0.21945 0.89381 0.14036 0.0
O214 O 0.23495 0.88752 0.18262 0.0
Zn215 Zn 0.21657 0.89376 0.16728 0.0
O216 O 0.21007 0.86941 0.15437 0.0
O217 O 0.21511 0.87381 0.12643 0.0
O218 O 0.19525 0.89979 0.1784 0.0
O219 O 0.19388 0.90101 0.14972 0.0
O220 O 0.22674 0.91391 0.12786 0.0
O221 O 0.22607 0.91804 0.15626 0.0
C222 C 0.21027 0.86379 0.13862 0.0
C223 C 0.22926 0.92375 0.14086 0.0
C224 C 0.07298 0.35713 0.0006 0.0
C225 C 0.08513 0.33837 0.05934 0.0
O226 O 0.08949 0.3567 0.00333 0.0
Zn227 Zn 0.10624 0.34906 0.02495 0.0
O228 O 0.06259 0.35227 0.01248 0.0
Zn229 Zn 0.07967 0.3466 0.02938 0.0
O230 O 0.09113 0.3721 0.03543 0.0
O231 O 0.11917 0.36958 0.02934 0.0
O232 O 0.07071 0.33873 0.05134 0.0
O233 O 0.09923 0.34185 0.05111 0.0
O234 O 0.11962 0.33001 0.01636 0.0
O235 O 0.09171 0.32378 0.01814 0.0
C236 C 0.10654 0.37866 0.03485 0.0
C237 C 0.10727 0.31935 0.01397 0.0
C238 C 0.57292 0.13306 0.99245 0.0
C239 C 0.57631 0.15519 0.93368 0.0
O240 O 0.58873 0.1366 0.9883 0.0
Zn241 Zn 0.60209 0.1458 0.96517 0.0
O242 O 0.56083 0.13535 0.98145 0.0
Zn243 Zn 0.57509 0.14435 0.9632 0.0
O244 O 0.58893 0.12124 0.95487 0.0
O245 O 0.61678 0.12666 0.95932 0.0
O246 O 0.56299 0.1512 0.94259 0.0
O247 O 0.59152 0.1539 0.94045 0.0
O248 O 0.61387 0.16597 0.9731 0.0
O249 O 0.58529 0.16857 0.97417 0.0
C250 C 0.6049 0.11636 0.95429 0.0
C251 C 0.60055 0.17487 0.97702 0.0
C252 C 0.07195 0.36422 0.23379 0.0
C253 C 0.13047 0.36013 0.2111 0.0
O254 O 0.07555 0.3484 0.2298 0.0
Zn255 Zn 0.0976 0.33491 0.21873 0.0
O256 O 0.08324 0.37597 0.23124 0.0
Zn257 Zn 0.1014 0.36148 0.22245 0.0
O258 O 0.09287 0.35407 0.19676 0.0
O259 O 0.08877 0.32565 0.19727 0.0
O260 O 0.12231 0.3733 0.2168 0.0
O261 O 0.12319 0.34504 0.21125 0.0
O262 O 0.10304 0.31818 0.23614 0.0
O263 O 0.10896 0.3451 0.24428 0.0
C264 C 0.08864 0.33992 0.18896 0.0
C265 C 0.10873 0.32869 0.24753 0.0
C266 C 0.90652 0.84108 0.43955 0.0
C267 C 0.91781 0.86027 0.49835 0.0
O268 O 0.89228 0.8442 0.44769 0.0
Zn269 Zn 0.88493 0.85146 0.47377 0.0
O270 O 0.92089 0.84193 0.44761 0.0
Zn271 Zn 0.91161 0.84962 0.46946 0.0
O272 O 0.89999 0.82651 0.48054 0.0
O273 O 0.87194 0.83204 0.48234 0.0
O274 O 0.92839 0.85579 0.4865 0.0
O275 O 0.90133 0.8594 0.49552 0.0
O276 O 0.87166 0.87176 0.46913 0.0
O277 O 0.89968 0.87469 0.4631 0.0
C278 C 0.88454 0.82167 0.48467 0.0
C279 C 0.88418 0.88099 0.46353 0.0
C280 C 0.92656 0.13408 0.22705 0.0
C281 C 0.86636 0.13512 0.20874 0.0
O282 O 0.92193 0.14965 0.2232 0.0
Zn283 Zn 0.89877 0.1618 0.21296 0.0
O284 O 0.91588 0.1217 0.22485 0.0
Zn285 Zn 0.89641 0.13513 0.21716 0.0
O286 O 0.9023 0.14239 0.19078 0.0
O287 O 0.9056 0.17089 0.19071 0.0
O288 O 0.87561 0.12234 0.21363 0.0
O289 O 0.873 0.15049 0.20803 0.0
O290 O 0.89389 0.17871 0.23032 0.0
O291 O 0.88966 0.15166 0.2392 0.0
C292 C 0.90541 0.15656 0.18253 0.0
C293 C 0.88941 0.16812 0.2422 0.0
C294 C 0.38847 0.67248 0.51241 0.0
C295 C 0.39014 0.61317 0.53334 0.0
O296 O 0.4041 0.66823 0.51649 0.0
Zn297 Zn 0.41653 0.64556 0.52763 0.0
O298 O 0.37626 0.66166 0.51484 0.0
Zn299 Zn 0.38997 0.64276 0.52326 0.0
O300 O 0.39711 0.65003 0.54948 0.0
O301 O 0.42561 0.65371 0.54933 0.0
O302 O 0.37755 0.62184 0.52709 0.0
O303 O 0.40533 0.62015 0.53444 0.0
O304 O 0.43349 0.63982 0.51043 0.0
O305 O 0.40649 0.63559 0.50156 0.0
C306 C 0.41127 0.65378 0.55752 0.0
C307 C 0.42294 0.63513 0.49862 0.0
C308 C 0.10748 0.66811 0.24882 0.0
C309 C 0.08721 0.65917 0.30754 0.0
O310 O 0.10653 0.65169 0.25203 0.0
Zn311 Zn 0.09845 0.63607 0.27459 0.0
O312 O 0.1032 0.67894 0.2605 0.0
Zn313 Zn 0.09704 0.66271 0.27786 0.0
O314 O 0.12199 0.65096 0.28466 0.0
O315 O 0.11848 0.62278 0.28018 0.0
O316 O 0.08969 0.67312 0.29912 0.0
O317 O 0.08975 0.64445 0.30007 0.0
O318 O 0.07954 0.6226 0.26619 0.0
O319 O 0.07372 0.65067 0.26699 0.0
C320 C 0.128 0.63535 0.28501 0.0
C321 C 0.06907 0.635 0.26337 0.0
C322 C 0.38853 0.32647 0.74841 0.0
C323 C 0.40485 0.33928 0.80781 0.0
O324 O 0.38833 0.34293 0.75129 0.0
Zn325 Zn 0.39448 0.35989 0.77292 0.0
O326 O 0.39345 0.31613 0.76031 0.0
Zn327 Zn 0.39793 0.33338 0.77767 0.0
O328 O 0.37197 0.34382 0.78315 0.0
O329 O 0.37301 0.37166 0.77583 0.0
O330 O 0.4054 0.32484 0.79983 0.0
O331 O 0.401 0.35323 0.79946 0.0
O332 O 0.41337 0.374 0.76491 0.0
O333 O 0.42062 0.3464 0.7675 0.0
C334 C 0.3645 0.35873 0.78164 0.0
C335 C 0.42464 0.36207 0.7633 0.0
C336 C 0.99541 0.91679 0.64247 0.0
C337 C 0.93712 0.90075 0.66016 0.0
O338 O 0.98324 0.92631 0.6483 0.0
Zn339 Zn 0.96687 0.90807 0.65255 0.0
O340 O 0.99321 0.90024 0.64152 0.0
Zn341 Zn 0.97235 0.8821 0.64749 0.0
O342 O 0.96922 0.87132 0.6256 0.0
O343 O 0.9608 0.89884 0.62616 0.0
O344 O 0.94574 0.88733 0.65518 0.0
O345 O 0.94474 0.91534 0.66136 0.0
O346 O 0.9787 0.8943 0.67407 0.0
O347 O 0.98155 0.86724 0.66516 0.0
C348 C 0.96266 0.88438 0.61792 0.0
C349 C 0.98352 0.87857 0.67696 0.0
C350 C 0.83607 0.18611 0.39846 0.0
C351 C 0.82657 0.24669 0.38381 0.0
O352 O 0.82184 0.19449 0.39817 0.0
Zn353 Zn 0.83162 0.21666 0.39199 0.0
O354 O 0.85049 0.19418 0.39599 0.0
Zn355 Zn 0.8585 0.2206 0.39092 0.0
O356 O 0.87152 0.22696 0.41099 0.0
O357 O 0.84328 0.2259 0.416 0.0
O358 O 0.84285 0.24332 0.3854 0.0
O359 O 0.81542 0.23471 0.38614 0.0
O360 O 0.84385 0.21142 0.36695 0.0
O361 O 0.87163 0.21821 0.37007 0.0
C362 C 0.85882 0.22909 0.42131 0.0
C363 C 0.85926 0.21276 0.36058 0.0
C364 C 0.49842 0.07324 0.13553 0.0
C365 C 0.55714 0.08614 0.15425 0.0
O366 O 0.5102 0.06296 0.14085 0.0
Zn367 Zn 0.52736 0.08015 0.14579 0.0
O368 O 0.50131 0.08972 0.13524 0.0
Zn369 Zn 0.5229 0.10667 0.1421 0.0
O370 O 0.52766 0.11851 0.12101 0.0
O371 O 0.5337 0.09036 0.11996 0.0
O372 O 0.54883 0.10002 0.15016 0.0
O373 O 0.54932 0.07159 0.15415 0.0
O374 O 0.51637 0.09339 0.16803 0.0
O375 O 0.51419 0.12095 0.16043 0.0
C376 C 0.53327 0.10542 0.11265 0.0
C377 C 0.51211 0.10911 0.17173 0.0
C378 C 0.63405 0.78797 0.86567 0.0
C379 C 0.63556 0.76452 0.92401 0.0
O380 O 0.62175 0.78269 0.87532 0.0
Zn381 Zn 0.63551 0.77658 0.89502 0.0
O382 O 0.64979 0.78729 0.87123 0.0
Zn383 Zn 0.6625 0.77852 0.89487 0.0
O384 O 0.6771 0.76034 0.88646 0.0
O385 O 0.6492 0.75342 0.8863 0.0
O386 O 0.65111 0.76746 0.9185 0.0
O387 O 0.62269 0.76851 0.91449 0.0
O388 O 0.64581 0.80129 0.90376 0.0
O389 O 0.67442 0.79893 0.90243 0.0
C390 C 0.66516 0.74931 0.88354 0.0
C391 C 0.66102 0.80794 0.90578 0.0
C392 C 0.99519 0.0793 0.85438 0.0
C393 C 0.93558 0.08501 0.83558 0.0
O394 O 0.98373 0.0677 0.85189 0.0
Zn395 Zn 0.96564 0.08287 0.84448 0.0
O396 O 0.99142 0.09541 0.85193 0.0
Zn397 Zn 0.96812 0.10977 0.84454 0.0
O398 O 0.96359 0.12353 0.86472 0.0
O399 O 0.95841 0.09555 0.86865 0.0
O400 O 0.94258 0.1001 0.83738 0.0
O401 O 0.94463 0.07145 0.83798 0.0
O402 O 0.97585 0.09418 0.82044 0.0
O403 O 0.97529 0.12257 0.82467 0.0
C404 C 0.95847 0.11122 0.87446 0.0
C405 C 0.97869 0.10973 0.81489 0.0
C406 C 0.66838 0.24312 0.60682 0.0
C407 C 0.65929 0.1839 0.58726 0.0
O408 O 0.67963 0.23148 0.60357 0.0
Zn409 Zn 0.66362 0.21384 0.59645 0.0
O410 O 0.6521 0.23974 0.60499 0.0
Zn411 Zn 0.63661 0.21734 0.59747 0.0
O412 O 0.62325 0.21227 0.61774 0.0
O413 O 0.65135 0.20712 0.62105 0.0
O414 O 0.64488 0.19181 0.59004 0.0
O415 O 0.67355 0.19212 0.58878 0.0
O416 O 0.6521 0.22485 0.57313 0.0
O417 O 0.62379 0.22538 0.57787 0.0
C418 C 0.63578 0.20708 0.62716 0.0
C419 C 0.63661 0.22841 0.56792 0.0
C420 C 0.53824 0.88524 0.37778 0.0
C421 C 0.51563 0.88317 0.31915 0.0
O422 O 0.53407 0.87221 0.36855 0.0
Zn423 Zn 0.52725 0.88485 0.34828 0.0
O424 O 0.53674 0.90066 0.37153 0.0
Zn425 Zn 0.52873 0.91188 0.34697 0.0
O426 O 0.51034 0.92673 0.35414 0.0
O427 O 0.50379 0.89878 0.3562 0.0
O428 O 0.51828 0.89904 0.32383 0.0
O429 O 0.5195 0.8709 0.32948 0.0
O430 O 0.55175 0.89495 0.3391 0.0
O431 O 0.54936 0.92357 0.33931 0.0
C432 C 0.49949 0.91486 0.35789 0.0
C433 C 0.5584 0.91006 0.33653 0.0
C434 C 0.86245 0.76209 0.07184 0.0
C435 C 0.86396 0.78095 0.13182 0.0
O436 O 0.87529 0.76474 0.08185 0.0
Zn437 Zn 0.86264 0.77208 0.10183 0.0
O438 O 0.847 0.76547 0.07725 0.0
Zn439 Zn 0.83577 0.77571 0.10107 0.0
O440 O 0.82585 0.79771 0.09442 0.0
O441 O 0.8545 0.79817 0.09581 0.0
O442 O 0.84832 0.78133 0.12591 0.0
O443 O 0.87635 0.77608 0.12204 0.0
O444 O 0.84702 0.74947 0.10893 0.0
O445 O 0.81959 0.75811 0.10769 0.0
C446 C 0.84002 0.80612 0.09343 0.0
C447 C 0.83069 0.74626 0.11074 0.0
C448 C 0.61596 0.95869 0.88701 0.0
C449 C 0.67553 0.97908 0.88534 0.0
O450 O 0.62521 0.96351 0.87421 0.0
Zn451 Zn 0.64583 0.9686 0.88687 0.0
O452 O 0.62243 0.95892 0.90244 0.0
Zn453 Zn 0.64745 0.96622 0.91375 0.0
O454 O 0.64175 0.98476 0.92912 0.0
O455 O 0.63848 0.9917 0.90144 0.0
O456 O 0.67085 0.97596 0.9011 0.0
O457 O 0.66492 0.97621 0.87303 0.0
O458 O 0.65407 0.94332 0.89624 0.0
O459 O 0.6546 0.94529 0.92491 0.0
C460 C 0.6377 0.99587 0.91761 0.0
C461 C 0.65673 0.93636 0.91121 0.0
C462 C 0.74615 0.8854 0.66806 0.0
C463 C 0.80714 0.89915 0.65932 0.0
O464 O 0.75792 0.88788 0.67939 0.0
Zn465 Zn 0.77632 0.89336 0.66341 0.0
O466 O 0.74983 0.88678 0.65182 0.0
Zn467 Zn 0.77285 0.89203 0.63647 0.0
O468 O 0.7751 0.871 0.62357 0.0
O469 O 0.78119 0.86809 0.65154 0.0
O470 O 0.79925 0.8967 0.64481 0.0
O471 O 0.79851 0.89919 0.67341 0.0
O472 O 0.76755 0.91736 0.65139 0.0
O473 O 0.76689 0.91207 0.6232 0.0
C474 C 0.78002 0.86155 0.63619 0.0
C475 C 0.76466 0.92254 0.63575 0.0
C476 C 0.8394 0.05629 0.3988 0.0
C477 C 0.85589 -0.00284 0.41264 0.0
O478 O 0.83915 0.04857 0.41339 0.0
Zn479 Zn 0.84695 0.02639 0.40521 0.0
O480 O 0.84332 0.04775 0.38498 0.0
Zn481 Zn 0.85021 0.02118 0.3788 0.0
O482 O 0.83151 0.01319 0.36464 0.0
O483 O 0.82423 0.0156 0.39228 0.0
O484 O 0.85542 -0.0005 0.3961 0.0
O485 O 0.85218 0.00961 0.42283 0.0
O486 O 0.87269 0.03201 0.39469 0.0
O487 O 0.87191 0.02384 0.36714 0.0
C488 C 0.82028 0.01137 0.37659 0.0
C489 C 0.88028 0.03016 0.3799 0.0
C490 C 0.68671 0.08956 0.15786 0.0
C491 C 0.74619 0.10805 0.16736 0.0
O492 O 0.69499 0.09051 0.17211 0.0
Zn493 Zn 0.71667 0.09817 0.16231 0.0
O494 O 0.69461 0.09255 0.14345 0.0
Zn495 Zn 0.72057 0.09952 0.13543 0.0
O496 O 0.72821 0.07996 0.12233 0.0
O497 O 0.72726 0.07473 0.15054 0.0
O498 O 0.74292 0.10627 0.15107 0.0
O499 O 0.73436 0.10509 0.1785 0.0
O500 O 0.7097 0.12282 0.15015 0.0
O501 O 0.71672 0.12022 0.12239 0.0
C502 C 0.73082 0.0697 0.13499 0.0
C503 C 0.71059 0.12929 0.13474 0.0
C504 C 0.61742 0.03064 0.60709 0.0
C505 C 0.67727 0.01113 0.60948 0.0
O506 O 0.62609 0.02482 0.61988 0.0
Zn507 Zn 0.64733 0.02086 0.60774 0.0
O508 O 0.62444 0.0313 0.59192 0.0
Zn509 Zn 0.64962 0.02433 0.58085 0.0
O510 O 0.64361 0.00616 0.56482 0.0
O511 O 0.64139 -0.00187 0.59233 0.0
O512 O 0.67275 0.01441 0.59372 0.0
O513 O 0.66647 0.01365 0.62171 0.0
O514 O 0.65444 0.04671 0.59947 0.0
O515 O 0.65744 0.04589 0.57089 0.0
C516 C 0.64033 0.9945 0.57606 0.0
C517 C 0.6579 0.0544 0.58504 0.0
C518 C 0.74592 0.88429 0.32139 0.0
C519 C 0.68685 0.90391 0.32971 0.0
O520 O 0.73424 0.88789 0.31031 0.0
Zn521 Zn 0.71655 0.89434 0.32631 0.0
O522 O 0.74254 0.88573 0.33771 0.0
Zn523 Zn 0.72003 0.89354 0.35305 0.0
O524 O 0.71551 0.87337 0.36662 0.0
O525 O 0.70948 0.8698 0.33876 0.0
O526 O 0.69434 0.90161 0.34449 0.0
O527 O 0.6953 0.90138 0.31577 0.0
O528 O 0.72706 0.91804 0.33778 0.0
O529 O 0.72812 0.91298 0.36601 0.0
C530 C 0.70995 0.86381 0.35438 0.0
C531 C 0.7307 0.92316 0.35329 0.0
C532 C 0.87964 0.96316 0.10668 0.0
C533 C 0.81959 0.98141 0.10964 0.0
O534 O 0.87107 0.96943 0.11932 0.0
Zn535 Zn 0.84964 0.97165 0.10749 0.0
O536 O 0.8722 0.96094 0.09183 0.0
Zn537 Zn 0.84607 0.96593 0.08131 0.0
O538 O 0.85045 0.98252 0.0633 0.0
O539 O 0.85552 0.99276 0.08965 0.0
O540 O 0.82342 0.97675 0.09406 0.0
O541 O 0.83095 0.98003 0.1215 0.0
O542 O 0.84317 0.9448 0.10196 0.0
O543 O 0.83848 0.94346 0.07366 0.0
C544 C 0.85525 0.99493 0.07308 0.0
C545 C 0.83917 0.93596 0.08835 0.0
C546 C 0.74621 0.10481 0.82595 0.0
C547 C 0.8064 0.08811 0.83244 0.0
O548 O 0.75745 0.10107 0.81447 0.0
Zn549 Zn 0.77604 0.09582 0.82991 0.0
O550 O 0.75032 0.10401 0.84215 0.0
Zn551 Zn 0.77361 0.0972 0.85678 0.0
O552 O 0.77767 0.11788 0.86969 0.0
O553 O 0.78219 0.12102 0.84147 0.0
O554 O 0.79935 0.09035 0.84743 0.0
O555 O 0.79728 0.08966 0.81878 0.0
O556 O 0.76689 0.07206 0.84227 0.0
O557 O 0.76668 0.07767 0.87038 0.0
C558 C 0.78207 0.12739 0.85694 0.0
C559 C 0.76395 0.06715 0.85798 0.0
C560 C 0.91519 0.63396 -0.00232 0.0
C561 C 0.90827 0.65356 0.93815 0.0
O562 O 0.92683 0.6374 0.98646 0.0
Zn563 Zn 0.91148 0.64482 0.96836 0.0
O564 O 0.89904 0.636 0.99382 0.0
Zn565 Zn 0.88439 0.64402 0.97103 0.0
O566 O 0.87085 0.62397 0.96558 0.0
O567 O 0.89907 0.62035 0.96125 0.0
O568 O 0.89357 0.65102 0.94562 0.0
O569 O 0.92222 0.65219 0.94689 0.0
O570 O 0.89992 0.66831 0.9789 0.0
O571 O 0.87158 0.66381 0.97868 0.0
C572 C 0.88343 0.61443 0.96073 0.0
C573 C 0.88439 0.67368 0.982 0.0
C574 C 0.41813 0.86116 -0.00074 0.0
C575 C 0.41477 0.84011 0.05856 0.0
O576 O 0.4302 0.8593 0.01038 0.0
Zn577 Zn 0.416 0.85037 0.02877 0.0
O578 O 0.40237 0.85743 0.00341 0.0
Zn579 Zn 0.38904 0.84842 0.02666 0.0
O580 O 0.37394 0.8674 0.03203 0.0
O581 O 0.40165 0.87331 0.0367 0.0
O582 O 0.39958 0.841 0.05167 0.0
O583 O 0.42806 0.84412 0.04962 0.0
O584 O 0.40632 0.82578 0.01822 0.0
O585 O 0.37768 0.82788 0.01907 0.0
C586 C 0.3856 0.87793 0.03707 0.0
C587 C 0.39119 0.81915 0.0154 0.0
C588 C 0.86628 0.63593 0.78659 0.0
C589 C 0.92465 0.63125 0.76328 0.0
O590 O 0.87425 0.62265 0.78086 0.0
Zn591 Zn 0.89535 0.63417 0.77507 0.0
O592 O 0.87381 0.65089 0.78649 0.0
Zn593 Zn 0.89953 0.66069 0.77903 0.0
O594 O 0.89416 0.67768 0.76184 0.0
O595 O 0.88781 0.65092 0.75349 0.0
O596 O 0.92125 0.64705 0.76753 0.0
O597 O 0.91327 0.61957 0.76582 0.0
O598 O 0.90436 0.64117 0.80068 0.0
O599 O 0.90876 0.66954 0.80052 0.0
C600 C 0.88822 0.66737 0.75039 0.0
C601 C 0.9089 0.65515 0.80861 0.0
C602 C 0.08481 0.15441 0.55618 0.0
C603 C 0.07551 0.13697 0.49655 0.0
O604 O 0.07075 0.15315 0.54764 0.0
Zn605 Zn 0.08092 0.14663 0.52601 0.0
O606 O 0.09945 0.15191 0.54851 0.0
Zn607 Zn 0.10759 0.14479 0.52238 0.0
O608 O 0.12118 0.16403 0.51482 0.0
O609 O 0.09322 0.1702 0.51621 0.0
O610 O 0.09188 0.13773 0.49989 0.0
O611 O 0.06462 0.1411 0.50823 0.0
O612 O 0.0925 0.12148 0.53239 0.0
O613 O 0.12047 0.12409 0.52625 0.0
C614 C 0.10891 0.1748 0.51265 0.0
C615 C 0.10787 0.11492 0.53171 0.0
C616 C 0.13067 0.84905 0.78928 0.0
C617 C 0.07263 0.84936 0.76496 0.0
O618 O 0.1213 0.8617 0.78438 0.0
Zn619 Zn 0.1015 0.8485 0.77746 0.0
O620 O 0.12475 0.83344 0.78822 0.0
Zn621 Zn 0.10029 0.82165 0.78012 0.0
O622 O 0.10735 0.80598 0.76254 0.0
O623 O 0.11045 0.83353 0.75493 0.0
O624 O 0.07734 0.83371 0.76855 0.0
O625 O 0.0828 0.8619 0.76842 0.0
O626 O 0.09148 0.83943 0.8021 0.0
O627 O 0.09206 0.81075 0.80088 0.0
C628 C 0.11175 0.81724 0.75129 0.0
C629 C 0.08876 0.82457 0.80924 0.0
C630 C 0.57682 0.3562 0.49654 0.0
C631 C 0.58972 0.33888 0.43745 0.0
O632 O 0.5665 0.35135 0.4846 0.0
Zn633 Zn 0.58378 0.34664 0.46733 0.0
O634 O 0.59329 0.35636 0.4937 0.0
Zn635 Zn 0.61027 0.35011 0.47213 0.0
O636 O 0.62208 0.37153 0.46881 0.0
O637 O 0.59432 0.37246 0.46125 0.0
O638 O 0.60366 0.34288 0.44575 0.0
O639 O 0.57523 0.33869 0.44536 0.0
O640 O 0.59678 0.32406 0.47781 0.0
O641 O 0.62437 0.33139 0.48046 0.0
C642 C 0.60925 0.37993 0.46266 0.0
C643 C 0.61242 0.32013 0.48213 0.0
C644 C 0.86745 0.35698 0.70901 0.0
C645 C 0.92674 0.35739 0.7302 0.0
O646 O 0.87672 0.36972 0.71401 0.0
Zn647 Zn 0.89701 0.35665 0.71911 0.0
O648 O 0.87376 0.34147 0.70915 0.0
Zn649 Zn 0.89895 0.32979 0.71576 0.0
O650 O 0.89286 0.31359 0.73346 0.0
O651 O 0.88885 0.34099 0.74128 0.0
O652 O 0.92193 0.34181 0.72657 0.0
O653 O 0.91641 0.3699 0.72732 0.0
O654 O 0.90415 0.34847 0.69335 0.0
O655 O 0.90666 0.31989 0.6941 0.0
C656 C 0.88809 0.32464 0.74478 0.0
C657 C 0.90731 0.33403 0.68561 0.0
C658 C 0.62656 0.64196 0.2057 0.0
C659 C 0.56698 0.64356 0.22557 0.0
O660 O 0.61681 0.6298 0.21115 0.0
Zn661 Zn 0.59663 0.64346 0.21491 0.0
O662 O 0.62062 0.65757 0.20472 0.0
Zn663 Zn 0.59585 0.67014 0.21074 0.0
O664 O 0.60215 0.68667 0.22808 0.0
O665 O 0.60434 0.65944 0.23699 0.0
O666 O 0.57214 0.65898 0.22159 0.0
O667 O 0.57709 0.63077 0.22314 0.0
O668 O 0.58919 0.65116 0.18891 0.0
O669 O 0.58916 0.67988 0.18889 0.0
C670 C 0.60577 0.67583 0.24 0.0
C671 C 0.587 0.66564 0.18086 0.0
C672 C 0.56014 0.57362 0.83318 0.0
C673 C 0.50241 0.56707 0.85735 0.0
O674 O 0.5533 0.58853 0.83626 0.0
Zn675 Zn 0.529 0.59789 0.84669 0.0
O676 O 0.55155 0.55989 0.8363 0.0
Zn677 Zn 0.53106 0.57101 0.84509 0.0
O678 O 0.51923 0.58356 0.82259 0.0
O679 O 0.51992 0.61168 0.82833 0.0
O680 O 0.51321 0.55562 0.85241 0.0
O681 O 0.50643 0.58329 0.85614 0.0
O682 O 0.53657 0.61077 0.86639 0.0
O683 O 0.53989 0.58239 0.86951 0.0
C684 C 0.51593 0.59935 0.81813 0.0
C685 C 0.54139 0.59792 0.87554 0.0
C686 C 0.63073 0.28007 0.12783 0.0
C687 C 0.62601 0.26136 0.06798 0.0
O688 O 0.64572 0.28066 0.12039 0.0
Zn689 Zn 0.65549 0.27525 0.09404 0.0
O690 O 0.61749 0.27499 0.11935 0.0
Zn691 Zn 0.62911 0.2712 0.09799 0.0
O692 O 0.64589 0.24903 0.10398 0.0
O693 O 0.67257 0.25793 0.09798 0.0
O694 O 0.61439 0.26345 0.07948 0.0
O695 O 0.64186 0.26519 0.07159 0.0
O696 O 0.66454 0.29717 0.08652 0.0
O697 O 0.63628 0.29766 0.09145 0.0
C698 C 0.66235 0.24606 0.1032 0.0
C699 C 0.65042 0.30562 0.08745 0.0
C700 C -0.0032 0.42296 0.3605 0.0
C701 C 0.93807 0.41411 0.34023 0.0
O702 O 0.99361 0.40661 0.35897 0.0
Zn703 Zn 0.97135 0.39109 0.35075 0.0
O704 O 0.98509 0.43395 0.35676 0.0
Zn705 Zn 0.96765 0.41778 0.35005 0.0
O706 O 0.96052 0.40512 0.3745 0.0
O707 O 0.96679 0.37734 0.37071 0.0
O708 O 0.94636 0.42812 0.34287 0.0
O709 O 0.94567 0.3994 0.34252 0.0
O710 O 0.97977 0.37832 0.33138 0.0
O711 O 0.97859 0.40656 0.32641 0.0
C712 C 0.9611 0.38945 0.38035 0.0
C713 C 0.98241 0.3911 0.32129 0.0
C714 C 0.85806 0.71005 0.63126 0.0
C715 C 0.86096 0.73043 0.57172 0.0
O716 O 0.84317 0.70836 0.62376 0.0
Zn717 Zn 0.83266 0.71428 0.59786 0.0
O718 O 0.87082 0.71635 0.62285 0.0
Zn719 Zn 0.85902 0.71951 0.60144 0.0
O720 O 0.8415 0.7406 0.60798 0.0
O721 O 0.81492 0.73095 0.60276 0.0
O722 O 0.87297 0.72844 0.58285 0.0
O723 O 0.84539 0.72576 0.57557 0.0
O724 O 0.82466 0.69221 0.5896 0.0
O725 O 0.85301 0.69304 0.59414 0.0
C726 C 0.82497 0.74305 0.60782 0.0
C727 C 0.83925 0.68452 0.58997 0.0
C728 C 0.51415 0.38579 0.67567 0.0
C729 C 0.53236 0.38495 0.61541 0.0
O730 O 0.5181 0.4012 0.67049 0.0
Zn731 Zn 0.52852 0.41258 0.64683 0.0
O732 O 0.51613 0.37302 0.66541 0.0
Zn733 Zn 0.52371 0.38579 0.64558 0.0
O734 O 0.5501 0.39286 0.65172 0.0
O735 O 0.55085 0.42151 0.65378 0.0
O736 O 0.52639 0.37267 0.62471 0.0
O737 O 0.53399 0.40027 0.62192 0.0
O738 O 0.51118 0.42939 0.64047 0.0
O739 O 0.50179 0.40221 0.63937 0.0
C740 C 0.55862 0.40695 0.65451 0.0
C741 C 0.49896 0.41859 0.63772 0.0
C742 C 0.82816 0.30858 0.9019 0.0
C743 C 0.82002 0.24891 0.88377 0.0
O744 O 0.84288 0.30086 0.90028 0.0
Zn745 Zn 0.85146 0.27495 0.89346 0.0
O746 O 0.81417 0.30016 0.89947 0.0
Zn747 Zn 0.82463 0.27845 0.89346 0.0
O748 O 0.83532 0.26833 0.91764 0.0
O749 O 0.86369 0.26728 0.91353 0.0
O750 O 0.80876 0.26053 0.88699 0.0
O751 O 0.83628 0.2524 0.88557 0.0
O752 O 0.8656 0.27882 0.87356 0.0
O753 O 0.8378 0.28455 0.86904 0.0
C754 C 0.85065 0.26477 0.92331 0.0
C755 C 0.85356 0.28392 0.86349 0.0
C756 C 0.93472 0.58251 0.16032 0.0
C757 C 0.99297 0.57491 0.13842 0.0
O758 O 0.94165 0.59738 0.15713 0.0
Zn759 Zn 0.96647 0.60635 0.14723 0.0
O760 O 0.94343 0.56875 0.15782 0.0
Zn761 Zn 0.96407 0.57963 0.14943 0.0
O762 O 0.97527 0.59265 0.17202 0.0
O763 O 0.97517 0.62059 0.16549 0.0
O764 O 0.98177 0.56381 0.14329 0.0
O765 O 0.98924 0.59123 0.13894 0.0
O766 O 0.95974 0.61883 0.127 0.0
O767 O 0.95615 0.59043 0.12439 0.0
C768 C 0.97866 0.60851 0.17616 0.0
C769 C 0.95506 0.60584 0.11797 0.0
C770 C 0.62553 0.7317 0.42199 0.0
C771 C 0.63046 0.71401 0.36172 0.0
O772 O 0.64131 0.72763 0.41836 0.0
Zn773 Zn 0.65492 0.71775 0.39588 0.0
O774 O 0.61391 0.73003 0.41041 0.0
Zn775 Zn 0.62854 0.72224 0.39178 0.0
O776 O 0.63529 0.69554 0.39799 0.0
O777 O 0.66353 0.69562 0.40321 0.0
O778 O 0.61727 0.71955 0.37 0.0
O779 O 0.6452 0.71253 0.36953 0.0
O780 O 0.6722 0.7352 0.39199 0.0
O781 O 0.64553 0.74412 0.38613 0.0
C782 C 0.64928 0.68736 0.40205 0.0
C783 C 0.66198 0.74708 0.3868 0.0
C784 C 0.85889 0.49513 0.57703 0.0
C785 C 0.84262 0.55478 0.58862 0.0
O786 O 0.85775 0.49797 0.59346 0.0
Zn787 Zn 0.85202 0.52008 0.60992 0.0
O788 O 0.85571 0.50729 0.56633 0.0
Zn789 Zn 0.84988 0.52461 0.58323 0.0
O790 O 0.8752 0.5303 0.59465 0.0
O791 O 0.87325 0.52285 0.62237 0.0
O792 O 0.84271 0.54672 0.57421 0.0
O793 O 0.84582 0.5465 0.60277 0.0
O794 O 0.83265 0.51266 0.62346 0.0
O795 O 0.82657 0.51428 0.59547 0.0
C796 C 0.88215 0.5288 0.60979 0.0
C797 C 0.82194 0.51052 0.6111 0.0
C798 C 0.74506 0.61227 0.82538 0.0
C799 C 0.68693 0.58815 0.82636 0.0
O800 O 0.74013 0.60942 0.84112 0.0
Zn801 Zn 0.71638 0.5999 0.85353 0.0
O802 O 0.73483 0.60898 0.81285 0.0
Zn803 Zn 0.71606 0.60029 0.82644 0.0
O804 O 0.70675 0.62383 0.83872 0.0
O805 O 0.70817 0.61913 0.867 0.0
O806 O 0.69625 0.59247 0.81345 0.0
O807 O 0.69284 0.59007 0.84185 0.0
O808 O 0.72439 0.58063 0.86669 0.0
O809 O 0.72684 0.57675 0.83832 0.0
C810 C 0.70435 0.62906 0.85439 0.0
C811 C 0.72909 0.57121 0.85398 0.0
C812 C 0.67515 0.47969 0.11696 0.0
C813 C 0.61496 0.46186 0.11164 0.0
O814 O 0.67159 0.47575 0.10113 0.0
Zn815 Zn 0.64923 0.46574 0.08737 0.0
O816 O 0.6636 0.4777 0.12855 0.0
Zn817 Zn 0.64503 0.47013 0.11374 0.0
O818 O 0.65112 0.44346 0.10689 0.0
O819 O 0.65666 0.44366 0.07871 0.0
O820 O 0.62315 0.4675 0.12483 0.0
O821 O 0.62283 0.46041 0.09693 0.0
O822 O 0.64558 0.48322 0.07014 0.0
O823 O 0.6399 0.49218 0.09685 0.0
C824 C 0.65526 0.43533 0.09289 0.0
C825 C 0.64072 0.49519 0.08043 0.0
C826 C 0.75049 0.38763 0.32319 0.0
C827 C 0.8095 0.40735 0.33136 0.0
O828 O 0.75399 0.38881 0.33952 0.0
Zn829 Zn 0.77659 0.39699 0.35481 0.0
O830 O 0.76196 0.39167 0.31203 0.0
Zn831 Zn 0.77965 0.39785 0.32796 0.0
O832 O 0.78591 0.37303 0.34011 0.0
O833 O 0.78204 0.37694 0.36832 0.0
O834 O 0.8011 0.40468 0.31743 0.0
O835 O 0.80197 0.40522 0.34611 0.0
O836 O 0.76827 0.41639 0.36777 0.0
O837 O 0.769 0.42138 0.33953 0.0
C838 C 0.78636 0.36715 0.35576 0.0
C839 C 0.76538 0.42648 0.35504 0.0
C840 C 0.81716 0.48162 0.88059 0.0
C841 C 0.87662 0.46119 0.88115 0.0
O842 O 0.82194 0.4782 0.89628 0.0
Zn843 Zn 0.8454 0.46752 0.90834 0.0
O844 O 0.82752 0.47861 0.86812 0.0
Zn845 Zn 0.84665 0.47079 0.88157 0.0
O846 O 0.83866 0.44508 0.89011 0.0
O847 O 0.83824 0.44624 0.9188 0.0
O848 O 0.86737 0.46653 0.86858 0.0
O849 O 0.87014 0.46069 0.89655 0.0
O850 O 0.85214 0.48511 0.9244 0.0
O851 O 0.85357 0.49358 0.89695 0.0
C852 C 0.83615 0.43766 0.90488 0.0
C853 C 0.85528 0.49688 0.91326 0.0
C854 C 0.74792 0.60978 0.17161 0.0
C855 C 0.80664 0.58783 0.16792 0.0
O856 O 0.75234 0.6077 0.15559 0.0
Zn857 Zn 0.77547 0.59812 0.14212 0.0
O858 O 0.75859 0.60596 0.18361 0.0
Zn859 Zn 0.77704 0.59843 0.16914 0.0
O860 O 0.7851 0.62234 0.15625 0.0
O861 O 0.78254 0.61732 0.12807 0.0
O862 O 0.79763 0.59147 0.18124 0.0
O863 O 0.79998 0.58949 0.15269 0.0
O864 O 0.76728 0.57834 0.12962 0.0
O865 O 0.76649 0.57462 0.15806 0.0
C866 C 0.7867 0.62746 0.14041 0.0
C867 C 0.76356 0.56888 0.14263 0.0
C868 C 0.63812 0.498 0.41608 0.0
C869 C 0.65354 0.55739 0.40219 0.0
O870 O 0.63792 0.50042 0.39953 0.0
Zn871 Zn 0.64385 0.52192 0.38212 0.0
O872 O 0.64282 0.51028 0.42606 0.0
Zn873 Zn 0.64723 0.52715 0.4084 0.0
O874 O 0.62119 0.53228 0.39774 0.0
O875 O 0.62245 0.52421 0.37013 0.0
O876 O 0.65443 0.54947 0.41665 0.0
O877 O 0.64979 0.54885 0.38832 0.0
O878 O 0.66282 0.514 0.36814 0.0
O879 O 0.67008 0.51685 0.39568 0.0
C880 C 0.61383 0.53035 0.38281 0.0
C881 C 0.6741 0.51251 0.38006 0.0
C882 C 0.68829 0.40234 0.65703 0.0
C883 C 0.74774 0.38367 0.66623 0.0
O884 O 0.69608 0.39931 0.6426 0.0
Zn885 Zn 0.7218 0.39223 0.63437 0.0
O886 O 0.69667 0.40136 0.67122 0.0
Zn887 Zn 0.71842 0.39379 0.6613 0.0
O888 O 0.72905 0.41704 0.64924 0.0
O889 O 0.72949 0.41167 0.62106 0.0
O890 O 0.73611 0.3872 0.67742 0.0
O891 O 0.74435 0.38514 0.64991 0.0
O892 O 0.71704 0.37168 0.62138 0.0
O893 O 0.71204 0.36877 0.64957 0.0
C894 C 0.73242 0.42197 0.63362 0.0
C895 C 0.71208 0.36239 0.63411 0.0
C896 C 0.57661 0.83724 0.55811 0.0
C897 C 0.57576 0.85797 0.49875 0.0
O898 O 0.59204 0.83775 0.55177 0.0
Zn899 Zn 0.6037 0.84502 0.52742 0.0
O900 O 0.56378 0.84156 0.5487 0.0
Zn901 Zn 0.57667 0.84734 0.52813 0.0
O902 O 0.58645 0.82277 0.51776 0.0
O903 O 0.61504 0.82431 0.52008 0.0
O904 O 0.56321 0.85601 0.50933 0.0
O905 O 0.59138 0.85431 0.50353 0.0
O906 O 0.61875 0.86378 0.53405 0.0
O907 O 0.59087 0.87053 0.53548 0.0
C908 C 0.60156 0.81593 0.51551 0.0
C909 C 0.60692 0.87484 0.53722 0.0
C910 C 0.07141 0.63559 0.49598 0.0
C911 C 0.0784 0.65453 0.43637 0.0
O912 O 0.08757 0.63787 0.49233 0.0
Zn913 Zn 0.10226 0.64639 0.46972 0.0
O914 O 0.05993 0.63866 0.48452 0.0
Zn915 Zn 0.07539 0.64572 0.46645 0.0
O916 O 0.08912 0.62173 0.46001 0.0
O917 O 0.11687 0.62692 0.46548 0.0
O918 O 0.06455 0.65158 0.44484 0.0
O919 O 0.09322 0.65326 0.44398 0.0
O920 O 0.11406 0.66674 0.47734 0.0
O921 O 0.08559 0.67017 0.47648 0.0
C922 C 0.10503 0.61659 0.46041 0.0
C923 C 0.10081 0.67622 0.47988 0.0
C924 C 0.60429 0.82732 0.74522 0.0
C925 C 0.58376 0.83299 0.6862 0.0
O926 O 0.60351 0.84352 0.741 0.0
Zn927 Zn 0.5955 0.85787 0.71762 0.0
O928 O 0.60002 0.81578 0.73422 0.0
Zn929 Zn 0.59405 0.83102 0.71593 0.0
O930 O 0.6191 0.84225 0.70866 0.0
O931 O 0.61568 0.87067 0.7112 0.0
O932 O 0.58643 0.81952 0.69531 0.0
O933 O 0.58643 0.84809 0.69283 0.0
O934 O 0.57665 0.87179 0.72556 0.0
O935 O 0.57097 0.84368 0.72645 0.0
C936 C 0.62521 0.85777 0.70735 0.0
C937 C 0.56632 0.85948 0.72934 0.0
C938 C 0.41608 0.35711 -0.0024 0.0
C939 C 0.40472 0.34158 0.93767 0.0
O940 O 0.39966 0.35607 0.99465 0.0
Zn941 Zn 0.38327 0.35062 0.9724 0.0
O942 O 0.42684 0.35397 0.98547 0.0
Zn943 Zn 0.41 0.34842 0.96798 0.0
O944 O 0.39873 0.37385 0.96265 0.0
O945 O 0.37094 0.37198 0.96983 0.0
O946 O 0.41909 0.34156 0.9458 0.0
O947 O 0.39054 0.34472 0.94592 0.0
O948 O 0.36965 0.33114 0.97951 0.0
O949 O 0.39763 0.32502 0.97785 0.0
C950 C 0.38364 0.3809 0.96414 0.0
C951 C 0.38198 0.32036 0.98149 0.0
C952 C 0.42488 0.62979 0.73262 0.0
C953 C 0.36672 0.63693 0.70989 0.0
O954 O 0.42231 0.64571 0.72824 0.0
Zn955 Zn 0.40111 0.66026 0.71677 0.0
O956 O 0.41286 0.61873 0.73038 0.0
Zn957 Zn 0.39566 0.63414 0.72129 0.0
O958 O 0.40453 0.64025 0.69535 0.0
O959 O 0.41045 0.66835 0.6951 0.0
O960 O 0.37405 0.6235 0.71609 0.0
O961 O 0.3749 0.65155 0.70955 0.0
O962 O 0.39684 0.67785 0.73358 0.0
O963 O 0.38935 0.65163 0.74267 0.0
C964 C 0.40962 0.6539 0.68717 0.0
C965 C 0.39064 0.6681 0.74537 0.0
C966 C 0.87609 0.17387 0.00905 0.0
C967 C 0.88145 0.11369 0.02694 0.0
O968 O 0.89193 0.17029 0.01293 0.0
Zn969 Zn 0.90581 0.14785 0.02255 0.0
O970 O 0.86452 0.16222 0.01073 0.0
Zn971 Zn 0.87937 0.14371 0.01831 0.0
O972 O 0.88644 0.15039 0.04479 0.0
O973 O 0.91473 0.15546 0.04444 0.0
O974 O 0.86825 0.12186 0.02131 0.0
O975 O 0.89619 0.12156 0.02821 0.0
O976 O 0.92283 0.14412 0.00484 0.0
O977 O 0.89604 0.13842 0.99617 0.0
C978 C 0.90052 0.15458 0.05278 0.0
C979 C 0.91243 0.1392 0.993 0.0
C980 C 0.5677 0.137 0.76267 0.0
C981 C 0.62615 0.13466 0.78551 0.0
O982 O 0.57335 0.15251 0.76555 0.0
Zn983 Zn 0.59724 0.16357 0.77663 0.0
O984 O 0.57715 0.12406 0.76656 0.0
Zn985 Zn 0.59672 0.13667 0.77448 0.0
O986 O 0.58804 0.14683 0.79928 0.0
O987 O 0.58982 0.17542 0.79711 0.0
O988 O 0.61622 0.12258 0.78025 0.0
O989 O 0.62082 0.15049 0.78509 0.0
O990 O 0.60571 0.17833 0.75861 0.0
O991 O 0.60535 0.15053 0.75131 0.0
C992 C 0.58617 0.16201 0.806 0.0
C993 C 0.60832 0.16652 0.7474 0.0
C994 C 0.92783 0.86204 0.26535 0.0
C995 C 0.86768 0.85861 0.28356 0.0
O996 O 0.92375 0.84626 0.26911 0.0
Zn997 Zn 0.90093 0.83321 0.27958 0.0
O998 O 0.91676 0.87403 0.26769 0.0
Zn999 Zn 0.89787 0.85979 0.27511 0.0
O1000 O 0.90414 0.85282 0.3016 0.0
O1001 O 0.90844 0.82443 0.30166 0.0
O1002 O 0.87623 0.87149 0.27772 0.0
O1003 O 0.87512 0.84371 0.28512 0.0
O1004 O 0.89573 0.81608 0.26229 0.0
O1005 O 0.89276 0.84312 0.25293 0.0
C1006 C 0.90789 0.83877 0.30981 0.0
C1007 C 0.89223 0.82666 0.2501 0.0
C1008 C 0.43677 0.40463 0.15643 0.0
C1009 C 0.49575 0.41749 0.13869 0.0
O1010 O 0.44469 0.41912 0.1564 0.0
Zn1011 Zn 0.46679 0.41043 0.14871 0.0
O1012 O 0.44513 0.39065 0.15282 0.0
Zn1013 Zn 0.47145 0.38395 0.14575 0.0
O1014 O 0.47982 0.37018 0.16462 0.0
O1015 O 0.47755 0.39789 0.17148 0.0
O1016 O 0.49309 0.40096 0.13874 0.0
O1017 O 0.48376 0.4277 0.14363 0.0
O1018 O 0.46103 0.39948 0.12297 0.0
O1019 O 0.46736 0.37145 0.12493 0.0
C1020 C 0.48177 0.38227 0.17564 0.0
C1021 C 0.46178 0.38423 0.11609 0.0
C1022 C 0.36393 0.71513 0.86364 0.0
C1023 C 0.36796 0.73317 0.92385 0.0
O1024 O 0.37691 0.721 0.87202 0.0
Zn1025 Zn 0.36538 0.72396 0.89375 0.0
O1026 O 0.34907 0.71384 0.87121 0.0
Zn1027 Zn 0.33878 0.71973 0.89697 0.0
O1028 O 0.32193 0.73732 0.89202 0.0
O1029 O 0.34903 0.74636 0.88875 0.0
O1030 O 0.35214 0.7295 0.91984 0.0
O1031 O 0.37984 0.73121 0.91257 0.0
O1032 O 0.35804 0.69752 0.90025 0.0
O1033 O 0.3296 0.69784 0.9044 0.0
C1034 C 0.33261 0.74939 0.8884 0.0
C1035 C 0.34384 0.68951 0.90397 0.0
C1036 C 0.06078 0.58233 0.65689 0.0
C1037 C 0.00171 0.57091 0.63892 0.0
O1038 O 0.05278 0.56799 0.65533 0.0
Zn1039 Zn 0.03082 0.57731 0.64861 0.0
O1040 O 0.05261 0.59669 0.65442 0.0
Zn1041 Zn 0.02636 0.60389 0.64721 0.0
O1042 O 0.01802 0.61683 0.66657 0.0
O1043 O 0.01983 0.58874 0.67208 0.0
O1044 O 0.00447 0.58738 0.63991 0.0
O1045 O 0.01377 0.56034 0.64283 0.0
O1046 O 0.03643 0.58942 0.62348 0.0
O1047 O 0.02966 0.61718 0.62666 0.0
C1048 C 0.01568 0.6042 0.67692 0.0
C1049 C 0.03517 0.60487 0.61715 0.0
C1050 C 0.16004 0.30883 0.40704 0.0
C1051 C 0.16973 0.24941 0.38956 0.0
O1052 O 0.17406 0.30025 0.40584 0.0
Zn1053 Zn 0.16399 0.27883 0.39878 0.0
O1054 O 0.14541 0.30128 0.40408 0.0
Zn1055 Zn 0.13741 0.27525 0.39639 0.0
O1056 O 0.1233 0.2675 0.41519 0.0
O1057 O 0.15115 0.26868 0.42193 0.0
O1058 O 0.15333 0.25268 0.38984 0.0
O1059 O 0.18049 0.26119 0.39378 0.0
O1060 O 0.15309 0.28515 0.37327 0.0
O1061 O 0.12506 0.27913 0.37537 0.0
C1062 C 0.13536 0.26507 0.42616 0.0
C1063 C 0.13786 0.28443 0.36639 0.0
C1064 C 0.48285 0.61662 0.31786 0.0
C1065 C 0.46482 0.61147 0.37794 0.0
O1066 O 0.48152 0.62811 0.32961 0.0
Zn1067 Zn 0.47333 0.61343 0.34796 0.0
O1068 O 0.47843 0.60087 0.32129 0.0
Zn1069 Zn 0.46817 0.58722 0.34362 0.0
O1070 O 0.44594 0.57918 0.33598 0.0
O1071 O 0.4466 0.60741 0.3413 0.0
O1072 O 0.46299 0.59683 0.37001 0.0
O1073 O 0.47074 0.62457 0.36978 0.0
O1074 O 0.49473 0.59589 0.35354 0.0
O1075 O 0.48512 0.5695 0.34747 0.0
C1076 C 0.4381 0.59366 0.337 0.0
C1077 C 0.49724 0.57938 0.35278 0.0
C1078 C 0.16436 0.74656 0.10548 0.0
C1079 C 0.15087 0.68801 0.08669 0.0
O1080 O 0.17448 0.73487 0.09969 0.0
Zn1081 Zn 0.15703 0.71778 0.09492 0.0
O1082 O 0.14791 0.74367 0.10612 0.0
Zn1083 Zn 0.13071 0.72232 0.09952 0.0
O1084 O 0.11967 0.71825 0.12116 0.0
O1085 O 0.14747 0.71081 0.12095 0.0
O1086 O 0.13708 0.69616 0.09142 0.0
O1087 O 0.16528 0.69604 0.08599 0.0
O1088 O 0.14322 0.72921 0.07324 0.0
O1089 O 0.11591 0.73128 0.08164 0.0
C1090 C 0.13279 0.71191 0.12893 0.0
C1091 C 0.12742 0.73359 0.07006 0.0
C1092 C 0.05704 0.40602 0.84182 0.0
C1093 C -0.00301 0.41826 0.85639 0.0
O1094 O 0.04897 0.4204 0.84099 0.0
Zn1095 Zn 0.02664 0.4117 0.84794 0.0
O1096 O 0.04867 0.39201 0.84544 0.0
Zn1097 Zn 0.02205 0.38513 0.85131 0.0
O1098 O 0.01466 0.37092 0.83225 0.0
O1099 O 0.01702 0.39856 0.82506 0.0
O1100 O 7e-05 0.40184 0.85669 0.0
O1101 O 0.00896 0.42877 0.85196 0.0
O1102 O 0.03168 0.40133 0.87402 0.0
O1103 O 0.02452 0.37345 0.8729 0.0
C1104 C 0.01306 0.38286 0.82098 0.0
C1105 C 0.03014 0.38641 0.88148 0.0
C1106 C 0.32541 0.24694 0.6082 0.0
C1107 C 0.33296 0.30697 0.59128 0.0
O1108 O 0.31412 0.25842 0.60461 0.0
Zn1109 Zn 0.3299 0.27664 0.599 0.0
O1110 O 0.34168 0.25069 0.6071 0.0
Zn1111 Zn 0.35672 0.27366 0.59996 0.0
O1112 O 0.3701 0.27745 0.62038 0.0
O1113 O 0.34205 0.28264 0.62397 0.0
O1114 O 0.34782 0.29961 0.59328 0.0
O1115 O 0.31913 0.29813 0.593 0.0
O1116 O 0.34166 0.26716 0.57508 0.0
O1117 O 0.36986 0.26651 0.58026 0.0
C1118 C 0.35763 0.2822 0.63008 0.0
C1119 C 0.35726 0.26396 0.56994 0.0
C1120 C 0.11754 0.46199 0.38896 0.0
C1121 C 0.17743 0.48119 0.38727 0.0
O1122 O 0.1267 0.4669 0.37612 0.0
Zn1123 Zn 0.1475 0.4712 0.38876 0.0
O1124 O 0.12419 0.46173 0.40431 0.0
Zn1125 Zn 0.14943 0.4682 0.41559 0.0
O1126 O 0.14404 0.48647 0.43145 0.0
O1127 O 0.14035 0.49392 0.40395 0.0
O1128 O 0.17285 0.47783 0.403 0.0
O1129 O 0.16667 0.47873 0.37501 0.0
O1130 O 0.1549 0.44544 0.39745 0.0
O1131 O 0.15604 0.44676 0.42614 0.0
C1132 C 0.13972 0.49776 0.42021 0.0
C1133 C 0.15747 0.43804 0.41221 0.0
C1134 C 0.24755 0.38638 0.16206 0.0
C1135 C 0.30708 0.40492 0.15407 0.0
O1136 O 0.25911 0.38972 0.17338 0.0
Zn1137 Zn 0.27673 0.3968 0.15754 0.0
O1138 O 0.25097 0.38834 0.14579 0.0
Zn1139 Zn 0.27376 0.39601 0.13063 0.0
O1140 O 0.27835 0.37588 0.11697 0.0
O1141 O 0.28295 0.37202 0.14511 0.0
O1142 O 0.29958 0.40234 0.13939 0.0
O1143 O 0.2983 0.40393 0.168 0.0
O1144 O 0.26603 0.42036 0.14617 0.0
O1145 O 0.2663 0.41591 0.11786 0.0
C1146 C 0.28299 0.36613 0.12946 0.0
C1147 C 0.26294 0.42575 0.13065 0.0
C1148 C 0.34058 0.5597 0.90693 0.0
C1149 C 0.35635 0.50049 0.92103 0.0
O1150 O 0.3399 0.55194 0.92148 0.0
Zn1151 Zn 0.3473 0.52959 0.91342 0.0
O1152 O 0.34435 0.55109 0.89313 0.0
Zn1153 Zn 0.35051 0.52436 0.88704 0.0
O1154 O 0.33149 0.51613 0.87323 0.0
O1155 O 0.32457 0.51875 0.90089 0.0
O1156 O 0.35647 0.50298 0.90449 0.0
O1157 O 0.35178 0.51274 0.93112 0.0
O1158 O 0.37335 0.5346 0.90274 0.0
O1159 O 0.37194 0.52675 0.87508 0.0
C1160 C 0.32044 0.5143 0.88534 0.0
C1161 C 0.38067 0.53269 0.88779 0.0
C1162 C 0.18969 0.59267 0.657 0.0
C1163 C 0.24875 0.61341 0.66215 0.0
O1164 O 0.19862 0.59585 0.6705 0.0
Zn1165 Zn 0.21943 0.60261 0.65888 0.0
O1166 O 0.19665 0.59429 0.64188 0.0
Zn1167 Zn 0.22193 0.60215 0.63198 0.0
O1168 O 0.22958 0.58227 0.61958 0.0
O1169 O 0.22991 0.57845 0.64804 0.0
O1170 O 0.24502 0.61048 0.64611 0.0
O1171 O 0.23739 0.61081 0.67382 0.0
O1172 O 0.21151 0.62625 0.64567 0.0
O1173 O 0.21674 0.62187 0.61779 0.0
C1174 C 0.2329 0.57269 0.6326 0.0
C1175 C 0.21137 0.63172 0.62988 0.0
C1176 C 0.11278 0.53379 0.10853 0.0
C1177 C 0.17256 0.51406 0.10912 0.0
O1178 O 0.12182 0.52794 0.12106 0.0
Zn1179 Zn 0.14268 0.52431 0.10825 0.0
O1180 O 0.11942 0.53469 0.0932 0.0
Zn1181 Zn 0.14441 0.52808 0.08143 0.0
O1182 O 0.13777 0.51042 0.06513 0.0
O1183 O 0.13601 0.5019 0.09254 0.0
O1184 O 0.16772 0.51753 0.09349 0.0
O1185 O 0.16215 0.5168 0.12161 0.0
O1186 O 0.14921 0.55043 0.10025 0.0
O1187 O 0.15188 0.54982 0.07165 0.0
C1188 C 0.13447 0.49863 0.07622 0.0
C1189 C 0.15229 0.55828 0.08582 0.0
C1190 C 0.21314 0.36412 0.85953 0.0
C1191 C 0.23263 0.42405 0.86108 0.0
O1192 O 0.21938 0.37285 0.8721 0.0
Zn1193 Zn 0.22219 0.39407 0.85979 0.0
O1194 O 0.2113 0.37132 0.84451 0.0
Zn1195 Zn 0.21685 0.39706 0.83342 0.0
O1196 O 0.23346 0.39195 0.81572 0.0
O1197 O 0.24336 0.3874 0.84231 0.0
O1198 O 0.22802 0.41981 0.8456 0.0
O1199 O 0.23087 0.41312 0.8733 0.0
O1200 O 0.19553 0.40085 0.85373 0.0
O1201 O 0.19468 0.40481 0.8253 0.0
C1202 C 0.24569 0.38722 0.82575 0.0
C1203 C 0.18697 0.40463 0.83988 0.0
C1204 C 0.37861 0.45944 0.61059 0.0
C1205 C 0.31951 0.48067 0.61088 0.0
O1206 O 0.36901 0.46401 0.62321 0.0
Zn1207 Zn 0.34892 0.46928 0.6099 0.0
O1208 O 0.37256 0.45975 0.59499 0.0
Zn1209 Zn 0.34746 0.46619 0.58326 0.0
O1210 O 0.3535 0.48356 0.56704 0.0
O1211 O 0.3571 0.49188 0.59431 0.0
O1212 O 0.32421 0.47709 0.59523 0.0
O1213 O 0.32987 0.4776 0.62332 0.0
O1214 O 0.34086 0.4436 0.60143 0.0
O1215 O 0.34039 0.44489 0.57278 0.0
C1216 C 0.35796 0.49515 0.5779 0.0
C1217 C 0.3384 0.43621 0.58665 0.0
C1218 C 0.30822 0.59181 0.33624 0.0
C1219 C 0.24795 0.60685 0.32609 0.0
O1220 O 0.29977 0.59157 0.32206 0.0
Zn1221 Zn 0.27769 0.59816 0.3316 0.0
O1222 O 0.30021 0.59478 0.35059 0.0
Zn1223 Zn 0.27376 0.60019 0.35836 0.0
O1224 O 0.26707 0.58063 0.37199 0.0
O1225 O 0.2681 0.57461 0.34398 0.0
O1226 O 0.25119 0.60573 0.34244 0.0
O1227 O 0.25988 0.60375 0.3151 0.0
O1228 O 0.28307 0.62362 0.343 0.0
O1229 O 0.27632 0.62136 0.37087 0.0
C1230 C 0.26482 0.56989 0.35968 0.0
C1231 C 0.28176 0.63046 0.3582 0.0
C1232 C 0.38216 0.11618 0.45928 0.0
C1233 C 0.38078 0.17529 0.48084 0.0
O1234 O 0.36924 0.12521 0.4642 0.0
Zn1235 Zn 0.382 0.14574 0.46966 0.0
O1236 O 0.39756 0.12272 0.45968 0.0
Zn1237 Zn 0.40896 0.14772 0.46677 0.0
O1238 O 0.42485 0.14083 0.48452 0.0
O1239 O 0.39725 0.13804 0.49223 0.0
O1240 O 0.39652 0.17063 0.47762 0.0
O1241 O 0.36841 0.16487 0.47758 0.0
O1242 O 0.39064 0.15333 0.4442 0.0
O1243 O 0.41921 0.15572 0.44536 0.0
C1244 C 0.41354 0.13665 0.49581 0.0
C1245 C 0.40519 0.1566 0.4367 0.0
C1246 C 0.88132 0.31642 0.51141 0.0
C1247 C 0.88318 0.37557 0.53258 0.0
O1248 O 0.86914 0.32722 0.51394 0.0
Zn1249 Zn 0.88292 0.34611 0.52232 0.0
O1250 O 0.89701 0.32072 0.51522 0.0
Zn1251 Zn 0.9096 0.34342 0.52603 0.0
O1252 O 0.91912 0.33538 0.54769 0.0
O1253 O 0.8906 0.3385 0.54818 0.0
O1254 O 0.89853 0.36889 0.53265 0.0
O1255 O 0.8703 0.36664 0.52735 0.0
O1256 O 0.89907 0.35397 0.50036 0.0
O1257 O 0.92618 0.34909 0.5086 0.0
C1258 C 0.90489 0.33491 0.55603 0.0
C1259 C 0.9155 0.35429 0.49714 0.0
C1260 C 0.36662 0.13872 0.2834 0.0
C1261 C 0.42568 0.13703 0.26197 0.0
O1262 O 0.37549 0.12592 0.27791 0.0
Zn1263 Zn 0.39611 0.13853 0.27313 0.0
O1264 O 0.37336 0.15405 0.28373 0.0
Zn1265 Zn 0.3989 0.16516 0.27726 0.0
O1266 O 0.39331 0.18207 0.26008 0.0
O1267 O 0.38855 0.15507 0.25139 0.0
O1268 O 0.42146 0.15268 0.26601 0.0
O1269 O 0.41489 0.12482 0.26454 0.0
O1270 O 0.40376 0.14572 0.29905 0.0
O1271 O 0.4071 0.17422 0.29909 0.0
C1272 C 0.3883 0.17153 0.24839 0.0
C1273 C 0.40747 0.15983 0.30716 0.0
C1274 C 0.58657 0.65303 0.0525 0.0
C1275 C 0.58285 0.6308 0.99383 0.0
O1276 O 0.57323 0.64951 0.04345 0.0
Zn1277 Zn 0.5853 0.64226 0.02303 0.0
O1278 O 0.60182 0.65119 0.04591 0.0
Zn1279 Zn 0.61231 0.64256 0.02118 0.0
O1280 O 0.62499 0.66218 0.01325 0.0
O1281 O 0.59656 0.66617 0.01249 0.0
O1282 O 0.59878 0.63368 -0.00198 0.0
O1283 O 0.57084 0.63381 0.00473 0.0
O1284 O 0.59816 0.61873 0.03176 0.0
O1285 O 0.62621 0.62291 0.02728 0.0
C1286 C 0.61208 0.6718 0.00964 0.0
C1287 C 0.6139 0.61321 0.03246 0.0
C1288 C 0.63094 0.35787 0.28137 0.0
C1289 C 0.57057 0.35752 0.26378 0.0
O1290 O 0.62166 0.37016 0.27544 0.0
Zn1291 Zn 0.60076 0.35715 0.2729 0.0
O1292 O 0.62444 0.34253 0.28294 0.0
Zn1293 Zn 0.59941 0.33037 0.27748 0.0
O1294 O 0.6055 0.31369 0.25994 0.0
O1295 O 0.60656 0.3409 0.2507 0.0
O1296 O 0.57564 0.34201 0.26748 0.0
O1297 O 0.58099 0.37017 0.26578 0.0
O1298 O 0.59499 0.34985 0.29934 0.0
O1299 O 0.59271 0.32121 0.29974 0.0
C1300 C 0.60812 0.32453 0.24775 0.0
C1301 C 0.59227 0.33566 0.30772 0.0
C1302 C 0.07077 0.86153 0.99402 0.0
C1303 C 0.07655 0.83807 0.93609 0.0
O1304 O 0.0592 0.85721 0.98308 0.0
Zn1305 Zn 0.07437 0.84983 0.96518 0.0
O1306 O 0.08696 0.85999 0.99003 0.0
Zn1307 Zn 0.1013 0.85059 0.9673 0.0
O1308 O 0.1147 0.87011 0.95992 0.0
O1309 O 0.08642 0.87401 0.95667 0.0
O1310 O 0.09157 0.84057 0.94294 0.0
O1311 O 0.06293 0.84167 0.94466 0.0
O1312 O 0.08622 0.82678 0.97668 0.0
O1313 O 0.11451 0.83166 0.97622 0.0
C1314 C 0.1021 0.87965 0.95522 0.0
C1315 C 0.10183 0.82178 0.98001 0.0
C1316 C 0.368 0.85834 0.20887 0.0
C1317 C 0.42709 0.85736 0.23012 0.0
O1318 O 0.3777 0.87073 0.21385 0.0
Zn1319 Zn 0.39773 0.85712 0.21903 0.0
O1320 O 0.3738 0.84267 0.2091 0.0
Zn1321 Zn 0.39791 0.83015 0.21678 0.0
O1322 O 0.39017 0.81515 0.23506 0.0
O1323 O 0.38978 0.84299 0.24222 0.0
O1324 O 0.42174 0.84174 0.22728 0.0
O1325 O 0.41724 0.8701 0.22658 0.0
O1326 O 0.40582 0.84736 0.1939 0.0
O1327 O 0.40497 0.81871 0.19583 0.0
C1328 C 0.38729 0.82694 0.24624 0.0
C1329 C 0.40787 0.83231 0.18694 0.0
C1330 C 0.13052 0.13603 0.71148 0.0
C1331 C 0.07016 0.13402 0.72892 0.0
O1332 O 0.12128 0.12327 0.71643 0.0
Zn1333 Zn 0.10028 0.13582 0.71962 0.0
O1334 O 0.12376 0.1513 0.71051 0.0
Zn1335 Zn 0.09814 0.1624 0.7159 0.0
O1336 O 0.10284 0.17893 0.73363 0.0
O1337 O 0.10655 0.15179 0.74226 0.0
O1338 O 0.07459 0.14977 0.72535 0.0
O1339 O 0.08115 0.12191 0.72692 0.0
O1340 O 0.09355 0.14375 0.69329 0.0
O1341 O 0.09196 0.17242 0.69417 0.0
C1342 C 0.1069 0.1682 0.74549 0.0
C1343 C 0.09099 0.15838 0.68559 0.0
H1344 H 0.08058 0.11371 0.34916 0.0
H1345 H 0.1686 0.07536 0.31205 0.0
H1346 H 0.0806 0.06502 0.32109 0.0
H1347 H 0.16554 0.10173 0.36158 0.0
H1348 H 0.1366 0.0747 0.31089 0.0
H1349 H 0.1124 0.11352 0.34888 0.0
C1350 C 0.08728 0.10312 0.3427 0.0
C1351 C 0.07799 0.08933 0.33517 0.0
C1352 C 0.14303 0.08049 0.32202 0.0
C1353 C 0.11426 0.08908 0.33483 0.0
C1354 C 0.1612 0.08087 0.32271 0.0
C1355 C 0.16967 0.08855 0.33696 0.0
C1356 C 0.13341 0.08827 0.33545 0.0
C1357 C 0.15953 0.09555 0.35043 0.0
C1358 C 0.1054 0.10295 0.3427 0.0
C1359 C 0.08733 0.07585 0.32711 0.0
N1360 N 0.14191 0.09544 0.34924 0.0
N1361 N 0.10503 0.07607 0.32709 0.0
H1362 H 0.16974 0.91848 0.56929 0.0
H1363 H 0.12597 0.83103 0.60249 0.0
H1364 H 0.1398 0.91561 0.61677 0.0
H1365 H 0.17338 0.83057 0.57229 0.0
H1366 H 0.12788 0.86275 0.60433 0.0
H1367 H 0.16899 0.88664 0.56733 0.0
C1368 C 0.16318 0.91113 0.5794 0.0
C1369 C 0.15484 0.91964 0.59324 0.0
C1370 C 0.13781 0.85568 0.59726 0.0
C1371 C 0.15357 0.88344 0.59081 0.0
C1372 C 0.13664 0.83762 0.59603 0.0
C1373 C 0.14954 0.82819 0.58722 0.0
C1374 C 0.15183 0.86436 0.58938 0.0
C1375 C 0.16319 0.83738 0.57924 0.0
C1376 C 0.16274 0.89301 0.57824 0.0
C1377 C 0.1465 0.90954 0.60596 0.0
N1378 N 0.16396 0.85501 0.58046 0.0
N1379 N 0.14589 0.89195 0.60432 0.0
H1380 H 0.41642 0.88808 0.82043 0.0
H1381 H 0.32803 0.92802 0.84909 0.0
H1382 H 0.41424 0.94036 0.8409 0.0
H1383 H 0.33064 0.89536 0.80347 0.0
H1384 H 0.35967 0.93192 0.84769 0.0
H1385 H 0.38493 0.8892 0.81522 0.0
C1386 C 0.40934 0.89984 0.82364 0.0
C1387 C 0.41787 0.91411 0.83118 0.0
C1388 C 0.35325 0.92415 0.83782 0.0
C1389 C 0.38203 0.91534 0.82557 0.0
C1390 C 0.33526 0.92189 0.83864 0.0
C1391 C 0.3268 0.91133 0.8264 0.0
C1392 C 0.36284 0.91536 0.825 0.0
C1393 C 0.33671 0.90366 0.81311 0.0
C1394 C 0.39144 0.9005 0.82059 0.0
C1395 C 0.40814 0.92908 0.83505 0.0
N1396 N 0.35431 0.90554 0.81296 0.0
N1397 N 0.39065 0.92919 0.8325 0.0
H1398 H 0.31194 0.16435 0.07501 0.0
H1399 H 0.35078 0.07863 0.1169 0.0
H1400 H 0.36133 0.16343 0.10183 0.0
H1401 H 0.32141 0.0763 0.06903 0.0
H1402 H 0.35043 0.11041 0.11518 0.0
H1403 H 0.31146 0.13236 0.07561 0.0
C1404 C 0.32272 0.15741 0.08088 0.0
C1405 C 0.33672 0.1665 0.08834 0.0
C1406 C 0.34401 0.10291 0.10511 0.0
C1407 C 0.33599 0.13022 0.08946 0.0
C1408 C 0.34406 0.08481 0.10615 0.0
C1409 C 0.33613 0.07486 0.09306 0.0
C1410 C 0.3357 0.1111 0.09106 0.0
C1411 C 0.32773 0.08354 0.07934 0.0
C1412 C 0.32243 0.13924 0.08122 0.0
C1413 C 0.35035 0.15693 0.09582 0.0
N1414 N 0.32767 0.10123 0.07872 0.0
N1415 N 0.34955 0.1393 0.09638 0.0
H1416 H 0.08136 0.93958 0.14938 0.0
H1417 H 0.16394 0.89276 0.19013 0.0
H1418 H 0.07774 0.88865 0.17289 0.0
H1419 H 0.16677 0.92114 0.14171 0.0
H1420 H 0.13229 0.89707 0.19043 0.0
H1421 H 0.11303 0.93876 0.15321 0.0
C1422 C 0.08721 0.92837 0.15562 0.0
C1423 C 0.07701 0.9141 0.16075 0.0
C1424 C 0.13994 0.90248 0.17988 0.0
C1425 C 0.11296 0.91324 0.16531 0.0
C1426 C 0.15792 0.90012 0.17972 0.0
C1427 C 0.16788 0.90654 0.16581 0.0
C1428 C 0.13201 0.91167 0.16626 0.0
C1429 C 0.15948 0.91588 0.15258 0.0
C1430 C 0.10522 0.9279 0.15769 0.0
C1431 C 0.08521 0.89984 0.16865 0.0
N1432 N 0.14197 0.91823 0.15315 0.0
N1433 N 0.10277 0.89977 0.17073 0.0
H1434 H 0.34934 0.91359 0.38228 0.0
H1435 H 0.31363 0.82752 0.42386 0.0
H1436 H 0.32592 0.91644 0.43332 0.0
H1437 H 0.36346 0.83003 0.39791 0.0
H1438 H 0.31306 0.85956 0.42483 0.0
H1439 H 0.34879 0.88192 0.38414 0.0
C1440 C 0.34382 0.90756 0.39377 0.0
C1441 C 0.33771 0.91763 0.40771 0.0
C1442 C 0.32415 0.85297 0.41915 0.0
C1443 C 0.33708 0.88146 0.40985 0.0
C1444 C 0.32451 0.83479 0.41859 0.0
C1445 C 0.33861 0.82616 0.41076 0.0
C1446 C 0.33773 0.8624 0.41139 0.0
C1447 C 0.35237 0.83614 0.40411 0.0
C1448 C 0.34368 0.88952 0.39488 0.0
C1449 C 0.33082 0.90909 0.42234 0.0
N1450 N 0.35145 0.85375 0.40431 0.0
N1451 N 0.33062 0.89138 0.42304 0.0
H1452 H 0.41908 0.10743 0.67079 0.0
H1453 H 0.32984 0.06935 0.64114 0.0
H1454 H 0.41653 0.05607 0.64813 0.0
H1455 H 0.33356 0.09709 0.68984 0.0
H1456 H 0.36167 0.06647 0.64082 0.0
H1457 H 0.38746 0.1064 0.67557 0.0
C1458 C 0.41188 0.09591 0.66698 0.0
C1459 C 0.42035 0.08182 0.65907 0.0
C1460 C 0.35544 0.07297 0.65166 0.0
C1461 C 0.38444 0.08075 0.66411 0.0
C1462 C 0.33736 0.07466 0.65183 0.0
C1463 C 0.32915 0.08343 0.66554 0.0
C1464 C 0.3653 0.0806 0.66502 0.0
C1465 C 0.33943 0.09012 0.67909 0.0
C1466 C 0.39393 0.09531 0.66976 0.0
C1467 C 0.41048 0.06717 0.65435 0.0
N1468 N 0.35705 0.08884 0.67835 0.0
N1469 N 0.39296 0.06713 0.65667 0.0
H1470 H 0.16959 0.07582 0.92853 0.0
H1471 H 0.12996 0.16419 0.89404 0.0
H1472 H 0.14382 0.08026 0.87877 0.0
H1473 H 0.17924 0.16461 0.92108 0.0
H1474 H 0.13069 0.13241 0.89382 0.0
H1475 H 0.16998 0.10782 0.93067 0.0
C1476 C 0.16418 0.08351 0.91802 0.0
C1477 C 0.15672 0.07543 0.90342 0.0
C1478 C 0.14127 0.13949 0.89991 0.0
C1479 C 0.15665 0.11164 0.90608 0.0
C1480 C 0.14079 0.15759 0.90019 0.0
C1481 C 0.1546 0.16702 0.90753 0.0
C1482 C 0.15548 0.13074 0.9073 0.0
C1483 C 0.16839 0.15778 0.91521 0.0
C1484 C 0.1644 0.10168 0.91927 0.0
C1485 C 0.14983 0.08595 0.89019 0.0
N1486 N 0.16848 0.14007 0.91493 0.0
N1487 N 0.14975 0.10351 0.89194 0.0
H1488 H 0.09892 0.36475 0.16595 0.0
H1489 H 0.06064 0.32295 0.08036 0.0
H1490 H 0.0726 0.31511 0.16876 0.0
H1491 H 0.1102 0.34951 0.08165 0.0
H1492 H 0.06032 0.32289 0.1124 0.0
H1493 H 0.0978 0.36319 0.13424 0.0
C1494 C 0.09265 0.35365 0.15991 0.0
C1495 C 0.08588 0.34 0.16998 0.0
C1496 C 0.07128 0.32856 0.10557 0.0
C1497 C 0.08461 0.33819 0.13377 0.0
C1498 C 0.0715 0.32859 0.08738 0.0
C1499 C 0.08549 0.33622 0.07839 0.0
C1500 C 0.08489 0.33664 0.11467 0.0
C1501 C 0.09922 0.34339 0.08806 0.0
C1502 C 0.09218 0.35271 0.14184 0.0
C1503 C 0.07803 0.32586 0.16143 0.0
N1504 N 0.09846 0.34365 0.10569 0.0
N1505 N 0.07755 0.32532 0.14373 0.0
H1506 H 0.5503 0.1456 0.9115 0.0
H1507 H 0.59337 0.18908 0.82779 0.0
H1508 H 0.59837 0.17467 0.91376 0.0
H1509 H 0.56792 0.13897 0.82609 0.0
H1510 H 0.58819 0.19025 0.85925 0.0
H1511 H 0.54976 0.14967 0.87983 0.0
C1512 C 0.56054 0.15314 0.90537 0.0
C1513 C 0.5745 0.1597 0.91516 0.0
C1514 C 0.58355 0.17914 0.85189 0.0
C1515 C 0.5738 0.1645 0.87923 0.0
C1516 C 0.58642 0.17848 0.83399 0.0
C1517 C 0.5812 0.16381 0.82442 0.0
C1518 C 0.5751 0.16523 0.86014 0.0
C1519 C 0.5723 0.15041 0.83307 0.0
C1520 C 0.56025 0.15536 0.88736 0.0
C1521 C 0.58748 0.16928 0.90661 0.0
N1522 N 0.56954 0.15142 0.8505 0.0
N1523 N 0.58684 0.17139 0.88908 0.0
H1524 H 0.92458 0.81517 0.33076 0.0
H1525 H 0.88094 0.85051 0.41697 0.0
H1526 H 0.89448 0.8626 0.33223 0.0
H1527 H 0.93173 0.8265 0.41887 0.0
H1528 H 0.88211 0.8497 0.3852 0.0
H1529 H 0.92445 0.81458 0.36277 0.0
C1530 C 0.91808 0.82551 0.33782 0.0
C1531 C 0.90958 0.839 0.3289 0.0
C1532 C 0.89293 0.84452 0.39261 0.0
C1533 C 0.90898 0.83808 0.36517 0.0
C1534 C 0.89222 0.84481 0.41071 0.0
C1535 C 0.90629 0.8386 0.42053 0.0
C1536 C 0.90766 0.83767 0.38429 0.0
C1537 C 0.92065 0.83149 0.41173 0.0
C1538 C 0.91802 0.82514 0.356 0.0
C1539 C 0.90132 0.85205 0.33861 0.0
N1540 N 0.92096 0.83117 0.39403 0.0
N1541 N 0.90103 0.85115 0.35624 0.0
H1542 H 0.91966 0.18131 0.16105 0.0
H1543 H 0.87687 0.14181 0.07593 0.0
H1544 H 0.8932 0.13169 0.16051 0.0
H1545 H 0.92444 0.17166 0.07296 0.0
H1546 H 0.87882 0.1425 0.1077 0.0
H1547 H 0.91843 0.18185 0.12907 0.0
C1548 C 0.91375 0.17049 0.1542 0.0
C1549 C 0.90658 0.1564 0.16339 0.0
C1550 C 0.88877 0.14896 0.10005 0.0
C1551 C 0.90472 0.1572 0.12714 0.0
C1552 C 0.88758 0.14873 0.08197 0.0
C1553 C 0.90054 0.15666 0.07185 0.0
C1554 C 0.90283 0.15745 0.10805 0.0
C1555 C 0.91423 0.16532 0.08034 0.0
C1556 C 0.91304 0.17082 0.13603 0.0
C1557 C 0.89901 0.14273 0.15393 0.0
N1558 N 0.91501 0.16554 0.09802 0.0
N1559 N 0.8981 0.14357 0.13632 0.0
H1560 H 0.39824 0.62888 0.66485 0.0
H1561 H 0.43583 0.6696 0.57806 0.0
H1562 H 0.42638 0.67757 0.66626 0.0
H1563 H 0.38675 0.64224 0.58027 0.0
H1564 H 0.43672 0.66972 0.61006 0.0
H1565 H 0.39893 0.62978 0.63311 0.0
C1566 C 0.40482 0.63962 0.65849 0.0
C1567 C 0.41221 0.65321 0.66818 0.0
C1568 C 0.42573 0.66385 0.60345 0.0
C1569 C 0.41296 0.65431 0.63193 0.0
C1570 C 0.42519 0.66379 0.58527 0.0
C1571 C 0.41117 0.65594 0.57656 0.0
C1572 C 0.4124 0.6556 0.61282 0.0
C1573 C 0.39773 0.64854 0.58647 0.0
C1574 C 0.40504 0.6402 0.6404 0.0
C1575 C 0.42046 0.66688 0.65923 0.0
N1576 N 0.39879 0.64836 0.60408 0.0
N1577 N 0.42064 0.66708 0.64153 0.0
H1578 H 0.10151 0.67286 0.41655 0.0
H1579 H 0.07122 0.63431 0.32748 0.0
H1580 H 0.05374 0.64341 0.41341 0.0
H1581 H 0.09389 0.68569 0.33008 0.0
H1582 H 0.06683 0.63508 0.35915 0.0
H1583 H 0.10141 0.67572 0.38474 0.0
C1584 C 0.09094 0.66715 0.40916 0.0
C1585 C 0.07761 0.65791 0.41753 0.0
C1586 C 0.07256 0.64624 0.35268 0.0
C1587 C 0.07764 0.66076 0.38137 0.0
C1588 C 0.07512 0.64578 0.3347 0.0
C1589 C 0.08294 0.65994 0.32622 0.0
C1590 C 0.07832 0.66073 0.36221 0.0
C1591 C 0.08776 0.67452 0.33613 0.0
C1592 C 0.09086 0.66883 0.39108 0.0
C1593 C 0.06419 0.65073 0.40741 0.0
N1594 N 0.08563 0.67443 0.35368 0.0
N1595 N 0.06469 0.65205 0.38978 0.0
H1596 H 0.42146 0.31576 0.82887 0.0
H1597 H 0.37968 0.35283 0.91531 0.0
H1598 H 0.39206 0.36362 0.8301 0.0
H1599 H 0.42935 0.32659 0.91665 0.0
H1600 H 0.38064 0.35232 0.88352 0.0
H1601 H 0.42177 0.31559 0.86086 0.0
C1602 C 0.41521 0.32628 0.83587 0.0
C1603 C 0.40676 0.33975 0.82688 0.0
C1604 C 0.39128 0.34662 0.8908 0.0
C1605 C 0.40669 0.33935 0.86317 0.0
C1606 C 0.39068 0.34676 0.90891 0.0
C1607 C 0.40448 0.33975 0.91859 0.0
C1608 C 0.40561 0.33916 0.88232 0.0
C1609 C 0.41849 0.33218 0.90962 0.0
C1610 C 0.4154 0.32616 0.85405 0.0
C1611 C 0.39883 0.35306 0.83653 0.0
N1612 N 0.41868 0.332 0.89192 0.0
N1613 N 0.3988 0.35241 0.85418 0.0
H1614 H 0.91595 0.92293 0.67835 0.0
H1615 H 0.82979 0.88763 0.63467 0.0
H1616 H 0.91501 0.87644 0.64679 0.0
H1617 H 0.82808 0.91267 0.68495 0.0
H1618 H 0.86155 0.88732 0.63626 0.0
H1619 H 0.88398 0.92268 0.67895 0.0
C1620 C 0.90902 0.91258 0.67172 0.0
C1621 C 0.9181 0.89967 0.66252 0.0
C1622 C 0.85421 0.8929 0.64693 0.0
C1623 C 0.88177 0.8996 0.6628 0.0
C1624 C 0.83611 0.89324 0.64597 0.0
C1625 C 0.82631 0.90021 0.6597 0.0
C1626 C 0.86259 0.89987 0.66157 0.0
C1627 C 0.83518 0.90714 0.67411 0.0
C1628 C 0.89084 0.91246 0.67207 0.0
C1629 C 0.90852 0.88658 0.65412 0.0
N1630 N 0.85288 0.90691 0.67463 0.0
N1631 N 0.89085 0.88701 0.65426 0.0
H1632 H 0.81114 0.16506 0.41308 0.0
H1633 H 0.85081 0.07846 0.37361 0.0
H1634 H 0.86059 0.16371 0.3864 0.0
H1635 H 0.82265 0.07731 0.42224 0.0
H1636 H 0.8494 0.11026 0.37392 0.0
H1637 H 0.81069 0.13302 0.41301 0.0
C1638 C 0.82191 0.15803 0.40731 0.0
C1639 C 0.83597 0.16698 0.39982 0.0
C1640 C 0.84345 0.103 0.38445 0.0
C1641 C 0.83526 0.13069 0.39929 0.0
C1642 C 0.84411 0.08489 0.38422 0.0
C1643 C 0.83689 0.07528 0.39796 0.0
C1644 C 0.83523 0.11153 0.39834 0.0
C1645 C 0.82846 0.08428 0.41145 0.0
C1646 C 0.82163 0.13983 0.40728 0.0
C1647 C 0.84959 0.1573 0.39246 0.0
N1648 N 0.82781 0.10197 0.4113 0.0
N1649 N 0.84881 0.13967 0.39221 0.0
H1650 H 0.66634 0.07414 0.18293 0.0
H1651 H 0.57914 0.11198 0.1443 0.0
H1652 H 0.66387 0.09985 0.133 0.0
H1653 H 0.57827 0.06206 0.17019 0.0
H1654 H 0.61086 0.11188 0.14581 0.0
H1655 H 0.63429 0.07291 0.1834 0.0
C1656 C 0.65907 0.07938 0.17205 0.0
C1657 C 0.6677 0.08706 0.15788 0.0
C1658 C 0.60369 0.10102 0.15126 0.0
C1659 C 0.63145 0.08614 0.15862 0.0
C1660 C 0.58561 0.10111 0.15055 0.0
C1661 C 0.57609 0.08695 0.15707 0.0
C1662 C 0.61231 0.08684 0.15882 0.0
C1663 C 0.58518 0.07317 0.16493 0.0
C1664 C 0.64088 0.07867 0.17234 0.0
C1665 C 0.65773 0.0937 0.14411 0.0
N1666 N 0.60288 0.07345 0.16564 0.0
N1667 N 0.64012 0.0933 0.14493 0.0
H1668 H 0.67318 0.91585 0.88729 0.0
H1669 H 0.63843 0.82829 0.92418 0.0
H1670 H 0.64898 0.91445 0.93798 0.0
H1671 H 0.68749 0.82976 0.89682 0.0
H1672 H 0.64005 0.85998 0.92794 0.0
H1673 H 0.67687 0.88415 0.88863 0.0
C1674 C 0.66882 0.90888 0.89875 0.0
C1675 C 0.66074 0.91769 0.91252 0.0
C1676 C 0.65057 0.85327 0.92136 0.0
C1677 C 0.66456 0.88166 0.91396 0.0
C1678 C 0.64962 0.83527 0.91917 0.0
C1679 C 0.66282 0.82649 0.91016 0.0
C1680 C 0.66454 0.8625 0.91403 0.0
C1681 C 0.67708 0.83608 0.90391 0.0
C1682 C 0.67099 0.89087 0.89954 0.0
C1683 C 0.65533 0.9081 0.92711 0.0
N1684 N 0.67741 0.85367 0.90567 0.0
N1685 N 0.65704 0.89051 0.92732 0.0
H1686 H 0.82757 0.09749 0.80561 0.0
H1687 H 0.91431 0.05844 0.8455 0.0
H1688 H 0.82813 0.07268 0.85603 0.0
H1689 H 0.91399 0.10811 0.81918 0.0
H1690 H 0.88249 0.05742 0.84332 0.0
H1691 H 0.85939 0.09528 0.80451 0.0
C1692 C 0.83438 0.09133 0.81632 0.0
C1693 C 0.82529 0.08529 0.83098 0.0
C1694 C 0.88947 0.06842 0.83788 0.0
C1695 C 0.86142 0.08257 0.82963 0.0
C1696 C 0.90756 0.06898 0.83899 0.0
C1697 C 0.91672 0.08343 0.83254 0.0
C1698 C 0.88057 0.08218 0.82989 0.0
C1699 C 0.90736 0.0968 0.82439 0.0
C1700 C 0.85247 0.09019 0.8157 0.0
C1701 C 0.83471 0.07757 0.84455 0.0
N1702 N 0.88973 0.09584 0.82323 0.0
N1703 N 0.85233 0.07635 0.84353 0.0
H1704 H 0.63294 0.16145 0.5943 0.0
H1705 H 0.67443 0.07443 0.56038 0.0
H1706 H 0.68542 0.16317 0.57414 0.0
H1707 H 0.64641 0.07756 0.60901 0.0
H1708 H 0.67554 0.10651 0.55946 0.0
H1709 H 0.63379 0.12975 0.59305 0.0
C1710 C 0.64456 0.15518 0.58935 0.0
C1711 C 0.65919 0.16493 0.58441 0.0
C1712 C 0.66932 0.10004 0.57035 0.0
C1713 C 0.66013 0.12873 0.58292 0.0
C1714 C 0.66866 0.08185 0.57089 0.0
C1715 C 0.66035 0.0734 0.58482 0.0
C1716 C 0.66114 0.10963 0.58353 0.0
C1717 C 0.65304 0.08354 0.5981 0.0
C1718 C 0.64505 0.13711 0.58878 0.0
C1719 C 0.67392 0.15607 0.57817 0.0
N1720 N 0.65339 0.10114 0.597 0.0
N1721 N 0.67403 0.13836 0.57756 0.0
H1722 H 0.57828 0.88729 0.31796 0.0
H1723 H 0.6669 0.92029 0.35424 0.0
H1724 H 0.5807 0.93609 0.34567 0.0
H1725 H 0.66432 0.89652 0.30339 0.0
H1726 H 0.63521 0.9244 0.35346 0.0
H1727 H 0.60997 0.88834 0.31414 0.0
C1728 C 0.58548 0.89831 0.32303 0.0
C1729 C 0.57696 0.91162 0.33213 0.0
C1730 C 0.64168 0.91851 0.34241 0.0
C1731 C 0.61299 0.91266 0.32822 0.0
C1732 C 0.65968 0.91609 0.34288 0.0
C1733 C 0.66816 0.90802 0.32888 0.0
C1734 C 0.63216 0.91236 0.32808 0.0
C1735 C 0.65825 0.90284 0.31443 0.0
C1736 C 0.60348 0.89893 0.32081 0.0
C1737 C 0.58683 0.92563 0.33849 0.0
N1738 N 0.64069 0.90482 0.31452 0.0
N1739 N 0.60442 0.92563 0.33671 0.0
H1740 H 0.86523 0.82898 0.10316 0.0
H1741 H 0.82178 0.91431 0.06596 0.0
H1742 H 0.81432 0.82664 0.07946 0.0
H1743 H 0.8525 0.91432 0.11301 0.0
H1744 H 0.82136 0.88231 0.06669 0.0
H1745 H 0.86389 0.86075 0.10222 0.0
C1746 C 0.85386 0.83515 0.09755 0.0
C1747 C 0.83986 0.8252 0.09137 0.0
C1748 C 0.82803 0.8894 0.0769 0.0
C1749 C 0.83829 0.86145 0.09027 0.0
C1750 C 0.82829 0.90758 0.0765 0.0
C1751 C 0.83716 0.91692 0.08947 0.0
C1752 C 0.8371 0.88061 0.09008 0.0
C1753 C 0.84541 0.90761 0.10283 0.0
C1754 C 0.85305 0.85325 0.09718 0.0
C1755 C 0.82536 0.83388 0.08439 0.0
N1756 N 0.84538 0.88995 0.10267 0.0
N1757 N 0.82498 0.85158 0.08393 0.0
H1758 H 0.88317 0.64474 0.91496 0.0
H1759 H 0.92558 0.67945 0.82896 0.0
H1760 H 0.93482 0.66683 0.91797 0.0
H1761 H 0.8986 0.63016 0.8314 0.0
H1762 H 0.92665 0.67992 0.86101 0.0
H1763 H 0.88519 0.6451 0.8833 0.0
C1764 C 0.89485 0.64993 0.90897 0.0
C1765 C 0.90888 0.65575 0.91909 0.0
C1766 C 0.92072 0.66896 0.8544 0.0
C1767 C 0.91119 0.65617 0.8829 0.0
C1768 C 0.92009 0.66866 0.83621 0.0
C1769 C 0.91195 0.65475 0.82755 0.0
C1770 C 0.91272 0.65552 0.86382 0.0
C1771 C 0.90504 0.6411 0.83752 0.0
C1772 C 0.89603 0.64996 0.89092 0.0
C1773 C 0.92375 0.66218 0.91058 0.0
N1774 N 0.90532 0.64197 0.85514 0.0
N1775 N 0.92451 0.66231 0.89287 0.0
H1776 H 0.44077 0.85014 0.08059 0.0
H1777 H 0.39991 0.80566 0.16487 0.0
H1778 H 0.39277 0.82092 0.07891 0.0
H1779 H 0.42512 0.85587 0.16659 0.0
H1780 H 0.40388 0.80515 0.13319 0.0
H1781 H 0.44166 0.84616 0.11226 0.0
C1782 C 0.4306 0.84262 0.08685 0.0
C1783 C 0.41659 0.83594 0.07719 0.0
C1784 C 0.40872 0.81614 0.14059 0.0
C1785 C 0.41769 0.83123 0.11317 0.0
C1786 C 0.40656 0.81642 0.15862 0.0
C1787 C 0.4121 0.8309 0.16828 0.0
C1788 C 0.41681 0.83026 0.1323 0.0
C1789 C 0.42054 0.84455 0.15955 0.0
C1790 C 0.43108 0.84045 0.10487 0.0
C1791 C 0.4037 0.8264 0.08593 0.0
N1792 N 0.42266 0.8439 0.14201 0.0
N1793 N 0.40455 0.82431 0.10347 0.0
H1794 H 0.10037 0.1845 0.66363 0.0
H1795 H 0.05909 0.14442 0.5784 0.0
H1796 H 0.07609 0.1338 0.66448 0.0
H1797 H 0.10928 0.1697 0.57706 0.0
H1798 H 0.05944 0.14611 0.61028 0.0
H1799 H 0.09796 0.18479 0.63182 0.0
C1800 C 0.09432 0.17353 0.65712 0.0
C1801 C 0.08842 0.15907 0.66662 0.0
C1802 C 0.07027 0.1514 0.60293 0.0
C1803 C 0.08545 0.15951 0.63048 0.0
C1804 C 0.07005 0.15057 0.58481 0.0
C1805 C 0.0842 0.15694 0.57516 0.0
C1806 C 0.08451 0.15905 0.61136 0.0
C1807 C 0.09816 0.16461 0.58408 0.0
C1808 C 0.09307 0.17369 0.63904 0.0
C1809 C 0.08085 0.14514 0.65758 0.0
N1810 N 0.09793 0.16556 0.60175 0.0
N1811 N 0.07946 0.14574 0.63994 0.0
H1812 H 0.09539 0.79855 0.83242 0.0
H1813 H 0.05062 0.84559 0.91308 0.0
H1814 H 0.07016 0.84853 0.82775 0.0
H1815 H 0.09959 0.81844 0.91753 0.0
H1816 H 0.05064 0.83978 0.88167 0.0
H1817 H 0.08973 0.79901 0.86384 0.0
C1818 C 0.08836 0.80945 0.83796 0.0
C1819 C 0.08335 0.82362 0.82758 0.0
C1820 C 0.06121 0.83489 0.88964 0.0
C1821 C 0.0767 0.82404 0.86321 0.0
C1822 C 0.06118 0.8381 0.9075 0.0
C1823 C 0.07521 0.83258 0.9178 0.0
C1824 C 0.07514 0.82577 0.8822 0.0
C1825 C 0.08863 0.82304 0.90995 0.0
C1826 C 0.08523 0.80971 0.85583 0.0
C1827 C 0.07437 0.83745 0.83538 0.0
N1828 N 0.08828 0.81992 0.89256 0.0
N1829 N 0.07133 0.83734 0.85279 0.0
H1830 H 0.56625 0.32155 0.41689 0.0
H1831 H 0.60296 0.36131 0.32959 0.0
H1832 H 0.61425 0.35077 0.41487 0.0
H1833 H 0.57795 0.31093 0.32922 0.0
H1834 H 0.60247 0.36095 0.36137 0.0
H1835 H 0.56625 0.32013 0.38492 0.0
C1836 C 0.57684 0.32752 0.40973 0.0
C1837 C 0.59029 0.33627 0.41848 0.0
C1838 C 0.59704 0.35002 0.3543 0.0
C1839 C 0.59009 0.33506 0.38222 0.0
C1840 C 0.59716 0.35027 0.3362 0.0
C1841 C 0.59048 0.33611 0.3268 0.0
C1842 C 0.58991 0.33568 0.36306 0.0
C1843 C 0.58327 0.32207 0.33603 0.0
C1844 C 0.57682 0.32669 0.39157 0.0
C1845 C 0.6037 0.34381 0.40863 0.0
N1846 N 0.58308 0.32223 0.35374 0.0
N1847 N 0.60314 0.34323 0.391 0.0
H1848 H 0.9221 0.30865 0.66517 0.0
H1849 H 0.87999 0.34498 0.57901 0.0
H1850 H 0.89645 0.3586 0.66269 0.0
H1851 H 0.93005 0.31957 0.57629 0.0
H1852 H 0.88171 0.34426 0.61073 0.0
H1853 H 0.92193 0.3075 0.63311 0.0
C1854 C 0.91661 0.31941 0.65789 0.0
C1855 C 0.90932 0.33377 0.66654 0.0
C1856 C 0.89224 0.33873 0.60315 0.0
C1857 C 0.90861 0.33223 0.6303 0.0
C1858 C 0.89121 0.33898 0.58508 0.0
C1859 C 0.90494 0.33238 0.57504 0.0
C1860 C 0.90692 0.33153 0.61124 0.0
C1861 C 0.91924 0.32487 0.58361 0.0
C1862 C 0.91651 0.31872 0.6397 0.0
C1863 C 0.90232 0.34735 0.65656 0.0
N1864 N 0.91987 0.3246 0.60132 0.0
N1865 N 0.90192 0.34613 0.63896 0.0
H1866 H 0.5711 0.64044 0.16141 0.0
H1867 H 0.60889 0.67203 0.07265 0.0
H1868 H 0.59578 0.6908 0.15745 0.0
H1869 H 0.55995 0.64443 0.0743 0.0
H1870 H 0.60655 0.67726 0.10408 0.0
H1871 H 0.56874 0.63954 0.12957 0.0
C1872 C 0.57584 0.65136 0.15384 0.0
C1873 C 0.58366 0.6657 0.162 0.0
C1874 C 0.59624 0.67026 0.09746 0.0
C1875 C 0.58137 0.66456 0.12582 0.0
C1876 C 0.5976 0.66722 0.07961 0.0
C1877 C 0.5846 0.65778 0.07095 0.0
C1878 C 0.58205 0.66337 0.1067 0.0
C1879 C 0.57021 0.65183 0.08052 0.0
C1880 C 0.57444 0.65087 0.13574 0.0
C1881 C 0.5896 0.67954 0.15164 0.0
N1882 N 0.56945 0.65446 0.09798 0.0
N1883 N 0.58862 0.6785 0.13402 0.0
H1884 H 0.58297 0.54716 0.83934 0.0
H1885 H 0.66517 0.59646 0.79955 0.0
H1886 H 0.57911 0.59777 0.81523 0.0
H1887 H 0.66756 0.56705 0.84737 0.0
H1888 H 0.63389 0.59017 0.79769 0.0
H1889 H 0.61453 0.5477 0.83453 0.0
C1890 C 0.58871 0.55819 0.83268 0.0
C1891 C 0.57851 0.57254 0.82782 0.0
C1892 C 0.64139 0.58488 0.8084 0.0
C1893 C 0.61434 0.57308 0.82215 0.0
C1894 C 0.65918 0.58838 0.80944 0.0
C1895 C 0.66885 0.58238 0.82373 0.0
C1896 C 0.63339 0.57501 0.82151 0.0
C1897 C 0.66048 0.57205 0.83625 0.0
C1898 C 0.60667 0.55851 0.83004 0.0
C1899 C 0.58658 0.58655 0.81933 0.0
N1900 N 0.64318 0.5687 0.83487 0.0
N1901 N 0.60409 0.58651 0.8168 0.0
H1902 H 0.64142 0.41279 0.11656 0.0
H1903 H 0.67484 0.32615 0.07153 0.0
H1904 H 0.6709 0.41433 0.06872 0.0
H1905 H 0.62702 0.32858 0.10096 0.0
H1906 H 0.67687 0.35801 0.07285 0.0
H1907 H 0.63999 0.38107 0.11429 0.0
C1908 C 0.64783 0.40643 0.10573 0.0
C1909 C 0.65629 0.41617 0.0928 0.0
C1910 C 0.66588 0.35152 0.07886 0.0
C1911 C 0.6546 0.37999 0.0901 0.0
C1912 C 0.66469 0.3334 0.0781 0.0
C1913 C 0.65072 0.32476 0.08611 0.0
C1914 C 0.65323 0.36094 0.08806 0.0
C1915 C 0.63793 0.33474 0.09449 0.0
C1916 C 0.64684 0.38837 0.10435 0.0
C1917 C 0.66421 0.40728 0.07894 0.0
N1918 N 0.63961 0.35231 0.09544 0.0
N1919 N 0.66322 0.38963 0.07797 0.0
H1920 H 0.82894 0.42509 0.35524 0.0
H1921 H 0.9185 0.38956 0.32342 0.0
H1922 H 0.83258 0.39809 0.30611 0.0
H1923 H 0.9152 0.44003 0.34789 0.0
H1924 H 0.88684 0.39004 0.31904 0.0
H1925 H 0.86068 0.42868 0.35519 0.0
C1926 C 0.83642 0.42009 0.34438 0.0
C1927 C 0.82822 0.41129 0.33066 0.0
C1928 C 0.89314 0.40107 0.32516 0.0
C1929 C 0.86429 0.41497 0.33074 0.0
C1930 C 0.91112 0.40077 0.32772 0.0
C1931 C 0.91939 0.41476 0.33603 0.0
C1932 C 0.88343 0.41522 0.33142 0.0
C1933 C 0.90929 0.42902 0.34136 0.0
C1934 C 0.85445 0.42218 0.34433 0.0
C1935 C 0.83845 0.40503 0.31688 0.0
N1936 N 0.89176 0.42876 0.33922 0.0
N1937 N 0.85604 0.40672 0.31741 0.0
H1938 H 0.8161 0.66351 0.57279 0.0
H1939 H 0.85362 0.57705 0.61383 0.0
H1940 H 0.86398 0.66236 0.6022 0.0
H1941 H 0.82763 0.57585 0.564 0.0
H1942 H 0.85301 0.60884 0.61303 0.0
H1943 H 0.81629 0.63153 0.57196 0.0
C1944 C 0.82672 0.65653 0.57891 0.0
C1945 C 0.84007 0.66553 0.58755 0.0
C1946 C 0.8474 0.60158 0.60231 0.0
C1947 C 0.84007 0.62925 0.58704 0.0
C1948 C 0.84758 0.58348 0.60283 0.0
C1949 C 0.84067 0.57385 0.58895 0.0
C1950 C 0.83997 0.6101 0.58798 0.0
C1951 C 0.83314 0.58284 0.57493 0.0
C1952 C 0.8268 0.63836 0.57843 0.0
C1953 C 0.85351 0.65592 0.5953 0.0
N1954 N 0.83291 0.60054 0.57483 0.0
N1955 N 0.85304 0.63827 0.59507 0.0
H1956 H 0.58031 0.381 0.64436 0.0
H1957 H 0.66817 0.418 0.68215 0.0
H1958 H 0.58021 0.43133 0.66939 0.0
H1959 H 0.66523 0.39229 0.63226 0.0
H1960 H 0.63613 0.41975 0.68261 0.0
H1961 H 0.61207 0.3809 0.64546 0.0
C1962 C 0.58697 0.39193 0.65031 0.0
C1963 C 0.57765 0.40623 0.65675 0.0
C1964 C 0.64263 0.41388 0.67156 0.0
C1965 C 0.6139 0.40611 0.65808 0.0
C1966 C 0.6608 0.41285 0.67129 0.0
C1967 C 0.6693 0.40503 0.65713 0.0
C1968 C 0.63305 0.40655 0.65785 0.0
C1969 C 0.65921 0.39853 0.64337 0.0
C1970 C 0.60506 0.3919 0.65079 0.0
C1971 C 0.58696 0.42011 0.6642 0.0
N1972 N 0.6416 0.39923 0.64419 0.0
N1973 N 0.60467 0.41969 0.66475 0.0
H1974 H 0.85196 0.32869 0.91903 0.0
H1975 H 0.82023 0.41727 0.88037 0.0
H1976 H 0.80322 0.33138 0.89121 0.0
H1977 H 0.84381 0.41539 0.93134 0.0
H1978 H 0.81633 0.38554 0.88146 0.0
H1979 H 0.85195 0.36057 0.92138 0.0
C1980 C 0.8412 0.336 0.91357 0.0
C1981 C 0.82756 0.32748 0.90495 0.0
C1982 C 0.82217 0.39217 0.89245 0.0
C1983 C 0.8277 0.36368 0.9072 0.0
C1984 C 0.82445 0.41019 0.89181 0.0
C1985 C 0.83233 0.41889 0.90579 0.0
C1986 C 0.82828 0.38285 0.90693 0.0
C1987 C 0.83759 0.40915 0.92033 0.0
C1988 C 0.84118 0.35411 0.91495 0.0
C1989 C 0.81392 0.3375 0.89806 0.0
N1990 N 0.83572 0.39158 0.92042 0.0
N1991 N 0.81447 0.35514 0.89908 0.0
H1992 H 0.91468 0.60718 0.17635 0.0
H1993 H 0.82655 0.56807 0.14618 0.0
H1994 H 0.91273 0.55519 0.15511 0.0
H1995 H 0.82888 0.59828 0.19348 0.0
H1996 H 0.85823 0.56443 0.14739 0.0
H1997 H 0.88313 0.60589 0.18126 0.0
C1998 C 0.90764 0.59545 0.17292 0.0
C1999 C 0.91624 0.5813 0.16526 0.0
C2000 C 0.85173 0.5716 0.15764 0.0
C2001 C 0.88038 0.5799 0.17049 0.0
C2002 C 0.83373 0.57372 0.15693 0.0
C2003 C 0.82519 0.5835 0.16973 0.0
C2004 C 0.86122 0.57977 0.17095 0.0
C2005 C 0.83502 0.59058 0.1834 0.0
C2006 C 0.88971 0.59469 0.17578 0.0
C2007 C 0.90656 0.56637 0.16108 0.0
N2008 N 0.85262 0.58888 0.18348 0.0
N2009 N 0.88905 0.56617 0.16344 0.0
H2010 H 0.66955 0.57882 0.4257 0.0
H2011 H 0.62539 0.66462 0.38884 0.0
H2012 H 0.63979 0.57946 0.37805 0.0
H2013 H 0.67329 0.66658 0.41818 0.0
H2014 H 0.62724 0.63281 0.3886 0.0
H2015 H 0.66849 0.61074 0.42638 0.0
C2016 C 0.66295 0.58569 0.41531 0.0
C2017 C 0.6548 0.57653 0.40176 0.0
C2018 C 0.63729 0.64023 0.39515 0.0
C2019 C 0.65316 0.61282 0.40273 0.0
C2020 C 0.63616 0.65835 0.39545 0.0
C2021 C 0.64922 0.66822 0.40355 0.0
C2022 C 0.65141 0.63195 0.40325 0.0
C2023 C 0.66298 0.65943 0.41175 0.0
C2024 C 0.66233 0.60385 0.41572 0.0
C2025 C 0.64637 0.58604 0.38864 0.0
N2026 N 0.6637 0.64175 0.41145 0.0
N2027 N 0.64559 0.60368 0.38956 0.0
H2028 H 0.55098 0.84927 0.57953 0.0
H2029 H 0.58917 0.805 0.6651 0.0
H2030 H 0.59683 0.81682 0.57895 0.0
H2031 H 0.56789 0.85701 0.66521 0.0
H2032 H 0.58447 0.80351 0.6336 0.0
H2033 H 0.54968 0.84624 0.61131 0.0
C2034 C 0.56054 0.84121 0.58605 0.0
C2035 C 0.57412 0.83337 0.5767 0.0
C2036 C 0.58064 0.81512 0.64061 0.0
C2037 C 0.57256 0.82976 0.61275 0.0
C2038 C 0.58323 0.81598 0.65855 0.0
C2039 C 0.57905 0.83123 0.6677 0.0
C2040 C 0.57349 0.82946 0.63189 0.0
C2041 C 0.57145 0.84509 0.65857 0.0
C2042 C 0.55983 0.8396 0.60413 0.0
C2043 C 0.58625 0.82318 0.58575 0.0
N2044 N 0.56891 0.84389 0.6411 0.0
N2045 N 0.58519 0.82167 0.60333 0.0
H2046 H 0.41468 0.37941 0.14508 0.0
H2047 H 0.32681 0.41962 0.18 0.0
H2048 H 0.4155 0.42882 0.17188 0.0
H2049 H 0.33066 0.39402 0.13012 0.0
H2050 H 0.35881 0.41971 0.18194 0.0
H2051 H 0.38289 0.38033 0.14499 0.0
C2052 C 0.40817 0.39031 0.15121 0.0
C2053 C 0.4177 0.4041 0.15845 0.0
C2054 C 0.35255 0.41422 0.17056 0.0
C2055 C 0.38144 0.40518 0.15836 0.0
C2056 C 0.33439 0.41417 0.16942 0.0
C2057 C 0.32614 0.40687 0.15484 0.0
C2058 C 0.36235 0.40645 0.15727 0.0
C2059 C 0.3365 0.39992 0.14151 0.0
C2060 C 0.39007 0.39089 0.151 0.0
C2061 C 0.40858 0.41798 0.16609 0.0
N2062 N 0.35407 0.39967 0.14316 0.0
N2063 N 0.39087 0.41817 0.1659 0.0
H2064 H 0.36804 0.66657 0.89199 0.0
H2065 H 0.32456 0.5813 0.93032 0.0
H2066 H 0.31932 0.66909 0.91991 0.0
H2067 H 0.35363 0.58149 0.88221 0.0
H2068 H 0.32514 0.61327 0.93031 0.0
H2069 H 0.36629 0.63479 0.89254 0.0
C2070 C 0.3571 0.66043 0.89845 0.0
C2071 C 0.34379 0.67043 0.90592 0.0
C2072 C 0.33124 0.60625 0.91971 0.0
C2073 C 0.34173 0.6342 0.90653 0.0
C2074 C 0.33091 0.58808 0.91969 0.0
C2075 C 0.33902 0.57879 0.90622 0.0
C2076 C 0.34011 0.61508 0.90641 0.0
C2077 C 0.3471 0.58816 0.89278 0.0
C2078 C 0.35603 0.64233 0.8986 0.0
C2079 C 0.32982 0.66181 0.91396 0.0
N2080 N 0.34763 0.60581 0.89332 0.0
N2081 N 0.32917 0.64412 0.91413 0.0
H2082 H 0.16914 0.57433 0.63446 0.0
H2083 H 0.08065 0.608 0.67156 0.0
H2084 H 0.16783 0.60234 0.68314 0.0
H2085 H 0.08394 0.55697 0.64827 0.0
H2086 H 0.11257 0.60876 0.67346 0.0
H2087 H 0.13751 0.5701 0.6365 0.0
C2088 C 0.1622 0.57946 0.64561 0.0
C2089 C 0.17103 0.58866 0.65866 0.0
C2090 C 0.10622 0.59734 0.66814 0.0
C2091 C 0.13509 0.58425 0.66084 0.0
C2092 C 0.08809 0.59692 0.667 0.0
C2093 C 0.07973 0.5824 0.65977 0.0
C2094 C 0.11595 0.58337 0.66151 0.0
C2095 C 0.08992 0.56837 0.65403 0.0
C2096 C 0.14424 0.577 0.64679 0.0
C2097 C 0.16148 0.59507 0.67286 0.0
N2098 N 0.10755 0.56931 0.65475 0.0
N2099 N 0.14394 0.59299 0.67345 0.0
H2100 H 0.17373 0.41741 0.38829 0.0
H2101 H 0.13512 0.32958 0.4218 0.0
H2102 H 0.14717 0.41579 0.43777 0.0
H2103 H 0.18654 0.33091 0.39914 0.0
H2104 H 0.13616 0.36144 0.42485 0.0
H2105 H 0.17578 0.3855 0.38882 0.0
C2106 C 0.16848 0.41033 0.39931 0.0
C2107 C 0.16034 0.41914 0.41304 0.0
C2108 C 0.14725 0.35465 0.41939 0.0
C2109 C 0.1622 0.38295 0.41348 0.0
C2110 C 0.14664 0.33657 0.41759 0.0
C2111 C 0.16077 0.32769 0.41025 0.0
C2112 C 0.16185 0.36381 0.41331 0.0
C2113 C 0.17541 0.33729 0.40497 0.0
C2114 C 0.16968 0.39222 0.39962 0.0
C2115 C 0.15368 0.40943 0.42702 0.0
N2116 N 0.17547 0.35491 0.40635 0.0
N2117 N 0.15449 0.39177 0.42676 0.0
H2118 H 0.41583 0.61809 0.34984 0.0
H2119 H 0.32914 0.57719 0.3113 0.0
H2120 H 0.41703 0.57049 0.31997 0.0
H2121 H 0.33077 0.60428 0.36051 0.0
H2122 H 0.36112 0.5779 0.31034 0.0
H2123 H 0.384 0.61718 0.3493 0.0
C2124 C 0.4094 0.60759 0.34295 0.0
C2125 C 0.41904 0.59431 0.33498 0.0
C2126 C 0.3544 0.58357 0.32136 0.0
C2127 C 0.38276 0.59321 0.33435 0.0
C2128 C 0.33623 0.58316 0.32193 0.0
C2129 C 0.32736 0.59061 0.33605 0.0
C2130 C 0.36362 0.59187 0.33477 0.0
C2131 C 0.33712 0.59824 0.34947 0.0
C2132 C 0.39127 0.607 0.34279 0.0
C2133 C 0.41004 0.58093 0.32635 0.0
N2134 N 0.35474 0.59884 0.34841 0.0
N2135 N 0.39235 0.58073 0.32622 0.0
H2136 H 0.16692 0.57886 0.06049 0.0
H2137 H 0.12622 0.66546 0.09846 0.0
H2138 H 0.14104 0.58111 0.11035 0.0
H2139 H 0.17454 0.66729 0.06979 0.0
H2140 H 0.12737 0.63369 0.09778 0.0
H2141 H 0.16659 0.61088 0.05934 0.0
C2142 C 0.16133 0.58608 0.07123 0.0
C2143 C 0.15405 0.57738 0.08557 0.0
C2144 C 0.13764 0.64108 0.09154 0.0
C2145 C 0.15319 0.61363 0.08405 0.0
C2146 C 0.13692 0.65918 0.09177 0.0
C2147 C 0.15035 0.66899 0.08422 0.0
C2148 C 0.15171 0.63274 0.08345 0.0
C2149 C 0.16398 0.66016 0.07583 0.0
C2150 C 0.16113 0.60427 0.07054 0.0
C2151 C 0.14692 0.5873 0.09912 0.0
N2152 N 0.16432 0.64246 0.07563 0.0
N2153 N 0.14647 0.60491 0.09793 0.0
H2154 H 0.16602 0.42133 0.8164 0.0
H2155 H 0.0791 0.38143 0.85459 0.0
H2156 H 0.16466 0.39271 0.86476 0.0
H2157 H 0.07847 0.42995 0.82621 0.0
H2158 H 0.11091 0.3822 0.85452 0.0
H2159 H 0.13407 0.42214 0.81644 0.0
C2160 C 0.159 0.41537 0.82709 0.0
C2161 C 0.16795 0.40696 0.84062 0.0
C2162 C 0.10378 0.39264 0.84828 0.0
C2163 C 0.13164 0.40748 0.84047 0.0
C2164 C 0.08566 0.39213 0.84815 0.0
C2165 C 0.07617 0.40565 0.84038 0.0
C2166 C 0.11246 0.40659 0.84029 0.0
C2167 C 0.08533 0.4193 0.83238 0.0
C2168 C 0.14083 0.41584 0.82709 0.0
C2169 C 0.15826 0.39942 0.85414 0.0
N2170 N 0.10304 0.41939 0.83245 0.0
N2171 N 0.1406 0.39966 0.85361 0.0
H2172 H 0.34673 0.41434 0.56008 0.0
H2173 H 0.30704 0.32875 0.60168 0.0
H2174 H 0.323 0.41518 0.61102 0.0
H2175 H 0.35651 0.32819 0.57504 0.0
H2176 H 0.3066 0.36062 0.59945 0.0
H2177 H 0.34405 0.38256 0.55973 0.0
C2178 C 0.34069 0.40786 0.57107 0.0
C2179 C 0.33511 0.41734 0.58565 0.0
C2180 C 0.31744 0.35344 0.59398 0.0
C2181 C 0.33188 0.38121 0.58516 0.0
C2182 C 0.31767 0.33533 0.59512 0.0
C2183 C 0.33187 0.32591 0.58855 0.0
C2184 C 0.33127 0.36207 0.5858 0.0
C2185 C 0.34538 0.33503 0.58034 0.0
C2186 C 0.3393 0.38978 0.57087 0.0
C2187 C 0.32753 0.4083 0.59959 0.0
N2188 N 0.34472 0.35266 0.5791 0.0
N2189 N 0.32606 0.39067 0.59898 0.0
H2190 H 0.38042 0.14722 0.41332 0.0
H2191 H 0.42296 0.18442 0.32807 0.0
H2192 H 0.43111 0.17135 0.41684 0.0
H2193 H 0.39685 0.13462 0.32955 0.0
H2194 H 0.42325 0.1847 0.36014 0.0
H2195 H 0.38249 0.14823 0.38166 0.0
C2196 C 0.39188 0.15299 0.40744 0.0
C2197 C 0.40565 0.15918 0.4177 0.0
C2198 C 0.41766 0.17369 0.35332 0.0
C2199 C 0.40802 0.16035 0.38153 0.0
C2200 C 0.41748 0.1735 0.33512 0.0
C2201 C 0.40987 0.15947 0.32619 0.0
C2202 C 0.40973 0.16001 0.36246 0.0
C2203 C 0.40293 0.14565 0.3359 0.0
C2204 C 0.3931 0.1534 0.3894 0.0
C2205 C 0.42026 0.16638 0.40935 0.0
N2206 N 0.40278 0.1464 0.35352 0.0
N2207 N 0.42106 0.16685 0.39165 0.0
H2208 H 0.00307 0.08612 0.29257 0.0
H2209 H 0.95014 0.15795 0.23921 0.0
H2210 H 0.00537 0.1413 0.30303 0.0
H2211 H 0.94123 0.1026 0.23494 0.0
H2212 H 0.97528 0.15211 0.25783 0.0
H2213 H 0.98534 0.09211 0.26682 0.0
C2214 C 9e-05 0.09951 0.28931 0.0
C2215 C 0.00547 0.11321 0.30013 0.0
C2216 C 0.96795 0.14124 0.25262 0.0
C2217 C 0.98514 0.12014 0.27075 0.0
C2218 C 0.95364 0.14456 0.24193 0.0
C2219 C 0.94339 0.13075 0.23575 0.0
C2220 C 0.97205 0.124 0.25712 0.0
C2221 C 0.9486 0.11366 0.23963 0.0
C2222 C 0.98992 0.10291 0.27464 0.0
C2223 C 0.00129 0.13031 0.29521 0.0
N2224 N 0.96245 0.11077 0.25023 0.0
N2225 N 0.99122 0.13328 0.28098 0.0
H2226 H 0.09215 0.75484 0.55761 0.0
H2227 H 0.1306 0.69539 0.48248 0.0
H2228 H 0.14573 0.75638 0.54066 0.0
H2229 H 0.0762 0.696 0.49655 0.0
H2230 H 0.13531 0.72107 0.50049 0.0
H2231 H 0.08501 0.73685 0.5324 0.0
C2232 C 0.10237 0.75163 0.54845 0.0
C2233 C 0.11964 0.75689 0.55142 0.0
C2234 C 0.12228 0.71577 0.49948 0.0
C2235 C 0.11156 0.73615 0.52261 0.0
C2236 C 0.11958 0.70108 0.48919 0.0
C2237 C 0.10303 0.69339 0.48824 0.0
C2238 C 0.10838 0.7227 0.50912 0.0
C2239 C 0.0892 0.70145 0.49702 0.0
C2240 C 0.09828 0.74134 0.53404 0.0
C2241 C 0.13229 0.75247 0.53901 0.0
N2242 N 0.09224 0.71551 0.50734 0.0
N2243 N 0.12804 0.74215 0.5253 0.0
H2244 H 0.55152 0.89134 0.73497 0.0
H2245 H 0.48631 0.85451 0.80665 0.0
H2246 H 0.54391 0.83657 0.74513 0.0
H2247 H 0.49352 0.90927 0.79611 0.0
H2248 H 0.50411 0.8476 0.7813 0.0
H2249 H 0.52714 0.89797 0.75419 0.0
C2250 C 0.54457 0.88068 0.74106 0.0
C2251 C 0.54993 0.86337 0.73863 0.0
C2252 C 0.50165 0.86113 0.7844 0.0
C2253 C 0.52208 0.87091 0.76081 0.0
C2254 C 0.49148 0.8651 0.79889 0.0
C2255 C 0.48862 0.88252 0.80366 0.0
C2256 C 0.50914 0.87466 0.77464 0.0
C2257 C 0.49551 0.89567 0.79301 0.0
C2258 C 0.53065 0.88449 0.75205 0.0
C2259 C 0.54032 0.8501 0.74672 0.0
N2260 N 0.50563 0.89147 0.77912 0.0
N2261 N 0.527 0.85416 0.75764 0.0
H2262 H 0.35032 0.3053 0.98781 0.0
H2263 H 0.39065 0.23597 0.05292 0.0
H2264 H 0.40552 0.29646 0.99365 0.0
H2265 H 0.33544 0.2429 0.04505 0.0
H2266 H 0.39629 0.2546 0.02783 0.0
H2267 H 0.3446 0.27932 0.00514 0.0
C2268 C 0.36125 0.29776 0.99254 0.0
C2269 C 0.37844 0.30323 0.98951 0.0
C2270 C 0.38293 0.25186 0.03141 0.0
C2271 C 0.37195 0.27352 0.00953 0.0
C2272 C 0.37969 0.2412 0.04575 0.0
C2273 C 0.36254 0.23811 0.05127 0.0
C2274 C 0.36892 0.25964 0.02262 0.0
C2275 C 0.34887 0.24506 0.04136 0.0
C2276 C 0.35797 0.2829 0.00244 0.0
C2277 C 0.39207 0.29282 0.9958 0.0
N2278 N 0.35236 0.25573 0.02768 0.0
N2279 N 0.38853 0.27861 0.00574 0.0
H2280 H 0.00125 0.91321 0.19858 0.0
H2281 H 0.9523 0.83921 0.25294 0.0
H2282 H 0.00759 0.85806 0.1898 0.0
H2283 H 0.94115 0.89412 0.25741 0.0
H2284 H 0.97702 0.84617 0.23414 0.0
H2285 H 0.98363 0.90667 0.22431 0.0
C2286 C -0.00084 0.89974 0.2022 0.0
C2287 C 0.00567 0.88616 0.19187 0.0
C2288 C 0.96929 0.85671 0.23943 0.0
C2289 C 0.98549 0.87859 0.22122 0.0
C2290 C 0.95521 0.85274 0.25022 0.0
C2291 C 0.94447 0.86608 0.25653 0.0
C2292 C 0.97263 0.87413 0.23491 0.0
C2293 C 0.94893 0.88339 0.25263 0.0
C2294 C 0.98906 0.89601 0.21687 0.0
C2295 C 0.00262 0.86895 0.19724 0.0
N2296 N 0.96254 0.8869 0.24191 0.0
N2297 N 0.9926 0.86565 0.21142 0.0
H2298 H 0.41191 0.69611 0.49944 0.0
H2299 H 0.33847 0.74928 0.44839 0.0
H2300 H 0.35674 0.68662 0.50471 0.0
H2301 H 0.39344 0.75286 0.43713 0.0
H2302 H 0.34514 0.73061 0.47328 0.0
H2303 H 0.40547 0.72119 0.48092 0.0
C2304 C 0.39844 0.69945 0.49693 0.0
C2305 C 0.38484 0.6891 0.50343 0.0
C2306 C 0.35575 0.73565 0.46547 0.0
C2307 C 0.3774 0.7177 0.48219 0.0
C2308 C 0.35196 0.74634 0.45128 0.0
C2309 C 0.3654 0.75244 0.44051 0.0
C2310 C 0.37311 0.73103 0.46892 0.0
C2311 C 0.38264 0.74827 0.44494 0.0
C2312 C 0.39478 0.71373 0.48631 0.0
C2313 C 0.36764 0.69409 0.4998 0.0
N2314 N 0.38599 0.7377 0.45871 0.0
N2315 N 0.36441 0.70793 0.48928 0.0
H2316 H 0.49345 0.08634 0.69709 0.0
H2317 H 0.54715 0.16085 0.74572 0.0
H2318 H 0.49077 0.14088 0.68366 0.0
H2319 H 0.5507 0.10613 0.75813 0.0
H2320 H 0.52269 0.15443 0.72634 0.0
H2321 H 0.51067 0.09393 0.72275 0.0
C2322 C 0.49629 0.09992 0.69964 0.0
C2323 C 0.49089 0.11296 0.68806 0.0
C2324 C 0.52868 0.14386 0.7335 0.0
C2325 C 0.51068 0.12174 0.71732 0.0
C2326 C 0.5426 0.14754 0.74461 0.0
C2327 C 0.55116 0.13398 0.75333 0.0
C2328 C 0.52334 0.1265 0.73109 0.0
C2329 C 0.54467 0.11697 0.75145 0.0
C2330 C 0.50614 0.10426 0.71429 0.0
C2331 C 0.49485 0.13036 0.6921 0.0
N2332 N 0.5313 0.1137 0.74038 0.0
N2333 N 0.50467 0.13422 0.70628 0.0
H2334 H 0.15622 0.24274 0.94913 0.0
H2335 H 0.08351 0.29606 0.00098 0.0
H2336 H 0.1012 0.24004 0.93792 0.0
H2337 H 0.1388 0.3048 0.00623 0.0
H2338 H 0.08961 0.27099 0.98233 0.0
H2339 H 0.1498 0.26088 0.97447 0.0
C2340 C 0.14277 0.24573 0.95214 0.0
C2341 C 0.12924 0.24009 0.94123 0.0
C2342 C 0.1004 0.27827 0.98775 0.0
C2343 C 0.12182 0.26091 0.97014 0.0
C2344 C 0.09693 0.29255 -0.00155 0.0
C2345 C 0.11067 0.3027 0.00496 0.0
C2346 C 0.11772 0.27412 0.98357 0.0
C2347 C 0.1278 0.29749 0.0013 0.0
C2348 C 0.13912 0.25614 0.96658 0.0
C2349 C 0.11206 0.2443 0.94582 0.0
N2350 N 0.13084 0.28368 0.99071 0.0
N2351 N 0.10885 0.2546 0.95982 0.0
H2352 H 0.30553 0.00357 0.1501 0.0
H2353 H 0.23307 0.94164 0.11036 0.0
H2354 H 0.29182 0.0023 0.0956 0.0
H2355 H 0.24437 0.94491 0.16531 0.0
H2356 H 0.25101 0.96737 0.10543 0.0
H2357 H 0.27996 0.98583 0.15662 0.0
C2358 C 0.297 -0.00021 0.13952 0.0
C2359 C 0.301 0.00417 0.12223 0.0
C2360 C 0.24939 0.96264 0.11861 0.0
C2361 C 0.27179 0.98372 0.1296 0.0
C2362 C 0.23914 0.94793 0.12144 0.0
C2363 C 0.23747 0.94095 0.13824 0.0
C2364 C 0.25823 0.97031 0.13265 0.0
C2365 C 0.24543 0.94976 0.15212 0.0
C2366 C 0.28239 0.98965 0.14326 0.0
C2367 C 0.28938 -0.00094 0.1091 0.0
N2368 N 0.25572 0.96383 0.14898 0.0
N2369 N 0.27545 0.98888 0.11302 0.0
H2370 H 0.3069 0.98791 0.3513 0.0
H2371 H 0.23901 0.0548 0.39168 0.0
H2372 H 0.29809 0.99409 0.40646 0.0
H2373 H 0.24697 0.04799 0.33647 0.0
H2374 H 0.25725 0.02943 0.39717 0.0
H2375 H 0.28185 0.00653 0.34551 0.0
C2376 C 0.29956 0.993 0.36221 0.0
C2377 C 0.30477 0.98964 0.37941 0.0
C2378 C 0.25485 0.03333 0.38383 0.0
C2379 C 0.27613 0.01112 0.37284 0.0
C2380 C 0.24442 0.04784 0.38068 0.0
C2381 C 0.24167 0.05369 0.36359 0.0
C2382 C 0.26274 0.02468 0.36981 0.0
C2383 C 0.24886 0.04403 0.34986 0.0
C2384 C 0.28525 0.00364 0.35888 0.0
C2385 C 0.29465 0.99645 0.393 0.0
N2386 N 0.25927 0.03014 0.35328 0.0
N2387 N 0.28096 0.00706 0.38943 0.0
H2388 H 0.19917 0.99187 0.59461 0.0
H2389 H 0.25009 0.0467 0.66685 0.0
H2390 H 0.18509 0.99276 0.64902 0.0
H2391 H 0.25943 0.05083 0.61158 0.0
H2392 H 0.23038 0.02227 0.66132 0.0
H2393 H 0.22525 0.00877 0.60144 0.0
C2394 C 0.20167 0.99541 0.60802 0.0
C2395 C 0.18978 0.99112 0.62122 0.0
C2396 C 0.23694 0.02837 0.65043 0.0
C2397 C 0.21956 0.01056 0.62911 0.0
C2398 C 0.24826 0.04227 0.65359 0.0
C2399 C 0.2562 0.05099 0.63963 0.0
C2400 C 0.2336 0.02317 0.63321 0.0
C2401 C 0.25338 0.04466 0.62272 0.0
C2402 C 0.21655 0.0051 0.61191 0.0
C2403 C 0.19378 0.99597 0.63839 0.0
N2404 N 0.24217 0.03127 0.61997 0.0
N2405 N 0.20823 0.00559 0.64181 0.0
H2406 H 0.24825 0.94551 0.82889 0.0
H2407 H 0.19845 0.00202 0.90038 0.0
H2408 H 0.25991 0.94422 0.88387 0.0
H2409 H 0.18633 0.0033 0.8455 0.0
H2410 H 0.22402 0.98428 0.89394 0.0
H2411 H 0.22866 0.97008 0.83403 0.0
C2412 C 0.24691 0.95056 0.84199 0.0
C2413 C 0.25552 0.94262 0.85601 0.0
C2414 C 0.21588 0.9886 0.88328 0.0
C2415 C 0.23304 0.97061 0.862 0.0
C2416 C 0.20128 -0.00124 0.88695 0.0
C2417 C 0.19008 0.00395 0.87349 0.0
C2418 C 0.21926 0.98351 0.86603 0.0
C2419 C 0.19448 -0.00058 0.85632 0.0
C2420 C 0.23569 0.96456 0.84493 0.0
C2421 C 0.25335 0.94976 0.87269 0.0
N2422 N 0.2086 0.9893 0.85311 0.0
N2423 N 0.24218 0.9632 0.87525 0.0
H2424 H 0.64789 0.25253 0.04121 0.0
H2425 H 0.57584 0.1942 0.99415 0.0
H2426 H 0.59384 0.25101 0.0566 0.0
H2427 H 0.63058 0.19339 0.98139 0.0
H2428 H 0.58113 0.21904 0.0134 0.0
H2429 H 0.64072 0.23498 0.01569 0.0
C2430 C 0.63447 0.24871 0.03911 0.0
C2431 C 0.6215 0.25302 0.05122 0.0
C2432 C 0.59193 0.21357 0.00619 0.0
C2433 C 0.61321 0.23281 0.02209 0.0
C2434 C 0.58891 0.19943 0.99515 0.0
C2435 C 0.60283 0.19154 0.98636 0.0
C2436 C 0.609 0.21983 0.00843 0.0
C2437 C 0.61949 0.19889 0.98812 0.0
C2438 C 0.63038 0.23866 0.02454 0.0
C2439 C 0.60431 0.24782 0.04773 0.0
N2440 N 0.62213 0.21248 -0.00091 0.0
N2441 N 0.6007 0.23781 0.03361 0.0
H2442 H -0.00251 0.41527 0.29969 0.0
H2443 H 0.04606 0.34197 0.24423 0.0
H2444 H 0.98795 0.3601 0.30485 0.0
H2445 H 0.0601 0.39642 0.24338 0.0
H2446 H 0.02073 0.34913 0.26206 0.0
H2447 H 0.01632 0.4093 0.27468 0.0
C2448 C -0.0009 0.40194 0.29538 0.0
C2449 C 0.99137 0.38814 0.30453 0.0
C2450 C 0.02925 0.35954 0.25781 0.0
C2451 C 0.01294 0.38121 0.27607 0.0
C2452 C 0.04371 0.35546 0.2476 0.0
C2453 C 0.05538 0.36857 0.24254 0.0
C2454 C 0.02646 0.37686 0.26302 0.0
C2455 C 0.05158 0.38585 0.24718 0.0
C2456 C 0.0099 0.39853 0.28115 0.0
C2457 C 0.99387 0.37113 0.29835 0.0
N2458 N 0.03756 0.38946 0.25732 0.0
N2459 N 0.00459 0.36813 0.28463 0.0
H2460 H 0.83761 0.7417 0.54722 0.0
H2461 H 0.90887 0.79875 0.49718 0.0
H2462 H 0.89261 0.74049 0.55876 0.0
H2463 H 0.85337 0.80622 0.49232 0.0
H2464 H 0.90344 0.77305 0.51518 0.0
H2465 H 0.84359 0.76085 0.52253 0.0
C2466 C 0.85097 0.74523 0.54441 0.0
C2467 C 0.8646 0.73969 0.55524 0.0
C2468 C 0.89246 0.7802 0.51 0.0
C2469 C 0.87152 0.76169 0.52707 0.0
C2470 C 0.89554 0.79485 0.49967 0.0
C2471 C 0.88155 0.8048 0.49345 0.0
C2472 C 0.87526 0.77546 0.51407 0.0
C2473 C 0.86456 0.79907 0.49704 0.0
C2474 C 0.85437 0.75622 0.53034 0.0
C2475 C 0.88167 0.74463 0.55091 0.0
N2476 N 0.86189 0.78488 0.50725 0.0
N2477 N 0.88463 0.7555 0.53727 0.0
H2478 H 0.98572 0.64071 0.18961 0.0
H2479 H 0.05372 0.60336 0.25822 0.0
H2480 H 0.99301 0.58591 0.1998 0.0
H2481 H 0.04636 0.65822 0.24844 0.0
H2482 H 0.02843 0.59699 0.24016 0.0
H2483 H 0.00463 0.64753 0.21418 0.0
C2484 C 0.99113 0.63009 0.19714 0.0
C2485 C 0.98797 0.61269 0.19248 0.0
C2486 C 0.03219 0.61044 0.24211 0.0
C2487 C 0.00976 0.62044 0.22059 0.0
C2488 C 0.04665 0.6141 0.25243 0.0
C2489 C 0.05232 0.63135 0.25464 0.0
C2490 C 0.02338 0.6241 0.23378 0.0
C2491 C 0.04253 0.64473 0.24699 0.0
C2492 C 0.00193 0.63401 0.21119 0.0
C2493 C 0.99519 0.5995 0.20284 0.0
N2494 N 0.02866 0.6408 0.23669 0.0
N2495 N 0.00593 0.60365 0.21627 0.0
H2496 H 0.45023 0.33908 0.75395 0.0
H2497 H 0.5011 0.41039 0.69797 0.0
H2498 H 0.43767 0.39387 0.75381 0.0
H2499 H 0.50759 0.35487 0.69203 0.0
H2500 H 0.4827 0.40511 0.72342 0.0
H2501 H 0.47598 0.34533 0.73635 0.0
C2502 C 0.45301 0.35246 0.75045 0.0
C2503 C 0.44161 0.36593 0.75509 0.0
C2504 C 0.48836 0.3941 0.71669 0.0
C2505 C 0.47099 0.37315 0.73488 0.0
C2506 C 0.49892 0.39711 0.7022 0.0
C2507 C 0.50563 0.38304 0.69269 0.0
C2508 C 0.48454 0.37692 0.72169 0.0
C2509 C 0.50245 0.36611 0.69881 0.0
C2510 C 0.4677 0.35601 0.74037 0.0
C2511 C 0.44597 0.38304 0.7503 0.0
N2512 N 0.49197 0.36352 0.7128 0.0
N2513 N 0.4602 0.38613 0.74028 0.0
H2514 H 0.99476 0.90035 0.70292 0.0
H2515 H 0.05058 0.82584 0.74953 0.0
H2516 H 0.99349 0.84618 0.68793 0.0
H2517 H 0.05723 0.88085 0.759 0.0
H2518 H 0.02559 0.83245 0.73091 0.0
H2519 H 0.01351 0.89274 0.72748 0.0
C2520 C -0.00179 0.88683 0.70493 0.0
C2521 C 0.99274 0.87392 0.69321 0.0
C2522 C 0.03241 0.84305 0.73723 0.0
C2523 C 0.01427 0.86514 0.72122 0.0
C2524 C 0.04664 0.83928 0.7479 0.0
C2525 C 0.05615 0.85283 0.75564 0.0
C2526 C 0.02765 0.86048 0.73432 0.0
C2527 C 0.05042 0.87 0.75311 0.0
C2528 C 0.00896 0.8825 0.71892 0.0
C2529 C -0.00243 0.8566 0.69651 0.0
N2530 N 0.03665 0.87334 0.74255 0.0
N2531 N 0.0082 0.85274 0.71011 0.0
H2532 H 0.88995 0.23398 0.43783 0.0
H2533 H 0.84948 0.30238 0.5038 0.0
H2534 H 0.83474 0.24247 0.44396 0.0
H2535 H 0.90458 0.2924 0.49901 0.0
H2536 H 0.84359 0.27709 0.48554 0.0
H2537 H 0.89526 0.25162 0.46367 0.0
C2538 C 0.87891 0.23935 0.44476 0.0
C2539 C 0.86189 0.237 0.43856 0.0
C2540 C 0.85696 0.28027 0.48866 0.0
C2541 C 0.8679 0.2574 0.46806 0.0
C2542 C 0.86035 0.29473 0.49909 0.0
C2543 C 0.87757 0.29969 0.50269 0.0
C2544 C 0.87091 0.27078 0.48164 0.0
C2545 C 0.89111 0.28917 0.49642 0.0
C2546 C 0.88196 0.24943 0.45953 0.0
C2547 C 0.84809 0.24408 0.44819 0.0
N2548 N 0.88749 0.27535 0.48598 0.0
N2549 N 0.85141 0.2542 0.46231 0.0
H2550 H 0.44897 0.1604 0.24833 0.0
H2551 H 0.50094 0.08644 0.19694 0.0
H2552 H 0.43991 0.10526 0.25466 0.0
H2553 H 0.50364 0.14123 0.18455 0.0
H2554 H 0.48328 0.09344 0.22246 0.0
H2555 H 0.47371 0.1538 0.22941 0.0
C2556 C 0.45235 0.14691 0.24598 0.0
C2557 C 0.4422 0.13336 0.25285 0.0
C2558 C 0.48792 0.10394 0.21426 0.0
C2559 C 0.47038 0.12574 0.23117 0.0
C2560 C 0.49803 0.09996 0.19971 0.0
C2561 C 0.50354 0.11325 0.18844 0.0
C2562 C 0.4833 0.12132 0.21756 0.0
C2563 C 0.49946 0.13054 0.19275 0.0
C2564 C 0.46643 0.14316 0.23512 0.0
C2565 C 0.44722 0.11612 0.24943 0.0
N2566 N 0.48944 0.13406 0.20687 0.0
N2567 N 0.46085 0.11281 0.23868 0.0
H2568 H 0.58783 0.69447 0.99639 0.0
H2569 H 0.65974 0.74996 0.94592 0.0
H2570 H 0.64323 0.68769 0.00308 0.0
H2571 H 0.60436 0.75703 0.93939 0.0
H2572 H 0.65394 0.73029 0.97027 0.0
H2573 H 0.59356 0.72043 0.97884 0.0
C2574 C 0.60118 0.69856 0.99436 0.0
C2575 C 0.61507 0.68874 0.00099 0.0
C2576 C 0.64306 0.73633 0.96365 0.0
C2577 C 0.62174 0.71834 0.98085 0.0
C2578 C 0.64638 0.7476 0.94977 0.0
C2579 C 0.63252 0.75494 0.94043 0.0
C2580 C 0.62577 0.73232 0.96815 0.0
C2581 C 0.61546 0.75148 0.94606 0.0
C2582 C 0.60446 0.71337 0.98432 0.0
C2583 C 0.63211 0.69471 -0.00196 0.0
N2584 N 0.61256 0.74025 0.95941 0.0
N2585 N 0.63496 0.709 0.98803 0.0
H2586 H 0.05602 0.102 0.73538 0.0
H2587 H 0.98329 0.14074 0.79806 0.0
H2588 H 0.04548 0.15693 0.74087 0.0
H2589 H 0.99472 0.0859 0.79364 0.0
H2590 H 0.00228 0.14645 0.77329 0.0
H2591 H 0.03017 0.09556 0.75266 0.0
C2592 C 0.04814 0.11272 0.74003 0.0
C2593 C 0.05308 0.13006 0.7369 0.0
C2594 C 0.00047 0.13314 0.77756 0.0
C2595 C 0.0235 0.12274 0.75684 0.0
C2596 C 0.9896 0.12985 0.79172 0.0
C2597 C 0.98762 0.11283 0.79812 0.0
C2598 C 0.00957 0.11934 0.7698 0.0
C2599 C 0.99597 0.09923 0.78924 0.0
C2600 C 0.03336 0.10902 0.74991 0.0
C2601 C 0.04225 0.14339 0.74308 0.0
N2602 N 0.00678 0.10281 0.77568 0.0
N2603 N 0.02809 0.13945 0.75297 0.0
H2604 H 0.58942 0.29454 0.49161 0.0
H2605 H 0.66107 0.24271 0.54619 0.0
H2606 H 0.64422 0.30714 0.49157 0.0
H2607 H 0.60562 0.23535 0.55187 0.0
H2608 H 0.65563 0.26197 0.52145 0.0
H2609 H 0.59573 0.26861 0.50892 0.0
C2610 C 0.60281 0.29174 0.49503 0.0
C2611 C 0.61628 0.30318 0.49038 0.0
C2612 C 0.64467 0.25595 0.52797 0.0
C2613 C 0.62357 0.27359 0.51025 0.0
C2614 C 0.64777 0.2449 0.54206 0.0
C2615 C 0.63376 0.23764 0.55129 0.0
C2616 C 0.62745 0.25973 0.52309 0.0
C2617 C 0.6168 0.24087 0.5453 0.0
C2618 C 0.6064 0.27695 0.50494 0.0
C2619 C 0.6334 0.29881 0.49507 0.0
N2620 N 0.61411 0.25184 0.5317 0.0
N2621 N 0.63653 0.28446 0.50491 0.0
H2622 H 0.50933 0.85106 0.30513 0.0
H2623 H 0.44358 0.88857 0.2343 0.0
H2624 H 0.50147 0.90589 0.29548 0.0
H2625 H 0.44866 0.83389 0.2463 0.0
H2626 H 0.46858 0.89472 0.25283 0.0
H2627 H 0.49108 0.84431 0.28005 0.0
C2628 C 0.50394 0.86171 0.29761 0.0
C2629 C 0.50673 0.87909 0.30258 0.0
C2630 C 0.46438 0.88135 0.25126 0.0
C2631 C 0.48572 0.87139 0.27387 0.0
C2632 C 0.4501 0.87781 0.24066 0.0
C2633 C 0.44385 0.8607 0.23896 0.0
C2634 C 0.47244 0.86771 0.26035 0.0
C2635 C 0.45296 0.84728 0.24735 0.0
C2636 C 0.49351 0.85782 0.28329 0.0
C2637 C 0.49955 0.89231 0.29223 0.0
N2638 N 0.46666 0.8511 0.25788 0.0
N2639 N 0.4892 0.88818 0.27848 0.0
H2640 H 0.83795 0.74962 0.04902 0.0
H2641 H 0.90873 0.69656 0.99466 0.0
H2642 H 0.89349 0.75481 0.05603 0.0
H2643 H 0.85322 0.68901 0.98983 0.0
H2644 H 0.90332 0.72184 0.01318 0.0
H2645 H 0.84325 0.73144 0.02345 0.0
C2646 C 0.85125 0.74718 0.04503 0.0
C2647 C 0.86529 0.75351 0.05485 0.0
C2648 C 0.89232 0.71478 0.00789 0.0
C2649 C 0.87145 0.73261 0.0257 0.0
C2650 C 0.89541 0.70036 -0.00273 0.0
C2651 C 0.88142 0.69048 0.99091 0.0
C2652 C 0.87513 0.71931 0.01221 0.0
C2653 C 0.86442 0.69609 0.99464 0.0
C2654 C 0.85427 0.73675 0.03045 0.0
C2655 C 0.88226 0.75 0.049 0.0
N2656 N 0.86176 0.71 0.00522 0.0
N2657 N 0.88486 0.73962 0.03494 0.0
H2658 H 0.75103 0.04344 0.83459 0.0
H2659 H 0.69963 0.9916 0.90854 0.0
H2660 H 0.7577 0.05224 0.8897 0.0
H2661 H 0.68986 0.98595 0.85348 0.0
H2662 H 0.72511 0.00948 0.9018 0.0
H2663 H 0.73295 0.01808 0.84122 0.0
C2664 C 0.74895 0.03988 0.84808 0.0
C2665 C 0.75564 0.05016 0.86161 0.0
C2666 C 0.71751 0.00413 0.89119 0.0
C2667 C 0.73484 0.02126 0.86929 0.0
C2668 C 0.70299 0.99389 0.89503 0.0
C2669 C 0.69242 0.98752 0.88156 0.0
C2670 C 0.72147 0.00806 0.87375 0.0
C2671 C 0.69748 0.99081 0.86429 0.0
C2672 C 0.73857 0.02542 0.85186 0.0
C2673 C 0.75259 0.04485 0.87885 0.0
N2674 N 0.71151 0.00102 0.8609 0.0
N2675 N 0.74224 0.03091 0.88219 0.0
H2676 H 0.75229 0.94611 0.65954 0.0
H2677 H 0.70185 -0.00039 0.58632 0.0
H2678 H 0.75901 0.9382 0.6043 0.0
H2679 H 0.69126 0.0037 0.64137 0.0
H2680 H 0.72739 0.98186 0.59293 0.0
H2681 H 0.7347 0.97188 0.65332 0.0
C2682 C 0.75034 0.94996 0.64611 0.0
C2683 C 0.75685 0.9398 0.63241 0.0
C2684 C 0.71961 0.98684 0.60358 0.0
C2685 C 0.73663 0.96916 0.62521 0.0
C2686 C 0.70504 -0.00299 0.59981 0.0
C2687 C 0.69422 0.00287 0.6133 0.0
C2688 C 0.72335 0.98248 0.62095 0.0
C2689 C 0.69908 -0.00078 0.63054 0.0
C2690 C 0.74025 0.96465 0.64257 0.0
C2691 C 0.754 0.94549 0.61527 0.0
N2692 N 0.71315 0.98907 0.63386 0.0
N2693 N 0.74391 0.95965 0.61215 0.0
H2694 H 0.73593 0.93961 0.38437 0.0
H2695 H 0.80683 0.00354 0.34457 0.0
H2696 H 0.74546 0.94508 0.32925 0.0
H2697 H 0.79549 -0.00026 0.39949 0.0
H2698 H 0.78134 0.98563 0.33838 0.0
H2699 H 0.75436 0.96489 0.38977 0.0
C2700 C 0.74172 0.94628 0.37336 0.0
C2701 C 0.73938 0.94006 0.35634 0.0
C2702 C 0.78427 0.98889 0.35177 0.0
C2703 C 0.76068 0.96893 0.36247 0.0
C2704 C 0.79885 -0.00087 0.35533 0.0
C2705 C 0.80346 0.00291 0.37261 0.0
C2706 C 0.77432 0.98225 0.36559 0.0
C2707 C 0.79252 -0.00299 0.38599 0.0
C2708 C 0.75225 0.96073 0.37647 0.0
C2709 C 0.74703 0.94934 0.34259 0.0
N2710 N 0.77859 0.98676 0.38221 0.0
N2711 N 0.75756 0.96317 0.34598 0.0
H2712 H 0.74422 0.04702 0.15909 0.0
H2713 H 0.7944 0.99193 0.08664 0.0
H2714 H 0.73736 0.05399 0.10374 0.0
H2715 H 0.80654 0.99038 0.1415 0.0
H2716 H 0.769 0.00996 0.09315 0.0
H2717 H 0.7625 0.02164 0.15325 0.0
C2718 C 0.74631 0.04306 0.14573 0.0
C2719 C 0.73949 0.05281 0.13187 0.0
C2720 C 0.7771 0.00548 0.10378 0.0
C2721 C 0.76046 0.02387 0.12511 0.0
C2722 C 0.79158 0.99514 0.10008 0.0
C2723 C 0.80277 0.98989 0.11352 0.0
C2724 C 0.77381 0.01058 0.12104 0.0
C2725 C 0.79841 0.99436 0.1307 0.0
C2726 C 0.7568 0.0286 0.1424 0.0
C2727 C 0.74257 0.04701 0.11482 0.0
N2728 N 0.78439 0.00461 0.13394 0.0
N2729 N 0.75298 0.03304 0.11191 0.0
H2730 H 0.34557 0.74149 0.95037 0.0
H2731 H 0.41639 0.8 -0.00119 0.0
H2732 H 0.3999 0.74331 0.93601 0.0
H2733 H 0.36151 0.80008 0.01097 0.0
H2734 H 0.41167 0.77504 0.97958 0.0
H2735 H 0.35224 0.75866 0.97627 0.0
C2736 C 0.35894 0.74529 0.95278 0.0
C2737 C 0.37215 0.7412 0.94084 0.0
C2738 C 0.40071 0.78037 0.98666 0.0
C2739 C 0.37985 0.76099 0.9704 0.0
C2740 C 0.40341 0.79458 -0.00231 0.0
C2741 C 0.38928 0.80232 0.00627 0.0
C2742 C 0.38375 0.77391 0.98421 0.0
C2743 C 0.37275 0.79471 0.00439 0.0
C2744 C 0.36274 0.75512 0.96757 0.0
C2745 C 0.38926 0.74636 0.94473 0.0
N2746 N 0.37041 0.78108 0.99341 0.0
N2747 N 0.39258 0.75618 0.95906 0.0
H2748 H 0.95068 0.65342 0.75304 0.0
H2749 H 0.00039 0.5801 0.69844 0.0
H2750 H 0.93622 0.59908 0.75316 0.0
H2751 H 0.00958 0.6353 0.69299 0.0
H2752 H 0.98088 0.58614 0.72291 0.0
H2753 H 0.97614 0.64626 0.73539 0.0
C2754 C 0.95296 0.63995 0.74953 0.0
C2755 C 0.94116 0.62686 0.75439 0.0
C2756 C 0.98736 0.5969 0.7165 0.0
C2757 C 0.97025 0.61859 0.73413 0.0
C2758 C -0.00143 0.59346 0.70259 0.0
C2759 C 0.00643 0.60724 0.69351 0.0
C2760 C 0.98405 0.61423 0.72136 0.0
C2761 C 0.00361 0.62428 0.69947 0.0
C2762 C 0.96749 0.63587 0.73943 0.0
C2763 C 0.94485 0.60962 0.74955 0.0
N2764 N 0.99253 0.6273 0.71289 0.0
N2765 N 0.95898 0.60601 0.73954 0.0
H2766 H 0.14069 0.19 0.50771 0.0
H2767 H 0.10329 0.25891 0.44029 0.0
H2768 H 0.08582 0.19838 0.49897 0.0
H2769 H 0.15812 0.25131 0.45001 0.0
H2770 H 0.09657 0.24037 0.46518 0.0
H2771 H 0.14715 0.21573 0.49029 0.0
C2772 C 0.12997 0.19739 0.50231 0.0
C2773 C 0.11268 0.19187 0.50456 0.0
C2774 C 0.11008 0.24294 0.46204 0.0
C2775 C 0.12003 0.2213 0.48443 0.0
C2776 C 0.11394 0.25354 0.44782 0.0
C2777 C 0.1313 0.25644 0.44288 0.0
C2778 C 0.12368 0.23503 0.47133 0.0
C2779 C 0.14454 0.24931 0.45324 0.0
C2780 C 0.13368 0.21211 0.49236 0.0
C2781 C 0.09933 0.20208 0.49744 0.0
N2782 N 0.14045 0.23872 0.46682 0.0
N2783 N 0.1033 0.21617 0.48747 0.0
H2784 H 0.94947 0.33342 0.74368 0.0
H2785 H 0.00305 0.40585 0.7956 0.0
H2786 H 0.94188 0.38879 0.73757 0.0
H2787 H 0.00446 0.35094 0.80762 0.0
H2788 H 0.98557 0.39939 0.76983 0.0
H2789 H 0.97443 0.33931 0.76254 0.0
C2790 C 0.95321 0.34681 0.74607 0.0
C2791 C 0.9434 0.36064 0.73927 0.0
C2792 C 0.9899 0.38873 0.77799 0.0
C2793 C 0.97187 0.36745 0.76089 0.0
C2794 C -7e-05 0.39241 0.79269 0.0
C2795 C 0.00499 0.37894 0.80395 0.0
C2796 C 0.98489 0.37148 0.77454 0.0
C2797 C 0.00064 0.36176 0.79944 0.0
C2798 C 0.96743 0.35016 0.75688 0.0
C2799 C 0.94892 0.37772 0.74273 0.0
N2800 N 0.99068 0.35854 0.78519 0.0
N2801 N 0.96267 0.38065 0.75346 0.0
H2802 H 0.54589 0.66785 0.24108 0.0
H2803 H 0.49132 0.5947 0.29103 0.0
H2804 H 0.55023 0.61271 0.23112 0.0
H2805 H 0.49249 0.64885 0.30607 0.0
H2806 H 0.50798 0.60199 0.26492 0.0
H2807 H 0.52139 0.66197 0.2606 0.0
C2808 C 0.54148 0.65455 0.24272 0.0
C2809 C 0.55029 0.64072 0.23469 0.0
C2810 C 0.50441 0.61231 0.27384 0.0
C2811 C 0.52242 0.6339 0.25707 0.0
C2812 C 0.49487 0.60816 0.28873 0.0
C2813 C 0.49076 0.62114 0.3009 0.0
C2814 C 0.50988 0.62956 0.27109 0.0
C2815 C 0.49559 0.63838 0.29717 0.0
C2816 C 0.52755 0.65119 0.25393 0.0
C2817 C 0.54399 0.62375 0.23727 0.0
N2818 N 0.50507 0.64206 0.2827 0.0
N2819 N 0.53058 0.6208 0.24838 0.0
H2820 H 0.51142 0.63101 0.80264 0.0
H2821 H 0.43537 0.59688 0.74128 0.0
H2822 H 0.49816 0.57667 0.79701 0.0
H2823 H 0.45145 0.65069 0.74409 0.0
H2824 H 0.46049 0.58877 0.75892 0.0
H2825 H 0.49197 0.63797 0.77856 0.0
C2826 C 0.50456 0.6205 0.79619 0.0
C2827 C 0.50623 0.60325 0.80199 0.0
C2828 C 0.45865 0.60233 0.75552 0.0
C2829 C 0.48377 0.61117 0.77449 0.0
C2830 C 0.44429 0.60698 0.74545 0.0
C2831 C 0.44117 0.62453 0.74139 0.0
C2832 C 0.46992 0.61532 0.76171 0.0
C2833 C 0.45327 0.63702 0.74701 0.0
C2834 C 0.49345 0.62449 0.78243 0.0
C2835 C 0.49718 0.59016 0.79303 0.0
N2836 N 0.46699 0.6322 0.75707 0.0
N2837 N 0.48614 0.59442 0.77987 0.0
H2838 H 0.89803 0.20079 0.00085 0.0
H2839 H 0.82592 0.24952 0.94413 0.0
H2840 H 0.84391 0.1856 -0.0009 0.0
H2841 H 0.8811 0.25978 0.94093 0.0
H2842 H 0.83127 0.23053 0.96916 0.0
H2843 H 0.89096 0.22672 0.98387 0.0
C2844 C 0.88462 0.20302 -0.00288 0.0
C2845 C 0.8716 0.19084 0.00115 0.0
C2846 C 0.84217 0.23716 0.96313 0.0
C2847 C 0.86344 0.22045 0.98161 0.0
C2848 C 0.83911 0.24806 0.94889 0.0
C2849 C 0.85312 0.256 0.94025 0.0
C2850 C 0.85934 0.23424 0.96874 0.0
C2851 C 0.86994 0.25369 0.94702 0.0
C2852 C 0.88059 0.21782 0.98739 0.0
C2853 C 0.85442 0.19451 0.99608 0.0
N2854 N 0.8726 0.24286 0.96073 0.0
N2855 N 0.85087 0.20887 0.98639 0.0
H2856 H 0.64749 0.73934 0.44906 0.0
H2857 H 0.57655 0.79755 0.49777 0.0
H2858 H 0.59357 0.74258 0.4335 0.0
H2859 H 0.63121 0.79682 0.51088 0.0
H2860 H 0.58141 0.7733 0.47772 0.0
H2861 H 0.64063 0.75624 0.4751 0.0
C2862 C 0.63417 0.7434 0.45122 0.0
C2863 C 0.62115 0.73975 0.43893 0.0
C2864 C 0.59229 0.77829 0.48518 0.0
C2865 C 0.61322 0.75922 0.46868 0.0
C2866 C 0.58951 0.79209 0.49669 0.0
C2867 C 0.60354 0.7994 0.50583 0.0
C2868 C 0.60923 0.77178 0.48279 0.0
C2869 C 0.62004 0.79176 0.50392 0.0
C2870 C 0.63026 0.75308 0.46609 0.0
C2871 C 0.60408 0.74526 0.44251 0.0
N2872 N 0.62246 0.77852 0.49247 0.0
N2873 N 0.60065 0.75488 0.45694 0.0
H2874 H 0.7388 0.43739 0.60217 0.0
H2875 H 0.80696 0.50387 0.64269 0.0
H2876 H 0.74618 0.44477 0.65739 0.0
H2877 H 0.79843 0.49771 0.58748 0.0
H2878 H 0.78148 0.48577 0.64835 0.0
H2879 H 0.75716 0.46272 0.59663 0.0
C2880 C 0.7441 0.44448 0.61315 0.0
C2881 C 0.74118 0.43878 0.63027 0.0
C2882 C 0.78502 0.48856 0.63499 0.0
C2883 C 0.76235 0.46773 0.624 0.0
C2884 C 0.79958 0.4989 0.63174 0.0
C2885 C 0.805 0.50208 0.61457 0.0
C2886 C 0.77589 0.48118 0.62099 0.0
C2887 C 0.79482 0.49547 0.60092 0.0
C2888 C 0.75459 0.45896 0.60997 0.0
C2889 C 0.74821 0.44859 0.64398 0.0
N2890 N 0.7809 0.48511 0.60442 0.0
N2891 N 0.75868 0.46244 0.64054 0.0
H2892 H 0.79397 0.49541 0.90405 0.0
H2893 H 0.74393 0.54889 0.83035 0.0
H2894 H 0.80263 0.48868 0.84892 0.0
H2895 H 0.73535 0.55584 0.88547 0.0
H2896 H 0.76224 0.52368 0.83679 0.0
H2897 H 0.76921 0.51429 0.89744 0.0
C2898 C 0.7905 0.49766 0.89057 0.0
C2899 C 0.80055 0.49066 0.87703 0.0
C2900 C 0.75619 0.53061 0.84747 0.0
C2901 C 0.77236 0.51238 0.86936 0.0
C2902 C 0.74571 0.545 0.84379 0.0
C2903 C 0.7383 0.55465 0.85739 0.0
C2904 C 0.75932 0.52589 0.86488 0.0
C2905 C 0.74098 0.54893 0.87456 0.0
C2906 C 0.77639 0.5085 0.88679 0.0
C2907 C 0.79541 0.49399 0.85979 0.0
N2908 N 0.75142 0.53505 0.87782 0.0
N2909 N 0.78181 0.50476 0.85646 0.0
H2910 H 0.70138 0.48948 0.09483 0.0
H2911 H 0.7482 0.54782 0.16708 0.0
H2912 H 0.68678 0.48983 0.14911 0.0
H2913 H 0.75823 0.55173 0.11191 0.0
H2914 H 0.72981 0.52238 0.16157 0.0
H2915 H 0.72636 0.50791 0.10178 0.0
C2916 C 0.70357 0.4932 0.10825 0.0
C2917 C 0.69181 0.48832 0.12136 0.0
C2918 C 0.73622 0.52869 0.1507 0.0
C2919 C 0.7203 0.50955 0.12938 0.0
C2920 C 0.74676 0.54318 0.15384 0.0
C2921 C 0.75455 0.55207 0.13991 0.0
C2922 C 0.73347 0.52306 0.13351 0.0
C2923 C 0.75228 0.54543 0.12303 0.0
C2924 C 0.71781 0.50377 0.11221 0.0
C2925 C 0.69538 0.49345 0.13855 0.0
N2926 N 0.74181 0.53144 0.12029 0.0
N2927 N 0.70919 0.50396 0.14203 0.0
H2928 H 0.75116 0.44851 0.3308 0.0
H2929 H 0.69954 0.5026 0.40305 0.0
H2930 H 0.75857 0.44232 0.38617 0.0
H2931 H 0.68728 0.50358 0.3482 0.0
H2932 H 0.72537 0.48519 0.39658 0.0
H2933 H 0.73205 0.47331 0.33651 0.0
C2934 C 0.74901 0.45254 0.34414 0.0
C2935 C 0.75625 0.44315 0.35804 0.0
C2936 C 0.71714 0.4894 0.38594 0.0
C2937 C 0.73431 0.47142 0.36467 0.0
C2938 C 0.70241 0.49938 0.38962 0.0
C2939 C 0.69108 0.50432 0.37618 0.0
C2940 C 0.72055 0.48432 0.3687 0.0
C2941 C 0.69552 0.49986 0.35901 0.0
C2942 C 0.73805 0.46666 0.3474 0.0
C2943 C 0.75307 0.44901 0.37506 0.0
N2944 N 0.7098 0.48995 0.35579 0.0
N2945 N 0.74219 0.46264 0.3779 0.0
H2946 H 0.54757 0.33332 0.25109 0.0
H2947 H 0.49268 0.40552 0.20044 0.0
H2948 H 0.55472 0.38872 0.25746 0.0
H2949 H 0.49044 0.35049 0.18914 0.0
H2950 H 0.51068 0.39919 0.2259 0.0
H2951 H 0.52196 0.33906 0.23308 0.0
C2952 C 0.54358 0.34667 0.24896 0.0
C2953 C 0.55347 0.36057 0.25553 0.0
C2954 C 0.50605 0.38849 0.21797 0.0
C2955 C 0.52429 0.36722 0.23485 0.0
C2956 C 0.49574 0.39209 0.20345 0.0
C2957 C 0.4903 0.37854 0.19247 0.0
C2958 C 0.51096 0.37122 0.22151 0.0
C2959 C 0.49457 0.36138 0.19709 0.0
C2960 C 0.529 0.34995 0.23863 0.0
C2961 C 0.54764 0.37761 0.25242 0.0
N2962 N 0.50481 0.35822 0.21114 0.0
N2963 N 0.53356 0.38046 0.24214 0.0
H2964 H 0.09503 0.74288 0.05847 0.0
H2965 H 0.13303 0.80554 0.98526 0.0
H2966 H 0.14943 0.74517 0.04446 0.0
H2967 H 0.07818 0.80075 0.99659 0.0
H2968 H 0.13882 0.78084 0.00432 0.0
H2969 H 0.08816 0.76129 0.03351 0.0
C2970 C 0.10552 0.74708 0.05003 0.0
C2971 C 0.12287 0.74266 0.0537 0.0
C2972 C 0.12549 0.78503 0.0025 0.0
C2973 C 0.11509 0.76388 0.02516 0.0
C2974 C 0.12216 0.79917 0.99161 0.0
C2975 C 0.10511 0.80537 0.98951 0.0
C2976 C 0.11168 0.77713 0.01152 0.0
C2977 C 0.09154 0.79647 -0.00208 0.0
C2978 C 0.10158 0.7576 0.03576 0.0
C2979 C 0.13589 0.74836 0.04221 0.0
N2980 N 0.09515 0.78294 0.00875 0.0
N2981 N 0.13175 0.75886 0.02858 0.0
H2982 H 0.34899 0.18981 0.48758 0.0
H2983 H 0.38858 0.25876 0.55393 0.0
H2984 H 0.40408 0.19875 0.49437 0.0
H2985 H 0.33348 0.24978 0.54736 0.0
H2986 H 0.39428 0.24051 0.5286 0.0
H2987 H 0.34295 0.21511 0.50578 0.0
C2988 C 0.35984 0.19722 0.49273 0.0
C2989 C 0.37708 0.19198 0.48967 0.0
C2990 C 0.38092 0.24271 0.53253 0.0
C2991 C 0.37023 0.22093 0.51064 0.0
C2992 C 0.37765 0.25314 0.547 0.0
C2993 C 0.36053 0.25557 0.55294 0.0
C2994 C 0.367 0.23448 0.52401 0.0
C2995 C 0.34688 0.24814 0.54333 0.0
C2996 C 0.35637 0.21169 0.50312 0.0
C2997 C 0.39059 0.20221 0.49652 0.0
N2998 N 0.35043 0.23771 0.52948 0.0
N2999 N 0.38687 0.21606 0.50687 0.0
H3000 H 0.20159 0.49363 0.41045 0.0
H3001 H 0.25249 0.54577 0.33638 0.0
H3002 H 0.19179 0.4879 0.3554 0.0
H3003 H 0.25858 0.55515 0.39147 0.0
H3004 H 0.23486 0.52011 0.34309 0.0
H3005 H 0.22698 0.51162 0.40366 0.0
C3006 C 0.20494 0.4959 0.39694 0.0
C3007 C 0.19437 0.48951 0.38348 0.0
C3008 C 0.24026 0.52765 0.35371 0.0
C3009 C 0.2233 0.51018 0.37563 0.0
C3010 C 0.25038 0.54227 0.34988 0.0
C3011 C 0.25675 0.5528 0.36338 0.0
C3012 C 0.23649 0.52356 0.37115 0.0
C3013 C 0.25368 0.54757 0.38064 0.0
C3014 C 0.21941 0.50622 0.39307 0.0
C3015 C 0.1994 0.49279 0.3662 0.0
N3016 N 0.24359 0.53345 0.38402 0.0
N3017 N 0.21337 0.50307 0.36278 0.0
H3018 H 0.18748 0.50698 0.14066 0.0
H3019 H 0.25683 0.44193 0.09954 0.0
H3020 H 0.1959 0.50109 0.0854 0.0
H3021 H 0.24818 0.44755 0.15478 0.0
H3022 H 0.238 0.46694 0.09433 0.0
H3023 H 0.2129 0.48879 0.14619 0.0
C3024 C 0.19481 0.50204 0.12967 0.0
C3025 C 0.18939 0.50536 0.11253 0.0
C3026 C 0.24038 0.46286 0.10761 0.0
C3027 C 0.21847 0.48437 0.1188 0.0
C3028 C 0.25115 0.44857 0.11061 0.0
C3029 C 0.25389 0.44247 0.12762 0.0
C3030 C 0.23215 0.47106 0.12171 0.0
C3031 C 0.24633 0.45171 0.14145 0.0
C3032 C 0.20933 0.49164 0.13285 0.0
C3033 C 0.19951 0.49876 0.09883 0.0
N3034 N 0.23562 0.4654 0.13817 0.0
N3035 N 0.21343 0.48839 0.10226 0.0
H3036 H 0.29634 0.50261 0.90892 0.0
H3037 H 0.24421 0.44801 0.83726 0.0
H3038 H 0.30665 0.5053 0.85373 0.0
H3039 H 0.24123 0.43833 0.89256 0.0
H3040 H 0.26234 0.47355 0.84306 0.0
H3041 H 0.2714 0.48373 0.90299 0.0
C3042 C 0.2932 0.49948 0.89554 0.0
C3043 C 0.30376 0.50533 0.88182 0.0
C3044 C 0.25753 0.46595 0.85393 0.0
C3045 C 0.27531 0.48366 0.87496 0.0
C3046 C 0.24713 0.45139 0.85064 0.0
C3047 C 0.2414 0.44087 0.86444 0.0
C3048 C 0.26218 0.47002 0.87114 0.0
C3049 C 0.24555 0.44594 0.8815 0.0
C3050 C 0.27899 0.48864 0.89217 0.0
C3051 C 0.29901 0.5009 0.86473 0.0
N3052 N 0.25582 0.46005 0.88436 0.0
N3053 N 0.28524 0.49019 0.8618 0.0
H3054 H 0.30513 0.48829 0.64253 0.0
H3055 H 0.2376 0.55556 0.60181 0.0
H3056 H 0.29644 0.49449 0.58735 0.0
H3057 H 0.24791 0.55114 0.65688 0.0
H3058 H 0.25535 0.52979 0.59668 0.0
H3059 H 0.28061 0.50761 0.64828 0.0
C3060 C 0.29792 0.49353 0.6316 0.0
C3061 C 0.30302 0.48997 0.61441 0.0
C3062 C 0.25358 0.53431 0.60992 0.0
C3063 C 0.27498 0.51224 0.62095 0.0
C3064 C 0.24344 0.54905 0.61287 0.0
C3065 C 0.24147 0.55569 0.6298 0.0
C3066 C 0.26196 0.52617 0.62396 0.0
C3067 C 0.24918 0.54657 0.64362 0.0
C3068 C 0.28392 0.50458 0.63492 0.0
C3069 C 0.29307 0.49698 0.6008 0.0
N3070 N 0.25927 0.5324 0.64037 0.0
N3071 N 0.27966 0.50797 0.60436 0.0
H3072 H 0.02017 0.13245 0.39955 0.0
H3073 H 0.09333 0.11933 0.47108 0.0
H3074 H 0.05713 0.09031 0.39601 0.0
H3075 H 0.04337 0.14236 0.48257 0.0
H3076 H 0.08233 0.11087 0.44226 0.0
H3077 H 0.03049 0.13865 0.42897 0.0
C3078 C 0.03043 0.12446 0.40502 0.0
C3079 C 0.03782 0.11084 0.39538 0.0
C3080 C 0.0738 0.1177 0.45118 0.0
C3081 C 0.04984 0.11803 0.4289 0.0
C3082 C 0.08008 0.12261 0.46754 0.0
C3083 C 0.06925 0.13158 0.4792 0.0
C3084 C 0.05673 0.12211 0.44639 0.0
C3085 C 0.05216 0.13542 0.47401 0.0
C3086 C 0.03627 0.12797 0.4218 0.0
C3087 C 0.05103 0.10086 0.40309 0.0
N3088 N 0.04648 0.1308 0.45794 0.0
N3089 N 0.05679 0.10477 0.41938 0.0
H3090 H 0.10848 0.78478 0.73747 0.0
H3091 H 0.15257 0.80544 0.64604 0.0
H3092 H 0.12745 0.83633 0.72531 0.0
H3093 H 0.11089 0.76832 0.65272 0.0
H3094 H 0.14928 0.81404 0.67674 0.0
H3095 H 0.11551 0.77555 0.70797 0.0
C3096 C 0.11428 0.79414 0.72865 0.0
C3097 C 0.11726 0.81141 0.73382 0.0
C3098 C 0.14096 0.80396 0.67143 0.0
C3099 C 0.1254 0.80082 0.70004 0.0
C3100 C 0.14288 0.79899 0.65402 0.0
C3101 C 0.13193 0.78621 0.64691 0.0
C3102 C 0.12831 0.79576 0.68175 0.0
C3103 C 0.1195 0.77831 0.6577 0.0
C3104 C 0.11822 0.78885 0.7118 0.0
C3105 C 0.12482 0.82293 0.72179 0.0
N3106 N 0.11809 0.78316 0.67461 0.0
N3107 N 0.12865 0.81742 0.70539 0.0
H3108 H 0.40055 0.85388 0.96928 0.0
H3109 H 0.45947 0.91165 0.90676 0.0
H3110 H 0.44527 0.8817 0.98889 0.0
H3111 H 0.43856 0.86201 0.89079 0.0
H3112 H 0.44891 0.90602 0.93651 0.0
H3113 H 0.4089 0.86219 0.93958 0.0
C3114 C 0.412 0.8619 0.96733 0.0
C3115 C 0.42233 0.86703 0.98148 0.0
C3116 C 0.44661 0.89646 0.92641 0.0
C3117 C 0.43171 0.87674 0.94777 0.0
C3118 C 0.45254 0.89967 0.9095 0.0
C3119 C 0.44996 0.8872 0.89642 0.0
C3120 C 0.43766 0.88093 0.93001 0.0
C3121 C 0.44095 0.87186 0.90058 0.0
C3122 C 0.41677 0.86655 0.95044 0.0
C3123 C 0.43707 0.87736 0.97828 0.0
N3124 N 0.43501 0.86919 0.91701 0.0
N3125 N 0.44131 0.88195 0.96172 0.0
H3126 H 0.33894 0.18942 0.14832 0.0
H3127 H 0.39498 0.20348 0.23439 0.0
H3128 H 0.38362 0.22349 0.15049 0.0
H3129 H 0.36882 0.1549 0.22353 0.0
H3130 H 0.38642 0.21415 0.20567 0.0
H3131 H 0.34537 0.17972 0.1781 0.0
C3132 C 0.34999 0.19497 0.15513 0.0
C3133 C 0.36081 0.20723 0.14696 0.0
C3134 C 0.38253 0.20118 0.20961 0.0
C3135 C 0.36808 0.19634 0.18086 0.0
C3136 C 0.38734 0.19509 0.226 0.0
C3137 C 0.38267 0.17824 0.2313 0.0
C3138 C 0.37274 0.19045 0.19855 0.0
C3139 C 0.37279 0.16793 0.21988 0.0
C3140 C 0.35368 0.18936 0.17202 0.0
C3141 C 0.37501 0.21393 0.15628 0.0
N3142 N 0.36809 0.17422 0.20402 0.0
N3143 N 0.3782 0.20845 0.17278 0.0
H3144 H 0.05806 0.90977 0.09592 0.0
H3145 H 0.03937 0.85652 0.00952 0.0
H3146 H 0.0251 0.86425 0.09447 0.0
H3147 H 0.08994 0.87944 0.01844 0.0
H3148 H 0.03082 0.86456 0.03899 0.0
H3149 H 0.06709 0.90368 0.06576 0.0
C3150 C 0.05269 0.89858 0.08923 0.0
C3151 C 0.04086 0.88746 0.09764 0.0
C3152 C 0.04377 0.86787 0.03447 0.0
C3153 C 0.05085 0.88068 0.06339 0.0
C3154 C 0.04864 0.86338 0.01763 0.0
C3155 C 0.06543 0.86726 0.01156 0.0
C3156 C 0.05563 0.87657 0.04526 0.0
C3157 C 0.07691 0.87612 0.02269 0.0
C3158 C 0.0579 0.89509 0.07213 0.0
C3159 C 0.03433 0.87308 0.08848 0.0
N3160 N 0.07177 0.88057 0.03906 0.0
N3161 N 0.03931 0.87018 0.0718 0.0
H3162 H 0.33647 0.78348 0.33768 0.0
H3163 H 0.39384 0.84404 0.27667 0.0
H3164 H 0.38674 0.80267 0.35383 0.0
H3165 H 0.36754 0.79897 0.2558 0.0
H3166 H 0.38551 0.83475 0.30612 0.0
H3167 H 0.34213 0.79481 0.30818 0.0
C3168 C 0.3486 0.79019 0.33503 0.0
C3169 C 0.36125 0.79205 0.34806 0.0
C3170 C 0.38148 0.82702 0.29503 0.0
C3171 C 0.36752 0.80528 0.31483 0.0
C3172 C 0.38615 0.83231 0.27829 0.0
C3173 C 0.38146 0.82216 0.26388 0.0
C3174 C 0.37169 0.81175 0.29726 0.0
C3175 C 0.37154 0.80704 0.26665 0.0
C3176 C 0.35182 0.79656 0.31828 0.0
C3177 C 0.37676 0.80082 0.34404 0.0
N3178 N 0.36689 0.80231 0.28305 0.0
N3179 N 0.37943 0.80723 0.3278 0.0
H3180 H 0.39685 0.1407 0.52688 0.0
H3181 H 0.46216 0.08462 0.58385 0.0
H3182 H 0.44294 0.11844 0.50378 0.0
H3183 H 0.44068 0.13303 0.60251 0.0
H3184 H 0.4498 0.09083 0.55487 0.0
H3185 H 0.40738 0.13164 0.55569 0.0
C3186 C 0.40907 0.13374 0.52788 0.0
C3187 C 0.41915 0.13041 0.51304 0.0
C3188 C 0.44779 0.09998 0.5654 0.0
C3189 C 0.43097 0.11979 0.54565 0.0
C3190 C 0.45475 0.09645 0.58185 0.0
C3191 C 0.45252 0.10843 0.59543 0.0
C3192 C 0.43813 0.11528 0.56284 0.0
C3193 C 0.44283 0.12358 0.59227 0.0
C3194 C 0.41507 0.12865 0.54425 0.0
C3195 C 0.43491 0.12139 0.51498 0.0
N3196 N 0.43587 0.12653 0.57632 0.0
N3197 N 0.44034 0.11629 0.53103 0.0
H3198 H 0.10019 0.20019 0.75913 0.0
H3199 H 0.15411 0.18697 0.84661 0.0
H3200 H 0.12488 0.1512 0.77131 0.0
H3201 H 0.11059 0.22222 0.84228 0.0
H3202 H 0.14781 0.17624 0.8171 0.0
H3203 H 0.10823 0.21106 0.78786 0.0
C3204 C 0.10736 0.19173 0.76784 0.0
C3205 C 0.11181 0.17474 0.76287 0.0
C3206 C 0.13972 0.18635 0.82267 0.0
C3207 C 0.12119 0.18719 0.7957 0.0
C3208 C 0.14336 0.19255 0.83939 0.0
C3209 C 0.13282 0.20546 0.84685 0.0
C3210 C 0.12569 0.19341 0.81332 0.0
C3211 C 0.11897 0.21218 0.83704 0.0
C3212 C 0.11189 0.19793 0.78424 0.0
C3213 C 0.12108 0.16434 0.7747 0.0
N3214 N 0.11586 0.20613 0.82075 0.0
N3215 N 0.12556 0.17077 0.7906 0.0
H3216 H 0.47294 0.08943 0.11649 0.0
H3217 H 0.40136 0.01827 0.13681 0.0
H3218 H 0.48494 0.04116 0.14267 0.0
H3219 H 0.39684 0.05232 0.09234 0.0
H3220 H 0.4313 0.02817 0.14096 0.0
H3221 H 0.44411 0.07779 0.10914 0.0
C3222 C 0.46953 0.07639 0.12064 0.0
C3223 C 0.4813 0.06626 0.13026 0.0
C3224 C 0.42381 0.03337 0.13021 0.0
C3225 C 0.44844 0.05302 0.12207 0.0
C3226 C 0.40672 0.02778 0.12788 0.0
C3227 C 0.39665 0.03452 0.11423 0.0
C3228 C 0.43076 0.04606 0.11905 0.0
C3229 C 0.40423 0.04676 0.10298 0.0
C3230 C 0.45315 0.06974 0.11637 0.0
C3231 C 0.47627 0.04941 0.13522 0.0
N3232 N 0.42082 0.05233 0.10576 0.0
N3233 N 0.46014 0.04339 0.13123 0.0
H3234 H 0.18958 0.14922 0.34138 0.0
H3235 H 0.20122 0.23529 0.39746 0.0
H3236 H 0.22224 0.15163 0.38705 0.0
H3237 H 0.15305 0.22398 0.37077 0.0
H3238 H 0.21193 0.20639 0.38974 0.0
H3239 H 0.17875 0.17856 0.34807 0.0
C3240 C 0.19455 0.15598 0.35272 0.0
C3241 C 0.2068 0.14804 0.3637 0.0
C3242 C 0.19902 0.21025 0.38558 0.0
C3243 C 0.19464 0.18141 0.37126 0.0
C3244 C 0.19292 0.22674 0.38991 0.0
C3245 C 0.17621 0.232 0.38477 0.0
C3246 C 0.18847 0.19903 0.37579 0.0
C3247 C 0.16598 0.22037 0.37507 0.0
C3248 C 0.18829 0.17261 0.35657 0.0
C3249 C 0.21273 0.15726 0.3783 0.0
N3250 N 0.17233 0.2044 0.37077 0.0
N3251 N 0.20667 0.17351 0.3816 0.0
H3252 H 0.00764 0.94932 0.65007 0.0
H3253 H 0.09442 0.94089 0.59348 0.0
H3254 H 0.02091 0.9024 0.62213 0.0
H3255 H 0.08977 0.97507 0.63782 0.0
H3256 H 0.06503 0.92975 0.59948 0.0
H3257 H 0.03551 0.96202 0.64133 0.0
C3258 C 0.01638 0.94172 0.64202 0.0
C3259 C 0.01202 0.92473 0.63691 0.0
C3260 C 0.07046 0.93977 0.6078 0.0
C3261 C 0.04379 0.93926 0.62675 0.0
C3262 C 0.08714 0.94619 0.60433 0.0
C3263 C 0.09452 0.95885 0.61524 0.0
C3264 C 0.06108 0.9463 0.62206 0.0
C3265 C 0.08459 0.96521 0.62918 0.0
C3266 C 0.03228 0.94896 0.63708 0.0
C3267 C 0.02384 0.91548 0.62648 0.0
N3268 N 0.06837 0.95889 0.63218 0.0
N3269 N 0.0392 0.92289 0.6217 0.0
H3270 H 0.302 0.75757 0.87243 0.0
H3271 H 0.30807 0.85891 0.88678 0.0
H3272 H 0.34853 0.7807 0.89382 0.0
H3273 H 0.28509 0.83793 0.84001 0.0
H3274 H 0.31915 0.8298 0.89396 0.0
H3275 H 0.29151 0.78674 0.86468 0.0
C3276 C 0.30995 0.7688 0.87554 0.0
C3277 C 0.32614 0.76681 0.88373 0.0
C3278 C 0.31169 0.83165 0.88213 0.0
C3279 C 0.31414 0.79996 0.87523 0.0
C3280 C 0.30531 0.84815 0.87808 0.0
C3281 C 0.29569 0.85074 0.86278 0.0
C3282 C 0.30799 0.81763 0.87105 0.0
C3283 C 0.29254 0.83644 0.85188 0.0
C3284 C 0.30401 0.78535 0.87105 0.0
C3285 C 0.33601 0.78173 0.88742 0.0
N3286 N 0.29852 0.8204 0.85632 0.0
N3287 N 0.32976 0.79776 0.88331 0.0
H3288 H 0.46889 0.89798 0.35126 0.0
H3289 H 0.40849 0.96062 0.40675 0.0
H3290 H 0.49021 0.9429 0.37741 0.0
H3291 H 0.39246 0.94148 0.35644 0.0
H3292 H 0.43771 0.94853 0.40159 0.0
H3293 H 0.43944 0.90804 0.35882 0.0
C3294 C 0.46736 0.9098 0.35881 0.0
C3295 C 0.48189 0.91972 0.36366 0.0
C3296 C 0.42771 0.94698 0.39176 0.0
C3297 C 0.44857 0.93102 0.37249 0.0
C3298 C 0.41113 0.95382 0.39468 0.0
C3299 C 0.3982 0.95216 0.38191 0.0
C3300 C 0.43112 0.938 0.37623 0.0
C3301 C 0.40218 0.94322 0.3665 0.0
C3302 C 0.45063 0.91555 0.363 0.0
C3303 C 0.47927 0.935 0.37332 0.0
N3304 N 0.41829 0.93633 0.36413 0.0
N3305 N 0.46289 0.94017 0.37752 0.0
H3306 H 0.3098 0.1471 0.65878 0.0
H3307 H 0.29433 0.23142 0.60118 0.0
H3308 H 0.27755 0.1468 0.61276 0.0
H3309 H 0.34351 0.22249 0.62687 0.0
H3310 H 0.285 0.20215 0.60949 0.0
H3311 H 0.31951 0.17669 0.65129 0.0
C3312 C 0.30471 0.1533 0.64717 0.0
C3313 C 0.29289 0.14454 0.63634 0.0
C3314 C 0.29783 0.20662 0.6133 0.0
C3315 C 0.30372 0.17819 0.62791 0.0
C3316 C 0.30314 0.22331 0.60863 0.0
C3317 C 0.31974 0.22933 0.61331 0.0
C3318 C 0.30905 0.19599 0.623 0.0
C3319 C 0.33065 0.21827 0.62292 0.0
C3320 C 0.31032 0.17007 0.64288 0.0
C3321 C 0.28676 0.15307 0.62141 0.0
N3322 N 0.32507 0.20211 0.62757 0.0
N3323 N 0.29214 0.16949 0.6177 0.0
H3324 H 0.08657 0.03292 0.9017 0.0
H3325 H 0.02589 0.09527 0.84618 0.0
H3326 H 0.10209 0.05165 0.85106 0.0
H3327 H 0.00456 0.05147 0.87421 0.0
H3328 H 0.05534 0.08488 0.85313 0.0
H3329 H 0.05734 0.04503 0.89678 0.0
C3330 C 0.08382 0.03962 0.88961 0.0
C3331 C 0.09662 0.04118 0.87668 0.0
C3332 C 0.04416 0.07768 0.85783 0.0
C3333 C 0.06367 0.05534 0.87125 0.0
C3334 C 0.02743 0.08362 0.85398 0.0
C3335 C 0.01288 0.07412 0.85957 0.0
C3336 C 0.04623 0.06244 0.86771 0.0
C3337 C 0.01551 0.05905 0.86955 0.0
C3338 C 0.06722 0.04647 0.88682 0.0
C3339 C 0.09248 0.05001 0.86124 0.0
N3340 N 0.03191 0.05369 0.8734 0.0
N3341 N 0.07636 0.0569 0.85899 0.0
H3342 H 0.2189 0.84429 0.11028 0.0
H3343 H 0.14917 0.7703 0.12721 0.0
H3344 H 0.18853 0.8428 0.15754 0.0
H3345 H 0.19566 0.76116 0.09699 0.0
H3346 H 0.1611 0.79849 0.13631 0.0
H3347 H 0.20827 0.81518 0.10293 0.0
C3348 C 0.21002 0.8378 0.11913 0.0
C3349 C 0.20456 0.84593 0.13454 0.0
C3350 C 0.16869 0.79024 0.12776 0.0
C3351 C 0.19222 0.81281 0.12609 0.0
C3352 C 0.16187 0.77423 0.12249 0.0
C3353 C 0.17145 0.76342 0.11131 0.0
C3354 C 0.185 0.79558 0.12151 0.0
C3355 C 0.18788 0.76909 0.10566 0.0
C3356 C 0.20403 0.82119 0.11496 0.0
C3357 C 0.19311 0.83693 0.14557 0.0
N3358 N 0.19407 0.78487 0.11069 0.0
N3359 N 0.18714 0.82088 0.14104 0.0
H3360 H 0.13535 0.38998 0.05176 0.0
H3361 H 0.11627 0.48996 0.04691 0.0
H3362 H 0.08543 0.40736 0.0328 0.0
H3363 H 0.14065 0.46768 0.09234 0.0
H3364 H 0.10814 0.46051 0.0373 0.0
H3365 H 0.14118 0.4194 0.06259 0.0
C3366 C 0.12566 0.40004 0.04983 0.0
C3367 C 0.1099 0.39634 0.04138 0.0
C3368 C 0.11518 0.46217 0.0494 0.0
C3369 C 0.11661 0.42989 0.05344 0.0
C3370 C 0.1199 0.47887 0.05483 0.0
C3371 C 0.12914 0.48116 0.07042 0.0
C3372 C 0.12021 0.44775 0.05939 0.0
C3373 C 0.13347 0.46643 0.08028 0.0
C3374 C 0.12895 0.41673 0.05609 0.0
C3375 C 0.0977 0.40976 0.03932 0.0
N3376 N 0.12918 0.45028 0.07447 0.0
N3377 N 0.10141 0.42609 0.04512 0.0
H3378 H 0.64596 0.01257 0.94773 0.0
H3379 H 0.58606 0.09501 0.93282 0.0
H3380 H 0.61797 0.01944 0.89949 0.0
H3381 H 0.63403 0.09769 0.96197 0.0
H3382 H 0.59396 0.06551 0.92328 0.0
H3383 H 0.6379 0.04215 0.95627 0.0
C3384 C 0.63804 0.02029 0.93898 0.0
C3385 C 0.63263 0.0136 0.92288 0.0
C3386 C 0.60273 0.07264 0.93171 0.0
C3387 C 0.62326 0.04728 0.93265 0.0
C3388 C 0.59822 0.08938 0.93721 0.0
C3389 C 0.60944 0.09875 0.94818 0.0
C3390 C 0.61832 0.06517 0.93759 0.0
C3391 C 0.62506 0.09093 0.95345 0.0
C3392 C 0.63354 0.03716 0.94382 0.0
C3393 C 0.62247 0.02418 0.91198 0.0
N3394 N 0.62897 0.07451 0.94824 0.0
N3395 N 0.61797 0.04051 0.91713 0.0
H3396 H 0.15805 0.33752 0.21128 0.0
H3397 H 0.21633 0.39295 0.14647 0.0
H3398 H 0.14192 0.38805 0.1928 0.0
H3399 H 0.23941 0.36692 0.19057 0.0
H3400 H 0.18734 0.38519 0.15759 0.0
H3401 H 0.1869 0.34243 0.19809 0.0
C3402 C 0.16058 0.34957 0.20439 0.0
C3403 C 0.14777 0.3625 0.20324 0.0
C3404 C 0.19881 0.38108 0.16469 0.0
C3405 C 0.18018 0.36788 0.18786 0.0
C3406 C 0.21528 0.38541 0.15835 0.0
C3407 C 0.23017 0.38066 0.16773 0.0
C3408 C 0.19736 0.37156 0.18022 0.0
C3409 C 0.22817 0.37096 0.18309 0.0
C3410 C 0.17695 0.35235 0.19693 0.0
C3411 C 0.15158 0.37788 0.19415 0.0
N3412 N 0.21201 0.36664 0.18885 0.0
N3413 N 0.16743 0.3801 0.18667 0.0
H3414 H 0.90531 0.90972 0.46412 0.0
H3415 H 0.84931 0.96527 0.39859 0.0
H3416 H 0.85506 0.89165 0.44662 0.0
H3417 H 0.87322 0.99025 0.44286 0.0
H3418 H 0.85662 0.93679 0.41118 0.0
H3419 H 0.89884 0.93855 0.45161 0.0
C3420 C 0.89297 0.91184 0.45764 0.0
C3421 C 0.88063 0.89843 0.45647 0.0
C3422 C 0.86028 0.94856 0.41805 0.0
C3423 C 0.87346 0.93086 0.44188 0.0
C3424 C 0.8562 0.96473 0.41088 0.0
C3425 C 0.86061 0.98003 0.41979 0.0
C3426 C 0.86925 0.94777 0.43393 0.0
C3427 C 0.86949 0.97869 0.4357 0.0
C3428 C 0.8893 0.92821 0.45059 0.0
C3429 C 0.86483 0.90175 0.44794 0.0
N3430 N 0.87368 0.96279 0.44223 0.0
N3431 N 0.86176 0.91761 0.44078 0.0
H3432 H 0.83829 0.15698 0.2113 0.0
H3433 H 0.77683 0.10081 0.15118 0.0
H3434 H 0.85373 0.10624 0.19285 0.0
H3435 H 0.75552 0.12641 0.19641 0.0
H3436 H 0.80621 0.10808 0.16135 0.0
H3437 H 0.80841 0.15107 0.20115 0.0
C3438 C 0.83537 0.14466 0.20509 0.0
C3439 C 0.84836 0.13202 0.20296 0.0
C3440 C 0.79506 0.11214 0.16896 0.0
C3441 C 0.81472 0.12547 0.19107 0.0
C3442 C 0.77835 0.10809 0.16317 0.0
C3443 C 0.76382 0.11297 0.17305 0.0
C3444 C 0.79717 0.12152 0.18448 0.0
C3445 C 0.76646 0.12232 0.18853 0.0
C3446 C 0.81841 0.1413 0.19939 0.0
C3447 C 0.84401 0.11624 0.19486 0.0
N3448 N 0.78288 0.12644 0.19374 0.0
N3449 N 0.82758 0.11347 0.18902 0.0
H3450 H 0.40818 0.59501 0.55828 0.0
H3451 H 0.35246 0.50863 0.54571 0.0
H3452 H 0.36472 0.59093 0.5229 0.0
H3453 H 0.3764 0.52068 0.59512 0.0
H3454 H 0.36148 0.53695 0.53471 0.0
H3455 H 0.40113 0.56583 0.5696 0.0
C3456 C 0.39729 0.58791 0.5528 0.0
C3457 C 0.38699 0.59533 0.53966 0.0
C3458 C 0.36477 0.53341 0.54796 0.0
C3459 C 0.37902 0.56222 0.55237 0.0
C3460 C 0.35968 0.51722 0.55425 0.0
C3461 C 0.36363 0.51232 0.57139 0.0
C3462 C 0.3741 0.54476 0.55877 0.0
C3463 C 0.373 0.52403 0.58186 0.0
C3464 C 0.39322 0.57139 0.55933 0.0
C3465 C 0.37294 0.58571 0.53309 0.0
N3466 N 0.37801 0.53976 0.57534 0.0
N3467 N 0.36943 0.56962 0.53945 0.0
H3468 H 0.23918 0.62436 0.29641 0.0
H3469 H 0.13875 0.60679 0.30274 0.0
H3470 H 0.217 0.60061 0.34226 0.0
H3471 H 0.15717 0.65571 0.28213 0.0
H3472 H 0.16816 0.60053 0.31335 0.0
H3473 H 0.20974 0.63244 0.28682 0.0
C3474 C 0.2281 0.62082 0.30441 0.0
C3475 C 0.23043 0.6118 0.32012 0.0
C3476 C 0.16571 0.61264 0.30654 0.0
C3477 C 0.19702 0.62072 0.30915 0.0
C3478 C 0.14903 0.61618 0.30042 0.0
C3479 C 0.14563 0.63178 0.29157 0.0
C3480 C 0.17916 0.62456 0.30335 0.0
C3481 C 0.15933 0.64358 0.28898 0.0
C3482 C 0.21141 0.62552 0.299 0.0
C3483 C 0.21572 0.60761 0.33009 0.0
N3484 N 0.17563 0.63963 0.29467 0.0
N3485 N 0.19957 0.61191 0.32432 0.0
H3486 H 0.25838 0.39383 0.79323 0.0
H3487 H 0.34593 0.33946 0.80519 0.0
H3488 H 0.27132 0.36815 0.84153 0.0
H3489 H 0.34176 0.38355 0.77059 0.0
H3490 H 0.3162 0.3452 0.81547 0.0
H3491 H 0.28679 0.38545 0.78154 0.0
C3492 C 0.26716 0.38634 0.80133 0.0
C3493 C 0.26256 0.38177 0.81841 0.0
C3494 C 0.32182 0.35352 0.80557 0.0
C3495 C 0.29491 0.37203 0.80506 0.0
C3496 C 0.33869 0.35021 0.79964 0.0
C3497 C 0.34628 0.36111 0.7871 0.0
C3498 C 0.31246 0.3676 0.79864 0.0
C3499 C 0.33641 0.37492 0.78038 0.0
C3500 C 0.28335 0.38162 0.79468 0.0
C3501 C 0.27444 0.37207 0.82835 0.0
N3502 N 0.31997 0.37775 0.7862 0.0
N3503 N 0.29009 0.36746 0.8215 0.0
H3504 H 0.90032 0.87694 0.52473 0.0
H3505 H 0.97521 0.86192 0.59371 0.0
H3506 H 0.95069 0.85615 0.51097 0.0
H3507 H 0.93718 0.90263 0.60079 0.0
H3508 H 0.9647 0.85762 0.56406 0.0
H3509 H 0.91186 0.88468 0.55353 0.0
C3510 C 0.91379 0.87406 0.52774 0.0
C3511 C 0.92455 0.86582 0.51548 0.0
C3512 C 0.95873 0.86759 0.57204 0.0
C3513 C 0.93768 0.87446 0.54827 0.0
C3514 C 0.96467 0.87 0.58897 0.0
C3515 C 0.95702 0.88263 0.59968 0.0
C3516 C 0.94479 0.87763 0.56585 0.0
C3517 C 0.94346 0.89281 0.59288 0.0
C3518 C 0.92036 0.87855 0.5441 0.0
C3519 C 0.94192 0.86248 0.52001 0.0
N3520 N 0.9376 0.88995 0.5764 0.0
N3521 N 0.94789 0.86664 0.53609 0.0
H3522 H 0.88597 0.22315 0.33964 0.0
H3523 H 0.8701 0.15156 0.26719 0.0
H3524 H 0.84082 0.18966 0.34074 0.0
H3525 H 0.89675 0.19987 0.25628 0.0
H3526 H 0.86173 0.16308 0.29578 0.0
H3527 H 0.89268 0.21261 0.31035 0.0
C3528 C 0.87744 0.21363 0.33367 0.0
C3529 C 0.86282 0.20727 0.34256 0.0
C3530 C 0.86934 0.17114 0.28705 0.0
C3531 C 0.87055 0.195 0.30929 0.0
C3532 C 0.8742 0.16456 0.27082 0.0
C3533 C 0.88413 0.17479 0.25939 0.0
C3534 C 0.87478 0.18789 0.29195 0.0
C3535 C 0.88903 0.19158 0.26469 0.0
C3536 C 0.88124 0.20767 0.31697 0.0
C3537 C 0.85217 0.19496 0.33425 0.0
N3538 N 0.88443 0.19756 0.28066 0.0
N3539 N 0.85635 0.18907 0.3181 0.0
H3540 H 0.53186 0.08265 0.08524 0.0
H3541 H 0.59035 0.14027 0.02248 0.0
H3542 H 0.55022 0.13367 0.09998 0.0
H3543 H 0.54587 0.11229 0.00254 0.0
H3544 H 0.58172 0.13205 0.05213 0.0
H3545 H 0.54278 0.08782 0.0555 0.0
C3546 C 0.53829 0.09485 0.08222 0.0
C3547 C 0.54004 0.10784 0.09491 0.0
C3548 C 0.57399 0.12761 0.0412 0.0
C3549 C 0.55281 0.11355 0.06145 0.0
C3550 C 0.57892 0.13221 0.02435 0.0
C3551 C 0.5687 0.12704 0.01014 0.0
C3552 C 0.55903 0.11744 0.04375 0.0
C3553 C 0.55397 0.11666 0.01322 0.0
C3554 C 0.54443 0.09778 0.06534 0.0
C3555 C 0.54844 0.12343 0.09045 0.0
N3556 N 0.54957 0.11213 0.02975 0.0
N3557 N 0.55464 0.12582 0.07409 0.0
H3558 H 0.65383 0.8098 0.84544 0.0
H3559 H 0.59591 0.79702 0.76133 0.0
H3560 H 0.60549 0.7811 0.8459 0.0
H3561 H 0.62374 0.84521 0.76944 0.0
H3562 H 0.60346 0.78799 0.79079 0.0
H3563 H 0.64687 0.82027 0.81597 0.0
C3564 C 0.6418 0.80569 0.83933 0.0
C3565 C 0.63021 0.79456 0.84806 0.0
C3566 C 0.60791 0.80054 0.78613 0.0
C3567 C 0.62238 0.80623 0.81456 0.0
C3568 C 0.6037 0.80568 0.7693 0.0
C3569 C 0.60921 0.82191 0.76297 0.0
C3570 C 0.61798 0.81154 0.79664 0.0
C3571 C 0.61918 0.83263 0.7739 0.0
C3572 C 0.63782 0.81173 0.82263 0.0
C3573 C 0.61475 0.7897 0.83965 0.0
N3574 N 0.62339 0.82719 0.79025 0.0
N3575 N 0.61137 0.79543 0.8233 0.0
H3576 H 0.8969 0.1189 0.9682 0.0
H3577 H 0.96626 0.13943 0.89459 0.0
H3578 H 0.94331 0.14895 0.97837 0.0
H3579 H 0.93651 0.09172 0.89461 0.0
H3580 H 0.95524 0.14591 0.92378 0.0
H3581 H 0.90849 0.11147 0.93938 0.0
C3582 C 0.9095 0.12395 0.96435 0.0
C3583 C 0.91918 0.13454 0.97565 0.0
C3584 C 0.9512 0.13399 0.9174 0.0
C3585 C 0.93234 0.12628 0.94281 0.0
C3586 C 0.95741 0.13032 0.90075 0.0
C3587 C 0.95229 0.11501 0.89223 0.0
C3588 C 0.93951 0.12245 0.9254 0.0
C3589 C 0.94085 0.10362 0.9008 0.0
C3590 C 0.91612 0.11964 0.94799 0.0
C3591 C 0.93547 0.14068 0.97007 0.0
N3592 N 0.93469 0.10765 0.91689 0.0
N3593 N 0.94148 0.13659 0.95397 0.0
H3594 H 0.62915 0.19372 0.73817 0.0
H3595 H 0.60646 0.19092 0.63879 0.0
H3596 H 0.60043 0.15045 0.71673 0.0
H3597 H 0.65734 0.20797 0.65545 0.0
H3598 H 0.60098 0.17961 0.66814 0.0
H3599 H 0.63704 0.20276 0.70855 0.0
C3600 C 0.62459 0.1861 0.72721 0.0
C3601 C 0.61414 0.17133 0.7298 0.0
C3602 C 0.61335 0.18578 0.6653 0.0
C3603 C 0.62275 0.18179 0.69614 0.0
C3604 C 0.61643 0.19234 0.64866 0.0
C3605 C 0.63235 0.20042 0.64479 0.0
C3606 C 0.62609 0.18775 0.67822 0.0
C3607 C 0.64492 0.2018 0.65797 0.0
C3608 C 0.62914 0.19121 0.7104 0.0
C3609 C 0.60859 0.16185 0.71522 0.0
N3610 N 0.64143 0.19571 0.67422 0.0
N3611 N 0.61274 0.1674 0.69894 0.0
H3612 H 0.536 0.90742 0.40547 0.0
H3613 H 0.59367 0.84979 0.46918 0.0
H3614 H 0.55595 0.85717 0.39024 0.0
H3615 H 0.54961 0.87922 0.48778 0.0
H3616 H 0.58576 0.85763 0.4392 0.0
H3617 H 0.54669 0.90222 0.43517 0.0
C3618 C 0.54273 0.89537 0.40837 0.0
C3619 C 0.54499 0.88262 0.39551 0.0
C3620 C 0.57796 0.86246 0.44991 0.0
C3621 C 0.55747 0.87683 0.42908 0.0
C3622 C 0.5825 0.85809 0.46695 0.0
C3623 C 0.57218 0.8638 0.48087 0.0
C3624 C 0.5633 0.87293 0.44691 0.0
C3625 C 0.55778 0.87445 0.47734 0.0
C3626 C 0.54876 0.89242 0.42525 0.0
C3627 C 0.55379 0.86722 0.39987 0.0
N3628 N 0.55377 0.87874 0.46067 0.0
N3629 N 0.55981 0.86478 0.41631 0.0
H3630 H 0.89919 0.84183 0.21884 0.0
H3631 H 0.84321 0.77866 0.16067 0.0
H3632 H 0.87507 0.79662 0.24193 0.0
H3633 H 0.89318 0.7974 0.14307 0.0
H3634 H 0.84989 0.78969 0.19002 0.0
H3635 H 0.89211 0.83034 0.18986 0.0
C3636 C 0.89231 0.82956 0.21778 0.0
C3637 C 0.88774 0.82008 0.23269 0.0
C3638 C 0.85934 0.7913 0.17967 0.0
C3639 C 0.87939 0.80717 0.19986 0.0
C3640 C 0.85555 0.7851 0.16301 0.0
C3641 C 0.86773 0.78707 0.14956 0.0
C3642 C 0.87515 0.79997 0.18263 0.0
C3643 C 0.88353 0.79549 0.15317 0.0
C3644 C 0.88837 0.82301 0.20132 0.0
C3645 C 0.87891 0.80421 0.23068 0.0
N3646 N 0.88672 0.80184 0.16935 0.0
N3647 N 0.87484 0.79829 0.21451 0.0
H3648 H 0.59597 0.93673 0.90698 0.0
H3649 H 0.51046 0.95117 0.85078 0.0
H3650 H 0.59492 0.96759 0.86003 0.0
H3651 H 0.51933 0.9024 0.87729 0.0
H3652 H 0.53969 0.96058 0.85881 0.0
H3653 H 0.56606 0.92695 0.90073 0.0
C3654 C 0.58941 0.94151 0.89545 0.0
C3655 C 0.59788 0.95296 0.88398 0.0
C3656 C 0.53523 0.94783 0.8629 0.0
C3657 C 0.5639 0.94207 0.87696 0.0
C3658 C 0.51852 0.94247 0.8584 0.0
C3659 C 0.51248 0.92594 0.86332 0.0
C3660 C 0.54592 0.93674 0.87266 0.0
C3661 C 0.52355 0.9152 0.87314 0.0
C3662 C 0.57246 0.93586 0.89186 0.0
C3663 C 0.58889 0.9587 0.86917 0.0
N3664 N 0.53978 0.92082 0.87759 0.0
N3665 N 0.57235 0.95329 0.86615 0.0
H3666 H 0.84032 0.7678 0.62822 0.0
H3667 H 0.77013 0.84054 0.60931 0.0
H3668 H 0.79321 0.75674 0.59963 0.0
H3669 H 0.80174 0.84135 0.65576 0.0
H3670 H 0.78027 0.81092 0.60334 0.0
H3671 H 0.82832 0.7962 0.63633 0.0
C3672 C 0.82745 0.77135 0.62367 0.0
C3673 C 0.81773 0.75996 0.61322 0.0
C3674 C 0.78485 0.81755 0.6149 0.0
C3675 C 0.80408 0.79235 0.62228 0.0
C3676 C 0.77914 0.83444 0.61828 0.0
C3677 C 0.78514 0.84336 0.63304 0.0
C3678 C 0.79691 0.80973 0.62616 0.0
C3679 C 0.79676 0.83487 0.64428 0.0
C3680 C 0.8206 0.78748 0.62837 0.0
C3681 C 0.80109 0.76514 0.60775 0.0
N3682 N 0.80245 0.81856 0.6405 0.0
N3683 N 0.79485 0.78106 0.61219 0.0
H3684 H 0.89864 0.05383 0.3992 0.0
H3685 H 0.987 0.0418 0.34618 0.0
H3686 H 0.9032 0.01938 0.35505 0.0
H3687 H 0.97389 0.08993 0.37207 0.0
H3688 H 0.95826 0.03028 0.35376 0.0
H3689 H 0.92841 0.06413 0.39377 0.0
C3690 C 0.90596 0.04833 0.38848 0.0
C3691 C 0.89847 0.0358 0.3775 0.0
C3692 C 0.96173 0.04334 0.3578 0.0
C3693 C 0.93238 0.04736 0.37136 0.0
C3694 C 0.97812 0.0499 0.35355 0.0
C3695 C 0.98277 0.06688 0.35843 0.0
C3696 C 0.95005 0.05372 0.36725 0.0
C3697 C 0.97075 0.07682 0.36794 0.0
C3698 C 0.92286 0.05427 0.38535 0.0
C3699 C 0.90847 0.02915 0.36374 0.0
N3700 N 0.95493 0.07006 0.3721 0.0
N3701 N 0.92495 0.03497 0.36109 0.0
H3702 H 0.69383 0.23255 0.09422 0.0
H3703 H 0.68688 0.14802 0.15366 0.0
H3704 H 0.64735 0.22077 0.12357 0.0
H3705 H 0.71894 0.15053 0.10757 0.0
H3706 H 0.67489 0.17674 0.14639 0.0
H3707 H 0.70589 0.20438 0.10259 0.0
C3708 C 0.68617 0.22404 0.10247 0.0
C3709 C 0.66954 0.22897 0.10818 0.0
C3710 C 0.68457 0.17096 0.13793 0.0
C3711 C 0.68336 0.19681 0.11792 0.0
C3712 C 0.6915 0.15468 0.14211 0.0
C3713 C 0.7039 0.14692 0.13118 0.0
C3714 C 0.69036 0.17961 0.12291 0.0
C3715 C 0.70934 0.15602 0.11631 0.0
C3716 C 0.69304 0.20796 0.10718 0.0
C3717 C 0.66017 0.2174 0.1188 0.0
N3718 N 0.7026 0.17193 0.11265 0.0
N3719 N 0.66727 0.20185 0.12344 0.0
H3720 H 0.59907 0.05422 0.58752 0.0
H3721 H 0.51171 0.04267 0.64164 0.0
H3722 H 0.59515 0.02162 0.63313 0.0
H3723 H 0.52335 0.09111 0.61556 0.0
H3724 H 0.54062 0.03202 0.6342 0.0
H3725 H 0.56961 0.0653 0.59343 0.0
C3726 C 0.59197 0.04931 0.59868 0.0
C3727 C 0.59951 0.03698 0.60987 0.0
C3728 C 0.53685 0.04498 0.63009 0.0
C3729 C 0.56601 0.04944 0.61653 0.0
C3730 C 0.52032 0.05106 0.63425 0.0
C3731 C 0.51513 0.06784 0.62924 0.0
C3732 C 0.54825 0.05561 0.6206 0.0
C3733 C 0.5269 0.07813 0.61975 0.0
C3734 C 0.57527 0.05572 0.60208 0.0
C3735 C 0.58984 0.03115 0.62421 0.0
N3736 N 0.54295 0.07181 0.61563 0.0
N3737 N 0.57355 0.03735 0.62706 0.0
H3738 H 0.64649 0.7717 0.36621 0.0
H3739 H 0.71893 0.84351 0.38199 0.0
H3740 H 0.69354 0.76117 0.39508 0.0
H3741 H 0.68674 0.84391 0.33594 0.0
H3742 H 0.70752 0.81473 0.38935 0.0
H3743 H 0.65872 0.79985 0.35732 0.0
C3744 C 0.65936 0.77533 0.37071 0.0
C3745 C 0.66903 0.76413 0.38142 0.0
C3746 C 0.70303 0.82107 0.37759 0.0
C3747 C 0.68294 0.79621 0.37142 0.0
C3748 C 0.70948 0.8375 0.3734 0.0
C3749 C 0.70376 0.84607 0.35833 0.0
C3750 C 0.6905 0.8133 0.36682 0.0
C3751 C 0.69155 0.83768 0.34763 0.0
C3752 C 0.66634 0.79131 0.36554 0.0
C3753 C 0.68567 0.76941 0.38678 0.0
N3754 N 0.68516 0.82179 0.35218 0.0
N3755 N 0.69205 0.78515 0.38184 0.0
H3756 H 0.97449 0.90431 0.11886 0.0
H3757 H 0.90216 0.97666 0.13033 0.0
H3758 H 0.98541 0.95505 0.14048 0.0
H3759 H 0.89862 0.93833 0.08942 0.0
H3760 H 0.9319 0.96722 0.13627 0.0
H3761 H 0.94566 0.91478 0.10986 0.0
C3762 C 0.97083 0.91763 0.12169 0.0
C3763 C 0.98231 0.92882 0.13049 0.0
C3764 C 0.92468 0.96096 0.1259 0.0
C3765 C 0.94949 0.94074 0.12039 0.0
C3766 C 0.9077 0.96629 0.12255 0.0
C3767 C 0.89796 0.95823 0.10938 0.0
C3768 C 0.93187 0.94723 0.11626 0.0
C3769 C 0.90577 0.94491 0.09963 0.0
C3770 C 0.95447 0.9236 0.11647 0.0
C3771 C 0.97698 0.94598 0.13373 0.0
N3772 N 0.92226 0.93965 0.1034 0.0
N3773 N 0.9609 0.95136 0.12883 0.0
H3774 H 0.83865 0.2242 0.86606 0.0
H3775 H 0.77151 0.14833 0.88343 0.0
H3776 H 0.78857 0.23363 0.88976 0.0
H3777 H 0.80401 0.14783 0.8376 0.0
H3778 H 0.78046 0.17838 0.88905 0.0
H3779 H 0.82896 0.19469 0.85835 0.0
C3780 C 0.82564 0.22006 0.86961 0.0
C3781 C 0.81438 0.23132 0.87855 0.0
C3782 C 0.78555 0.1717 0.87773 0.0
C3783 C 0.80342 0.19774 0.87004 0.0
C3784 C 0.78053 0.15457 0.87456 0.0
C3785 C 0.78704 0.14565 0.86003 0.0
C3786 C 0.79747 0.17982 0.86652 0.0
C3787 C 0.79864 0.15434 0.84889 0.0
C3788 C 0.82012 0.20332 0.86514 0.0
C3789 C 0.79763 0.22538 0.8828 0.0
N3790 N 0.80367 0.17095 0.85247 0.0
N3791 N 0.79272 0.20891 0.87867 0.0
H3792 H 0.9045 0.58583 0.96212 0.0
H3793 H 0.84822 0.52814 0.89791 0.0
H3794 H 0.85473 0.60355 0.94306 0.0
H3795 H 0.87416 0.5051 0.94208 0.0
H3796 H 0.85565 0.55717 0.90919 0.0
H3797 H 0.89845 0.5569 0.94979 0.0
C3798 C 0.89234 0.58361 0.95532 0.0
C3799 C 0.88001 0.59696 0.95369 0.0
C3800 C 0.85976 0.5457 0.9163 0.0
C3801 C 0.87331 0.56434 0.93929 0.0
C3802 C 0.85564 0.52922 0.90986 0.0
C3803 C 0.86054 0.51431 0.91917 0.0
C3804 C 0.86923 0.54716 0.93185 0.0
C3805 C 0.87004 0.51634 0.93463 0.0
C3806 C 0.88891 0.56718 0.94835 0.0
C3807 C 0.86446 0.5935 0.94475 0.0
N3808 N 0.8742 0.5325 0.94047 0.0
N3809 N 0.8616 0.57754 0.93772 0.0
H3810 H 0.35595 0.89611 0.02986 0.0
H3811 H 0.37362 0.97175 0.09781 0.0
H3812 H 0.40405 0.89927 0.05877 0.0
H3813 H 0.34298 0.98001 0.05144 0.0
H3814 H 0.38193 0.94299 0.08676 0.0
H3815 H 0.34793 0.92498 0.04075 0.0
C3816 C 0.3648 0.90287 0.03853 0.0
C3817 C 0.3807 0.89535 0.04342 0.0
C3818 C 0.37341 0.95115 0.07903 0.0
C3819 C 0.3715 0.92814 0.05603 0.0
C3820 C 0.3686 0.96748 0.08535 0.0
C3821 C 0.35762 0.97824 0.07549 0.0
C3822 C 0.36689 0.94545 0.06296 0.0
C3823 C 0.35154 0.97213 0.05939 0.0
C3824 C 0.36024 0.91934 0.04465 0.0
C3825 C 0.39171 0.90468 0.05461 0.0
N3826 N 0.35615 0.95605 0.05367 0.0
N3827 N 0.38684 0.92057 0.06068 0.0
H3828 H 0.75545 0.63321 0.79871 0.0
H3829 H 0.85346 0.60805 0.80416 0.0
H3830 H 0.77489 0.60519 0.84332 0.0
H3831 H 0.83927 0.65919 0.78579 0.0
H3832 H 0.824 0.60435 0.8158 0.0
H3833 H 0.78546 0.64101 0.79091 0.0
C3834 C 0.76605 0.62885 0.80693 0.0
C3835 C 0.76279 0.61853 0.82164 0.0
C3836 C 0.8274 0.61642 0.80933 0.0
C3837 C 0.79691 0.62702 0.81261 0.0
C3838 C 0.84411 0.61849 0.80258 0.0
C3839 C 0.84869 0.63391 0.79395 0.0
C3840 C 0.81508 0.62966 0.80699 0.0
C3841 C 0.83618 0.64711 0.79238 0.0
C3842 C 0.78309 0.63335 0.80252 0.0
C3843 C 0.77691 0.61323 0.83191 0.0
N3844 N 0.81979 0.64458 0.7986 0.0
N3845 N 0.79344 0.61726 0.82701 0.0
H3846 H 0.13453 0.09353 0.52244 0.0
H3847 H 0.11741 0.02342 0.59614 0.0
H3848 H 0.08891 0.09589 0.55516 0.0
H3849 H 0.14537 0.01138 0.5489 0.0
H3850 H 0.10911 0.05159 0.58354 0.0
H3851 H 0.14102 0.06466 0.53412 0.0
C3852 C 0.12584 0.08792 0.53204 0.0
C3853 C 0.11116 0.09706 0.53785 0.0
C3854 C 0.11699 0.0427 0.57596 0.0
C3855 C 0.11865 0.06423 0.55143 0.0
C3856 C 0.12182 0.02672 0.58316 0.0
C3857 C 0.1321 0.01509 0.57354 0.0
C3858 C 0.1228 0.04715 0.55921 0.0
C3859 C 0.13739 0.01994 0.55674 0.0
C3860 C 0.12952 0.07145 0.53865 0.0
C3861 C 0.1003 0.08919 0.55027 0.0
N3862 N 0.13279 0.03567 0.55016 0.0
N3863 N 0.10437 0.07326 0.55682 0.0
H3864 H 0.21972 0.88962 0.8452 0.0
H3865 H 0.15951 0.82822 0.78747 0.0
H3866 H 0.24008 0.86195 0.80078 0.0
H3867 H 0.14145 0.87759 0.80723 0.0
H3868 H 0.18889 0.83515 0.79824 0.0
H3869 H 0.19029 0.87978 0.83734 0.0
C3870 C 0.218 0.8813 0.83395 0.0
C3871 C 0.23225 0.87667 0.82353 0.0
C3872 C 0.17841 0.84435 0.80027 0.0
C3873 C 0.19893 0.86523 0.81473 0.0
C3874 C 0.16171 0.84041 0.79421 0.0
C3875 C 0.14816 0.85244 0.79636 0.0
C3876 C 0.18134 0.86018 0.80893 0.0
C3877 C 0.15163 0.86807 0.80515 0.0
C3878 C 0.20128 0.87578 0.82945 0.0
C3879 C 0.22937 0.86592 0.80903 0.0
N3880 N 0.16789 0.87147 0.81121 0.0
N3881 N 0.21301 0.86049 0.80507 0.0
H3882 H 0.64532 0.48547 0.44852 0.0
H3883 H 0.59027 0.39801 0.43847 0.0
H3884 H 0.61914 0.47201 0.40064 0.0
H3885 H 0.63427 0.40278 0.47309 0.0
H3886 H 0.59639 0.42738 0.42733 0.0
H3887 H 0.63706 0.4572 0.46059 0.0
C3888 C 0.63777 0.47659 0.44057 0.0
C3889 C 0.63298 0.48104 0.42352 0.0
C3890 C 0.60462 0.42196 0.43742 0.0
C3891 C 0.62335 0.4488 0.43733 0.0
C3892 C 0.60108 0.4053 0.44385 0.0
C3893 C 0.61183 0.39798 0.45666 0.0
C3894 C 0.61878 0.43139 0.44413 0.0
C3895 C 0.62574 0.40791 0.46312 0.0
C3896 C 0.63311 0.46046 0.44746 0.0
C3897 C 0.62321 0.46902 0.4138 0.0
N3898 N 0.62878 0.42414 0.45682 0.0
N3899 N 0.61864 0.45344 0.42087 0.0
H3900 H 0.75633 0.36553 0.69555 0.0
H3901 H 0.85623 0.38548 0.69141 0.0
H3902 H 0.77875 0.38977 0.65008 0.0
H3903 H 0.83877 0.33588 0.71124 0.0
H3904 H 0.82692 0.39089 0.68005 0.0
H3905 H 0.78573 0.35776 0.70546 0.0
C3906 C 0.76745 0.36918 0.68767 0.0
C3907 C 0.7652 0.3783 0.672 0.0
C3908 C 0.82956 0.37882 0.68686 0.0
C3909 C 0.79859 0.3698 0.68338 0.0
C3910 C 0.84618 0.37578 0.69343 0.0
C3911 C 0.84982 0.36023 0.70228 0.0
C3912 C 0.81642 0.36646 0.68959 0.0
C3913 C 0.83642 0.348 0.70443 0.0
C3914 C 0.78413 0.36467 0.69327 0.0
C3915 C 0.77997 0.38267 0.6622 0.0
N3916 N 0.82016 0.35147 0.69831 0.0
N3917 N 0.79611 0.3786 0.66819 0.0
H3918 H 0.72447 0.62764 0.1513 0.0
H3919 H 0.64648 0.61519 0.21729 0.0
H3920 H 0.73126 0.6055 0.20252 0.0
H3921 H 0.64768 0.6596 0.18286 0.0
H3922 H 0.67631 0.60822 0.20884 0.0
H3923 H 0.69486 0.63662 0.15962 0.0
C3924 C 0.71975 0.6247 0.16426 0.0
C3925 C 0.7303 0.61581 0.17625 0.0
C3926 C 0.67006 0.61952 0.20318 0.0
C3927 C 0.69664 0.62575 0.18564 0.0
C3928 C 0.65304 0.62346 0.20792 0.0
C3929 C 0.64466 0.63801 0.20077 0.0
C3930 C 0.67867 0.62997 0.19093 0.0
C3931 C 0.65378 0.64833 0.18874 0.0
C3932 C 0.70295 0.62988 0.169 0.0
C3933 C 0.7236 0.61237 0.19289 0.0
N3934 N 0.67031 0.64402 0.18403 0.0
N3935 N 0.70715 0.61719 0.19703 0.0
H3936 H 0.5393 0.57714 0.90441 0.0
H3937 H 0.60047 0.6362 0.96343 0.0
H3938 H 0.56058 0.62575 0.88592 0.0
H3939 H 0.55516 0.61059 0.98464 0.0
H3940 H 0.59165 0.6267 0.93419 0.0
H3941 H 0.55079 0.5837 0.9336 0.0
C3942 C 0.54653 0.58907 0.90648 0.0
C3943 C 0.54891 0.60101 0.89288 0.0
C3944 C 0.58377 0.62308 0.94532 0.0
C3945 C 0.56227 0.60833 0.92581 0.0
C3946 C 0.5888 0.62842 0.96194 0.0
C3947 C 0.57842 0.62427 0.97637 0.0
C3948 C 0.56854 0.61318 0.94326 0.0
C3949 C 0.56339 0.6142 0.97378 0.0
C3950 C 0.553 0.59282 0.92306 0.0
C3951 C 0.55833 0.61632 0.89616 0.0
N3952 N 0.55891 0.60892 0.95751 0.0
N3953 N 0.56476 0.61952 0.9123 0.0
H3954 H 0.65376 0.27817 0.15508 0.0
H3955 H 0.60012 0.3401 0.217 0.0
H3956 H 0.60255 0.29654 0.14113 0.0
H3957 H 0.62599 0.29514 0.23855 0.0
H3958 H 0.60649 0.32928 0.18766 0.0
H3959 H 0.64908 0.28915 0.1849 0.0
C3960 C 0.6416 0.28454 0.1583 0.0
C3961 C 0.62846 0.28639 0.14577 0.0
C3962 C 0.61082 0.32187 0.19885 0.0
C3963 C 0.6233 0.29922 0.1793 0.0
C3964 C 0.60727 0.32803 0.21553 0.0
C3965 C 0.61247 0.31841 0.23013 0.0
C3966 C 0.62002 0.30625 0.19681 0.0
C3967 C 0.62164 0.30282 0.22756 0.0
C3968 C 0.63894 0.29071 0.17522 0.0
C3969 C 0.61293 0.29472 0.1505 0.0
N3970 N 0.62527 0.29724 0.21115 0.0
N3971 N 0.61084 0.301 0.16686 0.0
H3972 H 0.97094 0.36209 0.40047 0.0
H3973 H 0.89873 0.37461 0.47299 0.0
H3974 H 0.93736 0.40711 0.40037 0.0
H3975 H 0.94724 0.34795 0.48269 0.0
H3976 H 0.91023 0.38438 0.44477 0.0
H3977 H 0.95995 0.35428 0.42925 0.0
C3978 C 0.96126 0.37035 0.40654 0.0
C3979 C 0.95504 0.38527 0.39807 0.0
C3980 C 0.91833 0.37646 0.45317 0.0
C3981 C 0.94227 0.37628 0.43087 0.0
C3982 C 0.91176 0.37081 0.46918 0.0
C3983 C 0.92205 0.36044 0.48016 0.0
C3984 C 0.93511 0.37139 0.44804 0.0
C3985 C 0.93888 0.35596 0.47466 0.0
C3986 C 0.95505 0.36592 0.42297 0.0
C3987 C 0.94255 0.39556 0.40655 0.0
N3988 N 0.94482 0.36133 0.45892 0.0
N3989 N 0.93641 0.39077 0.42247 0.0
H3990 H 0.89431 0.69965 0.7369 0.0
H3991 H 0.83935 0.68591 0.64985 0.0
H3992 H 0.86857 0.65099 0.7254 0.0
H3993 H 0.88271 0.72147 0.65396 0.0
H3994 H 0.84538 0.67577 0.67963 0.0
H3995 H 0.88543 0.71072 0.70848 0.0
C3996 C 0.8867 0.69131 0.72844 0.0
C3997 C 0.88227 0.67431 0.73347 0.0
C3998 C 0.85348 0.68584 0.67397 0.0
C3999 C 0.87199 0.68699 0.70098 0.0
C4000 C 0.85001 0.69169 0.65707 0.0
C4001 C 0.86061 0.70448 0.64945 0.0
C4002 C 0.86741 0.69311 0.68331 0.0
C4003 C 0.8743 0.71148 0.6593 0.0
C4004 C 0.88169 0.69764 0.71221 0.0
C4005 C 0.87238 0.66412 0.72195 0.0
N4006 N 0.87727 0.70575 0.67574 0.0
N4007 N 0.86753 0.67063 0.70621 0.0
H4008 H 0.52208 0.35827 0.59431 0.0
H4009 H 0.59295 0.37582 0.52148 0.0
H4010 H 0.55539 0.40355 0.59563 0.0
H4011 H 0.54512 0.34833 0.51062 0.0
H4012 H 0.58145 0.38375 0.55015 0.0
H4013 H 0.53239 0.35197 0.56483 0.0
C4014 C 0.53153 0.3669 0.58837 0.0
C4015 C 0.5379 0.38145 0.59738 0.0
C4016 C 0.57347 0.37606 0.54142 0.0
C4017 C 0.54986 0.3742 0.56386 0.0
C4018 C 0.58004 0.37146 0.52513 0.0
C4019 C 0.56996 0.36139 0.5137 0.0
C4020 C 0.55688 0.37026 0.54641 0.0
C4021 C 0.55328 0.35616 0.51903 0.0
C4022 C 0.53734 0.36334 0.57155 0.0
C4023 C 0.55009 0.39225 0.58907 0.0
N4024 N 0.54731 0.36052 0.53509 0.0
N4025 N 0.55583 0.3883 0.57281 0.0
H4026 H 0.86796 0.34225 0.76837 0.0
H4027 H 0.88135 0.27369 0.84407 0.0
H4028 H 0.89445 0.29337 0.76028 0.0
H4029 H 0.83569 0.30636 0.84231 0.0
H4030 H 0.88903 0.28336 0.81474 0.0
H4031 H 0.8585 0.33189 0.79711 0.0
C4032 C 0.87178 0.32937 0.77265 0.0
C4033 C 0.88201 0.31864 0.76197 0.0
C4034 C 0.87729 0.28834 0.82075 0.0
C4035 C 0.87144 0.30689 0.7947 0.0
C4036 C 0.87294 0.28289 0.83748 0.0
C4037 C 0.85786 0.28924 0.84557 0.0
C4038 C 0.8667 0.3005 0.81219 0.0
C4039 C 0.84738 0.3011 0.83645 0.0
C4040 C 0.86631 0.32346 0.78895 0.0
C4041 C 0.88653 0.30203 0.76807 0.0
N4042 N 0.85209 0.30651 0.82026 0.0
N4043 N 0.88135 0.29672 0.78411 0.0
H4044 H 0.94422 0.61567 0.007 0.0
H4045 H 0.93577 0.63326 0.10695 0.0
H4046 H 0.89765 0.63888 0.02814 0.0
H4047 H 0.95835 0.58502 0.08919 0.0
H4048 H 0.92481 0.63864 0.07751 0.0
H4049 H 0.95291 0.60708 0.03656 0.0
C4050 C 0.93583 0.61891 0.01786 0.0
C4051 C 0.92023 0.62802 0.01521 0.0
C4052 C 0.93208 0.62684 0.08011 0.0
C4053 C 0.93019 0.61854 0.0488 0.0
C4054 C 0.93841 0.62381 0.09682 0.0
C4055 C 0.94798 0.6087 0.1004 0.0
C4056 C 0.93578 0.61492 0.06681 0.0
C4057 C 0.95095 0.59679 0.08689 0.0
C4058 C 0.94073 0.61392 0.03464 0.0
C4059 C 0.90975 0.63183 0.02966 0.0
N4060 N 0.94508 0.60028 0.07054 0.0
N4061 N 0.91506 0.6273 0.04591 0.0
H4062 H 0.60076 0.70819 0.25367 0.0
H4063 H 0.6498 0.69045 0.34323 0.0
H4064 H 0.62261 0.65785 0.26583 0.0
H4065 H 0.60681 0.72628 0.33842 0.0
H4066 H 0.6451 0.68138 0.31289 0.0
H4067 H 0.60823 0.71814 0.28294 0.0
C4068 C 0.60726 0.69927 0.26245 0.0
C4069 C 0.61099 0.68213 0.25737 0.0
C4070 C 0.63679 0.69127 0.31852 0.0
C4071 C 0.61967 0.69351 0.29076 0.0
C4072 C 0.63951 0.69651 0.33574 0.0
C4073 C 0.62862 0.70906 0.34329 0.0
C4074 C 0.62336 0.69896 0.3088 0.0
C4075 C 0.61541 0.71646 0.3331 0.0
C4076 C 0.61144 0.70495 0.27915 0.0
C4077 C 0.61938 0.67113 0.2693 0.0
N4078 N 0.6132 0.71135 0.31634 0.0
N4079 N 0.62351 0.67702 0.28548 0.0
H4080 H 0.90105 0.55254 0.59113 0.0
H4081 H 0.98828 0.53864 0.64509 0.0
H4082 H 0.90426 0.51792 0.63529 0.0
H4083 H 0.97607 0.58786 0.62084 0.0
H4084 H 0.95945 0.52784 0.637 0.0
H4085 H 0.93072 0.5627 0.5974 0.0
C4086 C 0.90806 0.54698 0.60203 0.0
C4087 C 0.90024 0.53442 0.61275 0.0
C4088 C 0.96312 0.54099 0.63344 0.0
C4089 C 0.93399 0.54581 0.61982 0.0
C4090 C 0.97956 0.54714 0.63797 0.0
C4091 C 0.98451 0.5642 0.63368 0.0
C4092 C 0.95167 0.55185 0.62429 0.0
C4093 C 0.97269 0.57467 0.6245 0.0
C4094 C 0.92489 0.55285 0.60564 0.0
C4095 C 0.9098 0.5277 0.62677 0.0
N4096 N 0.95679 0.56829 0.62002 0.0
N4097 N 0.92624 0.53342 0.62986 0.0
H4098 H 0.69311 0.7398 0.86389 0.0
H4099 H 0.68532 0.63963 0.88241 0.0
H4100 H 0.64778 0.71891 0.88972 0.0
H4101 H 0.70728 0.65812 0.83411 0.0
H4102 H 0.67428 0.66901 0.88823 0.0
H4103 H 0.70152 0.71018 0.85545 0.0
C4104 C 0.68491 0.72896 0.86772 0.0
C4105 C 0.66975 0.73172 0.87751 0.0
C4106 C 0.68143 0.66656 0.87632 0.0
C4107 C 0.67943 0.698 0.86822 0.0
C4108 C 0.68781 0.64989 0.87305 0.0
C4109 C 0.69724 0.64653 0.85778 0.0
C4110 C 0.68492 0.68 0.86447 0.0
C4111 C 0.70001 0.66021 0.846 0.0
C4112 C 0.68966 0.71214 0.86284 0.0
C4113 C 0.65953 0.71729 0.88209 0.0
N4114 N 0.69408 0.67646 0.8497 0.0
N4115 N 0.66469 0.70097 0.87762 0.0
H4116 H 0.59697 0.43792 0.09223 0.0
H4117 H 0.50842 0.45003 0.145 0.0
H4118 H 0.59152 0.47312 0.13566 0.0
H4119 H 0.5217 0.40144 0.12009 0.0
H4120 H 0.53686 0.46167 0.13683 0.0
H4121 H 0.5672 0.42738 0.09754 0.0
C4122 C 0.58943 0.44356 0.10272 0.0
C4123 C 0.59667 0.45635 0.11358 0.0
C4124 C 0.53352 0.44848 0.13311 0.0
C4125 C 0.56283 0.44451 0.11959 0.0
C4126 C 0.51728 0.44183 0.13772 0.0
C4127 C 0.51274 0.42469 0.13331 0.0
C4128 C 0.54522 0.43802 0.1238 0.0
C4129 C 0.52476 0.41467 0.12387 0.0
C4130 C 0.57255 0.43748 0.1058 0.0
C4131 C 0.58644 0.46316 0.12707 0.0
N4132 N 0.54048 0.4215 0.11938 0.0
N4133 N 0.57002 0.45719 0.12967 0.0
H4134 H 0.78309 0.33849 0.33487 0.0
H4135 H 0.84276 0.27719 0.39188 0.0
H4136 H 0.80305 0.35527 0.38462 0.0
H4137 H 0.79757 0.25647 0.36569 0.0
H4138 H 0.83295 0.30673 0.38472 0.0
H4139 H 0.79288 0.3087 0.34145 0.0
C4140 C 0.78959 0.3359 0.34711 0.0
C4141 C 0.79223 0.34925 0.35927 0.0
C4142 C 0.82523 0.29568 0.38055 0.0
C4143 C 0.80366 0.3156 0.36663 0.0
C4144 C 0.83083 0.27888 0.38455 0.0
C4145 C 0.82089 0.26446 0.37941 0.0
C4146 C 0.80987 0.29798 0.37096 0.0
C4147 C 0.8055 0.26731 0.36999 0.0
C4148 C 0.79507 0.31897 0.35087 0.0
C4149 C 0.80066 0.34527 0.37498 0.0
N4150 N 0.80051 0.28379 0.3659 0.0
N4151 N 0.80624 0.32881 0.37815 0.0
H4152 H 0.89775 0.47017 0.85406 0.0
H4153 H 0.97192 0.40204 0.87574 0.0
H4154 H 0.89647 0.43926 0.90098 0.0
H4155 H 0.98237 0.44937 0.84727 0.0
H4156 H 0.94273 0.41298 0.88255 0.0
H4157 H 0.9275 0.46016 0.84864 0.0
C4158 C 0.90374 0.46127 0.86321 0.0
C4159 C 0.89467 0.45551 0.87799 0.0
C4160 C 0.95148 0.42097 0.87489 0.0
C4161 C 0.92852 0.44391 0.87176 0.0
C4162 C 0.96806 0.41472 0.87093 0.0
C4163 C 0.97954 0.42483 0.86092 0.0
C4164 C 0.94625 0.43725 0.86848 0.0
C4165 C 0.97394 0.4412 0.85508 0.0
C4166 C 0.92071 0.45564 0.86016 0.0
C4167 C 0.90306 0.44405 0.88948 0.0
N4168 N 0.9576 0.44685 0.8588 0.0
N4169 N 0.9195 0.43847 0.88603 0.0
H4170 H 0.80523 0.63733 0.11185 0.0
H4171 H 0.80146 0.7381 0.12915 0.0
H4172 H 0.7842 0.65704 0.16006 0.0
H4173 H 0.84635 0.71495 0.10459 0.0
H4174 H 0.79128 0.70892 0.13733 0.0
H4175 H 0.81688 0.66636 0.10543 0.0
C4176 C 0.80302 0.6478 0.12104 0.0
C4177 C 0.79374 0.64487 0.13649 0.0
C4178 C 0.8034 0.7103 0.13023 0.0
C4179 C 0.80677 0.67796 0.12911 0.0
C4180 C 0.80915 0.72686 0.12549 0.0
C4181 C 0.82475 0.72886 0.11619 0.0
C4182 C 0.81306 0.69567 0.12519 0.0
C4183 C 0.8343 0.71393 0.11183 0.0
C4184 C 0.80976 0.66427 0.11742 0.0
C4185 C 0.79134 0.65881 0.14803 0.0
N4186 N 0.82818 0.69789 0.11617 0.0
N4187 N 0.79765 0.67486 0.14401 0.0
H4188 H 0.52277 0.59467 0.37242 0.0
H4189 H 0.59134 0.51905 0.35788 0.0
H4190 H 0.50989 0.54694 0.34566 0.0
H4191 H 0.5954 0.55483 0.40099 0.0
H4192 H 0.56233 0.53041 0.35153 0.0
H4193 H 0.55057 0.58179 0.38127 0.0
C4194 C 0.5258 0.5815 0.36839 0.0
C4195 C 0.51405 0.57187 0.35824 0.0
C4196 C 0.5695 0.53567 0.36247 0.0
C4197 C 0.54575 0.55716 0.36824 0.0
C4198 C 0.58605 0.52923 0.36608 0.0
C4199 C 0.59575 0.53604 0.37996 0.0
C4200 C 0.56274 0.54927 0.37261 0.0
C4201 C 0.58828 0.54918 0.39022 0.0
C4202 C 0.54159 0.57414 0.37353 0.0
C4203 C 0.51857 0.55482 0.35348 0.0
N4204 N 0.57226 0.55554 0.3862 0.0
N4205 N 0.53414 0.54806 0.3584 0.0
H4206 H 0.65219 0.27391 0.60004 0.0
H4207 H 0.71428 0.33415 0.6557 0.0
H4208 H 0.69739 0.25214 0.62531 0.0
H4209 H 0.69508 0.35045 0.60549 0.0
H4210 H 0.70319 0.30462 0.6499 0.0
H4211 H 0.66266 0.3032 0.60738 0.0
C4212 C 0.66421 0.27531 0.60729 0.0
C4213 C 0.67402 0.26068 0.61203 0.0
C4214 C 0.70145 0.31473 0.64022 0.0
C4215 C 0.6858 0.2939 0.62063 0.0
C4216 C 0.70769 0.3315 0.64351 0.0
C4217 C 0.70565 0.34462 0.63098 0.0
C4218 C 0.69269 0.31134 0.62456 0.0
C4219 C 0.69705 0.34061 0.61539 0.0
C4220 C 0.67019 0.29196 0.61137 0.0
C4221 C 0.68955 0.26316 0.62133 0.0
N4222 N 0.69071 0.32433 0.61268 0.0
N4223 N 0.69494 0.27951 0.62546 0.0
H4224 H 0.58868 0.90484 0.5319 0.0
H4225 H 0.64614 0.96401 0.59326 0.0
H4226 H 0.63568 0.88503 0.55542 0.0
H4227 H 0.62338 0.98486 0.54632 0.0
H4228 H 0.63802 0.93461 0.58371 0.0
H4229 H 0.59687 0.93431 0.54127 0.0
C4230 C 0.60067 0.90671 0.5391 0.0
C4231 C 0.61157 0.89256 0.54288 0.0
C4232 C 0.63484 0.94566 0.57555 0.0
C4233 C 0.62076 0.92595 0.5538 0.0
C4234 C 0.63937 0.96238 0.58099 0.0
C4235 C 0.63544 0.97681 0.57051 0.0
C4236 C 0.62592 0.94345 0.55977 0.0
C4237 C 0.62673 0.97402 0.5547 0.0
C4238 C 0.60534 0.92347 0.54433 0.0
C4239 C 0.62699 0.89564 0.55217 0.0
N4240 N 0.62208 0.95764 0.54987 0.0
N4241 N 0.63107 0.91202 0.55748 0.0
H4242 H 0.13349 0.59783 0.47002 0.0
H4243 H 0.11979 0.52129 0.40233 0.0
H4244 H 0.08729 0.59508 0.43816 0.0
H4245 H 0.14687 0.51383 0.451 0.0
H4246 H 0.11059 0.55023 0.41234 0.0
H4247 H 0.14158 0.56864 0.46024 0.0
C4248 C 0.12506 0.59107 0.46096 0.0
C4249 C 0.10969 0.59882 0.4549 0.0
C4250 C 0.1185 0.54218 0.4208 0.0
C4251 C 0.11899 0.56562 0.44352 0.0
C4252 C 0.12383 0.52577 0.41508 0.0
C4253 C 0.13409 0.5152 0.42588 0.0
C4254 C 0.12383 0.54814 0.43722 0.0
C4255 C 0.1389 0.52155 0.44231 0.0
C4256 C 0.12965 0.57442 0.45545 0.0
C4257 C 0.09919 0.58948 0.44321 0.0
N4258 N 0.13385 0.53768 0.44743 0.0
N4259 N 0.10412 0.57338 0.43775 0.0
H4260 H 0.65384 0.83695 0.71162 0.0
H4261 H 0.71594 0.89259 0.65095 0.0
H4262 H 0.63713 0.88557 0.689 0.0
H4263 H 0.73586 0.86787 0.6973 0.0
H4264 H 0.68628 0.88516 0.66019 0.0
H4265 H 0.68375 0.84321 0.70186 0.0
C4266 C 0.65646 0.84884 0.7045 0.0
C4267 C 0.6431 0.86082 0.70115 0.0
C4268 C 0.69718 0.88136 0.66828 0.0
C4269 C 0.67688 0.86781 0.68979 0.0
C4270 C 0.71405 0.88553 0.66302 0.0
C4271 C 0.72829 0.8809 0.67345 0.0
C4272 C 0.69461 0.87212 0.68382 0.0
C4273 C 0.72517 0.8718 0.68899 0.0
C4274 C 0.67346 0.85243 0.69905 0.0
C4275 C 0.64712 0.87608 0.69195 0.0
N4276 N 0.70863 0.86755 0.69367 0.0
N4277 N 0.66365 0.87909 0.68645 0.0
H4278 H 0.34818 0.48715 0.95297 0.0
H4279 H 0.4033 0.40015 0.94157 0.0
H4280 H 0.37569 0.47502 0.90548 0.0
H4281 H 0.35768 0.40292 0.97427 0.0
H4282 H 0.39751 0.4299 0.93155 0.0
H4283 H 0.35577 0.45834 0.96433 0.0
C4284 C 0.3559 0.47846 0.94498 0.0
C4285 C 0.36126 0.4834 0.92823 0.0
C4286 C 0.38884 0.42397 0.94097 0.0
C4287 C 0.37008 0.45065 0.9412 0.0
C4288 C 0.39217 0.40708 0.94675 0.0
C4289 C 0.3809 0.39909 0.95871 0.0
C4290 C 0.37434 0.43299 0.94745 0.0
C4291 C 0.36661 0.40859 0.96494 0.0
C4292 C 0.36015 0.46204 0.95144 0.0
C4293 C 0.37119 0.47164 0.91841 0.0
N4294 N 0.36376 0.42509 0.95929 0.0
N4295 N 0.37536 0.4558 0.92508 0.0
H4296 H 0.34026 0.66088 0.70928 0.0
H4297 H 0.27957 0.6057 0.64628 0.0
H4298 H 0.35412 0.60925 0.69209 0.0
H4299 H 0.25773 0.63406 0.68955 0.0
H4300 H 0.30889 0.61309 0.65677 0.0
H4301 H 0.31125 0.65699 0.69604 0.0
C4302 C 0.3372 0.64881 0.70265 0.0
C4303 C 0.3494 0.63527 0.70191 0.0
C4304 C 0.29762 0.61782 0.6638 0.0
C4305 C 0.31686 0.63102 0.68645 0.0
C4306 C 0.28097 0.6137 0.65781 0.0
C4307 C 0.26631 0.61917 0.66719 0.0
C4308 C 0.29951 0.62784 0.67896 0.0
C4309 C 0.26876 0.62946 0.68209 0.0
C4310 C 0.32076 0.64661 0.69516 0.0
C4311 C 0.34494 0.61989 0.69313 0.0
N4312 N 0.2851 0.63351 0.68753 0.0
N4313 N 0.32904 0.61821 0.68563 0.0
H4314 H 0.90132 0.09572 0.05047 0.0
H4315 H 0.84789 0.00715 0.04051 0.0
H4316 H 0.85703 0.09027 0.01634 0.0
H4317 H 0.87425 0.02108 0.08815 0.0
H4318 H 0.85575 0.0355 0.02829 0.0
H4319 H 0.89614 0.06603 0.06124 0.0
C4320 C 0.89065 0.0882 0.04511 0.0
C4321 C 0.87953 0.09544 0.03257 0.0
C4322 C 0.85984 0.0323 0.0414 0.0
C4323 C 0.87365 0.06166 0.04468 0.0
C4324 C 0.85541 0.01613 0.04836 0.0
C4325 C 0.86033 0.01182 0.06541 0.0
C4326 C 0.8695 0.04412 0.05144 0.0
C4327 C 0.87007 0.02396 0.07501 0.0
C4328 C 0.88765 0.07136 0.05133 0.0
C4329 C 0.86583 0.08521 0.02611 0.0
N4330 N 0.87439 0.03958 0.06787 0.0
N4331 N 0.8633 0.06882 0.03221 0.0
H4332 H 0.72218 0.12398 0.84409 0.0
H4333 H 0.64535 0.10598 0.77769 0.0
H4334 H 0.72989 0.09663 0.79562 0.0
H4335 H 0.64696 0.15356 0.80754 0.0
H4336 H 0.67463 0.09894 0.78793 0.0
H4337 H 0.69264 0.1318 0.83448 0.0
C4338 C 0.71764 0.1196 0.83148 0.0
C4339 C 0.72845 0.10968 0.8206 0.0
C4340 C 0.66856 0.11092 0.79221 0.0
C4341 C 0.69488 0.11831 0.80976 0.0
C4342 C 0.65186 0.11492 0.78646 0.0
C4343 C 0.64378 0.1304 0.79175 0.0
C4344 C 0.67713 0.12231 0.80362 0.0
C4345 C 0.65282 0.14155 0.80307 0.0
C4346 C 0.70089 0.12413 0.826 0.0
C4347 C 0.72201 0.10438 0.80436 0.0
N4348 N 0.66902 0.13722 0.80877 0.0
N4349 N 0.70558 0.10863 0.79949 0.0
H4350 H 0.84893 0.83963 0.30725 0.0
H4351 H 0.7601 0.88958 0.28934 0.0
H4352 H 0.84489 0.88301 0.27175 0.0
H4353 H 0.77157 0.86749 0.33974 0.0
H4354 H 0.78949 0.88221 0.27974 0.0
H4355 H 0.81873 0.84487 0.31649 0.0
C4356 C 0.84164 0.85014 0.30132 0.0
C4357 C 0.84937 0.86095 0.28876 0.0
C4358 C 0.78554 0.87894 0.29288 0.0
C4359 C 0.81503 0.86681 0.29907 0.0
C4360 C 0.76877 0.88307 0.29836 0.0
C4361 C 0.76344 0.8792 0.3154 0.0
C4362 C 0.79698 0.87064 0.30441 0.0
C4363 C 0.77523 0.8708 0.32654 0.0
C4364 C 0.82451 0.85317 0.30665 0.0
C4365 C 0.83944 0.87445 0.28154 0.0
N4366 N 0.79149 0.86671 0.32082 0.0
N4367 N 0.82274 0.87695 0.28673 0.0
H4368 H 0.46303 0.40616 0.08796 0.0
H4369 H 0.40077 0.34989 0.02873 0.0
H4370 H 0.4453 0.35538 0.10424 0.0
H4371 H 0.44558 0.37508 0.00601 0.0
H4372 H 0.41185 0.35723 0.05779 0.0
H4373 H 0.45169 0.40018 0.05852 0.0
C4374 C 0.45671 0.39383 0.08532 0.0
C4375 C 0.45517 0.38117 0.09839 0.0
C4376 C 0.41917 0.36118 0.04639 0.0
C4377 C 0.44192 0.37455 0.06529 0.0
C4378 C 0.41287 0.35707 0.02988 0.0
C4379 C 0.42238 0.36182 0.01505 0.0
C4380 C 0.43479 0.3705 0.04799 0.0
C4381 C 0.43799 0.37107 0.0172 0.0
C4382 C 0.45034 0.39043 0.06862 0.0
C4383 C 0.44689 0.36538 0.09442 0.0
N4384 N 0.44369 0.37526 0.03342 0.0
N4385 N 0.4404 0.36257 0.07825 0.0
H4386 H 0.39914 0.70011 0.75811 0.0
H4387 H 0.34384 0.69191 0.84552 0.0
H4388 H 0.37037 0.65353 0.77098 0.0
H4389 H 0.38933 0.7246 0.84074 0.0
H4390 H 0.34922 0.68077 0.81605 0.0
H4391 H 0.39136 0.71236 0.78637 0.0
C4392 C 0.3911 0.69249 0.76684 0.0
C4393 C 0.38546 0.67573 0.76223 0.0
C4394 C 0.35794 0.69043 0.82148 0.0
C4395 C 0.37644 0.68975 0.79452 0.0
C4396 C 0.35484 0.69687 0.8382 0.0
C4397 C 0.3662 0.70915 0.84555 0.0
C4398 C 0.37231 0.69659 0.81201 0.0
C4399 C 0.38032 0.71506 0.83559 0.0
C4400 C 0.38672 0.69947 0.78298 0.0
C4401 C 0.37508 0.66644 0.77408 0.0
N4402 N 0.38295 0.70876 0.8193 0.0
N4403 N 0.37085 0.67361 0.78971 0.0
H4404 H 0.09098 0.61841 0.52036 0.0
H4405 H 0.02289 0.63077 0.59642 0.0
H4406 H 0.03979 0.6398 0.5115 0.0
H4407 H 0.05845 0.58729 0.59659 0.0
H4408 H 0.03148 0.63732 0.56649 0.0
H4409 H 0.08181 0.6097 0.54975 0.0
C4410 C 0.07783 0.62126 0.5246 0.0
C4411 C 0.06611 0.62985 0.51353 0.0
C4412 C 0.03734 0.6263 0.57306 0.0
C4413 C 0.05572 0.62017 0.54698 0.0
C4414 C 0.03251 0.6226 0.59013 0.0
C4415 C 0.03998 0.60847 0.59894 0.0
C4416 C 0.05 0.61604 0.56486 0.0
C4417 C 0.05233 0.59825 0.59018 0.0
C4418 C 0.07261 0.61621 0.54128 0.0
C4419 C 0.04921 0.63316 0.5196 0.0
N4420 N 0.05713 0.60235 0.57362 0.0
N4421 N 0.04457 0.62848 0.53599 0.0
H4422 H 0.11198 0.27393 0.34469 0.0
H4423 H 0.12868 0.34523 0.27218 0.0
H4424 H 0.15692 0.30762 0.34697 0.0
H4425 H 0.10201 0.29685 0.26168 0.0
H4426 H 0.1373 0.33378 0.30077 0.0
H4427 H 0.10608 0.28427 0.31523 0.0
C4428 C 0.12064 0.28348 0.33894 0.0
C4429 C 0.13495 0.28995 0.34824 0.0
C4430 C 0.12967 0.32568 0.29211 0.0
C4431 C 0.12813 0.30199 0.31465 0.0
C4432 C 0.12467 0.33222 0.27587 0.0
C4433 C 0.11457 0.32199 0.26458 0.0
C4434 C 0.12421 0.30897 0.29715 0.0
C4435 C 0.10981 0.30518 0.26996 0.0
C4436 C 0.1173 0.28932 0.32212 0.0
C4437 C 0.1458 0.30225 0.34016 0.0
N4438 N 0.11452 0.29927 0.28592 0.0
N4439 N 0.14205 0.30806 0.32384 0.0
H4440 H 0.47719 0.63507 0.40124 0.0
H4441 H 0.40569 0.6172 0.47305 0.0
H4442 H 0.44101 0.59231 0.39639 0.0
H4443 H 0.45526 0.64088 0.48504 0.0
H4444 H 0.41673 0.6097 0.44405 0.0
H4445 H 0.46769 0.63931 0.43128 0.0
C4446 C 0.46728 0.62653 0.40655 0.0
C4447 C 0.45983 0.61334 0.39636 0.0
C4448 C 0.42519 0.61641 0.45312 0.0
C4449 C 0.44878 0.61827 0.43059 0.0
C4450 C 0.4189 0.62077 0.4696 0.0
C4451 C 0.42957 0.62974 0.48142 0.0
C4452 C 0.44213 0.62137 0.44836 0.0
C4453 C 0.4466 0.63396 0.47634 0.0
C4454 C 0.46193 0.62891 0.42369 0.0
C4455 C 0.44711 0.60259 0.40388 0.0
N4456 N 0.45229 0.6299 0.46011 0.0
N4457 N 0.4418 0.60542 0.42053 0.0
H4458 H 0.15164 0.68663 0.14577 0.0
H4459 H 0.10303 0.70079 0.23606 0.0
H4460 H 0.10941 0.72293 0.153 0.0
H4461 H 0.12392 0.65048 0.2222 0.0
H4462 H 0.11066 0.71162 0.20729 0.0
H4463 H 0.14668 0.6756 0.17549 0.0
C4464 C 0.14147 0.69236 0.15366 0.0
C4465 C 0.13088 0.70567 0.14697 0.0
C4466 C 0.11361 0.69822 0.21055 0.0
C4467 C 0.12533 0.69333 0.18071 0.0
C4468 C 0.10932 0.69202 0.22699 0.0
C4469 C 0.11275 0.67465 0.23151 0.0
C4470 C 0.12161 0.68709 0.19852 0.0
C4471 C 0.12093 0.66392 0.21918 0.0
C4472 C 0.13859 0.686 0.17049 0.0
C4473 C 0.11779 0.71259 0.15763 0.0
N4474 N 0.12515 0.67034 0.20318 0.0
N4475 N 0.11545 0.7064 0.17399 0.0
H4476 H 0.04052 0.35124 0.98755 0.0
H4477 H 0.05386 0.40544 0.90011 0.0
H4478 H 0.08947 0.37598 0.9751 0.0
H4479 H 0.01869 0.36177 0.90423 0.0
H4480 H 0.06403 0.39954 0.92987 0.0
H4481 H 0.02928 0.35987 0.9591 0.0
C4482 C 0.04888 0.35858 0.97887 0.0
C4483 C 0.066 0.36281 0.98363 0.0
C4484 C 0.05402 0.39135 0.92422 0.0
C4485 C 0.05313 0.37284 0.95117 0.0
C4486 C 0.04815 0.39476 0.90735 0.0
C4487 C 0.03547 0.38402 0.89974 0.0
C4488 C 0.04689 0.37735 0.93357 0.0
C4489 C 0.02857 0.37028 0.90959 0.0
C4490 C 0.04246 0.36345 0.96263 0.0
C4491 C 0.07625 0.37233 0.97185 0.0
N4492 N 0.03433 0.36737 0.92603 0.0
N4493 N 0.06963 0.37709 0.95613 0.0
H4494 H 0.38501 0.27256 0.6504 0.0
H4495 H 0.36811 0.34242 0.72403 0.0
H4496 H 0.33858 0.30417 0.65067 0.0
H4497 H 0.39646 0.29495 0.73401 0.0
H4498 H 0.35943 0.33083 0.69559 0.0
H4499 H 0.39176 0.28275 0.6798 0.0
C4500 C 0.37621 0.28161 0.65669 0.0
C4501 C 0.36122 0.28756 0.64814 0.0
C4502 C 0.36747 0.32296 0.70408 0.0
C4503 C 0.369 0.29942 0.68156 0.0
C4504 C 0.37252 0.32958 0.72022 0.0
C4505 C 0.38305 0.31962 0.73134 0.0
C4506 C 0.37331 0.30644 0.69892 0.0
C4507 C 0.3883 0.30302 0.72584 0.0
C4508 C 0.38004 0.28735 0.67345 0.0
C4509 C 0.35022 0.29922 0.65687 0.0
N4510 N 0.38352 0.29701 0.70992 0.0
N4511 N 0.35444 0.30495 0.67308 0.0
H4512 H 0.09803 0.43933 0.40843 0.0
H4513 H 0.01112 0.45485 0.3547 0.0
H4514 H 0.0959 0.47222 0.36291 0.0
H4515 H 0.02195 0.40509 0.37849 0.0
H4516 H 0.0403 0.46469 0.36267 0.0
H4517 H 0.06805 0.42974 0.40242 0.0
C4518 C 0.0912 0.44461 0.39728 0.0
C4519 C 0.09939 0.45653 0.3861 0.0
C4520 C 0.03625 0.45164 0.36618 0.0
C4521 C 0.06533 0.44586 0.37938 0.0
C4522 C 0.0196 0.44603 0.36172 0.0
C4523 C 0.01417 0.4291 0.36589 0.0
C4524 C 0.04743 0.44037 0.37515 0.0
C4525 C 0.02572 0.4182 0.37494 0.0
C4526 C 0.07421 0.43907 0.39383 0.0
C4527 C 0.09007 0.46292 0.37177 0.0
N4528 N 0.04184 0.42406 0.37936 0.0
N4529 N 0.07348 0.45759 0.36888 0.0
H4530 H 0.29954 0.35453 0.10041 0.0
H4531 H 0.29542 0.25451 0.12205 0.0
H4532 H 0.28025 0.3374 0.15032 0.0
H4533 H 0.34043 0.27671 0.09676 0.0
H4534 H 0.28507 0.28406 0.1287 0.0
H4535 H 0.31011 0.32495 0.09473 0.0
C4536 C 0.29744 0.3445 0.11011 0.0
C4537 C 0.28904 0.34832 0.12585 0.0
C4538 C 0.29722 0.28237 0.12174 0.0
C4539 C 0.3008 0.31464 0.11933 0.0
C4540 C 0.30307 0.26561 0.11788 0.0
C4541 C 0.31879 0.26327 0.10889 0.0
C4542 C 0.30693 0.29678 0.1161 0.0
C4543 C 0.32829 0.27802 0.10382 0.0
C4544 C 0.30355 0.32773 0.1069 0.0
C4545 C 0.28675 0.33493 0.13806 0.0
N4546 N 0.3221 0.2942 0.10731 0.0
N4547 N 0.29244 0.31856 0.13447 0.0
H4548 H 0.40022 0.55663 0.90578 0.0
H4549 H 0.48733 0.53518 0.85388 0.0
H4550 H 0.40291 0.51952 0.86369 0.0
H4551 H 0.47799 0.58641 0.87508 0.0
H4552 H 0.45816 0.52645 0.86282 0.0
H4553 H 0.43058 0.56505 0.89975 0.0
C4554 C 0.40724 0.55017 0.8954 0.0
C4555 C 0.39909 0.53741 0.88516 0.0
C4556 C 0.46252 0.53958 0.86557 0.0
C4557 C 0.43357 0.54677 0.87841 0.0
C4558 C 0.47919 0.54458 0.86054 0.0
C4559 C 0.48506 0.5616 0.86364 0.0
C4560 C 0.45167 0.55159 0.87399 0.0
C4561 C 0.47391 0.5732 0.87232 0.0
C4562 C 0.42446 0.55504 0.89193 0.0
C4563 C 0.40868 0.5295 0.87181 0.0
N4564 N 0.45769 0.56796 0.87724 0.0
N4565 N 0.42544 0.53425 0.86888 0.0
H4566 H 0.21817 0.65129 0.60101 0.0
H4567 H 0.14806 0.72414 0.62178 0.0
H4568 H 0.18931 0.65183 0.64923 0.0
H4569 H 0.1933 0.73442 0.59003 0.0
H4570 H 0.16022 0.69561 0.62927 0.0
H4571 H 0.20641 0.68007 0.59402 0.0
C4572 C 0.20936 0.65747 0.61012 0.0
C4573 C 0.20471 0.64922 0.62573 0.0
C4574 C 0.16746 0.70416 0.62069 0.0
C4575 C 0.1911 0.68192 0.61771 0.0
C4576 C 0.16051 0.72037 0.61634 0.0
C4577 C 0.16971 0.73163 0.60528 0.0
C4578 C 0.18353 0.6991 0.61365 0.0
C4579 C 0.18583 0.72615 0.59866 0.0
C4580 C 0.20272 0.67389 0.60615 0.0
C4581 C 0.19329 0.65781 0.6371 0.0
N4582 N 0.19218 0.71019 0.60285 0.0
N4583 N 0.18674 0.67367 0.6328 0.0
H4584 H 0.09371 0.55729 0.08962 0.0
H4585 H 0.00757 0.54341 0.14503 0.0
H4586 H 0.09123 0.5241 0.13491 0.0
H4587 H 0.01797 0.59247 0.11958 0.0
H4588 H 0.03651 0.53337 0.1369 0.0
H4589 H 0.06416 0.56774 0.09618 0.0
C4590 C 0.0869 0.55213 0.10085 0.0
C4591 C 0.09487 0.53982 0.11176 0.0
C4592 C 0.03245 0.54632 0.13308 0.0
C4593 C 0.06128 0.55153 0.11915 0.0
C4594 C 0.01591 0.55206 0.13764 0.0
C4595 C 0.01037 0.56884 0.13301 0.0
C4596 C 0.04351 0.55731 0.12359 0.0
C4597 C 0.02179 0.57948 0.12348 0.0
C4598 C 0.07016 0.55817 0.10462 0.0
C4599 C 0.08558 0.53364 0.12621 0.0
N4600 N 0.03786 0.5735 0.11899 0.0
N4601 N 0.06923 0.53948 0.12942 0.0
H4602 H 0.22456 0.34194 0.88471 0.0
H4603 H 0.1521 0.27033 0.86873 0.0
H4604 H 0.18922 0.34506 0.84114 0.0
H4605 H 0.20069 0.25874 0.89447 0.0
H4606 H 0.16374 0.29889 0.86044 0.0
H4607 H 0.2143 0.31238 0.89053 0.0
C4608 C 0.21467 0.33636 0.87634 0.0
C4609 C 0.20769 0.34594 0.86244 0.0
C4610 C 0.17186 0.29002 0.86781 0.0
C4611 C 0.19578 0.31225 0.86916 0.0
C4612 C 0.16521 0.27379 0.87262 0.0
C4613 C 0.17544 0.26219 0.88234 0.0
C4614 C 0.18871 0.29477 0.87305 0.0
C4615 C 0.19237 0.26727 0.88695 0.0
C4616 C 0.20889 0.31949 0.87962 0.0
C4617 C 0.19498 0.33807 0.85194 0.0
N4618 N 0.19842 0.28326 0.88241 0.0
N4619 N 0.18926 0.32171 0.85564 0.0
H4620 H 0.38998 0.44239 0.63934 0.0
H4621 H 0.49026 0.44815 0.61982 0.0
H4622 H 0.40751 0.46245 0.58987 0.0
H4623 H 0.46798 0.40298 0.64478 0.0
H4624 H 0.46074 0.45798 0.61219 0.0
H4625 H 0.41955 0.43215 0.64532 0.0
C4626 C 0.4001 0.44469 0.62978 0.0
C4627 C 0.39638 0.45324 0.61409 0.0
C4628 C 0.46242 0.4459 0.61928 0.0
C4629 C 0.43011 0.44186 0.62099 0.0
C4630 C 0.47916 0.44035 0.62371 0.0
C4631 C 0.48147 0.42475 0.63293 0.0
C4632 C 0.44801 0.43599 0.62456 0.0
C4633 C 0.46672 0.41505 0.6376 0.0
C4634 C 0.41688 0.43878 0.63316 0.0
C4635 C 0.4099 0.45581 0.60207 0.0
N4636 N 0.45057 0.42094 0.63355 0.0
N4637 N 0.4263 0.4503 0.60585 0.0
H4638 H 0.2711 0.65214 0.38413 0.0
H4639 H 0.34259 0.72438 0.36718 0.0
H4640 H 0.30482 0.64991 0.33923 0.0
H4641 H 0.29429 0.73535 0.39376 0.0
H4642 H 0.33094 0.69583 0.35873 0.0
H4643 H 0.2814 0.68168 0.38998 0.0
C4644 C 0.28063 0.65791 0.37547 0.0
C4645 C 0.28713 0.64862 0.36118 0.0
C4646 C 0.3229 0.70459 0.36631 0.0
C4647 C 0.29911 0.68223 0.36793 0.0
C4648 C 0.32955 0.7208 0.3712 0.0
C4649 C 0.31939 0.7322 0.38121 0.0
C4650 C 0.30617 0.69969 0.37179 0.0
C4651 C 0.30255 0.72697 0.38601 0.0
C4652 C 0.28644 0.67477 0.37877 0.0
C4653 C 0.29942 0.65671 0.35033 0.0
N4654 N 0.29653 0.71102 0.3814 0.0
N4655 N 0.30519 0.67303 0.35404 0.0
H4656 H 0.35398 0.10416 0.44156 0.0
H4657 H 0.37716 0.00501 0.44525 0.0
H4658 H 0.40401 0.0882 0.46148 0.0
H4659 H 0.35258 0.02675 0.39967 0.0
H4660 H 0.38391 0.03463 0.4553 0.0
H4661 H 0.34958 0.07475 0.42994 0.0
C4662 C 0.36398 0.09442 0.44355 0.0
C4663 C 0.37936 0.0985 0.45249 0.0
C4664 C 0.37717 0.03283 0.44305 0.0
C4665 C 0.3743 0.06502 0.43951 0.0
C4666 C 0.37326 0.01603 0.43736 0.0
C4667 C 0.36433 0.01354 0.42163 0.0
C4668 C 0.37161 0.04714 0.43318 0.0
C4669 C 0.35958 0.02818 0.41182 0.0
C4670 C 0.36151 0.07775 0.43683 0.0
C4671 C 0.392 0.0855 0.45461 0.0
N4672 N 0.36304 0.04442 0.4179 0.0
N4673 N 0.3891 0.0692 0.44834 0.0
H4674 H 0.8548 0.38714 0.55003 0.0
H4675 H 0.87631 0.4868 0.54717 0.0
H4676 H 0.90479 0.40391 0.5306 0.0
H4677 H 0.85206 0.46394 0.59242 0.0
H4678 H 0.88342 0.45742 0.53663 0.0
H4679 H 0.84976 0.41645 0.56148 0.0
C4680 C 0.86466 0.39705 0.54811 0.0
C4681 C 0.88021 0.39321 0.53937 0.0
C4682 C 0.87663 0.45894 0.54889 0.0
C4683 C 0.87442 0.42662 0.55215 0.0
C4684 C 0.87249 0.4756 0.55485 0.0
C4685 C 0.86359 0.4777 0.57065 0.0
C4686 C 0.87136 0.4444 0.55859 0.0
C4687 C 0.859 0.46283 0.5802 0.0
C4688 C 0.86183 0.41367 0.55473 0.0
C4689 C 0.89266 0.40642 0.53734 0.0
N4690 N 0.86272 0.44675 0.57389 0.0
N4691 N 0.88941 0.4227 0.54352 0.0
H4692 H 0.33816 0.16018 0.28178 0.0
H4693 H 0.27923 0.10292 0.3439 0.0
H4694 H 0.3553 0.11019 0.30079 0.0
H4695 H 0.25676 0.12764 0.29874 0.0
H4696 H 0.30829 0.11119 0.3335 0.0
H4697 H 0.30878 0.15389 0.29313 0.0
C4698 C 0.33574 0.14797 0.28841 0.0
C4699 C 0.34902 0.1356 0.29028 0.0
C4700 C 0.29695 0.11486 0.32597 0.0
C4701 C 0.31597 0.12863 0.30352 0.0
C4702 C 0.28043 0.11022 0.33189 0.0
C4703 C 0.26567 0.11452 0.32207 0.0
C4704 C 0.29862 0.12426 0.3104 0.0
C4705 C 0.26789 0.12395 0.30657 0.0
C4706 C 0.31906 0.14439 0.29479 0.0
C4707 C 0.34531 0.11996 0.29894 0.0
N4708 N 0.28411 0.12863 0.30123 0.0
N4709 N 0.32915 0.11697 0.30539 0.0
H4710 H 0.64255 0.59326 0.02608 0.0
H4711 H 0.62039 0.5202 0.09554 0.0
H4712 H 0.59404 0.59345 0.05446 0.0
H4713 H 0.65104 0.50959 0.04965 0.0
H4714 H 0.6134 0.54905 0.08371 0.0
H4715 H 0.64883 0.56428 0.03774 0.0
C4716 C 0.63324 0.5872 0.03479 0.0
C4717 C 0.61774 0.5957 0.0393 0.0
C4718 C 0.62161 0.54034 0.07626 0.0
C4719 C 0.62495 0.56277 0.05279 0.0
C4720 C 0.62566 0.52396 0.08301 0.0
C4721 C 0.63628 0.51253 0.07353 0.0
C4722 C 0.62855 0.54539 0.06013 0.0
C4723 C 0.64273 0.51799 0.05733 0.0
C4724 C 0.6368 0.57067 0.04136 0.0
C4725 C 0.60609 0.58727 0.05059 0.0
N4726 N 0.63888 0.53411 0.05119 0.0
N4727 N 0.61 0.57128 0.05709 0.0
H4728 H 0.6522 0.38397 0.27025 0.0
H4729 H 0.72548 0.3696 0.34133 0.0
H4730 H 0.65044 0.34002 0.30525 0.0
H4731 H 0.73588 0.39343 0.29148 0.0
H4732 H 0.6964 0.36131 0.33083 0.0
H4733 H 0.68163 0.39052 0.28043 0.0
C4734 C 0.65804 0.37568 0.28006 0.0
C4735 C 0.64895 0.36141 0.2869 0.0
C4736 C 0.70514 0.36828 0.32223 0.0
C4737 C 0.68242 0.36897 0.29874 0.0
C4738 C 0.72165 0.37307 0.32821 0.0
C4739 C 0.73307 0.3822 0.31724 0.0
C4740 C 0.7 0.373 0.30534 0.0
C4741 C 0.72751 0.38634 0.30034 0.0
C4742 C 0.67483 0.37939 0.2858 0.0
C4743 C 0.65711 0.35107 0.29956 0.0
N4744 N 0.71131 0.38184 0.29496 0.0
N4745 N 0.67338 0.35515 0.30523 0.0
H4746 H 0.13929 0.96601 0.89314 0.0
H4747 H 0.08214 0.90905 0.9576 0.0
H4748 H 0.11675 0.98861 0.93935 0.0
H4749 H 0.13002 0.88942 0.93579 0.0
H4750 H 0.08909 0.938 0.94567 0.0
H4751 H 0.13021 0.93706 0.90337 0.0
C4752 C 0.13229 0.96487 0.90533 0.0
C4753 C 0.12885 0.97962 0.91551 0.0
C4754 C 0.09798 0.92727 0.94348 0.0
C4755 C 0.11821 0.94685 0.92699 0.0
C4756 C 0.09402 0.91083 0.9502 0.0
C4757 C 0.10562 0.89696 0.94775 0.0
C4758 C 0.11334 0.92961 0.93386 0.0
C4759 C 0.12085 0.89987 0.93809 0.0
C4760 C 0.1272 0.94842 0.91116 0.0
C4761 C 0.11978 0.9775 0.93123 0.0
N4762 N 0.12423 0.91587 0.93138 0.0
N4763 N 0.11466 0.96139 0.93647 0.0
H4764 H 0.34777 0.88597 0.21786 0.0
H4765 H 0.27091 0.86691 0.15213 0.0
H4766 H 0.34758 0.83908 0.18689 0.0
H4767 H 0.26231 0.89155 0.20189 0.0
H4768 H 0.30078 0.8599 0.16125 0.0
H4769 H 0.31792 0.89186 0.20851 0.0
C4770 C 0.34145 0.87695 0.20903 0.0
C4771 C 0.35008 0.86199 0.20316 0.0
C4772 C 0.29226 0.86677 0.17013 0.0
C4773 C 0.31613 0.86878 0.1923 0.0
C4774 C 0.27531 0.87083 0.16495 0.0
C4775 C 0.26417 0.87978 0.17631 0.0
C4776 C 0.29813 0.87212 0.18658 0.0
C4777 C 0.27046 0.88454 0.19278 0.0
C4778 C 0.32443 0.88028 0.20379 0.0
C4779 C 0.34129 0.8507 0.19179 0.0
N4780 N 0.28709 0.88081 0.19737 0.0
N4781 N 0.32478 0.85439 0.18659 0.0
H4782 H 0.15191 0.1106 0.72355 0.0
H4783 H 0.2269 0.12516 0.65486 0.0
H4784 H 0.1507 0.15462 0.68865 0.0
H4785 H 0.2366 0.10264 0.70543 0.0
H4786 H 0.19771 0.1337 0.66471 0.0
H4787 H 0.18194 0.10486 0.71477 0.0
C4788 C 0.15801 0.11907 0.71405 0.0
C4789 C 0.14887 0.1331 0.70679 0.0
C4790 C 0.20633 0.127 0.67364 0.0
C4791 C 0.18306 0.12645 0.69655 0.0
C4792 C 0.2229 0.12206 0.66802 0.0
C4793 C 0.23413 0.11315 0.67935 0.0
C4794 C 0.2009 0.12264 0.69053 0.0
C4795 C 0.22836 0.10952 0.69629 0.0
C4796 C 0.17514 0.11584 0.70912 0.0
C4797 C 0.15738 0.14373 0.6946 0.0
N4798 N 0.21206 0.1141 0.70131 0.0
N4799 N 0.17399 0.14006 0.68967 0.0
loop_
_geom_bond_atom_site_label_1
_geom_bond_atom_site_label_2
_geom_bond_distance
_geom_bond_site_symmetry_2
_ccdc_geom_bond_type
C0 O2 1.247 1_655 S
C0 O4 1.258 1_655 S
C1 O8 1.247 . S
C1 O9 1.258 . S
O2 C0 1.247 1_455 S
O2 Zn3 2.028 . S
Zn3 O2 2.028 . S
Zn3 O7 2.035 . S
Zn3 O9 2.035 . S
Zn3 O10 2.028 . S
O4 C0 1.258 1_455 S
O4 Zn5 2.035 . S
Zn5 O4 2.035 . S
Zn5 O6 2.028 . S
Zn5 O8 2.028 . S
Zn5 O11 2.035 . S
O6 Zn5 2.028 . S
O6 C12 1.247 . S
O7 Zn3 2.035 . S
O7 C12 1.258 . S
O8 C1 1.247 . S
O8 Zn5 2.028 . S
O9 C1 1.258 . S
O9 Zn3 2.035 . S
O10 Zn3 2.028 . S
O10 C13 1.247 . S
O11 Zn5 2.035 . S
O11 C13 1.258 . S
C12 O6 1.247 . S
C12 O7 1.258 . S
C13 O10 1.247 . S
C13 O11 1.258 . S
C14 O16 1.247 . S
C14 O18 1.258 . S
C15 O22 1.247 . S
C15 O23 1.258 . S
O16 C14 1.247 . S
O16 Zn17 2.028 . S
Zn17 O16 2.028 . S
Zn17 O21 2.035 . S
Zn17 O23 2.035 . S
Zn17 O24 2.028 . S
O18 C14 1.258 . S
O18 Zn19 2.035 . S
Zn19 O18 2.035 . S
Zn19 O20 2.028 . S
Zn19 O22 2.028 . S
Zn19 O25 2.035 . S
O20 Zn19 2.028 . S
O20 C26 1.247 . S
O21 Zn17 2.035 . S
O21 C26 1.258 . S
O22 C15 1.247 . S
O22 Zn19 2.028 . S
O23 C15 1.258 . S
O23 Zn17 2.035 . S
O24 Zn17 2.028 . S
O24 C27 1.247 . S
O25 Zn19 2.035 . S
O25 C27 1.258 . S
C26 O20 1.247 . S
C26 O21 1.258 . S
C27 O24 1.247 . S
C27 O25 1.258 . S
C28 O30 1.247 . S
C28 O32 1.258 . S
C29 O36 1.247 . S
C29 O37 1.258 . S
O30 C28 1.247 . S
O30 Zn31 2.028 . S
Zn31 O30 2.028 . S
Zn31 O35 2.035 . S
Zn31 O37 2.035 . S
Zn31 O38 2.028 . S
O32 C28 1.258 . S
O32 Zn33 2.035 . S
Zn33 O32 2.035 . S
Zn33 O34 2.028 . S
Zn33 O36 2.028 . S
Zn33 O39 2.035 . S
O34 Zn33 2.028 . S
O34 C40 1.247 . S
O35 Zn31 2.035 . S
O35 C40 1.258 . S
O36 C29 1.247 . S
O36 Zn33 2.028 . S
O37 C29 1.258 . S
O37 Zn31 2.035 . S
O38 Zn31 2.028 . S
O38 C41 1.247 . S
O39 Zn33 2.035 . S
O39 C41 1.258 . S
C40 O34 1.247 . S
C40 O35 1.258 . S
C41 O38 1.247 . S
C41 O39 1.258 . S
C42 O44 1.247 . S
C42 O46 1.258 . S
C43 O50 1.247 . S
C43 O51 1.258 . S
O44 C42 1.247 . S
O44 Zn45 2.028 . S
Zn45 O44 2.028 . S
Zn45 O49 2.035 . S
Zn45 O51 2.035 . S
Zn45 O52 2.028 . S
O46 C42 1.258 . S
O46 Zn47 2.035 . S
Zn47 O46 2.035 . S
Zn47 O48 2.028 . S
Zn47 O50 2.028 . S
Zn47 O53 2.035 . S
O48 Zn47 2.028 . S
O48 C54 1.247 . S
O49 Zn45 2.035 . S
O49 C54 1.258 . S
O50 C43 1.247 . S
O50 Zn47 2.028 . S
O51 C43 1.258 . S
O51 Zn45 2.035 . S
O52 Zn45 2.028 . S
O52 C55 1.247 . S
O53 Zn47 2.035 . S
O53 C55 1.258 . S
C54 O48 1.247 . S
C54 O49 1.258 . S
C55 O52 1.247 . S
C55 O53 1.258 . S
C56 O58 1.247 1_655 S
C56 O60 1.258 1_655 S
C57 O64 1.247 . S
C57 O65 1.258 . S
O58 C56 1.247 1_455 S
O58 Zn59 2.028 . S
Zn59 O58 2.028 . S
Zn59 O63 2.035 . S
Zn59 O65 2.035 . S
Zn59 O66 2.028 . S
O60 C56 1.258 1_455 S
O60 Zn61 2.035 . S
Zn61 O60 2.035 . S
Zn61 O62 2.028 . S
Zn61 O64 2.028 . S
Zn61 O67 2.035 . S
O62 Zn61 2.028 . S
O62 C68 1.247 . S
O63 Zn59 2.035 . S
O63 C68 1.258 . S
O64 C57 1.247 . S
O64 Zn61 2.028 . S
O65 C57 1.258 . S
O65 Zn59 2.035 . S
O66 Zn59 2.028 . S
O66 C69 1.247 . S
O67 Zn61 2.035 . S
O67 C69 1.258 . S
C68 O62 1.247 . S
C68 O63 1.258 . S
C69 O66 1.247 . S
C69 O67 1.258 . S
C70 O72 1.247 . S
C70 O74 1.258 . S
C71 O78 1.247 . S
C71 O79 1.258 . S
O72 C70 1.247 . S
O72 Zn73 2.028 . S
Zn73 O72 2.028 . S
Zn73 O77 2.035 . S
Zn73 O79 2.035 . S
Zn73 O80 2.028 . S
O74 C70 1.258 . S
O74 Zn75 2.035 . S
Zn75 O74 2.035 . S
Zn75 O76 2.028 . S
Zn75 O78 2.028 . S
Zn75 O81 2.035 . S
O76 Zn75 2.028 . S
O76 C82 1.247 . S
O77 Zn73 2.035 . S
O77 C82 1.258 . S
O78 C71 1.247 . S
O78 Zn75 2.028 . S
O79 C71 1.258 . S
O79 Zn73 2.035 . S
O80 Zn73 2.028 . S
O80 C83 1.247 . S
O81 Zn75 2.035 . S
O81 C83 1.258 . S
C82 O76 1.247 . S
C82 O77 1.258 . S
C83 O80 1.247 . S
C83 O81 1.258 . S
C84 O86 1.247 . S
C84 O88 1.258 . S
C85 O92 1.247 . S
C85 O93 1.258 . S
O86 C84 1.247 . S
O86 Zn87 2.028 . S
Zn87 O86 2.028 . S
Zn87 O91 2.035 . S
Zn87 O93 2.035 . S
Zn87 O94 2.028 . S
O88 C84 1.258 . S
O88 Zn89 2.035 . S
Zn89 O88 2.035 . S
Zn89 O90 2.028 . S
Zn89 O92 2.028 . S
Zn89 O95 2.035 . S
O90 Zn89 2.028 . S
O90 C96 1.247 . S
O91 Zn87 2.035 . S
O91 C96 1.258 . S
O92 C85 1.247 . S
O92 Zn89 2.028 . S
O93 C85 1.258 . S
O93 Zn87 2.035 . S
O94 Zn87 2.028 . S
O94 C97 1.247 . S
O95 Zn89 2.035 . S
O95 C97 1.258 . S
C96 O90 1.247 . S
C96 O91 1.258 . S
C97 O94 1.247 . S
C97 O95 1.258 . S
C98 O100 1.247 . S
C98 O102 1.258 . S
C99 O106 1.247 . S
C99 O107 1.258 . S
O100 C98 1.247 . S
O100 Zn101 2.028 . S
Zn101 O100 2.028 . S
Zn101 O105 2.035 . S
Zn101 O107 2.035 . S
Zn101 O108 2.028 . S
O102 C98 1.258 . S
O102 Zn103 2.035 . S
Zn103 O102 2.035 . S
Zn103 O104 2.028 . S
Zn103 O106 2.028 . S
Zn103 O109 2.035 . S
O104 Zn103 2.028 . S
O104 C110 1.247 . S
O105 Zn101 2.035 . S
O105 C110 1.258 . S
O106 C99 1.247 . S
O106 Zn103 2.028 . S
O107 C99 1.258 . S
O107 Zn101 2.035 . S
O108 Zn101 2.028 . S
O108 C111 1.247 . S
O109 Zn103 2.035 . S
O109 C111 1.258 . S
C110 O104 1.247 . S
C110 O105 1.258 . S
C111 O108 1.247 . S
C111 O109 1.258 . S
C112 O114 1.247 . S
C112 O116 1.258 . S
C113 O120 1.247 . S
C113 O121 1.258 . S
O114 C112 1.247 . S
O114 Zn115 2.028 . S
Zn115 O114 2.028 . S
Zn115 O119 2.035 . S
Zn115 O121 2.035 . S
Zn115 O122 2.028 . S
O116 C112 1.258 . S
O116 Zn117 2.035 . S
Zn117 O116 2.035 . S
Zn117 O118 2.028 . S
Zn117 O120 2.028 . S
Zn117 O123 2.035 . S
O118 Zn117 2.028 . S
O118 C124 1.247 . S
O119 Zn115 2.035 . S
O119 C124 1.258 . S
O120 C113 1.247 . S
O120 Zn117 2.028 . S
O121 C113 1.258 . S
O121 Zn115 2.035 . S
O122 Zn115 2.028 . S
O122 C125 1.247 1_545 S
O123 Zn117 2.035 . S
O123 C125 1.258 1_545 S
C124 O118 1.247 . S
C124 O119 1.258 . S
C125 O122 1.247 1_565 S
C125 O123 1.258 1_565 S
C126 O128 1.247 . S
C126 O130 1.258 . S
C127 O134 1.247 . S
C127 O135 1.258 . S
O128 C126 1.247 . S
O128 Zn129 2.028 . S
Zn129 O128 2.028 . S
Zn129 O133 2.035 . S
Zn129 O135 2.035 . S
Zn129 O136 2.028 . S
O130 C126 1.258 . S
O130 Zn131 2.035 . S
Zn131 O130 2.035 . S
Zn131 O132 2.028 . S
Zn131 O134 2.028 . S
Zn131 O137 2.035 . S
O132 Zn131 2.028 . S
O132 C138 1.247 . S
O133 Zn129 2.035 . S
O133 C138 1.258 . S
O134 C127 1.247 . S
O134 Zn131 2.028 . S
O135 C127 1.258 . S
O135 Zn129 2.035 . S
O136 Zn129 2.028 . S
O136 C139 1.247 . S
O137 Zn131 2.035 . S
O137 C139 1.258 . S
C138 O132 1.247 . S
C138 O133 1.258 . S
C139 O136 1.247 . S
C139 O137 1.258 . S
C140 O142 1.247 1_545 S
C140 O144 1.258 1_545 S
C141 O148 1.247 . S
C141 O149 1.258 . S
O142 C140 1.247 1_565 S
O142 Zn143 2.028 . S
Zn143 O142 2.028 . S
Zn143 O147 2.035 . S
Zn143 O149 2.035 . S
Zn143 O150 2.028 . S
O144 C140 1.258 1_565 S
O144 Zn145 2.035 . S
Zn145 O144 2.035 . S
Zn145 O146 2.028 . S
Zn145 O148 2.028 . S
Zn145 O151 2.035 . S
O146 Zn145 2.028 . S
O146 C152 1.247 . S
O147 Zn143 2.035 . S
O147 C152 1.258 . S
O148 C141 1.247 . S
O148 Zn145 2.028 . S
O149 C141 1.258 . S
O149 Zn143 2.035 . S
O150 Zn143 2.028 . S
O150 C153 1.247 . S
O151 Zn145 2.035 . S
O151 C153 1.258 . S
C152 O146 1.247 . S
C152 O147 1.258 . S
C153 O150 1.247 . S
C153 O151 1.258 . S
C154 O156 1.247 . S
C154 O158 1.258 . S
C155 O162 1.247 . S
C155 O163 1.258 . S
O156 C154 1.247 . S
O156 Zn157 2.028 . S
Zn157 O156 2.028 . S
Zn157 O161 2.035 . S
Zn157 O163 2.035 . S
Zn157 O164 2.028 . S
O158 C154 1.258 . S
O158 Zn159 2.035 . S
Zn159 O158 2.035 . S
Zn159 O160 2.028 . S
Zn159 O162 2.028 . S
Zn159 O165 2.035 . S
O160 Zn159 2.028 . S
O160 C166 1.247 . S
O161 Zn157 2.035 . S
O161 C166 1.258 . S
O162 C155 1.247 . S
O162 Zn159 2.028 . S
O163 C155 1.258 . S
O163 Zn157 2.035 . S
O164 Zn157 2.028 . S
O164 C167 1.247 . S
O165 Zn159 2.035 . S
O165 C167 1.258 . S
C166 O160 1.247 . S
C166 O161 1.258 . S
C167 O164 1.247 . S
C167 O165 1.258 . S
C168 O170 1.247 . S
C168 O172 1.258 . S
C169 O176 1.247 . S
C169 O177 1.258 . S
O170 C168 1.247 . S
O170 Zn171 2.028 . S
Zn171 O170 2.028 . S
Zn171 O175 2.035 . S
Zn171 O177 2.035 . S
Zn171 O178 2.028 . S
O172 C168 1.258 . S
O172 Zn173 2.035 . S
Zn173 O172 2.035 . S
Zn173 O174 2.028 . S
Zn173 O176 2.028 . S
Zn173 O179 2.035 . S
O174 Zn173 2.028 . S
O174 C180 1.247 . S
O175 Zn171 2.035 . S
O175 C180 1.258 . S
O176 C169 1.247 . S
O176 Zn173 2.028 . S
O177 C169 1.258 . S
O177 Zn171 2.035 . S
O178 Zn171 2.028 . S
O178 C181 1.247 1_565 S
O179 Zn173 2.035 . S
O179 C181 1.258 1_565 S
C180 O174 1.247 . S
C180 O175 1.258 . S
C181 O178 1.247 1_545 S
C181 O179 1.258 1_545 S
C182 O184 1.247 . S
C182 O186 1.258 . S
C183 O190 1.247 . S
C183 O191 1.258 . S
O184 C182 1.247 . S
O184 Zn185 2.028 . S
Zn185 O184 2.028 . S
Zn185 O189 2.035 . S
Zn185 O191 2.035 . S
Zn185 O192 2.028 . S
O186 C182 1.258 . S
O186 Zn187 2.035 . S
Zn187 O186 2.035 . S
Zn187 O188 2.028 . S
Zn187 O190 2.028 . S
Zn187 O193 2.035 . S
O188 Zn187 2.028 . S
O188 C194 1.247 . S
O189 Zn185 2.035 . S
O189 C194 1.258 . S
O190 C183 1.247 . S
O190 Zn187 2.028 . S
O191 C183 1.258 . S
O191 Zn185 2.035 . S
O192 Zn185 2.028 . S
O192 C195 1.247 . S
O193 Zn187 2.035 . S
O193 C195 1.258 . S
C194 O188 1.247 . S
C194 O189 1.258 . S
C195 O192 1.247 . S
C195 O193 1.258 . S
C196 O198 1.247 1_565 S
C196 O200 1.258 1_565 S
C197 O204 1.247 . S
C197 O205 1.258 . S
O198 C196 1.247 1_545 S
O198 Zn199 2.028 . S
Zn199 O198 2.028 . S
Zn199 O203 2.035 . S
Zn199 O205 2.035 . S
Zn199 O206 2.028 . S
O200 C196 1.258 1_545 S
O200 Zn201 2.035 . S
Zn201 O200 2.035 . S
Zn201 O202 2.028 . S
Zn201 O204 2.028 . S
Zn201 O207 2.035 . S
O202 Zn201 2.028 . S
O202 C208 1.247 . S
O203 Zn199 2.035 . S
O203 C208 1.258 . S
O204 C197 1.247 . S
O204 Zn201 2.028 . S
O205 C197 1.258 . S
O205 Zn199 2.035 . S
O206 Zn199 2.028 . S
O206 C209 1.247 . S
O207 Zn201 2.035 . S
O207 C209 1.258 . S
C208 O202 1.247 . S
C208 O203 1.258 . S
C209 O206 1.247 . S
C209 O207 1.258 . S
C210 O212 1.247 . S
C210 O214 1.258 . S
C211 O218 1.247 . S
C211 O219 1.258 . S
O212 C210 1.247 . S
O212 Zn213 2.028 . S
Zn213 O212 2.028 . S
Zn213 O217 2.035 . S
Zn213 O219 2.035 . S
Zn213 O220 2.028 . S
O214 C210 1.258 . S
O214 Zn215 2.035 . S
Zn215 O214 2.035 . S
Zn215 O216 2.028 . S
Zn215 O218 2.028 . S
Zn215 O221 2.035 . S
O216 Zn215 2.028 . S
O216 C222 1.247 . S
O217 Zn213 2.035 . S
O217 C222 1.258 . S
O218 C211 1.247 . S
O218 Zn215 2.028 . S
O219 C211 1.258 . S
O219 Zn213 2.035 . S
O220 Zn213 2.028 . S
O220 C223 1.247 . S
O221 Zn215 2.035 . S
O221 C223 1.258 . S
C222 O216 1.247 . S
C222 O217 1.258 . S
C223 O220 1.247 . S
C223 O221 1.258 . S
C224 O226 1.247 1_556 S
C224 O228 1.258 1_556 S
C225 O232 1.247 . S
C225 O233 1.258 . S
O226 C224 1.247 1_554 S
O226 Zn227 2.028 . S
Zn227 O226 2.028 . S
Zn227 O231 2.035 . S
Zn227 O233 2.035 . S
Zn227 O234 2.028 . S
O228 C224 1.258 1_554 S
O228 Zn229 2.035 . S
Zn229 O228 2.035 . S
Zn229 O230 2.028 . S
Zn229 O232 2.028 . S
Zn229 O235 2.035 . S
O230 Zn229 2.028 . S
O230 C236 1.247 . S
O231 Zn227 2.035 . S
O231 C236 1.258 . S
O232 C225 1.247 . S
O232 Zn229 2.028 . S
O233 C225 1.258 . S
O233 Zn227 2.035 . S
O234 Zn227 2.028 . S
O234 C237 1.247 . S
O235 Zn229 2.035 . S
O235 C237 1.258 . S
C236 O230 1.247 . S
C236 O231 1.258 . S
C237 O234 1.247 . S
C237 O235 1.258 . S
C238 O240 1.247 1_554 S
C238 O242 1.258 1_554 S
C239 O246 1.247 . S
C239 O247 1.258 . S
O240 C238 1.247 1_556 S
O240 Zn241 2.028 . S
Zn241 O240 2.028 . S
Zn241 O245 2.035 . S
Zn241 O247 2.035 . S
Zn241 O248 2.028 . S
O242 C238 1.258 1_556 S
O242 Zn243 2.035 . S
Zn243 O242 2.035 . S
Zn243 O244 2.028 . S
Zn243 O246 2.028 . S
Zn243 O249 2.035 . S
O244 Zn243 2.028 . S
O244 C250 1.247 . S
O245 Zn241 2.035 . S
O245 C250 1.258 . S
O246 C239 1.247 . S
O246 Zn243 2.028 . S
O247 C239 1.258 . S
O247 Zn241 2.035 . S
O248 Zn241 2.028 . S
O248 C251 1.247 . S
O249 Zn243 2.035 . S
O249 C251 1.258 . S
C250 O244 1.247 . S
C250 O245 1.258 . S
C251 O248 1.247 . S
C251 O249 1.258 . S
C252 O254 1.247 . S
C252 O256 1.258 . S
C253 O260 1.247 . S
C253 O261 1.258 . S
O254 C252 1.247 . S
O254 Zn255 2.028 . S
Zn255 O254 2.028 . S
Zn255 O259 2.035 . S
Zn255 O261 2.035 . S
Zn255 O262 2.028 . S
O256 C252 1.258 . S
O256 Zn257 2.035 . S
Zn257 O256 2.035 . S
Zn257 O258 2.028 . S
Zn257 O260 2.028 . S
Zn257 O263 2.035 . S
O258 Zn257 2.028 . S
O258 C264 1.247 . S
O259 Zn255 2.035 . S
O259 C264 1.258 . S
O260 C253 1.247 . S
O260 Zn257 2.028 . S
O261 C253 1.258 . S
O261 Zn255 2.035 . S
O262 Zn255 2.028 . S
O262 C265 1.247 . S
O263 Zn257 2.035 . S
O263 C265 1.258 . S
C264 O258 1.247 . S
C264 O259 1.258 . S
C265 O262 1.247 . S
C265 O263 1.258 . S
C266 O268 1.247 . S
C266 O270 1.258 . S
C267 O274 1.247 . S
C267 O275 1.258 . S
O268 C266 1.247 . S
O268 Zn269 2.028 . S
Zn269 O268 2.028 . S
Zn269 O273 2.035 . S
Zn269 O275 2.035 . S
Zn269 O276 2.028 . S
O270 C266 1.258 . S
O270 Zn271 2.035 . S
Zn271 O270 2.035 . S
Zn271 O272 2.028 . S
Zn271 O274 2.028 . S
Zn271 O277 2.035 . S
O272 Zn271 2.028 . S
O272 C278 1.247 . S
O273 Zn269 2.035 . S
O273 C278 1.258 . S
O274 C267 1.247 . S
O274 Zn271 2.028 . S
O275 C267 1.258 . S
O275 Zn269 2.035 . S
O276 Zn269 2.028 . S
O276 C279 1.247 . S
O277 Zn271 2.035 . S
O277 C279 1.258 . S
C278 O272 1.247 . S
C278 O273 1.258 . S
C279 O276 1.247 . S
C279 O277 1.258 . S
C280 O282 1.247 . S
C280 O284 1.258 . S
C281 O288 1.247 . S
C281 O289 1.258 . S
O282 C280 1.247 . S
O282 Zn283 2.028 . S
Zn283 O282 2.028 . S
Zn283 O287 2.035 . S
Zn283 O289 2.035 . S
Zn283 O290 2.028 . S
O284 C280 1.258 . S
O284 Zn285 2.035 . S
Zn285 O284 2.035 . S
Zn285 O286 2.028 . S
Zn285 O288 2.028 . S
Zn285 O291 2.035 . S
O286 Zn285 2.028 . S
O286 C292 1.247 . S
O287 Zn283 2.035 . S
O287 C292 1.258 . S
O288 C281 1.247 . S
O288 Zn285 2.028 . S
O289 C281 1.258 . S
O289 Zn283 2.035 . S
O290 Zn283 2.028 . S
O290 C293 1.247 . S
O291 Zn285 2.035 . S
O291 C293 1.258 . S
C292 O286 1.247 . S
C292 O287 1.258 . S
C293 O290 1.247 . S
C293 O291 1.258 . S
C294 O296 1.247 . S
C294 O298 1.258 . S
C295 O302 1.247 . S
C295 O303 1.258 . S
O296 C294 1.247 . S
O296 Zn297 2.028 . S
Zn297 O296 2.028 . S
Zn297 O301 2.035 . S
Zn297 O303 2.035 . S
Zn297 O304 2.028 . S
O298 C294 1.258 . S
O298 Zn299 2.035 . S
Zn299 O298 2.035 . S
Zn299 O300 2.028 . S
Zn299 O302 2.028 . S
Zn299 O305 2.035 . S
O300 Zn299 2.028 . S
O300 C306 1.247 . S
O301 Zn297 2.035 . S
O301 C306 1.258 . S
O302 C295 1.247 . S
O302 Zn299 2.028 . S
O303 C295 1.258 . S
O303 Zn297 2.035 . S
O304 Zn297 2.028 . S
O304 C307 1.247 . S
O305 Zn299 2.035 . S
O305 C307 1.258 . S
C306 O300 1.247 . S
C306 O301 1.258 . S
C307 O304 1.247 . S
C307 O305 1.258 . S
C308 O310 1.247 . S
C308 O312 1.258 . S
C309 O316 1.247 . S
C309 O317 1.258 . S
O310 C308 1.247 . S
O310 Zn311 2.028 . S
Zn311 O310 2.028 . S
Zn311 O315 2.035 . S
Zn311 O317 2.035 . S
Zn311 O318 2.028 . S
O312 C308 1.258 . S
O312 Zn313 2.035 . S
Zn313 O312 2.035 . S
Zn313 O314 2.028 . S
Zn313 O316 2.028 . S
Zn313 O319 2.035 . S
O314 Zn313 2.028 . S
O314 C320 1.247 . S
O315 Zn311 2.035 . S
O315 C320 1.258 . S
O316 C309 1.247 . S
O316 Zn313 2.028 . S
O317 C309 1.258 . S
O317 Zn311 2.035 . S
O318 Zn311 2.028 . S
O318 C321 1.247 . S
O319 Zn313 2.035 . S
O319 C321 1.258 . S
C320 O314 1.247 . S
C320 O315 1.258 . S
C321 O318 1.247 . S
C321 O319 1.258 . S
C322 O324 1.247 . S
C322 O326 1.258 . S
C323 O330 1.247 . S
C323 O331 1.258 . S
O324 C322 1.247 . S
O324 Zn325 2.028 . S
Zn325 O324 2.028 . S
Zn325 O329 2.035 . S
Zn325 O331 2.035 . S
Zn325 O332 2.028 . S
O326 C322 1.258 . S
O326 Zn327 2.035 . S
Zn327 O326 2.035 . S
Zn327 O328 2.028 . S
Zn327 O330 2.028 . S
Zn327 O333 2.035 . S
O328 Zn327 2.028 . S
O328 C334 1.247 . S
O329 Zn325 2.035 . S
O329 C334 1.258 . S
O330 C323 1.247 . S
O330 Zn327 2.028 . S
O331 C323 1.258 . S
O331 Zn325 2.035 . S
O332 Zn325 2.028 . S
O332 C335 1.247 . S
O333 Zn327 2.035 . S
O333 C335 1.258 . S
C334 O328 1.247 . S
C334 O329 1.258 . S
C335 O332 1.247 . S
C335 O333 1.258 . S
C336 O338 1.247 1_455 S
C336 O340 1.258 1_455 S
C337 O344 1.247 . S
C337 O345 1.258 . S
O338 C336 1.247 1_655 S
O338 Zn339 2.028 . S
Zn339 O338 2.028 . S
Zn339 O343 2.035 . S
Zn339 O345 2.035 . S
Zn339 O346 2.028 . S
O340 C336 1.258 1_655 S
O340 Zn341 2.035 . S
Zn341 O340 2.035 . S
Zn341 O342 2.028 . S
Zn341 O344 2.028 . S
Zn341 O347 2.035 . S
O342 Zn341 2.028 . S
O342 C348 1.247 . S
O343 Zn339 2.035 . S
O343 C348 1.258 . S
O344 C337 1.247 . S
O344 Zn341 2.028 . S
O345 C337 1.258 . S
O345 Zn339 2.035 . S
O346 Zn339 2.028 . S
O346 C349 1.247 . S
O347 Zn341 2.035 . S
O347 C349 1.258 . S
C348 O342 1.247 . S
C348 O343 1.258 . S
C349 O346 1.247 . S
C349 O347 1.258 . S
C350 O352 1.247 . S
C350 O354 1.258 . S
C351 O358 1.247 . S
C351 O359 1.258 . S
O352 C350 1.247 . S
O352 Zn353 2.028 . S
Zn353 O352 2.028 . S
Zn353 O357 2.035 . S
Zn353 O359 2.035 . S
Zn353 O360 2.028 . S
O354 C350 1.258 . S
O354 Zn355 2.035 . S
Zn355 O354 2.035 . S
Zn355 O356 2.028 . S
Zn355 O358 2.028 . S
Zn355 O361 2.035 . S
O356 Zn355 2.028 . S
O356 C362 1.247 . S
O357 Zn353 2.035 . S
O357 C362 1.258 . S
O358 C351 1.247 . S
O358 Zn355 2.028 . S
O359 C351 1.258 . S
O359 Zn353 2.035 . S
O360 Zn353 2.028 . S
O360 C363 1.247 . S
O361 Zn355 2.035 . S
O361 C363 1.258 . S
C362 O356 1.247 . S
C362 O357 1.258 . S
C363 O360 1.247 . S
C363 O361 1.258 . S
C364 O366 1.247 . S
C364 O368 1.258 . S
C365 O372 1.247 . S
C365 O373 1.258 . S
O366 C364 1.247 . S
O366 Zn367 2.028 . S
Zn367 O366 2.028 . S
Zn367 O371 2.035 . S
Zn367 O373 2.035 . S
Zn367 O374 2.028 . S
O368 C364 1.258 . S
O368 Zn369 2.035 . S
Zn369 O368 2.035 . S
Zn369 O370 2.028 . S
Zn369 O372 2.028 . S
Zn369 O375 2.035 . S
O370 Zn369 2.028 . S
O370 C376 1.247 . S
O371 Zn367 2.035 . S
O371 C376 1.258 . S
O372 C365 1.247 . S
O372 Zn369 2.028 . S
O373 C365 1.258 . S
O373 Zn367 2.035 . S
O374 Zn367 2.028 . S
O374 C377 1.247 . S
O375 Zn369 2.035 . S
O375 C377 1.258 . S
C376 O370 1.247 . S
C376 O371 1.258 . S
C377 O374 1.247 . S
C377 O375 1.258 . S
C378 O380 1.247 . S
C378 O382 1.258 . S
C379 O386 1.247 . S
C379 O387 1.258 . S
O380 C378 1.247 . S
O380 Zn381 2.028 . S
Zn381 O380 2.028 . S
Zn381 O385 2.035 . S
Zn381 O387 2.035 . S
Zn381 O388 2.028 . S
O382 C378 1.258 . S
O382 Zn383 2.035 . S
Zn383 O382 2.035 . S
Zn383 O384 2.028 . S
Zn383 O386 2.028 . S
Zn383 O389 2.035 . S
O384 Zn383 2.028 . S
O384 C390 1.247 . S
O385 Zn381 2.035 . S
O385 C390 1.258 . S
O386 C379 1.247 . S
O386 Zn383 2.028 . S
O387 C379 1.258 . S
O387 Zn381 2.035 . S
O388 Zn381 2.028 . S
O388 C391 1.247 . S
O389 Zn383 2.035 . S
O389 C391 1.258 . S
C390 O384 1.247 . S
C390 O385 1.258 . S
C391 O388 1.247 . S
C391 O389 1.258 . S
C392 O394 1.247 1_455 S
C392 O396 1.258 1_455 S
C393 O400 1.247 . S
C393 O401 1.258 . S
O394 C392 1.247 1_655 S
O394 Zn395 2.028 . S
Zn395 O394 2.028 . S
Zn395 O399 2.035 . S
Zn395 O401 2.035 . S
Zn395 O402 2.028 . S
O396 C392 1.258 1_655 S
O396 Zn397 2.035 . S
Zn397 O396 2.035 . S
Zn397 O398 2.028 . S
Zn397 O400 2.028 . S
Zn397 O403 2.035 . S
O398 Zn397 2.028 . S
O398 C404 1.247 . S
O399 Zn395 2.035 . S
O399 C404 1.258 . S
O400 C393 1.247 . S
O400 Zn397 2.028 . S
O401 C393 1.258 . S
O401 Zn395 2.035 . S
O402 Zn395 2.028 . S
O402 C405 1.247 . S
O403 Zn397 2.035 . S
O403 C405 1.258 . S
C404 O398 1.247 . S
C404 O399 1.258 . S
C405 O402 1.247 . S
C405 O403 1.258 . S
C406 O408 1.247 . S
C406 O410 1.258 . S
C407 O414 1.247 . S
C407 O415 1.258 . S
O408 C406 1.247 . S
O408 Zn409 2.028 . S
Zn409 O408 2.028 . S
Zn409 O413 2.035 . S
Zn409 O415 2.035 . S
Zn409 O416 2.028 . S
O410 C406 1.258 . S
O410 Zn411 2.035 . S
Zn411 O410 2.035 . S
Zn411 O412 2.028 . S
Zn411 O414 2.028 . S
Zn411 O417 2.035 . S
O412 Zn411 2.028 . S
O412 C418 1.247 . S
O413 Zn409 2.035 . S
O413 C418 1.258 . S
O414 C407 1.247 . S
O414 Zn411 2.028 . S
O415 C407 1.258 . S
O415 Zn409 2.035 . S
O416 Zn409 2.028 . S
O416 C419 1.247 . S
O417 Zn411 2.035 . S
O417 C419 1.258 . S
C418 O412 1.247 . S
C418 O413 1.258 . S
C419 O416 1.247 . S
C419 O417 1.258 . S
C420 O422 1.247 . S
C420 O424 1.258 . S
C421 O428 1.247 . S
C421 O429 1.258 . S
O422 C420 1.247 . S
O422 Zn423 2.028 . S
Zn423 O422 2.028 . S
Zn423 O427 2.035 . S
Zn423 O429 2.035 . S
Zn423 O430 2.028 . S
O424 C420 1.258 . S
O424 Zn425 2.035 . S
Zn425 O424 2.035 . S
Zn425 O426 2.028 . S
Zn425 O428 2.028 . S
Zn425 O431 2.035 . S
O426 Zn425 2.028 . S
O426 C432 1.247 . S
O427 Zn423 2.035 . S
O427 C432 1.258 . S
O428 C421 1.247 . S
O428 Zn425 2.028 . S
O429 C421 1.258 . S
O429 Zn423 2.035 . S
O430 Zn423 2.028 . S
O430 C433 1.247 . S
O431 Zn425 2.035 . S
O431 C433 1.258 . S
C432 O426 1.247 . S
C432 O427 1.258 . S
C433 O430 1.247 . S
C433 O431 1.258 . S
C434 O436 1.247 . S
C434 O438 1.258 . S
C435 O442 1.247 . S
C435 O443 1.258 . S
O436 C434 1.247 . S
O436 Zn437 2.028 . S
Zn437 O436 2.028 . S
Zn437 O441 2.035 . S
Zn437 O443 2.035 . S
Zn437 O444 2.028 . S
O438 C434 1.258 . S
O438 Zn439 2.035 . S
Zn439 O438 2.035 . S
Zn439 O440 2.028 . S
Zn439 O442 2.028 . S
Zn439 O445 2.035 . S
O440 Zn439 2.028 . S
O440 C446 1.247 . S
O441 Zn437 2.035 . S
O441 C446 1.258 . S
O442 C435 1.247 . S
O442 Zn439 2.028 . S
O443 C435 1.258 . S
O443 Zn437 2.035 . S
O444 Zn437 2.028 . S
O444 C447 1.247 . S
O445 Zn439 2.035 . S
O445 C447 1.258 . S
C446 O440 1.247 . S
C446 O441 1.258 . S
C447 O444 1.247 . S
C447 O445 1.258 . S
C448 O450 1.247 . S
C448 O452 1.258 . S
C449 O456 1.247 . S
C449 O457 1.258 . S
O450 C448 1.247 . S
O450 Zn451 2.028 . S
Zn451 O450 2.028 . S
Zn451 O455 2.035 . S
Zn451 O457 2.035 . S
Zn451 O458 2.028 . S
O452 C448 1.258 . S
O452 Zn453 2.035 . S
Zn453 O452 2.035 . S
Zn453 O454 2.028 . S
Zn453 O456 2.028 . S
Zn453 O459 2.035 . S
O454 Zn453 2.028 . S
O454 C460 1.247 1_565 S
O455 Zn451 2.035 . S
O455 C460 1.258 1_565 S
O456 C449 1.247 . S
O456 Zn453 2.028 . S
O457 C449 1.258 . S
O457 Zn451 2.035 . S
O458 Zn451 2.028 . S
O458 C461 1.247 . S
O459 Zn453 2.035 . S
O459 C461 1.258 . S
C460 O454 1.247 1_545 S
C460 O455 1.258 1_545 S
C461 O458 1.247 . S
C461 O459 1.258 . S
C462 O464 1.247 . S
C462 O466 1.258 . S
C463 O470 1.247 . S
C463 O471 1.258 . S
O464 C462 1.247 . S
O464 Zn465 2.028 . S
Zn465 O464 2.028 . S
Zn465 O469 2.035 . S
Zn465 O471 2.035 . S
Zn465 O472 2.028 . S
O466 C462 1.258 . S
O466 Zn467 2.035 . S
Zn467 O466 2.035 . S
Zn467 O468 2.028 . S
Zn467 O470 2.028 . S
Zn467 O473 2.035 . S
O468 Zn467 2.028 . S
O468 C474 1.247 . S
O469 Zn465 2.035 . S
O469 C474 1.258 . S
O470 C463 1.247 . S
O470 Zn467 2.028 . S
O471 C463 1.258 . S
O471 Zn465 2.035 . S
O472 Zn465 2.028 . S
O472 C475 1.247 . S
O473 Zn467 2.035 . S
O473 C475 1.258 . S
C474 O468 1.247 . S
C474 O469 1.258 . S
C475 O472 1.247 . S
C475 O473 1.258 . S
C476 O478 1.247 . S
C476 O480 1.258 . S
C477 O484 1.247 1_565 S
C477 O485 1.258 1_565 S
O478 C476 1.247 . S
O478 Zn479 2.028 . S
Zn479 O478 2.028 . S
Zn479 O483 2.035 . S
Zn479 O485 2.035 . S
Zn479 O486 2.028 . S
O480 C476 1.258 . S
O480 Zn481 2.035 . S
Zn481 O480 2.035 . S
Zn481 O482 2.028 . S
Zn481 O484 2.028 . S
Zn481 O487 2.035 . S
O482 Zn481 2.028 . S
O482 C488 1.247 . S
O483 Zn479 2.035 . S
O483 C488 1.258 . S
O484 C477 1.247 1_545 S
O484 Zn481 2.028 . S
O485 C477 1.258 1_545 S
O485 Zn479 2.035 . S
O486 Zn479 2.028 . S
O486 C489 1.247 . S
O487 Zn481 2.035 . S
O487 C489 1.258 . S
C488 O482 1.247 . S
C488 O483 1.258 . S
C489 O486 1.247 . S
C489 O487 1.258 . S
C490 O492 1.247 . S
C490 O494 1.258 . S
C491 O498 1.247 . S
C491 O499 1.258 . S
O492 C490 1.247 . S
O492 Zn493 2.028 . S
Zn493 O492 2.028 . S
Zn493 O497 2.035 . S
Zn493 O499 2.035 . S
Zn493 O500 2.028 . S
O494 C490 1.258 . S
O494 Zn495 2.035 . S
Zn495 O494 2.035 . S
Zn495 O496 2.028 . S
Zn495 O498 2.028 . S
Zn495 O501 2.035 . S
O496 Zn495 2.028 . S
O496 C502 1.247 . S
O497 Zn493 2.035 . S
O497 C502 1.258 . S
O498 C491 1.247 . S
O498 Zn495 2.028 . S
O499 C491 1.258 . S
O499 Zn493 2.035 . S
O500 Zn493 2.028 . S
O500 C503 1.247 . S
O501 Zn495 2.035 . S
O501 C503 1.258 . S
C502 O496 1.247 . S
C502 O497 1.258 . S
C503 O500 1.247 . S
C503 O501 1.258 . S
C504 O506 1.247 . S
C504 O508 1.258 . S
C505 O512 1.247 . S
C505 O513 1.258 . S
O506 C504 1.247 . S
O506 Zn507 2.028 . S
Zn507 O506 2.028 . S
Zn507 O511 2.035 . S
Zn507 O513 2.035 . S
Zn507 O514 2.028 . S
O508 C504 1.258 . S
O508 Zn509 2.035 . S
Zn509 O508 2.035 . S
Zn509 O510 2.028 . S
Zn509 O512 2.028 . S
Zn509 O515 2.035 . S
O510 Zn509 2.028 . S
O510 C516 1.247 1_545 S
O511 Zn507 2.035 . S
O511 C516 1.258 1_545 S
O512 C505 1.247 . S
O512 Zn509 2.028 . S
O513 C505 1.258 . S
O513 Zn507 2.035 . S
O514 Zn507 2.028 . S
O514 C517 1.247 . S
O515 Zn509 2.035 . S
O515 C517 1.258 . S
C516 O510 1.247 1_565 S
C516 O511 1.258 1_565 S
C517 O514 1.247 . S
C517 O515 1.258 . S
C518 O520 1.247 . S
C518 O522 1.258 . S
C519 O526 1.247 . S
C519 O527 1.258 . S
O520 C518 1.247 . S
O520 Zn521 2.028 . S
Zn521 O520 2.028 . S
Zn521 O525 2.035 . S
Zn521 O527 2.035 . S
Zn521 O528 2.028 . S
O522 C518 1.258 . S
O522 Zn523 2.035 . S
Zn523 O522 2.035 . S
Zn523 O524 2.028 . S
Zn523 O526 2.028 . S
Zn523 O529 2.035 . S
O524 Zn523 2.028 . S
O524 C530 1.247 . S
O525 Zn521 2.035 . S
O525 C530 1.258 . S
O526 C519 1.247 . S
O526 Zn523 2.028 . S
O527 C519 1.258 . S
O527 Zn521 2.035 . S
O528 Zn521 2.028 . S
O528 C531 1.247 . S
O529 Zn523 2.035 . S
O529 C531 1.258 . S
C530 O524 1.247 . S
C530 O525 1.258 . S
C531 O528 1.247 . S
C531 O529 1.258 . S
C532 O534 1.247 . S
C532 O536 1.258 . S
C533 O540 1.247 . S
C533 O541 1.258 . S
O534 C532 1.247 . S
O534 Zn535 2.028 . S
Zn535 O534 2.028 . S
Zn535 O539 2.035 . S
Zn535 O541 2.035 . S
Zn535 O542 2.028 . S
O536 C532 1.258 . S
O536 Zn537 2.035 . S
Zn537 O536 2.035 . S
Zn537 O538 2.028 . S
Zn537 O540 2.028 . S
Zn537 O543 2.035 . S
O538 Zn537 2.028 . S
O538 C544 1.247 1_565 S
O539 Zn535 2.035 . S
O539 C544 1.258 1_565 S
O540 C533 1.247 . S
O540 Zn537 2.028 . S
O541 C533 1.258 . S
O541 Zn535 2.035 . S
O542 Zn535 2.028 . S
O542 C545 1.247 . S
O543 Zn537 2.035 . S
O543 C545 1.258 . S
C544 O538 1.247 1_545 S
C544 O539 1.258 1_545 S
C545 O542 1.247 . S
C545 O543 1.258 . S
C546 O548 1.247 . S
C546 O550 1.258 . S
C547 O554 1.247 . S
C547 O555 1.258 . S
O548 C546 1.247 . S
O548 Zn549 2.028 . S
Zn549 O548 2.028 . S
Zn549 O553 2.035 . S
Zn549 O555 2.035 . S
Zn549 O556 2.028 . S
O550 C546 1.258 . S
O550 Zn551 2.035 . S
Zn551 O550 2.035 . S
Zn551 O552 2.028 . S
Zn551 O554 2.028 . S
Zn551 O557 2.035 . S
O552 Zn551 2.028 . S
O552 C558 1.247 . S
O553 Zn549 2.035 . S
O553 C558 1.258 . S
O554 C547 1.247 . S
O554 Zn551 2.028 . S
O555 C547 1.258 . S
O555 Zn549 2.035 . S
O556 Zn549 2.028 . S
O556 C559 1.247 . S
O557 Zn551 2.035 . S
O557 C559 1.258 . S
C558 O552 1.247 . S
C558 O553 1.258 . S
C559 O556 1.247 . S
C559 O557 1.258 . S
C560 O562 1.247 1_554 S
C560 O564 1.258 1_554 S
C561 O568 1.247 . S
C561 O569 1.258 . S
O562 C560 1.247 1_556 S
O562 Zn563 2.028 . S
Zn563 O562 2.028 . S
Zn563 O567 2.035 . S
Zn563 O569 2.035 . S
Zn563 O570 2.028 . S
O564 C560 1.258 1_556 S
O564 Zn565 2.035 . S
Zn565 O564 2.035 . S
Zn565 O566 2.028 . S
Zn565 O568 2.028 . S
Zn565 O571 2.035 . S
O566 Zn565 2.028 . S
O566 C572 1.247 . S
O567 Zn563 2.035 . S
O567 C572 1.258 . S
O568 C561 1.247 . S
O568 Zn565 2.028 . S
O569 C561 1.258 . S
O569 Zn563 2.035 . S
O570 Zn563 2.028 . S
O570 C573 1.247 . S
O571 Zn565 2.035 . S
O571 C573 1.258 . S
C572 O566 1.247 . S
C572 O567 1.258 . S
C573 O570 1.247 . S
C573 O571 1.258 . S
C574 O576 1.247 1_556 S
C574 O578 1.258 1_556 S
C575 O582 1.247 . S
C575 O583 1.258 . S
O576 C574 1.247 1_554 S
O576 Zn577 2.028 . S
Zn577 O576 2.028 . S
Zn577 O581 2.035 . S
Zn577 O583 2.035 . S
Zn577 O584 2.028 . S
O578 C574 1.258 1_554 S
O578 Zn579 2.035 . S
Zn579 O578 2.035 . S
Zn579 O580 2.028 . S
Zn579 O582 2.028 . S
Zn579 O585 2.035 . S
O580 Zn579 2.028 . S
O580 C586 1.247 . S
O581 Zn577 2.035 . S
O581 C586 1.258 . S
O582 C575 1.247 . S
O582 Zn579 2.028 . S
O583 C575 1.258 . S
O583 Zn577 2.035 . S
O584 Zn577 2.028 . S
O584 C587 1.247 . S
O585 Zn579 2.035 . S
O585 C587 1.258 . S
C586 O580 1.247 . S
C586 O581 1.258 . S
C587 O584 1.247 . S
C587 O585 1.258 . S
C588 O590 1.247 . S
C588 O592 1.258 . S
C589 O596 1.247 . S
C589 O597 1.258 . S
O590 C588 1.247 . S
O590 Zn591 2.028 . S
Zn591 O590 2.028 . S
Zn591 O595 2.035 . S
Zn591 O597 2.035 . S
Zn591 O598 2.028 . S
O592 C588 1.258 . S
O592 Zn593 2.035 . S
Zn593 O592 2.035 . S
Zn593 O594 2.028 . S
Zn593 O596 2.028 . S
Zn593 O599 2.035 . S
O594 Zn593 2.028 . S
O594 C600 1.247 . S
O595 Zn591 2.035 . S
O595 C600 1.258 . S
O596 C589 1.247 . S
O596 Zn593 2.028 . S
O597 C589 1.258 . S
O597 Zn591 2.035 . S
O598 Zn591 2.028 . S
O598 C601 1.247 . S
O599 Zn593 2.035 . S
O599 C601 1.258 . S
C600 O594 1.247 . S
C600 O595 1.258 . S
C601 O598 1.247 . S
C601 O599 1.258 . S
C602 O604 1.247 . S
C602 O606 1.258 . S
C603 O610 1.247 . S
C603 O611 1.258 . S
O604 C602 1.247 . S
O604 Zn605 2.028 . S
Zn605 O604 2.028 . S
Zn605 O609 2.035 . S
Zn605 O611 2.035 . S
Zn605 O612 2.028 . S
O606 C602 1.258 . S
O606 Zn607 2.035 . S
Zn607 O606 2.035 . S
Zn607 O608 2.028 . S
Zn607 O610 2.028 . S
Zn607 O613 2.035 . S
O608 Zn607 2.028 . S
O608 C614 1.247 . S
O609 Zn605 2.035 . S
O609 C614 1.258 . S
O610 C603 1.247 . S
O610 Zn607 2.028 . S
O611 C603 1.258 . S
O611 Zn605 2.035 . S
O612 Zn605 2.028 . S
O612 C615 1.247 . S
O613 Zn607 2.035 . S
O613 C615 1.258 . S
C614 O608 1.247 . S
C614 O609 1.258 . S
C615 O612 1.247 . S
C615 O613 1.258 . S
C616 O618 1.247 . S
C616 O620 1.258 . S
C617 O624 1.247 . S
C617 O625 1.258 . S
O618 C616 1.247 . S
O618 Zn619 2.028 . S
Zn619 O618 2.028 . S
Zn619 O623 2.035 . S
Zn619 O625 2.035 . S
Zn619 O626 2.028 . S
O620 C616 1.258 . S
O620 Zn621 2.035 . S
Zn621 O620 2.035 . S
Zn621 O622 2.028 . S
Zn621 O624 2.028 . S
Zn621 O627 2.035 . S
O622 Zn621 2.028 . S
O622 C628 1.247 . S
O623 Zn619 2.035 . S
O623 C628 1.258 . S
O624 C617 1.247 . S
O624 Zn621 2.028 . S
O625 C617 1.258 . S
O625 Zn619 2.035 . S
O626 Zn619 2.028 . S
O626 C629 1.247 . S
O627 Zn621 2.035 . S
O627 C629 1.258 . S
C628 O622 1.247 . S
C628 O623 1.258 . S
C629 O626 1.247 . S
C629 O627 1.258 . S
C630 O632 1.247 . S
C630 O634 1.258 . S
C631 O638 1.247 . S
C631 O639 1.258 . S
O632 C630 1.247 . S
O632 Zn633 2.028 . S
Zn633 O632 2.028 . S
Zn633 O637 2.035 . S
Zn633 O639 2.035 . S
Zn633 O640 2.028 . S
O634 C630 1.258 . S
O634 Zn635 2.035 . S
Zn635 O634 2.035 . S
Zn635 O636 2.028 . S
Zn635 O638 2.028 . S
Zn635 O641 2.035 . S
O636 Zn635 2.028 . S
O636 C642 1.247 . S
O637 Zn633 2.035 . S
O637 C642 1.258 . S
O638 C631 1.247 . S
O638 Zn635 2.028 . S
O639 C631 1.258 . S
O639 Zn633 2.035 . S
O640 Zn633 2.028 . S
O640 C643 1.247 . S
O641 Zn635 2.035 . S
O641 C643 1.258 . S
C642 O636 1.247 . S
C642 O637 1.258 . S
C643 O640 1.247 . S
C643 O641 1.258 . S
C644 O646 1.247 . S
C644 O648 1.258 . S
C645 O652 1.247 . S
C645 O653 1.258 . S
O646 C644 1.247 . S
O646 Zn647 2.028 . S
Zn647 O646 2.028 . S
Zn647 O651 2.035 . S
Zn647 O653 2.035 . S
Zn647 O654 2.028 . S
O648 C644 1.258 . S
O648 Zn649 2.035 . S
Zn649 O648 2.035 . S
Zn649 O650 2.028 . S
Zn649 O652 2.028 . S
Zn649 O655 2.035 . S
O650 Zn649 2.028 . S
O650 C656 1.247 . S
O651 Zn647 2.035 . S
O651 C656 1.258 . S
O652 C645 1.247 . S
O652 Zn649 2.028 . S
O653 C645 1.258 . S
O653 Zn647 2.035 . S
O654 Zn647 2.028 . S
O654 C657 1.247 . S
O655 Zn649 2.035 . S
O655 C657 1.258 . S
C656 O650 1.247 . S
C656 O651 1.258 . S
C657 O654 1.247 . S
C657 O655 1.258 . S
C658 O660 1.247 . S
C658 O662 1.258 . S
C659 O666 1.247 . S
C659 O667 1.258 . S
O660 C658 1.247 . S
O660 Zn661 2.028 . S
Zn661 O660 2.028 . S
Zn661 O665 2.035 . S
Zn661 O667 2.035 . S
Zn661 O668 2.028 . S
O662 C658 1.258 . S
O662 Zn663 2.035 . S
Zn663 O662 2.035 . S
Zn663 O664 2.028 . S
Zn663 O666 2.028 . S
Zn663 O669 2.035 . S
O664 Zn663 2.028 . S
O664 C670 1.247 . S
O665 Zn661 2.035 . S
O665 C670 1.258 . S
O666 C659 1.247 . S
O666 Zn663 2.028 . S
O667 C659 1.258 . S
O667 Zn661 2.035 . S
O668 Zn661 2.028 . S
O668 C671 1.247 . S
O669 Zn663 2.035 . S
O669 C671 1.258 . S
C670 O664 1.247 . S
C670 O665 1.258 . S
C671 O668 1.247 . S
C671 O669 1.258 . S
C672 O674 1.247 . S
C672 O676 1.258 . S
C673 O680 1.247 . S
C673 O681 1.258 . S
O674 C672 1.247 . S
O674 Zn675 2.028 . S
Zn675 O674 2.028 . S
Zn675 O679 2.035 . S
Zn675 O681 2.035 . S
Zn675 O682 2.028 . S
O676 C672 1.258 . S
O676 Zn677 2.035 . S
Zn677 O676 2.035 . S
Zn677 O678 2.028 . S
Zn677 O680 2.028 . S
Zn677 O683 2.035 . S
O678 Zn677 2.028 . S
O678 C684 1.247 . S
O679 Zn675 2.035 . S
O679 C684 1.258 . S
O680 C673 1.247 . S
O680 Zn677 2.028 . S
O681 C673 1.258 . S
O681 Zn675 2.035 . S
O682 Zn675 2.028 . S
O682 C685 1.247 . S
O683 Zn677 2.035 . S
O683 C685 1.258 . S
C684 O678 1.247 . S
C684 O679 1.258 . S
C685 O682 1.247 . S
C685 O683 1.258 . S
C686 O688 1.247 . S
C686 O690 1.258 . S
C687 O694 1.247 . S
C687 O695 1.258 . S
O688 C686 1.247 . S
O688 Zn689 2.028 . S
Zn689 O688 2.028 . S
Zn689 O693 2.035 . S
Zn689 O695 2.035 . S
Zn689 O696 2.028 . S
O690 C686 1.258 . S
O690 Zn691 2.035 . S
Zn691 O690 2.035 . S
Zn691 O692 2.028 . S
Zn691 O694 2.028 . S
Zn691 O697 2.035 . S
O692 Zn691 2.028 . S
O692 C698 1.247 . S
O693 Zn689 2.035 . S
O693 C698 1.258 . S
O694 C687 1.247 . S
O694 Zn691 2.028 . S
O695 C687 1.258 . S
O695 Zn689 2.035 . S
O696 Zn689 2.028 . S
O696 C699 1.247 . S
O697 Zn691 2.035 . S
O697 C699 1.258 . S
C698 O692 1.247 . S
C698 O693 1.258 . S
C699 O696 1.247 . S
C699 O697 1.258 . S
C700 O702 1.247 1_455 S
C700 O704 1.258 1_455 S
C701 O708 1.247 . S
C701 O709 1.258 . S
O702 C700 1.247 1_655 S
O702 Zn703 2.028 . S
Zn703 O702 2.028 . S
Zn703 O707 2.035 . S
Zn703 O709 2.035 . S
Zn703 O710 2.028 . S
O704 C700 1.258 1_655 S
O704 Zn705 2.035 . S
Zn705 O704 2.035 . S
Zn705 O706 2.028 . S
Zn705 O708 2.028 . S
Zn705 O711 2.035 . S
O706 Zn705 2.028 . S
O706 C712 1.247 . S
O707 Zn703 2.035 . S
O707 C712 1.258 . S
O708 C701 1.247 . S
O708 Zn705 2.028 . S
O709 C701 1.258 . S
O709 Zn703 2.035 . S
O710 Zn703 2.028 . S
O710 C713 1.247 . S
O711 Zn705 2.035 . S
O711 C713 1.258 . S
C712 O706 1.247 . S
C712 O707 1.258 . S
C713 O710 1.247 . S
C713 O711 1.258 . S
C714 O716 1.247 . S
C714 O718 1.258 . S
C715 O722 1.247 . S
C715 O723 1.258 . S
O716 C714 1.247 . S
O716 Zn717 2.028 . S
Zn717 O716 2.028 . S
Zn717 O721 2.035 . S
Zn717 O723 2.035 . S
Zn717 O724 2.028 . S
O718 C714 1.258 . S
O718 Zn719 2.035 . S
Zn719 O718 2.035 . S
Zn719 O720 2.028 . S
Zn719 O722 2.028 . S
Zn719 O725 2.035 . S
O720 Zn719 2.028 . S
O720 C726 1.247 . S
O721 Zn717 2.035 . S
O721 C726 1.258 . S
O722 C715 1.247 . S
O722 Zn719 2.028 . S
O723 C715 1.258 . S
O723 Zn717 2.035 . S
O724 Zn717 2.028 . S
O724 C727 1.247 . S
O725 Zn719 2.035 . S
O725 C727 1.258 . S
C726 O720 1.247 . S
C726 O721 1.258 . S
C727 O724 1.247 . S
C727 O725 1.258 . S
C728 O730 1.247 . S
C728 O732 1.258 . S
C729 O736 1.247 . S
C729 O737 1.258 . S
O730 C728 1.247 . S
O730 Zn731 2.028 . S
Zn731 O730 2.028 . S
Zn731 O735 2.035 . S
Zn731 O737 2.035 . S
Zn731 O738 2.028 . S
O732 C728 1.258 . S
O732 Zn733 2.035 . S
Zn733 O732 2.035 . S
Zn733 O734 2.028 . S
Zn733 O736 2.028 . S
Zn733 O739 2.035 . S
O734 Zn733 2.028 . S
O734 C740 1.247 . S
O735 Zn731 2.035 . S
O735 C740 1.258 . S
O736 C729 1.247 . S
O736 Zn733 2.028 . S
O737 C729 1.258 . S
O737 Zn731 2.035 . S
O738 Zn731 2.028 . S
O738 C741 1.247 . S
O739 Zn733 2.035 . S
O739 C741 1.258 . S
C740 O734 1.247 . S
C740 O735 1.258 . S
C741 O738 1.247 . S
C741 O739 1.258 . S
C742 O744 1.247 . S
C742 O746 1.258 . S
C743 O750 1.247 . S
C743 O751 1.258 . S
O744 C742 1.247 . S
O744 Zn745 2.028 . S
Zn745 O744 2.028 . S
Zn745 O749 2.035 . S
Zn745 O751 2.035 . S
Zn745 O752 2.028 . S
O746 C742 1.258 . S
O746 Zn747 2.035 . S
Zn747 O746 2.035 . S
Zn747 O748 2.028 . S
Zn747 O750 2.028 . S
Zn747 O753 2.035 . S
O748 Zn747 2.028 . S
O748 C754 1.247 . S
O749 Zn745 2.035 . S
O749 C754 1.258 . S
O750 C743 1.247 . S
O750 Zn747 2.028 . S
O751 C743 1.258 . S
O751 Zn745 2.035 . S
O752 Zn745 2.028 . S
O752 C755 1.247 . S
O753 Zn747 2.035 . S
O753 C755 1.258 . S
C754 O748 1.247 . S
C754 O749 1.258 . S
C755 O752 1.247 . S
C755 O753 1.258 . S
C756 O758 1.247 . S
C756 O760 1.258 . S
C757 O764 1.247 1_455 S
C757 O765 1.258 1_455 S
O758 C756 1.247 . S
O758 Zn759 2.028 . S
Zn759 O758 2.028 . S
Zn759 O763 2.035 . S
Zn759 O765 2.035 . S
Zn759 O766 2.028 . S
O760 C756 1.258 . S
O760 Zn761 2.035 . S
Zn761 O760 2.035 . S
Zn761 O762 2.028 . S
Zn761 O764 2.028 . S
Zn761 O767 2.035 . S
O762 Zn761 2.028 . S
O762 C768 1.247 . S
O763 Zn759 2.035 . S
O763 C768 1.258 . S
O764 C757 1.247 1_655 S
O764 Zn761 2.028 . S
O765 C757 1.258 1_655 S
O765 Zn759 2.035 . S
O766 Zn759 2.028 . S
O766 C769 1.247 . S
O767 Zn761 2.035 . S
O767 C769 1.258 . S
C768 O762 1.247 . S
C768 O763 1.258 . S
C769 O766 1.247 . S
C769 O767 1.258 . S
C770 O772 1.247 . S
C770 O774 1.258 . S
C771 O778 1.247 . S
C771 O779 1.258 . S
O772 C770 1.247 . S
O772 Zn773 2.028 . S
Zn773 O772 2.028 . S
Zn773 O777 2.035 . S
Zn773 O779 2.035 . S
Zn773 O780 2.028 . S
O774 C770 1.258 . S
O774 Zn775 2.035 . S
Zn775 O774 2.035 . S
Zn775 O776 2.028 . S
Zn775 O778 2.028 . S
Zn775 O781 2.035 . S
O776 Zn775 2.028 . S
O776 C782 1.247 . S
O777 Zn773 2.035 . S
O777 C782 1.258 . S
O778 C771 1.247 . S
O778 Zn775 2.028 . S
O779 C771 1.258 . S
O779 Zn773 2.035 . S
O780 Zn773 2.028 . S
O780 C783 1.247 . S
O781 Zn775 2.035 . S
O781 C783 1.258 . S
C782 O776 1.247 . S
C782 O777 1.258 . S
C783 O780 1.247 . S
C783 O781 1.258 . S
C784 O786 1.247 . S
C784 O788 1.258 . S
C785 O792 1.247 . S
C785 O793 1.258 . S
O786 C784 1.247 . S
O786 Zn787 2.028 . S
Zn787 O786 2.028 . S
Zn787 O791 2.035 . S
Zn787 O793 2.035 . S
Zn787 O794 2.028 . S
O788 C784 1.258 . S
O788 Zn789 2.035 . S
Zn789 O788 2.035 . S
Zn789 O790 2.028 . S
Zn789 O792 2.028 . S
Zn789 O795 2.035 . S
O790 Zn789 2.028 . S
O790 C796 1.247 . S
O791 Zn787 2.035 . S
O791 C796 1.258 . S
O792 C785 1.247 . S
O792 Zn789 2.028 . S
O793 C785 1.258 . S
O793 Zn787 2.035 . S
O794 Zn787 2.028 . S
O794 C797 1.247 . S
O795 Zn789 2.035 . S
O795 C797 1.258 . S
C796 O790 1.247 . S
C796 O791 1.258 . S
C797 O794 1.247 . S
C797 O795 1.258 . S
C798 O800 1.247 . S
C798 O802 1.258 . S
C799 O806 1.247 . S
C799 O807 1.258 . S
O800 C798 1.247 . S
O800 Zn801 2.028 . S
Zn801 O800 2.028 . S
Zn801 O805 2.035 . S
Zn801 O807 2.035 . S
Zn801 O808 2.028 . S
O802 C798 1.258 . S
O802 Zn803 2.035 . S
Zn803 O802 2.035 . S
Zn803 O804 2.028 . S
Zn803 O806 2.028 . S
Zn803 O809 2.035 . S
O804 Zn803 2.028 . S
O804 C810 1.247 . S
O805 Zn801 2.035 . S
O805 C810 1.258 . S
O806 C799 1.247 . S
O806 Zn803 2.028 . S
O807 C799 1.258 . S
O807 Zn801 2.035 . S
O808 Zn801 2.028 . S
O808 C811 1.247 . S
O809 Zn803 2.035 . S
O809 C811 1.258 . S
C810 O804 1.247 . S
C810 O805 1.258 . S
C811 O808 1.247 . S
C811 O809 1.258 . S
C812 O814 1.247 . S
C812 O816 1.258 . S
C813 O820 1.247 . S
C813 O821 1.258 . S
O814 C812 1.247 . S
O814 Zn815 2.028 . S
Zn815 O814 2.028 . S
Zn815 O819 2.035 . S
Zn815 O821 2.035 . S
Zn815 O822 2.028 . S
O816 C812 1.258 . S
O816 Zn817 2.035 . S
Zn817 O816 2.035 . S
Zn817 O818 2.028 . S
Zn817 O820 2.028 . S
Zn817 O823 2.035 . S
O818 Zn817 2.028 . S
O818 C824 1.247 . S
O819 Zn815 2.035 . S
O819 C824 1.258 . S
O820 C813 1.247 . S
O820 Zn817 2.028 . S
O821 C813 1.258 . S
O821 Zn815 2.035 . S
O822 Zn815 2.028 . S
O822 C825 1.247 . S
O823 Zn817 2.035 . S
O823 C825 1.258 . S
C824 O818 1.247 . S
C824 O819 1.258 . S
C825 O822 1.247 . S
C825 O823 1.258 . S
C826 O828 1.247 . S
C826 O830 1.258 . S
C827 O834 1.247 . S
C827 O835 1.258 . S
O828 C826 1.247 . S
O828 Zn829 2.028 . S
Zn829 O828 2.028 . S
Zn829 O833 2.035 . S
Zn829 O835 2.035 . S
Zn829 O836 2.028 . S
O830 C826 1.258 . S
O830 Zn831 2.035 . S
Zn831 O830 2.035 . S
Zn831 O832 2.028 . S
Zn831 O834 2.028 . S
Zn831 O837 2.035 . S
O832 Zn831 2.028 . S
O832 C838 1.247 . S
O833 Zn829 2.035 . S
O833 C838 1.258 . S
O834 C827 1.247 . S
O834 Zn831 2.028 . S
O835 C827 1.258 . S
O835 Zn829 2.035 . S
O836 Zn829 2.028 . S
O836 C839 1.247 . S
O837 Zn831 2.035 . S
O837 C839 1.258 . S
C838 O832 1.247 . S
C838 O833 1.258 . S
C839 O836 1.247 . S
C839 O837 1.258 . S
C840 O842 1.247 . S
C840 O844 1.258 . S
C841 O848 1.247 . S
C841 O849 1.258 . S
O842 C840 1.247 . S
O842 Zn843 2.028 . S
Zn843 O842 2.028 . S
Zn843 O847 2.035 . S
Zn843 O849 2.035 . S
Zn843 O850 2.028 . S
O844 C840 1.258 . S
O844 Zn845 2.035 . S
Zn845 O844 2.035 . S
Zn845 O846 2.028 . S
Zn845 O848 2.028 . S
Zn845 O851 2.035 . S
O846 Zn845 2.028 . S
O846 C852 1.247 . S
O847 Zn843 2.035 . S
O847 C852 1.258 . S
O848 C841 1.247 . S
O848 Zn845 2.028 . S
O849 C841 1.258 . S
O849 Zn843 2.035 . S
O850 Zn843 2.028 . S
O850 C853 1.247 . S
O851 Zn845 2.035 . S
O851 C853 1.258 . S
C852 O846 1.247 . S
C852 O847 1.258 . S
C853 O850 1.247 . S
C853 O851 1.258 . S
C854 O856 1.247 . S
C854 O858 1.258 . S
C855 O862 1.247 . S
C855 O863 1.258 . S
O856 C854 1.247 . S
O856 Zn857 2.028 . S
Zn857 O856 2.028 . S
Zn857 O861 2.035 . S
Zn857 O863 2.035 . S
Zn857 O864 2.028 . S
O858 C854 1.258 . S
O858 Zn859 2.035 . S
Zn859 O858 2.035 . S
Zn859 O860 2.028 . S
Zn859 O862 2.028 . S
Zn859 O865 2.035 . S
O860 Zn859 2.028 . S
O860 C866 1.247 . S
O861 Zn857 2.035 . S
O861 C866 1.258 . S
O862 C855 1.247 . S
O862 Zn859 2.028 . S
O863 C855 1.258 . S
O863 Zn857 2.035 . S
O864 Zn857 2.028 . S
O864 C867 1.247 . S
O865 Zn859 2.035 . S
O865 C867 1.258 . S
C866 O860 1.247 . S
C866 O861 1.258 . S
C867 O864 1.247 . S
C867 O865 1.258 . S
C868 O870 1.247 . S
C868 O872 1.258 . S
C869 O876 1.247 . S
C869 O877 1.258 . S
O870 C868 1.247 . S
O870 Zn871 2.028 . S
Zn871 O870 2.028 . S
Zn871 O875 2.035 . S
Zn871 O877 2.035 . S
Zn871 O878 2.028 . S
O872 C868 1.258 . S
O872 Zn873 2.035 . S
Zn873 O872 2.035 . S
Zn873 O874 2.028 . S
Zn873 O876 2.028 . S
Zn873 O879 2.035 . S
O874 Zn873 2.028 . S
O874 C880 1.247 . S
O875 Zn871 2.035 . S
O875 C880 1.258 . S
O876 C869 1.247 . S
O876 Zn873 2.028 . S
O877 C869 1.258 . S
O877 Zn871 2.035 . S
O878 Zn871 2.028 . S
O878 C881 1.247 . S
O879 Zn873 2.035 . S
O879 C881 1.258 . S
C880 O874 1.247 . S
C880 O875 1.258 . S
C881 O878 1.247 . S
C881 O879 1.258 . S
C882 O884 1.247 . S
C882 O886 1.258 . S
C883 O890 1.247 . S
C883 O891 1.258 . S
O884 C882 1.247 . S
O884 Zn885 2.028 . S
Zn885 O884 2.028 . S
Zn885 O889 2.035 . S
Zn885 O891 2.035 . S
Zn885 O892 2.028 . S
O886 C882 1.258 . S
O886 Zn887 2.035 . S
Zn887 O886 2.035 . S
Zn887 O888 2.028 . S
Zn887 O890 2.028 . S
Zn887 O893 2.035 . S
O888 Zn887 2.028 . S
O888 C894 1.247 . S
O889 Zn885 2.035 . S
O889 C894 1.258 . S
O890 C883 1.247 . S
O890 Zn887 2.028 . S
O891 C883 1.258 . S
O891 Zn885 2.035 . S
O892 Zn885 2.028 . S
O892 C895 1.247 . S
O893 Zn887 2.035 . S
O893 C895 1.258 . S
C894 O888 1.247 . S
C894 O889 1.258 . S
C895 O892 1.247 . S
C895 O893 1.258 . S
C896 O898 1.247 . S
C896 O900 1.258 . S
C897 O904 1.247 . S
C897 O905 1.258 . S
O898 C896 1.247 . S
O898 Zn899 2.028 . S
Zn899 O898 2.028 . S
Zn899 O903 2.035 . S
Zn899 O905 2.035 . S
Zn899 O906 2.028 . S
O900 C896 1.258 . S
O900 Zn901 2.035 . S
Zn901 O900 2.035 . S
Zn901 O902 2.028 . S
Zn901 O904 2.028 . S
Zn901 O907 2.035 . S
O902 Zn901 2.028 . S
O902 C908 1.247 . S
O903 Zn899 2.035 . S
O903 C908 1.258 . S
O904 C897 1.247 . S
O904 Zn901 2.028 . S
O905 C897 1.258 . S
O905 Zn899 2.035 . S
O906 Zn899 2.028 . S
O906 C909 1.247 . S
O907 Zn901 2.035 . S
O907 C909 1.258 . S
C908 O902 1.247 . S
C908 O903 1.258 . S
C909 O906 1.247 . S
C909 O907 1.258 . S
C910 O912 1.247 . S
C910 O914 1.258 . S
C911 O918 1.247 . S
C911 O919 1.258 . S
O912 C910 1.247 . S
O912 Zn913 2.028 . S
Zn913 O912 2.028 . S
Zn913 O917 2.035 . S
Zn913 O919 2.035 . S
Zn913 O920 2.028 . S
O914 C910 1.258 . S
O914 Zn915 2.035 . S
Zn915 O914 2.035 . S
Zn915 O916 2.028 . S
Zn915 O918 2.028 . S
Zn915 O921 2.035 . S
O916 Zn915 2.028 . S
O916 C922 1.247 . S
O917 Zn913 2.035 . S
O917 C922 1.258 . S
O918 C911 1.247 . S
O918 Zn915 2.028 . S
O919 C911 1.258 . S
O919 Zn913 2.035 . S
O920 Zn913 2.028 . S
O920 C923 1.247 . S
O921 Zn915 2.035 . S
O921 C923 1.258 . S
C922 O916 1.247 . S
C922 O917 1.258 . S
C923 O920 1.247 . S
C923 O921 1.258 . S
C924 O926 1.247 . S
C924 O928 1.258 . S
C925 O932 1.247 . S
C925 O933 1.258 . S
O926 C924 1.247 . S
O926 Zn927 2.028 . S
Zn927 O926 2.028 . S
Zn927 O931 2.035 . S
Zn927 O933 2.035 . S
Zn927 O934 2.028 . S
O928 C924 1.258 . S
O928 Zn929 2.035 . S
Zn929 O928 2.035 . S
Zn929 O930 2.028 . S
Zn929 O932 2.028 . S
Zn929 O935 2.035 . S
O930 Zn929 2.028 . S
O930 C936 1.247 . S
O931 Zn927 2.035 . S
O931 C936 1.258 . S
O932 C925 1.247 . S
O932 Zn929 2.028 . S
O933 C925 1.258 . S
O933 Zn927 2.035 . S
O934 Zn927 2.028 . S
O934 C937 1.247 . S
O935 Zn929 2.035 . S
O935 C937 1.258 . S
C936 O930 1.247 . S
C936 O931 1.258 . S
C937 O934 1.247 . S
C937 O935 1.258 . S
C938 O940 1.247 1_554 S
C938 O942 1.258 1_554 S
C939 O946 1.247 . S
C939 O947 1.258 . S
O940 C938 1.247 1_556 S
O940 Zn941 2.028 . S
Zn941 O940 2.028 . S
Zn941 O945 2.035 . S
Zn941 O947 2.035 . S
Zn941 O948 2.028 . S
O942 C938 1.258 1_556 S
O942 Zn943 2.035 . S
Zn943 O942 2.035 . S
Zn943 O944 2.028 . S
Zn943 O946 2.028 . S
Zn943 O949 2.035 . S
O944 Zn943 2.028 . S
O944 C950 1.247 . S
O945 Zn941 2.035 . S
O945 C950 1.258 . S
O946 C939 1.247 . S
O946 Zn943 2.028 . S
O947 C939 1.258 . S
O947 Zn941 2.035 . S
O948 Zn941 2.028 . S
O948 C951 1.247 . S
O949 Zn943 2.035 . S
O949 C951 1.258 . S
C950 O944 1.247 . S
C950 O945 1.258 . S
C951 O948 1.247 . S
C951 O949 1.258 . S
C952 O954 1.247 . S
C952 O956 1.258 . S
C953 O960 1.247 . S
C953 O961 1.258 . S
O954 C952 1.247 . S
O954 Zn955 2.028 . S
Zn955 O954 2.028 . S
Zn955 O959 2.035 . S
Zn955 O961 2.035 . S
Zn955 O962 2.028 . S
O956 C952 1.258 . S
O956 Zn957 2.035 . S
Zn957 O956 2.035 . S
Zn957 O958 2.028 . S
Zn957 O960 2.028 . S
Zn957 O963 2.035 . S
O958 Zn957 2.028 . S
O958 C964 1.247 . S
O959 Zn955 2.035 . S
O959 C964 1.258 . S
O960 C953 1.247 . S
O960 Zn957 2.028 . S
O961 C953 1.258 . S
O961 Zn955 2.035 . S
O962 Zn955 2.028 . S
O962 C965 1.247 . S
O963 Zn957 2.035 . S
O963 C965 1.258 . S
C964 O958 1.247 . S
C964 O959 1.258 . S
C965 O962 1.247 . S
C965 O963 1.258 . S
C966 O968 1.247 . S
C966 O970 1.258 . S
C967 O974 1.247 . S
C967 O975 1.258 . S
O968 C966 1.247 . S
O968 Zn969 2.028 . S
Zn969 O968 2.028 . S
Zn969 O973 2.035 . S
Zn969 O975 2.035 . S
Zn969 O976 2.028 . S
O970 C966 1.258 . S
O970 Zn971 2.035 . S
Zn971 O970 2.035 . S
Zn971 O972 2.028 . S
Zn971 O974 2.028 . S
Zn971 O977 2.035 . S
O972 Zn971 2.028 . S
O972 C978 1.247 . S
O973 Zn969 2.035 . S
O973 C978 1.258 . S
O974 C967 1.247 . S
O974 Zn971 2.028 . S
O975 C967 1.258 . S
O975 Zn969 2.035 . S
O976 Zn969 2.028 . S
O976 C979 1.247 1_554 S
O977 Zn971 2.035 . S
O977 C979 1.258 1_554 S
C978 O972 1.247 . S
C978 O973 1.258 . S
C979 O976 1.247 1_556 S
C979 O977 1.258 1_556 S
C980 O982 1.247 . S
C980 O984 1.258 . S
C981 O988 1.247 . S
C981 O989 1.258 . S
O982 C980 1.247 . S
O982 Zn983 2.028 . S
Zn983 O982 2.028 . S
Zn983 O987 2.035 . S
Zn983 O989 2.035 . S
Zn983 O990 2.028 . S
O984 C980 1.258 . S
O984 Zn985 2.035 . S
Zn985 O984 2.035 . S
Zn985 O986 2.028 . S
Zn985 O988 2.028 . S
Zn985 O991 2.035 . S
O986 Zn985 2.028 . S
O986 C992 1.247 . S
O987 Zn983 2.035 . S
O987 C992 1.258 . S
O988 C981 1.247 . S
O988 Zn985 2.028 . S
O989 C981 1.258 . S
O989 Zn983 2.035 . S
O990 Zn983 2.028 . S
O990 C993 1.247 . S
O991 Zn985 2.035 . S
O991 C993 1.258 . S
C992 O986 1.247 . S
C992 O987 1.258 . S
C993 O990 1.247 . S
C993 O991 1.258 . S
C994 O996 1.247 . S
C994 O998 1.258 . S
C995 O1002 1.247 . S
C995 O1003 1.258 . S
O996 C994 1.247 . S
O996 Zn997 2.028 . S
Zn997 O996 2.028 . S
Zn997 O1001 2.035 . S
Zn997 O1003 2.035 . S
Zn997 O1004 2.028 . S
O998 C994 1.258 . S
O998 Zn999 2.035 . S
Zn999 O998 2.035 . S
Zn999 O1000 2.028 . S
Zn999 O1002 2.028 . S
Zn999 O1005 2.035 . S
O1000 Zn999 2.028 . S
O1000 C1006 1.247 . S
O1001 Zn997 2.035 . S
O1001 C1006 1.258 . S
O1002 C995 1.247 . S
O1002 Zn999 2.028 . S
O1003 C995 1.258 . S
O1003 Zn997 2.035 . S
O1004 Zn997 2.028 . S
O1004 C1007 1.247 . S
O1005 Zn999 2.035 . S
O1005 C1007 1.258 . S
C1006 O1000 1.247 . S
C1006 O1001 1.258 . S
C1007 O1004 1.247 . S
C1007 O1005 1.258 . S
C1008 O1010 1.247 . S
C1008 O1012 1.258 . S
C1009 O1016 1.247 . S
C1009 O1017 1.258 . S
O1010 C1008 1.247 . S
O1010 Zn1011 2.028 . S
Zn1011 O1010 2.028 . S
Zn1011 O1015 2.035 . S
Zn1011 O1017 2.035 . S
Zn1011 O1018 2.028 . S
O1012 C1008 1.258 . S
O1012 Zn1013 2.035 . S
Zn1013 O1012 2.035 . S
Zn1013 O1014 2.028 . S
Zn1013 O1016 2.028 . S
Zn1013 O1019 2.035 . S
O1014 Zn1013 2.028 . S
O1014 C1020 1.247 . S
O1015 Zn1011 2.035 . S
O1015 C1020 1.258 . S
O1016 C1009 1.247 . S
O1016 Zn1013 2.028 . S
O1017 C1009 1.258 . S
O1017 Zn1011 2.035 . S
O1018 Zn1011 2.028 . S
O1018 C1021 1.247 . S
O1019 Zn1013 2.035 . S
O1019 C1021 1.258 . S
C1020 O1014 1.247 . S
C1020 O1015 1.258 . S
C1021 O1018 1.247 . S
C1021 O1019 1.258 . S
C1022 O1024 1.247 . S
C1022 O1026 1.258 . S
C1023 O1030 1.247 . S
C1023 O1031 1.258 . S
O1024 C1022 1.247 . S
O1024 Zn1025 2.028 . S
Zn1025 O1024 2.028 . S
Zn1025 O1029 2.035 . S
Zn1025 O1031 2.035 . S
Zn1025 O1032 2.028 . S
O1026 C1022 1.258 . S
O1026 Zn1027 2.035 . S
Zn1027 O1026 2.035 . S
Zn1027 O1028 2.028 . S
Zn1027 O1030 2.028 . S
Zn1027 O1033 2.035 . S
O1028 Zn1027 2.028 . S
O1028 C1034 1.247 . S
O1029 Zn1025 2.035 . S
O1029 C1034 1.258 . S
O1030 C1023 1.247 . S
O1030 Zn1027 2.028 . S
O1031 C1023 1.258 . S
O1031 Zn1025 2.035 . S
O1032 Zn1025 2.028 . S
O1032 C1035 1.247 . S
O1033 Zn1027 2.035 . S
O1033 C1035 1.258 . S
C1034 O1028 1.247 . S
C1034 O1029 1.258 . S
C1035 O1032 1.247 . S
C1035 O1033 1.258 . S
C1036 O1038 1.247 . S
C1036 O1040 1.258 . S
C1037 O1044 1.247 1_655 S
C1037 O1045 1.258 1_655 S
O1038 C1036 1.247 . S
O1038 Zn1039 2.028 . S
Zn1039 O1038 2.028 . S
Zn1039 O1043 2.035 . S
Zn1039 O1045 2.035 . S
Zn1039 O1046 2.028 . S
O1040 C1036 1.258 . S
O1040 Zn1041 2.035 . S
Zn1041 O1040 2.035 . S
Zn1041 O1042 2.028 . S
Zn1041 O1044 2.028 . S
Zn1041 O1047 2.035 . S
O1042 Zn1041 2.028 . S
O1042 C1048 1.247 . S
O1043 Zn1039 2.035 . S
O1043 C1048 1.258 . S
O1044 C1037 1.247 1_455 S
O1044 Zn1041 2.028 . S
O1045 C1037 1.258 1_455 S
O1045 Zn1039 2.035 . S
O1046 Zn1039 2.028 . S
O1046 C1049 1.247 . S
O1047 Zn1041 2.035 . S
O1047 C1049 1.258 . S
C1048 O1042 1.247 . S
C1048 O1043 1.258 . S
C1049 O1046 1.247 . S
C1049 O1047 1.258 . S
C1050 O1052 1.247 . S
C1050 O1054 1.258 . S
C1051 O1058 1.247 . S
C1051 O1059 1.258 . S
O1052 C1050 1.247 . S
O1052 Zn1053 2.028 . S
Zn1053 O1052 2.028 . S
Zn1053 O1057 2.035 . S
Zn1053 O1059 2.035 . S
Zn1053 O1060 2.028 . S
O1054 C1050 1.258 . S
O1054 Zn1055 2.035 . S
Zn1055 O1054 2.035 . S
Zn1055 O1056 2.028 . S
Zn1055 O1058 2.028 . S
Zn1055 O1061 2.035 . S
O1056 Zn1055 2.028 . S
O1056 C1062 1.247 . S
O1057 Zn1053 2.035 . S
O1057 C1062 1.258 . S
O1058 C1051 1.247 . S
O1058 Zn1055 2.028 . S
O1059 C1051 1.258 . S
O1059 Zn1053 2.035 . S
O1060 Zn1053 2.028 . S
O1060 C1063 1.247 . S
O1061 Zn1055 2.035 . S
O1061 C1063 1.258 . S
C1062 O1056 1.247 . S
C1062 O1057 1.258 . S
C1063 O1060 1.247 . S
C1063 O1061 1.258 . S
C1064 O1066 1.247 . S
C1064 O1068 1.258 . S
C1065 O1072 1.247 . S
C1065 O1073 1.258 . S
O1066 C1064 1.247 . S
O1066 Zn1067 2.028 . S
Zn1067 O1066 2.028 . S
Zn1067 O1071 2.035 . S
Zn1067 O1073 2.035 . S
Zn1067 O1074 2.028 . S
O1068 C1064 1.258 . S
O1068 Zn1069 2.035 . S
Zn1069 O1068 2.035 . S
Zn1069 O1070 2.028 . S
Zn1069 O1072 2.028 . S
Zn1069 O1075 2.035 . S
O1070 Zn1069 2.028 . S
O1070 C1076 1.247 . S
O1071 Zn1067 2.035 . S
O1071 C1076 1.258 . S
O1072 C1065 1.247 . S
O1072 Zn1069 2.028 . S
O1073 C1065 1.258 . S
O1073 Zn1067 2.035 . S
O1074 Zn1067 2.028 . S
O1074 C1077 1.247 . S
O1075 Zn1069 2.035 . S
O1075 C1077 1.258 . S
C1076 O1070 1.247 . S
C1076 O1071 1.258 . S
C1077 O1074 1.247 . S
C1077 O1075 1.258 . S
C1078 O1080 1.247 . S
C1078 O1082 1.258 . S
C1079 O1086 1.247 . S
C1079 O1087 1.258 . S
O1080 C1078 1.247 . S
O1080 Zn1081 2.028 . S
Zn1081 O1080 2.028 . S
Zn1081 O1085 2.035 . S
Zn1081 O1087 2.035 . S
Zn1081 O1088 2.028 . S
O1082 C1078 1.258 . S
O1082 Zn1083 2.035 . S
Zn1083 O1082 2.035 . S
Zn1083 O1084 2.028 . S
Zn1083 O1086 2.028 . S
Zn1083 O1089 2.035 . S
O1084 Zn1083 2.028 . S
O1084 C1090 1.247 . S
O1085 Zn1081 2.035 . S
O1085 C1090 1.258 . S
O1086 C1079 1.247 . S
O1086 Zn1083 2.028 . S
O1087 C1079 1.258 . S
O1087 Zn1081 2.035 . S
O1088 Zn1081 2.028 . S
O1088 C1091 1.247 . S
O1089 Zn1083 2.035 . S
O1089 C1091 1.258 . S
C1090 O1084 1.247 . S
C1090 O1085 1.258 . S
C1091 O1088 1.247 . S
C1091 O1089 1.258 . S
C1092 O1094 1.247 . S
C1092 O1096 1.258 . S
C1093 O1100 1.247 1_655 S
C1093 O1101 1.258 1_655 S
O1094 C1092 1.247 . S
O1094 Zn1095 2.028 . S
Zn1095 O1094 2.028 . S
Zn1095 O1099 2.035 . S
Zn1095 O1101 2.035 . S
Zn1095 O1102 2.028 . S
O1096 C1092 1.258 . S
O1096 Zn1097 2.035 . S
Zn1097 O1096 2.035 . S
Zn1097 O1098 2.028 . S
Zn1097 O1100 2.028 . S
Zn1097 O1103 2.035 . S
O1098 Zn1097 2.028 . S
O1098 C1104 1.247 . S
O1099 Zn1095 2.035 . S
O1099 C1104 1.258 . S
O1100 C1093 1.247 1_455 S
O1100 Zn1097 2.028 . S
O1101 C1093 1.258 1_455 S
O1101 Zn1095 2.035 . S
O1102 Zn1095 2.028 . S
O1102 C1105 1.247 . S
O1103 Zn1097 2.035 . S
O1103 C1105 1.258 . S
C1104 O1098 1.247 . S
C1104 O1099 1.258 . S
C1105 O1102 1.247 . S
C1105 O1103 1.258 . S
C1106 O1108 1.247 . S
C1106 O1110 1.258 . S
C1107 O1114 1.247 . S
C1107 O1115 1.258 . S
O1108 C1106 1.247 . S
O1108 Zn1109 2.028 . S
Zn1109 O1108 2.028 . S
Zn1109 O1113 2.035 . S
Zn1109 O1115 2.035 . S
Zn1109 O1116 2.028 . S
O1110 C1106 1.258 . S
O1110 Zn1111 2.035 . S
Zn1111 O1110 2.035 . S
Zn1111 O1112 2.028 . S
Zn1111 O1114 2.028 . S
Zn1111 O1117 2.035 . S
O1112 Zn1111 2.028 . S
O1112 C1118 1.247 . S
O1113 Zn1109 2.035 . S
O1113 C1118 1.258 . S
O1114 C1107 1.247 . S
O1114 Zn1111 2.028 . S
O1115 C1107 1.258 . S
O1115 Zn1109 2.035 . S
O1116 Zn1109 2.028 . S
O1116 C1119 1.247 . S
O1117 Zn1111 2.035 . S
O1117 C1119 1.258 . S
C1118 O1112 1.247 . S
C1118 O1113 1.258 . S
C1119 O1116 1.247 . S
C1119 O1117 1.258 . S
C1120 O1122 1.247 . S
C1120 O1124 1.258 . S
C1121 O1128 1.247 . S
C1121 O1129 1.258 . S
O1122 C1120 1.247 . S
O1122 Zn1123 2.028 . S
Zn1123 O1122 2.028 . S
Zn1123 O1127 2.035 . S
Zn1123 O1129 2.035 . S
Zn1123 O1130 2.028 . S
O1124 C1120 1.258 . S
O1124 Zn1125 2.035 . S
Zn1125 O1124 2.035 . S
Zn1125 O1126 2.028 . S
Zn1125 O1128 2.028 . S
Zn1125 O1131 2.035 . S
O1126 Zn1125 2.028 . S
O1126 C1132 1.247 . S
O1127 Zn1123 2.035 . S
O1127 C1132 1.258 . S
O1128 C1121 1.247 . S
O1128 Zn1125 2.028 . S
O1129 C1121 1.258 . S
O1129 Zn1123 2.035 . S
O1130 Zn1123 2.028 . S
O1130 C1133 1.247 . S
O1131 Zn1125 2.035 . S
O1131 C1133 1.258 . S
C1132 O1126 1.247 . S
C1132 O1127 1.258 . S
C1133 O1130 1.247 . S
C1133 O1131 1.258 . S
C1134 O1136 1.247 . S
C1134 O1138 1.258 . S
C1135 O1142 1.247 . S
C1135 O1143 1.258 . S
O1136 C1134 1.247 . S
O1136 Zn1137 2.028 . S
Zn1137 O1136 2.028 . S
Zn1137 O1141 2.035 . S
Zn1137 O1143 2.035 . S
Zn1137 O1144 2.028 . S
O1138 C1134 1.258 . S
O1138 Zn1139 2.035 . S
Zn1139 O1138 2.035 . S
Zn1139 O1140 2.028 . S
Zn1139 O1142 2.028 . S
Zn1139 O1145 2.035 . S
O1140 Zn1139 2.028 . S
O1140 C1146 1.247 . S
O1141 Zn1137 2.035 . S
O1141 C1146 1.258 . S
O1142 C1135 1.247 . S
O1142 Zn1139 2.028 . S
O1143 C1135 1.258 . S
O1143 Zn1137 2.035 . S
O1144 Zn1137 2.028 . S
O1144 C1147 1.247 . S
O1145 Zn1139 2.035 . S
O1145 C1147 1.258 . S
C1146 O1140 1.247 . S
C1146 O1141 1.258 . S
C1147 O1144 1.247 . S
C1147 O1145 1.258 . S
C1148 O1150 1.247 . S
C1148 O1152 1.258 . S
C1149 O1156 1.247 . S
C1149 O1157 1.258 . S
O1150 C1148 1.247 . S
O1150 Zn1151 2.028 . S
Zn1151 O1150 2.028 . S
Zn1151 O1155 2.035 . S
Zn1151 O1157 2.035 . S
Zn1151 O1158 2.028 . S
O1152 C1148 1.258 . S
O1152 Zn1153 2.035 . S
Zn1153 O1152 2.035 . S
Zn1153 O1154 2.028 . S
Zn1153 O1156 2.028 . S
Zn1153 O1159 2.035 . S
O1154 Zn1153 2.028 . S
O1154 C1160 1.247 . S
O1155 Zn1151 2.035 . S
O1155 C1160 1.258 . S
O1156 C1149 1.247 . S
O1156 Zn1153 2.028 . S
O1157 C1149 1.258 . S
O1157 Zn1151 2.035 . S
O1158 Zn1151 2.028 . S
O1158 C1161 1.247 . S
O1159 Zn1153 2.035 . S
O1159 C1161 1.258 . S
C1160 O1154 1.247 . S
C1160 O1155 1.258 . S
C1161 O1158 1.247 . S
C1161 O1159 1.258 . S
C1162 O1164 1.247 . S
C1162 O1166 1.258 . S
C1163 O1170 1.247 . S
C1163 O1171 1.258 . S
O1164 C1162 1.247 . S
O1164 Zn1165 2.028 . S
Zn1165 O1164 2.028 . S
Zn1165 O1169 2.035 . S
Zn1165 O1171 2.035 . S
Zn1165 O1172 2.028 . S
O1166 C1162 1.258 . S
O1166 Zn1167 2.035 . S
Zn1167 O1166 2.035 . S
Zn1167 O1168 2.028 . S
Zn1167 O1170 2.028 . S
Zn1167 O1173 2.035 . S
O1168 Zn1167 2.028 . S
O1168 C1174 1.247 . S
O1169 Zn1165 2.035 . S
O1169 C1174 1.258 . S
O1170 C1163 1.247 . S
O1170 Zn1167 2.028 . S
O1171 C1163 1.258 . S
O1171 Zn1165 2.035 . S
O1172 Zn1165 2.028 . S
O1172 C1175 1.247 . S
O1173 Zn1167 2.035 . S
O1173 C1175 1.258 . S
C1174 O1168 1.247 . S
C1174 O1169 1.258 . S
C1175 O1172 1.247 . S
C1175 O1173 1.258 . S
C1176 O1178 1.247 . S
C1176 O1180 1.258 . S
C1177 O1184 1.247 . S
C1177 O1185 1.258 . S
O1178 C1176 1.247 . S
O1178 Zn1179 2.028 . S
Zn1179 O1178 2.028 . S
Zn1179 O1183 2.035 . S
Zn1179 O1185 2.035 . S
Zn1179 O1186 2.028 . S
O1180 C1176 1.258 . S
O1180 Zn1181 2.035 . S
Zn1181 O1180 2.035 . S
Zn1181 O1182 2.028 . S
Zn1181 O1184 2.028 . S
Zn1181 O1187 2.035 . S
O1182 Zn1181 2.028 . S
O1182 C1188 1.247 . S
O1183 Zn1179 2.035 . S
O1183 C1188 1.258 . S
O1184 C1177 1.247 . S
O1184 Zn1181 2.028 . S
O1185 C1177 1.258 . S
O1185 Zn1179 2.035 . S
O1186 Zn1179 2.028 . S
O1186 C1189 1.247 . S
O1187 Zn1181 2.035 . S
O1187 C1189 1.258 . S
C1188 O1182 1.247 . S
C1188 O1183 1.258 . S
C1189 O1186 1.247 . S
C1189 O1187 1.258 . S
C1190 O1192 1.247 . S
C1190 O1194 1.258 . S
C1191 O1198 1.247 . S
C1191 O1199 1.258 . S
O1192 C1190 1.247 . S
O1192 Zn1193 2.028 . S
Zn1193 O1192 2.028 . S
Zn1193 O1197 2.035 . S
Zn1193 O1199 2.035 . S
Zn1193 O1200 2.028 . S
O1194 C1190 1.258 . S
O1194 Zn1195 2.035 . S
Zn1195 O1194 2.035 . S
Zn1195 O1196 2.028 . S
Zn1195 O1198 2.028 . S
Zn1195 O1201 2.035 . S
O1196 Zn1195 2.028 . S
O1196 C1202 1.247 . S
O1197 Zn1193 2.035 . S
O1197 C1202 1.258 . S
O1198 C1191 1.247 . S
O1198 Zn1195 2.028 . S
O1199 C1191 1.258 . S
O1199 Zn1193 2.035 . S
O1200 Zn1193 2.028 . S
O1200 C1203 1.247 . S
O1201 Zn1195 2.035 . S
O1201 C1203 1.258 . S
C1202 O1196 1.247 . S
C1202 O1197 1.258 . S
C1203 O1200 1.247 . S
C1203 O1201 1.258 . S
C1204 O1206 1.247 . S
C1204 O1208 1.258 . S
C1205 O1212 1.247 . S
C1205 O1213 1.258 . S
O1206 C1204 1.247 . S
O1206 Zn1207 2.028 . S
Zn1207 O1206 2.028 . S
Zn1207 O1211 2.035 . S
Zn1207 O1213 2.035 . S
Zn1207 O1214 2.028 . S
O1208 C1204 1.258 . S
O1208 Zn1209 2.035 . S
Zn1209 O1208 2.035 . S
Zn1209 O1210 2.028 . S
Zn1209 O1212 2.028 . S
Zn1209 O1215 2.035 . S
O1210 Zn1209 2.028 . S
O1210 C1216 1.247 . S
O1211 Zn1207 2.035 . S
O1211 C1216 1.258 . S
O1212 C1205 1.247 . S
O1212 Zn1209 2.028 . S
O1213 C1205 1.258 . S
O1213 Zn1207 2.035 . S
O1214 Zn1207 2.028 . S
O1214 C1217 1.247 . S
O1215 Zn1209 2.035 . S
O1215 C1217 1.258 . S
C1216 O1210 1.247 . S
C1216 O1211 1.258 . S
C1217 O1214 1.247 . S
C1217 O1215 1.258 . S
C1218 O1220 1.247 . S
C1218 O1222 1.258 . S
C1219 O1226 1.247 . S
C1219 O1227 1.258 . S
O1220 C1218 1.247 . S
O1220 Zn1221 2.028 . S
Zn1221 O1220 2.028 . S
Zn1221 O1225 2.035 . S
Zn1221 O1227 2.035 . S
Zn1221 O1228 2.028 . S
O1222 C1218 1.258 . S
O1222 Zn1223 2.035 . S
Zn1223 O1222 2.035 . S
Zn1223 O1224 2.028 . S
Zn1223 O1226 2.028 . S
Zn1223 O1229 2.035 . S
O1224 Zn1223 2.028 . S
O1224 C1230 1.247 . S
O1225 Zn1221 2.035 . S
O1225 C1230 1.258 . S
O1226 C1219 1.247 . S
O1226 Zn1223 2.028 . S
O1227 C1219 1.258 . S
O1227 Zn1221 2.035 . S
O1228 Zn1221 2.028 . S
O1228 C1231 1.247 . S
O1229 Zn1223 2.035 . S
O1229 C1231 1.258 . S
C1230 O1224 1.247 . S
C1230 O1225 1.258 . S
C1231 O1228 1.247 . S
C1231 O1229 1.258 . S
C1232 O1234 1.247 . S
C1232 O1236 1.258 . S
C1233 O1240 1.247 . S
C1233 O1241 1.258 . S
O1234 C1232 1.247 . S
O1234 Zn1235 2.028 . S
Zn1235 O1234 2.028 . S
Zn1235 O1239 2.035 . S
Zn1235 O1241 2.035 . S
Zn1235 O1242 2.028 . S
O1236 C1232 1.258 . S
O1236 Zn1237 2.035 . S
Zn1237 O1236 2.035 . S
Zn1237 O1238 2.028 . S
Zn1237 O1240 2.028 . S
Zn1237 O1243 2.035 . S
O1238 Zn1237 2.028 . S
O1238 C1244 1.247 . S
O1239 Zn1235 2.035 . S
O1239 C1244 1.258 . S
O1240 C1233 1.247 . S
O1240 Zn1237 2.028 . S
O1241 C1233 1.258 . S
O1241 Zn1235 2.035 . S
O1242 Zn1235 2.028 . S
O1242 C1245 1.247 . S
O1243 Zn1237 2.035 . S
O1243 C1245 1.258 . S
C1244 O1238 1.247 . S
C1244 O1239 1.258 . S
C1245 O1242 1.247 . S
C1245 O1243 1.258 . S
C1246 O1248 1.247 . S
C1246 O1250 1.258 . S
C1247 O1254 1.247 . S
C1247 O1255 1.258 . S
O1248 C1246 1.247 . S
O1248 Zn1249 2.028 . S
Zn1249 O1248 2.028 . S
Zn1249 O1253 2.035 . S
Zn1249 O1255 2.035 . S
Zn1249 O1256 2.028 . S
O1250 C1246 1.258 . S
O1250 Zn1251 2.035 . S
Zn1251 O1250 2.035 . S
Zn1251 O1252 2.028 . S
Zn1251 O1254 2.028 . S
Zn1251 O1257 2.035 . S
O1252 Zn1251 2.028 . S
O1252 C1258 1.247 . S
O1253 Zn1249 2.035 . S
O1253 C1258 1.258 . S
O1254 C1247 1.247 . S
O1254 Zn1251 2.028 . S
O1255 C1247 1.258 . S
O1255 Zn1249 2.035 . S
O1256 Zn1249 2.028 . S
O1256 C1259 1.247 . S
O1257 Zn1251 2.035 . S
O1257 C1259 1.258 . S
C1258 O1252 1.247 . S
C1258 O1253 1.258 . S
C1259 O1256 1.247 . S
C1259 O1257 1.258 . S
C1260 O1262 1.247 . S
C1260 O1264 1.258 . S
C1261 O1268 1.247 . S
C1261 O1269 1.258 . S
O1262 C1260 1.247 . S
O1262 Zn1263 2.028 . S
Zn1263 O1262 2.028 . S
Zn1263 O1267 2.035 . S
Zn1263 O1269 2.035 . S
Zn1263 O1270 2.028 . S
O1264 C1260 1.258 . S
O1264 Zn1265 2.035 . S
Zn1265 O1264 2.035 . S
Zn1265 O1266 2.028 . S
Zn1265 O1268 2.028 . S
Zn1265 O1271 2.035 . S
O1266 Zn1265 2.028 . S
O1266 C1272 1.247 . S
O1267 Zn1263 2.035 . S
O1267 C1272 1.258 . S
O1268 C1261 1.247 . S
O1268 Zn1265 2.028 . S
O1269 C1261 1.258 . S
O1269 Zn1263 2.035 . S
O1270 Zn1263 2.028 . S
O1270 C1273 1.247 . S
O1271 Zn1265 2.035 . S
O1271 C1273 1.258 . S
C1272 O1266 1.247 . S
C1272 O1267 1.258 . S
C1273 O1270 1.247 . S
C1273 O1271 1.258 . S
C1274 O1276 1.247 . S
C1274 O1278 1.258 . S
C1275 O1282 1.247 1_556 S
C1275 O1283 1.258 1_556 S
O1276 C1274 1.247 . S
O1276 Zn1277 2.028 . S
Zn1277 O1276 2.028 . S
Zn1277 O1281 2.035 . S
Zn1277 O1283 2.035 . S
Zn1277 O1284 2.028 . S
O1278 C1274 1.258 . S
O1278 Zn1279 2.035 . S
Zn1279 O1278 2.035 . S
Zn1279 O1280 2.028 . S
Zn1279 O1282 2.028 . S
Zn1279 O1285 2.035 . S
O1280 Zn1279 2.028 . S
O1280 C1286 1.247 . S
O1281 Zn1277 2.035 . S
O1281 C1286 1.258 . S
O1282 C1275 1.247 1_554 S
O1282 Zn1279 2.028 . S
O1283 C1275 1.258 1_554 S
O1283 Zn1277 2.035 . S
O1284 Zn1277 2.028 . S
O1284 C1287 1.247 . S
O1285 Zn1279 2.035 . S
O1285 C1287 1.258 . S
C1286 O1280 1.247 . S
C1286 O1281 1.258 . S
C1287 O1284 1.247 . S
C1287 O1285 1.258 . S
C1288 O1290 1.247 . S
C1288 O1292 1.258 . S
C1289 O1296 1.247 . S
C1289 O1297 1.258 . S
O1290 C1288 1.247 . S
O1290 Zn1291 2.028 . S
Zn1291 O1290 2.028 . S
Zn1291 O1295 2.035 . S
Zn1291 O1297 2.035 . S
Zn1291 O1298 2.028 . S
O1292 C1288 1.258 . S
O1292 Zn1293 2.035 . S
Zn1293 O1292 2.035 . S
Zn1293 O1294 2.028 . S
Zn1293 O1296 2.028 . S
Zn1293 O1299 2.035 . S
O1294 Zn1293 2.028 . S
O1294 C1300 1.247 . S
O1295 Zn1291 2.035 . S
O1295 C1300 1.258 . S
O1296 C1289 1.247 . S
O1296 Zn1293 2.028 . S
O1297 C1289 1.258 . S
O1297 Zn1291 2.035 . S
O1298 Zn1291 2.028 . S
O1298 C1301 1.247 . S
O1299 Zn1293 2.035 . S
O1299 C1301 1.258 . S
C1300 O1294 1.247 . S
C1300 O1295 1.258 . S
C1301 O1298 1.247 . S
C1301 O1299 1.258 . S
C1302 O1304 1.247 1_554 S
C1302 O1306 1.258 1_554 S
C1303 O1310 1.247 . S
C1303 O1311 1.258 . S
O1304 C1302 1.247 1_556 S
O1304 Zn1305 2.028 . S
Zn1305 O1304 2.028 . S
Zn1305 O1309 2.035 . S
Zn1305 O1311 2.035 . S
Zn1305 O1312 2.028 . S
O1306 C1302 1.258 1_556 S
O1306 Zn1307 2.035 . S
Zn1307 O1306 2.035 . S
Zn1307 O1308 2.028 . S
Zn1307 O1310 2.028 . S
Zn1307 O1313 2.035 . S
O1308 Zn1307 2.028 . S
O1308 C1314 1.247 . S
O1309 Zn1305 2.035 . S
O1309 C1314 1.258 . S
O1310 C1303 1.247 . S
O1310 Zn1307 2.028 . S
O1311 C1303 1.258 . S
O1311 Zn1305 2.035 . S
O1312 Zn1305 2.028 . S
O1312 C1315 1.247 . S
O1313 Zn1307 2.035 . S
O1313 C1315 1.258 . S
C1314 O1308 1.247 . S
C1314 O1309 1.258 . S
C1315 O1312 1.247 . S
C1315 O1313 1.258 . S
C1316 O1318 1.247 . S
C1316 O1320 1.258 . S
C1317 O1324 1.247 . S
C1317 O1325 1.258 . S
O1318 C1316 1.247 . S
O1318 Zn1319 2.028 . S
Zn1319 O1318 2.028 . S
Zn1319 O1323 2.035 . S
Zn1319 O1325 2.035 . S
Zn1319 O1326 2.028 . S
O1320 C1316 1.258 . S
O1320 Zn1321 2.035 . S
Zn1321 O1320 2.035 . S
Zn1321 O1322 2.028 . S
Zn1321 O1324 2.028 . S
Zn1321 O1327 2.035 . S
O1322 Zn1321 2.028 . S
O1322 C1328 1.247 . S
O1323 Zn1319 2.035 . S
O1323 C1328 1.258 . S
O1324 C1317 1.247 . S
O1324 Zn1321 2.028 . S
O1325 C1317 1.258 . S
O1325 Zn1319 2.035 . S
O1326 Zn1319 2.028 . S
O1326 C1329 1.247 . S
O1327 Zn1321 2.035 . S
O1327 C1329 1.258 . S
C1328 O1322 1.247 . S
C1328 O1323 1.258 . S
C1329 O1326 1.247 . S
C1329 O1327 1.258 . S
C1330 O1332 1.247 . S
C1330 O1334 1.258 . S
C1331 O1338 1.247 . S
C1331 O1339 1.258 . S
O1332 C1330 1.247 . S
O1332 Zn1333 2.028 . S
Zn1333 O1332 2.028 . S
Zn1333 O1337 2.035 . S
Zn1333 O1339 2.035 . S
Zn1333 O1340 2.028 . S
O1334 C1330 1.258 . S
O1334 Zn1335 2.035 . S
Zn1335 O1334 2.035 . S
Zn1335 O1336 2.028 . S
Zn1335 O1338 2.028 . S
Zn1335 O1341 2.035 . S
O1336 Zn1335 2.028 . S
O1336 C1342 1.247 . S
O1337 Zn1333 2.035 . S
O1337 C1342 1.258 . S
O1338 C1331 1.247 . S
O1338 Zn1335 2.028 . S
O1339 C1331 1.258 . S
O1339 Zn1333 2.035 . S
O1340 Zn1333 2.028 . S
O1340 C1343 1.247 . S
O1341 Zn1335 2.035 . S
O1341 C1343 1.258 . S
C1342 O1336 1.247 . S
C1342 O1337 1.258 . S
C1343 O1340 1.247 . S
C1343 O1341 1.258 . S
H1344 C1350 0.930 . S
H1345 C1354 0.930 . S
H1346 C1359 0.929 . S
H1347 C1357 0.929 . S
H1348 C1352 0.929 . S
H1349 C1358 0.929 . S
C1350 H1344 0.930 . S
C1350 C1351 1.367 . S
C1350 C1358 1.378 . S
C1351 C1350 1.367 . S
C1351 C1359 1.433 . S
C1352 H1348 0.929 . S
C1352 C1354 1.378 . S
C1352 C1356 1.350 . S
C1353 C1356 1.463 . S
C1353 C1358 1.350 . S
C1353 N1361 1.427 . S
C1354 H1345 0.930 . S
C1354 C1352 1.378 . S
C1354 C1355 1.367 . S
C1355 C1354 1.367 . S
C1355 C1357 1.433 . S
C1356 C1352 1.350 . S
C1356 C1353 1.463 . S
C1356 N1360 1.427 . S
C1357 H1347 0.929 . S
C1357 C1355 1.433 . S
C1357 N1360 1.384 . S
C1358 H1349 0.929 . S
C1358 C1350 1.378 . S
C1358 C1353 1.350 . S
C1359 H1346 0.929 . S
C1359 C1351 1.433 . S
C1359 N1361 1.384 . S
N1360 C1356 1.427 . S
N1360 C1357 1.384 . S
N1361 C1353 1.427 . S
N1361 C1359 1.384 . S
H1362 C1368 0.930 . S
H1363 C1372 0.930 . S
H1364 C1377 0.929 . S
H1365 C1375 0.929 . S
H1366 C1370 0.929 . S
H1367 C1376 0.929 . S
C1368 H1362 0.930 . S
C1368 C1369 1.367 . S
C1368 C1376 1.378 . S
C1369 C1368 1.367 . S
C1369 C1377 1.433 . S
C1370 H1366 0.929 . S
C1370 C1372 1.378 . S
C1370 C1374 1.350 . S
C1371 C1374 1.463 . S
C1371 C1376 1.350 . S
C1371 N1379 1.427 . S
C1372 H1363 0.930 . S
C1372 C1370 1.378 . S
C1372 C1373 1.367 . S
C1373 C1372 1.367 . S
C1373 C1375 1.433 . S
C1374 C1370 1.350 . S
C1374 C1371 1.463 . S
C1374 N1378 1.427 . S
C1375 H1365 0.929 . S
C1375 C1373 1.433 . S
C1375 N1378 1.384 . S
C1376 H1367 0.929 . S
C1376 C1368 1.378 . S
C1376 C1371 1.350 . S
C1377 H1364 0.929 . S
C1377 C1369 1.433 . S
C1377 N1379 1.384 . S
N1378 C1374 1.427 . S
N1378 C1375 1.384 . S
N1379 C1371 1.427 . S
N1379 C1377 1.384 . S
H1380 C1386 0.930 . S
H1381 C1390 0.930 . S
H1382 C1395 0.929 . S
H1383 C1393 0.929 . S
H1384 C1388 0.929 . S
H1385 C1394 0.929 . S
C1386 H1380 0.930 . S
C1386 C1387 1.367 . S
C1386 C1394 1.378 . S
C1387 C1386 1.367 . S
C1387 C1395 1.433 . S
C1388 H1384 0.929 . S
C1388 C1390 1.378 . S
C1388 C1392 1.350 . S
C1389 C1392 1.463 . S
C1389 C1394 1.350 . S
C1389 N1397 1.427 . S
C1390 H1381 0.930 . S
C1390 C1388 1.378 . S
C1390 C1391 1.367 . S
C1391 C1390 1.367 . S
C1391 C1393 1.433 . S
C1392 C1388 1.350 . S
C1392 C1389 1.463 . S
C1392 N1396 1.427 . S
C1393 H1383 0.929 . S
C1393 C1391 1.433 . S
C1393 N1396 1.384 . S
C1394 H1385 0.929 . S
C1394 C1386 1.378 . S
C1394 C1389 1.350 . S
C1395 H1382 0.929 . S
C1395 C1387 1.433 . S
C1395 N1397 1.384 . S
N1396 C1392 1.427 . S
N1396 C1393 1.384 . S
N1397 C1389 1.427 . S
N1397 C1395 1.384 . S
H1398 C1404 0.930 . S
H1399 C1408 0.930 . S
H1400 C1413 0.929 . S
H1401 C1411 0.929 . S
H1402 C1406 0.929 . S
H1403 C1412 0.929 . S
C1404 H1398 0.930 . S
C1404 C1405 1.367 . S
C1404 C1412 1.378 . S
C1405 C1404 1.367 . S
C1405 C1413 1.433 . S
C1406 H1402 0.929 . S
C1406 C1408 1.378 . S
C1406 C1410 1.350 . S
C1407 C1410 1.463 . S
C1407 C1412 1.350 . S
C1407 N1415 1.427 . S
C1408 H1399 0.930 . S
C1408 C1406 1.378 . S
C1408 C1409 1.367 . S
C1409 C1408 1.367 . S
C1409 C1411 1.433 . S
C1410 C1406 1.350 . S
C1410 C1407 1.463 . S
C1410 N1414 1.427 . S
C1411 H1401 0.929 . S
C1411 C1409 1.433 . S
C1411 N1414 1.384 . S
C1412 H1403 0.929 . S
C1412 C1404 1.378 . S
C1412 C1407 1.350 . S
C1413 H1400 0.929 . S
C1413 C1405 1.433 . S
C1413 N1415 1.384 . S
N1414 C1410 1.427 . S
N1414 C1411 1.384 . S
N1415 C1407 1.427 . S
N1415 C1413 1.384 . S
H1416 C1422 0.930 . S
H1417 C1426 0.930 . S
H1418 C1431 0.929 . S
H1419 C1429 0.929 . S
H1420 C1424 0.929 . S
H1421 C1430 0.929 . S
C1422 H1416 0.930 . S
C1422 C1423 1.367 . S
C1422 C1430 1.378 . S
C1423 C1422 1.367 . S
C1423 C1431 1.433 . S
C1424 H1420 0.929 . S
C1424 C1426 1.378 . S
C1424 C1428 1.350 . S
C1425 C1428 1.463 . S
C1425 C1430 1.350 . S
C1425 N1433 1.427 . S
C1426 H1417 0.930 . S
C1426 C1424 1.378 . S
C1426 C1427 1.367 . S
C1427 C1426 1.367 . S
C1427 C1429 1.433 . S
C1428 C1424 1.350 . S
C1428 C1425 1.463 . S
C1428 N1432 1.427 . S
C1429 H1419 0.929 . S
C1429 C1427 1.433 . S
C1429 N1432 1.384 . S
C1430 H1421 0.929 . S
C1430 C1422 1.378 . S
C1430 C1425 1.350 . S
C1431 H1418 0.929 . S
C1431 C1423 1.433 . S
C1431 N1433 1.384 . S
N1432 C1428 1.427 . S
N1432 C1429 1.384 . S
N1433 C1425 1.427 . S
N1433 C1431 1.384 . S
H1434 C1440 0.930 . S
H1435 C1444 0.930 . S
H1436 C1449 0.929 . S
H1437 C1447 0.929 . S
H1438 C1442 0.929 . S
H1439 C1448 0.929 . S
C1440 H1434 0.930 . S
C1440 C1441 1.367 . S
C1440 C1448 1.378 . S
C1441 C1440 1.367 . S
C1441 C1449 1.433 . S
C1442 H1438 0.929 . S
C1442 C1444 1.378 . S
C1442 C1446 1.350 . S
C1443 C1446 1.463 . S
C1443 C1448 1.350 . S
C1443 N1451 1.427 . S
C1444 H1435 0.930 . S
C1444 C1442 1.378 . S
C1444 C1445 1.367 . S
C1445 C1444 1.367 . S
C1445 C1447 1.433 . S
C1446 C1442 1.350 . S
C1446 C1443 1.463 . S
C1446 N1450 1.427 . S
C1447 H1437 0.929 . S
C1447 C1445 1.433 . S
C1447 N1450 1.384 . S
C1448 H1439 0.929 . S
C1448 C1440 1.378 . S
C1448 C1443 1.350 . S
C1449 H1436 0.929 . S
C1449 C1441 1.433 . S
C1449 N1451 1.384 . S
N1450 C1446 1.427 . S
N1450 C1447 1.384 . S
N1451 C1443 1.427 . S
N1451 C1449 1.384 . S
H1452 C1458 0.930 . S
H1453 C1462 0.930 . S
H1454 C1467 0.929 . S
H1455 C1465 0.929 . S
H1456 C1460 0.929 . S
H1457 C1466 0.929 . S
C1458 H1452 0.930 . S
C1458 C1459 1.367 . S
C1458 C1466 1.378 . S
C1459 C1458 1.367 . S
C1459 C1467 1.433 . S
C1460 H1456 0.929 . S
C1460 C1462 1.378 . S
C1460 C1464 1.350 . S
C1461 C1464 1.463 . S
C1461 C1466 1.350 . S
C1461 N1469 1.427 . S
C1462 H1453 0.930 . S
C1462 C1460 1.378 . S
C1462 C1463 1.367 . S
C1463 C1462 1.367 . S
C1463 C1465 1.433 . S
C1464 C1460 1.350 . S
C1464 C1461 1.463 . S
C1464 N1468 1.427 . S
C1465 H1455 0.929 . S
C1465 C1463 1.433 . S
C1465 N1468 1.384 . S
C1466 H1457 0.929 . S
C1466 C1458 1.378 . S
C1466 C1461 1.350 . S
C1467 H1454 0.929 . S
C1467 C1459 1.433 . S
C1467 N1469 1.384 . S
N1468 C1464 1.427 . S
N1468 C1465 1.384 . S
N1469 C1461 1.427 . S
N1469 C1467 1.384 . S
H1470 C1476 0.930 . S
H1471 C1480 0.930 . S
H1472 C1485 0.929 . S
H1473 C1483 0.929 . S
H1474 C1478 0.929 . S
H1475 C1484 0.929 . S
C1476 H1470 0.930 . S
C1476 C1477 1.367 . S
C1476 C1484 1.378 . S
C1477 C1476 1.367 . S
C1477 C1485 1.433 . S
C1478 H1474 0.929 . S
C1478 C1480 1.378 . S
C1478 C1482 1.350 . S
C1479 C1482 1.463 . S
C1479 C1484 1.350 . S
C1479 N1487 1.427 . S
C1480 H1471 0.930 . S
C1480 C1478 1.378 . S
C1480 C1481 1.367 . S
C1481 C1480 1.367 . S
C1481 C1483 1.433 . S
C1482 C1478 1.350 . S
C1482 C1479 1.463 . S
C1482 N1486 1.427 . S
C1483 H1473 0.929 . S
C1483 C1481 1.433 . S
C1483 N1486 1.384 . S
C1484 H1475 0.929 . S
C1484 C1476 1.378 . S
C1484 C1479 1.350 . S
C1485 H1472 0.929 . S
C1485 C1477 1.433 . S
C1485 N1487 1.384 . S
N1486 C1482 1.427 . S
N1486 C1483 1.384 . S
N1487 C1479 1.427 . S
N1487 C1485 1.384 . S
H1488 C1494 0.930 . S
H1489 C1498 0.930 . S
H1490 C1503 0.929 . S
H1491 C1501 0.929 . S
H1492 C1496 0.929 . S
H1493 C1502 0.929 . S
C1494 H1488 0.930 . S
C1494 C1495 1.367 . S
C1494 C1502 1.378 . S
C1495 C1494 1.367 . S
C1495 C1503 1.433 . S
C1496 H1492 0.929 . S
C1496 C1498 1.378 . S
C1496 C1500 1.350 . S
C1497 C1500 1.463 . S
C1497 C1502 1.350 . S
C1497 N1505 1.427 . S
C1498 H1489 0.930 . S
C1498 C1496 1.378 . S
C1498 C1499 1.367 . S
C1499 C1498 1.367 . S
C1499 C1501 1.433 . S
C1500 C1496 1.350 . S
C1500 C1497 1.463 . S
C1500 N1504 1.427 . S
C1501 H1491 0.929 . S
C1501 C1499 1.433 . S
C1501 N1504 1.384 . S
C1502 H1493 0.929 . S
C1502 C1494 1.378 . S
C1502 C1497 1.350 . S
C1503 H1490 0.929 . S
C1503 C1495 1.433 . S
C1503 N1505 1.384 . S
N1504 C1500 1.427 . S
N1504 C1501 1.384 . S
N1505 C1497 1.427 . S
N1505 C1503 1.384 . S
H1506 C1512 0.930 . S
H1507 C1516 0.930 . S
H1508 C1521 0.929 . S
H1509 C1519 0.929 . S
H1510 C1514 0.929 . S
H1511 C1520 0.929 . S
C1512 H1506 0.930 . S
C1512 C1513 1.367 . S
C1512 C1520 1.378 . S
C1513 C1512 1.367 . S
C1513 C1521 1.433 . S
C1514 H1510 0.929 . S
C1514 C1516 1.378 . S
C1514 C1518 1.350 . S
C1515 C1518 1.463 . S
C1515 C1520 1.350 . S
C1515 N1523 1.427 . S
C1516 H1507 0.930 . S
C1516 C1514 1.378 . S
C1516 C1517 1.367 . S
C1517 C1516 1.367 . S
C1517 C1519 1.433 . S
C1518 C1514 1.350 . S
C1518 C1515 1.463 . S
C1518 N1522 1.427 . S
C1519 H1509 0.929 . S
C1519 C1517 1.433 . S
C1519 N1522 1.384 . S
C1520 H1511 0.929 . S
C1520 C1512 1.378 . S
C1520 C1515 1.350 . S
C1521 H1508 0.929 . S
C1521 C1513 1.433 . S
C1521 N1523 1.384 . S
N1522 C1518 1.427 . S
N1522 C1519 1.384 . S
N1523 C1515 1.427 . S
N1523 C1521 1.384 . S
H1524 C1530 0.930 . S
H1525 C1534 0.930 . S
H1526 C1539 0.929 . S
H1527 C1537 0.929 . S
H1528 C1532 0.929 . S
H1529 C1538 0.929 . S
C1530 H1524 0.930 . S
C1530 C1531 1.367 . S
C1530 C1538 1.378 . S
C1531 C1530 1.367 . S
C1531 C1539 1.433 . S
C1532 H1528 0.929 . S
C1532 C1534 1.378 . S
C1532 C1536 1.350 . S
C1533 C1536 1.463 . S
C1533 C1538 1.350 . S
C1533 N1541 1.427 . S
C1534 H1525 0.930 . S
C1534 C1532 1.378 . S
C1534 C1535 1.367 . S
C1535 C1534 1.367 . S
C1535 C1537 1.433 . S
C1536 C1532 1.350 . S
C1536 C1533 1.463 . S
C1536 N1540 1.427 . S
C1537 H1527 0.929 . S
C1537 C1535 1.433 . S
C1537 N1540 1.384 . S
C1538 H1529 0.929 . S
C1538 C1530 1.378 . S
C1538 C1533 1.350 . S
C1539 H1526 0.929 . S
C1539 C1531 1.433 . S
C1539 N1541 1.384 . S
N1540 C1536 1.427 . S
N1540 C1537 1.384 . S
N1541 C1533 1.427 . S
N1541 C1539 1.384 . S
H1542 C1548 0.930 . S
H1543 C1552 0.930 . S
H1544 C1557 0.929 . S
H1545 C1555 0.929 . S
H1546 C1550 0.929 . S
H1547 C1556 0.929 . S
C1548 H1542 0.930 . S
C1548 C1549 1.367 . S
C1548 C1556 1.378 . S
C1549 C1548 1.367 . S
C1549 C1557 1.433 . S
C1550 H1546 0.929 . S
C1550 C1552 1.378 . S
C1550 C1554 1.350 . S
C1551 C1554 1.463 . S
C1551 C1556 1.350 . S
C1551 N1559 1.427 . S
C1552 H1543 0.930 . S
C1552 C1550 1.378 . S
C1552 C1553 1.367 . S
C1553 C1552 1.367 . S
C1553 C1555 1.433 . S
C1554 C1550 1.350 . S
C1554 C1551 1.463 . S
C1554 N1558 1.427 . S
C1555 H1545 0.929 . S
C1555 C1553 1.433 . S
C1555 N1558 1.384 . S
C1556 H1547 0.929 . S
C1556 C1548 1.378 . S
C1556 C1551 1.350 . S
C1557 H1544 0.929 . S
C1557 C1549 1.433 . S
C1557 N1559 1.384 . S
N1558 C1554 1.427 . S
N1558 C1555 1.384 . S
N1559 C1551 1.427 . S
N1559 C1557 1.384 . S
H1560 C1566 0.930 . S
H1561 C1570 0.930 . S
H1562 C1575 0.929 . S
H1563 C1573 0.929 . S
H1564 C1568 0.929 . S
H1565 C1574 0.929 . S
C1566 H1560 0.930 . S
C1566 C1567 1.367 . S
C1566 C1574 1.378 . S
C1567 C1566 1.367 . S
C1567 C1575 1.433 . S
C1568 H1564 0.929 . S
C1568 C1570 1.378 . S
C1568 C1572 1.350 . S
C1569 C1572 1.463 . S
C1569 C1574 1.350 . S
C1569 N1577 1.427 . S
C1570 H1561 0.930 . S
C1570 C1568 1.378 . S
C1570 C1571 1.367 . S
C1571 C1570 1.367 . S
C1571 C1573 1.433 . S
C1572 C1568 1.350 . S
C1572 C1569 1.463 . S
C1572 N1576 1.427 . S
C1573 H1563 0.929 . S
C1573 C1571 1.433 . S
C1573 N1576 1.384 . S
C1574 H1565 0.929 . S
C1574 C1566 1.378 . S
C1574 C1569 1.350 . S
C1575 H1562 0.929 . S
C1575 C1567 1.433 . S
C1575 N1577 1.384 . S
N1576 C1572 1.427 . S
N1576 C1573 1.384 . S
N1577 C1569 1.427 . S
N1577 C1575 1.384 . S
H1578 C1584 0.930 . S
H1579 C1588 0.930 . S
H1580 C1593 0.929 . S
H1581 C1591 0.929 . S
H1582 C1586 0.929 . S
H1583 C1592 0.929 . S
C1584 H1578 0.930 . S
C1584 C1585 1.367 . S
C1584 C1592 1.378 . S
C1585 C1584 1.367 . S
C1585 C1593 1.433 . S
C1586 H1582 0.929 . S
C1586 C1588 1.378 . S
C1586 C1590 1.350 . S
C1587 C1590 1.463 . S
C1587 C1592 1.350 . S
C1587 N1595 1.427 . S
C1588 H1579 0.930 . S
C1588 C1586 1.378 . S
C1588 C1589 1.367 . S
C1589 C1588 1.367 . S
C1589 C1591 1.433 . S
C1590 C1586 1.350 . S
C1590 C1587 1.463 . S
C1590 N1594 1.427 . S
C1591 H1581 0.929 . S
C1591 C1589 1.433 . S
C1591 N1594 1.384 . S
C1592 H1583 0.929 . S
C1592 C1584 1.378 . S
C1592 C1587 1.350 . S
C1593 H1580 0.929 . S
C1593 C1585 1.433 . S
C1593 N1595 1.384 . S
N1594 C1590 1.427 . S
N1594 C1591 1.384 . S
N1595 C1587 1.427 . S
N1595 C1593 1.384 . S
H1596 C1602 0.930 . S
H1597 C1606 0.930 . S
H1598 C1611 0.929 . S
H1599 C1609 0.929 . S
H1600 C1604 0.929 . S
H1601 C1610 0.929 . S
C1602 H1596 0.930 . S
C1602 C1603 1.367 . S
C1602 C1610 1.378 . S
C1603 C1602 1.367 . S
C1603 C1611 1.433 . S
C1604 H1600 0.929 . S
C1604 C1606 1.378 . S
C1604 C1608 1.350 . S
C1605 C1608 1.463 . S
C1605 C1610 1.350 . S
C1605 N1613 1.427 . S
C1606 H1597 0.930 . S
C1606 C1604 1.378 . S
C1606 C1607 1.367 . S
C1607 C1606 1.367 . S
C1607 C1609 1.433 . S
C1608 C1604 1.350 . S
C1608 C1605 1.463 . S
C1608 N1612 1.427 . S
C1609 H1599 0.929 . S
C1609 C1607 1.433 . S
C1609 N1612 1.384 . S
C1610 H1601 0.929 . S
C1610 C1602 1.378 . S
C1610 C1605 1.350 . S
C1611 H1598 0.929 . S
C1611 C1603 1.433 . S
C1611 N1613 1.384 . S
N1612 C1608 1.427 . S
N1612 C1609 1.384 . S
N1613 C1605 1.427 . S
N1613 C1611 1.384 . S
H1614 C1620 0.930 . S
H1615 C1624 0.930 . S
H1616 C1629 0.929 . S
H1617 C1627 0.929 . S
H1618 C1622 0.929 . S
H1619 C1628 0.929 . S
C1620 H1614 0.930 . S
C1620 C1621 1.367 . S
C1620 C1628 1.378 . S
C1621 C1620 1.367 . S
C1621 C1629 1.433 . S
C1622 H1618 0.929 . S
C1622 C1624 1.378 . S
C1622 C1626 1.350 . S
C1623 C1626 1.463 . S
C1623 C1628 1.350 . S
C1623 N1631 1.427 . S
C1624 H1615 0.930 . S
C1624 C1622 1.378 . S
C1624 C1625 1.367 . S
C1625 C1624 1.367 . S
C1625 C1627 1.433 . S
C1626 C1622 1.350 . S
C1626 C1623 1.463 . S
C1626 N1630 1.427 . S
C1627 H1617 0.929 . S
C1627 C1625 1.433 . S
C1627 N1630 1.384 . S
C1628 H1619 0.929 . S
C1628 C1620 1.378 . S
C1628 C1623 1.350 . S
C1629 H1616 0.929 . S
C1629 C1621 1.433 . S
C1629 N1631 1.384 . S
N1630 C1626 1.427 . S
N1630 C1627 1.384 . S
N1631 C1623 1.427 . S
N1631 C1629 1.384 . S
H1632 C1638 0.930 . S
H1633 C1642 0.930 . S
H1634 C1647 0.929 . S
H1635 C1645 0.929 . S
H1636 C1640 0.929 . S
H1637 C1646 0.929 . S
C1638 H1632 0.930 . S
C1638 C1639 1.367 . S
C1638 C1646 1.378 . S
C1639 C1638 1.367 . S
C1639 C1647 1.433 . S
C1640 H1636 0.929 . S
C1640 C1642 1.378 . S
C1640 C1644 1.350 . S
C1641 C1644 1.463 . S
C1641 C1646 1.350 . S
C1641 N1649 1.427 . S
C1642 H1633 0.930 . S
C1642 C1640 1.378 . S
C1642 C1643 1.367 . S
C1643 C1642 1.367 . S
C1643 C1645 1.433 . S
C1644 C1640 1.350 . S
C1644 C1641 1.463 . S
C1644 N1648 1.427 . S
C1645 H1635 0.929 . S
C1645 C1643 1.433 . S
C1645 N1648 1.384 . S
C1646 H1637 0.929 . S
C1646 C1638 1.378 . S
C1646 C1641 1.350 . S
C1647 H1634 0.929 . S
C1647 C1639 1.433 . S
C1647 N1649 1.384 . S
N1648 C1644 1.427 . S
N1648 C1645 1.384 . S
N1649 C1641 1.427 . S
N1649 C1647 1.384 . S
H1650 C1656 0.930 . S
H1651 C1660 0.930 . S
H1652 C1665 0.929 . S
H1653 C1663 0.929 . S
H1654 C1658 0.929 . S
H1655 C1664 0.929 . S
C1656 H1650 0.930 . S
C1656 C1657 1.367 . S
C1656 C1664 1.378 . S
C1657 C1656 1.367 . S
C1657 C1665 1.433 . S
C1658 H1654 0.929 . S
C1658 C1660 1.378 . S
C1658 C1662 1.350 . S
C1659 C1662 1.463 . S
C1659 C1664 1.350 . S
C1659 N1667 1.427 . S
C1660 H1651 0.930 . S
C1660 C1658 1.378 . S
C1660 C1661 1.367 . S
C1661 C1660 1.367 . S
C1661 C1663 1.433 . S
C1662 C1658 1.350 . S
C1662 C1659 1.463 . S
C1662 N1666 1.427 . S
C1663 H1653 0.929 . S
C1663 C1661 1.433 . S
C1663 N1666 1.384 . S
C1664 H1655 0.929 . S
C1664 C1656 1.378 . S
C1664 C1659 1.350 . S
C1665 H1652 0.929 . S
C1665 C1657 1.433 . S
C1665 N1667 1.384 . S
N1666 C1662 1.427 . S
N1666 C1663 1.384 . S
N1667 C1659 1.427 . S
N1667 C1665 1.384 . S
H1668 C1674 0.930 . S
H1669 C1678 0.930 . S
H1670 C1683 0.929 . S
H1671 C1681 0.929 . S
H1672 C1676 0.929 . S
H1673 C1682 0.929 . S
C1674 H1668 0.930 . S
C1674 C1675 1.367 . S
C1674 C1682 1.378 . S
C1675 C1674 1.367 . S
C1675 C1683 1.433 . S
C1676 H1672 0.929 . S
C1676 C1678 1.378 . S
C1676 C1680 1.350 . S
C1677 C1680 1.463 . S
C1677 C1682 1.350 . S
C1677 N1685 1.427 . S
C1678 H1669 0.930 . S
C1678 C1676 1.378 . S
C1678 C1679 1.367 . S
C1679 C1678 1.367 . S
C1679 C1681 1.433 . S
C1680 C1676 1.350 . S
C1680 C1677 1.463 . S
C1680 N1684 1.427 . S
C1681 H1671 0.929 . S
C1681 C1679 1.433 . S
C1681 N1684 1.384 . S
C1682 H1673 0.929 . S
C1682 C1674 1.378 . S
C1682 C1677 1.350 . S
C1683 H1670 0.929 . S
C1683 C1675 1.433 . S
C1683 N1685 1.384 . S
N1684 C1680 1.427 . S
N1684 C1681 1.384 . S
N1685 C1677 1.427 . S
N1685 C1683 1.384 . S
H1686 C1692 0.930 . S
H1687 C1696 0.930 . S
H1688 C1701 0.929 . S
H1689 C1699 0.929 . S
H1690 C1694 0.929 . S
H1691 C1700 0.929 . S
C1692 H1686 0.930 . S
C1692 C1693 1.367 . S
C1692 C1700 1.378 . S
C1693 C1692 1.367 . S
C1693 C1701 1.433 . S
C1694 H1690 0.929 . S
C1694 C1696 1.378 . S
C1694 C1698 1.350 . S
C1695 C1698 1.463 . S
C1695 C1700 1.350 . S
C1695 N1703 1.427 . S
C1696 H1687 0.930 . S
C1696 C1694 1.378 . S
C1696 C1697 1.367 . S
C1697 C1696 1.367 . S
C1697 C1699 1.433 . S
C1698 C1694 1.350 . S
C1698 C1695 1.463 . S
C1698 N1702 1.427 . S
C1699 H1689 0.929 . S
C1699 C1697 1.433 . S
C1699 N1702 1.384 . S
C1700 H1691 0.929 . S
C1700 C1692 1.378 . S
C1700 C1695 1.350 . S
C1701 H1688 0.929 . S
C1701 C1693 1.433 . S
C1701 N1703 1.384 . S
N1702 C1698 1.427 . S
N1702 C1699 1.384 . S
N1703 C1695 1.427 . S
N1703 C1701 1.384 . S
H1704 C1710 0.930 . S
H1705 C1714 0.930 . S
H1706 C1719 0.929 . S
H1707 C1717 0.929 . S
H1708 C1712 0.929 . S
H1709 C1718 0.929 . S
C1710 H1704 0.930 . S
C1710 C1711 1.367 . S
C1710 C1718 1.378 . S
C1711 C1710 1.367 . S
C1711 C1719 1.433 . S
C1712 H1708 0.929 . S
C1712 C1714 1.378 . S
C1712 C1716 1.350 . S
C1713 C1716 1.463 . S
C1713 C1718 1.350 . S
C1713 N1721 1.427 . S
C1714 H1705 0.930 . S
C1714 C1712 1.378 . S
C1714 C1715 1.367 . S
C1715 C1714 1.367 . S
C1715 C1717 1.433 . S
C1716 C1712 1.350 . S
C1716 C1713 1.463 . S
C1716 N1720 1.427 . S
C1717 H1707 0.929 . S
C1717 C1715 1.433 . S
C1717 N1720 1.384 . S
C1718 H1709 0.929 . S
C1718 C1710 1.378 . S
C1718 C1713 1.350 . S
C1719 H1706 0.929 . S
C1719 C1711 1.433 . S
C1719 N1721 1.384 . S
N1720 C1716 1.427 . S
N1720 C1717 1.384 . S
N1721 C1713 1.427 . S
N1721 C1719 1.384 . S
H1722 C1728 0.930 . S
H1723 C1732 0.930 . S
H1724 C1737 0.929 . S
H1725 C1735 0.929 . S
H1726 C1730 0.929 . S
H1727 C1736 0.929 . S
C1728 H1722 0.930 . S
C1728 C1729 1.367 . S
C1728 C1736 1.378 . S
C1729 C1728 1.367 . S
C1729 C1737 1.433 . S
C1730 H1726 0.929 . S
C1730 C1732 1.378 . S
C1730 C1734 1.350 . S
C1731 C1734 1.463 . S
C1731 C1736 1.350 . S
C1731 N1739 1.427 . S
C1732 H1723 0.930 . S
C1732 C1730 1.378 . S
C1732 C1733 1.367 . S
C1733 C1732 1.367 . S
C1733 C1735 1.433 . S
C1734 C1730 1.350 . S
C1734 C1731 1.463 . S
C1734 N1738 1.427 . S
C1735 H1725 0.929 . S
C1735 C1733 1.433 . S
C1735 N1738 1.384 . S
C1736 H1727 0.929 . S
C1736 C1728 1.378 . S
C1736 C1731 1.350 . S
C1737 H1724 0.929 . S
C1737 C1729 1.433 . S
C1737 N1739 1.384 . S
N1738 C1734 1.427 . S
N1738 C1735 1.384 . S
N1739 C1731 1.427 . S
N1739 C1737 1.384 . S
H1740 C1746 0.930 . S
H1741 C1750 0.930 . S
H1742 C1755 0.929 . S
H1743 C1753 0.929 . S
H1744 C1748 0.929 . S
H1745 C1754 0.929 . S
C1746 H1740 0.930 . S
C1746 C1747 1.367 . S
C1746 C1754 1.378 . S
C1747 C1746 1.367 . S
C1747 C1755 1.433 . S
C1748 H1744 0.929 . S
C1748 C1750 1.378 . S
C1748 C1752 1.350 . S
C1749 C1752 1.463 . S
C1749 C1754 1.350 . S
C1749 N1757 1.427 . S
C1750 H1741 0.930 . S
C1750 C1748 1.378 . S
C1750 C1751 1.367 . S
C1751 C1750 1.367 . S
C1751 C1753 1.433 . S
C1752 C1748 1.350 . S
C1752 C1749 1.463 . S
C1752 N1756 1.427 . S
C1753 H1743 0.929 . S
C1753 C1751 1.433 . S
C1753 N1756 1.384 . S
C1754 H1745 0.929 . S
C1754 C1746 1.378 . S
C1754 C1749 1.350 . S
C1755 H1742 0.929 . S
C1755 C1747 1.433 . S
C1755 N1757 1.384 . S
N1756 C1752 1.427 . S
N1756 C1753 1.384 . S
N1757 C1749 1.427 . S
N1757 C1755 1.384 . S
H1758 C1764 0.930 . S
H1759 C1768 0.930 . S
H1760 C1773 0.929 . S
H1761 C1771 0.929 . S
H1762 C1766 0.929 . S
H1763 C1772 0.929 . S
C1764 H1758 0.930 . S
C1764 C1765 1.367 . S
C1764 C1772 1.378 . S
C1765 C1764 1.367 . S
C1765 C1773 1.433 . S
C1766 H1762 0.929 . S
C1766 C1768 1.378 . S
C1766 C1770 1.350 . S
C1767 C1770 1.463 . S
C1767 C1772 1.350 . S
C1767 N1775 1.427 . S
C1768 H1759 0.930 . S
C1768 C1766 1.378 . S
C1768 C1769 1.367 . S
C1769 C1768 1.367 . S
C1769 C1771 1.433 . S
C1770 C1766 1.350 . S
C1770 C1767 1.463 . S
C1770 N1774 1.427 . S
C1771 H1761 0.929 . S
C1771 C1769 1.433 . S
C1771 N1774 1.384 . S
C1772 H1763 0.929 . S
C1772 C1764 1.378 . S
C1772 C1767 1.350 . S
C1773 H1760 0.929 . S
C1773 C1765 1.433 . S
C1773 N1775 1.384 . S
N1774 C1770 1.427 . S
N1774 C1771 1.384 . S
N1775 C1767 1.427 . S
N1775 C1773 1.384 . S
H1776 C1782 0.930 . S
H1777 C1786 0.930 . S
H1778 C1791 0.929 . S
H1779 C1789 0.929 . S
H1780 C1784 0.929 . S
H1781 C1790 0.929 . S
C1782 H1776 0.930 . S
C1782 C1783 1.367 . S
C1782 C1790 1.378 . S
C1783 C1782 1.367 . S
C1783 C1791 1.433 . S
C1784 H1780 0.929 . S
C1784 C1786 1.378 . S
C1784 C1788 1.350 . S
C1785 C1788 1.463 . S
C1785 C1790 1.350 . S
C1785 N1793 1.427 . S
C1786 H1777 0.930 . S
C1786 C1784 1.378 . S
C1786 C1787 1.367 . S
C1787 C1786 1.367 . S
C1787 C1789 1.433 . S
C1788 C1784 1.350 . S
C1788 C1785 1.463 . S
C1788 N1792 1.427 . S
C1789 H1779 0.929 . S
C1789 C1787 1.433 . S
C1789 N1792 1.384 . S
C1790 H1781 0.929 . S
C1790 C1782 1.378 . S
C1790 C1785 1.350 . S
C1791 H1778 0.929 . S
C1791 C1783 1.433 . S
C1791 N1793 1.384 . S
N1792 C1788 1.427 . S
N1792 C1789 1.384 . S
N1793 C1785 1.427 . S
N1793 C1791 1.384 . S
H1794 C1800 0.930 . S
H1795 C1804 0.930 . S
H1796 C1809 0.929 . S
H1797 C1807 0.929 . S
H1798 C1802 0.929 . S
H1799 C1808 0.929 . S
C1800 H1794 0.930 . S
C1800 C1801 1.367 . S
C1800 C1808 1.378 . S
C1801 C1800 1.367 . S
C1801 C1809 1.433 . S
C1802 H1798 0.929 . S
C1802 C1804 1.378 . S
C1802 C1806 1.350 . S
C1803 C1806 1.463 . S
C1803 C1808 1.350 . S
C1803 N1811 1.427 . S
C1804 H1795 0.930 . S
C1804 C1802 1.378 . S
C1804 C1805 1.367 . S
C1805 C1804 1.367 . S
C1805 C1807 1.433 . S
C1806 C1802 1.350 . S
C1806 C1803 1.463 . S
C1806 N1810 1.427 . S
C1807 H1797 0.929 . S
C1807 C1805 1.433 . S
C1807 N1810 1.384 . S
C1808 H1799 0.929 . S
C1808 C1800 1.378 . S
C1808 C1803 1.350 . S
C1809 H1796 0.929 . S
C1809 C1801 1.433 . S
C1809 N1811 1.384 . S
N1810 C1806 1.427 . S
N1810 C1807 1.384 . S
N1811 C1803 1.427 . S
N1811 C1809 1.384 . S
H1812 C1818 0.930 . S
H1813 C1822 0.930 . S
H1814 C1827 0.929 . S
H1815 C1825 0.929 . S
H1816 C1820 0.929 . S
H1817 C1826 0.929 . S
C1818 H1812 0.930 . S
C1818 C1819 1.367 . S
C1818 C1826 1.378 . S
C1819 C1818 1.367 . S
C1819 C1827 1.433 . S
C1820 H1816 0.929 . S
C1820 C1822 1.378 . S
C1820 C1824 1.350 . S
C1821 C1824 1.463 . S
C1821 C1826 1.350 . S
C1821 N1829 1.427 . S
C1822 H1813 0.930 . S
C1822 C1820 1.378 . S
C1822 C1823 1.367 . S
C1823 C1822 1.367 . S
C1823 C1825 1.433 . S
C1824 C1820 1.350 . S
C1824 C1821 1.463 . S
C1824 N1828 1.427 . S
C1825 H1815 0.929 . S
C1825 C1823 1.433 . S
C1825 N1828 1.384 . S
C1826 H1817 0.929 . S
C1826 C1818 1.378 . S
C1826 C1821 1.350 . S
C1827 H1814 0.929 . S
C1827 C1819 1.433 . S
C1827 N1829 1.384 . S
N1828 C1824 1.427 . S
N1828 C1825 1.384 . S
N1829 C1821 1.427 . S
N1829 C1827 1.384 . S
H1830 C1836 0.930 . S
H1831 C1840 0.930 . S
H1832 C1845 0.929 . S
H1833 C1843 0.929 . S
H1834 C1838 0.929 . S
H1835 C1844 0.929 . S
C1836 H1830 0.930 . S
C1836 C1837 1.367 . S
C1836 C1844 1.378 . S
C1837 C1836 1.367 . S
C1837 C1845 1.433 . S
C1838 H1834 0.929 . S
C1838 C1840 1.378 . S
C1838 C1842 1.350 . S
C1839 C1842 1.463 . S
C1839 C1844 1.350 . S
C1839 N1847 1.427 . S
C1840 H1831 0.930 . S
C1840 C1838 1.378 . S
C1840 C1841 1.367 . S
C1841 C1840 1.367 . S
C1841 C1843 1.433 . S
C1842 C1838 1.350 . S
C1842 C1839 1.463 . S
C1842 N1846 1.427 . S
C1843 H1833 0.929 . S
C1843 C1841 1.433 . S
C1843 N1846 1.384 . S
C1844 H1835 0.929 . S
C1844 C1836 1.378 . S
C1844 C1839 1.350 . S
C1845 H1832 0.929 . S
C1845 C1837 1.433 . S
C1845 N1847 1.384 . S
N1846 C1842 1.427 . S
N1846 C1843 1.384 . S
N1847 C1839 1.427 . S
N1847 C1845 1.384 . S
H1848 C1854 0.930 . S
H1849 C1858 0.930 . S
H1850 C1863 0.929 . S
H1851 C1861 0.929 . S
H1852 C1856 0.929 . S
H1853 C1862 0.929 . S
C1854 H1848 0.930 . S
C1854 C1855 1.367 . S
C1854 C1862 1.378 . S
C1855 C1854 1.367 . S
C1855 C1863 1.433 . S
C1856 H1852 0.929 . S
C1856 C1858 1.378 . S
C1856 C1860 1.350 . S
C1857 C1860 1.463 . S
C1857 C1862 1.350 . S
C1857 N1865 1.427 . S
C1858 H1849 0.930 . S
C1858 C1856 1.378 . S
C1858 C1859 1.367 . S
C1859 C1858 1.367 . S
C1859 C1861 1.433 . S
C1860 C1856 1.350 . S
C1860 C1857 1.463 . S
C1860 N1864 1.427 . S
C1861 H1851 0.929 . S
C1861 C1859 1.433 . S
C1861 N1864 1.384 . S
C1862 H1853 0.929 . S
C1862 C1854 1.378 . S
C1862 C1857 1.350 . S
C1863 H1850 0.929 . S
C1863 C1855 1.433 . S
C1863 N1865 1.384 . S
N1864 C1860 1.427 . S
N1864 C1861 1.384 . S
N1865 C1857 1.427 . S
N1865 C1863 1.384 . S
H1866 C1872 0.930 . S
H1867 C1876 0.930 . S
H1868 C1881 0.929 . S
H1869 C1879 0.929 . S
H1870 C1874 0.929 . S
H1871 C1880 0.929 . S
C1872 H1866 0.930 . S
C1872 C1873 1.367 . S
C1872 C1880 1.378 . S
C1873 C1872 1.367 . S
C1873 C1881 1.433 . S
C1874 H1870 0.929 . S
C1874 C1876 1.378 . S
C1874 C1878 1.350 . S
C1875 C1878 1.463 . S
C1875 C1880 1.350 . S
C1875 N1883 1.427 . S
C1876 H1867 0.930 . S
C1876 C1874 1.378 . S
C1876 C1877 1.367 . S
C1877 C1876 1.367 . S
C1877 C1879 1.433 . S
C1878 C1874 1.350 . S
C1878 C1875 1.463 . S
C1878 N1882 1.427 . S
C1879 H1869 0.929 . S
C1879 C1877 1.433 . S
C1879 N1882 1.384 . S
C1880 H1871 0.929 . S
C1880 C1872 1.378 . S
C1880 C1875 1.350 . S
C1881 H1868 0.929 . S
C1881 C1873 1.433 . S
C1881 N1883 1.384 . S
N1882 C1878 1.427 . S
N1882 C1879 1.384 . S
N1883 C1875 1.427 . S
N1883 C1881 1.384 . S
H1884 C1890 0.930 . S
H1885 C1894 0.930 . S
H1886 C1899 0.929 . S
H1887 C1897 0.929 . S
H1888 C1892 0.929 . S
H1889 C1898 0.929 . S
C1890 H1884 0.930 . S
C1890 C1891 1.367 . S
C1890 C1898 1.378 . S
C1891 C1890 1.367 . S
C1891 C1899 1.433 . S
C1892 H1888 0.929 . S
C1892 C1894 1.378 . S
C1892 C1896 1.350 . S
C1893 C1896 1.463 . S
C1893 C1898 1.350 . S
C1893 N1901 1.427 . S
C1894 H1885 0.930 . S
C1894 C1892 1.378 . S
C1894 C1895 1.367 . S
C1895 C1894 1.367 . S
C1895 C1897 1.433 . S
C1896 C1892 1.350 . S
C1896 C1893 1.463 . S
C1896 N1900 1.427 . S
C1897 H1887 0.929 . S
C1897 C1895 1.433 . S
C1897 N1900 1.384 . S
C1898 H1889 0.929 . S
C1898 C1890 1.378 . S
C1898 C1893 1.350 . S
C1899 H1886 0.929 . S
C1899 C1891 1.433 . S
C1899 N1901 1.384 . S
N1900 C1896 1.427 . S
N1900 C1897 1.384 . S
N1901 C1893 1.427 . S
N1901 C1899 1.384 . S
H1902 C1908 0.930 . S
H1903 C1912 0.930 . S
H1904 C1917 0.929 . S
H1905 C1915 0.929 . S
H1906 C1910 0.929 . S
H1907 C1916 0.929 . S
C1908 H1902 0.930 . S
C1908 C1909 1.367 . S
C1908 C1916 1.378 . S
C1909 C1908 1.367 . S
C1909 C1917 1.433 . S
C1910 H1906 0.929 . S
C1910 C1912 1.378 . S
C1910 C1914 1.350 . S
C1911 C1914 1.463 . S
C1911 C1916 1.350 . S
C1911 N1919 1.427 . S
C1912 H1903 0.930 . S
C1912 C1910 1.378 . S
C1912 C1913 1.367 . S
C1913 C1912 1.367 . S
C1913 C1915 1.433 . S
C1914 C1910 1.350 . S
C1914 C1911 1.463 . S
C1914 N1918 1.427 . S
C1915 H1905 0.929 . S
C1915 C1913 1.433 . S
C1915 N1918 1.384 . S
C1916 H1907 0.929 . S
C1916 C1908 1.378 . S
C1916 C1911 1.350 . S
C1917 H1904 0.929 . S
C1917 C1909 1.433 . S
C1917 N1919 1.384 . S
N1918 C1914 1.427 . S
N1918 C1915 1.384 . S
N1919 C1911 1.427 . S
N1919 C1917 1.384 . S
H1920 C1926 0.930 . S
H1921 C1930 0.930 . S
H1922 C1935 0.929 . S
H1923 C1933 0.929 . S
H1924 C1928 0.929 . S
H1925 C1934 0.929 . S
C1926 H1920 0.930 . S
C1926 C1927 1.367 . S
C1926 C1934 1.378 . S
C1927 C1926 1.367 . S
C1927 C1935 1.433 . S
C1928 H1924 0.929 . S
C1928 C1930 1.378 . S
C1928 C1932 1.350 . S
C1929 C1932 1.463 . S
C1929 C1934 1.350 . S
C1929 N1937 1.427 . S
C1930 H1921 0.930 . S
C1930 C1928 1.378 . S
C1930 C1931 1.367 . S
C1931 C1930 1.367 . S
C1931 C1933 1.433 . S
C1932 C1928 1.350 . S
C1932 C1929 1.463 . S
C1932 N1936 1.427 . S
C1933 H1923 0.929 . S
C1933 C1931 1.433 . S
C1933 N1936 1.384 . S
C1934 H1925 0.929 . S
C1934 C1926 1.378 . S
C1934 C1929 1.350 . S
C1935 H1922 0.929 . S
C1935 C1927 1.433 . S
C1935 N1937 1.384 . S
N1936 C1932 1.427 . S
N1936 C1933 1.384 . S
N1937 C1929 1.427 . S
N1937 C1935 1.384 . S
H1938 C1944 0.930 . S
H1939 C1948 0.930 . S
H1940 C1953 0.929 . S
H1941 C1951 0.929 . S
H1942 C1946 0.929 . S
H1943 C1952 0.929 . S
C1944 H1938 0.930 . S
C1944 C1945 1.367 . S
C1944 C1952 1.378 . S
C1945 C1944 1.367 . S
C1945 C1953 1.433 . S
C1946 H1942 0.929 . S
C1946 C1948 1.378 . S
C1946 C1950 1.350 . S
C1947 C1950 1.463 . S
C1947 C1952 1.350 . S
C1947 N1955 1.427 . S
C1948 H1939 0.930 . S
C1948 C1946 1.378 . S
C1948 C1949 1.367 . S
C1949 C1948 1.367 . S
C1949 C1951 1.433 . S
C1950 C1946 1.350 . S
C1950 C1947 1.463 . S
C1950 N1954 1.427 . S
C1951 H1941 0.929 . S
C1951 C1949 1.433 . S
C1951 N1954 1.384 . S
C1952 H1943 0.929 . S
C1952 C1944 1.378 . S
C1952 C1947 1.350 . S
C1953 H1940 0.929 . S
C1953 C1945 1.433 . S
C1953 N1955 1.384 . S
N1954 C1950 1.427 . S
N1954 C1951 1.384 . S
N1955 C1947 1.427 . S
N1955 C1953 1.384 . S
H1956 C1962 0.930 . S
H1957 C1966 0.930 . S
H1958 C1971 0.929 . S
H1959 C1969 0.929 . S
H1960 C1964 0.929 . S
H1961 C1970 0.929 . S
C1962 H1956 0.930 . S
C1962 C1963 1.367 . S
C1962 C1970 1.378 . S
C1963 C1962 1.367 . S
C1963 C1971 1.433 . S
C1964 H1960 0.929 . S
C1964 C1966 1.378 . S
C1964 C1968 1.350 . S
C1965 C1968 1.463 . S
C1965 C1970 1.350 . S
C1965 N1973 1.427 . S
C1966 H1957 0.930 . S
C1966 C1964 1.378 . S
C1966 C1967 1.367 . S
C1967 C1966 1.367 . S
C1967 C1969 1.433 . S
C1968 C1964 1.350 . S
C1968 C1965 1.463 . S
C1968 N1972 1.427 . S
C1969 H1959 0.929 . S
C1969 C1967 1.433 . S
C1969 N1972 1.384 . S
C1970 H1961 0.929 . S
C1970 C1962 1.378 . S
C1970 C1965 1.350 . S
C1971 H1958 0.929 . S
C1971 C1963 1.433 . S
C1971 N1973 1.384 . S
N1972 C1968 1.427 . S
N1972 C1969 1.384 . S
N1973 C1965 1.427 . S
N1973 C1971 1.384 . S
H1974 C1980 0.930 . S
H1975 C1984 0.930 . S
H1976 C1989 0.929 . S
H1977 C1987 0.929 . S
H1978 C1982 0.929 . S
H1979 C1988 0.929 . S
C1980 H1974 0.930 . S
C1980 C1981 1.367 . S
C1980 C1988 1.378 . S
C1981 C1980 1.367 . S
C1981 C1989 1.433 . S
C1982 H1978 0.929 . S
C1982 C1984 1.378 . S
C1982 C1986 1.350 . S
C1983 C1986 1.463 . S
C1983 C1988 1.350 . S
C1983 N1991 1.427 . S
C1984 H1975 0.930 . S
C1984 C1982 1.378 . S
C1984 C1985 1.367 . S
C1985 C1984 1.367 . S
C1985 C1987 1.433 . S
C1986 C1982 1.350 . S
C1986 C1983 1.463 . S
C1986 N1990 1.427 . S
C1987 H1977 0.929 . S
C1987 C1985 1.433 . S
C1987 N1990 1.384 . S
C1988 H1979 0.929 . S
C1988 C1980 1.378 . S
C1988 C1983 1.350 . S
C1989 H1976 0.929 . S
C1989 C1981 1.433 . S
C1989 N1991 1.384 . S
N1990 C1986 1.427 . S
N1990 C1987 1.384 . S
N1991 C1983 1.427 . S
N1991 C1989 1.384 . S
H1992 C1998 0.930 . S
H1993 C2002 0.930 . S
H1994 C2007 0.929 . S
H1995 C2005 0.929 . S
H1996 C2000 0.929 . S
H1997 C2006 0.929 . S
C1998 H1992 0.930 . S
C1998 C1999 1.367 . S
C1998 C2006 1.378 . S
C1999 C1998 1.367 . S
C1999 C2007 1.433 . S
C2000 H1996 0.929 . S
C2000 C2002 1.378 . S
C2000 C2004 1.350 . S
C2001 C2004 1.463 . S
C2001 C2006 1.350 . S
C2001 N2009 1.427 . S
C2002 H1993 0.930 . S
C2002 C2000 1.378 . S
C2002 C2003 1.367 . S
C2003 C2002 1.367 . S
C2003 C2005 1.433 . S
C2004 C2000 1.350 . S
C2004 C2001 1.463 . S
C2004 N2008 1.427 . S
C2005 H1995 0.929 . S
C2005 C2003 1.433 . S
C2005 N2008 1.384 . S
C2006 H1997 0.929 . S
C2006 C1998 1.378 . S
C2006 C2001 1.350 . S
C2007 H1994 0.929 . S
C2007 C1999 1.433 . S
C2007 N2009 1.384 . S
N2008 C2004 1.427 . S
N2008 C2005 1.384 . S
N2009 C2001 1.427 . S
N2009 C2007 1.384 . S
H2010 C2016 0.930 . S
H2011 C2020 0.930 . S
H2012 C2025 0.929 . S
H2013 C2023 0.929 . S
H2014 C2018 0.929 . S
H2015 C2024 0.929 . S
C2016 H2010 0.930 . S
C2016 C2017 1.367 . S
C2016 C2024 1.378 . S
C2017 C2016 1.367 . S
C2017 C2025 1.433 . S
C2018 H2014 0.929 . S
C2018 C2020 1.378 . S
C2018 C2022 1.350 . S
C2019 C2022 1.463 . S
C2019 C2024 1.350 . S
C2019 N2027 1.427 . S
C2020 H2011 0.930 . S
C2020 C2018 1.378 . S
C2020 C2021 1.367 . S
C2021 C2020 1.367 . S
C2021 C2023 1.433 . S
C2022 C2018 1.350 . S
C2022 C2019 1.463 . S
C2022 N2026 1.427 . S
C2023 H2013 0.929 . S
C2023 C2021 1.433 . S
C2023 N2026 1.384 . S
C2024 H2015 0.929 . S
C2024 C2016 1.378 . S
C2024 C2019 1.350 . S
C2025 H2012 0.929 . S
C2025 C2017 1.433 . S
C2025 N2027 1.384 . S
N2026 C2022 1.427 . S
N2026 C2023 1.384 . S
N2027 C2019 1.427 . S
N2027 C2025 1.384 . S
H2028 C2034 0.930 . S
H2029 C2038 0.930 . S
H2030 C2043 0.929 . S
H2031 C2041 0.929 . S
H2032 C2036 0.929 . S
H2033 C2042 0.929 . S
C2034 H2028 0.930 . S
C2034 C2035 1.367 . S
C2034 C2042 1.378 . S
C2035 C2034 1.367 . S
C2035 C2043 1.433 . S
C2036 H2032 0.929 . S
C2036 C2038 1.378 . S
C2036 C2040 1.350 . S
C2037 C2040 1.463 . S
C2037 C2042 1.350 . S
C2037 N2045 1.427 . S
C2038 H2029 0.930 . S
C2038 C2036 1.378 . S
C2038 C2039 1.367 . S
C2039 C2038 1.367 . S
C2039 C2041 1.433 . S
C2040 C2036 1.350 . S
C2040 C2037 1.463 . S
C2040 N2044 1.427 . S
C2041 H2031 0.929 . S
C2041 C2039 1.433 . S
C2041 N2044 1.384 . S
C2042 H2033 0.929 . S
C2042 C2034 1.378 . S
C2042 C2037 1.350 . S
C2043 H2030 0.929 . S
C2043 C2035 1.433 . S
C2043 N2045 1.384 . S
N2044 C2040 1.427 . S
N2044 C2041 1.384 . S
N2045 C2037 1.427 . S
N2045 C2043 1.384 . S
H2046 C2052 0.930 . S
H2047 C2056 0.930 . S
H2048 C2061 0.929 . S
H2049 C2059 0.929 . S
H2050 C2054 0.929 . S
H2051 C2060 0.929 . S
C2052 H2046 0.930 . S
C2052 C2053 1.367 . S
C2052 C2060 1.378 . S
C2053 C2052 1.367 . S
C2053 C2061 1.433 . S
C2054 H2050 0.929 . S
C2054 C2056 1.378 . S
C2054 C2058 1.350 . S
C2055 C2058 1.463 . S
C2055 C2060 1.350 . S
C2055 N2063 1.427 . S
C2056 H2047 0.930 . S
C2056 C2054 1.378 . S
C2056 C2057 1.367 . S
C2057 C2056 1.367 . S
C2057 C2059 1.433 . S
C2058 C2054 1.350 . S
C2058 C2055 1.463 . S
C2058 N2062 1.427 . S
C2059 H2049 0.929 . S
C2059 C2057 1.433 . S
C2059 N2062 1.384 . S
C2060 H2051 0.929 . S
C2060 C2052 1.378 . S
C2060 C2055 1.350 . S
C2061 H2048 0.929 . S
C2061 C2053 1.433 . S
C2061 N2063 1.384 . S
N2062 C2058 1.427 . S
N2062 C2059 1.384 . S
N2063 C2055 1.427 . S
N2063 C2061 1.384 . S
H2064 C2070 0.930 . S
H2065 C2074 0.930 . S
H2066 C2079 0.929 . S
H2067 C2077 0.929 . S
H2068 C2072 0.929 . S
H2069 C2078 0.929 . S
C2070 H2064 0.930 . S
C2070 C2071 1.367 . S
C2070 C2078 1.378 . S
C2071 C2070 1.367 . S
C2071 C2079 1.433 . S
C2072 H2068 0.929 . S
C2072 C2074 1.378 . S
C2072 C2076 1.350 . S
C2073 C2076 1.463 . S
C2073 C2078 1.350 . S
C2073 N2081 1.427 . S
C2074 H2065 0.930 . S
C2074 C2072 1.378 . S
C2074 C2075 1.367 . S
C2075 C2074 1.367 . S
C2075 C2077 1.433 . S
C2076 C2072 1.350 . S
C2076 C2073 1.463 . S
C2076 N2080 1.427 . S
C2077 H2067 0.929 . S
C2077 C2075 1.433 . S
C2077 N2080 1.384 . S
C2078 H2069 0.929 . S
C2078 C2070 1.378 . S
C2078 C2073 1.350 . S
C2079 H2066 0.929 . S
C2079 C2071 1.433 . S
C2079 N2081 1.384 . S
N2080 C2076 1.427 . S
N2080 C2077 1.384 . S
N2081 C2073 1.427 . S
N2081 C2079 1.384 . S
H2082 C2088 0.930 . S
H2083 C2092 0.930 . S
H2084 C2097 0.929 . S
H2085 C2095 0.929 . S
H2086 C2090 0.929 . S
H2087 C2096 0.929 . S
C2088 H2082 0.930 . S
C2088 C2089 1.367 . S
C2088 C2096 1.378 . S
C2089 C2088 1.367 . S
C2089 C2097 1.433 . S
C2090 H2086 0.929 . S
C2090 C2092 1.378 . S
C2090 C2094 1.350 . S
C2091 C2094 1.463 . S
C2091 C2096 1.350 . S
C2091 N2099 1.427 . S
C2092 H2083 0.930 . S
C2092 C2090 1.378 . S
C2092 C2093 1.367 . S
C2093 C2092 1.367 . S
C2093 C2095 1.433 . S
C2094 C2090 1.350 . S
C2094 C2091 1.463 . S
C2094 N2098 1.427 . S
C2095 H2085 0.929 . S
C2095 C2093 1.433 . S
C2095 N2098 1.384 . S
C2096 H2087 0.929 . S
C2096 C2088 1.378 . S
C2096 C2091 1.350 . S
C2097 H2084 0.929 . S
C2097 C2089 1.433 . S
C2097 N2099 1.384 . S
N2098 C2094 1.427 . S
N2098 C2095 1.384 . S
N2099 C2091 1.427 . S
N2099 C2097 1.384 . S
H2100 C2106 0.930 . S
H2101 C2110 0.930 . S
H2102 C2115 0.929 . S
H2103 C2113 0.929 . S
H2104 C2108 0.929 . S
H2105 C2114 0.929 . S
C2106 H2100 0.930 . S
C2106 C2107 1.367 . S
C2106 C2114 1.378 . S
C2107 C2106 1.367 . S
C2107 C2115 1.433 . S
C2108 H2104 0.929 . S
C2108 C2110 1.378 . S
C2108 C2112 1.350 . S
C2109 C2112 1.463 . S
C2109 C2114 1.350 . S
C2109 N2117 1.427 . S
C2110 H2101 0.930 . S
C2110 C2108 1.378 . S
C2110 C2111 1.367 . S
C2111 C2110 1.367 . S
C2111 C2113 1.433 . S
C2112 C2108 1.350 . S
C2112 C2109 1.463 . S
C2112 N2116 1.427 . S
C2113 H2103 0.929 . S
C2113 C2111 1.433 . S
C2113 N2116 1.384 . S
C2114 H2105 0.929 . S
C2114 C2106 1.378 . S
C2114 C2109 1.350 . S
C2115 H2102 0.929 . S
C2115 C2107 1.433 . S
C2115 N2117 1.384 . S
N2116 C2112 1.427 . S
N2116 C2113 1.384 . S
N2117 C2109 1.427 . S
N2117 C2115 1.384 . S
H2118 C2124 0.930 . S
H2119 C2128 0.930 . S
H2120 C2133 0.929 . S
H2121 C2131 0.929 . S
H2122 C2126 0.929 . S
H2123 C2132 0.929 . S
C2124 H2118 0.930 . S
C2124 C2125 1.367 . S
C2124 C2132 1.378 . S
C2125 C2124 1.367 . S
C2125 C2133 1.433 . S
C2126 H2122 0.929 . S
C2126 C2128 1.378 . S
C2126 C2130 1.350 . S
C2127 C2130 1.463 . S
C2127 C2132 1.350 . S
C2127 N2135 1.427 . S
C2128 H2119 0.930 . S
C2128 C2126 1.378 . S
C2128 C2129 1.367 . S
C2129 C2128 1.367 . S
C2129 C2131 1.433 . S
C2130 C2126 1.350 . S
C2130 C2127 1.463 . S
C2130 N2134 1.427 . S
C2131 H2121 0.929 . S
C2131 C2129 1.433 . S
C2131 N2134 1.384 . S
C2132 H2123 0.929 . S
C2132 C2124 1.378 . S
C2132 C2127 1.350 . S
C2133 H2120 0.929 . S
C2133 C2125 1.433 . S
C2133 N2135 1.384 . S
N2134 C2130 1.427 . S
N2134 C2131 1.384 . S
N2135 C2127 1.427 . S
N2135 C2133 1.384 . S
H2136 C2142 0.930 . S
H2137 C2146 0.930 . S
H2138 C2151 0.929 . S
H2139 C2149 0.929 . S
H2140 C2144 0.929 . S
H2141 C2150 0.929 . S
C2142 H2136 0.930 . S
C2142 C2143 1.367 . S
C2142 C2150 1.378 . S
C2143 C2142 1.367 . S
C2143 C2151 1.433 . S
C2144 H2140 0.929 . S
C2144 C2146 1.378 . S
C2144 C2148 1.350 . S
C2145 C2148 1.463 . S
C2145 C2150 1.350 . S
C2145 N2153 1.427 . S
C2146 H2137 0.930 . S
C2146 C2144 1.378 . S
C2146 C2147 1.367 . S
C2147 C2146 1.367 . S
C2147 C2149 1.433 . S
C2148 C2144 1.350 . S
C2148 C2145 1.463 . S
C2148 N2152 1.427 . S
C2149 H2139 0.929 . S
C2149 C2147 1.433 . S
C2149 N2152 1.384 . S
C2150 H2141 0.929 . S
C2150 C2142 1.378 . S
C2150 C2145 1.350 . S
C2151 H2138 0.929 . S
C2151 C2143 1.433 . S
C2151 N2153 1.384 . S
N2152 C2148 1.427 . S
N2152 C2149 1.384 . S
N2153 C2145 1.427 . S
N2153 C2151 1.384 . S
H2154 C2160 0.930 . S
H2155 C2164 0.930 . S
H2156 C2169 0.929 . S
H2157 C2167 0.929 . S
H2158 C2162 0.929 . S
H2159 C2168 0.929 . S
C2160 H2154 0.930 . S
C2160 C2161 1.367 . S
C2160 C2168 1.378 . S
C2161 C2160 1.367 . S
C2161 C2169 1.433 . S
C2162 H2158 0.929 . S
C2162 C2164 1.378 . S
C2162 C2166 1.350 . S
C2163 C2166 1.463 . S
C2163 C2168 1.350 . S
C2163 N2171 1.427 . S
C2164 H2155 0.930 . S
C2164 C2162 1.378 . S
C2164 C2165 1.367 . S
C2165 C2164 1.367 . S
C2165 C2167 1.433 . S
C2166 C2162 1.350 . S
C2166 C2163 1.463 . S
C2166 N2170 1.427 . S
C2167 H2157 0.929 . S
C2167 C2165 1.433 . S
C2167 N2170 1.384 . S
C2168 H2159 0.929 . S
C2168 C2160 1.378 . S
C2168 C2163 1.350 . S
C2169 H2156 0.929 . S
C2169 C2161 1.433 . S
C2169 N2171 1.384 . S
N2170 C2166 1.427 . S
N2170 C2167 1.384 . S
N2171 C2163 1.427 . S
N2171 C2169 1.384 . S
H2172 C2178 0.930 . S
H2173 C2182 0.930 . S
H2174 C2187 0.929 . S
H2175 C2185 0.929 . S
H2176 C2180 0.929 . S
H2177 C2186 0.929 . S
C2178 H2172 0.930 . S
C2178 C2179 1.367 . S
C2178 C2186 1.378 . S
C2179 C2178 1.367 . S
C2179 C2187 1.433 . S
C2180 H2176 0.929 . S
C2180 C2182 1.378 . S
C2180 C2184 1.350 . S
C2181 C2184 1.463 . S
C2181 C2186 1.350 . S
C2181 N2189 1.427 . S
C2182 H2173 0.930 . S
C2182 C2180 1.378 . S
C2182 C2183 1.367 . S
C2183 C2182 1.367 . S
C2183 C2185 1.433 . S
C2184 C2180 1.350 . S
C2184 C2181 1.463 . S
C2184 N2188 1.427 . S
C2185 H2175 0.929 . S
C2185 C2183 1.433 . S
C2185 N2188 1.384 . S
C2186 H2177 0.929 . S
C2186 C2178 1.378 . S
C2186 C2181 1.350 . S
C2187 H2174 0.929 . S
C2187 C2179 1.433 . S
C2187 N2189 1.384 . S
N2188 C2184 1.427 . S
N2188 C2185 1.384 . S
N2189 C2181 1.427 . S
N2189 C2187 1.384 . S
H2190 C2196 0.930 . S
H2191 C2200 0.930 . S
H2192 C2205 0.929 . S
H2193 C2203 0.929 . S
H2194 C2198 0.929 . S
H2195 C2204 0.929 . S
C2196 H2190 0.930 . S
C2196 C2197 1.367 . S
C2196 C2204 1.378 . S
C2197 C2196 1.367 . S
C2197 C2205 1.433 . S
C2198 H2194 0.929 . S
C2198 C2200 1.378 . S
C2198 C2202 1.350 . S
C2199 C2202 1.463 . S
C2199 C2204 1.350 . S
C2199 N2207 1.427 . S
C2200 H2191 0.930 . S
C2200 C2198 1.378 . S
C2200 C2201 1.367 . S
C2201 C2200 1.367 . S
C2201 C2203 1.433 . S
C2202 C2198 1.350 . S
C2202 C2199 1.463 . S
C2202 N2206 1.427 . S
C2203 H2193 0.929 . S
C2203 C2201 1.433 . S
C2203 N2206 1.384 . S
C2204 H2195 0.929 . S
C2204 C2196 1.378 . S
C2204 C2199 1.350 . S
C2205 H2192 0.929 . S
C2205 C2197 1.433 . S
C2205 N2207 1.384 . S
N2206 C2202 1.427 . S
N2206 C2203 1.384 . S
N2207 C2199 1.427 . S
N2207 C2205 1.384 . S
H2208 C2214 0.930 1_455 S
H2209 C2218 0.930 . S
H2210 C2223 0.929 . S
H2211 C2221 0.929 . S
H2212 C2216 0.929 . S
H2213 C2222 0.929 . S
C2214 H2208 0.930 1_655 S
C2214 C2215 1.367 . S
C2214 C2222 1.378 . S
C2215 C2214 1.367 . S
C2215 C2223 1.433 . S
C2216 H2212 0.929 . S
C2216 C2218 1.378 . S
C2216 C2220 1.350 . S
C2217 C2220 1.463 . S
C2217 C2222 1.350 . S
C2217 N2225 1.427 . S
C2218 H2209 0.930 . S
C2218 C2216 1.378 . S
C2218 C2219 1.367 . S
C2219 C2218 1.367 . S
C2219 C2221 1.433 . S
C2220 C2216 1.350 . S
C2220 C2217 1.463 . S
C2220 N2224 1.427 . S
C2221 H2211 0.929 . S
C2221 C2219 1.433 . S
C2221 N2224 1.384 . S
C2222 H2213 0.929 . S
C2222 C2214 1.378 . S
C2222 C2217 1.350 . S
C2223 H2210 0.929 . S
C2223 C2215 1.433 . S
C2223 N2225 1.384 . S
N2224 C2220 1.427 . S
N2224 C2221 1.384 . S
N2225 C2217 1.427 . S
N2225 C2223 1.384 . S
H2226 C2232 0.930 . S
H2227 C2236 0.930 . S
H2228 C2241 0.929 . S
H2229 C2239 0.929 . S
H2230 C2234 0.929 . S
H2231 C2240 0.929 . S
C2232 H2226 0.930 . S
C2232 C2233 1.367 . S
C2232 C2240 1.378 . S
C2233 C2232 1.367 . S
C2233 C2241 1.433 . S
C2234 H2230 0.929 . S
C2234 C2236 1.378 . S
C2234 C2238 1.350 . S
C2235 C2238 1.463 . S
C2235 C2240 1.350 . S
C2235 N2243 1.427 . S
C2236 H2227 0.930 . S
C2236 C2234 1.378 . S
C2236 C2237 1.367 . S
C2237 C2236 1.367 . S
C2237 C2239 1.433 . S
C2238 C2234 1.350 . S
C2238 C2235 1.463 . S
C2238 N2242 1.427 . S
C2239 H2229 0.929 . S
C2239 C2237 1.433 . S
C2239 N2242 1.384 . S
C2240 H2231 0.929 . S
C2240 C2232 1.378 . S
C2240 C2235 1.350 . S
C2241 H2228 0.929 . S
C2241 C2233 1.433 . S
C2241 N2243 1.384 . S
N2242 C2238 1.427 . S
N2242 C2239 1.384 . S
N2243 C2235 1.427 . S
N2243 C2241 1.384 . S
H2244 C2250 0.930 . S
H2245 C2254 0.930 . S
H2246 C2259 0.929 . S
H2247 C2257 0.929 . S
H2248 C2252 0.929 . S
H2249 C2258 0.929 . S
C2250 H2244 0.930 . S
C2250 C2251 1.367 . S
C2250 C2258 1.378 . S
C2251 C2250 1.367 . S
C2251 C2259 1.433 . S
C2252 H2248 0.929 . S
C2252 C2254 1.378 . S
C2252 C2256 1.350 . S
C2253 C2256 1.463 . S
C2253 C2258 1.350 . S
C2253 N2261 1.427 . S
C2254 H2245 0.930 . S
C2254 C2252 1.378 . S
C2254 C2255 1.367 . S
C2255 C2254 1.367 . S
C2255 C2257 1.433 . S
C2256 C2252 1.350 . S
C2256 C2253 1.463 . S
C2256 N2260 1.427 . S
C2257 H2247 0.929 . S
C2257 C2255 1.433 . S
C2257 N2260 1.384 . S
C2258 H2249 0.929 . S
C2258 C2250 1.378 . S
C2258 C2253 1.350 . S
C2259 H2246 0.929 . S
C2259 C2251 1.433 . S
C2259 N2261 1.384 . S
N2260 C2256 1.427 . S
N2260 C2257 1.384 . S
N2261 C2253 1.427 . S
N2261 C2259 1.384 . S
H2262 C2268 0.930 . S
H2263 C2272 0.930 . S
H2264 C2277 0.929 . S
H2265 C2275 0.929 . S
H2266 C2270 0.929 . S
H2267 C2276 0.929 . S
C2268 H2262 0.930 . S
C2268 C2269 1.367 1_556 S
C2268 C2276 1.378 1_556 S
C2269 C2268 1.367 1_554 S
C2269 C2277 1.433 . S
C2270 H2266 0.929 . S
C2270 C2272 1.378 . S
C2270 C2274 1.350 . S
C2271 C2274 1.463 . S
C2271 C2276 1.350 . S
C2271 N2279 1.427 . S
C2272 H2263 0.930 . S
C2272 C2270 1.378 . S
C2272 C2273 1.367 . S
C2273 C2272 1.367 . S
C2273 C2275 1.433 . S
C2274 C2270 1.350 . S
C2274 C2271 1.463 . S
C2274 N2278 1.427 . S
C2275 H2265 0.929 . S
C2275 C2273 1.433 . S
C2275 N2278 1.384 . S
C2276 H2267 0.929 . S
C2276 C2268 1.378 1_554 S
C2276 C2271 1.350 . S
C2277 H2264 0.929 . S
C2277 C2269 1.433 . S
C2277 N2279 1.384 . S
N2278 C2274 1.427 . S
N2278 C2275 1.384 . S
N2279 C2271 1.427 . S
N2279 C2277 1.384 . S
H2280 C2286 0.930 . S
H2281 C2290 0.930 . S
H2282 C2295 0.929 1_455 S
H2283 C2293 0.929 . S
H2284 C2288 0.929 . S
H2285 C2294 0.929 . S
C2286 H2280 0.930 . S
C2286 C2287 1.367 . S
C2286 C2294 1.378 . S
C2287 C2286 1.367 . S
C2287 C2295 1.433 . S
C2288 H2284 0.929 . S
C2288 C2290 1.378 . S
C2288 C2292 1.350 . S
C2289 C2292 1.463 . S
C2289 C2294 1.350 . S
C2289 N2297 1.427 . S
C2290 H2281 0.930 . S
C2290 C2288 1.378 . S
C2290 C2291 1.367 . S
C2291 C2290 1.367 . S
C2291 C2293 1.433 . S
C2292 C2288 1.350 . S
C2292 C2289 1.463 . S
C2292 N2296 1.427 . S
C2293 H2283 0.929 . S
C2293 C2291 1.433 . S
C2293 N2296 1.384 . S
C2294 H2285 0.929 . S
C2294 C2286 1.378 . S
C2294 C2289 1.350 . S
C2295 H2282 0.929 1_655 S
C2295 C2287 1.433 . S
C2295 N2297 1.384 . S
N2296 C2292 1.427 . S
N2296 C2293 1.384 . S
N2297 C2289 1.427 . S
N2297 C2295 1.384 . S
H2298 C2304 0.930 . S
H2299 C2308 0.930 . S
H2300 C2313 0.929 . S
H2301 C2311 0.929 . S
H2302 C2306 0.929 . S
H2303 C2312 0.929 . S
C2304 H2298 0.930 . S
C2304 C2305 1.367 . S
C2304 C2312 1.378 . S
C2305 C2304 1.367 . S
C2305 C2313 1.433 . S
C2306 H2302 0.929 . S
C2306 C2308 1.378 . S
C2306 C2310 1.350 . S
C2307 C2310 1.463 . S
C2307 C2312 1.350 . S
C2307 N2315 1.427 . S
C2308 H2299 0.930 . S
C2308 C2306 1.378 . S
C2308 C2309 1.367 . S
C2309 C2308 1.367 . S
C2309 C2311 1.433 . S
C2310 C2306 1.350 . S
C2310 C2307 1.463 . S
C2310 N2314 1.427 . S
C2311 H2301 0.929 . S
C2311 C2309 1.433 . S
C2311 N2314 1.384 . S
C2312 H2303 0.929 . S
C2312 C2304 1.378 . S
C2312 C2307 1.350 . S
C2313 H2300 0.929 . S
C2313 C2305 1.433 . S
C2313 N2315 1.384 . S
N2314 C2310 1.427 . S
N2314 C2311 1.384 . S
N2315 C2307 1.427 . S
N2315 C2313 1.384 . S
H2316 C2322 0.930 . S
H2317 C2326 0.930 . S
H2318 C2331 0.929 . S
H2319 C2329 0.929 . S
H2320 C2324 0.929 . S
H2321 C2330 0.929 . S
C2322 H2316 0.930 . S
C2322 C2323 1.367 . S
C2322 C2330 1.378 . S
C2323 C2322 1.367 . S
C2323 C2331 1.433 . S
C2324 H2320 0.929 . S
C2324 C2326 1.378 . S
C2324 C2328 1.350 . S
C2325 C2328 1.463 . S
C2325 C2330 1.350 . S
C2325 N2333 1.427 . S
C2326 H2317 0.930 . S
C2326 C2324 1.378 . S
C2326 C2327 1.367 . S
C2327 C2326 1.367 . S
C2327 C2329 1.433 . S
C2328 C2324 1.350 . S
C2328 C2325 1.463 . S
C2328 N2332 1.427 . S
C2329 H2319 0.929 . S
C2329 C2327 1.433 . S
C2329 N2332 1.384 . S
C2330 H2321 0.929 . S
C2330 C2322 1.378 . S
C2330 C2325 1.350 . S
C2331 H2318 0.929 . S
C2331 C2323 1.433 . S
C2331 N2333 1.384 . S
N2332 C2328 1.427 . S
N2332 C2329 1.384 . S
N2333 C2325 1.427 . S
N2333 C2331 1.384 . S
H2334 C2340 0.930 . S
H2335 C2344 0.930 . S
H2336 C2349 0.929 . S
H2337 C2347 0.929 . S
H2338 C2342 0.929 . S
H2339 C2348 0.929 . S
C2340 H2334 0.930 . S
C2340 C2341 1.367 . S
C2340 C2348 1.378 . S
C2341 C2340 1.367 . S
C2341 C2349 1.433 . S
C2342 H2338 0.929 . S
C2342 C2344 1.378 . S
C2342 C2346 1.350 . S
C2343 C2346 1.463 . S
C2343 C2348 1.350 . S
C2343 N2351 1.427 . S
C2344 H2335 0.930 . S
C2344 C2342 1.378 . S
C2344 C2345 1.367 . S
C2345 C2344 1.367 . S
C2345 C2347 1.433 1_556 S
C2346 C2342 1.350 . S
C2346 C2343 1.463 . S
C2346 N2350 1.427 . S
C2347 H2337 0.929 . S
C2347 C2345 1.433 1_554 S
C2347 N2350 1.384 1_554 S
C2348 H2339 0.929 . S
C2348 C2340 1.378 . S
C2348 C2343 1.350 . S
C2349 H2336 0.929 . S
C2349 C2341 1.433 . S
C2349 N2351 1.384 . S
N2350 C2346 1.427 . S
N2350 C2347 1.384 1_556 S
N2351 C2343 1.427 . S
N2351 C2349 1.384 . S
H2352 C2358 0.930 . S
H2353 C2362 0.930 . S
H2354 C2367 0.929 . S
H2355 C2365 0.929 . S
H2356 C2360 0.929 . S
H2357 C2366 0.940 . S
C2358 H2352 0.930 . S
C2358 C2359 1.367 1_545 S
C2358 C2366 1.378 1_545 S
C2359 C2358 1.367 1_565 S
C2359 C2367 1.433 . S
C2360 H2356 0.929 . S
C2360 C2362 1.378 . S
C2360 C2364 1.350 . S
C2361 C2364 1.463 . S
C2361 C2366 1.350 . S
C2361 N2369 1.427 . S
C2362 H2353 0.930 . S
C2362 C2360 1.378 . S
C2362 C2363 1.367 . S
C2363 C2362 1.367 . S
C2363 C2365 1.433 . S
C2364 C2360 1.350 . S
C2364 C2361 1.463 . S
C2364 N2368 1.427 . S
C2365 H2355 0.929 . S
C2365 C2363 1.433 . S
C2365 N2368 1.384 . S
C2366 H2357 0.940 . S
C2366 C2358 1.378 1_565 S
C2366 C2361 1.350 . S
C2367 H2354 0.929 . S
C2367 C2359 1.433 . S
C2367 N2369 1.384 . S
N2368 C2364 1.427 . S
N2368 C2365 1.384 . S
N2369 C2361 1.427 . S
N2369 C2367 1.384 . S
H2370 C2376 0.930 . S
H2371 C2380 0.930 . S
H2372 C2385 0.929 . S
H2373 C2383 0.929 . S
H2374 C2378 0.929 . S
H2375 C2384 0.929 . S
C2376 H2370 0.930 . S
C2376 C2377 1.367 1_565 S
C2376 C2384 1.378 1_565 S
C2377 C2376 1.367 1_545 S
C2377 C2385 1.433 . S
C2378 H2374 0.929 . S
C2378 C2380 1.378 . S
C2378 C2382 1.350 . S
C2379 C2382 1.463 . S
C2379 C2384 1.350 . S
C2379 N2387 1.427 . S
C2380 H2371 0.930 . S
C2380 C2378 1.378 . S
C2380 C2381 1.367 . S
C2381 C2380 1.367 . S
C2381 C2383 1.433 . S
C2382 C2378 1.350 . S
C2382 C2379 1.463 . S
C2382 N2386 1.427 . S
C2383 H2373 0.929 . S
C2383 C2381 1.433 . S
C2383 N2386 1.384 . S
C2384 H2375 0.929 . S
C2384 C2376 1.378 1_545 S
C2384 C2379 1.350 . S
C2385 H2372 0.929 . S
C2385 C2377 1.433 . S
C2385 N2387 1.384 . S
N2386 C2382 1.427 . S
N2386 C2383 1.384 . S
N2387 C2379 1.427 . S
N2387 C2385 1.384 . S
H2388 C2394 0.930 . S
H2389 C2398 0.930 . S
H2390 C2403 0.929 . S
H2391 C2401 0.929 . S
H2392 C2396 0.929 . S
H2393 C2402 0.929 . S
C2394 H2388 0.930 . S
C2394 C2395 1.367 . S
C2394 C2402 1.378 . S
C2395 C2394 1.367 . S
C2395 C2403 1.433 1_545 S
C2396 H2392 0.929 . S
C2396 C2398 1.378 . S
C2396 C2400 1.350 . S
C2397 C2400 1.463 . S
C2397 C2402 1.350 . S
C2397 N2405 1.427 . S
C2398 H2389 0.930 . S
C2398 C2396 1.378 . S
C2398 C2399 1.367 . S
C2399 C2398 1.367 . S
C2399 C2401 1.433 . S
C2400 C2396 1.350 . S
C2400 C2397 1.463 . S
C2400 N2404 1.427 . S
C2401 H2391 0.929 . S
C2401 C2399 1.433 . S
C2401 N2404 1.384 . S
C2402 H2393 0.929 . S
C2402 C2394 1.378 . S
C2402 C2397 1.350 . S
C2403 H2390 0.929 . S
C2403 C2395 1.433 1_565 S
C2403 N2405 1.384 1_565 S
N2404 C2400 1.427 . S
N2404 C2401 1.384 . S
N2405 C2397 1.427 . S
N2405 C2403 1.384 1_545 S
H2406 C2412 0.930 . S
H2407 C2416 0.930 . S
H2408 C2421 0.929 . S
H2409 C2419 0.929 . S
H2410 C2414 0.929 . S
H2411 C2420 0.929 . S
C2412 H2406 0.930 . S
C2412 C2413 1.367 . S
C2412 C2420 1.378 . S
C2413 C2412 1.367 . S
C2413 C2421 1.433 . S
C2414 H2410 0.929 . S
C2414 C2416 1.378 . S
C2414 C2418 1.350 . S
C2415 C2418 1.463 . S
C2415 C2420 1.350 . S
C2415 N2423 1.427 . S
C2416 H2407 0.930 . S
C2416 C2414 1.378 . S
C2416 C2417 1.367 . S
C2417 C2416 1.367 . S
C2417 C2419 1.433 1_565 S
C2418 C2414 1.350 . S
C2418 C2415 1.463 . S
C2418 N2422 1.427 . S
C2419 H2409 0.929 . S
C2419 C2417 1.433 1_545 S
C2419 N2422 1.384 1_545 S
C2420 H2411 0.929 . S
C2420 C2412 1.378 . S
C2420 C2415 1.350 . S
C2421 H2408 0.929 . S
C2421 C2413 1.433 . S
C2421 N2423 1.384 . S
N2422 C2418 1.427 . S
N2422 C2419 1.384 1_565 S
N2423 C2415 1.427 . S
N2423 C2421 1.384 . S
H2424 C2430 0.930 . S
H2425 C2434 0.930 . S
H2426 C2439 0.929 . S
H2427 C2437 0.929 . S
H2428 C2432 0.929 . S
H2429 C2438 0.929 . S
C2430 H2424 0.930 . S
C2430 C2431 1.367 . S
C2430 C2438 1.378 . S
C2431 C2430 1.367 . S
C2431 C2439 1.433 . S
C2432 H2428 0.929 . S
C2432 C2434 1.378 . S
C2432 C2436 1.350 . S
C2433 C2436 1.463 . S
C2433 C2438 1.350 . S
C2433 N2441 1.427 . S
C2434 H2425 0.930 . S
C2434 C2432 1.378 . S
C2434 C2435 1.367 . S
C2435 C2434 1.367 . S
C2435 C2437 1.433 1_554 S
C2436 C2432 1.350 . S
C2436 C2433 1.463 . S
C2436 N2440 1.427 . S
C2437 H2427 0.929 . S
C2437 C2435 1.433 1_556 S
C2437 N2440 1.384 1_556 S
C2438 H2429 0.929 . S
C2438 C2430 1.378 . S
C2438 C2433 1.350 . S
C2439 H2426 0.929 . S
C2439 C2431 1.433 . S
C2439 N2441 1.384 . S
N2440 C2436 1.427 . S
N2440 C2437 1.384 1_554 S
N2441 C2433 1.427 . S
N2441 C2439 1.384 . S
H2442 C2448 0.930 . S
H2443 C2452 0.930 . S
H2444 C2457 0.929 1_655 S
H2445 C2455 0.929 . S
H2446 C2450 0.929 . S
H2447 C2456 0.929 . S
C2448 H2442 0.930 . S
C2448 C2449 1.367 . S
C2448 C2456 1.378 . S
C2449 C2448 1.367 . S
C2449 C2457 1.433 . S
C2450 H2446 0.929 . S
C2450 C2452 1.378 . S
C2450 C2454 1.350 . S
C2451 C2454 1.463 . S
C2451 C2456 1.350 . S
C2451 N2459 1.427 . S
C2452 H2443 0.930 . S
C2452 C2450 1.378 . S
C2452 C2453 1.367 . S
C2453 C2452 1.367 . S
C2453 C2455 1.433 . S
C2454 C2450 1.350 . S
C2454 C2451 1.463 . S
C2454 N2458 1.427 . S
C2455 H2445 0.929 . S
C2455 C2453 1.433 . S
C2455 N2458 1.384 . S
C2456 H2447 0.929 . S
C2456 C2448 1.378 . S
C2456 C2451 1.350 . S
C2457 H2444 0.929 1_455 S
C2457 C2449 1.433 . S
C2457 N2459 1.384 . S
N2458 C2454 1.427 . S
N2458 C2455 1.384 . S
N2459 C2451 1.427 . S
N2459 C2457 1.384 . S
H2460 C2466 0.930 . S
H2461 C2470 0.930 . S
H2462 C2475 0.929 . S
H2463 C2473 0.929 . S
H2464 C2468 0.929 . S
H2465 C2474 0.929 . S
C2466 H2460 0.930 . S
C2466 C2467 1.367 . S
C2466 C2474 1.378 . S
C2467 C2466 1.367 . S
C2467 C2475 1.433 . S
C2468 H2464 0.929 . S
C2468 C2470 1.378 . S
C2468 C2472 1.350 . S
C2469 C2472 1.463 . S
C2469 C2474 1.350 . S
C2469 N2477 1.427 . S
C2470 H2461 0.930 . S
C2470 C2468 1.378 . S
C2470 C2471 1.367 . S
C2471 C2470 1.367 . S
C2471 C2473 1.433 . S
C2472 C2468 1.350 . S
C2472 C2469 1.463 . S
C2472 N2476 1.427 . S
C2473 H2463 0.929 . S
C2473 C2471 1.433 . S
C2473 N2476 1.384 . S
C2474 H2465 0.929 . S
C2474 C2466 1.378 . S
C2474 C2469 1.350 . S
C2475 H2462 0.929 . S
C2475 C2467 1.433 . S
C2475 N2477 1.384 . S
N2476 C2472 1.427 . S
N2476 C2473 1.384 . S
N2477 C2469 1.427 . S
N2477 C2475 1.384 . S
H2478 C2484 0.930 1_655 S
H2479 C2488 0.930 . S
H2480 C2493 0.929 . S
H2481 C2491 0.929 . S
H2482 C2486 0.929 . S
H2483 C2492 0.929 . S
C2484 H2478 0.930 1_455 S
C2484 C2485 1.367 . S
C2484 C2492 1.378 . S
C2485 C2484 1.367 . S
C2485 C2493 1.433 . S
C2486 H2482 0.929 . S
C2486 C2488 1.378 . S
C2486 C2490 1.350 . S
C2487 C2490 1.463 . S
C2487 C2492 1.350 . S
C2487 N2495 1.427 . S
C2488 H2479 0.930 . S
C2488 C2486 1.378 . S
C2488 C2489 1.367 . S
C2489 C2488 1.367 . S
C2489 C2491 1.433 . S
C2490 C2486 1.350 . S
C2490 C2487 1.463 . S
C2490 N2494 1.427 . S
C2491 H2481 0.929 . S
C2491 C2489 1.433 . S
C2491 N2494 1.384 . S
C2492 H2483 0.929 . S
C2492 C2484 1.378 . S
C2492 C2487 1.350 . S
C2493 H2480 0.929 . S
C2493 C2485 1.433 . S
C2493 N2495 1.384 . S
N2494 C2490 1.427 . S
N2494 C2491 1.384 . S
N2495 C2487 1.427 . S
N2495 C2493 1.384 . S
H2496 C2502 0.930 . S
H2497 C2506 0.930 . S
H2498 C2511 0.929 . S
H2499 C2509 0.929 . S
H2500 C2504 0.929 . S
H2501 C2510 0.929 . S
C2502 H2496 0.930 . S
C2502 C2503 1.367 . S
C2502 C2510 1.378 . S
C2503 C2502 1.367 . S
C2503 C2511 1.433 . S
C2504 H2500 0.929 . S
C2504 C2506 1.378 . S
C2504 C2508 1.350 . S
C2505 C2508 1.463 . S
C2505 C2510 1.350 . S
C2505 N2513 1.427 . S
C2506 H2497 0.930 . S
C2506 C2504 1.378 . S
C2506 C2507 1.367 . S
C2507 C2506 1.367 . S
C2507 C2509 1.433 . S
C2508 C2504 1.350 . S
C2508 C2505 1.463 . S
C2508 N2512 1.427 . S
C2509 H2499 0.929 . S
C2509 C2507 1.433 . S
C2509 N2512 1.384 . S
C2510 H2501 0.929 . S
C2510 C2502 1.378 . S
C2510 C2505 1.350 . S
C2511 H2498 0.929 . S
C2511 C2503 1.433 . S
C2511 N2513 1.384 . S
N2512 C2508 1.427 . S
N2512 C2509 1.384 . S
N2513 C2505 1.427 . S
N2513 C2511 1.384 . S
H2514 C2520 0.930 . S
H2515 C2524 0.930 . S
H2516 C2529 0.929 . S
H2517 C2527 0.929 . S
H2518 C2522 0.929 . S
H2519 C2528 0.929 . S
C2520 H2514 0.930 . S
C2520 C2521 1.367 . S
C2520 C2528 1.378 . S
C2521 C2520 1.367 . S
C2521 C2529 1.433 1_455 S
C2522 H2518 0.929 . S
C2522 C2524 1.378 . S
C2522 C2526 1.350 . S
C2523 C2526 1.463 . S
C2523 C2528 1.350 . S
C2523 N2531 1.427 . S
C2524 H2515 0.930 . S
C2524 C2522 1.378 . S
C2524 C2525 1.367 . S
C2525 C2524 1.367 . S
C2525 C2527 1.433 . S
C2526 C2522 1.350 . S
C2526 C2523 1.463 . S
C2526 N2530 1.427 . S
C2527 H2517 0.929 . S
C2527 C2525 1.433 . S
C2527 N2530 1.384 . S
C2528 H2519 0.929 . S
C2528 C2520 1.378 . S
C2528 C2523 1.350 . S
C2529 H2516 0.929 . S
C2529 C2521 1.433 1_655 S
C2529 N2531 1.384 1_655 S
N2530 C2526 1.427 . S
N2530 C2527 1.384 . S
N2531 C2523 1.427 . S
N2531 C2529 1.384 1_455 S
H2532 C2538 0.930 . S
H2533 C2542 0.930 . S
H2534 C2547 0.929 . S
H2535 C2545 0.929 . S
H2536 C2540 0.929 . S
H2537 C2546 0.929 . S
C2538 H2532 0.930 . S
C2538 C2539 1.367 . S
C2538 C2546 1.378 . S
C2539 C2538 1.367 . S
C2539 C2547 1.433 . S
C2540 H2536 0.929 . S
C2540 C2542 1.378 . S
C2540 C2544 1.350 . S
C2541 C2544 1.463 . S
C2541 C2546 1.350 . S
C2541 N2549 1.427 . S
C2542 H2533 0.930 . S
C2542 C2540 1.378 . S
C2542 C2543 1.367 . S
C2543 C2542 1.367 . S
C2543 C2545 1.433 . S
C2544 C2540 1.350 . S
C2544 C2541 1.463 . S
C2544 N2548 1.427 . S
C2545 H2535 0.929 . S
C2545 C2543 1.433 . S
C2545 N2548 1.384 . S
C2546 H2537 0.929 . S
C2546 C2538 1.378 . S
C2546 C2541 1.350 . S
C2547 H2534 0.929 . S
C2547 C2539 1.433 . S
C2547 N2549 1.384 . S
N2548 C2544 1.427 . S
N2548 C2545 1.384 . S
N2549 C2541 1.427 . S
N2549 C2547 1.384 . S
H2550 C2556 0.930 . S
H2551 C2560 0.930 . S
H2552 C2565 0.929 . S
H2553 C2563 0.929 . S
H2554 C2558 0.929 . S
H2555 C2564 0.929 . S
C2556 H2550 0.930 . S
C2556 C2557 1.367 . S
C2556 C2564 1.378 . S
C2557 C2556 1.367 . S
C2557 C2565 1.433 . S
C2558 H2554 0.929 . S
C2558 C2560 1.378 . S
C2558 C2562 1.350 . S
C2559 C2562 1.463 . S
C2559 C2564 1.350 . S
C2559 N2567 1.427 . S
C2560 H2551 0.930 . S
C2560 C2558 1.378 . S
C2560 C2561 1.367 . S
C2561 C2560 1.367 . S
C2561 C2563 1.433 . S
C2562 C2558 1.350 . S
C2562 C2559 1.463 . S
C2562 N2566 1.427 . S
C2563 H2553 0.929 . S
C2563 C2561 1.433 . S
C2563 N2566 1.384 . S
C2564 H2555 0.929 . S
C2564 C2556 1.378 . S
C2564 C2559 1.350 . S
C2565 H2552 0.929 . S
C2565 C2557 1.433 . S
C2565 N2567 1.384 . S
N2566 C2562 1.427 . S
N2566 C2563 1.384 . S
N2567 C2559 1.427 . S
N2567 C2565 1.384 . S
H2568 C2574 0.930 . S
H2569 C2578 0.930 . S
H2570 C2583 0.929 . S
H2571 C2581 0.929 . S
H2572 C2576 0.929 . S
H2573 C2582 0.929 . S
C2574 H2568 0.930 . S
C2574 C2575 1.367 . S
C2574 C2582 1.378 . S
C2575 C2574 1.367 . S
C2575 C2583 1.433 1_556 S
C2576 H2572 0.929 . S
C2576 C2578 1.378 . S
C2576 C2580 1.350 . S
C2577 C2580 1.463 . S
C2577 C2582 1.350 . S
C2577 N2585 1.427 . S
C2578 H2569 0.930 . S
C2578 C2576 1.378 . S
C2578 C2579 1.367 . S
C2579 C2578 1.367 . S
C2579 C2581 1.433 . S
C2580 C2576 1.350 . S
C2580 C2577 1.463 . S
C2580 N2584 1.427 . S
C2581 H2571 0.929 . S
C2581 C2579 1.433 . S
C2581 N2584 1.384 . S
C2582 H2573 0.929 . S
C2582 C2574 1.378 . S
C2582 C2577 1.350 . S
C2583 H2570 0.929 . S
C2583 C2575 1.433 1_554 S
C2583 N2585 1.384 1_554 S
N2584 C2580 1.427 . S
N2584 C2581 1.384 . S
N2585 C2577 1.427 . S
N2585 C2583 1.384 1_556 S
H2586 C2592 0.930 . S
H2587 C2596 0.928 . S
H2588 C2601 0.929 . S
H2589 C2599 0.929 . S
H2590 C2594 0.929 . S
H2591 C2600 0.929 . S
C2592 H2586 0.930 . S
C2592 C2593 1.367 . S
C2592 C2600 1.378 . S
C2593 C2592 1.367 . S
C2593 C2601 1.433 . S
C2594 H2590 0.929 . S
C2594 C2596 1.378 . S
C2594 C2598 1.350 . S
C2595 C2598 1.463 . S
C2595 C2600 1.350 . S
C2595 N2603 1.427 . S
C2596 H2587 0.928 . S
C2596 C2594 1.378 . S
C2596 C2597 1.367 . S
C2597 C2596 1.367 . S
C2597 C2599 1.433 . S
C2598 C2594 1.350 . S
C2598 C2595 1.463 . S
C2598 N2602 1.427 . S
C2599 H2589 0.929 . S
C2599 C2597 1.433 . S
C2599 N2602 1.384 . S
C2600 H2591 0.929 . S
C2600 C2592 1.378 . S
C2600 C2595 1.350 . S
C2601 H2588 0.929 . S
C2601 C2593 1.433 . S
C2601 N2603 1.384 . S
N2602 C2598 1.427 . S
N2602 C2599 1.384 . S
N2603 C2595 1.427 . S
N2603 C2601 1.384 . S
H2604 C2610 0.930 . S
H2605 C2614 0.930 . S
H2606 C2619 0.929 . S
H2607 C2617 0.929 . S
H2608 C2612 0.929 . S
H2609 C2618 0.929 . S
C2610 H2604 0.930 . S
C2610 C2611 1.367 . S
C2610 C2618 1.378 . S
C2611 C2610 1.367 . S
C2611 C2619 1.433 . S
C2612 H2608 0.929 . S
C2612 C2614 1.378 . S
C2612 C2616 1.350 . S
C2613 C2616 1.463 . S
C2613 C2618 1.350 . S
C2613 N2621 1.427 . S
C2614 H2605 0.930 . S
C2614 C2612 1.378 . S
C2614 C2615 1.367 . S
C2615 C2614 1.367 . S
C2615 C2617 1.433 . S
C2616 C2612 1.350 . S
C2616 C2613 1.463 . S
C2616 N2620 1.427 . S
C2617 H2607 0.929 . S
C2617 C2615 1.433 . S
C2617 N2620 1.384 . S
C2618 H2609 0.929 . S
C2618 C2610 1.378 . S
C2618 C2613 1.350 . S
C2619 H2606 0.929 . S
C2619 C2611 1.433 . S
C2619 N2621 1.384 . S
N2620 C2616 1.427 . S
N2620 C2617 1.384 . S
N2621 C2613 1.427 . S
N2621 C2619 1.384 . S
H2622 C2628 0.930 . S
H2623 C2632 0.930 . S
H2624 C2637 0.929 . S
H2625 C2635 0.929 . S
H2626 C2630 0.929 . S
H2627 C2636 0.929 . S
C2628 H2622 0.930 . S
C2628 C2629 1.367 . S
C2628 C2636 1.378 . S
C2629 C2628 1.367 . S
C2629 C2637 1.433 . S
C2630 H2626 0.929 . S
C2630 C2632 1.378 . S
C2630 C2634 1.350 . S
C2631 C2634 1.463 . S
C2631 C2636 1.350 . S
C2631 N2639 1.427 . S
C2632 H2623 0.930 . S
C2632 C2630 1.378 . S
C2632 C2633 1.367 . S
C2633 C2632 1.367 . S
C2633 C2635 1.433 . S
C2634 C2630 1.350 . S
C2634 C2631 1.463 . S
C2634 N2638 1.427 . S
C2635 H2625 0.929 . S
C2635 C2633 1.433 . S
C2635 N2638 1.384 . S
C2636 H2627 0.929 . S
C2636 C2628 1.378 . S
C2636 C2631 1.350 . S
C2637 H2624 0.929 . S
C2637 C2629 1.433 . S
C2637 N2639 1.384 . S
N2638 C2634 1.427 . S
N2638 C2635 1.384 . S
N2639 C2631 1.427 . S
N2639 C2637 1.384 . S
H2640 C2646 0.930 . S
H2641 C2650 0.930 . S
H2642 C2655 0.929 . S
H2643 C2653 0.929 . S
H2644 C2648 0.929 . S
H2645 C2654 0.929 . S
C2646 H2640 0.930 . S
C2646 C2647 1.367 . S
C2646 C2654 1.378 . S
C2647 C2646 1.367 . S
C2647 C2655 1.433 . S
C2648 H2644 0.929 . S
C2648 C2650 1.378 . S
C2648 C2652 1.350 . S
C2649 C2652 1.463 . S
C2649 C2654 1.350 . S
C2649 N2657 1.427 . S
C2650 H2641 0.930 . S
C2650 C2648 1.378 . S
C2650 C2651 1.367 . S
C2651 C2650 1.367 . S
C2651 C2653 1.433 1_554 S
C2652 C2648 1.350 . S
C2652 C2649 1.463 . S
C2652 N2656 1.427 . S
C2653 H2643 0.929 . S
C2653 C2651 1.433 1_556 S
C2653 N2656 1.384 1_556 S
C2654 H2645 0.929 . S
C2654 C2646 1.378 . S
C2654 C2649 1.350 . S
C2655 H2642 0.929 . S
C2655 C2647 1.433 . S
C2655 N2657 1.384 . S
N2656 C2652 1.427 . S
N2656 C2653 1.384 1_554 S
N2657 C2649 1.427 . S
N2657 C2655 1.384 . S
H2658 C2664 0.930 . S
H2659 C2668 0.930 . S
H2660 C2673 0.929 . S
H2661 C2671 0.929 . S
H2662 C2666 0.929 . S
H2663 C2672 0.929 . S
C2664 H2658 0.930 . S
C2664 C2665 1.367 . S
C2664 C2672 1.378 . S
C2665 C2664 1.367 . S
C2665 C2673 1.433 . S
C2666 H2662 0.929 . S
C2666 C2668 1.378 . S
C2666 C2670 1.350 . S
C2667 C2670 1.463 . S
C2667 C2672 1.350 . S
C2667 N2675 1.427 . S
C2668 H2659 0.930 . S
C2668 C2666 1.378 . S
C2668 C2669 1.367 . S
C2669 C2668 1.367 . S
C2669 C2671 1.433 . S
C2670 C2666 1.350 . S
C2670 C2667 1.463 . S
C2670 N2674 1.427 . S
C2671 H2661 0.929 . S
C2671 C2669 1.433 . S
C2671 N2674 1.384 . S
C2672 H2663 0.929 . S
C2672 C2664 1.378 . S
C2672 C2667 1.350 . S
C2673 H2660 0.929 . S
C2673 C2665 1.433 . S
C2673 N2675 1.384 . S
N2674 C2670 1.427 . S
N2674 C2671 1.384 . S
N2675 C2667 1.427 . S
N2675 C2673 1.384 . S
H2676 C2682 0.930 . S
H2677 C2686 0.930 . S
H2678 C2691 0.929 . S
H2679 C2689 0.929 . S
H2680 C2684 0.929 . S
H2681 C2690 0.929 . S
C2682 H2676 0.930 . S
C2682 C2683 1.367 . S
C2682 C2690 1.378 . S
C2683 C2682 1.367 . S
C2683 C2691 1.433 . S
C2684 H2680 0.929 . S
C2684 C2686 1.378 . S
C2684 C2688 1.350 . S
C2685 C2688 1.463 . S
C2685 C2690 1.350 . S
C2685 N2693 1.427 . S
C2686 H2677 0.930 . S
C2686 C2684 1.378 . S
C2686 C2687 1.367 . S
C2687 C2686 1.367 . S
C2687 C2689 1.433 1_565 S
C2688 C2684 1.350 . S
C2688 C2685 1.463 . S
C2688 N2692 1.427 . S
C2689 H2679 0.929 . S
C2689 C2687 1.433 1_545 S
C2689 N2692 1.384 1_545 S
C2690 H2681 0.929 . S
C2690 C2682 1.378 . S
C2690 C2685 1.350 . S
C2691 H2678 0.929 . S
C2691 C2683 1.433 . S
C2691 N2693 1.384 . S
N2692 C2688 1.427 . S
N2692 C2689 1.384 1_565 S
N2693 C2685 1.427 . S
N2693 C2691 1.384 . S
H2694 C2700 0.930 . S
H2695 C2704 0.930 . S
H2696 C2709 0.929 . S
H2697 C2707 0.929 . S
H2698 C2702 0.926 . S
H2699 C2708 0.929 . S
C2700 H2694 0.930 . S
C2700 C2701 1.367 . S
C2700 C2708 1.378 . S
C2701 C2700 1.367 . S
C2701 C2709 1.433 . S
C2702 H2698 0.926 . S
C2702 C2704 1.378 1_565 S
C2702 C2706 1.350 . S
C2703 C2706 1.463 . S
C2703 C2708 1.350 . S
C2703 N2711 1.427 . S
C2704 H2695 0.930 . S
C2704 C2702 1.378 1_545 S
C2704 C2705 1.342 1_545 S
C2705 C2704 1.342 1_565 S
C2705 C2707 1.498 . S
C2706 C2702 1.350 . S
C2706 C2703 1.463 . S
C2706 N2710 1.427 . S
C2707 H2697 0.929 . S
C2707 C2705 1.498 . S
C2707 N2710 1.384 . S
C2708 H2699 0.929 . S
C2708 C2700 1.378 . S
C2708 C2703 1.350 . S
C2709 H2696 0.929 . S
C2709 C2701 1.433 . S
C2709 N2711 1.384 . S
N2710 C2706 1.427 . S
N2710 C2707 1.384 . S
N2711 C2703 1.427 . S
N2711 C2709 1.384 . S
H2712 C2718 0.930 . S
H2713 C2722 0.930 . S
H2714 C2727 0.929 . S
H2715 C2725 0.929 . S
H2716 C2720 0.929 . S
H2717 C2726 0.929 . S
C2718 H2712 0.930 . S
C2718 C2719 1.367 . S
C2718 C2726 1.378 . S
C2719 C2718 1.367 . S
C2719 C2727 1.433 . S
C2720 H2716 0.929 . S
C2720 C2722 1.378 . S
C2720 C2724 1.350 . S
C2721 C2724 1.463 . S
C2721 C2726 1.350 . S
C2721 N2729 1.427 . S
C2722 H2713 0.930 . S
C2722 C2720 1.378 . S
C2722 C2723 1.367 . S
C2723 C2722 1.367 . S
C2723 C2725 1.433 1_545 S
C2724 C2720 1.350 . S
C2724 C2721 1.463 . S
C2724 N2728 1.427 . S
C2725 H2715 0.929 . S
C2725 C2723 1.433 1_565 S
C2725 N2728 1.384 1_565 S
C2726 H2717 0.929 . S
C2726 C2718 1.378 . S
C2726 C2721 1.350 . S
C2727 H2714 0.929 . S
C2727 C2719 1.433 . S
C2727 N2729 1.384 . S
N2728 C2724 1.427 . S
N2728 C2725 1.384 1_545 S
N2729 C2721 1.427 . S
N2729 C2727 1.384 . S
H2730 C2736 0.930 . S
H2731 C2740 0.930 . S
H2732 C2745 0.929 . S
H2733 C2743 0.929 . S
H2734 C2738 0.929 . S
H2735 C2744 0.929 . S
C2736 H2730 0.930 . S
C2736 C2737 1.367 . S
C2736 C2744 1.378 . S
C2737 C2736 1.367 . S
C2737 C2745 1.433 . S
C2738 H2734 0.929 . S
C2738 C2740 1.378 . S
C2738 C2742 1.350 . S
C2739 C2742 1.463 . S
C2739 C2744 1.350 . S
C2739 N2747 1.427 . S
C2740 H2731 0.930 . S
C2740 C2738 1.378 . S
C2740 C2741 1.367 . S
C2741 C2740 1.367 . S
C2741 C2743 1.433 1_556 S
C2742 C2738 1.350 . S
C2742 C2739 1.463 . S
C2742 N2746 1.427 . S
C2743 H2733 0.929 . S
C2743 C2741 1.433 1_554 S
C2743 N2746 1.384 1_554 S
C2744 H2735 0.929 . S
C2744 C2736 1.378 . S
C2744 C2739 1.350 . S
C2745 H2732 0.929 . S
C2745 C2737 1.433 . S
C2745 N2747 1.384 . S
N2746 C2742 1.427 . S
N2746 C2743 1.384 1_556 S
N2747 C2739 1.427 . S
N2747 C2745 1.384 . S
H2748 C2754 0.930 . S
H2749 C2758 0.930 . S
H2750 C2763 0.929 . S
H2751 C2761 0.929 1_455 S
H2752 C2756 0.929 . S
H2753 C2762 0.929 . S
C2754 H2748 0.930 . S
C2754 C2755 1.367 . S
C2754 C2762 1.378 . S
C2755 C2754 1.367 . S
C2755 C2763 1.433 . S
C2756 H2752 0.929 . S
C2756 C2758 1.378 . S
C2756 C2760 1.350 . S
C2757 C2760 1.463 . S
C2757 C2762 1.350 . S
C2757 N2765 1.427 . S
C2758 H2749 0.930 . S
C2758 C2756 1.378 . S
C2758 C2759 1.367 . S
C2759 C2758 1.367 . S
C2759 C2761 1.433 . S
C2760 C2756 1.350 . S
C2760 C2757 1.463 . S
C2760 N2764 1.427 . S
C2761 H2751 0.929 1_655 S
C2761 C2759 1.433 . S
C2761 N2764 1.384 . S
C2762 H2753 0.929 . S
C2762 C2754 1.378 . S
C2762 C2757 1.350 . S
C2763 H2750 0.929 . S
C2763 C2755 1.433 . S
C2763 N2765 1.384 . S
N2764 C2760 1.427 . S
N2764 C2761 1.384 . S
N2765 C2757 1.427 . S
N2765 C2763 1.384 . S
H2766 C2772 0.930 . S
H2767 C2776 0.930 . S
H2768 C2781 0.929 . S
H2769 C2779 0.929 . S
H2770 C2774 0.929 . S
H2771 C2780 0.929 . S
C2772 H2766 0.930 . S
C2772 C2773 1.367 . S
C2772 C2780 1.378 . S
C2773 C2772 1.367 . S
C2773 C2781 1.433 . S
C2774 H2770 0.929 . S
C2774 C2776 1.378 . S
C2774 C2778 1.350 . S
C2775 C2778 1.463 . S
C2775 C2780 1.350 . S
C2775 N2783 1.427 . S
C2776 H2767 0.930 . S
C2776 C2774 1.378 . S
C2776 C2777 1.367 . S
C2777 C2776 1.367 . S
C2777 C2779 1.433 . S
C2778 C2774 1.350 . S
C2778 C2775 1.463 . S
C2778 N2782 1.427 . S
C2779 H2769 0.929 . S
C2779 C2777 1.433 . S
C2779 N2782 1.384 . S
C2780 H2771 0.929 . S
C2780 C2772 1.378 . S
C2780 C2775 1.350 . S
C2781 H2768 0.929 . S
C2781 C2773 1.433 . S
C2781 N2783 1.384 . S
N2782 C2778 1.427 . S
N2782 C2779 1.384 . S
N2783 C2775 1.427 . S
N2783 C2781 1.384 . S
H2784 C2790 0.930 . S
H2785 C2794 0.930 . S
H2786 C2799 0.929 . S
H2787 C2797 0.931 . S
H2788 C2792 0.929 . S
H2789 C2798 0.929 . S
C2790 H2784 0.930 . S
C2790 C2791 1.367 . S
C2790 C2798 1.378 . S
C2791 C2790 1.367 . S
C2791 C2799 1.433 . S
C2792 H2788 0.929 . S
C2792 C2794 1.378 . S
C2792 C2796 1.350 . S
C2793 C2796 1.463 . S
C2793 C2798 1.350 . S
C2793 N2801 1.427 . S
C2794 H2785 0.930 . S
C2794 C2792 1.378 . S
C2794 C2795 1.367 . S
C2795 C2794 1.367 . S
C2795 C2797 1.433 1_655 S
C2796 C2792 1.350 . S
C2796 C2793 1.463 . S
C2796 N2800 1.427 . S
C2797 H2787 0.931 . S
C2797 C2795 1.433 1_455 S
C2797 N2800 1.381 1_455 S
C2798 H2789 0.929 . S
C2798 C2790 1.378 . S
C2798 C2793 1.350 . S
C2799 H2786 0.929 . S
C2799 C2791 1.433 . S
C2799 N2801 1.384 . S
N2800 C2796 1.427 . S
N2800 C2797 1.381 1_655 S
N2801 C2793 1.427 . S
N2801 C2799 1.384 . S
H2802 C2808 0.930 . S
H2803 C2812 0.930 . S
H2804 C2817 0.929 . S
H2805 C2815 0.929 . S
H2806 C2810 0.929 . S
H2807 C2816 0.929 . S
C2808 H2802 0.930 . S
C2808 C2809 1.367 . S
C2808 C2816 1.378 . S
C2809 C2808 1.367 . S
C2809 C2817 1.433 . S
C2810 H2806 0.929 . S
C2810 C2812 1.378 . S
C2810 C2814 1.350 . S
C2811 C2814 1.463 . S
C2811 C2816 1.350 . S
C2811 N2819 1.427 . S
C2812 H2803 0.930 . S
C2812 C2810 1.378 . S
C2812 C2813 1.367 . S
C2813 C2812 1.367 . S
C2813 C2815 1.433 . S
C2814 C2810 1.350 . S
C2814 C2811 1.463 . S
C2814 N2818 1.427 . S
C2815 H2805 0.929 . S
C2815 C2813 1.433 . S
C2815 N2818 1.384 . S
C2816 H2807 0.929 . S
C2816 C2808 1.378 . S
C2816 C2811 1.350 . S
C2817 H2804 0.929 . S
C2817 C2809 1.433 . S
C2817 N2819 1.384 . S
N2818 C2814 1.427 . S
N2818 C2815 1.384 . S
N2819 C2811 1.427 . S
N2819 C2817 1.384 . S
H2820 C2826 0.930 . S
H2821 C2830 0.930 . S
H2822 C2835 0.929 . S
H2823 C2833 0.929 . S
H2824 C2828 0.929 . S
H2825 C2834 0.929 . S
C2826 H2820 0.930 . S
C2826 C2827 1.367 . S
C2826 C2834 1.378 . S
C2827 C2826 1.367 . S
C2827 C2835 1.433 . S
C2828 H2824 0.929 . S
C2828 C2830 1.378 . S
C2828 C2832 1.350 . S
C2829 C2832 1.463 . S
C2829 C2834 1.350 . S
C2829 N2837 1.427 . S
C2830 H2821 0.930 . S
C2830 C2828 1.378 . S
C2830 C2831 1.367 . S
C2831 C2830 1.367 . S
C2831 C2833 1.433 . S
C2832 C2828 1.350 . S
C2832 C2829 1.463 . S
C2832 N2836 1.427 . S
C2833 H2823 0.929 . S
C2833 C2831 1.433 . S
C2833 N2836 1.384 . S
C2834 H2825 0.929 . S
C2834 C2826 1.378 . S
C2834 C2829 1.350 . S
C2835 H2822 0.929 . S
C2835 C2827 1.433 . S
C2835 N2837 1.384 . S
N2836 C2832 1.427 . S
N2836 C2833 1.384 . S
N2837 C2829 1.427 . S
N2837 C2835 1.384 . S
H2838 C2844 0.930 . S
H2839 C2848 0.930 . S
H2840 C2853 0.929 . S
H2841 C2851 0.929 . S
H2842 C2846 0.929 . S
H2843 C2852 0.929 . S
C2844 H2838 0.930 . S
C2844 C2845 1.367 . S
C2844 C2852 1.378 . S
C2845 C2844 1.367 . S
C2845 C2853 1.433 1_556 S
C2846 H2842 0.929 . S
C2846 C2848 1.378 . S
C2846 C2850 1.350 . S
C2847 C2850 1.463 . S
C2847 C2852 1.350 . S
C2847 N2855 1.427 . S
C2848 H2839 0.930 . S
C2848 C2846 1.378 . S
C2848 C2849 1.367 . S
C2849 C2848 1.367 . S
C2849 C2851 1.433 . S
C2850 C2846 1.350 . S
C2850 C2847 1.463 . S
C2850 N2854 1.427 . S
C2851 H2841 0.929 . S
C2851 C2849 1.433 . S
C2851 N2854 1.384 . S
C2852 H2843 0.929 . S
C2852 C2844 1.378 . S
C2852 C2847 1.350 . S
C2853 H2840 0.929 . S
C2853 C2845 1.433 1_554 S
C2853 N2855 1.384 1_554 S
N2854 C2850 1.427 . S
N2854 C2851 1.384 . S
N2855 C2847 1.427 . S
N2855 C2853 1.384 1_556 S
H2856 C2862 0.930 . S
H2857 C2866 0.930 . S
H2858 C2871 0.929 . S
H2859 C2869 0.929 . S
H2860 C2864 0.929 . S
H2861 C2870 0.929 . S
C2862 H2856 0.930 . S
C2862 C2863 1.367 . S
C2862 C2870 1.378 . S
C2863 C2862 1.367 . S
C2863 C2871 1.433 . S
C2864 H2860 0.929 . S
C2864 C2866 1.378 . S
C2864 C2868 1.350 . S
C2865 C2868 1.463 . S
C2865 C2870 1.350 . S
C2865 N2873 1.427 . S
C2866 H2857 0.930 . S
C2866 C2864 1.378 . S
C2866 C2867 1.367 . S
C2867 C2866 1.367 . S
C2867 C2869 1.433 . S
C2868 C2864 1.350 . S
C2868 C2865 1.463 . S
C2868 N2872 1.427 . S
C2869 H2859 0.929 . S
C2869 C2867 1.433 . S
C2869 N2872 1.384 . S
C2870 H2861 0.929 . S
C2870 C2862 1.378 . S
C2870 C2865 1.350 . S
C2871 H2858 0.929 . S
C2871 C2863 1.433 . S
C2871 N2873 1.384 . S
N2872 C2868 1.427 . S
N2872 C2869 1.384 . S
N2873 C2865 1.427 . S
N2873 C2871 1.384 . S
H2874 C2880 0.930 . S
H2875 C2884 0.930 . S
H2876 C2889 0.929 . S
H2877 C2887 0.929 . S
H2878 C2882 0.929 . S
H2879 C2888 0.929 . S
C2880 H2874 0.930 . S
C2880 C2881 1.367 . S
C2880 C2888 1.378 . S
C2881 C2880 1.367 . S
C2881 C2889 1.433 . S
C2882 H2878 0.929 . S
C2882 C2884 1.378 . S
C2882 C2886 1.350 . S
C2883 C2886 1.463 . S
C2883 C2888 1.350 . S
C2883 N2891 1.427 . S
C2884 H2875 0.930 . S
C2884 C2882 1.378 . S
C2884 C2885 1.367 . S
C2885 C2884 1.367 . S
C2885 C2887 1.433 . S
C2886 C2882 1.350 . S
C2886 C2883 1.463 . S
C2886 N2890 1.427 . S
C2887 H2877 0.929 . S
C2887 C2885 1.433 . S
C2887 N2890 1.384 . S
C2888 H2879 0.929 . S
C2888 C2880 1.378 . S
C2888 C2883 1.350 . S
C2889 H2876 0.929 . S
C2889 C2881 1.433 . S
C2889 N2891 1.384 . S
N2890 C2886 1.427 . S
N2890 C2887 1.384 . S
N2891 C2883 1.427 . S
N2891 C2889 1.384 . S
H2892 C2898 0.930 . S
H2893 C2902 0.930 . S
H2894 C2907 0.929 . S
H2895 C2905 0.929 . S
H2896 C2900 0.929 . S
H2897 C2906 0.929 . S
C2898 H2892 0.930 . S
C2898 C2899 1.367 . S
C2898 C2906 1.378 . S
C2899 C2898 1.367 . S
C2899 C2907 1.433 . S
C2900 H2896 0.929 . S
C2900 C2902 1.378 . S
C2900 C2904 1.350 . S
C2901 C2904 1.463 . S
C2901 C2906 1.350 . S
C2901 N2909 1.427 . S
C2902 H2893 0.930 . S
C2902 C2900 1.378 . S
C2902 C2903 1.367 . S
C2903 C2902 1.367 . S
C2903 C2905 1.433 . S
C2904 C2900 1.350 . S
C2904 C2901 1.463 . S
C2904 N2908 1.427 . S
C2905 H2895 0.929 . S
C2905 C2903 1.433 . S
C2905 N2908 1.384 . S
C2906 H2897 0.929 . S
C2906 C2898 1.378 . S
C2906 C2901 1.350 . S
C2907 H2894 0.929 . S
C2907 C2899 1.433 . S
C2907 N2909 1.384 . S
N2908 C2904 1.427 . S
N2908 C2905 1.384 . S
N2909 C2901 1.427 . S
N2909 C2907 1.384 . S
H2910 C2916 0.930 . S
H2911 C2920 0.930 . S
H2912 C2925 0.929 . S
H2913 C2923 0.929 . S
H2914 C2918 0.929 . S
H2915 C2924 0.929 . S
C2916 H2910 0.930 . S
C2916 C2917 1.367 . S
C2916 C2924 1.378 . S
C2917 C2916 1.367 . S
C2917 C2925 1.433 . S
C2918 H2914 0.929 . S
C2918 C2920 1.378 . S
C2918 C2922 1.350 . S
C2919 C2922 1.463 . S
C2919 C2924 1.350 . S
C2919 N2927 1.427 . S
C2920 H2911 0.930 . S
C2920 C2918 1.378 . S
C2920 C2921 1.367 . S
C2921 C2920 1.367 . S
C2921 C2923 1.433 . S
C2922 C2918 1.350 . S
C2922 C2919 1.463 . S
C2922 N2926 1.427 . S
C2923 H2913 0.929 . S
C2923 C2921 1.433 . S
C2923 N2926 1.384 . S
C2924 H2915 0.929 . S
C2924 C2916 1.378 . S
C2924 C2919 1.350 . S
C2925 H2912 0.929 . S
C2925 C2917 1.433 . S
C2925 N2927 1.384 . S
N2926 C2922 1.427 . S
N2926 C2923 1.384 . S
N2927 C2919 1.427 . S
N2927 C2925 1.384 . S
H2928 C2934 0.930 . S
H2929 C2938 0.930 . S
H2930 C2943 0.929 . S
H2931 C2941 0.929 . S
H2932 C2936 0.929 . S
H2933 C2942 0.929 . S
C2934 H2928 0.930 . S
C2934 C2935 1.367 . S
C2934 C2942 1.378 . S
C2935 C2934 1.367 . S
C2935 C2943 1.433 . S
C2936 H2932 0.929 . S
C2936 C2938 1.378 . S
C2936 C2940 1.350 . S
C2937 C2940 1.463 . S
C2937 C2942 1.350 . S
C2937 N2945 1.427 . S
C2938 H2929 0.930 . S
C2938 C2936 1.378 . S
C2938 C2939 1.367 . S
C2939 C2938 1.367 . S
C2939 C2941 1.433 . S
C2940 C2936 1.350 . S
C2940 C2937 1.463 . S
C2940 N2944 1.427 . S
C2941 H2931 0.929 . S
C2941 C2939 1.433 . S
C2941 N2944 1.384 . S
C2942 H2933 0.929 . S
C2942 C2934 1.378 . S
C2942 C2937 1.350 . S
C2943 H2930 0.929 . S
C2943 C2935 1.433 . S
C2943 N2945 1.384 . S
N2944 C2940 1.427 . S
N2944 C2941 1.384 . S
N2945 C2937 1.427 . S
N2945 C2943 1.384 . S
H2946 C2952 0.930 . S
H2947 C2956 0.930 . S
H2948 C2961 0.929 . S
H2949 C2959 0.929 . S
H2950 C2954 0.929 . S
H2951 C2960 0.929 . S
C2952 H2946 0.930 . S
C2952 C2953 1.367 . S
C2952 C2960 1.378 . S
C2953 C2952 1.367 . S
C2953 C2961 1.433 . S
C2954 H2950 0.929 . S
C2954 C2956 1.378 . S
C2954 C2958 1.350 . S
C2955 C2958 1.463 . S
C2955 C2960 1.350 . S
C2955 N2963 1.427 . S
C2956 H2947 0.930 . S
C2956 C2954 1.378 . S
C2956 C2957 1.367 . S
C2957 C2956 1.367 . S
C2957 C2959 1.433 . S
C2958 C2954 1.350 . S
C2958 C2955 1.463 . S
C2958 N2962 1.427 . S
C2959 H2949 0.929 . S
C2959 C2957 1.433 . S
C2959 N2962 1.384 . S
C2960 H2951 0.929 . S
C2960 C2952 1.378 . S
C2960 C2955 1.350 . S
C2961 H2948 0.929 . S
C2961 C2953 1.433 . S
C2961 N2963 1.384 . S
N2962 C2958 1.427 . S
N2962 C2959 1.384 . S
N2963 C2955 1.427 . S
N2963 C2961 1.384 . S
H2964 C2970 0.930 . S
H2965 C2974 0.930 . S
H2966 C2979 0.929 . S
H2967 C2977 0.929 1_556 S
H2968 C2972 0.929 . S
H2969 C2978 0.929 . S
C2970 H2964 0.930 . S
C2970 C2971 1.367 . S
C2970 C2978 1.378 . S
C2971 C2970 1.367 . S
C2971 C2979 1.433 . S
C2972 H2968 0.929 . S
C2972 C2974 1.378 . S
C2972 C2976 1.350 . S
C2973 C2976 1.463 . S
C2973 C2978 1.350 . S
C2973 N2981 1.427 . S
C2974 H2965 0.930 . S
C2974 C2972 1.378 . S
C2974 C2975 1.367 . S
C2975 C2974 1.367 . S
C2975 C2977 1.433 . S
C2976 C2972 1.350 . S
C2976 C2973 1.463 . S
C2976 N2980 1.427 . S
C2977 H2967 0.929 1_554 S
C2977 C2975 1.433 . S
C2977 N2980 1.384 . S
C2978 H2969 0.929 . S
C2978 C2970 1.378 . S
C2978 C2973 1.350 . S
C2979 H2966 0.929 . S
C2979 C2971 1.433 . S
C2979 N2981 1.384 . S
N2980 C2976 1.427 . S
N2980 C2977 1.384 . S
N2981 C2973 1.427 . S
N2981 C2979 1.384 . S
H2982 C2988 0.930 . S
H2983 C2992 0.930 . S
H2984 C2997 0.929 . S
H2985 C2995 0.929 . S
H2986 C2990 0.929 . S
H2987 C2996 0.929 . S
C2988 H2982 0.930 . S
C2988 C2989 1.367 . S
C2988 C2996 1.378 . S
C2989 C2988 1.367 . S
C2989 C2997 1.433 . S
C2990 H2986 0.929 . S
C2990 C2992 1.378 . S
C2990 C2994 1.350 . S
C2991 C2994 1.463 . S
C2991 C2996 1.350 . S
C2991 N2999 1.427 . S
C2992 H2983 0.930 . S
C2992 C2990 1.378 . S
C2992 C2993 1.367 . S
C2993 C2992 1.367 . S
C2993 C2995 1.433 . S
C2994 C2990 1.350 . S
C2994 C2991 1.463 . S
C2994 N2998 1.427 . S
C2995 H2985 0.929 . S
C2995 C2993 1.433 . S
C2995 N2998 1.384 . S
C2996 H2987 0.929 . S
C2996 C2988 1.378 . S
C2996 C2991 1.350 . S
C2997 H2984 0.929 . S
C2997 C2989 1.433 . S
C2997 N2999 1.384 . S
N2998 C2994 1.427 . S
N2998 C2995 1.384 . S
N2999 C2991 1.427 . S
N2999 C2997 1.384 . S
H3000 C3006 0.930 . S
H3001 C3010 0.930 . S
H3002 C3015 0.929 . S
H3003 C3013 0.929 . S
H3004 C3008 0.929 . S
H3005 C3014 0.929 . S
C3006 H3000 0.930 . S
C3006 C3007 1.367 . S
C3006 C3014 1.378 . S
C3007 C3006 1.367 . S
C3007 C3015 1.433 . S
C3008 H3004 0.929 . S
C3008 C3010 1.378 . S
C3008 C3012 1.350 . S
C3009 C3012 1.463 . S
C3009 C3014 1.350 . S
C3009 N3017 1.427 . S
C3010 H3001 0.930 . S
C3010 C3008 1.378 . S
C3010 C3011 1.367 . S
C3011 C3010 1.367 . S
C3011 C3013 1.433 . S
C3012 C3008 1.350 . S
C3012 C3009 1.463 . S
C3012 N3016 1.427 . S
C3013 H3003 0.929 . S
C3013 C3011 1.433 . S
C3013 N3016 1.384 . S
C3014 H3005 0.929 . S
C3014 C3006 1.378 . S
C3014 C3009 1.350 . S
C3015 H3002 0.929 . S
C3015 C3007 1.433 . S
C3015 N3017 1.384 . S
N3016 C3012 1.427 . S
N3016 C3013 1.384 . S
N3017 C3009 1.427 . S
N3017 C3015 1.384 . S
H3018 C3024 0.930 . S
H3019 C3028 0.930 . S
H3020 C3033 0.929 . S
H3021 C3031 0.929 . S
H3022 C3026 0.929 . S
H3023 C3032 0.929 . S
C3024 H3018 0.930 . S
C3024 C3025 1.367 . S
C3024 C3032 1.378 . S
C3025 C3024 1.367 . S
C3025 C3033 1.433 . S
C3026 H3022 0.929 . S
C3026 C3028 1.378 . S
C3026 C3030 1.350 . S
C3027 C3030 1.463 . S
C3027 C3032 1.350 . S
C3027 N3035 1.427 . S
C3028 H3019 0.930 . S
C3028 C3026 1.378 . S
C3028 C3029 1.367 . S
C3029 C3028 1.367 . S
C3029 C3031 1.433 . S
C3030 C3026 1.350 . S
C3030 C3027 1.463 . S
C3030 N3034 1.427 . S
C3031 H3021 0.929 . S
C3031 C3029 1.433 . S
C3031 N3034 1.384 . S
C3032 H3023 0.929 . S
C3032 C3024 1.378 . S
C3032 C3027 1.350 . S
C3033 H3020 0.929 . S
C3033 C3025 1.433 . S
C3033 N3035 1.384 . S
N3034 C3030 1.427 . S
N3034 C3031 1.384 . S
N3035 C3027 1.427 . S
N3035 C3033 1.384 . S
H3036 C3042 0.930 . S
H3037 C3046 0.930 . S
H3038 C3051 0.929 . S
H3039 C3049 0.929 . S
H3040 C3044 0.929 . S
H3041 C3050 0.929 . S
C3042 H3036 0.930 . S
C3042 C3043 1.367 . S
C3042 C3050 1.378 . S
C3043 C3042 1.367 . S
C3043 C3051 1.433 . S
C3044 H3040 0.929 . S
C3044 C3046 1.378 . S
C3044 C3048 1.350 . S
C3045 C3048 1.463 . S
C3045 C3050 1.350 . S
C3045 N3053 1.427 . S
C3046 H3037 0.930 . S
C3046 C3044 1.378 . S
C3046 C3047 1.367 . S
C3047 C3046 1.367 . S
C3047 C3049 1.433 . S
C3048 C3044 1.350 . S
C3048 C3045 1.463 . S
C3048 N3052 1.427 . S
C3049 H3039 0.929 . S
C3049 C3047 1.433 . S
C3049 N3052 1.384 . S
C3050 H3041 0.929 . S
C3050 C3042 1.378 . S
C3050 C3045 1.350 . S
C3051 H3038 0.929 . S
C3051 C3043 1.433 . S
C3051 N3053 1.384 . S
N3052 C3048 1.427 . S
N3052 C3049 1.384 . S
N3053 C3045 1.427 . S
N3053 C3051 1.384 . S
H3054 C3060 0.930 . S
H3055 C3064 0.930 . S
H3056 C3069 0.929 . S
H3057 C3067 0.929 . S
H3058 C3062 0.929 . S
H3059 C3068 0.929 . S
C3060 H3054 0.930 . S
C3060 C3061 1.367 . S
C3060 C3068 1.378 . S
C3061 C3060 1.367 . S
C3061 C3069 1.433 . S
C3062 H3058 0.929 . S
C3062 C3064 1.378 . S
C3062 C3066 1.350 . S
C3063 C3066 1.463 . S
C3063 C3068 1.350 . S
C3063 N3071 1.427 . S
C3064 H3055 0.930 . S
C3064 C3062 1.378 . S
C3064 C3065 1.367 . S
C3065 C3064 1.367 . S
C3065 C3067 1.433 . S
C3066 C3062 1.350 . S
C3066 C3063 1.463 . S
C3066 N3070 1.427 . S
C3067 H3057 0.929 . S
C3067 C3065 1.433 . S
C3067 N3070 1.384 . S
C3068 H3059 0.929 . S
C3068 C3060 1.378 . S
C3068 C3063 1.350 . S
C3069 H3056 0.929 . S
C3069 C3061 1.433 . S
C3069 N3071 1.384 . S
N3070 C3066 1.427 . S
N3070 C3067 1.384 . S
N3071 C3063 1.427 . S
N3071 C3069 1.384 . S
H3072 C3078 0.930 . S
H3073 C3082 0.930 . S
H3074 C3087 0.929 . S
H3075 C3085 0.929 . S
H3076 C3080 0.929 . S
H3077 C3086 0.929 . S
C3078 H3072 0.930 . S
C3078 C3079 1.367 . S
C3078 C3086 1.378 . S
C3079 C3078 1.367 . S
C3079 C3087 1.433 . S
C3080 H3076 0.929 . S
C3080 C3082 1.378 . S
C3080 C3084 1.350 . S
C3081 C3084 1.463 . S
C3081 C3086 1.350 . S
C3081 N3089 1.427 . S
C3082 H3073 0.930 . S
C3082 C3080 1.378 . S
C3082 C3083 1.367 . S
C3083 C3082 1.367 . S
C3083 C3085 1.433 . S
C3084 C3080 1.350 . S
C3084 C3081 1.463 . S
C3084 N3088 1.427 . S
C3085 H3075 0.929 . S
C3085 C3083 1.433 . S
C3085 N3088 1.384 . S
C3086 H3077 0.929 . S
C3086 C3078 1.378 . S
C3086 C3081 1.350 . S
C3087 H3074 0.929 . S
C3087 C3079 1.433 . S
C3087 N3089 1.384 . S
N3088 C3084 1.427 . S
N3088 C3085 1.384 . S
N3089 C3081 1.427 . S
N3089 C3087 1.384 . S
H3090 C3096 0.930 . S
H3091 C3100 0.930 . S
H3092 C3105 0.929 . S
H3093 C3103 0.929 . S
H3094 C3098 0.929 . S
H3095 C3104 0.929 . S
C3096 H3090 0.930 . S
C3096 C3097 1.367 . S
C3096 C3104 1.378 . S
C3097 C3096 1.367 . S
C3097 C3105 1.433 . S
C3098 H3094 0.929 . S
C3098 C3100 1.378 . S
C3098 C3102 1.350 . S
C3099 C3102 1.463 . S
C3099 C3104 1.350 . S
C3099 N3107 1.427 . S
C3100 H3091 0.930 . S
C3100 C3098 1.378 . S
C3100 C3101 1.367 . S
C3101 C3100 1.367 . S
C3101 C3103 1.433 . S
C3102 C3098 1.350 . S
C3102 C3099 1.463 . S
C3102 N3106 1.427 . S
C3103 H3093 0.929 . S
C3103 C3101 1.433 . S
C3103 N3106 1.384 . S
C3104 H3095 0.929 . S
C3104 C3096 1.378 . S
C3104 C3099 1.350 . S
C3105 H3092 0.929 . S
C3105 C3097 1.433 . S
C3105 N3107 1.384 . S
N3106 C3102 1.427 . S
N3106 C3103 1.384 . S
N3107 C3099 1.427 . S
N3107 C3105 1.384 . S
H3108 C3114 0.930 . S
H3109 C3118 0.930 . S
H3110 C3123 0.929 . S
H3111 C3121 0.929 . S
H3112 C3116 0.929 . S
H3113 C3122 0.929 . S
C3114 H3108 0.930 . S
C3114 C3115 1.367 . S
C3114 C3122 1.378 . S
C3115 C3114 1.367 . S
C3115 C3123 1.433 . S
C3116 H3112 0.929 . S
C3116 C3118 1.378 . S
C3116 C3120 1.350 . S
C3117 C3120 1.463 . S
C3117 C3122 1.350 . S
C3117 N3125 1.427 . S
C3118 H3109 0.930 . S
C3118 C3116 1.378 . S
C3118 C3119 1.367 . S
C3119 C3118 1.367 . S
C3119 C3121 1.433 . S
C3120 C3116 1.350 . S
C3120 C3117 1.463 . S
C3120 N3124 1.427 . S
C3121 H3111 0.929 . S
C3121 C3119 1.433 . S
C3121 N3124 1.384 . S
C3122 H3113 0.929 . S
C3122 C3114 1.378 . S
C3122 C3117 1.350 . S
C3123 H3110 0.929 . S
C3123 C3115 1.433 . S
C3123 N3125 1.384 . S
N3124 C3120 1.427 . S
N3124 C3121 1.384 . S
N3125 C3117 1.427 . S
N3125 C3123 1.384 . S
H3126 C3132 0.930 . S
H3127 C3136 0.930 . S
H3128 C3141 0.929 . S
H3129 C3139 0.929 . S
H3130 C3134 0.929 . S
H3131 C3140 0.929 . S
C3132 H3126 0.930 . S
C3132 C3133 1.367 . S
C3132 C3140 1.378 . S
C3133 C3132 1.367 . S
C3133 C3141 1.433 . S
C3134 H3130 0.929 . S
C3134 C3136 1.378 . S
C3134 C3138 1.350 . S
C3135 C3138 1.463 . S
C3135 C3140 1.350 . S
C3135 N3143 1.427 . S
C3136 H3127 0.930 . S
C3136 C3134 1.378 . S
C3136 C3137 1.367 . S
C3137 C3136 1.367 . S
C3137 C3139 1.433 . S
C3138 C3134 1.350 . S
C3138 C3135 1.463 . S
C3138 N3142 1.427 . S
C3139 H3129 0.929 . S
C3139 C3137 1.433 . S
C3139 N3142 1.384 . S
C3140 H3131 0.929 . S
C3140 C3132 1.378 . S
C3140 C3135 1.350 . S
C3141 H3128 0.929 . S
C3141 C3133 1.433 . S
C3141 N3143 1.384 . S
N3142 C3138 1.427 . S
N3142 C3139 1.384 . S
N3143 C3135 1.427 . S
N3143 C3141 1.384 . S
H3144 C3150 0.930 . S
H3145 C3154 0.930 . S
H3146 C3159 0.929 . S
H3147 C3157 0.929 . S
H3148 C3152 0.929 . S
H3149 C3158 0.929 . S
C3150 H3144 0.930 . S
C3150 C3151 1.367 . S
C3150 C3158 1.378 . S
C3151 C3150 1.367 . S
C3151 C3159 1.433 . S
C3152 H3148 0.929 . S
C3152 C3154 1.378 . S
C3152 C3156 1.350 . S
C3153 C3156 1.463 . S
C3153 C3158 1.350 . S
C3153 N3161 1.427 . S
C3154 H3145 0.930 . S
C3154 C3152 1.378 . S
C3154 C3155 1.367 . S
C3155 C3154 1.367 . S
C3155 C3157 1.433 . S
C3156 C3152 1.350 . S
C3156 C3153 1.463 . S
C3156 N3160 1.427 . S
C3157 H3147 0.929 . S
C3157 C3155 1.433 . S
C3157 N3160 1.384 . S
C3158 H3149 0.929 . S
C3158 C3150 1.378 . S
C3158 C3153 1.350 . S
C3159 H3146 0.929 . S
C3159 C3151 1.433 . S
C3159 N3161 1.384 . S
N3160 C3156 1.427 . S
N3160 C3157 1.384 . S
N3161 C3153 1.427 . S
N3161 C3159 1.384 . S
H3162 C3168 0.930 . S
H3163 C3172 0.930 . S
H3164 C3177 0.929 . S
H3165 C3175 0.929 . S
H3166 C3170 0.929 . S
H3167 C3176 0.929 . S
C3168 H3162 0.930 . S
C3168 C3169 1.367 . S
C3168 C3176 1.378 . S
C3169 C3168 1.367 . S
C3169 C3177 1.433 . S
C3170 H3166 0.929 . S
C3170 C3172 1.378 . S
C3170 C3174 1.350 . S
C3171 C3174 1.463 . S
C3171 C3176 1.350 . S
C3171 N3179 1.427 . S
C3172 H3163 0.930 . S
C3172 C3170 1.378 . S
C3172 C3173 1.367 . S
C3173 C3172 1.367 . S
C3173 C3175 1.433 . S
C3174 C3170 1.350 . S
C3174 C3171 1.463 . S
C3174 N3178 1.427 . S
C3175 H3165 0.929 . S
C3175 C3173 1.433 . S
C3175 N3178 1.384 . S
C3176 H3167 0.929 . S
C3176 C3168 1.378 . S
C3176 C3171 1.350 . S
C3177 H3164 0.929 . S
C3177 C3169 1.433 . S
C3177 N3179 1.384 . S
N3178 C3174 1.427 . S
N3178 C3175 1.384 . S
N3179 C3171 1.427 . S
N3179 C3177 1.384 . S
H3180 C3186 0.930 . S
H3181 C3190 0.930 . S
H3182 C3195 0.929 . S
H3183 C3193 0.929 . S
H3184 C3188 0.929 . S
H3185 C3194 0.929 . S
C3186 H3180 0.930 . S
C3186 C3187 1.367 . S
C3186 C3194 1.378 . S
C3187 C3186 1.367 . S
C3187 C3195 1.433 . S
C3188 H3184 0.929 . S
C3188 C3190 1.378 . S
C3188 C3192 1.350 . S
C3189 C3192 1.463 . S
C3189 C3194 1.350 . S
C3189 N3197 1.427 . S
C3190 H3181 0.930 . S
C3190 C3188 1.378 . S
C3190 C3191 1.367 . S
C3191 C3190 1.367 . S
C3191 C3193 1.433 . S
C3192 C3188 1.350 . S
C3192 C3189 1.463 . S
C3192 N3196 1.427 . S
C3193 H3183 0.929 . S
C3193 C3191 1.433 . S
C3193 N3196 1.384 . S
C3194 H3185 0.929 . S
C3194 C3186 1.378 . S
C3194 C3189 1.350 . S
C3195 H3182 0.929 . S
C3195 C3187 1.433 . S
C3195 N3197 1.384 . S
N3196 C3192 1.427 . S
N3196 C3193 1.384 . S
N3197 C3189 1.427 . S
N3197 C3195 1.384 . S
H3198 C3204 0.930 . S
H3199 C3208 0.930 . S
H3200 C3213 0.929 . S
H3201 C3211 0.929 . S
H3202 C3206 0.929 . S
H3203 C3212 0.929 . S
C3204 H3198 0.930 . S
C3204 C3205 1.367 . S
C3204 C3212 1.378 . S
C3205 C3204 1.367 . S
C3205 C3213 1.433 . S
C3206 H3202 0.929 . S
C3206 C3208 1.378 . S
C3206 C3210 1.350 . S
C3207 C3210 1.463 . S
C3207 C3212 1.350 . S
C3207 N3215 1.427 . S
C3208 H3199 0.930 . S
C3208 C3206 1.378 . S
C3208 C3209 1.367 . S
C3209 C3208 1.367 . S
C3209 C3211 1.433 . S
C3210 C3206 1.350 . S
C3210 C3207 1.463 . S
C3210 N3214 1.427 . S
C3211 H3201 0.929 . S
C3211 C3209 1.433 . S
C3211 N3214 1.384 . S
C3212 H3203 0.929 . S
C3212 C3204 1.378 . S
C3212 C3207 1.350 . S
C3213 H3200 0.929 . S
C3213 C3205 1.433 . S
C3213 N3215 1.384 . S
N3214 C3210 1.427 . S
N3214 C3211 1.384 . S
N3215 C3207 1.427 . S
N3215 C3213 1.384 . S
H3216 C3222 0.930 . S
H3217 C3226 0.930 . S
H3218 C3231 0.929 . S
H3219 C3229 0.929 . S
H3220 C3224 0.929 . S
H3221 C3230 0.929 . S
C3222 H3216 0.930 . S
C3222 C3223 1.367 . S
C3222 C3230 1.378 . S
C3223 C3222 1.367 . S
C3223 C3231 1.433 . S
C3224 H3220 0.929 . S
C3224 C3226 1.378 . S
C3224 C3228 1.350 . S
C3225 C3228 1.463 . S
C3225 C3230 1.350 . S
C3225 N3233 1.427 . S
C3226 H3217 0.930 . S
C3226 C3224 1.378 . S
C3226 C3227 1.367 . S
C3227 C3226 1.367 . S
C3227 C3229 1.433 . S
C3228 C3224 1.350 . S
C3228 C3225 1.463 . S
C3228 N3232 1.427 . S
C3229 H3219 0.929 . S
C3229 C3227 1.433 . S
C3229 N3232 1.384 . S
C3230 H3221 0.929 . S
C3230 C3222 1.378 . S
C3230 C3225 1.350 . S
C3231 H3218 0.929 . S
C3231 C3223 1.433 . S
C3231 N3233 1.384 . S
N3232 C3228 1.427 . S
N3232 C3229 1.384 . S
N3233 C3225 1.427 . S
N3233 C3231 1.384 . S
H3234 C3240 0.930 . S
H3235 C3244 0.930 . S
H3236 C3249 0.929 . S
H3237 C3247 0.929 . S
H3238 C3242 0.929 . S
H3239 C3248 0.929 . S
C3240 H3234 0.930 . S
C3240 C3241 1.367 . S
C3240 C3248 1.378 . S
C3241 C3240 1.367 . S
C3241 C3249 1.433 . S
C3242 H3238 0.929 . S
C3242 C3244 1.378 . S
C3242 C3246 1.350 . S
C3243 C3246 1.463 . S
C3243 C3248 1.350 . S
C3243 N3251 1.427 . S
C3244 H3235 0.930 . S
C3244 C3242 1.378 . S
C3244 C3245 1.367 . S
C3245 C3244 1.367 . S
C3245 C3247 1.433 . S
C3246 C3242 1.350 . S
C3246 C3243 1.463 . S
C3246 N3250 1.427 . S
C3247 H3237 0.929 . S
C3247 C3245 1.433 . S
C3247 N3250 1.384 . S
C3248 H3239 0.929 . S
C3248 C3240 1.378 . S
C3248 C3243 1.350 . S
C3249 H3236 0.929 . S
C3249 C3241 1.433 . S
C3249 N3251 1.384 . S
N3250 C3246 1.427 . S
N3250 C3247 1.384 . S
N3251 C3243 1.427 . S
N3251 C3249 1.384 . S
H3252 C3258 0.930 . S
H3253 C3262 0.930 . S
H3254 C3267 0.929 . S
H3255 C3265 0.929 . S
H3256 C3260 0.929 . S
H3257 C3266 0.929 . S
C3258 H3252 0.930 . S
C3258 C3259 1.367 . S
C3258 C3266 1.378 . S
C3259 C3258 1.367 . S
C3259 C3267 1.433 . S
C3260 H3256 0.929 . S
C3260 C3262 1.378 . S
C3260 C3264 1.350 . S
C3261 C3264 1.463 . S
C3261 C3266 1.350 . S
C3261 N3269 1.427 . S
C3262 H3253 0.930 . S
C3262 C3260 1.378 . S
C3262 C3263 1.367 . S
C3263 C3262 1.367 . S
C3263 C3265 1.433 . S
C3264 C3260 1.350 . S
C3264 C3261 1.463 . S
C3264 N3268 1.427 . S
C3265 H3255 0.929 . S
C3265 C3263 1.433 . S
C3265 N3268 1.384 . S
C3266 H3257 0.929 . S
C3266 C3258 1.378 . S
C3266 C3261 1.350 . S
C3267 H3254 0.929 . S
C3267 C3259 1.433 . S
C3267 N3269 1.384 . S
N3268 C3264 1.427 . S
N3268 C3265 1.384 . S
N3269 C3261 1.427 . S
N3269 C3267 1.384 . S
H3270 C3276 0.930 . S
H3271 C3280 0.930 . S
H3272 C3285 0.929 . S
H3273 C3283 0.929 . S
H3274 C3278 0.929 . S
H3275 C3284 0.929 . S
C3276 H3270 0.930 . S
C3276 C3277 1.367 . S
C3276 C3284 1.378 . S
C3277 C3276 1.367 . S
C3277 C3285 1.433 . S
C3278 H3274 0.929 . S
C3278 C3280 1.378 . S
C3278 C3282 1.350 . S
C3279 C3282 1.463 . S
C3279 C3284 1.350 . S
C3279 N3287 1.427 . S
C3280 H3271 0.930 . S
C3280 C3278 1.378 . S
C3280 C3281 1.367 . S
C3281 C3280 1.367 . S
C3281 C3283 1.433 . S
C3282 C3278 1.350 . S
C3282 C3279 1.463 . S
C3282 N3286 1.427 . S
C3283 H3273 0.929 . S
C3283 C3281 1.433 . S
C3283 N3286 1.384 . S
C3284 H3275 0.929 . S
C3284 C3276 1.378 . S
C3284 C3279 1.350 . S
C3285 H3272 0.929 . S
C3285 C3277 1.433 . S
C3285 N3287 1.384 . S
N3286 C3282 1.427 . S
N3286 C3283 1.384 . S
N3287 C3279 1.427 . S
N3287 C3285 1.384 . S
H3288 C3294 0.930 . S
H3289 C3298 0.930 . S
H3290 C3303 0.929 . S
H3291 C3301 0.929 . S
H3292 C3296 0.929 . S
H3293 C3302 0.929 . S
C3294 H3288 0.930 . S
C3294 C3295 1.367 . S
C3294 C3302 1.378 . S
C3295 C3294 1.367 . S
C3295 C3303 1.433 . S
C3296 H3292 0.929 . S
C3296 C3298 1.378 . S
C3296 C3300 1.350 . S
C3297 C3300 1.463 . S
C3297 C3302 1.350 . S
C3297 N3305 1.427 . S
C3298 H3289 0.930 . S
C3298 C3296 1.378 . S
C3298 C3299 1.367 . S
C3299 C3298 1.367 . S
C3299 C3301 1.433 . S
C3300 C3296 1.350 . S
C3300 C3297 1.463 . S
C3300 N3304 1.427 . S
C3301 H3291 0.929 . S
C3301 C3299 1.433 . S
C3301 N3304 1.384 . S
C3302 H3293 0.929 . S
C3302 C3294 1.378 . S
C3302 C3297 1.350 . S
C3303 H3290 0.929 . S
C3303 C3295 1.433 . S
C3303 N3305 1.384 . S
N3304 C3300 1.427 . S
N3304 C3301 1.384 . S
N3305 C3297 1.427 . S
N3305 C3303 1.384 . S
H3306 C3312 0.930 . S
H3307 C3316 0.930 . S
H3308 C3321 0.929 . S
H3309 C3319 0.929 . S
H3310 C3314 0.929 . S
H3311 C3320 0.929 . S
C3312 H3306 0.930 . S
C3312 C3313 1.367 . S
C3312 C3320 1.378 . S
C3313 C3312 1.367 . S
C3313 C3321 1.433 . S
C3314 H3310 0.929 . S
C3314 C3316 1.378 . S
C3314 C3318 1.350 . S
C3315 C3318 1.463 . S
C3315 C3320 1.350 . S
C3315 N3323 1.427 . S
C3316 H3307 0.930 . S
C3316 C3314 1.378 . S
C3316 C3317 1.367 . S
C3317 C3316 1.367 . S
C3317 C3319 1.433 . S
C3318 C3314 1.350 . S
C3318 C3315 1.463 . S
C3318 N3322 1.427 . S
C3319 H3309 0.929 . S
C3319 C3317 1.433 . S
C3319 N3322 1.384 . S
C3320 H3311 0.929 . S
C3320 C3312 1.378 . S
C3320 C3315 1.350 . S
C3321 H3308 0.929 . S
C3321 C3313 1.433 . S
C3321 N3323 1.384 . S
N3322 C3318 1.427 . S
N3322 C3319 1.384 . S
N3323 C3315 1.427 . S
N3323 C3321 1.384 . S
H3324 C3330 0.930 . S
H3325 C3334 0.930 . S
H3326 C3339 0.929 . S
H3327 C3337 0.929 . S
H3328 C3332 0.929 . S
H3329 C3338 0.929 . S
C3330 H3324 0.930 . S
C3330 C3331 1.367 . S
C3330 C3338 1.378 . S
C3331 C3330 1.367 . S
C3331 C3339 1.433 . S
C3332 H3328 0.929 . S
C3332 C3334 1.378 . S
C3332 C3336 1.350 . S
C3333 C3336 1.463 . S
C3333 C3338 1.350 . S
C3333 N3341 1.427 . S
C3334 H3325 0.930 . S
C3334 C3332 1.378 . S
C3334 C3335 1.367 . S
C3335 C3334 1.367 . S
C3335 C3337 1.433 . S
C3336 C3332 1.350 . S
C3336 C3333 1.463 . S
C3336 N3340 1.427 . S
C3337 H3327 0.929 . S
C3337 C3335 1.433 . S
C3337 N3340 1.384 . S
C3338 H3329 0.929 . S
C3338 C3330 1.378 . S
C3338 C3333 1.350 . S
C3339 H3326 0.929 . S
C3339 C3331 1.433 . S
C3339 N3341 1.384 . S
N3340 C3336 1.427 . S
N3340 C3337 1.384 . S
N3341 C3333 1.427 . S
N3341 C3339 1.384 . S
H3342 C3348 0.930 . S
H3343 C3352 0.930 . S
H3344 C3357 0.929 . S
H3345 C3355 0.929 . S
H3346 C3350 0.929 . S
H3347 C3356 0.929 . S
C3348 H3342 0.930 . S
C3348 C3349 1.367 . S
C3348 C3356 1.378 . S
C3349 C3348 1.367 . S
C3349 C3357 1.433 . S
C3350 H3346 0.929 . S
C3350 C3352 1.378 . S
C3350 C3354 1.350 . S
C3351 C3354 1.463 . S
C3351 C3356 1.350 . S
C3351 N3359 1.427 . S
C3352 H3343 0.930 . S
C3352 C3350 1.378 . S
C3352 C3353 1.367 . S
C3353 C3352 1.367 . S
C3353 C3355 1.433 . S
C3354 C3350 1.350 . S
C3354 C3351 1.463 . S
C3354 N3358 1.427 . S
C3355 H3345 0.929 . S
C3355 C3353 1.433 . S
C3355 N3358 1.384 . S
C3356 H3347 0.929 . S
C3356 C3348 1.378 . S
C3356 C3351 1.350 . S
C3357 H3344 0.929 . S
C3357 C3349 1.433 . S
C3357 N3359 1.384 . S
N3358 C3354 1.427 . S
N3358 C3355 1.384 . S
N3359 C3351 1.427 . S
N3359 C3357 1.384 . S
H3360 C3366 0.930 . S
H3361 C3370 0.930 . S
H3362 C3375 0.929 . S
H3363 C3373 0.929 . S
H3364 C3368 0.929 . S
H3365 C3374 0.929 . S
C3366 H3360 0.930 . S
C3366 C3367 1.367 . S
C3366 C3374 1.378 . S
C3367 C3366 1.367 . S
C3367 C3375 1.433 . S
C3368 H3364 0.929 . S
C3368 C3370 1.378 . S
C3368 C3372 1.350 . S
C3369 C3372 1.463 . S
C3369 C3374 1.350 . S
C3369 N3377 1.427 . S
C3370 H3361 0.930 . S
C3370 C3368 1.378 . S
C3370 C3371 1.367 . S
C3371 C3370 1.367 . S
C3371 C3373 1.433 . S
C3372 C3368 1.350 . S
C3372 C3369 1.463 . S
C3372 N3376 1.427 . S
C3373 H3363 0.929 . S
C3373 C3371 1.433 . S
C3373 N3376 1.384 . S
C3374 H3365 0.929 . S
C3374 C3366 1.378 . S
C3374 C3369 1.350 . S
C3375 H3362 0.929 . S
C3375 C3367 1.433 . S
C3375 N3377 1.384 . S
N3376 C3372 1.427 . S
N3376 C3373 1.384 . S
N3377 C3369 1.427 . S
N3377 C3375 1.384 . S
H3378 C3384 0.930 . S
H3379 C3388 0.930 . S
H3380 C3393 0.929 . S
H3381 C3391 0.929 . S
H3382 C3386 0.929 . S
H3383 C3392 0.929 . S
C3384 H3378 0.930 . S
C3384 C3385 1.367 . S
C3384 C3392 1.378 . S
C3385 C3384 1.367 . S
C3385 C3393 1.433 . S
C3386 H3382 0.929 . S
C3386 C3388 1.378 . S
C3386 C3390 1.350 . S
C3387 C3390 1.463 . S
C3387 C3392 1.350 . S
C3387 N3395 1.427 . S
C3388 H3379 0.930 . S
C3388 C3386 1.378 . S
C3388 C3389 1.367 . S
C3389 C3388 1.367 . S
C3389 C3391 1.433 . S
C3390 C3386 1.350 . S
C3390 C3387 1.463 . S
C3390 N3394 1.427 . S
C3391 H3381 0.929 . S
C3391 C3389 1.433 . S
C3391 N3394 1.384 . S
C3392 H3383 0.929 . S
C3392 C3384 1.378 . S
C3392 C3387 1.350 . S
C3393 H3380 0.929 . S
C3393 C3385 1.433 . S
C3393 N3395 1.384 . S
N3394 C3390 1.427 . S
N3394 C3391 1.384 . S
N3395 C3387 1.427 . S
N3395 C3393 1.384 . S
H3396 C3402 0.930 . S
H3397 C3406 0.930 . S
H3398 C3411 0.929 . S
H3399 C3409 0.929 . S
H3400 C3404 0.929 . S
H3401 C3410 0.929 . S
C3402 H3396 0.930 . S
C3402 C3403 1.367 . S
C3402 C3410 1.378 . S
C3403 C3402 1.367 . S
C3403 C3411 1.433 . S
C3404 H3400 0.929 . S
C3404 C3406 1.378 . S
C3404 C3408 1.350 . S
C3405 C3408 1.463 . S
C3405 C3410 1.350 . S
C3405 N3413 1.427 . S
C3406 H3397 0.930 . S
C3406 C3404 1.378 . S
C3406 C3407 1.367 . S
C3407 C3406 1.367 . S
C3407 C3409 1.433 . S
C3408 C3404 1.350 . S
C3408 C3405 1.463 . S
C3408 N3412 1.427 . S
C3409 H3399 0.929 . S
C3409 C3407 1.433 . S
C3409 N3412 1.384 . S
C3410 H3401 0.929 . S
C3410 C3402 1.378 . S
C3410 C3405 1.350 . S
C3411 H3398 0.929 . S
C3411 C3403 1.433 . S
C3411 N3413 1.384 . S
N3412 C3408 1.427 . S
N3412 C3409 1.384 . S
N3413 C3405 1.427 . S
N3413 C3411 1.384 . S
H3414 C3420 0.930 . S
H3415 C3424 0.930 . S
H3416 C3429 0.929 . S
H3417 C3427 0.929 . S
H3418 C3422 0.929 . S
H3419 C3428 0.929 . S
C3420 H3414 0.930 . S
C3420 C3421 1.367 . S
C3420 C3428 1.378 . S
C3421 C3420 1.367 . S
C3421 C3429 1.433 . S
C3422 H3418 0.929 . S
C3422 C3424 1.378 . S
C3422 C3426 1.350 . S
C3423 C3426 1.463 . S
C3423 C3428 1.350 . S
C3423 N3431 1.427 . S
C3424 H3415 0.930 . S
C3424 C3422 1.378 . S
C3424 C3425 1.367 . S
C3425 C3424 1.367 . S
C3425 C3427 1.433 . S
C3426 C3422 1.350 . S
C3426 C3423 1.463 . S
C3426 N3430 1.427 . S
C3427 H3417 0.929 . S
C3427 C3425 1.433 . S
C3427 N3430 1.384 . S
C3428 H3419 0.929 . S
C3428 C3420 1.378 . S
C3428 C3423 1.350 . S
C3429 H3416 0.929 . S
C3429 C3421 1.433 . S
C3429 N3431 1.384 . S
N3430 C3426 1.427 . S
N3430 C3427 1.384 . S
N3431 C3423 1.427 . S
N3431 C3429 1.384 . S
H3432 C3438 0.930 . S
H3433 C3442 0.930 . S
H3434 C3447 0.929 . S
H3435 C3445 0.929 . S
H3436 C3440 0.929 . S
H3437 C3446 0.929 . S
C3438 H3432 0.930 . S
C3438 C3439 1.367 . S
C3438 C3446 1.378 . S
C3439 C3438 1.367 . S
C3439 C3447 1.433 . S
C3440 H3436 0.929 . S
C3440 C3442 1.378 . S
C3440 C3444 1.350 . S
C3441 C3444 1.463 . S
C3441 C3446 1.350 . S
C3441 N3449 1.427 . S
C3442 H3433 0.930 . S
C3442 C3440 1.378 . S
C3442 C3443 1.367 . S
C3443 C3442 1.367 . S
C3443 C3445 1.433 . S
C3444 C3440 1.350 . S
C3444 C3441 1.463 . S
C3444 N3448 1.427 . S
C3445 H3435 0.929 . S
C3445 C3443 1.433 . S
C3445 N3448 1.384 . S
C3446 H3437 0.929 . S
C3446 C3438 1.378 . S
C3446 C3441 1.350 . S
C3447 H3434 0.929 . S
C3447 C3439 1.433 . S
C3447 N3449 1.384 . S
N3448 C3444 1.427 . S
N3448 C3445 1.384 . S
N3449 C3441 1.427 . S
N3449 C3447 1.384 . S
H3450 C3456 0.930 . S
H3451 C3460 0.930 . S
H3452 C3465 0.929 . S
H3453 C3463 0.929 . S
H3454 C3458 0.929 . S
H3455 C3464 0.929 . S
C3456 H3450 0.930 . S
C3456 C3457 1.367 . S
C3456 C3464 1.378 . S
C3457 C3456 1.367 . S
C3457 C3465 1.433 . S
C3458 H3454 0.929 . S
C3458 C3460 1.378 . S
C3458 C3462 1.350 . S
C3459 C3462 1.463 . S
C3459 C3464 1.350 . S
C3459 N3467 1.427 . S
C3460 H3451 0.930 . S
C3460 C3458 1.378 . S
C3460 C3461 1.367 . S
C3461 C3460 1.367 . S
C3461 C3463 1.433 . S
C3462 C3458 1.350 . S
C3462 C3459 1.463 . S
C3462 N3466 1.427 . S
C3463 H3453 0.929 . S
C3463 C3461 1.433 . S
C3463 N3466 1.384 . S
C3464 H3455 0.929 . S
C3464 C3456 1.378 . S
C3464 C3459 1.350 . S
C3465 H3452 0.929 . S
C3465 C3457 1.433 . S
C3465 N3467 1.384 . S
N3466 C3462 1.427 . S
N3466 C3463 1.384 . S
N3467 C3459 1.427 . S
N3467 C3465 1.384 . S
H3468 C3474 0.930 . S
H3469 C3478 0.930 . S
H3470 C3483 0.929 . S
H3471 C3481 0.929 . S
H3472 C3476 0.929 . S
H3473 C3482 0.929 . S
C3474 H3468 0.930 . S
C3474 C3475 1.367 . S
C3474 C3482 1.378 . S
C3475 C3474 1.367 . S
C3475 C3483 1.433 . S
C3476 H3472 0.929 . S
C3476 C3478 1.378 . S
C3476 C3480 1.350 . S
C3477 C3480 1.463 . S
C3477 C3482 1.350 . S
C3477 N3485 1.427 . S
C3478 H3469 0.930 . S
C3478 C3476 1.378 . S
C3478 C3479 1.367 . S
C3479 C3478 1.367 . S
C3479 C3481 1.433 . S
C3480 C3476 1.350 . S
C3480 C3477 1.463 . S
C3480 N3484 1.427 . S
C3481 H3471 0.929 . S
C3481 C3479 1.433 . S
C3481 N3484 1.384 . S
C3482 H3473 0.929 . S
C3482 C3474 1.378 . S
C3482 C3477 1.350 . S
C3483 H3470 0.929 . S
C3483 C3475 1.433 . S
C3483 N3485 1.384 . S
N3484 C3480 1.427 . S
N3484 C3481 1.384 . S
N3485 C3477 1.427 . S
N3485 C3483 1.384 . S
H3486 C3492 0.930 . S
H3487 C3496 0.930 . S
H3488 C3501 0.929 . S
H3489 C3499 0.929 . S
H3490 C3494 0.929 . S
H3491 C3500 0.929 . S
C3492 H3486 0.930 . S
C3492 C3493 1.367 . S
C3492 C3500 1.378 . S
C3493 C3492 1.367 . S
C3493 C3501 1.433 . S
C3494 H3490 0.929 . S
C3494 C3496 1.378 . S
C3494 C3498 1.350 . S
C3495 C3498 1.463 . S
C3495 C3500 1.350 . S
C3495 N3503 1.427 . S
C3496 H3487 0.930 . S
C3496 C3494 1.378 . S
C3496 C3497 1.367 . S
C3497 C3496 1.367 . S
C3497 C3499 1.433 . S
C3498 C3494 1.350 . S
C3498 C3495 1.463 . S
C3498 N3502 1.427 . S
C3499 H3489 0.929 . S
C3499 C3497 1.433 . S
C3499 N3502 1.384 . S
C3500 H3491 0.929 . S
C3500 C3492 1.378 . S
C3500 C3495 1.350 . S
C3501 H3488 0.929 . S
C3501 C3493 1.433 . S
C3501 N3503 1.384 . S
N3502 C3498 1.427 . S
N3502 C3499 1.384 . S
N3503 C3495 1.427 . S
N3503 C3501 1.384 . S
H3504 C3510 0.930 . S
H3505 C3514 0.930 . S
H3506 C3519 0.929 . S
H3507 C3517 0.929 . S
H3508 C3512 0.929 . S
H3509 C3518 0.929 . S
C3510 H3504 0.930 . S
C3510 C3511 1.367 . S
C3510 C3518 1.378 . S
C3511 C3510 1.367 . S
C3511 C3519 1.433 . S
C3512 H3508 0.929 . S
C3512 C3514 1.378 . S
C3512 C3516 1.350 . S
C3513 C3516 1.463 . S
C3513 C3518 1.350 . S
C3513 N3521 1.427 . S
C3514 H3505 0.930 . S
C3514 C3512 1.378 . S
C3514 C3515 1.367 . S
C3515 C3514 1.367 . S
C3515 C3517 1.433 . S
C3516 C3512 1.350 . S
C3516 C3513 1.463 . S
C3516 N3520 1.427 . S
C3517 H3507 0.929 . S
C3517 C3515 1.433 . S
C3517 N3520 1.384 . S
C3518 H3509 0.929 . S
C3518 C3510 1.378 . S
C3518 C3513 1.350 . S
C3519 H3506 0.929 . S
C3519 C3511 1.433 . S
C3519 N3521 1.384 . S
N3520 C3516 1.427 . S
N3520 C3517 1.384 . S
N3521 C3513 1.427 . S
N3521 C3519 1.384 . S
H3522 C3528 0.930 . S
H3523 C3532 0.930 . S
H3524 C3537 0.929 . S
H3525 C3535 0.929 . S
H3526 C3530 0.929 . S
H3527 C3536 0.929 . S
C3528 H3522 0.930 . S
C3528 C3529 1.367 . S
C3528 C3536 1.378 . S
C3529 C3528 1.367 . S
C3529 C3537 1.433 . S
C3530 H3526 0.929 . S
C3530 C3532 1.378 . S
C3530 C3534 1.350 . S
C3531 C3534 1.463 . S
C3531 C3536 1.350 . S
C3531 N3539 1.427 . S
C3532 H3523 0.930 . S
C3532 C3530 1.378 . S
C3532 C3533 1.367 . S
C3533 C3532 1.367 . S
C3533 C3535 1.433 . S
C3534 C3530 1.350 . S
C3534 C3531 1.463 . S
C3534 N3538 1.427 . S
C3535 H3525 0.929 . S
C3535 C3533 1.433 . S
C3535 N3538 1.384 . S
C3536 H3527 0.929 . S
C3536 C3528 1.378 . S
C3536 C3531 1.350 . S
C3537 H3524 0.929 . S
C3537 C3529 1.433 . S
C3537 N3539 1.384 . S
N3538 C3534 1.427 . S
N3538 C3535 1.384 . S
N3539 C3531 1.427 . S
N3539 C3537 1.384 . S
H3540 C3546 0.930 . S
H3541 C3550 0.930 . S
H3542 C3555 0.929 . S
H3543 C3553 0.929 . S
H3544 C3548 0.929 . S
H3545 C3554 0.929 . S
C3546 H3540 0.930 . S
C3546 C3547 1.367 . S
C3546 C3554 1.378 . S
C3547 C3546 1.367 . S
C3547 C3555 1.433 . S
C3548 H3544 0.929 . S
C3548 C3550 1.378 . S
C3548 C3552 1.350 . S
C3549 C3552 1.463 . S
C3549 C3554 1.350 . S
C3549 N3557 1.427 . S
C3550 H3541 0.930 . S
C3550 C3548 1.378 . S
C3550 C3551 1.367 . S
C3551 C3550 1.367 . S
C3551 C3553 1.433 . S
C3552 C3548 1.350 . S
C3552 C3549 1.463 . S
C3552 N3556 1.427 . S
C3553 H3543 0.929 . S
C3553 C3551 1.433 . S
C3553 N3556 1.384 . S
C3554 H3545 0.929 . S
C3554 C3546 1.378 . S
C3554 C3549 1.350 . S
C3555 H3542 0.929 . S
C3555 C3547 1.433 . S
C3555 N3557 1.384 . S
N3556 C3552 1.427 . S
N3556 C3553 1.384 . S
N3557 C3549 1.427 . S
N3557 C3555 1.384 . S
H3558 C3564 0.930 . S
H3559 C3568 0.930 . S
H3560 C3573 0.929 . S
H3561 C3571 0.929 . S
H3562 C3566 0.929 . S
H3563 C3572 0.929 . S
C3564 H3558 0.930 . S
C3564 C3565 1.367 . S
C3564 C3572 1.378 . S
C3565 C3564 1.367 . S
C3565 C3573 1.433 . S
C3566 H3562 0.929 . S
C3566 C3568 1.378 . S
C3566 C3570 1.350 . S
C3567 C3570 1.463 . S
C3567 C3572 1.350 . S
C3567 N3575 1.427 . S
C3568 H3559 0.930 . S
C3568 C3566 1.378 . S
C3568 C3569 1.367 . S
C3569 C3568 1.367 . S
C3569 C3571 1.433 . S
C3570 C3566 1.350 . S
C3570 C3567 1.463 . S
C3570 N3574 1.427 . S
C3571 H3561 0.929 . S
C3571 C3569 1.433 . S
C3571 N3574 1.384 . S
C3572 H3563 0.929 . S
C3572 C3564 1.378 . S
C3572 C3567 1.350 . S
C3573 H3560 0.929 . S
C3573 C3565 1.433 . S
C3573 N3575 1.384 . S
N3574 C3570 1.427 . S
N3574 C3571 1.384 . S
N3575 C3567 1.427 . S
N3575 C3573 1.384 . S
H3576 C3582 0.930 . S
H3577 C3586 0.930 . S
H3578 C3591 0.929 . S
H3579 C3589 0.929 . S
H3580 C3584 0.929 . S
H3581 C3590 0.929 . S
C3582 H3576 0.930 . S
C3582 C3583 1.367 . S
C3582 C3590 1.378 . S
C3583 C3582 1.367 . S
C3583 C3591 1.433 . S
C3584 H3580 0.929 . S
C3584 C3586 1.378 . S
C3584 C3588 1.350 . S
C3585 C3588 1.463 . S
C3585 C3590 1.350 . S
C3585 N3593 1.427 . S
C3586 H3577 0.930 . S
C3586 C3584 1.378 . S
C3586 C3587 1.367 . S
C3587 C3586 1.367 . S
C3587 C3589 1.433 . S
C3588 C3584 1.350 . S
C3588 C3585 1.463 . S
C3588 N3592 1.427 . S
C3589 H3579 0.929 . S
C3589 C3587 1.433 . S
C3589 N3592 1.384 . S
C3590 H3581 0.929 . S
C3590 C3582 1.378 . S
C3590 C3585 1.350 . S
C3591 H3578 0.929 . S
C3591 C3583 1.433 . S
C3591 N3593 1.384 . S
N3592 C3588 1.427 . S
N3592 C3589 1.384 . S
N3593 C3585 1.427 . S
N3593 C3591 1.384 . S
H3594 C3600 0.930 . S
H3595 C3604 0.930 . S
H3596 C3609 0.929 . S
H3597 C3607 0.929 . S
H3598 C3602 0.929 . S
H3599 C3608 0.929 . S
C3600 H3594 0.930 . S
C3600 C3601 1.367 . S
C3600 C3608 1.378 . S
C3601 C3600 1.367 . S
C3601 C3609 1.433 . S
C3602 H3598 0.929 . S
C3602 C3604 1.378 . S
C3602 C3606 1.350 . S
C3603 C3606 1.463 . S
C3603 C3608 1.350 . S
C3603 N3611 1.427 . S
C3604 H3595 0.930 . S
C3604 C3602 1.378 . S
C3604 C3605 1.367 . S
C3605 C3604 1.367 . S
C3605 C3607 1.433 . S
C3606 C3602 1.350 . S
C3606 C3603 1.463 . S
C3606 N3610 1.427 . S
C3607 H3597 0.929 . S
C3607 C3605 1.433 . S
C3607 N3610 1.384 . S
C3608 H3599 0.929 . S
C3608 C3600 1.378 . S
C3608 C3603 1.350 . S
C3609 H3596 0.929 . S
C3609 C3601 1.433 . S
C3609 N3611 1.384 . S
N3610 C3606 1.427 . S
N3610 C3607 1.384 . S
N3611 C3603 1.427 . S
N3611 C3609 1.384 . S
H3612 C3618 0.930 . S
H3613 C3622 0.930 . S
H3614 C3627 0.929 . S
H3615 C3625 0.929 . S
H3616 C3620 0.929 . S
H3617 C3626 0.929 . S
C3618 H3612 0.930 . S
C3618 C3619 1.367 . S
C3618 C3626 1.378 . S
C3619 C3618 1.367 . S
C3619 C3627 1.433 . S
C3620 H3616 0.929 . S
C3620 C3622 1.378 . S
C3620 C3624 1.350 . S
C3621 C3624 1.463 . S
C3621 C3626 1.350 . S
C3621 N3629 1.427 . S
C3622 H3613 0.930 . S
C3622 C3620 1.378 . S
C3622 C3623 1.367 . S
C3623 C3622 1.367 . S
C3623 C3625 1.433 . S
C3624 C3620 1.350 . S
C3624 C3621 1.463 . S
C3624 N3628 1.427 . S
C3625 H3615 0.929 . S
C3625 C3623 1.433 . S
C3625 N3628 1.384 . S
C3626 H3617 0.929 . S
C3626 C3618 1.378 . S
C3626 C3621 1.350 . S
C3627 H3614 0.929 . S
C3627 C3619 1.433 . S
C3627 N3629 1.384 . S
N3628 C3624 1.427 . S
N3628 C3625 1.384 . S
N3629 C3621 1.427 . S
N3629 C3627 1.384 . S
H3630 C3636 0.930 . S
H3631 C3640 0.930 . S
H3632 C3645 0.929 . S
H3633 C3643 0.929 . S
H3634 C3638 0.929 . S
H3635 C3644 0.929 . S
C3636 H3630 0.930 . S
C3636 C3637 1.367 . S
C3636 C3644 1.378 . S
C3637 C3636 1.367 . S
C3637 C3645 1.433 . S
C3638 H3634 0.929 . S
C3638 C3640 1.378 . S
C3638 C3642 1.350 . S
C3639 C3642 1.463 . S
C3639 C3644 1.350 . S
C3639 N3647 1.427 . S
C3640 H3631 0.930 . S
C3640 C3638 1.378 . S
C3640 C3641 1.367 . S
C3641 C3640 1.367 . S
C3641 C3643 1.433 . S
C3642 C3638 1.350 . S
C3642 C3639 1.463 . S
C3642 N3646 1.427 . S
C3643 H3633 0.929 . S
C3643 C3641 1.433 . S
C3643 N3646 1.384 . S
C3644 H3635 0.929 . S
C3644 C3636 1.378 . S
C3644 C3639 1.350 . S
C3645 H3632 0.929 . S
C3645 C3637 1.433 . S
C3645 N3647 1.384 . S
N3646 C3642 1.427 . S
N3646 C3643 1.384 . S
N3647 C3639 1.427 . S
N3647 C3645 1.384 . S
H3648 C3654 0.930 . S
H3649 C3658 0.930 . S
H3650 C3663 0.929 . S
H3651 C3661 0.929 . S
H3652 C3656 0.929 . S
H3653 C3662 0.929 . S
C3654 H3648 0.930 . S
C3654 C3655 1.367 . S
C3654 C3662 1.378 . S
C3655 C3654 1.367 . S
C3655 C3663 1.433 . S
C3656 H3652 0.929 . S
C3656 C3658 1.378 . S
C3656 C3660 1.350 . S
C3657 C3660 1.463 . S
C3657 C3662 1.350 . S
C3657 N3665 1.427 . S
C3658 H3649 0.930 . S
C3658 C3656 1.378 . S
C3658 C3659 1.367 . S
C3659 C3658 1.367 . S
C3659 C3661 1.433 . S
C3660 C3656 1.350 . S
C3660 C3657 1.463 . S
C3660 N3664 1.427 . S
C3661 H3651 0.929 . S
C3661 C3659 1.433 . S
C3661 N3664 1.384 . S
C3662 H3653 0.929 . S
C3662 C3654 1.378 . S
C3662 C3657 1.350 . S
C3663 H3650 0.929 . S
C3663 C3655 1.433 . S
C3663 N3665 1.384 . S
N3664 C3660 1.427 . S
N3664 C3661 1.384 . S
N3665 C3657 1.427 . S
N3665 C3663 1.384 . S
H3666 C3672 0.930 . S
H3667 C3676 0.930 . S
H3668 C3681 0.929 . S
H3669 C3679 0.929 . S
H3670 C3674 0.929 . S
H3671 C3680 0.929 . S
C3672 H3666 0.930 . S
C3672 C3673 1.367 . S
C3672 C3680 1.378 . S
C3673 C3672 1.367 . S
C3673 C3681 1.433 . S
C3674 H3670 0.929 . S
C3674 C3676 1.378 . S
C3674 C3678 1.350 . S
C3675 C3678 1.463 . S
C3675 C3680 1.350 . S
C3675 N3683 1.427 . S
C3676 H3667 0.930 . S
C3676 C3674 1.378 . S
C3676 C3677 1.367 . S
C3677 C3676 1.367 . S
C3677 C3679 1.433 . S
C3678 C3674 1.350 . S
C3678 C3675 1.463 . S
C3678 N3682 1.427 . S
C3679 H3669 0.929 . S
C3679 C3677 1.433 . S
C3679 N3682 1.384 . S
C3680 H3671 0.929 . S
C3680 C3672 1.378 . S
C3680 C3675 1.350 . S
C3681 H3668 0.929 . S
C3681 C3673 1.433 . S
C3681 N3683 1.384 . S
N3682 C3678 1.427 . S
N3682 C3679 1.384 . S
N3683 C3675 1.427 . S
N3683 C3681 1.384 . S
H3684 C3690 0.930 . S
H3685 C3694 0.930 . S
H3686 C3699 0.929 . S
H3687 C3697 0.929 . S
H3688 C3692 0.929 . S
H3689 C3698 0.929 . S
C3690 H3684 0.930 . S
C3690 C3691 1.367 . S
C3690 C3698 1.378 . S
C3691 C3690 1.367 . S
C3691 C3699 1.433 . S
C3692 H3688 0.929 . S
C3692 C3694 1.378 . S
C3692 C3696 1.350 . S
C3693 C3696 1.463 . S
C3693 C3698 1.350 . S
C3693 N3701 1.427 . S
C3694 H3685 0.930 . S
C3694 C3692 1.378 . S
C3694 C3695 1.367 . S
C3695 C3694 1.367 . S
C3695 C3697 1.433 . S
C3696 C3692 1.350 . S
C3696 C3693 1.463 . S
C3696 N3700 1.427 . S
C3697 H3687 0.929 . S
C3697 C3695 1.433 . S
C3697 N3700 1.384 . S
C3698 H3689 0.929 . S
C3698 C3690 1.378 . S
C3698 C3693 1.350 . S
C3699 H3686 0.929 . S
C3699 C3691 1.433 . S
C3699 N3701 1.384 . S
N3700 C3696 1.427 . S
N3700 C3697 1.384 . S
N3701 C3693 1.427 . S
N3701 C3699 1.384 . S
H3702 C3708 0.930 . S
H3703 C3712 0.930 . S
H3704 C3717 0.929 . S
H3705 C3715 0.929 . S
H3706 C3710 0.929 . S
H3707 C3716 0.929 . S
C3708 H3702 0.930 . S
C3708 C3709 1.367 . S
C3708 C3716 1.378 . S
C3709 C3708 1.367 . S
C3709 C3717 1.433 . S
C3710 H3706 0.929 . S
C3710 C3712 1.378 . S
C3710 C3714 1.350 . S
C3711 C3714 1.463 . S
C3711 C3716 1.350 . S
C3711 N3719 1.427 . S
C3712 H3703 0.930 . S
C3712 C3710 1.378 . S
C3712 C3713 1.367 . S
C3713 C3712 1.367 . S
C3713 C3715 1.433 . S
C3714 C3710 1.350 . S
C3714 C3711 1.463 . S
C3714 N3718 1.427 . S
C3715 H3705 0.929 . S
C3715 C3713 1.433 . S
C3715 N3718 1.384 . S
C3716 H3707 0.929 . S
C3716 C3708 1.378 . S
C3716 C3711 1.350 . S
C3717 H3704 0.929 . S
C3717 C3709 1.433 . S
C3717 N3719 1.384 . S
N3718 C3714 1.427 . S
N3718 C3715 1.384 . S
N3719 C3711 1.427 . S
N3719 C3717 1.384 . S
H3720 C3726 0.930 . S
H3721 C3730 0.930 . S
H3722 C3735 0.929 . S
H3723 C3733 0.929 . S
H3724 C3728 0.929 . S
H3725 C3734 0.929 . S
C3726 H3720 0.930 . S
C3726 C3727 1.367 . S
C3726 C3734 1.378 . S
C3727 C3726 1.367 . S
C3727 C3735 1.433 . S
C3728 H3724 0.929 . S
C3728 C3730 1.378 . S
C3728 C3732 1.350 . S
C3729 C3732 1.463 . S
C3729 C3734 1.350 . S
C3729 N3737 1.427 . S
C3730 H3721 0.930 . S
C3730 C3728 1.378 . S
C3730 C3731 1.367 . S
C3731 C3730 1.367 . S
C3731 C3733 1.433 . S
C3732 C3728 1.350 . S
C3732 C3729 1.463 . S
C3732 N3736 1.427 . S
C3733 H3723 0.929 . S
C3733 C3731 1.433 . S
C3733 N3736 1.384 . S
C3734 H3725 0.929 . S
C3734 C3726 1.378 . S
C3734 C3729 1.350 . S
C3735 H3722 0.929 . S
C3735 C3727 1.433 . S
C3735 N3737 1.384 . S
N3736 C3732 1.427 . S
N3736 C3733 1.384 . S
N3737 C3729 1.427 . S
N3737 C3735 1.384 . S
H3738 C3744 0.930 . S
H3739 C3748 0.930 . S
H3740 C3753 0.929 . S
H3741 C3751 0.929 . S
H3742 C3746 0.929 . S
H3743 C3752 0.929 . S
C3744 H3738 0.930 . S
C3744 C3745 1.367 . S
C3744 C3752 1.378 . S
C3745 C3744 1.367 . S
C3745 C3753 1.433 . S
C3746 H3742 0.929 . S
C3746 C3748 1.378 . S
C3746 C3750 1.350 . S
C3747 C3750 1.463 . S
C3747 C3752 1.350 . S
C3747 N3755 1.427 . S
C3748 H3739 0.930 . S
C3748 C3746 1.378 . S
C3748 C3749 1.367 . S
C3749 C3748 1.367 . S
C3749 C3751 1.433 . S
C3750 C3746 1.350 . S
C3750 C3747 1.463 . S
C3750 N3754 1.427 . S
C3751 H3741 0.929 . S
C3751 C3749 1.433 . S
C3751 N3754 1.384 . S
C3752 H3743 0.929 . S
C3752 C3744 1.378 . S
C3752 C3747 1.350 . S
C3753 H3740 0.929 . S
C3753 C3745 1.433 . S
C3753 N3755 1.384 . S
N3754 C3750 1.427 . S
N3754 C3751 1.384 . S
N3755 C3747 1.427 . S
N3755 C3753 1.384 . S
H3756 C3762 0.930 . S
H3757 C3766 0.930 . S
H3758 C3771 0.929 . S
H3759 C3769 0.929 . S
H3760 C3764 0.929 . S
H3761 C3770 0.929 . S
C3762 H3756 0.930 . S
C3762 C3763 1.367 . S
C3762 C3770 1.378 . S
C3763 C3762 1.367 . S
C3763 C3771 1.433 . S
C3764 H3760 0.929 . S
C3764 C3766 1.378 . S
C3764 C3768 1.350 . S
C3765 C3768 1.463 . S
C3765 C3770 1.350 . S
C3765 N3773 1.427 . S
C3766 H3757 0.930 . S
C3766 C3764 1.378 . S
C3766 C3767 1.367 . S
C3767 C3766 1.367 . S
C3767 C3769 1.433 . S
C3768 C3764 1.350 . S
C3768 C3765 1.463 . S
C3768 N3772 1.427 . S
C3769 H3759 0.929 . S
C3769 C3767 1.433 . S
C3769 N3772 1.384 . S
C3770 H3761 0.929 . S
C3770 C3762 1.378 . S
C3770 C3765 1.350 . S
C3771 H3758 0.929 . S
C3771 C3763 1.433 . S
C3771 N3773 1.384 . S
N3772 C3768 1.427 . S
N3772 C3769 1.384 . S
N3773 C3765 1.427 . S
N3773 C3771 1.384 . S
H3774 C3780 0.930 . S
H3775 C3784 0.930 . S
H3776 C3789 0.929 . S
H3777 C3787 0.929 . S
H3778 C3782 0.929 . S
H3779 C3788 0.929 . S
C3780 H3774 0.930 . S
C3780 C3781 1.367 . S
C3780 C3788 1.378 . S
C3781 C3780 1.367 . S
C3781 C3789 1.433 . S
C3782 H3778 0.929 . S
C3782 C3784 1.378 . S
C3782 C3786 1.350 . S
C3783 C3786 1.463 . S
C3783 C3788 1.350 . S
C3783 N3791 1.427 . S
C3784 H3775 0.930 . S
C3784 C3782 1.378 . S
C3784 C3785 1.367 . S
C3785 C3784 1.367 . S
C3785 C3787 1.433 . S
C3786 C3782 1.350 . S
C3786 C3783 1.463 . S
C3786 N3790 1.427 . S
C3787 H3777 0.929 . S
C3787 C3785 1.433 . S
C3787 N3790 1.384 . S
C3788 H3779 0.929 . S
C3788 C3780 1.378 . S
C3788 C3783 1.350 . S
C3789 H3776 0.929 . S
C3789 C3781 1.433 . S
C3789 N3791 1.384 . S
N3790 C3786 1.427 . S
N3790 C3787 1.384 . S
N3791 C3783 1.427 . S
N3791 C3789 1.384 . S
H3792 C3798 0.930 . S
H3793 C3802 0.930 . S
H3794 C3807 0.929 . S
H3795 C3805 0.929 . S
H3796 C3800 0.929 . S
H3797 C3806 0.929 . S
C3798 H3792 0.930 . S
C3798 C3799 1.367 . S
C3798 C3806 1.378 . S
C3799 C3798 1.367 . S
C3799 C3807 1.433 . S
C3800 H3796 0.929 . S
C3800 C3802 1.378 . S
C3800 C3804 1.350 . S
C3801 C3804 1.463 . S
C3801 C3806 1.350 . S
C3801 N3809 1.427 . S
C3802 H3793 0.930 . S
C3802 C3800 1.378 . S
C3802 C3803 1.367 . S
C3803 C3802 1.367 . S
C3803 C3805 1.433 . S
C3804 C3800 1.350 . S
C3804 C3801 1.463 . S
C3804 N3808 1.427 . S
C3805 H3795 0.929 . S
C3805 C3803 1.433 . S
C3805 N3808 1.384 . S
C3806 H3797 0.929 . S
C3806 C3798 1.378 . S
C3806 C3801 1.350 . S
C3807 H3794 0.929 . S
C3807 C3799 1.433 . S
C3807 N3809 1.384 . S
N3808 C3804 1.427 . S
N3808 C3805 1.384 . S
N3809 C3801 1.427 . S
N3809 C3807 1.384 . S
H3810 C3816 0.930 . S
H3811 C3820 0.930 . S
H3812 C3825 0.929 . S
H3813 C3823 0.929 . S
H3814 C3818 0.929 . S
H3815 C3824 0.929 . S
C3816 H3810 0.930 . S
C3816 C3817 1.367 . S
C3816 C3824 1.378 . S
C3817 C3816 1.367 . S
C3817 C3825 1.433 . S
C3818 H3814 0.929 . S
C3818 C3820 1.378 . S
C3818 C3822 1.350 . S
C3819 C3822 1.463 . S
C3819 C3824 1.350 . S
C3819 N3827 1.427 . S
C3820 H3811 0.930 . S
C3820 C3818 1.378 . S
C3820 C3821 1.367 . S
C3821 C3820 1.367 . S
C3821 C3823 1.433 . S
C3822 C3818 1.350 . S
C3822 C3819 1.463 . S
C3822 N3826 1.427 . S
C3823 H3813 0.929 . S
C3823 C3821 1.433 . S
C3823 N3826 1.384 . S
C3824 H3815 0.929 . S
C3824 C3816 1.378 . S
C3824 C3819 1.350 . S
C3825 H3812 0.929 . S
C3825 C3817 1.433 . S
C3825 N3827 1.384 . S
N3826 C3822 1.427 . S
N3826 C3823 1.384 . S
N3827 C3819 1.427 . S
N3827 C3825 1.384 . S
H3828 C3834 0.930 . S
H3829 C3838 0.930 . S
H3830 C3843 0.929 . S
H3831 C3841 0.929 . S
H3832 C3836 0.929 . S
H3833 C3842 0.929 . S
C3834 H3828 0.930 . S
C3834 C3835 1.367 . S
C3834 C3842 1.378 . S
C3835 C3834 1.367 . S
C3835 C3843 1.433 . S
C3836 H3832 0.929 . S
C3836 C3838 1.378 . S
C3836 C3840 1.350 . S
C3837 C3840 1.463 . S
C3837 C3842 1.350 . S
C3837 N3845 1.427 . S
C3838 H3829 0.930 . S
C3838 C3836 1.378 . S
C3838 C3839 1.367 . S
C3839 C3838 1.367 . S
C3839 C3841 1.433 . S
C3840 C3836 1.350 . S
C3840 C3837 1.463 . S
C3840 N3844 1.427 . S
C3841 H3831 0.929 . S
C3841 C3839 1.433 . S
C3841 N3844 1.384 . S
C3842 H3833 0.929 . S
C3842 C3834 1.378 . S
C3842 C3837 1.350 . S
C3843 H3830 0.929 . S
C3843 C3835 1.433 . S
C3843 N3845 1.384 . S
N3844 C3840 1.427 . S
N3844 C3841 1.384 . S
N3845 C3837 1.427 . S
N3845 C3843 1.384 . S
H3846 C3852 0.930 . S
H3847 C3856 0.930 . S
H3848 C3861 0.929 . S
H3849 C3859 0.929 . S
H3850 C3854 0.929 . S
H3851 C3860 0.929 . S
C3852 H3846 0.930 . S
C3852 C3853 1.367 . S
C3852 C3860 1.378 . S
C3853 C3852 1.367 . S
C3853 C3861 1.433 . S
C3854 H3850 0.929 . S
C3854 C3856 1.378 . S
C3854 C3858 1.350 . S
C3855 C3858 1.463 . S
C3855 C3860 1.350 . S
C3855 N3863 1.427 . S
C3856 H3847 0.930 . S
C3856 C3854 1.378 . S
C3856 C3857 1.367 . S
C3857 C3856 1.367 . S
C3857 C3859 1.433 . S
C3858 C3854 1.350 . S
C3858 C3855 1.463 . S
C3858 N3862 1.427 . S
C3859 H3849 0.929 . S
C3859 C3857 1.433 . S
C3859 N3862 1.384 . S
C3860 H3851 0.929 . S
C3860 C3852 1.378 . S
C3860 C3855 1.350 . S
C3861 H3848 0.929 . S
C3861 C3853 1.433 . S
C3861 N3863 1.384 . S
N3862 C3858 1.427 . S
N3862 C3859 1.384 . S
N3863 C3855 1.427 . S
N3863 C3861 1.384 . S
H3864 C3870 0.930 . S
H3865 C3874 0.930 . S
H3866 C3879 0.929 . S
H3867 C3877 0.929 . S
H3868 C3872 0.929 . S
H3869 C3878 0.929 . S
C3870 H3864 0.930 . S
C3870 C3871 1.367 . S
C3870 C3878 1.378 . S
C3871 C3870 1.367 . S
C3871 C3879 1.433 . S
C3872 H3868 0.929 . S
C3872 C3874 1.378 . S
C3872 C3876 1.350 . S
C3873 C3876 1.463 . S
C3873 C3878 1.350 . S
C3873 N3881 1.427 . S
C3874 H3865 0.930 . S
C3874 C3872 1.378 . S
C3874 C3875 1.367 . S
C3875 C3874 1.367 . S
C3875 C3877 1.433 . S
C3876 C3872 1.350 . S
C3876 C3873 1.463 . S
C3876 N3880 1.427 . S
C3877 H3867 0.929 . S
C3877 C3875 1.433 . S
C3877 N3880 1.384 . S
C3878 H3869 0.929 . S
C3878 C3870 1.378 . S
C3878 C3873 1.350 . S
C3879 H3866 0.929 . S
C3879 C3871 1.433 . S
C3879 N3881 1.384 . S
N3880 C3876 1.427 . S
N3880 C3877 1.384 . S
N3881 C3873 1.427 . S
N3881 C3879 1.384 . S
H3882 C3888 0.930 . S
H3883 C3892 0.930 . S
H3884 C3897 0.929 . S
H3885 C3895 0.929 . S
H3886 C3890 0.929 . S
H3887 C3896 0.929 . S
C3888 H3882 0.930 . S
C3888 C3889 1.367 . S
C3888 C3896 1.378 . S
C3889 C3888 1.367 . S
C3889 C3897 1.433 . S
C3890 H3886 0.929 . S
C3890 C3892 1.378 . S
C3890 C3894 1.350 . S
C3891 C3894 1.463 . S
C3891 C3896 1.350 . S
C3891 N3899 1.427 . S
C3892 H3883 0.930 . S
C3892 C3890 1.378 . S
C3892 C3893 1.367 . S
C3893 C3892 1.367 . S
C3893 C3895 1.433 . S
C3894 C3890 1.350 . S
C3894 C3891 1.463 . S
C3894 N3898 1.427 . S
C3895 H3885 0.929 . S
C3895 C3893 1.433 . S
C3895 N3898 1.384 . S
C3896 H3887 0.929 . S
C3896 C3888 1.378 . S
C3896 C3891 1.350 . S
C3897 H3884 0.929 . S
C3897 C3889 1.433 . S
C3897 N3899 1.384 . S
N3898 C3894 1.427 . S
N3898 C3895 1.384 . S
N3899 C3891 1.427 . S
N3899 C3897 1.384 . S
H3900 C3906 0.930 . S
H3901 C3910 0.930 . S
H3902 C3915 0.929 . S
H3903 C3913 0.929 . S
H3904 C3908 0.929 . S
H3905 C3914 0.929 . S
C3906 H3900 0.930 . S
C3906 C3907 1.367 . S
C3906 C3914 1.378 . S
C3907 C3906 1.367 . S
C3907 C3915 1.433 . S
C3908 H3904 0.929 . S
C3908 C3910 1.378 . S
C3908 C3912 1.350 . S
C3909 C3912 1.463 . S
C3909 C3914 1.350 . S
C3909 N3917 1.427 . S
C3910 H3901 0.930 . S
C3910 C3908 1.378 . S
C3910 C3911 1.367 . S
C3911 C3910 1.367 . S
C3911 C3913 1.433 . S
C3912 C3908 1.350 . S
C3912 C3909 1.463 . S
C3912 N3916 1.427 . S
C3913 H3903 0.929 . S
C3913 C3911 1.433 . S
C3913 N3916 1.384 . S
C3914 H3905 0.929 . S
C3914 C3906 1.378 . S
C3914 C3909 1.350 . S
C3915 H3902 0.929 . S
C3915 C3907 1.433 . S
C3915 N3917 1.384 . S
N3916 C3912 1.427 . S
N3916 C3913 1.384 . S
N3917 C3909 1.427 . S
N3917 C3915 1.384 . S
H3918 C3924 0.930 . S
H3919 C3928 0.930 . S
H3920 C3933 0.929 . S
H3921 C3931 0.929 . S
H3922 C3926 0.929 . S
H3923 C3932 0.929 . S
C3924 H3918 0.930 . S
C3924 C3925 1.367 . S
C3924 C3932 1.378 . S
C3925 C3924 1.367 . S
C3925 C3933 1.433 . S
C3926 H3922 0.929 . S
C3926 C3928 1.378 . S
C3926 C3930 1.350 . S
C3927 C3930 1.463 . S
C3927 C3932 1.350 . S
C3927 N3935 1.427 . S
C3928 H3919 0.930 . S
C3928 C3926 1.378 . S
C3928 C3929 1.367 . S
C3929 C3928 1.367 . S
C3929 C3931 1.433 . S
C3930 C3926 1.350 . S
C3930 C3927 1.463 . S
C3930 N3934 1.427 . S
C3931 H3921 0.929 . S
C3931 C3929 1.433 . S
C3931 N3934 1.384 . S
C3932 H3923 0.929 . S
C3932 C3924 1.378 . S
C3932 C3927 1.350 . S
C3933 H3920 0.929 . S
C3933 C3925 1.433 . S
C3933 N3935 1.384 . S
N3934 C3930 1.427 . S
N3934 C3931 1.384 . S
N3935 C3927 1.427 . S
N3935 C3933 1.384 . S
H3936 C3942 0.930 . S
H3937 C3946 0.930 . S
H3938 C3951 0.929 . S
H3939 C3949 0.929 . S
H3940 C3944 0.929 . S
H3941 C3950 0.929 . S
C3942 H3936 0.930 . S
C3942 C3943 1.367 . S
C3942 C3950 1.378 . S
C3943 C3942 1.367 . S
C3943 C3951 1.433 . S
C3944 H3940 0.929 . S
C3944 C3946 1.378 . S
C3944 C3948 1.350 . S
C3945 C3948 1.463 . S
C3945 C3950 1.350 . S
C3945 N3953 1.427 . S
C3946 H3937 0.930 . S
C3946 C3944 1.378 . S
C3946 C3947 1.367 . S
C3947 C3946 1.367 . S
C3947 C3949 1.433 . S
C3948 C3944 1.350 . S
C3948 C3945 1.463 . S
C3948 N3952 1.427 . S
C3949 H3939 0.929 . S
C3949 C3947 1.433 . S
C3949 N3952 1.384 . S
C3950 H3941 0.929 . S
C3950 C3942 1.378 . S
C3950 C3945 1.350 . S
C3951 H3938 0.929 . S
C3951 C3943 1.433 . S
C3951 N3953 1.384 . S
N3952 C3948 1.427 . S
N3952 C3949 1.384 . S
N3953 C3945 1.427 . S
N3953 C3951 1.384 . S
H3954 C3960 0.930 . S
H3955 C3964 0.930 . S
H3956 C3969 0.929 . S
H3957 C3967 0.929 . S
H3958 C3962 0.929 . S
H3959 C3968 0.929 . S
C3960 H3954 0.930 . S
C3960 C3961 1.367 . S
C3960 C3968 1.378 . S
C3961 C3960 1.367 . S
C3961 C3969 1.433 . S
C3962 H3958 0.929 . S
C3962 C3964 1.378 . S
C3962 C3966 1.350 . S
C3963 C3966 1.463 . S
C3963 C3968 1.350 . S
C3963 N3971 1.427 . S
C3964 H3955 0.930 . S
C3964 C3962 1.378 . S
C3964 C3965 1.367 . S
C3965 C3964 1.367 . S
C3965 C3967 1.433 . S
C3966 C3962 1.350 . S
C3966 C3963 1.463 . S
C3966 N3970 1.427 . S
C3967 H3957 0.929 . S
C3967 C3965 1.433 . S
C3967 N3970 1.384 . S
C3968 H3959 0.929 . S
C3968 C3960 1.378 . S
C3968 C3963 1.350 . S
C3969 H3956 0.929 . S
C3969 C3961 1.433 . S
C3969 N3971 1.384 . S
N3970 C3966 1.427 . S
N3970 C3967 1.384 . S
N3971 C3963 1.427 . S
N3971 C3969 1.384 . S
H3972 C3978 0.930 . S
H3973 C3982 0.930 . S
H3974 C3987 0.929 . S
H3975 C3985 0.929 . S
H3976 C3980 0.929 . S
H3977 C3986 0.929 . S
C3978 H3972 0.930 . S
C3978 C3979 1.367 . S
C3978 C3986 1.378 . S
C3979 C3978 1.367 . S
C3979 C3987 1.433 . S
C3980 H3976 0.929 . S
C3980 C3982 1.378 . S
C3980 C3984 1.350 . S
C3981 C3984 1.463 . S
C3981 C3986 1.350 . S
C3981 N3989 1.427 . S
C3982 H3973 0.930 . S
C3982 C3980 1.378 . S
C3982 C3983 1.367 . S
C3983 C3982 1.367 . S
C3983 C3985 1.433 . S
C3984 C3980 1.350 . S
C3984 C3981 1.463 . S
C3984 N3988 1.427 . S
C3985 H3975 0.929 . S
C3985 C3983 1.433 . S
C3985 N3988 1.384 . S
C3986 H3977 0.929 . S
C3986 C3978 1.378 . S
C3986 C3981 1.350 . S
C3987 H3974 0.929 . S
C3987 C3979 1.433 . S
C3987 N3989 1.384 . S
N3988 C3984 1.427 . S
N3988 C3985 1.384 . S
N3989 C3981 1.427 . S
N3989 C3987 1.384 . S
H3990 C3996 0.930 . S
H3991 C4000 0.930 . S
H3992 C4005 0.929 . S
H3993 C4003 0.929 . S
H3994 C3998 0.929 . S
H3995 C4004 0.929 . S
C3996 H3990 0.930 . S
C3996 C3997 1.367 . S
C3996 C4004 1.378 . S
C3997 C3996 1.367 . S
C3997 C4005 1.433 . S
C3998 H3994 0.929 . S
C3998 C4000 1.378 . S
C3998 C4002 1.350 . S
C3999 C4002 1.463 . S
C3999 C4004 1.350 . S
C3999 N4007 1.427 . S
C4000 H3991 0.930 . S
C4000 C3998 1.378 . S
C4000 C4001 1.367 . S
C4001 C4000 1.367 . S
C4001 C4003 1.433 . S
C4002 C3998 1.350 . S
C4002 C3999 1.463 . S
C4002 N4006 1.427 . S
C4003 H3993 0.929 . S
C4003 C4001 1.433 . S
C4003 N4006 1.384 . S
C4004 H3995 0.929 . S
C4004 C3996 1.378 . S
C4004 C3999 1.350 . S
C4005 H3992 0.929 . S
C4005 C3997 1.433 . S
C4005 N4007 1.384 . S
N4006 C4002 1.427 . S
N4006 C4003 1.384 . S
N4007 C3999 1.427 . S
N4007 C4005 1.384 . S
H4008 C4014 0.930 . S
H4009 C4018 0.930 . S
H4010 C4023 0.929 . S
H4011 C4021 0.929 . S
H4012 C4016 0.929 . S
H4013 C4022 0.929 . S
C4014 H4008 0.930 . S
C4014 C4015 1.367 . S
C4014 C4022 1.378 . S
C4015 C4014 1.367 . S
C4015 C4023 1.433 . S
C4016 H4012 0.929 . S
C4016 C4018 1.378 . S
C4016 C4020 1.350 . S
C4017 C4020 1.463 . S
C4017 C4022 1.350 . S
C4017 N4025 1.427 . S
C4018 H4009 0.930 . S
C4018 C4016 1.378 . S
C4018 C4019 1.367 . S
C4019 C4018 1.367 . S
C4019 C4021 1.433 . S
C4020 C4016 1.350 . S
C4020 C4017 1.463 . S
C4020 N4024 1.427 . S
C4021 H4011 0.929 . S
C4021 C4019 1.433 . S
C4021 N4024 1.384 . S
C4022 H4013 0.929 . S
C4022 C4014 1.378 . S
C4022 C4017 1.350 . S
C4023 H4010 0.929 . S
C4023 C4015 1.433 . S
C4023 N4025 1.384 . S
N4024 C4020 1.427 . S
N4024 C4021 1.384 . S
N4025 C4017 1.427 . S
N4025 C4023 1.384 . S
H4026 C4032 0.930 . S
H4027 C4036 0.930 . S
H4028 C4041 0.929 . S
H4029 C4039 0.929 . S
H4030 C4034 0.929 . S
H4031 C4040 0.929 . S
C4032 H4026 0.930 . S
C4032 C4033 1.367 . S
C4032 C4040 1.378 . S
C4033 C4032 1.367 . S
C4033 C4041 1.433 . S
C4034 H4030 0.929 . S
C4034 C4036 1.378 . S
C4034 C4038 1.350 . S
C4035 C4038 1.463 . S
C4035 C4040 1.350 . S
C4035 N4043 1.427 . S
C4036 H4027 0.930 . S
C4036 C4034 1.378 . S
C4036 C4037 1.367 . S
C4037 C4036 1.367 . S
C4037 C4039 1.433 . S
C4038 C4034 1.350 . S
C4038 C4035 1.463 . S
C4038 N4042 1.427 . S
C4039 H4029 0.929 . S
C4039 C4037 1.433 . S
C4039 N4042 1.384 . S
C4040 H4031 0.929 . S
C4040 C4032 1.378 . S
C4040 C4035 1.350 . S
C4041 H4028 0.929 . S
C4041 C4033 1.433 . S
C4041 N4043 1.384 . S
N4042 C4038 1.427 . S
N4042 C4039 1.384 . S
N4043 C4035 1.427 . S
N4043 C4041 1.384 . S
H4044 C4050 0.930 . S
H4045 C4054 0.930 . S
H4046 C4059 0.929 . S
H4047 C4057 0.929 . S
H4048 C4052 0.929 . S
H4049 C4058 0.929 . S
C4050 H4044 0.930 . S
C4050 C4051 1.367 . S
C4050 C4058 1.378 . S
C4051 C4050 1.367 . S
C4051 C4059 1.433 . S
C4052 H4048 0.929 . S
C4052 C4054 1.378 . S
C4052 C4056 1.350 . S
C4053 C4056 1.463 . S
C4053 C4058 1.350 . S
C4053 N4061 1.427 . S
C4054 H4045 0.930 . S
C4054 C4052 1.378 . S
C4054 C4055 1.367 . S
C4055 C4054 1.367 . S
C4055 C4057 1.433 . S
C4056 C4052 1.350 . S
C4056 C4053 1.463 . S
C4056 N4060 1.427 . S
C4057 H4047 0.929 . S
C4057 C4055 1.433 . S
C4057 N4060 1.384 . S
C4058 H4049 0.929 . S
C4058 C4050 1.378 . S
C4058 C4053 1.350 . S
C4059 H4046 0.929 . S
C4059 C4051 1.433 . S
C4059 N4061 1.384 . S
N4060 C4056 1.427 . S
N4060 C4057 1.384 . S
N4061 C4053 1.427 . S
N4061 C4059 1.384 . S
H4062 C4068 0.930 . S
H4063 C4072 0.930 . S
H4064 C4077 0.929 . S
H4065 C4075 0.929 . S
H4066 C4070 0.929 . S
H4067 C4076 0.929 . S
C4068 H4062 0.930 . S
C4068 C4069 1.367 . S
C4068 C4076 1.378 . S
C4069 C4068 1.367 . S
C4069 C4077 1.433 . S
C4070 H4066 0.929 . S
C4070 C4072 1.378 . S
C4070 C4074 1.350 . S
C4071 C4074 1.463 . S
C4071 C4076 1.350 . S
C4071 N4079 1.427 . S
C4072 H4063 0.930 . S
C4072 C4070 1.378 . S
C4072 C4073 1.367 . S
C4073 C4072 1.367 . S
C4073 C4075 1.433 . S
C4074 C4070 1.350 . S
C4074 C4071 1.463 . S
C4074 N4078 1.427 . S
C4075 H4065 0.929 . S
C4075 C4073 1.433 . S
C4075 N4078 1.384 . S
C4076 H4067 0.929 . S
C4076 C4068 1.378 . S
C4076 C4071 1.350 . S
C4077 H4064 0.929 . S
C4077 C4069 1.433 . S
C4077 N4079 1.384 . S
N4078 C4074 1.427 . S
N4078 C4075 1.384 . S
N4079 C4071 1.427 . S
N4079 C4077 1.384 . S
H4080 C4086 0.930 . S
H4081 C4090 0.930 . S
H4082 C4095 0.929 . S
H4083 C4093 0.929 . S
H4084 C4088 0.929 . S
H4085 C4094 0.929 . S
C4086 H4080 0.930 . S
C4086 C4087 1.367 . S
C4086 C4094 1.378 . S
C4087 C4086 1.367 . S
C4087 C4095 1.433 . S
C4088 H4084 0.929 . S
C4088 C4090 1.378 . S
C4088 C4092 1.350 . S
C4089 C4092 1.463 . S
C4089 C4094 1.350 . S
C4089 N4097 1.427 . S
C4090 H4081 0.930 . S
C4090 C4088 1.378 . S
C4090 C4091 1.367 . S
C4091 C4090 1.367 . S
C4091 C4093 1.433 . S
C4092 C4088 1.350 . S
C4092 C4089 1.463 . S
C4092 N4096 1.427 . S
C4093 H4083 0.929 . S
C4093 C4091 1.433 . S
C4093 N4096 1.384 . S
C4094 H4085 0.929 . S
C4094 C4086 1.378 . S
C4094 C4089 1.350 . S
C4095 H4082 0.929 . S
C4095 C4087 1.433 . S
C4095 N4097 1.384 . S
N4096 C4092 1.427 . S
N4096 C4093 1.384 . S
N4097 C4089 1.427 . S
N4097 C4095 1.384 . S
H4098 C4104 0.930 . S
H4099 C4108 0.930 . S
H4100 C4113 0.929 . S
H4101 C4111 0.929 . S
H4102 C4106 0.929 . S
H4103 C4112 0.929 . S
C4104 H4098 0.930 . S
C4104 C4105 1.367 . S
C4104 C4112 1.378 . S
C4105 C4104 1.367 . S
C4105 C4113 1.433 . S
C4106 H4102 0.929 . S
C4106 C4108 1.378 . S
C4106 C4110 1.350 . S
C4107 C4110 1.463 . S
C4107 C4112 1.350 . S
C4107 N4115 1.427 . S
C4108 H4099 0.930 . S
C4108 C4106 1.378 . S
C4108 C4109 1.367 . S
C4109 C4108 1.367 . S
C4109 C4111 1.433 . S
C4110 C4106 1.350 . S
C4110 C4107 1.463 . S
C4110 N4114 1.427 . S
C4111 H4101 0.929 . S
C4111 C4109 1.433 . S
C4111 N4114 1.384 . S
C4112 H4103 0.929 . S
C4112 C4104 1.378 . S
C4112 C4107 1.350 . S
C4113 H4100 0.929 . S
C4113 C4105 1.433 . S
C4113 N4115 1.384 . S
N4114 C4110 1.427 . S
N4114 C4111 1.384 . S
N4115 C4107 1.427 . S
N4115 C4113 1.384 . S
H4116 C4122 0.930 . S
H4117 C4126 0.930 . S
H4118 C4131 0.929 . S
H4119 C4129 0.929 . S
H4120 C4124 0.929 . S
H4121 C4130 0.929 . S
C4122 H4116 0.930 . S
C4122 C4123 1.367 . S
C4122 C4130 1.378 . S
C4123 C4122 1.367 . S
C4123 C4131 1.433 . S
C4124 H4120 0.929 . S
C4124 C4126 1.378 . S
C4124 C4128 1.350 . S
C4125 C4128 1.463 . S
C4125 C4130 1.350 . S
C4125 N4133 1.427 . S
C4126 H4117 0.930 . S
C4126 C4124 1.378 . S
C4126 C4127 1.367 . S
C4127 C4126 1.367 . S
C4127 C4129 1.433 . S
C4128 C4124 1.350 . S
C4128 C4125 1.463 . S
C4128 N4132 1.427 . S
C4129 H4119 0.929 . S
C4129 C4127 1.433 . S
C4129 N4132 1.384 . S
C4130 H4121 0.929 . S
C4130 C4122 1.378 . S
C4130 C4125 1.350 . S
C4131 H4118 0.929 . S
C4131 C4123 1.433 . S
C4131 N4133 1.384 . S
N4132 C4128 1.427 . S
N4132 C4129 1.384 . S
N4133 C4125 1.427 . S
N4133 C4131 1.384 . S
H4134 C4140 0.930 . S
H4135 C4144 0.930 . S
H4136 C4149 0.929 . S
H4137 C4147 0.929 . S
H4138 C4142 0.929 . S
H4139 C4148 0.929 . S
C4140 H4134 0.930 . S
C4140 C4141 1.367 . S
C4140 C4148 1.378 . S
C4141 C4140 1.367 . S
C4141 C4149 1.433 . S
C4142 H4138 0.929 . S
C4142 C4144 1.378 . S
C4142 C4146 1.350 . S
C4143 C4146 1.463 . S
C4143 C4148 1.350 . S
C4143 N4151 1.427 . S
C4144 H4135 0.930 . S
C4144 C4142 1.378 . S
C4144 C4145 1.367 . S
C4145 C4144 1.367 . S
C4145 C4147 1.433 . S
C4146 C4142 1.350 . S
C4146 C4143 1.463 . S
C4146 N4150 1.427 . S
C4147 H4137 0.929 . S
C4147 C4145 1.433 . S
C4147 N4150 1.384 . S
C4148 H4139 0.929 . S
C4148 C4140 1.378 . S
C4148 C4143 1.350 . S
C4149 H4136 0.929 . S
C4149 C4141 1.433 . S
C4149 N4151 1.384 . S
N4150 C4146 1.427 . S
N4150 C4147 1.384 . S
N4151 C4143 1.427 . S
N4151 C4149 1.384 . S
H4152 C4158 0.930 . S
H4153 C4162 0.930 . S
H4154 C4167 0.929 . S
H4155 C4165 0.929 . S
H4156 C4160 0.929 . S
H4157 C4166 0.929 . S
C4158 H4152 0.930 . S
C4158 C4159 1.367 . S
C4158 C4166 1.378 . S
C4159 C4158 1.367 . S
C4159 C4167 1.433 . S
C4160 H4156 0.929 . S
C4160 C4162 1.378 . S
C4160 C4164 1.350 . S
C4161 C4164 1.463 . S
C4161 C4166 1.350 . S
C4161 N4169 1.427 . S
C4162 H4153 0.930 . S
C4162 C4160 1.378 . S
C4162 C4163 1.367 . S
C4163 C4162 1.367 . S
C4163 C4165 1.433 . S
C4164 C4160 1.350 . S
C4164 C4161 1.463 . S
C4164 N4168 1.427 . S
C4165 H4155 0.929 . S
C4165 C4163 1.433 . S
C4165 N4168 1.384 . S
C4166 H4157 0.929 . S
C4166 C4158 1.378 . S
C4166 C4161 1.350 . S
C4167 H4154 0.929 . S
C4167 C4159 1.433 . S
C4167 N4169 1.384 . S
N4168 C4164 1.427 . S
N4168 C4165 1.384 . S
N4169 C4161 1.427 . S
N4169 C4167 1.384 . S
H4170 C4176 0.930 . S
H4171 C4180 0.930 . S
H4172 C4185 0.929 . S
H4173 C4183 0.929 . S
H4174 C4178 0.929 . S
H4175 C4184 0.929 . S
C4176 H4170 0.930 . S
C4176 C4177 1.367 . S
C4176 C4184 1.378 . S
C4177 C4176 1.367 . S
C4177 C4185 1.433 . S
C4178 H4174 0.929 . S
C4178 C4180 1.378 . S
C4178 C4182 1.350 . S
C4179 C4182 1.463 . S
C4179 C4184 1.350 . S
C4179 N4187 1.427 . S
C4180 H4171 0.930 . S
C4180 C4178 1.378 . S
C4180 C4181 1.367 . S
C4181 C4180 1.367 . S
C4181 C4183 1.433 . S
C4182 C4178 1.350 . S
C4182 C4179 1.463 . S
C4182 N4186 1.427 . S
C4183 H4173 0.929 . S
C4183 C4181 1.433 . S
C4183 N4186 1.384 . S
C4184 H4175 0.929 . S
C4184 C4176 1.378 . S
C4184 C4179 1.350 . S
C4185 H4172 0.929 . S
C4185 C4177 1.433 . S
C4185 N4187 1.384 . S
N4186 C4182 1.427 . S
N4186 C4183 1.384 . S
N4187 C4179 1.427 . S
N4187 C4185 1.384 . S
H4188 C4194 0.930 . S
H4189 C4198 0.930 . S
H4190 C4203 0.929 . S
H4191 C4201 0.929 . S
H4192 C4196 0.929 . S
H4193 C4202 0.929 . S
C4194 H4188 0.930 . S
C4194 C4195 1.367 . S
C4194 C4202 1.378 . S
C4195 C4194 1.367 . S
C4195 C4203 1.433 . S
C4196 H4192 0.929 . S
C4196 C4198 1.378 . S
C4196 C4200 1.350 . S
C4197 C4200 1.463 . S
C4197 C4202 1.350 . S
C4197 N4205 1.427 . S
C4198 H4189 0.930 . S
C4198 C4196 1.378 . S
C4198 C4199 1.367 . S
C4199 C4198 1.367 . S
C4199 C4201 1.433 . S
C4200 C4196 1.350 . S
C4200 C4197 1.463 . S
C4200 N4204 1.427 . S
C4201 H4191 0.929 . S
C4201 C4199 1.433 . S
C4201 N4204 1.384 . S
C4202 H4193 0.929 . S
C4202 C4194 1.378 . S
C4202 C4197 1.350 . S
C4203 H4190 0.929 . S
C4203 C4195 1.433 . S
C4203 N4205 1.384 . S
N4204 C4200 1.427 . S
N4204 C4201 1.384 . S
N4205 C4197 1.427 . S
N4205 C4203 1.384 . S
H4206 C4212 0.930 . S
H4207 C4216 0.930 . S
H4208 C4221 0.929 . S
H4209 C4219 0.929 . S
H4210 C4214 0.929 . S
H4211 C4220 0.929 . S
C4212 H4206 0.930 . S
C4212 C4213 1.367 . S
C4212 C4220 1.378 . S
C4213 C4212 1.367 . S
C4213 C4221 1.433 . S
C4214 H4210 0.929 . S
C4214 C4216 1.378 . S
C4214 C4218 1.350 . S
C4215 C4218 1.463 . S
C4215 C4220 1.350 . S
C4215 N4223 1.427 . S
C4216 H4207 0.930 . S
C4216 C4214 1.378 . S
C4216 C4217 1.367 . S
C4217 C4216 1.367 . S
C4217 C4219 1.433 . S
C4218 C4214 1.350 . S
C4218 C4215 1.463 . S
C4218 N4222 1.427 . S
C4219 H4209 0.929 . S
C4219 C4217 1.433 . S
C4219 N4222 1.384 . S
C4220 H4211 0.929 . S
C4220 C4212 1.378 . S
C4220 C4215 1.350 . S
C4221 H4208 0.929 . S
C4221 C4213 1.433 . S
C4221 N4223 1.384 . S
N4222 C4218 1.427 . S
N4222 C4219 1.384 . S
N4223 C4215 1.427 . S
N4223 C4221 1.384 . S
H4224 C4230 0.930 . S
H4225 C4234 0.930 . S
H4226 C4239 0.929 . S
H4227 C4237 0.929 . S
H4228 C4232 0.929 . S
H4229 C4238 0.929 . S
C4230 H4224 0.930 . S
C4230 C4231 1.367 . S
C4230 C4238 1.378 . S
C4231 C4230 1.367 . S
C4231 C4239 1.433 . S
C4232 H4228 0.929 . S
C4232 C4234 1.378 . S
C4232 C4236 1.350 . S
C4233 C4236 1.463 . S
C4233 C4238 1.350 . S
C4233 N4241 1.427 . S
C4234 H4225 0.930 . S
C4234 C4232 1.378 . S
C4234 C4235 1.367 . S
C4235 C4234 1.367 . S
C4235 C4237 1.433 . S
C4236 C4232 1.350 . S
C4236 C4233 1.463 . S
C4236 N4240 1.427 . S
C4237 H4227 0.929 . S
C4237 C4235 1.433 . S
C4237 N4240 1.384 . S
C4238 H4229 0.929 . S
C4238 C4230 1.378 . S
C4238 C4233 1.350 . S
C4239 H4226 0.929 . S
C4239 C4231 1.433 . S
C4239 N4241 1.384 . S
N4240 C4236 1.427 . S
N4240 C4237 1.384 . S
N4241 C4233 1.427 . S
N4241 C4239 1.384 . S
H4242 C4248 0.930 . S
H4243 C4252 0.930 . S
H4244 C4257 0.929 . S
H4245 C4255 0.929 . S
H4246 C4250 0.929 . S
H4247 C4256 0.929 . S
C4248 H4242 0.930 . S
C4248 C4249 1.367 . S
C4248 C4256 1.378 . S
C4249 C4248 1.367 . S
C4249 C4257 1.433 . S
C4250 H4246 0.929 . S
C4250 C4252 1.378 . S
C4250 C4254 1.350 . S
C4251 C4254 1.463 . S
C4251 C4256 1.350 . S
C4251 N4259 1.427 . S
C4252 H4243 0.930 . S
C4252 C4250 1.378 . S
C4252 C4253 1.367 . S
C4253 C4252 1.367 . S
C4253 C4255 1.433 . S
C4254 C4250 1.350 . S
C4254 C4251 1.463 . S
C4254 N4258 1.427 . S
C4255 H4245 0.929 . S
C4255 C4253 1.433 . S
C4255 N4258 1.384 . S
C4256 H4247 0.929 . S
C4256 C4248 1.378 . S
C4256 C4251 1.350 . S
C4257 H4244 0.929 . S
C4257 C4249 1.433 . S
C4257 N4259 1.384 . S
N4258 C4254 1.427 . S
N4258 C4255 1.384 . S
N4259 C4251 1.427 . S
N4259 C4257 1.384 . S
H4260 C4266 0.930 . S
H4261 C4270 0.930 . S
H4262 C4275 0.929 . S
H4263 C4273 0.929 . S
H4264 C4268 0.929 . S
H4265 C4274 0.929 . S
C4266 H4260 0.930 . S
C4266 C4267 1.367 . S
C4266 C4274 1.378 . S
C4267 C4266 1.367 . S
C4267 C4275 1.433 . S
C4268 H4264 0.929 . S
C4268 C4270 1.378 . S
C4268 C4272 1.350 . S
C4269 C4272 1.463 . S
C4269 C4274 1.350 . S
C4269 N4277 1.427 . S
C4270 H4261 0.930 . S
C4270 C4268 1.378 . S
C4270 C4271 1.367 . S
C4271 C4270 1.367 . S
C4271 C4273 1.433 . S
C4272 C4268 1.350 . S
C4272 C4269 1.463 . S
C4272 N4276 1.427 . S
C4273 H4263 0.929 . S
C4273 C4271 1.433 . S
C4273 N4276 1.384 . S
C4274 H4265 0.929 . S
C4274 C4266 1.378 . S
C4274 C4269 1.350 . S
C4275 H4262 0.929 . S
C4275 C4267 1.433 . S
C4275 N4277 1.384 . S
N4276 C4272 1.427 . S
N4276 C4273 1.384 . S
N4277 C4269 1.427 . S
N4277 C4275 1.384 . S
H4278 C4284 0.930 . S
H4279 C4288 0.930 . S
H4280 C4293 0.929 . S
H4281 C4291 0.929 . S
H4282 C4286 0.929 . S
H4283 C4292 0.929 . S
C4284 H4278 0.930 . S
C4284 C4285 1.367 . S
C4284 C4292 1.378 . S
C4285 C4284 1.367 . S
C4285 C4293 1.433 . S
C4286 H4282 0.929 . S
C4286 C4288 1.378 . S
C4286 C4290 1.350 . S
C4287 C4290 1.463 . S
C4287 C4292 1.350 . S
C4287 N4295 1.427 . S
C4288 H4279 0.930 . S
C4288 C4286 1.378 . S
C4288 C4289 1.367 . S
C4289 C4288 1.367 . S
C4289 C4291 1.433 . S
C4290 C4286 1.350 . S
C4290 C4287 1.463 . S
C4290 N4294 1.427 . S
C4291 H4281 0.929 . S
C4291 C4289 1.433 . S
C4291 N4294 1.384 . S
C4292 H4283 0.929 . S
C4292 C4284 1.378 . S
C4292 C4287 1.350 . S
C4293 H4280 0.929 . S
C4293 C4285 1.433 . S
C4293 N4295 1.384 . S
N4294 C4290 1.427 . S
N4294 C4291 1.384 . S
N4295 C4287 1.427 . S
N4295 C4293 1.384 . S
H4296 C4302 0.930 . S
H4297 C4306 0.930 . S
H4298 C4311 0.929 . S
H4299 C4309 0.929 . S
H4300 C4304 0.929 . S
H4301 C4310 0.929 . S
C4302 H4296 0.930 . S
C4302 C4303 1.367 . S
C4302 C4310 1.378 . S
C4303 C4302 1.367 . S
C4303 C4311 1.433 . S
C4304 H4300 0.929 . S
C4304 C4306 1.378 . S
C4304 C4308 1.350 . S
C4305 C4308 1.463 . S
C4305 C4310 1.350 . S
C4305 N4313 1.427 . S
C4306 H4297 0.930 . S
C4306 C4304 1.378 . S
C4306 C4307 1.367 . S
C4307 C4306 1.367 . S
C4307 C4309 1.433 . S
C4308 C4304 1.350 . S
C4308 C4305 1.463 . S
C4308 N4312 1.427 . S
C4309 H4299 0.929 . S
C4309 C4307 1.433 . S
C4309 N4312 1.384 . S
C4310 H4301 0.929 . S
C4310 C4302 1.378 . S
C4310 C4305 1.350 . S
C4311 H4298 0.929 . S
C4311 C4303 1.433 . S
C4311 N4313 1.384 . S
N4312 C4308 1.427 . S
N4312 C4309 1.384 . S
N4313 C4305 1.427 . S
N4313 C4311 1.384 . S
H4314 C4320 0.930 . S
H4315 C4324 0.930 . S
H4316 C4329 0.929 . S
H4317 C4327 0.929 . S
H4318 C4322 0.929 . S
H4319 C4328 0.929 . S
C4320 H4314 0.930 . S
C4320 C4321 1.367 . S
C4320 C4328 1.378 . S
C4321 C4320 1.367 . S
C4321 C4329 1.433 . S
C4322 H4318 0.929 . S
C4322 C4324 1.378 . S
C4322 C4326 1.350 . S
C4323 C4326 1.463 . S
C4323 C4328 1.350 . S
C4323 N4331 1.427 . S
C4324 H4315 0.930 . S
C4324 C4322 1.378 . S
C4324 C4325 1.367 . S
C4325 C4324 1.367 . S
C4325 C4327 1.433 . S
C4326 C4322 1.350 . S
C4326 C4323 1.463 . S
C4326 N4330 1.427 . S
C4327 H4317 0.929 . S
C4327 C4325 1.433 . S
C4327 N4330 1.384 . S
C4328 H4319 0.929 . S
C4328 C4320 1.378 . S
C4328 C4323 1.350 . S
C4329 H4316 0.929 . S
C4329 C4321 1.433 . S
C4329 N4331 1.384 . S
N4330 C4326 1.427 . S
N4330 C4327 1.384 . S
N4331 C4323 1.427 . S
N4331 C4329 1.384 . S
H4332 C4338 0.930 . S
H4333 C4342 0.930 . S
H4334 C4347 0.929 . S
H4335 C4345 0.929 . S
H4336 C4340 0.929 . S
H4337 C4346 0.929 . S
C4338 H4332 0.930 . S
C4338 C4339 1.367 . S
C4338 C4346 1.378 . S
C4339 C4338 1.367 . S
C4339 C4347 1.433 . S
C4340 H4336 0.929 . S
C4340 C4342 1.378 . S
C4340 C4344 1.350 . S
C4341 C4344 1.463 . S
C4341 C4346 1.350 . S
C4341 N4349 1.427 . S
C4342 H4333 0.930 . S
C4342 C4340 1.378 . S
C4342 C4343 1.367 . S
C4343 C4342 1.367 . S
C4343 C4345 1.433 . S
C4344 C4340 1.350 . S
C4344 C4341 1.463 . S
C4344 N4348 1.427 . S
C4345 H4335 0.929 . S
C4345 C4343 1.433 . S
C4345 N4348 1.384 . S
C4346 H4337 0.929 . S
C4346 C4338 1.378 . S
C4346 C4341 1.350 . S
C4347 H4334 0.929 . S
C4347 C4339 1.433 . S
C4347 N4349 1.384 . S
N4348 C4344 1.427 . S
N4348 C4345 1.384 . S
N4349 C4341 1.427 . S
N4349 C4347 1.384 . S
H4350 C4356 0.930 . S
H4351 C4360 0.930 . S
H4352 C4365 0.929 . S
H4353 C4363 0.929 . S
H4354 C4358 0.929 . S
H4355 C4364 0.929 . S
C4356 H4350 0.930 . S
C4356 C4357 1.367 . S
C4356 C4364 1.378 . S
C4357 C4356 1.367 . S
C4357 C4365 1.433 . S
C4358 H4354 0.929 . S
C4358 C4360 1.378 . S
C4358 C4362 1.350 . S
C4359 C4362 1.463 . S
C4359 C4364 1.350 . S
C4359 N4367 1.427 . S
C4360 H4351 0.930 . S
C4360 C4358 1.378 . S
C4360 C4361 1.367 . S
C4361 C4360 1.367 . S
C4361 C4363 1.433 . S
C4362 C4358 1.350 . S
C4362 C4359 1.463 . S
C4362 N4366 1.427 . S
C4363 H4353 0.929 . S
C4363 C4361 1.433 . S
C4363 N4366 1.384 . S
C4364 H4355 0.929 . S
C4364 C4356 1.378 . S
C4364 C4359 1.350 . S
C4365 H4352 0.929 . S
C4365 C4357 1.433 . S
C4365 N4367 1.384 . S
N4366 C4362 1.427 . S
N4366 C4363 1.384 . S
N4367 C4359 1.427 . S
N4367 C4365 1.384 . S
H4368 C4374 0.930 . S
H4369 C4378 0.930 . S
H4370 C4383 0.929 . S
H4371 C4381 0.929 . S
H4372 C4376 0.929 . S
H4373 C4382 0.929 . S
C4374 H4368 0.930 . S
C4374 C4375 1.367 . S
C4374 C4382 1.378 . S
C4375 C4374 1.367 . S
C4375 C4383 1.433 . S
C4376 H4372 0.929 . S
C4376 C4378 1.378 . S
C4376 C4380 1.350 . S
C4377 C4380 1.463 . S
C4377 C4382 1.350 . S
C4377 N4385 1.427 . S
C4378 H4369 0.930 . S
C4378 C4376 1.378 . S
C4378 C4379 1.367 . S
C4379 C4378 1.367 . S
C4379 C4381 1.433 . S
C4380 C4376 1.350 . S
C4380 C4377 1.463 . S
C4380 N4384 1.427 . S
C4381 H4371 0.929 . S
C4381 C4379 1.433 . S
C4381 N4384 1.384 . S
C4382 H4373 0.929 . S
C4382 C4374 1.378 . S
C4382 C4377 1.350 . S
C4383 H4370 0.929 . S
C4383 C4375 1.433 . S
C4383 N4385 1.384 . S
N4384 C4380 1.427 . S
N4384 C4381 1.384 . S
N4385 C4377 1.427 . S
N4385 C4383 1.384 . S
H4386 C4392 0.930 . S
H4387 C4396 0.930 . S
H4388 C4401 0.929 . S
H4389 C4399 0.929 . S
H4390 C4394 0.929 . S
H4391 C4400 0.929 . S
C4392 H4386 0.930 . S
C4392 C4393 1.367 . S
C4392 C4400 1.378 . S
C4393 C4392 1.367 . S
C4393 C4401 1.433 . S
C4394 H4390 0.929 . S
C4394 C4396 1.378 . S
C4394 C4398 1.350 . S
C4395 C4398 1.463 . S
C4395 C4400 1.350 . S
C4395 N4403 1.427 . S
C4396 H4387 0.930 . S
C4396 C4394 1.378 . S
C4396 C4397 1.367 . S
C4397 C4396 1.367 . S
C4397 C4399 1.433 . S
C4398 C4394 1.350 . S
C4398 C4395 1.463 . S
C4398 N4402 1.427 . S
C4399 H4389 0.929 . S
C4399 C4397 1.433 . S
C4399 N4402 1.384 . S
C4400 H4391 0.929 . S
C4400 C4392 1.378 . S
C4400 C4395 1.350 . S
C4401 H4388 0.929 . S
C4401 C4393 1.433 . S
C4401 N4403 1.384 . S
N4402 C4398 1.427 . S
N4402 C4399 1.384 . S
N4403 C4395 1.427 . S
N4403 C4401 1.384 . S
H4404 C4410 0.930 . S
H4405 C4414 0.930 . S
H4406 C4419 0.929 . S
H4407 C4417 0.929 . S
H4408 C4412 0.929 . S
H4409 C4418 0.929 . S
C4410 H4404 0.930 . S
C4410 C4411 1.367 . S
C4410 C4418 1.378 . S
C4411 C4410 1.367 . S
C4411 C4419 1.433 . S
C4412 H4408 0.929 . S
C4412 C4414 1.378 . S
C4412 C4416 1.350 . S
C4413 C4416 1.463 . S
C4413 C4418 1.350 . S
C4413 N4421 1.427 . S
C4414 H4405 0.930 . S
C4414 C4412 1.378 . S
C4414 C4415 1.367 . S
C4415 C4414 1.367 . S
C4415 C4417 1.433 . S
C4416 C4412 1.350 . S
C4416 C4413 1.463 . S
C4416 N4420 1.427 . S
C4417 H4407 0.929 . S
C4417 C4415 1.433 . S
C4417 N4420 1.384 . S
C4418 H4409 0.929 . S
C4418 C4410 1.378 . S
C4418 C4413 1.350 . S
C4419 H4406 0.929 . S
C4419 C4411 1.433 . S
C4419 N4421 1.384 . S
N4420 C4416 1.427 . S
N4420 C4417 1.384 . S
N4421 C4413 1.427 . S
N4421 C4419 1.384 . S
H4422 C4428 0.930 . S
H4423 C4432 0.930 . S
H4424 C4437 0.929 . S
H4425 C4435 0.929 . S
H4426 C4430 0.929 . S
H4427 C4436 0.929 . S
C4428 H4422 0.930 . S
C4428 C4429 1.367 . S
C4428 C4436 1.378 . S
C4429 C4428 1.367 . S
C4429 C4437 1.433 . S
C4430 H4426 0.929 . S
C4430 C4432 1.378 . S
C4430 C4434 1.350 . S
C4431 C4434 1.463 . S
C4431 C4436 1.350 . S
C4431 N4439 1.427 . S
C4432 H4423 0.930 . S
C4432 C4430 1.378 . S
C4432 C4433 1.367 . S
C4433 C4432 1.367 . S
C4433 C4435 1.433 . S
C4434 C4430 1.350 . S
C4434 C4431 1.463 . S
C4434 N4438 1.427 . S
C4435 H4425 0.929 . S
C4435 C4433 1.433 . S
C4435 N4438 1.384 . S
C4436 H4427 0.929 . S
C4436 C4428 1.378 . S
C4436 C4431 1.350 . S
C4437 H4424 0.929 . S
C4437 C4429 1.433 . S
C4437 N4439 1.384 . S
N4438 C4434 1.427 . S
N4438 C4435 1.384 . S
N4439 C4431 1.427 . S
N4439 C4437 1.384 . S
H4440 C4446 0.930 . S
H4441 C4450 0.930 . S
H4442 C4455 0.929 . S
H4443 C4453 0.929 . S
H4444 C4448 0.929 . S
H4445 C4454 0.929 . S
C4446 H4440 0.930 . S
C4446 C4447 1.367 . S
C4446 C4454 1.378 . S
C4447 C4446 1.367 . S
C4447 C4455 1.433 . S
C4448 H4444 0.929 . S
C4448 C4450 1.378 . S
C4448 C4452 1.350 . S
C4449 C4452 1.463 . S
C4449 C4454 1.350 . S
C4449 N4457 1.427 . S
C4450 H4441 0.930 . S
C4450 C4448 1.378 . S
C4450 C4451 1.367 . S
C4451 C4450 1.367 . S
C4451 C4453 1.433 . S
C4452 C4448 1.350 . S
C4452 C4449 1.463 . S
C4452 N4456 1.427 . S
C4453 H4443 0.929 . S
C4453 C4451 1.433 . S
C4453 N4456 1.384 . S
C4454 H4445 0.929 . S
C4454 C4446 1.378 . S
C4454 C4449 1.350 . S
C4455 H4442 0.929 . S
C4455 C4447 1.433 . S
C4455 N4457 1.384 . S
N4456 C4452 1.427 . S
N4456 C4453 1.384 . S
N4457 C4449 1.427 . S
N4457 C4455 1.384 . S
H4458 C4464 0.930 . S
H4459 C4468 0.930 . S
H4460 C4473 0.929 . S
H4461 C4471 0.929 . S
H4462 C4466 0.929 . S
H4463 C4472 0.929 . S
C4464 H4458 0.930 . S
C4464 C4465 1.367 . S
C4464 C4472 1.378 . S
C4465 C4464 1.367 . S
C4465 C4473 1.433 . S
C4466 H4462 0.929 . S
C4466 C4468 1.378 . S
C4466 C4470 1.350 . S
C4467 C4470 1.463 . S
C4467 C4472 1.350 . S
C4467 N4475 1.427 . S
C4468 H4459 0.930 . S
C4468 C4466 1.378 . S
C4468 C4469 1.367 . S
C4469 C4468 1.367 . S
C4469 C4471 1.433 . S
C4470 C4466 1.350 . S
C4470 C4467 1.463 . S
C4470 N4474 1.427 . S
C4471 H4461 0.929 . S
C4471 C4469 1.433 . S
C4471 N4474 1.384 . S
C4472 H4463 0.929 . S
C4472 C4464 1.378 . S
C4472 C4467 1.350 . S
C4473 H4460 0.929 . S
C4473 C4465 1.433 . S
C4473 N4475 1.384 . S
N4474 C4470 1.427 . S
N4474 C4471 1.384 . S
N4475 C4467 1.427 . S
N4475 C4473 1.384 . S
H4476 C4482 0.930 . S
H4477 C4486 0.930 . S
H4478 C4491 0.929 . S
H4479 C4489 0.929 . S
H4480 C4484 0.929 . S
H4481 C4490 0.929 . S
C4482 H4476 0.930 . S
C4482 C4483 1.367 . S
C4482 C4490 1.378 . S
C4483 C4482 1.367 . S
C4483 C4491 1.433 . S
C4484 H4480 0.929 . S
C4484 C4486 1.378 . S
C4484 C4488 1.350 . S
C4485 C4488 1.463 . S
C4485 C4490 1.350 . S
C4485 N4493 1.427 . S
C4486 H4477 0.930 . S
C4486 C4484 1.378 . S
C4486 C4487 1.367 . S
C4487 C4486 1.367 . S
C4487 C4489 1.433 . S
C4488 C4484 1.350 . S
C4488 C4485 1.463 . S
C4488 N4492 1.427 . S
C4489 H4479 0.929 . S
C4489 C4487 1.433 . S
C4489 N4492 1.384 . S
C4490 H4481 0.929 . S
C4490 C4482 1.378 . S
C4490 C4485 1.350 . S
C4491 H4478 0.929 . S
C4491 C4483 1.433 . S
C4491 N4493 1.384 . S
N4492 C4488 1.427 . S
N4492 C4489 1.384 . S
N4493 C4485 1.427 . S
N4493 C4491 1.384 . S
H4494 C4500 0.930 . S
H4495 C4504 0.930 . S
H4496 C4509 0.929 . S
H4497 C4507 0.929 . S
H4498 C4502 0.929 . S
H4499 C4508 0.929 . S
C4500 H4494 0.930 . S
C4500 C4501 1.367 . S
C4500 C4508 1.378 . S
C4501 C4500 1.367 . S
C4501 C4509 1.433 . S
C4502 H4498 0.929 . S
C4502 C4504 1.378 . S
C4502 C4506 1.350 . S
C4503 C4506 1.463 . S
C4503 C4508 1.350 . S
C4503 N4511 1.427 . S
C4504 H4495 0.930 . S
C4504 C4502 1.378 . S
C4504 C4505 1.367 . S
C4505 C4504 1.367 . S
C4505 C4507 1.433 . S
C4506 C4502 1.350 . S
C4506 C4503 1.463 . S
C4506 N4510 1.427 . S
C4507 H4497 0.929 . S
C4507 C4505 1.433 . S
C4507 N4510 1.384 . S
C4508 H4499 0.929 . S
C4508 C4500 1.378 . S
C4508 C4503 1.350 . S
C4509 H4496 0.929 . S
C4509 C4501 1.433 . S
C4509 N4511 1.384 . S
N4510 C4506 1.427 . S
N4510 C4507 1.384 . S
N4511 C4503 1.427 . S
N4511 C4509 1.384 . S
H4512 C4518 0.930 . S
H4513 C4522 0.930 . S
H4514 C4527 0.929 . S
H4515 C4525 0.929 . S
H4516 C4520 0.929 . S
H4517 C4526 0.929 . S
C4518 H4512 0.930 . S
C4518 C4519 1.367 . S
C4518 C4526 1.378 . S
C4519 C4518 1.367 . S
C4519 C4527 1.433 . S
C4520 H4516 0.929 . S
C4520 C4522 1.378 . S
C4520 C4524 1.350 . S
C4521 C4524 1.463 . S
C4521 C4526 1.350 . S
C4521 N4529 1.427 . S
C4522 H4513 0.930 . S
C4522 C4520 1.378 . S
C4522 C4523 1.367 . S
C4523 C4522 1.367 . S
C4523 C4525 1.433 . S
C4524 C4520 1.350 . S
C4524 C4521 1.463 . S
C4524 N4528 1.427 . S
C4525 H4515 0.929 . S
C4525 C4523 1.433 . S
C4525 N4528 1.384 . S
C4526 H4517 0.929 . S
C4526 C4518 1.378 . S
C4526 C4521 1.350 . S
C4527 H4514 0.929 . S
C4527 C4519 1.433 . S
C4527 N4529 1.384 . S
N4528 C4524 1.427 . S
N4528 C4525 1.384 . S
N4529 C4521 1.427 . S
N4529 C4527 1.384 . S
H4530 C4536 0.930 . S
H4531 C4540 0.930 . S
H4532 C4545 0.929 . S
H4533 C4543 0.929 . S
H4534 C4538 0.929 . S
H4535 C4544 0.929 . S
C4536 H4530 0.930 . S
C4536 C4537 1.367 . S
C4536 C4544 1.378 . S
C4537 C4536 1.367 . S
C4537 C4545 1.433 . S
C4538 H4534 0.929 . S
C4538 C4540 1.378 . S
C4538 C4542 1.350 . S
C4539 C4542 1.463 . S
C4539 C4544 1.350 . S
C4539 N4547 1.427 . S
C4540 H4531 0.930 . S
C4540 C4538 1.378 . S
C4540 C4541 1.367 . S
C4541 C4540 1.367 . S
C4541 C4543 1.433 . S
C4542 C4538 1.350 . S
C4542 C4539 1.463 . S
C4542 N4546 1.427 . S
C4543 H4533 0.929 . S
C4543 C4541 1.433 . S
C4543 N4546 1.384 . S
C4544 H4535 0.929 . S
C4544 C4536 1.378 . S
C4544 C4539 1.350 . S
C4545 H4532 0.929 . S
C4545 C4537 1.433 . S
C4545 N4547 1.384 . S
N4546 C4542 1.427 . S
N4546 C4543 1.384 . S
N4547 C4539 1.427 . S
N4547 C4545 1.384 . S
H4548 C4554 0.930 . S
H4549 C4558 0.930 . S
H4550 C4563 0.929 . S
H4551 C4561 0.929 . S
H4552 C4556 0.929 . S
H4553 C4562 0.929 . S
C4554 H4548 0.930 . S
C4554 C4555 1.367 . S
C4554 C4562 1.378 . S
C4555 C4554 1.367 . S
C4555 C4563 1.433 . S
C4556 H4552 0.929 . S
C4556 C4558 1.378 . S
C4556 C4560 1.350 . S
C4557 C4560 1.463 . S
C4557 C4562 1.350 . S
C4557 N4565 1.427 . S
C4558 H4549 0.930 . S
C4558 C4556 1.378 . S
C4558 C4559 1.367 . S
C4559 C4558 1.367 . S
C4559 C4561 1.433 . S
C4560 C4556 1.350 . S
C4560 C4557 1.463 . S
C4560 N4564 1.427 . S
C4561 H4551 0.929 . S
C4561 C4559 1.433 . S
C4561 N4564 1.384 . S
C4562 H4553 0.929 . S
C4562 C4554 1.378 . S
C4562 C4557 1.350 . S
C4563 H4550 0.929 . S
C4563 C4555 1.433 . S
C4563 N4565 1.384 . S
N4564 C4560 1.427 . S
N4564 C4561 1.384 . S
N4565 C4557 1.427 . S
N4565 C4563 1.384 . S
H4566 C4572 0.930 . S
H4567 C4576 0.930 . S
H4568 C4581 0.929 . S
H4569 C4579 0.929 . S
H4570 C4574 0.929 . S
H4571 C4580 0.929 . S
C4572 H4566 0.930 . S
C4572 C4573 1.367 . S
C4572 C4580 1.378 . S
C4573 C4572 1.367 . S
C4573 C4581 1.433 . S
C4574 H4570 0.929 . S
C4574 C4576 1.378 . S
C4574 C4578 1.350 . S
C4575 C4578 1.463 . S
C4575 C4580 1.350 . S
C4575 N4583 1.427 . S
C4576 H4567 0.930 . S
C4576 C4574 1.378 . S
C4576 C4577 1.367 . S
C4577 C4576 1.367 . S
C4577 C4579 1.433 . S
C4578 C4574 1.350 . S
C4578 C4575 1.463 . S
C4578 N4582 1.427 . S
C4579 H4569 0.929 . S
C4579 C4577 1.433 . S
C4579 N4582 1.384 . S
C4580 H4571 0.929 . S
C4580 C4572 1.378 . S
C4580 C4575 1.350 . S
C4581 H4568 0.929 . S
C4581 C4573 1.433 . S
C4581 N4583 1.384 . S
N4582 C4578 1.427 . S
N4582 C4579 1.384 . S
N4583 C4575 1.427 . S
N4583 C4581 1.384 . S
H4584 C4590 0.930 . S
H4585 C4594 0.930 . S
H4586 C4599 0.929 . S
H4587 C4597 0.929 . S
H4588 C4592 0.929 . S
H4589 C4598 0.929 . S
C4590 H4584 0.930 . S
C4590 C4591 1.367 . S
C4590 C4598 1.378 . S
C4591 C4590 1.367 . S
C4591 C4599 1.433 . S
C4592 H4588 0.929 . S
C4592 C4594 1.378 . S
C4592 C4596 1.350 . S
C4593 C4596 1.463 . S
C4593 C4598 1.350 . S
C4593 N4601 1.427 . S
C4594 H4585 0.930 . S
C4594 C4592 1.378 . S
C4594 C4595 1.367 . S
C4595 C4594 1.367 . S
C4595 C4597 1.433 . S
C4596 C4592 1.350 . S
C4596 C4593 1.463 . S
C4596 N4600 1.427 . S
C4597 H4587 0.929 . S
C4597 C4595 1.433 . S
C4597 N4600 1.384 . S
C4598 H4589 0.929 . S
C4598 C4590 1.378 . S
C4598 C4593 1.350 . S
C4599 H4586 0.929 . S
C4599 C4591 1.433 . S
C4599 N4601 1.384 . S
N4600 C4596 1.427 . S
N4600 C4597 1.384 . S
N4601 C4593 1.427 . S
N4601 C4599 1.384 . S
H4602 C4608 0.930 . S
H4603 C4612 0.930 . S
H4604 C4617 0.929 . S
H4605 C4615 0.929 . S
H4606 C4610 0.929 . S
H4607 C4616 0.929 . S
C4608 H4602 0.930 . S
C4608 C4609 1.367 . S
C4608 C4616 1.378 . S
C4609 C4608 1.367 . S
C4609 C4617 1.433 . S
C4610 H4606 0.929 . S
C4610 C4612 1.378 . S
C4610 C4614 1.350 . S
C4611 C4614 1.463 . S
C4611 C4616 1.350 . S
C4611 N4619 1.427 . S
C4612 H4603 0.930 . S
C4612 C4610 1.378 . S
C4612 C4613 1.367 . S
C4613 C4612 1.367 . S
C4613 C4615 1.433 . S
C4614 C4610 1.350 . S
C4614 C4611 1.463 . S
C4614 N4618 1.427 . S
C4615 H4605 0.929 . S
C4615 C4613 1.433 . S
C4615 N4618 1.384 . S
C4616 H4607 0.929 . S
C4616 C4608 1.378 . S
C4616 C4611 1.350 . S
C4617 H4604 0.929 . S
C4617 C4609 1.433 . S
C4617 N4619 1.384 . S
N4618 C4614 1.427 . S
N4618 C4615 1.384 . S
N4619 C4611 1.427 . S
N4619 C4617 1.384 . S
H4620 C4626 0.930 . S
H4621 C4630 0.930 . S
H4622 C4635 0.929 . S
H4623 C4633 0.929 . S
H4624 C4628 0.929 . S
H4625 C4634 0.929 . S
C4626 H4620 0.930 . S
C4626 C4627 1.367 . S
C4626 C4634 1.378 . S
C4627 C4626 1.367 . S
C4627 C4635 1.433 . S
C4628 H4624 0.929 . S
C4628 C4630 1.378 . S
C4628 C4632 1.350 . S
C4629 C4632 1.463 . S
C4629 C4634 1.350 . S
C4629 N4637 1.427 . S
C4630 H4621 0.930 . S
C4630 C4628 1.378 . S
C4630 C4631 1.367 . S
C4631 C4630 1.367 . S
C4631 C4633 1.433 . S
C4632 C4628 1.350 . S
C4632 C4629 1.463 . S
C4632 N4636 1.427 . S
C4633 H4623 0.929 . S
C4633 C4631 1.433 . S
C4633 N4636 1.384 . S
C4634 H4625 0.929 . S
C4634 C4626 1.378 . S
C4634 C4629 1.350 . S
C4635 H4622 0.929 . S
C4635 C4627 1.433 . S
C4635 N4637 1.384 . S
N4636 C4632 1.427 . S
N4636 C4633 1.384 . S
N4637 C4629 1.427 . S
N4637 C4635 1.384 . S
H4638 C4644 0.930 . S
H4639 C4648 0.930 . S
H4640 C4653 0.929 . S
H4641 C4651 0.929 . S
H4642 C4646 0.929 . S
H4643 C4652 0.929 . S
C4644 H4638 0.930 . S
C4644 C4645 1.367 . S
C4644 C4652 1.378 . S
C4645 C4644 1.367 . S
C4645 C4653 1.433 . S
C4646 H4642 0.929 . S
C4646 C4648 1.378 . S
C4646 C4650 1.350 . S
C4647 C4650 1.463 . S
C4647 C4652 1.350 . S
C4647 N4655 1.427 . S
C4648 H4639 0.930 . S
C4648 C4646 1.378 . S
C4648 C4649 1.367 . S
C4649 C4648 1.367 . S
C4649 C4651 1.433 . S
C4650 C4646 1.350 . S
C4650 C4647 1.463 . S
C4650 N4654 1.427 . S
C4651 H4641 0.929 . S
C4651 C4649 1.433 . S
C4651 N4654 1.384 . S
C4652 H4643 0.929 . S
C4652 C4644 1.378 . S
C4652 C4647 1.350 . S
C4653 H4640 0.929 . S
C4653 C4645 1.433 . S
C4653 N4655 1.384 . S
N4654 C4650 1.427 . S
N4654 C4651 1.384 . S
N4655 C4647 1.427 . S
N4655 C4653 1.384 . S
H4656 C4662 0.930 . S
H4657 C4666 0.930 . S
H4658 C4671 0.929 . S
H4659 C4669 0.929 . S
H4660 C4664 0.929 . S
H4661 C4670 0.929 . S
C4662 H4656 0.930 . S
C4662 C4663 1.367 . S
C4662 C4670 1.378 . S
C4663 C4662 1.367 . S
C4663 C4671 1.433 . S
C4664 H4660 0.929 . S
C4664 C4666 1.378 . S
C4664 C4668 1.350 . S
C4665 C4668 1.463 . S
C4665 C4670 1.350 . S
C4665 N4673 1.427 . S
C4666 H4657 0.930 . S
C4666 C4664 1.378 . S
C4666 C4667 1.367 . S
C4667 C4666 1.367 . S
C4667 C4669 1.433 . S
C4668 C4664 1.350 . S
C4668 C4665 1.463 . S
C4668 N4672 1.427 . S
C4669 H4659 0.929 . S
C4669 C4667 1.433 . S
C4669 N4672 1.384 . S
C4670 H4661 0.929 . S
C4670 C4662 1.378 . S
C4670 C4665 1.350 . S
C4671 H4658 0.929 . S
C4671 C4663 1.433 . S
C4671 N4673 1.384 . S
N4672 C4668 1.427 . S
N4672 C4669 1.384 . S
N4673 C4665 1.427 . S
N4673 C4671 1.384 . S
H4674 C4680 0.930 . S
H4675 C4684 0.930 . S
H4676 C4689 0.929 . S
H4677 C4687 0.929 . S
H4678 C4682 0.929 . S
H4679 C4688 0.929 . S
C4680 H4674 0.930 . S
C4680 C4681 1.367 . S
C4680 C4688 1.378 . S
C4681 C4680 1.367 . S
C4681 C4689 1.433 . S
C4682 H4678 0.929 . S
C4682 C4684 1.378 . S
C4682 C4686 1.350 . S
C4683 C4686 1.463 . S
C4683 C4688 1.350 . S
C4683 N4691 1.427 . S
C4684 H4675 0.930 . S
C4684 C4682 1.378 . S
C4684 C4685 1.367 . S
C4685 C4684 1.367 . S
C4685 C4687 1.433 . S
C4686 C4682 1.350 . S
C4686 C4683 1.463 . S
C4686 N4690 1.427 . S
C4687 H4677 0.929 . S
C4687 C4685 1.433 . S
C4687 N4690 1.384 . S
C4688 H4679 0.929 . S
C4688 C4680 1.378 . S
C4688 C4683 1.350 . S
C4689 H4676 0.929 . S
C4689 C4681 1.433 . S
C4689 N4691 1.384 . S
N4690 C4686 1.427 . S
N4690 C4687 1.384 . S
N4691 C4683 1.427 . S
N4691 C4689 1.384 . S
H4692 C4698 0.930 . S
H4693 C4702 0.930 . S
H4694 C4707 0.929 . S
H4695 C4705 0.929 . S
H4696 C4700 0.929 . S
H4697 C4706 0.929 . S
C4698 H4692 0.930 . S
C4698 C4699 1.367 . S
C4698 C4706 1.378 . S
C4699 C4698 1.367 . S
C4699 C4707 1.433 . S
C4700 H4696 0.929 . S
C4700 C4702 1.378 . S
C4700 C4704 1.350 . S
C4701 C4704 1.463 . S
C4701 C4706 1.350 . S
C4701 N4709 1.427 . S
C4702 H4693 0.930 . S
C4702 C4700 1.378 . S
C4702 C4703 1.367 . S
C4703 C4702 1.367 . S
C4703 C4705 1.433 . S
C4704 C4700 1.350 . S
C4704 C4701 1.463 . S
C4704 N4708 1.427 . S
C4705 H4695 0.929 . S
C4705 C4703 1.433 . S
C4705 N4708 1.384 . S
C4706 H4697 0.929 . S
C4706 C4698 1.378 . S
C4706 C4701 1.350 . S
C4707 H4694 0.929 . S
C4707 C4699 1.433 . S
C4707 N4709 1.384 . S
N4708 C4704 1.427 . S
N4708 C4705 1.384 . S
N4709 C4701 1.427 . S
N4709 C4707 1.384 . S
H4710 C4716 0.930 . S
H4711 C4720 0.930 . S
H4712 C4725 0.929 . S
H4713 C4723 0.929 . S
H4714 C4718 0.929 . S
H4715 C4724 0.929 . S
C4716 H4710 0.930 . S
C4716 C4717 1.367 . S
C4716 C4724 1.378 . S
C4717 C4716 1.367 . S
C4717 C4725 1.433 . S
C4718 H4714 0.929 . S
C4718 C4720 1.378 . S
C4718 C4722 1.350 . S
C4719 C4722 1.463 . S
C4719 C4724 1.350 . S
C4719 N4727 1.427 . S
C4720 H4711 0.930 . S
C4720 C4718 1.378 . S
C4720 C4721 1.367 . S
C4721 C4720 1.367 . S
C4721 C4723 1.433 . S
C4722 C4718 1.350 . S
C4722 C4719 1.463 . S
C4722 N4726 1.427 . S
C4723 H4713 0.929 . S
C4723 C4721 1.433 . S
C4723 N4726 1.384 . S
C4724 H4715 0.929 . S
C4724 C4716 1.378 . S
C4724 C4719 1.350 . S
C4725 H4712 0.929 . S
C4725 C4717 1.433 . S
C4725 N4727 1.384 . S
N4726 C4722 1.427 . S
N4726 C4723 1.384 . S
N4727 C4719 1.427 . S
N4727 C4725 1.384 . S
H4728 C4734 0.930 . S
H4729 C4738 0.930 . S
H4730 C4743 0.929 . S
H4731 C4741 0.929 . S
H4732 C4736 0.929 . S
H4733 C4742 0.929 . S
C4734 H4728 0.930 . S
C4734 C4735 1.367 . S
C4734 C4742 1.378 . S
C4735 C4734 1.367 . S
C4735 C4743 1.433 . S
C4736 H4732 0.929 . S
C4736 C4738 1.378 . S
C4736 C4740 1.350 . S
C4737 C4740 1.463 . S
C4737 C4742 1.350 . S
C4737 N4745 1.427 . S
C4738 H4729 0.930 . S
C4738 C4736 1.378 . S
C4738 C4739 1.367 . S
C4739 C4738 1.367 . S
C4739 C4741 1.433 . S
C4740 C4736 1.350 . S
C4740 C4737 1.463 . S
C4740 N4744 1.427 . S
C4741 H4731 0.929 . S
C4741 C4739 1.433 . S
C4741 N4744 1.384 . S
C4742 H4733 0.929 . S
C4742 C4734 1.378 . S
C4742 C4737 1.350 . S
C4743 H4730 0.929 . S
C4743 C4735 1.433 . S
C4743 N4745 1.384 . S
N4744 C4740 1.427 . S
N4744 C4741 1.384 . S
N4745 C4737 1.427 . S
N4745 C4743 1.384 . S
H4746 C4752 0.930 . S
H4747 C4756 0.930 . S
H4748 C4761 0.929 . S
H4749 C4759 0.929 . S
H4750 C4754 0.929 . S
H4751 C4760 0.929 . S
C4752 H4746 0.930 . S
C4752 C4753 1.367 . S
C4752 C4760 1.378 . S
C4753 C4752 1.367 . S
C4753 C4761 1.433 . S
C4754 H4750 0.929 . S
C4754 C4756 1.378 . S
C4754 C4758 1.350 . S
C4755 C4758 1.463 . S
C4755 C4760 1.350 . S
C4755 N4763 1.427 . S
C4756 H4747 0.930 . S
C4756 C4754 1.378 . S
C4756 C4757 1.367 . S
C4757 C4756 1.367 . S
C4757 C4759 1.433 . S
C4758 C4754 1.350 . S
C4758 C4755 1.463 . S
C4758 N4762 1.427 . S
C4759 H4749 0.929 . S
C4759 C4757 1.433 . S
C4759 N4762 1.384 . S
C4760 H4751 0.929 . S
C4760 C4752 1.378 . S
C4760 C4755 1.350 . S
C4761 H4748 0.929 . S
C4761 C4753 1.433 . S
C4761 N4763 1.384 . S
N4762 C4758 1.427 . S
N4762 C4759 1.384 . S
N4763 C4755 1.427 . S
N4763 C4761 1.384 . S
H4764 C4770 0.930 . S
H4765 C4774 0.930 . S
H4766 C4779 0.929 . S
H4767 C4777 0.929 . S
H4768 C4772 0.929 . S
H4769 C4778 0.929 . S
C4770 H4764 0.930 . S
C4770 C4771 1.367 . S
C4770 C4778 1.378 . S
C4771 C4770 1.367 . S
C4771 C4779 1.433 . S
C4772 H4768 0.929 . S
C4772 C4774 1.378 . S
C4772 C4776 1.350 . S
C4773 C4776 1.463 . S
C4773 C4778 1.350 . S
C4773 N4781 1.427 . S
C4774 H4765 0.930 . S
C4774 C4772 1.378 . S
C4774 C4775 1.367 . S
C4775 C4774 1.367 . S
C4775 C4777 1.433 . S
C4776 C4772 1.350 . S
C4776 C4773 1.463 . S
C4776 N4780 1.427 . S
C4777 H4767 0.929 . S
C4777 C4775 1.433 . S
C4777 N4780 1.384 . S
C4778 H4769 0.929 . S
C4778 C4770 1.378 . S
C4778 C4773 1.350 . S
C4779 H4766 0.929 . S
C4779 C4771 1.433 . S
C4779 N4781 1.384 . S
N4780 C4776 1.427 . S
N4780 C4777 1.384 . S
N4781 C4773 1.427 . S
N4781 C4779 1.384 . S
H4782 C4788 0.930 . S
H4783 C4792 0.930 . S
H4784 C4797 0.929 . S
H4785 C4795 0.929 . S
H4786 C4790 0.929 . S
H4787 C4796 0.929 . S
C4788 H4782 0.930 . S
C4788 C4789 1.367 . S
C4788 C4796 1.378 . S
C4789 C4788 1.367 . S
C4789 C4797 1.433 . S
C4790 H4786 0.929 . S
C4790 C4792 1.378 . S
C4790 C4794 1.350 . S
C4791 C4794 1.463 . S
C4791 C4796 1.350 . S
C4791 N4799 1.427 . S
C4792 H4783 0.930 . S
C4792 C4790 1.378 . S
C4792 C4793 1.367 . S
C4793 C4792 1.367 . S
C4793 C4795 1.433 . S
C4794 C4790 1.350 . S
C4794 C4791 1.463 . S
C4794 N4798 1.427 . S
C4795 H4785 0.929 . S
C4795 C4793 1.433 . S
C4795 N4798 1.384 . S
C4796 H4787 0.929 . S
C4796 C4788 1.378 . S
C4796 C4791 1.350 . S
C4797 H4784 0.929 . S
C4797 C4789 1.433 . S
C4797 N4799 1.384 . S
N4798 C4794 1.427 . S
N4798 C4795 1.384 . S
N4799 C4791 1.427 . S
N4799 C4797 1.384 . S
C1351 C1 1.492 . S
C1355 C127 1.492 . S
C1369 C141 1.493 . S
C1373 C15 1.494 . S
C1387 C41 1.496 . S
C1391 C154 1.497 . S
C1405 C43 1.493 . S
C1409 C124 1.494 . S
C1423 C57 1.488 . S
C1427 C211 1.487 . S
C1441 C180 1.495 . S
C1445 C83 1.494 . S
C1459 C97 1.496 . S
C1463 C195 1.496 . S
C1477 C197 1.495 . S
C1481 C98 1.496 . S
C1495 C264 1.492 . S
C1499 C225 1.490 . S
C1513 C239 1.487 . S
C1517 C992 1.489 . S
C1531 C1006 1.494 . S
C1535 C266 1.494 . S
C1549 C292 1.494 . S
C1553 C978 1.494 . S
C1567 C964 1.494 . S
C1571 C306 1.494 . S
C1585 C911 1.496 . S
C1589 C309 1.496 . S
C1603 C323 1.493 . S
C1607 C939 1.493 . S
C1621 C337 1.493 . S
C1625 C463 1.493 . S
C1639 C350 1.493 . S
C1643 C476 1.494 . S
C1657 C490 1.490 . S
C1661 C365 1.492 . S
C1675 C461 1.498 . S
C1679 C391 1.498 . S
C1693 C547 1.489 . S
C1697 C393 1.489 . S
C1711 C407 1.492 . S
C1715 C517 1.492 . S
C1729 C433 1.497 . S
C1733 C519 1.497 . S
C1747 C446 1.489 . S
C1751 C545 1.490 . S
C1765 C561 1.494 . S
C1769 C601 1.494 . S
C1783 C575 1.490 . S
C1787 C1329 1.490 . S
C1801 C1343 1.488 . S
C1805 C602 1.487 . S
C1819 C629 1.489 . S
C1823 C1303 1.489 . S
C1837 C631 1.494 . S
C1841 C1301 1.493 . S
C1855 C657 1.496 . S
C1859 C1258 1.495 . S
C1873 C671 1.497 . S
C1877 C1274 1.496 . S
C1891 C672 1.489 . S
C1895 C799 1.488 . S
C1909 C824 1.495 . S
C1913 C699 1.494 . S
C1927 C827 1.496 . S
C1931 C701 1.496 . S
C1945 C727 1.492 . S
C1949 C785 1.492 . S
C1963 C740 1.491 . S
C1967 C882 1.491 . S
C1981 C742 1.497 . S
C1985 C852 1.497 . S
C1999 C756 1.497 . S
C2003 C855 1.496 . S
C2017 C869 1.492 . S
C2021 C782 1.493 . S
C2035 C896 1.489 . S
C2039 C925 1.488 . S
C2053 C1008 1.489 . S
C2057 C1135 1.490 . S
C2071 C1035 1.492 . S
C2075 C1148 1.491 . S
C2089 C1162 1.497 . S
C2093 C1036 1.497 . S
C2107 C1133 1.498 . S
C2111 C1050 1.497 . S
C2125 C1076 1.493 . S
C2129 C1218 1.493 . S
C2143 C1189 1.491 . S
C2147 C1079 1.491 . S
C2161 C1203 1.491 . S
C2165 C1092 1.490 . S
C2179 C1217 1.489 . S
C2183 C1107 1.489 . S
C2197 C1245 1.490 . S
C2201 C1273 1.490 . S
C2215 C13 2.208 1_655 S
C2219 C280 2.208 . S
C2233 C27 2.198 . S
C2237 C923 2.201 . S
C2251 C937 2.203 . S
C2255 C29 2.199 . S
C2269 C951 2.199 1_554 S
C2273 C55 2.198 . S
C2287 C69 2.209 1_655 S
C2291 C994 2.212 . S
C2305 C294 2.212 . S
C2309 C71 2.209 . S
C2323 C85 2.208 . S
C2327 C980 2.208 . S
C2341 C110 2.210 . S
C2345 C237 2.202 1_556 S
C2359 C112 2.204 1_565 S
C2363 C223 2.198 . S
C2377 C168 2.204 1_545 S
C2381 C139 2.198 . S
C2395 C153 2.206 1_545 S
C2399 C183 2.209 . S
C2413 C166 2.213 . S
C2417 C209 2.208 1_565 S
C2431 C687 2.209 . S
C2435 C251 2.207 1_554 S
C2449 C713 2.209 1_455 S
C2453 C252 2.211 . S
C2467 C715 2.207 . S
C2471 C278 2.206 . S
C2485 C768 2.202 1_455 S
C2489 C321 2.199 . S
C2503 C335 2.206 . S
C2507 C728 2.213 . S
C2521 C349 2.205 1_455 S
C2525 C617 2.210 . S
C2539 C362 2.204 . S
C2543 C1246 2.200 . S
C2557 C1261 2.212 . S
C2561 C377 2.212 . S
C2575 C1286 2.205 1_556 S
C2579 C379 2.212 . S
C2593 C1331 2.203 . S
C2597 C405 2.202 1_455 S
C2611 C643 2.210 . S
C2615 C419 2.212 . S
C2629 C421 2.204 . S
C2633 C1317 2.208 . S
C2647 C434 2.208 . S
C2651 C573 2.207 1_554 S
C2665 C559 2.211 . S
C2669 C449 2.213 1_545 S
C2683 C475 2.210 . S
C2687 C505 2.206 1_565 S
C2701 C531 2.204 . S
C2705 C488 2.166 1_565 S
C2719 C502 2.208 . S
C2723 C533 2.212 1_545 S
C2737 C1023 2.209 . S
C2741 C587 2.205 1_556 S
C2755 C589 2.212 . S
C2759 C1048 2.209 1_655 S
C2773 C614 2.200 . S
C2777 C1062 2.204 . S
C2791 C645 2.212 . S
C2795 C1104 2.208 1_655 S
C2809 C659 2.212 . S
C2813 C1064 2.204 . S
C2827 C684 2.203 . S
C2831 C952 2.202 . S
C2845 C966 2.210 1_556 S
C2849 C754 2.213 . S
C2863 C770 2.212 . S
C2867 C908 2.213 . S
C2881 C894 2.202 . S
C2885 C797 2.198 . S
C2899 C840 2.212 . S
C2903 C811 2.208 . S
C2917 C812 2.212 . S
C2921 C867 2.208 . S
C2935 C839 2.208 . S
C2939 C881 2.208 . S
C2953 C1289 2.210 . S
C2957 C1020 2.209 . S
C2971 C1091 2.206 . S
C2975 C1315 2.202 1_554 S
C2989 C1233 2.207 . S
C2993 C1119 2.203 . S
C3007 C1121 2.211 . S
C3011 C1230 2.203 . S
C3025 C1177 2.202 . S
C3029 C1147 2.202 . S
C3043 C1160 2.207 . S
C3047 C1191 2.213 . S
C3061 C1205 2.202 . S
C3065 C1174 2.201 . S
C3079 C12 1.512 . S
C3083 C603 1.566 . S
C3097 C628 1.566 . S
C3101 C26 1.523 . S
C3115 C574 1.569 . S
C3119 C28 1.518 . S
C3133 C54 1.522 . S
C3137 C1272 1.566 . S
C3151 C68 1.526 . S
C3155 C1302 1.571 . S
C3169 C70 1.521 . S
C3173 C1328 1.570 . S
C3187 C1244 1.570 . S
C3191 C84 1.520 . S
C3205 C1342 1.569 . S
C3209 C111 1.524 . S
C3223 C364 1.567 . S
C3227 C113 1.510 . S
C3241 C138 1.526 . S
C3245 C1051 1.569 . S
C3259 C336 1.568 . S
C3263 C152 1.526 . S
C3277 C1034 1.564 . S
C3281 C167 1.512 . S
C3295 C432 1.569 . S
C3299 C169 1.514 . S
C3313 C182 1.526 . S
C3317 C1106 1.569 . S
C3331 C208 1.518 . S
C3335 C392 1.569 . S
C3349 C222 1.512 . S
C3353 C1078 1.564 . S
C3367 C236 1.520 . S
C3371 C1188 1.565 . S
C3385 C460 1.569 . S
C3389 C250 1.526 . S
C3403 C253 1.520 . S
C3407 C1134 1.571 . S
C3421 C279 1.514 . S
C3425 C477 1.569 . S
C3439 C281 1.514 . S
C3443 C491 1.568 . S
C3457 C295 1.518 . S
C3461 C1216 1.565 . S
C3475 C1219 1.564 . S
C3479 C320 1.515 . S
C3493 C1202 1.567 . S
C3497 C334 1.524 . S
C3511 C267 1.565 . S
C3515 C348 1.509 . S
C3529 C363 1.516 . S
C3533 C293 1.568 . S
C3547 C376 1.516 . S
C3551 C238 1.570 . S
C3565 C378 1.523 . S
C3569 C924 1.569 . S
C3583 C979 1.568 . S
C3587 C404 1.513 . S
C3601 C993 1.565 . S
C3605 C418 1.516 . S
C3619 C420 1.515 . S
C3623 C897 1.569 . S
C3637 C1007 1.570 . S
C3641 C435 1.519 . S
C3655 C448 1.524 . S
C3659 C40 1.570 . S
C3673 C726 1.564 . S
C3677 C474 1.509 . S
C3691 C489 1.527 . S
C3695 C0 1.570 . S
C3709 C698 1.566 . S
C3713 C503 1.522 . S
C3727 C504 1.522 . S
C3731 C96 1.568 . S
C3745 C783 1.564 . S
C3749 C530 1.509 . S
C3763 C56 1.564 . S
C3767 C532 1.510 . S
C3781 C743 1.567 . S
C3785 C558 1.511 . S
C3799 C572 1.516 . S
C3803 C853 1.570 . S
C3817 C586 1.510 . S
C3821 C125 1.566 . S
C3835 C798 1.565 . S
C3839 C588 1.516 . S
C3853 C615 1.512 . S
C3857 C140 1.565 . S
C3871 C155 1.568 . S
C3875 C616 1.512 . S
C3889 C868 1.566 . S
C3893 C642 1.520 . S
C3907 C883 1.564 . S
C3911 C644 1.513 . S
C3925 C854 1.568 . S
C3929 C658 1.512 . S
C3943 C685 1.515 . S
C3947 C1275 1.569 . S
C3961 C686 1.521 . S
C3965 C1300 1.570 . S
C3979 C712 1.512 . S
C3983 C1259 1.566 . S
C3997 C600 1.568 . S
C4001 C714 1.525 . S
C4015 C729 1.510 . S
C4019 C630 1.564 . S
C4033 C656 1.566 . S
C4037 C755 1.510 . S
C4051 C560 1.564 . S
C4055 C769 1.513 . S
C4069 C670 1.568 . S
C4073 C771 1.523 . S
C4087 C796 1.526 . S
C4091 C1037 1.571 . S
C4105 C390 1.564 . S
C4109 C810 1.514 . S
C4123 C813 1.523 . S
C4127 C1009 1.568 . S
C4141 C838 1.522 . S
C4145 C351 1.570 . S
C4159 C841 1.510 . S
C4163 C1093 1.567 . S
C4177 C866 1.514 . S
C4181 C447 1.564 . S
C4195 C1077 1.565 . S
C4199 C880 1.512 . S
C4213 C406 1.571 . S
C4217 C895 1.521 . S
C4231 C909 1.520 . S
C4235 C516 1.571 . S
C4249 C922 1.512 . S
C4253 C1132 1.566 . S
C4267 C936 1.521 . S
C4271 C462 1.570 . S
C4285 C1149 1.569 . S
C4289 C950 1.526 . S
C4303 C953 1.513 . S
C4307 C1163 1.568 . S
C4321 C967 1.520 . S
C4325 C544 1.567 . S
C4339 C546 1.564 . S
C4343 C981 1.510 . S
C4357 C995 1.521 . S
C4361 C518 1.567 . S
C4375 C1021 1.523 . S
C4379 C938 1.571 . S
C4393 C965 1.565 . S
C4397 C1022 1.517 . S
C4411 C910 1.567 . S
C4415 C1049 1.513 . S
C4429 C1063 1.512 . S
C4433 C265 1.564 . S
C4447 C1065 1.512 . S
C4451 C307 1.565 . S
C4465 C1090 1.523 . S
C4469 C308 1.569 . S
C4483 C224 1.571 . S
C4487 C1105 1.526 . S
C4501 C1118 1.509 . S
C4505 C322 1.565 . S
C4519 C1120 1.524 . S
C4523 C700 1.571 . S
C4537 C1146 1.514 . S
C4541 C42 1.564 . S
C4555 C1161 1.525 . S
C4559 C673 1.568 . S
C4573 C1175 1.512 . S
C4577 C14 1.564 . S
C4591 C1176 1.524 . S
C4595 C757 1.570 . S
C4609 C1190 1.509 . S
C4613 C99 1.565 . S
C4627 C1204 1.512 . S
C4631 C741 1.564 . S
C4645 C1231 1.512 . S
C4649 C82 1.565 . S
C4663 C1232 1.512 . S
C4667 C181 1.564 . S
C4681 C1247 1.519 . S
C4685 C784 1.565 . S
C4699 C1260 1.519 . S
C4703 C126 1.571 . S
C4717 C1287 1.513 . S
C4721 C825 1.567 . S
C4735 C1288 1.509 . S
C4739 C826 1.565 . S
C4753 C196 1.569 . S
C4757 C1314 1.515 . S
C4771 C1316 1.510 . S
C4775 C210 1.564 . S
C4789 C1330 1.510 . S
C4793 C194 1.564 . S
