# Generated by pormake.
# Topology zfg, (5)-cn, num edge types: 1
# Building blocks:
#     Node 0, Type 0, BuildingBlock: BEQFEK_clean_sbu_0, # of connection points: 5
#     Node 1, Type 0, BuildingBlock: BEQFEK_clean_sbu_0, # of connection points: 5
#     Node 2, Type 0, BuildingBlock: BEQFEK_clean_sbu_0, # of connection points: 5
#     Node 3, Type 0, BuildingBlock: BEQFEK_clean_sbu_0, # of connection points: 5
#     Node 4, Type 0, BuildingBlock: BEQFEK_clean_sbu_0, # of connection points: 5
#     Node 5, Type 0, BuildingBlock: BEQFEK_clean_sbu_0, # of connection points: 5
#     Node 6, Type 0, BuildingBlock: BEQFEK_clean_sbu_0, # of connection points: 5
#     Node 7, Type 0, BuildingBlock: BEQFEK_clean_sbu_0, # of connection points: 5
#     Node 8, Type 0, BuildingBlock: BEQFEK_clean_sbu_0, # of connection points: 5
#     Node 9, Type 0, BuildingBlock: BEQFEK_clean_sbu_0, # of connection points: 5
#     Node 10, Type 0, BuildingBlock: BEQFEK_clean_sbu_0, # of connection points: 5
#     Node 11, Type 0, BuildingBlock: BEQFEK_clean_sbu_0, # of connection points: 5
#     Node 12, Type 0, BuildingBlock: BEQFEK_clean_sbu_0, # of connection points: 5
#     Node 13, Type 0, BuildingBlock: BEQFEK_clean_sbu_0, # of connection points: 5
#     Node 14, Type 0, BuildingBlock: BEQFEK_clean_sbu_0, # of connection points: 5
#     Node 15, Type 0, BuildingBlock: BEQFEK_clean_sbu_0, # of connection points: 5
#     Edge 16, Type (0, 0), BuildingBlock: AJUNOK_clean_linker_0, # of connection points: 2
#     Edge 17, Type (0, 0), BuildingBlock: AJUNOK_clean_linker_0, # of connection points: 2
#     Edge 18, Type (0, 0), BuildingBlock: AJUNOK_clean_linker_0, # of connection points: 2
#     Edge 19, Type (0, 0), BuildingBlock: AJUNOK_clean_linker_0, # of connection points: 2
#     Edge 20, Type (0, 0), BuildingBlock: AJUNOK_clean_linker_0, # of connection points: 2
#     Edge 21, Type (0, 0), BuildingBlock: AJUNOK_clean_linker_0, # of connection points: 2
#     Edge 22, Type (0, 0), BuildingBlock: AJUNOK_clean_linker_0, # of connection points: 2
#     Edge 23, Type (0, 0), BuildingBlock: AJUNOK_clean_linker_0, # of connection points: 2
#     Edge 24, Type (0, 0), BuildingBlock: AJUNOK_clean_linker_0, # of connection points: 2
#     Edge 25, Type (0, 0), BuildingBlock: AJUNOK_clean_linker_0, # of connection points: 2
#     Edge 26, Type (0, 0), BuildingBlock: AJUNOK_clean_linker_0, # of connection points: 2
#     Edge 27, Type (0, 0), BuildingBlock: AJUNOK_clean_linker_0, # of connection points: 2
#     Edge 28, Type (0, 0), BuildingBlock: AJUNOK_clean_linker_0, # of connection points: 2
#     Edge 29, Type (0, 0), BuildingBlock: AJUNOK_clean_linker_0, # of connection points: 2
#     Edge 30, Type (0, 0), BuildingBlock: AJUNOK_clean_linker_0, # of connection points: 2
#     Edge 31, Type (0, 0), BuildingBlock: AJUNOK_clean_linker_0, # of connection points: 2
#     Edge 32, Type (0, 0), BuildingBlock: AJUNOK_clean_linker_0, # of connection points: 2
#     Edge 33, Type (0, 0), BuildingBlock: AJUNOK_clean_linker_0, # of connection points: 2
#     Edge 34, Type (0, 0), BuildingBlock: AJUNOK_clean_linker_0, # of connection points: 2
#     Edge 35, Type (0, 0), BuildingBlock: AJUNOK_clean_linker_0, # of connection points: 2
#     Edge 36, Type (0, 0), BuildingBlock: AJUNOK_clean_linker_0, # of connection points: 2
#     Edge 37, Type (0, 0), BuildingBlock: AJUNOK_clean_linker_0, # of connection points: 2
#     Edge 38, Type (0, 0), BuildingBlock: AJUNOK_clean_linker_0, # of connection points: 2
#     Edge 39, Type (0, 0), BuildingBlock: AJUNOK_clean_linker_0, # of connection points: 2
#     Edge 40, Type (0, 0), BuildingBlock: AJUNOK_clean_linker_0, # of connection points: 2
#     Edge 41, Type (0, 0), BuildingBlock: AJUNOK_clean_linker_0, # of connection points: 2
#     Edge 42, Type (0, 0), BuildingBlock: AJUNOK_clean_linker_0, # of connection points: 2
#     Edge 43, Type (0, 0), BuildingBlock: AJUNOK_clean_linker_0, # of connection points: 2
#     Edge 44, Type (0, 0), BuildingBlock: AJUNOK_clean_linker_0, # of connection points: 2
#     Edge 45, Type (0, 0), BuildingBlock: AJUNOK_clean_linker_0, # of connection points: 2
#     Edge 46, Type (0, 0), BuildingBlock: AJUNOK_clean_linker_0, # of connection points: 2
#     Edge 47, Type (0, 0), BuildingBlock: AJUNOK_clean_linker_0, # of connection points: 2
#     Edge 48, Type (0, 0), BuildingBlock: AJUNOK_clean_linker_0, # of connection points: 2
#     Edge 49, Type (0, 0), BuildingBlock: AJUNOK_clean_linker_0, # of connection points: 2
#     Edge 50, Type (0, 0), BuildingBlock: AJUNOK_clean_linker_0, # of connection points: 2
#     Edge 51, Type (0, 0), BuildingBlock: AJUNOK_clean_linker_0, # of connection points: 2
#     Edge 52, Type (0, 0), BuildingBlock: AJUNOK_clean_linker_0, # of connection points: 2
#     Edge 53, Type (0, 0), BuildingBlock: AJUNOK_clean_linker_0, # of connection points: 2
#     Edge 54, Type (0, 0), BuildingBlock: AJUNOK_clean_linker_0, # of connection points: 2
#     Edge 55, Type (0, 0), BuildingBlock: AJUNOK_clean_linker_0, # of connection points: 2
# Relax obj value: 0.053
# Max RMSD: 0.068
# Mean RMSD: 0.068
data_MOF--net-zfg--node1-BEQFEK_clean_sbu_0--edge1-AJUNOK_clean_linker_0
_symmetry_space_group_name_H-M    P1
_symmetry_Int_Tables_number       1
_symmetry_cell_setting            triclinic
loop_
_symmetry_equiv_pos_as_xyz
'x, y, z'
_cell_length_a     33.4128
_cell_length_b     33.307805
_cell_length_c     42.380515
_cell_angle_alpha  90.006155
_cell_angle_beta   89.97809
_cell_angle_gamma 90.022822
loop_
_atom_site_label
_atom_site_type_symbol
_atom_site_fract_x
_atom_site_fract_y
_atom_site_fract_z
_atom_type_partial_charge
Co0 Co 0.09684 0.21708 0.1451 0.0
Co1 Co 0.04242 0.29342 0.14289 0.0
C2 C 0.08839 0.26324 0.08558 0.0
O3 O 0.10442 0.23443 0.10079 0.0
O4 O 0.06435 0.28751 0.09918 0.0
C5 C 0.15951 0.15777 0.13869 0.0
O6 O 0.17422 0.18169 0.11693 0.0
C7 C 0.02664 0.38008 0.13621 0.0
C8 C 0.96909 0.38609 0.1615 0.0
C9 C 0.99839 0.40803 0.14608 0.0
N10 N 0.01491 0.34352 0.14603 0.0
N11 N 0.98026 0.3473 0.16079 0.0
C12 C 0.06327 0.38731 0.11665 0.0
H13 H 0.06469 0.36498 0.09732 0.0
H14 H 0.09033 0.38314 0.13146 0.0
H15 H 0.06332 0.4179 0.10629 0.0
C16 C 0.13622 0.26401 0.19609 0.0
N17 N 0.10789 0.25928 0.17375 0.0
N18 N 0.08413 0.29077 0.17377 0.0
C19 C 0.09612 0.3162 0.19669 0.0
C20 C 0.12995 0.30044 0.2113 0.0
C21 C 0.16928 0.23464 0.20183 0.0
H22 H 0.15676 0.20745 0.21331 0.0
H23 H 0.18248 0.22535 0.17896 0.0
H24 H 0.19305 0.24755 0.21703 0.0
O25 O 0.04145 0.19749 0.14968 0.0
O26 O 0.0019 0.2506 0.14956 0.0
H27 H 0.04101 0.34723 0.20554 0.0
H28 H 0.08187 0.36283 0.23048 0.0
C29 C 0.07363 0.35311 0.2063 0.0
H30 H 0.08058 0.37778 0.18965 0.0
H31 H 0.96466 0.32346 0.171 0.0
O32 O 0.12887 0.16866 0.15414 0.0
C33 C 0.00668 0.21276 0.15113 0.0
Co34 Co 0.78306 0.08947 0.14803 0.0
Co35 Co 0.69999 0.04641 0.14559 0.0
C36 C 0.73186 0.08724 0.08861 0.0
O37 O 0.76377 0.09665 0.10348 0.0
O38 O 0.70356 0.06834 0.1023 0.0
C39 C 0.86534 0.11024 0.14618 0.0
O40 O 0.86779 0.07389 0.13434 0.0
C41 C 0.61379 0.02602 0.14187 0.0
C42 C 0.61214 0.97349 0.17376 0.0
C43 C 0.58829 0.99774 0.1551 0.0
N44 N 0.65101 0.01884 0.15244 0.0
N45 N 0.64982 0.98714 0.17119 0.0
C46 C 0.60266 0.061 0.12158 0.0
H47 H 0.6266 0.08411 0.122 0.0
H48 H 0.57395 0.07424 0.12967 0.0
H49 H 0.59859 0.0505 0.09695 0.0
C50 C 0.74213 0.13273 0.20087 0.0
N51 N 0.7428 0.10498 0.17764 0.0
N52 N 0.70767 0.08719 0.1763 0.0
C53 C 0.68348 0.1032 0.19846 0.0
C54 C 0.70438 0.13277 0.21467 0.0
C55 C 0.77666 0.15942 0.20886 0.0
H56 H 0.78495 0.17734 0.18777 0.0
H57 H 0.7694 0.17999 0.22865 0.0
H58 H 0.8029 0.14068 0.21522 0.0
O59 O 0.79955 0.032 0.15388 0.0
O60 O 0.74013 0.00369 0.14957 0.0
H61 H 0.6414 0.05647 0.20848 0.0
H62 H 0.62865 0.10411 0.22595 0.0
C63 C 0.6416 0.0894 0.2048 0.0
H64 H 0.62262 0.09625 0.18404 0.0
H65 H 0.67465 0.97542 0.18291 0.0
O66 O 0.83114 0.12389 0.15371 0.0
C67 C 0.77772 1.00067 0.15289 0.0
Co68 Co 0.91581 0.78494 0.14737 0.0
Co69 Co 0.95157 0.6978 0.14249 0.0
C70 C 0.91165 0.73457 0.08711 0.0
O71 O 0.9057 0.7668 0.10281 0.0
O72 O 0.92848 0.70411 0.09966 0.0
C73 C 0.8521 0.84228 0.14559 0.0
O74 O 0.83288 0.81217 0.1325 0.0
C75 C 0.97067 0.61051 0.13507 0.0
C76 C 0.01136 0.6028 0.1757 0.0
C77 C 0.99353 0.58208 0.15111 0.0
N78 N 0.97462 0.64607 0.14988 0.0
N79 N 0.99938 0.6412 0.17387 0.0
C80 C 0.94742 0.60495 0.10526 0.0
H81 H 0.953 0.63076 0.08938 0.0
H82 H 0.91498 0.60425 0.11086 0.0
H83 H 0.95601 0.5769 0.09289 0.0
C84 C 0.87268 0.74622 0.20164 0.0
N85 N 0.8984 0.7454 0.17702 0.0
N86 N 0.91216 0.70858 0.17376 0.0
C87 C 0.89469 0.6847 0.19545 0.0
C88 C 0.86928 0.7077 0.21388 0.0
C89 C 0.8515 0.78299 0.21306 0.0
H90 H 0.82551 0.78897 0.19748 0.0
H91 H 0.8404 0.77895 0.23754 0.0
H92 H 0.87189 0.80924 0.21198 0.0
O93 O 0.9737 0.79594 0.1518 0.0
O94 O 0.99788 0.73464 0.14604 0.0
H95 H 0.87996 0.62588 0.21406 0.0
H96 H 0.90259 0.62622 0.1753 0.0
C97 C 0.90261 0.64068 0.19886 0.0
H98 H 0.93244 0.63634 0.20976 0.0
H99 H 0.00762 0.66413 0.18935 0.0
O100 O 0.88814 0.83715 0.15417 0.0
C101 C 0.00331 0.77209 0.14979 0.0
Co102 Co 0.2182 0.90864 0.14469 0.0
Co103 Co 0.30234 0.94903 0.1397 0.0
C104 C 0.2673 0.90815 0.08409 0.0
O105 O 0.23584 0.9 0.09996 0.0
O106 O 0.29685 0.92621 0.09682 0.0
C107 C 0.16249 0.84297 0.14129 0.0
O108 O 0.19155 0.82509 0.12584 0.0
C109 C 0.38945 0.96609 0.13616 0.0
C110 C 0.39211 0.01995 0.16664 0.0
C111 C 0.41552 0.99371 0.1494 0.0
N112 N 0.35214 0.97547 0.14545 0.0
N113 N 0.35396 0.00809 0.16317 0.0
C114 C 0.40012 0.92971 0.1173 0.0
H115 H 0.37448 0.90855 0.1162 0.0
H116 H 0.42659 0.9146 0.12776 0.0
H117 H 0.40818 0.9391 0.093 0.0
C118 C 0.25896 0.86658 0.19827 0.0
N119 N 0.2586 0.89282 0.17397 0.0
N120 N 0.29421 0.90947 0.17149 0.0
C121 C 0.31839 0.89409 0.19393 0.0
C122 C 0.297 0.86621 0.21146 0.0
C123 C 0.22379 0.84183 0.2082 0.0
H124 H 0.21851 0.81812 0.19031 0.0
H125 H 0.22892 0.82729 0.23139 0.0
H126 H 0.19667 0.86097 0.20937 0.0
O127 O 0.20388 0.96615 0.14979 0.0
O128 O 0.26369 0.9932 0.14346 0.0
H129 H 0.37334 0.89362 0.22125 0.0
H130 H 0.37934 0.89843 0.17911 0.0
C131 C 0.36065 0.90723 0.19956 0.0
H132 H 0.36171 0.94033 0.20194 0.0
H133 H 0.32921 0.02146 0.1739 0.0
O134 O 0.16804 0.87828 0.15171 0.0
C135 C 0.22629 0.9969 0.14767 0.0
Co136 Co 0.58414 0.28769 0.38853 0.0
Co137 Co 0.54635 0.20265 0.39187 0.0
C138 C 0.58517 0.2374 0.4486 0.0
O139 O 0.59319 0.26945 0.43327 0.0
O140 O 0.56753 0.20801 0.43524 0.0
C141 C 0.64748 0.34556 0.39225 0.0
O142 O 0.66682 0.31655 0.40671 0.0
C143 C 0.52887 0.1163 0.39862 0.0
C144 C 0.48465 0.10855 0.36022 0.0
C145 C 0.50543 0.08795 0.38333 0.0
N146 N 0.5228 0.1519 0.38459 0.0
N147 N 0.496 0.14716 0.36197 0.0
C148 C 0.5546 0.11065 0.42714 0.0
H149 H 0.54652 0.13343 0.44508 0.0
H150 H 0.58641 0.11552 0.42064 0.0
H151 H 0.55076 0.08037 0.43762 0.0
C152 C 0.62829 0.24892 0.33463 0.0
N153 N 0.60189 0.24841 0.35881 0.0
N154 N 0.58689 0.21203 0.36135 0.0
C155 C 0.60399 0.18807 0.33952 0.0
C156 C 0.63072 0.21057 0.32186 0.0
C157 C 0.65064 0.28536 0.32395 0.0
H158 H 0.63035 0.31171 0.32374 0.0
H159 H 0.67522 0.29157 0.34084 0.0
H160 H 0.66373 0.28088 0.30013 0.0
O161 O 0.52649 0.30048 0.38314 0.0
O162 O 0.50088 0.23968 0.38717 0.0
H163 H 0.56337 0.14185 0.32558 0.0
H164 H 0.61509 0.12987 0.3183 0.0
C165 C 0.59418 0.1446 0.33502 0.0
H166 H 0.59549 0.1289 0.35805 0.0
H167 H 0.48596 0.17027 0.34735 0.0
O168 O 0.61239 0.33898 0.3821 0.0
C169 C 0.4963 0.27723 0.38384 0.0
Co170 Co 0.71722 0.59187 0.38977 0.0
Co171 Co 0.79961 0.54839 0.39305 0.0
C172 C 0.76678 0.59017 0.44963 0.0
O173 O 0.7355 0.6002 0.43425 0.0
O174 O 0.79501 0.57061 0.43637 0.0
C175 C 0.65844 0.65509 0.39503 0.0
O176 O 0.68507 0.67321 0.41286 0.0
C177 C 0.88614 0.52992 0.39664 0.0
C178 C 0.88843 0.4765 0.36566 0.0
C179 C 0.91201 0.50209 0.38339 0.0
N180 N 0.84887 0.52128 0.38688 0.0
N181 N 0.85043 0.48897 0.3688 0.0
C182 C 0.89689 0.56583 0.41603 0.0
H183 H 0.87223 0.58815 0.41574 0.0
H184 H 0.92491 0.57969 0.40708 0.0
H185 H 0.90214 0.55619 0.44074 0.0
C186 C 0.75801 0.63387 0.33641 0.0
N187 N 0.75733 0.60695 0.3602 0.0
N188 N 0.79229 0.58886 0.36176 0.0
C189 C 0.8164 0.60389 0.3391 0.0
C190 C 0.79557 0.63299 0.32237 0.0
C191 C 0.72364 0.66053 0.32797 0.0
H192 H 0.69664 0.64194 0.32361 0.0
H193 H 0.71706 0.68068 0.34814 0.0
H194 H 0.73025 0.67906 0.30685 0.0
O195 O 0.70149 0.535 0.38473 0.0
O196 O 0.76006 0.50495 0.38883 0.0
H197 H 0.85773 0.5563 0.32975 0.0
H198 H 0.87062 0.60302 0.31088 0.0
C199 C 0.85797 0.58936 0.33257 0.0
H200 H 0.87749 0.59694 0.35285 0.0
H201 H 0.82563 0.47615 0.35775 0.0
O202 O 0.66715 0.62166 0.38249 0.0
C203 C 0.72238 0.50318 0.38552 0.0
Co204 Co 0.41106 0.71684 0.39012 0.0
Co205 Co 0.45153 0.80101 0.39259 0.0
C206 C 0.41082 0.76776 0.44944 0.0
O207 O 0.40193 0.73565 0.43454 0.0
O208 O 0.42954 0.79625 0.43584 0.0
C209 C 0.34625 0.6614 0.39399 0.0
O210 O 0.32826 0.69142 0.40825 0.0
C211 C 0.46765 0.88845 0.39628 0.0
C212 C 0.52282 0.89155 0.36756 0.0
C213 C 0.49653 0.91482 0.38494 0.0
N214 N 0.47674 0.85135 0.38603 0.0
N215 N 0.50975 0.85349 0.36895 0.0
C216 C 0.43276 0.8979 0.41714 0.0
H217 H 0.42137 0.8704 0.42857 0.0
H218 H 0.40805 0.91047 0.40279 0.0
H219 H 0.44134 0.92043 0.43523 0.0
C220 C 0.36919 0.75548 0.33534 0.0
N221 N 0.39506 0.75608 0.35983 0.0
N222 N 0.41182 0.7918 0.36137 0.0
C223 C 0.39684 0.8151 0.33819 0.0
C224 C 0.36922 0.793 0.3211 0.0
C225 C 0.34528 0.71963 0.32555 0.0
H226 H 0.36457 0.69253 0.32565 0.0
H227 H 0.32074 0.71487 0.34278 0.0
H228 H 0.33205 0.72382 0.30176 0.0
O229 O 0.46828 0.70262 0.38537 0.0
O230 O 0.49605 0.76261 0.38892 0.0
H231 H 0.44292 0.8577 0.3278 0.0
H232 H 0.39517 0.86964 0.31024 0.0
C233 C 0.41008 0.85716 0.33148 0.0
H234 H 0.40295 0.87641 0.35202 0.0
H235 H 0.52333 0.8289 0.3581 0.0
O236 O 0.38166 0.66621 0.3839 0.0
C237 C 0.4992 0.72483 0.38605 0.0
Co238 Co 0.28181 0.41444 0.38906 0.0
Co239 Co 0.19754 0.45454 0.39348 0.0
C240 C 0.23115 0.41205 0.44883 0.0
O241 O 0.2632 0.40463 0.43345 0.0
O242 O 0.20187 0.43037 0.43598 0.0
C243 C 0.33712 0.34831 0.39018 0.0
O244 O 0.307 0.32883 0.40295 0.0
C245 C 0.11083 0.47297 0.39724 0.0
C246 C 0.10847 0.52539 0.36524 0.0
C247 C 0.08494 0.5004 0.38354 0.0
N248 N 0.14807 0.48122 0.38717 0.0
N249 N 0.14645 0.51297 0.3685 0.0
C250 C 0.10005 0.43762 0.41726 0.0
H251 H 0.12452 0.4151 0.4171 0.0
H252 H 0.07182 0.42375 0.40877 0.0
H253 H 0.09518 0.44791 0.44187 0.0
C254 C 0.24209 0.37425 0.33378 0.0
N255 N 0.24202 0.39928 0.35889 0.0
N256 N 0.20654 0.41626 0.36108 0.0
C257 C 0.18306 0.40262 0.33754 0.0
C258 C 0.2047 0.37556 0.31956 0.0
C259 C 0.27764 0.35083 0.32283 0.0
H260 H 0.28193 0.32465 0.33864 0.0
H261 H 0.27345 0.33977 0.29834 0.0
H262 H 0.30489 0.36979 0.32409 0.0
O263 O 0.29612 0.47213 0.38502 0.0
O264 O 0.23612 0.49865 0.39091 0.0
H265 H 0.13981 0.44795 0.32696 0.0
H266 H 0.12673 0.39879 0.31227 0.0
C267 C 0.14065 0.41535 0.33216 0.0
H268 H 0.12297 0.40978 0.35383 0.0
H269 H 0.17122 0.52536 0.35708 0.0
O270 O 0.33236 0.38472 0.38219 0.0
C271 C 0.27353 0.50272 0.38728 0.0
Co272 Co 0.9076 0.78601 0.89024 0.0
Co273 Co 0.94786 0.70179 0.89386 0.0
C274 C 0.90788 0.73628 0.95039 0.0
O275 O 0.89943 0.76822 0.93508 0.0
O276 O 0.92601 0.70704 0.93721 0.0
C277 C 0.84434 0.84467 0.89375 0.0
O278 O 0.82471 0.81658 0.90908 0.0
C279 C 0.96629 0.6155 0.90078 0.0
C280 C 0.01257 0.60849 0.86386 0.0
C281 C 0.99099 0.58754 0.88632 0.0
N282 N 0.97253 0.65126 0.88702 0.0
N283 N 0.00055 0.64694 0.86525 0.0
C284 C 0.9395 0.60947 0.92863 0.0
H285 H 0.94897 0.63029 0.94761 0.0
H286 H 0.90828 0.61718 0.92209 0.0
H287 H 0.94097 0.57832 0.9378 0.0
C288 C 0.86422 0.74587 0.83693 0.0
N289 N 0.89088 0.74605 0.86088 0.0
N290 N 0.90713 0.71019 0.86319 0.0
C291 C 0.89064 0.68583 0.84134 0.0
C292 C 0.86291 0.70757 0.82398 0.0
C293 C 0.84017 0.78151 0.82696 0.0
H294 H 0.85976 0.80835 0.82555 0.0
H295 H 0.8168 0.78744 0.84495 0.0
H296 H 0.8254 0.77639 0.80385 0.0
O297 O 0.96462 0.79973 0.88454 0.0
O298 O 0.99266 0.74002 0.88909 0.0
H299 H 0.93383 0.64146 0.82857 0.0
H300 H 0.88332 0.62798 0.8184 0.0
C301 C 0.90223 0.64287 0.83643 0.0
H302 H 0.89961 0.62637 0.85905 0.0
H303 H 0.011 0.67021 0.85097 0.0
O304 O 0.87906 0.83705 0.88326 0.0
C305 C 0.99564 0.77772 0.88535 0.0
Co306 Co 0.21304 0.91256 0.8873 0.0
Co307 Co 0.29799 0.95057 0.89065 0.0
C308 C 0.26373 0.91041 0.94699 0.0
O309 O 0.23162 0.90268 0.93178 0.0
O310 O 0.29291 0.92837 0.93368 0.0
C311 C 0.15455 0.8493 0.89099 0.0
O312 O 0.18298 0.82965 0.90583 0.0
C313 C 0.38384 0.96897 0.89801 0.0
C314 C 0.39178 0.0132 0.85956 0.0
C315 C 0.41209 0.99285 0.88306 0.0
N316 N 0.34858 0.97442 0.88348 0.0
N317 N 0.35343 0.00122 0.86081 0.0
C318 C 0.38913 0.94372 0.92689 0.0
H319 H 0.3665 0.95262 0.94466 0.0
H320 H 0.38383 0.91173 0.92085 0.0
H321 H 0.41932 0.94742 0.93738 0.0
C322 C 0.25157 0.86897 0.83311 0.0
N323 N 0.25209 0.89538 0.85732 0.0
N324 N 0.28835 0.91047 0.85984 0.0
C325 C 0.31223 0.89342 0.83798 0.0
C326 C 0.28978 0.86665 0.8203 0.0
C327 C 0.21535 0.84616 0.82272 0.0
H328 H 0.2091 0.82201 0.84006 0.0
H329 H 0.21993 0.83233 0.79917 0.0
H330 H 0.18906 0.86646 0.82208 0.0
O331 O 0.20035 0.97055 0.88266 0.0
O332 O 0.26102 0.99612 0.8867 0.0
H333 H 0.35823 0.93427 0.82408 0.0
H334 H 0.37039 0.88248 0.81685 0.0
C335 C 0.35556 0.90337 0.83354 0.0
H336 H 0.37115 0.90214 0.8566 0.0
H337 H 0.33055 0.01094 0.84589 0.0
O338 O 0.16176 0.88433 0.88069 0.0
C339 C 0.22357 1.00079 0.88364 0.0
Co340 Co 0.08795 0.2166 0.8884 0.0
Co341 Co 0.04753 0.30104 0.8919 0.0
C342 C 0.08769 0.26654 0.94833 0.0
O343 O 0.09687 0.23487 0.93296 0.0
O344 O 0.06906 0.29533 0.93507 0.0
C345 C 0.15285 0.16037 0.89139 0.0
O346 O 0.17146 0.18989 0.90579 0.0
C347 C 0.02866 0.38786 0.89862 0.0
C348 C 0.97872 0.39241 0.86458 0.0
C349 C 0.00135 0.41462 0.88562 0.0
N350 N 0.02239 0.35155 0.88563 0.0
N351 N 0.99234 0.35452 0.86551 0.0
C352 C 0.05917 0.39616 0.92364 0.0
H353 H 0.06183 0.37014 0.93973 0.0
H354 H 0.08874 0.40105 0.91237 0.0
H355 H 0.0511 0.42318 0.93757 0.0
C356 C 0.13021 0.25651 0.83434 0.0
N357 N 0.10405 0.2565 0.85867 0.0
N358 N 0.08773 0.29235 0.86092 0.0
C359 C 0.10348 0.31643 0.83856 0.0
C360 C 0.13092 0.2946 0.82102 0.0
C361 C 0.15423 0.22088 0.82426 0.0
H362 H 0.13489 0.1938 0.82372 0.0
H363 H 0.17843 0.21566 0.84168 0.0
H364 H 0.168 0.22562 0.80072 0.0
O365 O 0.0306 0.20268 0.88362 0.0
O366 O 0.00302 0.26271 0.88759 0.0
H367 H 0.0591 0.35999 0.8266 0.0
H368 H 0.10893 0.37352 0.81423 0.0
C369 C 0.09118 0.35909 0.83322 0.0
H370 H 0.09496 0.37633 0.85539 0.0
H371 H 0.98131 0.33062 0.85217 0.0
O372 O 0.11732 0.1658 0.8817 0.0
C373 C -0.00027 0.22496 0.88446 0.0
Co374 Co 0.78091 0.09266 0.89166 0.0
Co375 Co 0.69741 0.05106 0.89401 0.0
C376 C 0.731 0.09084 0.95139 0.0
O377 O 0.76271 0.10086 0.93645 0.0
O378 O 0.70278 0.07201 0.93758 0.0
C379 C 0.84005 0.15608 0.89487 0.0
O380 O 0.81266 0.17619 0.91054 0.0
C381 C 0.61034 0.03385 0.89802 0.0
C382 C 0.60784 0.97886 0.86884 0.0
C383 C 0.58439 0.00465 0.88655 0.0
N384 N 0.64738 0.0254 0.88753 0.0
N385 N 0.64558 0.99248 0.87018 0.0
C386 C 0.60058 0.06841 0.9192 0.0
H387 H 0.62793 0.08 0.93067 0.0
H388 H 0.58765 0.09323 0.90509 0.0
H389 H 0.5783 0.05926 0.93727 0.0
C390 C 0.74154 0.13521 0.83751 0.0
N391 N 0.74133 0.1089 0.86177 0.0
N392 N 0.70591 0.09168 0.86325 0.0
C393 C 0.68242 0.10679 0.84027 0.0
C394 C 0.70407 0.13498 0.82332 0.0
C395 C 0.77699 0.1598 0.82799 0.0
H396 H 0.80382 0.14029 0.82635 0.0
H397 H 0.78276 0.18278 0.84637 0.0
H398 H 0.77193 0.1751 0.80507 0.0
O399 O 0.79526 0.03536 0.88634 0.0
O400 O 0.73583 0.00674 0.88933 0.0
H401 H 0.64065 0.06002 0.82967 0.0
H402 H 0.62802 0.10785 0.81233 0.0
C403 C 0.64068 0.09294 0.8335 0.0
H404 H 0.6214 0.09961 0.85409 0.0
H405 H 0.6702 0.97936 0.85909 0.0
O406 O 0.83177 0.12133 0.88456 0.0
C407 C 0.77352 0.00407 0.88647 0.0
Co408 Co 0.41245 0.7169 0.64565 0.0
Co409 Co 0.45175 0.8017 0.64281 0.0
C410 C 0.4111 0.76825 0.58637 0.0
O411 O 0.40314 0.73588 0.60129 0.0
O412 O 0.42919 0.79727 0.59987 0.0
C413 C 0.34894 0.65864 0.64119 0.0
O414 O 0.33001 0.68698 0.62564 0.0
C415 C 0.46902 0.88873 0.63842 0.0
C416 C 0.52154 0.89243 0.67007 0.0
C417 C 0.49671 0.91525 0.65113 0.0
N418 N 0.47738 0.8518 0.64933 0.0
N419 N 0.50906 0.85421 0.6679 0.0
C420 C 0.43349 0.89853 0.61842 0.0
H421 H 0.4102 0.87495 0.62083 0.0
H422 H 0.42101 0.92827 0.62497 0.0
H423 H 0.44295 0.89978 0.59336 0.0
C424 C 0.36896 0.75584 0.69952 0.0
N425 N 0.39596 0.75622 0.67578 0.0
N426 N 0.41214 0.79219 0.67407 0.0
C427 C 0.39568 0.81591 0.69634 0.0
C428 C 0.36761 0.79378 0.71308 0.0
C429 C 0.34411 0.72021 0.70833 0.0
H430 H 0.36332 0.69311 0.70967 0.0
H431 H 0.3213 0.71512 0.68975 0.0
H432 H 0.32862 0.72481 0.7312 0.0
O433 O 0.47 0.70305 0.6502 0.0
O434 O 0.49625 0.76355 0.64602 0.0
H435 H 0.44036 0.86031 0.70583 0.0
H436 H 0.39235 0.8713 0.72321 0.0
C437 C 0.40756 0.8586 0.70219 0.0
H438 H 0.3999 0.87696 0.68124 0.0
H439 H 0.52164 0.8298 0.67971 0.0
O440 O 0.38355 0.66585 0.65213 0.0
C441 C 0.50043 0.72592 0.64893 0.0
Co442 Co 0.28255 0.41176 0.64518 0.0
Co443 Co 0.19921 0.45321 0.64183 0.0
C444 C 0.23207 0.41112 0.58553 0.0
O445 O 0.26394 0.40242 0.60073 0.0
O446 O 0.20349 0.43029 0.59867 0.0
C447 C 0.34113 0.34823 0.64194 0.0
O448 O 0.31346 0.32843 0.62634 0.0
C449 C 0.11339 0.47226 0.63575 0.0
C450 C 0.10717 0.5189 0.67259 0.0
C451 C 0.08585 0.49708 0.6505 0.0
N452 N 0.1493 0.4786 0.64901 0.0
N453 N 0.14547 0.50685 0.67071 0.0
C454 C 0.10683 0.44532 0.60804 0.0
H455 H 0.12635 0.45568 0.58854 0.0
H456 H 0.11583 0.41423 0.61421 0.0
H457 H 0.07536 0.4459 0.59976 0.0
C458 C 0.24275 0.36954 0.69918 0.0
N459 N 0.24305 0.39615 0.67513 0.0
N460 N 0.20749 0.41287 0.67294 0.0
C461 C 0.1832 0.39675 0.69498 0.0
C462 C 0.20469 0.36882 0.71234 0.0
C463 C 0.27796 0.34476 0.70887 0.0
H464 H 0.30501 0.36399 0.71028 0.0
H465 H 0.2834 0.3214 0.69072 0.0
H466 H 0.27275 0.32985 0.73193 0.0
O467 O 0.29698 0.46893 0.6498 0.0
O468 O 0.2378 0.49782 0.64562 0.0
H469 H 0.13901 0.44026 0.7075 0.0
H470 H 0.12553 0.38969 0.71798 0.0
C471 C 0.14039 0.40848 0.69983 0.0
H472 H 0.12393 0.40562 0.67723 0.0
H473 H 0.16896 0.51735 0.68468 0.0
O474 O 0.33324 0.383 0.65238 0.0
C475 C 0.27548 0.50034 0.64886 0.0
Co476 Co 0.5885 0.28557 0.64626 0.0
Co477 Co 0.54733 0.20178 0.64248 0.0
C478 C 0.58747 0.23582 0.58599 0.0
O479 O 0.59655 0.26739 0.60153 0.0
O480 O 0.5691 0.20673 0.5992 0.0
C481 C 0.65402 0.34124 0.64307 0.0
O482 O 0.67241 0.3117 0.62853 0.0
C483 C 0.5289 0.11511 0.63751 0.0
C484 C 0.47706 0.11154 0.6699 0.0
C485 C 0.50139 0.08866 0.65057 0.0
N486 N 0.52097 0.15202 0.64866 0.0
N487 N 0.48965 0.14971 0.66763 0.0
C488 C 0.56398 0.10536 0.61696 0.0
H489 H 0.58807 0.12793 0.62026 0.0
H490 H 0.57547 0.0748 0.62217 0.0
H491 H 0.55443 0.10634 0.5919 0.0
C492 C 0.63055 0.24514 0.70013 0.0
N493 N 0.60434 0.24541 0.67587 0.0
N494 N 0.58757 0.20975 0.67365 0.0
C495 C 0.60304 0.18555 0.69607 0.0
C496 C 0.63088 0.20708 0.71348 0.0
C497 C 0.65504 0.28051 0.71012 0.0
H498 H 0.6794 0.28527 0.69274 0.0
H499 H 0.6686 0.27575 0.73372 0.0
H500 H 0.6361 0.30785 0.71051 0.0
O501 O 0.53153 0.30042 0.65162 0.0
O502 O 0.50346 0.24076 0.64678 0.0
H503 H 0.60571 0.12957 0.72219 0.0
H504 H 0.59659 0.12494 0.68035 0.0
C505 C 0.59015 0.1431 0.70166 0.0
H506 H 0.55745 0.14227 0.70599 0.0
H507 H 0.47753 0.17412 0.67975 0.0
O508 O 0.61852 0.33595 0.65286 0.0
C509 C 0.50047 0.27844 0.65044 0.0
Co510 Co 0.71477 0.58877 0.64646 0.0
Co511 Co 0.79986 0.55064 0.6437 0.0
C512 C 0.76567 0.5898 0.58688 0.0
O513 O 0.73353 0.59784 0.60193 0.0
O514 O 0.79476 0.57214 0.60048 0.0
C515 C 0.65868 0.653 0.64181 0.0
O516 O 0.6884 0.67083 0.62711 0.0
C517 C 0.88663 0.53269 0.63814 0.0
C518 C 0.89115 0.48329 0.67282 0.0
C519 C 0.91338 0.5059 0.65177 0.0
N520 N 0.85031 0.52619 0.6508 0.0
N521 N 0.85325 0.49647 0.67132 0.0
C522 C 0.89497 0.56288 0.61281 0.0
H523 H 0.86926 0.56497 0.59648 0.0
H524 H 0.8994 0.59281 0.62376 0.0
H525 H 0.92218 0.55479 0.59921 0.0
C526 C 0.75279 0.6323 0.70087 0.0
N527 N 0.75373 0.6061 0.67653 0.0
N528 N 0.78992 0.59072 0.67452 0.0
C529 C 0.81327 0.60712 0.69702 0.0
C530 C 0.79061 0.63402 0.71445 0.0
C531 C 0.71653 0.65544 0.71071 0.0
H532 H 0.71078 0.67945 0.69316 0.0
H533 H 0.72068 0.66951 0.73421 0.0
H534 H 0.69009 0.63529 0.71118 0.0
O535 O 0.70178 0.53094 0.6515 0.0
O536 O 0.76248 0.50536 0.64769 0.0
H537 H 0.86991 0.61428 0.72148 0.0
H538 H 0.87326 0.59959 0.68048 0.0
C539 C 0.85603 0.59584 0.70264 0.0
H540 H 0.85758 0.56382 0.70966 0.0
H541 H 0.82932 0.48536 0.68451 0.0
O542 O 0.6638 0.61777 0.65245 0.0
C543 C 0.72501 0.50071 0.65067 0.0
C544 C 0.07596 0.29875 1.00096 0.0
C545 C 0.09434 0.26821 0.98309 0.0
C546 C 0.07596 0.29787 0.034 0.0
C547 C 0.0945 0.26651 0.05081 0.0
H548 H 0.05975 0.32278 0.98943 0.0
H549 H 0.05989 0.32132 0.04636 0.0
S550 S 0.15215 0.18229 1.01542 0.0
N551 N 0.13546 0.20794 0.98482 0.0
N552 N 0.13561 0.20631 0.0469 0.0
C553 C 0.11541 0.23721 0.03331 0.0
C554 C 0.11528 0.23804 0.99953 0.0
C555 C 0.76401 0.10482 1.00353 0.0
C556 C 0.72889 0.09678 0.98625 0.0
C557 C 0.76425 0.1038 0.03666 0.0
C558 C 0.72938 0.09471 0.05397 0.0
H559 H 0.7921 0.11004 0.99144 0.0
H560 H 0.79251 0.10832 0.04867 0.0
S561 S 0.62801 0.07834 0.02034 0.0
N562 N 0.65718 0.08445 0.98929 0.0
N563 N 0.65764 0.08263 0.0513 0.0
C564 C 0.69347 0.08949 0.03707 0.0
C565 C 0.69323 0.0905 1.00334 0.0
C566 C 0.90142 0.77105 1.00257 0.0
C567 C 0.90112 0.73511 0.98506 0.0
C568 C 0.90242 0.77062 0.03568 0.0
C569 C 0.90317 0.73424 0.05264 0.0
H570 H 0.90314 0.79977 0.99065 0.0
H571 H 0.90483 0.79905 0.04795 0.0
S572 S 0.8939 0.6322 0.01815 0.0
N573 N 0.89524 0.66245 0.9873 0.0
N574 N 0.89719 0.66159 0.04941 0.0
C575 C 0.89957 0.69824 0.03547 0.0
C576 C 0.89853 0.69869 1.00175 0.0
C577 C 0.3004 0.91391 0.99853 0.0
C578 C 0.26595 0.90243 0.9816 0.0
C579 C 0.30132 0.91328 0.03156 0.0
C580 C 0.26785 0.90109 0.04933 0.0
H581 H 0.32653 0.92515 0.98632 0.0
H582 H 0.32808 0.92417 0.04318 0.0
S583 S 0.17242 0.86154 1.01659 0.0
N584 N 0.1991 0.87366 0.98522 0.0
N585 N 0.20082 0.87238 0.0473 0.0
C586 C 0.23424 0.88652 0.03274 0.0
C587 C 0.23329 0.88721 0.99895 0.0
C588 C 0.57927 0.20192 0.50063 0.0
C589 C 0.59255 0.23552 0.48334 0.0
C590 C 0.57995 0.20146 0.53368 0.0
C591 C 0.59394 0.2346 0.55114 0.0
H592 H 0.56663 0.17617 0.48869 0.0
H593 H 0.56776 0.17539 0.54558 0.0
S594 S 0.63801 0.32771 0.51741 0.0
N595 N 0.62454 0.30112 0.48631 0.0
N596 N 0.62582 0.30029 0.5484 0.0
C597 C 0.61 0.26732 0.53419 0.0
C598 C 0.60929 0.26778 0.50038 0.0
C599 C 0.80099 0.58187 0.50186 0.0
C600 C 0.76852 0.59711 0.48439 0.0
C601 C 0.80067 0.58174 0.53492 0.0
C602 C 0.76787 0.59682 0.55215 0.0
H603 H 0.82631 0.56827 0.49 0.0
H604 H 0.82575 0.56799 0.54693 0.0
S605 S 0.67805 0.64613 0.51796 0.0
N606 N 0.70461 0.63215 0.48701 0.0
N607 N 0.70406 0.63187 0.54911 0.0
C608 C 0.73645 0.61481 0.53506 0.0
C609 C 0.73677 0.61498 0.50127 0.0
C610 C 0.39617 0.73487 0.53457 0.0
C611 C 0.40361 0.7703 0.55177 0.0
C612 C 0.39613 0.73477 0.50144 0.0
C613 C 0.40357 0.77008 0.4841 0.0
H614 H 0.39238 0.70648 0.54667 0.0
H615 H 0.39229 0.70631 0.48945 0.0
S616 S 0.41709 0.87221 0.51777 0.0
N617 N 0.41297 0.84265 0.54884 0.0
N618 N 0.41304 0.84244 0.48682 0.0
C619 C 0.40791 0.80624 0.50102 0.0
C620 C 0.40789 0.80635 0.53474 0.0
C621 C 0.2661 0.39995 0.53354 0.0
C622 C 0.23035 0.40338 0.55096 0.0
C623 C 0.26588 0.40019 0.50042 0.0
C624 C 0.22991 0.40395 0.48334 0.0
H625 H 0.29475 0.39935 0.54549 0.0
H626 H 0.29438 0.3997 0.48824 0.0
S627 S 0.12763 0.40502 0.51758 0.0
N628 N 0.15766 0.40391 0.54849 0.0
N629 N 0.15723 0.40511 0.48638 0.0
C630 C 0.19378 0.40408 0.50043 0.0
C631 C 0.19401 0.40359 0.53416 0.0
C632 C 0.23177 0.07023 0.13603 0.0
C633 C 0.20894 0.03792 0.14783 0.0
C634 C 0.21575 0.10893 0.13365 0.0
C635 C 0.17645 0.11714 0.14343 0.0
H636 H 0.26208 0.06553 0.12774 0.0
H637 H 0.23428 0.13253 0.12383 0.0
S638 S 0.1045 0.04373 0.17732 0.0
N639 N 0.1452 0.01712 0.17025 0.0
N640 N 0.11518 0.09001 0.16619 0.0
C641 C 0.15355 0.08545 0.15612 0.0
C642 C 0.16974 0.04583 0.15817 0.0
C643 C 0.89833 0.17728 0.15331 0.0
C644 C 0.90174 0.13543 0.14956 0.0
C645 C 0.93235 0.20196 0.15457 0.0
C646 C 0.9712 0.18575 0.15245 0.0
H647 H 0.86912 0.19131 0.15449 0.0
H648 H 0.92803 0.23407 0.1567 0.0
S649 S 0.99642 0.07731 0.14529 0.0
N650 N 0.94707 0.07852 0.1457 0.0
N651 N 0.01088 0.12452 0.1483 0.0
C652 C 0.97498 0.14367 0.14989 0.0
C653 C 0.94033 0.11864 0.14836 0.0
C654 C 0.83786 0.95511 0.15524 0.0
C655 C 0.79602 0.95981 0.15351 0.0
C656 C 0.8557 0.91697 0.15342 0.0
C657 C 0.83249 0.882 0.1495 0.0
H658 H 0.85714 0.98112 0.15745 0.0
H659 H 0.88805 0.91505 0.15429 0.0
S660 S 0.72161 0.87705 0.14626 0.0
N661 N 0.73176 0.92532 0.14961 0.0
N662 N 0.7654 0.85422 0.14599 0.0
C663 C 0.79066 0.88606 0.14867 0.0
C664 C 0.77243 0.92476 0.15075 0.0
C665 C 0.08944 0.84652 0.15393 0.0
C666 C 0.12293 0.82334 0.14528 0.0
C667 C 0.05118 0.82952 0.15603 0.0
C668 C 0.04475 0.78849 0.14984 0.0
H669 H 0.09253 0.87839 0.15841 0.0
H670 H 0.02637 0.84897 0.16212 0.0
S671 S 0.12312 0.71391 0.12866 0.0
N672 N 0.14759 0.75673 0.13213 0.0
N673 N 0.07586 0.72458 0.13627 0.0
C674 C 0.07827 0.76462 0.14222 0.0
C675 C 0.11725 0.78208 0.13985 0.0
C676 C 0.72495 0.42877 0.39301 0.0
C677 C 0.70275 0.4632 0.38482 0.0
C678 C 0.70691 0.39093 0.39496 0.0
C679 C 0.66598 0.38575 0.38852 0.0
H680 H 0.75647 0.43105 0.3987 0.0
H681 H 0.72526 0.36559 0.40183 0.0
S682 S 0.59472 0.46574 0.36436 0.0
N683 N 0.63776 0.48932 0.36904 0.0
N684 N 0.60385 0.41816 0.37249 0.0
C685 C 0.64355 0.41969 0.37943 0.0
C686 C 0.6619 0.45837 0.37766 0.0
C687 C 0.57276 0.72968 0.39605 0.0
C688 C 0.53976 0.7067 0.38589 0.0
C689 C 0.61102 0.71288 0.39855 0.0
C690 C 0.61803 0.67254 0.39062 0.0
H691 H 0.56897 0.76077 0.40293 0.0
H692 H 0.63522 0.73168 0.407 0.0
S693 S 0.54234 0.59982 0.36113 0.0
N694 N 0.51698 0.64173 0.36674 0.0
N695 N 0.58895 0.61018 0.37112 0.0
C696 C 0.58557 0.64943 0.37954 0.0
C697 C 0.54646 0.66647 0.37729 0.0
C698 C 0.33217 0.5493 0.3823 0.0
C699 C 0.2909 0.54381 0.38722 0.0
C700 C 0.34958 0.58751 0.3839 0.0
C701 C 0.3265 0.6218 0.39076 0.0
H702 H 0.35141 0.52384 0.37752 0.0
H703 H 0.3816 0.58999 0.38038 0.0
S704 S 0.2167 0.6245 0.40367 0.0
N705 N 0.22699 0.57664 0.39781 0.0
N706 N 0.25994 0.64818 0.40096 0.0
C707 C 0.28509 0.617 0.39503 0.0
C708 C 0.26724 0.57813 0.3932 0.0
C709 C 0.41116 0.35296 0.38195 0.0
C710 C 0.37687 0.32903 0.38648 0.0
C711 C 0.44945 0.33592 0.38033 0.0
C712 C 0.4551 0.29417 0.38291 0.0
H713 H 0.40861 0.38532 0.38043 0.0
H714 H 0.47486 0.35583 0.3776 0.0
S715 S 0.37453 0.21786 0.39202 0.0
N716 N 0.3507 0.26124 0.39151 0.0
N717 N 0.42241 0.22901 0.38822 0.0
C718 C 0.42081 0.26973 0.38626 0.0
C719 C 0.38182 0.28719 0.38813 0.0
C720 C 0.78598 0.89143 0.89587 0.0
C721 C 0.82682 0.88523 0.88967 0.0
C722 C 0.76893 0.92972 0.89377 0.0
C723 C 0.79209 0.96358 0.8857 0.0
H724 H 0.76694 0.86657 0.90269 0.0
H725 H 0.73743 0.93279 0.89932 0.0
S726 S 0.90033 0.96338 0.86578 0.0
N727 N 0.8899 0.91605 0.8739 0.0
N728 N 0.85787 0.98804 0.87022 0.0
C729 C 0.83285 0.95771 0.87872 0.0
C730 C 0.85019 0.91858 0.88062 0.0
C731 C 0.1079 0.7908 0.89488 0.0
C732 C 0.11413 0.83142 0.8873 0.0
C733 C 0.06974 0.77353 0.89322 0.0
C734 C 0.03606 0.79623 0.88418 0.0
H735 H 0.13261 0.77214 0.9025 0.0
H736 H 0.06659 0.74228 0.89986 0.0
S737 S 0.03642 0.90352 0.86032 0.0
N738 N 0.08352 0.89363 0.86908 0.0
N739 N 0.01182 0.8612 0.86618 0.0
C740 C 0.04198 0.83669 0.87579 0.0
C741 C 0.08096 0.85424 0.87727 0.0
C742 C 0.16529 0.04802 0.87971 0.0
C743 C 0.20676 0.04216 0.8833 0.0
C744 C 0.14834 0.08642 0.88165 0.0
C745 C 0.17206 0.12056 0.88756 0.0
H746 H 0.14554 0.0227 0.87585 0.0
H747 H 0.11618 0.08916 0.87926 0.0
S748 S 0.28252 0.12238 0.89641 0.0
N749 N 0.27149 0.07454 0.89124 0.0
N750 N 0.23938 0.14643 0.89516 0.0
C751 C 0.21364 0.11541 0.89035 0.0
C752 C 0.23103 0.07634 0.88811 0.0
C753 C 0.88762 0.21396 0.89631 0.0
C754 C 0.88061 0.17314 0.89005 0.0
C755 C 0.92595 0.23055 0.8934 0.0
C756 C 0.95906 0.20693 0.88443 0.0
H757 H 0.86338 0.23334 0.9038 0.0
H758 H 0.92968 0.26205 0.89905 0.0
S759 S 0.9565 0.09856 0.86395 0.0
N760 N 0.90981 0.1096 0.87323 0.0
N761 N 0.98187 0.14076 0.86804 0.0
C762 C 0.95234 0.16619 0.87739 0.0
C763 C 0.91316 0.14933 0.88011 0.0
C764 C 0.29004 0.61253 0.6378 0.0
C765 C 0.33063 0.61837 0.64522 0.0
C766 C 0.27231 0.57453 0.63997 0.0
C767 C 0.29452 0.54062 0.64936 0.0
H768 H 0.27174 0.63745 0.62997 0.0
H769 H 0.24109 0.57167 0.63347 0.0
S770 S 0.40161 0.53994 0.6728 0.0
N771 N 0.39234 0.58716 0.66354 0.0
N772 N 0.35905 0.51574 0.66738 0.0
C773 C 0.33498 0.54615 0.65752 0.0
C774 C 0.35299 0.58497 0.65554 0.0
C775 C 0.38834 0.29018 0.63956 0.0
C776 C 0.38162 0.3309 0.64635 0.0
C777 C 0.42661 0.27339 0.64193 0.0
C778 C 0.45995 0.29671 0.6509 0.0
H779 H 0.36392 0.27104 0.63204 0.0
H780 H 0.4301 0.24198 0.6359 0.0
S781 S 0.4582 0.40465 0.67274 0.0
N782 N 0.41134 0.39399 0.66371 0.0
N783 N 0.48331 0.36243 0.66791 0.0
C784 C 0.45354 0.33732 0.6585 0.0
C785 C 0.41441 0.35439 0.65631 0.0
C786 C 0.64976 0.41511 0.65308 0.0
C787 C 0.67336 0.38099 0.64686 0.0
C788 C 0.66677 0.45349 0.65499 0.0
C789 C 0.70818 0.45935 0.65106 0.0
H790 H 0.61762 0.41238 0.65574 0.0
H791 H 0.64709 0.4788 0.6591 0.0
S792 S 0.78369 0.37919 0.63701 0.0
N793 N 0.74055 0.35514 0.63859 0.0
N794 N 0.77278 0.427 0.64243 0.0
C795 C 0.73236 0.42519 0.64593 0.0
C796 C 0.71491 0.38614 0.64373 0.0
C797 C 0.5471 0.66741 0.65478 0.0
C798 C 0.54144 0.7086 0.64894 0.0
C799 C 0.5852 0.64994 0.65304 0.0
C800 C 0.61918 0.67284 0.64509 0.0
H801 H 0.52186 0.64828 0.66043 0.0
H802 H 0.5878 0.61799 0.65734 0.0
S803 S 0.62126 0.78237 0.62909 0.0
N804 N 0.57374 0.77223 0.63605 0.0
N805 N 0.64503 0.7392 0.63263 0.0
C806 C 0.61419 0.71418 0.63981 0.0
C807 C 0.57545 0.7321 0.6418 0.0
C808 C 0.17876 0.31477 0.29163 0.0
C809 C 0.19091 0.35513 0.29059 0.0
C810 C 0.16015 0.29671 0.26547 0.0
C811 C 0.15327 0.3185 0.23753 0.0
H812 H 0.18226 0.29761 0.31316 0.0
H813 H 0.14977 0.26601 0.26752 0.0
S814 S 0.1831 0.42397 0.2223 0.0
N815 N 0.19695 0.41564 0.25914 0.0
N816 N 0.16312 0.38153 0.2097 0.0
C817 C 0.167 0.35834 0.23589 0.0
C818 C 0.18555 0.37671 0.26253 0.0
C819 C 0.70484 0.15267 0.27166 0.0
C820 C 0.68931 0.15773 0.24109 0.0
C821 C 0.68692 0.17162 0.29774 0.0
C822 C 0.65335 0.19662 0.29392 0.0
H823 H 0.72976 0.1325 0.27559 0.0
H824 H 0.69842 0.16554 0.32115 0.0
S825 S 0.60308 0.22149 0.2186 0.0
N826 N 0.63977 0.1909 0.20832 0.0
N827 N 0.60641 0.22674 0.25729 0.0
C828 C 0.63872 0.20325 0.26337 0.0
C829 C 0.65666 0.18373 0.23692 0.0
C830 C 0.84331 0.68214 0.29843 0.0
C831 C 0.81029 0.6563 0.29496 0.0
C832 C 0.86091 0.70075 0.27211 0.0
C833 C 0.84619 0.6938 0.24156 0.0
H834 H 0.85631 0.68699 0.32153 0.0
H835 H 0.88722 0.71928 0.27551 0.0
S836 S 0.75994 0.62959 0.22 0.0
N837 N 0.76296 0.62564 0.2588 0.0
N838 N 0.79625 0.66043 0.20932 0.0
C839 C 0.81252 0.66905 0.2379 0.0
C840 C 0.79446 0.65034 0.26466 0.0
C841 C 0.31498 0.83333 0.29592 0.0
C842 C 0.34721 0.80651 0.2928 0.0
C843 C 0.29732 0.85106 0.26926 0.0
C844 C 0.31178 0.84286 0.23879 0.0
H845 H 0.30425 0.84159 0.31916 0.0
H846 H 0.27339 0.8726 0.27257 0.0
S847 S 0.3948 0.77398 0.21819 0.0
N848 N 0.39207 0.77171 0.25709 0.0
N849 N 0.35921 0.80532 0.20697 0.0
C850 C 0.34325 0.81528 0.2354 0.0
C851 C 0.36093 0.797 0.26246 0.0
C852 C 0.85008 0.7055 0.76592 0.0
C853 C 0.83963 0.69311 0.79653 0.0
C854 C 0.83263 0.68746 0.73929 0.0
C855 C 0.80394 0.65683 0.74252 0.0
H856 H 0.87315 0.72797 0.76256 0.0
H857 H 0.84262 0.69651 0.71603 0.0
S858 S 0.76508 0.61525 0.81754 0.0
N859 N 0.79785 0.64966 0.8286 0.0
N860 N 0.76485 0.61597 0.77855 0.0
C861 C 0.79211 0.6454 0.77298 0.0
C862 C 0.81005 0.66351 0.80003 0.0
C863 C 0.34982 0.79403 0.7704 0.0
C864 C 0.34263 0.80807 0.73966 0.0
C865 C 0.33083 0.81176 0.7965 0.0
C866 C 0.30378 0.8437 0.79254 0.0
H867 H 0.37165 0.77053 0.77439 0.0
H868 H 0.3385 0.80154 0.82 0.0
S869 S 0.27307 0.8896 0.71679 0.0
N870 N 0.30537 0.85434 0.70659 0.0
N871 N 0.26948 0.88743 0.75564 0.0
C872 C 0.29504 0.85673 0.76186 0.0
C873 C 0.31455 0.83894 0.73537 0.0
C874 C 0.18367 0.33793 0.79675 0.0
C875 C 0.15352 0.30882 0.79316 0.0
C876 C 0.20183 0.35577 0.77033 0.0
C877 C 0.19003 0.3453 0.73959 0.0
H878 H 0.19232 0.34784 0.82012 0.0
H879 H 0.22398 0.37908 0.77394 0.0
S880 S 0.11342 0.26992 0.71768 0.0
N881 N 0.11364 0.26943 0.75667 0.0
N882 N 0.14751 0.30322 0.70701 0.0
C883 C 0.16082 0.3154 0.73574 0.0
C884 C 0.14261 0.29705 0.76257 0.0
C885 C 0.64362 0.20523 0.7716 0.0
C886 C 0.65392 0.19254 0.74103 0.0
C887 C 0.66133 0.1876 0.79828 0.0
C888 C 0.69025 0.15721 0.79514 0.0
H889 H 0.62055 0.2277 0.77488 0.0
H890 H 0.65149 0.19688 0.82153 0.0
S891 S 0.72853 0.11468 0.72029 0.0
N892 N 0.69545 0.14869 0.7091 0.0
N893 N 0.72917 0.11601 0.75927 0.0
C894 C 0.70179 0.14533 0.76473 0.0
C895 C 0.68347 0.16292 0.73762 0.0
C896 C 0.96279 0.51546 0.13763 0.0
C897 C 0.99667 0.53808 0.14619 0.0
C898 C 0.96416 0.4734 0.13657 0.0
C899 C 0.99936 0.45237 0.1441 0.0
H900 H 0.93445 0.53008 0.13313 0.0
H901 H 0.93714 0.45714 0.1305 0.0
S902 S 0.09554 0.49724 0.16998 0.0
N903 N 0.06631 0.53615 0.16286 0.0
N904 N 0.0682 0.45717 0.16223 0.0
C905 C 0.03338 0.47452 0.15285 0.0
C906 C 0.03214 0.51733 0.15364 0.0
C907 C 0.48228 0.99596 0.1229 0.0
C908 C 0.45942 0.99232 0.15056 0.0
C909 C 0.52422 0.99801 0.12438 0.0
C910 C 0.54427 0.99579 0.15352 0.0
H911 H 0.46764 0.99817 0.10016 0.0
H912 H 0.54101 0.001 0.10265 0.0
S913 S 0.4975 0.98426 0.23239 0.0
N914 N 0.45943 0.98546 0.20758 0.0
N915 N 0.53809 0.98865 0.21042 0.0
C916 C 0.52157 0.99112 0.18118 0.0
C917 C 0.4791 0.98963 0.17968 0.0
C918 C 0.46685 0.02455 0.38682 0.0
C919 C 0.50402 0.04417 0.38767 0.0
C920 C 0.46445 0.98265 0.38707 0.0
C921 C 0.49918 0.95889 0.38835 0.0
H922 H 0.43941 0.04174 0.38506 0.0
H923 H 0.43525 0.96913 0.38458 0.0
S924 S 0.60396 0.9959 0.38944 0.0
N925 N 0.5764 0.03698 0.38817 0.0
N926 N 0.57196 0.95814 0.39031 0.0
C927 C 0.53658 0.97826 0.38954 0.0
C928 C 0.53901 0.02094 0.38889 0.0
C929 C 0.97744 0.50245 0.41202 0.0
C930 C 0.95602 0.50224 0.38348 0.0
C931 C 0.01943 0.50101 0.41207 0.0
C932 C 0.04094 0.50016 0.38357 0.0
H933 H 0.96165 0.5031 0.43434 0.0
H934 H 0.03514 0.5012 0.43442 0.0
S935 S 0.99862 0.4996 0.30274 0.0
N936 N 0.95919 0.50103 0.3262 0.0
N937 N 0.03797 0.4991 0.32629 0.0
C938 C 0.01978 0.50023 0.35498 0.0
C939 C 0.97727 0.50102 0.35494 0.0
C940 C 0.02979 0.52437 0.89183 0.0
C941 C 0.99248 0.5437 0.89047 0.0
C942 C 0.03249 0.48244 0.89168 0.0
C943 C 0.99791 0.45845 0.89013 0.0
H944 H 0.05716 0.54183 0.89211 0.0
H945 H 0.06194 0.46894 0.89119 0.0
S946 S 0.89311 0.49463 0.8851 0.0
N947 N 0.92033 0.53597 0.88641 0.0
N948 N 0.92523 0.45707 0.88727 0.0
C949 C 0.96037 0.4775 0.8892 0.0
C950 C 0.95766 0.52017 0.88917 0.0
C951 C 0.51627 0.03579 0.88853 0.0
C952 C 0.54049 0.00133 0.88992 0.0
C953 C 0.47454 0.03268 0.8877 0.0
C954 C 0.45559 0.99506 0.88812 0.0
H955 H 0.52935 0.06531 0.88635 0.0
H956 H 0.45698 0.05991 0.88578 0.0
S957 S 0.50531 0.89562 0.89041 0.0
N958 N 0.5424 0.92833 0.89178 0.0
N959 N 0.46394 0.92257 0.88867 0.0
C960 C 0.4793 0.96035 0.88964 0.0
C961 C 0.52177 0.96349 0.89084 0.0
C962 C 0.49859 0.98114 0.67798 0.0
C963 C 0.49728 0.95935 0.64964 0.0
C964 C 0.49993 0.02303 0.67784 0.0
C965 C 0.50086 0.04454 0.64935 0.0
H966 H 0.49818 0.96567 0.70047 0.0
H967 H 0.50064 0.03873 0.70023 0.0
S968 S 0.49864 0.00152 0.56875 0.0
N969 N 0.49755 0.96203 0.59234 0.0
N970 N 0.49998 0.04126 0.59207 0.0
C971 C 0.49982 0.0232 0.6208 0.0
C972 C 0.498 0.98039 0.62094 0.0
C973 C 0.98068 0.53771 0.64565 0.0
C974 C 0.95712 0.50281 0.6476 0.0
C975 C 0.0225 0.53541 0.64537 0.0
C976 C 0.04208 0.49818 0.64701 0.0
H977 H 0.96693 0.56712 0.64581 0.0
H978 H 0.03966 0.563 0.64465 0.0
S979 S 0.99419 0.39815 0.65388 0.0
N980 N 0.95643 0.42995 0.65143 0.0
N981 N 0.03512 0.42583 0.65209 0.0
C982 C 0.01899 0.46307 0.64892 0.0
C983 C 0.97644 0.46537 0.649 0.0
loop_
_geom_bond_atom_site_label_1
_geom_bond_atom_site_label_2
_geom_bond_distance
_geom_bond_site_symmetry_2
_ccdc_geom_bond_type
Co0 O3 1.970 . S
Co0 N17 1.989 . S
Co0 O25 1.967 . S
Co0 O32 1.920 . S
Co1 O4 1.966 . S
Co1 N10 2.022 . S
Co1 N18 1.993 . S
Co1 O26 1.941 . S
C2 O3 1.258 . S
C2 O4 1.263 . S
O3 Co0 1.970 . S
O3 C2 1.258 . S
O4 Co1 1.966 . S
O4 C2 1.263 . S
C5 O6 1.235 . S
C5 O32 1.289 . S
O6 C5 1.235 . S
C7 C9 1.400 . S
C7 N10 1.351 . S
C7 C12 1.501 . S
C8 C9 1.388 . S
C8 N11 1.341 . S
C9 C7 1.400 . S
C9 C8 1.388 . S
N10 Co1 2.022 . S
N10 C7 1.351 . S
N10 N11 1.365 . S
N11 C8 1.341 . S
N11 N10 1.365 . S
N11 H31 0.862 1_455 S
C12 C7 1.501 . S
C12 H13 0.961 . S
C12 H14 0.961 . S
C12 H15 0.960 . S
H13 C12 0.961 . S
H14 C12 0.961 . S
H15 C12 0.960 . S
C16 N17 1.342 . S
C16 C20 1.401 . S
C16 C21 1.499 . S
N17 Co0 1.989 . S
N17 C16 1.342 . S
N17 N18 1.388 . S
N18 Co1 1.993 . S
N18 N17 1.388 . S
N18 C19 1.346 . S
C19 N18 1.346 . S
C19 C20 1.396 . S
C19 C29 1.510 . S
C20 C16 1.401 . S
C20 C19 1.396 . S
C21 C16 1.499 . S
C21 H22 0.959 . S
C21 H23 0.960 . S
C21 H24 0.961 . S
H22 C21 0.959 . S
H23 C21 0.960 . S
H24 C21 0.961 . S
O25 Co0 1.967 . S
O25 C33 1.258 . S
O26 Co1 1.941 . S
O26 C33 1.266 . S
H27 C29 0.959 . S
H28 C29 0.961 . S
C29 C19 1.510 . S
C29 H27 0.959 . S
C29 H28 0.961 . S
C29 H30 0.960 . S
H30 C29 0.960 . S
H31 N11 0.862 1_655 S
O32 Co0 1.920 . S
O32 C5 1.289 . S
C33 O25 1.258 . S
C33 O26 1.266 . S
Co34 O37 1.970 . S
Co34 N51 1.989 . S
Co34 O59 1.967 . S
Co34 O66 1.920 . S
Co35 O38 1.966 . S
Co35 N44 2.022 . S
Co35 N52 1.993 . S
Co35 O60 1.941 . S
C36 O37 1.258 . S
C36 O38 1.263 . S
O37 Co34 1.970 . S
O37 C36 1.258 . S
O38 Co35 1.966 . S
O38 C36 1.263 . S
C39 O40 1.235 . S
C39 O66 1.289 . S
O40 C39 1.235 . S
C41 C43 1.400 . S
C41 N44 1.351 . S
C41 C46 1.501 . S
C42 C43 1.388 . S
C42 N45 1.341 . S
C43 C41 1.400 . S
C43 C42 1.388 . S
N44 Co35 2.022 . S
N44 C41 1.351 . S
N44 N45 1.365 . S
N45 C42 1.341 . S
N45 N44 1.365 . S
N45 H65 0.862 1_545 S
C46 C41 1.501 . S
C46 H47 0.961 . S
C46 H48 0.961 . S
C46 H49 0.960 . S
H47 C46 0.961 . S
H48 C46 0.961 . S
H49 C46 0.960 . S
C50 N51 1.342 . S
C50 C54 1.401 . S
C50 C55 1.499 . S
N51 Co34 1.989 . S
N51 C50 1.342 . S
N51 N52 1.388 . S
N52 Co35 1.993 . S
N52 N51 1.388 . S
N52 C53 1.346 . S
C53 N52 1.346 . S
C53 C54 1.396 . S
C53 C63 1.510 . S
C54 C50 1.401 . S
C54 C53 1.396 . S
C55 C50 1.499 . S
C55 H56 0.959 . S
C55 H57 0.960 . S
C55 H58 0.961 . S
H56 C55 0.959 . S
H57 C55 0.960 . S
H58 C55 0.961 . S
O59 Co34 1.967 . S
O59 C67 1.258 . S
O60 Co35 1.941 . S
O60 C67 1.266 . S
H61 C63 0.959 . S
H62 C63 0.961 . S
C63 C53 1.510 . S
C63 H61 0.959 . S
C63 H62 0.961 . S
C63 H64 0.960 . S
H64 C63 0.960 . S
H65 N45 0.862 1_565 S
O66 Co34 1.920 . S
O66 C39 1.289 . S
C67 O59 1.258 . S
C67 O60 1.266 . S
Co68 O71 1.970 . S
Co68 N85 1.989 . S
Co68 O93 1.967 . S
Co68 O100 1.920 . S
Co69 O72 1.966 . S
Co69 N78 2.022 . S
Co69 N86 1.993 . S
Co69 O94 1.941 . S
C70 O71 1.258 . S
C70 O72 1.263 . S
O71 Co68 1.970 . S
O71 C70 1.258 . S
O72 Co69 1.966 . S
O72 C70 1.263 . S
C73 O74 1.235 . S
C73 O100 1.289 . S
O74 C73 1.235 . S
C75 C77 1.400 . S
C75 N78 1.351 . S
C75 C80 1.501 . S
C76 C77 1.388 . S
C76 N79 1.341 . S
C77 C75 1.400 . S
C77 C76 1.388 . S
N78 Co69 2.022 . S
N78 C75 1.351 . S
N78 N79 1.365 . S
N79 C76 1.341 . S
N79 N78 1.365 . S
N79 H99 0.862 1_655 S
C80 C75 1.501 . S
C80 H81 0.961 . S
C80 H82 0.961 . S
C80 H83 0.960 . S
H81 C80 0.961 . S
H82 C80 0.961 . S
H83 C80 0.960 . S
C84 N85 1.342 . S
C84 C88 1.401 . S
C84 C89 1.499 . S
N85 Co68 1.989 . S
N85 C84 1.342 . S
N85 N86 1.388 . S
N86 Co69 1.993 . S
N86 N85 1.388 . S
N86 C87 1.346 . S
C87 N86 1.346 . S
C87 C88 1.396 . S
C87 C97 1.510 . S
C88 C84 1.401 . S
C88 C87 1.396 . S
C89 C84 1.499 . S
C89 H90 0.959 . S
C89 H91 0.960 . S
C89 H92 0.961 . S
H90 C89 0.959 . S
H91 C89 0.960 . S
H92 C89 0.961 . S
O93 Co68 1.967 . S
O93 C101 1.258 . S
O94 Co69 1.941 . S
O94 C101 1.266 . S
H95 C97 0.959 . S
H96 C97 0.961 . S
C97 C87 1.510 . S
C97 H95 0.959 . S
C97 H96 0.961 . S
C97 H98 0.960 . S
H98 C97 0.960 . S
H99 N79 0.862 1_455 S
O100 Co68 1.920 . S
O100 C73 1.289 . S
C101 O93 1.258 . S
C101 O94 1.266 . S
Co102 O105 1.970 . S
Co102 N119 1.989 . S
Co102 O127 1.967 . S
Co102 O134 1.920 . S
Co103 O106 1.966 . S
Co103 N112 2.022 . S
Co103 N120 1.993 . S
Co103 O128 1.941 . S
C104 O105 1.258 . S
C104 O106 1.263 . S
O105 Co102 1.970 . S
O105 C104 1.258 . S
O106 Co103 1.966 . S
O106 C104 1.263 . S
C107 O108 1.235 . S
C107 O134 1.289 . S
O108 C107 1.235 . S
C109 C111 1.400 . S
C109 N112 1.351 . S
C109 C114 1.501 . S
C110 C111 1.388 . S
C110 N113 1.341 . S
C111 C109 1.400 . S
C111 C110 1.388 . S
N112 Co103 2.022 . S
N112 C109 1.351 . S
N112 N113 1.365 . S
N113 C110 1.341 . S
N113 N112 1.365 . S
N113 H133 0.862 1_565 S
C114 C109 1.501 . S
C114 H115 0.961 . S
C114 H116 0.961 . S
C114 H117 0.960 . S
H115 C114 0.961 . S
H116 C114 0.961 . S
H117 C114 0.960 . S
C118 N119 1.342 . S
C118 C122 1.401 . S
C118 C123 1.499 . S
N119 Co102 1.989 . S
N119 C118 1.342 . S
N119 N120 1.388 . S
N120 Co103 1.993 . S
N120 N119 1.388 . S
N120 C121 1.346 . S
C121 N120 1.346 . S
C121 C122 1.396 . S
C121 C131 1.510 . S
C122 C118 1.401 . S
C122 C121 1.396 . S
C123 C118 1.499 . S
C123 H124 0.959 . S
C123 H125 0.960 . S
C123 H126 0.961 . S
H124 C123 0.959 . S
H125 C123 0.960 . S
H126 C123 0.961 . S
O127 Co102 1.967 . S
O127 C135 1.258 . S
O128 Co103 1.941 . S
O128 C135 1.266 . S
H129 C131 0.959 . S
H130 C131 0.961 . S
C131 C121 1.510 . S
C131 H129 0.959 . S
C131 H130 0.961 . S
C131 H132 0.960 . S
H132 C131 0.960 . S
H133 N113 0.862 1_545 S
O134 Co102 1.920 . S
O134 C107 1.289 . S
C135 O127 1.258 . S
C135 O128 1.266 . S
Co136 O139 1.970 . S
Co136 N153 1.989 . S
Co136 O161 1.967 . S
Co136 O168 1.920 . S
Co137 O140 1.966 . S
Co137 N146 2.022 . S
Co137 N154 1.993 . S
Co137 O162 1.941 . S
C138 O139 1.258 . S
C138 O140 1.263 . S
O139 Co136 1.970 . S
O139 C138 1.258 . S
O140 Co137 1.966 . S
O140 C138 1.263 . S
C141 O142 1.235 . S
C141 O168 1.289 . S
O142 C141 1.235 . S
C143 C145 1.400 . S
C143 N146 1.351 . S
C143 C148 1.501 . S
C144 C145 1.387 . S
C144 N147 1.341 . S
C145 C143 1.400 . S
C145 C144 1.387 . S
N146 Co137 2.022 . S
N146 C143 1.351 . S
N146 N147 1.365 . S
N147 C144 1.341 . S
N147 N146 1.365 . S
N147 H167 0.862 . S
C148 C143 1.501 . S
C148 H149 0.961 . S
C148 H150 0.961 . S
C148 H151 0.960 . S
H149 C148 0.961 . S
H150 C148 0.961 . S
H151 C148 0.960 . S
C152 N153 1.342 . S
C152 C156 1.401 . S
C152 C157 1.499 . S
N153 Co136 1.989 . S
N153 C152 1.342 . S
N153 N154 1.388 . S
N154 Co137 1.993 . S
N154 N153 1.388 . S
N154 C155 1.346 . S
C155 N154 1.346 . S
C155 C156 1.396 . S
C155 C165 1.510 . S
C156 C152 1.401 . S
C156 C155 1.396 . S
C157 C152 1.499 . S
C157 H158 0.959 . S
C157 H159 0.960 . S
C157 H160 0.961 . S
H158 C157 0.959 . S
H159 C157 0.960 . S
H160 C157 0.961 . S
O161 Co136 1.967 . S
O161 C169 1.258 . S
O162 Co137 1.941 . S
O162 C169 1.266 . S
H163 C165 0.959 . S
H164 C165 0.961 . S
C165 C155 1.510 . S
C165 H163 0.959 . S
C165 H164 0.961 . S
C165 H166 0.960 . S
H166 C165 0.960 . S
H167 N147 0.862 . S
O168 Co136 1.920 . S
O168 C141 1.289 . S
C169 O161 1.258 . S
C169 O162 1.266 . S
Co170 O173 1.970 . S
Co170 N187 1.989 . S
Co170 O195 1.967 . S
Co170 O202 1.920 . S
Co171 O174 1.966 . S
Co171 N180 2.022 . S
Co171 N188 1.993 . S
Co171 O196 1.941 . S
C172 O173 1.258 . S
C172 O174 1.263 . S
O173 Co170 1.970 . S
O173 C172 1.258 . S
O174 Co171 1.966 . S
O174 C172 1.263 . S
C175 O176 1.235 . S
C175 O202 1.289 . S
O176 C175 1.235 . S
C177 C179 1.400 . S
C177 N180 1.351 . S
C177 C182 1.501 . S
C178 C179 1.387 . S
C178 N181 1.341 . S
C179 C177 1.400 . S
C179 C178 1.387 . S
N180 Co171 2.022 . S
N180 C177 1.351 . S
N180 N181 1.365 . S
N181 C178 1.341 . S
N181 N180 1.365 . S
N181 H201 0.862 . S
C182 C177 1.501 . S
C182 H183 0.961 . S
C182 H184 0.961 . S
C182 H185 0.960 . S
H183 C182 0.961 . S
H184 C182 0.961 . S
H185 C182 0.960 . S
C186 N187 1.342 . S
C186 C190 1.401 . S
C186 C191 1.499 . S
N187 Co170 1.989 . S
N187 C186 1.342 . S
N187 N188 1.388 . S
N188 Co171 1.993 . S
N188 N187 1.388 . S
N188 C189 1.346 . S
C189 N188 1.346 . S
C189 C190 1.396 . S
C189 C199 1.510 . S
C190 C186 1.401 . S
C190 C189 1.396 . S
C191 C186 1.499 . S
C191 H192 0.959 . S
C191 H193 0.960 . S
C191 H194 0.961 . S
H192 C191 0.959 . S
H193 C191 0.960 . S
H194 C191 0.961 . S
O195 Co170 1.967 . S
O195 C203 1.258 . S
O196 Co171 1.941 . S
O196 C203 1.266 . S
H197 C199 0.959 . S
H198 C199 0.961 . S
C199 C189 1.510 . S
C199 H197 0.959 . S
C199 H198 0.961 . S
C199 H200 0.960 . S
H200 C199 0.960 . S
H201 N181 0.862 . S
O202 Co170 1.920 . S
O202 C175 1.289 . S
C203 O195 1.258 . S
C203 O196 1.266 . S
Co204 O207 1.970 . S
Co204 N221 1.989 . S
Co204 O229 1.967 . S
Co204 O236 1.920 . S
Co205 O208 1.966 . S
Co205 N214 2.022 . S
Co205 N222 1.993 . S
Co205 O230 1.941 . S
C206 O207 1.258 . S
C206 O208 1.263 . S
O207 Co204 1.970 . S
O207 C206 1.258 . S
O208 Co205 1.966 . S
O208 C206 1.263 . S
C209 O210 1.235 . S
C209 O236 1.289 . S
O210 C209 1.235 . S
C211 C213 1.400 . S
C211 N214 1.351 . S
C211 C216 1.501 . S
C212 C213 1.387 . S
C212 N215 1.341 . S
C213 C211 1.400 . S
C213 C212 1.387 . S
N214 Co205 2.022 . S
N214 C211 1.351 . S
N214 N215 1.365 . S
N215 C212 1.341 . S
N215 N214 1.365 . S
N215 H235 0.862 . S
C216 C211 1.501 . S
C216 H217 0.961 . S
C216 H218 0.961 . S
C216 H219 0.960 . S
H217 C216 0.961 . S
H218 C216 0.961 . S
H219 C216 0.960 . S
C220 N221 1.342 . S
C220 C224 1.401 . S
C220 C225 1.499 . S
N221 Co204 1.989 . S
N221 C220 1.342 . S
N221 N222 1.388 . S
N222 Co205 1.993 . S
N222 N221 1.388 . S
N222 C223 1.346 . S
C223 N222 1.346 . S
C223 C224 1.396 . S
C223 C233 1.510 . S
C224 C220 1.401 . S
C224 C223 1.396 . S
C225 C220 1.499 . S
C225 H226 0.959 . S
C225 H227 0.960 . S
C225 H228 0.961 . S
H226 C225 0.959 . S
H227 C225 0.960 . S
H228 C225 0.961 . S
O229 Co204 1.967 . S
O229 C237 1.258 . S
O230 Co205 1.941 . S
O230 C237 1.266 . S
H231 C233 0.959 . S
H232 C233 0.961 . S
C233 C223 1.510 . S
C233 H231 0.959 . S
C233 H232 0.961 . S
C233 H234 0.960 . S
H234 C233 0.960 . S
H235 N215 0.862 . S
O236 Co204 1.920 . S
O236 C209 1.289 . S
C237 O229 1.258 . S
C237 O230 1.266 . S
Co238 O241 1.970 . S
Co238 N255 1.989 . S
Co238 O263 1.967 . S
Co238 O270 1.920 . S
Co239 O242 1.966 . S
Co239 N248 2.022 . S
Co239 N256 1.993 . S
Co239 O264 1.941 . S
C240 O241 1.258 . S
C240 O242 1.263 . S
O241 Co238 1.970 . S
O241 C240 1.258 . S
O242 Co239 1.966 . S
O242 C240 1.263 . S
C243 O244 1.235 . S
C243 O270 1.289 . S
O244 C243 1.235 . S
C245 C247 1.400 . S
C245 N248 1.351 . S
C245 C250 1.501 . S
C246 C247 1.387 . S
C246 N249 1.341 . S
C247 C245 1.400 . S
C247 C246 1.387 . S
N248 Co239 2.022 . S
N248 C245 1.351 . S
N248 N249 1.365 . S
N249 C246 1.341 . S
N249 N248 1.365 . S
N249 H269 0.862 . S
C250 C245 1.501 . S
C250 H251 0.961 . S
C250 H252 0.961 . S
C250 H253 0.960 . S
H251 C250 0.961 . S
H252 C250 0.961 . S
H253 C250 0.960 . S
C254 N255 1.342 . S
C254 C258 1.401 . S
C254 C259 1.499 . S
N255 Co238 1.989 . S
N255 C254 1.342 . S
N255 N256 1.388 . S
N256 Co239 1.993 . S
N256 N255 1.388 . S
N256 C257 1.346 . S
C257 N256 1.346 . S
C257 C258 1.396 . S
C257 C267 1.510 . S
C258 C254 1.401 . S
C258 C257 1.396 . S
C259 C254 1.499 . S
C259 H260 0.959 . S
C259 H261 0.960 . S
C259 H262 0.961 . S
H260 C259 0.959 . S
H261 C259 0.960 . S
H262 C259 0.961 . S
O263 Co238 1.967 . S
O263 C271 1.258 . S
O264 Co239 1.941 . S
O264 C271 1.266 . S
H265 C267 0.959 . S
H266 C267 0.961 . S
C267 C257 1.510 . S
C267 H265 0.959 . S
C267 H266 0.961 . S
C267 H268 0.960 . S
H268 C267 0.960 . S
H269 N249 0.862 . S
O270 Co238 1.920 . S
O270 C243 1.289 . S
C271 O263 1.258 . S
C271 O264 1.266 . S
Co272 O275 1.970 . S
Co272 N289 1.989 . S
Co272 O297 1.967 . S
Co272 O304 1.920 . S
Co273 O276 1.966 . S
Co273 N282 2.022 . S
Co273 N290 1.993 . S
Co273 O298 1.941 . S
C274 O275 1.258 . S
C274 O276 1.263 . S
O275 Co272 1.970 . S
O275 C274 1.258 . S
O276 Co273 1.966 . S
O276 C274 1.263 . S
C277 O278 1.235 . S
C277 O304 1.289 . S
O278 C277 1.235 . S
C279 C281 1.400 . S
C279 N282 1.351 . S
C279 C284 1.501 . S
C280 C281 1.388 . S
C280 N283 1.341 . S
C281 C279 1.400 . S
C281 C280 1.388 . S
N282 Co273 2.022 . S
N282 C279 1.351 . S
N282 N283 1.365 . S
N283 C280 1.341 . S
N283 N282 1.365 . S
N283 H303 0.862 1_655 S
C284 C279 1.501 . S
C284 H285 0.961 . S
C284 H286 0.961 . S
C284 H287 0.960 . S
H285 C284 0.961 . S
H286 C284 0.961 . S
H287 C284 0.960 . S
C288 N289 1.342 . S
C288 C292 1.401 . S
C288 C293 1.499 . S
N289 Co272 1.989 . S
N289 C288 1.342 . S
N289 N290 1.388 . S
N290 Co273 1.993 . S
N290 N289 1.388 . S
N290 C291 1.346 . S
C291 N290 1.346 . S
C291 C292 1.396 . S
C291 C301 1.510 . S
C292 C288 1.401 . S
C292 C291 1.396 . S
C293 C288 1.499 . S
C293 H294 0.959 . S
C293 H295 0.960 . S
C293 H296 0.961 . S
H294 C293 0.959 . S
H295 C293 0.960 . S
H296 C293 0.961 . S
O297 Co272 1.967 . S
O297 C305 1.258 . S
O298 Co273 1.941 . S
O298 C305 1.266 . S
H299 C301 0.959 . S
H300 C301 0.961 . S
C301 C291 1.510 . S
C301 H299 0.959 . S
C301 H300 0.961 . S
C301 H302 0.960 . S
H302 C301 0.960 . S
H303 N283 0.862 1_455 S
O304 Co272 1.920 . S
O304 C277 1.289 . S
C305 O297 1.258 . S
C305 O298 1.266 . S
Co306 O309 1.970 . S
Co306 N323 1.989 . S
Co306 O331 1.967 . S
Co306 O338 1.920 . S
Co307 O310 1.966 . S
Co307 N316 2.022 . S
Co307 N324 1.993 . S
Co307 O332 1.941 . S
C308 O309 1.258 . S
C308 O310 1.263 . S
O309 Co306 1.970 . S
O309 C308 1.258 . S
O310 Co307 1.966 . S
O310 C308 1.263 . S
C311 O312 1.235 . S
C311 O338 1.289 . S
O312 C311 1.235 . S
C313 C315 1.400 . S
C313 N316 1.351 . S
C313 C318 1.501 . S
C314 C315 1.388 . S
C314 N317 1.341 . S
C315 C313 1.400 . S
C315 C314 1.388 . S
N316 Co307 2.022 . S
N316 C313 1.351 . S
N316 N317 1.365 . S
N317 C314 1.341 . S
N317 N316 1.365 . S
N317 H337 0.862 1_565 S
C318 C313 1.501 . S
C318 H319 0.961 . S
C318 H320 0.961 . S
C318 H321 0.960 . S
H319 C318 0.961 . S
H320 C318 0.961 . S
H321 C318 0.960 . S
C322 N323 1.342 . S
C322 C326 1.401 . S
C322 C327 1.499 . S
N323 Co306 1.989 . S
N323 C322 1.342 . S
N323 N324 1.388 . S
N324 Co307 1.993 . S
N324 N323 1.388 . S
N324 C325 1.346 . S
C325 N324 1.346 . S
C325 C326 1.396 . S
C325 C335 1.510 . S
C326 C322 1.401 . S
C326 C325 1.396 . S
C327 C322 1.499 . S
C327 H328 0.959 . S
C327 H329 0.960 . S
C327 H330 0.961 . S
H328 C327 0.959 . S
H329 C327 0.960 . S
H330 C327 0.961 . S
O331 Co306 1.967 . S
O331 C339 1.258 . S
O332 Co307 1.941 . S
O332 C339 1.266 . S
H333 C335 0.959 . S
H334 C335 0.961 . S
C335 C325 1.510 . S
C335 H333 0.959 . S
C335 H334 0.961 . S
C335 H336 0.960 . S
H336 C335 0.960 . S
H337 N317 0.862 1_545 S
O338 Co306 1.920 . S
O338 C311 1.289 . S
C339 O331 1.258 . S
C339 O332 1.266 . S
Co340 O343 1.970 . S
Co340 N357 1.989 . S
Co340 O365 1.967 . S
Co340 O372 1.920 . S
Co341 O344 1.966 . S
Co341 N350 2.022 . S
Co341 N358 1.993 . S
Co341 O366 1.941 . S
C342 O343 1.258 . S
C342 O344 1.263 . S
O343 Co340 1.970 . S
O343 C342 1.258 . S
O344 Co341 1.966 . S
O344 C342 1.263 . S
C345 O346 1.235 . S
C345 O372 1.289 . S
O346 C345 1.235 . S
C347 C349 1.400 . S
C347 N350 1.351 . S
C347 C352 1.501 . S
C348 C349 1.388 . S
C348 N351 1.341 . S
C349 C347 1.400 . S
C349 C348 1.388 . S
N350 Co341 2.022 . S
N350 C347 1.351 . S
N350 N351 1.365 . S
N351 C348 1.341 . S
N351 N350 1.365 . S
N351 H371 0.862 1_455 S
C352 C347 1.501 . S
C352 H353 0.961 . S
C352 H354 0.961 . S
C352 H355 0.960 . S
H353 C352 0.961 . S
H354 C352 0.961 . S
H355 C352 0.960 . S
C356 N357 1.342 . S
C356 C360 1.401 . S
C356 C361 1.499 . S
N357 Co340 1.989 . S
N357 C356 1.342 . S
N357 N358 1.388 . S
N358 Co341 1.993 . S
N358 N357 1.388 . S
N358 C359 1.346 . S
C359 N358 1.346 . S
C359 C360 1.396 . S
C359 C369 1.510 . S
C360 C356 1.401 . S
C360 C359 1.396 . S
C361 C356 1.499 . S
C361 H362 0.959 . S
C361 H363 0.960 . S
C361 H364 0.961 . S
H362 C361 0.959 . S
H363 C361 0.960 . S
H364 C361 0.961 . S
O365 Co340 1.967 . S
O365 C373 1.258 . S
O366 Co341 1.941 . S
O366 C373 1.266 . S
H367 C369 0.959 . S
H368 C369 0.961 . S
C369 C359 1.510 . S
C369 H367 0.959 . S
C369 H368 0.961 . S
C369 H370 0.960 . S
H370 C369 0.960 . S
H371 N351 0.862 1_655 S
O372 Co340 1.920 . S
O372 C345 1.289 . S
C373 O365 1.258 . S
C373 O366 1.266 . S
Co374 O377 1.970 . S
Co374 N391 1.989 . S
Co374 O399 1.967 . S
Co374 O406 1.920 . S
Co375 O378 1.966 . S
Co375 N384 2.022 . S
Co375 N392 1.993 . S
Co375 O400 1.941 . S
C376 O377 1.258 . S
C376 O378 1.263 . S
O377 Co374 1.970 . S
O377 C376 1.258 . S
O378 Co375 1.966 . S
O378 C376 1.263 . S
C379 O380 1.235 . S
C379 O406 1.289 . S
O380 C379 1.235 . S
C381 C383 1.400 . S
C381 N384 1.351 . S
C381 C386 1.501 . S
C382 C383 1.388 . S
C382 N385 1.341 . S
C383 C381 1.400 . S
C383 C382 1.388 . S
N384 Co375 2.022 . S
N384 C381 1.351 . S
N384 N385 1.365 . S
N385 C382 1.341 . S
N385 N384 1.365 . S
N385 H405 0.862 1_545 S
C386 C381 1.501 . S
C386 H387 0.961 . S
C386 H388 0.961 . S
C386 H389 0.960 . S
H387 C386 0.961 . S
H388 C386 0.961 . S
H389 C386 0.960 . S
C390 N391 1.342 . S
C390 C394 1.401 . S
C390 C395 1.499 . S
N391 Co374 1.989 . S
N391 C390 1.342 . S
N391 N392 1.388 . S
N392 Co375 1.993 . S
N392 N391 1.388 . S
N392 C393 1.346 . S
C393 N392 1.346 . S
C393 C394 1.396 . S
C393 C403 1.510 . S
C394 C390 1.401 . S
C394 C393 1.396 . S
C395 C390 1.499 . S
C395 H396 0.959 . S
C395 H397 0.960 . S
C395 H398 0.961 . S
H396 C395 0.959 . S
H397 C395 0.960 . S
H398 C395 0.961 . S
O399 Co374 1.967 . S
O399 C407 1.258 . S
O400 Co375 1.941 . S
O400 C407 1.266 . S
H401 C403 0.959 . S
H402 C403 0.961 . S
C403 C393 1.510 . S
C403 H401 0.959 . S
C403 H402 0.961 . S
C403 H404 0.960 . S
H404 C403 0.960 . S
H405 N385 0.862 1_565 S
O406 Co374 1.920 . S
O406 C379 1.289 . S
C407 O399 1.258 . S
C407 O400 1.266 . S
Co408 O411 1.970 . S
Co408 N425 1.989 . S
Co408 O433 1.967 . S
Co408 O440 1.920 . S
Co409 O412 1.966 . S
Co409 N418 2.022 . S
Co409 N426 1.993 . S
Co409 O434 1.941 . S
C410 O411 1.258 . S
C410 O412 1.263 . S
O411 Co408 1.970 . S
O411 C410 1.258 . S
O412 Co409 1.966 . S
O412 C410 1.263 . S
C413 O414 1.235 . S
C413 O440 1.289 . S
O414 C413 1.235 . S
C415 C417 1.400 . S
C415 N418 1.351 . S
C415 C420 1.501 . S
C416 C417 1.387 . S
C416 N419 1.341 . S
C417 C415 1.400 . S
C417 C416 1.387 . S
N418 Co409 2.022 . S
N418 C415 1.351 . S
N418 N419 1.365 . S
N419 C416 1.341 . S
N419 N418 1.365 . S
N419 H439 0.862 . S
C420 C415 1.501 . S
C420 H421 0.961 . S
C420 H422 0.961 . S
C420 H423 0.960 . S
H421 C420 0.961 . S
H422 C420 0.961 . S
H423 C420 0.960 . S
C424 N425 1.342 . S
C424 C428 1.401 . S
C424 C429 1.499 . S
N425 Co408 1.989 . S
N425 C424 1.342 . S
N425 N426 1.388 . S
N426 Co409 1.993 . S
N426 N425 1.388 . S
N426 C427 1.346 . S
C427 N426 1.346 . S
C427 C428 1.396 . S
C427 C437 1.510 . S
C428 C424 1.401 . S
C428 C427 1.396 . S
C429 C424 1.499 . S
C429 H430 0.959 . S
C429 H431 0.960 . S
C429 H432 0.961 . S
H430 C429 0.959 . S
H431 C429 0.960 . S
H432 C429 0.961 . S
O433 Co408 1.967 . S
O433 C441 1.258 . S
O434 Co409 1.941 . S
O434 C441 1.266 . S
H435 C437 0.959 . S
H436 C437 0.961 . S
C437 C427 1.510 . S
C437 H435 0.959 . S
C437 H436 0.961 . S
C437 H438 0.960 . S
H438 C437 0.960 . S
H439 N419 0.862 . S
O440 Co408 1.920 . S
O440 C413 1.289 . S
C441 O433 1.258 . S
C441 O434 1.266 . S
Co442 O445 1.970 . S
Co442 N459 1.989 . S
Co442 O467 1.967 . S
Co442 O474 1.920 . S
Co443 O446 1.966 . S
Co443 N452 2.022 . S
Co443 N460 1.993 . S
Co443 O468 1.941 . S
C444 O445 1.258 . S
C444 O446 1.263 . S
O445 Co442 1.970 . S
O445 C444 1.258 . S
O446 Co443 1.966 . S
O446 C444 1.263 . S
C447 O448 1.235 . S
C447 O474 1.289 . S
O448 C447 1.235 . S
C449 C451 1.400 . S
C449 N452 1.351 . S
C449 C454 1.501 . S
C450 C451 1.387 . S
C450 N453 1.341 . S
C451 C449 1.400 . S
C451 C450 1.387 . S
N452 Co443 2.022 . S
N452 C449 1.351 . S
N452 N453 1.365 . S
N453 C450 1.341 . S
N453 N452 1.365 . S
N453 H473 0.862 . S
C454 C449 1.501 . S
C454 H455 0.961 . S
C454 H456 0.961 . S
C454 H457 0.960 . S
H455 C454 0.961 . S
H456 C454 0.961 . S
H457 C454 0.960 . S
C458 N459 1.342 . S
C458 C462 1.401 . S
C458 C463 1.499 . S
N459 Co442 1.989 . S
N459 C458 1.342 . S
N459 N460 1.388 . S
N460 Co443 1.993 . S
N460 N459 1.388 . S
N460 C461 1.346 . S
C461 N460 1.346 . S
C461 C462 1.396 . S
C461 C471 1.510 . S
C462 C458 1.401 . S
C462 C461 1.396 . S
C463 C458 1.499 . S
C463 H464 0.959 . S
C463 H465 0.960 . S
C463 H466 0.961 . S
H464 C463 0.959 . S
H465 C463 0.960 . S
H466 C463 0.961 . S
O467 Co442 1.967 . S
O467 C475 1.258 . S
O468 Co443 1.941 . S
O468 C475 1.266 . S
H469 C471 0.959 . S
H470 C471 0.961 . S
C471 C461 1.510 . S
C471 H469 0.959 . S
C471 H470 0.961 . S
C471 H472 0.960 . S
H472 C471 0.960 . S
H473 N453 0.862 . S
O474 Co442 1.920 . S
O474 C447 1.289 . S
C475 O467 1.258 . S
C475 O468 1.266 . S
Co476 O479 1.970 . S
Co476 N493 1.989 . S
Co476 O501 1.967 . S
Co476 O508 1.920 . S
Co477 O480 1.966 . S
Co477 N486 2.022 . S
Co477 N494 1.993 . S
Co477 O502 1.941 . S
C478 O479 1.258 . S
C478 O480 1.263 . S
O479 Co476 1.970 . S
O479 C478 1.258 . S
O480 Co477 1.966 . S
O480 C478 1.263 . S
C481 O482 1.235 . S
C481 O508 1.289 . S
O482 C481 1.235 . S
C483 C485 1.400 . S
C483 N486 1.351 . S
C483 C488 1.501 . S
C484 C485 1.387 . S
C484 N487 1.341 . S
C485 C483 1.400 . S
C485 C484 1.387 . S
N486 Co477 2.022 . S
N486 C483 1.351 . S
N486 N487 1.365 . S
N487 C484 1.341 . S
N487 N486 1.365 . S
N487 H507 0.862 . S
C488 C483 1.501 . S
C488 H489 0.961 . S
C488 H490 0.961 . S
C488 H491 0.960 . S
H489 C488 0.961 . S
H490 C488 0.961 . S
H491 C488 0.960 . S
C492 N493 1.342 . S
C492 C496 1.401 . S
C492 C497 1.499 . S
N493 Co476 1.989 . S
N493 C492 1.342 . S
N493 N494 1.388 . S
N494 Co477 1.993 . S
N494 N493 1.388 . S
N494 C495 1.346 . S
C495 N494 1.346 . S
C495 C496 1.396 . S
C495 C505 1.510 . S
C496 C492 1.401 . S
C496 C495 1.396 . S
C497 C492 1.499 . S
C497 H498 0.959 . S
C497 H499 0.960 . S
C497 H500 0.961 . S
H498 C497 0.959 . S
H499 C497 0.960 . S
H500 C497 0.961 . S
O501 Co476 1.967 . S
O501 C509 1.258 . S
O502 Co477 1.941 . S
O502 C509 1.266 . S
H503 C505 0.959 . S
H504 C505 0.961 . S
C505 C495 1.510 . S
C505 H503 0.959 . S
C505 H504 0.961 . S
C505 H506 0.960 . S
H506 C505 0.960 . S
H507 N487 0.862 . S
O508 Co476 1.920 . S
O508 C481 1.289 . S
C509 O501 1.258 . S
C509 O502 1.266 . S
Co510 O513 1.970 . S
Co510 N527 1.989 . S
Co510 O535 1.967 . S
Co510 O542 1.920 . S
Co511 O514 1.966 . S
Co511 N520 2.022 . S
Co511 N528 1.993 . S
Co511 O536 1.941 . S
C512 O513 1.258 . S
C512 O514 1.263 . S
O513 Co510 1.970 . S
O513 C512 1.258 . S
O514 Co511 1.966 . S
O514 C512 1.263 . S
C515 O516 1.235 . S
C515 O542 1.289 . S
O516 C515 1.235 . S
C517 C519 1.400 . S
C517 N520 1.351 . S
C517 C522 1.501 . S
C518 C519 1.387 . S
C518 N521 1.341 . S
C519 C517 1.400 . S
C519 C518 1.387 . S
N520 Co511 2.022 . S
N520 C517 1.351 . S
N520 N521 1.365 . S
N521 C518 1.341 . S
N521 N520 1.365 . S
N521 H541 0.862 . S
C522 C517 1.501 . S
C522 H523 0.961 . S
C522 H524 0.961 . S
C522 H525 0.960 . S
H523 C522 0.961 . S
H524 C522 0.961 . S
H525 C522 0.960 . S
C526 N527 1.342 . S
C526 C530 1.401 . S
C526 C531 1.499 . S
N527 Co510 1.989 . S
N527 C526 1.342 . S
N527 N528 1.388 . S
N528 Co511 1.993 . S
N528 N527 1.388 . S
N528 C529 1.346 . S
C529 N528 1.346 . S
C529 C530 1.396 . S
C529 C539 1.510 . S
C530 C526 1.401 . S
C530 C529 1.396 . S
C531 C526 1.499 . S
C531 H532 0.959 . S
C531 H533 0.960 . S
C531 H534 0.961 . S
H532 C531 0.959 . S
H533 C531 0.960 . S
H534 C531 0.961 . S
O535 Co510 1.967 . S
O535 C543 1.258 . S
O536 Co511 1.941 . S
O536 C543 1.266 . S
H537 C539 0.959 . S
H538 C539 0.961 . S
C539 C529 1.510 . S
C539 H537 0.959 . S
C539 H538 0.961 . S
C539 H540 0.960 . S
H540 C539 0.960 . S
H541 N521 0.862 . S
O542 Co510 1.920 . S
O542 C515 1.289 . S
C543 O535 1.258 . S
C543 O536 1.266 . S
C544 C545 1.369 . S
C544 C546 1.419 1_556 S
C544 H548 0.930 . S
C545 C544 1.369 . S
C545 C554 1.429 . S
C546 C544 1.419 1_554 S
C546 C547 1.363 . S
C546 H549 0.929 . S
C547 C546 1.363 . S
C547 C553 1.428 . S
H548 C544 0.930 . S
H549 C546 0.929 . S
S550 N551 1.616 1_554 S
S550 N552 1.608 . S
N551 S550 1.616 1_556 S
N551 C554 1.350 . S
N552 S550 1.608 . S
N552 C553 1.351 . S
C553 C547 1.428 . S
C553 N552 1.351 . S
C553 C554 1.434 1_554 S
C554 C545 1.429 . S
C554 N551 1.350 . S
C554 C553 1.434 1_556 S
C555 C556 1.369 . S
C555 C557 1.419 1_556 S
C555 H559 0.930 . S
C556 C555 1.369 . S
C556 C565 1.429 . S
C557 C555 1.419 1_554 S
C557 C558 1.363 . S
C557 H560 0.929 . S
C558 C557 1.363 . S
C558 C564 1.428 . S
H559 C555 0.930 . S
H560 C557 0.929 . S
S561 N562 1.616 1_564 S
S561 N563 1.608 1_565 S
N562 S561 1.616 1_546 S
N562 C565 1.350 . S
N563 S561 1.608 1_545 S
N563 C564 1.351 . S
C564 C558 1.428 . S
C564 N563 1.351 . S
C564 C565 1.434 1_554 S
C565 C556 1.429 . S
C565 N562 1.350 . S
C565 C564 1.434 1_556 S
C566 C567 1.369 . S
C566 C568 1.419 1_556 S
C566 H570 0.930 . S
C567 C566 1.369 . S
C567 C576 1.429 . S
C568 C566 1.419 1_554 S
C568 C569 1.363 . S
C568 H571 0.929 . S
C569 C568 1.363 . S
C569 C575 1.428 . S
H570 C566 0.930 . S
H571 C568 0.929 . S
S572 N573 1.616 1_554 S
S572 N574 1.608 . S
N573 S572 1.616 1_556 S
N573 C576 1.350 . S
N574 S572 1.608 . S
N574 C575 1.351 . S
C575 C569 1.428 . S
C575 N574 1.351 . S
C575 C576 1.434 1_554 S
C576 C567 1.429 . S
C576 N573 1.350 . S
C576 C575 1.434 1_556 S
C577 C578 1.369 . S
C577 C579 1.419 1_556 S
C577 H581 0.930 . S
C578 C577 1.369 . S
C578 C587 1.429 . S
C579 C577 1.419 1_554 S
C579 C580 1.363 . S
C579 H582 0.929 . S
C580 C579 1.363 . S
C580 C586 1.428 . S
H581 C577 0.930 . S
H582 C579 0.929 . S
S583 N584 1.616 1_554 S
S583 N585 1.608 . S
N584 S583 1.616 1_556 S
N584 C587 1.350 . S
N585 S583 1.608 . S
N585 C586 1.351 . S
C586 C580 1.428 . S
C586 N585 1.351 . S
C586 C587 1.434 1_554 S
C587 C578 1.429 . S
C587 N584 1.350 . S
C587 C586 1.434 1_556 S
C588 C589 1.369 . S
C588 C590 1.419 . S
C588 H592 0.930 . S
C589 C588 1.369 . S
C589 C598 1.429 . S
C590 C588 1.419 . S
C590 C591 1.363 . S
C590 H593 0.929 . S
C591 C590 1.363 . S
C591 C597 1.428 . S
H592 C588 0.930 . S
H593 C590 0.929 . S
S594 N595 1.613 . S
S594 N596 1.610 . S
N595 S594 1.613 . S
N595 C598 1.350 . S
N596 S594 1.610 . S
N596 C597 1.351 . S
C597 C591 1.428 . S
C597 N596 1.351 . S
C597 C598 1.434 . S
C598 C589 1.429 . S
C598 N595 1.350 . S
C598 C597 1.434 . S
C599 C600 1.369 . S
C599 C601 1.419 . S
C599 H603 0.930 . S
C600 C599 1.369 . S
C600 C609 1.429 . S
C601 C599 1.419 . S
C601 C602 1.363 . S
C601 H604 0.929 . S
C602 C601 1.363 . S
C602 C608 1.428 . S
H603 C599 0.930 . S
H604 C601 0.929 . S
S605 N606 1.613 . S
S605 N607 1.610 . S
N606 S605 1.613 . S
N606 C609 1.350 . S
N607 S605 1.610 . S
N607 C608 1.351 . S
C608 C602 1.428 . S
C608 N607 1.351 . S
C608 C609 1.434 . S
C609 C600 1.429 . S
C609 N606 1.350 . S
C609 C608 1.434 . S
C610 C611 1.369 . S
C610 C612 1.419 . S
C610 H614 0.930 . S
C611 C610 1.369 . S
C611 C620 1.429 . S
C612 C610 1.419 . S
C612 C613 1.363 . S
C612 H615 0.929 . S
C613 C612 1.363 . S
C613 C619 1.428 . S
H614 C610 0.930 . S
H615 C612 0.929 . S
S616 N617 1.613 . S
S616 N618 1.610 . S
N617 S616 1.613 . S
N617 C620 1.350 . S
N618 S616 1.610 . S
N618 C619 1.351 . S
C619 C613 1.428 . S
C619 N618 1.351 . S
C619 C620 1.434 . S
C620 C611 1.429 . S
C620 N617 1.350 . S
C620 C619 1.434 . S
C621 C622 1.369 . S
C621 C623 1.419 . S
C621 H625 0.930 . S
C622 C621 1.369 . S
C622 C631 1.429 . S
C623 C621 1.419 . S
C623 C624 1.363 . S
C623 H626 0.929 . S
C624 C623 1.363 . S
C624 C630 1.428 . S
H625 C621 0.930 . S
H626 C623 0.929 . S
S627 N628 1.613 . S
S627 N629 1.610 . S
N628 S627 1.613 . S
N628 C631 1.350 . S
N629 S627 1.610 . S
N629 C630 1.351 . S
C630 C624 1.428 . S
C630 N629 1.351 . S
C630 C631 1.434 . S
C631 C622 1.429 . S
C631 N628 1.350 . S
C631 C630 1.434 . S
C632 C633 1.369 . S
C632 C634 1.419 . S
C632 H636 0.930 . S
C633 C632 1.369 . S
C633 C642 1.429 . S
C634 C632 1.419 . S
C634 C635 1.363 . S
C634 H637 0.929 . S
C635 C634 1.363 . S
C635 C641 1.428 . S
H636 C632 0.930 . S
H637 C634 0.929 . S
S638 N639 1.613 . S
S638 N640 1.610 . S
N639 S638 1.613 . S
N639 C642 1.350 . S
N640 S638 1.610 . S
N640 C641 1.351 . S
C641 C635 1.428 . S
C641 N640 1.351 . S
C641 C642 1.434 . S
C642 C633 1.429 . S
C642 N639 1.350 . S
C642 C641 1.434 . S
C643 C644 1.369 . S
C643 C645 1.419 . S
C643 H647 0.930 . S
C644 C643 1.369 . S
C644 C653 1.429 . S
C645 C643 1.419 . S
C645 C646 1.363 . S
C645 H648 0.929 . S
C646 C645 1.363 . S
C646 C652 1.428 . S
H647 C643 0.930 . S
H648 C645 0.929 . S
S649 N650 1.613 . S
S649 N651 1.610 . S
N650 S649 1.613 . S
N650 C653 1.350 . S
N651 S649 1.610 . S
N651 C652 1.351 . S
C652 C646 1.428 . S
C652 N651 1.351 . S
C652 C653 1.434 . S
C653 C644 1.429 . S
C653 N650 1.350 . S
C653 C652 1.434 . S
C654 C655 1.369 . S
C654 C656 1.419 . S
C654 H658 0.930 . S
C655 C654 1.369 . S
C655 C664 1.429 . S
C656 C654 1.419 . S
C656 C657 1.363 . S
C656 H659 0.929 . S
C657 C656 1.363 . S
C657 C663 1.428 . S
H658 C654 0.930 . S
H659 C656 0.929 . S
S660 N661 1.613 . S
S660 N662 1.610 . S
N661 S660 1.613 . S
N661 C664 1.350 . S
N662 S660 1.610 . S
N662 C663 1.351 . S
C663 C657 1.428 . S
C663 N662 1.351 . S
C663 C664 1.434 . S
C664 C655 1.429 . S
C664 N661 1.350 . S
C664 C663 1.434 . S
C665 C666 1.369 . S
C665 C667 1.419 . S
C665 H669 0.930 . S
C666 C665 1.369 . S
C666 C675 1.429 . S
C667 C665 1.419 . S
C667 C668 1.363 . S
C667 H670 0.929 . S
C668 C667 1.363 . S
C668 C674 1.428 . S
H669 C665 0.930 . S
H670 C667 0.929 . S
S671 N672 1.613 . S
S671 N673 1.610 . S
N672 S671 1.613 . S
N672 C675 1.350 . S
N673 S671 1.610 . S
N673 C674 1.351 . S
C674 C668 1.428 . S
C674 N673 1.351 . S
C674 C675 1.434 . S
C675 C666 1.429 . S
C675 N672 1.350 . S
C675 C674 1.434 . S
C676 C677 1.369 . S
C676 C678 1.419 . S
C676 H680 0.930 . S
C677 C676 1.369 . S
C677 C686 1.429 . S
C678 C676 1.419 . S
C678 C679 1.363 . S
C678 H681 0.929 . S
C679 C678 1.363 . S
C679 C685 1.428 . S
H680 C676 0.930 . S
H681 C678 0.929 . S
S682 N683 1.613 . S
S682 N684 1.610 . S
N683 S682 1.613 . S
N683 C686 1.350 . S
N684 S682 1.610 . S
N684 C685 1.351 . S
C685 C679 1.428 . S
C685 N684 1.351 . S
C685 C686 1.434 . S
C686 C677 1.429 . S
C686 N683 1.350 . S
C686 C685 1.434 . S
C687 C688 1.369 . S
C687 C689 1.419 . S
C687 H691 0.930 . S
C688 C687 1.369 . S
C688 C697 1.429 . S
C689 C687 1.419 . S
C689 C690 1.363 . S
C689 H692 0.929 . S
C690 C689 1.363 . S
C690 C696 1.428 . S
H691 C687 0.930 . S
H692 C689 0.929 . S
S693 N694 1.613 . S
S693 N695 1.610 . S
N694 S693 1.613 . S
N694 C697 1.350 . S
N695 S693 1.610 . S
N695 C696 1.351 . S
C696 C690 1.428 . S
C696 N695 1.351 . S
C696 C697 1.434 . S
C697 C688 1.429 . S
C697 N694 1.350 . S
C697 C696 1.434 . S
C698 C699 1.369 . S
C698 C700 1.419 . S
C698 H702 0.930 . S
C699 C698 1.369 . S
C699 C708 1.429 . S
C700 C698 1.419 . S
C700 C701 1.363 . S
C700 H703 0.929 . S
C701 C700 1.363 . S
C701 C707 1.428 . S
H702 C698 0.930 . S
H703 C700 0.929 . S
S704 N705 1.613 . S
S704 N706 1.610 . S
N705 S704 1.613 . S
N705 C708 1.350 . S
N706 S704 1.610 . S
N706 C707 1.351 . S
C707 C701 1.428 . S
C707 N706 1.351 . S
C707 C708 1.434 . S
C708 C699 1.429 . S
C708 N705 1.350 . S
C708 C707 1.434 . S
C709 C710 1.369 . S
C709 C711 1.419 . S
C709 H713 0.930 . S
C710 C709 1.369 . S
C710 C719 1.429 . S
C711 C709 1.419 . S
C711 C712 1.363 . S
C711 H714 0.929 . S
C712 C711 1.363 . S
C712 C718 1.428 . S
H713 C709 0.930 . S
H714 C711 0.929 . S
S715 N716 1.613 . S
S715 N717 1.610 . S
N716 S715 1.613 . S
N716 C719 1.350 . S
N717 S715 1.610 . S
N717 C718 1.351 . S
C718 C712 1.428 . S
C718 N717 1.351 . S
C718 C719 1.434 . S
C719 C710 1.429 . S
C719 N716 1.350 . S
C719 C718 1.434 . S
C720 C721 1.369 . S
C720 C722 1.419 . S
C720 H724 0.930 . S
C721 C720 1.369 . S
C721 C730 1.429 . S
C722 C720 1.419 . S
C722 C723 1.363 . S
C722 H725 0.929 . S
C723 C722 1.363 . S
C723 C729 1.428 . S
H724 C720 0.930 . S
H725 C722 0.929 . S
S726 N727 1.613 . S
S726 N728 1.610 . S
N727 S726 1.613 . S
N727 C730 1.350 . S
N728 S726 1.610 . S
N728 C729 1.351 . S
C729 C723 1.428 . S
C729 N728 1.351 . S
C729 C730 1.434 . S
C730 C721 1.429 . S
C730 N727 1.350 . S
C730 C729 1.434 . S
C731 C732 1.369 . S
C731 C733 1.419 . S
C731 H735 0.930 . S
C732 C731 1.369 . S
C732 C741 1.429 . S
C733 C731 1.419 . S
C733 C734 1.363 . S
C733 H736 0.929 . S
C734 C733 1.363 . S
C734 C740 1.428 . S
H735 C731 0.930 . S
H736 C733 0.929 . S
S737 N738 1.613 . S
S737 N739 1.610 . S
N738 S737 1.613 . S
N738 C741 1.350 . S
N739 S737 1.610 . S
N739 C740 1.351 . S
C740 C734 1.428 . S
C740 N739 1.351 . S
C740 C741 1.434 . S
C741 C732 1.429 . S
C741 N738 1.350 . S
C741 C740 1.434 . S
C742 C743 1.369 . S
C742 C744 1.419 . S
C742 H746 0.930 . S
C743 C742 1.369 . S
C743 C752 1.429 . S
C744 C742 1.419 . S
C744 C745 1.363 . S
C744 H747 0.929 . S
C745 C744 1.363 . S
C745 C751 1.428 . S
H746 C742 0.930 . S
H747 C744 0.929 . S
S748 N749 1.613 . S
S748 N750 1.610 . S
N749 S748 1.613 . S
N749 C752 1.350 . S
N750 S748 1.610 . S
N750 C751 1.351 . S
C751 C745 1.428 . S
C751 N750 1.351 . S
C751 C752 1.434 . S
C752 C743 1.429 . S
C752 N749 1.350 . S
C752 C751 1.434 . S
C753 C754 1.369 . S
C753 C755 1.419 . S
C753 H757 0.930 . S
C754 C753 1.369 . S
C754 C763 1.429 . S
C755 C753 1.419 . S
C755 C756 1.363 . S
C755 H758 0.929 . S
C756 C755 1.363 . S
C756 C762 1.428 . S
H757 C753 0.930 . S
H758 C755 0.929 . S
S759 N760 1.613 . S
S759 N761 1.610 . S
N760 S759 1.613 . S
N760 C763 1.350 . S
N761 S759 1.610 . S
N761 C762 1.351 . S
C762 C756 1.428 . S
C762 N761 1.351 . S
C762 C763 1.434 . S
C763 C754 1.429 . S
C763 N760 1.350 . S
C763 C762 1.434 . S
C764 C765 1.369 . S
C764 C766 1.419 . S
C764 H768 0.930 . S
C765 C764 1.369 . S
C765 C774 1.429 . S
C766 C764 1.419 . S
C766 C767 1.363 . S
C766 H769 0.929 . S
C767 C766 1.363 . S
C767 C773 1.428 . S
H768 C764 0.930 . S
H769 C766 0.929 . S
S770 N771 1.613 . S
S770 N772 1.610 . S
N771 S770 1.613 . S
N771 C774 1.350 . S
N772 S770 1.610 . S
N772 C773 1.351 . S
C773 C767 1.428 . S
C773 N772 1.351 . S
C773 C774 1.434 . S
C774 C765 1.429 . S
C774 N771 1.350 . S
C774 C773 1.434 . S
C775 C776 1.369 . S
C775 C777 1.419 . S
C775 H779 0.930 . S
C776 C775 1.369 . S
C776 C785 1.429 . S
C777 C775 1.419 . S
C777 C778 1.363 . S
C777 H780 0.929 . S
C778 C777 1.363 . S
C778 C784 1.428 . S
H779 C775 0.930 . S
H780 C777 0.929 . S
S781 N782 1.613 . S
S781 N783 1.610 . S
N782 S781 1.613 . S
N782 C785 1.350 . S
N783 S781 1.610 . S
N783 C784 1.351 . S
C784 C778 1.428 . S
C784 N783 1.351 . S
C784 C785 1.434 . S
C785 C776 1.429 . S
C785 N782 1.350 . S
C785 C784 1.434 . S
C786 C787 1.369 . S
C786 C788 1.419 . S
C786 H790 0.930 . S
C787 C786 1.369 . S
C787 C796 1.429 . S
C788 C786 1.419 . S
C788 C789 1.363 . S
C788 H791 0.929 . S
C789 C788 1.363 . S
C789 C795 1.428 . S
H790 C786 0.930 . S
H791 C788 0.929 . S
S792 N793 1.613 . S
S792 N794 1.610 . S
N793 S792 1.613 . S
N793 C796 1.350 . S
N794 S792 1.610 . S
N794 C795 1.351 . S
C795 C789 1.428 . S
C795 N794 1.351 . S
C795 C796 1.434 . S
C796 C787 1.429 . S
C796 N793 1.350 . S
C796 C795 1.434 . S
C797 C798 1.369 . S
C797 C799 1.419 . S
C797 H801 0.930 . S
C798 C797 1.369 . S
C798 C807 1.429 . S
C799 C797 1.419 . S
C799 C800 1.363 . S
C799 H802 0.929 . S
C800 C799 1.363 . S
C800 C806 1.428 . S
H801 C797 0.930 . S
H802 C799 0.929 . S
S803 N804 1.613 . S
S803 N805 1.610 . S
N804 S803 1.613 . S
N804 C807 1.350 . S
N805 S803 1.610 . S
N805 C806 1.351 . S
C806 C800 1.428 . S
C806 N805 1.351 . S
C806 C807 1.434 . S
C807 C798 1.429 . S
C807 N804 1.350 . S
C807 C806 1.434 . S
C808 C809 1.369 . S
C808 C810 1.419 . S
C808 H812 0.930 . S
C809 C808 1.369 . S
C809 C818 1.429 . S
C810 C808 1.419 . S
C810 C811 1.363 . S
C810 H813 0.929 . S
C811 C810 1.363 . S
C811 C817 1.428 . S
H812 C808 0.930 . S
H813 C810 0.929 . S
S814 N815 1.613 . S
S814 N816 1.610 . S
N815 S814 1.613 . S
N815 C818 1.350 . S
N816 S814 1.610 . S
N816 C817 1.351 . S
C817 C811 1.428 . S
C817 N816 1.351 . S
C817 C818 1.434 . S
C818 C809 1.429 . S
C818 N815 1.350 . S
C818 C817 1.434 . S
C819 C820 1.369 . S
C819 C821 1.419 . S
C819 H823 0.930 . S
C820 C819 1.369 . S
C820 C829 1.429 . S
C821 C819 1.419 . S
C821 C822 1.363 . S
C821 H824 0.929 . S
C822 C821 1.363 . S
C822 C828 1.428 . S
H823 C819 0.930 . S
H824 C821 0.929 . S
S825 N826 1.613 . S
S825 N827 1.610 . S
N826 S825 1.613 . S
N826 C829 1.350 . S
N827 S825 1.610 . S
N827 C828 1.351 . S
C828 C822 1.428 . S
C828 N827 1.351 . S
C828 C829 1.434 . S
C829 C820 1.429 . S
C829 N826 1.350 . S
C829 C828 1.434 . S
C830 C831 1.369 . S
C830 C832 1.419 . S
C830 H834 0.930 . S
C831 C830 1.369 . S
C831 C840 1.429 . S
C832 C830 1.419 . S
C832 C833 1.363 . S
C832 H835 0.929 . S
C833 C832 1.363 . S
C833 C839 1.428 . S
H834 C830 0.930 . S
H835 C832 0.929 . S
S836 N837 1.613 . S
S836 N838 1.610 . S
N837 S836 1.613 . S
N837 C840 1.350 . S
N838 S836 1.610 . S
N838 C839 1.351 . S
C839 C833 1.428 . S
C839 N838 1.351 . S
C839 C840 1.434 . S
C840 C831 1.429 . S
C840 N837 1.350 . S
C840 C839 1.434 . S
C841 C842 1.369 . S
C841 C843 1.419 . S
C841 H845 0.930 . S
C842 C841 1.369 . S
C842 C851 1.429 . S
C843 C841 1.419 . S
C843 C844 1.363 . S
C843 H846 0.929 . S
C844 C843 1.363 . S
C844 C850 1.428 . S
H845 C841 0.930 . S
H846 C843 0.929 . S
S847 N848 1.613 . S
S847 N849 1.610 . S
N848 S847 1.613 . S
N848 C851 1.350 . S
N849 S847 1.610 . S
N849 C850 1.351 . S
C850 C844 1.428 . S
C850 N849 1.351 . S
C850 C851 1.434 . S
C851 C842 1.429 . S
C851 N848 1.350 . S
C851 C850 1.434 . S
C852 C853 1.369 . S
C852 C854 1.419 . S
C852 H856 0.930 . S
C853 C852 1.369 . S
C853 C862 1.429 . S
C854 C852 1.419 . S
C854 C855 1.363 . S
C854 H857 0.929 . S
C855 C854 1.363 . S
C855 C861 1.428 . S
H856 C852 0.930 . S
H857 C854 0.929 . S
S858 N859 1.613 . S
S858 N860 1.610 . S
N859 S858 1.613 . S
N859 C862 1.350 . S
N860 S858 1.610 . S
N860 C861 1.351 . S
C861 C855 1.428 . S
C861 N860 1.351 . S
C861 C862 1.434 . S
C862 C853 1.429 . S
C862 N859 1.350 . S
C862 C861 1.434 . S
C863 C864 1.369 . S
C863 C865 1.419 . S
C863 H867 0.930 . S
C864 C863 1.369 . S
C864 C873 1.429 . S
C865 C863 1.419 . S
C865 C866 1.363 . S
C865 H868 0.929 . S
C866 C865 1.363 . S
C866 C872 1.428 . S
H867 C863 0.930 . S
H868 C865 0.929 . S
S869 N870 1.613 . S
S869 N871 1.610 . S
N870 S869 1.613 . S
N870 C873 1.350 . S
N871 S869 1.610 . S
N871 C872 1.351 . S
C872 C866 1.428 . S
C872 N871 1.351 . S
C872 C873 1.434 . S
C873 C864 1.429 . S
C873 N870 1.350 . S
C873 C872 1.434 . S
C874 C875 1.369 . S
C874 C876 1.419 . S
C874 H878 0.930 . S
C875 C874 1.369 . S
C875 C884 1.429 . S
C876 C874 1.419 . S
C876 C877 1.363 . S
C876 H879 0.929 . S
C877 C876 1.363 . S
C877 C883 1.428 . S
H878 C874 0.930 . S
H879 C876 0.929 . S
S880 N881 1.613 . S
S880 N882 1.610 . S
N881 S880 1.613 . S
N881 C884 1.350 . S
N882 S880 1.610 . S
N882 C883 1.351 . S
C883 C877 1.428 . S
C883 N882 1.351 . S
C883 C884 1.434 . S
C884 C875 1.429 . S
C884 N881 1.350 . S
C884 C883 1.434 . S
C885 C886 1.369 . S
C885 C887 1.419 . S
C885 H889 0.930 . S
C886 C885 1.369 . S
C886 C895 1.429 . S
C887 C885 1.419 . S
C887 C888 1.363 . S
C887 H890 0.929 . S
C888 C887 1.363 . S
C888 C894 1.428 . S
H889 C885 0.930 . S
H890 C887 0.929 . S
S891 N892 1.613 . S
S891 N893 1.610 . S
N892 S891 1.613 . S
N892 C895 1.350 . S
N893 S891 1.610 . S
N893 C894 1.351 . S
C894 C888 1.428 . S
C894 N893 1.351 . S
C894 C895 1.434 . S
C895 C886 1.429 . S
C895 N892 1.350 . S
C895 C894 1.434 . S
C896 C897 1.369 . S
C896 C898 1.419 . S
C896 H900 0.930 . S
C897 C896 1.369 . S
C897 C906 1.429 1_655 S
C898 C896 1.419 . S
C898 C899 1.363 1_655 S
C898 H901 0.929 . S
C899 C898 1.363 1_455 S
C899 C905 1.428 . S
H900 C896 0.930 . S
H901 C898 0.929 . S
S902 N903 1.613 . S
S902 N904 1.610 . S
N903 S902 1.613 . S
N903 C906 1.350 . S
N904 S902 1.610 . S
N904 C905 1.351 . S
C905 C899 1.428 . S
C905 N904 1.351 . S
C905 C906 1.434 . S
C906 C897 1.429 1_455 S
C906 N903 1.350 . S
C906 C905 1.434 . S
C907 C908 1.369 1_545 S
C907 C909 1.419 . S
C907 H911 0.930 . S
C908 C907 1.369 1_565 S
C908 C917 1.429 . S
C909 C907 1.419 . S
C909 C910 1.363 . S
C909 H912 0.929 . S
C910 C909 1.363 . S
C910 C916 1.428 1_545 S
H911 C907 0.930 . S
H912 C909 0.929 . S
S913 N914 1.613 . S
S913 N915 1.610 . S
N914 S913 1.613 . S
N914 C917 1.350 . S
N915 S913 1.610 . S
N915 C916 1.351 . S
C916 C910 1.428 1_565 S
C916 N915 1.351 . S
C916 C917 1.434 . S
C917 C908 1.429 . S
C917 N914 1.350 . S
C917 C916 1.434 . S
C918 C919 1.369 . S
C918 C920 1.419 1_545 S
C918 H922 0.930 . S
C919 C918 1.369 . S
C919 C928 1.429 . S
C920 C918 1.419 1_565 S
C920 C921 1.363 . S
C920 H923 0.929 . S
C921 C920 1.363 . S
C921 C927 1.428 . S
H922 C918 0.930 . S
H923 C920 0.929 . S
S924 N925 1.613 1_565 S
S924 N926 1.610 . S
N925 S924 1.613 1_545 S
N925 C928 1.350 . S
N926 S924 1.610 . S
N926 C927 1.351 . S
C927 C921 1.428 . S
C927 N926 1.351 . S
C927 C928 1.434 1_565 S
C928 C919 1.429 . S
C928 N925 1.350 . S
C928 C927 1.434 1_545 S
C929 C930 1.369 . S
C929 C931 1.419 1_655 S
C929 H933 0.930 . S
C930 C929 1.369 . S
C930 C939 1.429 . S
C931 C929 1.419 1_455 S
C931 C932 1.363 . S
C931 H934 0.929 . S
C932 C931 1.363 . S
C932 C938 1.428 . S
H933 C929 0.930 . S
H934 C931 0.929 . S
S935 N936 1.613 1_455 S
S935 N937 1.610 . S
N936 S935 1.613 1_655 S
N936 C939 1.350 . S
N937 S935 1.610 . S
N937 C938 1.351 . S
C938 C932 1.428 . S
C938 N937 1.351 . S
C938 C939 1.434 1_455 S
C939 C930 1.429 . S
C939 N936 1.350 . S
C939 C938 1.434 1_655 S
C940 C941 1.369 1_455 S
C940 C942 1.419 . S
C940 H944 0.930 . S
C941 C940 1.369 1_655 S
C941 C950 1.429 . S
C942 C940 1.419 . S
C942 C943 1.363 . S
C942 H945 0.929 . S
C943 C942 1.363 . S
C943 C949 1.428 1_455 S
H944 C940 0.930 . S
H945 C942 0.929 . S
S946 N947 1.613 . S
S946 N948 1.610 . S
N947 S946 1.613 . S
N947 C950 1.350 . S
N948 S946 1.610 . S
N948 C949 1.351 . S
C949 C943 1.428 1_655 S
C949 N948 1.351 . S
C949 C950 1.434 . S
C950 C941 1.429 . S
C950 N947 1.350 . S
C950 C949 1.434 . S
C951 C952 1.369 . S
C951 C953 1.419 . S
C951 H955 0.930 . S
C952 C951 1.369 . S
C952 C961 1.429 1_545 S
C953 C951 1.419 . S
C953 C954 1.363 1_545 S
C953 H956 0.929 . S
C954 C953 1.363 1_565 S
C954 C960 1.428 . S
H955 C951 0.930 . S
H956 C953 0.929 . S
S957 N958 1.613 . S
S957 N959 1.610 . S
N958 S957 1.613 . S
N958 C961 1.350 . S
N959 S957 1.610 . S
N959 C960 1.351 . S
C960 C954 1.428 . S
C960 N959 1.351 . S
C960 C961 1.434 . S
C961 C952 1.429 1_565 S
C961 N958 1.350 . S
C961 C960 1.434 . S
C962 C963 1.369 . S
C962 C964 1.419 1_565 S
C962 H966 0.930 . S
C963 C962 1.369 . S
C963 C972 1.429 . S
C964 C962 1.419 1_545 S
C964 C965 1.363 . S
C964 H967 0.929 . S
C965 C964 1.363 . S
C965 C971 1.428 . S
H966 C962 0.930 . S
H967 C964 0.929 . S
S968 N969 1.613 1_545 S
S968 N970 1.610 . S
N969 S968 1.613 1_565 S
N969 C972 1.350 . S
N970 S968 1.610 . S
N970 C971 1.351 . S
C971 C965 1.428 . S
C971 N970 1.351 . S
C971 C972 1.434 1_545 S
C972 C963 1.429 . S
C972 N969 1.350 . S
C972 C971 1.434 1_565 S
C973 C974 1.369 . S
C973 C975 1.419 1_655 S
C973 H977 0.930 . S
C974 C973 1.369 . S
C974 C983 1.429 . S
C975 C973 1.419 1_455 S
C975 C976 1.363 . S
C975 H978 0.929 . S
C976 C975 1.363 . S
C976 C982 1.428 . S
H977 C973 0.930 . S
H978 C975 0.929 . S
S979 N980 1.613 . S
S979 N981 1.610 1_655 S
N980 S979 1.613 . S
N980 C983 1.350 . S
N981 S979 1.610 1_455 S
N981 C982 1.351 . S
C982 C976 1.428 . S
C982 N981 1.351 . S
C982 C983 1.434 1_455 S
C983 C974 1.429 . S
C983 N980 1.350 . S
C983 C982 1.434 1_655 S
C545 C342 1.514 . S
C547 C2 1.514 . S
C556 C376 1.514 . S
C558 C36 1.515 . S
C567 C274 1.516 . S
C569 C70 1.516 . S
C578 C308 1.515 . S
C580 C104 1.515 . S
C589 C138 1.515 . S
C591 C478 1.515 . S
C600 C172 1.515 . S
C602 C512 1.515 . S
C611 C410 1.515 . S
C613 C206 1.515 . S
C622 C444 1.516 . S
C624 C240 1.516 . S
C633 C135 1.564 1_545 S
C635 C5 1.574 . S
C644 C39 1.573 . S
C646 C33 1.563 1_655 S
C655 C67 1.562 1_565 S
C657 C73 1.574 . S
C666 C107 1.573 . S
C668 C101 1.561 1_455 S
C677 C203 1.563 . S
C679 C141 1.574 . S
C688 C237 1.564 . S
C690 C175 1.574 . S
C699 C271 1.560 . S
C701 C209 1.573 . S
C710 C243 1.573 . S
C712 C169 1.561 . S
C721 C277 1.573 . S
C723 C407 1.563 1_565 S
C732 C311 1.573 . S
C734 C305 1.563 1_455 S
C743 C339 1.561 1_545 S
C745 C345 1.574 . S
C754 C379 1.573 . S
C756 C373 1.563 1_655 S
C765 C413 1.573 . S
C767 C475 1.563 . S
C776 C447 1.573 . S
C778 C509 1.563 . S
C787 C481 1.574 . S
C789 C543 1.562 . S
C798 C441 1.562 . S
C800 C515 1.573 . S
C809 C258 1.565 . S
C811 C20 1.563 . S
C820 C54 1.562 . S
C822 C156 1.565 . S
C831 C190 1.564 . S
C833 C88 1.563 . S
C842 C224 1.564 . S
C844 C122 1.563 . S
C853 C292 1.563 . S
C855 C530 1.565 . S
C864 C428 1.562 . S
C866 C326 1.565 . S
C875 C360 1.566 . S
C877 C462 1.563 . S
C886 C496 1.563 . S
C888 C394 1.564 . S
C897 C77 1.238 . S
C899 C9 1.243 . S
C908 C111 1.236 . S
C910 C43 1.235 . S
C919 C145 1.242 . S
C921 C213 1.234 . S
C930 C179 1.234 . S
C932 C247 1.237 . S
C941 C281 1.245 . S
C943 C349 1.235 . S
C952 C383 1.235 . S
C954 C315 1.244 . S
C963 C417 1.241 . S
C965 C485 1.242 . S
C974 C519 1.233 . S
C976 C451 1.243 . S
