# Generated by pormake.
# Topology fny, (5)-cn, num edge types: 1
# Building blocks:
#     Node 0, Type 0, BuildingBlock: XOMCOT_clean_sbu_0, # of connection points: 5
#     Node 1, Type 0, BuildingBlock: XOMCOT_clean_sbu_0, # of connection points: 5
#     Node 2, Type 0, BuildingBlock: XOMCOT_clean_sbu_0, # of connection points: 5
#     Node 3, Type 0, BuildingBlock: XOMCOT_clean_sbu_0, # of connection points: 5
#     Node 4, Type 0, BuildingBlock: XOMCOT_clean_sbu_0, # of connection points: 5
#     Node 5, Type 0, BuildingBlock: XOMCOT_clean_sbu_0, # of connection points: 5
#     Node 6, Type 0, BuildingBlock: XOMCOT_clean_sbu_0, # of connection points: 5
#     Node 7, Type 0, BuildingBlock: XOMCOT_clean_sbu_0, # of connection points: 5
#     Node 8, Type 0, BuildingBlock: XOMCOT_clean_sbu_0, # of connection points: 5
#     Node 9, Type 0, BuildingBlock: XOMCOT_clean_sbu_0, # of connection points: 5
#     Node 10, Type 0, BuildingBlock: XOMCOT_clean_sbu_0, # of connection points: 5
#     Node 11, Type 0, BuildingBlock: XOMCOT_clean_sbu_0, # of connection points: 5
#     Edge 12, Type (0, 0), BuildingBlock: AJUNOK_clean_linker_0, # of connection points: 2
#     Edge 13, Type (0, 0), BuildingBlock: AJUNOK_clean_linker_0, # of connection points: 2
#     Edge 14, Type (0, 0), BuildingBlock: AJUNOK_clean_linker_0, # of connection points: 2
#     Edge 15, Type (0, 0), BuildingBlock: AJUNOK_clean_linker_0, # of connection points: 2
#     Edge 16, Type (0, 0), BuildingBlock: AJUNOK_clean_linker_0, # of connection points: 2
#     Edge 17, Type (0, 0), BuildingBlock: AJUNOK_clean_linker_0, # of connection points: 2
#     Edge 18, Type (0, 0), BuildingBlock: AJUNOK_clean_linker_0, # of connection points: 2
#     Edge 19, Type (0, 0), BuildingBlock: AJUNOK_clean_linker_0, # of connection points: 2
#     Edge 20, Type (0, 0), BuildingBlock: AJUNOK_clean_linker_0, # of connection points: 2
#     Edge 21, Type (0, 0), BuildingBlock: AJUNOK_clean_linker_0, # of connection points: 2
#     Edge 22, Type (0, 0), BuildingBlock: AJUNOK_clean_linker_0, # of connection points: 2
#     Edge 23, Type (0, 0), BuildingBlock: AJUNOK_clean_linker_0, # of connection points: 2
#     Edge 24, Type (0, 0), BuildingBlock: AJUNOK_clean_linker_0, # of connection points: 2
#     Edge 25, Type (0, 0), BuildingBlock: AJUNOK_clean_linker_0, # of connection points: 2
#     Edge 26, Type (0, 0), BuildingBlock: AJUNOK_clean_linker_0, # of connection points: 2
#     Edge 27, Type (0, 0), BuildingBlock: AJUNOK_clean_linker_0, # of connection points: 2
#     Edge 28, Type (0, 0), BuildingBlock: AJUNOK_clean_linker_0, # of connection points: 2
#     Edge 29, Type (0, 0), BuildingBlock: AJUNOK_clean_linker_0, # of connection points: 2
#     Edge 30, Type (0, 0), BuildingBlock: AJUNOK_clean_linker_0, # of connection points: 2
#     Edge 31, Type (0, 0), BuildingBlock: AJUNOK_clean_linker_0, # of connection points: 2
#     Edge 32, Type (0, 0), BuildingBlock: AJUNOK_clean_linker_0, # of connection points: 2
#     Edge 33, Type (0, 0), BuildingBlock: AJUNOK_clean_linker_0, # of connection points: 2
#     Edge 34, Type (0, 0), BuildingBlock: AJUNOK_clean_linker_0, # of connection points: 2
#     Edge 35, Type (0, 0), BuildingBlock: AJUNOK_clean_linker_0, # of connection points: 2
#     Edge 36, Type (0, 0), BuildingBlock: AJUNOK_clean_linker_0, # of connection points: 2
#     Edge 37, Type (0, 0), BuildingBlock: AJUNOK_clean_linker_0, # of connection points: 2
#     Edge 38, Type (0, 0), BuildingBlock: AJUNOK_clean_linker_0, # of connection points: 2
#     Edge 39, Type (0, 0), BuildingBlock: AJUNOK_clean_linker_0, # of connection points: 2
#     Edge 40, Type (0, 0), BuildingBlock: AJUNOK_clean_linker_0, # of connection points: 2
#     Edge 41, Type (0, 0), BuildingBlock: AJUNOK_clean_linker_0, # of connection points: 2
# Relax obj value: 0.306
# Max RMSD: 0.232
# Mean RMSD: 0.232
data_MOF--net-fny--node1-XOMCOT_clean_sbu_0--edge1-AJUNOK_clean_linker_0
_symmetry_space_group_name_H-M    P1
_symmetry_Int_Tables_number       1
_symmetry_cell_setting            triclinic
loop_
_symmetry_equiv_pos_as_xyz
'x, y, z'
_cell_length_a     45.235991
_cell_length_b     46.037793
_cell_length_c     18.121483
_cell_angle_alpha  90.019391
_cell_angle_beta   89.954801
_cell_angle_gamma 120.31578
loop_
_atom_site_label
_atom_site_type_symbol
_atom_site_fract_x
_atom_site_fract_y
_atom_site_fract_z
_atom_type_partial_charge
Co0 Co 0.38589 0.55332 0.31621 0.0
C1 C 0.45911 0.58134 0.34418 0.0
C2 C 0.44139 0.61115 0.39786 0.0
C3 C 0.47441 0.6218 0.41999 0.0
N4 N 0.43129 0.58463 0.35266 0.0
N5 N 0.48503 0.6019 0.38879 0.0
H6 H 0.45938 0.56132 0.31381 0.0
H7 H 0.42519 0.62022 0.41906 0.0
C8 C 0.41073 0.59953 0.18174 0.0
O9 O 0.40159 0.61922 0.21452 0.0
N10 N 0.34165 0.52223 0.27698 0.0
C11 C 0.32304 0.48902 0.29196 0.0
C12 C 0.30199 0.47293 0.23252 0.0
C13 C 0.33081 0.52609 0.21095 0.0
N14 N 0.30776 0.49642 0.18137 0.0
C15 C 0.40294 0.50403 0.3643 0.0
C16 C 0.4205 0.49047 0.22783 0.0
C17 C 0.42836 0.47814 0.29121 0.0
C18 C 0.41773 0.48372 0.35971 0.0
C19 C 0.40519 0.5103 0.23472 0.0
N20 N 0.39884 0.51884 0.30283 0.0
H21 H 0.3971 0.50977 0.41822 0.0
H22 H 0.3996 0.51954 0.18512 0.0
H23 H 0.32754 0.4769 0.3382 0.0
H24 H 0.34231 0.54966 0.18126 0.0
O25 O 0.36756 0.54151 0.4165 0.0
O26 O 0.36758 0.58197 0.35284 0.0
O27 O 0.40456 0.57209 0.21328 0.0
C28 C 0.35944 0.56469 0.41429 0.0
H29 H 0.48727 0.63902 0.46524 0.0
H30 H 0.28671 0.44602 0.22409 0.0
H31 H 0.42691 0.48553 0.17344 0.0
H32 H 0.42282 0.47431 0.41003 0.0
Co33 Co 0.8536 0.36476 0.80144 0.0
C34 C 0.89518 0.42906 0.87696 0.0
C35 C 0.84247 0.41578 0.87333 0.0
C36 C 0.86109 0.44647 0.90787 0.0
N37 N 0.86404 0.40484 0.85473 0.0
N38 N 0.8943 0.45474 0.90909 0.0
H39 H 0.91852 0.42863 0.87007 0.0
H40 H 0.81517 0.4023 0.86344 0.0
C41 C 0.86184 0.41776 0.68642 0.0
O42 O 0.88497 0.44096 0.72952 0.0
N43 N 0.84382 0.32497 0.74865 0.0
C44 C 0.85601 0.30425 0.76401 0.0
C45 C 0.85302 0.28578 0.70169 0.0
C46 C 0.83305 0.31849 0.67868 0.0
N47 N 0.83934 0.2956 0.64826 0.0
C48 C 0.92063 0.37633 0.83902 0.0
C49 C 0.95616 0.41572 0.71955 0.0
C50 C 0.97479 0.41362 0.77918 0.0
C51 C 0.95643 0.3923 0.83777 0.0
C52 C 0.92017 0.39867 0.72226 0.0
N53 N 0.90287 0.38152 0.7843 0.0
H54 H 0.90758 0.36169 0.88712 0.0
H55 H 0.90673 0.39984 0.67452 0.0
H56 H 0.86879 0.30455 0.81465 0.0
H57 H 0.8226 0.33154 0.64888 0.0
O58 O 0.84788 0.34078 0.89461 0.0
O59 O 0.80589 0.34252 0.83859 0.0
O60 O 0.84801 0.3865 0.70539 0.0
C61 C 0.8157 0.3317 0.89462 0.0
H62 H 0.85063 0.46048 0.93402 0.0
H63 H 0.86239 0.26847 0.69449 0.0
H64 H 0.96932 0.43058 0.67135 0.0
H65 H 0.96969 0.38928 0.88424 0.0
Co66 Co 0.52188 0.83147 0.30863 0.0
C67 C 0.49441 0.86788 0.37895 0.0
C68 C 0.45887 0.83453 0.29899 0.0
C69 C 0.45107 0.85936 0.31394 0.0
N70 N 0.48678 0.84072 0.33846 0.0
N71 N 0.4745 0.88092 0.36218 0.0
H72 H 0.51634 0.87971 0.41532 0.0
H73 H 0.44685 0.8152 0.25735 0.0
C74 C 0.51766 0.83315 0.13875 0.0
O75 O 0.55119 0.84806 0.1351 0.0
N76 N 0.55704 0.8221 0.27826 0.0
C77 C 0.59113 0.8391 0.29108 0.0
C78 C 0.60627 0.82627 0.2462 0.0
C79 C 0.55181 0.7979 0.23015 0.0
N80 N 0.5814 0.80053 0.20793 0.0
C81 C 0.57758 0.89765 0.34416 0.0
C82 C 0.56455 0.93341 0.23999 0.0
C83 C 0.59067 0.95124 0.29166 0.0
C84 C 0.59733 0.93274 0.34343 0.0
C85 C 0.54546 0.8981 0.24226 0.0
N86 N 0.55253 0.8803 0.29285 0.0
H87 H 0.58163 0.8846 0.38881 0.0
H88 H 0.52358 0.8856 0.20647 0.0
H89 H 0.60489 0.8605 0.3266 0.0
H90 H 0.52723 0.78141 0.2047 0.0
O91 O 0.53354 0.82886 0.41125 0.0
O92 O 0.49536 0.7851 0.34883 0.0
O93 O 0.50265 0.8245 0.20206 0.0
C94 C 0.51235 0.79669 0.41039 0.0
H95 H 0.43104 0.86226 0.28868 0.0
H96 H 0.63348 0.83688 0.23732 0.0
H97 H 0.55776 0.94669 0.20037 0.0
H98 H 0.61717 0.94527 0.38457 0.0
Co99 Co 0.7398 0.51724 0.80051 0.0
C100 C 0.66832 0.4716 0.84479 0.0
C101 C 0.6921 0.44516 0.80231 0.0
C102 C 0.65735 0.42298 0.80701 0.0
N103 N 0.69877 0.47581 0.82501 0.0
N104 N 0.64238 0.44004 0.83196 0.0
H105 H 0.66488 0.49099 0.86883 0.0
H106 H 0.71096 0.43982 0.77956 0.0
C107 C 0.70069 0.48805 0.6579 0.0
O108 O 0.67446 0.48672 0.69201 0.0
N109 N 0.78098 0.55773 0.774 0.0
C110 C 0.79192 0.58908 0.79958 0.0
C111 C 0.81613 0.61186 0.7513 0.0
C112 C 0.79925 0.56164 0.71294 0.0
N113 N 0.82064 0.5943 0.69756 0.0
C114 C 0.70644 0.55235 0.85404 0.0
C115 C 0.69486 0.57335 0.72029 0.0
C116 C 0.68321 0.58158 0.78479 0.0
C117 C 0.69054 0.57162 0.85237 0.0
C118 C 0.71252 0.55558 0.72495 0.0
N119 N 0.71547 0.54261 0.79067 0.0
H120 H 0.71083 0.54467 0.90719 0.0
H121 H 0.7235 0.55213 0.67519 0.0
H122 H 0.78063 0.59506 0.84548 0.0
H123 H 0.7942 0.54128 0.67559 0.0
O124 O 0.75252 0.5274 0.90409 0.0
O125 O 0.76729 0.49729 0.83648 0.0
O126 O 0.73001 0.50079 0.69112 0.0
C127 C 0.76861 0.51089 0.90065 0.0
H128 H 0.64417 0.39644 0.79368 0.0
H129 H 0.82701 0.63888 0.75166 0.0
H130 H 0.69019 0.57995 0.66612 0.0
H131 H 0.68397 0.57848 0.9044 0.0
Co132 Co 0.24984 0.69052 0.332 0.0
C133 C 0.19639 0.64385 0.42653 0.0
C134 C 0.23283 0.62758 0.4114 0.0
C135 C 0.20938 0.60792 0.46492 0.0
N136 N 0.22458 0.65036 0.38871 0.0
N137 N 0.18675 0.61867 0.47447 0.0
H138 H 0.18529 0.65977 0.42554 0.0
H139 H 0.25577 0.62734 0.39555 0.0
C140 C 0.24647 0.66213 0.17675 0.0
O141 O 0.23563 0.68217 0.15344 0.0
N142 N 0.27455 0.73199 0.27802 0.0
C143 C 0.27405 0.76061 0.291 0.0
C144 C 0.29154 0.78309 0.23602 0.0
C145 C 0.29496 0.73868 0.21927 0.0
N146 N 0.3041 0.76896 0.19011 0.0
C147 C 0.19392 0.70386 0.32362 0.0
C148 C 0.14791 0.64421 0.25607 0.0
C149 C 0.13537 0.66367 0.28795 0.0
C150 C 0.15923 0.69433 0.32054 0.0
C151 C 0.18246 0.65391 0.26314 0.0
N152 N 0.20542 0.68354 0.29661 0.0
H153 H 0.21027 0.72536 0.35687 0.0
H154 H 0.18963 0.63564 0.24823 0.0
H155 H 0.26128 0.76503 0.336 0.0
H156 H 0.30151 0.72116 0.19543 0.0
O157 O 0.25564 0.71737 0.42034 0.0
O158 O 0.29267 0.70266 0.38522 0.0
O159 O 0.25332 0.66232 0.246 0.0
C160 C 0.28516 0.71969 0.43146 0.0
H161 H 0.21144 0.5901 0.50041 0.0
H162 H 0.29207 0.80658 0.22706 0.0
H163 H 0.13074 0.62026 0.23033 0.0
H164 H 0.15106 0.70962 0.34948 0.0
Co165 Co 0.59549 0.22312 0.8313 0.0
C166 C 0.59866 0.17795 0.93113 0.0
C167 C 0.63725 0.19138 0.84925 0.0
C168 C 0.62961 0.16075 0.87933 0.0
N169 N 0.61696 0.20164 0.88072 0.0
N170 N 0.60429 0.15189 0.92904 0.0
H171 H 0.57863 0.17812 0.96326 0.0
H172 H 0.65348 0.20296 0.80176 0.0
C173 C 0.61262 0.22345 0.66893 0.0
O174 O 0.58024 0.21352 0.65693 0.0
N175 N 0.57335 0.24399 0.7833 0.0
C176 C 0.5399 0.23429 0.77975 0.0
C177 C 0.53624 0.25511 0.7313 0.0
C178 C 0.58964 0.27163 0.74144 0.0
N179 N 0.56754 0.27815 0.706 0.0
C180 C 0.52926 0.16277 0.84326 0.0
C181 C 0.54334 0.12265 0.75403 0.0
C182 C 0.51305 0.10749 0.79529 0.0
C183 C 0.50598 0.12808 0.83989 0.0
C184 C 0.56606 0.15728 0.75951 0.0
N185 N 0.55901 0.1774 0.80313 0.0
H186 H 0.52424 0.17735 0.88257 0.0
H187 H 0.59056 0.16686 0.73326 0.0
H188 H 0.51919 0.21262 0.8061 0.0
H189 H 0.61694 0.28451 0.73111 0.0
O190 O 0.57611 0.22775 0.92392 0.0
O191 O 0.62572 0.26673 0.88085 0.0
O192 O 0.62351 0.22838 0.73618 0.0
C193 C 0.60207 0.25792 0.9313 0.0
H194 H 0.64028 0.14546 0.86233 0.0
H195 H 0.51208 0.25096 0.70988 0.0
H196 H 0.55063 0.10753 0.72141 0.0
H197 H 0.48323 0.1173 0.87406 0.0
Co198 Co 0.5175 0.68321 0.75889 0.0
C199 C 0.51062 0.63653 0.64952 0.0
C200 C 0.46847 0.61182 0.72406 0.0
C201 C 0.47177 0.58771 0.68523 0.0
N202 N 0.49356 0.64249 0.70224 0.0
N203 N 0.49922 0.60356 0.64014 0.0
H204 H 0.5329 0.65645 0.62271 0.0
H205 H 0.4513 0.60707 0.7699 0.0
C206 C 0.49556 0.65194 0.91379 0.0
O207 O 0.52786 0.66238 0.9278 0.0
N208 N 0.54304 0.72475 0.8144 0.0
C209 C 0.57264 0.75233 0.79379 0.0
C210 C 0.58722 0.77266 0.8541 0.0
C211 C 0.53891 0.73024 0.88555 0.0
N212 N 0.5663 0.75816 0.91212 0.0
C213 C 0.58483 0.68938 0.76148 0.0
C214 C 0.56303 0.6243 0.80567 0.0
C215 C 0.59738 0.64459 0.78472 0.0
C216 C 0.60829 0.67794 0.76424 0.0
C217 C 0.5408 0.63704 0.80457 0.0
N218 N 0.55143 0.66937 0.78265 0.0
H219 H 0.59349 0.71382 0.73833 0.0
H220 H 0.51451 0.62006 0.81929 0.0
H221 H 0.58413 0.75684 0.7397 0.0
H222 H 0.51639 0.71444 0.91767 0.0
O223 O 0.53848 0.7084 0.66811 0.0
O224 O 0.49 0.70085 0.71245 0.0
O225 O 0.48717 0.65877 0.85071 0.0
C226 C 0.5132 0.71391 0.66065 0.0
H227 H 0.45593 0.56074 0.69169 0.0
H228 H 0.61212 0.79532 0.85596 0.0
H229 H 0.55281 0.59819 0.82072 0.0
H230 H 0.63462 0.69514 0.74901 0.0
Co231 Co 0.87135 0.52453 0.28617 0.0
C232 C 0.92368 0.51946 0.20831 0.0
C233 C 0.88298 0.47011 0.23724 0.0
C234 C 0.905 0.4673 0.18935 0.0
N235 N 0.89456 0.50298 0.24726 0.0
N236 N 0.92999 0.49853 0.16912 0.0
H237 H 0.93733 0.54634 0.20036 0.0
H238 H 0.8585 0.44988 0.25578 0.0
C239 C 0.84158 0.46852 0.40127 0.0
O240 O 0.81716 0.44957 0.35464 0.0
N241 N 0.8498 0.54787 0.32661 0.0
C242 C 0.83445 0.56275 0.29203 0.0
C243 C 0.83068 0.58336 0.34165 0.0
C244 C 0.85522 0.55968 0.39592 0.0
N245 N 0.84448 0.58183 0.40632 0.0
C246 C 0.93083 0.59029 0.28438 0.0
C247 C 0.96974 0.57526 0.3769 0.0
C248 C 0.98674 0.60332 0.33011 0.0
C249 C 0.96648 0.61158 0.28594 0.0
C250 C 0.93437 0.55385 0.371 0.0
N251 N 0.9156 0.56051 0.32199 0.0
H252 H 0.916 0.59587 0.2463 0.0
H253 H 0.92309 0.53046 0.40097 0.0
H254 H 0.82754 0.56008 0.23445 0.0
H255 H 0.86743 0.55254 0.43766 0.0
O256 O 0.87165 0.54238 0.18792 0.0
O257 O 0.82978 0.49411 0.22818 0.0
O258 O 0.86359 0.49885 0.38314 0.0
C259 C 0.84241 0.51573 0.174 0.0
H260 H 0.89975 0.44417 0.1624 0.0
H261 H 0.81935 0.59877 0.33073 0.0
H262 H 0.98393 0.56831 0.41392 0.0
H263 H 0.9779 0.63255 0.24799 0.0
Co264 Co 0.41175 0.84974 0.7516 0.0
C265 C 0.46499 0.90452 0.66855 0.0
C266 C 0.47314 0.86258 0.66778 0.0
C267 C 0.49305 0.88512 0.61379 0.0
N268 N 0.45491 0.87458 0.70091 0.0
N269 N 0.48689 0.91099 0.61282 0.0
H270 H 0.4522 0.91868 0.67596 0.0
H271 H 0.46869 0.83736 0.67426 0.0
C272 C 0.44965 0.82772 0.85589 0.0
O273 O 0.45006 0.8085 0.80287 0.0
N274 N 0.36838 0.82624 0.80023 0.0
C275 C 0.33899 0.82527 0.78102 0.0
C276 C 0.31555 0.81012 0.83679 0.0
C277 C 0.36212 0.81079 0.8655 0.0
N278 N 0.33046 0.80113 0.8888 0.0
C279 C 0.39931 0.90523 0.75804 0.0
C280 C 0.45567 0.94668 0.84374 0.0
C281 C 0.43875 0.96073 0.80645 0.0
C282 C 0.40929 0.93923 0.76593 0.0
C283 C 0.44507 0.91264 0.83408 0.0
N284 N 0.41805 0.89257 0.78891 0.0
H285 H 0.3786 0.89013 0.72078 0.0
H286 H 0.46091 0.90373 0.85759 0.0
H287 H 0.33521 0.83631 0.73206 0.0
H288 H 0.38077 0.80858 0.8984 0.0
O289 O 0.38764 0.8457 0.65926 0.0
O290 O 0.39971 0.80775 0.69789 0.0
O291 O 0.43572 0.84561 0.84399 0.0
C292 C 0.38425 0.81623 0.64904 0.0
H293 H 0.50619 0.87985 0.57046 0.0
H294 H 0.29064 0.80793 0.84129 0.0
H295 H 0.47861 0.96244 0.87542 0.0
H296 H 0.39524 0.94902 0.73692 0.0
Co297 Co 0.59686 0.38331 0.25116 0.0
C298 C 0.59166 0.42282 0.13856 0.0
C299 C 0.64485 0.44246 0.16315 0.0
C300 C 0.64188 0.45609 0.09765 0.0
N301 N 0.61307 0.42111 0.18721 0.0
N302 N 0.60825 0.44277 0.08144 0.0
H303 H 0.56454 0.40455 0.13705 0.0
H304 H 0.66791 0.44428 0.18537 0.0
C305 C 0.62503 0.41465 0.40222 0.0
O306 O 0.59366 0.39655 0.42764 0.0
N307 N 0.57851 0.34388 0.31228 0.0
C308 C 0.54737 0.31588 0.3063 0.0
C309 C 0.54247 0.29551 0.36552 0.0
C310 C 0.59325 0.33853 0.37071 0.0
N311 N 0.57119 0.31025 0.40619 0.0
C312 C 0.52848 0.37425 0.26488 0.0
C313 C 0.55024 0.4385 0.31586 0.0
C314 C 0.51603 0.41846 0.29438 0.0
C315 C 0.50496 0.38557 0.27071 0.0
C316 C 0.57282 0.42625 0.30956 0.0
N317 N 0.56211 0.39435 0.28443 0.0
H318 H 0.52007 0.35068 0.23754 0.0
H319 H 0.59962 0.4438 0.31882 0.0
H320 H 0.52898 0.31054 0.26313 0.0
H321 H 0.61877 0.35583 0.39009 0.0
O322 O 0.57306 0.35358 0.16727 0.0
O323 O 0.62537 0.36816 0.20078 0.0
O324 O 0.631 0.41305 0.33306 0.0
C325 C 0.59994 0.35077 0.15594 0.0
H326 H 0.66256 0.46975 0.05871 0.0
H327 H 0.51886 0.273 0.38075 0.0
H328 H 0.55998 0.46418 0.33396 0.0
H329 H 0.47892 0.36956 0.25172 0.0
Co330 Co 0.24689 0.55876 0.77748 0.0
C331 C 0.20957 0.58719 0.71241 0.0
C332 C 0.25008 0.6235 0.77974 0.0
C333 C 0.22664 0.63385 0.76917 0.0
N334 N 0.2386 0.59366 0.74585 0.0
N335 N 0.20061 0.61035 0.72825 0.0
H336 H 0.19423 0.56463 0.6804 0.0
H337 H 0.27248 0.6356 0.81469 0.0
C338 C 0.24566 0.56947 0.94832 0.0
O339 O 0.22856 0.53699 0.96169 0.0
N340 N 0.25551 0.52388 0.81084 0.0
C341 C 0.24121 0.49154 0.78831 0.0
C342 C 0.25116 0.47464 0.83544 0.0
C343 C 0.2757 0.52663 0.86782 0.0
N344 N 0.27289 0.49692 0.88481 0.0
C345 C 0.17921 0.50347 0.74592 0.0
C346 C 0.14299 0.51903 0.84504 0.0
C347 C 0.12474 0.49182 0.7968 0.0
C348 C 0.14346 0.48403 0.74739 0.0
C349 C 0.17901 0.53754 0.8428 0.0
N350 N 0.19704 0.52935 0.79448 0.0
H351 H 0.19223 0.49886 0.70181 0.0
H352 H 0.1919 0.55986 0.87628 0.0
H353 H 0.2241 0.4803 0.74238 0.0
H354 H 0.29031 0.54934 0.8999 0.0
O355 O 0.24904 0.54667 0.67432 0.0
O356 O 0.29391 0.58348 0.73687 0.0
O357 O 0.25496 0.58008 0.88179 0.0
C358 C 0.28182 0.56745 0.6747 0.0
H359 H 0.22838 0.65643 0.79157 0.0
H360 H 0.24202 0.4479 0.83569 0.0
H361 H 0.12951 0.52645 0.88309 0.0
H362 H 0.13044 0.46405 0.70731 0.0
Co363 Co 0.70629 0.2152 0.24881 0.0
C364 C 0.64728 0.16762 0.16979 0.0
C365 C 0.63405 0.19833 0.23372 0.0
C366 C 0.60424 0.17007 0.21059 0.0
N367 N 0.66089 0.19609 0.2092 0.0
N368 N 0.61278 0.1502 0.17215 0.0
H369 H 0.66295 0.15934 0.14254 0.0
H370 H 0.636 0.21866 0.26667 0.0
C371 C 0.69265 0.21761 0.41572 0.0
O372 O 0.71138 0.20384 0.4298 0.0
N373 N 0.75246 0.23343 0.28561 0.0
C374 C 0.77676 0.22759 0.25782 0.0
C375 C 0.80523 0.24285 0.30187 0.0
C376 C 0.76759 0.25429 0.34287 0.0
N377 N 0.79928 0.25961 0.35476 0.0
C378 C 0.70748 0.15278 0.24405 0.0
C379 C 0.65026 0.11601 0.33102 0.0
C380 C 0.66429 0.0989 0.29451 0.0
C381 C 0.69363 0.11796 0.25134 0.0
C382 C 0.66506 0.15085 0.32289 0.0
N383 N 0.69356 0.16921 0.27997 0.0
H384 H 0.7275 0.16568 0.20417 0.0
H385 H 0.65128 0.16222 0.34562 0.0
H386 H 0.77434 0.2131 0.20917 0.0
H387 H 0.75538 0.26421 0.37776 0.0
O388 O 0.72405 0.21592 0.14958 0.0
O389 O 0.72097 0.25815 0.19751 0.0
O390 O 0.68902 0.22426 0.34809 0.0
C391 C 0.73029 0.2466 0.14191 0.0
H392 H 0.57841 0.16478 0.22094 0.0
H393 H 0.82782 0.24049 0.29781 0.0
H394 H 0.62661 0.10238 0.36185 0.0
H395 H 0.705 0.10585 0.22066 0.0
C396 C 0.42679 0.63263 0.06116 0.0
C397 C 0.42986 0.61009 0.10931 0.0
C398 C 0.44631 0.6445 0.99532 0.0
C399 C 0.47029 0.63488 0.97543 0.0
H400 H 0.40945 0.64157 0.07491 0.0
H401 H 0.44375 0.66254 0.96168 0.0
S402 S 0.48783 0.57586 0.08029 0.0
N403 N 0.45837 0.57802 0.12984 0.0
N404 N 0.49509 0.6006 1.00836 0.0
C405 C 0.47306 0.61188 1.02221 0.0
C406 C 0.4529 0.59943 0.0883 0.0
C407 C 0.875 0.46322 0.59247 0.0
C408 C 0.85496 0.42901 0.61321 0.0
C409 C 0.87015 0.47551 0.52514 0.0
C410 C 0.84492 0.45438 0.4741 0.0
H411 H 0.89504 0.48107 0.62853 0.0
H412 H 0.88656 0.50201 0.51317 0.0
S413 S 0.78442 0.36273 0.5011 0.0
N414 N 0.80795 0.37428 0.57679 0.0
N415 N 0.79896 0.39704 0.4502 0.0
C416 C 0.82432 0.42007 0.49408 0.0
C417 C 0.8293 0.40752 0.56322 0.0
C418 C 0.50714 0.82031 1.0024 0.0
C419 C 0.49806 0.82972 0.06895 0.0
C420 C 0.49105 0.81925 0.93476 0.0
C421 C 0.46575 0.82856 0.92958 0.0
H422 H 0.52696 0.81366 1.00254 0.0
H423 H 0.49911 0.81168 0.88568 0.0
S424 S 0.43327 0.85618 0.08726 0.0
N425 N 0.46201 0.84871 0.12488 0.0
N426 N 0.43266 0.84778 0.99847 0.0
C427 C 0.45659 0.83825 0.99577 0.0
C428 C 0.47243 0.83853 0.06501 0.0
C429 C 0.66951 0.46986 0.45972 0.0
C430 C 0.653 0.43446 0.45697 0.0
C431 C 0.68891 0.48807 0.52221 0.0
C432 C 0.69337 0.47173 0.58358 0.0
H433 H 0.66514 0.48334 0.41611 0.0
H434 H 0.69833 0.51485 0.52484 0.0
S435 S 0.65741 0.37975 0.60182 0.0
N436 N 0.64375 0.38412 0.52039 0.0
N437 N 0.681 0.4182 0.63491 0.0
C438 C 0.6789 0.43667 0.57892 0.0
C439 C 0.65856 0.41811 0.51652 0.0
C440 C 0.24837 0.64508 0.04498 0.0
C441 C 0.24923 0.639 0.1212 0.0
C442 C 0.24851 0.62331 0.99038 0.0
C443 C 0.24913 0.59386 1.0084 0.0
H444 H 0.24705 0.6668 1.02672 0.0
H445 H 0.24676 0.62913 0.93342 0.0
S446 S 0.25313 0.56637 0.19922 0.0
N447 N 0.25217 0.60147 0.2114 0.0
N448 N 0.25186 0.5604 0.10907 0.0
C449 C 0.25061 0.5876 0.08433 0.0
C450 C 0.25091 0.61014 0.14034 0.0
C451 C 0.68452 0.22376 0.55291 0.0
C452 C 0.67371 0.22256 0.47905 0.0
C453 C 0.66566 0.22533 0.61384 0.0
C454 C 0.63462 0.22516 0.60417 0.0
H455 H 0.70768 0.22307 0.56404 0.0
H456 H 0.67502 0.22567 0.66898 0.0
S457 S 0.59495 0.22286 0.42262 0.0
N458 N 0.63013 0.2224 0.40116 0.0
N459 N 0.59449 0.22431 0.51351 0.0
C460 C 0.62388 0.22455 0.53056 0.0
C461 C 0.64339 0.22356 0.46885 0.0
C462 C 0.59229 0.40195 0.98222 0.0
C463 C 0.59558 0.43226 1.00853 0.0
C464 C 0.59735 0.39854 0.90757 0.0
C465 C 0.60852 0.42665 0.86157 0.0
H466 H 0.59123 0.38339 1.02042 0.0
H467 H 0.60119 0.37801 0.89169 0.0
S468 S 0.59709 0.49935 0.89503 0.0
N469 N 0.59355 0.48241 0.97737 0.0
N470 N 0.60134 0.47449 0.83543 0.0
C471 C 0.59874 0.45013 0.88176 0.0
C472 C 0.59481 0.4546 0.95786 0.0
C473 C 0.15022 0.58502 0.57664 0.0
C474 C 0.16944 0.6164 0.54225 0.0
C475 C 0.14934 0.58316 0.65373 0.0
C476 C 0.1728 0.61193 0.69383 0.0
H477 H 0.14008 0.56208 0.54465 0.0
H478 H 0.13892 0.55848 0.67847 0.0
S479 S 0.20615 0.69962 0.63465 0.0
N480 N 0.19449 0.67722 0.55796 0.0
N481 N 0.19535 0.6721 0.70236 0.0
C482 C 0.18063 0.64289 0.66348 0.0
C483 C 0.18015 0.64553 0.58569 0.0
C484 C 0.56206 0.11925 0.09564 0.0
C485 C 0.59122 0.12105 0.12756 0.0
C486 C 0.5595 0.11867 1.01857 0.0
C487 C 0.58757 0.12272 0.97613 0.0
H488 H 0.54576 0.1255 0.12737 0.0
H489 H 0.54056 0.12354 0.99431 0.0
S490 S 0.64613 0.09352 1.03734 0.0
N491 N 0.629 0.098 0.11406 0.0
N492 N 0.6287 0.10343 0.96885 0.0
C493 C 0.60695 0.10992 1.0074 0.0
C494 C 0.60723 0.1072 0.08533 0.0
C495 C 0.48603 0.56007 0.5487 0.0
C496 C 0.51078 0.58963 0.58338 0.0
C497 C 0.4828 0.55985 0.47204 0.0
C498 C 0.50317 0.58971 0.43169 0.0
H499 H 0.46512 0.54039 0.57995 0.0
H500 H 0.45958 0.5398 0.44857 0.0
S501 S 0.58738 0.65857 0.49295 0.0
N502 N 0.56916 0.63662 0.56854 0.0
N503 N 0.55973 0.63935 0.42523 0.0
C504 C 0.53455 0.61299 0.46291 0.0
C505 C 0.53925 0.61177 0.54002 0.0
C506 C 0.95343 0.48378 0.06569 0.0
C507 C 0.94395 0.50587 0.09591 0.0
C508 C 0.9414 0.46999 0.99612 0.0
C509 C 0.92077 0.47918 0.95548 0.0
H510 H 0.9635 0.4719 0.10123 0.0
H511 H 0.94369 0.44853 0.98054 0.0
S512 S 0.90961 0.55194 0.99147 0.0
N513 N 0.92838 0.54832 0.06616 0.0
N514 N 0.90567 0.52207 0.93495 0.0
C515 C 0.92051 0.50822 0.9761 0.0
C516 C 0.93288 0.5223 0.04671 0.0
C517 C 0.51016 0.93407 0.4236 0.0
C518 C 0.47753 0.91037 0.39629 0.0
C519 C 0.51427 0.94064 0.49938 0.0
C520 C 0.48539 0.92653 0.54533 0.0
H521 H 0.5327 0.93984 0.39164 0.0
H522 H 0.5396 0.95116 0.5231 0.0
S523 S 0.39503 0.88751 0.48356 0.0
N524 N 0.41681 0.8896 0.40866 0.0
N525 N 0.42378 0.90542 0.54967 0.0
C526 C 0.45314 0.9148 0.51161 0.0
C527 C 0.44926 0.90649 0.43551 0.0
C528 C 0.25683 0.47127 1.00726 0.0
C529 C 0.28231 0.48974 0.95444 0.0
C530 C 0.26543 0.4718 0.0817 0.0
C531 C 0.29963 0.49088 0.10453 0.0
H532 H 0.23008 0.45852 0.99165 0.0
H533 H 0.24524 0.45914 0.12213 0.0
S534 S 0.37577 0.53861 0.98446 0.0
N535 N 0.34277 0.52425 0.92772 0.0
N536 N 0.3594 0.52446 0.06713 0.0
C537 C 0.32543 0.50701 0.05092 0.0
C538 C 0.31661 0.50667 0.97578 0.0
C539 C 0.81905 0.2533 0.55041 0.0
C540 C 0.83585 0.28716 0.57182 0.0
C541 C 0.8092 0.24445 0.47704 0.0
C542 C 0.81615 0.2693 0.42394 0.0
H543 H 0.81151 0.23367 0.59136 0.0
H544 H 0.79418 0.21809 0.46237 0.0
S545 S 0.8647 0.36136 0.44979 0.0
N546 N 0.86343 0.34574 0.53259 0.0
N547 N 0.84368 0.32859 0.39465 0.0
C548 C 0.83504 0.30314 0.44343 0.0
C549 C 0.84534 0.31225 0.51768 0.0
C550 C 0.5991 0.81303 0.07942 0.0
C551 C 0.58492 0.78951 0.13697 0.0
C552 C 0.59352 0.80254 1.0059 0.0
C553 C 0.57367 0.76824 0.988 0.0
H554 H 0.61234 0.83973 0.09137 0.0
H555 H 0.60334 0.82146 0.96293 0.0
S556 S 0.53528 0.697 0.12123 0.0
N557 N 0.55303 0.73109 0.17324 0.0
N558 N 0.54358 0.7107 1.0353 0.0
C559 C 0.56144 0.74448 0.04587 0.0
C560 C 0.5669 0.75531 0.12041 0.0
C561 C 0.80962 0.6025 0.57057 0.0
C562 C 0.83313 0.6056 0.62496 0.0
C563 C 0.81515 0.59827 0.49646 0.0
C564 C 0.84439 0.59709 0.47526 0.0
H565 H 0.7851 0.59936 0.58669 0.0
H566 H 0.79483 0.59231 0.45723 0.0
S567 S 0.91742 0.61304 0.59537 0.0
N568 N 0.88892 0.6132 0.65222 0.0
N569 N 0.90055 0.60705 0.51199 0.0
C570 C 0.87022 0.60503 0.52797 0.0
C571 C 0.86426 0.60885 0.60338 0.0
C572 C 0.29987 0.75226 0.06042 0.0
C573 C 0.31244 0.77781 0.11439 0.0
C574 C 0.30394 0.76006 0.98576 0.0
C575 C 0.32049 0.79351 0.96319 0.0
H576 H 0.28636 0.726 0.07551 0.0
H577 H 0.29494 0.74002 0.94535 0.0
S578 S 0.35991 0.86971 0.08005 0.0
N579 N 0.34363 0.83802 0.13908 0.0
N580 N 0.35082 0.85249 0.99708 0.0
C581 C 0.33345 0.81936 1.01551 0.0
C582 C 0.32958 0.81154 0.09168 0.0
C583 C 0.59692 0.29178 0.58615 0.0
C584 C 0.57365 0.29373 0.63505 0.0
C585 C 0.59651 0.29792 0.51107 0.0
C586 C 0.57272 0.30578 0.48312 0.0
H587 H 0.61416 0.28351 0.6047 0.0
H588 H 0.6139 0.29534 0.4742 0.0
S589 S 0.51298 0.32262 0.589 0.0
N590 N 0.53106 0.3105 0.65161 0.0
N591 N 0.53003 0.32158 0.50911 0.0
C592 C 0.55174 0.31106 0.5316 0.0
C593 C 0.55236 0.3052 0.60811 0.0
C594 C 0.8086 0.54077 1.00617 0.0
C595 C 0.78907 0.51069 0.96618 0.0
C596 C 0.82601 0.54193 0.07166 0.0
C597 C 0.82375 0.5128 0.10278 0.0
H598 H 0.81049 0.56388 0.98654 0.0
H599 H 0.84081 0.56595 0.09917 0.0
S600 S 0.77694 0.42752 1.01942 0.0
N601 N 0.76984 0.45103 0.96133 0.0
N602 N 0.80113 0.45286 0.08621 0.0
C603 C 0.80452 0.48245 0.06327 0.0
C604 C 0.78761 0.48149 0.99476 0.0
C605 C 0.3376 0.74052 0.51555 0.0
C606 C 0.3103 0.74389 0.48764 0.0
C607 C 0.36148 0.76377 0.56725 0.0
C608 C 0.35987 0.79212 0.59165 0.0
H609 H 0.34033 0.7195 0.49805 0.0
H610 H 0.3815 0.75959 0.58785 0.0
S611 S 0.29405 0.81331 0.53399 0.0
N612 N 0.28357 0.77828 0.48891 0.0
N613 N 0.32842 0.82194 0.58234 0.0
C614 C 0.333 0.79595 0.56302 0.0
C615 C 0.30833 0.77196 0.51221 0.0
C616 C 0.63166 0.33204 0.0686 0.0
C617 C 0.60059 0.32748 0.09788 0.0
C618 C 0.63225 0.30998 1.01443 0.0
C619 C 0.60188 0.28171 0.98875 0.0
H620 H 0.65578 0.35307 0.08701 0.0
H621 H 0.65669 0.31491 0.9931 0.0
S622 S 0.51369 0.25848 0.04669 0.0
N623 N 0.53863 0.29264 0.09501 0.0
N624 N 0.5397 0.25116 0.99652 0.0
C625 C 0.57073 0.27696 1.01784 0.0
C626 C 0.57011 0.29975 0.07133 0.0
C627 C 0.31098 0.57 0.47283 0.0
C628 C 0.34224 0.57037 0.47983 0.0
C629 C 0.29199 0.56971 0.5357 0.0
C630 C 0.30387 0.57091 0.60855 0.0
H631 H 0.30025 0.56828 0.41849 0.0
H632 H 0.26754 0.56816 0.52714 0.0
S633 S 0.3847 0.57332 0.65728 0.0
N634 N 0.38414 0.57221 0.56616 0.0
N635 N 0.34965 0.57335 0.68274 0.0
C636 C 0.33569 0.5726 0.61594 0.0
C637 C 0.35445 0.57185 0.55223 0.0
C638 C 0.77533 0.26278 0.04276 0.0
C639 C 0.75029 0.26799 0.07673 0.0
C640 C 0.79603 0.28337 0.98432 0.0
C641 C 0.79202 0.30954 0.95489 0.0
H642 H 0.77971 0.24311 0.06289 0.0
H643 H 0.81535 0.27859 0.96168 0.0
S644 S 0.72973 0.33351 1.02198 0.0
N645 N 0.72288 0.30174 0.07589 0.0
N646 N 0.76049 0.33918 0.9642 0.0
C647 C 0.76655 0.31458 0.987 0.0
C648 C 0.74613 0.29423 0.04823 0.0
C649 C 0.48109 0.74841 0.50352 0.0
C650 C 0.51173 0.77479 0.47319 0.0
C651 C 0.48136 0.72928 0.56507 0.0
C652 C 0.51232 0.73499 0.59743 0.0
H653 H 0.45671 0.74293 0.48054 0.0
H654 H 0.45717 0.7095 0.58658 0.0
S655 S 0.59954 0.80026 0.53699 0.0
N656 N 0.57374 0.80519 0.48069 0.0
N657 N 0.57437 0.76894 0.59235 0.0
C658 C 0.54297 0.76092 0.5664 0.0
C659 C 0.54264 0.78081 0.5056 0.0
C660 C 0.43997 0.4316 0.32535 0.0
C661 C 0.44969 0.46181 0.28716 0.0
C662 C 0.46109 0.41726 0.32626 0.0
C663 C 0.49306 0.43295 0.29031 0.0
H664 H 0.4159 0.41903 0.35505 0.0
H665 H 0.45273 0.39416 0.35676 0.0
S666 S 0.53025 0.51197 0.18141 0.0
N667 N 0.49338 0.50658 0.21172 0.0
N668 N 0.5328 0.4797 0.21325 0.0
C669 C 0.50283 0.46287 0.25114 0.0
C670 C 0.48125 0.47725 0.24958 0.0
C671 C 0.06844 0.43716 0.79953 0.0
C672 C 0.08644 0.47254 0.79426 0.0
C673 C 1.03247 0.4183 0.7944 0.0
C674 C 1.01305 0.43397 0.78185 0.0
H675 H 0.08231 0.42395 0.80824 0.0
H676 H 1.01975 0.39118 0.79964 0.0
S677 S 1.04766 0.52583 0.76291 0.0
N678 N 0.08193 0.52242 0.77576 0.0
N679 N 1.01459 0.48705 0.76475 0.0
C680 C 1.03073 0.46928 0.77589 0.0
C681 C 0.06729 0.48852 0.78252 0.0
C682 C 0.64176 0.04305 0.23 0.0
C683 C 0.64662 0.06124 0.29592 0.0
C684 C 0.62353 1.00767 0.22897 0.0
C685 C 0.60972 0.98887 0.29396 0.0
H686 H 0.65162 0.05622 0.17831 0.0
H687 H 0.62046 0.99492 0.17685 0.0
S688 S 0.61551 1.02399 0.48151 0.0
N689 N 0.63657 0.05743 0.42833 0.0
N690 N 0.60194 0.99119 0.42623 0.0
C691 C 0.61457 1.00668 0.36038 0.0
C692 C 0.63304 0.0427 0.36139 0.0
C693 C 0.61761 0.60723 0.83855 0.0
C694 C 0.62089 0.63037 0.78383 0.0
C695 C 0.63763 0.59191 0.83777 0.0
C696 C 0.6628 0.59935 0.78326 0.0
H697 H 0.59924 0.60065 0.88286 0.0
H698 H 0.63276 0.57366 0.88049 0.0
S699 S 0.68312 0.65972 0.62846 0.0
N700 N 0.6512 0.65983 0.67231 0.0
N701 N 0.6911 0.63361 0.67487 0.0
C702 C 0.66714 0.6233 0.7291 0.0
C703 C 0.64587 0.63824 0.72865 0.0
C704 C 0.07613 0.61508 0.31153 0.0
C705 C 0.09749 0.6496 0.29638 0.0
C706 C 1.04085 0.60084 0.32233 0.0
C707 C 1.02492 0.6204 0.32072 0.0
H708 H 0.08667 0.59864 0.31613 0.0
H709 H 1.02595 0.57392 0.3312 0.0
S710 S 0.069 0.71238 0.28442 0.0
N711 N 0.0997 0.70306 0.2783 0.0
N712 N 1.03376 0.67674 0.30456 0.0
C713 C 1.04592 0.65513 0.30654 0.0
C714 C 0.08198 0.66959 0.29347 0.0
C715 C 0.46457 1.01748 0.86788 0.0
C716 C 0.45431 0.998 0.80299 0.0
C717 C 0.48229 0.05285 0.86499 0.0
C718 C 0.49091 0.07011 0.79705 0.0
H719 H 0.45933 1.00526 0.92126 0.0
H720 H 0.49044 0.06679 0.91631 0.0
S721 S 0.46978 1.03091 0.6113 0.0
N722 N 0.45391 0.9987 0.66884 0.0
N723 N 0.48698 0.06496 0.66352 0.0
C724 C 0.48027 0.05091 0.73189 0.0
C725 C 0.46202 1.01496 0.73482 0.0
loop_
_geom_bond_atom_site_label_1
_geom_bond_atom_site_label_2
_geom_bond_distance
_geom_bond_site_symmetry_2
_ccdc_geom_bond_type
Co0 N4 2.148 . S
Co0 N10 2.128 . S
Co0 N20 2.194 . S
Co0 O25 2.351 . S
Co0 O26 2.155 . S
Co0 O27 2.096 . S
C1 N4 1.301 . S
C1 N5 1.328 . S
C1 H6 0.930 . S
C2 C3 1.333 . S
C2 N4 1.317 . S
C2 H7 0.930 . S
C3 C2 1.333 . S
C3 N5 1.350 . S
C3 H29 0.931 . S
N4 Co0 2.148 . S
N4 C1 1.301 . S
N4 C2 1.317 . S
N5 C1 1.328 . S
N5 C3 1.350 . S
H6 C1 0.930 . S
H7 C2 0.930 . S
C8 O9 1.224 . S
C8 O27 1.247 . S
O9 C8 1.224 . S
N10 Co0 2.128 . S
N10 C11 1.355 . S
N10 C13 1.311 . S
C11 N10 1.355 . S
C11 C12 1.363 . S
C11 H23 0.929 . S
C12 C11 1.363 . S
C12 N14 1.375 . S
C12 H30 0.931 . S
C13 N10 1.311 . S
C13 N14 1.347 . S
C13 H24 0.929 . S
N14 C12 1.375 . S
N14 C13 1.347 . S
C15 C18 1.365 . S
C15 N20 1.328 . S
C15 H21 0.929 . S
C16 C17 1.362 . S
C16 C19 1.378 . S
C16 H31 0.929 . S
C17 C16 1.362 . S
C17 C18 1.366 . S
C18 C15 1.365 . S
C18 C17 1.366 . S
C18 H32 0.930 . S
C19 C16 1.378 . S
C19 N20 1.315 . S
C19 H22 0.930 . S
N20 Co0 2.194 . S
N20 C15 1.328 . S
N20 C19 1.315 . S
H21 C15 0.929 . S
H22 C19 0.930 . S
H23 C11 0.929 . S
H24 C13 0.929 . S
O25 Co0 2.351 . S
O25 C28 1.244 . S
O26 Co0 2.155 . S
O26 C28 1.240 . S
O27 Co0 2.096 . S
O27 C8 1.247 . S
C28 O25 1.244 . S
C28 O26 1.240 . S
H29 C3 0.931 . S
H30 C12 0.931 . S
H31 C16 0.929 . S
H32 C18 0.930 . S
Co33 N37 2.148 . S
Co33 N43 2.128 . S
Co33 N53 2.194 . S
Co33 O58 2.351 . S
Co33 O59 2.155 . S
Co33 O60 2.096 . S
C34 N37 1.301 . S
C34 N38 1.328 . S
C34 H39 0.930 . S
C35 C36 1.333 . S
C35 N37 1.317 . S
C35 H40 0.930 . S
C36 C35 1.333 . S
C36 N38 1.350 . S
C36 H62 0.931 . S
N37 Co33 2.148 . S
N37 C34 1.301 . S
N37 C35 1.317 . S
N38 C34 1.328 . S
N38 C36 1.350 . S
H39 C34 0.930 . S
H40 C35 0.930 . S
C41 O42 1.224 . S
C41 O60 1.247 . S
O42 C41 1.224 . S
N43 Co33 2.128 . S
N43 C44 1.355 . S
N43 C46 1.311 . S
C44 N43 1.355 . S
C44 C45 1.363 . S
C44 H56 0.929 . S
C45 C44 1.363 . S
C45 N47 1.375 . S
C45 H63 0.931 . S
C46 N43 1.311 . S
C46 N47 1.347 . S
C46 H57 0.929 . S
N47 C45 1.375 . S
N47 C46 1.347 . S
C48 C51 1.365 . S
C48 N53 1.328 . S
C48 H54 0.929 . S
C49 C50 1.362 . S
C49 C52 1.378 . S
C49 H64 0.929 . S
C50 C49 1.362 . S
C50 C51 1.366 . S
C51 C48 1.365 . S
C51 C50 1.366 . S
C51 H65 0.930 . S
C52 C49 1.378 . S
C52 N53 1.315 . S
C52 H55 0.930 . S
N53 Co33 2.194 . S
N53 C48 1.328 . S
N53 C52 1.315 . S
H54 C48 0.929 . S
H55 C52 0.930 . S
H56 C44 0.929 . S
H57 C46 0.929 . S
O58 Co33 2.351 . S
O58 C61 1.244 . S
O59 Co33 2.155 . S
O59 C61 1.240 . S
O60 Co33 2.096 . S
O60 C41 1.247 . S
C61 O58 1.244 . S
C61 O59 1.240 . S
H62 C36 0.931 . S
H63 C45 0.931 . S
H64 C49 0.929 . S
H65 C51 0.930 . S
Co66 N70 2.148 . S
Co66 N76 2.128 . S
Co66 N86 2.194 . S
Co66 O91 2.351 . S
Co66 O92 2.155 . S
Co66 O93 2.096 . S
C67 N70 1.301 . S
C67 N71 1.328 . S
C67 H72 0.930 . S
C68 C69 1.333 . S
C68 N70 1.317 . S
C68 H73 0.930 . S
C69 C68 1.333 . S
C69 N71 1.350 . S
C69 H95 0.931 . S
N70 Co66 2.148 . S
N70 C67 1.301 . S
N70 C68 1.317 . S
N71 C67 1.328 . S
N71 C69 1.350 . S
H72 C67 0.930 . S
H73 C68 0.930 . S
C74 O75 1.224 . S
C74 O93 1.247 . S
O75 C74 1.224 . S
N76 Co66 2.128 . S
N76 C77 1.355 . S
N76 C79 1.311 . S
C77 N76 1.355 . S
C77 C78 1.363 . S
C77 H89 0.929 . S
C78 C77 1.363 . S
C78 N80 1.375 . S
C78 H96 0.931 . S
C79 N76 1.311 . S
C79 N80 1.347 . S
C79 H90 0.929 . S
N80 C78 1.375 . S
N80 C79 1.347 . S
C81 C84 1.365 . S
C81 N86 1.328 . S
C81 H87 0.929 . S
C82 C83 1.362 . S
C82 C85 1.378 . S
C82 H97 0.929 . S
C83 C82 1.362 . S
C83 C84 1.366 . S
C84 C81 1.365 . S
C84 C83 1.366 . S
C84 H98 0.930 . S
C85 C82 1.378 . S
C85 N86 1.315 . S
C85 H88 0.930 . S
N86 Co66 2.194 . S
N86 C81 1.328 . S
N86 C85 1.315 . S
H87 C81 0.929 . S
H88 C85 0.930 . S
H89 C77 0.929 . S
H90 C79 0.929 . S
O91 Co66 2.351 . S
O91 C94 1.244 . S
O92 Co66 2.155 . S
O92 C94 1.240 . S
O93 Co66 2.096 . S
O93 C74 1.247 . S
C94 O91 1.244 . S
C94 O92 1.240 . S
H95 C69 0.931 . S
H96 C78 0.931 . S
H97 C82 0.929 . S
H98 C84 0.930 . S
Co99 N103 2.148 . S
Co99 N109 2.128 . S
Co99 N119 2.194 . S
Co99 O124 2.351 . S
Co99 O125 2.155 . S
Co99 O126 2.096 . S
C100 N103 1.301 . S
C100 N104 1.328 . S
C100 H105 0.930 . S
C101 C102 1.333 . S
C101 N103 1.317 . S
C101 H106 0.930 . S
C102 C101 1.333 . S
C102 N104 1.350 . S
C102 H128 0.931 . S
N103 Co99 2.148 . S
N103 C100 1.301 . S
N103 C101 1.317 . S
N104 C100 1.328 . S
N104 C102 1.350 . S
H105 C100 0.930 . S
H106 C101 0.930 . S
C107 O108 1.224 . S
C107 O126 1.247 . S
O108 C107 1.224 . S
N109 Co99 2.128 . S
N109 C110 1.355 . S
N109 C112 1.311 . S
C110 N109 1.355 . S
C110 C111 1.363 . S
C110 H122 0.929 . S
C111 C110 1.363 . S
C111 N113 1.375 . S
C111 H129 0.931 . S
C112 N109 1.311 . S
C112 N113 1.347 . S
C112 H123 0.929 . S
N113 C111 1.375 . S
N113 C112 1.347 . S
C114 C117 1.365 . S
C114 N119 1.328 . S
C114 H120 0.929 . S
C115 C116 1.362 . S
C115 C118 1.378 . S
C115 H130 0.929 . S
C116 C115 1.362 . S
C116 C117 1.366 . S
C117 C114 1.365 . S
C117 C116 1.366 . S
C117 H131 0.930 . S
C118 C115 1.378 . S
C118 N119 1.315 . S
C118 H121 0.930 . S
N119 Co99 2.194 . S
N119 C114 1.328 . S
N119 C118 1.315 . S
H120 C114 0.929 . S
H121 C118 0.930 . S
H122 C110 0.929 . S
H123 C112 0.929 . S
O124 Co99 2.351 . S
O124 C127 1.244 . S
O125 Co99 2.155 . S
O125 C127 1.240 . S
O126 Co99 2.096 . S
O126 C107 1.247 . S
C127 O124 1.244 . S
C127 O125 1.240 . S
H128 C102 0.931 . S
H129 C111 0.931 . S
H130 C115 0.929 . S
H131 C117 0.930 . S
Co132 N136 2.148 . S
Co132 N142 2.128 . S
Co132 N152 2.194 . S
Co132 O157 2.351 . S
Co132 O158 2.155 . S
Co132 O159 2.096 . S
C133 N136 1.301 . S
C133 N137 1.328 . S
C133 H138 0.930 . S
C134 C135 1.333 . S
C134 N136 1.317 . S
C134 H139 0.930 . S
C135 C134 1.333 . S
C135 N137 1.350 . S
C135 H161 0.931 . S
N136 Co132 2.148 . S
N136 C133 1.301 . S
N136 C134 1.317 . S
N137 C133 1.328 . S
N137 C135 1.350 . S
H138 C133 0.930 . S
H139 C134 0.930 . S
C140 O141 1.224 . S
C140 O159 1.247 . S
O141 C140 1.224 . S
N142 Co132 2.128 . S
N142 C143 1.355 . S
N142 C145 1.311 . S
C143 N142 1.355 . S
C143 C144 1.363 . S
C143 H155 0.929 . S
C144 C143 1.363 . S
C144 N146 1.375 . S
C144 H162 0.931 . S
C145 N142 1.311 . S
C145 N146 1.347 . S
C145 H156 0.929 . S
N146 C144 1.375 . S
N146 C145 1.347 . S
C147 C150 1.365 . S
C147 N152 1.328 . S
C147 H153 0.929 . S
C148 C149 1.362 . S
C148 C151 1.378 . S
C148 H163 0.929 . S
C149 C148 1.362 . S
C149 C150 1.366 . S
C150 C147 1.365 . S
C150 C149 1.366 . S
C150 H164 0.930 . S
C151 C148 1.378 . S
C151 N152 1.315 . S
C151 H154 0.930 . S
N152 Co132 2.194 . S
N152 C147 1.328 . S
N152 C151 1.315 . S
H153 C147 0.929 . S
H154 C151 0.930 . S
H155 C143 0.929 . S
H156 C145 0.929 . S
O157 Co132 2.351 . S
O157 C160 1.244 . S
O158 Co132 2.155 . S
O158 C160 1.240 . S
O159 Co132 2.096 . S
O159 C140 1.247 . S
C160 O157 1.244 . S
C160 O158 1.240 . S
H161 C135 0.931 . S
H162 C144 0.931 . S
H163 C148 0.929 . S
H164 C150 0.930 . S
Co165 N169 2.148 . S
Co165 N175 2.128 . S
Co165 N185 2.194 . S
Co165 O190 2.351 . S
Co165 O191 2.155 . S
Co165 O192 2.096 . S
C166 N169 1.301 . S
C166 N170 1.328 . S
C166 H171 0.930 . S
C167 C168 1.333 . S
C167 N169 1.317 . S
C167 H172 0.930 . S
C168 C167 1.333 . S
C168 N170 1.350 . S
C168 H194 0.931 . S
N169 Co165 2.148 . S
N169 C166 1.301 . S
N169 C167 1.317 . S
N170 C166 1.328 . S
N170 C168 1.350 . S
H171 C166 0.930 . S
H172 C167 0.930 . S
C173 O174 1.224 . S
C173 O192 1.247 . S
O174 C173 1.224 . S
N175 Co165 2.128 . S
N175 C176 1.355 . S
N175 C178 1.311 . S
C176 N175 1.355 . S
C176 C177 1.363 . S
C176 H188 0.929 . S
C177 C176 1.363 . S
C177 N179 1.375 . S
C177 H195 0.931 . S
C178 N175 1.311 . S
C178 N179 1.347 . S
C178 H189 0.929 . S
N179 C177 1.375 . S
N179 C178 1.347 . S
C180 C183 1.365 . S
C180 N185 1.328 . S
C180 H186 0.929 . S
C181 C182 1.362 . S
C181 C184 1.378 . S
C181 H196 0.929 . S
C182 C181 1.362 . S
C182 C183 1.366 . S
C183 C180 1.365 . S
C183 C182 1.366 . S
C183 H197 0.930 . S
C184 C181 1.378 . S
C184 N185 1.315 . S
C184 H187 0.930 . S
N185 Co165 2.194 . S
N185 C180 1.328 . S
N185 C184 1.315 . S
H186 C180 0.929 . S
H187 C184 0.930 . S
H188 C176 0.929 . S
H189 C178 0.929 . S
O190 Co165 2.351 . S
O190 C193 1.244 . S
O191 Co165 2.155 . S
O191 C193 1.240 . S
O192 Co165 2.096 . S
O192 C173 1.247 . S
C193 O190 1.244 . S
C193 O191 1.240 . S
H194 C168 0.931 . S
H195 C177 0.931 . S
H196 C181 0.929 . S
H197 C183 0.930 . S
Co198 N202 2.148 . S
Co198 N208 2.128 . S
Co198 N218 2.194 . S
Co198 O223 2.351 . S
Co198 O224 2.155 . S
Co198 O225 2.096 . S
C199 N202 1.301 . S
C199 N203 1.328 . S
C199 H204 0.930 . S
C200 C201 1.333 . S
C200 N202 1.317 . S
C200 H205 0.930 . S
C201 C200 1.333 . S
C201 N203 1.350 . S
C201 H227 0.931 . S
N202 Co198 2.148 . S
N202 C199 1.301 . S
N202 C200 1.317 . S
N203 C199 1.328 . S
N203 C201 1.350 . S
H204 C199 0.930 . S
H205 C200 0.930 . S
C206 O207 1.224 . S
C206 O225 1.247 . S
O207 C206 1.224 . S
N208 Co198 2.128 . S
N208 C209 1.355 . S
N208 C211 1.311 . S
C209 N208 1.355 . S
C209 C210 1.363 . S
C209 H221 0.929 . S
C210 C209 1.363 . S
C210 N212 1.375 . S
C210 H228 0.931 . S
C211 N208 1.311 . S
C211 N212 1.347 . S
C211 H222 0.929 . S
N212 C210 1.375 . S
N212 C211 1.347 . S
C213 C216 1.365 . S
C213 N218 1.328 . S
C213 H219 0.929 . S
C214 C215 1.362 . S
C214 C217 1.378 . S
C214 H229 0.929 . S
C215 C214 1.362 . S
C215 C216 1.366 . S
C216 C213 1.365 . S
C216 C215 1.366 . S
C216 H230 0.930 . S
C217 C214 1.378 . S
C217 N218 1.315 . S
C217 H220 0.930 . S
N218 Co198 2.194 . S
N218 C213 1.328 . S
N218 C217 1.315 . S
H219 C213 0.929 . S
H220 C217 0.930 . S
H221 C209 0.929 . S
H222 C211 0.929 . S
O223 Co198 2.351 . S
O223 C226 1.244 . S
O224 Co198 2.155 . S
O224 C226 1.240 . S
O225 Co198 2.096 . S
O225 C206 1.247 . S
C226 O223 1.244 . S
C226 O224 1.240 . S
H227 C201 0.931 . S
H228 C210 0.931 . S
H229 C214 0.929 . S
H230 C216 0.930 . S
Co231 N235 2.148 . S
Co231 N241 2.128 . S
Co231 N251 2.194 . S
Co231 O256 2.351 . S
Co231 O257 2.155 . S
Co231 O258 2.096 . S
C232 N235 1.301 . S
C232 N236 1.328 . S
C232 H237 0.930 . S
C233 C234 1.333 . S
C233 N235 1.317 . S
C233 H238 0.930 . S
C234 C233 1.333 . S
C234 N236 1.350 . S
C234 H260 0.931 . S
N235 Co231 2.148 . S
N235 C232 1.301 . S
N235 C233 1.317 . S
N236 C232 1.328 . S
N236 C234 1.350 . S
H237 C232 0.930 . S
H238 C233 0.930 . S
C239 O240 1.224 . S
C239 O258 1.247 . S
O240 C239 1.224 . S
N241 Co231 2.128 . S
N241 C242 1.355 . S
N241 C244 1.311 . S
C242 N241 1.355 . S
C242 C243 1.363 . S
C242 H254 0.929 . S
C243 C242 1.363 . S
C243 N245 1.375 . S
C243 H261 0.931 . S
C244 N241 1.311 . S
C244 N245 1.347 . S
C244 H255 0.929 . S
N245 C243 1.375 . S
N245 C244 1.347 . S
C246 C249 1.365 . S
C246 N251 1.328 . S
C246 H252 0.929 . S
C247 C248 1.362 . S
C247 C250 1.378 . S
C247 H262 0.929 . S
C248 C247 1.362 . S
C248 C249 1.366 . S
C249 C246 1.365 . S
C249 C248 1.366 . S
C249 H263 0.930 . S
C250 C247 1.378 . S
C250 N251 1.315 . S
C250 H253 0.930 . S
N251 Co231 2.194 . S
N251 C246 1.328 . S
N251 C250 1.315 . S
H252 C246 0.929 . S
H253 C250 0.930 . S
H254 C242 0.929 . S
H255 C244 0.929 . S
O256 Co231 2.351 . S
O256 C259 1.244 . S
O257 Co231 2.155 . S
O257 C259 1.240 . S
O258 Co231 2.096 . S
O258 C239 1.247 . S
C259 O256 1.244 . S
C259 O257 1.240 . S
H260 C234 0.931 . S
H261 C243 0.931 . S
H262 C247 0.929 . S
H263 C249 0.930 . S
Co264 N268 2.148 . S
Co264 N274 2.128 . S
Co264 N284 2.194 . S
Co264 O289 2.351 . S
Co264 O290 2.155 . S
Co264 O291 2.096 . S
C265 N268 1.301 . S
C265 N269 1.328 . S
C265 H270 0.930 . S
C266 C267 1.333 . S
C266 N268 1.317 . S
C266 H271 0.930 . S
C267 C266 1.333 . S
C267 N269 1.350 . S
C267 H293 0.931 . S
N268 Co264 2.148 . S
N268 C265 1.301 . S
N268 C266 1.317 . S
N269 C265 1.328 . S
N269 C267 1.350 . S
H270 C265 0.930 . S
H271 C266 0.930 . S
C272 O273 1.224 . S
C272 O291 1.247 . S
O273 C272 1.224 . S
N274 Co264 2.128 . S
N274 C275 1.355 . S
N274 C277 1.311 . S
C275 N274 1.355 . S
C275 C276 1.363 . S
C275 H287 0.929 . S
C276 C275 1.363 . S
C276 N278 1.375 . S
C276 H294 0.931 . S
C277 N274 1.311 . S
C277 N278 1.347 . S
C277 H288 0.929 . S
N278 C276 1.375 . S
N278 C277 1.347 . S
C279 C282 1.365 . S
C279 N284 1.328 . S
C279 H285 0.929 . S
C280 C281 1.362 . S
C280 C283 1.378 . S
C280 H295 0.929 . S
C281 C280 1.362 . S
C281 C282 1.366 . S
C282 C279 1.365 . S
C282 C281 1.366 . S
C282 H296 0.930 . S
C283 C280 1.378 . S
C283 N284 1.315 . S
C283 H286 0.930 . S
N284 Co264 2.194 . S
N284 C279 1.328 . S
N284 C283 1.315 . S
H285 C279 0.929 . S
H286 C283 0.930 . S
H287 C275 0.929 . S
H288 C277 0.929 . S
O289 Co264 2.351 . S
O289 C292 1.244 . S
O290 Co264 2.155 . S
O290 C292 1.240 . S
O291 Co264 2.096 . S
O291 C272 1.247 . S
C292 O289 1.244 . S
C292 O290 1.240 . S
H293 C267 0.931 . S
H294 C276 0.931 . S
H295 C280 0.929 . S
H296 C282 0.930 . S
Co297 N301 2.148 . S
Co297 N307 2.128 . S
Co297 N317 2.194 . S
Co297 O322 2.351 . S
Co297 O323 2.155 . S
Co297 O324 2.096 . S
C298 N301 1.301 . S
C298 N302 1.328 . S
C298 H303 0.930 . S
C299 C300 1.333 . S
C299 N301 1.317 . S
C299 H304 0.930 . S
C300 C299 1.333 . S
C300 N302 1.350 . S
C300 H326 0.931 . S
N301 Co297 2.148 . S
N301 C298 1.301 . S
N301 C299 1.317 . S
N302 C298 1.328 . S
N302 C300 1.350 . S
H303 C298 0.930 . S
H304 C299 0.930 . S
C305 O306 1.224 . S
C305 O324 1.247 . S
O306 C305 1.224 . S
N307 Co297 2.128 . S
N307 C308 1.355 . S
N307 C310 1.311 . S
C308 N307 1.355 . S
C308 C309 1.363 . S
C308 H320 0.929 . S
C309 C308 1.363 . S
C309 N311 1.375 . S
C309 H327 0.931 . S
C310 N307 1.311 . S
C310 N311 1.347 . S
C310 H321 0.929 . S
N311 C309 1.375 . S
N311 C310 1.347 . S
C312 C315 1.365 . S
C312 N317 1.328 . S
C312 H318 0.929 . S
C313 C314 1.362 . S
C313 C316 1.378 . S
C313 H328 0.929 . S
C314 C313 1.362 . S
C314 C315 1.366 . S
C315 C312 1.365 . S
C315 C314 1.366 . S
C315 H329 0.930 . S
C316 C313 1.378 . S
C316 N317 1.315 . S
C316 H319 0.930 . S
N317 Co297 2.194 . S
N317 C312 1.328 . S
N317 C316 1.315 . S
H318 C312 0.929 . S
H319 C316 0.930 . S
H320 C308 0.929 . S
H321 C310 0.929 . S
O322 Co297 2.351 . S
O322 C325 1.244 . S
O323 Co297 2.155 . S
O323 C325 1.240 . S
O324 Co297 2.096 . S
O324 C305 1.247 . S
C325 O322 1.244 . S
C325 O323 1.240 . S
H326 C300 0.931 . S
H327 C309 0.931 . S
H328 C313 0.929 . S
H329 C315 0.930 . S
Co330 N334 2.148 . S
Co330 N340 2.128 . S
Co330 N350 2.194 . S
Co330 O355 2.351 . S
Co330 O356 2.155 . S
Co330 O357 2.096 . S
C331 N334 1.301 . S
C331 N335 1.328 . S
C331 H336 0.930 . S
C332 C333 1.333 . S
C332 N334 1.317 . S
C332 H337 0.930 . S
C333 C332 1.333 . S
C333 N335 1.350 . S
C333 H359 0.931 . S
N334 Co330 2.148 . S
N334 C331 1.301 . S
N334 C332 1.317 . S
N335 C331 1.328 . S
N335 C333 1.350 . S
H336 C331 0.930 . S
H337 C332 0.930 . S
C338 O339 1.224 . S
C338 O357 1.247 . S
O339 C338 1.224 . S
N340 Co330 2.128 . S
N340 C341 1.355 . S
N340 C343 1.311 . S
C341 N340 1.355 . S
C341 C342 1.363 . S
C341 H353 0.929 . S
C342 C341 1.363 . S
C342 N344 1.375 . S
C342 H360 0.931 . S
C343 N340 1.311 . S
C343 N344 1.347 . S
C343 H354 0.929 . S
N344 C342 1.375 . S
N344 C343 1.347 . S
C345 C348 1.365 . S
C345 N350 1.328 . S
C345 H351 0.929 . S
C346 C347 1.362 . S
C346 C349 1.378 . S
C346 H361 0.929 . S
C347 C346 1.362 . S
C347 C348 1.366 . S
C348 C345 1.365 . S
C348 C347 1.366 . S
C348 H362 0.930 . S
C349 C346 1.378 . S
C349 N350 1.315 . S
C349 H352 0.930 . S
N350 Co330 2.194 . S
N350 C345 1.328 . S
N350 C349 1.315 . S
H351 C345 0.929 . S
H352 C349 0.930 . S
H353 C341 0.929 . S
H354 C343 0.929 . S
O355 Co330 2.351 . S
O355 C358 1.244 . S
O356 Co330 2.155 . S
O356 C358 1.240 . S
O357 Co330 2.096 . S
O357 C338 1.247 . S
C358 O355 1.244 . S
C358 O356 1.240 . S
H359 C333 0.931 . S
H360 C342 0.931 . S
H361 C346 0.929 . S
H362 C348 0.930 . S
Co363 N367 2.148 . S
Co363 N373 2.128 . S
Co363 N383 2.194 . S
Co363 O388 2.351 . S
Co363 O389 2.155 . S
Co363 O390 2.096 . S
C364 N367 1.301 . S
C364 N368 1.328 . S
C364 H369 0.930 . S
C365 C366 1.333 . S
C365 N367 1.317 . S
C365 H370 0.930 . S
C366 C365 1.333 . S
C366 N368 1.350 . S
C366 H392 0.931 . S
N367 Co363 2.148 . S
N367 C364 1.301 . S
N367 C365 1.317 . S
N368 C364 1.328 . S
N368 C366 1.350 . S
H369 C364 0.930 . S
H370 C365 0.930 . S
C371 O372 1.224 . S
C371 O390 1.247 . S
O372 C371 1.224 . S
N373 Co363 2.128 . S
N373 C374 1.355 . S
N373 C376 1.311 . S
C374 N373 1.355 . S
C374 C375 1.363 . S
C374 H386 0.929 . S
C375 C374 1.363 . S
C375 N377 1.375 . S
C375 H393 0.931 . S
C376 N373 1.311 . S
C376 N377 1.347 . S
C376 H387 0.929 . S
N377 C375 1.375 . S
N377 C376 1.347 . S
C378 C381 1.365 . S
C378 N383 1.328 . S
C378 H384 0.929 . S
C379 C380 1.362 . S
C379 C382 1.378 . S
C379 H394 0.929 . S
C380 C379 1.362 . S
C380 C381 1.366 . S
C381 C378 1.365 . S
C381 C380 1.366 . S
C381 H395 0.930 . S
C382 C379 1.378 . S
C382 N383 1.315 . S
C382 H385 0.930 . S
N383 Co363 2.194 . S
N383 C378 1.328 . S
N383 C382 1.315 . S
H384 C378 0.929 . S
H385 C382 0.930 . S
H386 C374 0.929 . S
H387 C376 0.929 . S
O388 Co363 2.351 . S
O388 C391 1.244 . S
O389 Co363 2.155 . S
O389 C391 1.240 . S
O390 Co363 2.096 . S
O390 C371 1.247 . S
C391 O388 1.244 . S
C391 O389 1.240 . S
H392 C366 0.931 . S
H393 C375 0.931 . S
H394 C379 0.929 . S
H395 C381 0.930 . S
C396 C397 1.369 . S
C396 C398 1.419 1_554 S
C396 H400 0.930 . S
C397 C396 1.369 . S
C397 C406 1.429 . S
C398 C396 1.419 1_556 S
C398 C399 1.363 . S
C398 H401 0.929 . S
C399 C398 1.363 . S
C399 C405 1.428 . S
H400 C396 0.930 . S
H401 C398 0.929 . S
S402 N403 1.613 1_556 S
S402 N404 1.610 . S
N403 S402 1.613 1_554 S
N403 C406 1.350 . S
N404 S402 1.610 . S
N404 C405 1.351 . S
C405 C399 1.428 . S
C405 N404 1.351 . S
C405 C406 1.434 1_556 S
C406 C397 1.429 . S
C406 N403 1.350 . S
C406 C405 1.434 1_554 S
C407 C408 1.369 . S
C407 C409 1.419 . S
C407 H411 0.930 . S
C408 C407 1.369 . S
C408 C417 1.429 . S
C409 C407 1.419 . S
C409 C410 1.363 . S
C409 H412 0.929 . S
C410 C409 1.363 . S
C410 C416 1.428 . S
H411 C407 0.930 . S
H412 C409 0.929 . S
S413 N414 1.613 . S
S413 N415 1.610 . S
N414 S413 1.613 . S
N414 C417 1.350 . S
N415 S413 1.610 . S
N415 C416 1.351 . S
C416 C410 1.428 . S
C416 N415 1.351 . S
C416 C417 1.434 . S
C417 C408 1.429 . S
C417 N414 1.350 . S
C417 C416 1.434 . S
C418 C419 1.369 . S
C418 C420 1.419 1_554 S
C418 H422 0.930 . S
C419 C418 1.369 . S
C419 C428 1.429 . S
C420 C418 1.419 1_556 S
C420 C421 1.363 . S
C420 H423 0.929 . S
C421 C420 1.363 . S
C421 C427 1.428 . S
H422 C418 0.930 . S
H423 C420 0.929 . S
S424 N425 1.613 . S
S424 N426 1.610 1_554 S
N425 S424 1.613 . S
N425 C428 1.350 . S
N426 S424 1.610 1_556 S
N426 C427 1.351 . S
C427 C421 1.428 . S
C427 N426 1.351 . S
C427 C428 1.434 1_556 S
C428 C419 1.429 . S
C428 N425 1.350 . S
C428 C427 1.434 1_554 S
C429 C430 1.369 . S
C429 C431 1.419 . S
C429 H433 0.930 . S
C430 C429 1.369 . S
C430 C439 1.429 . S
C431 C429 1.419 . S
C431 C432 1.363 . S
C431 H434 0.929 . S
C432 C431 1.363 . S
C432 C438 1.428 . S
H433 C429 0.930 . S
H434 C431 0.929 . S
S435 N436 1.613 . S
S435 N437 1.610 . S
N436 S435 1.613 . S
N436 C439 1.350 . S
N437 S435 1.610 . S
N437 C438 1.351 . S
C438 C432 1.428 . S
C438 N437 1.351 . S
C438 C439 1.434 . S
C439 C430 1.429 . S
C439 N436 1.350 . S
C439 C438 1.434 . S
C440 C441 1.369 . S
C440 C442 1.419 1_554 S
C440 H444 0.930 . S
C441 C440 1.369 . S
C441 C450 1.429 . S
C442 C440 1.419 1_556 S
C442 C443 1.363 . S
C442 H445 0.929 . S
C443 C442 1.363 . S
C443 C449 1.428 . S
H444 C440 0.930 . S
H445 C442 0.929 . S
S446 N447 1.613 . S
S446 N448 1.610 1_554 S
N447 S446 1.613 . S
N447 C450 1.350 . S
N448 S446 1.610 1_556 S
N448 C449 1.351 . S
C449 C443 1.428 . S
C449 N448 1.351 . S
C449 C450 1.434 1_556 S
C450 C441 1.429 . S
C450 N447 1.350 . S
C450 C449 1.434 1_554 S
C451 C452 1.369 . S
C451 C453 1.419 . S
C451 H455 0.930 . S
C452 C451 1.369 . S
C452 C461 1.429 . S
C453 C451 1.419 . S
C453 C454 1.363 . S
C453 H456 0.929 . S
C454 C453 1.363 . S
C454 C460 1.428 . S
H455 C451 0.930 . S
H456 C453 0.929 . S
S457 N458 1.613 . S
S457 N459 1.610 . S
N458 S457 1.613 . S
N458 C461 1.350 . S
N459 S457 1.610 . S
N459 C460 1.351 . S
C460 C454 1.428 . S
C460 N459 1.351 . S
C460 C461 1.434 . S
C461 C452 1.429 . S
C461 N458 1.350 . S
C461 C460 1.434 . S
C462 C463 1.369 1_556 S
C462 C464 1.419 . S
C462 H466 0.930 . S
C463 C462 1.369 1_554 S
C463 C472 1.429 . S
C464 C462 1.419 . S
C464 C465 1.363 . S
C464 H467 0.929 . S
C465 C464 1.363 . S
C465 C471 1.428 1_556 S
H466 C462 0.930 . S
H467 C464 0.929 . S
S468 N469 1.613 . S
S468 N470 1.610 . S
N469 S468 1.613 . S
N469 C472 1.350 . S
N470 S468 1.610 . S
N470 C471 1.351 . S
C471 C465 1.428 1_554 S
C471 N470 1.351 . S
C471 C472 1.434 . S
C472 C463 1.429 . S
C472 N469 1.350 . S
C472 C471 1.434 . S
C473 C474 1.369 . S
C473 C475 1.419 . S
C473 H477 0.930 . S
C474 C473 1.369 . S
C474 C483 1.429 . S
C475 C473 1.419 . S
C475 C476 1.363 . S
C475 H478 0.929 . S
C476 C475 1.363 . S
C476 C482 1.428 . S
H477 C473 0.930 . S
H478 C475 0.929 . S
S479 N480 1.613 . S
S479 N481 1.610 . S
N480 S479 1.613 . S
N480 C483 1.350 . S
N481 S479 1.610 . S
N481 C482 1.351 . S
C482 C476 1.428 . S
C482 N481 1.351 . S
C482 C483 1.434 . S
C483 C474 1.429 . S
C483 N480 1.350 . S
C483 C482 1.434 . S
C484 C485 1.369 . S
C484 C486 1.419 . S
C484 H488 0.930 . S
C485 C484 1.369 . S
C485 C494 1.429 1_554 S
C486 C484 1.419 . S
C486 C487 1.363 1_554 S
C486 H489 0.929 . S
C487 C486 1.363 1_556 S
C487 C493 1.428 . S
H488 C484 0.930 . S
H489 C486 0.929 . S
S490 N491 1.613 . S
S490 N492 1.610 . S
N491 S490 1.613 . S
N491 C494 1.350 . S
N492 S490 1.610 . S
N492 C493 1.351 . S
C493 C487 1.428 . S
C493 N492 1.351 . S
C493 C494 1.434 . S
C494 C485 1.429 1_556 S
C494 N491 1.350 . S
C494 C493 1.434 . S
C495 C496 1.369 . S
C495 C497 1.419 . S
C495 H499 0.930 . S
C496 C495 1.369 . S
C496 C505 1.429 . S
C497 C495 1.419 . S
C497 C498 1.363 . S
C497 H500 0.929 . S
C498 C497 1.363 . S
C498 C504 1.428 . S
H499 C495 0.930 . S
H500 C497 0.929 . S
S501 N502 1.613 . S
S501 N503 1.610 . S
N502 S501 1.613 . S
N502 C505 1.350 . S
N503 S501 1.610 . S
N503 C504 1.351 . S
C504 C498 1.428 . S
C504 N503 1.351 . S
C504 C505 1.434 . S
C505 C496 1.429 . S
C505 N502 1.350 . S
C505 C504 1.434 . S
C506 C507 1.369 . S
C506 C508 1.419 . S
C506 H510 0.930 . S
C507 C506 1.369 . S
C507 C516 1.429 1_554 S
C508 C506 1.419 . S
C508 C509 1.363 1_554 S
C508 H511 0.929 . S
C509 C508 1.363 1_556 S
C509 C515 1.428 . S
H510 C506 0.930 . S
H511 C508 0.929 . S
S512 N513 1.613 . S
S512 N514 1.610 . S
N513 S512 1.613 . S
N513 C516 1.350 . S
N514 S512 1.610 . S
N514 C515 1.351 . S
C515 C509 1.428 . S
C515 N514 1.351 . S
C515 C516 1.434 . S
C516 C507 1.429 1_556 S
C516 N513 1.350 . S
C516 C515 1.434 . S
C517 C518 1.369 . S
C517 C519 1.419 . S
C517 H521 0.930 . S
C518 C517 1.369 . S
C518 C527 1.429 . S
C519 C517 1.419 . S
C519 C520 1.363 . S
C519 H522 0.929 . S
C520 C519 1.363 . S
C520 C526 1.428 . S
H521 C517 0.930 . S
H522 C519 0.929 . S
S523 N524 1.613 . S
S523 N525 1.610 . S
N524 S523 1.613 . S
N524 C527 1.350 . S
N525 S523 1.610 . S
N525 C526 1.351 . S
C526 C520 1.428 . S
C526 N525 1.351 . S
C526 C527 1.434 . S
C527 C518 1.429 . S
C527 N524 1.350 . S
C527 C526 1.434 . S
C528 C529 1.369 . S
C528 C530 1.419 1_556 S
C528 H532 0.930 . S
C529 C528 1.369 . S
C529 C538 1.429 . S
C530 C528 1.419 1_554 S
C530 C531 1.363 . S
C530 H533 0.929 . S
C531 C530 1.363 . S
C531 C537 1.428 . S
H532 C528 0.930 . S
H533 C530 0.929 . S
S534 N535 1.613 . S
S534 N536 1.610 1_556 S
N535 S534 1.613 . S
N535 C538 1.350 . S
N536 S534 1.610 1_554 S
N536 C537 1.351 . S
C537 C531 1.428 . S
C537 N536 1.351 . S
C537 C538 1.434 1_554 S
C538 C529 1.429 . S
C538 N535 1.350 . S
C538 C537 1.434 1_556 S
C539 C540 1.369 . S
C539 C541 1.419 . S
C539 H543 0.930 . S
C540 C539 1.369 . S
C540 C549 1.429 . S
C541 C539 1.419 . S
C541 C542 1.363 . S
C541 H544 0.929 . S
C542 C541 1.363 . S
C542 C548 1.428 . S
H543 C539 0.930 . S
H544 C541 0.929 . S
S545 N546 1.613 . S
S545 N547 1.610 . S
N546 S545 1.613 . S
N546 C549 1.350 . S
N547 S545 1.610 . S
N547 C548 1.351 . S
C548 C542 1.428 . S
C548 N547 1.351 . S
C548 C549 1.434 . S
C549 C540 1.429 . S
C549 N546 1.350 . S
C549 C548 1.434 . S
C550 C551 1.369 . S
C550 C552 1.419 1_554 S
C550 H554 0.930 . S
C551 C550 1.369 . S
C551 C560 1.429 . S
C552 C550 1.419 1_556 S
C552 C553 1.363 . S
C552 H555 0.929 . S
C553 C552 1.363 . S
C553 C559 1.428 . S
H554 C550 0.930 . S
H555 C552 0.929 . S
S556 N557 1.613 . S
S556 N558 1.610 1_554 S
N557 S556 1.613 . S
N557 C560 1.350 . S
N558 S556 1.610 1_556 S
N558 C559 1.351 . S
C559 C553 1.428 . S
C559 N558 1.351 . S
C559 C560 1.434 1_556 S
C560 C551 1.429 . S
C560 N557 1.350 . S
C560 C559 1.434 1_554 S
C561 C562 1.369 . S
C561 C563 1.419 . S
C561 H565 0.930 . S
C562 C561 1.369 . S
C562 C571 1.429 . S
C563 C561 1.419 . S
C563 C564 1.363 . S
C563 H566 0.929 . S
C564 C563 1.363 . S
C564 C570 1.428 . S
H565 C561 0.930 . S
H566 C563 0.929 . S
S567 N568 1.613 . S
S567 N569 1.610 . S
N568 S567 1.613 . S
N568 C571 1.350 . S
N569 S567 1.610 . S
N569 C570 1.351 . S
C570 C564 1.428 . S
C570 N569 1.351 . S
C570 C571 1.434 . S
C571 C562 1.429 . S
C571 N568 1.350 . S
C571 C570 1.434 . S
C572 C573 1.369 . S
C572 C574 1.419 1_554 S
C572 H576 0.930 . S
C573 C572 1.369 . S
C573 C582 1.429 . S
C574 C572 1.419 1_556 S
C574 C575 1.363 . S
C574 H577 0.929 . S
C575 C574 1.363 . S
C575 C581 1.428 . S
H576 C572 0.930 . S
H577 C574 0.929 . S
S578 N579 1.613 . S
S578 N580 1.610 1_554 S
N579 S578 1.613 . S
N579 C582 1.350 . S
N580 S578 1.610 1_556 S
N580 C581 1.351 . S
C581 C575 1.428 . S
C581 N580 1.351 . S
C581 C582 1.434 1_556 S
C582 C573 1.429 . S
C582 N579 1.350 . S
C582 C581 1.434 1_554 S
C583 C584 1.369 . S
C583 C585 1.419 . S
C583 H587 0.930 . S
C584 C583 1.369 . S
C584 C593 1.429 . S
C585 C583 1.419 . S
C585 C586 1.363 . S
C585 H588 0.929 . S
C586 C585 1.363 . S
C586 C592 1.428 . S
H587 C583 0.930 . S
H588 C585 0.929 . S
S589 N590 1.613 . S
S589 N591 1.610 . S
N590 S589 1.613 . S
N590 C593 1.350 . S
N591 S589 1.610 . S
N591 C592 1.351 . S
C592 C586 1.428 . S
C592 N591 1.351 . S
C592 C593 1.434 . S
C593 C584 1.429 . S
C593 N590 1.350 . S
C593 C592 1.434 . S
C594 C595 1.369 . S
C594 C596 1.419 1_556 S
C594 H598 0.930 . S
C595 C594 1.369 . S
C595 C604 1.429 . S
C596 C594 1.419 1_554 S
C596 C597 1.363 . S
C596 H599 0.929 . S
C597 C596 1.363 . S
C597 C603 1.428 . S
H598 C594 0.930 . S
H599 C596 0.929 . S
S600 N601 1.613 . S
S600 N602 1.610 1_556 S
N601 S600 1.613 . S
N601 C604 1.350 . S
N602 S600 1.610 1_554 S
N602 C603 1.351 . S
C603 C597 1.428 . S
C603 N602 1.351 . S
C603 C604 1.434 1_554 S
C604 C595 1.429 . S
C604 N601 1.350 . S
C604 C603 1.434 1_556 S
C605 C606 1.369 . S
C605 C607 1.419 . S
C605 H609 0.930 . S
C606 C605 1.369 . S
C606 C615 1.429 . S
C607 C605 1.419 . S
C607 C608 1.363 . S
C607 H610 0.929 . S
C608 C607 1.363 . S
C608 C614 1.428 . S
H609 C605 0.930 . S
H610 C607 0.929 . S
S611 N612 1.613 . S
S611 N613 1.610 . S
N612 S611 1.613 . S
N612 C615 1.350 . S
N613 S611 1.610 . S
N613 C614 1.351 . S
C614 C608 1.428 . S
C614 N613 1.351 . S
C614 C615 1.434 . S
C615 C606 1.429 . S
C615 N612 1.350 . S
C615 C614 1.434 . S
C616 C617 1.369 . S
C616 C618 1.419 1_554 S
C616 H620 0.930 . S
C617 C616 1.369 . S
C617 C626 1.429 . S
C618 C616 1.419 1_556 S
C618 C619 1.363 . S
C618 H621 0.929 . S
C619 C618 1.363 . S
C619 C625 1.428 . S
H620 C616 0.930 . S
H621 C618 0.929 . S
S622 N623 1.613 . S
S622 N624 1.610 1_554 S
N623 S622 1.613 . S
N623 C626 1.350 . S
N624 S622 1.610 1_556 S
N624 C625 1.351 . S
C625 C619 1.428 . S
C625 N624 1.351 . S
C625 C626 1.434 1_556 S
C626 C617 1.429 . S
C626 N623 1.350 . S
C626 C625 1.434 1_554 S
C627 C628 1.369 . S
C627 C629 1.419 . S
C627 H631 0.930 . S
C628 C627 1.369 . S
C628 C637 1.429 . S
C629 C627 1.419 . S
C629 C630 1.363 . S
C629 H632 0.929 . S
C630 C629 1.363 . S
C630 C636 1.428 . S
H631 C627 0.930 . S
H632 C629 0.929 . S
S633 N634 1.613 . S
S633 N635 1.610 . S
N634 S633 1.613 . S
N634 C637 1.350 . S
N635 S633 1.610 . S
N635 C636 1.351 . S
C636 C630 1.428 . S
C636 N635 1.351 . S
C636 C637 1.434 . S
C637 C628 1.429 . S
C637 N634 1.350 . S
C637 C636 1.434 . S
C638 C639 1.369 . S
C638 C640 1.419 1_554 S
C638 H642 0.930 . S
C639 C638 1.369 . S
C639 C648 1.429 . S
C640 C638 1.419 1_556 S
C640 C641 1.363 . S
C640 H643 0.929 . S
C641 C640 1.363 . S
C641 C647 1.428 . S
H642 C638 0.930 . S
H643 C640 0.929 . S
S644 N645 1.613 1_556 S
S644 N646 1.610 . S
N645 S644 1.613 1_554 S
N645 C648 1.350 . S
N646 S644 1.610 . S
N646 C647 1.351 . S
C647 C641 1.428 . S
C647 N646 1.351 . S
C647 C648 1.434 1_556 S
C648 C639 1.429 . S
C648 N645 1.350 . S
C648 C647 1.434 1_554 S
C649 C650 1.369 . S
C649 C651 1.419 . S
C649 H653 0.930 . S
C650 C649 1.369 . S
C650 C659 1.429 . S
C651 C649 1.419 . S
C651 C652 1.363 . S
C651 H654 0.929 . S
C652 C651 1.363 . S
C652 C658 1.428 . S
H653 C649 0.930 . S
H654 C651 0.929 . S
S655 N656 1.613 . S
S655 N657 1.610 . S
N656 S655 1.613 . S
N656 C659 1.350 . S
N657 S655 1.610 . S
N657 C658 1.351 . S
C658 C652 1.428 . S
C658 N657 1.351 . S
C658 C659 1.434 . S
C659 C650 1.429 . S
C659 N656 1.350 . S
C659 C658 1.434 . S
C660 C661 1.369 . S
C660 C662 1.419 . S
C660 H664 0.930 . S
C661 C660 1.369 . S
C661 C670 1.429 . S
C662 C660 1.419 . S
C662 C663 1.363 . S
C662 H665 0.929 . S
C663 C662 1.363 . S
C663 C669 1.428 . S
H664 C660 0.930 . S
H665 C662 0.929 . S
S666 N667 1.613 . S
S666 N668 1.610 . S
N667 S666 1.613 . S
N667 C670 1.350 . S
N668 S666 1.610 . S
N668 C669 1.351 . S
C669 C663 1.428 . S
C669 N668 1.351 . S
C669 C670 1.434 . S
C670 C661 1.429 . S
C670 N667 1.350 . S
C670 C669 1.434 . S
C671 C672 1.369 . S
C671 C673 1.419 1_455 S
C671 H675 0.930 . S
C672 C671 1.369 . S
C672 C681 1.429 . S
C673 C671 1.419 1_655 S
C673 C674 1.363 . S
C673 H676 0.929 . S
C674 C673 1.363 . S
C674 C680 1.428 . S
H675 C671 0.930 . S
H676 C673 0.929 . S
S677 N678 1.587 1_655 S
S677 N679 1.620 . S
N678 S677 1.587 1_455 S
N678 C681 1.350 . S
N679 S677 1.620 . S
N679 C680 1.351 . S
C680 C674 1.428 . S
C680 N679 1.351 . S
C680 C681 1.434 1_655 S
C681 C672 1.429 . S
C681 N678 1.350 . S
C681 C680 1.434 1_455 S
C682 C683 1.369 . S
C682 C684 1.419 1_545 S
C682 H686 0.930 . S
C683 C682 1.369 . S
C683 C692 1.429 . S
C684 C682 1.419 1_565 S
C684 C685 1.363 . S
C684 H687 0.929 . S
C685 C684 1.363 . S
C685 C691 1.428 . S
H686 C682 0.930 . S
H687 C684 0.929 . S
S688 N689 1.613 . S
S688 N690 1.610 1_545 S
N689 S688 1.613 . S
N689 C692 1.350 . S
N690 S688 1.610 1_565 S
N690 C691 1.351 . S
C691 C685 1.428 . S
C691 N690 1.351 . S
C691 C692 1.434 1_565 S
C692 C683 1.429 . S
C692 N689 1.350 . S
C692 C691 1.434 1_545 S
C693 C694 1.369 . S
C693 C695 1.419 . S
C693 H697 0.930 . S
C694 C693 1.369 . S
C694 C703 1.429 . S
C695 C693 1.419 . S
C695 C696 1.363 . S
C695 H698 0.929 . S
C696 C695 1.363 . S
C696 C702 1.428 . S
H697 C693 0.930 . S
H698 C695 0.929 . S
S699 N700 1.613 . S
S699 N701 1.610 . S
N700 S699 1.613 . S
N700 C703 1.350 . S
N701 S699 1.610 . S
N701 C702 1.351 . S
C702 C696 1.428 . S
C702 N701 1.351 . S
C702 C703 1.434 . S
C703 C694 1.429 . S
C703 N700 1.350 . S
C703 C702 1.434 . S
C704 C705 1.369 . S
C704 C706 1.419 1_455 S
C704 H708 0.930 . S
C705 C704 1.369 . S
C705 C714 1.429 . S
C706 C704 1.419 1_655 S
C706 C707 1.363 . S
C706 H709 0.929 . S
C707 C706 1.363 . S
C707 C713 1.428 . S
H708 C704 0.930 . S
H709 C706 0.929 . S
S710 N711 1.601 1_655 S
S710 N712 1.615 . S
N711 S710 1.601 1_455 S
N711 C714 1.350 . S
N712 S710 1.615 . S
N712 C713 1.351 . S
C713 C707 1.428 . S
C713 N712 1.351 . S
C713 C714 1.434 1_655 S
C714 C705 1.429 . S
C714 N711 1.350 . S
C714 C713 1.434 1_455 S
C715 C716 1.369 . S
C715 C717 1.419 1_565 S
C715 H719 0.930 . S
C716 C715 1.369 . S
C716 C725 1.429 . S
C717 C715 1.419 1_545 S
C717 C718 1.363 . S
C717 H720 0.929 . S
C718 C717 1.363 . S
C718 C724 1.428 . S
H719 C715 0.930 . S
H720 C717 0.929 . S
S721 N722 1.613 1_545 S
S721 N723 1.610 . S
N722 S721 1.613 1_565 S
N722 C725 1.350 . S
N723 S721 1.610 . S
N723 C724 1.351 . S
C724 C718 1.428 . S
C724 N723 1.351 . S
C724 C725 1.434 1_545 S
C725 C716 1.429 . S
C725 N722 1.350 . S
C725 C724 1.434 1_565 S
C397 C8 2.349 . S
C399 C206 2.350 . S
C408 C41 2.351 . S
C410 C239 2.352 . S
C419 C74 2.350 . S
C421 C272 2.350 . S
C430 C305 2.351 . S
C432 C107 2.352 . S
C441 C140 2.350 . S
C443 C338 2.350 . S
C452 C371 2.353 . S
C454 C173 2.352 . S
C463 N302 0.893 . S
C465 N104 0.896 . S
C474 N137 0.882 . S
C476 N335 0.893 . S
C485 N368 0.896 . S
C487 N170 0.884 . S
C496 N203 0.901 . S
C498 N5 0.888 . S
C507 N236 0.896 . S
C509 N38 0.884 . S
C518 N71 0.886 . S
C520 N269 0.899 . S
C529 N344 0.927 . S
C531 N14 0.933 . S
C540 N47 0.932 . S
C542 N377 0.929 . S
C551 N80 0.933 . S
C553 N212 0.930 . S
C562 N113 0.925 . S
C564 N245 0.935 . S
C573 N146 0.931 . S
C575 N278 0.932 . S
C584 N179 0.932 . S
C586 N311 0.931 . S
C595 C127 1.960 . S
C597 C259 1.958 . S
C606 C160 1.960 . S
C608 C292 1.960 . S
C617 C325 1.961 . S
C619 C193 1.958 . S
C628 C28 1.957 . S
C630 C358 1.961 . S
C639 C391 1.958 . S
C641 C61 1.961 . S
C650 C94 1.958 . S
C652 C226 1.960 . S
C661 C17 1.390 . S
C663 C314 1.390 . S
C672 C347 1.389 . S
C674 C50 1.389 . S
C683 C380 1.392 . S
C685 C83 1.391 . S
C694 C215 1.389 . S
C696 C116 1.391 . S
C705 C149 1.394 . S
C707 C248 1.395 . S
C716 C281 1.389 . S
C718 C182 1.391 . S
