# Generated by pormake.
# Topology und, (4)-cn, num edge types: 1
# Building blocks:
#     Node 0, Type 0, BuildingBlock: GALJAG_clean_sbu_0, # of connection points: 4
#     Node 1, Type 0, BuildingBlock: GALJAG_clean_sbu_0, # of connection points: 4
#     Node 2, Type 0, BuildingBlock: GALJAG_clean_sbu_0, # of connection points: 4
#     Node 3, Type 0, BuildingBlock: GALJAG_clean_sbu_0, # of connection points: 4
#     Node 4, Type 0, BuildingBlock: GALJAG_clean_sbu_0, # of connection points: 4
#     Node 5, Type 0, BuildingBlock: GALJAG_clean_sbu_0, # of connection points: 4
#     Node 6, Type 0, BuildingBlock: GALJAG_clean_sbu_0, # of connection points: 4
#     Node 7, Type 0, BuildingBlock: GALJAG_clean_sbu_0, # of connection points: 4
#     Node 8, Type 0, BuildingBlock: GALJAG_clean_sbu_0, # of connection points: 4
#     Node 9, Type 0, BuildingBlock: GALJAG_clean_sbu_0, # of connection points: 4
#     Node 10, Type 0, BuildingBlock: GALJAG_clean_sbu_0, # of connection points: 4
#     Node 11, Type 0, BuildingBlock: GALJAG_clean_sbu_0, # of connection points: 4
#     Node 12, Type 0, BuildingBlock: GALJAG_clean_sbu_0, # of connection points: 4
#     Node 13, Type 0, BuildingBlock: GALJAG_clean_sbu_0, # of connection points: 4
#     Node 14, Type 0, BuildingBlock: GALJAG_clean_sbu_0, # of connection points: 4
#     Node 15, Type 0, BuildingBlock: GALJAG_clean_sbu_0, # of connection points: 4
#     Edge 16, Type (0, 0), BuildingBlock: UVAHIK_clean_linker_0, # of connection points: 2
#     Edge 17, Type (0, 0), BuildingBlock: UVAHIK_clean_linker_0, # of connection points: 2
#     Edge 18, Type (0, 0), BuildingBlock: UVAHIK_clean_linker_0, # of connection points: 2
#     Edge 19, Type (0, 0), BuildingBlock: UVAHIK_clean_linker_0, # of connection points: 2
#     Edge 20, Type (0, 0), BuildingBlock: UVAHIK_clean_linker_0, # of connection points: 2
#     Edge 21, Type (0, 0), BuildingBlock: UVAHIK_clean_linker_0, # of connection points: 2
#     Edge 22, Type (0, 0), BuildingBlock: UVAHIK_clean_linker_0, # of connection points: 2
#     Edge 23, Type (0, 0), BuildingBlock: UVAHIK_clean_linker_0, # of connection points: 2
#     Edge 24, Type (0, 0), BuildingBlock: UVAHIK_clean_linker_0, # of connection points: 2
#     Edge 25, Type (0, 0), BuildingBlock: UVAHIK_clean_linker_0, # of connection points: 2
#     Edge 26, Type (0, 0), BuildingBlock: UVAHIK_clean_linker_0, # of connection points: 2
#     Edge 27, Type (0, 0), BuildingBlock: UVAHIK_clean_linker_0, # of connection points: 2
#     Edge 28, Type (0, 0), BuildingBlock: UVAHIK_clean_linker_0, # of connection points: 2
#     Edge 29, Type (0, 0), BuildingBlock: UVAHIK_clean_linker_0, # of connection points: 2
#     Edge 30, Type (0, 0), BuildingBlock: UVAHIK_clean_linker_0, # of connection points: 2
#     Edge 31, Type (0, 0), BuildingBlock: UVAHIK_clean_linker_0, # of connection points: 2
#     Edge 32, Type (0, 0), BuildingBlock: UVAHIK_clean_linker_0, # of connection points: 2
#     Edge 33, Type (0, 0), BuildingBlock: UVAHIK_clean_linker_0, # of connection points: 2
#     Edge 34, Type (0, 0), BuildingBlock: UVAHIK_clean_linker_0, # of connection points: 2
#     Edge 35, Type (0, 0), BuildingBlock: UVAHIK_clean_linker_0, # of connection points: 2
#     Edge 36, Type (0, 0), BuildingBlock: UVAHIK_clean_linker_0, # of connection points: 2
#     Edge 37, Type (0, 0), BuildingBlock: UVAHIK_clean_linker_0, # of connection points: 2
#     Edge 38, Type (0, 0), BuildingBlock: UVAHIK_clean_linker_0, # of connection points: 2
#     Edge 39, Type (0, 0), BuildingBlock: UVAHIK_clean_linker_0, # of connection points: 2
#     Edge 40, Type (0, 0), BuildingBlock: UVAHIK_clean_linker_0, # of connection points: 2
#     Edge 41, Type (0, 0), BuildingBlock: UVAHIK_clean_linker_0, # of connection points: 2
#     Edge 42, Type (0, 0), BuildingBlock: UVAHIK_clean_linker_0, # of connection points: 2
#     Edge 43, Type (0, 0), BuildingBlock: UVAHIK_clean_linker_0, # of connection points: 2
#     Edge 44, Type (0, 0), BuildingBlock: UVAHIK_clean_linker_0, # of connection points: 2
#     Edge 45, Type (0, 0), BuildingBlock: UVAHIK_clean_linker_0, # of connection points: 2
#     Edge 46, Type (0, 0), BuildingBlock: UVAHIK_clean_linker_0, # of connection points: 2
#     Edge 47, Type (0, 0), BuildingBlock: UVAHIK_clean_linker_0, # of connection points: 2
# Relax obj value: 0.013
# Max RMSD: 0.034
# Mean RMSD: 0.034
data_MOF--net-und--node1-GALJAG_clean_sbu_0--edge1-UVAHIK_clean_linker_0
_symmetry_space_group_name_H-M    P1
_symmetry_Int_Tables_number       1
_symmetry_cell_setting            triclinic
loop_
_symmetry_equiv_pos_as_xyz
'x, y, z'
_cell_length_a     82.120874
_cell_length_b     82.077905
_cell_length_c     26.228047
_cell_angle_alpha  90.011838
_cell_angle_beta   90.016566
_cell_angle_gamma 89.980762
loop_
_atom_site_label
_atom_site_type_symbol
_atom_site_fract_x
_atom_site_fract_y
_atom_site_fract_z
_atom_type_partial_charge
In0 In 0.24551 0.3357 0.9949 0.0
O1 O 0.22046 0.34768 0.98936 0.0
O2 O 0.23656 0.35552 0.04815 0.0
C3 C 0.24557 0.3134 0.91983 0.0
C4 C 0.26799 0.35658 0.95896 0.0
C5 C 0.2455 0.31446 0.07297 0.0
O6 O 0.23335 0.32239 0.92832 0.0
O7 O 0.25763 0.31596 0.94845 0.0
O8 O 0.25788 0.32298 0.06235 0.0
O9 O 0.23326 0.31701 0.04507 0.0
C10 C 0.22281 0.35696 0.02714 0.0
O11 O 0.27027 0.34837 -0.00086 0.0
O12 O 0.25442 0.35427 0.93752 0.0
In13 In 0.90665 -0.00406 0.24923 0.0
O14 O 0.89273 0.01968 0.26245 0.0
O15 O 0.89023 0.00789 0.19056 0.0
C16 C 0.92821 0.99527 0.3265 0.0
C17 C 0.88511 0.97281 0.27671 0.0
C18 C 0.92887 -0.00375 0.17404 0.0
O19 O 0.92031 0.00799 0.31522 0.0
O20 O 0.9249 0.98296 0.29968 0.0
O21 O 0.91943 0.98427 0.1809 0.0
O22 O 0.92685 0.00797 0.2045 0.0
C23 C 0.88642 0.01981 0.2185 0.0
O24 O 0.8943 0.97118 0.2384 0.0
O25 O 0.88674 0.98608 0.30041 0.0
In26 In 0.2445 0.65626 0.49323 0.0
O27 O 0.26837 0.64232 0.48314 0.0
O28 O 0.2554 0.63951 0.55292 0.0
C29 C 0.24442 0.67773 0.41573 0.0
C30 C 0.22166 0.63474 0.46339 0.0
C31 C 0.24468 0.6786 0.56813 0.0
O32 O 0.25692 0.66949 0.42701 0.0
O33 O 0.23206 0.67481 0.44273 0.0
O34 O 0.23247 0.66956 0.56 0.0
O35 O 0.25668 0.6761 0.53912 0.0
C36 C 0.26774 0.63578 0.52674 0.0
O37 O 0.21961 0.64395 0.50148 0.0
O38 O 0.23517 0.63636 0.4411 0.0
In39 In 0.58523 -0.00396 0.74575 0.0
O40 O 0.598 0.02077 0.74216 0.0
O41 O 0.60366 0.00481 0.80376 0.0
C42 C 0.56395 -0.0037 0.66779 0.0
C43 C 0.60658 0.97356 0.71263 0.0
C44 C 0.56297 -0.00412 0.82086 0.0
O45 O 0.57236 0.0087 0.67911 0.0
O46 O 0.56662 0.98391 0.69496 0.0
O47 O 0.57188 0.98364 0.81182 0.0
O48 O 0.56555 0.00805 0.79269 0.0
C49 C 0.60609 0.0184 0.78256 0.0
O50 O 0.59738 0.97105 0.7505 0.0
O51 O 0.60499 0.98735 0.69197 0.0
In52 In 0.74461 0.65616 0.99538 0.0
O53 O 0.72127 0.64138 0.98236 0.0
O54 O 0.73304 0.63973 0.05445 0.0
C55 C 0.74449 0.67838 0.92014 0.0
C56 C 0.76807 0.6353 0.96548 0.0
C57 C 0.74481 0.67863 0.06987 0.0
O58 O 0.732 0.66999 0.93069 0.0
O59 O 0.7569 0.67523 0.94673 0.0
O60 O 0.75711 0.66983 0.06053 0.0
O61 O 0.73253 0.67581 0.04234 0.0
C62 C 0.72129 0.63536 0.02672 0.0
O63 O 0.76819 0.6419 0.00903 0.0
O64 O 0.75613 0.63912 0.93774 0.0
In65 In 0.08565 -0.00409 0.74794 0.0
O66 O 0.09766 0.02096 0.75565 0.0
O67 O 0.10621 0.00491 0.6978 0.0
C68 C 0.06277 -0.00377 0.8211 0.0
C69 C 0.10571 0.97264 0.78378 0.0
C70 C 0.06472 0.99571 0.66899 0.0
O71 O 0.07231 0.00814 0.81431 0.0
O72 O 0.06503 0.98429 0.79165 0.0
O73 O 0.07254 0.98312 0.68213 0.0
O74 O 0.06786 0.0083 0.69473 0.0
C75 C 0.10742 0.01864 0.71908 0.0
O76 O 0.09976 0.97208 0.73935 0.0
O77 O 0.1016 0.98493 0.80966 0.0
In78 In 0.74466 0.33462 0.49629 0.0
O79 O 0.72137 0.34928 0.5111 0.0
O80 O 0.73241 0.35087 0.43794 0.0
C81 C 0.74473 0.31226 0.57112 0.0
C82 C 0.76807 0.35561 0.52562 0.0
C83 C 0.74509 0.3123 0.42137 0.0
O84 O 0.73213 0.32043 0.56026 0.0
O85 O 0.75718 0.3157 0.54508 0.0
O86 O 0.75723 0.32136 0.43041 0.0
O87 O 0.73287 0.31479 0.44943 0.0
C88 C 0.72091 0.35523 0.46668 0.0
O89 O 0.76799 0.3492 0.4818 0.0
O90 O 0.75636 0.35153 0.55393 0.0
In91 In 0.40624 -0.004 0.24677 0.0
O92 O 0.39239 0.972 0.2555 0.0
O93 O 0.38997 0.98513 0.18585 0.0
C94 C 0.42753 -0.00372 0.32481 0.0
C95 C 0.38439 0.0186 0.27596 0.0
C96 C 0.42881 -0.0039 0.1727 0.0
O97 O 0.41964 0.98361 0.31283 0.0
O98 O 0.42429 0.0087 0.29838 0.0
O99 O 0.41951 0.00817 0.18023 0.0
O100 O 0.42648 0.98413 0.20194 0.0
C101 C 0.38614 0.97269 0.21146 0.0
O102 O 0.39386 0.02084 0.23862 0.0
O103 O 0.38593 0.00501 0.2979 0.0
In104 In 0.74591 0.83538 0.49656 0.0
O105 O 0.72113 0.84785 0.48937 0.0
O106 O 0.73706 0.85552 0.54879 0.0
C107 C 0.74578 0.81304 0.42151 0.0
C108 C 0.76924 0.85561 0.46226 0.0
C109 C 0.74535 0.81432 0.57514 0.0
O110 O 0.73372 0.82228 0.42955 0.0
O111 O 0.75778 0.81534 0.45061 0.0
O112 O 0.75788 0.82258 0.56446 0.0
O113 O 0.7332 0.817 0.54699 0.0
C114 C 0.72345 0.85718 0.52704 0.0
O115 O 0.77088 0.84747 0.50286 0.0
O116 O 0.75586 0.85358 0.43948 0.0
In117 In 0.4054 0.49711 0.74841 0.0
O118 O 0.3911 0.5207 0.75995 0.0
O119 O 0.38984 0.50908 0.68746 0.0
C120 C 0.42606 0.49659 0.82813 0.0
C121 C 0.38336 0.47422 0.77387 0.0
C122 C 0.42834 0.49703 0.67536 0.0
O123 O 0.41862 0.50939 0.81495 0.0
O124 O 0.42272 0.48414 0.80197 0.0
O125 O 0.41869 0.48518 0.68149 0.0
O126 O 0.42617 0.50883 0.70543 0.0
C127 C 0.38543 0.52085 0.71514 0.0
O128 O 0.39337 0.47217 0.7378 0.0
O129 O 0.38449 0.48775 0.7964 0.0
In130 In 0.74668 0.15557 0.99407 0.0
O131 O 0.77046 0.14145 0.98437 0.0
O132 O 0.75858 0.1406 0.05649 0.0
C133 C 0.74616 0.17566 0.91296 0.0
C134 C 0.7239 0.13328 0.96967 0.0
C135 C 0.74639 0.17893 0.06582 0.0
O136 O 0.75897 0.16834 0.92674 0.0
O137 O 0.73371 0.17247 0.9392 0.0
O138 O 0.73477 0.16894 0.06085 0.0
O139 O 0.75804 0.17693 0.03513 0.0
C140 C 0.77053 0.13616 0.02964 0.0
O141 O 0.72164 0.14375 0.00428 0.0
O142 O 0.7376 0.13404 0.94806 0.0
In143 In 0.08406 0.49544 0.24461 0.0
O144 O 0.09647 0.4706 0.25101 0.0
O145 O 0.10345 0.48634 0.19023 0.0
C146 C 0.06235 0.49591 0.32133 0.0
C147 C 0.10504 0.51827 0.27768 0.0
C148 C 0.06243 0.49484 0.16763 0.0
O149 O 0.07105 0.48352 0.3122 0.0
O150 O 0.0649 0.50793 0.29248 0.0
O151 O 0.07116 0.50722 0.17653 0.0
O152 O 0.06491 0.48289 0.19681 0.0
C153 C 0.10535 0.47279 0.2122 0.0
O154 O 0.09617 0.52045 0.23884 0.0
O155 O 0.10332 0.50463 0.29925 0.0
In156 In 0.24527 0.15663 0.49397 0.0
O157 O 0.27022 0.14442 0.49905 0.0
O158 O 0.25414 0.13715 0.43946 0.0
C159 C 0.24519 0.17856 0.57012 0.0
C160 C 0.22273 0.13563 0.52877 0.0
C161 C 0.24543 0.17829 0.41704 0.0
O162 O 0.25744 0.16965 0.56114 0.0
O163 O 0.23312 0.1761 0.54144 0.0
O164 O 0.23303 0.16972 0.42699 0.0
O165 O 0.25762 0.17559 0.44503 0.0
C166 C 0.26785 0.13543 0.46058 0.0
O167 O 0.22043 0.14413 0.48919 0.0
O168 O 0.23634 0.13773 0.55017 0.0
In169 In 0.58449 0.49554 0.24708 0.0
O170 O 0.59874 0.47179 0.23574 0.0
O171 O 0.60141 0.48454 0.3059 0.0
C172 C 0.56221 0.49538 0.17205 0.0
C173 C 0.60538 0.5187 0.21537 0.0
C174 C 0.56225 0.4959 0.32219 0.0
O175 O 0.57057 0.48288 0.18272 0.0
O176 O 0.56541 0.50783 0.19844 0.0
O177 O 0.57108 0.50816 0.31259 0.0
O178 O 0.56491 0.4836 0.29456 0.0
C179 C 0.60525 0.47232 0.2794 0.0
O180 O 0.59858 0.51932 0.25855 0.0
O181 O 0.60175 0.5064 0.18887 0.0
In182 In 0.24656 0.83551 0.99356 0.0
O183 O 0.22345 0.85019 0.01054 0.0
O184 O 0.23431 0.85252 0.9373 0.0
C185 C 0.24626 0.8129 0.06761 0.0
C186 C 0.27047 0.85604 0.02246 0.0
C187 C 0.24628 0.81354 0.91755 0.0
O188 O 0.23399 0.82174 0.05825 0.0
O189 O 0.25859 0.81576 0.04037 0.0
O190 O 0.25884 0.82181 0.92802 0.0
O191 O 0.23399 0.81665 0.94468 0.0
C192 C 0.22291 0.85662 0.96682 0.0
O193 O 0.26975 0.85023 0.9779 0.0
O194 O 0.25915 0.85158 0.05175 0.0
In195 In 0.90493 0.49562 0.74442 0.0
O196 O 0.89062 0.51933 0.73351 0.0
O197 O 0.88812 0.50656 0.80368 0.0
C198 C 0.92724 0.49603 0.66955 0.0
C199 C 0.88409 0.47253 0.71177 0.0
C200 C 0.92732 0.49508 0.81908 0.0
O201 O 0.91867 0.50841 0.67996 0.0
O202 O 0.92423 0.48358 0.69612 0.0
O203 O 0.91861 0.48278 0.80895 0.0
O204 O 0.92441 0.50752 0.79234 0.0
C205 C 0.8842 0.51878 0.77728 0.0
O206 O 0.89064 0.4719 0.75535 0.0
O207 O 0.88793 0.48479 0.68546 0.0
C208 C 0.25979 0.2974 0.13842 0.0
C209 C 0.24546 0.30165 0.11243 0.0
C210 C 0.25986 0.28428 0.17249 0.0
C211 C 0.2327 0.25769 0.24849 0.0
H212 H 0.2686 0.22708 0.24047 0.0
C213 C 0.23127 0.19565 0.35209 0.0
C214 C 0.24555 0.19129 0.37817 0.0
C215 C 0.23128 0.20889 0.31851 0.0
C216 C 0.25855 0.23559 0.24347 0.0
H217 H 0.21988 0.29582 0.10261 0.0
H218 H 0.22002 0.27298 0.16163 0.0
H219 H 0.26875 0.25137 0.18695 0.0
H220 H 0.27112 0.19705 0.38866 0.0
H221 H 0.27111 0.2201 0.3304 0.0
H222 H 0.2225 0.24189 0.30496 0.0
C223 C 0.23117 0.2798 0.15618 0.0
C224 C 0.25867 0.24953 0.21295 0.0
C225 C 0.23112 0.29285 0.12215 0.0
C226 C 0.25992 0.20011 0.36904 0.0
C227 C 0.25994 0.21328 0.33546 0.0
C228 C 0.23259 0.24374 0.27899 0.0
C229 C 0.24558 0.27523 0.18127 0.0
C230 C 0.24574 0.26073 0.21507 0.0
C231 C 0.24559 0.21795 0.31027 0.0
C232 C 0.2455 0.23253 0.2768 0.0
H233 H 0.27102 0.30397 0.13167 0.0
H234 H 0.2711 0.28117 0.19177 0.0
H235 H 0.22266 0.26618 0.25147 0.0
H236 H 0.22003 0.18906 0.3584 0.0
H237 H 0.22008 0.21208 0.29912 0.0
C238 C 0.94606 0.00932 0.39016 0.0
C239 C 0.94121 0.99497 0.36532 0.0
C240 C 0.95931 0.00917 0.42364 0.0
C241 C -0.00352 0.98569 0.45264 0.0
H242 H -0.00383 0.01068 0.57807 0.0
C243 C 0.04712 0.98101 0.60596 0.0
C244 C 0.05189 0.99559 0.62962 0.0
C245 C 0.03387 0.98081 0.57242 0.0
C246 C -0.00349 0.00378 0.54287 0.0
H247 H 0.94605 0.96911 0.35716 0.0
H248 H 0.96898 0.96881 0.41609 0.0
H249 H 0.97206 0.01045 0.52387 0.0
H250 H 0.04696 0.0215 0.6354 0.0
H251 H 0.02404 0.02118 0.57654 0.0
H252 H 0.02095 0.97902 0.47176 0.0
C253 C 0.96277 0.98024 0.40906 0.0
C254 C 0.98269 0.00364 0.51186 0.0
C255 C 0.94956 0.98039 0.3756 0.0
C256 C 0.04351 0.01005 0.61794 0.0
C257 C 0.0303 0.00985 0.58452 0.0
C258 C 0.0103 0.98581 0.48371 0.0
C259 C 0.96795 0.99466 0.43291 0.0
C260 C 0.98253 0.99463 0.46634 0.0
C261 C 0.02516 0.99519 0.56205 0.0
C262 C 0.01049 0.99491 0.52906 0.0
H263 H 0.93988 0.02074 0.38279 0.0
H264 H 0.96308 0.02052 0.44108 0.0
H265 H -0.00316 0.97883 0.41739 0.0
H266 H 0.05333 0.96968 0.61441 0.0
H267 H 0.03014 0.96931 0.5559 0.0
C268 C 0.25915 0.7007 0.615 0.0
C269 C 0.24487 0.69164 0.60687 0.0
C270 C 0.25927 0.71368 0.64933 0.0
C271 C 0.23213 0.7433 0.71065 0.0
H272 H 0.26893 0.75043 0.80068 0.0
C273 C 0.23165 0.79174 0.86978 0.0
C274 C 0.24605 0.80053 0.8787 0.0
C275 C 0.2315 0.77871 0.83561 0.0
C276 C 0.25867 0.74873 0.77529 0.0
H277 H 0.21959 0.68885 0.62891 0.0
H278 H 0.21981 0.71157 0.68934 0.0
H279 H 0.26854 0.72661 0.74512 0.0
H280 H 0.2715 0.80283 0.8581 0.0
H281 H 0.27121 0.78012 0.79774 0.0
H282 H 0.22227 0.76545 0.74065 0.0
C283 C 0.23087 0.70869 0.6687 0.0
C284 C 0.25842 0.73506 0.7436 0.0
C285 C 0.23076 0.69563 0.63442 0.0
C286 C 0.26024 0.79625 0.852 0.0
C287 C 0.26009 0.78318 0.81776 0.0
C288 C 0.23239 0.75699 0.74228 0.0
C289 C 0.24511 0.71792 0.67621 0.0
C290 C 0.24515 0.7322 0.71093 0.0
C291 C 0.24574 0.77418 0.80955 0.0
C292 C 0.24566 0.75986 0.77497 0.0
H293 H 0.27021 0.69792 0.59426 0.0
H294 H 0.27038 0.72065 0.65382 0.0
H295 H 0.22187 0.74158 0.68527 0.0
H296 H 0.22053 0.79472 0.8899 0.0
H297 H 0.2203 0.77193 0.83065 0.0
C298 C 0.4514 0.98197 0.12721 0.0
C299 C 0.44189 -0.00397 0.13415 0.0
C300 C 0.46432 0.98194 0.09275 0.0
C301 C 0.49287 0.00943 0.02806 0.0
H302 H 0.50095 0.97198 0.9414 0.0
C303 C 0.54057 0.01003 0.86717 0.0
C304 C 0.54995 -0.00408 0.85961 0.0
C305 C 0.52764 0.01002 0.90162 0.0
C306 C 0.49898 0.98244 0.96585 0.0
H307 H 0.43827 0.02101 0.10996 0.0
H308 H 0.4609 0.02095 0.04927 0.0
H309 H 0.47733 0.97213 -0.00227 0.0
H310 H 0.55336 0.9708 0.88277 0.0
H311 H 0.53078 0.97081 0.94362 0.0
H312 H 0.51454 0.01972 -0.00372 0.0
C313 C 0.45841 0.01 0.07094 0.0
C314 C 0.48542 0.98255 -0.00202 0.0
C315 C 0.44541 0.01001 0.10539 0.0
C316 C 0.54632 0.98184 0.88782 0.0
C317 C 0.53334 0.98183 0.92234 0.0
C318 C 0.50644 0.00931 -0.00403 0.0
C319 C 0.46806 -0.00401 0.06453 0.0
C320 C 0.48223 -0.00396 0.02944 0.0
C321 C 0.52379 -0.0041 0.92933 0.0
C322 C 0.50964 -0.00418 0.96447 0.0
H323 H 0.44899 0.971 0.14891 0.0
H324 H 0.47164 0.97102 0.08914 0.0
H325 H 0.49089 0.01988 0.05249 0.0
H326 H 0.54305 0.02106 0.84586 0.0
H327 H 0.52042 0.02099 0.90561 0.0
C328 C 0.26017 0.79024 0.11352 0.0
C329 C 0.2461 0.79963 0.10553 0.0
C330 C 0.25992 0.77704 0.14699 0.0
C331 C 0.23719 0.75926 0.25463 0.0
H332 H 0.25876 0.71934 0.21317 0.0
C333 C 0.23014 0.69964 0.36744 0.0
C334 C 0.24437 0.69058 0.37643 0.0
C335 C 0.23023 0.71263 0.3332 0.0
C336 C 0.25282 0.73045 0.22547 0.0
H337 H 0.22079 0.80277 0.12682 0.0
H338 H 0.2203 0.77958 0.18527 0.0
H339 H 0.25912 0.74294 0.1567 0.0
H340 H 0.26977 0.68777 0.35584 0.0
H341 H 0.26997 0.71058 0.29589 0.0
H342 H 0.23088 0.74676 0.32338 0.0
C343 C 0.23157 0.78253 0.16594 0.0
C344 C 0.25303 0.74397 0.19318 0.0
C345 C 0.23183 0.79576 0.13239 0.0
C346 C 0.25862 0.69452 0.34954 0.0
C347 C 0.2587 0.70754 0.31514 0.0
C348 C 0.23696 0.74573 0.28688 0.0
C349 C 0.24558 0.77293 0.1732 0.0
C350 C 0.24524 0.75854 0.20745 0.0
C351 C 0.24456 0.71686 0.30715 0.0
C352 C 0.24478 0.73118 0.27266 0.0
H353 H 0.27137 0.79297 0.09348 0.0
H354 H 0.27098 0.77007 0.15241 0.0
H355 H 0.23128 0.77038 0.26703 0.0
H356 H 0.21894 0.69685 0.38748 0.0
H357 H 0.21907 0.71941 0.32722 0.0
C358 C 0.44535 0.98203 0.38825 0.0
C359 C 0.44048 -0.00355 0.36382 0.0
C360 C 0.45863 0.9821 0.42167 0.0
C361 C 0.48471 0.00935 0.49909 0.0
H362 H 0.51614 0.97429 0.487 0.0
C363 C 0.5466 0.01088 0.60371 0.0
C364 C 0.55113 -0.00362 0.62836 0.0
C365 C 0.53346 0.01102 0.5697 0.0
C366 C 0.50741 0.9841 0.49111 0.0
H367 H 0.44537 0.02231 0.35617 0.0
H368 H 0.46851 0.0224 0.41412 0.0
H369 H 0.4918 0.97411 0.43377 0.0
H370 H 0.5458 0.9706 0.63579 0.0
H371 H 0.52295 0.97086 0.5768 0.0
H372 H 0.50033 0.01933 0.55647 0.0
C373 C 0.46205 0.01107 0.40791 0.0
C374 C 0.49344 0.98397 0.46075 0.0
C375 C 0.44882 0.011 0.37452 0.0
C376 C 0.54261 0.98197 0.61732 0.0
C377 C 0.52955 0.98209 0.58331 0.0
C378 C 0.49869 0.00949 0.52943 0.0
C379 C 0.46725 -0.00341 0.43135 0.0
C380 C 0.48191 -0.00343 0.46447 0.0
C381 C 0.52469 -0.00335 0.5596 0.0
C382 C 0.51018 -0.00315 0.52587 0.0
H383 H 0.43914 0.97064 0.38073 0.0
H384 H 0.46221 0.97078 0.43973 0.0
H385 H 0.47596 0.01914 0.50327 0.0
H386 H 0.55295 0.02216 0.61151 0.0
H387 H 0.53012 0.02238 0.55151 0.0
C388 C 0.25914 0.19516 0.63741 0.0
C389 C 0.2451 0.19153 0.60905 0.0
C390 C 0.25917 0.20823 0.67167 0.0
C391 C 0.23785 0.24688 0.69785 0.0
H392 H 0.25856 0.24361 0.83027 0.0
C393 C 0.23161 0.29662 0.85302 0.0
C394 C 0.24564 0.30028 0.88139 0.0
C395 C 0.23157 0.28348 0.81905 0.0
C396 C 0.25288 0.24477 0.79317 0.0
H397 H 0.21997 0.19841 0.59521 0.0
H398 H 0.21998 0.22101 0.65526 0.0
H399 H 0.25849 0.22009 0.77344 0.0
H400 H 0.27073 0.29335 0.89565 0.0
H401 H 0.27071 0.27062 0.83605 0.0
H402 H 0.23226 0.27156 0.71754 0.0
C403 C 0.23104 0.21398 0.6505 0.0
C404 C 0.25284 0.23129 0.76066 0.0
C405 C 0.23101 0.20096 0.61637 0.0
C406 C 0.2597 0.29078 0.87445 0.0
C407 C 0.25966 0.27769 0.84059 0.0
C408 C 0.2379 0.26036 0.73035 0.0
C409 C 0.24517 0.21789 0.67808 0.0
C410 C 0.24531 0.2322 0.71267 0.0
C411 C 0.24555 0.27377 0.8129 0.0
C412 C 0.24542 0.25946 0.77835 0.0
H413 H 0.27018 0.18812 0.6324 0.0
H414 H 0.27029 0.21101 0.69212 0.0
H415 H 0.23217 0.24804 0.66075 0.0
H416 H 0.22058 0.30371 0.85774 0.0
H417 H 0.22046 0.28069 0.79854 0.0
C418 C 0.03951 0.98251 0.86439 0.0
C419 C 0.04953 -0.00373 0.85914 0.0
C420 C 0.02651 0.98259 0.89858 0.0
C421 C -0.00101 0.01031 0.96711 0.0
H422 H 0.98963 0.97201 0.04862 0.0
C423 C 0.9517 0.01029 0.12949 0.0
C424 C 0.94179 -0.00355 0.13499 0.0
C425 C 0.96453 0.01035 0.09463 0.0
C426 C 0.99196 0.98272 0.02562 0.0
H427 H 0.05396 0.02085 0.88596 0.0
H428 H 0.03125 0.02095 0.94632 0.0
H429 H 0.01315 0.97205 0.99195 0.0
H430 H 0.93731 0.97193 0.10772 0.0
H431 H 0.95972 0.97207 0.04629 0.0
H432 H 0.9778 0.02098 0.00088 0.0
C433 C 0.03337 0.01017 0.92348 0.0
C434 C 0.00545 0.98276 0.99326 0.0
C435 C 0.04642 0.01008 0.88922 0.0
C436 C 0.94478 0.98275 0.10432 0.0
C437 C 0.95766 0.9828 0.06944 0.0
C438 C 0.98549 0.01027 -0.00051 0.0
C439 C 0.02323 -0.00357 0.92833 0.0
C440 C 0.00911 -0.00345 0.96362 0.0
C441 C 0.96774 -0.00343 0.06452 0.0
C442 C 0.98183 -0.00353 0.02911 0.0
H443 H 0.04157 0.9717 0.84159 0.0
H444 H 0.01882 0.9719 0.90091 0.0
H445 H 0.00133 0.02102 0.94413 0.0
H446 H 0.94972 0.02102 0.15269 0.0
H447 H 0.97218 0.02107 0.09221 0.0
C448 C 0.73014 0.69619 0.85679 0.0
C449 C 0.74452 0.69157 0.88193 0.0
C450 C 0.73014 0.70948 0.82341 0.0
C451 C 0.75745 0.73568 0.74687 0.0
H452 H 0.72198 0.76676 0.75538 0.0
C453 C 0.75936 0.79724 0.64107 0.0
C454 C 0.74508 0.80162 0.61497 0.0
C455 C 0.75925 0.78422 0.67544 0.0
C456 C 0.7319 0.75812 0.75228 0.0
H457 H 0.7702 0.697 0.89119 0.0
H458 H 0.77017 0.72015 0.83335 0.0
H459 H 0.7217 0.74258 0.80944 0.0
H460 H 0.71942 0.79617 0.60538 0.0
H461 H 0.71925 0.77347 0.66508 0.0
H462 H 0.76765 0.75121 0.68971 0.0
C463 C 0.75894 0.71348 0.83892 0.0
C464 C 0.73171 0.74425 0.78311 0.0
C465 C 0.75893 0.70025 0.87227 0.0
C466 C 0.73061 0.79308 0.62498 0.0
C467 C 0.73049 0.78012 0.65938 0.0
C468 C 0.75764 0.74955 0.71608 0.0
C469 C 0.74452 0.71835 0.81446 0.0
C470 C 0.74449 0.73287 0.78075 0.0
C471 C 0.74485 0.77539 0.68446 0.0
C472 C 0.74487 0.76093 0.71842 0.0
H473 H 0.71886 0.68971 0.86354 0.0
H474 H 0.71887 0.71282 0.80462 0.0
H475 H 0.76736 0.72704 0.74366 0.0
H476 H 0.77068 0.80363 0.63412 0.0
H477 H 0.77046 0.78099 0.69474 0.0
C478 C 0.73158 0.28911 0.37701 0.0
C479 C 0.74524 0.29925 0.38269 0.0
C480 C 0.7318 0.27621 0.34243 0.0
C481 C 0.75238 0.26088 0.22765 0.0
H482 H 0.73503 0.21919 0.27126 0.0
C483 C 0.75985 0.2027 0.10733 0.0
C484 C 0.74636 0.19226 0.10358 0.0
C485 C 0.75979 0.21567 0.1417 0.0
C486 C 0.73974 0.23079 0.2583 0.0
H487 H 0.76977 0.304 0.35616 0.0
H488 H 0.77018 0.28136 0.29544 0.0
H489 H 0.73487 0.24221 0.33003 0.0
H490 H 0.72226 0.18709 0.13304 0.0
H491 H 0.72205 0.20991 0.19295 0.0
H492 H 0.75718 0.24951 0.15583 0.0
C493 C 0.75927 0.28349 0.31764 0.0
C494 C 0.73967 0.24397 0.29197 0.0
C495 C 0.75906 0.2964 0.35247 0.0
C496 C 0.73284 0.19493 0.13525 0.0
C497 C 0.73277 0.20794 0.16968 0.0
C498 C 0.75242 0.24771 0.19392 0.0
C499 C 0.74568 0.27317 0.31266 0.0
C500 C 0.74597 0.25916 0.27698 0.0
C501 C 0.74622 0.21851 0.17305 0.0
C502 C 0.7461 0.23252 0.20887 0.0
H503 H 0.72072 0.29103 0.39969 0.0
H504 H 0.72106 0.26864 0.33888 0.0
H505 H 0.75712 0.27249 0.21481 0.0
H506 H 0.77048 0.20091 0.08353 0.0
H507 H 0.77044 0.22342 0.14395 0.0
C508 C 0.73125 0.19596 0.85983 0.0
C509 C 0.74591 0.18811 0.87238 0.0
C510 C 0.73112 0.20891 0.82537 0.0
C511 C 0.75792 0.2407 0.77385 0.0
H512 H 0.72308 0.24681 0.67582 0.0
C513 C 0.75942 0.2907 0.61975 0.0
C514 C 0.74483 0.29896 0.60893 0.0
C515 C 0.7595 0.27732 0.65253 0.0
C516 C 0.73278 0.24536 0.70345 0.0
H517 H 0.77185 0.18723 0.85741 0.0
H518 H 0.77161 0.20979 0.7966 0.0
H519 H 0.72352 0.22238 0.7288 0.0
H520 H 0.71895 0.29992 0.62468 0.0
H521 H 0.71909 0.27653 0.6825 0.0
H522 H 0.76716 0.26368 0.74856 0.0
C523 C 0.76025 0.20608 0.81403 0.0
C524 C 0.73306 0.23135 0.73367 0.0
C525 C 0.76038 0.19308 0.8485 0.0
C526 C 0.73036 0.29378 0.63236 0.0
C527 C 0.73043 0.28033 0.6651 0.0
C528 C 0.75764 0.25469 0.74362 0.0
C529 C 0.74565 0.2143 0.80273 0.0
C530 C 0.74563 0.22887 0.76924 0.0
C531 C 0.74499 0.27187 0.67515 0.0
C532 C 0.74506 0.25719 0.70811 0.0
H533 H 0.7199 0.19241 0.87769 0.0
H534 H 0.7197 0.21507 0.81789 0.0
H535 H 0.76759 0.2393 0.80157 0.0
H536 H 0.77077 0.29439 0.60216 0.0
H537 H 0.77088 0.27098 0.65905 0.0
C538 C 0.7589 0.69539 0.13648 0.0
C539 C 0.74483 0.69178 0.10824 0.0
C540 C 0.75898 0.70845 0.17072 0.0
C541 C 0.73781 0.74713 0.19772 0.0
H542 H 0.75829 0.74332 0.33036 0.0
C543 C 0.73176 0.79655 0.35409 0.0
C544 C 0.74576 0.79997 0.38289 0.0
C545 C 0.73165 0.78349 0.31978 0.0
C546 C 0.75268 0.74464 0.29321 0.0
H547 H 0.71973 0.69877 0.09433 0.0
H548 H 0.71984 0.72141 0.15429 0.0
H549 H 0.75817 0.71999 0.2728 0.0
H550 H 0.77073 0.79269 0.39759 0.0
H551 H 0.7706 0.77014 0.33741 0.0
H552 H 0.73234 0.77179 0.21808 0.0
C553 C 0.73088 0.71433 0.14952 0.0
C554 C 0.75261 0.73127 0.26027 0.0
C555 C 0.73079 0.70129 0.11544 0.0
C556 C 0.75972 0.79031 0.37608 0.0
C557 C 0.75962 0.77731 0.34186 0.0
C558 C 0.73789 0.76051 0.23064 0.0
C559 C 0.74501 0.71816 0.1772 0.0
C560 C 0.74517 0.73237 0.21219 0.0
C561 C 0.74554 0.77363 0.31371 0.0
C562 C 0.74534 0.75942 0.27873 0.0
H563 H 0.7699 0.68828 0.13157 0.0
H564 H 0.7701 0.71119 0.19123 0.0
H565 H 0.73219 0.74844 0.16058 0.0
H566 H 0.72082 0.80376 0.3587 0.0
H567 H 0.72056 0.78089 0.29893 0.0
C568 C 0.54413 0.48093 0.10972 0.0
C569 C 0.549 0.49539 0.13391 0.0
C570 C 0.53081 0.48093 0.07646 0.0
C571 C 0.5051 0.50812 -0.00194 0.0
H572 H 0.47318 0.47353 0.01031 0.0
C573 C 0.44358 0.51072 0.89256 0.0
C574 C 0.43869 0.4963 0.86815 0.0
C575 C 0.45662 0.51056 0.92687 0.0
C576 C 0.48205 0.4832 0.00614 0.0
H577 H 0.54401 0.52124 0.14155 0.0
H578 H 0.52083 0.52122 0.0838 0.0
H579 H 0.49745 0.47313 0.06398 0.0
H580 H 0.44324 0.47035 0.86156 0.0
H581 H 0.46599 0.47009 0.92104 0.0
H582 H 0.48975 0.51817 0.94016 0.0
C583 C 0.52732 0.50991 0.0901 0.0
C584 C 0.49597 0.48294 0.03676 0.0
C585 C 0.54056 0.5099 0.12338 0.0
C586 C 0.44672 0.48166 0.87986 0.0
C587 C 0.45972 0.48149 0.91413 0.0
C588 C 0.49119 0.50837 0.96743 0.0
C589 C 0.52218 0.49541 0.06665 0.0
C590 C 0.50764 0.49541 0.03308 0.0
C591 C 0.46498 0.49598 0.93745 0.0
C592 C 0.4795 0.49592 0.97114 0.0
H593 H 0.55042 0.46957 0.11716 0.0
H594 H 0.52725 0.4696 0.05845 0.0
H595 H 0.51397 0.51779 0.99387 0.0
H596 H 0.43759 0.52218 0.88431 0.0
H597 H 0.46024 0.52188 0.94482 0.0
C598 C 0.04058 0.51058 0.36898 0.0
C599 C 0.0495 0.49622 0.3606 0.0
C600 C 0.02762 0.51078 0.40333 0.0
C601 C 0.00952 0.4886 0.51175 0.0
H602 H 0.97004 0.51097 0.47039 0.0
C603 C 0.94953 0.48192 0.62262 0.0
C604 C 0.94044 0.49615 0.63142 0.0
C605 C 0.96274 0.48209 0.58922 0.0
C606 C 0.98103 0.50483 0.48272 0.0
H607 H 0.05209 0.47088 0.38233 0.0
H608 H 0.0293 0.47116 0.44226 0.0
H609 H 0.99363 0.51093 0.41398 0.0
H610 H 0.93784 0.52165 0.61152 0.0
H611 H 0.96104 0.52197 0.55303 0.0
H612 H -0.00311 0.48245 0.5804 0.0
C613 C 0.03244 0.48232 0.42256 0.0
C614 C 0.99455 0.5048 0.45045 0.0
C615 C 0.04545 0.48213 0.38816 0.0
C616 C 0.94461 0.51049 0.60533 0.0
C617 C 0.95785 0.51065 0.57178 0.0
C618 C -0.00401 0.48861 0.544 0.0
C619 C 0.02325 0.4966 0.43001 0.0
C620 C 0.00895 0.49668 0.46458 0.0
C621 C 0.96717 0.49648 0.56385 0.0
C622 C 0.98158 0.49669 0.52978 0.0
H623 H 0.04347 0.52167 0.34849 0.0
H624 H 0.02098 0.52204 0.40889 0.0
H625 H 0.0205 0.48243 0.52406 0.0
H626 H 0.94658 0.47066 0.64203 0.0
H627 H 0.96949 0.47091 0.58323 0.0
C628 C 0.04568 0.50851 0.10015 0.0
C629 C 0.04958 0.49449 0.1283 0.0
C630 C 0.03268 0.50831 0.06568 0.0
C631 C 0.99457 0.48613 0.03847 0.0
H632 H -0.0028 0.50796 0.90769 0.0
C633 C 0.94455 0.48058 0.88367 0.0
C634 C 0.94056 0.49489 0.85714 0.0
C635 C 0.9578 0.48034 0.91721 0.0
C636 C -0.00378 0.50195 0.94432 0.0
H637 H 0.04329 0.46917 0.14146 0.0
H638 H 0.02082 0.46878 0.08095 0.0
H639 H 0.0208 0.5079 0.96414 0.0
H640 H 0.94702 0.52026 0.84573 0.0
H641 H 0.96995 0.51988 0.9045 0.0
H642 H 0.96999 0.4802 0.01865 0.0
C643 C 0.02757 0.48 0.08608 0.0
C644 C 0.00974 0.50192 0.97663 0.0
C645 C 0.04052 0.48019 0.12048 0.0
C646 C 0.94984 0.50901 0.86549 0.0
C647 C 0.96305 0.50877 0.89887 0.0
C648 C 0.98106 0.48615 0.00614 0.0
C649 C 0.02335 0.4941 0.05877 0.0
C650 C 0.00906 0.49403 0.02411 0.0
C651 C 0.9673 0.4944 0.9247 0.0
C652 C 0.98171 0.49411 0.95879 0.0
H653 H 0.05243 0.51971 0.10555 0.0
H654 H 0.02965 0.51942 0.04551 0.0
H655 H 0.99357 0.48017 0.07517 0.0
H656 H 0.93763 0.4695 0.87784 0.0
H657 H 0.96084 0.46904 0.93632 0.0
C658 C 0.45158 0.51081 0.63203 0.0
C659 C 0.4416 0.49703 0.63739 0.0
C660 C 0.46461 0.51073 0.59792 0.0
C661 C 0.4808 0.48957 0.48462 0.0
H662 H 0.5217 0.50894 0.52709 0.0
C663 C 0.5396 0.48202 0.36808 0.0
C664 C 0.54924 0.49598 0.36098 0.0
C665 C 0.52668 0.48217 0.40254 0.0
C666 C 0.51031 0.50364 0.51451 0.0
H667 H 0.43729 0.47239 0.61095 0.0
H668 H 0.46021 0.47215 0.55152 0.0
H669 H 0.49852 0.50905 0.58522 0.0
H670 H 0.55312 0.52094 0.38499 0.0
H671 H 0.53042 0.52123 0.44542 0.0
H672 H 0.49262 0.4841 0.41399 0.0
C673 C 0.45784 0.4831 0.57332 0.0
C674 C 0.49703 0.5037 0.54776 0.0
C675 C 0.44476 0.4832 0.60745 0.0
C676 C 0.5459 0.51001 0.38978 0.0
C677 C 0.53296 0.51014 0.42445 0.0
C678 C 0.49409 0.48947 0.45143 0.0
C679 C 0.46798 0.49684 0.56846 0.0
C680 C 0.48211 0.49668 0.53317 0.0
C681 C 0.52311 0.49627 0.43076 0.0
C682 C 0.50899 0.4965 0.46603 0.0
H683 H 0.4494 0.52168 0.65445 0.0
H684 H 0.472 0.5216 0.59447 0.0
H685 H 0.46941 0.48428 0.47192 0.0
H686 H 0.54191 0.471 0.34655 0.0
H687 H 0.51948 0.47121 0.40716 0.0
C688 C 0.12752 0.46432 0.15282 0.0
C689 C 0.11709 0.46053 0.19356 0.0
C690 C 0.13872 0.45288 0.13499 0.0
C691 C 0.14733 0.409 0.13034 0.0
H692 H 0.19148 0.42314 0.10206 0.0
C693 C 0.19469 0.36883 0.02505 0.0
C694 C 0.21045 0.36859 0.04585 0.0
C695 C 0.18304 0.3798 0.04338 0.0
C696 C 0.17922 0.41899 0.11 0.0
H697 H 0.11009 0.44175 0.24737 0.0
H698 H 0.12973 0.42166 0.21603 0.0
H699 H 0.17164 0.44267 0.13449 0.0
H700 H 0.2264 0.3796 0.10208 0.0
H701 H 0.20611 0.39876 0.13383 0.0
H702 H 0.155 0.38527 0.10605 0.0
C703 C 0.12916 0.43349 0.19782 0.0
C704 C 0.16783 0.4302 0.12814 0.0
C705 C 0.118 0.44501 0.21593 0.0
C706 C 0.21435 0.37952 0.0852 0.0
C707 C 0.20277 0.39055 0.10324 0.0
C708 C 0.15872 0.3978 0.1118 0.0
C709 C 0.13968 0.43735 0.15732 0.0
C710 C 0.15177 0.42533 0.13852 0.0
C711 C 0.18699 0.39082 0.08253 0.0
C712 C 0.17479 0.40268 0.10157 0.0
H713 H 0.12707 0.47617 0.1347 0.0
H714 H 0.14654 0.45613 0.10333 0.0
H715 H 0.135 0.40494 0.13764 0.0
H716 H 0.19134 0.36052 0.99471 0.0
H717 H 0.17101 0.37984 0.0264 0.0
C718 C 0.79704 0.86809 0.46736 0.0
C719 C 0.78195 0.86666 0.44252 0.0
C720 C 0.80898 0.87863 0.44847 0.0
C721 C 0.82108 0.90147 0.33238 0.0
H722 H 0.84537 0.92795 0.42826 0.0
C723 C 0.873 0.94486 0.26941 0.0
C724 C 0.8736 0.9601 0.2937 0.0
C725 C 0.8624 0.93275 0.28695 0.0
C726 C 0.83863 0.92071 0.40094 0.0
H727 H 0.76753 0.87508 0.37844 0.0
H728 H 0.7882 0.89364 0.34606 0.0
H729 H 0.82573 0.9082 0.4599 0.0
H730 H 0.86344 0.97472 0.35479 0.0
H731 H 0.8448 0.95378 0.38473 0.0
H732 H 0.83361 0.9144 0.27337 0.0
C733 C 0.79096 0.88644 0.37957 0.0
C734 C 0.82752 0.90923 0.41913 0.0
C735 C 0.77906 0.87589 0.39836 0.0
C736 C 0.86331 0.96306 0.33543 0.0
C737 C 0.85271 0.95101 0.35285 0.0
C738 C 0.83219 0.91298 0.31418 0.0
C739 C 0.80605 0.88797 0.40442 0.0
C740 C 0.81849 0.89958 0.38507 0.0
C741 C 0.85219 0.93567 0.32907 0.0
C742 C 0.84096 0.92286 0.34825 0.0
H743 H 0.79963 0.86105 0.50134 0.0
H744 H 0.82054 0.87937 0.46818 0.0
H745 H 0.81449 0.89407 0.30512 0.0
H746 H 0.88084 0.94223 0.23724 0.0
H747 H 0.86239 0.92102 0.26806 0.0
C748 C 0.28106 0.6208 0.59817 0.0
C749 C 0.28044 0.62467 0.54609 0.0
C750 C 0.29296 0.61023 0.61688 0.0
C751 C 0.33261 0.59097 0.5831 0.0
H752 H 0.32106 0.56148 0.69282 0.0
C753 C 0.37142 0.53536 0.64394 0.0
C754 C 0.3743 0.53364 0.69646 0.0
C755 C 0.36058 0.54717 0.62605 0.0
C756 C 0.32448 0.56975 0.66248 0.0
H757 H 0.29171 0.62051 0.47257 0.0
H758 H 0.31216 0.60154 0.50474 0.0
H759 H 0.30075 0.58036 0.65977 0.0
H760 H 0.36821 0.54289 0.77148 0.0
H761 H 0.34892 0.56334 0.74012 0.0
H762 H 0.35621 0.57979 0.58494 0.0
C763 C 0.30375 0.607 0.53155 0.0
C764 C 0.31288 0.58064 0.6436 0.0
C765 C 0.29196 0.61778 0.51298 0.0
C766 C 0.36622 0.54398 0.73079 0.0
C767 C 0.35516 0.55561 0.71292 0.0
C768 C 0.34413 0.57989 0.60151 0.0
C769 C 0.30439 0.60307 0.58379 0.0
C770 C 0.31679 0.59144 0.60373 0.0
C771 C 0.35223 0.55728 0.6604 0.0
C772 C 0.34017 0.56922 0.64144 0.0
H773 H 0.27241 0.62605 0.62467 0.0
H774 H 0.29326 0.60781 0.65744 0.0
H775 H 0.33619 0.59927 0.55305 0.0
H776 H 0.37752 0.52757 0.61662 0.0
H777 H 0.35844 0.54814 0.5854 0.0
C778 C 0.71537 0.10902 0.91906 0.0
C779 C 0.71144 0.12127 0.95435 0.0
C780 C 0.70359 0.09789 0.90308 0.0
C781 C 0.65951 0.09254 0.88944 0.0
H782 H 0.6707 0.04681 0.8768 0.0
C783 C 0.61953 0.04582 0.78089 0.0
C784 C 0.61755 0.03048 0.8038 0.0
C785 C 0.6305 0.05712 0.80125 0.0
C786 C 0.66735 0.05952 0.88044 0.0
H787 H 0.69214 0.13148 0.00082 0.0
H788 H 0.67145 0.11197 0.97265 0.0
H789 H 0.69072 0.06594 0.91037 0.0
H790 H 0.62536 0.01499 0.86621 0.0
H791 H 0.64447 0.03467 0.90161 0.0
H792 H 0.6361 0.08607 0.85948 0.0
C793 C 0.68366 0.11105 0.95727 0.0
C794 C 0.67886 0.07049 0.89925 0.0
C795 C 0.69551 0.12214 0.9736 0.0
C796 C 0.62667 0.02669 0.84755 0.0
C797 C 0.63767 0.03793 0.86773 0.0
C798 C 0.64801 0.08157 0.87028 0.0
C799 C 0.68759 0.09882 0.92181 0.0
C800 C 0.67509 0.08713 0.90374 0.0
C801 C 0.63976 0.05324 0.84471 0.0
C802 C 0.65183 0.06494 0.86548 0.0
H803 H 0.72755 0.10806 0.90349 0.0
H804 H 0.70695 0.08872 0.87529 0.0
H805 H 0.65632 0.10532 0.8921 0.0
H806 H 0.61265 0.04907 0.74715 0.0
H807 H 0.63197 0.06877 0.78241 0.0
C808 C 0.12714 0.52677 0.33726 0.0
C809 C 0.11658 0.53063 0.29688 0.0
C810 C 0.13814 0.53831 0.35567 0.0
C811 C 0.14608 0.58226 0.363 0.0
H812 H 0.19058 0.56858 0.38831 0.0
C813 C 0.19369 0.62252 0.46752 0.0
C814 C 0.20927 0.62303 0.44544 0.0
C815 C 0.18201 0.6115 0.44958 0.0
C816 C 0.17821 0.5726 0.38126 0.0
H817 H 0.10913 0.54961 0.24438 0.0
H818 H 0.12842 0.56987 0.27677 0.0
H819 H 0.17087 0.54898 0.35557 0.0
H820 H 0.22484 0.61249 0.38733 0.0
H821 H 0.20453 0.59327 0.35632 0.0
H822 H 0.15353 0.60594 0.38845 0.0
C823 C 0.1281 0.55791 0.29422 0.0
C824 C 0.1669 0.56135 0.36292 0.0
C825 C 0.11715 0.54631 0.2755 0.0
C826 C 0.21295 0.61234 0.40525 0.0
C827 C 0.20135 0.60128 0.38761 0.0
C828 C 0.15739 0.59351 0.38176 0.0
C829 C 0.13878 0.55398 0.33431 0.0
C830 C 0.15073 0.56605 0.35353 0.0
C831 C 0.18577 0.60072 0.40958 0.0
C832 C 0.17359 0.58879 0.39087 0.0
H833 H 0.12695 0.5148 0.35462 0.0
H834 H 0.14608 0.53499 0.38699 0.0
H835 H 0.13366 0.58619 0.35647 0.0
H836 H 0.19052 0.63065 0.4985 0.0
H837 H 0.17013 0.61124 0.46748 0.0
C838 C 0.62892 0.96537 0.65345 0.0
C839 C 0.61831 0.96136 0.69352 0.0
C840 C 0.64007 0.95395 0.63509 0.0
C841 C 0.64824 0.90998 0.62779 0.0
H842 H 0.69259 0.92384 0.60125 0.0
C843 C 0.69554 0.86951 0.52346 0.0
C844 C 0.71121 0.86905 0.54495 0.0
C845 C 0.68396 0.88064 0.54129 0.0
C846 C 0.68027 0.91977 0.60867 0.0
H847 H 0.61095 0.94223 0.74562 0.0
H848 H 0.63049 0.92221 0.71344 0.0
H849 H 0.67284 0.9434 0.63408 0.0
H850 H 0.72706 0.87988 0.60177 0.0
H851 H 0.7069 0.8993 0.63268 0.0
H852 H 0.65576 0.88628 0.60274 0.0
C853 C 0.6301 0.93418 0.6961 0.0
C854 C 0.66893 0.931 0.62704 0.0
C855 C 0.61899 0.94566 0.71471 0.0
C856 C 0.7151 0.87996 0.58437 0.0
C857 C 0.70358 0.89114 0.60192 0.0
C858 C 0.65958 0.89875 0.60906 0.0
C859 C 0.6408 0.93824 0.65622 0.0
C860 C 0.6528 0.92623 0.63687 0.0
C861 C 0.68789 0.8916 0.58063 0.0
C862 C 0.67572 0.90353 0.59949 0.0
H863 H 0.62865 0.97736 0.63623 0.0
H864 H 0.64801 0.95737 0.60392 0.0
H865 H 0.63586 0.90599 0.63461 0.0
H866 H 0.69221 0.86123 0.49304 0.0
H867 H 0.672 0.88082 0.52385 0.0
C868 C 0.37187 0.44595 0.76899 0.0
C869 C 0.37143 0.46175 0.78958 0.0
C870 C 0.36078 0.43412 0.78543 0.0
C871 C 0.32067 0.42953 0.84614 0.0
H872 H 0.33571 0.38615 0.8813 0.0
C873 C 0.27633 0.37756 0.8953 0.0
C874 C 0.28014 0.36806 0.93822 0.0
C875 C 0.28765 0.38856 0.8756 0.0
C876 C 0.33136 0.39824 0.87179 0.0
H877 H 0.35899 0.47761 0.84309 0.0
H878 H 0.33964 0.45704 0.87145 0.0
H879 H 0.35511 0.40631 0.84911 0.0
H880 H 0.29885 0.36246 0.99385 0.0
H881 H 0.3187 0.38177 0.95933 0.0
H882 H 0.297 0.42159 0.86934 0.0
C883 C 0.34848 0.45379 0.84253 0.0
C884 C 0.34242 0.40971 0.8529 0.0
C885 C 0.35962 0.46554 0.82645 0.0
C886 C 0.29558 0.36965 0.96076 0.0
C887 C 0.30696 0.38062 0.94083 0.0
C888 C 0.30962 0.41805 0.86464 0.0
C889 C 0.34896 0.43795 0.82235 0.0
C890 C 0.33719 0.42551 0.84025 0.0
C891 C 0.30306 0.39026 0.89822 0.0
C892 C 0.31485 0.40231 0.87792 0.0
H893 H 0.38086 0.4427 0.74055 0.0
H894 H 0.36134 0.42204 0.76895 0.0
H895 H 0.31626 0.44157 0.83631 0.0
H896 H 0.26455 0.37656 0.87696 0.0
H897 H 0.28436 0.39568 0.84237 0.0
C898 C 0.79428 0.1175 0.01692 0.0
C899 C 0.78347 0.12551 0.04989 0.0
C900 C 0.80612 0.10694 0.03636 0.0
C901 C 0.81607 0.08298 0.15261 0.0
H902 H 0.85813 0.07861 0.08685 0.0
C903 C 0.8686 0.04398 0.23529 0.0
C904 C 0.87548 0.03288 0.20069 0.0
C905 C 0.85793 0.05608 0.21815 0.0
C906 C 0.84641 0.07971 0.10547 0.0
H907 H 0.77684 0.12923 0.12902 0.0
H908 H 0.79782 0.11135 0.16312 0.0
H909 H 0.83862 0.09857 0.05483 0.0
H910 H 0.8769 0.0259 0.12105 0.0
H911 H 0.85849 0.04721 0.09109 0.0
H912 H 0.82408 0.06426 0.20374 0.0
C913 C 0.79689 0.11273 0.12217 0.0
C914 C 0.83518 0.09106 0.08702 0.0
C915 C 0.78492 0.12307 0.10267 0.0
C916 C 0.87173 0.03426 0.1486 0.0
C917 C 0.86129 0.0465 0.1314 0.0
C918 C 0.82739 0.0718 0.17146 0.0
C919 C 0.80754 0.10436 0.08927 0.0
C920 C 0.81979 0.09274 0.11002 0.0
C921 C 0.85419 0.05744 0.16603 0.0
C922 C 0.84259 0.06995 0.14776 0.0
H923 H 0.79337 0.11911 0.97602 0.0
H924 H 0.8139 0.10054 0.00975 0.0
H925 H 0.80426 0.08366 0.17079 0.0
H926 H 0.87128 0.04317 0.27565 0.0
H927 H 0.85266 0.06443 0.24555 0.0
C928 C 0.79175 0.6168 0.9822 0.0
C929 C 0.78092 0.6241 0.94764 0.0
C930 C 0.80362 0.60588 0.96485 0.0
C931 C 0.82746 0.59452 0.8528 0.0
H932 H 0.82979 0.55166 0.91434 0.0
C933 C 0.86569 0.54267 0.76384 0.0
C934 C 0.8731 0.53145 0.79688 0.0
C935 C 0.85489 0.55438 0.78286 0.0
C936 C 0.82956 0.56366 0.89723 0.0
H937 H 0.77416 0.62604 0.86792 0.0
H938 H 0.79509 0.60725 0.83762 0.0
H939 H 0.81067 0.57168 0.94769 0.0
H940 H 0.87547 0.52394 0.87576 0.0
H941 H 0.85725 0.54468 0.9092 0.0
H942 H 0.84655 0.58675 0.80304 0.0
C943 C 0.79434 0.60987 0.87803 0.0
C944 C 0.81854 0.57509 0.91631 0.0
C945 C 0.78233 0.62054 0.89543 0.0
C946 C 0.86978 0.53234 0.8493 0.0
C947 C 0.85923 0.54418 0.86842 0.0
C948 C 0.83868 0.58318 0.83419 0.0
C949 C 0.80501 0.60236 0.91259 0.0
C950 C 0.81729 0.59057 0.89401 0.0
C951 C 0.85149 0.55527 0.83546 0.0
C952 C 0.8398 0.56754 0.8559 0.0
H953 H 0.79091 0.61933 0.02265 0.0
H954 H 0.81176 0.60027 0.99218 0.0
H955 H 0.82681 0.60645 0.83524 0.0
H956 H 0.86799 0.5422 0.7232 0.0
H957 H 0.849 0.56252 0.75614 0.0
C958 C 0.21441 0.11421 0.59098 0.0
C959 C 0.21054 0.12409 0.54895 0.0
C960 C 0.20305 0.10319 0.61029 0.0
C961 C 0.15925 0.09412 0.61563 0.0
H962 H 0.17395 0.05046 0.64862 0.0
C963 C 0.11908 0.04687 0.7217 0.0
C964 C 0.1192 0.03101 0.70153 0.0
C965 C 0.13007 0.05857 0.70382 0.0
C966 C 0.16965 0.06259 0.63943 0.0
H967 H 0.19169 0.13031 0.49446 0.0
H968 H 0.17175 0.11096 0.52833 0.0
H969 H 0.19326 0.07025 0.61485 0.0
H970 H 0.13091 0.01494 0.64706 0.0
H971 H 0.15009 0.03529 0.61613 0.0
H972 H 0.13557 0.08634 0.63982 0.0
C973 C 0.18358 0.11184 0.54642 0.0
C974 C 0.18073 0.07396 0.62051 0.0
C975 C 0.19501 0.12283 0.52686 0.0
C976 C 0.13055 0.02705 0.66345 0.0
C977 C 0.14159 0.03868 0.64588 0.0
C978 C 0.14816 0.08276 0.63493 0.0
C979 C 0.18753 0.10184 0.58817 0.0
C980 C 0.17566 0.08983 0.60828 0.0
C981 C 0.14146 0.05457 0.66579 0.0
C982 C 0.15324 0.06684 0.64678 0.0
H983 H 0.22627 0.11495 0.60896 0.0
H984 H 0.20638 0.0958 0.64288 0.0
H985 H 0.15503 0.10631 0.60692 0.0
H986 H 0.11043 0.05026 0.75104 0.0
H987 H 0.12979 0.07069 0.72014 0.0
C988 C 0.69778 0.37435 0.48395 0.0
C989 C 0.70798 0.36635 0.44904 0.0
C990 C 0.68593 0.3853 0.46669 0.0
C991 C 0.66107 0.396 0.35588 0.0
H992 H 0.66044 0.4395 0.41341 0.0
C993 C 0.62327 0.44804 0.26595 0.0
C994 C 0.61634 0.4596 0.29884 0.0
C995 C 0.63401 0.43625 0.28487 0.0
C996 C 0.66021 0.42734 0.39745 0.0
H997 H 0.71359 0.36318 0.36884 0.0
H998 H 0.69271 0.38204 0.33878 0.0
H999 H 0.67941 0.41933 0.44678 0.0
H1000 H 0.6148 0.46768 0.37739 0.0
H1001 H 0.63296 0.44687 0.41065 0.0
H1002 H 0.64169 0.4038 0.30718 0.0
C1003 C 0.69392 0.37993 0.37937 0.0
C1004 C 0.67114 0.41581 0.41655 0.0
C1005 C 0.70592 0.36922 0.39663 0.0
C1006 C 0.6201 0.45902 0.35102 0.0
C1007 C 0.63062 0.44713 0.37004 0.0
C1008 C 0.64996 0.40745 0.33723 0.0
C1009 C 0.68392 0.38818 0.41423 0.0
C1010 C 0.67175 0.40009 0.39569 0.0
C1011 C 0.63785 0.43567 0.3372 0.0
C1012 C 0.64946 0.42332 0.35754 0.0
H1013 H 0.69912 0.37236 0.52456 0.0
H1014 H 0.6783 0.39148 0.49428 0.0
H1015 H 0.66123 0.38389 0.33944 0.0
H1016 H 0.62061 0.44826 0.2255 0.0
H1017 H 0.6395 0.4278 0.25826 0.0
C1018 C 0.36836 0.9482 0.22314 0.0
C1019 C 0.37525 0.95998 0.19096 0.0
C1020 C 0.35776 0.93644 0.20347 0.0
C1021 C 0.33167 0.92789 0.09047 0.0
H1022 H 0.33076 0.88429 0.14725 0.0
C1023 C 0.29351 0.87519 0.00436 0.0
C1024 C 0.28348 0.86714 0.03964 0.0
C1025 C 0.30547 0.88609 0.02121 0.0
C1026 C 0.33089 0.89644 0.13113 0.0
H1027 H 0.37684 0.9685 0.11289 0.0
H1028 H 0.35887 0.9477 0.07827 0.0
H1029 H 0.35038 0.90407 0.1796 0.0
H1030 H 0.27828 0.86384 0.12005 0.0
H1031 H 0.29934 0.8826 0.14939 0.0
H1032 H 0.31232 0.92005 0.04142 0.0
C1033 C 0.36118 0.94777 0.11892 0.0
C1034 C 0.34205 0.90782 0.14984 0.0
C1035 C 0.37158 0.95964 0.1387 0.0
C1036 C 0.28581 0.86992 0.09199 0.0
C1037 C 0.29791 0.88057 0.10882 0.0
C1038 C 0.32068 0.91643 0.07131 0.0
C1039 C 0.354 0.93608 0.15107 0.0
C1040 C 0.34248 0.92376 0.1301 0.0
C1041 C 0.30776 0.88885 0.07362 0.0
C1042 C 0.32008 0.90066 0.09181 0.0
H1043 H 0.37094 0.94824 0.26364 0.0
H1044 H 0.35228 0.92783 0.2296 0.0
H1045 H 0.3314 0.94011 0.07491 0.0
H1046 H 0.29195 0.87327 0.96379 0.0
H1047 H 0.31297 0.89229 0.99335 0.0
C1048 C 0.78261 0.37025 0.59534 0.0
C1049 C 0.7809 0.36689 0.5431 0.0
C1050 C 0.79462 0.38098 0.61241 0.0
C1051 C 0.81817 0.41617 0.57403 0.0
H1052 H 0.84698 0.40437 0.68525 0.0
C1053 C 0.86937 0.45917 0.63997 0.0
C1054 C 0.87296 0.45988 0.69225 0.0
C1055 C 0.85881 0.44732 0.62094 0.0
C1056 C 0.83889 0.40798 0.65468 0.0
H1057 H 0.79034 0.37207 0.46768 0.0
H1058 H 0.81117 0.39124 0.4976 0.0
H1059 H 0.82728 0.38459 0.65338 0.0
H1060 H 0.86833 0.44881 0.76577 0.0
H1061 H 0.84934 0.42846 0.73301 0.0
H1062 H 0.82918 0.43972 0.57628 0.0
C1063 C 0.80327 0.38543 0.52521 0.0
C1064 C 0.82769 0.39659 0.63626 0.0
C1065 C 0.79142 0.37445 0.50816 0.0
C1066 C 0.86581 0.44849 0.72523 0.0
C1067 C 0.85502 0.43676 0.70631 0.0
C1068 C 0.82918 0.42765 0.59293 0.0
C1069 C 0.80497 0.38876 0.57751 0.0
C1070 C 0.81723 0.4006 0.5958 0.0
C1071 C 0.85136 0.43603 0.65386 0.0
C1072 C 0.8397 0.42372 0.63355 0.0
H1073 H 0.7747 0.36455 0.62314 0.0
H1074 H 0.7956 0.38345 0.65288 0.0
H1075 H 0.81008 0.41962 0.54324 0.0
H1076 H 0.87485 0.4677 0.61355 0.0
H1077 H 0.85662 0.44695 0.58025 0.0
C1078 C 0.29577 0.1231 0.46267 0.0
C1079 C 0.2801 0.12378 0.44132 0.0
C1080 C 0.30729 0.11205 0.44395 0.0
C1081 C 0.31057 0.07329 0.37462 0.0
H1082 H 0.35527 0.0865 0.35058 0.0
C1083 C 0.36158 0.02709 0.33286 0.0
C1084 C 0.37252 0.03091 0.29347 0.0
C1085 C 0.35042 0.03865 0.35017 0.0
C1086 C 0.3428 0.08267 0.35682 0.0
H1087 H 0.26419 0.11351 0.38364 0.0
H1088 H 0.28424 0.09424 0.35118 0.0
H1089 H 0.33553 0.1064 0.38235 0.0
H1090 H 0.38041 0.04982 0.2414 0.0
H1091 H 0.36083 0.07012 0.2718 0.0
H1092 H 0.31776 0.04962 0.34893 0.0
C1093 C 0.28762 0.10215 0.38252 0.0
C1094 C 0.33156 0.09401 0.37548 0.0
C1095 C 0.27616 0.11324 0.40097 0.0
C1096 C 0.37211 0.04655 0.27178 0.0
C1097 C 0.36098 0.05818 0.28937 0.0
C1098 C 0.32182 0.06195 0.35634 0.0
C1099 C 0.3033 0.10141 0.40383 0.0
C1100 C 0.31533 0.08943 0.38449 0.0
C1101 C 0.34999 0.05432 0.32867 0.0
C1102 C 0.33805 0.06651 0.34727 0.0
H1103 H 0.29914 0.1311 0.49379 0.0
H1104 H 0.31924 0.11166 0.4614 0.0
H1105 H 0.29818 0.06936 0.38161 0.0
H1106 H 0.36164 0.01515 0.35044 0.0
H1107 H 0.34224 0.03538 0.38092 0.0
C1108 C 0.62065 0.53206 0.14459 0.0
C1109 C 0.6166 0.53139 0.1966 0.0
C1110 C 0.63129 0.54397 0.1264 0.0
C1111 C 0.66516 0.56951 0.1648 0.0
H1112 H 0.65421 0.59563 0.04642 0.0
C1113 C 0.70697 0.62142 0.09807 0.0
C1114 C 0.7086 0.62416 0.04551 0.0
C1115 C 0.69521 0.61067 0.11652 0.0
C1116 C 0.65759 0.58828 0.07903 0.0
H1117 H 0.62047 0.54262 0.2704 0.0
H1118 H 0.63947 0.5633 0.23863 0.0
H1119 H 0.6347 0.57572 0.07869 0.0
H1120 H 0.69923 0.61787 0.97088 0.0
H1121 H 0.67906 0.59854 0.00281 0.0
H1122 H 0.68822 0.58147 0.16442 0.0
C1123 C 0.63427 0.55463 0.21203 0.0
C1124 C 0.64636 0.57696 0.09765 0.0
C1125 C 0.6234 0.54287 0.23013 0.0
C1126 C 0.69818 0.61601 0.01163 0.0
C1127 C 0.68656 0.60502 0.03005 0.0
C1128 C 0.67649 0.58063 0.14577 0.0
C1129 C 0.63829 0.55529 0.15998 0.0
C1130 C 0.65003 0.56751 0.14077 0.0
C1131 C 0.68496 0.60216 0.08279 0.0
C1132 C 0.67285 0.59023 0.10272 0.0
H1133 H 0.61554 0.52339 0.11784 0.0
H1134 H 0.6343 0.54414 0.08618 0.0
H1135 H 0.66837 0.56219 0.19767 0.0
H1136 H 0.71472 0.62769 0.12513 0.0
H1137 H 0.69412 0.60914 0.15738 0.0
C1138 C 0.19953 0.87522 0.98652 0.0
C1139 C 0.20989 0.86787 0.95063 0.0
C1140 C 0.1874 0.88606 0.97061 0.0
C1141 C 0.16207 0.89694 0.86122 0.0
H1142 H 0.1601 0.94 0.92166 0.0
C1143 C 0.12398 0.94856 0.77164 0.0
C1144 C 0.11665 0.95997 0.8042 0.0
C1145 C 0.13467 0.93686 0.79111 0.0
C1146 C 0.16023 0.92794 0.90493 0.0
H1147 H 0.21554 0.86582 0.87011 0.0
H1148 H 0.19417 0.88449 0.84238 0.0
H1149 H 0.17961 0.92014 0.95397 0.0
H1150 H 0.11436 0.96786 0.88274 0.0
H1151 H 0.1325 0.94713 0.91703 0.0
H1152 H 0.14256 0.9045 0.81274 0.0
C1153 C 0.19549 0.88195 0.88271 0.0
C1154 C 0.17147 0.9166 0.92341 0.0
C1155 C 0.20776 0.87135 0.89863 0.0
C1156 C 0.11997 0.9593 0.85667 0.0
C1157 C 0.13046 0.94746 0.87626 0.0
C1158 C 0.15066 0.90818 0.84321 0.0
C1159 C 0.18525 0.88947 0.91853 0.0
C1160 C 0.17262 0.90108 0.9013 0.0
C1161 C 0.13808 0.93616 0.84371 0.0
C1162 C 0.14973 0.92391 0.86438 0.0
H1163 H 0.20093 0.87274 0.02685 0.0
H1164 H 0.17961 0.89168 -0.00108 0.0
H1165 H 0.16262 0.88497 0.84391 0.0
H1166 H 0.12169 0.94887 0.73097 0.0
H1167 H 0.1405 0.92857 0.76469 0.0
loop_
_geom_bond_atom_site_label_1
_geom_bond_atom_site_label_2
_geom_bond_distance
_geom_bond_site_symmetry_2
_ccdc_geom_bond_type
In0 O1 2.294 1_554 S
In0 O2 2.326 . S
In0 O6 2.266 1_554 S
In0 O7 2.326 1_554 S
In0 O8 2.266 . S
In0 O9 2.326 . S
In0 O11 2.294 . S
In0 O12 2.326 1_554 S
O1 In0 2.294 1_556 S
O1 C10 1.240 1_556 S
O2 In0 2.326 . S
O2 C10 1.252 . S
C3 O6 1.252 . S
C3 O7 1.260 . S
C4 O11 1.240 1_556 S
C4 O12 1.252 . S
C5 O8 1.252 . S
C5 O9 1.260 . S
O6 In0 2.266 1_556 S
O6 C3 1.252 . S
O7 In0 2.326 1_556 S
O7 C3 1.260 . S
O8 In0 2.266 . S
O8 C5 1.252 . S
O9 In0 2.326 . S
O9 C5 1.260 . S
C10 O1 1.240 1_554 S
C10 O2 1.252 . S
O11 In0 2.294 . S
O11 C4 1.240 1_554 S
O12 In0 2.326 1_556 S
O12 C4 1.252 . S
In13 O14 2.294 . S
In13 O15 2.326 . S
In13 O19 2.266 . S
In13 O20 2.326 1_545 S
In13 O21 2.266 1_545 S
In13 O22 2.326 . S
In13 O24 2.294 1_545 S
In13 O25 2.326 1_545 S
O14 In13 2.294 . S
O14 C23 1.240 . S
O15 In13 2.326 . S
O15 C23 1.252 . S
C16 O19 1.254 . S
C16 O20 1.258 1_545 S
C17 O24 1.240 . S
C17 O25 1.252 . S
C18 O21 1.254 1_545 S
C18 O22 1.258 . S
O19 In13 2.266 . S
O19 C16 1.254 . S
O20 In13 2.326 1_565 S
O20 C16 1.258 1_565 S
O21 In13 2.266 1_565 S
O21 C18 1.254 1_565 S
O22 In13 2.326 . S
O22 C18 1.258 . S
C23 O14 1.240 . S
C23 O15 1.252 . S
O24 In13 2.294 1_565 S
O24 C17 1.240 . S
O25 In13 2.326 1_565 S
O25 C17 1.252 . S
In26 O27 2.294 . S
In26 O28 2.326 . S
In26 O32 2.266 . S
In26 O33 2.326 . S
In26 O34 2.266 . S
In26 O35 2.326 . S
In26 O37 2.294 . S
In26 O38 2.326 . S
O27 In26 2.294 . S
O27 C36 1.240 . S
O28 In26 2.326 . S
O28 C36 1.252 . S
C29 O32 1.252 . S
C29 O33 1.260 . S
C30 O37 1.240 . S
C30 O38 1.252 . S
C31 O34 1.252 . S
C31 O35 1.260 . S
O32 In26 2.266 . S
O32 C29 1.252 . S
O33 In26 2.326 . S
O33 C29 1.260 . S
O34 In26 2.266 . S
O34 C31 1.252 . S
O35 In26 2.326 . S
O35 C31 1.260 . S
C36 O27 1.240 . S
C36 O28 1.252 . S
O37 In26 2.294 . S
O37 C30 1.240 . S
O38 In26 2.326 . S
O38 C30 1.252 . S
In39 O40 2.294 . S
In39 O41 2.326 . S
In39 O45 2.266 . S
In39 O46 2.326 1_545 S
In39 O47 2.266 1_545 S
In39 O48 2.326 . S
In39 O50 2.294 1_545 S
In39 O51 2.326 1_545 S
O40 In39 2.294 . S
O40 C49 1.240 . S
O41 In39 2.326 . S
O41 C49 1.252 . S
C42 O45 1.254 . S
C42 O46 1.258 1_545 S
C43 O50 1.240 . S
C43 O51 1.252 . S
C44 O47 1.254 1_545 S
C44 O48 1.258 . S
O45 In39 2.266 . S
O45 C42 1.254 . S
O46 In39 2.326 1_565 S
O46 C42 1.258 1_565 S
O47 In39 2.266 1_565 S
O47 C44 1.254 1_565 S
O48 In39 2.326 . S
O48 C44 1.258 . S
C49 O40 1.240 . S
C49 O41 1.252 . S
O50 In39 2.294 1_565 S
O50 C43 1.240 . S
O51 In39 2.326 1_565 S
O51 C43 1.252 . S
In52 O53 2.294 1_554 S
In52 O54 2.326 . S
In52 O58 2.266 1_554 S
In52 O59 2.326 1_554 S
In52 O60 2.266 . S
In52 O61 2.326 . S
In52 O63 2.294 . S
In52 O64 2.326 1_554 S
O53 In52 2.294 1_556 S
O53 C62 1.240 1_556 S
O54 In52 2.326 . S
O54 C62 1.252 . S
C55 O58 1.252 . S
C55 O59 1.260 . S
C56 O63 1.240 1_556 S
C56 O64 1.252 . S
C57 O60 1.252 . S
C57 O61 1.260 . S
O58 In52 2.266 1_556 S
O58 C55 1.252 . S
O59 In52 2.326 1_556 S
O59 C55 1.260 . S
O60 In52 2.266 . S
O60 C57 1.252 . S
O61 In52 2.326 . S
O61 C57 1.260 . S
C62 O53 1.240 1_554 S
C62 O54 1.252 . S
O63 In52 2.294 . S
O63 C56 1.240 1_554 S
O64 In52 2.326 1_556 S
O64 C56 1.252 . S
In65 O66 2.294 . S
In65 O67 2.326 . S
In65 O71 2.266 . S
In65 O72 2.326 1_545 S
In65 O73 2.266 1_545 S
In65 O74 2.326 . S
In65 O76 2.294 1_545 S
In65 O77 2.326 1_545 S
O66 In65 2.294 . S
O66 C75 1.240 . S
O67 In65 2.326 . S
O67 C75 1.252 . S
C68 O71 1.254 . S
C68 O72 1.258 1_545 S
C69 O76 1.240 . S
C69 O77 1.252 . S
C70 O73 1.254 1_545 S
C70 O74 1.258 . S
O71 In65 2.266 . S
O71 C68 1.254 . S
O72 In65 2.326 1_565 S
O72 C68 1.258 1_565 S
O73 In65 2.266 1_565 S
O73 C70 1.254 1_565 S
O74 In65 2.326 . S
O74 C70 1.258 . S
C75 O66 1.240 . S
C75 O67 1.252 . S
O76 In65 2.294 1_565 S
O76 C69 1.240 . S
O77 In65 2.326 1_565 S
O77 C69 1.252 . S
In78 O79 2.294 . S
In78 O80 2.326 . S
In78 O84 2.266 . S
In78 O85 2.326 . S
In78 O86 2.266 . S
In78 O87 2.326 . S
In78 O89 2.294 . S
In78 O90 2.326 . S
O79 In78 2.294 . S
O79 C88 1.240 . S
O80 In78 2.326 . S
O80 C88 1.252 . S
C81 O84 1.252 . S
C81 O85 1.260 . S
C82 O89 1.240 . S
C82 O90 1.252 . S
C83 O86 1.252 . S
C83 O87 1.260 . S
O84 In78 2.266 . S
O84 C81 1.252 . S
O85 In78 2.326 . S
O85 C81 1.260 . S
O86 In78 2.266 . S
O86 C83 1.252 . S
O87 In78 2.326 . S
O87 C83 1.260 . S
C88 O79 1.240 . S
C88 O80 1.252 . S
O89 In78 2.294 . S
O89 C82 1.240 . S
O90 In78 2.326 . S
O90 C82 1.252 . S
In91 O92 2.294 1_545 S
In91 O93 2.326 1_545 S
In91 O97 2.266 1_545 S
In91 O98 2.326 . S
In91 O99 2.266 . S
In91 O100 2.326 1_545 S
In91 O102 2.294 . S
In91 O103 2.326 . S
O92 In91 2.294 1_565 S
O92 C101 1.240 . S
O93 In91 2.326 1_565 S
O93 C101 1.252 . S
C94 O97 1.254 1_545 S
C94 O98 1.258 . S
C95 O102 1.240 . S
C95 O103 1.252 . S
C96 O99 1.254 . S
C96 O100 1.258 1_545 S
O97 In91 2.266 1_565 S
O97 C94 1.254 1_565 S
O98 In91 2.326 . S
O98 C94 1.258 . S
O99 In91 2.266 . S
O99 C96 1.254 . S
O100 In91 2.326 1_565 S
O100 C96 1.258 1_565 S
C101 O92 1.240 . S
C101 O93 1.252 . S
O102 In91 2.294 . S
O102 C95 1.240 . S
O103 In91 2.326 . S
O103 C95 1.252 . S
In104 O105 2.294 . S
In104 O106 2.326 . S
In104 O110 2.266 . S
In104 O111 2.326 . S
In104 O112 2.266 . S
In104 O113 2.326 . S
In104 O115 2.294 . S
In104 O116 2.326 . S
O105 In104 2.294 . S
O105 C114 1.240 . S
O106 In104 2.326 . S
O106 C114 1.252 . S
C107 O110 1.252 . S
C107 O111 1.260 . S
C108 O115 1.240 . S
C108 O116 1.252 . S
C109 O112 1.252 . S
C109 O113 1.260 . S
O110 In104 2.266 . S
O110 C107 1.252 . S
O111 In104 2.326 . S
O111 C107 1.260 . S
O112 In104 2.266 . S
O112 C109 1.252 . S
O113 In104 2.326 . S
O113 C109 1.260 . S
C114 O105 1.240 . S
C114 O106 1.252 . S
O115 In104 2.294 . S
O115 C108 1.240 . S
O116 In104 2.326 . S
O116 C108 1.252 . S
In117 O118 2.294 . S
In117 O119 2.326 . S
In117 O123 2.266 . S
In117 O124 2.326 . S
In117 O125 2.266 . S
In117 O126 2.326 . S
In117 O128 2.294 . S
In117 O129 2.326 . S
O118 In117 2.294 . S
O118 C127 1.240 . S
O119 In117 2.326 . S
O119 C127 1.252 . S
C120 O123 1.252 . S
C120 O124 1.260 . S
C121 O128 1.240 . S
C121 O129 1.252 . S
C122 O125 1.252 . S
C122 O126 1.260 . S
O123 In117 2.266 . S
O123 C120 1.252 . S
O124 In117 2.326 . S
O124 C120 1.260 . S
O125 In117 2.266 . S
O125 C122 1.252 . S
O126 In117 2.326 . S
O126 C122 1.260 . S
C127 O118 1.240 . S
C127 O119 1.252 . S
O128 In117 2.294 . S
O128 C121 1.240 . S
O129 In117 2.326 . S
O129 C121 1.252 . S
In130 O131 2.294 1_554 S
In130 O132 2.326 . S
In130 O136 2.266 1_554 S
In130 O137 2.326 1_554 S
In130 O138 2.266 . S
In130 O139 2.326 . S
In130 O141 2.294 . S
In130 O142 2.326 1_554 S
O131 In130 2.294 1_556 S
O131 C140 1.240 1_556 S
O132 In130 2.326 . S
O132 C140 1.252 . S
C133 O136 1.252 . S
C133 O137 1.260 . S
C134 O141 1.240 1_556 S
C134 O142 1.252 . S
C135 O138 1.252 . S
C135 O139 1.260 . S
O136 In130 2.266 1_556 S
O136 C133 1.252 . S
O137 In130 2.326 1_556 S
O137 C133 1.260 . S
O138 In130 2.266 . S
O138 C135 1.252 . S
O139 In130 2.326 . S
O139 C135 1.260 . S
C140 O131 1.240 1_554 S
C140 O132 1.252 . S
O141 In130 2.294 . S
O141 C134 1.240 1_554 S
O142 In130 2.326 1_556 S
O142 C134 1.252 . S
In143 O144 2.294 . S
In143 O145 2.326 . S
In143 O149 2.266 . S
In143 O150 2.326 . S
In143 O151 2.266 . S
In143 O152 2.326 . S
In143 O154 2.294 . S
In143 O155 2.326 . S
O144 In143 2.294 . S
O144 C153 1.240 . S
O145 In143 2.326 . S
O145 C153 1.252 . S
C146 O149 1.252 . S
C146 O150 1.260 . S
C147 O154 1.240 . S
C147 O155 1.252 . S
C148 O151 1.252 . S
C148 O152 1.260 . S
O149 In143 2.266 . S
O149 C146 1.252 . S
O150 In143 2.326 . S
O150 C146 1.260 . S
O151 In143 2.266 . S
O151 C148 1.252 . S
O152 In143 2.326 . S
O152 C148 1.260 . S
C153 O144 1.240 . S
C153 O145 1.252 . S
O154 In143 2.294 . S
O154 C147 1.240 . S
O155 In143 2.326 . S
O155 C147 1.252 . S
In156 O157 2.294 . S
In156 O158 2.326 . S
In156 O162 2.266 . S
In156 O163 2.326 . S
In156 O164 2.266 . S
In156 O165 2.326 . S
In156 O167 2.294 . S
In156 O168 2.326 . S
O157 In156 2.294 . S
O157 C166 1.240 . S
O158 In156 2.326 . S
O158 C166 1.252 . S
C159 O162 1.252 . S
C159 O163 1.260 . S
C160 O167 1.240 . S
C160 O168 1.252 . S
C161 O164 1.252 . S
C161 O165 1.260 . S
O162 In156 2.266 . S
O162 C159 1.252 . S
O163 In156 2.326 . S
O163 C159 1.260 . S
O164 In156 2.266 . S
O164 C161 1.252 . S
O165 In156 2.326 . S
O165 C161 1.260 . S
C166 O157 1.240 . S
C166 O158 1.252 . S
O167 In156 2.294 . S
O167 C160 1.240 . S
O168 In156 2.326 . S
O168 C160 1.252 . S
In169 O170 2.294 . S
In169 O171 2.326 . S
In169 O175 2.266 . S
In169 O176 2.326 . S
In169 O177 2.266 . S
In169 O178 2.326 . S
In169 O180 2.294 . S
In169 O181 2.326 . S
O170 In169 2.294 . S
O170 C179 1.240 . S
O171 In169 2.326 . S
O171 C179 1.252 . S
C172 O175 1.252 . S
C172 O176 1.260 . S
C173 O180 1.240 . S
C173 O181 1.252 . S
C174 O177 1.252 . S
C174 O178 1.260 . S
O175 In169 2.266 . S
O175 C172 1.252 . S
O176 In169 2.326 . S
O176 C172 1.260 . S
O177 In169 2.266 . S
O177 C174 1.252 . S
O178 In169 2.326 . S
O178 C174 1.260 . S
C179 O170 1.240 . S
C179 O171 1.252 . S
O180 In169 2.294 . S
O180 C173 1.240 . S
O181 In169 2.326 . S
O181 C173 1.252 . S
In182 O183 2.294 . S
In182 O184 2.326 1_554 S
In182 O188 2.266 . S
In182 O189 2.326 . S
In182 O190 2.266 1_554 S
In182 O191 2.326 1_554 S
In182 O193 2.294 1_554 S
In182 O194 2.326 . S
O183 In182 2.294 . S
O183 C192 1.240 1_554 S
O184 In182 2.326 1_556 S
O184 C192 1.252 . S
C185 O188 1.252 . S
C185 O189 1.260 . S
C186 O193 1.240 1_554 S
C186 O194 1.252 . S
C187 O190 1.252 . S
C187 O191 1.260 . S
O188 In182 2.266 . S
O188 C185 1.252 . S
O189 In182 2.326 . S
O189 C185 1.260 . S
O190 In182 2.266 1_556 S
O190 C187 1.252 . S
O191 In182 2.326 1_556 S
O191 C187 1.260 . S
C192 O183 1.240 1_556 S
C192 O184 1.252 . S
O193 In182 2.294 1_556 S
O193 C186 1.240 1_556 S
O194 In182 2.326 . S
O194 C186 1.252 . S
In195 O196 2.294 . S
In195 O197 2.326 . S
In195 O201 2.266 . S
In195 O202 2.326 . S
In195 O203 2.266 . S
In195 O204 2.326 . S
In195 O206 2.294 . S
In195 O207 2.326 . S
O196 In195 2.294 . S
O196 C205 1.240 . S
O197 In195 2.326 . S
O197 C205 1.252 . S
C198 O201 1.252 . S
C198 O202 1.260 . S
C199 O206 1.240 . S
C199 O207 1.252 . S
C200 O203 1.252 . S
C200 O204 1.260 . S
O201 In195 2.266 . S
O201 C198 1.252 . S
O202 In195 2.326 . S
O202 C198 1.260 . S
O203 In195 2.266 . S
O203 C200 1.252 . S
O204 In195 2.326 . S
O204 C200 1.260 . S
C205 O196 1.240 . S
C205 O197 1.252 . S
O206 In195 2.294 . S
O206 C199 1.240 . S
O207 In195 2.326 . S
O207 C199 1.252 . S
C208 C209 1.349 . S
C208 C210 1.327 . S
C208 H233 0.950 . S
C209 C208 1.349 . S
C209 C225 1.349 . S
C210 C208 1.327 . S
C210 C229 1.429 . S
C210 H234 0.950 . S
C211 C228 1.574 . S
C211 C230 1.368 . S
C211 H235 0.949 . S
H212 C216 0.949 . S
C213 C214 1.349 . S
C213 C215 1.327 . S
C213 H236 0.950 . S
C214 C213 1.349 . S
C214 C226 1.349 . S
C215 C213 1.327 . S
C215 C231 1.429 . S
C215 H237 0.950 . S
C216 H212 0.949 . S
C216 C224 1.574 . S
C216 C232 1.368 . S
H217 C225 0.950 . S
H218 C223 0.950 . S
H219 C224 0.949 . S
H220 C226 0.950 . S
H221 C227 0.950 . S
H222 C228 0.949 . S
C223 H218 0.950 . S
C223 C225 1.327 . S
C223 C229 1.429 . S
C224 C216 1.574 . S
C224 H219 0.949 . S
C224 C230 1.368 . S
C225 C209 1.349 . S
C225 H217 0.950 . S
C225 C223 1.327 . S
C226 C214 1.349 . S
C226 H220 0.950 . S
C226 C227 1.327 . S
C227 H221 0.950 . S
C227 C226 1.327 . S
C227 C231 1.429 . S
C228 C211 1.574 . S
C228 H222 0.949 . S
C228 C232 1.368 . S
C229 C210 1.429 . S
C229 C223 1.429 . S
C229 C230 1.523 . S
C230 C211 1.368 . S
C230 C224 1.368 . S
C230 C229 1.523 . S
C231 C215 1.429 . S
C231 C227 1.429 . S
C231 C232 1.523 . S
C232 C216 1.368 . S
C232 C228 1.368 . S
C232 C231 1.523 . S
H233 C208 0.950 . S
H234 C210 0.950 . S
H235 C211 0.949 . S
H236 C213 0.950 . S
H237 C215 0.950 . S
C238 C239 1.369 . S
C238 C240 1.327 . S
C238 H263 0.950 . S
C239 C238 1.369 . S
C239 C255 1.329 1_545 S
C240 C238 1.327 . S
C240 C259 1.438 . S
C240 H264 0.950 . S
C241 C258 1.574 1_655 S
C241 C260 1.363 1_565 S
C241 H265 0.949 . S
H242 C246 0.949 . S
C243 C244 1.357 . S
C243 C245 1.327 . S
C243 H266 0.950 . S
C244 C243 1.357 . S
C244 C256 1.341 1_565 S
C245 C243 1.327 . S
C245 C261 1.427 . S
C245 H267 0.950 . S
C246 H242 0.949 . S
C246 C254 1.574 1_455 S
C246 C262 1.363 . S
H247 C255 0.950 . S
H248 C253 0.950 . S
H249 C254 0.949 . S
H250 C256 0.950 . S
H251 C257 0.950 . S
H252 C258 0.949 . S
C253 H248 0.950 . S
C253 C255 1.327 . S
C253 C259 1.419 1_565 S
C254 C246 1.574 1_655 S
C254 H249 0.949 . S
C254 C260 1.373 . S
C255 C239 1.329 1_565 S
C255 H247 0.950 . S
C255 C253 1.327 . S
C256 C244 1.341 1_545 S
C256 H250 0.950 . S
C256 C257 1.327 . S
C257 H251 0.950 . S
C257 C256 1.327 . S
C257 C261 1.430 1_545 S
C258 C241 1.574 1_455 S
C258 H252 0.949 . S
C258 C262 1.373 1_565 S
C259 C240 1.438 . S
C259 C253 1.419 1_545 S
C259 C260 1.523 . S
C260 C241 1.363 1_545 S
C260 C254 1.373 . S
C260 C259 1.523 . S
C261 C245 1.427 . S
C261 C257 1.430 1_565 S
C261 C262 1.523 1_565 S
C262 C246 1.363 . S
C262 C258 1.373 1_545 S
C262 C261 1.523 1_545 S
H263 C238 0.950 . S
H264 C240 0.950 . S
H265 C241 0.949 . S
H266 C243 0.950 . S
H267 C245 0.950 . S
C268 C269 1.349 . S
C268 C270 1.327 . S
C268 H293 0.950 . S
C269 C268 1.349 . S
C269 C285 1.349 . S
C270 C268 1.327 . S
C270 C289 1.429 . S
C270 H294 0.950 . S
C271 C288 1.574 . S
C271 C290 1.368 . S
C271 H295 0.949 . S
H272 C276 0.949 . S
C273 C274 1.349 . S
C273 C275 1.327 . S
C273 H296 0.950 . S
C274 C273 1.349 . S
C274 C286 1.349 . S
C275 C273 1.327 . S
C275 C291 1.429 . S
C275 H297 0.950 . S
C276 H272 0.949 . S
C276 C284 1.574 . S
C276 C292 1.368 . S
H277 C285 0.950 . S
H278 C283 0.950 . S
H279 C284 0.949 . S
H280 C286 0.950 . S
H281 C287 0.950 . S
H282 C288 0.949 . S
C283 H278 0.950 . S
C283 C285 1.327 . S
C283 C289 1.429 . S
C284 C276 1.574 . S
C284 H279 0.949 . S
C284 C290 1.368 . S
C285 C269 1.349 . S
C285 H277 0.950 . S
C285 C283 1.327 . S
C286 C274 1.349 . S
C286 H280 0.950 . S
C286 C287 1.327 . S
C287 H281 0.950 . S
C287 C286 1.327 . S
C287 C291 1.429 . S
C288 C271 1.574 . S
C288 H282 0.949 . S
C288 C292 1.368 . S
C289 C270 1.429 . S
C289 C283 1.429 . S
C289 C290 1.523 . S
C290 C271 1.368 . S
C290 C284 1.368 . S
C290 C289 1.523 . S
C291 C275 1.429 . S
C291 C287 1.429 . S
C291 C292 1.523 . S
C292 C276 1.368 . S
C292 C288 1.368 . S
C292 C291 1.523 . S
H293 C268 0.950 . S
H294 C270 0.950 . S
H295 C271 0.949 . S
H296 C273 0.950 . S
H297 C275 0.950 . S
C298 C299 1.329 1_565 S
C298 C300 1.327 . S
C298 H323 0.950 . S
C299 C298 1.329 1_545 S
C299 C315 1.369 . S
C300 C298 1.327 . S
C300 C319 1.419 1_565 S
C300 H324 0.950 . S
C301 C318 1.574 . S
C301 C320 1.373 . S
C301 H325 0.949 . S
H302 C306 0.949 . S
C303 C304 1.341 1_545 S
C303 C305 1.327 . S
C303 H326 0.950 . S
C304 C303 1.341 1_565 S
C304 C316 1.357 . S
C305 C303 1.327 . S
C305 C321 1.430 1_545 S
C305 H327 0.950 . S
C306 H302 0.949 . S
C306 C314 1.574 . S
C306 C322 1.373 1_565 S
H307 C315 0.950 . S
H308 C313 0.950 . S
H309 C314 0.949 . S
H310 C316 0.950 . S
H311 C317 0.950 . S
H312 C318 0.949 . S
C313 H308 0.950 . S
C313 C315 1.327 . S
C313 C319 1.438 . S
C314 C306 1.574 . S
C314 H309 0.949 . S
C314 C320 1.363 1_566 S
C315 C299 1.369 . S
C315 H307 0.950 . S
C315 C313 1.327 . S
C316 C304 1.357 . S
C316 H310 0.950 . S
C316 C317 1.327 . S
C317 H311 0.950 . S
C317 C316 1.327 . S
C317 C321 1.427 . S
C318 C301 1.574 . S
C318 H312 0.949 . S
C318 C322 1.363 1_554 S
C319 C300 1.419 1_545 S
C319 C313 1.438 . S
C319 C320 1.523 . S
C320 C301 1.373 . S
C320 C314 1.363 1_544 S
C320 C319 1.523 . S
C321 C305 1.430 1_565 S
C321 C317 1.427 . S
C321 C322 1.523 1_565 S
C322 C306 1.373 1_545 S
C322 C318 1.363 1_556 S
C322 C321 1.523 1_545 S
H323 C298 0.950 . S
H324 C300 0.950 . S
H325 C301 0.949 . S
H326 C303 0.950 . S
H327 C305 0.950 . S
C328 C329 1.349 . S
C328 C330 1.327 . S
C328 H353 0.950 . S
C329 C328 1.349 . S
C329 C345 1.349 . S
C330 C328 1.327 . S
C330 C349 1.429 . S
C330 H354 0.950 . S
C331 C348 1.574 . S
C331 C350 1.368 . S
C331 H355 0.949 . S
H332 C336 0.949 . S
C333 C334 1.349 . S
C333 C335 1.327 . S
C333 H356 0.950 . S
C334 C333 1.349 . S
C334 C346 1.349 . S
C335 C333 1.327 . S
C335 C351 1.429 . S
C335 H357 0.950 . S
C336 H332 0.949 . S
C336 C344 1.574 . S
C336 C352 1.368 . S
H337 C345 0.950 . S
H338 C343 0.950 . S
H339 C344 0.949 . S
H340 C346 0.950 . S
H341 C347 0.950 . S
H342 C348 0.949 . S
C343 H338 0.950 . S
C343 C345 1.327 . S
C343 C349 1.429 . S
C344 C336 1.574 . S
C344 H339 0.949 . S
C344 C350 1.368 . S
C345 C329 1.349 . S
C345 H337 0.950 . S
C345 C343 1.327 . S
C346 C334 1.349 . S
C346 H340 0.950 . S
C346 C347 1.327 . S
C347 H341 0.950 . S
C347 C346 1.327 . S
C347 C351 1.429 . S
C348 C331 1.574 . S
C348 H342 0.949 . S
C348 C352 1.368 . S
C349 C330 1.429 . S
C349 C343 1.429 . S
C349 C350 1.523 . S
C350 C331 1.368 . S
C350 C344 1.368 . S
C350 C349 1.523 . S
C351 C335 1.429 . S
C351 C347 1.429 . S
C351 C352 1.523 . S
C352 C336 1.368 . S
C352 C348 1.368 . S
C352 C351 1.523 . S
H353 C328 0.950 . S
H354 C330 0.950 . S
H355 C331 0.949 . S
H356 C333 0.950 . S
H357 C335 0.950 . S
C358 C359 1.357 . S
C358 C360 1.327 . S
C358 H383 0.950 . S
C359 C358 1.357 . S
C359 C375 1.341 1_565 S
C360 C358 1.327 . S
C360 C379 1.427 . S
C360 H384 0.950 . S
C361 C378 1.574 . S
C361 C380 1.363 . S
C361 H385 0.949 . S
H362 C366 0.949 . S
C363 C364 1.369 . S
C363 C365 1.327 . S
C363 H386 0.950 . S
C364 C363 1.369 . S
C364 C376 1.329 1_545 S
C365 C363 1.327 . S
C365 C381 1.438 . S
C365 H387 0.950 . S
C366 H362 0.949 . S
C366 C374 1.574 . S
C366 C382 1.363 1_565 S
H367 C375 0.950 . S
H368 C373 0.950 . S
H369 C374 0.949 . S
H370 C376 0.950 . S
H371 C377 0.950 . S
H372 C378 0.949 . S
C373 H368 0.950 . S
C373 C375 1.327 . S
C373 C379 1.430 1_545 S
C374 C366 1.574 . S
C374 H369 0.949 . S
C374 C380 1.373 1_565 S
C375 C359 1.341 1_545 S
C375 H367 0.950 . S
C375 C373 1.327 . S
C376 C364 1.329 1_565 S
C376 H370 0.950 . S
C376 C377 1.327 . S
C377 H371 0.950 . S
C377 C376 1.327 . S
C377 C381 1.419 1_565 S
C378 C361 1.574 . S
C378 H372 0.949 . S
C378 C382 1.373 . S
C379 C360 1.427 . S
C379 C373 1.430 1_565 S
C379 C380 1.523 1_565 S
C380 C361 1.363 . S
C380 C374 1.373 1_545 S
C380 C379 1.523 1_545 S
C381 C365 1.438 . S
C381 C377 1.419 1_545 S
C381 C382 1.523 . S
C382 C366 1.363 1_545 S
C382 C378 1.373 . S
C382 C381 1.523 . S
H383 C358 0.950 . S
H384 C360 0.950 . S
H385 C361 0.949 . S
H386 C363 0.950 . S
H387 C365 0.950 . S
C388 C389 1.349 . S
C388 C390 1.327 . S
C388 H413 0.950 . S
C389 C388 1.349 . S
C389 C405 1.349 . S
C390 C388 1.327 . S
C390 C409 1.429 . S
C390 H414 0.950 . S
C391 C408 1.574 . S
C391 C410 1.368 . S
C391 H415 0.949 . S
H392 C396 0.949 . S
C393 C394 1.349 . S
C393 C395 1.327 . S
C393 H416 0.950 . S
C394 C393 1.349 . S
C394 C406 1.349 . S
C395 C393 1.327 . S
C395 C411 1.429 . S
C395 H417 0.950 . S
C396 H392 0.949 . S
C396 C404 1.574 . S
C396 C412 1.368 . S
H397 C405 0.950 . S
H398 C403 0.950 . S
H399 C404 0.949 . S
H400 C406 0.950 . S
H401 C407 0.950 . S
H402 C408 0.949 . S
C403 H398 0.950 . S
C403 C405 1.327 . S
C403 C409 1.429 . S
C404 C396 1.574 . S
C404 H399 0.949 . S
C404 C410 1.368 . S
C405 C389 1.349 . S
C405 H397 0.950 . S
C405 C403 1.327 . S
C406 C394 1.349 . S
C406 H400 0.950 . S
C406 C407 1.327 . S
C407 H401 0.950 . S
C407 C406 1.327 . S
C407 C411 1.429 . S
C408 C391 1.574 . S
C408 H402 0.949 . S
C408 C412 1.368 . S
C409 C390 1.429 . S
C409 C403 1.429 . S
C409 C410 1.523 . S
C410 C391 1.368 . S
C410 C404 1.368 . S
C410 C409 1.523 . S
C411 C395 1.429 . S
C411 C407 1.429 . S
C411 C412 1.523 . S
C412 C396 1.368 . S
C412 C408 1.368 . S
C412 C411 1.523 . S
H413 C388 0.950 . S
H414 C390 0.950 . S
H415 C391 0.949 . S
H416 C393 0.950 . S
H417 C395 0.950 . S
C418 C419 1.330 1_565 S
C418 C420 1.327 . S
C418 H443 0.950 . S
C419 C418 1.330 1_545 S
C419 C435 1.368 . S
C420 C418 1.327 . S
C420 C439 1.419 1_565 S
C420 H444 0.950 . S
C421 C438 1.574 1_455 S
C421 C440 1.373 . S
C421 H445 0.949 . S
H422 C426 0.949 . S
C423 C424 1.341 1_545 S
C423 C425 1.327 . S
C423 H446 0.950 . S
C424 C423 1.341 1_565 S
C424 C436 1.357 . S
C425 C423 1.327 . S
C425 C441 1.430 1_545 S
C425 H447 0.950 . S
C426 H422 0.949 . S
C426 C434 1.574 1_655 S
C426 C442 1.373 1_565 S
H427 C435 0.950 . S
H428 C433 0.950 . S
H429 C434 0.949 . S
H430 C436 0.950 . S
H431 C437 0.950 . S
H432 C438 0.949 . S
C433 H428 0.950 . S
C433 C435 1.327 . S
C433 C439 1.438 . S
C434 C426 1.574 1_455 S
C434 H429 0.949 . S
C434 C440 1.363 1_564 S
C435 C419 1.368 . S
C435 H427 0.950 . S
C435 C433 1.327 . S
C436 C424 1.357 . S
C436 H430 0.950 . S
C436 C437 1.327 . S
C437 H431 0.950 . S
C437 C436 1.327 . S
C437 C441 1.427 . S
C438 C421 1.574 1_655 S
C438 H432 0.949 . S
C438 C442 1.363 1_556 S
C439 C420 1.419 1_545 S
C439 C433 1.438 . S
C439 C440 1.523 . S
C440 C421 1.373 . S
C440 C434 1.363 1_546 S
C440 C439 1.523 . S
C441 C425 1.430 1_565 S
C441 C437 1.427 . S
C441 C442 1.523 1_565 S
C442 C426 1.373 1_545 S
C442 C438 1.363 1_554 S
C442 C441 1.523 1_545 S
H443 C418 0.950 . S
H444 C420 0.950 . S
H445 C421 0.949 . S
H446 C423 0.950 . S
H447 C425 0.950 . S
C448 C449 1.349 . S
C448 C450 1.327 . S
C448 H473 0.950 . S
C449 C448 1.349 . S
C449 C465 1.349 . S
C450 C448 1.327 . S
C450 C469 1.429 . S
C450 H474 0.950 . S
C451 C468 1.574 . S
C451 C470 1.368 . S
C451 H475 0.949 . S
H452 C456 0.949 . S
C453 C454 1.349 . S
C453 C455 1.327 . S
C453 H476 0.950 . S
C454 C453 1.349 . S
C454 C466 1.349 . S
C455 C453 1.327 . S
C455 C471 1.429 . S
C455 H477 0.950 . S
C456 H452 0.949 . S
C456 C464 1.574 . S
C456 C472 1.368 . S
H457 C465 0.950 . S
H458 C463 0.950 . S
H459 C464 0.949 . S
H460 C466 0.950 . S
H461 C467 0.950 . S
H462 C468 0.949 . S
C463 H458 0.950 . S
C463 C465 1.327 . S
C463 C469 1.429 . S
C464 C456 1.574 . S
C464 H459 0.949 . S
C464 C470 1.368 . S
C465 C449 1.349 . S
C465 H457 0.950 . S
C465 C463 1.327 . S
C466 C454 1.349 . S
C466 H460 0.950 . S
C466 C467 1.327 . S
C467 H461 0.950 . S
C467 C466 1.327 . S
C467 C471 1.429 . S
C468 C451 1.574 . S
C468 H462 0.949 . S
C468 C472 1.368 . S
C469 C450 1.429 . S
C469 C463 1.429 . S
C469 C470 1.523 . S
C470 C451 1.368 . S
C470 C464 1.368 . S
C470 C469 1.523 . S
C471 C455 1.429 . S
C471 C467 1.429 . S
C471 C472 1.523 . S
C472 C456 1.368 . S
C472 C468 1.368 . S
C472 C471 1.523 . S
H473 C448 0.950 . S
H474 C450 0.950 . S
H475 C451 0.949 . S
H476 C453 0.950 . S
H477 C455 0.950 . S
C478 C479 1.349 . S
C478 C480 1.327 . S
C478 H503 0.950 . S
C479 C478 1.349 . S
C479 C495 1.349 . S
C480 C478 1.327 . S
C480 C499 1.429 . S
C480 H504 0.950 . S
C481 C498 1.574 . S
C481 C500 1.368 . S
C481 H505 0.949 . S
H482 C486 0.949 . S
C483 C484 1.349 . S
C483 C485 1.327 . S
C483 H506 0.950 . S
C484 C483 1.349 . S
C484 C496 1.349 . S
C485 C483 1.327 . S
C485 C501 1.429 . S
C485 H507 0.950 . S
C486 H482 0.949 . S
C486 C494 1.574 . S
C486 C502 1.368 . S
H487 C495 0.950 . S
H488 C493 0.950 . S
H489 C494 0.949 . S
H490 C496 0.950 . S
H491 C497 0.950 . S
H492 C498 0.949 . S
C493 H488 0.950 . S
C493 C495 1.327 . S
C493 C499 1.429 . S
C494 C486 1.574 . S
C494 H489 0.949 . S
C494 C500 1.368 . S
C495 C479 1.349 . S
C495 H487 0.950 . S
C495 C493 1.327 . S
C496 C484 1.349 . S
C496 H490 0.950 . S
C496 C497 1.327 . S
C497 H491 0.950 . S
C497 C496 1.327 . S
C497 C501 1.429 . S
C498 C481 1.574 . S
C498 H492 0.949 . S
C498 C502 1.368 . S
C499 C480 1.429 . S
C499 C493 1.429 . S
C499 C500 1.523 . S
C500 C481 1.368 . S
C500 C494 1.368 . S
C500 C499 1.523 . S
C501 C485 1.429 . S
C501 C497 1.429 . S
C501 C502 1.523 . S
C502 C486 1.368 . S
C502 C498 1.368 . S
C502 C501 1.523 . S
H503 C478 0.950 . S
H504 C480 0.950 . S
H505 C481 0.949 . S
H506 C483 0.950 . S
H507 C485 0.950 . S
C508 C509 1.349 . S
C508 C510 1.327 . S
C508 H533 0.950 . S
C509 C508 1.349 . S
C509 C525 1.349 . S
C510 C508 1.327 . S
C510 C529 1.429 . S
C510 H534 0.950 . S
C511 C528 1.574 . S
C511 C530 1.368 . S
C511 H535 0.949 . S
H512 C516 0.949 . S
C513 C514 1.349 . S
C513 C515 1.327 . S
C513 H536 0.950 . S
C514 C513 1.349 . S
C514 C526 1.349 . S
C515 C513 1.327 . S
C515 C531 1.429 . S
C515 H537 0.950 . S
C516 H512 0.949 . S
C516 C524 1.574 . S
C516 C532 1.368 . S
H517 C525 0.950 . S
H518 C523 0.950 . S
H519 C524 0.949 . S
H520 C526 0.950 . S
H521 C527 0.950 . S
H522 C528 0.949 . S
C523 H518 0.950 . S
C523 C525 1.327 . S
C523 C529 1.429 . S
C524 C516 1.574 . S
C524 H519 0.949 . S
C524 C530 1.368 . S
C525 C509 1.349 . S
C525 H517 0.950 . S
C525 C523 1.327 . S
C526 C514 1.349 . S
C526 H520 0.950 . S
C526 C527 1.327 . S
C527 H521 0.950 . S
C527 C526 1.327 . S
C527 C531 1.429 . S
C528 C511 1.574 . S
C528 H522 0.949 . S
C528 C532 1.368 . S
C529 C510 1.429 . S
C529 C523 1.429 . S
C529 C530 1.523 . S
C530 C511 1.368 . S
C530 C524 1.368 . S
C530 C529 1.523 . S
C531 C515 1.429 . S
C531 C527 1.429 . S
C531 C532 1.523 . S
C532 C516 1.368 . S
C532 C528 1.368 . S
C532 C531 1.523 . S
H533 C508 0.950 . S
H534 C510 0.950 . S
H535 C511 0.949 . S
H536 C513 0.950 . S
H537 C515 0.950 . S
C538 C539 1.349 . S
C538 C540 1.327 . S
C538 H563 0.950 . S
C539 C538 1.349 . S
C539 C555 1.349 . S
C540 C538 1.327 . S
C540 C559 1.429 . S
C540 H564 0.950 . S
C541 C558 1.574 . S
C541 C560 1.368 . S
C541 H565 0.949 . S
H542 C546 0.949 . S
C543 C544 1.349 . S
C543 C545 1.327 . S
C543 H566 0.950 . S
C544 C543 1.349 . S
C544 C556 1.349 . S
C545 C543 1.327 . S
C545 C561 1.429 . S
C545 H567 0.950 . S
C546 H542 0.949 . S
C546 C554 1.574 . S
C546 C562 1.368 . S
H547 C555 0.950 . S
H548 C553 0.950 . S
H549 C554 0.949 . S
H550 C556 0.950 . S
H551 C557 0.950 . S
H552 C558 0.949 . S
C553 H548 0.950 . S
C553 C555 1.327 . S
C553 C559 1.429 . S
C554 C546 1.574 . S
C554 H549 0.949 . S
C554 C560 1.368 . S
C555 C539 1.349 . S
C555 H547 0.950 . S
C555 C553 1.327 . S
C556 C544 1.349 . S
C556 H550 0.950 . S
C556 C557 1.327 . S
C557 H551 0.950 . S
C557 C556 1.327 . S
C557 C561 1.429 . S
C558 C541 1.574 . S
C558 H552 0.949 . S
C558 C562 1.368 . S
C559 C540 1.429 . S
C559 C553 1.429 . S
C559 C560 1.523 . S
C560 C541 1.368 . S
C560 C554 1.368 . S
C560 C559 1.523 . S
C561 C545 1.429 . S
C561 C557 1.429 . S
C561 C562 1.523 . S
C562 C546 1.368 . S
C562 C558 1.368 . S
C562 C561 1.523 . S
H563 C538 0.950 . S
H564 C540 0.950 . S
H565 C541 0.949 . S
H566 C543 0.950 . S
H567 C545 0.950 . S
C568 C569 1.349 . S
C568 C570 1.327 . S
C568 H593 0.950 . S
C569 C568 1.349 . S
C569 C585 1.349 . S
C570 C568 1.327 . S
C570 C589 1.429 . S
C570 H594 0.950 . S
C571 C588 1.588 . S
C571 C590 1.354 1_556 S
C571 H595 0.949 . S
H572 C576 0.949 . S
C573 C574 1.349 . S
C573 C575 1.327 . S
C573 H596 0.950 . S
C574 C573 1.349 . S
C574 C586 1.349 . S
C575 C573 1.327 . S
C575 C591 1.429 . S
C575 H597 0.950 . S
C576 H572 0.949 . S
C576 C584 1.588 . S
C576 C592 1.354 1_554 S
H577 C585 0.950 . S
H578 C583 0.950 . S
H579 C584 0.949 . S
H580 C586 0.950 . S
H581 C587 0.950 . S
H582 C588 0.949 . S
C583 H578 0.950 . S
C583 C585 1.327 . S
C583 C589 1.429 . S
C584 C576 1.588 . S
C584 H579 0.949 . S
C584 C590 1.368 . S
C585 C569 1.349 . S
C585 H577 0.950 . S
C585 C583 1.327 . S
C586 C574 1.349 . S
C586 H580 0.950 . S
C586 C587 1.327 . S
C587 H581 0.950 . S
C587 C586 1.327 . S
C587 C591 1.429 . S
C588 C571 1.588 . S
C588 H582 0.949 . S
C588 C592 1.368 . S
C589 C570 1.429 . S
C589 C583 1.429 . S
C589 C590 1.523 . S
C590 C571 1.354 1_554 S
C590 C584 1.368 . S
C590 C589 1.523 . S
C591 C575 1.429 . S
C591 C587 1.429 . S
C591 C592 1.523 . S
C592 C576 1.354 1_556 S
C592 C588 1.368 . S
C592 C591 1.523 . S
H593 C568 0.950 . S
H594 C570 0.950 . S
H595 C571 0.949 . S
H596 C573 0.950 . S
H597 C575 0.950 . S
C598 C599 1.349 . S
C598 C600 1.327 . S
C598 H623 0.950 . S
C599 C598 1.349 . S
C599 C615 1.349 . S
C600 C598 1.327 . S
C600 C619 1.429 . S
C600 H624 0.950 . S
C601 C618 1.574 1_455 S
C601 C620 1.368 . S
C601 H625 0.949 . S
H602 C606 0.949 . S
C603 C604 1.349 . S
C603 C605 1.327 . S
C603 H626 0.950 . S
C604 C603 1.349 . S
C604 C616 1.349 . S
C605 C603 1.327 . S
C605 C621 1.429 . S
C605 H627 0.950 . S
C606 H602 0.949 . S
C606 C614 1.574 1_655 S
C606 C622 1.368 . S
H607 C615 0.950 . S
H608 C613 0.950 . S
H609 C614 0.949 . S
H610 C616 0.950 . S
H611 C617 0.950 . S
H612 C618 0.949 . S
C613 H608 0.950 . S
C613 C615 1.327 . S
C613 C619 1.429 . S
C614 C606 1.574 1_455 S
C614 H609 0.949 . S
C614 C620 1.368 . S
C615 C599 1.349 . S
C615 H607 0.950 . S
C615 C613 1.327 . S
C616 C604 1.349 . S
C616 H610 0.950 . S
C616 C617 1.327 . S
C617 H611 0.950 . S
C617 C616 1.327 . S
C617 C621 1.429 . S
C618 C601 1.574 1_655 S
C618 H612 0.949 . S
C618 C622 1.368 . S
C619 C600 1.429 . S
C619 C613 1.429 . S
C619 C620 1.523 . S
C620 C601 1.368 . S
C620 C614 1.368 . S
C620 C619 1.523 . S
C621 C605 1.429 . S
C621 C617 1.429 . S
C621 C622 1.523 . S
C622 C606 1.368 . S
C622 C618 1.368 . S
C622 C621 1.523 . S
H623 C598 0.950 . S
H624 C600 0.950 . S
H625 C601 0.949 . S
H626 C603 0.950 . S
H627 C605 0.950 . S
C628 C629 1.349 . S
C628 C630 1.327 . S
C628 H653 0.950 . S
C629 C628 1.349 . S
C629 C645 1.349 . S
C630 C628 1.327 . S
C630 C649 1.429 . S
C630 H654 0.950 . S
C631 C648 1.574 1_455 S
C631 C650 1.368 . S
C631 H655 0.949 . S
H632 C636 0.949 . S
C633 C634 1.349 . S
C633 C635 1.327 . S
C633 H656 0.950 . S
C634 C633 1.349 . S
C634 C646 1.349 . S
C635 C633 1.327 . S
C635 C651 1.429 . S
C635 H657 0.950 . S
C636 H632 0.949 . S
C636 C644 1.574 1_655 S
C636 C652 1.368 . S
H637 C645 0.950 . S
H638 C643 0.950 . S
H639 C644 0.949 . S
H640 C646 0.950 . S
H641 C647 0.950 . S
H642 C648 0.949 . S
C643 H638 0.950 . S
C643 C645 1.327 . S
C643 C649 1.429 . S
C644 C636 1.574 1_455 S
C644 H639 0.949 . S
C644 C650 1.368 1_556 S
C645 C629 1.349 . S
C645 H637 0.950 . S
C645 C643 1.327 . S
C646 C634 1.349 . S
C646 H640 0.950 . S
C646 C647 1.327 . S
C647 H641 0.950 . S
C647 C646 1.327 . S
C647 C651 1.429 . S
C648 C631 1.574 1_655 S
C648 H642 0.949 . S
C648 C652 1.368 1_554 S
C649 C630 1.429 . S
C649 C643 1.429 . S
C649 C650 1.523 . S
C650 C631 1.368 . S
C650 C644 1.368 1_554 S
C650 C649 1.523 . S
C651 C635 1.429 . S
C651 C647 1.429 . S
C651 C652 1.523 . S
C652 C636 1.368 . S
C652 C648 1.368 1_556 S
C652 C651 1.523 . S
H653 C628 0.950 . S
H654 C630 0.950 . S
H655 C631 0.949 . S
H656 C633 0.950 . S
H657 C635 0.950 . S
C658 C659 1.349 . S
C658 C660 1.327 . S
C658 H683 0.950 . S
C659 C658 1.349 . S
C659 C675 1.349 . S
C660 C658 1.327 . S
C660 C679 1.429 . S
C660 H684 0.950 . S
C661 C678 1.574 . S
C661 C680 1.368 . S
C661 H685 0.949 . S
H662 C666 0.949 . S
C663 C664 1.349 . S
C663 C665 1.327 . S
C663 H686 0.950 . S
C664 C663 1.349 . S
C664 C676 1.349 . S
C665 C663 1.327 . S
C665 C681 1.429 . S
C665 H687 0.950 . S
C666 H662 0.949 . S
C666 C674 1.574 . S
C666 C682 1.368 . S
H667 C675 0.950 . S
H668 C673 0.950 . S
H669 C674 0.949 . S
H670 C676 0.950 . S
H671 C677 0.950 . S
H672 C678 0.949 . S
C673 H668 0.950 . S
C673 C675 1.327 . S
C673 C679 1.429 . S
C674 C666 1.574 . S
C674 H669 0.949 . S
C674 C680 1.368 . S
C675 C659 1.349 . S
C675 H667 0.950 . S
C675 C673 1.327 . S
C676 C664 1.349 . S
C676 H670 0.950 . S
C676 C677 1.327 . S
C677 H671 0.950 . S
C677 C676 1.327 . S
C677 C681 1.429 . S
C678 C661 1.574 . S
C678 H672 0.949 . S
C678 C682 1.368 . S
C679 C660 1.429 . S
C679 C673 1.429 . S
C679 C680 1.523 . S
C680 C661 1.368 . S
C680 C674 1.368 . S
C680 C679 1.523 . S
C681 C665 1.429 . S
C681 C677 1.429 . S
C681 C682 1.523 . S
C682 C666 1.368 . S
C682 C678 1.368 . S
C682 C681 1.523 . S
H683 C658 0.950 . S
H684 C660 0.950 . S
H685 C661 0.949 . S
H686 C663 0.950 . S
H687 C665 0.950 . S
C688 C689 1.349 . S
C688 C690 1.327 . S
C688 H713 0.950 . S
C689 C688 1.349 . S
C689 C705 1.349 . S
C690 C688 1.327 . S
C690 C709 1.429 . S
C690 H714 0.950 . S
C691 C708 1.574 . S
C691 C710 1.368 . S
C691 H715 0.949 . S
H692 C696 0.949 . S
C693 C694 1.349 . S
C693 C695 1.327 . S
C693 H716 0.950 . S
C694 C693 1.349 . S
C694 C706 1.349 . S
C695 C693 1.327 . S
C695 C711 1.429 . S
C695 H717 0.950 . S
C696 H692 0.949 . S
C696 C704 1.574 . S
C696 C712 1.368 . S
H697 C705 0.950 . S
H698 C703 0.950 . S
H699 C704 0.949 . S
H700 C706 0.950 . S
H701 C707 0.950 . S
H702 C708 0.949 . S
C703 H698 0.950 . S
C703 C705 1.327 . S
C703 C709 1.429 . S
C704 C696 1.574 . S
C704 H699 0.949 . S
C704 C710 1.368 . S
C705 C689 1.349 . S
C705 H697 0.950 . S
C705 C703 1.327 . S
C706 C694 1.349 . S
C706 H700 0.950 . S
C706 C707 1.327 . S
C707 H701 0.950 . S
C707 C706 1.327 . S
C707 C711 1.429 . S
C708 C691 1.574 . S
C708 H702 0.949 . S
C708 C712 1.368 . S
C709 C690 1.429 . S
C709 C703 1.429 . S
C709 C710 1.523 . S
C710 C691 1.368 . S
C710 C704 1.368 . S
C710 C709 1.523 . S
C711 C695 1.429 . S
C711 C707 1.429 . S
C711 C712 1.523 . S
C712 C696 1.368 . S
C712 C708 1.368 . S
C712 C711 1.523 . S
H713 C688 0.950 . S
H714 C690 0.950 . S
H715 C691 0.949 . S
H716 C693 0.950 . S
H717 C695 0.950 . S
C718 C719 1.349 . S
C718 C720 1.327 . S
C718 H743 0.950 . S
C719 C718 1.349 . S
C719 C735 1.349 . S
C720 C718 1.327 . S
C720 C739 1.429 . S
C720 H744 0.950 . S
C721 C738 1.574 . S
C721 C740 1.368 . S
C721 H745 0.949 . S
H722 C726 0.949 . S
C723 C724 1.349 . S
C723 C725 1.327 . S
C723 H746 0.950 . S
C724 C723 1.349 . S
C724 C736 1.349 . S
C725 C723 1.327 . S
C725 C741 1.429 . S
C725 H747 0.950 . S
C726 H722 0.949 . S
C726 C734 1.574 . S
C726 C742 1.368 . S
H727 C735 0.950 . S
H728 C733 0.950 . S
H729 C734 0.949 . S
H730 C736 0.950 . S
H731 C737 0.950 . S
H732 C738 0.949 . S
C733 H728 0.950 . S
C733 C735 1.327 . S
C733 C739 1.429 . S
C734 C726 1.574 . S
C734 H729 0.949 . S
C734 C740 1.368 . S
C735 C719 1.349 . S
C735 H727 0.950 . S
C735 C733 1.327 . S
C736 C724 1.349 . S
C736 H730 0.950 . S
C736 C737 1.327 . S
C737 H731 0.950 . S
C737 C736 1.327 . S
C737 C741 1.429 . S
C738 C721 1.574 . S
C738 H732 0.949 . S
C738 C742 1.368 . S
C739 C720 1.429 . S
C739 C733 1.429 . S
C739 C740 1.523 . S
C740 C721 1.368 . S
C740 C734 1.368 . S
C740 C739 1.523 . S
C741 C725 1.429 . S
C741 C737 1.429 . S
C741 C742 1.523 . S
C742 C726 1.368 . S
C742 C738 1.368 . S
C742 C741 1.523 . S
H743 C718 0.950 . S
H744 C720 0.950 . S
H745 C721 0.949 . S
H746 C723 0.950 . S
H747 C725 0.950 . S
C748 C749 1.349 . S
C748 C750 1.327 . S
C748 H773 0.950 . S
C749 C748 1.349 . S
C749 C765 1.349 . S
C750 C748 1.327 . S
C750 C769 1.429 . S
C750 H774 0.950 . S
C751 C768 1.574 . S
C751 C770 1.368 . S
C751 H775 0.949 . S
H752 C756 0.949 . S
C753 C754 1.349 . S
C753 C755 1.327 . S
C753 H776 0.950 . S
C754 C753 1.349 . S
C754 C766 1.349 . S
C755 C753 1.327 . S
C755 C771 1.429 . S
C755 H777 0.950 . S
C756 H752 0.949 . S
C756 C764 1.574 . S
C756 C772 1.368 . S
H757 C765 0.950 . S
H758 C763 0.950 . S
H759 C764 0.949 . S
H760 C766 0.950 . S
H761 C767 0.950 . S
H762 C768 0.949 . S
C763 H758 0.950 . S
C763 C765 1.327 . S
C763 C769 1.429 . S
C764 C756 1.574 . S
C764 H759 0.949 . S
C764 C770 1.368 . S
C765 C749 1.349 . S
C765 H757 0.950 . S
C765 C763 1.327 . S
C766 C754 1.349 . S
C766 H760 0.950 . S
C766 C767 1.327 . S
C767 H761 0.950 . S
C767 C766 1.327 . S
C767 C771 1.429 . S
C768 C751 1.574 . S
C768 H762 0.949 . S
C768 C772 1.368 . S
C769 C750 1.429 . S
C769 C763 1.429 . S
C769 C770 1.523 . S
C770 C751 1.368 . S
C770 C764 1.368 . S
C770 C769 1.523 . S
C771 C755 1.429 . S
C771 C767 1.429 . S
C771 C772 1.523 . S
C772 C756 1.368 . S
C772 C768 1.368 . S
C772 C771 1.523 . S
H773 C748 0.950 . S
H774 C750 0.950 . S
H775 C751 0.949 . S
H776 C753 0.950 . S
H777 C755 0.950 . S
C778 C779 1.349 . S
C778 C780 1.327 . S
C778 H803 0.950 . S
C779 C778 1.349 . S
C779 C795 1.349 . S
C780 C778 1.327 . S
C780 C799 1.429 . S
C780 H804 0.950 . S
C781 C798 1.574 . S
C781 C800 1.368 . S
C781 H805 0.949 . S
H782 C786 0.949 . S
C783 C784 1.349 . S
C783 C785 1.327 . S
C783 H806 0.950 . S
C784 C783 1.349 . S
C784 C796 1.349 . S
C785 C783 1.327 . S
C785 C801 1.429 . S
C785 H807 0.950 . S
C786 H782 0.949 . S
C786 C794 1.574 . S
C786 C802 1.368 . S
H787 C795 0.950 . S
H788 C793 0.950 . S
H789 C794 0.949 . S
H790 C796 0.950 . S
H791 C797 0.950 . S
H792 C798 0.949 . S
C793 H788 0.950 . S
C793 C795 1.327 . S
C793 C799 1.429 . S
C794 C786 1.574 . S
C794 H789 0.949 . S
C794 C800 1.368 . S
C795 C779 1.349 . S
C795 H787 0.950 . S
C795 C793 1.327 . S
C796 C784 1.349 . S
C796 H790 0.950 . S
C796 C797 1.327 . S
C797 H791 0.950 . S
C797 C796 1.327 . S
C797 C801 1.429 . S
C798 C781 1.574 . S
C798 H792 0.949 . S
C798 C802 1.368 . S
C799 C780 1.429 . S
C799 C793 1.429 . S
C799 C800 1.523 . S
C800 C781 1.368 . S
C800 C794 1.368 . S
C800 C799 1.523 . S
C801 C785 1.429 . S
C801 C797 1.429 . S
C801 C802 1.523 . S
C802 C786 1.368 . S
C802 C798 1.368 . S
C802 C801 1.523 . S
H803 C778 0.950 . S
H804 C780 0.950 . S
H805 C781 0.949 . S
H806 C783 0.950 . S
H807 C785 0.950 . S
C808 C809 1.349 . S
C808 C810 1.327 . S
C808 H833 0.950 . S
C809 C808 1.349 . S
C809 C825 1.349 . S
C810 C808 1.327 . S
C810 C829 1.429 . S
C810 H834 0.950 . S
C811 C828 1.574 . S
C811 C830 1.368 . S
C811 H835 0.949 . S
H812 C816 0.949 . S
C813 C814 1.349 . S
C813 C815 1.327 . S
C813 H836 0.950 . S
C814 C813 1.349 . S
C814 C826 1.349 . S
C815 C813 1.327 . S
C815 C831 1.429 . S
C815 H837 0.950 . S
C816 H812 0.949 . S
C816 C824 1.574 . S
C816 C832 1.368 . S
H817 C825 0.950 . S
H818 C823 0.950 . S
H819 C824 0.949 . S
H820 C826 0.950 . S
H821 C827 0.950 . S
H822 C828 0.949 . S
C823 H818 0.950 . S
C823 C825 1.327 . S
C823 C829 1.429 . S
C824 C816 1.574 . S
C824 H819 0.949 . S
C824 C830 1.368 . S
C825 C809 1.349 . S
C825 H817 0.950 . S
C825 C823 1.327 . S
C826 C814 1.349 . S
C826 H820 0.950 . S
C826 C827 1.327 . S
C827 H821 0.950 . S
C827 C826 1.327 . S
C827 C831 1.429 . S
C828 C811 1.574 . S
C828 H822 0.949 . S
C828 C832 1.368 . S
C829 C810 1.429 . S
C829 C823 1.429 . S
C829 C830 1.523 . S
C830 C811 1.368 . S
C830 C824 1.368 . S
C830 C829 1.523 . S
C831 C815 1.429 . S
C831 C827 1.429 . S
C831 C832 1.523 . S
C832 C816 1.368 . S
C832 C828 1.368 . S
C832 C831 1.523 . S
H833 C808 0.950 . S
H834 C810 0.950 . S
H835 C811 0.949 . S
H836 C813 0.950 . S
H837 C815 0.950 . S
C838 C839 1.349 . S
C838 C840 1.327 . S
C838 H863 0.950 . S
C839 C838 1.349 . S
C839 C855 1.349 . S
C840 C838 1.327 . S
C840 C859 1.429 . S
C840 H864 0.950 . S
C841 C858 1.574 . S
C841 C860 1.368 . S
C841 H865 0.949 . S
H842 C846 0.949 . S
C843 C844 1.349 . S
C843 C845 1.327 . S
C843 H866 0.950 . S
C844 C843 1.349 . S
C844 C856 1.349 . S
C845 C843 1.327 . S
C845 C861 1.429 . S
C845 H867 0.950 . S
C846 H842 0.949 . S
C846 C854 1.574 . S
C846 C862 1.368 . S
H847 C855 0.950 . S
H848 C853 0.950 . S
H849 C854 0.949 . S
H850 C856 0.950 . S
H851 C857 0.950 . S
H852 C858 0.949 . S
C853 H848 0.950 . S
C853 C855 1.327 . S
C853 C859 1.429 . S
C854 C846 1.574 . S
C854 H849 0.949 . S
C854 C860 1.368 . S
C855 C839 1.349 . S
C855 H847 0.950 . S
C855 C853 1.327 . S
C856 C844 1.349 . S
C856 H850 0.950 . S
C856 C857 1.327 . S
C857 H851 0.950 . S
C857 C856 1.327 . S
C857 C861 1.429 . S
C858 C841 1.574 . S
C858 H852 0.949 . S
C858 C862 1.368 . S
C859 C840 1.429 . S
C859 C853 1.429 . S
C859 C860 1.523 . S
C860 C841 1.368 . S
C860 C854 1.368 . S
C860 C859 1.523 . S
C861 C845 1.429 . S
C861 C857 1.429 . S
C861 C862 1.523 . S
C862 C846 1.368 . S
C862 C858 1.368 . S
C862 C861 1.523 . S
H863 C838 0.950 . S
H864 C840 0.950 . S
H865 C841 0.949 . S
H866 C843 0.950 . S
H867 C845 0.950 . S
C868 C869 1.349 . S
C868 C870 1.327 . S
C868 H893 0.950 . S
C869 C868 1.349 . S
C869 C885 1.349 . S
C870 C868 1.327 . S
C870 C889 1.429 . S
C870 H894 0.950 . S
C871 C888 1.574 . S
C871 C890 1.368 . S
C871 H895 0.949 . S
H872 C876 0.949 . S
C873 C874 1.349 . S
C873 C875 1.327 . S
C873 H896 0.950 . S
C874 C873 1.349 . S
C874 C886 1.349 . S
C875 C873 1.327 . S
C875 C891 1.429 . S
C875 H897 0.950 . S
C876 H872 0.949 . S
C876 C884 1.574 . S
C876 C892 1.368 . S
H877 C885 0.950 . S
H878 C883 0.950 . S
H879 C884 0.949 . S
H880 C886 0.950 . S
H881 C887 0.950 . S
H882 C888 0.949 . S
C883 H878 0.950 . S
C883 C885 1.327 . S
C883 C889 1.429 . S
C884 C876 1.574 . S
C884 H879 0.949 . S
C884 C890 1.368 . S
C885 C869 1.349 . S
C885 H877 0.950 . S
C885 C883 1.327 . S
C886 C874 1.349 . S
C886 H880 0.950 . S
C886 C887 1.327 . S
C887 H881 0.950 . S
C887 C886 1.327 . S
C887 C891 1.429 . S
C888 C871 1.574 . S
C888 H882 0.949 . S
C888 C892 1.368 . S
C889 C870 1.429 . S
C889 C883 1.429 . S
C889 C890 1.523 . S
C890 C871 1.368 . S
C890 C884 1.368 . S
C890 C889 1.523 . S
C891 C875 1.429 . S
C891 C887 1.429 . S
C891 C892 1.523 . S
C892 C876 1.368 . S
C892 C888 1.368 . S
C892 C891 1.523 . S
H893 C868 0.950 . S
H894 C870 0.950 . S
H895 C871 0.949 . S
H896 C873 0.950 . S
H897 C875 0.950 . S
C898 C899 1.349 . S
C898 C900 1.327 . S
C898 H923 0.950 1_554 S
C899 C898 1.349 . S
C899 C915 1.349 . S
C900 C898 1.327 . S
C900 C919 1.429 . S
C900 H924 0.950 . S
C901 C918 1.574 . S
C901 C920 1.368 . S
C901 H925 0.949 . S
H902 C906 0.949 . S
C903 C904 1.349 . S
C903 C905 1.327 . S
C903 H926 0.950 . S
C904 C903 1.349 . S
C904 C916 1.349 . S
C905 C903 1.327 . S
C905 C921 1.429 . S
C905 H927 0.950 . S
C906 H902 0.949 . S
C906 C914 1.574 . S
C906 C922 1.368 . S
H907 C915 0.950 . S
H908 C913 0.950 . S
H909 C914 0.949 . S
H910 C916 0.950 . S
H911 C917 0.950 . S
H912 C918 0.949 . S
C913 H908 0.950 . S
C913 C915 1.327 . S
C913 C919 1.429 . S
C914 C906 1.574 . S
C914 H909 0.949 . S
C914 C920 1.368 . S
C915 C899 1.349 . S
C915 H907 0.950 . S
C915 C913 1.327 . S
C916 C904 1.349 . S
C916 H910 0.950 . S
C916 C917 1.327 . S
C917 H911 0.950 . S
C917 C916 1.327 . S
C917 C921 1.429 . S
C918 C901 1.574 . S
C918 H912 0.949 . S
C918 C922 1.368 . S
C919 C900 1.429 . S
C919 C913 1.429 . S
C919 C920 1.523 . S
C920 C901 1.368 . S
C920 C914 1.368 . S
C920 C919 1.523 . S
C921 C905 1.429 . S
C921 C917 1.429 . S
C921 C922 1.523 . S
C922 C906 1.368 . S
C922 C918 1.368 . S
C922 C921 1.523 . S
H923 C898 0.950 1_556 S
H924 C900 0.950 . S
H925 C901 0.949 . S
H926 C903 0.950 . S
H927 C905 0.950 . S
C928 C929 1.349 . S
C928 C930 1.327 . S
C928 H953 0.950 1_556 S
C929 C928 1.349 . S
C929 C945 1.349 . S
C930 C928 1.327 . S
C930 C949 1.429 . S
C930 H954 0.950 . S
C931 C948 1.574 . S
C931 C950 1.368 . S
C931 H955 0.949 . S
H932 C936 0.949 . S
C933 C934 1.349 . S
C933 C935 1.327 . S
C933 H956 0.950 . S
C934 C933 1.349 . S
C934 C946 1.349 . S
C935 C933 1.327 . S
C935 C951 1.429 . S
C935 H957 0.950 . S
C936 H932 0.949 . S
C936 C944 1.574 . S
C936 C952 1.368 . S
H937 C945 0.950 . S
H938 C943 0.950 . S
H939 C944 0.949 . S
H940 C946 0.950 . S
H941 C947 0.950 . S
H942 C948 0.949 . S
C943 H938 0.950 . S
C943 C945 1.327 . S
C943 C949 1.429 . S
C944 C936 1.574 . S
C944 H939 0.949 . S
C944 C950 1.368 . S
C945 C929 1.349 . S
C945 H937 0.950 . S
C945 C943 1.327 . S
C946 C934 1.349 . S
C946 H940 0.950 . S
C946 C947 1.327 . S
C947 H941 0.950 . S
C947 C946 1.327 . S
C947 C951 1.429 . S
C948 C931 1.574 . S
C948 H942 0.949 . S
C948 C952 1.368 . S
C949 C930 1.429 . S
C949 C943 1.429 . S
C949 C950 1.523 . S
C950 C931 1.368 . S
C950 C944 1.368 . S
C950 C949 1.523 . S
C951 C935 1.429 . S
C951 C947 1.429 . S
C951 C952 1.523 . S
C952 C936 1.368 . S
C952 C948 1.368 . S
C952 C951 1.523 . S
H953 C928 0.950 1_554 S
H954 C930 0.950 . S
H955 C931 0.949 . S
H956 C933 0.950 . S
H957 C935 0.950 . S
C958 C959 1.349 . S
C958 C960 1.327 . S
C958 H983 0.950 . S
C959 C958 1.349 . S
C959 C975 1.349 . S
C960 C958 1.327 . S
C960 C979 1.429 . S
C960 H984 0.950 . S
C961 C978 1.574 . S
C961 C980 1.368 . S
C961 H985 0.949 . S
H962 C966 0.949 . S
C963 C964 1.349 . S
C963 C965 1.327 . S
C963 H986 0.950 . S
C964 C963 1.349 . S
C964 C976 1.349 . S
C965 C963 1.327 . S
C965 C981 1.429 . S
C965 H987 0.950 . S
C966 H962 0.949 . S
C966 C974 1.574 . S
C966 C982 1.368 . S
H967 C975 0.950 . S
H968 C973 0.950 . S
H969 C974 0.949 . S
H970 C976 0.950 . S
H971 C977 0.950 . S
H972 C978 0.949 . S
C973 H968 0.950 . S
C973 C975 1.327 . S
C973 C979 1.429 . S
C974 C966 1.574 . S
C974 H969 0.949 . S
C974 C980 1.368 . S
C975 C959 1.349 . S
C975 H967 0.950 . S
C975 C973 1.327 . S
C976 C964 1.349 . S
C976 H970 0.950 . S
C976 C977 1.327 . S
C977 H971 0.950 . S
C977 C976 1.327 . S
C977 C981 1.429 . S
C978 C961 1.574 . S
C978 H972 0.949 . S
C978 C982 1.368 . S
C979 C960 1.429 . S
C979 C973 1.429 . S
C979 C980 1.523 . S
C980 C961 1.368 . S
C980 C974 1.368 . S
C980 C979 1.523 . S
C981 C965 1.429 . S
C981 C977 1.429 . S
C981 C982 1.523 . S
C982 C966 1.368 . S
C982 C978 1.368 . S
C982 C981 1.523 . S
H983 C958 0.950 . S
H984 C960 0.950 . S
H985 C961 0.949 . S
H986 C963 0.950 . S
H987 C965 0.950 . S
C988 C989 1.349 . S
C988 C990 1.327 . S
C988 H1013 0.950 . S
C989 C988 1.349 . S
C989 C1005 1.349 . S
C990 C988 1.327 . S
C990 C1009 1.429 . S
C990 H1014 0.950 . S
C991 C1008 1.574 . S
C991 C1010 1.368 . S
C991 H1015 0.949 . S
H992 C996 0.949 . S
C993 C994 1.349 . S
C993 C995 1.327 . S
C993 H1016 0.950 . S
C994 C993 1.349 . S
C994 C1006 1.349 . S
C995 C993 1.327 . S
C995 C1011 1.429 . S
C995 H1017 0.950 . S
C996 H992 0.949 . S
C996 C1004 1.574 . S
C996 C1012 1.368 . S
H997 C1005 0.950 . S
H998 C1003 0.950 . S
H999 C1004 0.949 . S
H1000 C1006 0.950 . S
H1001 C1007 0.950 . S
H1002 C1008 0.949 . S
C1003 H998 0.950 . S
C1003 C1005 1.327 . S
C1003 C1009 1.429 . S
C1004 C996 1.574 . S
C1004 H999 0.949 . S
C1004 C1010 1.368 . S
C1005 C989 1.349 . S
C1005 H997 0.950 . S
C1005 C1003 1.327 . S
C1006 C994 1.349 . S
C1006 H1000 0.950 . S
C1006 C1007 1.327 . S
C1007 H1001 0.950 . S
C1007 C1006 1.327 . S
C1007 C1011 1.429 . S
C1008 C991 1.574 . S
C1008 H1002 0.949 . S
C1008 C1012 1.368 . S
C1009 C990 1.429 . S
C1009 C1003 1.429 . S
C1009 C1010 1.523 . S
C1010 C991 1.368 . S
C1010 C1004 1.368 . S
C1010 C1009 1.523 . S
C1011 C995 1.429 . S
C1011 C1007 1.429 . S
C1011 C1012 1.523 . S
C1012 C996 1.368 . S
C1012 C1008 1.368 . S
C1012 C1011 1.523 . S
H1013 C988 0.950 . S
H1014 C990 0.950 . S
H1015 C991 0.949 . S
H1016 C993 0.950 . S
H1017 C995 0.950 . S
C1018 C1019 1.349 . S
C1018 C1020 1.327 . S
C1018 H1043 0.950 . S
C1019 C1018 1.349 . S
C1019 C1035 1.349 . S
C1020 C1018 1.327 . S
C1020 C1039 1.429 . S
C1020 H1044 0.950 . S
C1021 C1038 1.574 . S
C1021 C1040 1.368 . S
C1021 H1045 0.949 . S
H1022 C1026 0.949 . S
C1023 C1024 1.349 . S
C1023 C1025 1.327 . S
C1023 H1046 0.950 . S
C1024 C1023 1.349 . S
C1024 C1036 1.349 . S
C1025 C1023 1.327 . S
C1025 C1041 1.429 . S
C1025 H1047 0.950 . S
C1026 H1022 0.949 . S
C1026 C1034 1.574 . S
C1026 C1042 1.368 . S
H1027 C1035 0.950 . S
H1028 C1033 0.950 . S
H1029 C1034 0.949 . S
H1030 C1036 0.950 . S
H1031 C1037 0.950 . S
H1032 C1038 0.949 . S
C1033 H1028 0.950 . S
C1033 C1035 1.327 . S
C1033 C1039 1.429 . S
C1034 C1026 1.574 . S
C1034 H1029 0.949 . S
C1034 C1040 1.368 . S
C1035 C1019 1.349 . S
C1035 H1027 0.950 . S
C1035 C1033 1.327 . S
C1036 C1024 1.349 . S
C1036 H1030 0.950 . S
C1036 C1037 1.327 . S
C1037 H1031 0.950 . S
C1037 C1036 1.327 . S
C1037 C1041 1.429 . S
C1038 C1021 1.574 . S
C1038 H1032 0.949 . S
C1038 C1042 1.368 . S
C1039 C1020 1.429 . S
C1039 C1033 1.429 . S
C1039 C1040 1.523 . S
C1040 C1021 1.368 . S
C1040 C1034 1.368 . S
C1040 C1039 1.523 . S
C1041 C1025 1.429 . S
C1041 C1037 1.429 . S
C1041 C1042 1.523 . S
C1042 C1026 1.368 . S
C1042 C1038 1.368 . S
C1042 C1041 1.523 . S
H1043 C1018 0.950 . S
H1044 C1020 0.950 . S
H1045 C1021 0.949 . S
H1046 C1023 0.950 . S
H1047 C1025 0.950 . S
C1048 C1049 1.349 . S
C1048 C1050 1.327 . S
C1048 H1073 0.950 . S
C1049 C1048 1.349 . S
C1049 C1065 1.349 . S
C1050 C1048 1.327 . S
C1050 C1069 1.429 . S
C1050 H1074 0.950 . S
C1051 C1068 1.574 . S
C1051 C1070 1.368 . S
C1051 H1075 0.949 . S
H1052 C1056 0.949 . S
C1053 C1054 1.349 . S
C1053 C1055 1.327 . S
C1053 H1076 0.950 . S
C1054 C1053 1.349 . S
C1054 C1066 1.349 . S
C1055 C1053 1.327 . S
C1055 C1071 1.429 . S
C1055 H1077 0.950 . S
C1056 H1052 0.949 . S
C1056 C1064 1.574 . S
C1056 C1072 1.368 . S
H1057 C1065 0.950 . S
H1058 C1063 0.950 . S
H1059 C1064 0.949 . S
H1060 C1066 0.950 . S
H1061 C1067 0.950 . S
H1062 C1068 0.949 . S
C1063 H1058 0.950 . S
C1063 C1065 1.327 . S
C1063 C1069 1.429 . S
C1064 C1056 1.574 . S
C1064 H1059 0.949 . S
C1064 C1070 1.368 . S
C1065 C1049 1.349 . S
C1065 H1057 0.950 . S
C1065 C1063 1.327 . S
C1066 C1054 1.349 . S
C1066 H1060 0.950 . S
C1066 C1067 1.327 . S
C1067 H1061 0.950 . S
C1067 C1066 1.327 . S
C1067 C1071 1.429 . S
C1068 C1051 1.574 . S
C1068 H1062 0.949 . S
C1068 C1072 1.368 . S
C1069 C1050 1.429 . S
C1069 C1063 1.429 . S
C1069 C1070 1.523 . S
C1070 C1051 1.368 . S
C1070 C1064 1.368 . S
C1070 C1069 1.523 . S
C1071 C1055 1.429 . S
C1071 C1067 1.429 . S
C1071 C1072 1.523 . S
C1072 C1056 1.368 . S
C1072 C1068 1.368 . S
C1072 C1071 1.523 . S
H1073 C1048 0.950 . S
H1074 C1050 0.950 . S
H1075 C1051 0.949 . S
H1076 C1053 0.950 . S
H1077 C1055 0.950 . S
C1078 C1079 1.349 . S
C1078 C1080 1.327 . S
C1078 H1103 0.950 . S
C1079 C1078 1.349 . S
C1079 C1095 1.349 . S
C1080 C1078 1.327 . S
C1080 C1099 1.429 . S
C1080 H1104 0.950 . S
C1081 C1098 1.574 . S
C1081 C1100 1.368 . S
C1081 H1105 0.949 . S
H1082 C1086 0.949 . S
C1083 C1084 1.349 . S
C1083 C1085 1.327 . S
C1083 H1106 0.950 . S
C1084 C1083 1.349 . S
C1084 C1096 1.349 . S
C1085 C1083 1.327 . S
C1085 C1101 1.429 . S
C1085 H1107 0.950 . S
C1086 H1082 0.949 . S
C1086 C1094 1.574 . S
C1086 C1102 1.368 . S
H1087 C1095 0.950 . S
H1088 C1093 0.950 . S
H1089 C1094 0.949 . S
H1090 C1096 0.950 . S
H1091 C1097 0.950 . S
H1092 C1098 0.949 . S
C1093 H1088 0.950 . S
C1093 C1095 1.327 . S
C1093 C1099 1.429 . S
C1094 C1086 1.574 . S
C1094 H1089 0.949 . S
C1094 C1100 1.368 . S
C1095 C1079 1.349 . S
C1095 H1087 0.950 . S
C1095 C1093 1.327 . S
C1096 C1084 1.349 . S
C1096 H1090 0.950 . S
C1096 C1097 1.327 . S
C1097 H1091 0.950 . S
C1097 C1096 1.327 . S
C1097 C1101 1.429 . S
C1098 C1081 1.574 . S
C1098 H1092 0.949 . S
C1098 C1102 1.368 . S
C1099 C1080 1.429 . S
C1099 C1093 1.429 . S
C1099 C1100 1.523 . S
C1100 C1081 1.368 . S
C1100 C1094 1.368 . S
C1100 C1099 1.523 . S
C1101 C1085 1.429 . S
C1101 C1097 1.429 . S
C1101 C1102 1.523 . S
C1102 C1086 1.368 . S
C1102 C1098 1.368 . S
C1102 C1101 1.523 . S
H1103 C1078 0.950 . S
H1104 C1080 0.950 . S
H1105 C1081 0.949 . S
H1106 C1083 0.950 . S
H1107 C1085 0.950 . S
C1108 C1109 1.349 . S
C1108 C1110 1.327 . S
C1108 H1133 0.950 . S
C1109 C1108 1.349 . S
C1109 C1125 1.349 . S
C1110 C1108 1.327 . S
C1110 C1129 1.429 . S
C1110 H1134 0.950 . S
C1111 C1128 1.574 . S
C1111 C1130 1.368 . S
C1111 H1135 0.949 . S
H1112 C1116 0.949 . S
C1113 C1114 1.349 . S
C1113 C1115 1.327 . S
C1113 H1136 0.950 . S
C1114 C1113 1.349 . S
C1114 C1126 1.349 . S
C1115 C1113 1.327 . S
C1115 C1131 1.429 . S
C1115 H1137 0.950 . S
C1116 H1112 0.949 . S
C1116 C1124 1.574 . S
C1116 C1132 1.368 . S
H1117 C1125 0.950 . S
H1118 C1123 0.950 . S
H1119 C1124 0.949 . S
H1120 C1126 0.950 1_556 S
H1121 C1127 0.950 . S
H1122 C1128 0.949 . S
C1123 H1118 0.950 . S
C1123 C1125 1.327 . S
C1123 C1129 1.429 . S
C1124 C1116 1.574 . S
C1124 H1119 0.949 . S
C1124 C1130 1.368 . S
C1125 C1109 1.349 . S
C1125 H1117 0.950 . S
C1125 C1123 1.327 . S
C1126 C1114 1.349 . S
C1126 H1120 0.950 1_554 S
C1126 C1127 1.327 . S
C1127 H1121 0.950 . S
C1127 C1126 1.327 . S
C1127 C1131 1.429 . S
C1128 C1111 1.574 . S
C1128 H1122 0.949 . S
C1128 C1132 1.368 . S
C1129 C1110 1.429 . S
C1129 C1123 1.429 . S
C1129 C1130 1.523 . S
C1130 C1111 1.368 . S
C1130 C1124 1.368 . S
C1130 C1129 1.523 . S
C1131 C1115 1.429 . S
C1131 C1127 1.429 . S
C1131 C1132 1.523 . S
C1132 C1116 1.368 . S
C1132 C1128 1.368 . S
C1132 C1131 1.523 . S
H1133 C1108 0.950 . S
H1134 C1110 0.950 . S
H1135 C1111 0.949 . S
H1136 C1113 0.950 . S
H1137 C1115 0.950 . S
C1138 C1139 1.349 . S
C1138 C1140 1.327 . S
C1138 H1163 0.950 1_556 S
C1139 C1138 1.349 . S
C1139 C1155 1.349 . S
C1140 C1138 1.327 . S
C1140 C1159 1.429 . S
C1140 H1164 0.950 . S
C1141 C1158 1.574 . S
C1141 C1160 1.368 . S
C1141 H1165 0.949 . S
H1142 C1146 0.949 . S
C1143 C1144 1.349 . S
C1143 C1145 1.327 . S
C1143 H1166 0.950 . S
C1144 C1143 1.349 . S
C1144 C1156 1.349 . S
C1145 C1143 1.327 . S
C1145 C1161 1.429 . S
C1145 H1167 0.950 . S
C1146 H1142 0.949 . S
C1146 C1154 1.574 . S
C1146 C1162 1.368 . S
H1147 C1155 0.950 . S
H1148 C1153 0.950 . S
H1149 C1154 0.949 . S
H1150 C1156 0.950 . S
H1151 C1157 0.950 . S
H1152 C1158 0.949 . S
C1153 H1148 0.950 . S
C1153 C1155 1.327 . S
C1153 C1159 1.429 . S
C1154 C1146 1.574 . S
C1154 H1149 0.949 . S
C1154 C1160 1.368 . S
C1155 C1139 1.349 . S
C1155 H1147 0.950 . S
C1155 C1153 1.327 . S
C1156 C1144 1.349 . S
C1156 H1150 0.950 . S
C1156 C1157 1.327 . S
C1157 H1151 0.950 . S
C1157 C1156 1.327 . S
C1157 C1161 1.429 . S
C1158 C1141 1.574 . S
C1158 H1152 0.949 . S
C1158 C1162 1.368 . S
C1159 C1140 1.429 . S
C1159 C1153 1.429 . S
C1159 C1160 1.523 . S
C1160 C1141 1.368 . S
C1160 C1154 1.368 . S
C1160 C1159 1.523 . S
C1161 C1145 1.429 . S
C1161 C1157 1.429 . S
C1161 C1162 1.523 . S
C1162 C1146 1.368 . S
C1162 C1158 1.368 . S
C1162 C1161 1.523 . S
H1163 C1138 0.950 1_554 S
H1164 C1140 0.950 . S
H1165 C1141 0.949 . S
H1166 C1143 0.950 . S
H1167 C1145 0.950 . S
C209 C5 1.453 . S
C214 C161 1.451 . S
C239 C16 1.453 . S
C244 C70 1.453 1_565 S
C269 C31 1.453 . S
C274 C187 1.455 . S
C299 C96 1.453 . S
C304 C44 1.453 1_565 S
C329 C185 1.453 . S
C334 C29 1.451 . S
C359 C94 1.453 1_565 S
C364 C42 1.453 . S
C389 C159 1.453 . S
C394 C3 1.455 . S
C419 C68 1.453 . S
C424 C18 1.453 1_565 S
C449 C55 1.453 . S
C454 C109 1.455 . S
C479 C83 1.453 . S
C484 C135 1.451 . S
C509 C133 1.453 . S
C514 C81 1.455 . S
C539 C57 1.453 . S
C544 C107 1.451 . S
C569 C172 1.453 . S
C574 C120 1.453 . S
C599 C146 1.453 . S
C604 C198 1.453 . S
C629 C148 1.453 . S
C634 C200 1.453 . S
C659 C122 1.453 . S
C664 C174 1.453 . S
C689 C153 1.568 . S
C694 C10 1.567 . S
C719 C108 1.568 . S
C724 C17 1.573 . S
C749 C36 1.568 . S
C754 C127 1.568 . S
C779 C134 1.568 . S
C784 C49 1.563 . S
C809 C147 1.568 . S
C814 C30 1.568 . S
C839 C43 1.568 . S
C844 C114 1.573 . S
C869 C121 1.568 . S
C874 C4 1.568 . S
C899 C140 1.568 . S
C904 C23 1.561 . S
C929 C56 1.568 . S
C934 C205 1.568 . S
C959 C160 1.568 . S
C964 C75 1.562 . S
C989 C88 1.568 . S
C994 C179 1.568 . S
C1019 C101 1.568 . S
C1024 C186 1.572 . S
C1049 C82 1.568 . S
C1054 C199 1.568 . S
C1079 C166 1.568 . S
C1084 C95 1.562 . S
C1109 C173 1.568 . S
C1114 C62 1.567 . S
C1139 C192 1.568 . S
C1144 C69 1.574 . S
