# Generated by pormake.
# Topology wir, (6)-cn, num edge types: 1
# Building blocks:
#     Node 0, Type 0, BuildingBlock: BETDEL_clean_sbu_0, # of connection points: 6
#     Node 1, Type 0, BuildingBlock: BETDEL_clean_sbu_0, # of connection points: 6
#     Node 2, Type 0, BuildingBlock: BETDEL_clean_sbu_0, # of connection points: 6
#     Node 3, Type 0, BuildingBlock: BETDEL_clean_sbu_0, # of connection points: 6
#     Node 4, Type 0, BuildingBlock: BETDEL_clean_sbu_0, # of connection points: 6
#     Node 5, Type 0, BuildingBlock: BETDEL_clean_sbu_0, # of connection points: 6
#     Node 6, Type 0, BuildingBlock: BETDEL_clean_sbu_0, # of connection points: 6
#     Node 7, Type 0, BuildingBlock: BETDEL_clean_sbu_0, # of connection points: 6
#     Node 8, Type 0, BuildingBlock: BETDEL_clean_sbu_0, # of connection points: 6
#     Node 9, Type 0, BuildingBlock: BETDEL_clean_sbu_0, # of connection points: 6
#     Node 10, Type 0, BuildingBlock: BETDEL_clean_sbu_0, # of connection points: 6
#     Node 11, Type 0, BuildingBlock: BETDEL_clean_sbu_0, # of connection points: 6
#     Node 12, Type 0, BuildingBlock: BETDEL_clean_sbu_0, # of connection points: 6
#     Node 13, Type 0, BuildingBlock: BETDEL_clean_sbu_0, # of connection points: 6
#     Node 14, Type 0, BuildingBlock: BETDEL_clean_sbu_0, # of connection points: 6
#     Node 15, Type 0, BuildingBlock: BETDEL_clean_sbu_0, # of connection points: 6
#     Node 16, Type 0, BuildingBlock: BETDEL_clean_sbu_0, # of connection points: 6
#     Node 17, Type 0, BuildingBlock: BETDEL_clean_sbu_0, # of connection points: 6
#     Node 18, Type 0, BuildingBlock: BETDEL_clean_sbu_0, # of connection points: 6
#     Node 19, Type 0, BuildingBlock: BETDEL_clean_sbu_0, # of connection points: 6
#     Node 20, Type 0, BuildingBlock: BETDEL_clean_sbu_0, # of connection points: 6
#     Node 21, Type 0, BuildingBlock: BETDEL_clean_sbu_0, # of connection points: 6
#     Node 22, Type 0, BuildingBlock: BETDEL_clean_sbu_0, # of connection points: 6
#     Node 23, Type 0, BuildingBlock: BETDEL_clean_sbu_0, # of connection points: 6
#     Node 24, Type 0, BuildingBlock: BETDEL_clean_sbu_0, # of connection points: 6
#     Node 25, Type 0, BuildingBlock: BETDEL_clean_sbu_0, # of connection points: 6
#     Node 26, Type 0, BuildingBlock: BETDEL_clean_sbu_0, # of connection points: 6
#     Node 27, Type 0, BuildingBlock: BETDEL_clean_sbu_0, # of connection points: 6
#     Node 28, Type 0, BuildingBlock: BETDEL_clean_sbu_0, # of connection points: 6
#     Node 29, Type 0, BuildingBlock: BETDEL_clean_sbu_0, # of connection points: 6
#     Node 30, Type 0, BuildingBlock: BETDEL_clean_sbu_0, # of connection points: 6
#     Node 31, Type 0, BuildingBlock: BETDEL_clean_sbu_0, # of connection points: 6
#     Edge 32, Type (0, 0), BuildingBlock: XIVTED_clean_linker_0, # of connection points: 2
#     Edge 33, Type (0, 0), BuildingBlock: XIVTED_clean_linker_0, # of connection points: 2
#     Edge 34, Type (0, 0), BuildingBlock: XIVTED_clean_linker_0, # of connection points: 2
#     Edge 35, Type (0, 0), BuildingBlock: XIVTED_clean_linker_0, # of connection points: 2
#     Edge 36, Type (0, 0), BuildingBlock: XIVTED_clean_linker_0, # of connection points: 2
#     Edge 37, Type (0, 0), BuildingBlock: XIVTED_clean_linker_0, # of connection points: 2
#     Edge 38, Type (0, 0), BuildingBlock: XIVTED_clean_linker_0, # of connection points: 2
#     Edge 39, Type (0, 0), BuildingBlock: XIVTED_clean_linker_0, # of connection points: 2
#     Edge 40, Type (0, 0), BuildingBlock: XIVTED_clean_linker_0, # of connection points: 2
#     Edge 41, Type (0, 0), BuildingBlock: XIVTED_clean_linker_0, # of connection points: 2
#     Edge 42, Type (0, 0), BuildingBlock: XIVTED_clean_linker_0, # of connection points: 2
#     Edge 43, Type (0, 0), BuildingBlock: XIVTED_clean_linker_0, # of connection points: 2
#     Edge 44, Type (0, 0), BuildingBlock: XIVTED_clean_linker_0, # of connection points: 2
#     Edge 45, Type (0, 0), BuildingBlock: XIVTED_clean_linker_0, # of connection points: 2
#     Edge 46, Type (0, 0), BuildingBlock: XIVTED_clean_linker_0, # of connection points: 2
#     Edge 47, Type (0, 0), BuildingBlock: XIVTED_clean_linker_0, # of connection points: 2
#     Edge 48, Type (0, 0), BuildingBlock: XIVTED_clean_linker_0, # of connection points: 2
#     Edge 49, Type (0, 0), BuildingBlock: XIVTED_clean_linker_0, # of connection points: 2
#     Edge 50, Type (0, 0), BuildingBlock: XIVTED_clean_linker_0, # of connection points: 2
#     Edge 51, Type (0, 0), BuildingBlock: XIVTED_clean_linker_0, # of connection points: 2
#     Edge 52, Type (0, 0), BuildingBlock: XIVTED_clean_linker_0, # of connection points: 2
#     Edge 53, Type (0, 0), BuildingBlock: XIVTED_clean_linker_0, # of connection points: 2
#     Edge 54, Type (0, 0), BuildingBlock: XIVTED_clean_linker_0, # of connection points: 2
#     Edge 55, Type (0, 0), BuildingBlock: XIVTED_clean_linker_0, # of connection points: 2
#     Edge 56, Type (0, 0), BuildingBlock: XIVTED_clean_linker_0, # of connection points: 2
#     Edge 57, Type (0, 0), BuildingBlock: XIVTED_clean_linker_0, # of connection points: 2
#     Edge 58, Type (0, 0), BuildingBlock: XIVTED_clean_linker_0, # of connection points: 2
#     Edge 59, Type (0, 0), BuildingBlock: XIVTED_clean_linker_0, # of connection points: 2
#     Edge 60, Type (0, 0), BuildingBlock: XIVTED_clean_linker_0, # of connection points: 2
#     Edge 61, Type (0, 0), BuildingBlock: XIVTED_clean_linker_0, # of connection points: 2
#     Edge 62, Type (0, 0), BuildingBlock: XIVTED_clean_linker_0, # of connection points: 2
#     Edge 63, Type (0, 0), BuildingBlock: XIVTED_clean_linker_0, # of connection points: 2
#     Edge 64, Type (0, 0), BuildingBlock: XIVTED_clean_linker_0, # of connection points: 2
#     Edge 65, Type (0, 0), BuildingBlock: XIVTED_clean_linker_0, # of connection points: 2
#     Edge 66, Type (0, 0), BuildingBlock: XIVTED_clean_linker_0, # of connection points: 2
#     Edge 67, Type (0, 0), BuildingBlock: XIVTED_clean_linker_0, # of connection points: 2
#     Edge 68, Type (0, 0), BuildingBlock: XIVTED_clean_linker_0, # of connection points: 2
#     Edge 69, Type (0, 0), BuildingBlock: XIVTED_clean_linker_0, # of connection points: 2
#     Edge 70, Type (0, 0), BuildingBlock: XIVTED_clean_linker_0, # of connection points: 2
#     Edge 71, Type (0, 0), BuildingBlock: XIVTED_clean_linker_0, # of connection points: 2
#     Edge 72, Type (0, 0), BuildingBlock: XIVTED_clean_linker_0, # of connection points: 2
#     Edge 73, Type (0, 0), BuildingBlock: XIVTED_clean_linker_0, # of connection points: 2
#     Edge 74, Type (0, 0), BuildingBlock: XIVTED_clean_linker_0, # of connection points: 2
#     Edge 75, Type (0, 0), BuildingBlock: XIVTED_clean_linker_0, # of connection points: 2
#     Edge 76, Type (0, 0), BuildingBlock: XIVTED_clean_linker_0, # of connection points: 2
#     Edge 77, Type (0, 0), BuildingBlock: XIVTED_clean_linker_0, # of connection points: 2
#     Edge 78, Type (0, 0), BuildingBlock: XIVTED_clean_linker_0, # of connection points: 2
#     Edge 79, Type (0, 0), BuildingBlock: XIVTED_clean_linker_0, # of connection points: 2
#     Edge 80, Type (0, 0), BuildingBlock: XIVTED_clean_linker_0, # of connection points: 2
#     Edge 81, Type (0, 0), BuildingBlock: XIVTED_clean_linker_0, # of connection points: 2
#     Edge 82, Type (0, 0), BuildingBlock: XIVTED_clean_linker_0, # of connection points: 2
#     Edge 83, Type (0, 0), BuildingBlock: XIVTED_clean_linker_0, # of connection points: 2
#     Edge 84, Type (0, 0), BuildingBlock: XIVTED_clean_linker_0, # of connection points: 2
#     Edge 85, Type (0, 0), BuildingBlock: XIVTED_clean_linker_0, # of connection points: 2
#     Edge 86, Type (0, 0), BuildingBlock: XIVTED_clean_linker_0, # of connection points: 2
#     Edge 87, Type (0, 0), BuildingBlock: XIVTED_clean_linker_0, # of connection points: 2
#     Edge 88, Type (0, 0), BuildingBlock: XIVTED_clean_linker_0, # of connection points: 2
#     Edge 89, Type (0, 0), BuildingBlock: XIVTED_clean_linker_0, # of connection points: 2
#     Edge 90, Type (0, 0), BuildingBlock: XIVTED_clean_linker_0, # of connection points: 2
#     Edge 91, Type (0, 0), BuildingBlock: XIVTED_clean_linker_0, # of connection points: 2
#     Edge 92, Type (0, 0), BuildingBlock: XIVTED_clean_linker_0, # of connection points: 2
#     Edge 93, Type (0, 0), BuildingBlock: XIVTED_clean_linker_0, # of connection points: 2
#     Edge 94, Type (0, 0), BuildingBlock: XIVTED_clean_linker_0, # of connection points: 2
#     Edge 95, Type (0, 0), BuildingBlock: XIVTED_clean_linker_0, # of connection points: 2
#     Edge 96, Type (0, 0), BuildingBlock: XIVTED_clean_linker_0, # of connection points: 2
#     Edge 97, Type (0, 0), BuildingBlock: XIVTED_clean_linker_0, # of connection points: 2
#     Edge 98, Type (0, 0), BuildingBlock: XIVTED_clean_linker_0, # of connection points: 2
#     Edge 99, Type (0, 0), BuildingBlock: XIVTED_clean_linker_0, # of connection points: 2
#     Edge 100, Type (0, 0), BuildingBlock: XIVTED_clean_linker_0, # of connection points: 2
#     Edge 101, Type (0, 0), BuildingBlock: XIVTED_clean_linker_0, # of connection points: 2
#     Edge 102, Type (0, 0), BuildingBlock: XIVTED_clean_linker_0, # of connection points: 2
#     Edge 103, Type (0, 0), BuildingBlock: XIVTED_clean_linker_0, # of connection points: 2
#     Edge 104, Type (0, 0), BuildingBlock: XIVTED_clean_linker_0, # of connection points: 2
#     Edge 105, Type (0, 0), BuildingBlock: XIVTED_clean_linker_0, # of connection points: 2
#     Edge 106, Type (0, 0), BuildingBlock: XIVTED_clean_linker_0, # of connection points: 2
#     Edge 107, Type (0, 0), BuildingBlock: XIVTED_clean_linker_0, # of connection points: 2
#     Edge 108, Type (0, 0), BuildingBlock: XIVTED_clean_linker_0, # of connection points: 2
#     Edge 109, Type (0, 0), BuildingBlock: XIVTED_clean_linker_0, # of connection points: 2
#     Edge 110, Type (0, 0), BuildingBlock: XIVTED_clean_linker_0, # of connection points: 2
#     Edge 111, Type (0, 0), BuildingBlock: XIVTED_clean_linker_0, # of connection points: 2
#     Edge 112, Type (0, 0), BuildingBlock: XIVTED_clean_linker_0, # of connection points: 2
#     Edge 113, Type (0, 0), BuildingBlock: XIVTED_clean_linker_0, # of connection points: 2
#     Edge 114, Type (0, 0), BuildingBlock: XIVTED_clean_linker_0, # of connection points: 2
#     Edge 115, Type (0, 0), BuildingBlock: XIVTED_clean_linker_0, # of connection points: 2
#     Edge 116, Type (0, 0), BuildingBlock: XIVTED_clean_linker_0, # of connection points: 2
#     Edge 117, Type (0, 0), BuildingBlock: XIVTED_clean_linker_0, # of connection points: 2
#     Edge 118, Type (0, 0), BuildingBlock: XIVTED_clean_linker_0, # of connection points: 2
#     Edge 119, Type (0, 0), BuildingBlock: XIVTED_clean_linker_0, # of connection points: 2
#     Edge 120, Type (0, 0), BuildingBlock: XIVTED_clean_linker_0, # of connection points: 2
#     Edge 121, Type (0, 0), BuildingBlock: XIVTED_clean_linker_0, # of connection points: 2
#     Edge 122, Type (0, 0), BuildingBlock: XIVTED_clean_linker_0, # of connection points: 2
#     Edge 123, Type (0, 0), BuildingBlock: XIVTED_clean_linker_0, # of connection points: 2
#     Edge 124, Type (0, 0), BuildingBlock: XIVTED_clean_linker_0, # of connection points: 2
#     Edge 125, Type (0, 0), BuildingBlock: XIVTED_clean_linker_0, # of connection points: 2
#     Edge 126, Type (0, 0), BuildingBlock: XIVTED_clean_linker_0, # of connection points: 2
#     Edge 127, Type (0, 0), BuildingBlock: XIVTED_clean_linker_0, # of connection points: 2
# Relax obj value: 0.268
# Max RMSD: 0.190
# Mean RMSD: 0.190
data_MOF--net-wir--node1-BETDEL_clean_sbu_0--edge1-XIVTED_clean_linker_0
_symmetry_space_group_name_H-M    P1
_symmetry_Int_Tables_number       1
_symmetry_cell_setting            triclinic
loop_
_symmetry_equiv_pos_as_xyz
'x, y, z'
_cell_length_a     36.588648
_cell_length_b     36.577325
_cell_length_c     95.069631
_cell_angle_alpha  90.031322
_cell_angle_beta   89.86708
_cell_angle_gamma 90.063011
loop_
_atom_site_label
_atom_site_type_symbol
_atom_site_fract_x
_atom_site_fract_y
_atom_site_fract_z
_atom_type_partial_charge
Dy0 Dy 0.22 0.19856 0.33773 0.0
C1 C 0.18739 0.08884 0.3031 0.0
C2 C 0.23141 0.26116 0.35207 0.0
Dy3 Dy 0.19781 0.14762 0.32031 0.0
O4 O 0.23739 0.22879 0.35711 0.0
O5 O 0.21729 0.25916 0.33968 0.0
O6 O 0.27858 0.18007 0.33881 0.0
O7 O 0.23793 0.14031 0.338 0.0
C8 C 0.27174 0.14555 0.34043 0.0
C9 C 0.14762 0.20427 0.31989 0.0
O10 O 0.17817 0.11893 0.33927 0.0
O11 O 0.18552 0.16916 0.35359 0.0
O12 O 0.16135 0.10641 0.30948 0.0
O13 O 0.21867 0.10272 0.30652 0.0
O14 O 0.15973 0.18703 0.30893 0.0
O15 O 0.1634 0.19096 0.33055 0.0
O16 O 0.23314 0.22546 0.317 0.0
O17 O 0.24082 0.17157 0.30638 0.0
C18 C 0.17471 0.13494 0.35162 0.0
C19 C 0.24492 0.20697 0.30614 0.0
Dy20 Dy 0.06757 0.95259 0.58471 0.0
C21 C 0.18777 0.93147 0.55434 0.0
C22 C 0.99564 0.96077 0.59019 0.0
Dy23 Dy 0.12778 0.93133 0.57171 0.0
O24 O 0.01845 0.98763 0.58887 0.0
O25 O 1.01251 0.92965 0.58958 0.0
O26 O 0.0886 0.9835 0.60282 0.0
O27 O 0.12003 0.98468 0.58378 0.0
C28 C 0.11881 0.99426 0.59697 0.0
C29 C 0.08242 0.87239 0.57469 0.0
O30 O 0.14966 0.92425 0.59292 0.0
O31 O 0.09183 0.91673 0.60155 0.0
O32 O 0.17275 0.90246 0.55965 0.0
O33 O 0.17081 0.9601 0.55891 0.0
O34 O 0.11753 0.87182 0.57668 0.0
O35 O 0.07306 0.90455 0.57094 0.0
O36 O 0.05661 0.98254 0.56466 0.0
O37 O 0.09793 0.9494 0.55235 0.0
C38 C 0.1277 0.91526 0.60328 0.0
C39 C 0.07059 0.97256 0.55255 0.0
Dy40 Dy 0.32521 0.83159 0.83747 0.0
C41 C 0.35032 0.95201 0.80746 0.0
C42 C 0.31159 0.76565 0.84896 0.0
Dy43 Dy 0.35003 0.89039 0.82346 0.0
O44 O 0.28669 0.78821 0.84493 0.0
O45 O 0.34388 0.77988 0.84766 0.0
O46 O 0.26736 0.85312 0.83935 0.0
O47 O 0.30984 0.88998 0.84096 0.0
C48 C 0.27553 0.88678 0.8422 0.0
C49 C 0.40617 0.84247 0.82555 0.0
O50 O 0.36207 0.91076 0.84489 0.0
O51 O 0.35867 0.8542 0.85522 0.0
O52 O 0.37942 0.93462 0.81146 0.0
O53 O 0.32144 0.93616 0.81248 0.0
O54 O 0.40916 0.87781 0.82619 0.0
O55 O 0.37283 0.83381 0.82288 0.0
O56 O 0.31211 0.80995 0.81609 0.0
O57 O 0.32076 0.86436 0.80524 0.0
C58 C 0.36714 0.88932 0.85589 0.0
C59 C 0.31057 0.82998 0.8047 0.0
Dy60 Dy 0.43761 0.06121 0.09087 0.0
C61 C 0.33568 0.08517 0.05427 0.0
C62 C 0.49448 0.04632 0.10795 0.0
Dy63 Dy 0.38818 0.08217 0.07456 0.0
O64 O 0.48792 0.02988 0.09626 0.0
O65 O 0.47054 0.07171 0.11032 0.0
O66 O 0.41868 1.00283 0.09319 0.0
O67 O 0.37892 0.04305 0.0924 0.0
C68 C 0.38441 1.00953 0.09517 0.0
C69 C 0.4339 0.14102 0.07745 0.0
O70 O 0.35691 0.09422 0.09378 0.0
O71 O 0.41017 0.10051 0.10575 0.0
O72 O 0.34889 0.11326 0.06084 0.0
O73 O 0.35029 0.05556 0.05911 0.0
O74 O 0.39857 0.14224 0.07694 0.0
O75 O 0.4443 0.10775 0.07602 0.0
O76 O 0.46908 0.05 0.07083 0.0
O77 O 0.4172 0.04849 0.05841 0.0
C78 C 0.37448 0.10541 0.105 0.0
C79 C 0.4524 0.043 0.05894 0.0
Dy80 Dy 0.20785 0.82731 0.18433 0.0
C81 C 0.17716 0.94286 0.21493 0.0
C82 C 0.22394 0.76081 0.17356 0.0
Dy83 Dy 0.17972 0.88283 0.19801 0.0
O84 O 0.23161 0.79152 0.16745 0.0
O85 O 0.20525 0.7664 0.18486 0.0
O86 O 0.26502 0.84998 0.18259 0.0
O87 O 0.22156 0.88628 0.18088 0.0
C88 C 0.25596 0.8832 0.17935 0.0
C89 C 0.12411 0.83502 0.19449 0.0
O90 O 0.16887 0.9034 0.17649 0.0
O91 O 0.17105 0.84604 0.16702 0.0
O92 O 0.14867 0.92648 0.20977 0.0
O93 O 0.20671 0.92711 0.21047 0.0
O94 O 0.12104 0.87038 0.19417 0.0
O95 O 0.1572 0.82619 0.19756 0.0
O96 O 0.23285 0.81056 0.20476 0.0
O97 O 0.20381 0.8548 0.21702 0.0
C98 C 0.16325 0.88114 0.16578 0.0
C99 C 0.22471 0.82566 0.21684 0.0
Dy100 Dy 0.4521 0.96689 0.43261 0.0
C101 C 0.33889 0.94646 0.46675 0.0
C102 C 0.51816 0.95337 0.42141 0.0
Dy103 Dy 0.39521 0.94911 0.44773 0.0
O104 O 0.50857 0.98473 0.42658 0.0
O105 O 0.49109 0.93052 0.42146 0.0
O106 O 0.44264 0.01717 0.42052 0.0
O107 O 0.39628 0.99403 0.43121 0.0
C108 C 0.4075 0.01838 0.42226 0.0
C109 C 0.44038 0.8898 0.44527 0.0
O110 O 0.36638 0.94327 0.42766 0.0
O111 O 0.42089 0.93403 0.41661 0.0
O112 O 0.35102 0.91877 0.45961 0.0
O113 O 0.35667 0.9756 0.46312 0.0
O114 O 0.40515 0.88885 0.44399 0.0
O115 O 0.4499 0.92255 0.44807 0.0
O116 O 0.47375 0.9925 0.45249 0.0
O117 O 0.42396 0.97737 0.46542 0.0
C118 C 0.38482 0.93295 0.41651 0.0
C119 C 0.45656 0.99207 0.46463 0.0
Dy120 Dy 0.31073 0.18838 0.67874 0.0
C121 C 0.32678 0.08823 0.71774 0.0
C122 C 0.32795 0.24496 0.6619 0.0
Dy123 Dy 0.32418 0.13816 0.69647 0.0
O124 O 0.29602 0.24026 0.66755 0.0
O125 O 0.34906 0.21762 0.66463 0.0
O126 O 0.25332 0.17597 0.67238 0.0
O127 O 0.28741 0.13142 0.67756 0.0
C128 C 0.25629 0.14061 0.67255 0.0
C129 C 0.38367 0.18391 0.69499 0.0
O130 O 0.33792 0.10199 0.67879 0.0
O131 O 0.34742 0.15263 0.66543 0.0
O132 O 0.35447 0.09889 0.71033 0.0
O133 O 0.29734 0.104 0.71326 0.0
O134 O 0.38498 0.14863 0.69505 0.0
O135 O 0.35032 0.19354 0.69591 0.0
O136 O 0.29002 0.21982 0.69768 0.0
O137 O 0.28684 0.16876 0.71087 0.0
C138 C 0.35111 0.11709 0.66738 0.0
C139 C 0.28056 0.20379 0.70952 0.0
Dy140 Dy 0.09376 0.07309 0.92956 0.0
C141 C 0.21141 0.09527 0.96149 0.0
C142 C 0.0282 0.07562 0.9169 0.0
Dy143 Dy 0.15232 0.09409 0.9441 0.0
O144 O 0.04293 0.04592 0.92161 0.0
O145 O 0.0502 0.10311 0.9182 0.0
O146 O 0.11058 1.01486 0.92553 0.0
O147 O 0.15146 0.05463 0.92611 0.0
C148 C 0.14518 0.021 0.92363 0.0
C149 C 0.10423 0.1509 0.94306 0.0
O150 O 0.17638 0.10727 0.92327 0.0
O151 O 0.12015 0.1069 0.91274 0.0
O152 O 0.19532 0.12401 0.95649 0.0
O153 O 0.19593 0.06606 0.9566 0.0
O154 O 0.13944 0.15386 0.94199 0.0
O155 O 0.09608 0.11737 0.94532 0.0
O156 O 0.07134 0.05557 0.95036 0.0
O157 O 0.12561 0.06211 0.96151 0.0
C158 C 0.1555 0.11419 0.91232 0.0
C159 C 0.09117 0.05202 0.96173 0.0
Dy160 Dy 0.85029 0.89478 0.69624 0.0
C161 C 0.80356 0.78298 0.66638 0.0
C162 C 0.85221 0.95192 0.71474 0.0
Dy163 Dy 0.82447 0.84148 0.68174 0.0
O164 O 0.88086 0.93573 0.70959 0.0
O165 O 0.82301 0.93782 0.70931 0.0
O166 O 0.90931 0.88292 0.69254 0.0
O167 O 0.8738 0.83794 0.69556 0.0
C168 C 0.9069 0.84753 0.69288 0.0
C169 C 0.77553 0.89745 0.67734 0.0
O170 O 0.81482 0.81362 0.70239 0.0
O171 O 0.82023 0.86692 0.71398 0.0
O172 O 0.79188 0.7903 0.67885 0.0
O173 O 0.82768 0.80675 0.66236 0.0
O174 O 0.76699 0.86412 0.6804 0.0
O175 O 0.80974 0.90053 0.67891 0.0
O176 O 0.86143 0.91866 0.67516 0.0
O177 O 0.86356 0.86179 0.6655 0.0
C178 C 0.81189 0.83207 0.71412 0.0
C179 C 0.86929 0.89725 0.6644 0.0
Dy180 Dy 0.89135 0.09357 0.44412 0.0
C181 C 1.01227 0.0559 0.41762 0.0
C182 C 0.83246 0.0966 0.46168 0.0
Dy183 Dy 0.94641 0.06808 0.42973 0.0
O184 O 0.8485 0.12484 0.45617 0.0
O185 O 0.84788 0.06691 0.4572 0.0
O186 O 0.90469 0.15281 0.44143 0.0
O187 O 0.94829 0.11609 0.44431 0.0
C188 C 0.93997 0.14973 0.44208 0.0
C189 C 0.89132 0.01859 0.42525 0.0
O190 O 0.96501 0.04158 0.44959 0.0
O191 O 0.91811 0.06491 0.46225 0.0
O192 O 0.98128 0.04726 0.41196 0.0
O193 O 1.0071 0.073 0.4293 0.0
O194 O 0.92484 1.01029 0.42831 0.0
O195 O 0.88782 0.05305 0.42648 0.0
O196 O 0.86857 0.1057 0.42323 0.0
O197 O 0.92537 0.10684 0.41332 0.0
C198 C 0.94844 0.04594 0.46168 0.0
C199 C 0.89001 0.11379 0.41254 0.0
Dy200 Dy 0.70688 0.13735 0.19819 0.0
C201 C 0.70662 0.24702 0.1633 0.0
C202 C 0.70632 0.08695 0.21944 0.0
Dy203 Dy 0.72 0.18934 0.18003 0.0
O204 O 0.67781 0.09851 0.21276 0.0
O205 O 0.73539 0.10204 0.21422 0.0
O206 O 0.64594 0.14735 0.19703 0.0
O207 O 0.68046 0.19253 0.19733 0.0
C208 C 0.64715 0.18265 0.19655 0.0
C209 C 0.77522 0.14125 0.17491 0.0
O210 O 0.7385 0.22088 0.19914 0.0
O211 O 0.74349 0.16967 0.21225 0.0
O212 O 0.73852 0.23924 0.16835 0.0
O213 O 0.68306 0.22209 0.16657 0.0
O214 O 0.77856 0.17656 0.17523 0.0
O215 O 0.74295 0.13264 0.1789 0.0
O216 O 0.69279 0.10225 0.18029 0.0
O217 O 0.68389 0.15295 0.16674 0.0
C218 C 0.74843 0.20496 0.21092 0.0
C219 C 0.67985 0.11742 0.16885 0.0
Dy220 Dy 0.63877 0.93637 0.94875 0.0
C221 C 0.51093 0.96773 0.92522 0.0
C222 C 0.69881 0.93529 0.9658 0.0
Dy223 Dy 0.57993 0.96153 0.93495 0.0
O224 O 0.68309 0.90649 0.96055 0.0
O225 O 0.68266 0.96446 0.96121 0.0
O226 O 0.62551 0.87703 0.94576 0.0
O227 O 0.58228 0.91375 0.94931 0.0
C228 C 0.59021 0.88039 0.94642 0.0
C229 C 0.63393 1.01133 0.92936 0.0
O230 O 0.563 0.98588 0.95551 0.0
O231 O 0.61171 0.96342 0.96739 0.0
O232 O 0.53812 0.98732 0.92078 0.0
O233 O 0.52204 0.94329 0.93396 0.0
O234 O 0.60028 0.01934 0.9325 0.0
O235 O 0.63823 0.97702 0.93109 0.0
O236 O 0.65917 0.92464 0.92722 0.0
O237 O 0.60167 0.9256 0.91769 0.0
C238 C 0.58062 0.98132 0.96736 0.0
C239 C 0.63693 0.91804 0.91658 0.0
Dy240 Dy 0.8283 0.14107 0.82394 0.0
C241 C 0.79959 0.26723 0.84892 0.0
C242 C 0.83318 0.08163 0.80666 0.0
Dy243 Dy 0.80309 0.19881 0.83815 0.0
O244 O 0.86065 0.09767 0.81267 0.0
O245 O 0.80297 0.09712 0.81061 0.0
O246 O 0.88749 0.15529 0.8262 0.0
O247 O 0.84989 0.1979 0.82309 0.0
C248 C 0.88364 0.19046 0.82537 0.0
C249 C 0.75505 0.14373 0.84462 0.0
O250 O 0.77463 0.21508 0.81843 0.0
O251 O 0.79922 0.16837 0.80589 0.0
O252 O 0.78634 0.23845 0.85507 0.0
O253 O 0.81536 0.25833 0.8373 0.0
O254 O 0.74615 0.17759 0.84221 0.0
O255 O 0.78905 0.13997 0.84201 0.0
O256 O 0.84089 0.12072 0.84536 0.0
O257 O 0.84275 0.1788 0.8542 0.0
C258 C 0.77968 0.19849 0.80638 0.0
C259 C 0.84955 0.14359 0.85556 0.0
Dy260 Dy 0.64673 0.09487 0.57291 0.0
C261 C 0.53726 0.05479 0.60519 0.0
C262 C 0.70186 0.09802 0.55358 0.0
Dy263 Dy 0.5947 0.07148 0.58843 0.0
O264 O 0.68739 0.12616 0.55973 0.0
O265 O 0.68707 0.06835 0.55836 0.0
O266 O 0.63616 0.15451 0.57578 0.0
O267 O 0.59036 0.1198 0.57425 0.0
C268 C 0.6008 0.15295 0.57619 0.0
C269 C 0.64896 0.02072 0.59244 0.0
O270 O 0.56541 0.06163 0.56794 0.0
O271 O 0.6183 0.06329 0.55592 0.0
O272 O 0.56198 0.0789 0.60819 0.0
O273 O 0.54313 0.04072 0.59297 0.0
O274 O 0.61509 1.0133 0.58989 0.0
O275 O 0.65341 0.0547 0.59045 0.0
O276 O 0.67455 0.10603 0.59305 0.0
O277 O 0.6194 0.11014 0.60401 0.0
C278 C 0.58319 0.05668 0.5561 0.0
C279 C 0.65507 0.11538 0.60411 0.0
Dy280 Dy 0.69697 0.88063 0.3241 0.0
C281 C 0.71806 0.74381 0.33884 0.0
C282 C 0.69942 0.94349 0.30849 0.0
Dy283 Dy 0.71732 0.81703 0.33532 0.0
O284 O 0.66994 0.92889 0.31359 0.0
O285 O 0.7274 0.92441 0.31233 0.0
O286 O 0.63725 0.87192 0.3289 0.0
O287 O 0.66857 0.82704 0.32221 0.0
C288 C 0.63674 0.83704 0.32631 0.0
C289 C 0.75897 0.86639 0.34904 0.0
O290 O 0.74666 0.80876 0.315 0.0
O291 O 0.7128 0.85169 0.30391 0.0
O292 O 0.74729 0.76393 0.3385 0.0
O293 O 0.68901 0.76392 0.33837 0.0
O294 O 0.74895 0.83474 0.35392 0.0
O295 O 0.74952 0.86954 0.33591 0.0
O296 O 0.68967 0.8976 0.34615 0.0
O297 O 0.68142 0.83791 0.35259 0.0
C298 C 0.73559 0.82389 0.30327 0.0
C299 C 0.68014 0.87314 0.3556 0.0
Dy300 Dy 0.90613 0.94337 0.07161 0.0
C301 C 0.03967 0.96467 0.09103 0.0
C302 C 0.84668 0.94355 0.05406 0.0
Dy303 Dy 0.96779 0.96311 0.08473 0.0
O304 O 0.85932 0.91509 0.06053 0.0
O305 O 0.86558 0.97196 0.05765 0.0
O306 O 0.91537 0.88316 0.07528 0.0
O307 O 0.96064 0.91599 0.07058 0.0
C308 C 0.95062 0.88355 0.07377 0.0
C309 C 0.91666 1.0042 0.09751 0.0
O310 O 0.98032 0.99273 0.06472 0.0
O311 O 0.93639 0.96267 0.05246 0.0
O312 O 0.01974 0.99372 0.08954 0.0
O313 O 0.01985 0.93547 0.09007 0.0
O314 O 0.94725 0.99376 0.10308 0.0
O315 O 0.91543 0.99541 0.08424 0.0
O316 O 0.8844 0.93586 0.09289 0.0
O317 O 0.9425 0.92586 0.10079 0.0
C318 C 0.96511 0.98425 0.05267 0.0
C319 C 0.90672 0.92504 0.10282 0.0
Dy320 Dy 0.72207 0.70907 0.83685 0.0
C321 C 0.70105 0.58577 0.80779 0.0
C322 C 0.72025 0.78141 0.84257 0.0
Dy323 Dy 0.70335 0.64654 0.82472 0.0
O324 O 0.75006 0.76218 0.84216 0.0
O325 O 0.69194 0.76079 0.84069 0.0
O326 O 0.75031 0.69029 0.85597 0.0
O327 O 0.75458 0.65639 0.83774 0.0
C328 C 0.76193 0.65925 0.85109 0.0
C329 C 0.64342 0.69094 0.82584 0.0
O330 O 0.69427 0.62717 0.84636 0.0
O331 O 0.68314 0.68627 0.85276 0.0
O332 O 0.67387 0.59858 0.815 0.0
O333 O 0.72988 0.60513 0.81041 0.0
O334 O 0.64316 0.65614 0.82836 0.0
O335 O 0.67584 0.70049 0.82244 0.0
O336 O 0.75353 0.72019 0.81717 0.0
O337 O 0.72388 0.6754 0.80525 0.0
C338 C 0.68213 0.65095 0.8556 0.0
C339 C 0.74553 0.70418 0.80521 0.0
Dy340 Dy 0.56358 0.46342 0.08233 0.0
C341 C 0.68547 0.442 0.05296 0.0
C342 C 0.49137 0.47037 0.08792 0.0
Dy343 Dy 0.62472 0.44212 0.06995 0.0
O344 O 0.51387 0.49759 0.08681 0.0
O345 O 0.50874 0.43964 0.08687 0.0
O346 O 0.58384 0.49397 0.10075 0.0
O347 O 0.61648 0.49514 0.08205 0.0
C348 C 0.61462 0.50439 0.09526 0.0
C349 C 0.58062 0.38233 0.07299 0.0
O350 O 0.64468 0.43493 0.09155 0.0
O351 O 0.58582 0.42644 0.09895 0.0
O352 O 0.67162 0.41341 0.05902 0.0
O353 O 0.66695 0.47058 0.05661 0.0
O354 O 0.61575 0.38256 0.07488 0.0
O355 O 0.57043 0.41424 0.06907 0.0
O356 O 0.55317 0.49248 0.06212 0.0
O357 O 0.59473 0.45853 0.05028 0.0
C358 C 0.62134 0.42484 0.10132 0.0
C359 C 0.56725 0.48161 0.05015 0.0
Dy360 Dy 0.82051 0.33636 0.33323 0.0
C361 C 0.8514 0.45739 0.3055 0.0
C362 C 0.80852 0.26745 0.34256 0.0
Dy363 Dy 0.84955 0.39493 0.32101 0.0
O364 O 0.82705 0.27594 0.33149 0.0
O365 O 0.79774 0.29673 0.34903 0.0
O366 O 0.7636 0.36003 0.33571 0.0
O367 O 0.80796 0.39484 0.33808 0.0
C368 C 0.77344 0.39297 0.33918 0.0
C369 C 0.9042 0.34585 0.32347 0.0
O370 O 0.86022 0.41079 0.34321 0.0
O371 O 0.85799 0.3514 0.35067 0.0
O372 O 0.88011 0.4399 0.30987 0.0
O373 O 0.82207 0.44146 0.31011 0.0
O374 O 0.90786 0.38098 0.32502 0.0
O375 O 0.87113 0.33827 0.31986 0.0
O376 O 0.79532 0.32344 0.31266 0.0
O377 O 0.82559 0.36895 0.30144 0.0
C378 C 0.86592 0.38597 0.35305 0.0
C379 C 0.80423 0.34004 0.30098 0.0
Dy380 Dy 0.92835 0.5658 0.58964 0.0
C381 C 0.8257 0.58206 0.55099 0.0
C382 C 0.98701 0.57611 0.60629 0.0
Dy383 Dy 0.87636 0.58066 0.57211 0.0
O384 O 0.97902 0.54543 0.60023 0.0
O385 O 0.96194 0.6002 0.60392 0.0
O386 O 0.91492 0.5078 0.59496 0.0
O387 O 0.87108 0.54352 0.59107 0.0
C388 C 0.87971 0.51168 0.59554 0.0
C389 C 0.92235 0.63985 0.57393 0.0
O390 O 0.8421 0.59467 0.59035 0.0
O391 O 0.89363 0.60198 0.60352 0.0
O392 O 0.83793 0.61044 0.55763 0.0
O393 O 0.84011 0.55277 0.55625 0.0
O394 O 0.88705 0.64137 0.5737 0.0
O395 O 0.9319 0.60649 0.57278 0.0
O396 O 0.95872 0.548 0.57004 0.0
O397 O 0.907 0.54448 0.55728 0.0
C398 C 0.85805 0.60645 0.60183 0.0
C399 C 0.94222 0.53906 0.55825 0.0
Dy400 Dy 0.69657 0.33626 0.68449 0.0
C401 C 0.67452 0.45171 0.71689 0.0
C402 C 0.70892 0.27002 0.67287 0.0
Dy403 Dy 0.67097 0.39341 0.69903 0.0
O404 O 0.68722 0.27607 0.68331 0.0
O405 O 0.72172 0.30044 0.66796 0.0
O406 O 0.75429 0.35758 0.68277 0.0
O407 O 0.71161 0.39485 0.68143 0.0
C408 C 0.74592 0.39115 0.67977 0.0
C409 C 0.61471 0.346 0.69597 0.0
O410 O 0.65863 0.41513 0.67778 0.0
O411 O 0.65949 0.35812 0.66779 0.0
O412 O 0.64434 0.4374 0.71219 0.0
O413 O 0.70232 0.43516 0.71132 0.0
O414 O 0.6117 0.38144 0.69594 0.0
O415 O 0.64796 0.33709 0.69865 0.0
O416 O 0.72091 0.31724 0.7047 0.0
O417 O 0.69575 0.36332 0.71734 0.0
C418 C 0.65242 0.39349 0.6669 0.0
C419 C 0.71464 0.33286 0.71685 0.0
Dy420 Dy 0.96006 0.46333 0.93486 0.0
C421 C 0.84254 0.44427 0.96669 0.0
C422 C 0.03045 0.47249 0.92698 0.0
Dy423 Dy 0.90125 0.4439 0.94868 0.0
O424 O 1.00773 0.49901 0.92917 0.0
O425 O 1.01425 0.44113 0.92835 0.0
O426 O 0.93744 0.4897 0.91609 0.0
O427 O 0.90749 0.4957 0.93531 0.0
C428 C 0.90793 0.50241 0.92182 0.0
C429 C 0.94621 0.38427 0.94622 0.0
O430 O 0.87721 0.43426 0.92812 0.0
O431 O 0.93443 0.42389 0.91942 0.0
O432 O 0.85554 0.41553 0.96048 0.0
O433 O 0.86076 0.47274 0.96267 0.0
O434 O 0.91096 0.38361 0.94481 0.0
O435 O 0.95602 0.41677 0.94932 0.0
O436 O 0.97447 0.49289 0.95488 0.0
O437 O 0.93131 0.46339 0.96766 0.0
C438 C 0.89843 0.42228 0.91802 0.0
C439 C 0.96003 0.48474 0.96716 0.0
Dy440 Dy 0.8109 0.69072 0.17865 0.0
C441 C 0.83426 0.57748 0.21228 0.0
C442 C 0.81902 0.75469 0.16505 0.0
Dy443 Dy 0.83022 0.63386 0.19357 0.0
O444 O 0.78834 0.74356 0.17037 0.0
O445 O 0.84402 0.72998 0.16627 0.0
O446 O 0.75263 0.67582 0.17383 0.0
O447 O 0.79043 0.6331 0.17566 0.0
C448 C 0.75755 0.64085 0.17239 0.0
C449 C 0.8884 0.68039 0.19208 0.0
O450 O 0.84153 0.60697 0.17311 0.0
O451 O 0.84438 0.66235 0.16211 0.0
O452 O 0.86174 0.59131 0.20552 0.0
O453 O 0.80438 0.59337 0.20832 0.0
O454 O 0.89022 0.64518 0.19099 0.0
O455 O 0.85517 0.68947 0.19438 0.0
O456 O 0.79358 0.71546 0.19927 0.0
O457 O 0.798 0.66151 0.2107 0.0
C458 C 0.84999 0.62671 0.16199 0.0
C459 C 0.78925 0.69629 0.21081 0.0
Dy460 Dy 0.58006 0.57459 0.42881 0.0
C461 C 0.70111 0.59408 0.458 0.0
C462 C 0.50754 0.57092 0.42425 0.0
Dy463 Dy 0.64086 0.5954 0.44097 0.0
O464 O 0.52839 0.54251 0.42558 0.0
O465 O 0.5266 0.60079 0.42428 0.0
O466 O 0.59854 0.54315 0.4104 0.0
O467 O 0.63257 0.54238 0.42873 0.0
C468 C 0.62962 0.53273 0.41558 0.0
C469 C 0.59543 0.65454 0.43912 0.0
O470 O 0.66199 0.60251 0.41961 0.0
O471 O 0.60364 0.61024 0.41176 0.0
O472 O 0.68744 0.62326 0.45234 0.0
O473 O 0.6827 0.56587 0.45389 0.0
O474 O 0.63032 0.65524 0.43654 0.0
O475 O 0.58647 0.62216 0.44276 0.0
O476 O 0.56972 0.54423 0.44887 0.0
O477 O 0.61179 0.57759 0.46063 0.0
C478 C 0.63935 0.61147 0.40953 0.0
C479 C 0.58431 0.55451 0.46081 0.0
Dy480 Dy 0.36056 0.39366 0.19782 0.0
C481 C 0.31187 0.2819 0.16872 0.0
C482 C 0.36322 0.45105 0.21624 0.0
Dy483 Dy 0.33433 0.34087 0.18342 0.0
O484 O 0.39162 0.4343 0.21117 0.0
O485 O 0.33387 0.43736 0.21077 0.0
O486 O 0.41969 0.3805 0.19491 0.0
O487 O 0.38312 0.33631 0.19736 0.0
C488 C 0.41658 0.34515 0.19506 0.0
C489 C 0.28607 0.39739 0.17904 0.0
O490 O 0.3254 0.31337 0.20414 0.0
O491 O 0.32833 0.36724 0.21536 0.0
O492 O 0.30098 0.29002 0.18121 0.0
O493 O 0.33598 0.30517 0.16427 0.0
O494 O 0.27719 0.36443 0.18253 0.0
O495 O 0.32043 0.40001 0.18028 0.0
O496 O 0.37317 0.4169 0.17677 0.0
O497 O 0.37396 0.35993 0.16716 0.0
C498 C 0.32081 0.33224 0.21568 0.0
C499 C 0.38068 0.39521 0.16605 0.0
Dy500 Dy 0.37681 0.59382 0.94386 0.0
C501 C 0.49526 0.5835 0.91642 0.0
C502 C 0.3241 0.59692 0.96432 0.0
Dy503 Dy 0.42969 0.57402 0.92863 0.0
O504 O 0.33502 0.62456 0.95685 0.0
O505 O 0.34071 0.56769 0.96009 0.0
O506 O 0.38855 0.65379 0.94033 0.0
O507 O 0.4325 0.61879 0.94412 0.0
C508 C 0.42372 0.65198 0.94175 0.0
C509 C 0.38302 0.52394 0.91845 0.0
O510 O 0.45255 0.54601 0.94766 0.0
O511 O 0.40574 0.56481 0.96129 0.0
O512 O 0.4839 0.55269 0.92153 0.0
O513 O 0.47011 0.60834 0.91717 0.0
O514 O 0.41809 0.52413 0.91653 0.0
O515 O 0.37284 0.54865 0.92745 0.0
O516 O 0.34546 0.6011 0.92432 0.0
O517 O 0.39936 0.6071 0.91266 0.0
C518 C 0.43704 0.54788 0.96006 0.0
C519 C 0.36341 0.60921 0.91281 0.0
Dy520 Dy 0.20417 0.6537 0.69311 0.0
C521 C 0.22276 0.79057 0.67625 0.0
C522 C 0.19536 0.58714 0.70591 0.0
Dy523 Dy 0.22388 0.71724 0.68 0.0
O524 O 0.16937 0.60594 0.70011 0.0
O525 O 0.22618 0.60377 0.70386 0.0
O526 O 0.16065 0.68413 0.70581 0.0
O527 O 0.16867 0.69865 0.68511 0.0
C528 C 0.14994 0.70594 0.69592 0.0
C529 C 0.26698 0.66632 0.66865 0.0
O530 O 0.24938 0.72975 0.70082 0.0
O531 O 0.23324 0.67692 0.71176 0.0
O532 O 0.24534 0.76847 0.66995 0.0
O533 O 0.20029 0.77237 0.68408 0.0
O534 O 0.25721 0.6966 0.66256 0.0
O535 O 0.25742 0.66627 0.68188 0.0
O536 O 0.19267 0.63559 0.67134 0.0
O537 O 0.18847 0.69455 0.66307 0.0
C538 C 0.24826 0.70947 0.71217 0.0
C539 C 0.18484 0.65886 0.6612 0.0
Dy540 Dy 0.14503 0.44189 0.45281 0.0
C541 C 0.02782 0.45024 0.4216 0.0
C542 C 0.19953 0.44448 0.4724 0.0
Dy543 Dy 0.09008 0.45751 0.43624 0.0
O544 O 0.18568 0.41477 0.4672 0.0
O545 O 0.18447 0.47264 0.46654 0.0
O546 O 0.1356 0.38099 0.45098 0.0
O547 O 0.09002 0.41504 0.45252 0.0
C548 C 0.1002 0.38193 0.45086 0.0
C549 C 0.13892 0.51186 0.43018 0.0
O550 O 0.06213 0.47443 0.45639 0.0
O551 O 0.11456 0.47489 0.46884 0.0
O552 O 0.03958 0.48095 0.4266 0.0
O553 O 0.0512 0.42431 0.42365 0.0
O554 O 0.10388 0.51605 0.4315 0.0
O555 O 0.14715 0.47928 0.43387 0.0
O556 O 0.17567 0.42769 0.43367 0.0
O557 O 0.12256 0.42252 0.42119 0.0
C558 C 0.07943 0.48131 0.46819 0.0
C559 C 0.15822 0.41722 0.42229 0.0
Dy560 Dy 0.34032 0.64067 0.32585 0.0
C561 C 0.30343 0.76264 0.35178 0.0
C562 C 0.34504 0.58238 0.30797 0.0
Dy563 Dy 0.31392 0.69591 0.34007 0.0
O564 O 0.37251 0.59738 0.31437 0.0
O565 O 0.31497 0.59824 0.31183 0.0
O566 O 0.39939 0.65288 0.32904 0.0
O567 O 0.36342 0.69726 0.32616 0.0
C568 C 0.39675 0.68822 0.32869 0.0
C569 C 0.26525 0.64074 0.34569 0.0
O570 O 0.28693 0.71368 0.32013 0.0
O571 O 0.31402 0.66907 0.3074 0.0
O572 O 0.29682 0.73195 0.3581 0.0
O573 O 0.31709 0.75677 0.33949 0.0
O574 O 0.25662 0.67452 0.34316 0.0
O575 O 0.29932 0.63686 0.34332 0.0
O576 O 0.35078 0.61865 0.34723 0.0
O577 O 0.35242 0.67604 0.35656 0.0
C578 C 0.29364 0.69855 0.30792 0.0
C579 C 0.35846 0.64067 0.35782 0.0
Dy580 Dy 0.14781 0.58821 0.07494 0.0
C581 C 0.02115 0.56447 0.09875 0.0
C582 C 0.21002 0.59839 0.05928 0.0
Dy583 Dy 0.09156 0.57105 0.09063 0.0
O584 O 0.18997 0.62439 0.06442 0.0
O585 O 0.19694 0.56726 0.06332 0.0
O586 O 0.1095 0.62644 0.06274 0.0
O587 O 0.10679 0.62646 0.08436 0.0
C588 C 0.09427 0.64179 0.07353 0.0
C589 C 0.14332 0.52729 0.10084 0.0
O590 O 0.06982 0.55313 0.06944 0.0
O591 O 0.12398 0.55356 0.05813 0.0
O592 O 0.04414 0.53763 0.09834 0.0
O593 O 0.03712 0.59505 0.09567 0.0
O594 O 0.11519 0.5391 0.1078 0.0
O595 O 0.14093 0.53558 0.0875 0.0
O596 O 0.17486 0.60138 0.09494 0.0
O597 O 0.12051 0.60398 0.10697 0.0
C598 C 0.08907 0.54634 0.05808 0.0
C599 C 0.15645 0.60794 0.10653 0.0
Dy600 Dy 0.17023 0.40146 0.8164 0.0
C601 C 0.20278 0.28163 0.8451 0.0
C602 C 0.17017 0.45801 0.79757 0.0
Dy603 Dy 0.19379 0.34529 0.83131 0.0
O604 O 0.14106 0.44254 0.80268 0.0
O605 O 0.19889 0.44384 0.80336 0.0
O606 O 0.11073 0.38853 0.81904 0.0
O607 O 0.14735 0.34471 0.81641 0.0
C608 C 0.1139 0.35319 0.81883 0.0
C609 C 0.24368 0.39993 0.83643 0.0
O610 O 0.20794 0.32014 0.81057 0.0
O611 O 0.20143 0.37341 0.79888 0.0
O612 O 0.22909 0.30029 0.83958 0.0
O613 O 0.17191 0.29857 0.84382 0.0
O614 O 0.25155 0.36613 0.83372 0.0
O615 O 0.20955 0.404 0.83446 0.0
O616 O 0.15643 0.42569 0.83727 0.0
O617 O 0.15813 0.36966 0.84796 0.0
C618 C 0.21096 0.33882 0.79888 0.0
C619 C 0.1501 0.40483 0.84837 0.0
Dy620 Dy 0.41168 0.4546 0.57536 0.0
C621 C 0.54867 0.48034 0.58987 0.0
C622 C 0.34822 0.45467 0.56011 0.0
Dy623 Dy 0.47543 0.47524 0.58612 0.0
O624 O 0.36217 0.42637 0.56626 0.0
O625 O 0.3682 0.48304 0.56275 0.0
O626 O 0.42093 0.39479 0.57944 0.0
O627 O 0.46551 0.42666 0.57278 0.0
C628 C 0.45566 0.39458 0.57665 0.0
C629 C 0.42587 0.51511 0.60058 0.0
O630 O 0.4823 0.50522 0.56588 0.0
O631 O 0.43906 0.47107 0.55506 0.0
O632 O 0.52653 0.508 0.59007 0.0
O633 O 0.53047 0.45018 0.5885 0.0
O634 O 0.45721 0.50403 0.60531 0.0
O635 O 0.42271 0.507 0.58732 0.0
O636 O 0.39622 0.44622 0.59749 0.0
O637 O 0.45632 0.43696 0.60295 0.0
C638 C 0.46644 0.4943 0.55427 0.0
C639 C 0.42135 0.43517 0.60637 0.0
H640 H 0.21015 0.32883 0.34398 0.0
H641 H 0.22874 0.39451 0.42235 0.0
H642 H 0.26691 0.27078 0.37684 0.0
H643 H 0.13745 0.41565 0.39479 0.0
H644 H 0.26353 0.37151 0.40229 0.0
H645 H 0.2071 0.38267 0.35917 0.0
C646 C 0.22277 0.32781 0.35428 0.0
C647 C 0.23725 0.29522 0.35957 0.0
C648 C 0.23619 0.382 0.40064 0.0
C649 C 0.2342 0.35602 0.37666 0.0
C650 C 0.21616 0.39461 0.41204 0.0
C651 C 0.17974 0.40545 0.41021 0.0
C652 C 0.21951 0.3803 0.38742 0.0
C653 C 0.16501 0.4061 0.39667 0.0
C654 C 0.22126 0.3585 0.36284 0.0
C655 C 0.25425 0.29524 0.3727 0.0
N656 N 0.18486 0.39305 0.38575 0.0
N657 N 0.25156 0.32515 0.381 0.0
H658 H 0.94131 0.91274 0.58471 0.0
H659 H 0.87613 0.9696 0.65803 0.0
H660 H 0.963 0.01714 0.60399 0.0
H661 H 0.86859 0.86252 0.63907 0.0
H662 H 0.88223 0.99638 0.63466 0.0
H663 H 0.88611 0.90704 0.59889 0.0
C664 C 0.93368 0.93498 0.59166 0.0
C665 C 0.95732 0.96439 0.59394 0.0
C666 C 0.87865 0.96709 0.63562 0.0
C667 C 0.89622 0.95715 0.6106 0.0
C668 C 0.87592 0.95171 0.64895 0.0
C669 C 0.87375 0.91364 0.65048 0.0
C670 C 0.87981 0.94411 0.62381 0.0
C671 C 0.8719 0.89188 0.63839 0.0
C672 C 0.90222 0.93181 0.59974 0.0
C673 C 0.94592 0.99325 0.60251 0.0
N674 N 0.87558 0.90741 0.62556 0.0
N675 N 0.91665 0.98829 0.61105 0.0
H676 H 0.352 0.70768 0.84107 0.0
H677 H 0.29134 0.62609 0.90962 0.0
H678 H 0.25397 0.73748 0.86346 0.0
H679 H 0.38894 0.59935 0.88627 0.0
H680 H 0.26115 0.64236 0.88764 0.0
H681 H 0.347 0.64589 0.85038 0.0
C682 C 0.32931 0.70091 0.84795 0.0
C683 C 0.3047 0.72767 0.85239 0.0
C684 C 0.2889 0.63211 0.88727 0.0
C685 C 0.29981 0.65834 0.86355 0.0
C686 C 0.30628 0.62343 0.89983 0.0
C687 C 0.34341 0.61422 0.89971 0.0
C688 C 0.30931 0.6323 0.87474 0.0
C689 C 0.36099 0.60895 0.88682 0.0
C690 C 0.32608 0.66561 0.8531 0.0
C691 C 0.2745 0.71759 0.8605 0.0
N692 N 0.34398 0.61883 0.87481 0.0
N693 N 0.27357 0.6838 0.86632 0.0
H694 H 0.67512 0.12914 0.14061 0.0
H695 H 0.56168 0.02763 0.09853 0.0
H696 H 0.64669 0.05256 0.17342 0.0
H697 H 0.49994 0.05093 0.13619 0.0
H698 H 0.61836 0.02983 0.11239 0.0
H699 H 0.63858 0.09318 0.12404 0.0
C700 C 0.6617 0.10443 0.14421 0.0
C701 C 0.66279 0.09413 0.15835 0.0
C702 C 0.5922 0.03314 0.11759 0.0
C703 C 0.62187 0.05333 0.13972 0.0
C704 C 0.56013 0.03204 0.10979 0.0
C705 C 0.52678 0.04006 0.11635 0.0
C706 C 0.59007 0.04135 0.13194 0.0
C707 C 0.52554 0.04547 0.13085 0.0
C708 C 0.6416 0.08362 0.13476 0.0
C709 C 0.64579 0.06159 0.16258 0.0
N710 N 0.55704 0.04629 0.13823 0.0
N711 N 0.62479 0.0429 0.15336 0.0
H712 H 0.26887 0.74429 0.15169 0.0
H713 H 0.13119 0.60815 0.13355 0.0
H714 H 0.20027 0.69548 0.1835 0.0
H715 H 0.22939 0.62087 0.10873 0.0
H716 H 0.16542 0.62545 0.15441 0.0
H717 H 0.26927 0.68654 0.13901 0.0
C718 C 0.25451 0.72104 0.15612 0.0
C719 C 0.23264 0.72478 0.16807 0.0
C720 C 0.17978 0.62368 0.14446 0.0
C721 C 0.23198 0.65951 0.15361 0.0
C722 C 0.15998 0.61456 0.13252 0.0
C723 C 0.17704 0.61535 0.11935 0.0
C724 C 0.21642 0.63477 0.14305 0.0
C725 C 0.21479 0.62179 0.11864 0.0
C726 C 0.25499 0.68792 0.14899 0.0
C727 C 0.21591 0.69382 0.17384 0.0
N728 N 0.2331 0.63222 0.1303 0.0
N729 N 0.21483 0.66252 0.16627 0.0
H730 H 0.66613 0.83041 0.3785 0.0
H731 H 0.57512 0.99854 0.41485 0.0
H732 H 0.67847 0.94294 0.36553 0.0
H733 H 0.54541 0.88521 0.42011 0.0
H734 H 0.63392 0.97919 0.40488 0.0
H735 H 0.64501 0.8514 0.40144 0.0
C736 C 0.66456 0.85952 0.38051 0.0
C737 C 0.67186 0.88506 0.36991 0.0
C738 C 0.61487 0.95865 0.40859 0.0
C739 C 0.64793 0.90905 0.39595 0.0
C740 C 0.58136 0.96966 0.41411 0.0
C741 C 0.5552 0.94325 0.41755 0.0
C742 C 0.62157 0.92117 0.40657 0.0
C743 C 0.56453 0.90627 0.41694 0.0
C744 C 0.65302 0.87147 0.39364 0.0
C745 C 0.67124 0.92237 0.37323 0.0
N746 N 0.59684 0.89625 0.41128 0.0
N747 N 0.65844 0.93334 0.3859 0.0
H748 H 0.35441 0.44102 0.6186 0.0
H749 H 0.39873 0.26463 0.66096 0.0
H750 H 0.46286 0.39805 0.62531 0.0
H751 H 0.28961 0.30546 0.65398 0.0
H752 H 0.42345 0.32362 0.6543 0.0
H753 H 0.33214 0.40445 0.63819 0.0
C754 C 0.37363 0.42423 0.62436 0.0
C755 C 0.41004 0.42075 0.61996 0.0
C756 C 0.39408 0.31991 0.65428 0.0
C757 C 0.38486 0.37907 0.64215 0.0
C758 C 0.37999 0.28606 0.65784 0.0
C759 C 0.34223 0.28007 0.65738 0.0
C760 C 0.37026 0.34754 0.64983 0.0
C761 C 0.319 0.30896 0.65395 0.0
C762 C 0.36096 0.4036 0.63559 0.0
C763 C 0.43423 0.40024 0.62809 0.0
N764 N 0.3335 0.34147 0.64999 0.0
N765 N 0.42096 0.37927 0.63864 0.0
H766 H 0.98143 0.02277 0.90759 0.0
H767 H 0.8571 0.1804 0.88033 0.0
H768 H 0.9881 0.13679 0.91894 0.0
H769 H 0.86548 0.07286 0.8618 0.0
H770 H 0.88339 0.15646 0.90196 0.0
H771 H 0.91945 0.03325 0.89862 0.0
C772 C 0.96953 0.04981 0.90833 0.0
C773 C 0.99002 0.07948 0.91319 0.0
C774 C 0.87883 0.13796 0.89323 0.0
C775 C 0.92005 0.09142 0.90343 0.0
C776 C 0.86435 0.15173 0.88084 0.0
C777 C 0.86121 0.12895 0.86908 0.0
C778 C 0.89113 0.10163 0.89359 0.0
C779 C 0.86917 0.09169 0.87047 0.0
C780 C 0.93422 0.05571 0.90341 0.0
C781 C 0.97349 0.11369 0.91454 0.0
N782 N 0.88474 0.07929 0.88243 0.0
N783 N 0.93953 0.11891 0.90944 0.0
H784 H 0.78691 0.71552 0.67632 0.0
H785 H 0.87223 0.60577 0.6299 0.0
H786 H 0.79505 0.77927 0.6383 0.0
H787 H 0.7922 0.63931 0.59923 0.0
H788 H 0.8379 0.63844 0.64803 0.0
H789 H 0.78201 0.65969 0.66198 0.0
C790 C 0.7865 0.7177 0.66496 0.0
C791 C 0.79262 0.75128 0.6583 0.0
C792 C 0.8271 0.6374 0.63743 0.0
C793 C 0.78608 0.68897 0.64221 0.0
C794 C 0.8471 0.61955 0.62708 0.0
C795 C 0.83554 0.62127 0.6131 0.0
C796 C 0.79629 0.65786 0.63356 0.0
C797 C 0.80234 0.63835 0.60992 0.0
C798 C 0.78353 0.68612 0.65687 0.0
C799 C 0.79148 0.7534 0.64367 0.0
N800 N 0.78443 0.65726 0.62003 0.0
N801 N 0.78871 0.72238 0.63604 0.0
H802 H 0.07736 0.07979 0.42755 0.0
H803 H 0.15398 0.06359 0.35091 0.0
H804 H 0.02831 0.01846 0.3937 0.0
H805 H 0.17151 0.15399 0.37942 0.0
H806 H 0.13071 0.02731 0.37038 0.0
H807 H 0.13385 0.08426 0.41393 0.0
C808 C 0.07888 0.06647 0.41739 0.0
C809 C 0.048 0.05034 0.4113 0.0
C810 C 0.14038 0.05483 0.37239 0.0
C811 C 0.1118 0.05516 0.39594 0.0
C812 C 0.15312 0.07581 0.36128 0.0
C813 C 0.163 0.11245 0.3635 0.0
C814 C 0.13715 0.0708 0.3857 0.0
C815 C 0.1627 0.12633 0.3772 0.0
C816 C 0.11109 0.06881 0.40971 0.0
C817 C 0.05136 0.03241 0.39841 0.0
N818 N 0.14918 0.10562 0.38781 0.0
N819 N 0.08264 0.03604 0.39093 0.0
H820 H 0.69193 0.42536 0.1103 0.0
H821 H 0.63964 0.27668 0.16498 0.0
H822 H 0.58188 0.39987 0.12365 0.0
H823 H 0.75008 0.29938 0.15155 0.0
H824 H 0.62063 0.33585 0.15614 0.0
H825 H 0.7153 0.39559 0.13129 0.0
C826 C 0.67265 0.4138 0.11774 0.0
C827 C 0.63507 0.41314 0.11496 0.0
C828 C 0.64911 0.32818 0.1552 0.0
C829 C 0.66152 0.37929 0.13882 0.0
C830 C 0.65983 0.29421 0.16004 0.0
C831 C 0.69604 0.28287 0.15829 0.0
C832 C 0.67458 0.35023 0.14813 0.0
C833 C 0.7216 0.30698 0.15254 0.0
C834 C 0.68602 0.39714 0.12978 0.0
C835 C 0.61119 0.39947 0.12517 0.0
N836 N 0.71015 0.33942 0.14729 0.0
N837 N 0.62492 0.38222 0.13655 0.0
H838 H 0.37325 0.85704 0.88175 0.0
H839 H 0.48259 1.01584 0.90633 0.0
H840 H 0.37131 0.96214 0.86103 0.0
H841 H 0.45372 0.92633 0.93371 0.0
H842 H 0.42548 1.00714 0.89371 0.0
H843 H 0.38648 0.8879 0.90389 0.0
C844 C 0.37555 0.88656 0.88188 0.0
C845 C 0.37328 0.90691 0.86947 0.0
C846 C 0.43099 0.98997 0.90273 0.0
C847 C 0.38778 0.94241 0.89462 0.0
C848 C 0.46373 0.99488 0.90984 0.0
C849 C 0.47342 0.97021 0.92037 0.0
C850 C 0.40925 0.95926 0.90591 0.0
C851 C 0.44773 0.94458 0.92506 0.0
C852 C 0.38239 0.9043 0.89455 0.0
C853 C 0.37472 0.94519 0.87026 0.0
N854 N 0.4171 0.93885 0.91745 0.0
N855 N 0.38262 0.96168 0.88259 0.0
H856 H 0.76363 0.29353 0.87181 0.0
H857 H 0.93114 0.39703 0.89389 0.0
H858 H 0.84471 0.3216 0.84057 0.0
H859 H 0.82613 0.42359 0.91214 0.0
H860 H 0.89953 0.37354 0.87306 0.0
H861 H 0.7827 0.34629 0.88571 0.0
C862 C 0.78477 0.31145 0.86775 0.0
C863 C 0.80344 0.30303 0.85535 0.0
C864 C 0.88361 0.38536 0.88154 0.0
C865 C 0.82589 0.36216 0.87114 0.0
C866 C 0.90159 0.39819 0.89346 0.0
C867 C 0.88114 0.41084 0.9049 0.0
C868 C 0.8452 0.38488 0.88133 0.0
C869 C 0.84294 0.41282 0.90373 0.0
C870 C 0.79557 0.34156 0.8756 0.0
C871 C 0.83027 0.32706 0.8503 0.0
N872 N 0.82611 0.39922 0.89225 0.0
N873 N 0.84167 0.3551 0.85848 0.0
H874 H 0.53517 0.052 0.63352 0.0
H875 H 0.35651 0.12963 0.63925 0.0
H876 H 0.46869 0.03915 0.59644 0.0
H877 H 0.3846 0.05218 0.67171 0.0
H878 H 0.39444 0.09522 0.62265 0.0
H879 H 0.48001 0.04894 0.64804 0.0
C880 C 0.50889 0.0478 0.62853 0.0
C881 C 0.50582 0.04654 0.61391 0.0
C882 C 0.39124 0.08516 0.6333 0.0
C883 C 0.44342 0.0438 0.63017 0.0
C884 C 0.37021 0.10505 0.64277 0.0
C885 C 0.36861 0.09413 0.65684 0.0
C886 C 0.4115 0.05525 0.63818 0.0
C887 C 0.38594 0.06171 0.66094 0.0
C888 C 0.47764 0.04558 0.63675 0.0
C889 C 0.47161 0.04063 0.60776 0.0
N890 N 0.40784 0.04392 0.65172 0.0
N891 N 0.44123 0.04081 0.61594 0.0
H892 H 0.77009 0.70059 0.35091 0.0
H893 H 0.60178 0.61514 0.38471 0.0
H894 H 0.66285 0.69799 0.33229 0.0
H895 H 0.71089 0.61346 0.40193 0.0
H896 H 0.62794 0.62296 0.36128 0.0
H897 H 0.75566 0.64439 0.3636 0.0
C898 C 0.74402 0.68733 0.3491 0.0
C899 C 0.71666 0.70461 0.34136 0.0
C900 C 0.64621 0.62034 0.37017 0.0
C901 C 0.69951 0.642 0.35605 0.0
C902 C 0.6312 0.6166 0.38356 0.0
C903 C 0.65415 0.61566 0.3953 0.0
C904 C 0.6843 0.62406 0.36863 0.0
C905 C 0.6921 0.61573 0.3932 0.0
C906 C 0.73565 0.65532 0.35636 0.0
C907 C 0.68384 0.68612 0.33888 0.0
N908 N 0.70598 0.62068 0.38015 0.0
N909 N 0.67559 0.65622 0.3466 0.0
H910 H 0.16784 0.84762 0.14009 0.0
H911 H 0.07761 0.01645 0.10563 0.0
H912 H 0.14967 0.9524 0.15988 0.0
H913 H 0.08788 0.91044 0.08622 0.0
H914 H 0.12923 1.00183 0.12087 0.0
H915 H 0.16075 0.87662 0.11713 0.0
C916 C 0.16212 0.87664 0.1396 0.0
C917 C 0.15777 0.89737 0.15187 0.0
C918 C 0.12107 0.98221 0.11294 0.0
C919 C 0.15048 0.9308 0.12577 0.0
C920 C 0.09178 0.99071 0.10421 0.0
C921 C 0.07774 0.96369 0.09535 0.0
C922 C 0.13511 0.94638 0.11282 0.0
C923 C 0.09723 0.93119 0.09352 0.0
C924 C 0.1588 0.89333 0.12651 0.0
C925 C 0.15197 0.93513 0.15067 0.0
N926 N 0.12442 0.92284 0.10255 0.0
N927 N 0.14792 0.95052 0.13785 0.0
H928 H 0.70922 0.91537 0.90995 0.0
H929 H 0.66429 0.82737 0.83737 0.0
H930 H 0.60162 0.90579 0.89167 0.0
H931 H 0.76892 0.8211 0.85798 0.0
H932 H 0.64828 0.87949 0.85208 0.0
H933 H 0.73614 0.90219 0.88712 0.0
C934 C 0.69119 0.91038 0.90113 0.0
C935 C 0.65306 0.91026 0.90279 0.0
C936 C 0.6752 0.86751 0.85312 0.0
C937 C 0.68384 0.89566 0.87663 0.0
C938 C 0.68436 0.83788 0.8447 0.0
C939 C 0.71724 0.81935 0.84702 0.0
C940 C 0.69878 0.87755 0.86407 0.0
C941 C 0.74283 0.83428 0.85626 0.0
C942 C 0.70665 0.90341 0.88806 0.0
C943 C 0.63114 0.90499 0.89092 0.0
N944 N 0.73255 0.862 0.86486 0.0
N945 N 0.64689 0.89724 0.87835 0.0
H946 H 0.36806 0.36301 0.1407 0.0
H947 H 0.46002 0.52551 0.10294 0.0
H948 H 0.3986 0.46558 0.1599 0.0
H949 H 0.43774 0.42046 0.08429 0.0
H950 H 0.41115 0.51476 0.11996 0.0
H951 H 0.37048 0.39211 0.11771 0.0
C952 C 0.37578 0.39156 0.14005 0.0
C953 C 0.38481 0.41159 0.15212 0.0
C954 C 0.41594 0.49462 0.11181 0.0
C955 C 0.38692 0.4452 0.12591 0.0
C956 C 0.44366 0.5009 0.10205 0.0
C957 C 0.45383 0.47278 0.09289 0.0
C958 C 0.39952 0.45986 0.11234 0.0
C959 C 0.4315 0.44193 0.09176 0.0
C960 C 0.37635 0.40838 0.12696 0.0
C961 C 0.39277 0.44888 0.15077 0.0
N962 N 0.40593 0.43564 0.10176 0.0
N963 N 0.39431 0.46436 0.13785 0.0
H964 H 0.92294 0.12776 0.38717 0.0
H965 H 0.76527 0.24323 0.36383 0.0
H966 H 0.8175 0.1207 0.40759 0.0
H967 H 0.84758 0.20849 0.33415 0.0
H968 H 0.77666 0.18846 0.37766 0.0
H969 H 0.89246 0.14822 0.36572 0.0
C970 C 0.89345 0.13032 0.3871 0.0
C971 C 0.87284 0.1241 0.39927 0.0
C972 C 0.79151 0.19212 0.36789 0.0
C973 C 0.83791 0.1466 0.37493 0.0
C974 C 0.78504 0.22344 0.36006 0.0
C975 C 0.80667 0.23069 0.34829 0.0
C976 C 0.82072 0.16917 0.36409 0.0
C977 C 0.83125 0.2041 0.34351 0.0
C978 C 0.87598 0.14134 0.37482 0.0
C979 C 0.83461 0.12657 0.39856 0.0
N980 N 0.83866 0.17489 0.35175 0.0
N981 N 0.8184 0.1383 0.38666 0.0
H982 H 0.04262 0.52986 0.61316 0.0
H983 H 0.16119 0.69802 0.63858 0.0
H984 H 1.01386 0.64396 0.6098 0.0
H985 H 0.17523 0.58758 0.65373 0.0
H986 H 0.12282 0.67465 0.61969 0.0
H987 H 0.10414 0.54792 0.62083 0.0
C988 C 0.04935 0.55862 0.61408 0.0
C989 C 0.02318 0.58556 0.61139 0.0
C990 C 0.13495 0.6555 0.62701 0.0
C991 C 0.09287 0.60615 0.61947 0.0
C992 C 0.15669 0.66882 0.6378 0.0
C993 C 0.16957 0.64482 0.6481 0.0
C994 C 0.12581 0.61823 0.62679 0.0
C995 C 0.16428 0.60714 0.64632 0.0
C996 C 0.08437 0.56885 0.61822 0.0
C997 C 0.03308 0.62241 0.61227 0.0
N998 N 0.14184 0.59497 0.63605 0.0
N999 N 0.06716 0.63165 0.61634 0.0
H1000 H 0.72715 0.13116 0.6073 0.0
H1001 H 0.68112 0.20529 0.68177 0.0
H1002 H 0.62688 0.11588 0.63065 0.0
H1003 H 0.75736 0.25264 0.65225 0.0
H1004 H 0.68428 0.14758 0.66891 0.0
H1005 H 0.75761 0.14963 0.62897 0.0
C1006 C 0.71162 0.13146 0.61701 0.0
C1007 C 0.67402 0.12405 0.61716 0.0
C1008 C 0.70126 0.17025 0.66555 0.0
C1009 C 0.70877 0.14413 0.64179 0.0
C1010 C 0.69913 0.2032 0.67274 0.0
C1011 C 0.7173 0.23391 0.66742 0.0
C1012 C 0.72099 0.16883 0.6529 0.0
C1013 C 0.7415 0.22977 0.65616 0.0
C1014 C 0.72919 0.14132 0.62936 0.0
C1015 C 0.6555 0.12326 0.63002 0.0
N1016 N 0.74197 0.19787 0.64898 0.0
N1017 N 0.67296 0.13396 0.64185 0.0
H1018 H 0.16887 0.37746 0.87385 0.0
H1019 H 0.05656 0.52906 0.91132 0.0
H1020 H 0.1236 0.4731 0.85382 0.0
H1021 H 0.08659 0.425 0.9291 0.0
H1022 H 0.10576 0.52269 0.89405 0.0
H1023 H 0.16196 0.407 0.89659 0.0
C1024 C 0.15702 0.40457 0.87427 0.0
C1025 C 0.14499 0.42226 0.86206 0.0
C1026 C 0.1025 0.50191 0.90207 0.0
C1027 C 0.13744 0.45631 0.88801 0.0
C1028 C 0.07457 0.50562 0.91194 0.0
C1029 C 0.06686 0.47657 0.92103 0.0
C1030 C 0.12197 0.46886 0.90144 0.0
C1031 C 0.09108 0.44719 0.92175 0.0
C1032 C 0.1538 0.42171 0.88722 0.0
C1033 C 0.13183 0.45807 0.8631 0.0
N1034 N 0.11716 0.44355 0.91177 0.0
N1035 N 0.12757 0.47369 0.87593 0.0
H1036 H 0.94378 0.91047 0.12705 0.0
H1037 H 0.77215 0.80688 0.15516 0.0
H1038 H 0.83491 0.9198 0.10995 0.0
H1039 H 0.88417 0.78773 0.16709 0.0
H1040 H 0.7902 0.86683 0.14578 0.0
H1041 H 0.91769 0.88622 0.14873 0.0
C1042 C 0.91439 0.90754 0.12789 0.0
C1043 C 0.89155 0.91503 0.11649 0.0
C1044 C 0.8106 0.84979 0.15077 0.0
C1045 C 0.86169 0.88733 0.14103 0.0
C1046 C 0.80036 0.81564 0.15594 0.0
C1047 C 0.8272 0.79212 0.16111 0.0
C1048 C 0.84776 0.85978 0.15086 0.0
C1049 C 0.8631 0.80467 0.16248 0.0
C1050 C 0.89946 0.89416 0.1403 0.0
C1051 C 0.85359 0.91261 0.11832 0.0
N1052 N 0.8725 0.83753 0.15716 0.0
N1053 N 0.83981 0.89797 0.13026 0.0
H1054 H 0.46611 0.51556 0.41347 0.0
H1055 H 0.35575 0.67493 0.38332 0.0
H1056 H 0.45973 0.62437 0.43071 0.0
H1057 H 0.37189 0.56937 0.36392 0.0
H1058 H 0.36855 0.64773 0.40617 0.0
H1059 H 0.4063 0.52446 0.40257 0.0
C1060 C 0.45145 0.54083 0.41533 0.0
C1061 C 0.46824 0.57022 0.42213 0.0
C1062 C 0.36874 0.63038 0.39694 0.0
C1063 C 0.40122 0.58084 0.40965 0.0
C1064 C 0.36215 0.64605 0.38387 0.0
C1065 C 0.3649 0.62473 0.37169 0.0
C1066 C 0.37923 0.59348 0.39769 0.0
C1067 C 0.37123 0.58713 0.37303 0.0
C1068 C 0.41735 0.54594 0.40916 0.0
C1069 C 0.44809 0.6019 0.42479 0.0
N1070 N 0.37905 0.57282 0.38579 0.0
N1071 N 0.41582 0.60685 0.41819 0.0
H1072 H 0.29044 0.27576 0.14177 0.0
H1073 H 0.30192 0.12043 0.10529 0.0
H1074 H 0.31228 0.21359 0.17932 0.0
H1075 H 0.3981 0.12121 0.13161 0.0
H1076 H 0.26823 0.15219 0.12375 0.0
H1077 H 0.28818 0.21893 0.12832 0.0
C1078 C 0.29365 0.24988 0.14718 0.0
C1079 C 0.30208 0.24869 0.16144 0.0
C1080 C 0.29639 0.14435 0.12556 0.0
C1081 C 0.30052 0.18453 0.14635 0.0
C1082 C 0.31583 0.12675 0.11504 0.0
C1083 C 0.35328 0.11978 0.11677 0.0
C1084 C 0.31469 0.15491 0.13778 0.0
C1085 C 0.36961 0.12745 0.12971 0.0
C1086 C 0.29191 0.21756 0.13961 0.0
C1087 C 0.30599 0.21498 0.1682 0.0
N1088 N 0.35025 0.14536 0.13972 0.0
N1089 N 0.30675 0.18395 0.16043 0.0
H1090 H 0.5288 0.64897 0.91706 0.0
H1091 H 0.67407 0.58058 0.86457 0.0
H1092 H 0.54707 0.53492 0.90793 0.0
H1093 H 0.6623 0.69281 0.87797 0.0
H1094 H 0.6421 0.56086 0.88574 0.0
H1095 H 0.58998 0.66295 0.9087 0.0
C1096 C 0.54592 0.62689 0.91325 0.0
C1097 C 0.53281 0.59107 0.9125 0.0
C1098 C 0.64719 0.58976 0.88421 0.0
C1099 C 0.60229 0.6067 0.90277 0.0
C1100 C 0.66511 0.60104 0.87207 0.0
C1101 C 0.66887 0.63843 0.86924 0.0
C1102 C 0.63258 0.61622 0.89332 0.0
C1103 C 0.65831 0.66375 0.87949 0.0
C1104 C 0.58098 0.63474 0.90866 0.0
C1105 C 0.55618 0.56308 0.90815 0.0
N1106 N 0.63984 0.65219 0.89097 0.0
N1107 N 0.58971 0.57163 0.90304 0.0
H1108 H 0.16511 0.83358 0.68326 0.0
H1109 H 0.19882 0.92453 0.61042 0.0
H1110 H 0.26664 0.83362 0.66011 0.0
H1111 H 0.09305 0.89884 0.62817 0.0
H1112 H 0.22613 0.91741 0.6334 0.0
H1113 H 0.14378 0.88461 0.66897 0.0
C1114 C 0.18349 0.84534 0.67553 0.0
C1115 C 0.21683 0.82853 0.67224 0.0
C1116 C 0.19687 0.9138 0.63233 0.0
C1117 C 0.19265 0.886 0.65598 0.0
C1118 C 0.18122 0.91735 0.61916 0.0
C1119 C 0.14371 0.91091 0.61729 0.0
C1120 C 0.17515 0.90253 0.64366 0.0
C1121 C 0.12226 0.90282 0.62909 0.0
C1122 C 0.17125 0.87437 0.66738 0.0
C1123 C 0.24008 0.84513 0.6625 0.0
N1124 N 0.13848 0.89802 0.64178 0.0
N1125 N 0.22711 0.87253 0.65437 0.0
H1126 H 0.99069 0.3868 0.42283 0.0
H1127 H 0.86925 0.4558 0.36285 0.0
H1128 H 0.98042 0.49995 0.41076 0.0
H1129 H 0.87942 0.34312 0.37585 0.0
H1130 H 0.88985 0.47517 0.38596 0.0
H1131 H 0.93142 0.37416 0.41242 0.0
C1132 C 0.97573 0.40897 0.41795 0.0
C1133 C 0.99083 0.44394 0.41682 0.0
C1134 C 0.88697 0.4462 0.38385 0.0
C1135 C 0.92386 0.42975 0.40475 0.0
C1136 C 0.87576 0.43512 0.3706 0.0
C1137 C 0.87476 0.39782 0.36727 0.0
C1138 C 0.89815 0.41972 0.3936 0.0
C1139 C 0.88153 0.37219 0.37784 0.0
C1140 C 0.94173 0.40192 0.4122 0.0
C1141 C 0.96998 0.47227 0.41119 0.0
N1142 N 0.89382 0.38365 0.39049 0.0
N1143 N 0.93775 0.46433 0.40493 0.0
H1144 H 0.41173 0.92033 0.39013 0.0
H1145 H 0.26926 0.78089 0.3762 0.0
H1146 H 0.31172 0.92148 0.41437 0.0
H1147 H 0.33051 0.8261 0.34148 0.0
H1148 H 0.27722 0.83821 0.38897 0.0
H1149 H 0.3784 0.89298 0.37057 0.0
C1150 C 0.3827 0.91524 0.39125 0.0
C1151 C 0.36469 0.92164 0.404 0.0
C1152 C 0.28795 0.83605 0.37837 0.0
C1153 C 0.32661 0.89073 0.38185 0.0
C1154 C 0.28366 0.80327 0.37118 0.0
C1155 C 0.30044 0.79873 0.3581 0.0
C1156 C 0.31015 0.86352 0.37253 0.0
C1157 C 0.3181 0.82851 0.35179 0.0
C1158 C 0.36356 0.90016 0.38004 0.0
C1159 C 0.32685 0.91575 0.40483 0.0
N1160 N 0.32356 0.85949 0.35927 0.0
N1161 N 0.30915 0.89963 0.394 0.0
H1162 H 0.84579 0.65396 0.13541 0.0
H1163 H 0.98675 0.50842 0.1123 0.0
H1164 H 0.87362 0.55672 0.15874 0.0
H1165 H 0.96794 0.61266 0.09246 0.0
H1166 H 0.92567 0.51159 0.12281 0.0
H1167 H 0.86897 0.62525 0.11407 0.0
C1168 C 0.85675 0.6265 0.13601 0.0
C1169 C 0.85983 0.60833 0.1489 0.0
C1170 C 0.93449 0.53325 0.11581 0.0
C1171 C 0.88644 0.57557 0.12469 0.0
C1172 C 0.96932 0.53152 0.10992 0.0
C1173 C 0.98258 0.56131 0.10224 0.0
C1174 C 0.91364 0.56517 0.11404 0.0
C1175 C 0.95899 0.59003 0.09895 0.0
C1176 C 0.86945 0.60991 0.12381 0.0
C1177 C 0.87231 0.57217 0.14905 0.0
N1178 N 0.92578 0.59168 0.10514 0.0
N1179 N 0.88619 0.55725 0.13715 0.0
H1180 H 0.26238 0.25004 0.85713 0.0
H1181 H 0.12848 0.1022 0.88616 0.0
H1182 H 0.15186 0.22889 0.84371 0.0
H1183 H 0.22261 0.14445 0.90814 0.0
H1184 H 0.15386 0.12501 0.86414 0.0
H1185 H 0.2633 0.19018 0.86884 0.0
C1186 C 0.23866 0.23237 0.85646 0.0
C1187 C 0.20633 0.24453 0.85021 0.0
C1188 C 0.16931 0.12864 0.87375 0.0
C1189 C 0.20746 0.17682 0.86299 0.0
C1190 C 0.15456 0.11624 0.88631 0.0
C1191 C 0.17257 0.12361 0.89896 0.0
C1192 C 0.20141 0.14964 0.87403 0.0
C1193 C 0.20719 0.13986 0.89859 0.0
C1194 C 0.23931 0.19828 0.86296 0.0
C1195 C 0.17664 0.22079 0.84909 0.0
N1196 N 0.22012 0.15342 0.8863 0.0
N1197 N 0.1777 0.1881 0.85564 0.0
H1198 H 0.58338 0.53297 0.60516 0.0
H1199 H 0.66369 0.36209 0.64117 0.0
H1200 H 0.60015 0.42886 0.58494 0.0
H1201 H 0.63742 0.46471 0.66128 0.0
H1202 H 0.66362 0.39296 0.61845 0.0
H1203 H 0.63103 0.51779 0.62205 0.0
C1204 C 0.59835 0.50764 0.60388 0.0
C1205 C 0.58671 0.48102 0.59434 0.0
C1206 C 0.65824 0.40879 0.62786 0.0
C1207 C 0.63939 0.46298 0.61372 0.0
C1208 C 0.65745 0.39101 0.64079 0.0
C1209 C 0.64905 0.41061 0.65304 0.0
C1210 C 0.64995 0.44625 0.62718 0.0
C1211 C 0.64284 0.44832 0.65202 0.0
C1212 C 0.62533 0.49877 0.6136 0.0
C1213 C 0.60744 0.4492 0.59273 0.0
N1214 N 0.64289 0.4648 0.63929 0.0
N1215 N 0.63208 0.4403 0.60274 0.0
H1216 H 0.11962 0.24817 0.34106 0.0
H1217 H 0.9186 0.2816 0.30785 0.0
H1218 H 0.09149 0.20685 0.30008 0.0
H1219 H 0.96761 0.35388 0.33818 0.0
H1220 H 0.97686 0.24699 0.30672 0.0
H1221 H 0.06042 0.28013 0.34203 0.0
C1222 C 0.10109 0.24571 0.33224 0.0
C1223 C 0.11125 0.22469 0.32043 0.0
C1224 C 0.97477 0.27032 0.31368 0.0
C1225 C 0.04189 0.2611 0.32162 0.0
C1226 C 0.94125 0.29001 0.31441 0.0
C1227 C 0.93768 0.321 0.32315 0.0
C1228 C 1.00504 0.28095 0.32199 0.0
C1229 C 0.96865 0.3304 0.33125 0.0
C1230 C 0.06707 0.26407 0.3328 0.0
C1231 C 0.08541 0.22279 0.30939 0.0
N1232 N 1.00041 0.31061 0.33055 0.0
N1233 N 0.05219 0.24033 0.31029 0.0
H1234 H 0.90169 0.71178 0.57162 0.0
H1235 H 0.10344 0.80074 0.57863 0.0
H1236 H 0.99887 0.6464 0.5757 0.0
H1237 H 1.00717 0.8644 0.56999 0.0
H1238 H 0.06614 0.74487 0.5782 0.0
H1239 H 0.93948 0.76716 0.57158 0.0
C1240 C 0.93106 0.70887 0.57246 0.0
C1241 C 0.94674 0.67372 0.57357 0.0
C1242 C 0.05302 0.77094 0.57637 0.0
C1243 C 0.99103 0.73847 0.57367 0.0
C1244 C 0.07442 0.80316 0.57661 0.0
C1245 C 0.05883 0.83795 0.57429 0.0
C1246 C 1.01513 0.77279 0.57387 0.0
C1247 C 0.02081 0.83859 0.57179 0.0
C1248 C 0.95276 0.74083 0.57245 0.0
C1249 C 0.98521 0.6725 0.57471 0.0
N1250 N 1.00053 0.80685 0.57169 0.0
N1251 N 1.00577 0.7041 0.57477 0.0
H1252 H 0.41254 0.76563 0.82517 0.0
H1253 H 0.63478 0.766 0.82103 0.0
H1254 H 0.47798 0.86358 0.82447 0.0
H1255 H 0.57194 0.66852 0.82897 0.0
H1256 H 0.57748 0.80146 0.82062 0.0
H1257 H 0.46948 0.72905 0.82489 0.0
C1258 C 0.43867 0.77955 0.82486 0.0
C1259 C 0.4399 0.81808 0.8248 0.0
C1260 C 0.57612 0.77227 0.82242 0.0
C1261 C 0.50596 0.77599 0.82446 0.0
C1262 C 0.60907 0.75191 0.82264 0.0
C1263 C 0.60875 0.7139 0.82505 0.0
C1264 C 0.542 0.75479 0.82448 0.0
C1265 C 0.57402 0.69762 0.82706 0.0
C1266 C 0.47137 0.75858 0.82475 0.0
C1267 C 0.4751 0.83414 0.82451 0.0
N1268 N 0.54246 0.71788 0.82669 0.0
N1269 N 0.50621 0.8133 0.82431 0.0
H1270 H 0.51042 0.15 0.07728 0.0
H1271 H 0.50512 0.37181 0.06947 0.0
H1272 H 0.41078 0.2123 0.07528 0.0
H1273 H 0.60421 0.31154 0.07694 0.0
H1274 H 0.47059 0.31377 0.07035 0.0
H1275 H 0.54544 0.20783 0.07598 0.0
C1276 C 0.49578 0.17563 0.07651 0.0
C1277 C 0.45723 0.17563 0.07637 0.0
C1278 C 0.49992 0.31314 0.07177 0.0
C1279 C 0.49764 0.24293 0.07482 0.0
C1280 C 0.51977 0.34652 0.07123 0.0
C1281 C 0.55799 0.34718 0.07309 0.0
C1282 C 0.51811 0.27953 0.07409 0.0
C1283 C 0.57494 0.31293 0.07541 0.0
C1284 C 0.51588 0.20889 0.07579 0.0
C1285 C 0.44028 0.21033 0.07542 0.0
N1286 N 0.55517 0.28099 0.0758 0.0
N1287 N 0.46031 0.24203 0.07466 0.0
H1288 H 0.89512 0.75678 0.1938 0.0
H1289 H 0.11772 0.75831 0.19616 0.0
H1290 H 0.96035 0.65892 0.19229 0.0
H1291 H 0.0522 0.85572 0.19303 0.0
H1292 H 0.06097 0.72144 0.19585 0.0
H1293 H 0.95196 0.79331 0.19461 0.0
C1294 C 0.92123 0.74285 0.19372 0.0
C1295 C 0.9224 0.70439 0.19303 0.0
C1296 C 0.05899 0.75092 0.19527 0.0
C1297 C 0.9885 0.74649 0.19398 0.0
C1298 C 0.09159 0.77207 0.19547 0.0
C1299 C 0.09032 0.81053 0.19467 0.0
C1300 C 0.02438 0.76806 0.19432 0.0
C1301 C 0.0551 0.82633 0.19372 0.0
C1302 C 0.9539 0.76381 0.19415 0.0
C1303 C 0.95759 0.68833 0.19285 0.0
N1304 N 0.02404 0.80533 0.1936 0.0
N1305 N 0.98876 0.70918 0.19335 0.0
H1306 H 0.51675 0.88352 0.44598 0.0
H1307 H 0.52032 0.66127 0.44397 0.0
H1308 H 0.4195 0.81747 0.44371 0.0
H1309 H 0.61641 0.72711 0.43729 0.0
H1310 H 0.48362 0.71767 0.44564 0.0
H1311 H 0.55395 0.82726 0.44457 0.0
C1312 C 0.50308 0.85732 0.44526 0.0
C1313 C 0.46457 0.8558 0.44498 0.0
C1314 C 0.51276 0.7199 0.44383 0.0
C1315 C 0.50753 0.79027 0.44348 0.0
C1316 C 0.53387 0.68746 0.44289 0.0
C1317 C 0.57189 0.68885 0.44046 0.0
C1318 C 0.52946 0.75463 0.44253 0.0
C1319 C 0.58737 0.72416 0.43916 0.0
C1320 C 0.52446 0.82498 0.44443 0.0
C1321 C 0.44891 0.82051 0.44398 0.0
N1322 N 0.56639 0.7552 0.44025 0.0
N1323 N 0.47016 0.78962 0.44334 0.0
H1324 H 0.54277 0.366 0.69365 0.0
H1325 H 0.45564 0.16287 0.69668 0.0
H1326 H 0.6086 0.26926 0.69835 0.0
H1327 H 0.39031 0.26048 0.69421 0.0
H1328 H 0.5111 0.20063 0.69705 0.0
H1329 H 0.48768 0.328 0.69358 0.0
C1330 C 0.54586 0.33669 0.69471 0.0
C1331 C 0.58107 0.32125 0.69608 0.0
C1332 C 0.48475 0.21398 0.69647 0.0
C1333 C 0.51655 0.27663 0.69593 0.0
C1334 C 0.45275 0.19232 0.69626 0.0
C1335 C 0.41761 0.20814 0.69551 0.0
C1336 C 0.48237 0.25236 0.69584 0.0
C1337 C 0.41639 0.24668 0.69492 0.0
C1338 C 0.51403 0.31487 0.69466 0.0
C1339 C 0.58246 0.28281 0.69733 0.0
N1340 N 0.44799 0.2672 0.69507 0.0
N1341 N 0.55096 0.26207 0.69721 0.0
H1342 H 0.0275 0.15541 0.94439 0.0
H1343 H 0.02203 0.37765 0.94867 0.0
H1344 H 0.12363 0.22343 0.94389 0.0
H1345 H 0.92521 0.31194 0.94374 0.0
H1346 H 0.05917 0.32142 0.94817 0.0
H1347 H 0.98942 0.21125 0.94535 0.0
C1348 C 0.04073 0.1819 0.94457 0.0
C1349 C 0.07921 0.18416 0.94411 0.0
C1350 C 0.02977 0.31917 0.94723 0.0
C1351 C 0.03529 0.24906 0.94524 0.0
C1352 C 1.00843 0.3515 0.94754 0.0
C1353 C 0.97008 0.35008 0.94629 0.0
C1354 C 1.01302 0.28451 0.94572 0.0
C1355 C 0.95451 0.31486 0.94478 0.0
C1356 C 0.01887 0.21399 0.94508 0.0
C1357 C 0.09429 0.21979 0.94426 0.0
N1358 N 0.97576 0.2839 0.94457 0.0
N1359 N 0.0726 0.25033 0.94484 0.0
H1360 H 0.09126 0.7004 0.71449 0.0
H1361 H 0.972 0.86182 0.68007 0.0
H1362 H 0.12417 0.75711 0.67686 0.0
H1363 H 0.92117 0.77941 0.70585 0.0
H1364 H 0.02933 0.82735 0.68066 0.0
H1365 H 0.03167 0.73189 0.71353 0.0
C1366 C 0.08619 0.71957 0.70605 0.0
C1367 C 0.11337 0.72587 0.69575 0.0
C1368 C 1.00574 0.81653 0.68617 0.0
C1369 C 0.04438 0.7628 0.69468 0.0
C1370 C 0.97272 0.83632 0.68585 0.0
C1371 C 0.94107 0.82375 0.69285 0.0
C1372 C 1.00828 0.78377 0.69386 0.0
C1373 C 0.9444 0.79031 0.70017 0.0
C1374 C 0.05187 0.73747 0.70547 0.0
C1375 C 0.1045 0.75111 0.68507 0.0
N1376 N 0.97726 0.77186 0.7006 0.0
N1377 N 0.07131 0.76864 0.6849 0.0
H1378 H 0.91996 0.22202 0.4415 0.0
H1379 H 0.12175 0.30979 0.45054 0.0
H1380 H 0.01641 0.15581 0.44615 0.0
H1381 H 0.02371 0.37462 0.44917 0.0
H1382 H 0.08456 0.25407 0.44865 0.0
H1383 H 0.95743 0.27714 0.44388 0.0
C1384 C 0.9491 0.21881 0.44305 0.0
C1385 C 0.96455 0.18342 0.44365 0.0
C1386 C 0.07099 0.28035 0.4488 0.0
C1387 C 1.00866 0.24816 0.44637 0.0
C1388 C 0.09233 0.31252 0.4499 0.0
C1389 C 0.07626 0.34764 0.45013 0.0
C1390 C 0.03265 0.2825 0.44778 0.0
C1391 C 0.03774 0.34859 0.44916 0.0
C1392 C 0.97063 0.2507 0.44442 0.0
C1393 C 1.0028 0.18202 0.44564 0.0
N1394 N 0.01756 0.31686 0.44801 0.0
N1395 N 0.02327 0.21359 0.44689 0.0
H1396 H 0.57496 0.16169 0.19794 0.0
H1397 H 0.48879 0.36493 0.19328 0.0
H1398 H 0.64071 0.25913 0.19525 0.0
H1399 H 0.42223 0.26847 0.19784 0.0
H1400 H 0.5437 0.32679 0.1938 0.0
H1401 H 0.51959 0.19954 0.19775 0.0
C1402 C 0.57795 0.19111 0.19735 0.0
C1403 C 0.61319 0.20686 0.1967 0.0
C1404 C 0.51723 0.31375 0.19472 0.0
C1405 C 0.54855 0.25118 0.19638 0.0
C1406 C 0.48549 0.33565 0.19443 0.0
C1407 C 0.45013 0.32034 0.19557 0.0
C1408 C 0.51446 0.27554 0.19612 0.0
C1409 C 0.44849 0.28193 0.19697 0.0
C1410 C 0.54601 0.21282 0.19723 0.0
C1411 C 0.61455 0.24538 0.19588 0.0
N1412 N 0.4799 0.26111 0.19718 0.0
N1413 N 0.58302 0.26594 0.19572 0.0
H1414 H 0.60882 0.80784 0.94468 0.0
H1415 H 0.40392 0.72475 0.9416 0.0
H1416 H 0.51303 0.87571 0.94768 0.0
H1417 H 0.50006 0.65739 0.94426 0.0
H1418 H 0.44263 0.77955 0.94307 0.0
H1419 H 0.56969 0.75354 0.94384 0.0
C1420 C 0.57949 0.81157 0.94521 0.0
C1421 C 0.56471 0.84716 0.94632 0.0
C1422 C 0.45543 0.7529 0.94337 0.0
C1423 C 0.51869 0.78348 0.9452 0.0
C1424 C 0.43321 0.72127 0.94252 0.0
C1425 C 0.44831 0.68572 0.94286 0.0
C1426 C 0.49369 0.74975 0.94446 0.0
C1427 C 0.48674 0.68378 0.94402 0.0
C1428 C 0.557 0.78017 0.94472 0.0
C1429 C 0.52616 0.84931 0.94688 0.0
N1430 N 0.50781 0.715 0.94472 0.0
N1431 N 0.50477 0.81824 0.94627 0.0
H1432 H 0.10977 0.27636 0.81911 0.0
H1433 H 0.88725 0.26702 0.8222 0.0
H1434 H 0.04116 0.37193 0.81963 0.0
H1435 H 0.95647 0.17225 0.82543 0.0
H1436 H 0.9426 0.30565 0.82037 0.0
H1437 H 0.05431 0.23782 0.82047 0.0
C1438 C 0.08321 0.28937 0.81941 0.0
C1439 C 0.08071 0.32783 0.81917 0.0
C1440 C 0.94572 0.27637 0.82144 0.0
C1441 C 0.01613 0.28333 0.82078 0.0
C1442 C 0.91389 0.25418 0.82248 0.0
C1443 C 0.91659 0.21592 0.82394 0.0
C1444 C 0.98102 0.26052 0.8218 0.0
C1445 C 0.95245 0.20141 0.82429 0.0
C1446 C 0.05132 0.26725 0.82024 0.0
C1447 C 0.04498 0.3426 0.81973 0.0
N1448 N 0.98275 0.22339 0.82321 0.0
N1449 N 1.01458 0.32064 0.82047 0.0
H1450 H 0.53042 0.38402 0.57136 0.0
H1451 H 0.52433 0.16191 0.57688 0.0
H1452 H 0.43193 0.32377 0.58035 0.0
H1453 H 0.62411 0.22418 0.57442 0.0
H1454 H 0.48953 0.2199 0.57668 0.0
H1455 H 0.56451 0.32578 0.57096 0.0
C1456 C 0.51581 0.35869 0.57319 0.0
C1457 C 0.47792 0.35938 0.57588 0.0
C1458 C 0.51907 0.22089 0.57614 0.0
C1459 C 0.51722 0.29158 0.57536 0.0
C1460 C 0.53903 0.18757 0.57622 0.0
C1461 C 0.57754 0.18755 0.57564 0.0
C1462 C 0.53745 0.25493 0.57536 0.0
C1463 C 0.59462 0.22225 0.57487 0.0
C1464 C 0.53539 0.32521 0.57298 0.0
C1465 C 0.46096 0.3251 0.57821 0.0
N1466 N 0.57473 0.25401 0.57472 0.0
N1467 N 0.48046 0.29306 0.57787 0.0
H1468 H 0.6263 0.76214 0.32143 0.0
H1469 H 0.40439 0.76509 0.32833 0.0
H1470 H 0.56579 0.86025 0.33057 0.0
H1471 H 0.46833 0.66635 0.32695 0.0
H1472 H 0.46184 0.80097 0.32747 0.0
H1473 H 0.56846 0.72742 0.32173 0.0
C1474 C 0.601 0.77654 0.32346 0.0
C1475 C 0.60155 0.81452 0.32599 0.0
C1476 C 0.46329 0.77142 0.32731 0.0
C1477 C 0.53405 0.77442 0.32623 0.0
C1478 C 0.43027 0.75083 0.32776 0.0
C1479 C 0.43087 0.71227 0.32768 0.0
C1480 C 0.49763 0.75363 0.32664 0.0
C1481 C 0.46587 0.69583 0.32703 0.0
C1482 C 0.56771 0.75658 0.32364 0.0
C1483 C 0.56724 0.83117 0.32855 0.0
N1484 N 0.49727 0.7163 0.32649 0.0
N1485 N 0.53534 0.81129 0.32856 0.0
H1486 H 0.92891 0.81535 0.06477 0.0
H1487 H 0.09561 0.69798 0.09307 0.0
H1488 H 0.02422 0.87091 0.08046 0.0
H1489 H 0.04585 0.66893 0.05363 0.0
H1490 H 0.06303 0.75705 0.09245 0.0
H1491 H 0.96391 0.75788 0.06413 0.0
C1492 C 0.95722 0.81569 0.06807 0.0
C1493 C 0.97335 0.84874 0.0726 0.0
C1494 C 0.05922 0.73778 0.08392 0.0
C1495 C 1.01367 0.78168 0.07239 0.0
C1496 C 0.07773 0.70382 0.08429 0.0
C1497 C 0.07382 0.67802 0.07335 0.0
C1498 C 0.03525 0.74602 0.07279 0.0
C1499 C 0.05008 0.68771 0.06228 0.0
C1500 C 0.97724 0.78266 0.06768 0.0
C1501 C 1.01031 0.84669 0.0768 0.0
N1502 N 0.03146 0.72037 0.06239 0.0
N1503 N 0.02884 0.81395 0.07681 0.0
H1504 H 0.25621 0.28063 0.30198 0.0
H1505 H 0.30718 0.2593 0.22007 0.0
H1506 H 0.26442 0.17677 0.28071 0.0
H1507 H 0.30848 0.36286 0.24181 0.0
H1508 H 0.29032 0.22906 0.24208 0.0
H1509 H 0.27473 0.31138 0.28018 0.0
C1510 C 0.26215 0.26421 0.29277 0.0
C1511 C 0.25877 0.22593 0.29326 0.0
C1512 C 0.29425 0.2584 0.24207 0.0
C1513 C 0.2797 0.26119 0.2681 0.0
C1514 C 0.30382 0.27578 0.22946 0.0
C1515 C 0.30928 0.31382 0.22901 0.0
C1516 C 0.28993 0.27905 0.25445 0.0
C1517 C 0.30454 0.33353 0.24159 0.0
C1518 C 0.27266 0.28185 0.28029 0.0
C1519 C 0.26673 0.20626 0.28091 0.0
N1520 N 0.29515 0.31598 0.25375 0.0
N1521 N 0.27663 0.22406 0.26889 0.0
H1522 H 1.01188 1.00637 0.46471 0.0
H1523 H 1.00956 1.01524 0.54913 0.0
H1524 H 0.92477 0.05529 0.4889 0.0
H1525 H 0.0921 0.95776 0.52536 0.0
H1526 H 0.97941 0.0318 0.52712 0.0
H1527 H 0.04213 0.989 0.48666 0.0
C1528 C 0.99891 1.01322 0.47462 0.0
C1529 C 0.9656 0.03233 0.47489 0.0
C1530 C 1.00417 1.01564 0.52669 0.0
C1531 C 1.0005 1.01284 0.50016 0.0
C1532 C 0.02156 1.0063 0.53928 0.0
C1533 C 0.05354 0.98505 0.53916 0.0
C1534 C 0.01877 1.00379 0.51378 0.0
C1535 C 0.06756 0.97418 0.52602 0.0
C1536 C 0.01632 1.00338 0.48717 0.0
C1537 C 0.95032 0.04054 0.48811 0.0
N1538 N 0.05011 0.98362 0.5139 0.0
N1539 N 0.96792 0.03091 0.50016 0.0
H1540 H 0.30992 0.86121 0.77837 0.0
H1541 H 0.24786 0.67761 0.73846 0.0
H1542 H 0.28847 0.75931 0.79972 0.0
H1543 H 0.27656 0.77779 0.71714 0.0
H1544 H 0.26275 0.70669 0.76096 0.0
H1545 H 0.29674 0.83127 0.75592 0.0
C1546 C 0.30221 0.83261 0.77837 0.0
C1547 C 0.30029 0.81285 0.79103 0.0
C1548 C 0.266 0.72224 0.75135 0.0
C1549 C 0.28537 0.77815 0.76521 0.0
C1550 C 0.25766 0.70556 0.73846 0.0
C1551 C 0.26097 0.72516 0.7258 0.0
C1552 C 0.27761 0.75892 0.75165 0.0
C1553 C 0.27361 0.76145 0.72656 0.0
C1554 C 0.29484 0.81544 0.76551 0.0
C1555 C 0.29029 0.77574 0.79028 0.0
N1556 N 0.28126 0.77712 0.73922 0.0
N1557 N 0.28325 0.75966 0.77764 0.0
H1558 H 0.52584 0.02639 0.05569 0.0
H1559 H 0.51295 1.01196 0.97143 0.0
H1560 H 0.42571 0.03673 0.03217 0.0
H1561 H 0.6086 0.97773 0.99436 0.0
H1562 H 0.48291 0.02661 0.99368 0.0
H1563 H 0.55842 1.01279 0.03361 0.0
C1564 C 0.51064 0.02563 0.04593 0.0
C1565 C 0.47283 0.03262 0.04588 0.0
C1566 C 0.51052 1.01602 0.99388 0.0
C1567 C 0.51016 0.0176 0.02048 0.0
C1568 C 0.52787 1.0078 0.98112 0.0
C1569 C 0.56351 0.9935 0.98091 0.0
C1570 C 0.5288 1.01018 1.00669 0.0
C1571 C 0.58116 0.98868 0.99394 0.0
C1572 C 0.5293 0.01792 0.03331 0.0
C1573 C 0.45474 0.0314 0.03284 0.0
N1574 N 0.56366 0.99695 1.00626 0.0
N1575 N 0.47351 0.02426 0.02075 0.0
H1576 H 0.25331 0.76172 0.30482 0.0
H1577 H 0.26575 0.76329 0.22026 0.0
H1578 H 0.30584 0.67711 0.28049 0.0
H1579 H 0.21044 0.84682 0.24423 0.0
H1580 H 0.28134 0.73213 0.2422 0.0
H1581 H 0.23725 0.79313 0.28292 0.0
C1582 C 0.26125 0.7495 0.29489 0.0
C1583 C 0.28096 0.71649 0.29461 0.0
C1584 C 0.2659 0.75733 0.2427 0.0
C1585 C 0.26287 0.75285 0.26931 0.0
C1586 C 0.25706 0.77533 0.23012 0.0
C1587 C 0.23673 0.80796 0.23028 0.0
C1588 C 0.25439 0.77185 0.25567 0.0
C1589 C 0.22621 0.82187 0.2435 0.0
C1590 C 0.25215 0.76762 0.28235 0.0
C1591 C 0.29057 0.70234 0.28133 0.0
N1592 N 0.23507 0.80379 0.2556 0.0
N1593 N 0.28156 0.72056 0.2693 0.0
H1594 H 0.51009 0.04086 0.55218 0.0
H1595 H 0.52765 1.01565 0.46823 0.0
H1596 H 0.61192 0.04989 0.52949 0.0
H1597 H 0.42765 0.99719 0.4913 0.0
H1598 H 0.55817 0.03138 0.49036 0.0
H1599 H 0.47894 0.02702 0.52997 0.0
C1600 C 0.52598 0.03979 0.54257 0.0
C1601 C 0.56381 0.04648 0.5428 0.0
C1602 C 0.5295 0.02405 0.49058 0.0
C1603 C 0.52809 0.03093 0.51717 0.0
C1604 C 0.51195 1.01524 0.4779 0.0
C1605 C 0.47489 1.00505 0.4778 0.0
C1606 C 0.50996 0.02282 0.50336 0.0
C1607 C 0.4562 1.00484 0.49077 0.0
C1608 C 0.50812 0.03195 0.52985 0.0
C1609 C 0.58279 0.04482 0.52991 0.0
N1610 N 0.47387 1.01347 0.50295 0.0
N1611 N 0.56479 0.03733 0.51769 0.0
H1612 H 0.26886 0.27847 0.71211 0.0
H1613 H 0.22802 0.26648 0.7952 0.0
H1614 H 0.26251 0.17787 0.73566 0.0
H1615 H 0.21938 0.36751 0.77206 0.0
H1616 H 0.24317 0.23473 0.7734 0.0
H1617 H 0.25218 0.31232 0.73358 0.0
C1618 C 0.26363 0.26342 0.72172 0.0
C1619 C 0.26708 0.2251 0.72197 0.0
C1620 C 0.23804 0.26386 0.77303 0.0
C1621 C 0.24847 0.26387 0.74671 0.0
C1622 C 0.22949 0.28215 0.78555 0.0
C1623 C 0.22237 0.31991 0.78558 0.0
C1624 C 0.23973 0.28323 0.76026 0.0
C1625 C 0.22468 0.33845 0.77262 0.0
C1626 C 0.25424 0.28282 0.734 0.0
C1627 C 0.26018 0.20729 0.73483 0.0
N1628 N 0.23314 0.31998 0.76052 0.0
N1629 N 0.25146 0.22672 0.74659 0.0
H1630 H 0.12067 0.05121 0.98833 0.0
H1631 H 0.93846 0.97658 0.02582 0.0
H1632 H 0.02147 0.02601 0.96583 0.0
H1633 H 0.03129 0.01847 0.04868 0.0
H1634 H 0.96925 0.99203 1.00373 0.0
H1635 H 0.08973 0.03582 0.01041 0.0
C1636 C 0.09249 0.04214 0.98799 0.0
C1637 C 0.07373 0.03991 0.97513 0.0
C1638 C 0.98283 0.99801 0.01357 0.0
C1639 C 0.03795 0.02242 1.0005 0.0
C1640 C 0.96521 0.98925 0.02622 0.0
C1641 C 0.98221 0.99626 0.03919 0.0
C1642 C 0.01795 1.01364 0.01381 0.0
C1643 C 0.01698 1.01269 0.03897 0.0
C1644 C 0.07475 0.03356 1.00064 0.0
C1645 C 0.03712 0.02817 0.97544 0.0
N1646 N 0.03372 0.02061 0.02652 0.0
N1647 N 0.0205 0.0199 0.98788 0.0
H1648 H 0.73763 0.67734 0.77824 0.0
H1649 H 0.81217 0.8601 0.74097 0.0
H1650 H 0.78073 0.76975 0.80105 0.0
H1651 H 0.78835 0.76115 0.71804 0.0
H1652 H 0.79763 0.82833 0.76295 0.0
H1653 H 0.75365 0.7079 0.75609 0.0
C1654 C 0.75071 0.7039 0.77863 0.0
C1655 C 0.75787 0.72084 0.79162 0.0
C1656 C 0.79554 0.81352 0.75312 0.0
C1657 C 0.77586 0.75637 0.76617 0.0
C1658 C 0.80371 0.83173 0.74052 0.0
C1659 C 0.8015 0.81339 0.72755 0.0
C1660 C 0.78476 0.77658 0.75285 0.0
C1661 C 0.79048 0.7765 0.72774 0.0
C1662 C 0.75979 0.7214 0.76594 0.0
C1663 C 0.77477 0.75542 0.79136 0.0
N1664 N 0.78248 0.75942 0.74014 0.0
N1665 N 0.78293 0.77202 0.7789 0.0
H1666 H 0.76865 0.27528 0.29685 0.0
H1667 H 0.76391 0.27905 0.21282 0.0
H1668 H 0.81585 0.36539 0.2738 0.0
H1669 H 0.75856 0.18068 0.23779 0.0
H1670 H 0.77696 0.31416 0.23438 0.0
H1671 H 0.75673 0.24401 0.27475 0.0
C1672 C 0.77621 0.2888 0.28714 0.0
C1673 C 0.79342 0.32317 0.28729 0.0
C1674 C 0.77317 0.28485 0.23506 0.0
C1675 C 0.77983 0.28692 0.26168 0.0
C1676 C 0.76581 0.26476 0.22276 0.0
C1677 C 0.76016 0.22673 0.22341 0.0
C1678 C 0.7742 0.26689 0.24814 0.0
C1679 C 0.76278 0.20983 0.23666 0.0
C1680 C 0.76959 0.27068 0.27447 0.0
C1681 C 0.80256 0.33897 0.27423 0.0
N1682 N 0.76923 0.22998 0.24842 0.0
N1683 N 0.79564 0.32076 0.26195 0.0
H1684 H 0.70419 0.35582 0.74415 0.0
H1685 H 0.78873 0.17451 0.77911 0.0
H1686 H 0.74997 0.26693 0.72004 0.0
H1687 H 0.7427 0.26343 0.80314 0.0
H1688 H 0.77372 0.20724 0.75742 0.0
H1689 H 0.71826 0.32253 0.7658 0.0
C1690 C 0.71746 0.32944 0.74338 0.0
C1691 C 0.72592 0.31432 0.73016 0.0
C1692 C 0.7667 0.21953 0.76743 0.0
C1693 C 0.74183 0.27563 0.75507 0.0
C1694 C 0.7751 0.20071 0.77986 0.0
C1695 C 0.76695 0.21607 0.79307 0.0
C1696 C 0.75005 0.25414 0.76811 0.0
C1697 C 0.74946 0.25032 0.79326 0.0
C1698 C 0.72536 0.31032 0.75578 0.0
C1699 C 0.74299 0.27985 0.72993 0.0
N1700 N 0.74177 0.26816 0.78103 0.0
N1701 N 0.75026 0.26173 0.74214 0.0
H1702 H 0.77898 0.764 0.29884 0.0
H1703 H 0.78286 0.66517 0.23695 0.0
H1704 H 0.71557 0.84391 0.27618 0.0
H1705 H 0.77121 0.76874 0.21576 0.0
H1706 H 0.77048 0.69536 0.2593 0.0
H1707 H 0.79156 0.7325 0.27682 0.0
C1708 C 0.76763 0.77504 0.28922 0.0
C1709 C 0.74589 0.80671 0.2895 0.0
C1710 C 0.77105 0.71174 0.24984 0.0
C1711 C 0.75943 0.7696 0.26394 0.0
C1712 C 0.77767 0.69432 0.23696 0.0
C1713 C 0.77838 0.71433 0.22435 0.0
C1714 C 0.76513 0.74976 0.25028 0.0
C1715 C 0.77112 0.75211 0.22517 0.0
C1716 C 0.77447 0.75661 0.27659 0.0
C1717 C 0.73234 0.81957 0.27655 0.0
N1718 N 0.7648 0.76854 0.23788 0.0
N1719 N 0.73933 0.80103 0.26433 0.0
H1720 H 0.50563 0.52296 0.04657 0.0
H1721 H 0.50405 0.51345 0.9622 0.0
H1722 H 0.58818 0.46525 0.02289 0.0
H1723 H 0.41417 0.55286 0.98744 0.0
H1724 H 0.53685 0.49746 0.98387 0.0
H1725 H 0.4742 0.53726 0.02467 0.0
C1726 C 0.5174 0.51349 0.03675 0.0
C1727 C 0.54975 0.49282 0.03665 0.0
C1728 C 0.50986 0.5094 0.98464 0.0
C1729 C 0.5134 0.50905 0.01132 0.0
C1730 C 0.49102 0.51843 0.97226 0.0
C1731 C 0.45617 0.53453 0.97292 0.0
C1732 C 0.49392 0.51681 0.99782 0.0
C1733 C 0.44088 0.5405 0.98632 0.0
C1734 C 0.49923 0.52153 0.02421 0.0
C1735 C 0.56338 0.48127 0.02353 0.0
N1736 N 0.45987 0.53186 0.99815 0.0
N1737 N 0.54517 0.48953 0.01141 0.0
H1738 H 0.01694 0.53124 0.55495 0.0
H1739 H 1.00522 0.4909 0.47174 0.0
H1740 H 0.91566 0.52183 0.53209 0.0
H1741 H 0.10688 0.4957 0.49457 0.0
H1742 H 0.97224 0.50352 0.49367 0.0
H1743 H 0.05048 0.51828 0.53311 0.0
C1744 C 1.00169 0.52608 0.5454 0.0
C1745 C 0.96329 0.52757 0.54547 0.0
C1746 C 1.00178 0.50196 0.49389 0.0
C1747 C 1.0017 0.51318 0.52024 0.0
C1748 C 0.0207 0.49493 0.48131 0.0
C1749 C 0.05903 0.49227 0.4812 0.0
C1750 C 0.02116 0.50641 0.50656 0.0
C1751 C 0.07739 0.49755 0.49405 0.0
C1752 C 0.0209 0.51886 0.53289 0.0
C1753 C 0.94519 0.52091 0.53265 0.0
N1754 N 0.05837 0.50427 0.50615 0.0
N1755 N 0.96446 0.51418 0.52064 0.0
H1756 H 0.11899 0.54061 0.03163 0.0
H1757 H 0.93231 0.48071 0.99394 0.0
H1758 H 0.01705 0.52709 0.05394 0.0
H1759 H 0.02845 0.51476 0.97106 0.0
H1760 H 0.96351 0.49476 0.01602 0.0
H1761 H 0.08742 0.52726 0.00955 0.0
C1762 C 0.09003 0.53447 0.03194 0.0
C1763 C 0.07076 0.53491 0.04476 0.0
C1764 C 0.97776 0.49938 1.00618 0.0
C1765 C 0.03422 0.51981 0.01933 0.0
C1766 C 0.95991 0.49142 0.99353 0.0
C1767 C 0.97768 0.49661 0.98055 0.0
C1768 C 1.01394 0.5123 1.00597 0.0
C1769 C 1.01352 0.51051 0.98077 0.0
C1770 C 0.07195 0.52709 0.01927 0.0
C1771 C 0.03314 0.527 0.04438 0.0
N1772 N 0.0305 0.51761 0.99325 0.0
N1773 N 0.01619 0.51978 0.03191 0.0
H1774 H 0.52462 0.53973 0.54911 0.0
H1775 H 0.52407 0.51073 0.46532 0.0
H1776 H 0.44467 0.47331 0.52768 0.0
H1777 H 0.60578 0.57309 0.48755 0.0
H1778 H 0.49434 0.49681 0.48782 0.0
H1779 H 0.55344 0.5533 0.52652 0.0
C1780 C 0.51286 0.52819 0.53965 0.0
C1781 C 0.48203 0.5053 0.54038 0.0
C1782 C 0.51886 0.51341 0.48778 0.0
C1783 C 0.51542 0.52057 0.51429 0.0
C1784 C 0.53599 0.52126 0.47492 0.0
C1785 C 0.56763 0.54311 0.47447 0.0
C1786 C 0.5333 0.52756 0.50036 0.0
C1787 C 0.58155 0.5561 0.48731 0.0
C1788 C 0.52952 0.53585 0.52672 0.0
C1789 C 0.46829 0.49114 0.52768 0.0
N1790 N 0.56429 0.54824 0.49966 0.0
N1791 N 0.4851 0.49891 0.5152 0.0
H1792 H 0.24898 0.0842 0.35571 0.0
H1793 H 0.42725 0.0776 0.40631 0.0
H1794 H 0.34022 0.1581 0.35221 0.0
H1795 H 0.33501 1.00642 0.41283 0.0
H1796 H 0.39514 0.10652 0.38671 0.0
H1797 H 0.2791 0.05457 0.3759 0.0
C1798 C 0.27559 0.09403 0.35898 0.0
C1799 C 0.29191 0.12389 0.35187 0.0
C1800 C 0.38154 0.08484 0.39243 0.0
C1801 C 0.32691 0.08972 0.3756 0.0
C1802 C 0.39991 0.06826 0.40382 0.0
C1803 C 0.38407 0.03949 0.41166 0.0
C1804 C 0.34654 0.07276 0.38835 0.0
C1805 C 0.34851 0.02875 0.40747 0.0
C1806 C 0.29273 0.07709 0.37069 0.0
C1807 C 0.32631 0.13521 0.35705 0.0
N1808 N 0.33126 0.0451 0.39618 0.0
N1809 N 0.34232 0.11834 0.36841 0.0
H1810 H 0.27637 0.07421 0.66015 0.0
H1811 H 0.09839 0.05717 0.61026 0.0
H1812 H 0.19069 0.15474 0.65901 0.0
H1813 H 0.19335 0.99009 0.60378 0.0
H1814 H 0.13148 0.09179 0.62827 0.0
H1815 H 0.24626 0.04129 0.64068 0.0
C1816 C 0.25099 0.08487 0.656 0.0
C1817 C 0.23618 0.11755 0.66156 0.0
C1818 C 0.14554 0.06993 0.62282 0.0
C1819 C 0.20119 0.07946 0.63878 0.0
C1820 C 0.12667 0.05027 0.6123 0.0
C1821 C 0.14308 0.02099 0.60497 0.0
C1822 C 0.18137 0.06006 0.62665 0.0
C1823 C 0.17956 1.01287 0.60872 0.0
C1824 C 0.2339 0.06607 0.6447 0.0
C1825 C 0.20335 0.12976 0.65533 0.0
N1826 N 0.19716 0.03187 0.61928 0.0
N1827 N 0.18718 0.11088 0.64448 0.0
H1828 H 0.21135 0.03842 0.91074 0.0
H1829 H 0.20767 0.87184 0.85425 0.0
H1830 H 0.12732 0.95592 0.91005 0.0
H1831 H 0.29539 0.95018 0.85648 0.0
H1832 H 0.17734 0.90307 0.87401 0.0
H1833 H 0.24194 1.00737 0.89098 0.0
C1834 C 0.19941 1.01355 0.90661 0.0
C1835 C 0.1665 0.99995 0.91239 0.0
C1836 C 0.20313 0.91366 0.87017 0.0
C1837 C 0.2017 0.96396 0.88917 0.0
C1838 C 0.2205 0.89584 0.85873 0.0
C1839 C 0.25438 0.90818 0.85339 0.0
C1840 C 0.21937 0.94447 0.87658 0.0
C1841 C 0.26936 0.93946 0.86 0.0
C1842 C 0.21693 0.99583 0.89517 0.0
C1843 C 0.1526 0.96764 0.9062 0.0
N1844 N 0.25198 0.95623 0.87111 0.0
N1845 N 0.17 0.95108 0.89505 0.0
H1846 H 0.32419 0.86884 0.16752 0.0
H1847 H 0.31816 0.02809 0.10793 0.0
H1848 H 0.23436 0.94407 0.16367 0.0
H1849 H 0.40216 0.9459 0.10976 0.0
H1850 H 0.2878 0.9991 0.12826 0.0
H1851 H 0.35371 0.89804 0.14714 0.0
C1852 C 0.3107 0.89178 0.16256 0.0
C1853 C 0.27648 0.90382 0.16769 0.0
C1854 C 0.31274 0.98716 0.12419 0.0
C1855 C 0.31068 0.93783 0.1437 0.0
C1856 C 0.33013 1.00368 0.11242 0.0
C1857 C 0.36297 0.98955 0.10675 0.0
C1858 C 0.32807 0.95603 0.1307 0.0
C1859 C 0.37692 0.95798 0.11346 0.0
C1860 C 0.32764 0.90843 0.15075 0.0
C1861 C 0.26072 0.93367 0.1604 0.0
N1862 N 0.3597 0.94265 0.12493 0.0
N1863 N 0.27773 0.94938 0.14895 0.0
H1864 H 0.79656 0.96019 0.66284 0.0
H1865 H 0.63176 0.95499 0.6057 0.0
H1866 H 0.70941 0.88107 0.66408 0.0
H1867 H 0.71252 0.04065 0.60676 0.0
H1868 H 0.66107 0.92656 0.62624 0.0
H1869 H 0.76762 0.98891 0.64226 0.0
C1870 C 0.77109 0.94898 0.65896 0.0
C1871 C 0.75557 0.918 0.66557 0.0
C1872 C 0.67264 0.95144 0.62197 0.0
C1873 C 0.72195 0.95105 0.64136 0.0
C1874 C 0.65594 0.96773 0.61007 0.0
C1875 C 0.66951 1.00046 0.60413 0.0
C1876 C 0.70363 0.96759 0.62827 0.0
C1877 C 0.7009 1.01539 0.61068 0.0
C1878 C 0.75456 0.96544 0.64706 0.0
C1879 C 0.72259 0.90493 0.65965 0.0
N1880 N 0.71662 0.99905 0.62223 0.0
N1881 N 0.70722 0.92124 0.64802 0.0
H1882 H 0.89713 0.94495 0.4186 0.0
H1883 H 0.76163 0.94381 0.35068 0.0
H1884 H 0.83789 0.04105 0.40598 0.0
H1885 H 0.80716 0.84729 0.36963 0.0
H1886 H 0.79222 0.98123 0.36904 0.0
H1887 H 0.86718 0.91045 0.39966 0.0
C1888 C 0.8776 0.95891 0.41196 0.0
C1889 C 0.87015 0.99628 0.41425 0.0
C1890 C 0.79589 0.95187 0.36907 0.0
C1891 C 0.83555 0.95629 0.3918 0.0
C1892 C 0.77871 0.93041 0.3584 0.0
C1893 C 0.78204 0.89192 0.35823 0.0
C1894 C 0.81702 0.93506 0.37975 0.0
C1895 C 0.8038 0.87664 0.36902 0.0
C1896 C 0.86046 0.93906 0.401 0.0
C1897 C 0.84456 1.01237 0.40493 0.0
N1898 N 0.8202 0.89788 0.3791 0.0
N1899 N 0.82855 0.99257 0.39422 0.0
H1900 H 0.84152 0.99776 0.10319 0.0
H1901 H 0.84364 0.15504 0.16371 0.0
H1902 H 0.93506 0.0642 0.11306 0.0
H1903 H 0.75478 0.07847 0.15982 0.0
H1904 H 0.87506 0.12434 0.14417 0.0
H1905 H 0.80681 0.02946 0.12199 0.0
C1906 C 0.85448 0.01984 0.1089 0.0
C1907 C 0.89131 0.02883 0.10603 0.0
C1908 C 0.84878 0.11395 0.14757 0.0
C1909 C 0.85166 0.06486 0.12823 0.0
C1910 C 0.83075 0.13151 0.15889 0.0
C1911 C 0.79637 0.11945 0.16379 0.0
C1912 C 0.83254 0.08391 0.14064 0.0
C1913 C 0.78133 0.08881 0.15673 0.0
C1914 C 0.83474 0.03761 0.11988 0.0
C1915 C 0.90667 0.05668 0.11448 0.0
N1916 N 0.79924 0.07243 0.1456 0.0
N1917 N 0.88706 0.07344 0.12498 0.0
H1918 H 0.61701 0.07869 0.91739 0.0
H1919 H 0.77682 0.07904 0.85775 0.0
H1920 H 0.69582 0.99193 0.91358 0.0
H1921 H 0.69056 0.15889 0.85933 0.0
H1922 H 0.74922 0.0478 0.87816 0.0
H1923 H 0.64506 0.10915 0.89698 0.0
C1924 C 0.64048 0.06605 0.91243 0.0
C1925 C 0.65383 0.03237 0.91759 0.0
C1926 C 0.73609 0.07202 0.87403 0.0
C1927 C 0.68661 0.06779 0.89354 0.0
C1928 C 0.75185 0.08995 0.86222 0.0
C1929 C 0.73617 0.1219 0.85642 0.0
C1930 C 0.70415 0.08587 0.88049 0.0
C1931 C 0.70388 0.1344 0.86311 0.0
C1932 C 0.65649 0.08355 0.9006 0.0
C1933 C 0.68435 0.01779 0.91029 0.0
N1934 N 0.68931 0.11668 0.87463 0.0
N1935 N 0.69943 0.03535 0.89881 0.0
H1936 H 0.80222 0.5939 0.84567 0.0
H1937 H 0.85653 0.55909 0.92808 0.0
H1938 H 0.76819 0.66418 0.87962 0.0
H1939 H 0.89873 0.49515 0.89364 0.0
H1940 H 0.82052 0.59517 0.91088 0.0
H1941 H 0.83454 0.55521 0.86308 0.0
C1942 C 0.8014 0.60137 0.85669 0.0
C1943 C 0.78239 0.63305 0.86092 0.0
C1944 C 0.83755 0.57306 0.9071 0.0
C1945 C 0.81951 0.58811 0.88126 0.0
C1946 C 0.85802 0.55219 0.91702 0.0
C1947 C 0.88123 0.52372 0.91251 0.0
C1948 C 0.83976 0.56553 0.89245 0.0
C1949 C 0.88174 0.51682 0.89782 0.0
C1950 C 0.81996 0.57915 0.86672 0.0
C1951 C 0.78257 0.64055 0.87558 0.0
N1952 N 0.86176 0.53723 0.8885 0.0
N1953 N 0.80051 0.61866 0.88503 0.0
H1954 H 0.59588 0.56627 0.10964 0.0
H1955 H 0.77764 0.57738 0.15796 0.0
H1956 H 0.68899 0.49732 0.10211 0.0
H1957 H 0.69 0.65564 0.1602 0.0
H1958 H 0.74618 0.54687 0.13827 0.0
H1959 H 0.63015 0.59859 0.12797 0.0
C1960 C 0.62402 0.55851 0.11151 0.0
C1961 C 0.63958 0.52951 0.10375 0.0
C1962 C 0.73367 0.57061 0.14308 0.0
C1963 C 0.67932 0.56597 0.12575 0.0
C1964 C 0.7516 0.58808 0.15449 0.0
C1965 C 0.73667 0.6194 0.16109 0.0
C1966 C 0.7 0.58402 0.13802 0.0
C1967 C 0.70285 0.63167 0.15571 0.0
C1968 C 0.64358 0.57686 0.12221 0.0
C1969 C 0.67592 0.52017 0.1073 0.0
N1970 N 0.68592 0.61412 0.14469 0.0
N1971 N 0.69422 0.53799 0.118 0.0
H1972 H 0.79771 0.45048 0.356 0.0
H1973 H 0.60809 0.47569 0.39908 0.0
H1974 H 0.70158 0.38526 0.34873 0.0
H1975 H 0.70575 0.53397 0.41054 0.0
H1976 H 0.64246 0.44279 0.38096 0.0
H1977 H 0.7657 0.48178 0.3754 0.0
C1978 C 0.76976 0.44281 0.35833 0.0
C1979 C 0.75263 0.4149 0.35039 0.0
C1980 C 0.6568 0.46229 0.38751 0.0
C1981 C 0.71521 0.45123 0.37313 0.0
C1982 C 0.63711 0.48103 0.39807 0.0
C1983 C 0.65384 0.50726 0.40687 0.0
C1984 C 0.69406 0.46987 0.38517 0.0
C1985 C 0.69154 0.51333 0.40449 0.0
C1986 C 0.75145 0.46075 0.36956 0.0
C1987 C 0.71626 0.40651 0.35428 0.0
N1988 N 0.71009 0.49515 0.39391 0.0
N1989 N 0.69908 0.4244 0.36519 0.0
H1990 H 0.72431 0.4518 0.66406 0.0
H1991 H 0.89833 0.4498 0.61078 0.0
H1992 H 0.81409 0.37648 0.6678 0.0
H1993 H 0.81182 0.52905 0.60762 0.0
H1994 H 0.86706 0.4222 0.63106 0.0
H1995 H 0.75474 0.47989 0.64359 0.0
C1996 C 0.75063 0.44131 0.66076 0.0
C1997 C 0.76642 0.41155 0.66803 0.0
C1998 C 0.85463 0.44548 0.62593 0.0
C1999 C 0.80189 0.44394 0.64398 0.0
C2000 C 0.87252 0.4613 0.61418 0.0
C2001 C 0.85796 0.49197 0.60711 0.0
C2002 C 0.82143 0.46007 0.63102 0.0
C2003 C 0.82433 0.50536 0.61242 0.0
C2004 C 0.76803 0.4574 0.64891 0.0
C2005 C 0.80058 0.39937 0.66283 0.0
N2006 N 0.80751 0.48955 0.62391 0.0
N2007 N 0.81683 0.41535 0.65129 0.0
H2008 H 0.21537 0.38579 0.16942 0.0
H2009 H 0.2179 0.53585 0.10627 0.0
H2010 H 0.30888 0.45421 0.16131 0.0
H2011 H 0.12732 0.46454 0.11517 0.0
H2012 H 0.25314 0.50532 0.1251 0.0
H2013 H 0.18406 0.41386 0.14931 0.0
C2014 C 0.22936 0.40699 0.16355 0.0
C2015 C 0.26507 0.41752 0.16743 0.0
C2016 C 0.22586 0.49568 0.12273 0.0
C2017 C 0.22881 0.45012 0.14369 0.0
C2018 C 0.20587 0.51273 0.11169 0.0
C2019 C 0.16972 0.50201 0.10848 0.0
C2020 C 0.20972 0.46772 0.13096 0.0
C2021 C 0.15533 0.47318 0.11673 0.0
C2022 C 0.21138 0.423 0.15189 0.0
C2023 C 0.28138 0.44512 0.15902 0.0
N2024 N 0.17501 0.45742 0.12741 0.0
N2025 N 0.26335 0.46021 0.1477 0.0
H2026 H 0.30947 0.53637 0.91056 0.0
H2027 H 0.31383 0.38822 0.84651 0.0
H2028 H 0.40103 0.4668 0.90098 0.0
H2029 H 0.22103 0.45804 0.85375 0.0
H2030 H 0.34494 0.41689 0.86654 0.0
H2031 H 0.27563 0.50823 0.89075 0.0
C2032 C 0.32237 0.51477 0.90455 0.0
C2033 C 0.35847 0.50396 0.90783 0.0
C2034 C 0.31783 0.42625 0.86378 0.0
C2035 C 0.31951 0.47157 0.88457 0.0
C2036 C 0.29994 0.40984 0.85217 0.0
C2037 C 0.26447 0.42052 0.84805 0.0
C2038 C 0.30056 0.45392 0.87176 0.0
C2039 C 0.24834 0.44874 0.85621 0.0
C2040 C 0.30301 0.49884 0.89306 0.0
C2041 C 0.3734 0.4762 0.89917 0.0
N2042 N 0.26624 0.46415 0.86754 0.0
N2043 N 0.35419 0.46133 0.88816 0.0
H2044 H 0.43286 0.52474 0.62885 0.0
H2045 H 0.25524 0.65085 0.64123 0.0
H2046 H 0.3586 0.55236 0.59541 0.0
H2047 H 0.32573 0.61767 0.67508 0.0
H2048 H 0.29095 0.61378 0.62485 0.0
H2049 H 0.39384 0.55691 0.64558 0.0
C2050 C 0.40835 0.53768 0.62489 0.0
C2051 C 0.39975 0.53569 0.61039 0.0
C2052 C 0.29865 0.61412 0.63584 0.0
C2053 C 0.3537 0.57344 0.63015 0.0
C2054 C 0.27803 0.63534 0.64535 0.0
C2055 C 0.28689 0.63768 0.65981 0.0
C2056 C 0.3294 0.5947 0.6405 0.0
C2057 C 0.31713 0.61672 0.66421 0.0
C2058 C 0.38583 0.55611 0.63463 0.0
C2059 C 0.36697 0.55299 0.60632 0.0
N2060 N 0.33726 0.59657 0.65464 0.0
N2061 N 0.3455 0.5711 0.61605 0.0
H2062 H 0.11945 0.57558 0.41619 0.0
H2063 H 0.28774 0.57808 0.36009 0.0
H2064 H 0.20502 0.49491 0.4165 0.0
H2065 H 0.19858 0.65471 0.35907 0.0
H2066 H 0.25903 0.54783 0.38049 0.0
H2067 H 0.14883 0.60512 0.39587 0.0
C2068 C 0.14466 0.56412 0.41215 0.0
C2069 C 0.15952 0.53246 0.41846 0.0
C2070 C 0.2455 0.5711 0.37579 0.0
C2071 C 0.19389 0.56675 0.39448 0.0
C2072 C 0.26191 0.58846 0.36397 0.0
C2073 C 0.24578 0.61924 0.35746 0.0
C2074 C 0.21232 0.58427 0.38149 0.0
C2075 C 0.21232 0.63112 0.36342 0.0
C2076 C 0.16147 0.58109 0.40037 0.0
C2077 C 0.19232 0.51929 0.41232 0.0
N2078 N 0.19706 0.61391 0.37492 0.0
N2079 N 0.20809 0.53625 0.40084 0.0
H2080 H 0.1239 0.06848 0.28985 0.0
H2081 H 0.23536 0.97658 0.2267 0.0
H2082 H 0.24073 0.05276 0.28921 0.0
H2083 H 0.11812 0.96721 0.23008 0.0
H2084 H 0.23629 1.01091 0.24863 0.0
H2085 H 0.1195 0.03463 0.26754 0.0
C2086 C 0.14847 0.05732 0.28514 0.0
C2087 C 0.18274 0.06338 0.29129 0.0
C2088 C 0.21026 1.00157 0.24458 0.0
C2089 C 0.17807 0.02579 0.26583 0.0
C2090 C 0.20971 0.98228 0.23199 0.0
C2091 C 0.17664 0.96901 0.22666 0.0
C2092 C 0.17748 1.00764 0.25193 0.0
C2093 C 0.14417 0.9771 0.23389 0.0
C2094 C 0.14599 0.03834 0.27239 0.0
C2095 C 0.2138 0.04875 0.28477 0.0
N2096 N 0.14539 0.99578 0.24627 0.0
N2097 N 0.21074 0.03091 0.27235 0.0
H2098 H 0.21535 0.87339 0.53951 0.0
H2099 H 0.31422 1.00261 0.48289 0.0
H2100 H 0.21859 0.99107 0.5421 0.0
H2101 H 0.30885 0.88531 0.47874 0.0
H2102 H 0.27953 0.99842 0.50478 0.0
H2103 H 0.25173 0.87639 0.51781 0.0
C2104 C 0.22423 0.89979 0.53562 0.0
C2105 C 0.21404 0.93204 0.54257 0.0
C2106 C 0.28571 0.97355 0.49908 0.0
C2107 C 0.25494 0.93576 0.51772 0.0
C2108 C 0.30532 0.97597 0.48653 0.0
C2109 C 0.31425 0.94427 0.479 0.0
C2110 C 0.27504 0.93911 0.5042 0.0
C2111 C 0.30231 0.91042 0.48422 0.0
C2112 C 0.2447 0.90152 0.52319 0.0
C2113 C 0.22591 0.96555 0.53706 0.0
N2114 N 0.28341 0.90869 0.49655 0.0
N2115 N 0.24557 0.96655 0.52494 0.0
H2116 H 0.2722 0.07158 0.73616 0.0
H2117 H 0.40695 0.97671 0.7913 0.0
H2118 H 0.38817 0.0594 0.72933 0.0
H2119 H 0.29064 0.98749 0.79759 0.0
H2120 H 0.40167 1.01178 0.76948 0.0
H2121 H 0.27888 0.04312 0.75926 0.0
C2122 C 0.29899 0.06249 0.73949 0.0
C2123 C 0.32965 0.06754 0.73088 0.0
C2124 C 0.37737 1.00684 0.77572 0.0
C2125 C 0.3377 0.03568 0.75729 0.0
C2126 C 0.38045 0.98715 0.78822 0.0
C2127 C 0.34913 0.97911 0.79613 0.0
C2128 C 0.34271 0.01833 0.77117 0.0
C2129 C 0.31541 0.99302 0.79171 0.0
C2130 C 0.30288 0.04656 0.7527 0.0
C2131 C 0.36383 0.05573 0.73568 0.0
N2132 N 0.31301 1.01168 0.77943 0.0
N2133 N 0.36697 0.04035 0.7486 0.0
H2134 H 0.23567 0.15417 0.97646 0.0
H2135 H 0.31198 0.02812 0.03849 0.0
H2136 H 0.241 0.03644 0.97458 0.0
H2137 H 0.31294 0.14599 0.04015 0.0
H2138 H 0.28506 0.03106 0.01507 0.0
H2139 H 0.26583 0.15242 0.99942 0.0
C2140 C 0.24388 0.12803 0.98077 0.0
C2141 C 0.23582 0.09538 0.97371 0.0
C2142 C 0.29096 0.05633 0.02056 0.0
C2143 C 0.26939 0.09308 0.99997 0.0
C2144 C 0.30601 0.05464 0.03397 0.0
C2145 C 0.31454 0.08687 0.0412 0.0
C2146 C 0.28446 0.09053 0.01435 0.0
C2147 C 0.30655 0.12052 0.03489 0.0
C2148 C 0.26076 0.12701 0.99391 0.0
C2149 C 0.24672 0.06222 0.97973 0.0
N2150 N 0.29204 0.12151 0.02175 0.0
N2151 N 0.26268 0.0619 0.99258 0.0
H2152 H 0.90994 0.97238 0.73131 0.0
H2153 H 0.77792 0.05321 0.79101 0.0
H2154 H 0.793 0.98245 0.72722 0.0
H2155 H 0.89549 0.0566 0.79403 0.0
H2156 H 0.78343 0.02289 0.76824 0.0
H2157 H 0.90607 1.00175 0.7545 0.0
C2158 C 0.88358 0.98139 0.73519 0.0
C2159 C 0.85174 0.97509 0.72739 0.0
C2160 C 0.80808 0.02999 0.7739 0.0
C2161 C 0.84696 1.00768 0.7539 0.0
C2162 C 0.80491 0.04696 0.78697 0.0
C2163 C 0.83629 0.05739 0.79436 0.0
C2164 C 0.84291 0.02346 0.76817 0.0
C2165 C 0.87062 0.04887 0.78863 0.0
C2166 C 0.88133 0.9978 0.74845 0.0
C2167 C 0.81821 0.98686 0.73291 0.0
N2168 N 0.87305 0.03258 0.77581 0.0
N2169 N 0.81668 1.00234 0.74586 0.0
H2170 H 0.72556 0.1585 0.53931 0.0
H2171 H 0.80076 0.03906 0.47492 0.0
H2172 H 0.72784 0.0406 0.53856 0.0
H2173 H 0.80959 0.15661 0.4764 0.0
H2174 H 0.76955 0.04 0.4976 0.0
H2175 H 0.75472 0.15931 0.51606 0.0
C2176 C 0.73276 0.13284 0.53433 0.0
C2177 C 0.72443 0.09943 0.5408 0.0
C2178 C 0.77802 0.06567 0.49295 0.0
C2179 C 0.75683 0.10008 0.51423 0.0
C2180 C 0.79553 0.06514 0.47994 0.0
C2181 C 0.80777 0.0978 0.47386 0.0
C2182 C 0.77283 0.09911 0.49993 0.0
C2183 C 0.80045 0.13085 0.48078 0.0
C2184 C 0.74907 0.1333 0.52104 0.0
C2185 C 0.73391 0.06694 0.53392 0.0
N2186 N 0.78366 0.13067 0.49355 0.0
N2187 N 0.74942 0.06807 0.52097 0.0
H2188 H 0.75962 0.97375 0.29636 0.0
H2189 H 0.6461 0.05989 0.23271 0.0
H2190 H 0.64184 0.97408 0.29457 0.0
H2191 H 0.76351 0.06604 0.23595 0.0
H2192 H 0.6439 0.02894 0.25549 0.0
H2193 H 0.76154 1.01006 0.27481 0.0
C2194 C 0.73414 0.98207 0.29154 0.0
C2195 C 0.70052 0.9709 0.29719 0.0
C2196 C 0.67017 0.03698 0.25122 0.0
C2197 C 0.70247 1.01169 0.27239 0.0
C2198 C 0.67145 0.05438 0.23818 0.0
C2199 C 0.70506 0.06529 0.23246 0.0
C2200 C 0.70278 0.03042 0.25857 0.0
C2201 C 0.73707 0.05783 0.23999 0.0
C2202 C 0.73524 1.00257 0.27919 0.0
C2203 C 0.66832 0.98222 0.29054 0.0
N2204 N 0.73514 0.04084 0.25268 0.0
N2205 N 0.67009 1.00172 0.27839 0.0
H2206 H 0.82187 1.00119 0.03877 0.0
H2207 H 0.72491 0.87632 0.98037 0.0
H2208 H 0.81551 0.88369 0.04162 0.0
H2209 H 0.72959 0.99406 0.9787 0.0
H2210 H 0.75966 0.87786 1.0024 0.0
H2211 H 0.78757 0.99882 0.01679 0.0
C2212 C 0.81275 0.97491 0.03485 0.0
C2213 C 0.8214 0.94259 0.04201 0.0
C2214 C 0.75332 0.90333 0.99715 0.0
C2215 C 0.78276 0.93953 0.01669 0.0
C2216 C 0.73379 0.90244 0.98453 0.0
C2217 C 0.72448 0.93512 0.97773 0.0
C2218 C 0.7635 0.93718 1.00299 0.0
C2219 C 0.73629 0.96823 0.98361 0.0
C2220 C 0.79341 0.97352 0.02224 0.0
C2221 C 0.80919 0.90925 0.03643 0.0
N2222 N 0.75502 0.96842 0.99592 0.0
N2223 N 0.79064 0.90854 0.02405 0.0
H2224 H 0.63891 0.55331 0.79793 0.0
H2225 H 0.73624 0.48215 0.72752 0.0
H2226 H 0.75428 0.56423 0.78952 0.0
H2227 H 0.6201 0.47418 0.73475 0.0
H2228 H 0.74306 0.51273 0.75018 0.0
H2229 H 0.63147 0.52223 0.77529 0.0
C2230 C 0.66277 0.54854 0.79142 0.0
C2231 C 0.69727 0.56126 0.79558 0.0
C2232 C 0.716 0.5046 0.7468 0.0
C2233 C 0.68889 0.52653 0.76958 0.0
C2234 C 0.71207 0.48741 0.7338 0.0
C2235 C 0.67755 0.47574 0.72927 0.0
C2236 C 0.68519 0.50999 0.75539 0.0
C2237 C 0.64717 0.48299 0.73784 0.0
C2238 C 0.65846 0.53114 0.77845 0.0
C2239 C 0.72723 0.55473 0.78672 0.0
N2240 N 0.65173 0.49945 0.75056 0.0
N2241 N 0.72231 0.53801 0.7741 0.0
H2242 H 0.81551 0.50291 0.98087 0.0
H2243 H 0.71669 0.38246 0.04028 0.0
H2244 H 0.81217 0.38508 0.97992 0.0
H2245 H 0.71383 0.50027 0.03893 0.0
H2246 H 0.7542 0.38245 0.01886 0.0
H2247 H 0.77902 0.50221 1.00241 0.0
C2248 C 0.80666 0.47688 0.98512 0.0
C2249 C 0.8167 0.44401 0.97861 0.0
C2250 C 0.74557 0.4083 0.02331 0.0
C2251 C 0.77549 0.44289 1.00342 0.0
C2252 C 0.72444 0.40832 0.03558 0.0
C2253 C 0.71225 0.44142 0.04135 0.0
C2254 C 0.7545 0.44166 0.0168 0.0
C2255 C 0.72274 0.47415 0.03482 0.0
C2256 C 0.78602 0.47647 0.99747 0.0
C2257 C 0.80478 0.41103 0.9846 0.0
N2258 N 0.74313 0.47343 0.02287 0.0
N2259 N 0.78493 0.41129 0.99673 0.0
H2260 H 0.79302 0.49383 0.29505 0.0
H2261 H 0.89659 0.55114 0.22424 0.0
H2262 H 0.90848 0.47692 0.2885 0.0
H2263 H 0.77982 0.55738 0.23017 0.0
H2264 H 0.90255 0.52617 0.24802 0.0
H2265 H 0.78921 0.52303 0.27205 0.0
C2266 C 0.81775 0.49704 0.28887 0.0
C2267 C 0.85106 0.48284 0.29358 0.0
C2268 C 0.87562 0.53274 0.24407 0.0
C2269 C 0.84678 0.51522 0.26713 0.0
C2270 C 0.87217 0.5466 0.23047 0.0
C2271 C 0.83765 0.55616 0.22529 0.0
C2272 C 0.8443 0.52867 0.2525 0.0
C2273 C 0.80691 0.55016 0.23378 0.0
C2274 C 0.81549 0.51332 0.27568 0.0
C2275 C 0.88228 0.48759 0.2852 0.0
N2276 N 0.81099 0.537 0.24701 0.0
N2277 N 0.87931 0.50304 0.27226 0.0
H2278 H 0.72858 0.65229 0.47268 0.0
H2279 H 0.8047 0.52481 0.53456 0.0
H2280 H 0.72834 0.53442 0.47129 0.0
H2281 H 0.80229 0.64255 0.53689 0.0
H2282 H 0.77811 0.52799 0.51103 0.0
H2283 H 0.75944 0.64972 0.49552 0.0
C2284 C 0.73572 0.62592 0.47706 0.0
C2285 C 0.72591 0.59351 0.47016 0.0
C2286 C 0.78321 0.55316 0.51669 0.0
C2287 C 0.76032 0.59029 0.49631 0.0
C2288 C 0.79811 0.55131 0.53016 0.0
C2289 C 0.80547 0.58345 0.53765 0.0
C2290 C 0.77576 0.58743 0.51067 0.0
C2291 C 0.79679 0.61712 0.53146 0.0
C2292 C 0.75298 0.62443 0.49014 0.0
C2293 C 0.73543 0.56004 0.4763 0.0
N2294 N 0.78247 0.61826 0.51829 0.0
N2295 N 0.75185 0.55929 0.48908 0.0
H2296 H 0.28974 0.55511 0.29208 0.0
H2297 H 0.42112 0.47112 0.23282 0.0
H2298 H 0.40729 0.55692 0.29532 0.0
H2299 H 0.30438 0.4828 0.22855 0.0
H2300 H 0.41754 0.50131 0.25586 0.0
H2301 H 0.29511 0.52469 0.26933 0.0
C2302 C 0.3167 0.54854 0.28808 0.0
C2303 C 0.34811 0.55849 0.29555 0.0
C2304 C 0.39279 0.49754 0.2498 0.0
C2305 C 0.35459 0.52436 0.26938 0.0
C2306 C 0.39488 0.48064 0.23663 0.0
C2307 C 0.363 0.47455 0.22881 0.0
C2308 C 0.35854 0.50813 0.25516 0.0
C2309 C 0.32963 0.48701 0.23424 0.0
C2310 C 0.31979 0.53148 0.27503 0.0
C2311 C 0.38239 0.54955 0.28988 0.0
N2312 N 0.32824 0.50297 0.24712 0.0
N2313 N 0.38476 0.53313 0.27706 0.0
H2314 H 0.29796 0.65817 0.9777 0.0
H2315 H 0.25282 0.54574 0.04788 0.0
H2316 H 0.30759 0.54118 0.98195 0.0
H2317 H 0.22154 0.65855 0.04264 0.0
H2318 H 0.28116 0.54682 0.02467 0.0
H2319 H 0.27454 0.66137 1.00194 0.0
C2320 C 0.29457 0.63316 0.98366 0.0
C2321 C 0.30452 0.59934 0.97784 0.0
C2322 C 0.26847 0.57152 0.02861 0.0
C2323 C 0.27891 0.60286 1.00553 0.0
C2324 C 0.25265 0.57102 0.04194 0.0
C2325 C 0.23471 0.60203 0.04712 0.0
C2326 C 0.26617 0.60326 0.02035 0.0
C2327 C 0.23522 0.63407 0.039 0.0
C2328 C 0.28156 0.63503 0.9975 0.0
C2329 C 0.30009 0.56779 0.98602 0.0
N2330 N 0.25033 0.63376 0.0259 0.0
N2331 N 0.28783 0.57036 0.99945 0.0
H2332 H 0.24767 0.54935 0.71991 0.0
H2333 H 0.11307 0.48006 0.78093 0.0
H2334 H 0.13105 0.56572 0.7183 0.0
H2335 H 0.23057 0.48365 0.78421 0.0
H2336 H 0.11766 0.50723 0.75735 0.0
H2337 H 0.24041 0.51762 0.74229 0.0
C2338 C 0.22041 0.5455 0.72413 0.0
C2339 C 0.18994 0.56027 0.71728 0.0
C2340 C 0.14237 0.50229 0.76329 0.0
C2341 C 0.18143 0.52485 0.74313 0.0
C2342 C 0.13975 0.48714 0.77678 0.0
C2343 C 0.17149 0.47979 0.78453 0.0
C2344 C 0.17701 0.50975 0.75753 0.0
C2345 C 0.2054 0.48901 0.77862 0.0
C2346 C 0.21629 0.52777 0.737 0.0
C2347 C 0.15524 0.55463 0.72324 0.0
N2348 N 0.20726 0.50327 0.76546 0.0
N2349 N 0.15193 0.53768 0.73593 0.0
H2350 H 0.2265 0.50531 0.4852 0.0
H2351 H 0.31377 0.3944 0.54952 0.0
H2352 H 0.22449 0.38769 0.48833 0.0
H2353 H 0.32151 0.51143 0.54479 0.0
H2354 H 0.27698 0.3916 0.52805 0.0
H2355 H 0.25939 0.50824 0.50751 0.0
C2356 C 0.23339 0.48008 0.49053 0.0
C2357 C 0.22298 0.44621 0.48493 0.0
C2358 C 0.28643 0.41793 0.53178 0.0
C2359 C 0.25999 0.44929 0.51056 0.0
C2360 C 0.30712 0.41957 0.54409 0.0
C2361 C 0.32068 0.45319 0.54887 0.0
C2362 C 0.27936 0.45018 0.52424 0.0
C2363 C 0.31155 0.48495 0.54143 0.0
C2364 C 0.25193 0.48175 0.50331 0.0
C2365 C 0.23226 0.41435 0.49228 0.0
N2366 N 0.29167 0.48265 0.52942 0.0
N2367 N 0.25016 0.41666 0.50476 0.0
loop_
_geom_bond_atom_site_label_1
_geom_bond_atom_site_label_2
_geom_bond_distance
_geom_bond_site_symmetry_2
_ccdc_geom_bond_type
Dy0 O4 2.398 . S
Dy0 O5 2.491 . S
Dy0 O6 2.403 . S
Dy0 O7 2.664 . S
Dy0 O11 2.326 . S
Dy0 O15 2.310 . S
Dy0 O16 2.351 . S
C1 O12 1.185 . S
C1 O13 1.355 . S
C2 O4 1.185 . S
C2 O5 1.355 . S
Dy3 O7 2.310 . S
Dy3 O10 2.351 . S
Dy3 O12 2.398 . S
Dy3 O13 2.491 . S
Dy3 O14 2.403 . S
Dy3 O15 2.664 . S
Dy3 O17 2.326 . S
O4 Dy0 2.398 . S
O4 C2 1.185 . S
O5 Dy0 2.491 . S
O5 C2 1.355 . S
O6 Dy0 2.403 . S
O6 C8 1.254 . S
O7 Dy0 2.664 . S
O7 Dy3 2.310 . S
O7 C8 1.268 . S
C8 O6 1.254 . S
C8 O7 1.268 . S
C9 O14 1.254 . S
C9 O15 1.268 . S
O10 Dy3 2.351 . S
O10 C18 1.249 . S
O11 Dy0 2.326 . S
O11 C18 1.267 . S
O12 C1 1.185 . S
O12 Dy3 2.398 . S
O13 C1 1.355 . S
O13 Dy3 2.491 . S
O14 Dy3 2.403 . S
O14 C9 1.254 . S
O15 Dy0 2.310 . S
O15 Dy3 2.664 . S
O15 C9 1.268 . S
O16 Dy0 2.351 . S
O16 C19 1.249 . S
O17 Dy3 2.326 . S
O17 C19 1.267 . S
C18 O10 1.249 . S
C18 O11 1.267 . S
C19 O16 1.249 . S
C19 O17 1.267 . S
Dy20 O24 2.398 . S
Dy20 O25 2.491 . S
Dy20 O26 2.403 . S
Dy20 O27 2.664 . S
Dy20 O31 2.326 . S
Dy20 O35 2.310 . S
Dy20 O36 2.351 . S
C21 O32 1.185 . S
C21 O33 1.355 . S
C22 O24 1.185 1_655 S
C22 O25 1.355 1_655 S
Dy23 O27 2.310 . S
Dy23 O30 2.351 . S
Dy23 O32 2.398 . S
Dy23 O33 2.491 . S
Dy23 O34 2.403 . S
Dy23 O35 2.664 . S
Dy23 O37 2.326 . S
O24 Dy20 2.398 . S
O24 C22 1.185 1_455 S
O25 Dy20 2.491 . S
O25 C22 1.355 1_455 S
O26 Dy20 2.403 . S
O26 C28 1.254 . S
O27 Dy20 2.664 . S
O27 Dy23 2.310 . S
O27 C28 1.268 . S
C28 O26 1.254 . S
C28 O27 1.268 . S
C29 O34 1.254 . S
C29 O35 1.268 . S
O30 Dy23 2.351 . S
O30 C38 1.249 . S
O31 Dy20 2.326 . S
O31 C38 1.267 . S
O32 C21 1.185 . S
O32 Dy23 2.398 . S
O33 C21 1.355 . S
O33 Dy23 2.491 . S
O34 Dy23 2.403 . S
O34 C29 1.254 . S
O35 Dy20 2.310 . S
O35 Dy23 2.664 . S
O35 C29 1.268 . S
O36 Dy20 2.351 . S
O36 C39 1.249 . S
O37 Dy23 2.326 . S
O37 C39 1.267 . S
C38 O30 1.249 . S
C38 O31 1.267 . S
C39 O36 1.249 . S
C39 O37 1.267 . S
Dy40 O44 2.398 . S
Dy40 O45 2.491 . S
Dy40 O46 2.403 . S
Dy40 O47 2.664 . S
Dy40 O51 2.326 . S
Dy40 O55 2.310 . S
Dy40 O56 2.351 . S
C41 O52 1.185 . S
C41 O53 1.355 . S
C42 O44 1.185 . S
C42 O45 1.355 . S
Dy43 O47 2.310 . S
Dy43 O50 2.351 . S
Dy43 O52 2.398 . S
Dy43 O53 2.491 . S
Dy43 O54 2.403 . S
Dy43 O55 2.664 . S
Dy43 O57 2.326 . S
O44 Dy40 2.398 . S
O44 C42 1.185 . S
O45 Dy40 2.491 . S
O45 C42 1.355 . S
O46 Dy40 2.403 . S
O46 C48 1.254 . S
O47 Dy40 2.664 . S
O47 Dy43 2.310 . S
O47 C48 1.268 . S
C48 O46 1.254 . S
C48 O47 1.268 . S
C49 O54 1.254 . S
C49 O55 1.268 . S
O50 Dy43 2.351 . S
O50 C58 1.249 . S
O51 Dy40 2.326 . S
O51 C58 1.267 . S
O52 C41 1.185 . S
O52 Dy43 2.398 . S
O53 C41 1.355 . S
O53 Dy43 2.491 . S
O54 Dy43 2.403 . S
O54 C49 1.254 . S
O55 Dy40 2.310 . S
O55 Dy43 2.664 . S
O55 C49 1.268 . S
O56 Dy40 2.351 . S
O56 C59 1.249 . S
O57 Dy43 2.326 . S
O57 C59 1.267 . S
C58 O50 1.249 . S
C58 O51 1.267 . S
C59 O56 1.249 . S
C59 O57 1.267 . S
Dy60 O64 2.398 . S
Dy60 O65 2.491 . S
Dy60 O66 2.403 . S
Dy60 O67 2.664 . S
Dy60 O71 2.326 . S
Dy60 O75 2.310 . S
Dy60 O76 2.351 . S
C61 O72 1.185 . S
C61 O73 1.355 . S
C62 O64 1.185 . S
C62 O65 1.355 . S
Dy63 O67 2.310 . S
Dy63 O70 2.351 . S
Dy63 O72 2.398 . S
Dy63 O73 2.491 . S
Dy63 O74 2.403 . S
Dy63 O75 2.664 . S
Dy63 O77 2.326 . S
O64 Dy60 2.398 . S
O64 C62 1.185 . S
O65 Dy60 2.491 . S
O65 C62 1.355 . S
O66 Dy60 2.403 . S
O66 C68 1.254 . S
O67 Dy60 2.664 . S
O67 Dy63 2.310 . S
O67 C68 1.268 . S
C68 O66 1.254 . S
C68 O67 1.268 . S
C69 O74 1.254 . S
C69 O75 1.268 . S
O70 Dy63 2.351 . S
O70 C78 1.249 . S
O71 Dy60 2.326 . S
O71 C78 1.267 . S
O72 C61 1.185 . S
O72 Dy63 2.398 . S
O73 C61 1.355 . S
O73 Dy63 2.491 . S
O74 Dy63 2.403 . S
O74 C69 1.254 . S
O75 Dy60 2.310 . S
O75 Dy63 2.664 . S
O75 C69 1.268 . S
O76 Dy60 2.351 . S
O76 C79 1.249 . S
O77 Dy63 2.326 . S
O77 C79 1.267 . S
C78 O70 1.249 . S
C78 O71 1.267 . S
C79 O76 1.249 . S
C79 O77 1.267 . S
Dy80 O84 2.398 . S
Dy80 O85 2.491 . S
Dy80 O86 2.403 . S
Dy80 O87 2.664 . S
Dy80 O91 2.326 . S
Dy80 O95 2.310 . S
Dy80 O96 2.351 . S
C81 O92 1.185 . S
C81 O93 1.355 . S
C82 O84 1.185 . S
C82 O85 1.355 . S
Dy83 O87 2.310 . S
Dy83 O90 2.351 . S
Dy83 O92 2.398 . S
Dy83 O93 2.491 . S
Dy83 O94 2.403 . S
Dy83 O95 2.664 . S
Dy83 O97 2.326 . S
O84 Dy80 2.398 . S
O84 C82 1.185 . S
O85 Dy80 2.491 . S
O85 C82 1.355 . S
O86 Dy80 2.403 . S
O86 C88 1.254 . S
O87 Dy80 2.664 . S
O87 Dy83 2.310 . S
O87 C88 1.268 . S
C88 O86 1.254 . S
C88 O87 1.268 . S
C89 O94 1.254 . S
C89 O95 1.268 . S
O90 Dy83 2.351 . S
O90 C98 1.249 . S
O91 Dy80 2.326 . S
O91 C98 1.267 . S
O92 C81 1.185 . S
O92 Dy83 2.398 . S
O93 C81 1.355 . S
O93 Dy83 2.491 . S
O94 Dy83 2.403 . S
O94 C89 1.254 . S
O95 Dy80 2.310 . S
O95 Dy83 2.664 . S
O95 C89 1.268 . S
O96 Dy80 2.351 . S
O96 C99 1.249 . S
O97 Dy83 2.326 . S
O97 C99 1.267 . S
C98 O90 1.249 . S
C98 O91 1.267 . S
C99 O96 1.249 . S
C99 O97 1.267 . S
Dy100 O104 2.398 . S
Dy100 O105 2.491 . S
Dy100 O106 2.403 . S
Dy100 O107 2.664 . S
Dy100 O111 2.326 . S
Dy100 O115 2.310 . S
Dy100 O116 2.351 . S
C101 O112 1.185 . S
C101 O113 1.355 . S
C102 O104 1.185 . S
C102 O105 1.355 . S
Dy103 O107 2.310 . S
Dy103 O110 2.351 . S
Dy103 O112 2.398 . S
Dy103 O113 2.491 . S
Dy103 O114 2.403 . S
Dy103 O115 2.664 . S
Dy103 O117 2.326 . S
O104 Dy100 2.398 . S
O104 C102 1.185 . S
O105 Dy100 2.491 . S
O105 C102 1.355 . S
O106 Dy100 2.403 . S
O106 C108 1.254 . S
O107 Dy100 2.664 . S
O107 Dy103 2.310 . S
O107 C108 1.268 . S
C108 O106 1.254 . S
C108 O107 1.268 . S
C109 O114 1.254 . S
C109 O115 1.268 . S
O110 Dy103 2.351 . S
O110 C118 1.249 . S
O111 Dy100 2.326 . S
O111 C118 1.267 . S
O112 C101 1.185 . S
O112 Dy103 2.398 . S
O113 C101 1.355 . S
O113 Dy103 2.491 . S
O114 Dy103 2.403 . S
O114 C109 1.254 . S
O115 Dy100 2.310 . S
O115 Dy103 2.664 . S
O115 C109 1.268 . S
O116 Dy100 2.351 . S
O116 C119 1.249 . S
O117 Dy103 2.326 . S
O117 C119 1.267 . S
C118 O110 1.249 . S
C118 O111 1.267 . S
C119 O116 1.249 . S
C119 O117 1.267 . S
Dy120 O124 2.398 . S
Dy120 O125 2.491 . S
Dy120 O126 2.403 . S
Dy120 O127 2.664 . S
Dy120 O131 2.326 . S
Dy120 O135 2.310 . S
Dy120 O136 2.351 . S
C121 O132 1.185 . S
C121 O133 1.355 . S
C122 O124 1.185 . S
C122 O125 1.355 . S
Dy123 O127 2.310 . S
Dy123 O130 2.351 . S
Dy123 O132 2.398 . S
Dy123 O133 2.491 . S
Dy123 O134 2.403 . S
Dy123 O135 2.664 . S
Dy123 O137 2.326 . S
O124 Dy120 2.398 . S
O124 C122 1.185 . S
O125 Dy120 2.491 . S
O125 C122 1.355 . S
O126 Dy120 2.403 . S
O126 C128 1.254 . S
O127 Dy120 2.664 . S
O127 Dy123 2.310 . S
O127 C128 1.268 . S
C128 O126 1.254 . S
C128 O127 1.268 . S
C129 O134 1.254 . S
C129 O135 1.268 . S
O130 Dy123 2.351 . S
O130 C138 1.249 . S
O131 Dy120 2.326 . S
O131 C138 1.267 . S
O132 C121 1.185 . S
O132 Dy123 2.398 . S
O133 C121 1.355 . S
O133 Dy123 2.491 . S
O134 Dy123 2.403 . S
O134 C129 1.254 . S
O135 Dy120 2.310 . S
O135 Dy123 2.664 . S
O135 C129 1.268 . S
O136 Dy120 2.351 . S
O136 C139 1.249 . S
O137 Dy123 2.326 . S
O137 C139 1.267 . S
C138 O130 1.249 . S
C138 O131 1.267 . S
C139 O136 1.249 . S
C139 O137 1.267 . S
Dy140 O144 2.398 . S
Dy140 O145 2.491 . S
Dy140 O146 2.403 . S
Dy140 O147 2.664 . S
Dy140 O151 2.326 . S
Dy140 O155 2.310 . S
Dy140 O156 2.351 . S
C141 O152 1.185 . S
C141 O153 1.355 . S
C142 O144 1.185 1_655 S
C142 O145 1.355 1_655 S
Dy143 O147 2.310 . S
Dy143 O150 2.351 . S
Dy143 O152 2.398 . S
Dy143 O153 2.491 . S
Dy143 O154 2.403 . S
Dy143 O155 2.664 . S
Dy143 O157 2.326 . S
O144 Dy140 2.398 . S
O144 C142 1.185 1_455 S
O145 Dy140 2.491 . S
O145 C142 1.355 1_455 S
O146 Dy140 2.403 . S
O146 C148 1.254 . S
O147 Dy140 2.664 . S
O147 Dy143 2.310 . S
O147 C148 1.268 . S
C148 O146 1.254 . S
C148 O147 1.268 . S
C149 O154 1.254 . S
C149 O155 1.268 . S
O150 Dy143 2.351 . S
O150 C158 1.249 . S
O151 Dy140 2.326 . S
O151 C158 1.267 . S
O152 C141 1.185 . S
O152 Dy143 2.398 . S
O153 C141 1.355 . S
O153 Dy143 2.491 . S
O154 Dy143 2.403 . S
O154 C149 1.254 . S
O155 Dy140 2.310 . S
O155 Dy143 2.664 . S
O155 C149 1.268 . S
O156 Dy140 2.351 . S
O156 C159 1.249 . S
O157 Dy143 2.326 . S
O157 C159 1.267 . S
C158 O150 1.249 . S
C158 O151 1.267 . S
C159 O156 1.249 . S
C159 O157 1.267 . S
Dy160 O164 2.398 . S
Dy160 O165 2.491 . S
Dy160 O166 2.403 . S
Dy160 O167 2.664 . S
Dy160 O171 2.326 . S
Dy160 O175 2.310 . S
Dy160 O176 2.351 . S
C161 O172 1.185 . S
C161 O173 1.355 . S
C162 O164 1.185 . S
C162 O165 1.355 . S
Dy163 O167 2.310 . S
Dy163 O170 2.351 . S
Dy163 O172 2.398 . S
Dy163 O173 2.491 . S
Dy163 O174 2.403 . S
Dy163 O175 2.664 . S
Dy163 O177 2.326 . S
O164 Dy160 2.398 . S
O164 C162 1.185 . S
O165 Dy160 2.491 . S
O165 C162 1.355 . S
O166 Dy160 2.403 . S
O166 C168 1.254 . S
O167 Dy160 2.664 . S
O167 Dy163 2.310 . S
O167 C168 1.268 . S
C168 O166 1.254 . S
C168 O167 1.268 . S
C169 O174 1.254 . S
C169 O175 1.268 . S
O170 Dy163 2.351 . S
O170 C178 1.249 . S
O171 Dy160 2.326 . S
O171 C178 1.267 . S
O172 C161 1.185 . S
O172 Dy163 2.398 . S
O173 C161 1.355 . S
O173 Dy163 2.491 . S
O174 Dy163 2.403 . S
O174 C169 1.254 . S
O175 Dy160 2.310 . S
O175 Dy163 2.664 . S
O175 C169 1.268 . S
O176 Dy160 2.351 . S
O176 C179 1.249 . S
O177 Dy163 2.326 . S
O177 C179 1.267 . S
C178 O170 1.249 . S
C178 O171 1.267 . S
C179 O176 1.249 . S
C179 O177 1.267 . S
Dy180 O184 2.398 . S
Dy180 O185 2.491 . S
Dy180 O186 2.403 . S
Dy180 O187 2.664 . S
Dy180 O191 2.326 . S
Dy180 O195 2.310 . S
Dy180 O196 2.351 . S
C181 O192 1.185 1_455 S
C181 O193 1.355 1_455 S
C182 O184 1.185 . S
C182 O185 1.355 . S
Dy183 O187 2.310 . S
Dy183 O190 2.351 . S
Dy183 O192 2.398 . S
Dy183 O193 2.491 . S
Dy183 O194 2.403 . S
Dy183 O195 2.664 . S
Dy183 O197 2.326 . S
O184 Dy180 2.398 . S
O184 C182 1.185 . S
O185 Dy180 2.491 . S
O185 C182 1.355 . S
O186 Dy180 2.403 . S
O186 C188 1.254 . S
O187 Dy180 2.664 . S
O187 Dy183 2.310 . S
O187 C188 1.268 . S
C188 O186 1.254 . S
C188 O187 1.268 . S
C189 O194 1.254 . S
C189 O195 1.268 . S
O190 Dy183 2.351 . S
O190 C198 1.249 . S
O191 Dy180 2.326 . S
O191 C198 1.267 . S
O192 C181 1.185 1_655 S
O192 Dy183 2.398 . S
O193 C181 1.355 1_655 S
O193 Dy183 2.491 . S
O194 Dy183 2.403 . S
O194 C189 1.254 . S
O195 Dy180 2.310 . S
O195 Dy183 2.664 . S
O195 C189 1.268 . S
O196 Dy180 2.351 . S
O196 C199 1.249 . S
O197 Dy183 2.326 . S
O197 C199 1.267 . S
C198 O190 1.249 . S
C198 O191 1.267 . S
C199 O196 1.249 . S
C199 O197 1.267 . S
Dy200 O204 2.398 . S
Dy200 O205 2.491 . S
Dy200 O206 2.403 . S
Dy200 O207 2.664 . S
Dy200 O211 2.326 . S
Dy200 O215 2.310 . S
Dy200 O216 2.351 . S
C201 O212 1.185 . S
C201 O213 1.355 . S
C202 O204 1.185 . S
C202 O205 1.355 . S
Dy203 O207 2.310 . S
Dy203 O210 2.351 . S
Dy203 O212 2.398 . S
Dy203 O213 2.491 . S
Dy203 O214 2.403 . S
Dy203 O215 2.664 . S
Dy203 O217 2.326 . S
O204 Dy200 2.398 . S
O204 C202 1.185 . S
O205 Dy200 2.491 . S
O205 C202 1.355 . S
O206 Dy200 2.403 . S
O206 C208 1.254 . S
O207 Dy200 2.664 . S
O207 Dy203 2.310 . S
O207 C208 1.268 . S
C208 O206 1.254 . S
C208 O207 1.268 . S
C209 O214 1.254 . S
C209 O215 1.268 . S
O210 Dy203 2.351 . S
O210 C218 1.249 . S
O211 Dy200 2.326 . S
O211 C218 1.267 . S
O212 C201 1.185 . S
O212 Dy203 2.398 . S
O213 C201 1.355 . S
O213 Dy203 2.491 . S
O214 Dy203 2.403 . S
O214 C209 1.254 . S
O215 Dy200 2.310 . S
O215 Dy203 2.664 . S
O215 C209 1.268 . S
O216 Dy200 2.351 . S
O216 C219 1.249 . S
O217 Dy203 2.326 . S
O217 C219 1.267 . S
C218 O210 1.249 . S
C218 O211 1.267 . S
C219 O216 1.249 . S
C219 O217 1.267 . S
Dy220 O224 2.398 . S
Dy220 O225 2.491 . S
Dy220 O226 2.403 . S
Dy220 O227 2.664 . S
Dy220 O231 2.326 . S
Dy220 O235 2.310 . S
Dy220 O236 2.351 . S
C221 O232 1.185 . S
C221 O233 1.355 . S
C222 O224 1.185 . S
C222 O225 1.355 . S
Dy223 O227 2.310 . S
Dy223 O230 2.351 . S
Dy223 O232 2.398 . S
Dy223 O233 2.491 . S
Dy223 O234 2.403 . S
Dy223 O235 2.664 . S
Dy223 O237 2.326 . S
O224 Dy220 2.398 . S
O224 C222 1.185 . S
O225 Dy220 2.491 . S
O225 C222 1.355 . S
O226 Dy220 2.403 . S
O226 C228 1.254 . S
O227 Dy220 2.664 . S
O227 Dy223 2.310 . S
O227 C228 1.268 . S
C228 O226 1.254 . S
C228 O227 1.268 . S
C229 O234 1.254 . S
C229 O235 1.268 . S
O230 Dy223 2.351 . S
O230 C238 1.249 . S
O231 Dy220 2.326 . S
O231 C238 1.267 . S
O232 C221 1.185 . S
O232 Dy223 2.398 . S
O233 C221 1.355 . S
O233 Dy223 2.491 . S
O234 Dy223 2.403 . S
O234 C229 1.254 . S
O235 Dy220 2.310 . S
O235 Dy223 2.664 . S
O235 C229 1.268 . S
O236 Dy220 2.351 . S
O236 C239 1.249 . S
O237 Dy223 2.326 . S
O237 C239 1.267 . S
C238 O230 1.249 . S
C238 O231 1.267 . S
C239 O236 1.249 . S
C239 O237 1.267 . S
Dy240 O244 2.398 . S
Dy240 O245 2.491 . S
Dy240 O246 2.403 . S
Dy240 O247 2.664 . S
Dy240 O251 2.326 . S
Dy240 O255 2.310 . S
Dy240 O256 2.351 . S
C241 O252 1.185 . S
C241 O253 1.355 . S
C242 O244 1.185 . S
C242 O245 1.355 . S
Dy243 O247 2.310 . S
Dy243 O250 2.351 . S
Dy243 O252 2.398 . S
Dy243 O253 2.491 . S
Dy243 O254 2.403 . S
Dy243 O255 2.664 . S
Dy243 O257 2.326 . S
O244 Dy240 2.398 . S
O244 C242 1.185 . S
O245 Dy240 2.491 . S
O245 C242 1.355 . S
O246 Dy240 2.403 . S
O246 C248 1.254 . S
O247 Dy240 2.664 . S
O247 Dy243 2.310 . S
O247 C248 1.268 . S
C248 O246 1.254 . S
C248 O247 1.268 . S
C249 O254 1.254 . S
C249 O255 1.268 . S
O250 Dy243 2.351 . S
O250 C258 1.249 . S
O251 Dy240 2.326 . S
O251 C258 1.267 . S
O252 C241 1.185 . S
O252 Dy243 2.398 . S
O253 C241 1.355 . S
O253 Dy243 2.491 . S
O254 Dy243 2.403 . S
O254 C249 1.254 . S
O255 Dy240 2.310 . S
O255 Dy243 2.664 . S
O255 C249 1.268 . S
O256 Dy240 2.351 . S
O256 C259 1.249 . S
O257 Dy243 2.326 . S
O257 C259 1.267 . S
C258 O250 1.249 . S
C258 O251 1.267 . S
C259 O256 1.249 . S
C259 O257 1.267 . S
Dy260 O264 2.398 . S
Dy260 O265 2.491 . S
Dy260 O266 2.403 . S
Dy260 O267 2.664 . S
Dy260 O271 2.326 . S
Dy260 O275 2.310 . S
Dy260 O276 2.351 . S
C261 O272 1.185 . S
C261 O273 1.355 . S
C262 O264 1.185 . S
C262 O265 1.355 . S
Dy263 O267 2.310 . S
Dy263 O270 2.351 . S
Dy263 O272 2.398 . S
Dy263 O273 2.491 . S
Dy263 O274 2.403 . S
Dy263 O275 2.664 . S
Dy263 O277 2.326 . S
O264 Dy260 2.398 . S
O264 C262 1.185 . S
O265 Dy260 2.491 . S
O265 C262 1.355 . S
O266 Dy260 2.403 . S
O266 C268 1.254 . S
O267 Dy260 2.664 . S
O267 Dy263 2.310 . S
O267 C268 1.268 . S
C268 O266 1.254 . S
C268 O267 1.268 . S
C269 O274 1.254 . S
C269 O275 1.268 . S
O270 Dy263 2.351 . S
O270 C278 1.249 . S
O271 Dy260 2.326 . S
O271 C278 1.267 . S
O272 C261 1.185 . S
O272 Dy263 2.398 . S
O273 C261 1.355 . S
O273 Dy263 2.491 . S
O274 Dy263 2.403 . S
O274 C269 1.254 . S
O275 Dy260 2.310 . S
O275 Dy263 2.664 . S
O275 C269 1.268 . S
O276 Dy260 2.351 . S
O276 C279 1.249 . S
O277 Dy263 2.326 . S
O277 C279 1.267 . S
C278 O270 1.249 . S
C278 O271 1.267 . S
C279 O276 1.249 . S
C279 O277 1.267 . S
Dy280 O284 2.398 . S
Dy280 O285 2.491 . S
Dy280 O286 2.403 . S
Dy280 O287 2.664 . S
Dy280 O291 2.326 . S
Dy280 O295 2.310 . S
Dy280 O296 2.351 . S
C281 O292 1.185 . S
C281 O293 1.355 . S
C282 O284 1.185 . S
C282 O285 1.355 . S
Dy283 O287 2.310 . S
Dy283 O290 2.351 . S
Dy283 O292 2.398 . S
Dy283 O293 2.491 . S
Dy283 O294 2.403 . S
Dy283 O295 2.664 . S
Dy283 O297 2.326 . S
O284 Dy280 2.398 . S
O284 C282 1.185 . S
O285 Dy280 2.491 . S
O285 C282 1.355 . S
O286 Dy280 2.403 . S
O286 C288 1.254 . S
O287 Dy280 2.664 . S
O287 Dy283 2.310 . S
O287 C288 1.268 . S
C288 O286 1.254 . S
C288 O287 1.268 . S
C289 O294 1.254 . S
C289 O295 1.268 . S
O290 Dy283 2.351 . S
O290 C298 1.249 . S
O291 Dy280 2.326 . S
O291 C298 1.267 . S
O292 C281 1.185 . S
O292 Dy283 2.398 . S
O293 C281 1.355 . S
O293 Dy283 2.491 . S
O294 Dy283 2.403 . S
O294 C289 1.254 . S
O295 Dy280 2.310 . S
O295 Dy283 2.664 . S
O295 C289 1.268 . S
O296 Dy280 2.351 . S
O296 C299 1.249 . S
O297 Dy283 2.326 . S
O297 C299 1.267 . S
C298 O290 1.249 . S
C298 O291 1.267 . S
C299 O296 1.249 . S
C299 O297 1.267 . S
Dy300 O304 2.398 . S
Dy300 O305 2.491 . S
Dy300 O306 2.403 . S
Dy300 O307 2.664 . S
Dy300 O311 2.326 . S
Dy300 O315 2.310 . S
Dy300 O316 2.351 . S
C301 O312 1.185 1_455 S
C301 O313 1.355 1_455 S
C302 O304 1.185 . S
C302 O305 1.355 . S
Dy303 O307 2.310 . S
Dy303 O310 2.351 . S
Dy303 O312 2.398 . S
Dy303 O313 2.491 . S
Dy303 O314 2.403 . S
Dy303 O315 2.664 . S
Dy303 O317 2.326 . S
O304 Dy300 2.398 . S
O304 C302 1.185 . S
O305 Dy300 2.491 . S
O305 C302 1.355 . S
O306 Dy300 2.403 . S
O306 C308 1.254 . S
O307 Dy300 2.664 . S
O307 Dy303 2.310 . S
O307 C308 1.268 . S
C308 O306 1.254 . S
C308 O307 1.268 . S
C309 O314 1.254 . S
C309 O315 1.268 . S
O310 Dy303 2.351 . S
O310 C318 1.249 . S
O311 Dy300 2.326 . S
O311 C318 1.267 . S
O312 C301 1.185 1_655 S
O312 Dy303 2.398 . S
O313 C301 1.355 1_655 S
O313 Dy303 2.491 . S
O314 Dy303 2.403 . S
O314 C309 1.254 . S
O315 Dy300 2.310 . S
O315 Dy303 2.664 . S
O315 C309 1.268 . S
O316 Dy300 2.351 . S
O316 C319 1.249 . S
O317 Dy303 2.326 . S
O317 C319 1.267 . S
C318 O310 1.249 . S
C318 O311 1.267 . S
C319 O316 1.249 . S
C319 O317 1.267 . S
Dy320 O324 2.398 . S
Dy320 O325 2.491 . S
Dy320 O326 2.403 . S
Dy320 O327 2.664 . S
Dy320 O331 2.326 . S
Dy320 O335 2.310 . S
Dy320 O336 2.351 . S
C321 O332 1.185 . S
C321 O333 1.355 . S
C322 O324 1.185 . S
C322 O325 1.355 . S
Dy323 O327 2.310 . S
Dy323 O330 2.351 . S
Dy323 O332 2.398 . S
Dy323 O333 2.491 . S
Dy323 O334 2.403 . S
Dy323 O335 2.664 . S
Dy323 O337 2.326 . S
O324 Dy320 2.398 . S
O324 C322 1.185 . S
O325 Dy320 2.491 . S
O325 C322 1.355 . S
O326 Dy320 2.403 . S
O326 C328 1.254 . S
O327 Dy320 2.664 . S
O327 Dy323 2.310 . S
O327 C328 1.268 . S
C328 O326 1.254 . S
C328 O327 1.268 . S
C329 O334 1.254 . S
C329 O335 1.268 . S
O330 Dy323 2.351 . S
O330 C338 1.249 . S
O331 Dy320 2.326 . S
O331 C338 1.267 . S
O332 C321 1.185 . S
O332 Dy323 2.398 . S
O333 C321 1.355 . S
O333 Dy323 2.491 . S
O334 Dy323 2.403 . S
O334 C329 1.254 . S
O335 Dy320 2.310 . S
O335 Dy323 2.664 . S
O335 C329 1.268 . S
O336 Dy320 2.351 . S
O336 C339 1.249 . S
O337 Dy323 2.326 . S
O337 C339 1.267 . S
C338 O330 1.249 . S
C338 O331 1.267 . S
C339 O336 1.249 . S
C339 O337 1.267 . S
Dy340 O344 2.398 . S
Dy340 O345 2.491 . S
Dy340 O346 2.403 . S
Dy340 O347 2.664 . S
Dy340 O351 2.326 . S
Dy340 O355 2.310 . S
Dy340 O356 2.351 . S
C341 O352 1.185 . S
C341 O353 1.355 . S
C342 O344 1.185 . S
C342 O345 1.355 . S
Dy343 O347 2.310 . S
Dy343 O350 2.351 . S
Dy343 O352 2.398 . S
Dy343 O353 2.491 . S
Dy343 O354 2.403 . S
Dy343 O355 2.664 . S
Dy343 O357 2.326 . S
O344 Dy340 2.398 . S
O344 C342 1.185 . S
O345 Dy340 2.491 . S
O345 C342 1.355 . S
O346 Dy340 2.403 . S
O346 C348 1.254 . S
O347 Dy340 2.664 . S
O347 Dy343 2.310 . S
O347 C348 1.268 . S
C348 O346 1.254 . S
C348 O347 1.268 . S
C349 O354 1.254 . S
C349 O355 1.268 . S
O350 Dy343 2.351 . S
O350 C358 1.249 . S
O351 Dy340 2.326 . S
O351 C358 1.267 . S
O352 C341 1.185 . S
O352 Dy343 2.398 . S
O353 C341 1.355 . S
O353 Dy343 2.491 . S
O354 Dy343 2.403 . S
O354 C349 1.254 . S
O355 Dy340 2.310 . S
O355 Dy343 2.664 . S
O355 C349 1.268 . S
O356 Dy340 2.351 . S
O356 C359 1.249 . S
O357 Dy343 2.326 . S
O357 C359 1.267 . S
C358 O350 1.249 . S
C358 O351 1.267 . S
C359 O356 1.249 . S
C359 O357 1.267 . S
Dy360 O364 2.398 . S
Dy360 O365 2.491 . S
Dy360 O366 2.403 . S
Dy360 O367 2.664 . S
Dy360 O371 2.326 . S
Dy360 O375 2.310 . S
Dy360 O376 2.351 . S
C361 O372 1.185 . S
C361 O373 1.355 . S
C362 O364 1.185 . S
C362 O365 1.355 . S
Dy363 O367 2.310 . S
Dy363 O370 2.351 . S
Dy363 O372 2.398 . S
Dy363 O373 2.491 . S
Dy363 O374 2.403 . S
Dy363 O375 2.664 . S
Dy363 O377 2.326 . S
O364 Dy360 2.398 . S
O364 C362 1.185 . S
O365 Dy360 2.491 . S
O365 C362 1.355 . S
O366 Dy360 2.403 . S
O366 C368 1.254 . S
O367 Dy360 2.664 . S
O367 Dy363 2.310 . S
O367 C368 1.268 . S
C368 O366 1.254 . S
C368 O367 1.268 . S
C369 O374 1.254 . S
C369 O375 1.268 . S
O370 Dy363 2.351 . S
O370 C378 1.249 . S
O371 Dy360 2.326 . S
O371 C378 1.267 . S
O372 C361 1.185 . S
O372 Dy363 2.398 . S
O373 C361 1.355 . S
O373 Dy363 2.491 . S
O374 Dy363 2.403 . S
O374 C369 1.254 . S
O375 Dy360 2.310 . S
O375 Dy363 2.664 . S
O375 C369 1.268 . S
O376 Dy360 2.351 . S
O376 C379 1.249 . S
O377 Dy363 2.326 . S
O377 C379 1.267 . S
C378 O370 1.249 . S
C378 O371 1.267 . S
C379 O376 1.249 . S
C379 O377 1.267 . S
Dy380 O384 2.398 . S
Dy380 O385 2.491 . S
Dy380 O386 2.403 . S
Dy380 O387 2.664 . S
Dy380 O391 2.326 . S
Dy380 O395 2.310 . S
Dy380 O396 2.351 . S
C381 O392 1.185 . S
C381 O393 1.355 . S
C382 O384 1.185 1_455 S
C382 O385 1.355 1_455 S
Dy383 O387 2.310 . S
Dy383 O390 2.351 . S
Dy383 O392 2.398 . S
Dy383 O393 2.491 . S
Dy383 O394 2.403 . S
Dy383 O395 2.664 . S
Dy383 O397 2.326 . S
O384 Dy380 2.398 . S
O384 C382 1.185 1_655 S
O385 Dy380 2.491 . S
O385 C382 1.355 1_655 S
O386 Dy380 2.403 . S
O386 C388 1.254 . S
O387 Dy380 2.664 . S
O387 Dy383 2.310 . S
O387 C388 1.268 . S
C388 O386 1.254 . S
C388 O387 1.268 . S
C389 O394 1.254 . S
C389 O395 1.268 . S
O390 Dy383 2.351 . S
O390 C398 1.249 . S
O391 Dy380 2.326 . S
O391 C398 1.267 . S
O392 C381 1.185 . S
O392 Dy383 2.398 . S
O393 C381 1.355 . S
O393 Dy383 2.491 . S
O394 Dy383 2.403 . S
O394 C389 1.254 . S
O395 Dy380 2.310 . S
O395 Dy383 2.664 . S
O395 C389 1.268 . S
O396 Dy380 2.351 . S
O396 C399 1.249 . S
O397 Dy383 2.326 . S
O397 C399 1.267 . S
C398 O390 1.249 . S
C398 O391 1.267 . S
C399 O396 1.249 . S
C399 O397 1.267 . S
Dy400 O404 2.398 . S
Dy400 O405 2.491 . S
Dy400 O406 2.403 . S
Dy400 O407 2.664 . S
Dy400 O411 2.326 . S
Dy400 O415 2.310 . S
Dy400 O416 2.351 . S
C401 O412 1.185 . S
C401 O413 1.355 . S
C402 O404 1.185 . S
C402 O405 1.355 . S
Dy403 O407 2.310 . S
Dy403 O410 2.351 . S
Dy403 O412 2.398 . S
Dy403 O413 2.491 . S
Dy403 O414 2.403 . S
Dy403 O415 2.664 . S
Dy403 O417 2.326 . S
O404 Dy400 2.398 . S
O404 C402 1.185 . S
O405 Dy400 2.491 . S
O405 C402 1.355 . S
O406 Dy400 2.403 . S
O406 C408 1.254 . S
O407 Dy400 2.664 . S
O407 Dy403 2.310 . S
O407 C408 1.268 . S
C408 O406 1.254 . S
C408 O407 1.268 . S
C409 O414 1.254 . S
C409 O415 1.268 . S
O410 Dy403 2.351 . S
O410 C418 1.249 . S
O411 Dy400 2.326 . S
O411 C418 1.267 . S
O412 C401 1.185 . S
O412 Dy403 2.398 . S
O413 C401 1.355 . S
O413 Dy403 2.491 . S
O414 Dy403 2.403 . S
O414 C409 1.254 . S
O415 Dy400 2.310 . S
O415 Dy403 2.664 . S
O415 C409 1.268 . S
O416 Dy400 2.351 . S
O416 C419 1.249 . S
O417 Dy403 2.326 . S
O417 C419 1.267 . S
C418 O410 1.249 . S
C418 O411 1.267 . S
C419 O416 1.249 . S
C419 O417 1.267 . S
Dy420 O424 2.398 . S
Dy420 O425 2.491 . S
Dy420 O426 2.403 . S
Dy420 O427 2.664 . S
Dy420 O431 2.326 . S
Dy420 O435 2.310 . S
Dy420 O436 2.351 . S
C421 O432 1.185 . S
C421 O433 1.355 . S
C422 O424 1.185 1_455 S
C422 O425 1.355 1_455 S
Dy423 O427 2.310 . S
Dy423 O430 2.351 . S
Dy423 O432 2.398 . S
Dy423 O433 2.491 . S
Dy423 O434 2.403 . S
Dy423 O435 2.664 . S
Dy423 O437 2.326 . S
O424 Dy420 2.398 . S
O424 C422 1.185 1_655 S
O425 Dy420 2.491 . S
O425 C422 1.355 1_655 S
O426 Dy420 2.403 . S
O426 C428 1.254 . S
O427 Dy420 2.664 . S
O427 Dy423 2.310 . S
O427 C428 1.268 . S
C428 O426 1.254 . S
C428 O427 1.268 . S
C429 O434 1.254 . S
C429 O435 1.268 . S
O430 Dy423 2.351 . S
O430 C438 1.249 . S
O431 Dy420 2.326 . S
O431 C438 1.267 . S
O432 C421 1.185 . S
O432 Dy423 2.398 . S
O433 C421 1.355 . S
O433 Dy423 2.491 . S
O434 Dy423 2.403 . S
O434 C429 1.254 . S
O435 Dy420 2.310 . S
O435 Dy423 2.664 . S
O435 C429 1.268 . S
O436 Dy420 2.351 . S
O436 C439 1.249 . S
O437 Dy423 2.326 . S
O437 C439 1.267 . S
C438 O430 1.249 . S
C438 O431 1.267 . S
C439 O436 1.249 . S
C439 O437 1.267 . S
Dy440 O444 2.398 . S
Dy440 O445 2.491 . S
Dy440 O446 2.403 . S
Dy440 O447 2.664 . S
Dy440 O451 2.326 . S
Dy440 O455 2.310 . S
Dy440 O456 2.351 . S
C441 O452 1.185 . S
C441 O453 1.355 . S
C442 O444 1.185 . S
C442 O445 1.355 . S
Dy443 O447 2.310 . S
Dy443 O450 2.351 . S
Dy443 O452 2.398 . S
Dy443 O453 2.491 . S
Dy443 O454 2.403 . S
Dy443 O455 2.664 . S
Dy443 O457 2.326 . S
O444 Dy440 2.398 . S
O444 C442 1.185 . S
O445 Dy440 2.491 . S
O445 C442 1.355 . S
O446 Dy440 2.403 . S
O446 C448 1.254 . S
O447 Dy440 2.664 . S
O447 Dy443 2.310 . S
O447 C448 1.268 . S
C448 O446 1.254 . S
C448 O447 1.268 . S
C449 O454 1.254 . S
C449 O455 1.268 . S
O450 Dy443 2.351 . S
O450 C458 1.249 . S
O451 Dy440 2.326 . S
O451 C458 1.267 . S
O452 C441 1.185 . S
O452 Dy443 2.398 . S
O453 C441 1.355 . S
O453 Dy443 2.491 . S
O454 Dy443 2.403 . S
O454 C449 1.254 . S
O455 Dy440 2.310 . S
O455 Dy443 2.664 . S
O455 C449 1.268 . S
O456 Dy440 2.351 . S
O456 C459 1.249 . S
O457 Dy443 2.326 . S
O457 C459 1.267 . S
C458 O450 1.249 . S
C458 O451 1.267 . S
C459 O456 1.249 . S
C459 O457 1.267 . S
Dy460 O464 2.398 . S
Dy460 O465 2.491 . S
Dy460 O466 2.403 . S
Dy460 O467 2.664 . S
Dy460 O471 2.326 . S
Dy460 O475 2.310 . S
Dy460 O476 2.351 . S
C461 O472 1.185 . S
C461 O473 1.355 . S
C462 O464 1.185 . S
C462 O465 1.355 . S
Dy463 O467 2.310 . S
Dy463 O470 2.351 . S
Dy463 O472 2.398 . S
Dy463 O473 2.491 . S
Dy463 O474 2.403 . S
Dy463 O475 2.664 . S
Dy463 O477 2.326 . S
O464 Dy460 2.398 . S
O464 C462 1.185 . S
O465 Dy460 2.491 . S
O465 C462 1.355 . S
O466 Dy460 2.403 . S
O466 C468 1.254 . S
O467 Dy460 2.664 . S
O467 Dy463 2.310 . S
O467 C468 1.268 . S
C468 O466 1.254 . S
C468 O467 1.268 . S
C469 O474 1.254 . S
C469 O475 1.268 . S
O470 Dy463 2.351 . S
O470 C478 1.249 . S
O471 Dy460 2.326 . S
O471 C478 1.267 . S
O472 C461 1.185 . S
O472 Dy463 2.398 . S
O473 C461 1.355 . S
O473 Dy463 2.491 . S
O474 Dy463 2.403 . S
O474 C469 1.254 . S
O475 Dy460 2.310 . S
O475 Dy463 2.664 . S
O475 C469 1.268 . S
O476 Dy460 2.351 . S
O476 C479 1.249 . S
O477 Dy463 2.326 . S
O477 C479 1.267 . S
C478 O470 1.249 . S
C478 O471 1.267 . S
C479 O476 1.249 . S
C479 O477 1.267 . S
Dy480 O484 2.398 . S
Dy480 O485 2.491 . S
Dy480 O486 2.403 . S
Dy480 O487 2.664 . S
Dy480 O491 2.326 . S
Dy480 O495 2.310 . S
Dy480 O496 2.351 . S
C481 O492 1.185 . S
C481 O493 1.355 . S
C482 O484 1.185 . S
C482 O485 1.355 . S
Dy483 O487 2.310 . S
Dy483 O490 2.351 . S
Dy483 O492 2.398 . S
Dy483 O493 2.491 . S
Dy483 O494 2.403 . S
Dy483 O495 2.664 . S
Dy483 O497 2.326 . S
O484 Dy480 2.398 . S
O484 C482 1.185 . S
O485 Dy480 2.491 . S
O485 C482 1.355 . S
O486 Dy480 2.403 . S
O486 C488 1.254 . S
O487 Dy480 2.664 . S
O487 Dy483 2.310 . S
O487 C488 1.268 . S
C488 O486 1.254 . S
C488 O487 1.268 . S
C489 O494 1.254 . S
C489 O495 1.268 . S
O490 Dy483 2.351 . S
O490 C498 1.249 . S
O491 Dy480 2.326 . S
O491 C498 1.267 . S
O492 C481 1.185 . S
O492 Dy483 2.398 . S
O493 C481 1.355 . S
O493 Dy483 2.491 . S
O494 Dy483 2.403 . S
O494 C489 1.254 . S
O495 Dy480 2.310 . S
O495 Dy483 2.664 . S
O495 C489 1.268 . S
O496 Dy480 2.351 . S
O496 C499 1.249 . S
O497 Dy483 2.326 . S
O497 C499 1.267 . S
C498 O490 1.249 . S
C498 O491 1.267 . S
C499 O496 1.249 . S
C499 O497 1.267 . S
Dy500 O504 2.398 . S
Dy500 O505 2.491 . S
Dy500 O506 2.403 . S
Dy500 O507 2.664 . S
Dy500 O511 2.326 . S
Dy500 O515 2.310 . S
Dy500 O516 2.351 . S
C501 O512 1.185 . S
C501 O513 1.355 . S
C502 O504 1.185 . S
C502 O505 1.355 . S
Dy503 O507 2.310 . S
Dy503 O510 2.351 . S
Dy503 O512 2.398 . S
Dy503 O513 2.491 . S
Dy503 O514 2.403 . S
Dy503 O515 2.664 . S
Dy503 O517 2.326 . S
O504 Dy500 2.398 . S
O504 C502 1.185 . S
O505 Dy500 2.491 . S
O505 C502 1.355 . S
O506 Dy500 2.403 . S
O506 C508 1.254 . S
O507 Dy500 2.664 . S
O507 Dy503 2.310 . S
O507 C508 1.268 . S
C508 O506 1.254 . S
C508 O507 1.268 . S
C509 O514 1.254 . S
C509 O515 1.268 . S
O510 Dy503 2.351 . S
O510 C518 1.249 . S
O511 Dy500 2.326 . S
O511 C518 1.267 . S
O512 C501 1.185 . S
O512 Dy503 2.398 . S
O513 C501 1.355 . S
O513 Dy503 2.491 . S
O514 Dy503 2.403 . S
O514 C509 1.254 . S
O515 Dy500 2.310 . S
O515 Dy503 2.664 . S
O515 C509 1.268 . S
O516 Dy500 2.351 . S
O516 C519 1.249 . S
O517 Dy503 2.326 . S
O517 C519 1.267 . S
C518 O510 1.249 . S
C518 O511 1.267 . S
C519 O516 1.249 . S
C519 O517 1.267 . S
Dy520 O524 2.398 . S
Dy520 O525 2.491 . S
Dy520 O526 2.403 . S
Dy520 O527 2.664 . S
Dy520 O531 2.326 . S
Dy520 O535 2.310 . S
Dy520 O536 2.351 . S
C521 O532 1.185 . S
C521 O533 1.355 . S
C522 O524 1.185 . S
C522 O525 1.355 . S
Dy523 O527 2.310 . S
Dy523 O530 2.351 . S
Dy523 O532 2.398 . S
Dy523 O533 2.491 . S
Dy523 O534 2.403 . S
Dy523 O535 2.664 . S
Dy523 O537 2.326 . S
O524 Dy520 2.398 . S
O524 C522 1.185 . S
O525 Dy520 2.491 . S
O525 C522 1.355 . S
O526 Dy520 2.403 . S
O526 C528 1.254 . S
O527 Dy520 2.664 . S
O527 Dy523 2.310 . S
O527 C528 1.268 . S
C528 O526 1.254 . S
C528 O527 1.268 . S
C529 O534 1.254 . S
C529 O535 1.268 . S
O530 Dy523 2.351 . S
O530 C538 1.249 . S
O531 Dy520 2.326 . S
O531 C538 1.267 . S
O532 C521 1.185 . S
O532 Dy523 2.398 . S
O533 C521 1.355 . S
O533 Dy523 2.491 . S
O534 Dy523 2.403 . S
O534 C529 1.254 . S
O535 Dy520 2.310 . S
O535 Dy523 2.664 . S
O535 C529 1.268 . S
O536 Dy520 2.351 . S
O536 C539 1.249 . S
O537 Dy523 2.326 . S
O537 C539 1.267 . S
C538 O530 1.249 . S
C538 O531 1.267 . S
C539 O536 1.249 . S
C539 O537 1.267 . S
Dy540 O544 2.398 . S
Dy540 O545 2.491 . S
Dy540 O546 2.403 . S
Dy540 O547 2.664 . S
Dy540 O551 2.326 . S
Dy540 O555 2.310 . S
Dy540 O556 2.351 . S
C541 O552 1.185 1_655 S
C541 O553 1.355 1_655 S
C542 O544 1.185 . S
C542 O545 1.355 . S
Dy543 O547 2.310 . S
Dy543 O550 2.351 . S
Dy543 O552 2.398 . S
Dy543 O553 2.491 . S
Dy543 O554 2.403 . S
Dy543 O555 2.664 . S
Dy543 O557 2.326 . S
O544 Dy540 2.398 . S
O544 C542 1.185 . S
O545 Dy540 2.491 . S
O545 C542 1.355 . S
O546 Dy540 2.403 . S
O546 C548 1.254 . S
O547 Dy540 2.664 . S
O547 Dy543 2.310 . S
O547 C548 1.268 . S
C548 O546 1.254 . S
C548 O547 1.268 . S
C549 O554 1.254 . S
C549 O555 1.268 . S
O550 Dy543 2.351 . S
O550 C558 1.249 . S
O551 Dy540 2.326 . S
O551 C558 1.267 . S
O552 C541 1.185 1_455 S
O552 Dy543 2.398 . S
O553 C541 1.355 1_455 S
O553 Dy543 2.491 . S
O554 Dy543 2.403 . S
O554 C549 1.254 . S
O555 Dy540 2.310 . S
O555 Dy543 2.664 . S
O555 C549 1.268 . S
O556 Dy540 2.351 . S
O556 C559 1.249 . S
O557 Dy543 2.326 . S
O557 C559 1.267 . S
C558 O550 1.249 . S
C558 O551 1.267 . S
C559 O556 1.249 . S
C559 O557 1.267 . S
Dy560 O564 2.398 . S
Dy560 O565 2.491 . S
Dy560 O566 2.403 . S
Dy560 O567 2.664 . S
Dy560 O571 2.326 . S
Dy560 O575 2.310 . S
Dy560 O576 2.351 . S
C561 O572 1.185 . S
C561 O573 1.355 . S
C562 O564 1.185 . S
C562 O565 1.355 . S
Dy563 O567 2.310 . S
Dy563 O570 2.351 . S
Dy563 O572 2.398 . S
Dy563 O573 2.491 . S
Dy563 O574 2.403 . S
Dy563 O575 2.664 . S
Dy563 O577 2.326 . S
O564 Dy560 2.398 . S
O564 C562 1.185 . S
O565 Dy560 2.491 . S
O565 C562 1.355 . S
O566 Dy560 2.403 . S
O566 C568 1.254 . S
O567 Dy560 2.664 . S
O567 Dy563 2.310 . S
O567 C568 1.268 . S
C568 O566 1.254 . S
C568 O567 1.268 . S
C569 O574 1.254 . S
C569 O575 1.268 . S
O570 Dy563 2.351 . S
O570 C578 1.249 . S
O571 Dy560 2.326 . S
O571 C578 1.267 . S
O572 C561 1.185 . S
O572 Dy563 2.398 . S
O573 C561 1.355 . S
O573 Dy563 2.491 . S
O574 Dy563 2.403 . S
O574 C569 1.254 . S
O575 Dy560 2.310 . S
O575 Dy563 2.664 . S
O575 C569 1.268 . S
O576 Dy560 2.351 . S
O576 C579 1.249 . S
O577 Dy563 2.326 . S
O577 C579 1.267 . S
C578 O570 1.249 . S
C578 O571 1.267 . S
C579 O576 1.249 . S
C579 O577 1.267 . S
Dy580 O584 2.398 . S
Dy580 O585 2.491 . S
Dy580 O586 2.403 . S
Dy580 O587 2.664 . S
Dy580 O591 2.326 . S
Dy580 O595 2.310 . S
Dy580 O596 2.351 . S
C581 O592 1.185 1_655 S
C581 O593 1.355 1_655 S
C582 O584 1.185 . S
C582 O585 1.355 . S
Dy583 O587 2.310 . S
Dy583 O590 2.351 . S
Dy583 O592 2.398 . S
Dy583 O593 2.491 . S
Dy583 O594 2.403 . S
Dy583 O595 2.664 . S
Dy583 O597 2.326 . S
O584 Dy580 2.398 . S
O584 C582 1.185 . S
O585 Dy580 2.491 . S
O585 C582 1.355 . S
O586 Dy580 2.403 . S
O586 C588 1.254 . S
O587 Dy580 2.664 . S
O587 Dy583 2.310 . S
O587 C588 1.268 . S
C588 O586 1.254 . S
C588 O587 1.268 . S
C589 O594 1.254 . S
C589 O595 1.268 . S
O590 Dy583 2.351 . S
O590 C598 1.249 . S
O591 Dy580 2.326 . S
O591 C598 1.267 . S
O592 C581 1.185 1_455 S
O592 Dy583 2.398 . S
O593 C581 1.355 1_455 S
O593 Dy583 2.491 . S
O594 Dy583 2.403 . S
O594 C589 1.254 . S
O595 Dy580 2.310 . S
O595 Dy583 2.664 . S
O595 C589 1.268 . S
O596 Dy580 2.351 . S
O596 C599 1.249 . S
O597 Dy583 2.326 . S
O597 C599 1.267 . S
C598 O590 1.249 . S
C598 O591 1.267 . S
C599 O596 1.249 . S
C599 O597 1.267 . S
Dy600 O604 2.398 . S
Dy600 O605 2.491 . S
Dy600 O606 2.403 . S
Dy600 O607 2.664 . S
Dy600 O611 2.326 . S
Dy600 O615 2.310 . S
Dy600 O616 2.351 . S
C601 O612 1.185 . S
C601 O613 1.355 . S
C602 O604 1.185 . S
C602 O605 1.355 . S
Dy603 O607 2.310 . S
Dy603 O610 2.351 . S
Dy603 O612 2.398 . S
Dy603 O613 2.491 . S
Dy603 O614 2.403 . S
Dy603 O615 2.664 . S
Dy603 O617 2.326 . S
O604 Dy600 2.398 . S
O604 C602 1.185 . S
O605 Dy600 2.491 . S
O605 C602 1.355 . S
O606 Dy600 2.403 . S
O606 C608 1.254 . S
O607 Dy600 2.664 . S
O607 Dy603 2.310 . S
O607 C608 1.268 . S
C608 O606 1.254 . S
C608 O607 1.268 . S
C609 O614 1.254 . S
C609 O615 1.268 . S
O610 Dy603 2.351 . S
O610 C618 1.249 . S
O611 Dy600 2.326 . S
O611 C618 1.267 . S
O612 C601 1.185 . S
O612 Dy603 2.398 . S
O613 C601 1.355 . S
O613 Dy603 2.491 . S
O614 Dy603 2.403 . S
O614 C609 1.254 . S
O615 Dy600 2.310 . S
O615 Dy603 2.664 . S
O615 C609 1.268 . S
O616 Dy600 2.351 . S
O616 C619 1.249 . S
O617 Dy603 2.326 . S
O617 C619 1.267 . S
C618 O610 1.249 . S
C618 O611 1.267 . S
C619 O616 1.249 . S
C619 O617 1.267 . S
Dy620 O624 2.398 . S
Dy620 O625 2.491 . S
Dy620 O626 2.403 . S
Dy620 O627 2.664 . S
Dy620 O631 2.326 . S
Dy620 O635 2.310 . S
Dy620 O636 2.351 . S
C621 O632 1.185 . S
C621 O633 1.355 . S
C622 O624 1.185 . S
C622 O625 1.355 . S
Dy623 O627 2.310 . S
Dy623 O630 2.351 . S
Dy623 O632 2.398 . S
Dy623 O633 2.491 . S
Dy623 O634 2.403 . S
Dy623 O635 2.664 . S
Dy623 O637 2.326 . S
O624 Dy620 2.398 . S
O624 C622 1.185 . S
O625 Dy620 2.491 . S
O625 C622 1.355 . S
O626 Dy620 2.403 . S
O626 C628 1.254 . S
O627 Dy620 2.664 . S
O627 Dy623 2.310 . S
O627 C628 1.268 . S
C628 O626 1.254 . S
C628 O627 1.268 . S
C629 O634 1.254 . S
C629 O635 1.268 . S
O630 Dy623 2.351 . S
O630 C638 1.249 . S
O631 Dy620 2.326 . S
O631 C638 1.267 . S
O632 C621 1.185 . S
O632 Dy623 2.398 . S
O633 C621 1.355 . S
O633 Dy623 2.491 . S
O634 Dy623 2.403 . S
O634 C629 1.254 . S
O635 Dy620 2.310 . S
O635 Dy623 2.664 . S
O635 C629 1.268 . S
O636 Dy620 2.351 . S
O636 C639 1.249 . S
O637 Dy623 2.326 . S
O637 C639 1.267 . S
C638 O630 1.249 . S
C638 O631 1.267 . S
C639 O636 1.249 . S
C639 O637 1.267 . S
H640 C646 0.930 . S
H641 C650 0.930 . S
H642 C655 0.929 . S
H643 C653 0.929 . S
H644 C648 0.929 . S
H645 C654 0.929 . S
C646 H640 0.930 . S
C646 C647 1.367 . S
C646 C654 1.378 . S
C647 C646 1.367 . S
C647 C655 1.433 . S
C648 H644 0.929 . S
C648 C650 1.378 . S
C648 C652 1.350 . S
C649 C652 1.463 . S
C649 C654 1.350 . S
C649 N657 1.427 . S
C650 H641 0.930 . S
C650 C648 1.378 . S
C650 C651 1.367 . S
C651 C650 1.367 . S
C651 C653 1.433 . S
C652 C648 1.350 . S
C652 C649 1.463 . S
C652 N656 1.427 . S
C653 H643 0.929 . S
C653 C651 1.433 . S
C653 N656 1.384 . S
C654 H645 0.929 . S
C654 C646 1.378 . S
C654 C649 1.350 . S
C655 H642 0.929 . S
C655 C647 1.433 . S
C655 N657 1.384 . S
N656 C652 1.427 . S
N656 C653 1.384 . S
N657 C649 1.427 . S
N657 C655 1.384 . S
H658 C664 0.930 . S
H659 C668 0.930 . S
H660 C673 0.929 . S
H661 C671 0.929 . S
H662 C666 0.929 . S
H663 C672 0.929 . S
C664 H658 0.930 . S
C664 C665 1.367 . S
C664 C672 1.378 . S
C665 C664 1.367 . S
C665 C673 1.433 . S
C666 H662 0.929 . S
C666 C668 1.378 . S
C666 C670 1.350 . S
C667 C670 1.463 . S
C667 C672 1.350 . S
C667 N675 1.427 . S
C668 H659 0.930 . S
C668 C666 1.378 . S
C668 C669 1.367 . S
C669 C668 1.367 . S
C669 C671 1.433 . S
C670 C666 1.350 . S
C670 C667 1.463 . S
C670 N674 1.427 . S
C671 H661 0.929 . S
C671 C669 1.433 . S
C671 N674 1.384 . S
C672 H663 0.929 . S
C672 C664 1.378 . S
C672 C667 1.350 . S
C673 H660 0.929 . S
C673 C665 1.433 . S
C673 N675 1.384 . S
N674 C670 1.427 . S
N674 C671 1.384 . S
N675 C667 1.427 . S
N675 C673 1.384 . S
H676 C682 0.930 . S
H677 C686 0.930 . S
H678 C691 0.929 . S
H679 C689 0.929 . S
H680 C684 0.929 . S
H681 C690 0.929 . S
C682 H676 0.930 . S
C682 C683 1.367 . S
C682 C690 1.378 . S
C683 C682 1.367 . S
C683 C691 1.433 . S
C684 H680 0.929 . S
C684 C686 1.378 . S
C684 C688 1.350 . S
C685 C688 1.463 . S
C685 C690 1.350 . S
C685 N693 1.427 . S
C686 H677 0.930 . S
C686 C684 1.378 . S
C686 C687 1.367 . S
C687 C686 1.367 . S
C687 C689 1.433 . S
C688 C684 1.350 . S
C688 C685 1.463 . S
C688 N692 1.427 . S
C689 H679 0.929 . S
C689 C687 1.433 . S
C689 N692 1.384 . S
C690 H681 0.929 . S
C690 C682 1.378 . S
C690 C685 1.350 . S
C691 H678 0.929 . S
C691 C683 1.433 . S
C691 N693 1.384 . S
N692 C688 1.427 . S
N692 C689 1.384 . S
N693 C685 1.427 . S
N693 C691 1.384 . S
H694 C700 0.930 . S
H695 C704 0.930 . S
H696 C709 0.929 . S
H697 C707 0.929 . S
H698 C702 0.929 . S
H699 C708 0.929 . S
C700 H694 0.930 . S
C700 C701 1.367 . S
C700 C708 1.378 . S
C701 C700 1.367 . S
C701 C709 1.433 . S
C702 H698 0.929 . S
C702 C704 1.378 . S
C702 C706 1.350 . S
C703 C706 1.463 . S
C703 C708 1.350 . S
C703 N711 1.427 . S
C704 H695 0.930 . S
C704 C702 1.378 . S
C704 C705 1.367 . S
C705 C704 1.367 . S
C705 C707 1.433 . S
C706 C702 1.350 . S
C706 C703 1.463 . S
C706 N710 1.427 . S
C707 H697 0.929 . S
C707 C705 1.433 . S
C707 N710 1.384 . S
C708 H699 0.929 . S
C708 C700 1.378 . S
C708 C703 1.350 . S
C709 H696 0.929 . S
C709 C701 1.433 . S
C709 N711 1.384 . S
N710 C706 1.427 . S
N710 C707 1.384 . S
N711 C703 1.427 . S
N711 C709 1.384 . S
H712 C718 0.930 . S
H713 C722 0.930 . S
H714 C727 0.929 . S
H715 C725 0.929 . S
H716 C720 0.929 . S
H717 C726 0.929 . S
C718 H712 0.930 . S
C718 C719 1.367 . S
C718 C726 1.378 . S
C719 C718 1.367 . S
C719 C727 1.433 . S
C720 H716 0.929 . S
C720 C722 1.378 . S
C720 C724 1.350 . S
C721 C724 1.463 . S
C721 C726 1.350 . S
C721 N729 1.427 . S
C722 H713 0.930 . S
C722 C720 1.378 . S
C722 C723 1.367 . S
C723 C722 1.367 . S
C723 C725 1.433 . S
C724 C720 1.350 . S
C724 C721 1.463 . S
C724 N728 1.427 . S
C725 H715 0.929 . S
C725 C723 1.433 . S
C725 N728 1.384 . S
C726 H717 0.929 . S
C726 C718 1.378 . S
C726 C721 1.350 . S
C727 H714 0.929 . S
C727 C719 1.433 . S
C727 N729 1.384 . S
N728 C724 1.427 . S
N728 C725 1.384 . S
N729 C721 1.427 . S
N729 C727 1.384 . S
H730 C736 0.930 . S
H731 C740 0.930 . S
H732 C745 0.929 . S
H733 C743 0.929 . S
H734 C738 0.929 . S
H735 C744 0.929 . S
C736 H730 0.930 . S
C736 C737 1.367 . S
C736 C744 1.378 . S
C737 C736 1.367 . S
C737 C745 1.433 . S
C738 H734 0.929 . S
C738 C740 1.378 . S
C738 C742 1.350 . S
C739 C742 1.463 . S
C739 C744 1.350 . S
C739 N747 1.427 . S
C740 H731 0.930 . S
C740 C738 1.378 . S
C740 C741 1.367 . S
C741 C740 1.367 . S
C741 C743 1.433 . S
C742 C738 1.350 . S
C742 C739 1.463 . S
C742 N746 1.427 . S
C743 H733 0.929 . S
C743 C741 1.433 . S
C743 N746 1.384 . S
C744 H735 0.929 . S
C744 C736 1.378 . S
C744 C739 1.350 . S
C745 H732 0.929 . S
C745 C737 1.433 . S
C745 N747 1.384 . S
N746 C742 1.427 . S
N746 C743 1.384 . S
N747 C739 1.427 . S
N747 C745 1.384 . S
H748 C754 0.930 . S
H749 C758 0.930 . S
H750 C763 0.929 . S
H751 C761 0.929 . S
H752 C756 0.929 . S
H753 C762 0.929 . S
C754 H748 0.930 . S
C754 C755 1.367 . S
C754 C762 1.378 . S
C755 C754 1.367 . S
C755 C763 1.433 . S
C756 H752 0.929 . S
C756 C758 1.378 . S
C756 C760 1.350 . S
C757 C760 1.463 . S
C757 C762 1.350 . S
C757 N765 1.427 . S
C758 H749 0.930 . S
C758 C756 1.378 . S
C758 C759 1.367 . S
C759 C758 1.367 . S
C759 C761 1.433 . S
C760 C756 1.350 . S
C760 C757 1.463 . S
C760 N764 1.427 . S
C761 H751 0.929 . S
C761 C759 1.433 . S
C761 N764 1.384 . S
C762 H753 0.929 . S
C762 C754 1.378 . S
C762 C757 1.350 . S
C763 H750 0.929 . S
C763 C755 1.433 . S
C763 N765 1.384 . S
N764 C760 1.427 . S
N764 C761 1.384 . S
N765 C757 1.427 . S
N765 C763 1.384 . S
H766 C772 0.930 . S
H767 C776 0.930 . S
H768 C781 0.929 . S
H769 C779 0.929 . S
H770 C774 0.929 . S
H771 C780 0.929 . S
C772 H766 0.930 . S
C772 C773 1.367 . S
C772 C780 1.378 . S
C773 C772 1.367 . S
C773 C781 1.433 1_655 S
C774 H770 0.929 . S
C774 C776 1.378 . S
C774 C778 1.350 . S
C775 C778 1.463 . S
C775 C780 1.350 . S
C775 N783 1.427 . S
C776 H767 0.930 . S
C776 C774 1.378 . S
C776 C777 1.367 . S
C777 C776 1.367 . S
C777 C779 1.433 . S
C778 C774 1.350 . S
C778 C775 1.463 . S
C778 N782 1.427 . S
C779 H769 0.929 . S
C779 C777 1.433 . S
C779 N782 1.384 . S
C780 H771 0.929 . S
C780 C772 1.378 . S
C780 C775 1.350 . S
C781 H768 0.929 . S
C781 C773 1.433 1_455 S
C781 N783 1.384 1_455 S
N782 C778 1.427 . S
N782 C779 1.384 . S
N783 C775 1.427 . S
N783 C781 1.384 1_655 S
H784 C790 0.930 . S
H785 C794 0.930 . S
H786 C799 0.929 . S
H787 C797 0.929 . S
H788 C792 0.929 . S
H789 C798 0.929 . S
C790 H784 0.930 . S
C790 C791 1.367 . S
C790 C798 1.378 . S
C791 C790 1.367 . S
C791 C799 1.433 . S
C792 H788 0.929 . S
C792 C794 1.378 . S
C792 C796 1.350 . S
C793 C796 1.463 . S
C793 C798 1.350 . S
C793 N801 1.427 . S
C794 H785 0.930 . S
C794 C792 1.378 . S
C794 C795 1.367 . S
C795 C794 1.367 . S
C795 C797 1.433 . S
C796 C792 1.350 . S
C796 C793 1.463 . S
C796 N800 1.427 . S
C797 H787 0.929 . S
C797 C795 1.433 . S
C797 N800 1.384 . S
C798 H789 0.929 . S
C798 C790 1.378 . S
C798 C793 1.350 . S
C799 H786 0.929 . S
C799 C791 1.433 . S
C799 N801 1.384 . S
N800 C796 1.427 . S
N800 C797 1.384 . S
N801 C793 1.427 . S
N801 C799 1.384 . S
H802 C808 0.930 . S
H803 C812 0.930 . S
H804 C817 0.929 1_655 S
H805 C815 0.929 . S
H806 C810 0.929 . S
H807 C816 0.929 . S
C808 H802 0.930 . S
C808 C809 1.367 . S
C808 C816 1.378 . S
C809 C808 1.367 . S
C809 C817 1.433 . S
C810 H806 0.929 . S
C810 C812 1.378 . S
C810 C814 1.350 . S
C811 C814 1.463 . S
C811 C816 1.350 . S
C811 N819 1.427 . S
C812 H803 0.930 . S
C812 C810 1.378 . S
C812 C813 1.367 . S
C813 C812 1.367 . S
C813 C815 1.433 . S
C814 C810 1.350 . S
C814 C811 1.463 . S
C814 N818 1.427 . S
C815 H805 0.929 . S
C815 C813 1.433 . S
C815 N818 1.384 . S
C816 H807 0.929 . S
C816 C808 1.378 . S
C816 C811 1.350 . S
C817 H804 0.929 1_455 S
C817 C809 1.433 . S
C817 N819 1.384 . S
N818 C814 1.427 . S
N818 C815 1.384 . S
N819 C811 1.427 . S
N819 C817 1.384 . S
H820 C826 0.930 . S
H821 C830 0.930 . S
H822 C835 0.929 . S
H823 C833 0.929 . S
H824 C828 0.929 . S
H825 C834 0.929 . S
C826 H820 0.930 . S
C826 C827 1.367 . S
C826 C834 1.378 . S
C827 C826 1.367 . S
C827 C835 1.433 . S
C828 H824 0.929 . S
C828 C830 1.378 . S
C828 C832 1.350 . S
C829 C832 1.463 . S
C829 C834 1.350 . S
C829 N837 1.427 . S
C830 H821 0.930 . S
C830 C828 1.378 . S
C830 C831 1.367 . S
C831 C830 1.367 . S
C831 C833 1.433 . S
C832 C828 1.350 . S
C832 C829 1.463 . S
C832 N836 1.427 . S
C833 H823 0.929 . S
C833 C831 1.433 . S
C833 N836 1.384 . S
C834 H825 0.929 . S
C834 C826 1.378 . S
C834 C829 1.350 . S
C835 H822 0.929 . S
C835 C827 1.433 . S
C835 N837 1.384 . S
N836 C832 1.427 . S
N836 C833 1.384 . S
N837 C829 1.427 . S
N837 C835 1.384 . S
H838 C844 0.930 . S
H839 C848 0.930 . S
H840 C853 0.929 . S
H841 C851 0.929 . S
H842 C846 0.929 . S
H843 C852 0.929 . S
C844 H838 0.930 . S
C844 C845 1.367 . S
C844 C852 1.378 . S
C845 C844 1.367 . S
C845 C853 1.433 . S
C846 H842 0.929 . S
C846 C848 1.378 . S
C846 C850 1.350 . S
C847 C850 1.463 . S
C847 C852 1.350 . S
C847 N855 1.427 . S
C848 H839 0.930 . S
C848 C846 1.378 . S
C848 C849 1.367 . S
C849 C848 1.367 . S
C849 C851 1.433 . S
C850 C846 1.350 . S
C850 C847 1.463 . S
C850 N854 1.427 . S
C851 H841 0.929 . S
C851 C849 1.433 . S
C851 N854 1.384 . S
C852 H843 0.929 . S
C852 C844 1.378 . S
C852 C847 1.350 . S
C853 H840 0.929 . S
C853 C845 1.433 . S
C853 N855 1.384 . S
N854 C850 1.427 . S
N854 C851 1.384 . S
N855 C847 1.427 . S
N855 C853 1.384 . S
H856 C862 0.930 . S
H857 C866 0.930 . S
H858 C871 0.929 . S
H859 C869 0.929 . S
H860 C864 0.929 . S
H861 C870 0.929 . S
C862 H856 0.930 . S
C862 C863 1.367 . S
C862 C870 1.378 . S
C863 C862 1.367 . S
C863 C871 1.433 . S
C864 H860 0.929 . S
C864 C866 1.378 . S
C864 C868 1.350 . S
C865 C868 1.463 . S
C865 C870 1.350 . S
C865 N873 1.427 . S
C866 H857 0.930 . S
C866 C864 1.378 . S
C866 C867 1.367 . S
C867 C866 1.367 . S
C867 C869 1.433 . S
C868 C864 1.350 . S
C868 C865 1.463 . S
C868 N872 1.427 . S
C869 H859 0.929 . S
C869 C867 1.433 . S
C869 N872 1.384 . S
C870 H861 0.929 . S
C870 C862 1.378 . S
C870 C865 1.350 . S
C871 H858 0.929 . S
C871 C863 1.433 . S
C871 N873 1.384 . S
N872 C868 1.427 . S
N872 C869 1.384 . S
N873 C865 1.427 . S
N873 C871 1.384 . S
H874 C880 0.930 . S
H875 C884 0.930 . S
H876 C889 0.929 . S
H877 C887 0.929 . S
H878 C882 0.929 . S
H879 C888 0.929 . S
C880 H874 0.930 . S
C880 C881 1.367 . S
C880 C888 1.378 . S
C881 C880 1.367 . S
C881 C889 1.433 . S
C882 H878 0.929 . S
C882 C884 1.378 . S
C882 C886 1.350 . S
C883 C886 1.463 . S
C883 C888 1.350 . S
C883 N891 1.427 . S
C884 H875 0.930 . S
C884 C882 1.378 . S
C884 C885 1.367 . S
C885 C884 1.367 . S
C885 C887 1.433 . S
C886 C882 1.350 . S
C886 C883 1.463 . S
C886 N890 1.427 . S
C887 H877 0.929 . S
C887 C885 1.433 . S
C887 N890 1.384 . S
C888 H879 0.929 . S
C888 C880 1.378 . S
C888 C883 1.350 . S
C889 H876 0.929 . S
C889 C881 1.433 . S
C889 N891 1.384 . S
N890 C886 1.427 . S
N890 C887 1.384 . S
N891 C883 1.427 . S
N891 C889 1.384 . S
H892 C898 0.930 . S
H893 C902 0.930 . S
H894 C907 0.929 . S
H895 C905 0.929 . S
H896 C900 0.929 . S
H897 C906 0.929 . S
C898 H892 0.930 . S
C898 C899 1.367 . S
C898 C906 1.378 . S
C899 C898 1.367 . S
C899 C907 1.433 . S
C900 H896 0.929 . S
C900 C902 1.378 . S
C900 C904 1.350 . S
C901 C904 1.463 . S
C901 C906 1.350 . S
C901 N909 1.427 . S
C902 H893 0.930 . S
C902 C900 1.378 . S
C902 C903 1.367 . S
C903 C902 1.367 . S
C903 C905 1.433 . S
C904 C900 1.350 . S
C904 C901 1.463 . S
C904 N908 1.427 . S
C905 H895 0.929 . S
C905 C903 1.433 . S
C905 N908 1.384 . S
C906 H897 0.929 . S
C906 C898 1.378 . S
C906 C901 1.350 . S
C907 H894 0.929 . S
C907 C899 1.433 . S
C907 N909 1.384 . S
N908 C904 1.427 . S
N908 C905 1.384 . S
N909 C901 1.427 . S
N909 C907 1.384 . S
H910 C916 0.930 . S
H911 C920 0.930 . S
H912 C925 0.929 . S
H913 C923 0.929 . S
H914 C918 0.929 . S
H915 C924 0.929 . S
C916 H910 0.930 . S
C916 C917 1.367 . S
C916 C924 1.378 . S
C917 C916 1.367 . S
C917 C925 1.433 . S
C918 H914 0.929 . S
C918 C920 1.378 . S
C918 C922 1.350 . S
C919 C922 1.463 . S
C919 C924 1.350 . S
C919 N927 1.427 . S
C920 H911 0.930 . S
C920 C918 1.378 . S
C920 C921 1.367 . S
C921 C920 1.367 . S
C921 C923 1.433 . S
C922 C918 1.350 . S
C922 C919 1.463 . S
C922 N926 1.427 . S
C923 H913 0.929 . S
C923 C921 1.433 . S
C923 N926 1.384 . S
C924 H915 0.929 . S
C924 C916 1.378 . S
C924 C919 1.350 . S
C925 H912 0.929 . S
C925 C917 1.433 . S
C925 N927 1.384 . S
N926 C922 1.427 . S
N926 C923 1.384 . S
N927 C919 1.427 . S
N927 C925 1.384 . S
H928 C934 0.930 . S
H929 C938 0.930 . S
H930 C943 0.929 . S
H931 C941 0.929 . S
H932 C936 0.929 . S
H933 C942 0.929 . S
C934 H928 0.930 . S
C934 C935 1.367 . S
C934 C942 1.378 . S
C935 C934 1.367 . S
C935 C943 1.433 . S
C936 H932 0.929 . S
C936 C938 1.378 . S
C936 C940 1.350 . S
C937 C940 1.463 . S
C937 C942 1.350 . S
C937 N945 1.427 . S
C938 H929 0.930 . S
C938 C936 1.378 . S
C938 C939 1.367 . S
C939 C938 1.367 . S
C939 C941 1.433 . S
C940 C936 1.350 . S
C940 C937 1.463 . S
C940 N944 1.427 . S
C941 H931 0.929 . S
C941 C939 1.433 . S
C941 N944 1.384 . S
C942 H933 0.929 . S
C942 C934 1.378 . S
C942 C937 1.350 . S
C943 H930 0.929 . S
C943 C935 1.433 . S
C943 N945 1.384 . S
N944 C940 1.427 . S
N944 C941 1.384 . S
N945 C937 1.427 . S
N945 C943 1.384 . S
H946 C952 0.930 . S
H947 C956 0.930 . S
H948 C961 0.929 . S
H949 C959 0.929 . S
H950 C954 0.929 . S
H951 C960 0.929 . S
C952 H946 0.930 . S
C952 C953 1.367 . S
C952 C960 1.378 . S
C953 C952 1.367 . S
C953 C961 1.433 . S
C954 H950 0.929 . S
C954 C956 1.378 . S
C954 C958 1.350 . S
C955 C958 1.463 . S
C955 C960 1.350 . S
C955 N963 1.427 . S
C956 H947 0.930 . S
C956 C954 1.378 . S
C956 C957 1.367 . S
C957 C956 1.367 . S
C957 C959 1.433 . S
C958 C954 1.350 . S
C958 C955 1.463 . S
C958 N962 1.427 . S
C959 H949 0.929 . S
C959 C957 1.433 . S
C959 N962 1.384 . S
C960 H951 0.929 . S
C960 C952 1.378 . S
C960 C955 1.350 . S
C961 H948 0.929 . S
C961 C953 1.433 . S
C961 N963 1.384 . S
N962 C958 1.427 . S
N962 C959 1.384 . S
N963 C955 1.427 . S
N963 C961 1.384 . S
H964 C970 0.930 . S
H965 C974 0.930 . S
H966 C979 0.929 . S
H967 C977 0.929 . S
H968 C972 0.929 . S
H969 C978 0.929 . S
C970 H964 0.930 . S
C970 C971 1.367 . S
C970 C978 1.378 . S
C971 C970 1.367 . S
C971 C979 1.433 . S
C972 H968 0.929 . S
C972 C974 1.378 . S
C972 C976 1.350 . S
C973 C976 1.463 . S
C973 C978 1.350 . S
C973 N981 1.427 . S
C974 H965 0.930 . S
C974 C972 1.378 . S
C974 C975 1.367 . S
C975 C974 1.367 . S
C975 C977 1.433 . S
C976 C972 1.350 . S
C976 C973 1.463 . S
C976 N980 1.427 . S
C977 H967 0.929 . S
C977 C975 1.433 . S
C977 N980 1.384 . S
C978 H969 0.929 . S
C978 C970 1.378 . S
C978 C973 1.350 . S
C979 H966 0.929 . S
C979 C971 1.433 . S
C979 N981 1.384 . S
N980 C976 1.427 . S
N980 C977 1.384 . S
N981 C973 1.427 . S
N981 C979 1.384 . S
H982 C988 0.930 . S
H983 C992 0.930 . S
H984 C997 0.929 . S
H985 C995 0.929 . S
H986 C990 0.929 . S
H987 C996 0.929 . S
C988 H982 0.930 . S
C988 C989 1.367 1_655 S
C988 C996 1.378 1_655 S
C989 C988 1.367 1_455 S
C989 C997 1.433 . S
C990 H986 0.929 . S
C990 C992 1.378 . S
C990 C994 1.350 . S
C991 C994 1.463 . S
C991 C996 1.350 . S
C991 N999 1.427 . S
C992 H983 0.930 . S
C992 C990 1.378 . S
C992 C993 1.367 . S
C993 C992 1.367 . S
C993 C995 1.433 . S
C994 C990 1.350 . S
C994 C991 1.463 . S
C994 N998 1.427 . S
C995 H985 0.929 . S
C995 C993 1.433 . S
C995 N998 1.384 . S
C996 H987 0.929 . S
C996 C988 1.378 1_455 S
C996 C991 1.350 . S
C997 H984 0.929 . S
C997 C989 1.433 . S
C997 N999 1.384 . S
N998 C994 1.427 . S
N998 C995 1.384 . S
N999 C991 1.427 . S
N999 C997 1.384 . S
H1000 C1006 0.930 . S
H1001 C1010 0.930 . S
H1002 C1015 0.929 . S
H1003 C1013 0.929 . S
H1004 C1008 0.929 . S
H1005 C1014 0.929 . S
C1006 H1000 0.930 . S
C1006 C1007 1.367 . S
C1006 C1014 1.378 . S
C1007 C1006 1.367 . S
C1007 C1015 1.433 . S
C1008 H1004 0.929 . S
C1008 C1010 1.378 . S
C1008 C1012 1.350 . S
C1009 C1012 1.463 . S
C1009 C1014 1.350 . S
C1009 N1017 1.427 . S
C1010 H1001 0.930 . S
C1010 C1008 1.378 . S
C1010 C1011 1.367 . S
C1011 C1010 1.367 . S
C1011 C1013 1.433 . S
C1012 C1008 1.350 . S
C1012 C1009 1.463 . S
C1012 N1016 1.427 . S
C1013 H1003 0.929 . S
C1013 C1011 1.433 . S
C1013 N1016 1.384 . S
C1014 H1005 0.929 . S
C1014 C1006 1.378 . S
C1014 C1009 1.350 . S
C1015 H1002 0.929 . S
C1015 C1007 1.433 . S
C1015 N1017 1.384 . S
N1016 C1012 1.427 . S
N1016 C1013 1.384 . S
N1017 C1009 1.427 . S
N1017 C1015 1.384 . S
H1018 C1024 0.930 . S
H1019 C1028 0.930 . S
H1020 C1033 0.929 . S
H1021 C1031 0.929 1_655 S
H1022 C1026 0.929 . S
H1023 C1032 0.929 . S
C1024 H1018 0.930 . S
C1024 C1025 1.367 . S
C1024 C1032 1.378 . S
C1025 C1024 1.367 . S
C1025 C1033 1.433 . S
C1026 H1022 0.929 . S
C1026 C1028 1.378 . S
C1026 C1030 1.350 . S
C1027 C1030 1.463 . S
C1027 C1032 1.350 . S
C1027 N1035 1.427 . S
C1028 H1019 0.930 . S
C1028 C1026 1.378 . S
C1028 C1029 1.367 . S
C1029 C1028 1.367 . S
C1029 C1031 1.433 . S
C1030 C1026 1.350 . S
C1030 C1027 1.463 . S
C1030 N1034 1.427 . S
C1031 H1021 0.929 1_455 S
C1031 C1029 1.433 . S
C1031 N1034 1.384 . S
C1032 H1023 0.929 . S
C1032 C1024 1.378 . S
C1032 C1027 1.350 . S
C1033 H1020 0.929 . S
C1033 C1025 1.433 . S
C1033 N1035 1.384 . S
N1034 C1030 1.427 . S
N1034 C1031 1.384 . S
N1035 C1027 1.427 . S
N1035 C1033 1.384 . S
H1036 C1042 0.930 . S
H1037 C1046 0.930 . S
H1038 C1051 0.929 . S
H1039 C1049 0.929 . S
H1040 C1044 0.929 . S
H1041 C1050 0.929 . S
C1042 H1036 0.930 . S
C1042 C1043 1.367 . S
C1042 C1050 1.378 . S
C1043 C1042 1.367 . S
C1043 C1051 1.433 . S
C1044 H1040 0.929 . S
C1044 C1046 1.378 . S
C1044 C1048 1.350 . S
C1045 C1048 1.463 . S
C1045 C1050 1.350 . S
C1045 N1053 1.427 . S
C1046 H1037 0.930 . S
C1046 C1044 1.378 . S
C1046 C1047 1.367 . S
C1047 C1046 1.367 . S
C1047 C1049 1.433 . S
C1048 C1044 1.350 . S
C1048 C1045 1.463 . S
C1048 N1052 1.427 . S
C1049 H1039 0.929 . S
C1049 C1047 1.433 . S
C1049 N1052 1.384 . S
C1050 H1041 0.929 . S
C1050 C1042 1.378 . S
C1050 C1045 1.350 . S
C1051 H1038 0.929 . S
C1051 C1043 1.433 . S
C1051 N1053 1.384 . S
N1052 C1048 1.427 . S
N1052 C1049 1.384 . S
N1053 C1045 1.427 . S
N1053 C1051 1.384 . S
H1054 C1060 0.930 . S
H1055 C1064 0.930 . S
H1056 C1069 0.929 . S
H1057 C1067 0.929 . S
H1058 C1062 0.929 . S
H1059 C1068 0.929 . S
C1060 H1054 0.930 . S
C1060 C1061 1.367 . S
C1060 C1068 1.378 . S
C1061 C1060 1.367 . S
C1061 C1069 1.433 . S
C1062 H1058 0.929 . S
C1062 C1064 1.378 . S
C1062 C1066 1.350 . S
C1063 C1066 1.463 . S
C1063 C1068 1.350 . S
C1063 N1071 1.427 . S
C1064 H1055 0.930 . S
C1064 C1062 1.378 . S
C1064 C1065 1.367 . S
C1065 C1064 1.367 . S
C1065 C1067 1.433 . S
C1066 C1062 1.350 . S
C1066 C1063 1.463 . S
C1066 N1070 1.427 . S
C1067 H1057 0.929 . S
C1067 C1065 1.433 . S
C1067 N1070 1.384 . S
C1068 H1059 0.929 . S
C1068 C1060 1.378 . S
C1068 C1063 1.350 . S
C1069 H1056 0.929 . S
C1069 C1061 1.433 . S
C1069 N1071 1.384 . S
N1070 C1066 1.427 . S
N1070 C1067 1.384 . S
N1071 C1063 1.427 . S
N1071 C1069 1.384 . S
H1072 C1078 0.930 . S
H1073 C1082 0.930 . S
H1074 C1087 0.929 . S
H1075 C1085 0.929 . S
H1076 C1080 0.929 . S
H1077 C1086 0.929 . S
C1078 H1072 0.930 . S
C1078 C1079 1.367 . S
C1078 C1086 1.378 . S
C1079 C1078 1.367 . S
C1079 C1087 1.433 . S
C1080 H1076 0.929 . S
C1080 C1082 1.378 . S
C1080 C1084 1.350 . S
C1081 C1084 1.463 . S
C1081 C1086 1.350 . S
C1081 N1089 1.427 . S
C1082 H1073 0.930 . S
C1082 C1080 1.378 . S
C1082 C1083 1.367 . S
C1083 C1082 1.367 . S
C1083 C1085 1.433 . S
C1084 C1080 1.350 . S
C1084 C1081 1.463 . S
C1084 N1088 1.427 . S
C1085 H1075 0.929 . S
C1085 C1083 1.433 . S
C1085 N1088 1.384 . S
C1086 H1077 0.929 . S
C1086 C1078 1.378 . S
C1086 C1081 1.350 . S
C1087 H1074 0.929 . S
C1087 C1079 1.433 . S
C1087 N1089 1.384 . S
N1088 C1084 1.427 . S
N1088 C1085 1.384 . S
N1089 C1081 1.427 . S
N1089 C1087 1.384 . S
H1090 C1096 0.930 . S
H1091 C1100 0.930 . S
H1092 C1105 0.929 . S
H1093 C1103 0.929 . S
H1094 C1098 0.929 . S
H1095 C1104 0.929 . S
C1096 H1090 0.930 . S
C1096 C1097 1.367 . S
C1096 C1104 1.378 . S
C1097 C1096 1.367 . S
C1097 C1105 1.433 . S
C1098 H1094 0.929 . S
C1098 C1100 1.378 . S
C1098 C1102 1.350 . S
C1099 C1102 1.463 . S
C1099 C1104 1.350 . S
C1099 N1107 1.427 . S
C1100 H1091 0.930 . S
C1100 C1098 1.378 . S
C1100 C1101 1.367 . S
C1101 C1100 1.367 . S
C1101 C1103 1.433 . S
C1102 C1098 1.350 . S
C1102 C1099 1.463 . S
C1102 N1106 1.427 . S
C1103 H1093 0.929 . S
C1103 C1101 1.433 . S
C1103 N1106 1.384 . S
C1104 H1095 0.929 . S
C1104 C1096 1.378 . S
C1104 C1099 1.350 . S
C1105 H1092 0.929 . S
C1105 C1097 1.433 . S
C1105 N1107 1.384 . S
N1106 C1102 1.427 . S
N1106 C1103 1.384 . S
N1107 C1099 1.427 . S
N1107 C1105 1.384 . S
H1108 C1114 0.930 . S
H1109 C1118 0.930 . S
H1110 C1123 0.929 . S
H1111 C1121 0.929 . S
H1112 C1116 0.929 . S
H1113 C1122 0.929 . S
C1114 H1108 0.930 . S
C1114 C1115 1.367 . S
C1114 C1122 1.378 . S
C1115 C1114 1.367 . S
C1115 C1123 1.433 . S
C1116 H1112 0.929 . S
C1116 C1118 1.378 . S
C1116 C1120 1.350 . S
C1117 C1120 1.463 . S
C1117 C1122 1.350 . S
C1117 N1125 1.427 . S
C1118 H1109 0.930 . S
C1118 C1116 1.378 . S
C1118 C1119 1.367 . S
C1119 C1118 1.367 . S
C1119 C1121 1.433 . S
C1120 C1116 1.350 . S
C1120 C1117 1.463 . S
C1120 N1124 1.427 . S
C1121 H1111 0.929 . S
C1121 C1119 1.433 . S
C1121 N1124 1.384 . S
C1122 H1113 0.929 . S
C1122 C1114 1.378 . S
C1122 C1117 1.350 . S
C1123 H1110 0.929 . S
C1123 C1115 1.433 . S
C1123 N1125 1.384 . S
N1124 C1120 1.427 . S
N1124 C1121 1.384 . S
N1125 C1117 1.427 . S
N1125 C1123 1.384 . S
H1126 C1132 0.930 1_455 S
H1127 C1136 0.930 . S
H1128 C1141 0.929 . S
H1129 C1139 0.929 . S
H1130 C1134 0.929 . S
H1131 C1140 0.929 . S
C1132 H1126 0.930 1_655 S
C1132 C1133 1.367 . S
C1132 C1140 1.378 . S
C1133 C1132 1.367 . S
C1133 C1141 1.433 . S
C1134 H1130 0.929 . S
C1134 C1136 1.378 . S
C1134 C1138 1.350 . S
C1135 C1138 1.463 . S
C1135 C1140 1.350 . S
C1135 N1143 1.427 . S
C1136 H1127 0.930 . S
C1136 C1134 1.378 . S
C1136 C1137 1.367 . S
C1137 C1136 1.367 . S
C1137 C1139 1.433 . S
C1138 C1134 1.350 . S
C1138 C1135 1.463 . S
C1138 N1142 1.427 . S
C1139 H1129 0.929 . S
C1139 C1137 1.433 . S
C1139 N1142 1.384 . S
C1140 H1131 0.929 . S
C1140 C1132 1.378 . S
C1140 C1135 1.350 . S
C1141 H1128 0.929 . S
C1141 C1133 1.433 . S
C1141 N1143 1.384 . S
N1142 C1138 1.427 . S
N1142 C1139 1.384 . S
N1143 C1135 1.427 . S
N1143 C1141 1.384 . S
H1144 C1150 0.930 . S
H1145 C1154 0.930 . S
H1146 C1159 0.929 . S
H1147 C1157 0.929 . S
H1148 C1152 0.929 . S
H1149 C1158 0.929 . S
C1150 H1144 0.930 . S
C1150 C1151 1.367 . S
C1150 C1158 1.378 . S
C1151 C1150 1.367 . S
C1151 C1159 1.433 . S
C1152 H1148 0.929 . S
C1152 C1154 1.378 . S
C1152 C1156 1.350 . S
C1153 C1156 1.463 . S
C1153 C1158 1.350 . S
C1153 N1161 1.427 . S
C1154 H1145 0.930 . S
C1154 C1152 1.378 . S
C1154 C1155 1.367 . S
C1155 C1154 1.367 . S
C1155 C1157 1.433 . S
C1156 C1152 1.350 . S
C1156 C1153 1.463 . S
C1156 N1160 1.427 . S
C1157 H1147 0.929 . S
C1157 C1155 1.433 . S
C1157 N1160 1.384 . S
C1158 H1149 0.929 . S
C1158 C1150 1.378 . S
C1158 C1153 1.350 . S
C1159 H1146 0.929 . S
C1159 C1151 1.433 . S
C1159 N1161 1.384 . S
N1160 C1156 1.427 . S
N1160 C1157 1.384 . S
N1161 C1153 1.427 . S
N1161 C1159 1.384 . S
H1162 C1168 0.930 . S
H1163 C1172 0.930 . S
H1164 C1177 0.929 . S
H1165 C1175 0.929 1_455 S
H1166 C1170 0.929 . S
H1167 C1176 0.929 . S
C1168 H1162 0.930 . S
C1168 C1169 1.367 . S
C1168 C1176 1.378 . S
C1169 C1168 1.367 . S
C1169 C1177 1.433 . S
C1170 H1166 0.929 . S
C1170 C1172 1.378 . S
C1170 C1174 1.350 . S
C1171 C1174 1.463 . S
C1171 C1176 1.350 . S
C1171 N1179 1.427 . S
C1172 H1163 0.930 . S
C1172 C1170 1.378 . S
C1172 C1173 1.367 . S
C1173 C1172 1.367 . S
C1173 C1175 1.433 . S
C1174 C1170 1.350 . S
C1174 C1171 1.463 . S
C1174 N1178 1.427 . S
C1175 H1165 0.929 1_655 S
C1175 C1173 1.433 . S
C1175 N1178 1.384 . S
C1176 H1167 0.929 . S
C1176 C1168 1.378 . S
C1176 C1171 1.350 . S
C1177 H1164 0.929 . S
C1177 C1169 1.433 . S
C1177 N1179 1.384 . S
N1178 C1174 1.427 . S
N1178 C1175 1.384 . S
N1179 C1171 1.427 . S
N1179 C1177 1.384 . S
H1180 C1186 0.930 . S
H1181 C1190 0.930 . S
H1182 C1195 0.929 . S
H1183 C1193 0.929 . S
H1184 C1188 0.929 . S
H1185 C1194 0.929 . S
C1186 H1180 0.930 . S
C1186 C1187 1.367 . S
C1186 C1194 1.378 . S
C1187 C1186 1.367 . S
C1187 C1195 1.433 . S
C1188 H1184 0.929 . S
C1188 C1190 1.378 . S
C1188 C1192 1.350 . S
C1189 C1192 1.463 . S
C1189 C1194 1.350 . S
C1189 N1197 1.427 . S
C1190 H1181 0.930 . S
C1190 C1188 1.378 . S
C1190 C1191 1.367 . S
C1191 C1190 1.367 . S
C1191 C1193 1.433 . S
C1192 C1188 1.350 . S
C1192 C1189 1.463 . S
C1192 N1196 1.427 . S
C1193 H1183 0.929 . S
C1193 C1191 1.433 . S
C1193 N1196 1.384 . S
C1194 H1185 0.929 . S
C1194 C1186 1.378 . S
C1194 C1189 1.350 . S
C1195 H1182 0.929 . S
C1195 C1187 1.433 . S
C1195 N1197 1.384 . S
N1196 C1192 1.427 . S
N1196 C1193 1.384 . S
N1197 C1189 1.427 . S
N1197 C1195 1.384 . S
H1198 C1204 0.930 . S
H1199 C1208 0.930 . S
H1200 C1213 0.929 . S
H1201 C1211 0.929 . S
H1202 C1206 0.929 . S
H1203 C1212 0.929 . S
C1204 H1198 0.930 . S
C1204 C1205 1.367 . S
C1204 C1212 1.378 . S
C1205 C1204 1.367 . S
C1205 C1213 1.433 . S
C1206 H1202 0.929 . S
C1206 C1208 1.378 . S
C1206 C1210 1.350 . S
C1207 C1210 1.463 . S
C1207 C1212 1.350 . S
C1207 N1215 1.427 . S
C1208 H1199 0.930 . S
C1208 C1206 1.378 . S
C1208 C1209 1.367 . S
C1209 C1208 1.367 . S
C1209 C1211 1.433 . S
C1210 C1206 1.350 . S
C1210 C1207 1.463 . S
C1210 N1214 1.427 . S
C1211 H1201 0.929 . S
C1211 C1209 1.433 . S
C1211 N1214 1.384 . S
C1212 H1203 0.929 . S
C1212 C1204 1.378 . S
C1212 C1207 1.350 . S
C1213 H1200 0.929 . S
C1213 C1205 1.433 . S
C1213 N1215 1.384 . S
N1214 C1210 1.427 . S
N1214 C1211 1.384 . S
N1215 C1207 1.427 . S
N1215 C1213 1.384 . S
H1216 C1222 0.930 . S
H1217 C1226 0.930 . S
H1218 C1231 0.929 . S
H1219 C1229 0.929 . S
H1220 C1224 0.929 . S
H1221 C1230 0.929 . S
C1222 H1216 0.930 . S
C1222 C1223 1.367 . S
C1222 C1230 1.378 . S
C1223 C1222 1.367 . S
C1223 C1231 1.433 . S
C1224 H1220 0.929 . S
C1224 C1226 1.378 . S
C1224 C1228 1.350 . S
C1225 C1228 1.463 1_455 S
C1225 C1230 1.350 . S
C1225 N1233 1.427 . S
C1226 H1217 0.930 . S
C1226 C1224 1.378 . S
C1226 C1227 1.367 . S
C1227 C1226 1.367 . S
C1227 C1229 1.433 . S
C1228 C1224 1.350 . S
C1228 C1225 1.463 1_655 S
C1228 N1232 1.427 . S
C1229 H1219 0.929 . S
C1229 C1227 1.433 . S
C1229 N1232 1.384 . S
C1230 H1221 0.929 . S
C1230 C1222 1.378 . S
C1230 C1225 1.350 . S
C1231 H1218 0.929 . S
C1231 C1223 1.433 . S
C1231 N1233 1.384 . S
N1232 C1228 1.427 . S
N1232 C1229 1.384 . S
N1233 C1225 1.427 . S
N1233 C1231 1.384 . S
H1234 C1240 0.930 . S
H1235 C1244 0.930 . S
H1236 C1249 0.929 1_455 S
H1237 C1247 0.929 1_655 S
H1238 C1242 0.929 . S
H1239 C1248 0.929 . S
C1240 H1234 0.930 . S
C1240 C1241 1.367 . S
C1240 C1248 1.378 . S
C1241 C1240 1.367 . S
C1241 C1249 1.433 . S
C1242 H1238 0.929 . S
C1242 C1244 1.378 . S
C1242 C1246 1.350 . S
C1243 C1246 1.463 1_655 S
C1243 C1248 1.350 . S
C1243 N1251 1.427 1_655 S
C1244 H1235 0.930 . S
C1244 C1242 1.378 . S
C1244 C1245 1.367 . S
C1245 C1244 1.367 . S
C1245 C1247 1.433 . S
C1246 C1242 1.350 . S
C1246 C1243 1.463 1_455 S
C1246 N1250 1.427 1_455 S
C1247 H1237 0.929 1_455 S
C1247 C1245 1.433 . S
C1247 N1250 1.384 1_455 S
C1248 H1239 0.929 . S
C1248 C1240 1.378 . S
C1248 C1243 1.350 . S
C1249 H1236 0.929 1_655 S
C1249 C1241 1.433 . S
C1249 N1251 1.384 1_655 S
N1250 C1246 1.427 1_655 S
N1250 C1247 1.384 1_655 S
N1251 C1243 1.427 1_455 S
N1251 C1249 1.384 1_455 S
H1252 C1258 0.930 . S
H1253 C1262 0.930 . S
H1254 C1267 0.929 . S
H1255 C1265 0.929 . S
H1256 C1260 0.929 . S
H1257 C1266 0.929 . S
C1258 H1252 0.930 . S
C1258 C1259 1.367 . S
C1258 C1266 1.378 . S
C1259 C1258 1.367 . S
C1259 C1267 1.433 . S
C1260 H1256 0.929 . S
C1260 C1262 1.378 . S
C1260 C1264 1.350 . S
C1261 C1264 1.463 . S
C1261 C1266 1.350 . S
C1261 N1269 1.427 . S
C1262 H1253 0.930 . S
C1262 C1260 1.378 . S
C1262 C1263 1.367 . S
C1263 C1262 1.367 . S
C1263 C1265 1.433 . S
C1264 C1260 1.350 . S
C1264 C1261 1.463 . S
C1264 N1268 1.427 . S
C1265 H1255 0.929 . S
C1265 C1263 1.433 . S
C1265 N1268 1.384 . S
C1266 H1257 0.929 . S
C1266 C1258 1.378 . S
C1266 C1261 1.350 . S
C1267 H1254 0.929 . S
C1267 C1259 1.433 . S
C1267 N1269 1.384 . S
N1268 C1264 1.427 . S
N1268 C1265 1.384 . S
N1269 C1261 1.427 . S
N1269 C1267 1.384 . S
H1270 C1276 0.930 . S
H1271 C1280 0.930 . S
H1272 C1285 0.929 . S
H1273 C1283 0.929 . S
H1274 C1278 0.929 . S
H1275 C1284 0.929 . S
C1276 H1270 0.930 . S
C1276 C1277 1.367 . S
C1276 C1284 1.378 . S
C1277 C1276 1.367 . S
C1277 C1285 1.433 . S
C1278 H1274 0.929 . S
C1278 C1280 1.378 . S
C1278 C1282 1.350 . S
C1279 C1282 1.463 . S
C1279 C1284 1.350 . S
C1279 N1287 1.427 . S
C1280 H1271 0.930 . S
C1280 C1278 1.378 . S
C1280 C1281 1.367 . S
C1281 C1280 1.367 . S
C1281 C1283 1.433 . S
C1282 C1278 1.350 . S
C1282 C1279 1.463 . S
C1282 N1286 1.427 . S
C1283 H1273 0.929 . S
C1283 C1281 1.433 . S
C1283 N1286 1.384 . S
C1284 H1275 0.929 . S
C1284 C1276 1.378 . S
C1284 C1279 1.350 . S
C1285 H1272 0.929 . S
C1285 C1277 1.433 . S
C1285 N1287 1.384 . S
N1286 C1282 1.427 . S
N1286 C1283 1.384 . S
N1287 C1279 1.427 . S
N1287 C1285 1.384 . S
H1288 C1294 0.930 . S
H1289 C1298 0.930 . S
H1290 C1303 0.929 . S
H1291 C1301 0.929 . S
H1292 C1296 0.929 . S
H1293 C1302 0.929 . S
C1294 H1288 0.930 . S
C1294 C1295 1.367 . S
C1294 C1302 1.378 . S
C1295 C1294 1.367 . S
C1295 C1303 1.433 . S
C1296 H1292 0.929 . S
C1296 C1298 1.378 . S
C1296 C1300 1.350 . S
C1297 C1300 1.463 1_655 S
C1297 C1302 1.350 . S
C1297 N1305 1.427 . S
C1298 H1289 0.930 . S
C1298 C1296 1.378 . S
C1298 C1299 1.367 . S
C1299 C1298 1.367 . S
C1299 C1301 1.433 . S
C1300 C1296 1.350 . S
C1300 C1297 1.463 1_455 S
C1300 N1304 1.427 . S
C1301 H1291 0.929 . S
C1301 C1299 1.433 . S
C1301 N1304 1.384 . S
C1302 H1293 0.929 . S
C1302 C1294 1.378 . S
C1302 C1297 1.350 . S
C1303 H1290 0.929 . S
C1303 C1295 1.433 . S
C1303 N1305 1.384 . S
N1304 C1300 1.427 . S
N1304 C1301 1.384 . S
N1305 C1297 1.427 . S
N1305 C1303 1.384 . S
H1306 C1312 0.930 . S
H1307 C1316 0.930 . S
H1308 C1321 0.929 . S
H1309 C1319 0.929 . S
H1310 C1314 0.929 . S
H1311 C1320 0.929 . S
C1312 H1306 0.930 . S
C1312 C1313 1.367 . S
C1312 C1320 1.378 . S
C1313 C1312 1.367 . S
C1313 C1321 1.433 . S
C1314 H1310 0.929 . S
C1314 C1316 1.378 . S
C1314 C1318 1.350 . S
C1315 C1318 1.463 . S
C1315 C1320 1.350 . S
C1315 N1323 1.427 . S
C1316 H1307 0.930 . S
C1316 C1314 1.378 . S
C1316 C1317 1.367 . S
C1317 C1316 1.367 . S
C1317 C1319 1.433 . S
C1318 C1314 1.350 . S
C1318 C1315 1.463 . S
C1318 N1322 1.427 . S
C1319 H1309 0.929 . S
C1319 C1317 1.433 . S
C1319 N1322 1.384 . S
C1320 H1311 0.929 . S
C1320 C1312 1.378 . S
C1320 C1315 1.350 . S
C1321 H1308 0.929 . S
C1321 C1313 1.433 . S
C1321 N1323 1.384 . S
N1322 C1318 1.427 . S
N1322 C1319 1.384 . S
N1323 C1315 1.427 . S
N1323 C1321 1.384 . S
H1324 C1330 0.930 . S
H1325 C1334 0.930 . S
H1326 C1339 0.929 . S
H1327 C1337 0.929 . S
H1328 C1332 0.929 . S
H1329 C1338 0.929 . S
C1330 H1324 0.930 . S
C1330 C1331 1.367 . S
C1330 C1338 1.378 . S
C1331 C1330 1.367 . S
C1331 C1339 1.433 . S
C1332 H1328 0.929 . S
C1332 C1334 1.378 . S
C1332 C1336 1.350 . S
C1333 C1336 1.463 . S
C1333 C1338 1.350 . S
C1333 N1341 1.427 . S
C1334 H1325 0.930 . S
C1334 C1332 1.378 . S
C1334 C1335 1.367 . S
C1335 C1334 1.367 . S
C1335 C1337 1.433 . S
C1336 C1332 1.350 . S
C1336 C1333 1.463 . S
C1336 N1340 1.427 . S
C1337 H1327 0.929 . S
C1337 C1335 1.433 . S
C1337 N1340 1.384 . S
C1338 H1329 0.929 . S
C1338 C1330 1.378 . S
C1338 C1333 1.350 . S
C1339 H1326 0.929 . S
C1339 C1331 1.433 . S
C1339 N1341 1.384 . S
N1340 C1336 1.427 . S
N1340 C1337 1.384 . S
N1341 C1333 1.427 . S
N1341 C1339 1.384 . S
H1342 C1348 0.930 1_655 S
H1343 C1352 0.930 1_455 S
H1344 C1357 0.929 . S
H1345 C1355 0.929 . S
H1346 C1350 0.929 . S
H1347 C1356 0.929 . S
C1348 H1342 0.930 1_455 S
C1348 C1349 1.367 . S
C1348 C1356 1.378 1_455 S
C1349 C1348 1.367 . S
C1349 C1357 1.433 . S
C1350 H1346 0.929 . S
C1350 C1352 1.378 1_455 S
C1350 C1354 1.350 1_455 S
C1351 C1354 1.463 1_455 S
C1351 C1356 1.350 1_455 S
C1351 N1359 1.427 . S
C1352 H1343 0.930 1_655 S
C1352 C1350 1.378 1_655 S
C1352 C1353 1.367 . S
C1353 C1352 1.367 . S
C1353 C1355 1.433 . S
C1354 C1350 1.350 1_655 S
C1354 C1351 1.463 1_655 S
C1354 N1358 1.427 . S
C1355 H1345 0.929 . S
C1355 C1353 1.433 . S
C1355 N1358 1.384 . S
C1356 H1347 0.929 . S
C1356 C1348 1.378 1_655 S
C1356 C1351 1.350 1_655 S
C1357 H1344 0.929 . S
C1357 C1349 1.433 . S
C1357 N1359 1.384 . S
N1358 C1354 1.427 . S
N1358 C1355 1.384 . S
N1359 C1351 1.427 . S
N1359 C1357 1.384 . S
H1360 C1366 0.930 . S
H1361 C1370 0.930 . S
H1362 C1375 0.929 . S
H1363 C1373 0.929 . S
H1364 C1368 0.929 . S
H1365 C1374 0.929 . S
C1366 H1360 0.930 . S
C1366 C1367 1.367 . S
C1366 C1374 1.378 . S
C1367 C1366 1.367 . S
C1367 C1375 1.433 . S
C1368 H1364 0.929 . S
C1368 C1370 1.378 . S
C1368 C1372 1.350 . S
C1369 C1372 1.463 1_455 S
C1369 C1374 1.350 . S
C1369 N1377 1.427 . S
C1370 H1361 0.930 . S
C1370 C1368 1.378 . S
C1370 C1371 1.367 . S
C1371 C1370 1.367 . S
C1371 C1373 1.433 . S
C1372 C1368 1.350 . S
C1372 C1369 1.463 1_655 S
C1372 N1376 1.427 . S
C1373 H1363 0.929 . S
C1373 C1371 1.433 . S
C1373 N1376 1.384 . S
C1374 H1365 0.929 . S
C1374 C1366 1.378 . S
C1374 C1369 1.350 . S
C1375 H1362 0.929 . S
C1375 C1367 1.433 . S
C1375 N1377 1.384 . S
N1376 C1372 1.427 . S
N1376 C1373 1.384 . S
N1377 C1369 1.427 . S
N1377 C1375 1.384 . S
H1378 C1384 0.930 . S
H1379 C1388 0.930 . S
H1380 C1393 0.929 1_455 S
H1381 C1391 0.929 1_655 S
H1382 C1386 0.929 . S
H1383 C1392 0.929 . S
C1384 H1378 0.930 . S
C1384 C1385 1.367 . S
C1384 C1392 1.378 . S
C1385 C1384 1.367 . S
C1385 C1393 1.433 . S
C1386 H1382 0.929 . S
C1386 C1388 1.378 . S
C1386 C1390 1.350 . S
C1387 C1390 1.463 1_655 S
C1387 C1392 1.350 . S
C1387 N1395 1.427 1_655 S
C1388 H1379 0.930 . S
C1388 C1386 1.378 . S
C1388 C1389 1.367 . S
C1389 C1388 1.367 . S
C1389 C1391 1.433 . S
C1390 C1386 1.350 . S
C1390 C1387 1.463 1_455 S
C1390 N1394 1.427 1_455 S
C1391 H1381 0.929 1_455 S
C1391 C1389 1.433 . S
C1391 N1394 1.384 1_455 S
C1392 H1383 0.929 . S
C1392 C1384 1.378 . S
C1392 C1387 1.350 . S
C1393 H1380 0.929 1_655 S
C1393 C1385 1.433 . S
C1393 N1395 1.384 1_655 S
N1394 C1390 1.427 1_655 S
N1394 C1391 1.384 1_655 S
N1395 C1387 1.427 1_455 S
N1395 C1393 1.384 1_455 S
H1396 C1402 0.930 . S
H1397 C1406 0.930 . S
H1398 C1411 0.929 . S
H1399 C1409 0.929 . S
H1400 C1404 0.929 . S
H1401 C1410 0.929 . S
C1402 H1396 0.930 . S
C1402 C1403 1.367 . S
C1402 C1410 1.378 . S
C1403 C1402 1.367 . S
C1403 C1411 1.433 . S
C1404 H1400 0.929 . S
C1404 C1406 1.378 . S
C1404 C1408 1.350 . S
C1405 C1408 1.463 . S
C1405 C1410 1.350 . S
C1405 N1413 1.427 . S
C1406 H1397 0.930 . S
C1406 C1404 1.378 . S
C1406 C1407 1.367 . S
C1407 C1406 1.367 . S
C1407 C1409 1.433 . S
C1408 C1404 1.350 . S
C1408 C1405 1.463 . S
C1408 N1412 1.427 . S
C1409 H1399 0.929 . S
C1409 C1407 1.433 . S
C1409 N1412 1.384 . S
C1410 H1401 0.929 . S
C1410 C1402 1.378 . S
C1410 C1405 1.350 . S
C1411 H1398 0.929 . S
C1411 C1403 1.433 . S
C1411 N1413 1.384 . S
N1412 C1408 1.427 . S
N1412 C1409 1.384 . S
N1413 C1405 1.427 . S
N1413 C1411 1.384 . S
H1414 C1420 0.930 . S
H1415 C1424 0.930 . S
H1416 C1429 0.929 . S
H1417 C1427 0.929 . S
H1418 C1422 0.929 . S
H1419 C1428 0.929 . S
C1420 H1414 0.930 . S
C1420 C1421 1.367 . S
C1420 C1428 1.378 . S
C1421 C1420 1.367 . S
C1421 C1429 1.433 . S
C1422 H1418 0.929 . S
C1422 C1424 1.378 . S
C1422 C1426 1.350 . S
C1423 C1426 1.463 . S
C1423 C1428 1.350 . S
C1423 N1431 1.427 . S
C1424 H1415 0.930 . S
C1424 C1422 1.378 . S
C1424 C1425 1.367 . S
C1425 C1424 1.367 . S
C1425 C1427 1.433 . S
C1426 C1422 1.350 . S
C1426 C1423 1.463 . S
C1426 N1430 1.427 . S
C1427 H1417 0.929 . S
C1427 C1425 1.433 . S
C1427 N1430 1.384 . S
C1428 H1419 0.929 . S
C1428 C1420 1.378 . S
C1428 C1423 1.350 . S
C1429 H1416 0.929 . S
C1429 C1421 1.433 . S
C1429 N1431 1.384 . S
N1430 C1426 1.427 . S
N1430 C1427 1.384 . S
N1431 C1423 1.427 . S
N1431 C1429 1.384 . S
H1432 C1438 0.930 . S
H1433 C1442 0.930 . S
H1434 C1447 0.929 . S
H1435 C1445 0.929 . S
H1436 C1440 0.929 . S
H1437 C1446 0.929 . S
C1438 H1432 0.930 . S
C1438 C1439 1.367 . S
C1438 C1446 1.378 . S
C1439 C1438 1.367 . S
C1439 C1447 1.433 . S
C1440 H1436 0.929 . S
C1440 C1442 1.378 . S
C1440 C1444 1.350 . S
C1441 C1444 1.463 1_455 S
C1441 C1446 1.350 . S
C1441 N1449 1.427 . S
C1442 H1433 0.930 . S
C1442 C1440 1.378 . S
C1442 C1443 1.367 . S
C1443 C1442 1.367 . S
C1443 C1445 1.433 . S
C1444 C1440 1.350 . S
C1444 C1441 1.463 1_655 S
C1444 N1448 1.427 . S
C1445 H1435 0.929 . S
C1445 C1443 1.433 . S
C1445 N1448 1.384 . S
C1446 H1437 0.929 . S
C1446 C1438 1.378 . S
C1446 C1441 1.350 . S
C1447 H1434 0.929 . S
C1447 C1439 1.433 . S
C1447 N1449 1.384 . S
N1448 C1444 1.427 . S
N1448 C1445 1.384 . S
N1449 C1441 1.427 . S
N1449 C1447 1.384 . S
H1450 C1456 0.930 . S
H1451 C1460 0.930 . S
H1452 C1465 0.929 . S
H1453 C1463 0.929 . S
H1454 C1458 0.929 . S
H1455 C1464 0.929 . S
C1456 H1450 0.930 . S
C1456 C1457 1.367 . S
C1456 C1464 1.378 . S
C1457 C1456 1.367 . S
C1457 C1465 1.433 . S
C1458 H1454 0.929 . S
C1458 C1460 1.378 . S
C1458 C1462 1.350 . S
C1459 C1462 1.463 . S
C1459 C1464 1.350 . S
C1459 N1467 1.427 . S
C1460 H1451 0.930 . S
C1460 C1458 1.378 . S
C1460 C1461 1.367 . S
C1461 C1460 1.367 . S
C1461 C1463 1.433 . S
C1462 C1458 1.350 . S
C1462 C1459 1.463 . S
C1462 N1466 1.427 . S
C1463 H1453 0.929 . S
C1463 C1461 1.433 . S
C1463 N1466 1.384 . S
C1464 H1455 0.929 . S
C1464 C1456 1.378 . S
C1464 C1459 1.350 . S
C1465 H1452 0.929 . S
C1465 C1457 1.433 . S
C1465 N1467 1.384 . S
N1466 C1462 1.427 . S
N1466 C1463 1.384 . S
N1467 C1459 1.427 . S
N1467 C1465 1.384 . S
H1468 C1474 0.930 . S
H1469 C1478 0.930 . S
H1470 C1483 0.929 . S
H1471 C1481 0.929 . S
H1472 C1476 0.929 . S
H1473 C1482 0.929 . S
C1474 H1468 0.930 . S
C1474 C1475 1.367 . S
C1474 C1482 1.378 . S
C1475 C1474 1.367 . S
C1475 C1483 1.433 . S
C1476 H1472 0.929 . S
C1476 C1478 1.378 . S
C1476 C1480 1.350 . S
C1477 C1480 1.463 . S
C1477 C1482 1.350 . S
C1477 N1485 1.427 . S
C1478 H1469 0.930 . S
C1478 C1476 1.378 . S
C1478 C1479 1.367 . S
C1479 C1478 1.367 . S
C1479 C1481 1.433 . S
C1480 C1476 1.350 . S
C1480 C1477 1.463 . S
C1480 N1484 1.427 . S
C1481 H1471 0.929 . S
C1481 C1479 1.433 . S
C1481 N1484 1.384 . S
C1482 H1473 0.929 . S
C1482 C1474 1.378 . S
C1482 C1477 1.350 . S
C1483 H1470 0.929 . S
C1483 C1475 1.433 . S
C1483 N1485 1.384 . S
N1484 C1480 1.427 . S
N1484 C1481 1.384 . S
N1485 C1477 1.427 . S
N1485 C1483 1.384 . S
H1486 C1492 0.930 . S
H1487 C1496 0.930 . S
H1488 C1501 0.929 . S
H1489 C1499 0.929 . S
H1490 C1494 0.929 . S
H1491 C1500 0.929 . S
C1492 H1486 0.930 . S
C1492 C1493 1.367 . S
C1492 C1500 1.378 . S
C1493 C1492 1.367 . S
C1493 C1501 1.433 1_655 S
C1494 H1490 0.929 . S
C1494 C1496 1.378 . S
C1494 C1498 1.350 . S
C1495 C1498 1.463 1_655 S
C1495 C1500 1.350 . S
C1495 N1503 1.427 1_655 S
C1496 H1487 0.930 . S
C1496 C1494 1.378 . S
C1496 C1497 1.367 . S
C1497 C1496 1.367 . S
C1497 C1499 1.433 1_455 S
C1498 C1494 1.350 . S
C1498 C1495 1.463 1_455 S
C1498 N1502 1.427 1_455 S
C1499 H1489 0.929 . S
C1499 C1497 1.433 1_655 S
C1499 N1502 1.384 . S
C1500 H1491 0.929 . S
C1500 C1492 1.378 . S
C1500 C1495 1.350 . S
C1501 H1488 0.929 . S
C1501 C1493 1.433 1_455 S
C1501 N1503 1.384 . S
N1502 C1498 1.427 1_655 S
N1502 C1499 1.384 . S
N1503 C1495 1.427 1_455 S
N1503 C1501 1.384 . S
H1504 C1510 0.930 . S
H1505 C1514 0.930 . S
H1506 C1519 0.929 . S
H1507 C1517 0.929 . S
H1508 C1512 0.929 . S
H1509 C1518 0.929 . S
C1510 H1504 0.930 . S
C1510 C1511 1.367 . S
C1510 C1518 1.378 . S
C1511 C1510 1.367 . S
C1511 C1519 1.433 . S
C1512 H1508 0.929 . S
C1512 C1514 1.378 . S
C1512 C1516 1.350 . S
C1513 C1516 1.463 . S
C1513 C1518 1.350 . S
C1513 N1521 1.427 . S
C1514 H1505 0.930 . S
C1514 C1512 1.378 . S
C1514 C1515 1.367 . S
C1515 C1514 1.367 . S
C1515 C1517 1.433 . S
C1516 C1512 1.350 . S
C1516 C1513 1.463 . S
C1516 N1520 1.427 . S
C1517 H1507 0.929 . S
C1517 C1515 1.433 . S
C1517 N1520 1.384 . S
C1518 H1509 0.929 . S
C1518 C1510 1.378 . S
C1518 C1513 1.350 . S
C1519 H1506 0.929 . S
C1519 C1511 1.433 . S
C1519 N1521 1.384 . S
N1520 C1516 1.427 . S
N1520 C1517 1.384 . S
N1521 C1513 1.427 . S
N1521 C1519 1.384 . S
H1522 C1528 0.930 . S
H1523 C1532 0.930 . S
H1524 C1537 0.929 . S
H1525 C1535 0.929 . S
H1526 C1530 0.929 . S
H1527 C1536 0.929 . S
C1528 H1522 0.930 . S
C1528 C1529 1.367 1_565 S
C1528 C1536 1.378 1_655 S
C1529 C1528 1.367 1_545 S
C1529 C1537 1.433 . S
C1530 H1526 0.929 . S
C1530 C1532 1.378 1_655 S
C1530 C1534 1.350 1_645 S
C1531 C1534 1.463 1_645 S
C1531 C1536 1.350 1_645 S
C1531 N1539 1.427 . S
C1532 H1523 0.930 . S
C1532 C1530 1.378 1_455 S
C1532 C1533 1.367 1_545 S
C1533 C1532 1.367 1_565 S
C1533 C1535 1.433 . S
C1534 C1530 1.350 1_465 S
C1534 C1531 1.463 1_465 S
C1534 N1538 1.427 . S
C1535 H1525 0.929 . S
C1535 C1533 1.433 . S
C1535 N1538 1.384 . S
C1536 H1527 0.929 . S
C1536 C1528 1.378 1_455 S
C1536 C1531 1.350 1_465 S
C1537 H1524 0.929 . S
C1537 C1529 1.433 . S
C1537 N1539 1.384 . S
N1538 C1534 1.427 . S
N1538 C1535 1.384 . S
N1539 C1531 1.427 . S
N1539 C1537 1.384 . S
H1540 C1546 0.930 . S
H1541 C1550 0.930 . S
H1542 C1555 0.929 . S
H1543 C1553 0.929 . S
H1544 C1548 0.929 . S
H1545 C1554 0.929 . S
C1546 H1540 0.930 . S
C1546 C1547 1.367 . S
C1546 C1554 1.378 . S
C1547 C1546 1.367 . S
C1547 C1555 1.433 . S
C1548 H1544 0.929 . S
C1548 C1550 1.378 . S
C1548 C1552 1.350 . S
C1549 C1552 1.463 . S
C1549 C1554 1.350 . S
C1549 N1557 1.427 . S
C1550 H1541 0.930 . S
C1550 C1548 1.378 . S
C1550 C1551 1.367 . S
C1551 C1550 1.367 . S
C1551 C1553 1.433 . S
C1552 C1548 1.350 . S
C1552 C1549 1.463 . S
C1552 N1556 1.427 . S
C1553 H1543 0.929 . S
C1553 C1551 1.433 . S
C1553 N1556 1.384 . S
C1554 H1545 0.929 . S
C1554 C1546 1.378 . S
C1554 C1549 1.350 . S
C1555 H1542 0.929 . S
C1555 C1547 1.433 . S
C1555 N1557 1.384 . S
N1556 C1552 1.427 . S
N1556 C1553 1.384 . S
N1557 C1549 1.427 . S
N1557 C1555 1.384 . S
H1558 C1564 0.930 . S
H1559 C1568 0.930 . S
H1560 C1573 0.929 . S
H1561 C1571 0.929 . S
H1562 C1566 0.929 . S
H1563 C1572 0.929 . S
C1564 H1558 0.930 . S
C1564 C1565 1.367 1_565 S
C1564 C1572 1.378 . S
C1565 C1564 1.367 1_545 S
C1565 C1573 1.433 . S
C1566 H1562 0.929 . S
C1566 C1568 1.378 . S
C1566 C1570 1.350 1_545 S
C1567 C1570 1.463 1_544 S
C1567 C1572 1.350 1_545 S
C1567 N1575 1.427 . S
C1568 H1559 0.930 . S
C1568 C1566 1.378 . S
C1568 C1569 1.367 1_545 S
C1569 C1568 1.367 1_565 S
C1569 C1571 1.433 . S
C1570 C1566 1.350 1_565 S
C1570 C1567 1.463 1_566 S
C1570 N1574 1.427 . S
C1571 H1561 0.929 . S
C1571 C1569 1.433 . S
C1571 N1574 1.384 . S
C1572 H1563 0.929 . S
C1572 C1564 1.378 . S
C1572 C1567 1.350 1_565 S
C1573 H1560 0.929 . S
C1573 C1565 1.433 . S
C1573 N1575 1.384 . S
N1574 C1570 1.427 . S
N1574 C1571 1.384 . S
N1575 C1567 1.427 . S
N1575 C1573 1.384 . S
H1576 C1582 0.930 . S
H1577 C1586 0.930 . S
H1578 C1591 0.929 . S
H1579 C1589 0.929 . S
H1580 C1584 0.929 . S
H1581 C1590 0.929 . S
C1582 H1576 0.930 . S
C1582 C1583 1.367 . S
C1582 C1590 1.378 . S
C1583 C1582 1.367 . S
C1583 C1591 1.433 . S
C1584 H1580 0.929 . S
C1584 C1586 1.378 . S
C1584 C1588 1.350 . S
C1585 C1588 1.463 . S
C1585 C1590 1.350 . S
C1585 N1593 1.427 . S
C1586 H1577 0.930 . S
C1586 C1584 1.378 . S
C1586 C1587 1.367 . S
C1587 C1586 1.367 . S
C1587 C1589 1.433 . S
C1588 C1584 1.350 . S
C1588 C1585 1.463 . S
C1588 N1592 1.427 . S
C1589 H1579 0.929 . S
C1589 C1587 1.433 . S
C1589 N1592 1.384 . S
C1590 H1581 0.929 . S
C1590 C1582 1.378 . S
C1590 C1585 1.350 . S
C1591 H1578 0.929 . S
C1591 C1583 1.433 . S
C1591 N1593 1.384 . S
N1592 C1588 1.427 . S
N1592 C1589 1.384 . S
N1593 C1585 1.427 . S
N1593 C1591 1.384 . S
H1594 C1600 0.930 . S
H1595 C1604 0.930 . S
H1596 C1609 0.929 . S
H1597 C1607 0.929 . S
H1598 C1602 0.928 . S
H1599 C1608 0.928 . S
C1600 H1594 0.930 . S
C1600 C1601 1.367 . S
C1600 C1608 1.378 1_545 S
C1601 C1600 1.367 . S
C1601 C1609 1.433 . S
C1602 H1598 0.928 . S
C1602 C1604 1.378 1_545 S
C1602 C1606 1.350 1_545 S
C1603 C1606 1.463 1_545 S
C1603 C1608 1.350 1_545 S
C1603 N1611 1.427 . S
C1604 H1595 0.930 . S
C1604 C1602 1.378 1_565 S
C1604 C1605 1.367 . S
C1605 C1604 1.367 . S
C1605 C1607 1.433 . S
C1606 C1602 1.350 1_565 S
C1606 C1603 1.463 1_565 S
C1606 N1610 1.427 . S
C1607 H1597 0.929 . S
C1607 C1605 1.433 . S
C1607 N1610 1.384 . S
C1608 H1599 0.928 . S
C1608 C1600 1.378 1_565 S
C1608 C1603 1.350 1_565 S
C1609 H1596 0.929 . S
C1609 C1601 1.433 . S
C1609 N1611 1.384 . S
N1610 C1606 1.427 . S
N1610 C1607 1.384 . S
N1611 C1603 1.427 . S
N1611 C1609 1.384 . S
H1612 C1618 0.930 . S
H1613 C1622 0.930 . S
H1614 C1627 0.929 . S
H1615 C1625 0.929 . S
H1616 C1620 0.929 . S
H1617 C1626 0.929 . S
C1618 H1612 0.930 . S
C1618 C1619 1.367 . S
C1618 C1626 1.378 . S
C1619 C1618 1.367 . S
C1619 C1627 1.433 . S
C1620 H1616 0.929 . S
C1620 C1622 1.378 . S
C1620 C1624 1.350 . S
C1621 C1624 1.463 . S
C1621 C1626 1.350 . S
C1621 N1629 1.427 . S
C1622 H1613 0.930 . S
C1622 C1620 1.378 . S
C1622 C1623 1.367 . S
C1623 C1622 1.367 . S
C1623 C1625 1.433 . S
C1624 C1620 1.350 . S
C1624 C1621 1.463 . S
C1624 N1628 1.427 . S
C1625 H1615 0.929 . S
C1625 C1623 1.433 . S
C1625 N1628 1.384 . S
C1626 H1617 0.929 . S
C1626 C1618 1.378 . S
C1626 C1621 1.350 . S
C1627 H1614 0.929 . S
C1627 C1619 1.433 . S
C1627 N1629 1.384 . S
N1628 C1624 1.427 . S
N1628 C1625 1.384 . S
N1629 C1621 1.427 . S
N1629 C1627 1.384 . S
H1630 C1636 0.930 . S
H1631 C1640 0.930 . S
H1632 C1645 0.929 . S
H1633 C1643 0.929 . S
H1634 C1638 0.922 1_455 S
H1635 C1644 0.922 1_655 S
C1636 H1630 0.930 . S
C1636 C1637 1.367 . S
C1636 C1644 1.378 . S
C1637 C1636 1.367 . S
C1637 C1645 1.433 1_545 S
C1638 H1634 0.922 1_655 S
C1638 C1640 1.378 . S
C1638 C1642 1.350 . S
C1639 C1642 1.463 1_446 S
C1639 C1644 1.350 . S
C1639 N1647 1.427 1_545 S
C1640 H1631 0.930 . S
C1640 C1638 1.378 . S
C1640 C1641 1.367 . S
C1641 C1640 1.367 . S
C1641 C1643 1.433 1_565 S
C1642 C1638 1.350 . S
C1642 C1639 1.463 1_664 S
C1642 N1646 1.427 1_565 S
C1643 H1633 0.929 . S
C1643 C1641 1.433 1_545 S
C1643 N1646 1.384 . S
C1644 H1635 0.922 1_455 S
C1644 C1636 1.378 . S
C1644 C1639 1.350 . S
C1645 H1632 0.929 . S
C1645 C1637 1.433 1_565 S
C1645 N1647 1.384 . S
N1646 C1642 1.427 1_545 S
N1646 C1643 1.384 . S
N1647 C1639 1.427 1_565 S
N1647 C1645 1.384 . S
H1648 C1654 0.930 . S
H1649 C1658 0.930 . S
H1650 C1663 0.929 . S
H1651 C1661 0.929 . S
H1652 C1656 0.929 . S
H1653 C1662 0.929 . S
C1654 H1648 0.930 . S
C1654 C1655 1.367 . S
C1654 C1662 1.378 . S
C1655 C1654 1.367 . S
C1655 C1663 1.433 . S
C1656 H1652 0.929 . S
C1656 C1658 1.378 . S
C1656 C1660 1.350 . S
C1657 C1660 1.463 . S
C1657 C1662 1.350 . S
C1657 N1665 1.427 . S
C1658 H1649 0.930 . S
C1658 C1656 1.378 . S
C1658 C1659 1.367 . S
C1659 C1658 1.367 . S
C1659 C1661 1.433 . S
C1660 C1656 1.350 . S
C1660 C1657 1.463 . S
C1660 N1664 1.427 . S
C1661 H1651 0.929 . S
C1661 C1659 1.433 . S
C1661 N1664 1.384 . S
C1662 H1653 0.929 . S
C1662 C1654 1.378 . S
C1662 C1657 1.350 . S
C1663 H1650 0.929 . S
C1663 C1655 1.433 . S
C1663 N1665 1.384 . S
N1664 C1660 1.427 . S
N1664 C1661 1.384 . S
N1665 C1657 1.427 . S
N1665 C1663 1.384 . S
H1666 C1672 0.930 . S
H1667 C1676 0.930 . S
H1668 C1681 0.929 . S
H1669 C1679 0.929 . S
H1670 C1674 0.929 . S
H1671 C1680 0.929 . S
C1672 H1666 0.930 . S
C1672 C1673 1.367 . S
C1672 C1680 1.378 . S
C1673 C1672 1.367 . S
C1673 C1681 1.433 . S
C1674 H1670 0.929 . S
C1674 C1676 1.378 . S
C1674 C1678 1.350 . S
C1675 C1678 1.463 . S
C1675 C1680 1.350 . S
C1675 N1683 1.427 . S
C1676 H1667 0.930 . S
C1676 C1674 1.378 . S
C1676 C1677 1.367 . S
C1677 C1676 1.367 . S
C1677 C1679 1.433 . S
C1678 C1674 1.350 . S
C1678 C1675 1.463 . S
C1678 N1682 1.427 . S
C1679 H1669 0.929 . S
C1679 C1677 1.433 . S
C1679 N1682 1.384 . S
C1680 H1671 0.929 . S
C1680 C1672 1.378 . S
C1680 C1675 1.350 . S
C1681 H1668 0.929 . S
C1681 C1673 1.433 . S
C1681 N1683 1.384 . S
N1682 C1678 1.427 . S
N1682 C1679 1.384 . S
N1683 C1675 1.427 . S
N1683 C1681 1.384 . S
H1684 C1690 0.930 . S
H1685 C1694 0.930 . S
H1686 C1699 0.929 . S
H1687 C1697 0.929 . S
H1688 C1692 0.929 . S
H1689 C1698 0.929 . S
C1690 H1684 0.930 . S
C1690 C1691 1.367 . S
C1690 C1698 1.378 . S
C1691 C1690 1.367 . S
C1691 C1699 1.433 . S
C1692 H1688 0.929 . S
C1692 C1694 1.378 . S
C1692 C1696 1.350 . S
C1693 C1696 1.463 . S
C1693 C1698 1.350 . S
C1693 N1701 1.427 . S
C1694 H1685 0.930 . S
C1694 C1692 1.378 . S
C1694 C1695 1.367 . S
C1695 C1694 1.367 . S
C1695 C1697 1.433 . S
C1696 C1692 1.350 . S
C1696 C1693 1.463 . S
C1696 N1700 1.427 . S
C1697 H1687 0.929 . S
C1697 C1695 1.433 . S
C1697 N1700 1.384 . S
C1698 H1689 0.929 . S
C1698 C1690 1.378 . S
C1698 C1693 1.350 . S
C1699 H1686 0.929 . S
C1699 C1691 1.433 . S
C1699 N1701 1.384 . S
N1700 C1696 1.427 . S
N1700 C1697 1.384 . S
N1701 C1693 1.427 . S
N1701 C1699 1.384 . S
H1702 C1708 0.930 . S
H1703 C1712 0.930 . S
H1704 C1717 0.929 . S
H1705 C1715 0.929 . S
H1706 C1710 0.929 . S
H1707 C1716 0.929 . S
C1708 H1702 0.930 . S
C1708 C1709 1.367 . S
C1708 C1716 1.378 . S
C1709 C1708 1.367 . S
C1709 C1717 1.433 . S
C1710 H1706 0.929 . S
C1710 C1712 1.378 . S
C1710 C1714 1.350 . S
C1711 C1714 1.463 . S
C1711 C1716 1.350 . S
C1711 N1719 1.427 . S
C1712 H1703 0.930 . S
C1712 C1710 1.378 . S
C1712 C1713 1.367 . S
C1713 C1712 1.367 . S
C1713 C1715 1.433 . S
C1714 C1710 1.350 . S
C1714 C1711 1.463 . S
C1714 N1718 1.427 . S
C1715 H1705 0.929 . S
C1715 C1713 1.433 . S
C1715 N1718 1.384 . S
C1716 H1707 0.929 . S
C1716 C1708 1.378 . S
C1716 C1711 1.350 . S
C1717 H1704 0.929 . S
C1717 C1709 1.433 . S
C1717 N1719 1.384 . S
N1718 C1714 1.427 . S
N1718 C1715 1.384 . S
N1719 C1711 1.427 . S
N1719 C1717 1.384 . S
H1720 C1726 0.930 . S
H1721 C1730 0.930 . S
H1722 C1735 0.929 . S
H1723 C1733 0.929 . S
H1724 C1728 0.929 . S
H1725 C1734 0.929 . S
C1726 H1720 0.930 . S
C1726 C1727 1.367 . S
C1726 C1734 1.378 . S
C1727 C1726 1.367 . S
C1727 C1735 1.433 . S
C1728 H1724 0.929 . S
C1728 C1730 1.378 . S
C1728 C1732 1.350 . S
C1729 C1732 1.463 1_554 S
C1729 C1734 1.350 . S
C1729 N1737 1.427 . S
C1730 H1721 0.930 . S
C1730 C1728 1.378 . S
C1730 C1731 1.367 . S
C1731 C1730 1.367 . S
C1731 C1733 1.433 . S
C1732 C1728 1.350 . S
C1732 C1729 1.463 1_556 S
C1732 N1736 1.427 . S
C1733 H1723 0.929 . S
C1733 C1731 1.433 . S
C1733 N1736 1.384 . S
C1734 H1725 0.929 . S
C1734 C1726 1.378 . S
C1734 C1729 1.350 . S
C1735 H1722 0.929 . S
C1735 C1727 1.433 . S
C1735 N1737 1.384 . S
N1736 C1732 1.427 . S
N1736 C1733 1.384 . S
N1737 C1729 1.427 . S
N1737 C1735 1.384 . S
H1738 C1744 0.930 1_455 S
H1739 C1748 0.930 1_655 S
H1740 C1753 0.929 . S
H1741 C1751 0.929 . S
H1742 C1746 0.929 . S
H1743 C1752 0.929 . S
C1744 H1738 0.930 1_655 S
C1744 C1745 1.367 . S
C1744 C1752 1.378 1_655 S
C1745 C1744 1.367 . S
C1745 C1753 1.433 . S
C1746 H1742 0.929 . S
C1746 C1748 1.378 1_655 S
C1746 C1750 1.350 1_655 S
C1747 C1750 1.463 1_655 S
C1747 C1752 1.350 1_655 S
C1747 N1755 1.427 . S
C1748 H1739 0.930 1_455 S
C1748 C1746 1.378 1_455 S
C1748 C1749 1.367 . S
C1749 C1748 1.367 . S
C1749 C1751 1.433 . S
C1750 C1746 1.350 1_455 S
C1750 C1747 1.463 1_455 S
C1750 N1754 1.427 . S
C1751 H1741 0.929 . S
C1751 C1749 1.433 . S
C1751 N1754 1.384 . S
C1752 H1743 0.929 . S
C1752 C1744 1.378 1_455 S
C1752 C1747 1.350 1_455 S
C1753 H1740 0.929 . S
C1753 C1745 1.433 . S
C1753 N1755 1.384 . S
N1754 C1750 1.427 . S
N1754 C1751 1.384 . S
N1755 C1747 1.427 . S
N1755 C1753 1.384 . S
H1756 C1762 0.930 . S
H1757 C1766 0.930 . S
H1758 C1771 0.929 . S
H1759 C1769 0.929 . S
H1760 C1764 0.989 . S
H1761 C1770 0.989 . S
C1762 H1756 0.930 . S
C1762 C1763 1.367 . S
C1762 C1770 1.378 . S
C1763 C1762 1.367 . S
C1763 C1771 1.433 . S
C1764 H1760 0.989 . S
C1764 C1766 1.378 . S
C1764 C1768 1.350 . S
C1765 C1768 1.463 1_454 S
C1765 C1770 1.350 . S
C1765 N1773 1.427 . S
C1766 H1757 0.930 . S
C1766 C1764 1.378 . S
C1766 C1767 1.367 . S
C1767 C1766 1.367 . S
C1767 C1769 1.433 . S
C1768 C1764 1.350 . S
C1768 C1765 1.463 1_656 S
C1768 N1772 1.427 . S
C1769 H1759 0.929 . S
C1769 C1767 1.433 . S
C1769 N1772 1.384 . S
C1770 H1761 0.989 . S
C1770 C1762 1.378 . S
C1770 C1765 1.350 . S
C1771 H1758 0.929 . S
C1771 C1763 1.433 . S
C1771 N1773 1.384 . S
N1772 C1768 1.427 . S
N1772 C1769 1.384 . S
N1773 C1765 1.427 . S
N1773 C1771 1.384 . S
H1774 C1780 0.930 . S
H1775 C1784 0.930 . S
H1776 C1789 0.929 . S
H1777 C1787 0.929 . S
H1778 C1782 0.929 . S
H1779 C1788 0.929 . S
C1780 H1774 0.930 . S
C1780 C1781 1.367 . S
C1780 C1788 1.378 . S
C1781 C1780 1.367 . S
C1781 C1789 1.433 . S
C1782 H1778 0.929 . S
C1782 C1784 1.378 . S
C1782 C1786 1.350 . S
C1783 C1786 1.463 . S
C1783 C1788 1.350 . S
C1783 N1791 1.427 . S
C1784 H1775 0.930 . S
C1784 C1782 1.378 . S
C1784 C1785 1.367 . S
C1785 C1784 1.367 . S
C1785 C1787 1.433 . S
C1786 C1782 1.350 . S
C1786 C1783 1.463 . S
C1786 N1790 1.427 . S
C1787 H1777 0.929 . S
C1787 C1785 1.433 . S
C1787 N1790 1.384 . S
C1788 H1779 0.929 . S
C1788 C1780 1.378 . S
C1788 C1783 1.350 . S
C1789 H1776 0.929 . S
C1789 C1781 1.433 . S
C1789 N1791 1.384 . S
N1790 C1786 1.427 . S
N1790 C1787 1.384 . S
N1791 C1783 1.427 . S
N1791 C1789 1.384 . S
H1792 C1798 0.930 . S
H1793 C1802 0.930 . S
H1794 C1807 0.929 . S
H1795 C1805 0.951 . S
H1796 C1800 0.929 . S
H1797 C1806 0.929 . S
C1798 H1792 0.930 . S
C1798 C1799 1.367 . S
C1798 C1806 1.378 . S
C1799 C1798 1.367 . S
C1799 C1807 1.433 . S
C1800 H1796 0.929 . S
C1800 C1802 1.378 . S
C1800 C1804 1.350 . S
C1801 C1804 1.463 . S
C1801 C1806 1.350 . S
C1801 N1809 1.427 . S
C1802 H1793 0.930 . S
C1802 C1800 1.378 . S
C1802 C1803 1.367 . S
C1803 C1802 1.367 . S
C1803 C1805 1.421 1_545 S
C1804 C1800 1.350 . S
C1804 C1801 1.463 . S
C1804 N1808 1.427 . S
C1805 H1795 0.951 . S
C1805 C1803 1.421 1_565 S
C1805 N1808 1.373 1_565 S
C1806 H1797 0.929 . S
C1806 C1798 1.378 . S
C1806 C1801 1.350 . S
C1807 H1794 0.929 . S
C1807 C1799 1.433 . S
C1807 N1809 1.384 . S
N1808 C1804 1.427 . S
N1808 C1805 1.373 1_545 S
N1809 C1801 1.427 . S
N1809 C1807 1.384 . S
H1810 C1816 0.930 . S
H1811 C1820 0.930 . S
H1812 C1825 0.929 . S
H1813 C1823 0.929 1_565 S
H1814 C1818 0.929 . S
H1815 C1824 0.929 . S
C1816 H1810 0.930 . S
C1816 C1817 1.367 . S
C1816 C1824 1.378 . S
C1817 C1816 1.367 . S
C1817 C1825 1.433 . S
C1818 H1814 0.929 . S
C1818 C1820 1.378 . S
C1818 C1822 1.350 . S
C1819 C1822 1.463 . S
C1819 C1824 1.350 . S
C1819 N1827 1.427 . S
C1820 H1811 0.930 . S
C1820 C1818 1.378 . S
C1820 C1821 1.367 . S
C1821 C1820 1.367 . S
C1821 C1823 1.433 . S
C1822 C1818 1.350 . S
C1822 C1819 1.463 . S
C1822 N1826 1.427 . S
C1823 H1813 0.929 1_545 S
C1823 C1821 1.433 . S
C1823 N1826 1.384 . S
C1824 H1815 0.929 . S
C1824 C1816 1.378 . S
C1824 C1819 1.350 . S
C1825 H1812 0.929 . S
C1825 C1817 1.433 . S
C1825 N1827 1.384 . S
N1826 C1822 1.427 . S
N1826 C1823 1.384 . S
N1827 C1819 1.427 . S
N1827 C1825 1.384 . S
H1828 C1834 0.928 . S
H1829 C1838 0.930 . S
H1830 C1843 0.929 . S
H1831 C1841 0.929 . S
H1832 C1836 0.929 . S
H1833 C1842 0.929 . S
C1834 H1828 0.928 . S
C1834 C1835 1.368 1_545 S
C1834 C1842 1.379 1_545 S
C1835 C1834 1.368 1_565 S
C1835 C1843 1.433 . S
C1836 H1832 0.929 . S
C1836 C1838 1.378 . S
C1836 C1840 1.350 . S
C1837 C1840 1.463 . S
C1837 C1842 1.350 . S
C1837 N1845 1.427 . S
C1838 H1829 0.930 . S
C1838 C1836 1.378 . S
C1838 C1839 1.367 . S
C1839 C1838 1.367 . S
C1839 C1841 1.433 . S
C1840 C1836 1.350 . S
C1840 C1837 1.463 . S
C1840 N1844 1.427 . S
C1841 H1831 0.929 . S
C1841 C1839 1.433 . S
C1841 N1844 1.384 . S
C1842 H1833 0.929 . S
C1842 C1834 1.379 1_565 S
C1842 C1837 1.350 . S
C1843 H1830 0.929 . S
C1843 C1835 1.433 . S
C1843 N1845 1.384 . S
N1844 C1840 1.427 . S
N1844 C1841 1.384 . S
N1845 C1837 1.427 . S
N1845 C1843 1.384 . S
H1846 C1852 0.930 . S
H1847 C1856 0.930 1_545 S
H1848 C1861 0.929 . S
H1849 C1859 0.929 . S
H1850 C1854 0.929 . S
H1851 C1860 0.929 . S
C1852 H1846 0.930 . S
C1852 C1853 1.367 . S
C1852 C1860 1.378 . S
C1853 C1852 1.367 . S
C1853 C1861 1.433 . S
C1854 H1850 0.929 . S
C1854 C1856 1.378 . S
C1854 C1858 1.350 . S
C1855 C1858 1.463 . S
C1855 C1860 1.350 . S
C1855 N1863 1.427 . S
C1856 H1847 0.930 1_565 S
C1856 C1854 1.378 . S
C1856 C1857 1.367 . S
C1857 C1856 1.367 . S
C1857 C1859 1.433 . S
C1858 C1854 1.350 . S
C1858 C1855 1.463 . S
C1858 N1862 1.427 . S
C1859 H1849 0.929 . S
C1859 C1857 1.433 . S
C1859 N1862 1.384 . S
C1860 H1851 0.929 . S
C1860 C1852 1.378 . S
C1860 C1855 1.350 . S
C1861 H1848 0.929 . S
C1861 C1853 1.433 . S
C1861 N1863 1.384 . S
N1862 C1858 1.427 . S
N1862 C1859 1.384 . S
N1863 C1855 1.427 . S
N1863 C1861 1.384 . S
H1864 C1870 0.930 . S
H1865 C1874 0.930 . S
H1866 C1879 0.929 . S
H1867 C1877 0.931 1_545 S
H1868 C1872 0.929 . S
H1869 C1878 0.929 . S
C1870 H1864 0.930 . S
C1870 C1871 1.367 . S
C1870 C1878 1.378 . S
C1871 C1870 1.367 . S
C1871 C1879 1.433 . S
C1872 H1868 0.929 . S
C1872 C1874 1.378 . S
C1872 C1876 1.350 . S
C1873 C1876 1.463 . S
C1873 C1878 1.350 . S
C1873 N1881 1.427 . S
C1874 H1865 0.930 . S
C1874 C1872 1.378 . S
C1874 C1875 1.367 . S
C1875 C1874 1.367 . S
C1875 C1877 1.432 . S
C1876 C1872 1.350 . S
C1876 C1873 1.463 . S
C1876 N1880 1.427 . S
C1877 H1867 0.931 1_565 S
C1877 C1875 1.432 . S
C1877 N1880 1.383 . S
C1878 H1869 0.929 . S
C1878 C1870 1.378 . S
C1878 C1873 1.350 . S
C1879 H1866 0.929 . S
C1879 C1871 1.433 . S
C1879 N1881 1.384 . S
N1880 C1876 1.427 . S
N1880 C1877 1.383 . S
N1881 C1873 1.427 . S
N1881 C1879 1.384 . S
H1882 C1888 0.930 . S
H1883 C1892 0.930 . S
H1884 C1897 0.929 1_545 S
H1885 C1895 0.929 . S
H1886 C1890 0.929 . S
H1887 C1896 0.929 . S
C1888 H1882 0.930 . S
C1888 C1889 1.367 . S
C1888 C1896 1.378 . S
C1889 C1888 1.367 . S
C1889 C1897 1.433 . S
C1890 H1886 0.929 . S
C1890 C1892 1.378 . S
C1890 C1894 1.350 . S
C1891 C1894 1.463 . S
C1891 C1896 1.350 . S
C1891 N1899 1.427 . S
C1892 H1883 0.930 . S
C1892 C1890 1.378 . S
C1892 C1893 1.367 . S
C1893 C1892 1.367 . S
C1893 C1895 1.433 . S
C1894 C1890 1.350 . S
C1894 C1891 1.463 . S
C1894 N1898 1.427 . S
C1895 H1885 0.929 . S
C1895 C1893 1.433 . S
C1895 N1898 1.384 . S
C1896 H1887 0.929 . S
C1896 C1888 1.378 . S
C1896 C1891 1.350 . S
C1897 H1884 0.929 1_565 S
C1897 C1889 1.433 . S
C1897 N1899 1.384 . S
N1898 C1894 1.427 . S
N1898 C1895 1.384 . S
N1899 C1891 1.427 . S
N1899 C1897 1.384 . S
H1900 C1906 0.930 . S
H1901 C1910 0.930 . S
H1902 C1915 0.929 . S
H1903 C1913 0.929 . S
H1904 C1908 0.929 . S
H1905 C1914 0.929 . S
C1906 H1900 0.930 . S
C1906 C1907 1.367 . S
C1906 C1914 1.378 . S
C1907 C1906 1.367 . S
C1907 C1915 1.433 . S
C1908 H1904 0.929 . S
C1908 C1910 1.378 . S
C1908 C1912 1.350 . S
C1909 C1912 1.463 . S
C1909 C1914 1.350 . S
C1909 N1917 1.427 . S
C1910 H1901 0.930 . S
C1910 C1908 1.378 . S
C1910 C1911 1.367 . S
C1911 C1910 1.367 . S
C1911 C1913 1.433 . S
C1912 C1908 1.350 . S
C1912 C1909 1.463 . S
C1912 N1916 1.427 . S
C1913 H1903 0.929 . S
C1913 C1911 1.433 . S
C1913 N1916 1.384 . S
C1914 H1905 0.929 . S
C1914 C1906 1.378 . S
C1914 C1909 1.350 . S
C1915 H1902 0.929 . S
C1915 C1907 1.433 . S
C1915 N1917 1.384 . S
N1916 C1912 1.427 . S
N1916 C1913 1.384 . S
N1917 C1909 1.427 . S
N1917 C1915 1.384 . S
H1918 C1924 0.930 . S
H1919 C1928 0.930 . S
H1920 C1933 0.914 1_565 S
H1921 C1931 0.929 . S
H1922 C1926 0.929 . S
H1923 C1932 0.929 . S
C1924 H1918 0.930 . S
C1924 C1925 1.367 . S
C1924 C1932 1.378 . S
C1925 C1924 1.367 . S
C1925 C1933 1.433 . S
C1926 H1922 0.929 . S
C1926 C1928 1.378 . S
C1926 C1930 1.350 . S
C1927 C1930 1.463 . S
C1927 C1932 1.350 . S
C1927 N1935 1.427 . S
C1928 H1919 0.930 . S
C1928 C1926 1.378 . S
C1928 C1929 1.367 . S
C1929 C1928 1.367 . S
C1929 C1931 1.433 . S
C1930 C1926 1.350 . S
C1930 C1927 1.463 . S
C1930 N1934 1.427 . S
C1931 H1921 0.929 . S
C1931 C1929 1.433 . S
C1931 N1934 1.384 . S
C1932 H1923 0.929 . S
C1932 C1924 1.378 . S
C1932 C1927 1.350 . S
C1933 H1920 0.914 1_545 S
C1933 C1925 1.433 . S
C1933 N1935 1.384 . S
N1934 C1930 1.427 . S
N1934 C1931 1.384 . S
N1935 C1927 1.427 . S
N1935 C1933 1.384 . S
H1936 C1942 0.930 . S
H1937 C1946 0.930 . S
H1938 C1951 0.929 . S
H1939 C1949 0.929 . S
H1940 C1944 0.929 . S
H1941 C1950 0.929 . S
C1942 H1936 0.930 . S
C1942 C1943 1.367 . S
C1942 C1950 1.378 . S
C1943 C1942 1.367 . S
C1943 C1951 1.433 . S
C1944 H1940 0.929 . S
C1944 C1946 1.378 . S
C1944 C1948 1.350 . S
C1945 C1948 1.463 . S
C1945 C1950 1.350 . S
C1945 N1953 1.427 . S
C1946 H1937 0.930 . S
C1946 C1944 1.378 . S
C1946 C1947 1.367 . S
C1947 C1946 1.367 . S
C1947 C1949 1.433 . S
C1948 C1944 1.350 . S
C1948 C1945 1.463 . S
C1948 N1952 1.427 . S
C1949 H1939 0.929 . S
C1949 C1947 1.433 . S
C1949 N1952 1.384 . S
C1950 H1941 0.929 . S
C1950 C1942 1.378 . S
C1950 C1945 1.350 . S
C1951 H1938 0.929 . S
C1951 C1943 1.433 . S
C1951 N1953 1.384 . S
N1952 C1948 1.427 . S
N1952 C1949 1.384 . S
N1953 C1945 1.427 . S
N1953 C1951 1.384 . S
H1954 C1960 0.930 . S
H1955 C1964 0.930 . S
H1956 C1969 0.929 . S
H1957 C1967 0.929 . S
H1958 C1962 0.929 . S
H1959 C1968 0.929 . S
C1960 H1954 0.930 . S
C1960 C1961 1.367 . S
C1960 C1968 1.378 . S
C1961 C1960 1.367 . S
C1961 C1969 1.433 . S
C1962 H1958 0.929 . S
C1962 C1964 1.378 . S
C1962 C1966 1.350 . S
C1963 C1966 1.463 . S
C1963 C1968 1.350 . S
C1963 N1971 1.427 . S
C1964 H1955 0.930 . S
C1964 C1962 1.378 . S
C1964 C1965 1.367 . S
C1965 C1964 1.367 . S
C1965 C1967 1.433 . S
C1966 C1962 1.350 . S
C1966 C1963 1.463 . S
C1966 N1970 1.427 . S
C1967 H1957 0.929 . S
C1967 C1965 1.433 . S
C1967 N1970 1.384 . S
C1968 H1959 0.929 . S
C1968 C1960 1.378 . S
C1968 C1963 1.350 . S
C1969 H1956 0.929 . S
C1969 C1961 1.433 . S
C1969 N1971 1.384 . S
N1970 C1966 1.427 . S
N1970 C1967 1.384 . S
N1971 C1963 1.427 . S
N1971 C1969 1.384 . S
H1972 C1978 0.930 . S
H1973 C1982 0.930 . S
H1974 C1987 0.929 . S
H1975 C1985 0.929 . S
H1976 C1980 0.929 . S
H1977 C1986 0.929 . S
C1978 H1972 0.930 . S
C1978 C1979 1.367 . S
C1978 C1986 1.378 . S
C1979 C1978 1.367 . S
C1979 C1987 1.433 . S
C1980 H1976 0.929 . S
C1980 C1982 1.378 . S
C1980 C1984 1.350 . S
C1981 C1984 1.463 . S
C1981 C1986 1.350 . S
C1981 N1989 1.427 . S
C1982 H1973 0.930 . S
C1982 C1980 1.378 . S
C1982 C1983 1.367 . S
C1983 C1982 1.367 . S
C1983 C1985 1.433 . S
C1984 C1980 1.350 . S
C1984 C1981 1.463 . S
C1984 N1988 1.427 . S
C1985 H1975 0.929 . S
C1985 C1983 1.433 . S
C1985 N1988 1.384 . S
C1986 H1977 0.929 . S
C1986 C1978 1.378 . S
C1986 C1981 1.350 . S
C1987 H1974 0.929 . S
C1987 C1979 1.433 . S
C1987 N1989 1.384 . S
N1988 C1984 1.427 . S
N1988 C1985 1.384 . S
N1989 C1981 1.427 . S
N1989 C1987 1.384 . S
H1990 C1996 0.930 . S
H1991 C2000 0.930 . S
H1992 C2005 0.929 . S
H1993 C2003 0.929 . S
H1994 C1998 0.929 . S
H1995 C2004 0.929 . S
C1996 H1990 0.930 . S
C1996 C1997 1.367 . S
C1996 C2004 1.378 . S
C1997 C1996 1.367 . S
C1997 C2005 1.433 . S
C1998 H1994 0.929 . S
C1998 C2000 1.378 . S
C1998 C2002 1.350 . S
C1999 C2002 1.463 . S
C1999 C2004 1.350 . S
C1999 N2007 1.427 . S
C2000 H1991 0.930 . S
C2000 C1998 1.378 . S
C2000 C2001 1.367 . S
C2001 C2000 1.367 . S
C2001 C2003 1.433 . S
C2002 C1998 1.350 . S
C2002 C1999 1.463 . S
C2002 N2006 1.427 . S
C2003 H1993 0.929 . S
C2003 C2001 1.433 . S
C2003 N2006 1.384 . S
C2004 H1995 0.929 . S
C2004 C1996 1.378 . S
C2004 C1999 1.350 . S
C2005 H1992 0.929 . S
C2005 C1997 1.433 . S
C2005 N2007 1.384 . S
N2006 C2002 1.427 . S
N2006 C2003 1.384 . S
N2007 C1999 1.427 . S
N2007 C2005 1.384 . S
H2008 C2014 0.930 . S
H2009 C2018 0.930 . S
H2010 C2023 0.929 . S
H2011 C2021 0.929 . S
H2012 C2016 0.929 . S
H2013 C2022 0.929 . S
C2014 H2008 0.930 . S
C2014 C2015 1.367 . S
C2014 C2022 1.378 . S
C2015 C2014 1.367 . S
C2015 C2023 1.433 . S
C2016 H2012 0.929 . S
C2016 C2018 1.378 . S
C2016 C2020 1.350 . S
C2017 C2020 1.463 . S
C2017 C2022 1.350 . S
C2017 N2025 1.427 . S
C2018 H2009 0.930 . S
C2018 C2016 1.378 . S
C2018 C2019 1.367 . S
C2019 C2018 1.367 . S
C2019 C2021 1.433 . S
C2020 C2016 1.350 . S
C2020 C2017 1.463 . S
C2020 N2024 1.427 . S
C2021 H2011 0.929 . S
C2021 C2019 1.433 . S
C2021 N2024 1.384 . S
C2022 H2013 0.929 . S
C2022 C2014 1.378 . S
C2022 C2017 1.350 . S
C2023 H2010 0.929 . S
C2023 C2015 1.433 . S
C2023 N2025 1.384 . S
N2024 C2020 1.427 . S
N2024 C2021 1.384 . S
N2025 C2017 1.427 . S
N2025 C2023 1.384 . S
H2026 C2032 0.930 . S
H2027 C2036 0.930 . S
H2028 C2041 0.929 . S
H2029 C2039 0.929 . S
H2030 C2034 0.929 . S
H2031 C2040 0.929 . S
C2032 H2026 0.930 . S
C2032 C2033 1.367 . S
C2032 C2040 1.378 . S
C2033 C2032 1.367 . S
C2033 C2041 1.433 . S
C2034 H2030 0.929 . S
C2034 C2036 1.378 . S
C2034 C2038 1.350 . S
C2035 C2038 1.463 . S
C2035 C2040 1.350 . S
C2035 N2043 1.427 . S
C2036 H2027 0.930 . S
C2036 C2034 1.378 . S
C2036 C2037 1.367 . S
C2037 C2036 1.367 . S
C2037 C2039 1.433 . S
C2038 C2034 1.350 . S
C2038 C2035 1.463 . S
C2038 N2042 1.427 . S
C2039 H2029 0.929 . S
C2039 C2037 1.433 . S
C2039 N2042 1.384 . S
C2040 H2031 0.929 . S
C2040 C2032 1.378 . S
C2040 C2035 1.350 . S
C2041 H2028 0.929 . S
C2041 C2033 1.433 . S
C2041 N2043 1.384 . S
N2042 C2038 1.427 . S
N2042 C2039 1.384 . S
N2043 C2035 1.427 . S
N2043 C2041 1.384 . S
H2044 C2050 0.930 . S
H2045 C2054 0.930 . S
H2046 C2059 0.929 . S
H2047 C2057 0.929 . S
H2048 C2052 0.929 . S
H2049 C2058 0.929 . S
C2050 H2044 0.930 . S
C2050 C2051 1.367 . S
C2050 C2058 1.378 . S
C2051 C2050 1.367 . S
C2051 C2059 1.433 . S
C2052 H2048 0.929 . S
C2052 C2054 1.378 . S
C2052 C2056 1.350 . S
C2053 C2056 1.463 . S
C2053 C2058 1.350 . S
C2053 N2061 1.427 . S
C2054 H2045 0.930 . S
C2054 C2052 1.378 . S
C2054 C2055 1.367 . S
C2055 C2054 1.367 . S
C2055 C2057 1.433 . S
C2056 C2052 1.350 . S
C2056 C2053 1.463 . S
C2056 N2060 1.427 . S
C2057 H2047 0.929 . S
C2057 C2055 1.433 . S
C2057 N2060 1.384 . S
C2058 H2049 0.929 . S
C2058 C2050 1.378 . S
C2058 C2053 1.350 . S
C2059 H2046 0.929 . S
C2059 C2051 1.433 . S
C2059 N2061 1.384 . S
N2060 C2056 1.427 . S
N2060 C2057 1.384 . S
N2061 C2053 1.427 . S
N2061 C2059 1.384 . S
H2062 C2068 0.930 . S
H2063 C2072 0.930 . S
H2064 C2077 0.929 . S
H2065 C2075 0.929 . S
H2066 C2070 0.929 . S
H2067 C2076 0.929 . S
C2068 H2062 0.930 . S
C2068 C2069 1.367 . S
C2068 C2076 1.378 . S
C2069 C2068 1.367 . S
C2069 C2077 1.433 . S
C2070 H2066 0.929 . S
C2070 C2072 1.378 . S
C2070 C2074 1.350 . S
C2071 C2074 1.463 . S
C2071 C2076 1.350 . S
C2071 N2079 1.427 . S
C2072 H2063 0.930 . S
C2072 C2070 1.378 . S
C2072 C2073 1.367 . S
C2073 C2072 1.367 . S
C2073 C2075 1.433 . S
C2074 C2070 1.350 . S
C2074 C2071 1.463 . S
C2074 N2078 1.427 . S
C2075 H2065 0.929 . S
C2075 C2073 1.433 . S
C2075 N2078 1.384 . S
C2076 H2067 0.929 . S
C2076 C2068 1.378 . S
C2076 C2071 1.350 . S
C2077 H2064 0.929 . S
C2077 C2069 1.433 . S
C2077 N2079 1.384 . S
N2078 C2074 1.427 . S
N2078 C2075 1.384 . S
N2079 C2071 1.427 . S
N2079 C2077 1.384 . S
H2080 C2086 0.930 . S
H2081 C2090 0.930 . S
H2082 C2095 0.929 . S
H2083 C2093 0.929 . S
H2084 C2088 0.929 . S
H2085 C2094 0.929 . S
C2086 H2080 0.930 . S
C2086 C2087 1.367 . S
C2086 C2094 1.378 . S
C2087 C2086 1.367 . S
C2087 C2095 1.433 . S
C2088 H2084 0.929 . S
C2088 C2090 1.378 . S
C2088 C2092 1.350 . S
C2089 C2092 1.463 1_545 S
C2089 C2094 1.350 . S
C2089 N2097 1.427 . S
C2090 H2081 0.930 . S
C2090 C2088 1.378 . S
C2090 C2091 1.367 . S
C2091 C2090 1.367 . S
C2091 C2093 1.433 . S
C2092 C2088 1.350 . S
C2092 C2089 1.463 1_565 S
C2092 N2096 1.427 . S
C2093 H2083 0.929 . S
C2093 C2091 1.433 . S
C2093 N2096 1.384 . S
C2094 H2085 0.929 . S
C2094 C2086 1.378 . S
C2094 C2089 1.350 . S
C2095 H2082 0.929 . S
C2095 C2087 1.433 . S
C2095 N2097 1.384 . S
N2096 C2092 1.427 . S
N2096 C2093 1.384 . S
N2097 C2089 1.427 . S
N2097 C2095 1.384 . S
H2098 C2104 0.930 . S
H2099 C2108 0.930 . S
H2100 C2113 0.929 . S
H2101 C2111 0.929 . S
H2102 C2106 0.929 . S
H2103 C2112 0.929 . S
C2104 H2098 0.930 . S
C2104 C2105 1.367 . S
C2104 C2112 1.378 . S
C2105 C2104 1.367 . S
C2105 C2113 1.433 . S
C2106 H2102 0.929 . S
C2106 C2108 1.378 . S
C2106 C2110 1.350 . S
C2107 C2110 1.463 . S
C2107 C2112 1.350 . S
C2107 N2115 1.427 . S
C2108 H2099 0.930 . S
C2108 C2106 1.378 . S
C2108 C2109 1.367 . S
C2109 C2108 1.367 . S
C2109 C2111 1.433 . S
C2110 C2106 1.350 . S
C2110 C2107 1.463 . S
C2110 N2114 1.427 . S
C2111 H2101 0.929 . S
C2111 C2109 1.433 . S
C2111 N2114 1.384 . S
C2112 H2103 0.929 . S
C2112 C2104 1.378 . S
C2112 C2107 1.350 . S
C2113 H2100 0.929 . S
C2113 C2105 1.433 . S
C2113 N2115 1.384 . S
N2114 C2110 1.427 . S
N2114 C2111 1.384 . S
N2115 C2107 1.427 . S
N2115 C2113 1.384 . S
H2116 C2122 0.930 . S
H2117 C2126 0.930 . S
H2118 C2131 0.929 . S
H2119 C2129 0.929 . S
H2120 C2124 0.929 . S
H2121 C2130 0.929 . S
C2122 H2116 0.930 . S
C2122 C2123 1.367 . S
C2122 C2130 1.378 . S
C2123 C2122 1.367 . S
C2123 C2131 1.433 . S
C2124 H2120 0.929 . S
C2124 C2126 1.378 . S
C2124 C2128 1.350 . S
C2125 C2128 1.463 1_545 S
C2125 C2130 1.350 . S
C2125 N2133 1.427 . S
C2126 H2117 0.930 . S
C2126 C2124 1.378 . S
C2126 C2127 1.367 . S
C2127 C2126 1.367 . S
C2127 C2129 1.433 . S
C2128 C2124 1.350 . S
C2128 C2125 1.463 1_565 S
C2128 N2132 1.427 . S
C2129 H2119 0.929 . S
C2129 C2127 1.433 . S
C2129 N2132 1.384 . S
C2130 H2121 0.929 . S
C2130 C2122 1.378 . S
C2130 C2125 1.350 . S
C2131 H2118 0.929 . S
C2131 C2123 1.433 . S
C2131 N2133 1.384 . S
N2132 C2128 1.427 . S
N2132 C2129 1.384 . S
N2133 C2125 1.427 . S
N2133 C2131 1.384 . S
H2134 C2140 0.930 . S
H2135 C2144 0.930 . S
H2136 C2149 0.929 . S
H2137 C2147 0.929 . S
H2138 C2142 0.929 . S
H2139 C2148 0.929 . S
C2140 H2134 0.930 . S
C2140 C2141 1.367 . S
C2140 C2148 1.378 . S
C2141 C2140 1.367 . S
C2141 C2149 1.433 . S
C2142 H2138 0.929 . S
C2142 C2144 1.378 . S
C2142 C2146 1.350 . S
C2143 C2146 1.463 1_556 S
C2143 C2148 1.350 . S
C2143 N2151 1.427 . S
C2144 H2135 0.930 . S
C2144 C2142 1.378 . S
C2144 C2145 1.367 . S
C2145 C2144 1.367 . S
C2145 C2147 1.433 . S
C2146 C2142 1.350 . S
C2146 C2143 1.463 1_554 S
C2146 N2150 1.427 . S
C2147 H2137 0.929 . S
C2147 C2145 1.433 . S
C2147 N2150 1.384 . S
C2148 H2139 0.929 . S
C2148 C2140 1.378 . S
C2148 C2143 1.350 . S
C2149 H2136 0.929 . S
C2149 C2141 1.433 . S
C2149 N2151 1.384 . S
N2150 C2146 1.427 . S
N2150 C2147 1.384 . S
N2151 C2143 1.427 . S
N2151 C2149 1.384 . S
H2152 C2158 0.930 . S
H2153 C2162 0.930 . S
H2154 C2167 0.929 . S
H2155 C2165 0.929 . S
H2156 C2160 0.929 . S
H2157 C2166 0.929 . S
C2158 H2152 0.930 . S
C2158 C2159 1.367 . S
C2158 C2166 1.378 . S
C2159 C2158 1.367 . S
C2159 C2167 1.433 . S
C2160 H2156 0.929 . S
C2160 C2162 1.378 . S
C2160 C2164 1.350 . S
C2161 C2164 1.463 1_565 S
C2161 C2166 1.350 . S
C2161 N2169 1.427 . S
C2162 H2153 0.930 . S
C2162 C2160 1.378 . S
C2162 C2163 1.367 . S
C2163 C2162 1.367 . S
C2163 C2165 1.433 . S
C2164 C2160 1.350 . S
C2164 C2161 1.463 1_545 S
C2164 N2168 1.427 . S
C2165 H2155 0.929 . S
C2165 C2163 1.433 . S
C2165 N2168 1.384 . S
C2166 H2157 0.929 . S
C2166 C2158 1.378 . S
C2166 C2161 1.350 . S
C2167 H2154 0.929 . S
C2167 C2159 1.433 . S
C2167 N2169 1.384 . S
N2168 C2164 1.427 . S
N2168 C2165 1.384 . S
N2169 C2161 1.427 . S
N2169 C2167 1.384 . S
H2170 C2176 0.930 . S
H2171 C2180 0.930 . S
H2172 C2185 0.929 . S
H2173 C2183 0.929 . S
H2174 C2178 0.929 . S
H2175 C2184 0.929 . S
C2176 H2170 0.930 . S
C2176 C2177 1.367 . S
C2176 C2184 1.378 . S
C2177 C2176 1.367 . S
C2177 C2185 1.433 . S
C2178 H2174 0.929 . S
C2178 C2180 1.378 . S
C2178 C2182 1.350 . S
C2179 C2182 1.463 . S
C2179 C2184 1.350 . S
C2179 N2187 1.427 . S
C2180 H2171 0.930 . S
C2180 C2178 1.378 . S
C2180 C2181 1.367 . S
C2181 C2180 1.367 . S
C2181 C2183 1.433 . S
C2182 C2178 1.350 . S
C2182 C2179 1.463 . S
C2182 N2186 1.427 . S
C2183 H2173 0.929 . S
C2183 C2181 1.433 . S
C2183 N2186 1.384 . S
C2184 H2175 0.929 . S
C2184 C2176 1.378 . S
C2184 C2179 1.350 . S
C2185 H2172 0.929 . S
C2185 C2177 1.433 . S
C2185 N2187 1.384 . S
N2186 C2182 1.427 . S
N2186 C2183 1.384 . S
N2187 C2179 1.427 . S
N2187 C2185 1.384 . S
H2188 C2194 0.930 . S
H2189 C2198 0.930 . S
H2190 C2203 0.929 . S
H2191 C2201 0.929 . S
H2192 C2196 0.929 1_565 S
H2193 C2202 0.929 1_545 S
C2194 H2188 0.930 . S
C2194 C2195 1.367 . S
C2194 C2202 1.378 . S
C2195 C2194 1.367 . S
C2195 C2203 1.433 . S
C2196 H2192 0.929 1_545 S
C2196 C2198 1.378 . S
C2196 C2200 1.350 . S
C2197 C2200 1.463 1_565 S
C2197 C2202 1.350 . S
C2197 N2205 1.427 . S
C2198 H2189 0.930 . S
C2198 C2196 1.378 . S
C2198 C2199 1.367 . S
C2199 C2198 1.367 . S
C2199 C2201 1.433 . S
C2200 C2196 1.350 . S
C2200 C2197 1.463 1_545 S
C2200 N2204 1.427 . S
C2201 H2191 0.929 . S
C2201 C2199 1.433 . S
C2201 N2204 1.384 . S
C2202 H2193 0.929 1_565 S
C2202 C2194 1.378 . S
C2202 C2197 1.350 . S
C2203 H2190 0.929 . S
C2203 C2195 1.433 . S
C2203 N2205 1.384 . S
N2204 C2200 1.427 . S
N2204 C2201 1.384 . S
N2205 C2197 1.427 . S
N2205 C2203 1.384 . S
H2206 C2212 0.930 . S
H2207 C2216 0.930 . S
H2208 C2221 0.929 . S
H2209 C2219 0.929 . S
H2210 C2214 0.929 . S
H2211 C2220 0.929 . S
C2212 H2206 0.930 . S
C2212 C2213 1.367 . S
C2212 C2220 1.378 . S
C2213 C2212 1.367 . S
C2213 C2221 1.433 . S
C2214 H2210 0.929 . S
C2214 C2216 1.378 . S
C2214 C2218 1.350 . S
C2215 C2218 1.463 1_554 S
C2215 C2220 1.350 . S
C2215 N2223 1.427 . S
C2216 H2207 0.930 . S
C2216 C2214 1.378 . S
C2216 C2217 1.367 . S
C2217 C2216 1.367 . S
C2217 C2219 1.433 . S
C2218 C2214 1.350 . S
C2218 C2215 1.463 1_556 S
C2218 N2222 1.427 . S
C2219 H2209 0.929 . S
C2219 C2217 1.433 . S
C2219 N2222 1.384 . S
C2220 H2211 0.929 . S
C2220 C2212 1.378 . S
C2220 C2215 1.350 . S
C2221 H2208 0.929 . S
C2221 C2213 1.433 . S
C2221 N2223 1.384 . S
N2222 C2218 1.427 . S
N2222 C2219 1.384 . S
N2223 C2215 1.427 . S
N2223 C2221 1.384 . S
H2224 C2230 0.930 . S
H2225 C2234 0.930 . S
H2226 C2239 0.929 . S
H2227 C2237 0.929 . S
H2228 C2232 0.929 . S
H2229 C2238 0.929 . S
C2230 H2224 0.930 . S
C2230 C2231 1.367 . S
C2230 C2238 1.378 . S
C2231 C2230 1.367 . S
C2231 C2239 1.433 . S
C2232 H2228 0.929 . S
C2232 C2234 1.378 . S
C2232 C2236 1.350 . S
C2233 C2236 1.463 . S
C2233 C2238 1.350 . S
C2233 N2241 1.427 . S
C2234 H2225 0.930 . S
C2234 C2232 1.378 . S
C2234 C2235 1.367 . S
C2235 C2234 1.367 . S
C2235 C2237 1.433 . S
C2236 C2232 1.350 . S
C2236 C2233 1.463 . S
C2236 N2240 1.427 . S
C2237 H2227 0.929 . S
C2237 C2235 1.433 . S
C2237 N2240 1.384 . S
C2238 H2229 0.929 . S
C2238 C2230 1.378 . S
C2238 C2233 1.350 . S
C2239 H2226 0.929 . S
C2239 C2231 1.433 . S
C2239 N2241 1.384 . S
N2240 C2236 1.427 . S
N2240 C2237 1.384 . S
N2241 C2233 1.427 . S
N2241 C2239 1.384 . S
H2242 C2248 0.930 . S
H2243 C2252 0.930 . S
H2244 C2257 0.929 . S
H2245 C2255 0.929 . S
H2246 C2250 0.963 . S
H2247 C2256 0.963 . S
C2248 H2242 0.930 . S
C2248 C2249 1.367 . S
C2248 C2256 1.356 1_556 S
C2249 C2248 1.367 . S
C2249 C2257 1.433 . S
C2250 H2246 0.963 . S
C2250 C2252 1.356 1_556 S
C2250 C2254 1.338 1_556 S
C2251 C2254 1.463 1_556 S
C2251 C2256 1.338 1_556 S
C2251 N2259 1.427 . S
C2252 H2243 0.930 . S
C2252 C2250 1.356 1_554 S
C2252 C2253 1.367 . S
C2253 C2252 1.367 . S
C2253 C2255 1.433 . S
C2254 C2250 1.338 1_554 S
C2254 C2251 1.463 1_554 S
C2254 N2258 1.427 . S
C2255 H2245 0.929 . S
C2255 C2253 1.433 . S
C2255 N2258 1.384 . S
C2256 H2247 0.963 . S
C2256 C2248 1.356 1_554 S
C2256 C2251 1.338 1_554 S
C2257 H2244 0.929 . S
C2257 C2249 1.433 . S
C2257 N2259 1.384 . S
N2258 C2254 1.427 . S
N2258 C2255 1.384 . S
N2259 C2251 1.427 . S
N2259 C2257 1.384 . S
H2260 C2266 0.930 . S
H2261 C2270 0.930 . S
H2262 C2275 0.929 . S
H2263 C2273 0.929 . S
H2264 C2268 0.929 . S
H2265 C2274 0.929 . S
C2266 H2260 0.930 . S
C2266 C2267 1.367 . S
C2266 C2274 1.378 . S
C2267 C2266 1.367 . S
C2267 C2275 1.433 . S
C2268 H2264 0.929 . S
C2268 C2270 1.378 . S
C2268 C2272 1.350 . S
C2269 C2272 1.463 . S
C2269 C2274 1.350 . S
C2269 N2277 1.427 . S
C2270 H2261 0.930 . S
C2270 C2268 1.378 . S
C2270 C2271 1.367 . S
C2271 C2270 1.367 . S
C2271 C2273 1.433 . S
C2272 C2268 1.350 . S
C2272 C2269 1.463 . S
C2272 N2276 1.427 . S
C2273 H2263 0.929 . S
C2273 C2271 1.433 . S
C2273 N2276 1.384 . S
C2274 H2265 0.929 . S
C2274 C2266 1.378 . S
C2274 C2269 1.350 . S
C2275 H2262 0.929 . S
C2275 C2267 1.433 . S
C2275 N2277 1.384 . S
N2276 C2272 1.427 . S
N2276 C2273 1.384 . S
N2277 C2269 1.427 . S
N2277 C2275 1.384 . S
H2278 C2284 0.930 . S
H2279 C2288 0.930 . S
H2280 C2293 0.929 . S
H2281 C2291 0.929 . S
H2282 C2286 0.929 . S
H2283 C2292 0.929 . S
C2284 H2278 0.930 . S
C2284 C2285 1.367 . S
C2284 C2292 1.378 . S
C2285 C2284 1.367 . S
C2285 C2293 1.433 . S
C2286 H2282 0.929 . S
C2286 C2288 1.378 . S
C2286 C2290 1.350 . S
C2287 C2290 1.463 . S
C2287 C2292 1.350 . S
C2287 N2295 1.427 . S
C2288 H2279 0.930 . S
C2288 C2286 1.378 . S
C2288 C2289 1.367 . S
C2289 C2288 1.367 . S
C2289 C2291 1.433 . S
C2290 C2286 1.350 . S
C2290 C2287 1.463 . S
C2290 N2294 1.427 . S
C2291 H2281 0.929 . S
C2291 C2289 1.433 . S
C2291 N2294 1.384 . S
C2292 H2283 0.929 . S
C2292 C2284 1.378 . S
C2292 C2287 1.350 . S
C2293 H2280 0.929 . S
C2293 C2285 1.433 . S
C2293 N2295 1.384 . S
N2294 C2290 1.427 . S
N2294 C2291 1.384 . S
N2295 C2287 1.427 . S
N2295 C2293 1.384 . S
H2296 C2302 0.930 . S
H2297 C2306 0.930 . S
H2298 C2311 0.929 . S
H2299 C2309 0.929 . S
H2300 C2304 0.929 . S
H2301 C2310 0.929 . S
C2302 H2296 0.930 . S
C2302 C2303 1.367 . S
C2302 C2310 1.378 . S
C2303 C2302 1.367 . S
C2303 C2311 1.433 . S
C2304 H2300 0.929 . S
C2304 C2306 1.378 . S
C2304 C2308 1.350 . S
C2305 C2308 1.463 . S
C2305 C2310 1.350 . S
C2305 N2313 1.427 . S
C2306 H2297 0.930 . S
C2306 C2304 1.378 . S
C2306 C2307 1.367 . S
C2307 C2306 1.367 . S
C2307 C2309 1.433 . S
C2308 C2304 1.350 . S
C2308 C2305 1.463 . S
C2308 N2312 1.427 . S
C2309 H2299 0.929 . S
C2309 C2307 1.433 . S
C2309 N2312 1.384 . S
C2310 H2301 0.929 . S
C2310 C2302 1.378 . S
C2310 C2305 1.350 . S
C2311 H2298 0.929 . S
C2311 C2303 1.433 . S
C2311 N2313 1.384 . S
N2312 C2308 1.427 . S
N2312 C2309 1.384 . S
N2313 C2305 1.427 . S
N2313 C2311 1.384 . S
H2314 C2320 0.930 . S
H2315 C2324 0.930 . S
H2316 C2329 0.929 . S
H2317 C2327 0.929 . S
H2318 C2322 0.929 . S
H2319 C2328 0.929 . S
C2320 H2314 0.930 . S
C2320 C2321 1.367 . S
C2320 C2328 1.378 . S
C2321 C2320 1.367 . S
C2321 C2329 1.433 . S
C2322 H2318 0.929 . S
C2322 C2324 1.378 . S
C2322 C2326 1.350 . S
C2323 C2326 1.463 1_556 S
C2323 C2328 1.350 . S
C2323 N2331 1.427 . S
C2324 H2315 0.930 . S
C2324 C2322 1.378 . S
C2324 C2325 1.367 . S
C2325 C2324 1.367 . S
C2325 C2327 1.433 . S
C2326 C2322 1.350 . S
C2326 C2323 1.463 1_554 S
C2326 N2330 1.427 . S
C2327 H2317 0.929 . S
C2327 C2325 1.433 . S
C2327 N2330 1.384 . S
C2328 H2319 0.929 . S
C2328 C2320 1.378 . S
C2328 C2323 1.350 . S
C2329 H2316 0.929 . S
C2329 C2321 1.433 . S
C2329 N2331 1.384 . S
N2330 C2326 1.427 . S
N2330 C2327 1.384 . S
N2331 C2323 1.427 . S
N2331 C2329 1.384 . S
H2332 C2338 0.930 . S
H2333 C2342 0.930 . S
H2334 C2347 0.929 . S
H2335 C2345 0.929 . S
H2336 C2340 0.929 . S
H2337 C2346 0.929 . S
C2338 H2332 0.930 . S
C2338 C2339 1.367 . S
C2338 C2346 1.378 . S
C2339 C2338 1.367 . S
C2339 C2347 1.433 . S
C2340 H2336 0.929 . S
C2340 C2342 1.378 . S
C2340 C2344 1.350 . S
C2341 C2344 1.463 . S
C2341 C2346 1.350 . S
C2341 N2349 1.427 . S
C2342 H2333 0.930 . S
C2342 C2340 1.378 . S
C2342 C2343 1.367 . S
C2343 C2342 1.367 . S
C2343 C2345 1.433 . S
C2344 C2340 1.350 . S
C2344 C2341 1.463 . S
C2344 N2348 1.427 . S
C2345 H2335 0.929 . S
C2345 C2343 1.433 . S
C2345 N2348 1.384 . S
C2346 H2337 0.929 . S
C2346 C2338 1.378 . S
C2346 C2341 1.350 . S
C2347 H2334 0.929 . S
C2347 C2339 1.433 . S
C2347 N2349 1.384 . S
N2348 C2344 1.427 . S
N2348 C2345 1.384 . S
N2349 C2341 1.427 . S
N2349 C2347 1.384 . S
H2350 C2356 0.930 . S
H2351 C2360 0.930 . S
H2352 C2365 0.929 . S
H2353 C2363 0.929 . S
H2354 C2358 0.929 . S
H2355 C2364 0.929 . S
C2356 H2350 0.930 . S
C2356 C2357 1.367 . S
C2356 C2364 1.378 . S
C2357 C2356 1.367 . S
C2357 C2365 1.433 . S
C2358 H2354 0.929 . S
C2358 C2360 1.378 . S
C2358 C2362 1.350 . S
C2359 C2362 1.463 . S
C2359 C2364 1.350 . S
C2359 N2367 1.427 . S
C2360 H2351 0.930 . S
C2360 C2358 1.378 . S
C2360 C2361 1.367 . S
C2361 C2360 1.367 . S
C2361 C2363 1.433 . S
C2362 C2358 1.350 . S
C2362 C2359 1.463 . S
C2362 N2366 1.427 . S
C2363 H2353 0.929 . S
C2363 C2361 1.433 . S
C2363 N2366 1.384 . S
C2364 H2355 0.929 . S
C2364 C2356 1.378 . S
C2364 C2359 1.350 . S
C2365 H2352 0.929 . S
C2365 C2357 1.433 . S
C2365 N2367 1.384 . S
N2366 C2362 1.427 . S
N2366 C2363 1.384 . S
N2367 C2359 1.427 . S
N2367 C2365 1.384 . S
C647 C2 0.446 . S
C651 C559 0.456 . S
C665 C22 0.454 . S
C669 C179 0.448 . S
C683 C42 0.450 . S
C687 C519 0.448 . S
C701 C219 0.465 . S
C705 C62 0.449 . S
C719 C82 0.472 . S
C723 C599 0.475 . S
C737 C299 0.473 . S
C741 C102 0.455 . S
C755 C639 0.457 . S
C759 C122 0.470 . S
C773 C142 0.449 . S
C777 C259 0.465 . S
C791 C161 0.451 . S
C795 C398 0.468 . S
C809 C181 0.447 . S
C813 C18 0.454 . S
C827 C358 0.454 . S
C831 C201 0.468 . S
C845 C58 0.468 . S
C849 C221 0.475 . S
C863 C241 0.462 . S
C867 C438 0.476 . S
C881 C261 0.472 . S
C885 C138 0.475 . S
C899 C281 0.475 . S
C903 C478 0.470 . S
C917 C98 0.477 . S
C921 C301 0.467 . S
C935 C239 0.455 . S
C939 C322 0.446 . S
C953 C499 0.473 . S
C957 C342 0.456 . S
C971 C199 0.467 . S
C975 C362 0.475 . S
C989 C382 0.469 . S
C993 C539 0.455 . S
C1007 C279 0.460 . S
C1011 C402 0.447 . S
C1025 C619 0.476 . S
C1029 C422 0.461 . S
C1043 C319 0.468 . S
C1047 C442 0.451 . S
C1061 C462 0.466 . S
C1065 C579 0.477 . S
C1079 C481 0.471 . S
C1083 C78 0.458 . S
C1097 C501 0.468 . S
C1101 C338 0.455 . S
C1115 C521 0.464 . S
C1119 C38 0.451 . S
C1133 C541 0.464 . S
C1137 C378 0.451 . S
C1151 C118 0.466 . S
C1155 C561 0.474 . S
C1169 C458 0.477 . S
C1173 C581 0.463 . S
C1187 C601 0.455 . S
C1191 C158 0.472 . S
C1205 C621 0.466 . S
C1209 C418 0.477 . S
C1223 C9 1.355 . S
C1227 C369 1.355 . S
C1241 C389 1.341 . S
C1245 C29 1.338 . S
C1259 C49 1.348 . S
C1263 C329 1.352 . S
C1277 C69 1.350 . S
C1281 C349 1.353 . S
C1295 C449 1.354 . S
C1299 C89 1.355 . S
C1313 C109 1.350 . S
C1317 C469 1.353 . S
C1331 C409 1.344 . S
C1335 C129 1.340 . S
C1349 C149 1.350 . S
C1353 C429 1.353 . S
C1367 C528 1.337 . S
C1371 C168 1.337 . S
C1385 C188 1.341 . S
C1389 C548 1.338 . S
C1403 C208 1.336 . S
C1407 C488 1.338 . S
C1421 C228 1.342 . S
C1425 C508 1.346 . S
C1439 C608 1.355 . S
C1443 C248 1.355 . S
C1457 C628 1.353 . S
C1461 C268 1.350 . S
C1475 C288 1.345 . S
C1479 C568 1.349 . S
C1493 C308 1.337 . S
C1497 C588 1.336 . S
C1511 C19 1.856 . S
C1515 C498 1.856 . S
C1529 C198 1.864 . S
C1533 C39 1.864 . S
C1547 C59 1.861 . S
C1551 C538 1.861 . S
C1565 C79 1.867 . S
C1569 C238 1.867 . S
C1583 C578 1.864 . S
C1587 C99 1.864 . S
C1601 C278 1.861 . S
C1605 C119 1.861 . S
C1619 C139 1.864 . S
C1623 C618 1.864 . S
C1637 C159 1.856 . S
C1641 C318 1.856 . S
C1655 C339 1.865 . S
C1659 C178 1.865 . S
C1673 C379 1.858 . S
C1677 C218 1.858 . S
C1691 C419 1.866 . S
C1695 C258 1.866 . S
C1709 C298 1.868 . S
C1713 C459 1.868 . S
C1727 C359 1.863 . S
C1731 C518 1.863 . S
C1745 C399 1.862 . S
C1749 C558 1.862 . S
C1763 C598 1.858 . S
C1767 C439 1.858 . S
C1781 C638 1.864 . S
C1785 C479 1.864 . S
C1799 C8 2.903 . S
C1803 C108 2.901 1_545 S
C1817 C128 2.901 . S
C1821 C28 2.899 1_545 S
C1835 C148 2.898 1_565 S
C1839 C48 2.896 . S
C1853 C88 2.895 . S
C1857 C68 2.896 1_565 S
C1871 C169 2.903 . S
C1875 C269 2.901 1_565 S
C1889 C189 2.898 1_565 S
C1893 C289 2.900 . S
C1907 C309 2.905 1_545 S
C1911 C209 2.904 . S
C1925 C229 2.897 1_545 S
C1929 C249 2.899 . S
C1943 C328 2.905 . S
C1947 C428 2.904 . S
C1961 C348 2.901 . S
C1965 C448 2.903 . S
C1979 C368 2.896 . S
C1983 C468 2.895 . S
C1997 C408 2.896 . S
C2001 C388 2.895 . S
C2015 C489 2.904 . S
C2019 C589 2.904 . S
C2033 C509 2.895 . S
C2037 C609 2.895 . S
C2051 C629 2.895 . S
C2055 C529 2.896 . S
C2069 C549 2.904 . S
C2073 C569 2.905 . S
C2087 C1 1.579 . S
C2091 C81 1.586 . S
C2105 C21 1.589 . S
C2109 C101 1.590 . S
C2123 C121 1.586 . S
C2127 C41 1.579 . S
C2141 C141 1.580 . S
C2145 C61 1.588 . S
C2159 C162 1.587 . S
C2163 C242 1.590 . S
C2177 C262 1.578 . S
C2181 C182 1.583 . S
C2195 C282 1.581 . S
C2199 C202 1.578 . S
C2213 C302 1.586 . S
C2217 C222 1.579 . S
C2231 C321 1.578 . S
C2235 C401 1.582 . S
C2249 C421 1.590 . S
C2253 C341 1.589 . S
C2267 C361 1.590 . S
C2271 C441 1.588 . S
C2285 C461 1.579 . S
C2289 C381 1.586 . S
C2303 C562 1.586 . S
C2307 C482 1.579 . S
C2321 C502 1.579 . S
C2325 C582 1.586 . S
C2339 C522 1.586 . S
C2343 C602 1.579 . S
C2357 C542 1.591 . S
C2361 C622 1.585 . S
