# Generated by pormake.
# Topology sml, (6)-cn, num edge types: 1
# Building blocks:
#     Node 0, Type 0, BuildingBlock: JUFBIX_clean_sbu_0, # of connection points: 6
#     Node 1, Type 0, BuildingBlock: JUFBIX_clean_sbu_0, # of connection points: 6
#     Node 2, Type 0, BuildingBlock: JUFBIX_clean_sbu_0, # of connection points: 6
#     Node 3, Type 0, BuildingBlock: JUFBIX_clean_sbu_0, # of connection points: 6
#     Node 4, Type 0, BuildingBlock: JUFBIX_clean_sbu_0, # of connection points: 6
#     Node 5, Type 0, BuildingBlock: JUFBIX_clean_sbu_0, # of connection points: 6
#     Edge 6, Type (0, 0), BuildingBlock: CIFDUS_clean_linker_0, # of connection points: 2
#     Edge 7, Type (0, 0), BuildingBlock: CIFDUS_clean_linker_0, # of connection points: 2
#     Edge 8, Type (0, 0), BuildingBlock: CIFDUS_clean_linker_0, # of connection points: 2
#     Edge 9, Type (0, 0), BuildingBlock: CIFDUS_clean_linker_0, # of connection points: 2
#     Edge 10, Type (0, 0), BuildingBlock: CIFDUS_clean_linker_0, # of connection points: 2
#     Edge 11, Type (0, 0), BuildingBlock: CIFDUS_clean_linker_0, # of connection points: 2
#     Edge 12, Type (0, 0), BuildingBlock: CIFDUS_clean_linker_0, # of connection points: 2
#     Edge 13, Type (0, 0), BuildingBlock: CIFDUS_clean_linker_0, # of connection points: 2
#     Edge 14, Type (0, 0), BuildingBlock: CIFDUS_clean_linker_0, # of connection points: 2
#     Edge 15, Type (0, 0), BuildingBlock: CIFDUS_clean_linker_0, # of connection points: 2
#     Edge 16, Type (0, 0), BuildingBlock: CIFDUS_clean_linker_0, # of connection points: 2
#     Edge 17, Type (0, 0), BuildingBlock: CIFDUS_clean_linker_0, # of connection points: 2
#     Edge 18, Type (0, 0), BuildingBlock: CIFDUS_clean_linker_0, # of connection points: 2
#     Edge 19, Type (0, 0), BuildingBlock: CIFDUS_clean_linker_0, # of connection points: 2
#     Edge 20, Type (0, 0), BuildingBlock: CIFDUS_clean_linker_0, # of connection points: 2
#     Edge 21, Type (0, 0), BuildingBlock: CIFDUS_clean_linker_0, # of connection points: 2
#     Edge 22, Type (0, 0), BuildingBlock: CIFDUS_clean_linker_0, # of connection points: 2
#     Edge 23, Type (0, 0), BuildingBlock: CIFDUS_clean_linker_0, # of connection points: 2
# Relax obj value: 0.298
# Max RMSD: 0.199
# Mean RMSD: 0.199
data_MOF--net-sml--node1-JUFBIX_clean_sbu_0--edge1-CIFDUS_clean_linker_0
_symmetry_space_group_name_H-M    P1
_symmetry_Int_Tables_number       1
_symmetry_cell_setting            triclinic
loop_
_symmetry_equiv_pos_as_xyz
'x, y, z'
_cell_length_a     39.769992
_cell_length_b     39.607618
_cell_length_c     12.870613
_cell_angle_alpha  89.960352
_cell_angle_beta   89.946761
_cell_angle_gamma 119.55624
loop_
_atom_site_label
_atom_site_type_symbol
_atom_site_fract_x
_atom_site_fract_y
_atom_site_fract_z
_atom_type_partial_charge
Co0 Co 0.32489 0.48846 0.07571 0.0
C1 C 0.27072 0.51115 0.11257 0.0
Co2 Co 0.26519 0.43914 0.06503 0.0
C3 C 0.38945 0.56285 0.02554 0.0
C4 C 0.40683 0.53023 0.12208 0.0
N5 N 0.37556 0.52896 0.0775 0.0
N6 N 0.42816 0.58524 0.03498 0.0
C7 C 0.43923 0.56478 0.09598 0.0
H8 H 0.37148 0.57031 -0.02137 0.0
H9 H 0.4062 0.5072 0.16874 0.0
C10 C 0.31988 0.41702 0.02715 0.0
N11 N 0.21427 0.39895 0.06338 0.0
C12 C 0.18772 0.3908 0.1389 0.0
C13 C 0.19565 0.37167 -0.00986 0.0
N14 N 0.15332 0.35949 0.11629 0.0
C15 C 0.15812 0.34744 0.0223 0.0
C16 C 0.29354 0.47451 0.87697 0.0
O17 O 0.34258 0.45288 0.04492 0.0
O18 O 0.28355 0.40353 0.03494 0.0
O19 O 0.26362 0.44739 0.92022 0.0
O20 O 0.32276 0.49623 0.93199 0.0
O21 O 0.2474 0.47534 0.09539 0.0
H22 H 0.2086 0.36936 0.91848 0.0
H23 H 0.19349 0.40781 0.20911 0.0
O24 O 0.30683 0.52362 0.10563 0.0
O25 O 0.32648 0.48038 0.22057 0.0
O26 O 0.26751 0.43123 0.2086 0.0
C27 C 0.29663 0.45312 0.26373 0.0
H28 H 0.46857 0.57405 0.12013 0.0
H29 H 0.13636 0.32243 -0.01923 0.0
Co30 Co 0.77488 0.21122 0.4264 0.0
C31 C 0.82787 0.2878 0.39141 0.0
Co32 Co 0.83505 0.22207 0.43791 0.0
C33 C 0.70476 0.21321 0.47971 0.0
C34 C 0.69538 0.17194 0.36045 0.0
N35 N 0.72324 0.19914 0.42074 0.0
N36 N 0.66639 0.19575 0.4591 0.0
C37 C 0.66061 0.16988 0.38342 0.0
H38 H 0.71918 0.23515 0.53864 0.0
H39 H 0.6999 0.15421 0.30443 0.0
C40 C 0.78222 0.14558 0.47352 0.0
N41 N 0.88651 0.23406 0.44197 0.0
C42 C 0.91315 0.25274 0.36697 0.0
C43 C 0.90546 0.22601 0.5161 0.0
N44 N 0.94789 0.25651 0.39063 0.0
C45 C 0.94326 0.2399 0.4849 0.0
C46 C 0.80499 0.22789 0.62546 0.0
O47 O 0.75874 0.15808 0.4561 0.0
O48 O 0.81837 0.16891 0.46662 0.0
O49 O 0.83528 0.23116 0.58255 0.0
O50 O 0.77571 0.22032 0.57014 0.0
O51 O 0.85123 0.27519 0.40892 0.0
H52 H 0.89253 0.21065 0.58757 0.0
H53 H 0.90716 0.26358 0.2962 0.0
O54 O 0.79167 0.2644 0.39745 0.0
O55 O 0.77488 0.20246 0.28154 0.0
O56 O 0.83407 0.21258 0.29431 0.0
C57 C 0.80501 0.2054 0.23875 0.0
H58 H 0.63327 0.15074 0.34661 0.0
H59 H 0.96529 0.23711 0.52711 0.0
Co60 Co 0.60145 0.86228 0.76314 0.0
C61 C 0.5855 0.78762 0.79575 0.0
Co62 Co 0.65425 0.85714 0.75064 0.0
C63 C 0.52592 0.84909 0.7079 0.0
C64 C 0.55409 0.8965 0.81405 0.0
N65 N 0.55821 0.86855 0.76572 0.0
N66 N 0.50208 0.86411 0.71667 0.0
C67 C 0.51965 0.89391 0.7838 0.0
H68 H 0.52095 0.82556 0.65607 0.0
H69 H 0.57545 0.91829 0.86472 0.0
C70 C 0.66852 0.93216 0.71853 0.0
N71 N 0.69757 0.85049 0.74858 0.0
C72 C 0.70784 0.83324 0.82319 0.0
C73 C 0.72481 0.86059 0.67429 0.0
N74 N 0.74032 0.83211 0.79874 0.0
C75 C 0.75102 0.8492 0.70469 0.0
C76 C 0.61841 0.84825 0.56353 0.0
O77 O 0.63267 0.91561 0.73924 0.0
O78 O 0.68562 0.91206 0.71922 0.0
O79 O 0.64649 0.84689 0.60644 0.0
O80 O 0.59546 0.85426 0.61871 0.0
O81 O 0.62184 0.80239 0.78197 0.0
H82 H 0.72554 0.87522 0.60261 0.0
H83 H 0.69133 0.82109 0.89367 0.0
O84 O 0.57037 0.80914 0.78698 0.0
O85 O 0.60789 0.87009 0.90822 0.0
O86 O 0.66164 0.86769 0.89409 0.0
C87 C 0.63728 0.87111 0.95028 0.0
H88 H 0.50873 0.91287 0.80801 0.0
H89 H 0.77628 0.85367 0.66158 0.0
Co90 Co 0.88101 0.59375 0.0971 0.0
C91 C 0.8075 0.57966 0.06225 0.0
Co92 Co 0.87726 0.64763 0.10827 0.0
C93 C 0.8636 0.51585 0.14719 0.0
C94 C 0.91378 0.54462 0.05042 0.0
N95 N 0.88573 0.54935 0.09522 0.0
N96 N 0.87696 0.49058 0.13781 0.0
C97 C 0.90854 0.50859 0.07672 0.0
H98 H 0.83904 0.51076 0.19462 0.0
H99 H 0.93713 0.56638 0.00403 0.0
C100 C 0.95135 0.66062 0.14133 0.0
N101 N 0.87119 0.69145 0.10921 0.0
C102 C 0.85342 0.70096 0.03447 0.0
C103 C 0.8806 0.71882 0.18299 0.0
N104 N 0.85121 0.733 0.05834 0.0
C105 C 0.86821 0.74431 0.15212 0.0
C106 C 0.86718 0.61129 0.29609 0.0
O107 O 0.93434 0.62441 0.12261 0.0
O108 O 0.93186 0.67834 0.13879 0.0
O109 O 0.86699 0.64007 0.25283 0.0
O110 O 0.87224 0.58758 0.24122 0.0
O111 O 0.82289 0.61609 0.07722 0.0
H112 H 0.89503 0.71986 0.25512 0.0
H113 H 0.84126 0.68394 0.96483 0.0
O114 O 0.82812 0.56361 0.07151 0.0
O115 O 0.88956 0.60033 0.95186 0.0
O116 O 0.88786 0.65471 0.9648 0.0
C117 C 0.89105 0.63001 0.90919 0.0
H118 H 0.92675 0.49671 0.05335 0.0
H119 H 0.8716 0.76928 0.1951 0.0
Co120 Co 0.23524 0.77695 0.39314 0.0
C121 C 0.31116 0.83074 0.43037 0.0
Co122 Co 0.24572 0.83731 0.38281 0.0
C123 C 0.24574 0.71183 0.34363 0.0
C124 C 0.19533 0.69441 0.43723 0.0
N125 N 0.22543 0.72586 0.39426 0.0
N126 N 0.22943 0.67286 0.35231 0.0
C127 C 0.19766 0.66181 0.41145 0.0
H128 H 0.27135 0.72984 0.29808 0.0
H129 H 0.17272 0.69505 0.48248 0.0
C130 C 0.1694 0.78282 0.34674 0.0
N131 N 0.25657 0.88882 0.38169 0.0
C132 C 0.27498 0.91543 0.4571 0.0
C133 C 0.2486 0.90802 0.30791 0.0
N134 N 0.27883 0.95042 0.43372 0.0
C135 C 0.26235 0.94591 0.33949 0.0
C136 C 0.25257 0.80876 0.19457 0.0
O137 O 0.1824 0.75971 0.36402 0.0
O138 O 0.19228 0.81928 0.35291 0.0
O139 O 0.2556 0.83899 0.23788 0.0
O140 O 0.24482 0.77918 0.24944 0.0
O141 O 0.29903 0.85459 0.41354 0.0
H142 H 0.23367 0.89529 0.23597 0.0
H143 H 0.28586 0.90931 0.52756 0.0
O144 O 0.28776 0.79462 0.42199 0.0
O145 O 0.22594 0.77538 0.5383 0.0
O146 O 0.23543 0.83475 0.52623 0.0
C147 C 0.22839 0.80542 0.58138 0.0
H148 H 0.1775 0.6323 0.43446 0.0
H149 H 0.25979 0.96816 0.29719 0.0
Co150 Co 0.51348 0.32958 0.74064 0.0
C151 C 0.53585 0.27474 0.7127 0.0
Co152 Co 0.46402 0.26997 0.75328 0.0
C153 C 0.58747 0.3924 0.79368 0.0
C154 C 0.55752 0.4121 0.69461 0.0
N155 N 0.55455 0.37989 0.73902 0.0
N156 N 0.61087 0.43111 0.78633 0.0
C157 C 0.59215 0.44373 0.72387 0.0
H158 H 0.5934 0.37348 0.84163 0.0
H159 H 0.53552 0.41268 0.64649 0.0
C160 C 0.44353 0.32711 0.78208 0.0
N161 N 0.42311 0.21904 0.75485 0.0
C162 C 0.41478 0.19213 0.67992 0.0
C163 C 0.3958 0.20064 0.8282 0.0
N164 N 0.38339 0.15772 0.70311 0.0
C165 C 0.37144 0.16292 0.79679 0.0
C166 C 0.49805 0.29869 0.94042 0.0
O167 O 0.47917 0.34845 0.76135 0.0
O168 O 0.42925 0.29029 0.78322 0.0
O169 O 0.47181 0.26812 0.89761 0.0
O170 O 0.51903 0.32824 0.88522 0.0
O171 O 0.49982 0.2509 0.72355 0.0
H172 H 0.39365 0.21383 0.89965 0.0
H173 H 0.43179 0.19761 0.60986 0.0
O174 O 0.54777 0.31077 0.72033 0.0
O175 O 0.50758 0.33035 0.59535 0.0
O176 O 0.45656 0.27249 0.60982 0.0
C177 C 0.47951 0.30086 0.55349 0.0
H178 H 0.60259 0.47361 0.70137 0.0
H179 H 0.34646 0.14128 0.83875 0.0
H180 H 0.37197 0.2964 0.87895 0.0
H181 H 0.46527 0.40263 0.7527 0.0
H182 H 0.43578 0.43898 0.81943 0.0
H183 H 0.38578 0.44219 0.91945 0.0
H184 H 0.28954 0.33761 0.04012 0.0
H185 H 0.31778 0.29926 0.97036 0.0
C186 C 0.38544 0.32736 0.86483 0.0
C187 C 0.4211 0.34662 0.81152 0.0
C188 C 0.36812 0.34863 0.9037 0.0
C189 C 0.4381 0.38687 0.79411 0.0
C190 C 0.42132 0.4079 0.83253 0.0
C191 C 0.371 0.411 0.93121 0.0
C192 C 0.33603 0.39288 -0.01333 0.0
C193 C 0.38682 0.38929 0.88894 0.0
C194 C 0.31675 0.35231 -0.00142 0.0
C195 C 0.33287 0.3304 0.95847 0.0
H196 H 0.07915 0.3216 0.05212 0.0
H197 H 0.15053 0.35839 0.32639 0.0
H198 H 0.09297 0.32943 0.43647 0.0
H199 H 1.02208 0.29363 0.45505 0.0
H200 H 0.95076 0.2574 0.1806 0.0
H201 H 1.00832 0.28603 0.07065 0.0
C202 C 0.08207 0.32301 0.13594 0.0
C203 C 0.11913 0.34216 0.18078 0.0
C204 C 0.04878 0.30644 0.19888 0.0
C205 C 0.1224 0.34425 0.28972 0.0
C206 C 0.08947 0.3275 0.3528 0.0
C207 C 1.01919 0.29179 0.37123 0.0
C208 C 0.98212 0.27342 0.3263 0.0
C209 C 0.05249 0.30853 0.30829 0.0
C210 C 0.97888 0.27178 0.21735 0.0
C211 C 1.01181 0.28797 0.15432 0.0
H212 H 0.71448 0.10096 0.57074 0.0
H213 H 0.8174 0.10068 0.46708 0.0
H214 H 0.79263 0.03496 0.53769 0.0
H215 H 0.7403 0.97668 0.62709 0.0
H216 H 0.63973 0.98108 0.73643 0.0
H217 H 0.66527 0.04596 0.66679 0.0
C218 C 0.73143 0.08646 0.56269 0.0
C219 C 0.7674 0.10541 0.51215 0.0
C220 C 0.71755 0.04937 0.60563 0.0
C221 C 0.7894 0.08653 0.50482 0.0
C222 C 0.7753 0.04901 0.54552 0.0
C223 C 0.72431 0.99208 0.63678 0.0
C224 C 0.68795 0.97363 0.68652 0.0
C225 C 0.73928 0.03004 0.59626 0.0
C226 C 0.66762 0.99416 0.69808 0.0
C227 C 0.68212 0.0314 0.65793 0.0
H228 H 0.78055 0.79811 0.72936 0.0
H229 H 0.74326 0.83017 0.00857 0.0
H230 H 0.77522 0.80308 0.11455 0.0
H231 H 0.81341 0.76952 0.12817 0.0
H232 H 0.84915 0.73593 0.84884 0.0
H233 H 0.81842 0.76433 0.74292 0.0
C234 C 0.77969 0.79942 0.81336 0.0
C235 C 0.75952 0.81621 0.86079 0.0
C236 C 0.79786 0.7834 0.87394 0.0
C237 C 0.75819 0.81709 0.96994 0.0
C238 C 0.77665 0.80175 0.03066 0.0
C239 C 0.81473 0.76874 0.04416 0.0
C240 C 0.83363 0.75065 -0.0034 0.0
C241 C 0.79653 0.78476 -0.01641 0.0
C242 C 0.83452 0.74934 0.88747 0.0
C243 C 0.81706 0.76572 0.82681 0.0
H244 H 0.12148 0.71028 0.2782 0.0
H245 H 0.12606 0.81971 0.33566 0.0
H246 H 0.05912 0.79237 0.27485 0.0
H247 H 0.99863 0.7363 0.20636 0.0
H248 H 0.99769 0.62852 0.14525 0.0
H249 H 0.06369 0.65648 0.20561 0.0
C250 C 0.1079 0.72824 0.27815 0.0
C251 C 0.12868 0.76688 0.31259 0.0
C252 C 0.06991 0.71263 0.24162 0.0
C253 C 0.11065 0.78978 0.31013 0.0
C254 C 0.07239 0.77416 0.27515 0.0
C255 C 1.01302 0.71911 0.20556 0.0
C256 C 0.99285 0.68022 0.17143 0.0
C257 C 0.05163 0.7355 0.24056 0.0
C258 C 1.01211 0.65842 0.17113 0.0
C259 C 0.05002 0.67434 0.20596 0.0
H260 H 0.34531 0.08328 0.76923 0.0
H261 H 0.38215 0.15422 0.49309 0.0
H262 H 0.35274 0.09611 0.38456 0.0
H263 H 0.31641 0.02487 0.36771 0.0
H264 H 0.28043 0.95388 0.64379 0.0
H265 H 0.30952 1.01199 0.75237 0.0
C266 C 0.34666 0.08599 0.68534 0.0
C267 C 0.36593 0.12314 0.63956 0.0
C268 C 0.32987 0.05235 0.62322 0.0
C269 C 0.36792 0.12607 0.53053 0.0
C270 C 0.3509 0.09281 0.46832 0.0
C271 C 0.31472 1.02215 0.45159 0.0
C272 C 0.29619 0.98499 0.49734 0.0
C273 C 0.33179 0.05578 0.51373 0.0
C274 C 0.29483 0.98203 0.60638 0.0
C275 C 0.31131 1.0153 0.66862 0.0
H276 H 0.2496 0.41993 0.73507 0.0
H277 H 0.34618 0.53612 0.76391 0.0
H278 H 0.35745 0.53874 0.5769 0.0
H279 H 0.34048 0.50772 0.40569 0.0
H280 H 0.24375 0.39162 0.37675 0.0
H281 H 0.23247 0.389 0.56373 0.0
C282 C 0.27273 0.44604 0.70016 0.0
C283 C 0.29683 0.47785 0.76296 0.0
C284 C 0.27954 0.44708 0.59299 0.0
C285 C 0.3271 0.51127 0.71697 0.0
C286 C 0.33375 0.51272 0.61022 0.0
C287 C 0.31732 0.48163 0.44057 0.0
C288 C 0.29324 0.44981 0.37775 0.0
C289 C 0.31045 0.48062 0.5477 0.0
C290 C 0.26288 0.41644 0.4237 0.0
C291 C 0.25621 0.415 0.53044 0.0
H292 H 0.75875 0.21296 0.09733 0.0
H293 H 0.8602 0.20036 0.12523 0.0
H294 H 0.87064 0.20883 0.93793 0.0
H295 H 0.85136 0.22048 0.76683 0.0
H296 H 0.75007 0.23335 0.73911 0.0
H297 H 0.73966 0.2249 0.92641 0.0
C298 C 0.78283 0.21153 0.06224 0.0
C299 C 0.80846 0.20572 0.12479 0.0
C300 C 0.78913 0.2172 0.95497 0.0
C301 C 0.8399 0.20455 0.0785 0.0
C302 C 0.84606 0.20966 0.97158 0.0
C303 C 0.82733 0.22198 0.80196 0.0
C304 C 0.80168 0.22775 0.73943 0.0
C305 C 0.82109 0.2164 0.90928 0.0
C306 C 0.77033 0.22908 0.7858 0.0
C307 C 0.7642 0.22401 0.89272 0.0
H308 H 0.67383 0.86171 0.42119 0.0
H309 H 0.55514 0.83513 0.4517 0.0
H310 H 0.55125 0.84229 0.26448 0.0
H311 H 0.58183 0.8571 0.09295 0.0
H312 H 0.70054 0.8837 0.06211 0.0
H313 H 0.70436 0.87627 0.24923 0.0
C314 C 0.64697 0.85692 0.38659 0.0
C315 C 0.61478 0.84769 0.44979 0.0
C316 C 0.64515 0.86184 0.27933 0.0
C317 C 0.5803 0.84215 0.40433 0.0
C318 C 0.5781 0.84647 0.2975 0.0
C319 C 0.60869 0.86179 0.12735 0.0
C320 C 0.6409 0.87123 0.06407 0.0
C321 C 0.61049 0.85677 0.2345 0.0
C322 C 0.67536 0.87664 0.10945 0.0
C323 C 0.67752 0.87214 0.21626 0.0
H324 H 0.87464 0.57359 0.76702 0.0
H325 H 0.90631 0.69426 0.79667 0.0
H326 H 0.89896 0.69841 0.60966 0.0
H327 H 0.88302 0.66763 0.43805 0.0
H328 H 0.85136 0.54697 0.40858 0.0
H329 H 0.85843 0.54276 0.59573 0.0
C330 C 0.88047 0.60093 0.73234 0.0
C331 C 0.89132 0.63362 0.79529 0.0
C332 C 0.87546 0.60293 0.62521 0.0
C333 C 0.89816 0.66871 0.74958 0.0
C334 C 0.8937 0.67106 0.64283 0.0
C335 C 0.8771 0.64028 0.47288 0.0
C336 C 0.86647 0.60763 0.40995 0.0
C337 C 0.88199 0.63826 0.58009 0.0
C338 C 0.85947 0.57251 0.45572 0.0
C339 C 0.86374 0.57012 0.56251 0.0
H340 H 0.24003 0.76177 0.72373 0.0
H341 H 0.2187 0.85815 0.69385 0.0
H342 H 0.22717 0.86959 0.88069 0.0
H343 H 0.24127 0.85265 0.0523 0.0
H344 H 0.26272 0.75635 0.0821 0.0
H345 H 0.2544 0.74501 0.89516 0.0
C346 C 0.23664 0.78488 0.75839 0.0
C347 C 0.22839 0.80881 0.69536 0.0
C348 C 0.24235 0.79183 0.86547 0.0
C349 C 0.22478 0.83912 0.741 0.0
C350 C 0.2299 0.84589 0.84766 0.0
C351 C 0.24472 0.82959 0.01758 0.0
C352 C 0.25285 0.80557 0.08061 0.0
C353 C 0.23911 0.8227 0.91045 0.0
C354 C 0.25662 0.77536 0.03493 0.0
C355 C 0.2516 0.76867 0.92823 0.0
H356 H 0.53324 0.34492 0.41024 0.0
H357 H 0.41801 0.24724 0.44278 0.0
H358 H 0.41456 0.23623 0.25571 0.0
H359 H 0.44445 0.25407 0.08327 0.0
H360 H 0.55964 0.35177 0.05104 0.0
H361 H 0.5632 0.36255 0.23826 0.0
C362 C 0.5072 0.32155 0.37621 0.0
C363 C 0.47587 0.29714 0.43989 0.0
C364 C 0.50564 0.31493 0.26909 0.0
C365 C 0.44248 0.26659 0.39506 0.0
C366 C 0.44055 0.26009 0.2883 0.0
C367 C 0.47051 0.27734 0.11753 0.0
C368 C 0.50177 0.30195 0.05395 0.0
C369 C 0.4721 0.28386 0.22476 0.0
C370 C 0.5352 0.33239 0.09882 0.0
C371 C 0.5372 0.33873 0.20562 0.0
H372 H 0.31317 0.58807 0.15976 0.0
H373 H 0.19578 0.49314 0.14842 0.0
H374 H 0.17258 0.5349 0.22121 0.0
H375 H 0.18576 0.59798 0.29276 0.0
H376 H 0.30322 0.69242 0.30557 0.0
H377 H 0.32612 0.65135 0.22713 0.0
C378 C 0.28245 0.57651 0.17241 0.0
C379 C 0.25631 0.53741 0.14851 0.0
C380 C 0.26928 0.60061 0.21509 0.0
C381 C 0.21661 0.52308 0.16569 0.0
C382 C 0.20329 0.54693 0.20778 0.0
C383 C 0.21638 0.60951 0.27909 0.0
C384 C 0.24269 0.64831 0.30554 0.0
C385 C 0.2294 0.58563 0.23387 0.0
C386 C 0.28225 0.66288 0.28529 0.0
C387 C 0.29541 0.63932 0.24076 0.0
H388 H 0.67871 0.25901 0.56967 0.0
H389 H 0.58818 0.14815 0.46041 0.0
H390 H 0.53955 0.1613 0.53513 0.0
H391 H 0.52222 0.20587 0.62525 0.0
H392 H 0.61361 0.31611 0.7351 0.0
H393 H 0.66198 0.30099 0.6692 0.0
C394 C 0.64848 0.23734 0.56317 0.0
C395 C 0.63754 0.20278 0.50799 0.0
C396 C 0.62049 0.24489 0.60718 0.0
C397 C 0.59784 0.17543 0.50018 0.0
C398 C 0.56981 0.18277 0.54378 0.0
C399 C 0.55271 0.22623 0.63621 0.0
C400 C 0.56416 0.26212 0.68467 0.0
C401 C 0.58073 0.21762 0.59655 0.0
C402 C 0.60387 0.28834 0.69752 0.0
C403 C 0.63167 0.2798 0.65959 0.0
H404 H 0.50392 0.61752 -0.01737 0.0
H405 H 0.40676 0.6378 -0.01972 0.0
H406 H 0.4464 0.70072 0.89871 0.0
H407 H 0.5086 0.75081 0.83346 0.0
H408 H 0.60733 0.73312 0.8399 0.0
H409 H 0.56704 0.66826 0.91414 0.0
C410 C 0.49151 0.63581 0.96497 0.0
C411 C 0.45225 0.62272 -0.01236 0.0
C412 C 0.51468 0.67236 0.91844 0.0
C413 C 0.43659 0.6467 0.96261 0.0
C414 C 0.45933 0.68286 0.91632 0.0
C415 C 0.52143 0.73278 0.85024 0.0
C416 C 0.56102 0.74692 0.83104 0.0
C417 C 0.49836 0.696 0.89426 0.0
C418 C 0.57694 0.72297 0.85348 0.0
C419 C 0.55394 0.68595 0.89646 0.0
H420 H 0.78684 0.32395 0.33708 0.0
H421 H 0.9032 0.34289 0.36176 0.0
H422 H 0.92855 0.40727 0.28594 0.0
H423 H 0.91788 0.45755 0.20666 0.0
H424 H 0.80214 0.43962 0.18227 0.0
H425 H 0.77645 0.37578 0.26423 0.0
C426 C 0.81777 0.34229 0.32683 0.0
C427 C 0.84298 0.32838 0.35505 0.0
C428 C 0.83232 0.37947 0.28251 0.0
C429 C 0.88301 0.35267 0.341 0.0
C430 C 0.89761 0.38955 0.29717 0.0
C431 C 0.88702 0.43956 0.21869 0.0
C432 C 0.86194 0.45319 0.18751 0.0
C433 C 0.87254 0.40304 0.26633 0.0
C434 C 0.82207 0.42987 0.20587 0.0
C435 C 0.80737 0.39331 0.25246 0.0
H436 H 0.34414 0.78676 0.47809 0.0
H437 H 0.36649 0.90509 0.47802 0.0
H438 H 0.42797 0.92599 0.56657 0.0
H439 H 0.474 0.91011 0.6513 0.0
H440 H 0.45096 0.79171 0.6527 0.0
H441 H 0.39113 0.77139 0.55625 0.0
C442 C 0.3626 0.81723 0.49633 0.0
C443 C 0.35059 0.84428 0.47149 0.0
C444 C 0.39765 0.82897 0.54845 0.0
C445 C 0.375 0.88363 0.49584 0.0
C446 C 0.41008 0.89558 0.54711 0.0
C447 C 0.45573 0.87984 0.63113 0.0
C448 C 0.46679 0.85241 0.65989 0.0
C449 C 0.42139 0.8684 0.57537 0.0
C450 C 0.44321 0.81341 0.63111 0.0
C451 C 0.40895 0.80177 0.57618 0.0
H452 H 0.77041 0.50346 0.01336 0.0
H453 H 0.75525 0.60413 0.0178 0.0
H454 H 0.69244 0.56679 0.93204 0.0
H455 H 0.64299 0.50586 0.84978 0.0
H456 H 0.66105 0.40702 0.84103 0.0
H457 H 0.7217 0.44349 0.93432 0.0
C458 C 0.75332 0.51731 -0.00336 0.0
C459 C 0.76756 0.55657 0.02217 0.0
C460 C 0.71786 0.49604 0.9456 0.0
C461 C 0.74491 0.57389 -0.0005 0.0
C462 C 0.70911 0.55262 0.94983 0.0
C463 C 0.66038 0.49247 0.86758 0.0
C464 C 0.64735 0.45367 0.83855 0.0
C465 C 0.69556 0.5138 0.92109 0.0
C466 C 0.67002 0.43658 0.86357 0.0
C467 C 0.70482 0.45747 0.91666 0.0
loop_
_geom_bond_atom_site_label_1
_geom_bond_atom_site_label_2
_geom_bond_distance
_geom_bond_site_symmetry_2
_ccdc_geom_bond_type
Co0 N5 2.057 . S
Co0 O17 2.021 . S
Co0 O20 2.062 . S
Co0 O24 2.117 1_556 S
Co0 O25 2.020 1_556 S
C1 O21 1.259 . S
C1 O24 1.258 . S
Co2 N11 2.057 . S
Co2 O18 2.117 1_554 S
Co2 O19 2.020 1_554 S
Co2 O21 2.021 . S
Co2 O26 2.062 . S
C3 N5 1.316 . S
C3 N6 1.347 . S
C3 H8 0.931 . S
C4 N5 1.375 . S
C4 C7 1.350 . S
C4 H9 0.930 . S
N5 Co0 2.057 . S
N5 C3 1.316 . S
N5 C4 1.375 . S
N6 C3 1.347 . S
N6 C7 1.373 . S
C7 C4 1.350 . S
C7 N6 1.373 . S
C7 H28 0.931 . S
H8 C3 0.931 . S
H9 C4 0.930 . S
C10 O17 1.259 . S
C10 O18 1.258 . S
N11 Co2 2.057 . S
N11 C12 1.316 . S
N11 C13 1.375 . S
C12 N11 1.316 . S
C12 N14 1.347 . S
C12 H23 0.931 . S
C13 N11 1.375 . S
C13 C15 1.350 . S
C13 H22 0.930 . S
N14 C12 1.347 . S
N14 C15 1.373 . S
C15 C13 1.350 . S
C15 N14 1.373 . S
C15 H29 0.931 . S
C16 O19 1.256 . S
C16 O20 1.255 . S
O17 Co0 2.021 . S
O17 C10 1.259 . S
O18 Co2 2.117 1_556 S
O18 C10 1.258 . S
O19 Co2 2.020 1_556 S
O19 C16 1.256 . S
O20 Co0 2.062 . S
O20 C16 1.255 . S
O21 C1 1.259 . S
O21 Co2 2.021 . S
H22 C13 0.930 . S
H23 C12 0.931 . S
O24 Co0 2.117 1_554 S
O24 C1 1.258 . S
O25 Co0 2.020 1_554 S
O25 C27 1.256 . S
O26 Co2 2.062 . S
O26 C27 1.255 . S
C27 O25 1.256 . S
C27 O26 1.255 . S
H28 C7 0.931 . S
H29 C15 0.931 . S
Co30 N35 2.057 . S
Co30 O47 2.021 . S
Co30 O50 2.062 . S
Co30 O54 2.117 . S
Co30 O55 2.020 . S
C31 O51 1.259 . S
C31 O54 1.258 . S
Co32 N41 2.057 . S
Co32 O48 2.117 . S
Co32 O49 2.020 . S
Co32 O51 2.021 . S
Co32 O56 2.062 . S
C33 N35 1.316 . S
C33 N36 1.347 . S
C33 H38 0.931 . S
C34 N35 1.375 . S
C34 C37 1.350 . S
C34 H39 0.930 . S
N35 Co30 2.057 . S
N35 C33 1.316 . S
N35 C34 1.375 . S
N36 C33 1.347 . S
N36 C37 1.373 . S
C37 C34 1.350 . S
C37 N36 1.373 . S
C37 H58 0.931 . S
H38 C33 0.931 . S
H39 C34 0.930 . S
C40 O47 1.259 . S
C40 O48 1.258 . S
N41 Co32 2.057 . S
N41 C42 1.316 . S
N41 C43 1.375 . S
C42 N41 1.316 . S
C42 N44 1.347 . S
C42 H53 0.931 . S
C43 N41 1.375 . S
C43 C45 1.350 . S
C43 H52 0.930 . S
N44 C42 1.347 . S
N44 C45 1.373 . S
C45 C43 1.350 . S
C45 N44 1.373 . S
C45 H59 0.931 . S
C46 O49 1.256 . S
C46 O50 1.255 . S
O47 Co30 2.021 . S
O47 C40 1.259 . S
O48 Co32 2.117 . S
O48 C40 1.258 . S
O49 Co32 2.020 . S
O49 C46 1.256 . S
O50 Co30 2.062 . S
O50 C46 1.255 . S
O51 C31 1.259 . S
O51 Co32 2.021 . S
H52 C43 0.930 . S
H53 C42 0.931 . S
O54 Co30 2.117 . S
O54 C31 1.258 . S
O55 Co30 2.020 . S
O55 C57 1.256 . S
O56 Co32 2.062 . S
O56 C57 1.255 . S
C57 O55 1.256 . S
C57 O56 1.255 . S
H58 C37 0.931 . S
H59 C45 0.931 . S
Co60 N65 2.057 . S
Co60 O77 2.021 . S
Co60 O80 2.062 . S
Co60 O84 2.117 . S
Co60 O85 2.020 . S
C61 O81 1.259 . S
C61 O84 1.258 . S
Co62 N71 2.057 . S
Co62 O78 2.117 . S
Co62 O79 2.020 . S
Co62 O81 2.021 . S
Co62 O86 2.062 . S
C63 N65 1.316 . S
C63 N66 1.347 . S
C63 H68 0.931 . S
C64 N65 1.375 . S
C64 C67 1.350 . S
C64 H69 0.930 . S
N65 Co60 2.057 . S
N65 C63 1.316 . S
N65 C64 1.375 . S
N66 C63 1.347 . S
N66 C67 1.373 . S
C67 C64 1.350 . S
C67 N66 1.373 . S
C67 H88 0.931 . S
H68 C63 0.931 . S
H69 C64 0.930 . S
C70 O77 1.259 . S
C70 O78 1.258 . S
N71 Co62 2.057 . S
N71 C72 1.316 . S
N71 C73 1.375 . S
C72 N71 1.316 . S
C72 N74 1.347 . S
C72 H83 0.931 . S
C73 N71 1.375 . S
C73 C75 1.350 . S
C73 H82 0.930 . S
N74 C72 1.347 . S
N74 C75 1.373 . S
C75 C73 1.350 . S
C75 N74 1.373 . S
C75 H89 0.931 . S
C76 O79 1.256 . S
C76 O80 1.255 . S
O77 Co60 2.021 . S
O77 C70 1.259 . S
O78 Co62 2.117 . S
O78 C70 1.258 . S
O79 Co62 2.020 . S
O79 C76 1.256 . S
O80 Co60 2.062 . S
O80 C76 1.255 . S
O81 C61 1.259 . S
O81 Co62 2.021 . S
H82 C73 0.930 . S
H83 C72 0.931 . S
O84 Co60 2.117 . S
O84 C61 1.258 . S
O85 Co60 2.020 . S
O85 C87 1.256 . S
O86 Co62 2.062 . S
O86 C87 1.255 . S
C87 O85 1.256 . S
C87 O86 1.255 . S
H88 C67 0.931 . S
H89 C75 0.931 . S
Co90 N95 2.057 . S
Co90 O107 2.021 . S
Co90 O110 2.062 . S
Co90 O114 2.117 . S
Co90 O115 2.020 . S
C91 O111 1.259 . S
C91 O114 1.258 . S
Co92 N101 2.057 . S
Co92 O108 2.117 . S
Co92 O109 2.020 . S
Co92 O111 2.021 . S
Co92 O116 2.062 . S
C93 N95 1.316 . S
C93 N96 1.347 . S
C93 H98 0.931 . S
C94 N95 1.375 . S
C94 C97 1.350 . S
C94 H99 0.930 . S
N95 Co90 2.057 . S
N95 C93 1.316 . S
N95 C94 1.375 . S
N96 C93 1.347 . S
N96 C97 1.373 . S
C97 C94 1.350 . S
C97 N96 1.373 . S
C97 H118 0.931 . S
H98 C93 0.931 . S
H99 C94 0.930 . S
C100 O107 1.259 . S
C100 O108 1.258 . S
N101 Co92 2.057 . S
N101 C102 1.316 . S
N101 C103 1.375 . S
C102 N101 1.316 . S
C102 N104 1.347 . S
C102 H113 0.931 . S
C103 N101 1.375 . S
C103 C105 1.350 . S
C103 H112 0.930 . S
N104 C102 1.347 . S
N104 C105 1.373 . S
C105 C103 1.350 . S
C105 N104 1.373 . S
C105 H119 0.931 . S
C106 O109 1.256 . S
C106 O110 1.255 . S
O107 Co90 2.021 . S
O107 C100 1.259 . S
O108 Co92 2.117 . S
O108 C100 1.258 . S
O109 Co92 2.020 . S
O109 C106 1.256 . S
O110 Co90 2.062 . S
O110 C106 1.255 . S
O111 C91 1.259 . S
O111 Co92 2.021 . S
H112 C103 0.930 . S
H113 C102 0.931 . S
O114 Co90 2.117 . S
O114 C91 1.258 . S
O115 Co90 2.020 . S
O115 C117 1.256 . S
O116 Co92 2.062 . S
O116 C117 1.255 . S
C117 O115 1.256 . S
C117 O116 1.255 . S
H118 C97 0.931 . S
H119 C105 0.931 . S
Co120 N125 2.057 . S
Co120 O137 2.021 . S
Co120 O140 2.062 . S
Co120 O144 2.117 . S
Co120 O145 2.020 . S
C121 O141 1.259 . S
C121 O144 1.258 . S
Co122 N131 2.057 . S
Co122 O138 2.117 . S
Co122 O139 2.020 . S
Co122 O141 2.021 . S
Co122 O146 2.062 . S
C123 N125 1.316 . S
C123 N126 1.347 . S
C123 H128 0.931 . S
C124 N125 1.375 . S
C124 C127 1.350 . S
C124 H129 0.930 . S
N125 Co120 2.057 . S
N125 C123 1.316 . S
N125 C124 1.375 . S
N126 C123 1.347 . S
N126 C127 1.373 . S
C127 C124 1.350 . S
C127 N126 1.373 . S
C127 H148 0.931 . S
H128 C123 0.931 . S
H129 C124 0.930 . S
C130 O137 1.259 . S
C130 O138 1.258 . S
N131 Co122 2.057 . S
N131 C132 1.316 . S
N131 C133 1.375 . S
C132 N131 1.316 . S
C132 N134 1.347 . S
C132 H143 0.931 . S
C133 N131 1.375 . S
C133 C135 1.350 . S
C133 H142 0.930 . S
N134 C132 1.347 . S
N134 C135 1.373 . S
C135 C133 1.350 . S
C135 N134 1.373 . S
C135 H149 0.931 . S
C136 O139 1.256 . S
C136 O140 1.255 . S
O137 Co120 2.021 . S
O137 C130 1.259 . S
O138 Co122 2.117 . S
O138 C130 1.258 . S
O139 Co122 2.020 . S
O139 C136 1.256 . S
O140 Co120 2.062 . S
O140 C136 1.255 . S
O141 C121 1.259 . S
O141 Co122 2.021 . S
H142 C133 0.930 . S
H143 C132 0.931 . S
O144 Co120 2.117 . S
O144 C121 1.258 . S
O145 Co120 2.020 . S
O145 C147 1.256 . S
O146 Co122 2.062 . S
O146 C147 1.255 . S
C147 O145 1.256 . S
C147 O146 1.255 . S
H148 C127 0.931 . S
H149 C135 0.931 . S
Co150 N155 2.057 . S
Co150 O167 2.021 . S
Co150 O170 2.062 1_556 S
Co150 O174 2.117 . S
Co150 O175 2.020 . S
C151 O171 1.259 . S
C151 O174 1.258 . S
Co152 N161 2.057 . S
Co152 O168 2.117 . S
Co152 O169 2.020 1_556 S
Co152 O171 2.021 . S
Co152 O176 2.062 . S
C153 N155 1.316 . S
C153 N156 1.347 . S
C153 H158 0.931 . S
C154 N155 1.375 . S
C154 C157 1.350 . S
C154 H159 0.930 . S
N155 Co150 2.057 . S
N155 C153 1.316 . S
N155 C154 1.375 . S
N156 C153 1.347 . S
N156 C157 1.373 . S
C157 C154 1.350 . S
C157 N156 1.373 . S
C157 H178 0.931 . S
H158 C153 0.931 . S
H159 C154 0.930 . S
C160 O167 1.259 . S
C160 O168 1.258 . S
N161 Co152 2.057 . S
N161 C162 1.316 . S
N161 C163 1.375 . S
C162 N161 1.316 . S
C162 N164 1.347 . S
C162 H173 0.931 . S
C163 N161 1.375 . S
C163 C165 1.350 . S
C163 H172 0.930 . S
N164 C162 1.347 . S
N164 C165 1.373 . S
C165 C163 1.350 . S
C165 N164 1.373 . S
C165 H179 0.931 . S
C166 O169 1.256 . S
C166 O170 1.255 . S
O167 Co150 2.021 . S
O167 C160 1.259 . S
O168 Co152 2.117 . S
O168 C160 1.258 . S
O169 Co152 2.020 1_554 S
O169 C166 1.256 . S
O170 Co150 2.062 1_554 S
O170 C166 1.255 . S
O171 C151 1.259 . S
O171 Co152 2.021 . S
H172 C163 0.930 . S
H173 C162 0.931 . S
O174 Co150 2.117 . S
O174 C151 1.258 . S
O175 Co150 2.020 . S
O175 C177 1.256 . S
O176 Co152 2.062 . S
O176 C177 1.255 . S
C177 O175 1.256 . S
C177 O176 1.255 . S
H178 C157 0.931 . S
H179 C165 0.931 . S
H180 C186 0.930 1_554 S
H181 C189 0.930 . S
H182 C190 0.930 . S
H183 C191 0.930 . S
H184 C194 0.930 . S
H185 C195 0.930 . S
C186 H180 0.930 1_556 S
C186 C187 1.355 . S
C186 C188 1.415 . S
C187 C186 1.355 . S
C187 C189 1.419 . S
C188 C186 1.415 . S
C188 C193 1.425 . S
C188 C195 1.409 1_556 S
C189 H181 0.930 . S
C189 C187 1.419 . S
C189 C190 1.362 . S
C190 H182 0.930 . S
C190 C189 1.362 . S
C190 C193 1.409 . S
C191 H183 0.930 . S
C191 C192 1.355 . S
C191 C193 1.415 . S
C192 C191 1.355 . S
C192 C194 1.419 1_556 S
C193 C188 1.425 . S
C193 C190 1.409 . S
C193 C191 1.415 . S
C194 H184 0.930 . S
C194 C192 1.419 1_554 S
C194 C195 1.362 . S
C195 H185 0.930 . S
C195 C188 1.409 1_554 S
C195 C194 1.362 . S
H196 C202 0.930 . S
H197 C205 0.930 . S
H198 C206 0.930 . S
H199 C207 0.923 1_455 S
H200 C210 0.930 . S
H201 C211 0.930 . S
C202 H196 0.930 . S
C202 C203 1.355 . S
C202 C204 1.415 . S
C203 C202 1.355 . S
C203 C205 1.419 . S
C204 C202 1.415 . S
C204 C209 1.425 . S
C204 C211 1.409 1_455 S
C205 H197 0.930 . S
C205 C203 1.419 . S
C205 C206 1.362 . S
C206 H198 0.930 . S
C206 C205 1.362 . S
C206 C209 1.409 . S
C207 H199 0.923 1_655 S
C207 C208 1.355 . S
C207 C209 1.415 1_655 S
C208 C207 1.355 . S
C208 C210 1.419 . S
C209 C204 1.425 . S
C209 C206 1.409 . S
C209 C207 1.415 1_455 S
C210 H200 0.930 . S
C210 C208 1.419 . S
C210 C211 1.362 . S
C211 H201 0.930 . S
C211 C204 1.409 1_655 S
C211 C210 1.362 . S
H212 C218 0.930 . S
H213 C221 0.930 . S
H214 C222 0.930 . S
H215 C223 0.930 . S
H216 C226 0.930 . S
H217 C227 0.930 . S
C218 H212 0.930 . S
C218 C219 1.355 . S
C218 C220 1.415 . S
C219 C218 1.355 . S
C219 C221 1.419 . S
C220 C218 1.415 . S
C220 C225 1.425 . S
C220 C227 1.409 . S
C221 H213 0.930 . S
C221 C219 1.419 . S
C221 C222 1.362 . S
C222 H214 0.930 . S
C222 C221 1.362 . S
C222 C225 1.409 . S
C223 H215 0.930 . S
C223 C224 1.355 . S
C223 C225 1.415 1_565 S
C224 C223 1.355 . S
C224 C226 1.419 . S
C225 C220 1.425 . S
C225 C222 1.409 . S
C225 C223 1.415 1_545 S
C226 H216 0.930 . S
C226 C224 1.419 . S
C226 C227 1.362 1_565 S
C227 H217 0.930 . S
C227 C220 1.409 . S
C227 C226 1.362 1_545 S
H228 C234 0.930 . S
H229 C237 0.930 . S
H230 C238 0.930 1_554 S
H231 C239 0.930 . S
H232 C242 0.930 . S
H233 C243 0.930 . S
C234 H228 0.930 . S
C234 C235 1.355 . S
C234 C236 1.415 . S
C235 C234 1.355 . S
C235 C237 1.419 . S
C236 C234 1.415 . S
C236 C241 1.425 . S
C236 C243 1.409 . S
C237 H229 0.930 . S
C237 C235 1.419 . S
C237 C238 1.362 . S
C238 H230 0.930 1_556 S
C238 C237 1.362 . S
C238 C241 1.409 . S
C239 H231 0.930 . S
C239 C240 1.355 . S
C239 C241 1.415 1_554 S
C240 C239 1.355 . S
C240 C242 1.419 1_554 S
C241 C236 1.425 . S
C241 C238 1.409 . S
C241 C239 1.415 1_556 S
C242 H232 0.930 . S
C242 C240 1.419 1_556 S
C242 C243 1.362 . S
C243 H233 0.930 . S
C243 C236 1.409 . S
C243 C242 1.362 . S
H244 C250 0.930 . S
H245 C253 0.930 . S
H246 C254 0.930 . S
H247 C255 0.930 . S
H248 C258 0.930 . S
H249 C259 0.930 . S
C250 H244 0.930 . S
C250 C251 1.355 . S
C250 C252 1.415 . S
C251 C250 1.355 . S
C251 C253 1.419 . S
C252 C250 1.415 . S
C252 C257 1.425 . S
C252 C259 1.409 . S
C253 H245 0.930 . S
C253 C251 1.419 . S
C253 C254 1.362 . S
C254 H246 0.930 . S
C254 C253 1.362 . S
C254 C257 1.409 . S
C255 H247 0.930 . S
C255 C256 1.355 . S
C255 C257 1.415 1_655 S
C256 C255 1.355 . S
C256 C258 1.419 . S
C257 C252 1.425 . S
C257 C254 1.409 . S
C257 C255 1.415 1_455 S
C258 H248 0.930 . S
C258 C256 1.419 . S
C258 C259 1.362 1_655 S
C259 H249 0.930 . S
C259 C252 1.409 . S
C259 C258 1.362 1_455 S
H260 C266 0.930 . S
H261 C269 0.930 . S
H262 C270 0.930 . S
H263 C271 0.930 . S
H264 C274 0.930 . S
H265 C275 0.930 . S
C266 H260 0.930 . S
C266 C267 1.355 . S
C266 C268 1.415 . S
C267 C266 1.355 . S
C267 C269 1.419 . S
C268 C266 1.415 . S
C268 C273 1.425 . S
C268 C275 1.409 . S
C269 H261 0.930 . S
C269 C267 1.419 . S
C269 C270 1.362 . S
C270 H262 0.930 . S
C270 C269 1.362 . S
C270 C273 1.409 . S
C271 H263 0.930 . S
C271 C272 1.355 . S
C271 C273 1.415 1_565 S
C272 C271 1.355 . S
C272 C274 1.419 . S
C273 C268 1.425 . S
C273 C270 1.409 . S
C273 C271 1.415 1_545 S
C274 H264 0.930 . S
C274 C272 1.419 . S
C274 C275 1.362 1_565 S
C275 H265 0.930 . S
C275 C268 1.409 . S
C275 C274 1.362 1_545 S
H276 C282 0.930 . S
H277 C285 0.930 . S
H278 C286 0.930 . S
H279 C287 0.930 . S
H280 C290 0.930 . S
H281 C291 0.930 . S
C282 H276 0.930 . S
C282 C283 1.355 . S
C282 C284 1.415 . S
C283 C282 1.355 . S
C283 C285 1.419 . S
C284 C282 1.415 . S
C284 C289 1.425 . S
C284 C291 1.409 . S
C285 H277 0.930 . S
C285 C283 1.419 . S
C285 C286 1.362 . S
C286 H278 0.930 . S
C286 C285 1.362 . S
C286 C289 1.409 . S
C287 H279 0.930 . S
C287 C288 1.355 . S
C287 C289 1.415 . S
C288 C287 1.355 . S
C288 C290 1.419 . S
C289 C284 1.425 . S
C289 C286 1.409 . S
C289 C287 1.415 . S
C290 H280 0.930 . S
C290 C288 1.419 . S
C290 C291 1.362 . S
C291 H281 0.930 . S
C291 C284 1.409 . S
C291 C290 1.362 . S
H292 C298 0.930 . S
H293 C301 0.930 . S
H294 C302 0.930 . S
H295 C303 0.930 . S
H296 C306 0.930 . S
H297 C307 0.933 . S
C298 H292 0.930 . S
C298 C299 1.355 . S
C298 C300 1.415 . S
C299 C298 1.355 . S
C299 C301 1.419 . S
C300 C298 1.415 . S
C300 C305 1.425 . S
C300 C307 1.409 1_554 S
C301 H293 0.930 . S
C301 C299 1.419 . S
C301 C302 1.362 . S
C302 H294 0.930 . S
C302 C301 1.362 . S
C302 C305 1.409 . S
C303 H295 0.930 . S
C303 C304 1.355 . S
C303 C305 1.415 1_556 S
C304 C303 1.355 . S
C304 C306 1.419 . S
C305 C300 1.425 . S
C305 C302 1.409 . S
C305 C303 1.415 1_554 S
C306 H296 0.930 . S
C306 C304 1.419 . S
C306 C307 1.362 . S
C307 H297 0.933 . S
C307 C300 1.409 1_556 S
C307 C306 1.362 . S
H308 C314 0.930 . S
H309 C317 0.930 . S
H310 C318 0.930 . S
H311 C319 0.930 . S
H312 C322 0.930 . S
H313 C323 0.930 . S
C314 H308 0.930 . S
C314 C315 1.355 . S
C314 C316 1.415 . S
C315 C314 1.355 . S
C315 C317 1.419 . S
C316 C314 1.415 . S
C316 C321 1.425 . S
C316 C323 1.409 . S
C317 H309 0.930 . S
C317 C315 1.419 . S
C317 C318 1.362 . S
C318 H310 0.930 . S
C318 C317 1.362 . S
C318 C321 1.409 . S
C319 H311 0.930 . S
C319 C320 1.355 1_554 S
C319 C321 1.415 . S
C320 C319 1.355 1_556 S
C320 C322 1.419 . S
C321 C316 1.425 . S
C321 C318 1.409 . S
C321 C319 1.415 . S
C322 H312 0.930 . S
C322 C320 1.419 . S
C322 C323 1.362 1_556 S
C323 H313 0.930 . S
C323 C316 1.409 . S
C323 C322 1.362 1_554 S
H324 C330 0.930 . S
H325 C333 0.930 . S
H326 C334 0.930 . S
H327 C335 0.930 . S
H328 C338 0.930 . S
H329 C339 0.930 . S
C330 H324 0.930 . S
C330 C331 1.355 . S
C330 C332 1.415 . S
C331 C330 1.355 . S
C331 C333 1.419 . S
C332 C330 1.415 . S
C332 C337 1.425 . S
C332 C339 1.409 . S
C333 H325 0.930 . S
C333 C331 1.419 . S
C333 C334 1.362 . S
C334 H326 0.930 . S
C334 C333 1.362 . S
C334 C337 1.409 . S
C335 H327 0.930 . S
C335 C336 1.355 . S
C335 C337 1.415 . S
C336 C335 1.355 . S
C336 C338 1.419 . S
C337 C332 1.425 . S
C337 C334 1.409 . S
C337 C335 1.415 . S
C338 H328 0.930 . S
C338 C336 1.419 . S
C338 C339 1.362 . S
C339 H329 0.930 . S
C339 C332 1.409 . S
C339 C338 1.362 . S
H340 C346 0.930 . S
H341 C349 0.930 . S
H342 C350 0.930 . S
H343 C351 0.930 . S
H344 C354 0.930 . S
H345 C355 0.930 . S
C346 H340 0.930 . S
C346 C347 1.355 . S
C346 C348 1.415 . S
C347 C346 1.355 . S
C347 C349 1.419 . S
C348 C346 1.415 . S
C348 C353 1.425 . S
C348 C355 1.409 . S
C349 H341 0.930 . S
C349 C347 1.419 . S
C349 C350 1.362 . S
C350 H342 0.930 . S
C350 C349 1.362 . S
C350 C353 1.409 . S
C351 H343 0.930 . S
C351 C352 1.355 1_556 S
C351 C353 1.415 . S
C352 C351 1.355 1_554 S
C352 C354 1.419 . S
C353 C348 1.425 . S
C353 C350 1.409 . S
C353 C351 1.415 . S
C354 H344 0.930 . S
C354 C352 1.419 . S
C354 C355 1.362 1_554 S
C355 H345 0.930 . S
C355 C348 1.409 . S
C355 C354 1.362 1_556 S
H356 C362 0.930 . S
H357 C365 0.930 . S
H358 C366 0.930 . S
H359 C367 0.930 . S
H360 C370 0.930 . S
H361 C371 0.930 . S
C362 H356 0.930 . S
C362 C363 1.355 . S
C362 C364 1.415 . S
C363 C362 1.355 . S
C363 C365 1.419 . S
C364 C362 1.415 . S
C364 C369 1.425 . S
C364 C371 1.409 . S
C365 H357 0.930 . S
C365 C363 1.419 . S
C365 C366 1.362 . S
C366 H358 0.930 . S
C366 C365 1.362 . S
C366 C369 1.409 . S
C367 H359 0.930 . S
C367 C368 1.355 . S
C367 C369 1.415 . S
C368 C367 1.355 . S
C368 C370 1.419 . S
C369 C364 1.425 . S
C369 C366 1.409 . S
C369 C367 1.415 . S
C370 H360 0.930 . S
C370 C368 1.419 . S
C370 C371 1.362 . S
C371 H361 0.930 . S
C371 C364 1.409 . S
C371 C370 1.362 . S
H372 C378 0.930 1_556 S
H373 C381 0.930 . S
H374 C382 0.930 . S
H375 C383 0.930 . S
H376 C386 0.930 . S
H377 C387 0.930 1_556 S
C378 H372 0.930 1_554 S
C378 C379 1.355 . S
C378 C380 1.415 . S
C379 C378 1.355 . S
C379 C381 1.419 . S
C380 C378 1.415 . S
C380 C385 1.425 . S
C380 C387 1.409 . S
C381 H373 0.930 . S
C381 C379 1.419 . S
C381 C382 1.362 . S
C382 H374 0.930 . S
C382 C381 1.362 . S
C382 C385 1.409 . S
C383 H375 0.930 . S
C383 C384 1.355 . S
C383 C385 1.415 . S
C384 C383 1.355 . S
C384 C386 1.419 . S
C385 C380 1.425 . S
C385 C382 1.409 . S
C385 C383 1.415 . S
C386 H376 0.930 . S
C386 C384 1.419 . S
C386 C387 1.362 . S
C387 H377 0.930 1_554 S
C387 C380 1.409 . S
C387 C386 1.362 . S
H388 C394 0.930 . S
H389 C397 0.930 . S
H390 C398 0.930 . S
H391 C399 0.930 . S
H392 C402 0.930 . S
H393 C403 0.930 . S
C394 H388 0.930 . S
C394 C395 1.355 . S
C394 C396 1.415 . S
C395 C394 1.355 . S
C395 C397 1.419 . S
C396 C394 1.415 . S
C396 C401 1.425 . S
C396 C403 1.409 . S
C397 H389 0.930 . S
C397 C395 1.419 . S
C397 C398 1.362 . S
C398 H390 0.930 . S
C398 C397 1.362 . S
C398 C401 1.409 . S
C399 H391 0.930 . S
C399 C400 1.355 . S
C399 C401 1.415 . S
C400 C399 1.355 . S
C400 C402 1.419 . S
C401 C396 1.425 . S
C401 C398 1.409 . S
C401 C399 1.415 . S
C402 H392 0.930 . S
C402 C400 1.419 . S
C402 C403 1.362 . S
C403 H393 0.930 . S
C403 C396 1.409 . S
C403 C402 1.362 . S
H404 C410 0.930 . S
H405 C413 0.930 . S
H406 C414 0.930 . S
H407 C415 0.930 . S
H408 C418 0.930 . S
H409 C419 0.930 . S
C410 H404 0.930 . S
C410 C411 1.355 . S
C410 C412 1.415 . S
C411 C410 1.355 . S
C411 C413 1.419 . S
C412 C410 1.415 . S
C412 C417 1.425 . S
C412 C419 1.409 . S
C413 H405 0.930 . S
C413 C411 1.419 . S
C413 C414 1.362 . S
C414 H406 0.930 . S
C414 C413 1.362 . S
C414 C417 1.409 . S
C415 H407 0.930 . S
C415 C416 1.355 . S
C415 C417 1.415 . S
C416 C415 1.355 . S
C416 C418 1.419 . S
C417 C412 1.425 . S
C417 C414 1.409 . S
C417 C415 1.415 . S
C418 H408 0.930 . S
C418 C416 1.419 . S
C418 C419 1.362 . S
C419 H409 0.930 . S
C419 C412 1.409 . S
C419 C418 1.362 . S
H420 C426 0.930 . S
H421 C429 0.930 . S
H422 C430 0.930 . S
H423 C431 0.930 . S
H424 C434 0.930 . S
H425 C435 0.930 . S
C426 H420 0.930 . S
C426 C427 1.355 . S
C426 C428 1.415 . S
C427 C426 1.355 . S
C427 C429 1.419 . S
C428 C426 1.415 . S
C428 C433 1.425 . S
C428 C435 1.409 . S
C429 H421 0.930 . S
C429 C427 1.419 . S
C429 C430 1.362 . S
C430 H422 0.930 . S
C430 C429 1.362 . S
C430 C433 1.409 . S
C431 H423 0.930 . S
C431 C432 1.355 . S
C431 C433 1.415 . S
C432 C431 1.355 . S
C432 C434 1.419 . S
C433 C428 1.425 . S
C433 C430 1.409 . S
C433 C431 1.415 . S
C434 H424 0.930 . S
C434 C432 1.419 . S
C434 C435 1.362 . S
C435 H425 0.930 . S
C435 C428 1.409 . S
C435 C434 1.362 . S
H436 C442 0.930 . S
H437 C445 0.930 . S
H438 C446 0.930 . S
H439 C447 0.930 . S
H440 C450 0.930 . S
H441 C451 0.930 . S
C442 H436 0.930 . S
C442 C443 1.355 . S
C442 C444 1.415 . S
C443 C442 1.355 . S
C443 C445 1.419 . S
C444 C442 1.415 . S
C444 C449 1.425 . S
C444 C451 1.409 . S
C445 H437 0.930 . S
C445 C443 1.419 . S
C445 C446 1.362 . S
C446 H438 0.930 . S
C446 C445 1.362 . S
C446 C449 1.409 . S
C447 H439 0.930 . S
C447 C448 1.355 . S
C447 C449 1.415 . S
C448 C447 1.355 . S
C448 C450 1.419 . S
C449 C444 1.425 . S
C449 C446 1.409 . S
C449 C447 1.415 . S
C450 H440 0.930 . S
C450 C448 1.419 . S
C450 C451 1.362 . S
C451 H441 0.930 . S
C451 C444 1.409 . S
C451 C450 1.362 . S
H452 C458 0.930 . S
H453 C461 0.930 . S
H454 C462 0.927 1_556 S
H455 C463 0.930 . S
H456 C466 0.930 . S
H457 C467 0.930 . S
C458 H452 0.930 . S
C458 C459 1.355 . S
C458 C460 1.415 . S
C459 C458 1.355 . S
C459 C461 1.419 . S
C460 C458 1.415 . S
C460 C465 1.425 . S
C460 C467 1.409 . S
C461 H453 0.930 . S
C461 C459 1.419 . S
C461 C462 1.364 . S
C462 H454 0.927 1_554 S
C462 C461 1.364 . S
C462 C465 1.410 . S
C463 H455 0.930 . S
C463 C464 1.355 1_556 S
C463 C465 1.415 1_556 S
C464 C463 1.355 1_554 S
C464 C466 1.419 . S
C465 C460 1.425 . S
C465 C462 1.410 . S
C465 C463 1.415 1_554 S
C466 H456 0.930 . S
C466 C464 1.419 . S
C466 C467 1.362 . S
C467 H457 0.930 . S
C467 C460 1.409 . S
C467 C466 1.362 . S
C187 C160 1.627 . S
C192 C10 1.645 . S
C203 N14 1.527 . S
C208 N44 1.527 . S
C219 C40 1.662 . S
C224 C70 1.622 . S
C235 N74 1.526 . S
C240 N104 1.530 . S
C251 C130 1.662 . S
C256 C100 1.620 . S
C267 N164 1.542 . S
C272 N134 1.537 . S
C283 C16 1.090 . S
C288 C27 1.090 . S
C299 C57 1.099 . S
C304 C46 1.099 . S
C315 C76 1.080 . S
C320 C87 1.080 . S
C331 C117 1.087 1_556 S
C336 C106 1.087 . S
C347 C147 1.101 . S
C352 C136 1.101 . S
C363 C177 1.103 . S
C368 C166 1.103 . S
C379 C1 1.654 . S
C384 N126 1.538 . S
C395 N36 1.562 . S
C400 C151 1.668 . S
C411 N6 1.511 . S
C416 C61 1.649 . S
C427 C31 1.666 . S
C432 N96 1.562 . S
C443 C121 1.649 . S
C448 N66 1.513 . S
C459 C91 1.664 . S
C464 N156 1.561 1_554 S
