# Generated by pormake.
# Topology snp, (6)-cn, num edge types: 1
# Building blocks:
#     Node 0, Type 0, BuildingBlock: BETFEN_clean_sbu_0, # of connection points: 6
#     Node 1, Type 0, BuildingBlock: BETFEN_clean_sbu_0, # of connection points: 6
#     Node 2, Type 0, BuildingBlock: BETFEN_clean_sbu_0, # of connection points: 6
#     Node 3, Type 0, BuildingBlock: BETFEN_clean_sbu_0, # of connection points: 6
#     Edge 4, Type (0, 0), BuildingBlock: MIFKUJ_clean_linker_0, # of connection points: 2
#     Edge 5, Type (0, 0), BuildingBlock: MIFKUJ_clean_linker_0, # of connection points: 2
#     Edge 6, Type (0, 0), BuildingBlock: MIFKUJ_clean_linker_0, # of connection points: 2
#     Edge 7, Type (0, 0), BuildingBlock: MIFKUJ_clean_linker_0, # of connection points: 2
#     Edge 8, Type (0, 0), BuildingBlock: MIFKUJ_clean_linker_0, # of connection points: 2
#     Edge 9, Type (0, 0), BuildingBlock: MIFKUJ_clean_linker_0, # of connection points: 2
#     Edge 10, Type (0, 0), BuildingBlock: MIFKUJ_clean_linker_0, # of connection points: 2
#     Edge 11, Type (0, 0), BuildingBlock: MIFKUJ_clean_linker_0, # of connection points: 2
#     Edge 12, Type (0, 0), BuildingBlock: MIFKUJ_clean_linker_0, # of connection points: 2
#     Edge 13, Type (0, 0), BuildingBlock: MIFKUJ_clean_linker_0, # of connection points: 2
#     Edge 14, Type (0, 0), BuildingBlock: MIFKUJ_clean_linker_0, # of connection points: 2
#     Edge 15, Type (0, 0), BuildingBlock: MIFKUJ_clean_linker_0, # of connection points: 2
# Relax obj value: 0.227
# Max RMSD: 0.204
# Mean RMSD: 0.204
data_MOF--net-snp--node1-BETFEN_clean_sbu_0--edge1-MIFKUJ_clean_linker_0
_symmetry_space_group_name_H-M    P1
_symmetry_Int_Tables_number       1
_symmetry_cell_setting            triclinic
loop_
_symmetry_equiv_pos_as_xyz
'x, y, z'
_cell_length_a     32.374993
_cell_length_b     32.295578
_cell_length_c     44.323807
_cell_angle_alpha  85.87572
_cell_angle_beta   85.923066
_cell_angle_gamma 95.83329
loop_
_atom_site_label
_atom_site_type_symbol
_atom_site_fract_x
_atom_site_fract_y
_atom_site_fract_z
_atom_type_partial_charge
Pr0 Pr 0.21203 0.00308 0.1905 0.0
Pr1 Pr 0.25081 0.92915 0.15762 0.0
C2 C 0.17036 0.05574 0.22297 0.0
C3 C 0.15727 0.06082 0.25536 0.0
C4 C 0.17393 0.09612 0.26895 0.0
C5 C 0.16257 0.1019 0.29933 0.0
C6 C 0.13398 0.07259 0.3171 0.0
C7 C 0.11727 0.03713 0.30352 0.0
C8 C 0.12867 0.03137 0.27302 0.0
C9 C 0.29229 0.02163 0.16245 0.0
C10 C 0.26628 0.93951 0.23021 0.0
C11 C 0.29178 0.8818 0.12127 0.0
C12 C 0.28293 0.87362 0.08977 0.0
C13 C 0.24148 0.86781 0.08199 0.0
C14 C 0.23249 0.86401 0.05189 0.0
C15 C 0.26466 0.86643 0.02857 0.0
C16 C 0.30624 0.87206 0.03642 0.0
C17 C 0.31524 0.87568 0.06671 0.0
C18 C 0.17293 0.90675 0.18806 0.0
C19 C 0.1891 0.98753 0.11913 0.0
O20 O 0.15154 0.02509 0.20959 0.0
O21 O 0.21032 0.06218 0.215 0.0
O22 O 0.26269 0.00035 0.15193 0.0
O23 O 0.28029 0.03636 0.18771 0.0
O24 O 0.28135 0.92505 0.20478 0.0
O25 O 0.2361 0.96423 0.23059 0.0
O26 O 0.30625 0.92023 0.12525 0.0
O27 O 0.2633 0.86582 0.14257 0.0
O28 O 0.20144 0.93154 0.19667 0.0
O29 O 0.18454 0.89138 0.16288 0.0
O30 O 0.17986 0.00644 0.14401 0.0
O31 O 0.21635 0.95972 0.11849 0.0
H32 H 0.19599 0.1194 0.25602 0.0
H33 H 0.17661 0.12928 0.30898 0.0
H34 H 0.0948 0.01412 0.3163 0.0
H35 H 0.11497 0.00391 0.26337 0.0
H36 H 0.21577 0.86687 0.09916 0.0
H37 H 0.20015 0.85905 0.04698 0.0
H38 H 0.33188 0.87466 1.01909 0.0
H39 H 0.34741 0.88097 0.07203 0.0
Pr40 Pr 0.94876 0.24732 0.65128 0.0
Pr41 Pr 0.0138 0.20588 0.69097 0.0
C42 C 0.90192 0.29051 0.61509 0.0
C43 C 0.88829 0.28655 0.58392 0.0
C44 C 0.8597 0.25307 0.57761 0.0
C45 C 0.84798 0.24878 0.5481 0.0
C46 C 0.8642 0.278 0.52399 0.0
C47 C 0.89252 0.31174 0.53039 0.0
C48 C 0.90449 0.31584 0.55993 0.0
C49 C 0.92491 0.16569 0.67419 0.0
C50 C 0.01555 0.19141 0.61659 0.0
C51 C 0.05748 0.15707 0.72616 0.0
C52 C 0.05983 0.14268 0.75858 0.0
C53 C 0.05649 0.16988 0.78183 0.0
C54 C 0.06107 0.15608 0.81209 0.0
C55 C 0.06903 0.11467 0.81994 0.0
C56 C 0.07128 0.08735 0.79657 0.0
C57 C 0.06675 0.10119 0.76636 0.0
C58 C 0.03575 0.28897 0.66831 0.0
C59 C 0.9457 0.25866 0.72569 0.0
O60 O 0.94145 0.30204 0.61748 0.0
O61 O 0.88614 0.26161 0.63615 0.0
O62 O 0.94324 0.19332 0.68856 0.0
O63 O 0.91763 0.17993 0.64713 0.0
O64 O 0.02612 0.17743 0.64356 0.0
O65 O 0.99024 0.22081 0.61348 0.0
O66 O 0.02485 0.14241 0.71285 0.0
O67 O 0.06959 0.1964 0.71776 0.0
O68 O 0.01879 0.26027 0.65421 0.0
O69 O 0.04453 0.27468 0.69502 0.0
O70 O 0.93681 0.27525 0.69892 0.0
O71 O 0.96952 0.22801 0.72838 0.0
H72 H 0.84672 0.22963 0.59539 0.0
H73 H 0.82692 0.22184 0.54412 0.0
H74 H 0.90549 0.33511 0.51258 0.0
H75 H 0.92682 0.34176 0.56394 0.0
H76 H 0.05095 0.20203 0.77657 0.0
H77 H 0.0595 0.1783 0.82918 0.0
H78 H 0.07666 0.05514 0.8015 0.0
H79 H 0.06917 0.07946 0.74895 0.0
Pr80 Pr 0.78591 0.10093 0.09381 0.0
Pr81 Pr 0.8107 0.02278 0.05584 0.0
C82 C 0.75026 0.15435 0.1287 0.0
C83 C 0.7579 0.16567 0.15966 0.0
C84 C 0.79149 0.1511 0.17409 0.0
C85 C 0.79903 0.16144 0.20346 0.0
C86 C 0.77301 0.18643 0.21916 0.0
C87 C 0.73905 0.20057 0.20472 0.0
C88 C 0.73164 0.19034 0.1752 0.0
C89 C 0.87091 0.09588 0.08607 0.0
C90 C 0.8155 0.01622 0.13187 0.0
C91 C 0.84536 0.96724 1.02134 0.0
C92 C 0.85119 0.95491 0.98972 0.0
C93 C 0.81774 0.94508 0.97198 0.0
C94 C 0.82509 0.93389 0.94208 0.0
C95 C 0.86604 0.93229 0.92923 0.0
C96 C 0.89926 0.94258 0.94715 0.0
C97 C 0.89191 0.95356 0.97689 0.0
C98 C 0.72596 0.0318 0.06566 0.0
C99 C 0.7947 0.11203 1.01812 0.0
O100 O 0.73375 0.11599 0.12669 0.0
O101 O 0.78065 0.16636 0.10778 0.0
O102 O 0.84452 0.08471 0.06766 0.0
O103 O 0.85384 0.11671 0.10669 0.0
O104 O 0.82134 -0.00207 0.1062 0.0
O105 O 0.80086 0.05301 0.13301 0.0
O106 O 0.86449 0.00331 0.02646 0.0
O107 O 0.80881 0.95902 0.03656 0.0
O108 O 0.7529 0.03753 0.08449 0.0
O109 O 0.74202 0.01834 0.04097 0.0
O110 O 0.77834 0.12612 0.04324 0.0
O111 O 0.81193 0.07669 1.01808 0.0
H112 H 0.81189 0.13161 0.16264 0.0
H113 H 0.82499 0.1494 0.21403 0.0
H114 H 0.71856 0.22005 0.21609 0.0
H115 H 0.70546 0.20172 0.1645 0.0
H116 H 0.78597 0.946 0.98115 0.0
H117 H 0.79861 0.92586 0.92923 0.0
H118 H 0.93121 0.9426 0.93815 0.0
H119 H 0.91834 0.9612 0.98993 0.0
Pr120 Pr 0.0011 0.80193 0.55837 0.0
Pr121 Pr 0.08193 0.7928 0.59613 0.0
C122 C 0.94045 0.82448 0.52319 0.0
C123 C 0.93375 0.83168 0.49038 0.0
C124 C 0.89367 0.82391 0.48041 0.0
C125 C 0.88612 0.8341 0.45005 0.0
C126 C 0.91847 0.85264 0.42887 0.0
C127 C 0.95886 0.85937 0.43881 0.0
C128 C 0.96642 0.84893 0.4691 0.0
C129 C 0.02376 0.72111 0.56939 0.0
C130 C 0.09355 0.80058 0.52087 0.0
C131 C 0.1435 0.77141 0.6297 0.0
C132 C 0.15185 0.77811 0.66144 0.0
C133 C 0.19275 0.78813 0.66905 0.0
C134 C 0.20061 0.7973 0.69867 0.0
C135 C 0.16767 0.79664 0.72135 0.0
C136 C 0.12667 0.78651 0.71354 0.0
C137 C 0.11888 0.77748 0.68393 0.0
C138 C 0.06048 0.87417 0.58914 0.0
C139 C 0.99066 0.79925 0.63503 0.0
O140 O 0.96778 0.85106 0.53385 0.0
O141 O 0.9419 0.78606 0.53442 0.0
O142 O 0.02457 0.74894 0.58785 0.0
O143 O 0.00904 0.73396 0.54425 0.0
O144 O 0.1089 0.78671 0.54613 0.0
O145 O 0.05579 0.81263 0.52053 0.0
O146 O 0.11092 0.74536 0.62567 0.0
O147 O 0.14729 0.80511 0.61103 0.0
O148 O 0.05589 0.84706 0.56997 0.0
O149 O 0.08172 0.86049 0.61078 0.0
O150 O 0.97283 0.80575 0.60918 0.0
O151 O 0.02956 0.79009 0.63563 0.0
H152 H 0.86789 0.81084 0.49631 0.0
H153 H 0.85457 0.82875 0.44346 0.0
H154 H 0.98474 0.87296 0.42318 0.0
H155 H -0.00225 0.85512 0.476 0.0
H156 H 0.2186 0.78945 0.65197 0.0
H157 H 0.23252 0.80566 0.70361 0.0
H158 H 0.1005 0.78516 0.73035 0.0
H159 H 0.087 0.77026 0.67856 0.0
H160 H 0.93409 0.12329 0.11876 0.0
H161 H 0.9786 0.07889 0.14581 0.0
H162 H 0.92719 0.97311 0.10112 0.0
H163 H 0.88596 0.01797 0.0731 0.0
H164 H 0.95273 0.0183 0.18576 0.0
H165 H 0.9914 0.89671 0.10075 0.0
H166 H 0.00218 0.89324 0.04538 0.0
H167 H 0.04094 0.02488 0.03426 0.0
H168 H 0.03241 0.02884 0.08963 0.0
H169 H 0.10951 0.84782 0.17818 0.0
H170 H 0.03665 0.86114 0.18103 0.0
H171 H 0.06954 0.973 0.22596 0.0
H172 H 0.1391 0.95282 0.22995 0.0
H173 H 0.04196 0.91854 0.14225 0.0
H174 H -0.00087 0.04571 0.22177 0.0
H175 H -0.00227 0.058 0.27583 0.0
H176 H 0.98146 0.92625 0.29969 0.0
H177 H 0.97955 0.91255 0.24569 0.0
C178 C 0.93401 0.09096 0.11369 0.0
C179 C 0.90663 0.07382 0.09358 0.0
C180 C 0.95876 0.06552 0.12953 0.0
C181 C 0.95593 0.02263 0.12564 0.0
C182 C 0.9306 0.00625 0.10411 0.0
C183 C 0.90721 0.03204 0.08762 0.0
C184 C 0.97777 -0.0054 0.14504 0.0
C185 C 0.9725 -0.00366 0.1766 0.0
C186 C 0.00245 0.96552 0.1327 0.0
C187 C 0.01062 0.96315 0.0994 0.0
C188 C 0.00277 0.92483 0.08655 0.0
C189 C 0.00861 0.92276 0.05514 0.0
C190 C 0.02221 0.95882 0.03631 0.0
C191 C 0.03054 -0.00307 0.04887 0.0
C192 C 0.02538 -0.00092 0.08029 0.0
C193 C 0.10015 0.8734 0.19067 0.0
C194 C 0.12988 0.90223 0.20125 0.0
C195 C 0.05851 0.88112 0.19237 0.0
C196 C 0.04796 0.91989 0.20144 0.0
C197 C 0.07617 0.9434 0.21793 0.0
C198 C 0.11671 0.93299 0.21912 0.0
C199 C 0.01783 0.94169 0.18409 0.0
C200 C 0.02134 0.93907 0.15235 0.0
C201 C -0.00721 0.97093 0.19647 0.0
C202 C 0.98939 0.97804 0.22937 0.0
C203 C -0.00592 0.01913 0.23844 0.0
C204 C -0.00624 0.02635 0.26913 0.0
C205 C 0.98923 0.99281 0.29114 0.0
C206 C 0.98434 0.95199 0.28251 0.0
C207 C 0.9837 0.94447 0.25184 0.0
H208 H 0.9898 -0.00154 0.31489 0.0
H209 H 0.02624 0.95724 1.01198 0.0
H210 H 0.08105 0.94846 0.61184 0.0
H211 H 0.03412 0.98005 0.64643 0.0
H212 H 0.93111 0.89822 0.61981 0.0
H213 H 0.9769 0.8731 0.58248 0.0
H214 H 0.89374 0.92748 0.65119 0.0
H215 H 0.0062 0.88712 0.68651 0.0
H216 H 0.07244 0.86662 0.70323 0.0
H217 H 0.09962 0.98687 0.73696 0.0
H218 H 0.03419 0.00859 0.71981 0.0
H219 H 0.93863 0.12884 0.72982 0.0
H220 H 0.92848 0.054 0.74527 0.0
H221 H 0.87202 0.03272 0.66113 0.0
H222 H 0.88102 0.10599 0.64689 0.0
H223 H 0.96456 -0.00015 0.73054 0.0
H224 H 0.83299 0.95357 0.64385 0.0
H225 H 0.75666 0.94376 0.64986 0.0
H226 H 0.75897 0.9548 0.74564 0.0
H227 H 0.83553 0.9637 0.74058 0.0
C228 C 0.04791 0.93886 0.61255 0.0
C229 C 0.03274 0.90619 0.59582 0.0
C230 C 0.02116 0.95552 0.63341 0.0
C231 C 0.97957 0.9375 0.63944 0.0
C232 C 0.96336 0.91081 0.61835 0.0
C233 C 0.98976 0.89632 0.5962 0.0
C234 C 0.954 0.94673 0.66731 0.0
C235 C 0.91013 0.94384 0.6678 0.0
C236 C 0.97258 0.96047 0.69361 0.0
C237 C 0.01419 0.94921 0.70221 0.0
C238 C 0.02617 0.90932 0.69739 0.0
C239 C 0.06381 0.8975 0.70691 0.0
C240 C 0.09013 0.92533 0.72134 0.0
C241 C 0.07905 0.9652 0.72595 0.0
C242 C 0.0415 0.97724 0.71635 0.0
C243 C 0.92316 0.10781 0.71519 0.0
C244 C 0.91212 0.12263 0.68662 0.0
C245 C 0.9171 0.06501 0.72409 0.0
C246 C 0.90033 0.0366 0.70432 0.0
C247 C 0.88485 0.05277 0.67742 0.0
C248 C 0.89075 0.09518 0.66872 0.0
C249 C 0.90923 0.9921 0.70656 0.0
C250 C 0.94975 0.98434 0.7127 0.0
C251 C 0.88706 0.96375 0.68933 0.0
C252 C 0.8406 0.95893 0.69186 0.0
C253 C 0.8176 0.95324 0.66636 0.0
C254 C 0.77407 0.94804 0.66957 0.0
C255 C 0.75297 0.94854 0.69811 0.0
C256 C 0.77534 0.95447 0.72351 0.0
C257 C 0.81886 0.95972 0.72046 0.0
H258 H 0.71927 0.94443 0.70053 0.0
H259 H 0.11918 0.91607 0.72885 0.0
H260 H 0.6873 0.04707 0.11958 0.0
H261 H 0.61284 0.04715 0.13247 0.0
H262 H 0.58793 0.01711 0.04175 0.0
H263 H 0.66301 0.01889 0.02832 0.0
H264 H 0.53802 0.07247 0.06063 0.0
H265 H 0.57479 0.94154 0.10099 0.0
H266 H 0.61542 0.89405 0.12978 0.0
H267 H 0.58138 0.94929 0.21198 0.0
H268 H 0.54099 -0.00246 0.1836 0.0
H269 H 0.32178 0.0043 0.10594 0.0
H270 H 0.39493 0.007 0.08627 0.0
H271 H 0.43403 0.0502 0.17068 0.0
H272 H 0.3612 0.04734 0.19043 0.0
H273 H 0.47513 0.98429 0.15193 0.0
H274 H 0.43981 0.11701 0.10955 0.0
H275 H 0.39846 0.16263 0.07975 0.0
H276 H 0.42832 0.10029 0.99993 0.0
H277 H 0.46941 0.05388 0.02938 0.0
C278 C 0.66607 0.04127 0.1022 0.0
C279 C 0.68095 0.03324 0.07291 0.0
C280 C 0.62343 0.04081 0.1097 0.0
C281 C 0.59469 0.0314 0.08824 0.0
C282 C 0.60952 0.0243 0.0587 0.0
C283 C 0.65234 0.02517 0.05109 0.0
C284 C 0.54927 0.02814 0.09705 0.0
C285 C 0.52414 0.05269 0.08031 0.0
C286 C 0.53115 0.00259 0.12289 0.0
C287 C 0.55513 0.97338 0.14011 0.0
C288 C 0.57618 0.94375 0.12517 0.0
C289 C 0.59915 0.91667 0.14142 0.0
C290 C 0.60105 0.91871 0.17268 0.0
C291 C 0.5799 0.94777 0.18777 0.0
C292 C 0.55692 0.97496 0.17161 0.0
C293 C 0.34607 0.01441 0.12022 0.0
C294 C 0.33597 0.02533 0.14976 0.0
C295 C 0.38774 0.01616 0.10892 0.0
C296 C 0.41986 0.02887 0.12703 0.0
C297 C 0.4097 0.04023 0.15639 0.0
C298 C 0.36813 0.03875 0.16758 0.0
C299 C 0.46417 0.02921 0.1159 0.0
C300 C 0.48902 0.0039 0.13216 0.0
C301 C 0.48182 0.05367 0.08948 0.0
C302 C 0.4573 0.08168 0.07174 0.0
C303 C 0.43726 0.11279 0.0857 0.0
C304 C 0.41393 0.13884 0.06887 0.0
C305 C 0.41066 0.13428 0.03799 0.0
C306 C 0.43082 0.10374 1.02387 0.0
C307 C 0.45416 0.07758 0.04061 0.0
H308 H 0.39258 0.15448 0.02499 0.0
H309 H 0.61886 0.89772 0.18522 0.0
H310 H 0.05546 0.35683 0.70009 0.0
H311 H 0.05699 0.43074 0.68225 0.0
H312 H 0.02738 0.39537 0.59361 0.0
H313 H 0.02589 0.3217 0.61132 0.0
H314 H 0.10237 0.48118 0.63815 0.0
H315 H 0.95999 0.46366 0.56469 0.0
H316 H 0.894 0.41863 0.5634 0.0
H317 H 0.89443 0.38337 0.65861 0.0
H318 H 0.95969 0.42915 0.66073 0.0
H319 H 0.01753 0.65505 0.5341 0.0
H320 H 0.02425 0.58166 0.54946 0.0
H321 H 0.05004 0.61485 0.63931 0.0
H322 H 0.04335 0.68795 0.62412 0.0
H323 H 0.9779 0.53036 0.59372 0.0
H324 H 0.11596 0.54948 0.66876 0.0
H325 H 0.17904 0.59803 0.67242 0.0
H326 H 0.18479 0.63161 0.57659 0.0
H327 H 0.12212 0.58286 0.57228 0.0
C328 C 0.04962 0.36492 0.67675 0.0
C329 C 0.03999 0.33358 0.65719 0.0
C330 C 0.05053 0.40711 0.66657 0.0
C331 C 0.04165 0.41862 0.63672 0.0
C332 C 0.03355 0.38728 0.61689 0.0
C333 C 0.03269 0.3452 0.62703 0.0
C334 C 0.03995 0.46325 0.62646 0.0
C335 C 0.07499 0.49198 0.62872 0.0
C336 C 0.00442 0.47732 0.61373 0.0
C337 C 0.96515 0.44946 0.61274 0.0
C338 C 0.94594 0.44644 0.58539 0.0
C339 C 0.90855 0.42093 0.58454 0.0
C340 C 0.89007 0.39813 0.61089 0.0
C341 C 0.90883 0.40098 0.6382 0.0
C342 C 0.94603 0.42674 0.63923 0.0
C343 C 0.02502 0.64668 0.55703 0.0
C344 C 0.03021 0.67724 0.57785 0.0
C345 C 0.02872 0.60477 0.5658 0.0
C346 C 0.03802 0.59278 0.59545 0.0
C347 C 0.04354 0.6234 0.61617 0.0
C348 C 0.03973 0.6652 0.60745 0.0
C349 C 0.04039 0.54809 0.60512 0.0
C350 C 0.00538 0.51941 0.6029 0.0
C351 C 0.07574 0.53416 0.61811 0.0
C352 C 0.11411 0.56277 0.62028 0.0
C353 C 0.13083 0.56705 0.64845 0.0
C354 C 0.16648 0.59464 0.65064 0.0
C355 C 0.18583 0.61798 0.62477 0.0
C356 C 0.16969 0.61363 0.59663 0.0
C357 C 0.13407 0.58605 0.59431 0.0
H358 H 0.21338 0.63939 0.62653 0.0
H359 H 0.86123 0.37822 0.61014 0.0
H360 H 0.03297 0.23326 0.56114 0.0
H361 H 0.05575 0.20632 0.51354 0.0
H362 H 0.05844 0.08447 0.55965 0.0
H363 H 0.03744 0.11223 0.60814 0.0
H364 H 0.11966 0.09667 0.51522 0.0
H365 H 0.97459 0.1055 0.51836 0.0
H366 H 0.90951 0.13787 0.52748 0.0
H367 H 0.95249 0.23577 0.45824 0.0
H368 H 0.01787 0.20447 0.44916 0.0
H369 H 0.12071 0.01505 0.36704 0.0
H370 H 0.1012 0.02784 0.41982 0.0
H371 H 0.1002 0.15869 0.39333 0.0
H372 H 0.11845 0.14617 0.34068 0.0
H373 H 0.03335 0.13052 0.43048 0.0
H374 H 0.18259 0.11543 0.43024 0.0
H375 H 0.2427 0.07521 0.42199 0.0
H376 H 0.185 0.97743 0.48676 0.0
H377 H 0.12438 0.0169 0.49517 0.0
C378 C 0.03872 0.20078 0.5613 0.0
C379 C 0.03285 0.17479 0.58841 0.0
C380 C 0.05164 0.18528 0.53394 0.0
C381 C 0.05772 0.14293 0.53259 0.0
C382 C 0.05371 0.11717 0.5599 0.0
C383 C 0.04161 0.13303 0.58761 0.0
C384 C 0.06593 0.12592 0.50233 0.0
C385 C 0.10044 0.1036 0.49682 0.0
C386 C 0.04074 0.13411 0.47817 0.0
C387 C 0.00116 0.1528 0.4832 0.0
C388 C 0.97017 0.13411 0.50524 0.0
C389 C 0.93328 0.15233 0.51049 0.0
C390 C 0.92692 0.18904 0.49367 0.0
C391 C 0.95744 0.20762 0.47155 0.0
C392 C -0.00558 0.1896 0.46626 0.0
C393 C 0.116 0.04651 0.37238 0.0
C394 C 0.12147 0.07962 0.34943 0.0
C395 C 0.10522 0.05381 0.40269 0.0
C396 C 0.09967 0.09431 0.4108 0.0
C397 C 0.10449 0.12717 0.38785 0.0
C398 C 0.11529 0.11998 0.35766 0.0
C399 C 0.08813 0.10295 0.44292 0.0
C400 C 0.05257 0.12343 0.44886 0.0
C401 C 0.11175 0.09187 0.4675 0.0
C402 C 0.14884 0.06895 0.46315 0.0
C403 C 0.1827 0.0853 0.44266 0.0
C404 C 0.21685 0.06264 0.43795 0.0
C405 C 0.21763 0.02375 0.45379 0.0
C406 C 0.18438 0.00756 0.47452 0.0
C407 C 0.15016 0.03009 0.47929 0.0
H408 H 0.24402 0.00618 0.45003 0.0
H409 H 0.89809 0.20262 0.49759 0.0
H410 H 0.86248 0.25315 0.74175 0.0
H411 H 0.83099 0.24469 0.79408 0.0
H412 H 0.95156 0.27753 0.82666 0.0
H413 H 0.98302 0.28428 0.77455 0.0
H414 H 0.922 0.2052 0.85044 0.0
H415 H 0.8665 0.33618 0.83916 0.0
H416 H 0.82833 0.39023 0.81498 0.0
H417 H 0.71572 0.30622 0.82602 0.0
H418 H 0.75333 0.25145 0.84989 0.0
H419 H 0.80095 0.19768 1.00733 0.0
H420 H 0.82146 0.23778 0.95825 0.0
H421 H 0.81628 0.12322 0.91367 0.0
H422 H 0.7964 0.08335 0.96217 0.0
H423 H 0.7915 0.24588 0.89988 0.0
H424 H 0.90489 0.12584 0.86622 0.0
H425 H 0.94571 0.0742 0.89058 0.0
H426 H 0.9479 0.1421 0.97033 0.0
H427 H 0.90788 0.19464 0.94625 0.0
C428 C 0.88177 0.26056 0.76003 0.0
C429 C 0.92505 0.26974 0.75422 0.0
C430 C 0.86382 0.25552 0.79001 0.0
C431 C 0.88889 0.26019 0.81449 0.0
C432 C 0.93154 0.27348 0.80828 0.0
C433 C 0.94948 0.2778 0.77847 0.0
C434 C 0.87255 0.24466 0.84605 0.0
C435 C 0.89363 0.21449 0.86124 0.0
C436 C 0.8356 0.25669 0.86039 0.0
C437 C 0.81284 0.2896 0.84613 0.0
C438 C 0.83366 0.32911 0.83623 0.0
C439 C 0.81211 0.35991 0.82262 0.0
C440 C 0.76964 0.35164 0.81892 0.0
C441 C 0.74862 0.31258 0.82889 0.0
C442 C 0.77003 0.28167 0.8425 0.0
C443 C 0.8031 0.18125 0.98691 0.0
C444 C 0.79758 0.13737 0.98866 0.0
C445 C 0.81494 0.20415 0.95892 0.0
C446 C 0.8213 0.18339 0.93241 0.0
C447 C 0.81237 0.13986 0.93388 0.0
C448 C 0.8009 0.11711 0.96167 0.0
C449 C 0.84069 0.20615 0.90368 0.0
C450 C 0.82013 0.23723 0.88905 0.0
C451 C 0.87847 0.1953 0.88981 0.0
C452 C 0.90288 0.16396 0.90452 0.0
C453 C 0.91418 0.12986 0.88892 0.0
C454 C 0.93719 0.10041 0.90268 0.0
C455 C 0.94917 0.10473 0.93205 0.0
C456 C 0.9384 0.13867 0.94764 0.0
C457 C 0.91552 0.16829 0.93395 0.0
H458 H 0.96692 0.08187 0.94267 0.0
H459 H 0.75301 0.37552 0.80837 0.0
H460 H 0.86639 0.81267 0.39068 0.0
H461 H 0.85063 0.83718 0.33958 0.0
H462 H 0.93461 0.94871 0.34383 0.0
H463 H 0.95016 0.92467 0.39474 0.0
H464 H 0.86657 0.96882 0.3222 0.0
H465 H 0.95434 0.85872 0.30246 0.0
H466 H 0.97383 0.78712 0.30444 0.0
H467 H 0.86216 0.74597 0.26354 0.0
H468 H 0.84173 0.8175 0.26152 0.0
H469 H 0.86377 0.05344 0.17187 0.0
H470 H 0.88511 0.02346 0.21969 0.0
H471 H 0.81672 0.90542 0.20567 0.0
H472 H 0.79832 0.93488 0.15635 0.0
H473 H 0.87706 0.88678 0.23224 0.0
H474 H 0.78209 0.98547 0.257 0.0
H475 H 0.75319 0.0533 0.25665 0.0
H476 H 0.86446 0.10916 0.29116 0.0
H477 H 0.89435 0.04177 0.29128 0.0
C478 C 0.88165 0.84238 0.38069 0.0
C479 C 0.90984 0.86646 0.39699 0.0
C480 C 0.8729 0.85622 0.35122 0.0
C481 C 0.8921 0.89454 0.33717 0.0
C482 C 0.91988 0.91872 0.3536 0.0
C483 C 0.92891 0.90478 0.38287 0.0
C484 C 0.88212 0.91065 0.30609 0.0
C485 C 0.86942 0.95095 0.30249 0.0
C486 C 0.884 0.88693 0.28033 0.0
C487 C 0.89638 0.84377 0.28194 0.0
C488 C 0.93379 0.83461 0.29396 0.0
C489 C 0.94504 0.7939 0.2951 0.0
C490 C 0.91924 0.76198 0.28415 0.0
C491 C 0.88214 0.77072 0.27202 0.0
C492 C 0.87074 0.81138 0.27085 0.0
C493 C 0.85335 0.02103 0.17901 0.0
C494 C 0.8288 -0.00331 0.16057 0.0
C495 C 0.86525 0.00388 0.20663 0.0
C496 C 0.85145 0.9623 0.21739 0.0
C497 C 0.82779 0.9376 0.1984 0.0
C498 C 0.81703 0.95446 0.17017 0.0
C499 C 0.86119 0.94494 0.24837 0.0
C500 C 0.87404 0.90459 0.25195 0.0
C501 C 0.85807 0.96792 0.27446 0.0
C502 C 0.84055 0.00865 0.27394 0.0
C503 C 0.80052 0.01229 0.26429 0.0
C504 C 0.78397 0.05063 0.26415 0.0
C505 C 0.80699 0.08545 0.27389 0.0
C506 C 0.8467 0.08211 0.28364 0.0
C507 C 0.86346 0.04386 0.28375 0.0
H508 H 0.79395 0.11495 0.27403 0.0
H509 H 0.92802 0.73049 0.28505 0.0
H510 H 0.12195 0.83959 0.76104 0.0
H511 H 0.13521 0.85313 0.81324 0.0
H512 H 0.24644 0.79033 0.80531 0.0
H513 H 0.23228 0.77478 0.75381 0.0
H514 H 0.20441 0.76642 0.85748 0.0
H515 H 0.24588 0.89992 0.80094 0.0
H516 H 0.23412 0.96106 0.76725 0.0
H517 H 0.1375 0.99028 0.83111 0.0
H518 H 0.14805 0.92897 0.86487 0.0
H519 H 0.30604 0.82755 0.9842 0.0
H520 H 0.28787 0.8194 0.93233 0.0
H521 H 0.18119 0.88704 0.94818 0.0
H522 H 0.20051 0.89748 0.99959 0.0
H523 H 0.21516 0.90888 0.89326 0.0
H524 H 0.17185 0.77851 0.94954 0.0
H525 H 0.17889 0.71633 0.98369 0.0
H526 H 0.27397 0.68047 0.9213 0.0
H527 H 0.2679 0.74277 0.88695 0.0
C528 C 0.14904 0.82826 0.77046 0.0
C529 C 0.17608 0.80608 0.75302 0.0
C530 C 0.15685 0.8365 0.80027 0.0
C531 C 0.19217 0.82325 0.81321 0.0
C532 C 0.21907 0.80105 0.79588 0.0
C533 C 0.21114 0.79255 0.76622 0.0
C534 C 0.20104 0.83158 0.84492 0.0
C535 C 0.20732 0.79768 0.86513 0.0
C536 C 0.20323 0.87214 0.85542 0.0
C537 C 0.19742 0.90951 0.83529 0.0
C538 C 0.22189 0.91921 0.80769 0.0
C539 C 0.21543 0.95393 0.78857 0.0
C540 C 0.18491 0.97947 0.79696 0.0
C541 C 0.16099 0.97046 0.82457 0.0
C542 C 0.16719 0.93571 0.84371 0.0
C543 C 0.27909 0.84133 0.9766 0.0
C544 C 0.25458 0.86281 0.99638 0.0
C545 C 0.26839 0.83617 0.94695 0.0
C546 C 0.23257 0.85176 0.93643 0.0
C547 C 0.20875 0.87437 0.95575 0.0
C548 C 0.21964 0.87989 0.98534 0.0
C549 C 0.2197 0.8438 0.9055 0.0
C550 C 0.21234 0.87765 0.88556 0.0
C551 C 0.21604 0.80312 0.89526 0.0
C552 C 0.21967 0.76551 0.9158 0.0
C553 C 0.19447 0.75752 0.9432 0.0
C554 C 0.19825 0.72223 0.96258 0.0
C555 C 0.22693 0.69452 0.95471 0.0
C556 C 0.25181 0.70199 0.92739 0.0
C557 C 0.24818 0.73726 0.90794 0.0
H558 H 0.22981 0.66722 0.96974 0.0
H559 H 0.17988 0.0063 0.78213 0.0
H560 H 0.92681 0.88559 0.90809 0.0
H561 H 0.94206 0.86644 0.85668 0.0
H562 H 0.83968 0.92982 0.8265 0.0
H563 H 0.82438 0.94974 0.87815 0.0
H564 H 0.84031 0.85742 0.80129 0.0
H565 H 0.94036 0.97257 0.80829 0.0
H566 H -0.00498 0.01642 0.83086 0.0
H567 H 0.07613 0.91957 0.82514 0.0
H568 H 0.02181 0.87488 0.80298 0.0
H569 H 0.91564 0.83198 0.64593 0.0
H570 H 0.88868 0.85702 0.6936 0.0
H571 H 0.98702 0.80531 0.73964 0.0
H572 H 0.01511 0.78243 0.6921 0.0
H573 H 0.98466 0.88134 0.75352 0.0
H574 H 0.87729 0.76534 0.74849 0.0
H575 H 0.82098 0.72617 0.7242 0.0
H576 H 0.75257 0.83341 0.7218 0.0
H577 H 0.80857 0.87315 0.74599 0.0
C578 C 0.90769 0.89603 0.89059 0.0
C579 C 0.87446 0.91965 0.89755 0.0
C580 C 0.91647 0.88491 0.86103 0.0
C581 C 0.89248 0.89711 0.83737 0.0
C582 C 0.85877 0.92 0.84423 0.0
C583 C 0.84995 0.93124 0.87391 0.0
C584 C 0.90266 0.88538 0.80576 0.0
C585 C 0.87176 0.86333 0.79059 0.0
C586 C 0.94357 0.89311 0.79146 0.0
C587 C 0.97672 0.92012 0.80436 0.0
C588 C 0.96973 0.96048 0.81206 0.0
C589 C 0.00069 0.98554 0.82471 0.0
C590 C 0.03893 0.97072 0.82952 0.0
C591 C 0.04648 0.93101 0.82141 0.0
C592 C 0.0156 0.90578 0.80881 0.0
C593 C 0.93148 0.8259 0.6662 0.0
C594 C 0.96845 0.80637 0.66471 0.0
C595 C 0.91578 0.83996 0.69364 0.0
C596 C 0.93599 0.83366 0.72046 0.0
C597 C 0.97103 0.81128 0.71937 0.0
C598 C 0.98705 0.79796 0.69198 0.0
C599 C 0.92276 0.85208 0.74932 0.0
C600 C 0.95311 0.87578 0.76392 0.0
C601 C 0.88121 0.84666 0.76264 0.0
C602 C 0.84732 0.82238 0.74867 0.0
C603 C 0.85032 0.7806 0.74263 0.0
C604 C 0.81844 0.75827 0.72894 0.0
C605 C 0.78328 0.77732 0.72137 0.0
C606 C 0.77984 0.81868 0.72762 0.0
C607 C 0.81161 0.84111 0.74134 0.0
H608 H 0.75866 0.75999 0.71073 0.0
H609 H 0.06259 0.98998 0.83968 0.0
H610 H 0.28334 0.98177 0.27892 0.0
H611 H 0.26945 0.9538 0.33172 0.0
H612 H 0.24991 0.82919 0.30256 0.0
H613 H 0.26477 0.85728 0.24958 0.0
H614 H 0.19357 0.91977 0.34904 0.0
H615 H 0.2552 0.75775 0.36408 0.0
H616 H 0.31703 0.72363 0.34808 0.0
H617 H 0.39141 0.84241 0.33792 0.0
H618 H 0.33018 0.87717 0.35425 0.0
H619 H 0.06784 0.80022 0.46378 0.0
H620 H 0.10997 0.81799 0.41588 0.0
H621 H 0.2209 0.83268 0.46423 0.0
H622 H 0.17886 0.81313 0.51239 0.0
H623 H 0.23756 0.80031 0.411 0.0
H624 H 0.16755 0.91688 0.44332 0.0
H625 H 0.10525 0.94961 0.46035 0.0
H626 H 0.05156 0.92661 0.37655 0.0
H627 H 0.11306 0.89282 0.35927 0.0
C628 C 0.27828 0.94821 0.2839 0.0
C629 C 0.27539 0.92164 0.26024 0.0
C630 C 0.26986 0.93227 0.31407 0.0
C631 C 0.25806 0.88944 0.32118 0.0
C632 C 0.25927 0.86231 0.29774 0.0
C633 C 0.26812 0.87832 0.26743 0.0
C634 C 0.23812 0.87461 0.35191 0.0
C635 C 0.2035 0.89383 0.36263 0.0
C636 C 0.25083 0.84073 0.36972 0.0
C637 C 0.28796 0.82009 0.36014 0.0
C638 C 0.28478 0.77657 0.35855 0.0
C639 C 0.31972 0.75712 0.3494 0.0
C640 C 0.35809 0.78085 0.3419 0.0
C641 C 0.36163 0.82408 0.34362 0.0
C642 C 0.32679 0.84368 0.35277 0.0
C643 C 0.1013 0.80658 0.46422 0.0
C644 C 0.12 0.80572 0.4919 0.0
C645 C 0.12536 0.8169 0.4368 0.0
C646 C 0.16852 0.8278 0.43646 0.0
C647 C 0.18764 0.82466 0.46392 0.0
C648 C 0.16358 0.81351 0.49143 0.0
C649 C 0.19291 0.84523 0.40779 0.0
C650 C 0.22805 0.82648 0.39745 0.0
C651 C 0.18093 0.87987 0.39028 0.0
C652 C 0.14478 0.90193 0.40013 0.0
C653 C 0.1424 0.91866 0.42856 0.0
C654 C 0.10719 0.93732 0.43829 0.0
C655 C 0.07441 0.93998 0.41961 0.0
C656 C 0.07691 0.92435 0.39104 0.0
C657 C 0.11194 0.90544 0.38127 0.0
H658 H 0.04717 0.9544 0.42721 0.0
H659 H 0.3851 0.76573 0.33481 0.0
H660 H 0.12356 0.06043 0.83944 0.0
H661 H 0.13589 0.03716 0.89132 0.0
H662 H 0.04597 0.11521 0.92571 0.0
H663 H 0.03173 0.13704 0.87373 0.0
H664 H 0.11975 0.12375 0.95442 0.0
H665 H 0.02164 0.0134 0.93032 0.0
H666 H -0.00752 0.95836 0.89973 0.0
H667 H 0.09929 0.89186 0.91117 0.0
H668 H 0.12987 0.94722 0.94093 0.0
H669 H 0.13323 0.04521 0.1079 0.0
H670 H 0.10673 0.06587 0.05924 0.0
H671 H 0.17683 0.97701 1.01572 0.0
H672 H 0.20263 0.95577 0.06403 0.0
H673 H 0.1064 0.97458 0.99289 0.0
H674 H 0.20788 0.08782 1.01119 0.0
H675 H 0.2395 0.14366 0.04009 0.0
H676 H 0.12746 0.20424 0.03897 0.0
H677 H 0.095 0.14845 1.01035 0.0
C678 C 0.10553 0.07193 0.85792 0.0
C679 C 0.07626 0.10038 0.85204 0.0
C680 C 0.11293 0.05881 0.88772 0.0
C681 C 0.09168 0.07413 0.91261 0.0
C682 C 0.06276 0.10286 0.90696 0.0
C683 C 0.05486 0.11554 0.8771 0.0
C684 C 0.10055 0.06081 0.94437 0.0
C685 C 0.11608 0.09117 0.96303 0.0
C686 C 0.09664 0.01823 0.95553 0.0
C687 C 0.07825 0.98472 0.9377 0.0
C688 C 0.03915 0.98727 0.92608 0.0
C689 C 0.02231 0.95597 0.90893 0.0
C690 C 0.04395 0.9216 0.90359 0.0
C691 C 0.08254 0.9185 0.91534 0.0
C692 C 0.0997 0.94989 0.9323 0.0
C693 C 0.1429 0.02995 0.08801 0.0
C694 C 0.17048 -0.00097 0.0901 0.0
C695 C 0.12791 0.04201 0.06002 0.0
C696 C 0.14021 0.02363 0.03336 0.0
C697 C 0.16673 0.99191 0.03569 0.0
C698 C 0.18165 0.97984 0.06354 0.0
C699 C 0.1262 0.0375 1.00294 0.0
C700 C 0.10974 0.00721 0.98445 0.0
C701 C 0.1294 0.08014 0.99185 0.0
C702 C 0.14889 0.11377 1.00892 0.0
C703 C 0.18991 0.11292 1.01728 0.0
C704 C 0.20799 0.14457 0.03359 0.0
C705 C 0.18546 0.17741 0.04144 0.0
C706 C 0.14484 0.17874 0.03292 0.0
C707 C 0.1266 0.14714 1.01664 0.0
H708 H 0.19951 0.20189 0.05406 0.0
H709 H 0.03081 0.89739 0.89033 0.0
H710 H 0.71691 0.18674 0.26855 0.0
H711 H 0.73117 0.20309 0.3201 0.0
H712 H 0.86231 0.22744 0.29214 0.0
H713 H 0.84826 0.21058 0.24072 0.0
H714 H 0.85238 0.18336 0.34439 0.0
H715 H 0.79761 0.30741 0.30473 0.0
H716 H 0.74601 0.34731 0.28065 0.0
H717 H 0.65405 0.30221 0.35331 0.0
H718 H 0.70497 0.26159 0.37763 0.0
H719 H 0.91427 0.29446 0.47079 0.0
H720 H 0.89792 0.27792 0.41971 0.0
H721 H 0.77235 0.23203 0.45354 0.0
H722 H 0.78848 0.24791 0.50484 0.0
H723 H 0.77854 0.28628 0.39916 0.0
H724 H 0.82998 0.16059 0.43737 0.0
H725 H 0.8771 0.11313 0.45918 0.0
H726 H 0.97312 0.15907 0.38955 0.0
H727 H 0.92644 0.20671 0.3672 0.0
C728 C 0.74873 0.19606 0.2733 0.0
C729 C 0.7814 0.19757 0.25041 0.0
C730 C 0.75688 0.20542 0.30283 0.0
C731 C 0.79781 0.21718 0.31007 0.0
C732 C 0.83046 0.21852 0.28725 0.0
C733 C 0.82238 0.20884 0.25781 0.0
C734 C 0.80683 0.22737 0.34146 0.0
C735 C 0.83674 0.20646 0.3561 0.0
C736 C 0.78553 0.25649 0.3573 0.0
C737 C 0.755 0.28118 0.34285 0.0
C738 C 0.76631 0.3058 0.31547 0.0
C739 C 0.7372 0.32857 0.30179 0.0
C740 C 0.69675 0.32722 0.31541 0.0
C741 C 0.68538 0.30319 0.34278 0.0
C742 C 0.71436 0.28033 0.35653 0.0
C743 C 0.88302 0.2812 0.46745 0.0
C744 C 0.85296 0.27198 0.49224 0.0
C745 C 0.87386 0.27138 0.4382 0.0
C746 C 0.8341 0.25312 0.43286 0.0
C747 C 0.80341 0.24564 0.45718 0.0
C748 C 0.81278 0.25464 0.48656 0.0
C749 C 0.82439 0.24263 0.40179 0.0
C750 C 0.79437 0.26346 0.38728 0.0
C751 C 0.84554 0.21342 0.38606 0.0
C752 C 0.87486 0.18751 0.40081 0.0
C753 C 0.86132 0.16099 0.42694 0.0
C754 C 0.88779 0.13373 0.4392 0.0
C755 C 0.92795 0.13289 0.42562 0.0
C756 C 0.9419 0.1596 0.39993 0.0
C757 C 0.91543 0.18667 0.38743 0.0
H758 H 0.94836 0.11172 0.43514 0.0
H759 H 0.67425 0.34485 0.30477 0.0
loop_
_geom_bond_atom_site_label_1
_geom_bond_atom_site_label_2
_geom_bond_distance
_geom_bond_site_symmetry_2
_ccdc_geom_bond_type
Pr0 C2 2.880 . S
Pr0 O20 2.562 . S
Pr0 O21 2.490 . S
Pr0 O22 2.695 . S
Pr0 O23 2.512 . S
Pr0 O25 2.437 . S
Pr0 O28 2.436 . S
Pr0 O30 2.438 . S
Pr1 C11 2.880 . S
Pr1 O22 2.436 1_565 S
Pr1 O24 2.438 . S
Pr1 O26 2.562 . S
Pr1 O27 2.490 . S
Pr1 O28 2.695 1_565 S
Pr1 O29 2.512 . S
Pr1 O31 2.437 1_565 S
C2 Pr0 2.880 . S
C2 C3 1.491 . S
C2 O20 1.254 . S
C2 O21 1.225 . S
C3 C2 1.491 . S
C3 C4 1.392 . S
C3 C8 1.356 . S
C4 C3 1.392 . S
C4 C5 1.368 . S
C4 H32 0.929 . S
C5 C4 1.368 . S
C5 C6 1.386 . S
C5 H33 0.929 . S
C6 C5 1.386 . S
C6 C7 1.373 . S
C7 C6 1.373 . S
C7 C8 1.409 . S
C7 H34 0.931 . S
C8 C3 1.356 . S
C8 C7 1.409 . S
C8 H35 0.930 . S
C9 O22 1.270 . S
C9 O23 1.248 . S
C10 O24 1.267 . S
C10 O25 1.278 1_565 S
C11 Pr1 2.880 . S
C11 C12 1.491 . S
C11 O26 1.254 . S
C11 O27 1.225 . S
C12 C11 1.491 . S
C12 C13 1.392 . S
C12 C17 1.356 . S
C13 C12 1.392 . S
C13 C14 1.368 1_554 S
C13 H36 0.929 . S
C14 C13 1.368 1_556 S
C14 C15 1.386 . S
C14 H37 0.929 . S
C15 C14 1.386 . S
C15 C16 1.373 . S
C16 C15 1.373 . S
C16 C17 1.409 1_556 S
C16 H38 0.931 . S
C17 C12 1.356 . S
C17 C16 1.409 1_554 S
C17 H39 0.930 . S
C18 O28 1.270 . S
C18 O29 1.248 1_545 S
C19 O30 1.267 . S
C19 O31 1.278 . S
O20 Pr0 2.562 . S
O20 C2 1.254 . S
O21 Pr0 2.490 . S
O21 C2 1.225 . S
O22 Pr0 2.695 . S
O22 Pr1 2.436 1_545 S
O22 C9 1.270 . S
O23 Pr0 2.512 . S
O23 C9 1.248 . S
O24 Pr1 2.438 . S
O24 C10 1.267 . S
O25 Pr0 2.437 . S
O25 C10 1.278 1_545 S
O26 Pr1 2.562 . S
O26 C11 1.254 . S
O27 Pr1 2.490 . S
O27 C11 1.225 . S
O28 Pr0 2.436 . S
O28 Pr1 2.695 1_545 S
O28 C18 1.270 . S
O29 Pr1 2.512 . S
O29 C18 1.248 1_565 S
O30 Pr0 2.438 . S
O30 C19 1.267 . S
O31 Pr1 2.437 1_545 S
O31 C19 1.278 . S
H32 C4 0.929 . S
H33 C5 0.929 . S
H34 C7 0.931 . S
H35 C8 0.930 . S
H36 C13 0.929 . S
H37 C14 0.929 . S
H38 C16 0.931 . S
H39 C17 0.930 . S
Pr40 C42 2.880 . S
Pr40 O60 2.562 . S
Pr40 O61 2.490 . S
Pr40 O62 2.695 1_655 S
Pr40 O63 2.512 . S
Pr40 O65 2.437 1_655 S
Pr40 O68 2.436 1_655 S
Pr40 O70 2.438 . S
Pr41 C51 2.880 . S
Pr41 O62 2.436 . S
Pr41 O64 2.438 . S
Pr41 O66 2.562 . S
Pr41 O67 2.490 . S
Pr41 O68 2.695 . S
Pr41 O69 2.512 . S
Pr41 O71 2.437 . S
C42 Pr40 2.880 . S
C42 C43 1.491 . S
C42 O60 1.254 . S
C42 O61 1.225 . S
C43 C42 1.491 . S
C43 C44 1.392 . S
C43 C48 1.356 . S
C44 C43 1.392 . S
C44 C45 1.368 . S
C44 H72 0.929 . S
C45 C44 1.368 . S
C45 C46 1.386 . S
C45 H73 0.929 . S
C46 C45 1.386 . S
C46 C47 1.373 . S
C47 C46 1.373 . S
C47 C48 1.409 . S
C47 H74 0.931 . S
C48 C43 1.356 . S
C48 C47 1.409 . S
C48 H75 0.930 . S
C49 O62 1.270 . S
C49 O63 1.248 1_455 S
C50 O64 1.267 . S
C50 O65 1.278 . S
C51 Pr41 2.880 . S
C51 C52 1.491 . S
C51 O66 1.254 . S
C51 O67 1.225 . S
C52 C51 1.491 . S
C52 C53 1.392 . S
C52 C57 1.356 . S
C53 C52 1.392 . S
C53 C54 1.368 . S
C53 H76 0.929 . S
C54 C53 1.368 . S
C54 C55 1.386 . S
C54 H77 0.929 . S
C55 C54 1.386 . S
C55 C56 1.373 . S
C56 C55 1.373 . S
C56 C57 1.409 . S
C56 H78 0.931 . S
C57 C52 1.356 . S
C57 C56 1.409 . S
C57 H79 0.930 . S
C58 O68 1.270 . S
C58 O69 1.248 . S
C59 O70 1.267 . S
C59 O71 1.278 1_655 S
O60 Pr40 2.562 . S
O60 C42 1.254 . S
O61 Pr40 2.490 . S
O61 C42 1.225 . S
O62 Pr40 2.695 1_455 S
O62 Pr41 2.436 . S
O62 C49 1.270 . S
O63 Pr40 2.512 . S
O63 C49 1.248 1_655 S
O64 Pr41 2.438 . S
O64 C50 1.267 . S
O65 Pr40 2.437 1_455 S
O65 C50 1.278 . S
O66 Pr41 2.562 . S
O66 C51 1.254 . S
O67 Pr41 2.490 . S
O67 C51 1.225 . S
O68 Pr40 2.436 1_455 S
O68 Pr41 2.695 . S
O68 C58 1.270 . S
O69 Pr41 2.512 . S
O69 C58 1.248 . S
O70 Pr40 2.438 . S
O70 C59 1.267 . S
O71 Pr41 2.437 . S
O71 C59 1.278 1_455 S
H72 C44 0.929 . S
H73 C45 0.929 . S
H74 C47 0.931 . S
H75 C48 0.930 . S
H76 C53 0.929 . S
H77 C54 0.929 . S
H78 C56 0.931 . S
H79 C57 0.930 . S
Pr80 C82 2.880 . S
Pr80 O100 2.562 . S
Pr80 O101 2.490 . S
Pr80 O102 2.695 . S
Pr80 O103 2.512 . S
Pr80 O105 2.437 . S
Pr80 O108 2.436 . S
Pr80 O110 2.438 . S
Pr81 C91 2.880 1_554 S
Pr81 O102 2.436 1_565 S
Pr81 O104 2.438 . S
Pr81 O106 2.562 . S
Pr81 O107 2.490 . S
Pr81 O108 2.695 1_565 S
Pr81 O109 2.512 . S
Pr81 O111 2.437 1_565 S
C82 Pr80 2.880 . S
C82 C83 1.491 . S
C82 O100 1.254 . S
C82 O101 1.225 . S
C83 C82 1.491 . S
C83 C84 1.392 . S
C83 C88 1.356 . S
C84 C83 1.392 . S
C84 C85 1.368 . S
C84 H112 0.929 . S
C85 C84 1.368 . S
C85 C86 1.386 . S
C85 H113 0.929 . S
C86 C85 1.386 . S
C86 C87 1.373 . S
C87 C86 1.373 . S
C87 C88 1.409 . S
C87 H114 0.931 . S
C88 C83 1.356 . S
C88 C87 1.409 . S
C88 H115 0.930 . S
C89 O102 1.270 . S
C89 O103 1.248 . S
C90 O104 1.267 . S
C90 O105 1.278 1_565 S
C91 Pr81 2.880 1_556 S
C91 C92 1.491 . S
C91 O106 1.254 1_556 S
C91 O107 1.225 1_556 S
C92 C91 1.491 . S
C92 C93 1.392 . S
C92 C97 1.356 . S
C93 C92 1.392 . S
C93 C94 1.368 . S
C93 H116 0.929 . S
C94 C93 1.368 . S
C94 C95 1.386 . S
C94 H117 0.929 . S
C95 C94 1.386 . S
C95 C96 1.373 . S
C96 C95 1.373 . S
C96 C97 1.409 . S
C96 H118 0.931 . S
C97 C92 1.356 . S
C97 C96 1.409 . S
C97 H119 0.930 . S
C98 O108 1.270 1_565 S
C98 O109 1.248 . S
C99 O110 1.267 . S
C99 O111 1.278 . S
O100 Pr80 2.562 . S
O100 C82 1.254 . S
O101 Pr80 2.490 . S
O101 C82 1.225 . S
O102 Pr80 2.695 . S
O102 Pr81 2.436 1_545 S
O102 C89 1.270 . S
O103 Pr80 2.512 . S
O103 C89 1.248 . S
O104 Pr81 2.438 . S
O104 C90 1.267 . S
O105 Pr80 2.437 . S
O105 C90 1.278 1_545 S
O106 Pr81 2.562 . S
O106 C91 1.254 1_554 S
O107 Pr81 2.490 . S
O107 C91 1.225 1_554 S
O108 Pr80 2.436 . S
O108 Pr81 2.695 1_545 S
O108 C98 1.270 1_545 S
O109 Pr81 2.512 . S
O109 C98 1.248 . S
O110 Pr80 2.438 . S
O110 C99 1.267 . S
O111 Pr81 2.437 1_545 S
O111 C99 1.278 . S
H112 C84 0.929 . S
H113 C85 0.929 . S
H114 C87 0.931 . S
H115 C88 0.930 . S
H116 C93 0.929 . S
H117 C94 0.929 . S
H118 C96 0.931 . S
H119 C97 0.930 . S
Pr120 C122 2.880 . S
Pr120 O140 2.562 . S
Pr120 O141 2.490 . S
Pr120 O142 2.695 1_655 S
Pr120 O143 2.512 . S
Pr120 O145 2.437 1_655 S
Pr120 O148 2.436 1_655 S
Pr120 O150 2.438 . S
Pr121 C131 2.880 . S
Pr121 O142 2.436 . S
Pr121 O144 2.438 . S
Pr121 O146 2.562 . S
Pr121 O147 2.490 . S
Pr121 O148 2.695 . S
Pr121 O149 2.512 . S
Pr121 O151 2.452 . S
C122 Pr120 2.880 . S
C122 C123 1.491 . S
C122 O140 1.254 . S
C122 O141 1.225 . S
C123 C122 1.491 . S
C123 C124 1.392 . S
C123 C128 1.356 . S
C124 C123 1.392 . S
C124 C125 1.368 . S
C124 H152 0.929 . S
C125 C124 1.368 . S
C125 C126 1.386 . S
C125 H153 0.929 . S
C126 C125 1.386 . S
C126 C127 1.373 . S
C127 C126 1.373 . S
C127 C128 1.409 . S
C127 H154 0.931 . S
C128 C123 1.356 . S
C128 C127 1.409 . S
C128 H155 0.930 . S
C129 O142 1.270 1_655 S
C129 O143 1.248 . S
C130 O144 1.267 . S
C130 O145 1.278 . S
C131 Pr121 2.880 . S
C131 C132 1.491 . S
C131 O146 1.254 . S
C131 O147 1.225 . S
C132 C131 1.491 . S
C132 C133 1.392 . S
C132 C137 1.356 . S
C133 C132 1.392 . S
C133 C134 1.368 . S
C133 H156 0.929 . S
C134 C133 1.368 . S
C134 C135 1.386 . S
C134 H157 0.929 . S
C135 C134 1.386 . S
C135 C136 1.373 . S
C136 C135 1.373 . S
C136 C137 1.409 . S
C136 H158 0.931 . S
C137 C132 1.356 . S
C137 C136 1.409 . S
C137 H159 0.930 . S
C138 O148 1.270 . S
C138 O149 1.248 . S
C139 O150 1.267 . S
C139 O151 1.260 1_655 S
O140 Pr120 2.562 . S
O140 C122 1.254 . S
O141 Pr120 2.490 . S
O141 C122 1.225 . S
O142 Pr120 2.695 1_455 S
O142 Pr121 2.436 . S
O142 C129 1.270 1_455 S
O143 Pr120 2.512 . S
O143 C129 1.248 . S
O144 Pr121 2.438 . S
O144 C130 1.267 . S
O145 Pr120 2.437 1_455 S
O145 C130 1.278 . S
O146 Pr121 2.562 . S
O146 C131 1.254 . S
O147 Pr121 2.490 . S
O147 C131 1.225 . S
O148 Pr120 2.436 1_455 S
O148 Pr121 2.695 . S
O148 C138 1.270 . S
O149 Pr121 2.512 . S
O149 C138 1.248 . S
O150 Pr120 2.438 . S
O150 C139 1.267 . S
O151 Pr121 2.452 . S
O151 C139 1.260 1_455 S
H152 C124 0.929 . S
H153 C125 0.929 . S
H154 C127 0.931 . S
H155 C128 0.930 . S
H156 C133 0.929 . S
H157 C134 0.929 . S
H158 C136 0.931 . S
H159 C137 0.930 . S
H160 C178 0.951 . S
H161 C180 0.951 . S
H162 C182 0.950 . S
H163 C183 0.950 . S
H164 C185 0.950 . S
H165 C188 0.950 . S
H166 C189 0.950 . S
H167 C191 0.950 . S
H168 C192 0.950 . S
H169 C193 0.951 . S
H170 C195 0.951 . S
H171 C197 0.950 . S
H172 C198 0.950 . S
H173 C200 0.950 . S
H174 C203 0.950 . S
H175 C204 0.950 . S
H176 C206 0.950 1_655 S
H177 C207 0.945 1_655 S
C178 H160 0.951 . S
C178 C179 1.366 . S
C178 C180 1.388 . S
C179 C178 1.366 . S
C179 C183 1.385 . S
C180 H161 0.951 . S
C180 C178 1.388 . S
C180 C181 1.366 . S
C181 C180 1.366 . S
C181 C182 1.414 . S
C181 C184 1.499 . S
C182 H162 0.950 . S
C182 C181 1.414 . S
C182 C183 1.374 . S
C183 H163 0.950 . S
C183 C179 1.385 . S
C183 C182 1.374 . S
C184 C181 1.499 . S
C184 C185 1.373 . S
C184 C186 1.389 1_645 S
C185 H164 0.950 . S
C185 C184 1.373 . S
C185 C201 1.377 1_655 S
C186 C184 1.389 1_465 S
C186 C187 1.524 1_455 S
C186 C200 1.377 . S
C187 C186 1.524 1_655 S
C187 C188 1.398 . S
C187 C192 1.362 1_655 S
C188 H165 0.950 . S
C188 C187 1.398 . S
C188 C189 1.334 . S
C189 H166 0.950 . S
C189 C188 1.334 . S
C189 C190 1.287 . S
C190 C189 1.287 . S
C190 C191 1.524 1_655 S
C190 H209 0.913 . S
C191 H167 0.950 . S
C191 C190 1.524 1_455 S
C191 C192 1.415 . S
C192 H168 0.950 . S
C192 C187 1.362 1_455 S
C192 C191 1.415 . S
C193 H169 0.951 . S
C193 C194 1.366 . S
C193 C195 1.388 . S
C194 C193 1.366 . S
C194 C198 1.385 . S
C195 H170 0.951 . S
C195 C193 1.388 . S
C195 C196 1.366 . S
C196 C195 1.366 . S
C196 C197 1.414 . S
C196 C199 1.499 . S
C197 H171 0.950 . S
C197 C196 1.414 . S
C197 C198 1.374 . S
C198 H172 0.950 . S
C198 C194 1.385 . S
C198 C197 1.374 . S
C199 C196 1.499 . S
C199 C200 1.373 1_545 S
C199 C201 1.389 . S
C200 H173 0.950 . S
C200 C186 1.377 . S
C200 C199 1.373 1_565 S
C201 C185 1.377 1_455 S
C201 C199 1.389 . S
C201 C202 1.524 . S
C202 C201 1.524 . S
C202 C203 1.397 . S
C202 C207 1.368 . S
C203 H174 0.950 . S
C203 C202 1.397 . S
C203 C204 1.334 . S
C204 H175 0.950 . S
C204 C203 1.334 . S
C204 C205 1.287 . S
C205 C204 1.287 . S
C205 C206 1.524 . S
C205 H208 0.999 . S
C206 H176 0.950 1_455 S
C206 C205 1.524 . S
C206 C207 1.416 . S
C207 H177 0.945 1_455 S
C207 C202 1.368 . S
C207 C206 1.416 . S
H208 C205 0.999 . S
H209 C190 0.913 . S
H210 C228 0.951 1_655 S
H211 C230 0.950 . S
H212 C232 0.950 . S
H213 C233 0.950 . S
H214 C235 0.950 . S
H215 C238 0.950 . S
H216 C239 0.950 . S
H217 C241 0.950 . S
H218 C242 0.950 . S
H219 C243 0.951 . S
H220 C245 0.951 . S
H221 C247 0.950 . S
H222 C248 0.950 . S
H223 C250 0.950 . S
H224 C253 0.950 . S
H225 C254 0.950 . S
H226 C256 0.950 . S
H227 C257 0.950 . S
C228 H210 0.951 1_455 S
C228 C229 1.366 . S
C228 C230 1.388 . S
C229 C228 1.366 . S
C229 C233 1.385 . S
C230 H211 0.950 . S
C230 C228 1.388 . S
C230 C231 1.366 . S
C231 C230 1.366 . S
C231 C232 1.414 . S
C231 C234 1.499 . S
C232 H212 0.950 . S
C232 C231 1.414 . S
C232 C233 1.374 . S
C233 H213 0.950 . S
C233 C229 1.385 . S
C233 C232 1.374 . S
C234 C231 1.499 . S
C234 C235 1.373 1_455 S
C234 C236 1.389 1_565 S
C235 H214 0.950 . S
C235 C234 1.373 1_655 S
C235 C251 1.377 1_565 S
C236 C234 1.389 1_545 S
C236 C237 1.524 . S
C236 C250 1.377 . S
C237 C236 1.524 . S
C237 C238 1.397 1_545 S
C237 C242 1.363 . S
C238 H215 0.950 . S
C238 C237 1.397 1_565 S
C238 C239 1.334 . S
C239 H216 0.950 . S
C239 C238 1.334 . S
C239 C240 1.287 1_565 S
C240 C239 1.287 1_545 S
C240 C241 1.524 . S
C240 H259 0.913 . S
C241 H217 0.950 . S
C241 C240 1.524 . S
C241 C242 1.415 . S
C242 H218 0.950 . S
C242 C237 1.363 . S
C242 C241 1.415 . S
C243 H219 0.951 . S
C243 C244 1.366 . S
C243 C245 1.388 . S
C244 C243 1.366 . S
C244 C248 1.385 . S
C245 H220 0.951 . S
C245 C243 1.388 . S
C245 C246 1.366 . S
C246 C245 1.366 . S
C246 C247 1.414 . S
C246 C249 1.499 . S
C247 H221 0.950 . S
C247 C246 1.414 . S
C247 C248 1.374 . S
C248 H222 0.950 . S
C248 C244 1.385 . S
C248 C247 1.374 . S
C249 C246 1.499 . S
C249 C250 1.373 . S
C249 C251 1.389 1_455 S
C250 H223 0.950 . S
C250 C236 1.377 . S
C250 C249 1.373 . S
C251 C235 1.377 1_545 S
C251 C249 1.389 1_655 S
C251 C252 1.524 . S
C252 C251 1.524 . S
C252 C253 1.397 . S
C252 C257 1.363 1_545 S
C253 H224 0.950 . S
C253 C252 1.397 . S
C253 C254 1.334 . S
C254 H225 0.950 . S
C254 C253 1.334 . S
C254 C255 1.287 . S
C255 C254 1.287 . S
C255 C256 1.524 1_545 S
C255 H258 0.999 . S
C256 H226 0.950 . S
C256 C255 1.524 1_565 S
C256 C257 1.415 . S
C257 H227 0.950 . S
C257 C252 1.363 1_565 S
C257 C256 1.415 . S
H258 C255 0.999 . S
H259 C240 0.913 . S
H260 C278 0.951 . S
H261 C280 0.951 . S
H262 C282 0.950 . S
H263 C283 0.950 . S
H264 C285 0.950 . S
H265 C288 0.950 . S
H266 C289 0.950 . S
H267 C291 0.950 . S
H268 C292 0.950 . S
H269 C293 0.951 . S
H270 C295 0.951 . S
H271 C297 0.950 . S
H272 C298 0.950 . S
H273 C300 0.950 . S
H274 C303 0.950 . S
H275 C304 0.950 . S
H276 C306 0.932 1_556 S
H277 C307 0.950 . S
C278 H260 0.951 . S
C278 C279 1.366 . S
C278 C280 1.388 . S
C279 C278 1.366 . S
C279 C283 1.385 1_545 S
C280 H261 0.951 . S
C280 C278 1.388 . S
C280 C281 1.366 . S
C281 C280 1.366 . S
C281 C282 1.414 1_545 S
C281 C284 1.499 . S
C282 H262 0.950 . S
C282 C281 1.414 1_565 S
C282 C283 1.374 . S
C283 H263 0.950 . S
C283 C279 1.385 1_565 S
C283 C282 1.374 . S
C284 C281 1.499 . S
C284 C285 1.373 . S
C284 C286 1.389 . S
C285 H264 0.950 . S
C285 C284 1.373 . S
C285 C301 1.377 . S
C286 C284 1.389 . S
C286 C287 1.524 . S
C286 C300 1.377 . S
C287 C286 1.524 . S
C287 C288 1.397 1_545 S
C287 C292 1.363 . S
C288 H265 0.950 . S
C288 C287 1.397 1_565 S
C288 C289 1.334 . S
C289 H266 0.950 . S
C289 C288 1.334 . S
C289 C290 1.287 1_565 S
C290 C289 1.287 1_545 S
C290 C291 1.524 . S
C290 H309 0.913 . S
C291 H267 0.950 . S
C291 C290 1.524 . S
C291 C292 1.415 . S
C292 H268 0.950 . S
C292 C287 1.363 . S
C292 C291 1.415 . S
C293 H269 0.951 . S
C293 C294 1.366 1_565 S
C293 C295 1.388 . S
C294 C293 1.366 1_545 S
C294 C298 1.385 . S
C295 H270 0.951 . S
C295 C293 1.388 . S
C295 C296 1.366 1_565 S
C296 C295 1.366 1_545 S
C296 C297 1.414 . S
C296 C299 1.499 . S
C297 H271 0.950 . S
C297 C296 1.414 . S
C297 C298 1.374 . S
C298 H272 0.950 . S
C298 C294 1.385 . S
C298 C297 1.374 . S
C299 C296 1.499 . S
C299 C300 1.373 . S
C299 C301 1.389 . S
C300 H273 0.950 . S
C300 C286 1.377 . S
C300 C299 1.373 . S
C301 C285 1.377 . S
C301 C299 1.389 . S
C301 C302 1.524 . S
C302 C301 1.524 . S
C302 C303 1.397 . S
C302 C307 1.363 1_545 S
C303 H274 0.950 . S
C303 C302 1.397 . S
C303 C304 1.334 . S
C304 H275 0.950 . S
C304 C303 1.334 . S
C304 C305 1.287 . S
C305 C304 1.287 . S
C305 C306 1.524 1_545 S
C305 H308 0.999 1_554 S
C306 H276 0.932 1_554 S
C306 C305 1.524 1_565 S
C306 C307 1.415 . S
C307 H277 0.950 . S
C307 C302 1.363 1_565 S
C307 C306 1.415 . S
H308 C305 0.999 1_556 S
H309 C290 0.913 . S
H310 C328 0.951 . S
H311 C330 0.951 . S
H312 C332 0.950 . S
H313 C333 0.950 . S
H314 C335 0.950 . S
H315 C338 0.950 . S
H316 C339 0.950 . S
H317 C341 0.950 . S
H318 C342 0.950 . S
H319 C343 0.951 . S
H320 C345 0.951 . S
H321 C347 0.950 . S
H322 C348 0.950 . S
H323 C350 0.950 . S
H324 C353 0.950 . S
H325 C354 0.950 . S
H326 C356 0.950 . S
H327 C357 0.950 . S
C328 H310 0.951 . S
C328 C329 1.366 1_655 S
C328 C330 1.388 . S
C329 C328 1.366 1_455 S
C329 C333 1.385 . S
C330 H311 0.951 . S
C330 C328 1.388 . S
C330 C331 1.366 1_655 S
C331 C330 1.366 1_455 S
C331 C332 1.414 . S
C331 C334 1.499 . S
C332 H312 0.950 . S
C332 C331 1.414 . S
C332 C333 1.374 . S
C333 H313 0.950 . S
C333 C329 1.385 . S
C333 C332 1.374 . S
C334 C331 1.499 . S
C334 C335 1.373 . S
C334 C336 1.389 1_455 S
C335 H314 0.950 . S
C335 C334 1.373 . S
C335 C351 1.377 . S
C336 C334 1.389 1_655 S
C336 C337 1.524 . S
C336 C350 1.377 . S
C337 C336 1.524 . S
C337 C338 1.397 . S
C337 C342 1.363 . S
C338 H315 0.950 . S
C338 C337 1.397 . S
C338 C339 1.334 . S
C339 H316 0.950 . S
C339 C338 1.334 . S
C339 C340 1.287 . S
C340 C339 1.287 . S
C340 C341 1.524 . S
C340 H359 0.913 . S
C341 H317 0.950 . S
C341 C340 1.524 . S
C341 C342 1.415 . S
C342 H318 0.950 . S
C342 C337 1.363 . S
C342 C341 1.415 . S
C343 H319 0.951 . S
C343 C344 1.366 . S
C343 C345 1.388 . S
C344 C343 1.366 . S
C344 C348 1.385 1_455 S
C345 H320 0.951 . S
C345 C343 1.388 . S
C345 C346 1.366 . S
C346 C345 1.366 . S
C346 C347 1.414 1_455 S
C346 C349 1.499 . S
C347 H321 0.950 . S
C347 C346 1.414 1_655 S
C347 C348 1.374 . S
C348 H322 0.950 . S
C348 C344 1.385 1_655 S
C348 C347 1.374 . S
C349 C346 1.499 . S
C349 C350 1.373 1_455 S
C349 C351 1.389 . S
C350 H323 0.950 . S
C350 C336 1.377 . S
C350 C349 1.373 1_655 S
C351 C335 1.377 . S
C351 C349 1.389 . S
C351 C352 1.524 . S
C352 C351 1.524 . S
C352 C353 1.397 . S
C352 C357 1.363 . S
C353 H324 0.950 . S
C353 C352 1.397 . S
C353 C354 1.334 . S
C354 H325 0.950 . S
C354 C353 1.334 . S
C354 C355 1.287 . S
C355 C354 1.287 . S
C355 C356 1.524 . S
C355 H358 0.999 . S
C356 H326 0.950 . S
C356 C355 1.524 . S
C356 C357 1.415 . S
C357 H327 0.950 . S
C357 C352 1.363 . S
C357 C356 1.415 . S
H358 C355 0.999 . S
H359 C340 0.913 . S
H360 C378 0.951 . S
H361 C380 0.951 . S
H362 C382 0.950 . S
H363 C383 0.950 . S
H364 C385 0.950 . S
H365 C388 0.950 . S
H366 C389 0.950 . S
H367 C391 0.950 . S
H368 C392 0.950 . S
H369 C393 0.951 . S
H370 C395 0.951 . S
H371 C397 0.950 . S
H372 C398 0.950 . S
H373 C400 0.950 . S
H374 C403 0.950 . S
H375 C404 0.950 . S
H376 C406 0.950 . S
H377 C407 0.950 . S
C378 H360 0.951 . S
C378 C379 1.366 . S
C378 C380 1.388 . S
C379 C378 1.366 . S
C379 C383 1.385 . S
C380 H361 0.951 . S
C380 C378 1.388 . S
C380 C381 1.366 . S
C381 C380 1.366 . S
C381 C382 1.414 . S
C381 C384 1.499 . S
C382 H362 0.950 . S
C382 C381 1.414 . S
C382 C383 1.374 . S
C383 H363 0.950 . S
C383 C379 1.385 . S
C383 C382 1.374 . S
C384 C381 1.499 . S
C384 C385 1.373 . S
C384 C386 1.389 . S
C385 H364 0.950 . S
C385 C384 1.373 . S
C385 C401 1.377 . S
C386 C384 1.389 . S
C386 C387 1.524 . S
C386 C400 1.377 . S
C387 C386 1.524 . S
C387 C388 1.397 . S
C387 C392 1.363 . S
C388 H365 0.950 . S
C388 C387 1.397 . S
C388 C389 1.334 . S
C389 H366 0.950 . S
C389 C388 1.334 . S
C389 C390 1.287 . S
C390 C389 1.287 . S
C390 C391 1.524 . S
C390 H409 0.913 . S
C391 H367 0.950 . S
C391 C390 1.524 . S
C391 C392 1.415 . S
C392 H368 0.950 . S
C392 C387 1.363 . S
C392 C391 1.415 . S
C393 H369 0.951 . S
C393 C394 1.366 . S
C393 C395 1.388 . S
C394 C393 1.366 . S
C394 C398 1.385 . S
C395 H370 0.951 . S
C395 C393 1.388 . S
C395 C396 1.366 . S
C396 C395 1.366 . S
C396 C397 1.414 . S
C396 C399 1.499 . S
C397 H371 0.950 . S
C397 C396 1.414 . S
C397 C398 1.374 . S
C398 H372 0.950 . S
C398 C394 1.385 . S
C398 C397 1.374 . S
C399 C396 1.499 . S
C399 C400 1.373 . S
C399 C401 1.389 . S
C400 H373 0.950 . S
C400 C386 1.377 . S
C400 C399 1.373 . S
C401 C385 1.377 . S
C401 C399 1.389 . S
C401 C402 1.524 . S
C402 C401 1.524 . S
C402 C403 1.397 . S
C402 C407 1.363 . S
C403 H374 0.950 . S
C403 C402 1.397 . S
C403 C404 1.334 . S
C404 H375 0.950 . S
C404 C403 1.334 . S
C404 C405 1.287 . S
C405 C404 1.287 . S
C405 C406 1.524 . S
C405 H408 0.999 . S
C406 H376 0.950 . S
C406 C405 1.524 . S
C406 C407 1.415 . S
C407 H377 0.950 . S
C407 C402 1.363 . S
C407 C406 1.415 . S
H408 C405 0.999 . S
H409 C390 0.913 . S
H410 C428 0.951 . S
H411 C430 0.951 . S
H412 C432 0.950 . S
H413 C433 0.950 . S
H414 C435 0.950 . S
H415 C438 0.950 . S
H416 C439 0.950 . S
H417 C441 0.950 . S
H418 C442 0.950 . S
H419 C443 0.951 . S
H420 C445 0.951 . S
H421 C447 0.950 . S
H422 C448 0.950 . S
H423 C450 0.950 . S
H424 C453 0.950 . S
H425 C454 0.950 . S
H426 C456 0.950 . S
H427 C457 0.950 . S
C428 H410 0.951 . S
C428 C429 1.366 . S
C428 C430 1.388 . S
C429 C428 1.366 . S
C429 C433 1.385 . S
C430 H411 0.951 . S
C430 C428 1.388 . S
C430 C431 1.366 . S
C431 C430 1.366 . S
C431 C432 1.414 . S
C431 C434 1.499 . S
C432 H412 0.950 . S
C432 C431 1.414 . S
C432 C433 1.374 . S
C433 H413 0.950 . S
C433 C429 1.385 . S
C433 C432 1.374 . S
C434 C431 1.499 . S
C434 C435 1.373 . S
C434 C436 1.389 . S
C435 H414 0.950 . S
C435 C434 1.373 . S
C435 C451 1.377 . S
C436 C434 1.389 . S
C436 C437 1.524 . S
C436 C450 1.377 . S
C437 C436 1.524 . S
C437 C438 1.397 . S
C437 C442 1.363 . S
C438 H415 0.950 . S
C438 C437 1.397 . S
C438 C439 1.334 . S
C439 H416 0.950 . S
C439 C438 1.334 . S
C439 C440 1.287 . S
C440 C439 1.287 . S
C440 C441 1.524 . S
C440 H459 0.913 . S
C441 H417 0.950 . S
C441 C440 1.524 . S
C441 C442 1.415 . S
C442 H418 0.950 . S
C442 C437 1.363 . S
C442 C441 1.415 . S
C443 H419 0.951 . S
C443 C444 1.366 . S
C443 C445 1.388 . S
C444 C443 1.366 . S
C444 C448 1.385 . S
C445 H420 0.951 . S
C445 C443 1.388 . S
C445 C446 1.366 . S
C446 C445 1.366 . S
C446 C447 1.414 . S
C446 C449 1.499 . S
C447 H421 0.950 . S
C447 C446 1.414 . S
C447 C448 1.374 . S
C448 H422 0.950 . S
C448 C444 1.385 . S
C448 C447 1.374 . S
C449 C446 1.499 . S
C449 C450 1.373 . S
C449 C451 1.389 . S
C450 H423 0.950 . S
C450 C436 1.377 . S
C450 C449 1.373 . S
C451 C435 1.377 . S
C451 C449 1.389 . S
C451 C452 1.524 . S
C452 C451 1.524 . S
C452 C453 1.397 . S
C452 C457 1.363 . S
C453 H424 0.950 . S
C453 C452 1.397 . S
C453 C454 1.334 . S
C454 H425 0.950 . S
C454 C453 1.334 . S
C454 C455 1.287 1_655 S
C455 C454 1.287 1_455 S
C455 C456 1.524 . S
C455 H458 0.999 . S
C456 H426 0.950 . S
C456 C455 1.524 . S
C456 C457 1.415 1_455 S
C457 H427 0.950 . S
C457 C452 1.363 . S
C457 C456 1.415 1_655 S
H458 C455 0.999 . S
H459 C440 0.913 . S
H460 C478 0.951 . S
H461 C480 0.951 . S
H462 C482 0.950 . S
H463 C483 0.950 . S
H464 C485 0.950 . S
H465 C488 0.950 . S
H466 C489 0.950 . S
H467 C491 0.950 . S
H468 C492 0.950 . S
H469 C493 0.951 . S
H470 C495 0.951 . S
H471 C497 0.950 . S
H472 C498 0.950 . S
H473 C500 0.950 . S
H474 C503 0.950 . S
H475 C504 0.950 . S
H476 C506 0.950 . S
H477 C507 0.950 . S
C478 H460 0.951 . S
C478 C479 1.366 . S
C478 C480 1.388 . S
C479 C478 1.366 . S
C479 C483 1.385 . S
C480 H461 0.951 . S
C480 C478 1.388 . S
C480 C481 1.366 . S
C481 C480 1.366 . S
C481 C482 1.414 . S
C481 C484 1.499 . S
C482 H462 0.950 . S
C482 C481 1.414 . S
C482 C483 1.374 . S
C483 H463 0.950 . S
C483 C479 1.385 . S
C483 C482 1.374 . S
C484 C481 1.499 . S
C484 C485 1.373 . S
C484 C486 1.389 . S
C485 H464 0.950 . S
C485 C484 1.373 . S
C485 C501 1.377 . S
C486 C484 1.389 . S
C486 C487 1.524 . S
C486 C500 1.377 . S
C487 C486 1.524 . S
C487 C488 1.397 . S
C487 C492 1.363 . S
C488 H465 0.950 . S
C488 C487 1.397 . S
C488 C489 1.334 . S
C489 H466 0.950 . S
C489 C488 1.334 . S
C489 C490 1.287 . S
C490 C489 1.287 . S
C490 C491 1.524 . S
C490 H509 0.913 . S
C491 H467 0.950 . S
C491 C490 1.524 . S
C491 C492 1.415 . S
C492 H468 0.950 . S
C492 C487 1.363 . S
C492 C491 1.415 . S
C493 H469 0.951 . S
C493 C494 1.366 . S
C493 C495 1.388 . S
C494 C493 1.366 . S
C494 C498 1.385 . S
C495 H470 0.951 . S
C495 C493 1.388 . S
C495 C496 1.366 . S
C496 C495 1.366 . S
C496 C497 1.414 . S
C496 C499 1.499 . S
C497 H471 0.950 . S
C497 C496 1.414 . S
C497 C498 1.374 . S
C498 H472 0.950 . S
C498 C494 1.385 . S
C498 C497 1.374 . S
C499 C496 1.499 . S
C499 C500 1.373 . S
C499 C501 1.389 . S
C500 H473 0.950 . S
C500 C486 1.377 . S
C500 C499 1.373 . S
C501 C485 1.377 . S
C501 C499 1.389 . S
C501 C502 1.524 . S
C502 C501 1.524 . S
C502 C503 1.397 . S
C502 C507 1.363 . S
C503 H474 0.950 . S
C503 C502 1.397 . S
C503 C504 1.337 1_565 S
C504 H475 0.950 . S
C504 C503 1.337 1_545 S
C504 C505 1.284 . S
C505 C504 1.284 . S
C505 C506 1.524 . S
C505 H508 0.999 . S
C506 H476 0.950 . S
C506 C505 1.524 . S
C506 C507 1.415 1_545 S
C507 H477 0.950 . S
C507 C502 1.363 . S
C507 C506 1.415 1_565 S
H508 C505 0.999 . S
H509 C490 0.913 . S
H510 C528 0.951 . S
H511 C530 0.951 . S
H512 C532 0.950 . S
H513 C533 0.950 . S
H514 C535 0.950 . S
H515 C538 0.950 . S
H516 C539 0.950 . S
H517 C541 0.950 . S
H518 C542 0.950 . S
H519 C543 0.951 . S
H520 C545 0.951 . S
H521 C547 0.950 . S
H522 C548 0.950 . S
H523 C550 0.950 . S
H524 C553 0.950 . S
H525 C554 0.950 . S
H526 C556 0.950 . S
H527 C557 0.950 . S
C528 H510 0.951 . S
C528 C529 1.366 . S
C528 C530 1.388 . S
C529 C528 1.366 . S
C529 C533 1.385 . S
C530 H511 0.951 . S
C530 C528 1.388 . S
C530 C531 1.366 . S
C531 C530 1.366 . S
C531 C532 1.414 . S
C531 C534 1.499 . S
C532 H512 0.950 . S
C532 C531 1.414 . S
C532 C533 1.374 . S
C533 H513 0.950 . S
C533 C529 1.385 . S
C533 C532 1.374 . S
C534 C531 1.499 . S
C534 C535 1.373 . S
C534 C536 1.389 . S
C535 H514 0.950 . S
C535 C534 1.373 . S
C535 C551 1.377 . S
C536 C534 1.389 . S
C536 C537 1.524 . S
C536 C550 1.377 . S
C537 C536 1.524 . S
C537 C538 1.397 . S
C537 C542 1.363 . S
C538 H515 0.950 . S
C538 C537 1.397 . S
C538 C539 1.334 . S
C539 H516 0.950 . S
C539 C538 1.334 . S
C539 C540 1.287 . S
C540 C539 1.287 . S
C540 C541 1.524 . S
C540 H559 0.913 . S
C541 H517 0.950 . S
C541 C540 1.524 . S
C541 C542 1.415 . S
C542 H518 0.950 . S
C542 C537 1.363 . S
C542 C541 1.415 . S
C543 H519 0.951 . S
C543 C544 1.366 . S
C543 C545 1.388 . S
C544 C543 1.366 . S
C544 C548 1.385 . S
C545 H520 0.951 . S
C545 C543 1.388 . S
C545 C546 1.366 . S
C546 C545 1.366 . S
C546 C547 1.414 . S
C546 C549 1.499 . S
C547 H521 0.950 . S
C547 C546 1.414 . S
C547 C548 1.374 . S
C548 H522 0.950 . S
C548 C544 1.385 . S
C548 C547 1.374 . S
C549 C546 1.499 . S
C549 C550 1.373 . S
C549 C551 1.389 . S
C550 H523 0.950 . S
C550 C536 1.377 . S
C550 C549 1.373 . S
C551 C535 1.377 . S
C551 C549 1.389 . S
C551 C552 1.524 . S
C552 C551 1.524 . S
C552 C553 1.397 . S
C552 C557 1.363 . S
C553 H524 0.950 . S
C553 C552 1.397 . S
C553 C554 1.334 . S
C554 H525 0.950 . S
C554 C553 1.334 . S
C554 C555 1.287 . S
C555 C554 1.287 . S
C555 C556 1.524 . S
C555 H558 0.999 . S
C556 H526 0.950 . S
C556 C555 1.524 . S
C556 C557 1.415 . S
C557 H527 0.950 . S
C557 C552 1.363 . S
C557 C556 1.415 . S
H558 C555 0.999 . S
H559 C540 0.913 . S
H560 C578 0.951 . S
H561 C580 0.951 . S
H562 C582 0.950 . S
H563 C583 0.950 . S
H564 C585 0.950 . S
H565 C588 0.950 . S
H566 C589 0.950 . S
H567 C591 0.950 1_455 S
H568 C592 0.950 . S
H569 C593 0.951 . S
H570 C595 0.951 . S
H571 C597 0.950 . S
H572 C598 0.950 . S
H573 C600 0.950 . S
H574 C603 0.950 . S
H575 C604 0.950 . S
H576 C606 0.950 . S
H577 C607 0.950 . S
C578 H560 0.951 . S
C578 C579 1.366 . S
C578 C580 1.388 . S
C579 C578 1.366 . S
C579 C583 1.385 . S
C580 H561 0.951 . S
C580 C578 1.388 . S
C580 C581 1.366 . S
C581 C580 1.366 . S
C581 C582 1.414 . S
C581 C584 1.499 . S
C582 H562 0.950 . S
C582 C581 1.414 . S
C582 C583 1.374 . S
C583 H563 0.950 . S
C583 C579 1.385 . S
C583 C582 1.374 . S
C584 C581 1.499 . S
C584 C585 1.373 . S
C584 C586 1.389 . S
C585 H564 0.950 . S
C585 C584 1.373 . S
C585 C601 1.377 . S
C586 C584 1.389 . S
C586 C587 1.524 . S
C586 C600 1.377 . S
C587 C586 1.524 . S
C587 C588 1.397 . S
C587 C592 1.363 . S
C588 H565 0.950 . S
C588 C587 1.397 . S
C588 C589 1.334 . S
C589 H566 0.950 . S
C589 C588 1.334 . S
C589 C590 1.287 . S
C590 C589 1.287 . S
C590 C591 1.524 . S
C590 H609 0.913 . S
C591 H567 0.950 1_655 S
C591 C590 1.524 . S
C591 C592 1.415 . S
C592 H568 0.950 . S
C592 C587 1.363 . S
C592 C591 1.415 . S
C593 H569 0.951 . S
C593 C594 1.366 . S
C593 C595 1.388 . S
C594 C593 1.366 . S
C594 C598 1.385 . S
C595 H570 0.951 . S
C595 C593 1.388 . S
C595 C596 1.366 . S
C596 C595 1.366 . S
C596 C597 1.414 . S
C596 C599 1.499 . S
C597 H571 0.950 . S
C597 C596 1.414 . S
C597 C598 1.374 . S
C598 H572 0.950 . S
C598 C594 1.385 . S
C598 C597 1.374 . S
C599 C596 1.499 . S
C599 C600 1.373 . S
C599 C601 1.389 . S
C600 H573 0.950 . S
C600 C586 1.377 . S
C600 C599 1.373 . S
C601 C585 1.377 . S
C601 C599 1.389 . S
C601 C602 1.524 . S
C602 C601 1.524 . S
C602 C603 1.397 . S
C602 C607 1.363 . S
C603 H574 0.950 . S
C603 C602 1.397 . S
C603 C604 1.334 . S
C604 H575 0.950 . S
C604 C603 1.334 . S
C604 C605 1.287 . S
C605 C604 1.287 . S
C605 C606 1.524 . S
C605 H608 0.999 . S
C606 H576 0.950 . S
C606 C605 1.524 . S
C606 C607 1.415 . S
C607 H577 0.950 . S
C607 C602 1.363 . S
C607 C606 1.415 . S
H608 C605 0.999 . S
H609 C590 0.913 . S
H610 C628 0.951 . S
H611 C630 0.951 . S
H612 C632 0.950 . S
H613 C633 0.950 . S
H614 C635 0.950 . S
H615 C638 0.950 . S
H616 C639 0.950 . S
H617 C641 0.950 . S
H618 C642 0.950 . S
H619 C643 0.951 . S
H620 C645 0.951 . S
H621 C647 0.950 . S
H622 C648 0.950 . S
H623 C650 0.950 . S
H624 C653 0.950 . S
H625 C654 0.950 1_655 S
H626 C656 0.950 . S
H627 C657 0.950 . S
C628 H610 0.951 . S
C628 C629 1.366 . S
C628 C630 1.388 . S
C629 C628 1.366 . S
C629 C633 1.385 . S
C630 H611 0.951 . S
C630 C628 1.388 . S
C630 C631 1.366 . S
C631 C630 1.366 . S
C631 C632 1.414 . S
C631 C634 1.499 . S
C632 H612 0.950 . S
C632 C631 1.414 . S
C632 C633 1.374 . S
C633 H613 0.950 . S
C633 C629 1.385 . S
C633 C632 1.374 . S
C634 C631 1.499 . S
C634 C635 1.373 . S
C634 C636 1.389 . S
C635 H614 0.950 . S
C635 C634 1.373 . S
C635 C651 1.377 . S
C636 C634 1.389 . S
C636 C637 1.524 . S
C636 C650 1.377 . S
C637 C636 1.524 . S
C637 C638 1.397 . S
C637 C642 1.363 . S
C638 H615 0.950 . S
C638 C637 1.397 . S
C638 C639 1.334 . S
C639 H616 0.950 . S
C639 C638 1.334 . S
C639 C640 1.287 . S
C640 C639 1.287 . S
C640 C641 1.524 . S
C640 H659 0.913 . S
C641 H617 0.950 . S
C641 C640 1.524 . S
C641 C642 1.415 . S
C642 H618 0.950 . S
C642 C637 1.363 . S
C642 C641 1.415 . S
C643 H619 0.951 . S
C643 C644 1.366 . S
C643 C645 1.388 . S
C644 C643 1.366 . S
C644 C648 1.385 . S
C645 H620 0.951 . S
C645 C643 1.388 . S
C645 C646 1.366 . S
C646 C645 1.366 . S
C646 C647 1.414 . S
C646 C649 1.499 . S
C647 H621 0.950 . S
C647 C646 1.414 . S
C647 C648 1.374 . S
C648 H622 0.950 . S
C648 C644 1.385 . S
C648 C647 1.374 . S
C649 C646 1.499 . S
C649 C650 1.373 . S
C649 C651 1.389 . S
C650 H623 0.950 . S
C650 C636 1.377 . S
C650 C649 1.373 . S
C651 C635 1.377 . S
C651 C649 1.389 . S
C651 C652 1.524 . S
C652 C651 1.524 . S
C652 C653 1.397 . S
C652 C657 1.363 . S
C653 H624 0.950 . S
C653 C652 1.397 . S
C653 C654 1.334 . S
C654 H625 0.950 1_455 S
C654 C653 1.334 . S
C654 C655 1.287 1_455 S
C655 C654 1.287 1_655 S
C655 C656 1.524 . S
C655 H658 0.999 . S
C656 H626 0.950 . S
C656 C655 1.524 . S
C656 C657 1.415 1_655 S
C657 H627 0.950 . S
C657 C652 1.363 . S
C657 C656 1.415 1_455 S
H658 C655 0.999 . S
H659 C640 0.913 . S
H660 C678 0.951 . S
H661 C680 0.951 . S
H662 C682 0.950 . S
H663 C683 0.950 . S
H664 C685 0.950 . S
H665 C688 0.950 . S
H666 C689 0.950 . S
H667 C691 0.950 1_565 S
H668 C692 0.950 . S
H669 C693 0.951 . S
H670 C695 0.951 . S
H671 C697 0.950 1_556 S
H672 C698 0.950 . S
H673 C700 0.950 . S
H674 C703 0.950 . S
H675 C704 0.961 . S
H676 C706 0.950 . S
H677 C707 0.950 . S
C678 H660 0.951 . S
C678 C679 1.366 . S
C678 C680 1.388 . S
C679 C678 1.366 . S
C679 C683 1.385 . S
C680 H661 0.951 . S
C680 C678 1.388 . S
C680 C681 1.366 . S
C681 C680 1.366 . S
C681 C682 1.414 . S
C681 C684 1.499 . S
C682 H662 0.950 . S
C682 C681 1.414 . S
C682 C683 1.374 . S
C683 H663 0.950 . S
C683 C679 1.385 . S
C683 C682 1.374 . S
C684 C681 1.499 . S
C684 C685 1.373 . S
C684 C686 1.389 . S
C685 H664 0.950 . S
C685 C684 1.373 . S
C685 C701 1.377 . S
C686 C684 1.389 . S
C686 C687 1.524 . S
C686 C700 1.377 . S
C687 C686 1.524 . S
C687 C688 1.397 . S
C687 C692 1.363 . S
C688 H665 0.950 . S
C688 C687 1.397 . S
C688 C689 1.334 . S
C689 H666 0.950 . S
C689 C688 1.334 . S
C689 C690 1.287 . S
C690 C689 1.287 . S
C690 C691 1.524 . S
C690 H709 0.913 . S
C691 H667 0.950 1_545 S
C691 C690 1.524 . S
C691 C692 1.415 . S
C692 H668 0.950 . S
C692 C687 1.363 . S
C692 C691 1.415 . S
C693 H669 0.951 . S
C693 C694 1.366 . S
C693 C695 1.388 . S
C694 C693 1.366 . S
C694 C698 1.385 . S
C695 H670 0.951 . S
C695 C693 1.388 . S
C695 C696 1.338 1_554 S
C696 C695 1.338 1_556 S
C696 C697 1.412 1_556 S
C696 C699 1.528 . S
C697 H671 0.950 1_554 S
C697 C696 1.412 1_554 S
C697 C698 1.374 . S
C698 H672 0.950 . S
C698 C694 1.385 . S
C698 C697 1.374 . S
C699 C696 1.528 . S
C699 C700 1.373 . S
C699 C701 1.389 . S
C700 H673 0.950 . S
C700 C686 1.377 . S
C700 C699 1.373 . S
C701 C685 1.377 . S
C701 C699 1.389 . S
C701 C702 1.524 . S
C702 C701 1.524 . S
C702 C703 1.397 . S
C702 C707 1.363 . S
C703 H674 0.950 . S
C703 C702 1.397 . S
C703 C704 1.334 . S
C704 H675 0.961 . S
C704 C703 1.334 . S
C704 C705 1.287 . S
C705 C704 1.287 . S
C705 C706 1.524 . S
C705 H708 0.999 1_556 S
C706 H676 0.950 . S
C706 C705 1.524 . S
C706 C707 1.415 . S
C707 H677 0.950 . S
C707 C702 1.363 . S
C707 C706 1.415 . S
H708 C705 0.999 1_554 S
H709 C690 0.913 . S
H710 C728 0.951 . S
H711 C730 0.951 . S
H712 C732 0.950 . S
H713 C733 0.950 . S
H714 C735 0.950 . S
H715 C738 0.950 . S
H716 C739 0.950 . S
H717 C741 0.950 . S
H718 C742 0.950 . S
H719 C743 0.951 . S
H720 C745 0.951 . S
H721 C747 0.950 . S
H722 C748 0.950 . S
H723 C750 0.950 . S
H724 C753 0.950 . S
H725 C754 0.950 . S
H726 C756 0.965 . S
H727 C757 0.950 . S
C728 H710 0.951 . S
C728 C729 1.366 . S
C728 C730 1.388 . S
C729 C728 1.366 . S
C729 C733 1.385 . S
C730 H711 0.951 . S
C730 C728 1.388 . S
C730 C731 1.366 . S
C731 C730 1.366 . S
C731 C732 1.414 . S
C731 C734 1.499 . S
C732 H712 0.950 . S
C732 C731 1.414 . S
C732 C733 1.374 . S
C733 H713 0.950 . S
C733 C729 1.385 . S
C733 C732 1.374 . S
C734 C731 1.499 . S
C734 C735 1.373 . S
C734 C736 1.389 . S
C735 H714 0.950 . S
C735 C734 1.373 . S
C735 C751 1.377 . S
C736 C734 1.389 . S
C736 C737 1.524 . S
C736 C750 1.377 . S
C737 C736 1.524 . S
C737 C738 1.397 . S
C737 C742 1.363 . S
C738 H715 0.950 . S
C738 C737 1.397 . S
C738 C739 1.334 . S
C739 H716 0.950 . S
C739 C738 1.334 . S
C739 C740 1.287 . S
C740 C739 1.287 . S
C740 C741 1.524 . S
C740 H759 0.913 . S
C741 H717 0.950 . S
C741 C740 1.524 . S
C741 C742 1.415 . S
C742 H718 0.950 . S
C742 C737 1.363 . S
C742 C741 1.415 . S
C743 H719 0.951 . S
C743 C744 1.366 . S
C743 C745 1.388 . S
C744 C743 1.366 . S
C744 C748 1.385 . S
C745 H720 0.951 . S
C745 C743 1.388 . S
C745 C746 1.366 . S
C746 C745 1.366 . S
C746 C747 1.414 . S
C746 C749 1.499 . S
C747 H721 0.950 . S
C747 C746 1.414 . S
C747 C748 1.374 . S
C748 H722 0.950 . S
C748 C744 1.385 . S
C748 C747 1.374 . S
C749 C746 1.499 . S
C749 C750 1.373 . S
C749 C751 1.389 . S
C750 H723 0.950 . S
C750 C736 1.377 . S
C750 C749 1.373 . S
C751 C735 1.377 . S
C751 C749 1.389 . S
C751 C752 1.524 . S
C752 C751 1.524 . S
C752 C753 1.397 . S
C752 C757 1.363 . S
C753 H724 0.950 . S
C753 C752 1.397 . S
C753 C754 1.334 . S
C754 H725 0.950 . S
C754 C753 1.334 . S
C754 C755 1.287 1_655 S
C755 C754 1.287 1_455 S
C755 C756 1.531 . S
C755 H758 0.999 . S
C756 H726 0.965 . S
C756 C755 1.531 . S
C756 C757 1.391 1_455 S
C757 H727 0.950 . S
C757 C752 1.363 . S
C757 C756 1.391 1_655 S
H758 C755 0.999 . S
H759 C740 0.913 . S
C179 C89 1.109 . S
C194 C18 1.109 . S
C229 C138 1.110 . S
C244 C49 1.110 . S
C279 C98 0.908 1_545 S
C294 C9 0.908 . S
C329 C58 0.908 . S
C344 C129 0.908 1_455 S
C379 C50 1.523 . S
C394 C6 1.553 . S
C429 C59 2.351 . S
C444 C99 2.351 1_556 S
C479 C126 1.553 . S
C494 C90 1.523 . S
C529 C135 0.820 . S
C544 C15 0.818 . S
C579 C95 1.554 . S
C594 C139 1.523 . S
C629 C10 2.351 . S
C644 C130 2.351 . S
C679 C55 1.554 . S
C694 C19 1.523 . S
C729 C86 0.818 . S
C744 C46 0.819 . S
