# Generated by pormake.
# Topology snp, (6)-cn, num edge types: 1
# Building blocks:
#     Node 0, Type 0, BuildingBlock: KUMBOL_clean_sbu_1, # of connection points: 6
#     Node 1, Type 0, BuildingBlock: KUMBOL_clean_sbu_1, # of connection points: 6
#     Node 2, Type 0, BuildingBlock: KUMBOL_clean_sbu_1, # of connection points: 6
#     Node 3, Type 0, BuildingBlock: KUMBOL_clean_sbu_1, # of connection points: 6
#     Edge 4, Type (0, 0), BuildingBlock: FUNLAD_clean_linker_1, # of connection points: 2
#     Edge 5, Type (0, 0), BuildingBlock: FUNLAD_clean_linker_1, # of connection points: 2
#     Edge 6, Type (0, 0), BuildingBlock: FUNLAD_clean_linker_1, # of connection points: 2
#     Edge 7, Type (0, 0), BuildingBlock: FUNLAD_clean_linker_1, # of connection points: 2
#     Edge 8, Type (0, 0), BuildingBlock: FUNLAD_clean_linker_1, # of connection points: 2
#     Edge 9, Type (0, 0), BuildingBlock: FUNLAD_clean_linker_1, # of connection points: 2
#     Edge 10, Type (0, 0), BuildingBlock: FUNLAD_clean_linker_1, # of connection points: 2
#     Edge 11, Type (0, 0), BuildingBlock: FUNLAD_clean_linker_1, # of connection points: 2
#     Edge 12, Type (0, 0), BuildingBlock: FUNLAD_clean_linker_1, # of connection points: 2
#     Edge 13, Type (0, 0), BuildingBlock: FUNLAD_clean_linker_1, # of connection points: 2
#     Edge 14, Type (0, 0), BuildingBlock: FUNLAD_clean_linker_1, # of connection points: 2
#     Edge 15, Type (0, 0), BuildingBlock: FUNLAD_clean_linker_1, # of connection points: 2
# Relax obj value: 0.189
# Max RMSD: 0.241
# Mean RMSD: 0.241
data_MOF--net-snp--node1-KUMBOL_clean_sbu_1--edge1-FUNLAD_clean_linker_1
_symmetry_space_group_name_H-M    P1
_symmetry_Int_Tables_number       1
_symmetry_cell_setting            triclinic
loop_
_symmetry_equiv_pos_as_xyz
'x, y, z'
_cell_length_a     26.015136
_cell_length_b     25.961934
_cell_length_c     35.325915
_cell_angle_alpha  111.02061
_cell_angle_beta   69.000376
_cell_angle_gamma 156.08494
loop_
_atom_site_label
_atom_site_type_symbol
_atom_site_fract_x
_atom_site_fract_y
_atom_site_fract_z
_atom_type_partial_charge
C0 C 0.37428 0.09339 0.10855 0.0
C1 C 0.34844 0.97116 0.08916 0.0
C2 C 0.41004 0.07629 0.11125 0.0
C3 C 0.26575 0.89615 0.06013 0.0
C4 C 0.29018 0.01724 0.07957 0.0
C5 C 0.24128 0.92295 0.05407 0.0
N6 N 0.41344 0.17704 0.13634 0.0
C7 C 0.34625 0.16308 0.14237 0.0
C8 C 0.24992 0.03146 0.07953 0.0
C9 C 0.269 0.09598 0.11299 0.0
Gd10 Gd 0.86092 0.66259 0.11918 0.0
Gd11 Gd 0.58862 0.32683 0.17227 0.0
N12 N 0.49625 0.1553 0.13808 0.0
C13 C 0.365 0.93928 0.09874 0.0
C14 C 0.5063 0.11912 0.14901 0.0
C15 C 0.43963 0.01027 0.13013 0.0
H16 H 0.5641 0.17168 0.1727 0.0
H17 H 0.4475 -0.01768 0.1395 0.0
H18 H 0.79252 0.73343 0.1366 0.0
H19 H 0.34557 0.19674 0.1704 0.0
H20 H 0.85354 0.88106 0.18127 0.0
H21 H 0.31625 0.85698 0.08341 0.0
H22 H 0.2187 0.81594 0.04269 0.0
H23 H 0.09199 0.78446 0.13188 0.0
H24 H 0.1947 -0.01592 0.05606 0.0
H25 H 0.22031 0.08983 0.11695 0.0
H26 H 0.14103 0.1062 0.26666 0.0
H27 H 0.17705 0.86374 0.03163 0.0
H28 H 0.21461 -0.01559 0.24874 0.0
H29 H 0.1971 0.88103 0.1909 0.0
N30 N 0.03691 0.81978 0.15708 0.0
C31 C 0.06877 0.89845 0.18475 0.0
C32 C 0.09481 0.8255 0.15684 0.0
C33 C 0.17286 0.94654 0.22188 0.0
C34 C 0.1593 0.88462 0.1899 0.0
C35 C 0.1374 0.96357 0.21805 0.0
H36 H 0.21106 0.08436 0.27396 0.0
N37 N 0.92678 0.81272 0.15687 0.0
C38 C 0.01836 0.90068 0.18292 0.0
C39 C -0.01 0.97392 0.21005 0.0
C40 C 0.04686 -0.02159 0.21175 0.0
C41 C 0.86784 0.80525 0.15617 0.0
C42 C 0.90099 0.88788 0.18189 0.0
O43 O 0.63478 0.32979 0.1043 0.0
O44 O 0.67485 0.45017 0.10077 0.0
O45 O 0.85328 0.70677 0.07966 0.0
O46 O 0.97718 0.74839 0.06192 0.0
O47 O 0.80284 0.51449 0.16058 0.0
O48 O 0.90337 0.60777 0.10215 0.0
O49 O 0.81558 0.65974 0.18908 0.0
O50 O 0.73274 0.51671 0.214 0.0
O51 O 0.61467 0.30735 0.21433 0.0
O52 O 0.43701 0.18834 0.21703 0.0
O53 O 0.65053 0.49301 0.13259 0.0
O54 O 0.55588 0.38794 0.18774 0.0
C55 C 0.66176 0.38502 0.08232 0.0
C56 C 0.86549 0.54463 0.12545 0.0
C57 C -0.01054 0.80925 1.01328 0.0
C58 C 0.02493 0.89155 0.9636 0.0
C59 C 0.1149 0.88146 0.94837 0.0
C60 C 0.06419 0.83381 0.98542 0.0
C61 C 0.0945 0.90809 0.93735 0.0
C62 C 0.9695 0.83871 1.002 0.0
C63 C 0.93935 0.75544 0.05283 0.0
C64 C 0.12101 0.04862 0.24364 0.0
C65 C 0.1615 0.03681 0.24769 0.0
H66 H 0.00825 0.03068 0.23207 0.0
C67 C 0.79109 0.61779 0.2188 0.0
C68 C 0.58305 0.44696 0.16827 0.0
C69 C 0.46319 0.17865 0.27163 0.0
C70 C 0.44812 0.11058 0.31609 0.0
C71 C 0.36839 0.13276 0.34094 0.0
C72 C 0.39722 0.16208 0.30259 0.0
C73 C 0.39568 0.1095 0.34804 0.0
C74 C 0.48662 0.15118 0.27859 0.0
C75 C 0.4981 0.21159 0.23049 0.0
H76 H 0.16953 0.89619 0.92743 0.0
H77 H 0.08307 0.81447 0.99195 0.0
H78 H 0.13172 0.93871 0.90718 0.0
H79 H 0.91303 0.82195 0.02272 0.0
H80 H 0.32209 0.12532 0.3651 0.0
H81 H 0.3658 0.16946 0.29733 0.0
H82 H 0.37302 0.0892 0.37829 0.0
H83 H 0.53057 0.15631 0.25382 0.0
C84 C 0.12726 0.37435 0.62168 0.0
C85 C 0.01561 0.36088 0.64129 0.0
C86 C 0.12115 0.42222 0.62139 0.0
C87 C 0.92264 0.25872 0.66427 0.0
C88 C 0.03403 0.27194 0.64497 0.0
C89 C 0.93332 0.21626 0.66673 0.0
N90 N 0.21907 0.42206 0.59716 0.0
C91 C 0.21066 0.35977 0.5916 0.0
C92 C 0.03972 0.22242 0.64289 0.0
C93 C 0.1305 0.26883 0.61706 0.0
Gd94 Gd 0.69587 0.86668 0.61921 0.0
Gd95 Gd 0.37255 0.60147 0.56375 0.0
N96 N 0.21568 0.52542 0.60027 0.0
C97 C 0.00258 0.39901 0.63556 0.0
C98 C 0.20136 0.56057 0.59376 0.0
C99 C 0.09309 0.49545 0.61023 0.0
H100 H 0.27018 0.63462 0.57414 0.0
H101 H 0.07757 0.5173 0.6027 0.0
H102 H 0.78557 0.8176 0.60779 0.0
H103 H 0.25363 0.3678 0.56534 0.0
H104 H 0.93112 0.8776 0.56354 0.0
H105 H 0.92023 0.35079 0.64894 0.0
H106 H 0.84113 0.21065 0.67986 0.0
H107 H 0.80204 0.08158 0.59941 0.0
H108 H 0.96573 0.13746 0.65626 0.0
H109 H 0.12766 0.2229 0.61301 0.0
H110 H 0.14473 0.1507 0.47426 0.0
H111 H 0.85921 0.13645 0.68417 0.0
H112 H 0.00963 0.20743 0.48486 0.0
H113 H 0.89748 0.18214 0.53928 0.0
N114 N 0.85071 0.0401 0.57964 0.0
C115 C 0.93222 0.07469 0.5532 0.0
C116 C 0.84783 0.0884 0.57636 0.0
C117 C 0.97326 0.16855 0.51239 0.0
C118 C 0.9063 0.15047 0.54248 0.0
C119 C -0.0054 0.13888 0.51865 0.0
H120 H 0.11304 0.20764 0.46266 0.0
N121 N 0.8554 0.94301 0.58502 0.0
C122 C 0.93909 0.02976 0.55731 0.0
C123 C 0.01935 0.00885 0.53305 0.0
C124 C 0.01915 0.06039 0.52955 0.0
C125 C 0.85326 0.88948 0.58733 0.0
C126 C 0.93597 0.92289 0.562 0.0
O127 O 0.36559 0.63361 0.63235 0.0
O128 O 0.48548 0.67494 0.63717 0.0
O129 O 0.74834 0.86934 0.65874 0.0
O130 O 0.7414 0.95031 0.68245 0.0
O131 O 0.54993 0.81322 0.57598 0.0
O132 O 0.63195 0.9001 0.63576 0.0
O133 O 0.6994 0.82571 0.5487 0.0
O134 O 0.56492 0.75272 0.52375 0.0
O135 O 0.34167 0.61592 0.52153 0.0
O136 O 0.22756 0.44242 0.52176 0.0
O137 O 0.53423 0.6601 0.60281 0.0
O138 O 0.43628 0.57129 0.54707 0.0
C139 C 0.41656 0.6572 0.65507 0.0
C140 C 0.57349 0.86794 0.61237 0.0
C141 C 0.85537 0.01065 0.72132 0.0
C142 C 0.94238 0.05898 0.7739 0.0
C143 C 0.03113 0.21813 0.75962 0.0
C144 C 0.94126 0.13251 0.73237 0.0
C145 C 0.02835 0.18043 0.78113 0.0
C146 C 0.85503 0.97254 0.7431 0.0
C147 C 0.75977 0.92285 0.69087 0.0
C148 C 0.08627 0.13009 0.49656 0.0
C149 C 0.06936 0.16403 0.49018 0.0
H150 H 0.07718 0.02805 0.51164 0.0
C151 C 0.6597 0.8027 0.51842 0.0
C152 C 0.49355 0.59695 0.56665 0.0
C153 C 0.22453 0.46461 0.46331 0.0
C154 C 0.17047 0.44525 0.40866 0.0
C155 C 0.18647 0.36207 0.39713 0.0
C156 C 0.20941 0.39594 0.43752 0.0
C157 C 0.1687 0.3878 0.38247 0.0
C158 C 0.20129 0.48605 0.44891 0.0
C159 C 0.24625 0.49806 0.50658 0.0
H160 H 0.10201 0.31434 0.76504 0.0
H161 H 0.93914 0.1632 0.72053 0.0
H162 H 0.09483 0.24798 0.80416 0.0
H163 H 0.78445 0.87636 0.73774 0.0
H164 H 0.17674 0.31055 0.37763 0.0
H165 H 0.21062 0.36385 0.44875 0.0
H166 H 0.14296 0.35246 0.35146 0.0
H167 H 0.20106 0.52853 0.46943 0.0
C168 C 0.40527 0.53641 0.05789 0.0
C169 C 0.45085 0.47947 0.03763 0.0
C170 C 0.4678 0.54995 0.06355 0.0
C171 C 0.36811 0.39283 1.00659 0.0
C172 C 0.33353 0.45955 0.02387 0.0
C173 C 0.31181 0.38496 0.99917 0.0
N174 N 0.43179 0.61394 0.08104 0.0
C175 C 0.3768 0.60647 0.07376 0.0
C176 C 0.29606 0.46937 1.01333 0.0
C177 C 0.31169 0.53745 0.03922 0.0
Gd178 Gd 0.85986 0.08123 0.05437 0.0
Gd179 Gd 0.60098 0.77752 0.12341 0.0
N180 N 0.56366 0.64972 0.0888 0.0
C181 C 0.52844 0.50861 0.04053 0.0
C182 C 0.63797 0.67684 0.09229 0.0
C183 C 0.62095 0.60624 0.06836 0.0
H184 H 0.7149 0.75721 0.11201 0.0
H185 H 0.68269 0.63059 0.07013 0.0
H186 H 0.81305 0.14298 0.01663 0.0
H187 H 0.38176 0.65293 0.09388 0.0
H188 H 0.89913 0.31155 0.02413 0.0
H189 H 0.52302 0.46158 0.01967 0.0
H190 H 0.35517 0.33914 0.98604 0.0
H191 H 0.10827 0.26162 0.08907 0.0
H192 H 0.25733 0.42695 0.98487 0.0
H193 H 0.27559 0.53868 0.0322 0.0
H194 H 0.14942 0.58496 0.13844 0.0
H195 H 0.25615 0.32495 0.97316 0.0
H196 H 0.26771 0.54412 0.17922 0.0
H197 H 0.23969 0.41719 0.14732 0.0
N198 N 0.02924 0.26734 0.09717 0.0
C199 C 0.05457 0.34532 0.11036 0.0
C200 C 0.10655 0.30331 0.10653 0.0
C201 C 0.20244 0.4684 0.15572 0.0
C202 C 0.1868 0.3972 0.13803 0.0
C203 C 0.14194 0.44808 0.14004 0.0
H204 H 0.23749 0.60978 0.17418 0.0
N205 N 0.90955 0.22142 0.06502 0.0
C206 C -0.0044 0.32369 0.09293 0.0
C207 C 0.00019 0.41014 0.07602 0.0
C208 C 0.0366 0.41575 0.10086 0.0
C209 C 0.87747 0.21927 0.04002 0.0
C210 C 0.92465 0.31451 0.04445 0.0
O211 O 0.67413 0.79363 0.05859 0.0
O212 O 0.69429 0.87181 0.024 0.0
O213 O 0.86697 0.09988 0.99625 0.0
O214 O 0.02809 0.20783 1.01196 0.0
O215 O 0.81482 0.96889 0.11901 0.0
O216 O 0.91641 0.04996 0.05678 0.0
O217 O 0.85175 0.11056 0.12308 0.0
O218 O 0.70044 0.94367 0.16347 0.0
O219 O 0.64492 0.77923 0.16699 0.0
O220 O 0.45694 0.64114 0.16993 0.0
O221 O 0.64979 0.91149 0.06973 0.0
O222 O 0.55789 0.82867 0.13145 0.0
C223 C 0.66671 0.79671 0.025 0.0
C224 C 0.88793 0.00632 0.087 0.0
C225 C 0.05552 0.25085 0.94869 0.0
C226 C 0.1456 0.37741 0.90252 0.0
C227 C 0.19368 0.32458 0.88948 0.0
C228 C 0.12013 0.26062 0.92454 0.0
C229 C 0.20542 0.38122 0.87818 0.0
C230 C 0.06792 0.30893 0.93748 0.0
C231 C -0.01558 0.18925 0.98708 0.0
C232 C 0.12 0.51579 0.13132 0.0
C233 C 0.17056 0.53031 0.15154 0.0
H234 H 0.03316 0.48139 0.08008 0.0
C235 C 0.79597 0.06181 0.15827 0.0
C236 C 0.5962 0.8902 0.1066 0.0
C237 C 0.51316 0.67144 0.22836 0.0
C238 C 0.51537 0.63383 0.28295 0.0
C239 C 0.44197 0.66176 0.29801 0.0
C240 C 0.46301 0.67515 0.25719 0.0
C241 C 0.46669 0.64054 0.31079 0.0
C242 C 0.5418 0.65334 0.24158 0.0
C243 C 0.53024 0.68032 0.18437 0.0
H244 H 0.24309 0.33162 0.87116 0.0
H245 H 0.11704 0.22207 0.93331 0.0
H246 H 0.25958 0.42524 0.8498 0.0
H247 H 0.01965 0.30326 0.95633 0.0
H248 H 0.4089 0.67094 0.32017 0.0
H249 H 0.44171 0.69032 0.24829 0.0
H250 H 0.45109 0.63378 0.34294 0.0
H251 H 0.58107 0.65072 0.21947 0.0
C252 C 0.61593 0.45465 0.67635 0.0
C253 C 0.54344 0.48352 0.69572 0.0
C254 C 0.62457 0.5134 0.67158 0.0
C255 C 0.44236 0.38201 0.72025 0.0
C256 C 0.52071 0.35991 0.70377 0.0
C257 C 0.42928 0.31827 0.7236 0.0
N258 N 0.70785 0.49891 0.65753 0.0
C259 C 0.70582 0.44864 0.66448 0.0
C260 C 0.52353 0.31353 0.71145 0.0
C261 C 0.61868 0.36117 0.69315 0.0
Gd262 Gd 0.15282 0.9109 0.68819 0.0
Gd263 Gd 0.86928 0.67169 0.6181 0.0
N264 N 0.72658 0.61544 0.64903 0.0
C265 C 0.57276 0.56335 0.69716 0.0
C266 C 0.74891 0.68686 0.6475 0.0
C267 C 0.6738 0.66354 0.6722 0.0
H268 H 0.82814 0.76532 0.62868 0.0
H269 H 0.69578 0.72463 0.67283 0.0
H270 H 0.1837 0.83379 0.72365 0.0
H271 H 0.76146 0.46424 0.64592 0.0
H272 H 0.35737 0.93296 0.72749 0.0
H273 H 0.52108 0.55135 0.71877 0.0
H274 H 0.37624 0.35485 0.73756 0.0
H275 H 0.31607 0.13608 0.63866 0.0
H276 H 0.45009 0.23634 0.72945 0.0
H277 H 0.61819 0.32216 0.69847 0.0
H278 H 0.66371 0.21147 0.61984 0.0
H279 H 0.35117 0.24072 0.74289 0.0
H280 H 0.63602 0.3324 0.56909 0.0
H281 H 0.49579 0.28706 0.58809 0.0
N282 N 0.34424 0.08555 0.64703 0.0
C283 C 0.42316 0.11256 0.6375 0.0
C284 C 0.37336 0.15177 0.63067 0.0
C285 C 0.55457 0.26307 0.59078 0.0
C286 C 0.47609 0.23817 0.60162 0.0
C287 C 0.53005 0.20169 0.60906 0.0
H288 H 0.69633 0.30159 0.58008 0.0
N289 N 0.28965 0.96043 0.68204 0.0
C290 C 0.39815 0.05269 0.65698 0.0
C291 C 0.4743 0.05047 0.67847 0.0
C292 C 0.48886 0.09348 0.65253 0.0
C293 C 0.27104 0.91088 0.7049 0.0
C294 C 0.36757 0.96325 0.70607 0.0
O295 O 0.86176 0.71963 0.686 0.0
O296 O 0.94475 0.73697 0.7131 0.0
O297 O 0.15386 0.90157 0.74643 0.0
O298 O 0.22411 0.04064 0.73976 0.0
O299 O 0.03003 0.87832 0.62977 0.0
O300 O 0.12589 0.97218 0.68881 0.0
O301 O 0.18806 0.90416 0.61845 0.0
O302 O 0.07255 0.85075 0.59151 0.0
O303 O 0.82986 0.67332 0.5725 0.0
O304 O 0.76389 0.53143 0.56566 0.0
O305 O -0.0115 0.70514 0.67049 0.0
O306 O 0.94077 0.64742 0.60627 0.0
C307 C 0.88101 0.72456 0.71809 0.0
C308 C 0.0867 0.95772 0.66306 0.0
C309 C 0.31383 0.09372 0.78947 0.0
C310 C 0.43436 0.16234 0.82773 0.0
C311 C 0.49272 0.30473 0.82526 0.0
C312 C 0.38996 0.20972 0.80273 0.0
C313 C 0.51456 0.28123 0.83794 0.0
C314 C 0.33573 0.06939 0.80253 0.0
C315 C 0.21011 -0.00087 0.76355 0.0
C316 C 0.59468 0.18118 0.62409 0.0
C317 C 0.6134 0.23267 0.60157 0.0
H318 H 0.54542 0.08511 0.67785 0.0
C319 C 0.15706 0.88906 0.58747 0.0
C320 C -0.01472 0.66843 0.63278 0.0
C321 C 0.70916 0.51576 0.51199 0.0
C322 C 0.6444 0.49146 0.45852 0.0
C323 C 0.61608 0.3693 0.45164 0.0
C324 C 0.66462 0.42312 0.48898 0.0
C325 C 0.60829 0.40428 0.43622 0.0
C326 C 0.69838 0.54976 0.49654 0.0
C327 C 0.76811 0.57471 0.55091 0.0
H328 H 0.5555 0.39672 0.83313 0.0
H329 H 0.37385 0.22931 0.79339 0.0
H330 H 0.59349 0.35594 0.85633 0.0
H331 H 0.27485 -0.02168 0.79434 0.0
H332 H 0.58521 0.30032 0.43408 0.0
H333 H 0.67007 0.3939 0.49945 0.0
H334 H 0.57265 0.36056 0.40662 0.0
H335 H 0.73006 0.61949 0.51407 0.0
H336 H 0.94882 0.97625 0.07534 0.0
C337 C 0.96806 0.03701 0.09118 0.0
H338 H 0.06088 0.1823 0.1349 0.0
H339 H 0.40492 0.42941 0.23006 0.0
H340 H 0.25511 0.35429 0.28201 0.0
H341 H 0.05355 0.19869 0.26356 0.0
H342 H -0.00129 0.11356 0.19369 0.0
C343 C 0.05838 0.1364 0.11689 0.0
C344 C 0.14971 0.18519 0.12705 0.0
C345 C 0.17559 0.22645 0.16856 0.0
C346 C 0.28967 0.31338 0.17927 0.0
C347 C 0.31761 0.36031 0.22049 0.0
C348 C 0.23304 0.31897 0.25052 0.0
C349 C 0.1198 0.23173 0.24019 0.0
C350 C 0.09047 0.18502 0.19982 0.0
H351 H 0.4162 0.34488 0.2008 0.0
C352 C 0.49802 0.41766 0.17981 0.0
H353 H 0.57711 0.51925 0.13564 0.0
H354 H 0.13368 0.12507 0.04241 0.0
H355 H 0.24823 0.1494 0.99624 0.0
H356 H 0.41781 0.26049 0.01918 0.0
H357 H 0.4806 0.3582 0.08779 0.0
C358 C 0.49706 0.44834 0.15741 0.0
C359 C 0.37253 0.35116 0.14861 0.0
C360 C 0.33409 0.29047 0.10869 0.0
C361 C 0.22636 0.21307 0.09693 0.0
C362 C 0.20214 0.16959 0.05521 0.0
C363 C 0.2694 0.18501 0.02778 0.0
C364 C 0.36604 0.24906 0.0405 0.0
C365 C 0.40163 0.30557 0.08 0.0
H366 H 0.22765 0.15029 0.68186 0.0
C367 C 0.14254 0.06113 0.66575 0.0
H368 H 0.02683 0.96945 0.62477 0.0
H369 H 0.46631 0.40252 0.511 0.0
H370 H 0.36727 0.22887 0.46812 0.0
H371 H 0.20834 0.0367 0.49768 0.0
H372 H 0.13894 0.01112 0.56953 0.0
C373 C 0.1105 0.05768 0.64138 0.0
C374 C 0.2108 0.17629 0.6248 0.0
C375 C 0.25842 0.19345 0.58367 0.0
C376 C 0.35662 0.30786 0.56712 0.0
C377 C 0.39521 0.31903 0.5252 0.0
C378 C 0.34034 0.22098 0.50044 0.0
C379 C 0.25036 0.11233 0.51715 0.0
C380 C 0.2103 0.09854 0.55838 0.0
H381 H 0.39463 0.43115 0.53528 0.0
C382 C 0.47287 0.51861 0.55393 0.0
H383 H 0.59308 0.61401 0.59324 0.0
H384 H 0.14527 0.17472 0.70584 0.0
H385 H 0.25048 0.35294 0.74793 0.0
H386 H 0.40432 0.54119 0.71784 0.0
H387 H 0.48968 0.57536 0.64915 0.0
C388 C 0.51197 0.52592 0.57571 0.0
C389 C 0.41259 0.40748 0.59249 0.0
C390 C 0.36366 0.38938 0.63352 0.0
C391 C 0.26324 0.27372 0.64988 0.0
C392 C 0.21921 0.25951 0.69135 0.0
C393 C 0.27342 0.3575 0.71561 0.0
C394 C 0.36323 0.46576 0.69881 0.0
C395 C 0.41065 0.48348 0.65868 0.0
H396 H 0.54248 0.92449 0.15231 0.0
C397 C 0.58483 0.94168 0.12171 0.0
H398 H 0.65516 0.00901 0.06718 0.0
H399 H 0.75383 0.31633 0.04973 0.0
H400 H 0.6482 0.1674 0.99052 0.0
H401 H 0.53065 0.97676 0.98792 0.0
H402 H 0.52971 0.94181 0.04315 0.0
C403 C 0.63485 0.01559 0.09878 0.0
C404 C 0.66618 0.10523 0.11013 0.0
C405 C 0.65626 0.11996 0.07969 0.0
C406 C 0.71619 0.22572 0.08263 0.0
C407 C 0.70971 0.23882 0.05001 0.0
C408 C 0.64755 0.15245 0.01573 0.0
C409 C 0.58292 0.04614 0.01401 0.0
C410 C 0.58535 0.02869 0.04569 0.0
H411 H 0.92145 0.5117 0.08008 0.0
C412 C 0.86829 0.48501 0.10895 0.0
H413 H 0.75832 0.38143 0.15901 0.0
H414 H 0.70955 0.11695 0.17722 0.0
H415 H 0.78221 0.24313 0.24003 0.0
H416 H 0.88351 0.42314 0.24506 0.0
H417 H 0.89285 0.46333 0.18851 0.0
C418 C 0.80088 0.39554 0.12937 0.0
C419 C 0.77764 0.31287 0.11798 0.0
C420 C 0.78342 0.29564 0.14917 0.0
C421 C 0.729 0.19358 0.14549 0.0
C422 C 0.73898 0.1837 0.17807 0.0
C423 C 0.78652 0.26039 0.21429 0.0
C424 C 0.84154 0.36033 0.2174 0.0
C425 C 0.84394 0.38062 0.18488 0.0
H426 H 0.41281 0.77092 0.65125 0.0
C427 C 0.49342 0.84633 0.63102 0.0
H428 H 0.58483 0.97312 0.59795 0.0
H429 H 0.11029 0.64462 0.55378 0.0
H430 H 0.23983 0.72495 0.49025 0.0
H431 H 0.44252 0.86137 0.48658 0.0
H432 H 0.51398 0.91405 0.54544 0.0
C433 C 0.50084 0.89582 0.61749 0.0
C434 C 0.39158 0.83719 0.62286 0.0
C435 C 0.35713 0.81793 0.58851 0.0
C436 C 0.24448 0.74731 0.59109 0.0
C437 C 0.20214 0.71098 0.55465 0.0
C438 C 0.27383 0.75326 0.51763 0.0
C439 C 0.38741 0.82931 0.51554 0.0
C440 C 0.42802 0.85995 0.55015 0.0
H441 H 0.1506 0.76913 0.59628 0.0
C442 C 0.07217 0.69799 0.61809 0.0
H443 H -0.01645 0.5804 0.65568 0.0
H444 H 0.43708 0.87727 0.69794 0.0
H445 H 0.28592 0.76169 0.75688 0.0
H446 H 0.07785 0.61483 0.75771 0.0
H447 H 0.02224 0.5864 0.70092 0.0
C448 C 0.06568 0.65228 0.63463 0.0
C449 C 0.16984 0.70373 0.62872 0.0
C450 C 0.1969 0.71163 0.6617 0.0
C451 C 0.31129 0.78516 0.65969 0.0
C452 C 0.34439 0.80816 0.69561 0.0
C453 C 0.25994 0.74537 0.73019 0.0
C454 C 0.14352 0.66383 0.73078 0.0
C455 C 0.11308 0.64896 0.69754 0.0
H456 H 0.69731 0.82773 0.45384 0.0
C457 C 0.71901 0.82792 0.47494 0.0
H458 H 0.79122 0.82468 0.48249 0.0
H459 H 0.84029 0.67168 0.32358 0.0
H460 H 0.91255 0.70388 0.37285 0.0
H461 H 0.9572 0.80841 0.44109 0.0
H462 H 0.91796 0.87065 0.46056 0.0
C463 C 0.78358 0.8368 0.46012 0.0
C464 C 0.82714 0.8418 0.41476 0.0
C465 C 0.85729 0.8117 0.4021 0.0
C466 C 0.85033 0.76879 0.36031 0.0
C467 C 0.86208 0.72216 0.35183 0.0
C468 C 0.90095 0.73728 0.38059 0.0
C469 C 0.92449 0.79461 0.4191 0.0
C470 C 0.89971 0.82824 0.43014 0.0
H471 H 0.91807 0.74615 0.26827 0.0
C472 C 0.84064 0.69515 0.25989 0.0
H473 H 0.72663 0.66112 0.27294 0.0
H474 H 0.89184 0.0048 0.42268 0.0
H475 H 0.91945 0.06793 0.36941 0.0
H476 H 0.88739 -0.01838 0.29817 0.0
H477 H 0.84537 0.8456 0.27931 0.0
C478 C 0.79663 0.70636 0.28524 0.0
C479 C 0.83087 0.77272 0.32907 0.0
C480 C 0.83769 0.83782 0.341 0.0
C481 C 0.84059 0.87591 0.38317 0.0
C482 C 0.87192 0.96033 0.3923 0.0
C483 C 0.89011 -0.0011 0.3618 0.0
C484 C 0.8747 0.95229 0.32163 0.0
C485 C 0.84951 0.87332 0.3112 0.0
H486 H 0.43242 0.67219 0.71694 0.0
C487 C 0.386 0.65037 0.69966 0.0
H488 H 0.24799 0.58449 0.70198 0.0
H489 H -0.01916 0.28261 0.84883 0.0
H490 H 0.80791 0.12505 0.80957 0.0
H491 H 0.83324 0.18161 0.75225 0.0
H492 H 0.04446 0.39998 0.73095 0.0
C493 C 0.29941 0.61229 0.71912 0.0
C494 C 0.26382 0.59469 0.76365 0.0
C495 C 0.14058 0.47215 0.77772 0.0
C496 C 0.1231 0.44332 0.81369 0.0
C497 C 0.00128 0.31529 0.82397 0.0
C498 C 0.89904 0.22227 0.80149 0.0
C499 C 0.91444 0.25382 0.76864 0.0
C500 C 0.0348 0.37725 0.7563 0.0
H501 H 0.08473 0.40427 0.90388 0.0
C502 C 0.15517 0.43543 0.89025 0.0
H503 H 0.32089 0.5607 0.85048 0.0
H504 H 0.48013 0.84561 0.75667 0.0
H505 H 0.63269 0.01852 0.80814 0.0
H506 H 0.60952 0.97571 0.8711 0.0
H507 H 0.42615 0.75705 0.88447 0.0
C508 C 0.23985 0.51515 0.8604 0.0
C509 C 0.2291 0.54227 0.83677 0.0
C510 C 0.34041 0.67006 0.8284 0.0
C511 C 0.35753 0.69613 0.7916 0.0
C512 C 0.46623 0.82313 0.78404 0.0
C513 C 0.55405 0.92238 0.81317 0.0
C514 C 0.54 0.89784 0.84881 0.0
C515 C 0.43541 0.77297 0.85613 0.0
H516 H 0.66329 0.59524 0.45905 0.0
C517 C 0.62482 0.52023 0.44245 0.0
H518 H 0.516 0.3773 0.39347 0.0
H519 H 0.41106 0.39295 0.27862 0.0
H520 H 0.40978 0.29264 0.24263 0.0
H521 H 0.54926 0.35972 0.263 0.0
H522 H 0.61131 0.44526 0.33088 0.0
C523 C 0.56174 0.45742 0.4087 0.0
C524 C 0.54834 0.48855 0.38916 0.0
C525 C 0.54657 0.47135 0.34646 0.0
C526 C 0.5104 0.47726 0.32849 0.0
C527 C 0.45948 0.41054 0.29059 0.0
C528 C 0.46184 0.35655 0.2691 0.0
C529 C 0.53121 0.38496 0.28191 0.0
C530 C 0.56931 0.43723 0.32088 0.0
H531 H 0.60688 0.63718 0.27809 0.0
C532 C 0.5408 0.60933 0.29704 0.0
H533 H 0.41232 0.51878 0.34904 0.0
H534 H 0.41729 0.40443 0.4623 0.0
H535 H 0.32589 0.41307 0.49581 0.0
H536 H 0.41314 0.56941 0.4759 0.0
H537 H 0.50844 0.63679 0.40805 0.0
C538 C 0.48399 0.5534 0.33195 0.0
C539 C 0.51213 0.53593 0.35052 0.0
C540 C 0.51077 0.54988 0.3932 0.0
C541 C 0.50859 0.50678 0.41172 0.0
C542 C 0.44315 0.45962 0.44999 0.0
C543 C 0.39469 0.46813 0.47026 0.0
C544 C 0.43534 0.54774 0.4575 0.0
C545 C 0.49099 0.58691 0.4186 0.0
H546 H 0.46259 0.10207 0.82544 0.0
C547 C 0.45383 0.13724 0.8451 0.0
H548 H 0.46185 0.20417 0.90374 0.0
H549 H 0.45213 0.03515 0.99813 0.0
H550 H 0.25873 0.81712 0.96768 0.0
H551 H 0.18894 0.7698 0.90782 0.0
H552 H 0.31257 0.94044 0.87791 0.0
C553 C 0.47332 0.1712 0.88464 0.0
C554 C 0.53502 0.19265 0.903 0.0
C555 C 0.46042 0.09231 0.92037 0.0
C556 C 0.50008 0.11997 0.95519 0.0
C557 C 0.42456 0.01863 0.97226 0.0
C558 C 0.31399 0.89361 0.95494 0.0
C559 C 0.27447 0.86677 0.92121 0.0
C560 C 0.34574 0.96481 0.90433 0.0
H561 H 0.67721 0.40565 0.02247 0.0
C562 C 0.65769 0.35897 0.03803 0.0
H563 H 0.59448 0.22239 0.03323 0.0
H564 H 0.72021 0.40362 0.86477 0.0
H565 H 0.9369 0.62244 0.8847 0.0
H566 H 0.00913 0.66825 0.94287 0.0
H567 H 0.86336 0.49808 0.98332 0.0
C568 C 0.62454 0.27659 0.01692 0.0
C569 C 0.61248 0.24779 0.97222 0.0
C570 C 0.70126 0.34715 0.9479 0.0
C571 C 0.66106 0.31972 0.91361 0.0
C572 C 0.74699 0.42088 0.8914 0.0
C573 C 0.8713 0.54589 0.90226 0.0
C574 C 0.91199 0.572 0.93517 0.0
C575 C 0.82806 0.47414 0.95803 0.0
H576 H 0.72979 0.76979 0.98737 0.0
C577 C 0.66722 0.74524 0.98688 0.0
H578 H 0.54641 0.66183 0.95477 0.0
H579 H 0.73989 0.728 0.77383 0.0
H580 H 0.61362 0.69212 0.77833 0.0
H581 H 0.48259 0.62441 0.8407 0.0
H582 H 0.47875 0.59533 0.89986 0.0
C583 C 0.60613 0.68168 0.9526 0.0
C584 C 0.63381 0.65922 0.91069 0.0
C585 C 0.61732 0.65322 0.8737 0.0
C586 C 0.68438 0.68049 0.83573 0.0
C587 C 0.68341 0.6969 0.80203 0.0
C588 C 0.61194 0.6776 0.80421 0.0
C589 C 0.53858 0.6402 0.83953 0.0
C590 C 0.54011 0.62717 0.87378 0.0
H591 H 0.69923 0.5964 0.75299 0.0
C592 C 0.79735 0.67799 0.75658 0.0
H593 H 0.93702 0.82102 0.79833 0.0
H594 H 0.60798 0.58421 0.96505 0.0
H595 H 0.6941 0.57298 0.95802 0.0
H596 H 0.81687 0.62783 0.89475 0.0
H597 H 0.84902 0.68809 0.83774 0.0
C598 C 0.8385 0.73865 0.7945 0.0
C599 C 0.75502 0.6968 0.83285 0.0
C600 C 0.74881 0.67614 0.86798 0.0
C601 C 0.68557 0.65366 0.90608 0.0
C602 C 0.66522 0.61399 0.9376 0.0
C603 C 0.71156 0.60426 0.9334 0.0
C604 C 0.78025 0.63462 0.8977 0.0
C605 C 0.79924 0.67051 0.86534 0.0
H606 H 0.49863 0.0683 0.29009 0.0
C607 C 0.45837 0.06337 0.31785 0.0
H608 H 0.43383 0.97819 0.34102 0.0
H609 H 0.46001 0.1251 0.52451 0.0
H610 H 0.67842 0.29112 0.50578 0.0
H611 H 0.76083 0.32935 0.43376 0.0
H612 H 0.62408 0.19887 0.38052 0.0
C613 C 0.41808 0.00761 0.34758 0.0
C614 C 0.3718 -0.00223 0.39044 0.0
C615 C 0.45339 0.07729 0.42147 0.0
C616 C 0.40659 0.05767 0.46312 0.0
C617 C 0.49054 0.13677 0.49288 0.0
C618 C 0.6162 0.23231 0.48236 0.0
C619 C 0.66258 0.25366 0.44184 0.0
C620 C 0.58267 0.17748 0.41161 0.0
H621 H 0.26219 0.91427 0.54074 0.0
C622 C 0.22232 0.91877 0.54676 0.0
H623 H 0.18724 0.94895 0.5242 0.0
H624 H 0.18859 0.82323 0.33845 0.0
H625 H 0.96906 0.6552 0.35696 0.0
H626 H 0.88986 0.62765 0.42891 0.0
H627 H 0.02671 0.76299 0.48287 0.0
C628 C 0.22991 0.94743 0.51733 0.0
C629 C 0.27865 0.96118 0.47394 0.0
C630 C 0.19712 0.8816 0.4426 0.0
C631 C 0.243 0.89823 0.40094 0.0
C632 C 0.15839 0.81463 0.37047 0.0
C633 C 0.03239 0.71815 0.38067 0.0
C634 C -0.01232 0.70245 0.42121 0.0
C635 C 0.06812 0.78213 0.45192 0.0
H636 H 0.93703 0.05898 0.83639 0.0
C637 C 0.93737 0.02842 0.80606 0.0
H638 H -0.00126 0.00356 0.7708 0.0
H639 H 0.32206 0.24611 0.89654 0.0
H640 H 0.48743 0.42678 0.8583 0.0
H641 H 0.43834 0.41614 0.80472 0.0
H642 H 0.21942 0.22416 0.78982 0.0
C643 C 0.9757 0.01135 0.80159 0.0
C644 C 0.01144 0.02592 0.8367 0.0
C645 C 0.13584 0.11792 0.83617 0.0
C646 C 0.16576 0.12191 0.86602 0.0
C647 C 0.2943 0.23392 0.87252 0.0
C648 C 0.39027 0.33978 0.85145 0.0
C649 C 0.36222 0.33312 0.82094 0.0
C650 C 0.23666 0.22176 0.81217 0.0
H651 H 0.92255 0.87238 0.96133 0.0
C652 C 0.0065 0.92301 0.94865 0.0
H653 H 0.16995 0.0549 0.90786 0.0
H654 H 0.7967 0.89896 0.8671 0.0
H655 H 0.76382 0.92398 0.9386 0.0
H656 H 0.87931 0.00272 0.98781 0.0
H657 H -0.00706 0.02249 0.96942 0.0
C658 C 0.08631 0.00506 0.9186 0.0
C659 C 0.06984 0.02923 0.89485 0.0
C660 C 0.97628 -0.01453 0.90477 0.0
C661 C 0.93939 0.97395 0.87497 0.0
C662 C 0.8478 0.93343 0.88777 0.0
C663 C 0.82578 0.94435 0.92869 0.0
C664 C 0.88595 -0.01607 0.95671 0.0
C665 C 0.94997 -0.00734 0.94573 0.0
H666 H 0.96209 0.2488 0.19054 0.0
C667 C 0.85944 0.15359 0.19397 0.0
H668 H 0.69666 0.0237 0.23469 0.0
H669 H 0.91297 0.19891 0.384 0.0
H670 H 0.77358 -0.00618 0.36241 0.0
H671 H 0.70228 0.89551 0.29331 0.0
H672 H 0.73594 -0.01981 0.25017 0.0
C673 C 0.79943 0.12064 0.23094 0.0
C674 C 0.87277 0.20033 0.2673 0.0
C675 C 0.85156 0.14847 0.29178 0.0
C676 C 0.91349 0.21768 0.3281 0.0
C677 C 0.87972 0.15737 0.3541 0.0
C678 C 0.79962 0.0394 0.34214 0.0
C679 C 0.75482 -0.01895 0.30385 0.0
C680 C 0.77625 0.03187 0.27932 0.0
H681 H 0.0453 0.40263 0.41713 0.0
C682 C 0.11566 0.43826 0.39606 0.0
H683 H 0.19441 0.47549 0.33599 0.0
H684 H 0.95159 0.33802 0.22427 0.0
H685 H 0.1081 0.55281 0.24284 0.0
H686 H 0.22333 0.67592 0.30439 0.0
H687 H 0.17966 0.58243 0.34802 0.0
C688 C 0.12133 0.43598 0.35653 0.0
C689 C 0.01229 0.34685 0.33624 0.0
C690 C 0.03391 0.39909 0.31197 0.0
C691 C 0.96522 0.32671 0.27714 0.0
C692 C -0.00429 0.38567 0.25217 0.0
C693 C 0.08715 0.50995 0.26217 0.0
C694 C 0.15229 0.57942 0.29674 0.0
C695 C 0.12696 0.52529 0.32133 0.0
loop_
_geom_bond_atom_site_label_1
_geom_bond_atom_site_label_2
_geom_bond_distance
_geom_bond_site_symmetry_2
_ccdc_geom_bond_type
C0 C2 1.422 . S
C0 C4 1.415 1_545 S
C0 N6 1.369 . S
C1 C2 1.421 1_565 S
C1 C3 1.417 . S
C1 C13 1.422 . S
C2 C0 1.422 . S
C2 C1 1.421 1_545 S
C2 N12 1.359 . S
C3 C1 1.417 . S
C3 C5 1.329 . S
C3 H22 0.930 . S
C4 C0 1.415 1_565 S
C4 C5 1.437 . S
C4 C8 1.413 . S
C5 C3 1.329 . S
C5 C4 1.437 . S
C5 H27 0.929 . S
N6 C0 1.369 . S
N6 C7 1.338 . S
N6 Gd11 2.622 . S
C7 N6 1.338 . S
C7 C9 1.378 . S
C7 H19 0.929 . S
C8 C4 1.413 . S
C8 C9 1.348 1_565 S
C8 H24 0.931 1_455 S
C9 C7 1.378 . S
C9 C8 1.348 1_545 S
C9 H25 0.930 1_545 S
Gd10 N30 2.622 1_655 S
Gd10 N37 2.570 1_655 S
Gd10 O44 2.353 . S
Gd10 O45 2.468 . S
Gd10 O46 2.427 1_655 S
Gd10 O48 2.388 . S
Gd10 O49 2.386 . S
Gd10 O53 2.307 . S
Gd10 C63 2.805 1_655 S
Gd11 N6 2.622 . S
Gd11 N12 2.570 . S
Gd11 O43 2.386 . S
Gd11 O47 2.307 . S
Gd11 O50 2.353 . S
Gd11 O51 2.468 . S
Gd11 O52 2.427 . S
Gd11 O54 2.388 . S
Gd11 C75 2.805 . S
N12 C2 1.359 . S
N12 Gd11 2.570 . S
N12 C14 1.343 . S
C13 C1 1.422 . S
C13 C15 1.321 1_565 S
C13 H21 0.931 . S
C14 N12 1.343 . S
C14 C15 1.390 . S
C14 H16 0.931 . S
C15 C13 1.321 1_545 S
C15 C14 1.390 . S
C15 H17 0.930 . S
H16 C14 0.931 . S
H17 C15 0.930 . S
H18 C41 0.931 . S
H19 C7 0.929 . S
H20 C42 0.930 1_655 S
H21 C13 0.931 . S
H22 C3 0.930 . S
H23 C32 0.929 . S
H24 C8 0.931 1_655 S
H25 C9 0.930 1_565 S
H26 C64 0.930 . S
H27 C5 0.929 . S
H28 C33 0.931 . S
H29 C34 0.930 . S
N30 Gd10 2.622 1_455 S
N30 C31 1.369 1_565 S
N30 C32 1.338 . S
C31 N30 1.369 1_545 S
C31 C35 1.415 . S
C31 C38 1.422 . S
C32 H23 0.929 . S
C32 N30 1.338 . S
C32 C34 1.378 1_565 S
C33 H28 0.931 . S
C33 C34 1.348 . S
C33 C35 1.413 . S
C34 H29 0.930 . S
C34 C32 1.378 1_545 S
C34 C33 1.348 . S
C35 C31 1.415 . S
C35 C33 1.413 . S
C35 C65 1.437 . S
H36 C65 0.929 . S
N37 Gd10 2.570 1_455 S
N37 C38 1.359 1_565 S
N37 C41 1.343 1_455 S
C38 C31 1.422 . S
C38 N37 1.359 1_545 S
C38 C40 1.421 . S
C39 C40 1.422 . S
C39 C42 1.321 . S
C39 H66 0.931 . S
C40 C38 1.421 . S
C40 C39 1.422 . S
C40 C64 1.417 . S
C41 H18 0.931 . S
C41 N37 1.343 1_655 S
C41 C42 1.390 1_665 S
C42 H20 0.930 1_455 S
C42 C39 1.321 . S
C42 C41 1.390 1_445 S
O43 Gd11 2.386 . S
O43 C55 1.265 . S
O44 Gd10 2.353 . S
O44 C55 1.242 . S
O45 Gd10 2.468 . S
O45 C63 1.263 1_655 S
O46 Gd10 2.427 1_455 S
O46 C63 1.252 . S
O47 Gd11 2.307 . S
O47 C56 1.261 . S
O48 Gd10 2.388 . S
O48 C56 1.252 . S
O49 Gd10 2.386 . S
O49 C67 1.265 . S
O50 Gd11 2.353 . S
O50 C67 1.242 . S
O51 Gd11 2.468 . S
O51 C75 1.263 . S
O52 Gd11 2.427 . S
O52 C75 1.252 . S
O53 Gd10 2.307 . S
O53 C68 1.261 . S
O54 Gd11 2.388 . S
O54 C68 1.252 . S
C55 O43 1.265 . S
C55 O44 1.242 . S
C56 O47 1.261 . S
C56 O48 1.252 . S
C57 C60 1.394 . S
C57 C62 1.370 . S
C57 C63 1.500 1_556 S
C58 C61 1.383 1_565 S
C58 C62 1.395 . S
C59 C60 1.396 1_545 S
C59 C61 1.365 . S
C59 H76 0.929 . S
C60 C57 1.394 . S
C60 C59 1.396 1_565 S
C60 H77 0.930 . S
C61 C58 1.383 1_545 S
C61 C59 1.365 . S
C61 H78 0.931 . S
C62 C57 1.370 . S
C62 C58 1.395 . S
C62 H79 0.930 1_455 S
C63 Gd10 2.805 1_455 S
C63 O45 1.263 1_455 S
C63 O46 1.252 . S
C63 C57 1.500 1_554 S
C64 H26 0.930 . S
C64 C40 1.417 . S
C64 C65 1.329 . S
C65 C35 1.437 . S
C65 H36 0.929 . S
C65 C64 1.329 . S
H66 C39 0.931 . S
C67 O49 1.265 . S
C67 O50 1.242 . S
C68 O53 1.261 . S
C68 O54 1.252 . S
C69 C72 1.394 . S
C69 C74 1.370 . S
C69 C75 1.500 . S
C70 C73 1.383 . S
C70 C74 1.395 . S
C71 C72 1.396 . S
C71 C73 1.365 . S
C71 H80 0.929 . S
C72 C69 1.394 . S
C72 C71 1.396 . S
C72 H81 0.930 . S
C73 C70 1.383 . S
C73 C71 1.365 . S
C73 H82 0.931 . S
C74 C69 1.370 . S
C74 C70 1.395 . S
C74 H83 0.930 . S
C75 Gd11 2.805 . S
C75 O51 1.263 . S
C75 O52 1.252 . S
C75 C69 1.500 . S
H76 C59 0.929 . S
H77 C60 0.930 . S
H78 C61 0.931 . S
H79 C62 0.930 1_655 S
H80 C71 0.929 . S
H81 C72 0.930 . S
H82 C73 0.931 . S
H83 C74 0.930 . S
C84 C86 1.422 . S
C84 C88 1.415 1_455 S
C84 N90 1.369 . S
C85 C86 1.421 1_655 S
C85 C87 1.417 . S
C85 C97 1.422 . S
C86 C84 1.422 . S
C86 C85 1.421 1_455 S
C86 N96 1.359 . S
C87 C85 1.417 . S
C87 C89 1.329 . S
C87 H106 0.930 . S
C88 C84 1.415 1_655 S
C88 C89 1.437 . S
C88 C92 1.413 . S
C89 C87 1.329 . S
C89 C88 1.437 . S
C89 H111 0.929 1_545 S
N90 C84 1.369 . S
N90 C91 1.338 . S
N90 Gd95 2.622 . S
C91 N90 1.338 . S
C91 C93 1.378 . S
C91 H103 0.929 . S
C92 C88 1.413 . S
C92 C93 1.348 1_655 S
C92 H108 0.931 1_545 S
C93 C91 1.378 . S
C93 C92 1.348 1_455 S
C93 H109 0.930 . S
Gd94 N114 2.622 1_565 S
Gd94 N121 2.570 1_565 S
Gd94 O128 2.353 . S
Gd94 O129 2.468 . S
Gd94 O130 2.427 1_565 S
Gd94 O132 2.388 . S
Gd94 O133 2.386 . S
Gd94 O137 2.307 . S
Gd94 C147 2.805 1_565 S
Gd95 N90 2.622 . S
Gd95 N96 2.570 . S
Gd95 O127 2.386 . S
Gd95 O131 2.307 . S
Gd95 O134 2.353 . S
Gd95 O135 2.468 . S
Gd95 O136 2.427 . S
Gd95 O138 2.388 . S
Gd95 C159 2.805 . S
N96 C86 1.359 . S
N96 Gd95 2.570 . S
N96 C98 1.343 . S
C97 C85 1.422 . S
C97 C99 1.321 1_655 S
C97 H105 0.931 . S
C98 N96 1.343 . S
C98 C99 1.390 . S
C98 H100 0.931 . S
C99 C97 1.321 1_455 S
C99 C98 1.390 . S
C99 H101 0.930 . S
H100 C98 0.931 . S
H101 C99 0.930 . S
H102 C125 0.931 . S
H103 C91 0.929 . S
H104 C126 0.930 1_565 S
H105 C97 0.931 . S
H106 C87 0.930 . S
H107 C116 0.929 . S
H108 C92 0.931 1_565 S
H109 C93 0.930 . S
H110 C148 0.930 . S
H111 C89 0.929 1_565 S
H112 C117 0.931 . S
H113 C118 0.930 . S
N114 Gd94 2.622 1_545 S
N114 C115 1.369 1_655 S
N114 C116 1.338 . S
C115 N114 1.369 1_455 S
C115 C119 1.415 . S
C115 C122 1.422 . S
C116 H107 0.929 . S
C116 N114 1.338 . S
C116 C118 1.378 1_655 S
C117 H112 0.931 . S
C117 C118 1.348 . S
C117 C119 1.413 . S
C118 H113 0.930 . S
C118 C116 1.378 1_455 S
C118 C117 1.348 . S
C119 C115 1.415 . S
C119 C117 1.413 . S
C119 C149 1.437 . S
H120 C149 0.929 . S
N121 Gd94 2.570 1_545 S
N121 C122 1.359 1_655 S
N121 C125 1.343 1_545 S
C122 C115 1.422 . S
C122 N121 1.359 1_455 S
C122 C124 1.421 . S
C123 C124 1.422 . S
C123 C126 1.321 . S
C123 H150 0.931 . S
C124 C122 1.421 . S
C124 C123 1.422 . S
C124 C148 1.417 . S
C125 H102 0.931 . S
C125 N121 1.343 1_565 S
C125 C126 1.390 1_665 S
C126 H104 0.930 1_545 S
C126 C123 1.321 . S
C126 C125 1.390 1_445 S
O127 Gd95 2.386 . S
O127 C139 1.265 . S
O128 Gd94 2.353 . S
O128 C139 1.242 . S
O129 Gd94 2.468 . S
O129 C147 1.263 1_565 S
O130 Gd94 2.427 1_545 S
O130 C147 1.252 . S
O131 Gd95 2.307 . S
O131 C140 1.261 . S
O132 Gd94 2.388 . S
O132 C140 1.252 . S
O133 Gd94 2.386 . S
O133 C151 1.265 . S
O134 Gd95 2.353 . S
O134 C151 1.242 . S
O135 Gd95 2.468 . S
O135 C159 1.263 . S
O136 Gd95 2.427 . S
O136 C159 1.252 . S
O137 Gd94 2.307 . S
O137 C152 1.261 . S
O138 Gd95 2.388 . S
O138 C152 1.252 . S
C139 O127 1.265 . S
C139 O128 1.242 . S
C140 O131 1.261 . S
C140 O132 1.252 . S
C141 C144 1.394 . S
C141 C146 1.370 . S
C141 C147 1.500 . S
C142 C145 1.383 1_655 S
C142 C146 1.395 . S
C143 C144 1.396 1_455 S
C143 C145 1.365 . S
C143 H160 0.929 . S
C144 C141 1.394 . S
C144 C143 1.396 1_655 S
C144 H161 0.930 . S
C145 C142 1.383 1_455 S
C145 C143 1.365 . S
C145 H162 0.931 . S
C146 C141 1.370 . S
C146 C142 1.395 . S
C146 H163 0.930 1_545 S
C147 Gd94 2.805 1_545 S
C147 O129 1.263 1_545 S
C147 O130 1.252 . S
C147 C141 1.500 . S
C148 H110 0.930 . S
C148 C124 1.417 . S
C148 C149 1.329 . S
C149 C119 1.437 . S
C149 H120 0.929 . S
C149 C148 1.329 . S
H150 C123 0.931 . S
C151 O133 1.265 . S
C151 O134 1.242 . S
C152 O137 1.261 . S
C152 O138 1.252 . S
C153 C156 1.394 . S
C153 C158 1.370 . S
C153 C159 1.500 . S
C154 C157 1.383 . S
C154 C158 1.395 . S
C155 C156 1.396 . S
C155 C157 1.365 . S
C155 H164 0.929 . S
C156 C153 1.394 . S
C156 C155 1.396 . S
C156 H165 0.930 . S
C157 C154 1.383 . S
C157 C155 1.365 . S
C157 H166 0.931 . S
C158 C153 1.370 . S
C158 C154 1.395 . S
C158 H167 0.930 . S
C159 Gd95 2.805 . S
C159 O135 1.263 . S
C159 O136 1.252 . S
C159 C153 1.500 . S
H160 C143 0.929 . S
H161 C144 0.930 . S
H162 C145 0.931 . S
H163 C146 0.930 1_565 S
H164 C155 0.929 . S
H165 C156 0.930 . S
H166 C157 0.931 . S
H167 C158 0.930 . S
C168 C170 1.422 . S
C168 C172 1.415 . S
C168 N174 1.369 . S
C169 C170 1.421 . S
C169 C171 1.417 . S
C169 C181 1.422 . S
C170 C168 1.422 . S
C170 C169 1.421 . S
C170 N180 1.359 . S
C171 C169 1.417 . S
C171 C173 1.329 . S
C171 H190 0.930 . S
C172 C168 1.415 . S
C172 C173 1.437 . S
C172 C176 1.413 . S
C173 C171 1.329 . S
C173 C172 1.437 . S
C173 H195 0.929 . S
N174 C168 1.369 . S
N174 C175 1.338 . S
N174 Gd179 2.622 . S
C175 N174 1.338 . S
C175 C177 1.378 . S
C175 H187 0.929 . S
C176 C172 1.413 . S
C176 C177 1.348 . S
C176 H192 0.931 . S
C177 C175 1.378 . S
C177 C176 1.348 . S
C177 H193 0.930 . S
Gd178 N198 2.622 1_655 S
Gd178 N205 2.570 1_655 S
Gd178 O212 2.353 1_545 S
Gd178 O213 2.468 . S
Gd178 O214 2.428 1_655 S
Gd178 O216 2.388 1_655 S
Gd178 O217 2.386 . S
Gd178 O221 2.307 . S
Gd178 C231 2.805 1_654 S
Gd179 N174 2.622 . S
Gd179 N180 2.570 . S
Gd179 O211 2.386 . S
Gd179 O215 2.307 . S
Gd179 O218 2.353 1_565 S
Gd179 O219 2.468 . S
Gd179 O220 2.427 . S
Gd179 O222 2.388 . S
Gd179 C243 2.805 . S
N180 C170 1.359 . S
N180 Gd179 2.570 . S
N180 C182 1.343 . S
C181 C169 1.422 . S
C181 C183 1.321 . S
C181 H189 0.931 . S
C182 N180 1.343 . S
C182 C183 1.390 . S
C182 H184 0.931 . S
C183 C181 1.321 . S
C183 C182 1.390 . S
C183 H185 0.930 . S
H184 C182 0.931 . S
H185 C183 0.930 . S
H186 C209 0.931 1_655 S
H187 C175 0.929 . S
H188 C210 0.930 . S
H189 C181 0.931 . S
H190 C171 0.930 . S
H191 C200 0.929 . S
H192 C176 0.931 . S
H193 C177 0.930 . S
H194 C232 0.930 . S
H195 C173 0.929 . S
H196 C201 0.931 . S
H197 C202 0.930 . S
N198 Gd178 2.622 1_455 S
N198 C199 1.369 . S
N198 C200 1.338 . S
C199 N198 1.369 . S
C199 C203 1.415 . S
C199 C206 1.422 . S
C200 H191 0.929 . S
C200 N198 1.338 . S
C200 C202 1.378 . S
C201 H196 0.931 . S
C201 C202 1.348 . S
C201 C203 1.413 . S
C202 H197 0.930 . S
C202 C200 1.378 . S
C202 C201 1.348 . S
C203 C199 1.415 . S
C203 C201 1.413 . S
C203 C233 1.437 . S
H204 C233 0.929 . S
N205 Gd178 2.570 1_455 S
N205 C206 1.359 . S
N205 C209 1.343 . S
C206 C199 1.422 . S
C206 N205 1.359 . S
C206 C208 1.421 . S
C207 C208 1.422 . S
C207 C210 1.321 . S
C207 H234 0.931 . S
C208 C206 1.421 . S
C208 C207 1.422 . S
C208 C232 1.417 . S
C209 H186 0.931 1_455 S
C209 N205 1.343 . S
C209 C210 1.390 . S
C210 H188 0.930 . S
C210 C207 1.321 . S
C210 C209 1.390 . S
O211 Gd179 2.386 . S
O211 C223 1.265 . S
O212 Gd178 2.353 1_565 S
O212 C223 1.242 . S
O213 Gd178 2.468 . S
O213 C231 1.263 1_654 S
O214 Gd178 2.428 1_455 S
O214 C231 1.252 1_554 S
O215 Gd179 2.307 . S
O215 C224 1.261 1_565 S
O216 Gd178 2.388 1_455 S
O216 C224 1.252 1_455 S
O217 Gd178 2.386 . S
O217 C235 1.265 . S
O218 Gd179 2.353 1_545 S
O218 C235 1.242 . S
O219 Gd179 2.468 . S
O219 C243 1.263 . S
O220 Gd179 2.427 . S
O220 C243 1.252 . S
O221 Gd178 2.307 . S
O221 C236 1.261 1_545 S
O222 Gd179 2.388 . S
O222 C236 1.252 . S
C223 O211 1.265 . S
C223 O212 1.242 . S
C224 O215 1.261 1_545 S
C224 O216 1.252 1_655 S
C225 C228 1.394 . S
C225 C230 1.370 . S
C225 C231 1.500 . S
C226 C229 1.383 . S
C226 C230 1.395 . S
C227 C228 1.396 . S
C227 C229 1.365 . S
C227 H244 0.929 . S
C228 C225 1.394 . S
C228 C227 1.396 . S
C228 H245 0.930 . S
C229 C226 1.383 . S
C229 C227 1.365 . S
C229 H246 0.931 . S
C230 C225 1.370 . S
C230 C226 1.395 . S
C230 H247 0.930 1_455 S
C231 Gd178 2.805 1_456 S
C231 O213 1.263 1_456 S
C231 O214 1.252 1_556 S
C231 C225 1.500 . S
C232 H194 0.930 . S
C232 C208 1.417 . S
C232 C233 1.329 . S
C233 C203 1.437 . S
C233 H204 0.929 . S
C233 C232 1.329 . S
H234 C207 0.931 . S
C235 O217 1.265 . S
C235 O218 1.242 . S
C236 O221 1.261 1_565 S
C236 O222 1.252 . S
C237 C240 1.394 . S
C237 C242 1.370 . S
C237 C243 1.500 . S
C238 C241 1.383 . S
C238 C242 1.395 . S
C239 C240 1.396 . S
C239 C241 1.365 . S
C239 H248 0.929 . S
C240 C237 1.394 . S
C240 C239 1.396 . S
C240 H249 0.930 . S
C241 C238 1.383 . S
C241 C239 1.365 . S
C241 H250 0.931 . S
C242 C237 1.370 . S
C242 C238 1.395 . S
C242 H251 0.930 . S
C243 Gd179 2.805 . S
C243 O219 1.263 . S
C243 O220 1.252 . S
C243 C237 1.500 . S
H244 C227 0.929 . S
H245 C228 0.930 . S
H246 C229 0.931 . S
H247 C230 0.930 1_655 S
H248 C239 0.929 . S
H249 C240 0.930 . S
H250 C241 0.931 . S
H251 C242 0.930 . S
C252 C254 1.422 . S
C252 C256 1.415 . S
C252 N258 1.369 . S
C253 C254 1.421 . S
C253 C255 1.417 . S
C253 C265 1.422 . S
C254 C252 1.422 . S
C254 C253 1.421 . S
C254 N264 1.359 . S
C255 C253 1.417 . S
C255 C257 1.329 . S
C255 H274 0.930 . S
C256 C252 1.415 . S
C256 C257 1.437 . S
C256 C260 1.413 . S
C257 C255 1.329 . S
C257 C256 1.437 . S
C257 H279 0.929 . S
N258 C252 1.369 . S
N258 C259 1.338 . S
N258 Gd263 2.622 . S
C259 N258 1.338 . S
C259 C261 1.378 . S
C259 H271 0.929 . S
C260 C256 1.413 . S
C260 C261 1.348 . S
C260 H276 0.931 . S
C261 C259 1.378 . S
C261 C260 1.348 . S
C261 H277 0.930 . S
Gd262 N282 2.622 1_565 S
Gd262 N289 2.570 1_565 S
Gd262 O296 2.353 . S
Gd262 O297 2.468 . S
Gd262 O298 2.427 1_565 S
Gd262 O300 2.388 1_565 S
Gd262 O301 2.386 . S
Gd262 O305 2.307 . S
Gd262 C315 2.805 1_565 S
Gd263 N258 2.622 . S
Gd263 N264 2.570 . S
Gd263 O295 2.386 . S
Gd263 O299 2.307 . S
Gd263 O302 2.353 1_655 S
Gd263 O303 2.468 . S
Gd263 O304 2.427 . S
Gd263 O306 2.388 . S
Gd263 C327 2.805 . S
N264 C254 1.359 . S
N264 Gd263 2.570 . S
N264 C266 1.343 . S
C265 C253 1.422 . S
C265 C267 1.321 . S
C265 H273 0.931 . S
C266 N264 1.343 . S
C266 C267 1.390 . S
C266 H268 0.931 . S
C267 C265 1.321 . S
C267 C266 1.390 . S
C267 H269 0.930 . S
H268 C266 0.931 . S
H269 C267 0.930 . S
H270 C293 0.931 1_565 S
H271 C259 0.929 . S
H272 C294 0.930 . S
H273 C265 0.931 . S
H274 C255 0.930 . S
H275 C284 0.929 . S
H276 C260 0.931 . S
H277 C261 0.930 . S
H278 C316 0.930 . S
H279 C257 0.929 . S
H280 C285 0.931 . S
H281 C286 0.930 . S
N282 Gd262 2.622 1_545 S
N282 C283 1.369 . S
N282 C284 1.338 . S
C283 N282 1.369 . S
C283 C287 1.415 . S
C283 C290 1.422 . S
C284 H275 0.929 . S
C284 N282 1.338 . S
C284 C286 1.378 . S
C285 H280 0.931 . S
C285 C286 1.348 . S
C285 C287 1.413 . S
C286 H281 0.930 . S
C286 C284 1.378 . S
C286 C285 1.348 . S
C287 C283 1.415 . S
C287 C285 1.413 . S
C287 C317 1.437 . S
H288 C317 0.929 . S
N289 Gd262 2.570 1_545 S
N289 C290 1.359 . S
N289 C293 1.343 . S
C290 C283 1.422 . S
C290 N289 1.359 . S
C290 C292 1.421 . S
C291 C292 1.422 . S
C291 C294 1.321 . S
C291 H318 0.931 . S
C292 C290 1.421 . S
C292 C291 1.422 . S
C292 C316 1.417 . S
C293 H270 0.931 1_545 S
C293 N289 1.343 . S
C293 C294 1.390 . S
C294 H272 0.930 . S
C294 C291 1.321 . S
C294 C293 1.390 . S
O295 Gd263 2.386 . S
O295 C307 1.265 . S
O296 Gd262 2.353 . S
O296 C307 1.242 1_455 S
O297 Gd262 2.468 . S
O297 C315 1.263 1_565 S
O298 Gd262 2.427 1_545 S
O298 C315 1.252 . S
O299 Gd263 2.307 . S
O299 C308 1.261 1_655 S
O300 Gd262 2.388 1_545 S
O300 C308 1.252 1_545 S
O301 Gd262 2.386 . S
O301 C319 1.265 . S
O302 Gd263 2.353 1_455 S
O302 C319 1.242 . S
O303 Gd263 2.468 . S
O303 C327 1.263 . S
O304 Gd263 2.427 . S
O304 C327 1.252 . S
O305 Gd262 2.307 . S
O305 C320 1.261 1_455 S
O306 Gd263 2.388 . S
O306 C320 1.252 . S
C307 O295 1.265 . S
C307 O296 1.242 1_655 S
C308 O299 1.261 1_455 S
C308 O300 1.252 1_565 S
C309 C312 1.394 . S
C309 C314 1.370 . S
C309 C315 1.500 . S
C310 C313 1.383 . S
C310 C314 1.395 . S
C311 C312 1.396 . S
C311 C313 1.365 . S
C311 H328 0.929 . S
C312 C309 1.394 . S
C312 C311 1.396 . S
C312 H329 0.930 . S
C313 C310 1.383 . S
C313 C311 1.365 . S
C313 H330 0.931 . S
C314 C309 1.370 . S
C314 C310 1.395 . S
C314 H331 0.930 1_545 S
C315 Gd262 2.805 1_545 S
C315 O297 1.263 1_545 S
C315 O298 1.252 . S
C315 C309 1.500 . S
C316 H278 0.930 . S
C316 C292 1.417 . S
C316 C317 1.329 . S
C317 C287 1.437 . S
C317 H288 0.929 . S
C317 C316 1.329 . S
H318 C291 0.931 . S
C319 O301 1.265 . S
C319 O302 1.242 . S
C320 O305 1.261 1_655 S
C320 O306 1.252 . S
C321 C324 1.394 . S
C321 C326 1.370 . S
C321 C327 1.500 . S
C322 C325 1.383 . S
C322 C326 1.395 . S
C323 C324 1.396 . S
C323 C325 1.365 . S
C323 H332 0.929 . S
C324 C321 1.394 . S
C324 C323 1.396 . S
C324 H333 0.930 . S
C325 C322 1.383 . S
C325 C323 1.365 . S
C325 H334 0.931 . S
C326 C321 1.370 . S
C326 C322 1.395 . S
C326 H335 0.930 . S
C327 Gd263 2.805 . S
C327 O303 1.263 . S
C327 O304 1.252 . S
C327 C321 1.500 . S
H328 C311 0.929 . S
H329 C312 0.930 . S
H330 C313 0.931 . S
H331 C314 0.930 1_565 S
H332 C323 0.929 . S
H333 C324 0.930 . S
H334 C325 0.931 . S
H335 C326 0.930 . S
H336 C337 0.951 . S
C337 H336 0.951 . S
C337 C343 1.265 1_655 S
H338 C343 0.950 . S
H339 C347 0.949 . S
H340 C348 0.950 . S
H341 C349 0.951 1_665 S
H342 C350 0.951 1_655 S
C343 C337 1.265 1_455 S
C343 H338 0.950 . S
C343 C344 1.478 . S
C344 C343 1.478 . S
C344 C345 1.397 . S
C344 C361 1.394 . S
C345 C344 1.397 . S
C345 C346 1.438 . S
C345 C350 1.429 . S
C346 C345 1.438 . S
C346 C347 1.428 . S
C346 C359 1.394 . S
C347 H339 0.949 . S
C347 C346 1.428 . S
C347 C348 1.345 . S
C348 H340 0.950 . S
C348 C347 1.345 . S
C348 C349 1.424 . S
C349 H341 0.951 1_445 S
C349 C348 1.424 . S
C349 C350 1.347 . S
C350 H342 0.951 1_455 S
C350 C345 1.429 . S
C350 C349 1.347 . S
H351 C352 0.951 . S
C352 H351 0.951 . S
C352 C358 1.265 . S
H353 C358 0.950 . S
H354 C362 0.949 . S
H355 C363 0.950 . S
H356 C364 0.951 . S
H357 C365 0.951 . S
C358 C352 1.265 . S
C358 H353 0.950 . S
C358 C359 1.478 . S
C359 C346 1.394 . S
C359 C358 1.478 . S
C359 C360 1.397 . S
C360 C359 1.397 . S
C360 C361 1.438 . S
C360 C365 1.429 . S
C361 C344 1.394 . S
C361 C360 1.438 . S
C361 C362 1.428 . S
C362 H354 0.949 . S
C362 C361 1.428 . S
C362 C363 1.345 . S
C363 H355 0.950 . S
C363 C362 1.345 . S
C363 C364 1.424 . S
C364 H356 0.951 . S
C364 C363 1.424 . S
C364 C365 1.347 . S
C365 H357 0.951 . S
C365 C360 1.429 . S
C365 C364 1.347 . S
H366 C367 0.951 1_655 S
C367 H366 0.951 1_455 S
C367 C373 1.265 1_565 S
H368 C373 0.950 . S
H369 C377 0.949 . S
H370 C378 0.950 . S
H371 C379 0.951 . S
H372 C380 0.951 . S
C373 C367 1.265 1_545 S
C373 H368 0.950 . S
C373 C374 1.478 . S
C374 C373 1.478 . S
C374 C375 1.397 . S
C374 C391 1.394 . S
C375 C374 1.397 . S
C375 C376 1.438 . S
C375 C380 1.429 . S
C376 C375 1.438 . S
C376 C377 1.428 . S
C376 C389 1.394 . S
C377 H369 0.949 . S
C377 C376 1.428 . S
C377 C378 1.345 . S
C378 H370 0.950 . S
C378 C377 1.345 . S
C378 C379 1.424 . S
C379 H371 0.951 . S
C379 C378 1.424 . S
C379 C380 1.347 . S
C380 H372 0.951 . S
C380 C375 1.429 . S
C380 C379 1.347 . S
H381 C382 0.951 . S
C382 H381 0.951 . S
C382 C388 1.265 . S
H383 C388 0.950 . S
H384 C392 0.949 . S
H385 C393 0.950 . S
H386 C394 0.951 . S
H387 C395 0.951 . S
C388 C382 1.265 . S
C388 H383 0.950 . S
C388 C389 1.478 . S
C389 C376 1.394 . S
C389 C388 1.478 . S
C389 C390 1.397 . S
C390 C389 1.397 . S
C390 C391 1.438 . S
C390 C395 1.429 . S
C391 C374 1.394 . S
C391 C390 1.438 . S
C391 C392 1.428 . S
C392 H384 0.949 . S
C392 C391 1.428 . S
C392 C393 1.345 . S
C393 H385 0.950 . S
C393 C392 1.345 . S
C393 C394 1.424 . S
C394 H386 0.951 . S
C394 C393 1.424 . S
C394 C395 1.347 . S
C395 H387 0.951 . S
C395 C390 1.429 . S
C395 C394 1.347 . S
H396 C397 0.951 1_565 S
C397 H396 0.951 1_545 S
C397 C403 1.265 . S
H398 C403 0.950 . S
H399 C407 0.949 . S
H400 C408 0.950 1_556 S
H401 C409 0.951 1_556 S
H402 C410 0.951 . S
C403 C397 1.265 . S
C403 H398 0.950 . S
C403 C404 1.478 . S
C404 C403 1.478 . S
C404 C405 1.397 . S
C404 C421 1.394 . S
C405 C404 1.397 . S
C405 C406 1.438 . S
C405 C410 1.429 . S
C406 C405 1.438 . S
C406 C407 1.428 . S
C406 C419 1.394 . S
C407 H399 0.949 . S
C407 C406 1.428 . S
C407 C408 1.345 . S
C408 H400 0.950 1_554 S
C408 C407 1.345 . S
C408 C409 1.424 . S
C409 H401 0.951 1_554 S
C409 C408 1.424 . S
C409 C410 1.347 . S
C410 H402 0.951 . S
C410 C405 1.429 . S
C410 C409 1.347 . S
H411 C412 0.951 . S
C412 H411 0.951 . S
C412 C418 1.265 . S
H413 C418 0.950 . S
H414 C422 0.949 . S
H415 C423 0.950 . S
H416 C424 0.951 . S
H417 C425 0.951 . S
C418 C412 1.265 . S
C418 H413 0.950 . S
C418 C419 1.478 . S
C419 C406 1.394 . S
C419 C418 1.478 . S
C419 C420 1.397 . S
C420 C419 1.397 . S
C420 C421 1.438 . S
C420 C425 1.429 . S
C421 C404 1.394 . S
C421 C420 1.438 . S
C421 C422 1.428 . S
C422 H414 0.949 . S
C422 C421 1.428 . S
C422 C423 1.345 . S
C423 H415 0.950 . S
C423 C422 1.345 . S
C423 C424 1.424 . S
C424 H416 0.951 . S
C424 C423 1.424 . S
C424 C425 1.347 . S
C425 H417 0.951 . S
C425 C420 1.429 . S
C425 C424 1.347 . S
H426 C427 0.951 . S
C427 H426 0.951 . S
C427 C433 1.265 . S
H428 C433 0.950 1_545 S
H429 C437 0.949 . S
H430 C438 0.950 . S
H431 C439 0.951 . S
H432 C440 0.951 . S
C433 C427 1.265 . S
C433 H428 0.950 1_565 S
C433 C434 1.478 . S
C434 C433 1.478 . S
C434 C435 1.397 . S
C434 C451 1.394 . S
C435 C434 1.397 . S
C435 C436 1.438 . S
C435 C440 1.429 . S
C436 C435 1.438 . S
C436 C437 1.428 . S
C436 C449 1.394 . S
C437 H429 0.949 . S
C437 C436 1.428 . S
C437 C438 1.345 . S
C438 H430 0.950 . S
C438 C437 1.345 . S
C438 C439 1.424 . S
C439 H431 0.951 . S
C439 C438 1.424 . S
C439 C440 1.347 . S
C440 H432 0.951 . S
C440 C435 1.429 . S
C440 C439 1.347 . S
H441 C442 0.951 . S
C442 H441 0.951 . S
C442 C448 1.265 . S
H443 C448 0.950 1_655 S
H444 C452 0.949 . S
H445 C453 0.950 . S
H446 C454 0.951 . S
H447 C455 0.951 . S
C448 C442 1.265 . S
C448 H443 0.950 1_455 S
C448 C449 1.478 . S
C449 C436 1.394 . S
C449 C448 1.478 . S
C449 C450 1.397 . S
C450 C449 1.397 . S
C450 C451 1.438 . S
C450 C455 1.429 . S
C451 C434 1.394 . S
C451 C450 1.438 . S
C451 C452 1.428 . S
C452 H444 0.949 . S
C452 C451 1.428 . S
C452 C453 1.345 . S
C453 H445 0.950 . S
C453 C452 1.345 . S
C453 C454 1.424 . S
C454 H446 0.951 . S
C454 C453 1.424 . S
C454 C455 1.347 . S
C455 H447 0.951 . S
C455 C450 1.429 . S
C455 C454 1.347 . S
H456 C457 0.951 . S
C457 H456 0.951 . S
C457 C463 1.265 . S
H458 C463 0.950 . S
H459 C467 0.949 . S
H460 C468 0.950 . S
H461 C469 0.951 . S
H462 C470 0.951 . S
C463 C457 1.265 . S
C463 H458 0.950 . S
C463 C464 1.478 . S
C464 C463 1.478 . S
C464 C465 1.397 . S
C464 C481 1.394 . S
C465 C464 1.397 . S
C465 C466 1.438 . S
C465 C470 1.429 . S
C466 C465 1.438 . S
C466 C467 1.428 . S
C466 C479 1.394 . S
C467 H459 0.949 . S
C467 C466 1.428 . S
C467 C468 1.345 . S
C468 H460 0.950 . S
C468 C467 1.345 . S
C468 C469 1.424 . S
C469 H461 0.951 . S
C469 C468 1.424 . S
C469 C470 1.347 . S
C470 H462 0.951 . S
C470 C465 1.429 . S
C470 C469 1.347 . S
H471 C472 0.951 . S
C472 H471 0.951 . S
C472 C478 1.265 . S
H473 C478 0.950 . S
H474 C482 0.949 . S
H475 C483 0.950 . S
H476 C484 0.951 . S
H477 C485 0.951 . S
C478 C472 1.265 . S
C478 H473 0.950 . S
C478 C479 1.478 . S
C479 C466 1.394 . S
C479 C478 1.478 . S
C479 C480 1.397 . S
C480 C479 1.397 . S
C480 C481 1.438 . S
C480 C485 1.429 . S
C481 C464 1.394 . S
C481 C480 1.438 . S
C481 C482 1.428 . S
C482 H474 0.949 . S
C482 C481 1.428 . S
C482 C483 1.345 . S
C483 H475 0.950 . S
C483 C482 1.345 . S
C483 C484 1.424 . S
C484 H476 0.951 . S
C484 C483 1.424 . S
C484 C485 1.347 . S
C485 H477 0.951 . S
C485 C480 1.429 . S
C485 C484 1.347 . S
H486 C487 0.951 . S
C487 H486 0.951 . S
C487 C493 1.265 . S
H488 C493 0.950 . S
H489 C497 0.949 1_655 S
H490 C498 0.950 . S
H491 C499 0.951 . S
H492 C500 0.951 . S
C493 C487 1.265 . S
C493 H488 0.950 . S
C493 C494 1.478 . S
C494 C493 1.478 . S
C494 C495 1.397 . S
C494 C511 1.394 . S
C495 C494 1.397 . S
C495 C496 1.438 . S
C495 C500 1.429 . S
C496 C495 1.438 . S
C496 C497 1.428 . S
C496 C509 1.394 . S
C497 H489 0.949 1_455 S
C497 C496 1.428 . S
C497 C498 1.345 1_455 S
C498 H490 0.950 . S
C498 C497 1.345 1_655 S
C498 C499 1.424 . S
C499 H491 0.951 . S
C499 C498 1.424 . S
C499 C500 1.347 1_655 S
C500 H492 0.951 . S
C500 C495 1.429 . S
C500 C499 1.347 1_455 S
H501 C502 0.951 . S
C502 H501 0.951 . S
C502 C508 1.265 . S
H503 C508 0.950 . S
H504 C512 0.949 . S
H505 C513 0.950 . S
H506 C514 0.951 . S
H507 C515 0.951 . S
C508 C502 1.265 . S
C508 H503 0.950 . S
C508 C509 1.478 . S
C509 C496 1.394 . S
C509 C508 1.478 . S
C509 C510 1.397 . S
C510 C509 1.397 . S
C510 C511 1.438 . S
C510 C515 1.429 . S
C511 C494 1.394 . S
C511 C510 1.438 . S
C511 C512 1.428 . S
C512 H504 0.949 . S
C512 C511 1.428 . S
C512 C513 1.345 . S
C513 H505 0.950 . S
C513 C512 1.345 . S
C513 C514 1.424 . S
C514 H506 0.951 . S
C514 C513 1.424 . S
C514 C515 1.347 . S
C515 H507 0.951 . S
C515 C510 1.429 . S
C515 C514 1.347 . S
H516 C517 0.951 . S
C517 H516 0.951 . S
C517 C523 1.265 . S
H518 C523 0.950 . S
H519 C527 0.949 . S
H520 C528 0.950 . S
H521 C529 0.951 . S
H522 C530 0.951 . S
C523 C517 1.265 . S
C523 H518 0.950 . S
C523 C524 1.478 . S
C524 C523 1.478 . S
C524 C525 1.397 . S
C524 C541 1.394 . S
C525 C524 1.397 . S
C525 C526 1.438 . S
C525 C530 1.429 . S
C526 C525 1.438 . S
C526 C527 1.428 . S
C526 C539 1.394 . S
C527 H519 0.949 . S
C527 C526 1.428 . S
C527 C528 1.345 . S
C528 H520 0.950 . S
C528 C527 1.345 . S
C528 C529 1.424 . S
C529 H521 0.951 . S
C529 C528 1.424 . S
C529 C530 1.347 . S
C530 H522 0.951 . S
C530 C525 1.429 . S
C530 C529 1.347 . S
H531 C532 0.951 . S
C532 H531 0.951 . S
C532 C538 1.265 . S
H533 C538 0.950 . S
H534 C542 0.949 . S
H535 C543 0.950 . S
H536 C544 0.951 . S
H537 C545 0.951 . S
C538 C532 1.265 . S
C538 H533 0.950 . S
C538 C539 1.478 . S
C539 C526 1.394 . S
C539 C538 1.478 . S
C539 C540 1.397 . S
C540 C539 1.397 . S
C540 C541 1.438 . S
C540 C545 1.429 . S
C541 C524 1.394 . S
C541 C540 1.438 . S
C541 C542 1.428 . S
C542 H534 0.949 . S
C542 C541 1.428 . S
C542 C543 1.345 . S
C543 H535 0.950 . S
C543 C542 1.345 . S
C543 C544 1.424 . S
C544 H536 0.951 . S
C544 C543 1.424 . S
C544 C545 1.347 . S
C545 H537 0.951 . S
C545 C540 1.429 . S
C545 C544 1.347 . S
H546 C547 0.951 . S
C547 H546 0.951 . S
C547 C553 1.265 . S
H548 C553 0.950 . S
H549 C557 0.949 . S
H550 C558 0.950 . S
H551 C559 0.951 . S
H552 C560 0.951 . S
C553 C547 1.265 . S
C553 H548 0.950 . S
C553 C554 1.478 . S
C554 C553 1.478 . S
C554 C555 1.397 . S
C554 C571 1.394 . S
C555 C554 1.397 . S
C555 C556 1.438 . S
C555 C560 1.429 1_545 S
C556 C555 1.438 . S
C556 C557 1.428 . S
C556 C569 1.394 . S
C557 H549 0.949 . S
C557 C556 1.428 . S
C557 C558 1.345 1_545 S
C558 H550 0.950 . S
C558 C557 1.345 1_565 S
C558 C559 1.424 . S
C559 H551 0.951 . S
C559 C558 1.424 . S
C559 C560 1.347 . S
C560 H552 0.951 . S
C560 C555 1.429 1_565 S
C560 C559 1.347 . S
H561 C562 0.951 . S
C562 H561 0.951 . S
C562 C568 1.265 1_554 S
H563 C568 0.950 . S
H564 C572 0.949 . S
H565 C573 0.950 . S
H566 C574 0.951 . S
H567 C575 0.951 . S
C568 C562 1.265 1_556 S
C568 H563 0.950 . S
C568 C569 1.478 . S
C569 C556 1.394 . S
C569 C568 1.478 . S
C569 C570 1.397 . S
C570 C569 1.397 . S
C570 C571 1.438 . S
C570 C575 1.429 . S
C571 C554 1.394 . S
C571 C570 1.438 . S
C571 C572 1.428 . S
C572 H564 0.949 . S
C572 C571 1.428 . S
C572 C573 1.345 . S
C573 H565 0.950 . S
C573 C572 1.345 . S
C573 C574 1.424 . S
C574 H566 0.951 . S
C574 C573 1.424 . S
C574 C575 1.347 . S
C575 H567 0.951 . S
C575 C570 1.429 . S
C575 C574 1.347 . S
H576 C577 0.951 . S
C577 H576 0.951 . S
C577 C583 1.265 . S
H578 C583 0.950 . S
H579 C587 0.949 . S
H580 C588 0.950 . S
H581 C589 0.951 . S
H582 C590 0.951 . S
C583 C577 1.265 . S
C583 H578 0.950 . S
C583 C584 1.478 . S
C584 C583 1.478 . S
C584 C585 1.397 . S
C584 C601 1.394 . S
C585 C584 1.397 . S
C585 C586 1.438 . S
C585 C590 1.429 . S
C586 C585 1.438 . S
C586 C587 1.428 . S
C586 C599 1.394 . S
C587 H579 0.949 . S
C587 C586 1.428 . S
C587 C588 1.345 . S
C588 H580 0.950 . S
C588 C587 1.345 . S
C588 C589 1.424 . S
C589 H581 0.951 . S
C589 C588 1.424 . S
C589 C590 1.347 . S
C590 H582 0.951 . S
C590 C585 1.429 . S
C590 C589 1.347 . S
H591 C592 0.951 . S
C592 H591 0.951 . S
C592 C598 1.265 . S
H593 C598 0.950 . S
H594 C602 0.949 . S
H595 C603 0.950 . S
H596 C604 0.951 . S
H597 C605 0.951 . S
C598 C592 1.265 . S
C598 H593 0.950 . S
C598 C599 1.478 . S
C599 C586 1.394 . S
C599 C598 1.478 . S
C599 C600 1.397 . S
C600 C599 1.397 . S
C600 C601 1.438 . S
C600 C605 1.429 . S
C601 C584 1.394 . S
C601 C600 1.438 . S
C601 C602 1.428 . S
C602 H594 0.949 . S
C602 C601 1.428 . S
C602 C603 1.345 . S
C603 H595 0.950 . S
C603 C602 1.345 . S
C603 C604 1.424 . S
C604 H596 0.951 . S
C604 C603 1.424 . S
C604 C605 1.347 . S
C605 H597 0.951 . S
C605 C600 1.429 . S
C605 C604 1.347 . S
H606 C607 0.951 . S
C607 H606 0.951 . S
C607 C613 1.265 . S
H608 C613 0.950 . S
H609 C617 0.949 . S
H610 C618 0.950 . S
H611 C619 0.951 . S
H612 C620 0.951 . S
C613 C607 1.265 . S
C613 H608 0.950 . S
C613 C614 1.478 . S
C614 C613 1.478 . S
C614 C615 1.397 . S
C614 C631 1.394 1_545 S
C615 C614 1.397 . S
C615 C616 1.438 . S
C615 C620 1.429 . S
C616 C615 1.438 . S
C616 C617 1.428 . S
C616 C629 1.394 1_545 S
C617 H609 0.949 . S
C617 C616 1.428 . S
C617 C618 1.345 . S
C618 H610 0.950 . S
C618 C617 1.345 . S
C618 C619 1.424 . S
C619 H611 0.951 . S
C619 C618 1.424 . S
C619 C620 1.347 . S
C620 H612 0.951 . S
C620 C615 1.429 . S
C620 C619 1.347 . S
H621 C622 0.951 . S
C622 H621 0.951 . S
C622 C628 1.265 . S
H623 C628 0.950 . S
H624 C632 0.949 . S
H625 C633 0.950 . S
H626 C634 0.951 . S
H627 C635 0.951 . S
C628 C622 1.265 . S
C628 H623 0.950 . S
C628 C629 1.478 . S
C629 C616 1.394 1_565 S
C629 C628 1.478 . S
C629 C630 1.397 . S
C630 C629 1.397 . S
C630 C631 1.438 . S
C630 C635 1.429 . S
C631 C614 1.394 1_565 S
C631 C630 1.438 . S
C631 C632 1.428 . S
C632 H624 0.949 . S
C632 C631 1.428 . S
C632 C633 1.345 . S
C633 H625 0.950 . S
C633 C632 1.345 . S
C633 C634 1.424 1_455 S
C634 H626 0.951 . S
C634 C633 1.424 1_655 S
C634 C635 1.347 1_655 S
C635 H627 0.951 . S
C635 C630 1.429 . S
C635 C634 1.347 1_455 S
H636 C637 0.951 . S
C637 H636 0.951 . S
C637 C643 1.265 1_545 S
H638 C643 0.950 . S
H639 C647 0.949 . S
H640 C648 0.950 . S
H641 C649 0.951 . S
H642 C650 0.951 . S
C643 C637 1.265 1_565 S
C643 H638 0.950 . S
C643 C644 1.478 . S
C644 C643 1.478 . S
C644 C645 1.397 1_665 S
C644 C661 1.394 . S
C645 C644 1.397 1_445 S
C645 C646 1.438 . S
C645 C650 1.429 . S
C646 C645 1.438 . S
C646 C647 1.428 . S
C646 C659 1.394 1_545 S
C647 H639 0.949 . S
C647 C646 1.428 . S
C647 C648 1.345 . S
C648 H640 0.950 . S
C648 C647 1.345 . S
C648 C649 1.424 . S
C649 H641 0.951 . S
C649 C648 1.424 . S
C649 C650 1.347 . S
C650 H642 0.951 . S
C650 C645 1.429 . S
C650 C649 1.347 . S
H651 C652 0.951 . S
C652 H651 0.951 . S
C652 C658 1.265 . S
H653 C658 0.950 1_545 S
H654 C662 0.949 . S
H655 C663 0.950 . S
H656 C664 0.951 . S
H657 C665 0.951 . S
C658 C652 1.265 . S
C658 H653 0.950 1_565 S
C658 C659 1.478 . S
C659 C646 1.394 1_565 S
C659 C658 1.478 . S
C659 C660 1.397 1_455 S
C660 C659 1.397 1_655 S
C660 C661 1.438 . S
C660 C665 1.429 . S
C661 C644 1.394 . S
C661 C660 1.438 . S
C661 C662 1.428 . S
C662 H654 0.949 . S
C662 C661 1.428 . S
C662 C663 1.345 . S
C663 H655 0.950 . S
C663 C662 1.345 . S
C663 C664 1.424 . S
C664 H656 0.951 . S
C664 C663 1.424 . S
C664 C665 1.347 . S
C665 H657 0.951 . S
C665 C660 1.429 . S
C665 C664 1.347 . S
H666 C667 0.951 1_455 S
C667 H666 0.951 1_655 S
C667 C673 1.265 . S
H668 C673 0.950 . S
H669 C677 0.949 . S
H670 C678 0.950 1_565 S
H671 C679 0.951 . S
H672 C680 0.951 1_565 S
C673 C667 1.265 . S
C673 H668 0.950 . S
C673 C674 1.478 . S
C674 C673 1.478 . S
C674 C675 1.397 . S
C674 C691 1.394 1_655 S
C675 C674 1.397 . S
C675 C676 1.438 . S
C675 C680 1.429 . S
C676 C675 1.438 . S
C676 C677 1.428 . S
C676 C689 1.394 1_655 S
C677 H669 0.949 . S
C677 C676 1.428 . S
C677 C678 1.345 . S
C678 H670 0.950 1_545 S
C678 C677 1.345 . S
C678 C679 1.424 1_545 S
C679 H671 0.951 . S
C679 C678 1.424 1_565 S
C679 C680 1.347 1_565 S
C680 H672 0.951 1_545 S
C680 C675 1.429 . S
C680 C679 1.347 1_545 S
H681 C682 0.951 . S
C682 H681 0.951 . S
C682 C688 1.265 . S
H683 C688 0.950 . S
H684 C692 0.949 . S
H685 C693 0.950 . S
H686 C694 0.951 . S
H687 C695 0.951 . S
C688 C682 1.265 . S
C688 H683 0.950 . S
C688 C689 1.478 . S
C689 C676 1.394 1_455 S
C689 C688 1.478 . S
C689 C690 1.397 . S
C690 C689 1.397 . S
C690 C691 1.438 . S
C690 C695 1.429 . S
C691 C674 1.394 1_455 S
C691 C690 1.438 . S
C691 C692 1.428 . S
C692 H684 0.949 . S
C692 C691 1.428 . S
C692 C693 1.345 . S
C693 H685 0.950 . S
C693 C692 1.345 . S
C693 C694 1.424 . S
C694 H686 0.951 . S
C694 C693 1.424 . S
C694 C695 1.347 . S
C695 H687 0.951 . S
C695 C690 1.429 . S
C695 C694 1.347 . S
C337 C224 0.738 . S
C352 C68 0.738 . S
C367 C308 0.815 . S
C382 C152 0.815 . S
C397 C236 1.738 1_545 S
C412 C56 1.738 . S
C427 C140 1.643 . S
C442 C320 1.643 1_455 S
C457 C151 1.994 . S
C472 C67 2.035 . S
C487 C139 1.143 . S
C502 C226 1.121 . S
C517 C322 1.740 . S
C532 C238 1.774 . S
C547 C310 1.040 . S
C562 C55 1.155 . S
C577 C223 1.985 1_556 S
C592 C307 2.029 . S
C607 C70 0.880 . S
C622 C319 1.224 . S
C637 C142 1.710 . S
C652 C58 1.721 . S
C667 C235 1.154 . S
C682 C154 1.044 . S
