# Generated by pormake.
# Topology tsi, (8)-cn, num edge types: 1
# Building blocks:
#     Node 0, Type 0, BuildingBlock: LIZSOE_clean_sbu_0, # of connection points: 8
#     Node 1, Type 0, BuildingBlock: LIZSOE_clean_sbu_0, # of connection points: 8
#     Node 2, Type 0, BuildingBlock: LIZSOE_clean_sbu_0, # of connection points: 8
#     Node 3, Type 0, BuildingBlock: LIZSOE_clean_sbu_0, # of connection points: 8
#     Edge 4, Type (0, 0), BuildingBlock: EZIPEK_clean_linker_0, # of connection points: 2
#     Edge 5, Type (0, 0), BuildingBlock: EZIPEK_clean_linker_0, # of connection points: 2
#     Edge 6, Type (0, 0), BuildingBlock: EZIPEK_clean_linker_0, # of connection points: 2
#     Edge 7, Type (0, 0), BuildingBlock: EZIPEK_clean_linker_0, # of connection points: 2
#     Edge 8, Type (0, 0), BuildingBlock: EZIPEK_clean_linker_0, # of connection points: 2
#     Edge 9, Type (0, 0), BuildingBlock: EZIPEK_clean_linker_0, # of connection points: 2
#     Edge 10, Type (0, 0), BuildingBlock: EZIPEK_clean_linker_0, # of connection points: 2
#     Edge 11, Type (0, 0), BuildingBlock: EZIPEK_clean_linker_0, # of connection points: 2
#     Edge 12, Type (0, 0), BuildingBlock: EZIPEK_clean_linker_0, # of connection points: 2
#     Edge 13, Type (0, 0), BuildingBlock: EZIPEK_clean_linker_0, # of connection points: 2
#     Edge 14, Type (0, 0), BuildingBlock: EZIPEK_clean_linker_0, # of connection points: 2
#     Edge 15, Type (0, 0), BuildingBlock: EZIPEK_clean_linker_0, # of connection points: 2
#     Edge 16, Type (0, 0), BuildingBlock: EZIPEK_clean_linker_0, # of connection points: 2
#     Edge 17, Type (0, 0), BuildingBlock: EZIPEK_clean_linker_0, # of connection points: 2
#     Edge 18, Type (0, 0), BuildingBlock: EZIPEK_clean_linker_0, # of connection points: 2
#     Edge 19, Type (0, 0), BuildingBlock: EZIPEK_clean_linker_0, # of connection points: 2
# Relax obj value: 0.284
# Max RMSD: 0.259
# Mean RMSD: 0.255
data_MOF--net-tsi--node1-LIZSOE_clean_sbu_0--edge1-EZIPEK_clean_linker_0
_symmetry_space_group_name_H-M    P1
_symmetry_Int_Tables_number       1
_symmetry_cell_setting            triclinic
loop_
_symmetry_equiv_pos_as_xyz
'x, y, z'
_cell_length_a     11.5288
_cell_length_b     11.614676
_cell_length_c     50.447143
_cell_angle_alpha  101.03049
_cell_angle_beta   101.31828
_cell_angle_gamma 90.035711
loop_
_atom_site_label
_atom_site_type_symbol
_atom_site_fract_x
_atom_site_fract_y
_atom_site_fract_z
_atom_type_partial_charge
Co0 Co 0.3325 0.46358 0.51852 0.0
N1 N 0.46297 0.40937 0.53928 0.0
C2 C 0.57516 0.45544 0.54592 0.0
N3 N 0.58098 0.29036 0.5612 0.0
C4 C 0.46913 0.3102 0.54945 0.0
C5 C 0.64843 0.38113 0.55903 0.0
Co6 Co 1.03297 0.59233 0.40312 0.0
N7 N 0.92689 0.66544 0.37926 0.0
N8 N 0.81855 0.67803 0.33774 0.0
C9 C 0.89476 0.77138 0.34614 0.0
C10 C 0.96078 0.76358 0.3716 0.0
C11 C 0.83742 0.61666 0.35835 0.0
Co12 Co 0.17339 0.52153 0.46138 0.0
C13 C 0.09881 0.43151 0.3998 0.0
H14 H 1.0385 0.81817 0.38209 0.0
O15 O 0.20991 0.52358 0.5022 0.0
O16 O 1.00057 0.516 0.46339 0.0
O17 O 0.17506 0.34355 0.45593 0.0
O18 O 0.34236 0.52843 0.45682 0.0
O19 O 0.43728 0.50014 0.49692 0.0
O20 O 0.91338 0.56528 0.42338 0.0
O21 O 0.13474 0.51459 0.42123 0.0
O22 O 0.0778 0.73593 0.42711 0.0
O23 O 0.29614 0.31452 0.49508 0.0
O24 O 0.34863 0.6098 0.53819 0.0
O25 O 0.17483 0.70022 0.46782 0.0
O26 O 1.00575 0.44956 0.38214 0.0
C27 C 0.22848 0.27584 0.47166 0.0
C28 C 0.77344 0.50203 0.35669 0.0
H29 H 0.77776 0.48163 0.37741 0.0
H30 H 0.67927 0.50534 0.3465 0.0
H31 H 0.81343 0.43059 0.34387 0.0
C32 C 0.90812 0.53633 0.44634 0.0
C33 C 0.4384 0.51925 0.47328 0.0
H34 H 0.60273 0.536 0.54076 0.0
H35 H 0.37048 0.19699 0.56694 0.0
H36 H 0.36134 0.15487 0.53039 0.0
H37 H 0.2813 0.27827 0.54359 0.0
C38 C 0.36399 0.23095 0.54759 0.0
C39 C 0.23755 0.59881 0.52565 0.0
C40 C 0.13505 0.77107 0.45165 0.0
H41 H 0.74358 0.39125 0.56588 0.0
H42 H 0.90956 0.83384 0.33362 0.0
Co43 Co 0.2067 0.55431 0.74106 0.0
N44 N 0.12438 0.44886 0.75492 0.0
C45 C 0.17465 0.34908 0.76097 0.0
N46 N 1.00021 0.34698 0.77159 0.0
C47 C 1.01761 0.4459 0.76213 0.0
C48 C 0.09786 0.28534 0.77048 0.0
Co49 Co 0.37264 0.71052 0.63695 0.0
N50 N 0.48386 0.76578 0.62011 0.0
N51 N 0.58728 0.87861 0.60116 0.0
C52 C 0.64893 0.78233 0.60406 0.0
C53 C 0.58472 0.71258 0.61563 0.0
C54 C 0.48726 0.8661 0.6105 0.0
Co55 Co 0.28111 0.65056 0.69077 0.0
C56 C 0.26971 0.57556 0.62683 0.0
H57 H 0.61079 0.62886 0.62081 0.0
O58 O 0.29188 0.65878 0.73209 0.0
O59 O 0.30836 0.82807 0.69773 0.0
O60 O 0.10603 0.67067 0.6848 0.0
O61 O 0.25736 0.47109 0.68127 0.0
O62 O 0.27613 0.42847 0.72277 0.0
O63 O 0.36307 0.85798 0.65896 0.0
O64 O 0.26518 0.64992 0.64983 0.0
O65 O 0.49971 0.67799 0.66226 0.0
O66 O 0.07396 0.54732 0.71115 0.0
O67 O 0.14427 0.6836 0.75616 0.0
O68 O 0.45779 0.6289 0.69909 0.0
O69 O 0.37044 0.56367 0.61874 0.0
C70 C 1.03478 0.61136 0.69381 0.0
C71 C 0.38997 0.95154 0.609 0.0
H72 H 0.31021 0.91811 0.61454 0.0
H73 H 0.42168 1.03614 0.6229 0.0
H74 H 0.36685 0.96961 0.58782 0.0
C75 C 0.33525 0.89675 0.68226 0.0
C76 C 0.274 0.39695 0.69738 0.0
H77 H 0.26357 0.32427 0.75921 0.0
H78 H 0.84365 0.51641 0.76275 0.0
H79 H 0.93315 0.58793 0.74469 0.0
H80 H 0.96691 0.61264 0.7816 0.0
C81 C 0.93498 0.54578 0.76263 0.0
C82 C 0.24614 0.7184 0.7526 0.0
C83 C 0.53271 0.64708 0.68488 0.0
H84 H 0.11512 0.20404 0.77781 0.0
H85 H 0.73386 0.76453 0.59837 0.0
Co86 Co 0.31074 0.91592 0.97233 0.0
N87 N 0.21953 1.03541 0.98805 0.0
C88 C 0.10013 1.03191 0.98438 0.0
N89 N 0.16386 0.1369 1.02608 0.0
C90 C 0.25509 0.10552 1.01335 0.0
C91 C 1.0659 0.09278 1.00771 0.0
Co92 Co 0.45506 0.58336 0.87286 0.0
N93 N 0.52864 0.45833 0.85474 0.0
N94 N 0.6323 0.3446 0.82765 0.0
C95 C 0.54636 0.27665 0.8318 0.0
C96 C 0.48173 0.34691 0.84805 0.0
C97 C 0.62117 0.45387 0.84184 0.0
Co98 Co 0.395 0.75624 0.92684 0.0
C99 C 0.42007 0.74355 0.86597 0.0
H100 H 0.40199 0.31833 0.85357 0.0
O101 O 0.40831 0.80499 0.96548 0.0
O102 O 0.57204 0.7653 0.93214 0.0
O103 O 0.39362 0.92922 0.92384 0.0
O104 O 0.21422 0.7471 0.92378 0.0
O105 O 0.19101 0.80167 0.96801 0.0
O106 O 0.59375 0.61188 0.90024 0.0
O107 O 0.37496 0.70612 0.88523 0.0
O108 O 0.39501 0.4804 0.89123 0.0
O109 O 0.42029 1.0232 0.9683 0.0
O110 O 0.38821 0.8889 1.0066 0.0
O111 O 0.40003 0.58917 0.93275 0.0
O112 O 0.51395 0.69481 0.85935 0.0
C113 C 0.41452 1.02425 0.94265 0.0
C114 C 0.69696 0.55912 0.8416 0.0
H115 H 0.71952 0.61508 0.86245 0.0
H116 H 0.78028 0.53498 0.83456 0.0
H117 H 0.64727 0.61112 0.82712 0.0
C118 C 0.63731 0.69093 0.92072 0.0
C119 C 0.15037 0.75448 0.94263 0.0
H120 H 1.04195 0.97512 0.9678 0.0
H121 H 0.41217 0.0737 1.04168 0.0
H122 H 0.38799 0.22424 1.041 0.0
H123 H 0.44224 0.13487 1.01326 0.0
C124 C 0.38188 0.13556 1.02774 0.0
C125 C 0.43699 0.80913 0.99166 0.0
C126 C 0.39346 0.48956 0.91655 0.0
H127 H 0.97768 0.09218 1.01209 0.0
H128 H 0.53023 0.18395 0.82315 0.0
Co129 Co 0.35836 0.32203 0.24776 0.0
N130 N 0.29691 0.23383 0.26944 0.0
C131 C 0.32198 0.12332 0.27295 0.0
N132 N 0.25351 0.20755 0.30956 0.0
C133 C 0.25472 0.28257 0.29197 0.0
C134 C 0.29542 0.10716 0.29748 0.0
Co135 Co 0.4847 0.4453 0.13383 0.0
N136 N 0.57565 0.50471 0.1125 0.0
N137 N 0.61343 0.57585 0.07651 0.0
C138 C 0.7113 0.52525 0.08759 0.0
C139 C 0.6881 0.4819 0.10971 0.0
C140 C 0.53264 0.56212 0.09201 0.0
Co141 Co 0.41645 0.3896 0.1908 0.0
C142 C 0.39522 0.29334 0.12919 0.0
H143 H 0.74743 0.43053 0.12176 0.0
O144 O 0.42915 0.40816 0.23126 0.0
O145 O 0.43208 0.56668 0.19554 0.0
O146 O 0.23952 0.39498 0.18661 0.0
O147 O 0.40408 0.21294 0.18449 0.0
O148 O 0.39937 0.18218 0.22629 0.0
O149 O 0.477 0.59514 0.15581 0.0
O150 O 0.39482 0.37868 0.15018 0.0
O151 O 0.62623 0.41583 0.15742 0.0
O152 O 0.20797 0.3212 0.22311 0.0
O153 O 0.5026 0.33662 0.26897 0.0
O154 O 0.59268 0.38027 0.19686 0.0
O155 O 0.47735 0.29816 0.11489 0.0
C156 C 0.17022 0.36004 0.20087 0.0
C157 C 0.40634 0.59641 0.08596 0.0
H158 H 0.36776 0.60705 0.10472 0.0
H159 H 0.39988 0.67897 0.07781 0.0
H160 H 0.35419 0.52605 0.07008 0.0
C161 C 0.45342 0.63502 0.17956 0.0
C162 C 0.40889 0.14417 0.20156 0.0
H163 H 0.36937 1.06236 0.26039 0.0
H164 H 0.31468 0.46134 0.30743 0.0
H165 H 0.16942 0.42797 0.31299 0.0
H166 H 0.19143 0.44059 0.2789 0.0
C167 C 0.2301 0.4105 0.29824 0.0
C168 C 0.51581 0.40505 0.25206 0.0
C169 C 0.66289 0.3914 0.18096 0.0
H170 H 0.31554 1.0314 0.30693 0.0
H171 H 0.79157 0.51531 0.0794 0.0
C172 C 0.15483 0.69943 0.56635 0.0
C173 C 0.15975 0.59685 0.54641 0.0
C174 C 0.15121 0.4766 0.58116 0.0
C175 C 0.17408 0.57893 0.60197 0.0
N176 N 0.12288 0.78083 0.61255 0.0
N177 N 0.08601 0.39592 0.53223 0.0
C178 C 0.15011 0.68877 0.59394 0.0
C179 C 0.13195 0.48739 0.55289 0.0
N180 N 0.15811 0.80588 0.55887 0.0
N181 N 0.1542 0.36985 0.58869 0.0
H182 H 1.0617 0.4065 0.51186 0.0
H183 H 1.05847 0.31564 0.53571 0.0
H184 H 0.16575 0.36289 0.60939 0.0
H185 H 0.14725 0.29028 0.57476 0.0
H186 H 0.15983 0.88566 0.57249 0.0
H187 H 0.15885 0.8125 0.53853 0.0
H188 H 0.0978 0.86146 0.6076 0.0
H189 H 0.11228 0.77103 0.63208 0.0
C190 C 0.69712 0.29346 0.78331 0.0
C191 C 0.72219 0.30805 0.81239 0.0
C192 C 0.93203 0.33316 0.81411 0.0
C193 C 0.90801 0.32152 0.78509 0.0
N194 N 0.77618 0.26033 0.74138 0.0
N195 N 0.85982 0.30368 0.85435 0.0
C196 C 0.79289 0.29055 0.7694 0.0
C197 C 0.83924 0.31245 0.82725 0.0
N198 N 0.58261 0.28964 0.76939 0.0
N199 N 1.04039 0.37418 0.82927 0.0
H200 H 0.79096 0.29038 0.86428 0.0
H201 H 0.94421 0.29891 0.86602 0.0
H202 H 0.11056 0.39267 0.82042 0.0
H203 H 1.05648 0.40119 0.85058 0.0
H204 H 0.55885 0.29256 0.74852 0.0
H205 H 0.511 0.28855 0.77914 0.0
H206 H 0.69572 0.22726 0.72883 0.0
H207 H 0.84616 0.25965 0.73098 0.0
C208 C 0.61381 0.77134 1.02478 0.0
C209 C 0.51037 0.72482 1.00547 0.0
C210 C 0.50962 0.55677 1.02824 0.0
C211 C 0.59327 0.61766 1.05088 0.0
N212 N 0.72784 0.78344 0.0712 0.0
N213 N 0.35379 0.57508 0.98993 0.0
C214 C 0.64852 0.72404 1.04907 0.0
C215 C 0.45795 0.61647 1.00711 0.0
N216 N 0.67562 0.86335 1.02017 0.0
N217 N 0.47884 0.44245 1.02731 0.0
H218 H 0.31346 0.61732 0.97438 0.0
H219 H 0.30469 0.50356 0.99223 0.0
H220 H 0.51745 0.39747 1.04264 0.0
H221 H 0.42517 0.3901 1.0102 0.0
H222 H 0.7566 0.89679 1.03239 0.0
H223 H 0.65026 0.89842 1.00239 0.0
H224 H 0.76225 0.86747 0.07224 0.0
H225 H 0.75338 0.75145 0.08934 0.0
C226 C 0.80311 0.54268 0.29303 0.0
C227 C 0.75583 0.6348 0.30992 0.0
C228 C 0.56902 0.61071 0.27641 0.0
C229 C 0.6067 0.50159 0.26324 0.0
N230 N 0.76155 0.3663 0.25757 0.0
N231 N 0.59955 0.76451 0.31758 0.0
C232 C 0.72588 0.47038 0.27059 0.0
C233 C 0.64138 0.67332 0.30113 0.0
N234 N 0.92108 0.52283 0.2992 0.0
N235 N 0.46184 0.65121 0.26612 0.0
H236 H 0.65249 0.81231 0.33551 0.0
H237 H 0.51201 0.78946 0.31435 0.0
H238 H 0.40493 0.60529 0.24878 0.0
H239 H 0.43354 0.73441 0.27326 0.0
H240 H 0.96365 0.46313 0.28655 0.0
H241 H 0.97817 0.57401 0.31594 0.0
H242 H 0.84311 0.33098 0.26372 0.0
H243 H 0.70576 0.31235 0.24112 0.0
C244 C 0.14904 0.18755 0.34734 0.0
C245 C 0.24201 0.23744 0.33806 0.0
C246 C 0.28033 0.39037 0.37948 0.0
C247 C 0.18014 0.34699 0.38786 0.0
N248 N 1.05142 0.18202 0.38576 0.0
N249 N 0.42711 0.34764 0.35086 0.0
C250 C 0.12768 0.23591 0.37402 0.0
C251 C 0.31894 0.32499 0.3563 0.0
N252 N 0.07651 0.10036 0.33005 0.0
N253 N 0.33123 0.49891 0.39135 0.0
H254 H 0.45622 0.2999 0.33382 0.0
H255 H 0.49136 0.4042 0.36467 0.0
H256 H 0.30868 0.55198 0.40842 0.0
H257 H 0.39318 0.53926 0.38321 0.0
H258 H 1.00006 0.06826 0.33469 0.0
H259 H 0.08942 1.06493 0.31028 0.0
H260 H 1.01505 0.09749 0.37766 0.0
H261 H 1.03415 0.21932 0.40508 0.0
C262 C 0.34911 0.64622 0.79305 0.0
C263 C 0.32225 0.74552 0.78101 0.0
C264 C 0.33997 0.85968 0.82863 0.0
C265 C 0.34191 0.75361 0.83896 0.0
N266 N 0.29799 0.54527 0.82683 0.0
N267 N 0.28162 0.9512 0.78847 0.0
C268 C 0.32471 0.64699 0.81937 0.0
C269 C 0.31421 0.85434 0.79922 0.0
N270 N 0.39781 0.55164 0.77956 0.0
N271 N 0.36408 0.96402 0.8467 0.0
H272 H 0.2678 0.9491 0.76728 0.0
H273 H 0.26461 1.0305 0.80047 0.0
H274 H 0.37877 0.96856 0.86798 0.0
H275 H 0.37377 1.04346 0.84048 0.0
H276 H 0.42325 0.47954 0.78857 0.0
H277 H 0.4273 0.55404 0.76141 0.0
H278 H 0.28893 0.46477 0.81315 0.0
H279 H 0.2742 0.54507 0.84573 0.0
C280 C 0.21497 0.08373 0.07194 0.0
C281 C 0.17506 0.1682 1.05561 0.0
C282 C 0.20978 0.32176 0.09711 0.0
C283 C 0.2801 0.24405 0.11148 0.0
N284 N 0.32294 1.04707 0.11591 0.0
N285 N 0.12363 0.36529 1.05227 0.0
C286 C 0.27167 0.12279 0.1 0.0
C287 C 0.16635 0.28633 0.06824 0.0
N288 N 0.2023 0.96731 1.06007 0.0
N289 N 0.18693 0.42939 0.11099 0.0
H290 H 0.08969 0.33962 1.03117 0.0
H291 H 0.12688 0.45561 1.05957 0.0
H292 H 0.21226 0.45397 0.13234 0.0
H293 H 0.13143 0.48794 0.10196 0.0
H294 H 0.22595 0.89962 0.07065 0.0
H295 H 0.16096 0.93813 1.03952 0.0
H296 H 0.3321 0.95802 0.10885 0.0
H297 H 0.35439 0.07633 0.13692 0.0
C298 C 0.65361 0.1885 0.59945 0.0
C299 C 0.6197 0.18597 0.57086 0.0
C300 C 0.58235 0.97526 0.56195 0.0
C301 C 0.61934 0.9763 0.59031 0.0
N302 N 0.71391 0.07628 0.63547 0.0
N303 N 0.58805 0.07572 0.52451 0.0
C304 C 0.66477 0.0807 0.60883 0.0
C305 C 0.59817 0.07819 0.55199 0.0
N306 N 0.66468 0.29307 0.61758 0.0
N307 N 0.52089 0.88003 0.54509 0.0
H308 H 0.59924 0.1517 0.51691 0.0
H309 H 0.5797 0.99759 0.50998 0.0
H310 H 0.50835 0.80222 0.5518 0.0
H311 H 0.47445 0.88319 0.52531 0.0
H312 H 0.67139 0.29883 0.63864 0.0
H313 H 0.65727 0.3737 0.61133 0.0
H314 H 0.7561 0.14844 0.64961 0.0
H315 H 0.7202 0.99748 0.64265 0.0
C316 C 0.0858 0.10109 0.46326 0.0
C317 C 0.20212 0.14635 0.46459 0.0
C318 C 0.27722 0.94722 0.4629 0.0
C319 C 0.16035 0.90046 0.46019 0.0
N320 N 0.95069 0.93155 0.45436 0.0
N321 N 0.40856 0.11094 0.46468 0.0
C322 C 1.06403 0.97732 0.45943 0.0
C323 C 0.29723 0.06887 0.46419 0.0
N324 N 0.99692 0.1765 0.46726 0.0
N325 N 0.3722 0.87738 0.46318 0.0
H326 H 0.42778 0.1986 0.46458 0.0
H327 H 0.48085 1.05703 0.46426 0.0
H328 H 0.36806 0.78684 0.46209 0.0
H329 H 0.36806 0.78684 0.46209 0.0
H330 H 0.91503 0.15053 0.47038 0.0
H331 H 1.00668 0.26707 0.46943 0.0
H332 H 0.8759 0.97952 0.4495 0.0
H333 H 0.93087 0.84314 0.45343 0.0
C334 C 0.7141 0.52807 0.69012 0.0
C335 C 0.66315 0.63885 0.69396 0.0
C336 C 0.85067 0.73365 0.69142 0.0
C337 C 0.9024 0.62212 0.68728 0.0
N338 N 0.87384 0.41326 0.67518 0.0
N339 N 0.69085 0.84742 0.70675 0.0
C340 C 0.83083 0.51923 0.68459 0.0
C341 C 0.73428 0.74173 0.69711 0.0
N342 N 0.65124 0.43243 0.69248 0.0
N343 N 0.90869 0.83085 0.68818 0.0
H344 H 0.60781 0.85332 0.71217 0.0
H345 H 0.74082 0.92615 0.71223 0.0
H346 H 0.98724 0.82696 0.68097 0.0
H347 H 0.87122 0.91261 0.68876 0.0
H348 H 0.68351 0.3484 0.69117 0.0
H349 H 0.5701 0.44087 0.69871 0.0
H350 H 0.83213 0.33274 0.67397 0.0
H351 H 0.94976 0.40766 0.66667 0.0
C352 C 0.30047 0.29152 0.91255 0.0
C353 C 0.38947 0.3777 0.92683 0.0
C354 C 0.50202 0.2276 0.94828 0.0
C355 C 0.41149 0.14173 0.93455 0.0
N356 N 0.21802 0.09454 0.90502 0.0
N357 N 0.56415 0.43304 0.96252 0.0
C358 C 0.30939 0.17421 0.91692 0.0
C359 C 0.48655 0.34755 0.94613 0.0
N360 N 0.20735 0.32211 0.89425 0.0
N361 N 0.6062 0.19294 0.96215 0.0
H362 H 0.56003 0.521 0.961 0.0
H363 H 0.62767 0.41869 0.97919 0.0
H364 H 0.62214 0.10537 0.96325 0.0
H365 H 0.68109 0.2482 0.97013 0.0
H366 H 0.15171 0.26151 0.8793 0.0
H367 H 0.18857 0.4094 0.89343 0.0
H368 H 0.13352 0.11703 0.89641 0.0
H369 H 0.2248 1.00506 0.90401 0.0
C370 C 0.98672 0.47895 0.19333 0.0
C371 C 1.03933 0.36792 0.19235 0.0
C372 C 0.84548 0.27458 0.18973 0.0
C373 C 0.79299 0.38472 0.19024 0.0
N374 N 0.81701 0.59415 0.20148 0.0
N375 N 1.01287 0.15831 0.18076 0.0
C376 C 0.86474 0.48779 0.19449 0.0
C377 C 0.96692 0.26507 0.18823 0.0
N378 N 1.0511 0.5746 0.19151 0.0
N379 N 0.78098 0.18076 0.1924 0.0
H380 H 0.09772 0.15124 0.17642 0.0
H381 H 0.96291 0.07957 0.17533 0.0
H382 H 0.6965 0.1903 0.1967 0.0
H383 H 0.81625 0.09951 0.19429 0.0
H384 H 1.01547 0.65595 0.18996 0.0
H385 H 0.13624 0.56846 0.18769 0.0
H386 H 0.86606 0.67339 0.2074 0.0
H387 H 0.73015 0.60092 0.20457 0.0
C388 C 0.22002 0.07618 0.69736 0.0
C389 C 0.32364 1.02734 0.68916 0.0
C390 C 0.37246 0.21688 0.67748 0.0
C391 C 0.27466 0.26717 0.68749 0.0
N392 N 0.09074 0.23437 0.70172 0.0
N393 N 0.51364 1.06366 0.67824 0.0
C394 C 0.19495 0.19405 0.69574 0.0
C395 C 0.40385 0.10139 0.68105 0.0
N396 N 0.14386 1.01257 0.70716 0.0
N397 N 0.43216 0.27699 0.66329 0.0
H398 H 0.54158 0.98119 0.68126 0.0
H399 H 0.58051 0.11872 0.67581 0.0
H400 H 0.4082 0.35991 0.65959 0.0
H401 H 0.49616 0.23932 0.65274 0.0
H402 H 1.06715 1.04704 0.71309 0.0
H403 H 0.15809 0.92891 0.71113 0.0
H404 H 1.0628 0.31862 0.70047 0.0
H405 H 1.0628 0.31862 0.70047 0.0
C406 C 0.84136 0.61402 0.93454 0.0
C407 C 0.76898 0.70706 0.92718 0.0
C408 C 0.94639 0.81477 0.92317 0.0
C409 C 1.01951 0.73006 0.93428 0.0
N410 N 1.0381 0.54851 0.95067 0.0
N411 N 0.7534 0.89801 0.9145 0.0
C412 C 0.9672 0.62959 0.94004 0.0
C413 C 0.82186 0.80807 0.92157 0.0
N414 N 0.79003 0.50893 0.9353 0.0
N415 N 0.9962 0.90134 0.91366 0.0
H416 H 0.66126 0.89338 0.91003 0.0
H417 H 0.78795 0.98066 0.91435 0.0
H418 H 0.08704 0.91265 0.91595 0.0
H419 H 0.9482 0.95678 0.90202 0.0
H420 H 0.83697 0.43358 0.93739 0.0
H421 H 0.69892 0.49373 0.93162 0.0
H422 H 1.00738 0.48188 0.959 0.0
H423 H 0.1293 0.5505 0.95192 0.0
C424 C 0.35476 0.81991 0.20047 0.0
C425 C 0.44647 0.76667 0.18751 0.0
C426 C 0.50131 0.96059 0.17899 0.0
C427 C 0.41298 1.01351 0.19277 0.0
N428 N 0.23186 0.98652 0.20823 0.0
N429 N 0.62775 0.79688 0.17188 0.0
C430 C 0.33372 0.94107 0.20127 0.0
C431 C 0.52486 0.84003 0.17869 0.0
N432 N 0.28978 0.75813 0.21333 0.0
N433 N 0.55927 1.02271 0.1648 0.0
H434 H 0.653 0.71147 0.17257 0.0
H435 H 0.69522 0.84933 0.16875 0.0
H436 H 0.54408 0.10988 0.16364 0.0
H437 H 0.61277 0.98418 0.15141 0.0
H438 H 0.23782 0.79781 0.22697 0.0
H439 H 0.29373 0.66915 0.21289 0.0
H440 H 0.16105 0.93553 0.21031 0.0
H441 H 0.21222 0.0744 0.20929 0.0
C442 C 0.75783 0.61811 0.4744 0.0
C443 C 0.78897 0.5296 0.45367 0.0
C444 C 0.58684 0.43948 0.44386 0.0
C445 C 0.55619 0.5271 0.465 0.0
N446 N 0.61381 0.6941 0.50178 0.0
N447 N 0.74042 0.34939 0.42053 0.0
C448 C 0.64243 0.61462 0.48062 0.0
C449 C 0.70494 0.43889 0.43874 0.0
N450 N 0.8376 0.7083 0.48746 0.0
N451 N 0.50357 0.35526 0.42913 0.0
H452 H 0.82635 0.34541 0.4168 0.0
H453 H 0.68838 0.27528 0.41012 0.0
H454 H 0.41965 0.34763 0.43354 0.0
H455 H 0.51444 0.2949 0.41181 0.0
H456 H 0.81715 0.78389 0.50017 0.0
H457 H 0.92452 0.71112 0.48455 0.0
H458 H 0.67509 0.74949 0.51663 0.0
H459 H 0.52774 0.70091 0.50518 0.0
loop_
_geom_bond_atom_site_label_1
_geom_bond_atom_site_label_2
_geom_bond_distance
_geom_bond_site_symmetry_2
_ccdc_geom_bond_type
Co0 N1 2.034 . S
Co0 O15 2.262 . S
Co0 O19 1.958 . S
Co0 O23 1.950 . S
Co0 O24 2.057 . S
N1 Co0 2.034 . S
N1 C2 1.366 . S
N1 C4 1.332 . S
C2 N1 1.366 . S
C2 C5 1.377 . S
C2 H34 0.931 . S
N3 C4 1.346 . S
N3 C5 1.337 . S
C4 N1 1.332 . S
C4 N3 1.346 . S
C4 C38 1.361 . S
C5 C2 1.377 . S
C5 N3 1.337 . S
C5 H41 0.930 . S
Co6 N7 2.034 . S
Co6 O20 1.950 . S
Co6 O21 2.262 1_655 S
Co6 O22 1.958 1_655 S
Co6 O26 2.057 1_655 S
N7 Co6 2.034 . S
N7 C10 1.366 . S
N7 C11 1.332 . S
N8 C9 1.337 . S
N8 C11 1.346 . S
C9 N8 1.337 . S
C9 C10 1.377 . S
C9 H42 0.930 . S
C10 N7 1.366 . S
C10 C9 1.377 . S
C10 H14 0.931 . S
C11 N7 1.332 . S
C11 N8 1.346 . S
C11 C28 1.361 . S
Co12 O15 2.097 . S
Co12 O16 2.065 1_455 S
Co12 O17 2.065 . S
Co12 O18 2.042 . S
Co12 O21 2.097 . S
Co12 O25 2.042 . S
C13 O21 1.253 . S
C13 O26 1.263 . S
H14 C10 0.931 . S
O15 Co0 2.262 . S
O15 Co12 2.097 . S
O15 C39 1.253 . S
O16 Co12 2.065 1_655 S
O16 C32 1.221 . S
O17 Co12 2.065 . S
O17 C27 1.221 . S
O18 Co12 2.042 . S
O18 C33 1.237 . S
O19 Co0 1.958 . S
O19 C33 1.278 . S
O20 Co6 1.950 . S
O20 C32 1.277 . S
O21 Co6 2.262 1_455 S
O21 Co12 2.097 . S
O21 C13 1.253 . S
O22 Co6 1.958 1_455 S
O22 C40 1.278 . S
O23 Co0 1.950 . S
O23 C27 1.277 . S
O24 Co0 2.057 . S
O24 C39 1.263 . S
O25 Co12 2.042 . S
O25 C40 1.237 . S
O26 Co6 2.057 1_455 S
O26 C13 1.263 . S
C27 O17 1.221 . S
C27 O23 1.277 . S
C28 C11 1.361 . S
C28 H29 0.960 . S
C28 H30 0.961 . S
C28 H31 0.961 . S
H29 C28 0.960 . S
H30 C28 0.961 . S
H31 C28 0.961 . S
C32 O16 1.221 . S
C32 O20 1.277 . S
C33 O18 1.237 . S
C33 O19 1.278 . S
H34 C2 0.931 . S
H35 C38 0.961 . S
H36 C38 0.961 . S
H37 C38 0.960 . S
C38 C4 1.361 . S
C38 H35 0.961 . S
C38 H36 0.961 . S
C38 H37 0.960 . S
C39 O15 1.253 . S
C39 O24 1.263 . S
C40 O22 1.278 . S
C40 O25 1.237 . S
H41 C5 0.930 . S
H42 C9 0.930 . S
Co43 N44 2.034 . S
Co43 O58 2.262 . S
Co43 O62 1.958 . S
Co43 O66 1.950 1_455 S
Co43 O67 2.057 . S
N44 Co43 2.034 . S
N44 C45 1.366 . S
N44 C47 1.332 1_455 S
C45 N44 1.366 . S
C45 C48 1.377 1_455 S
C45 H77 0.931 . S
N46 C47 1.346 . S
N46 C48 1.337 . S
C47 N44 1.332 1_655 S
C47 N46 1.346 . S
C47 C81 1.361 . S
C48 C45 1.377 1_655 S
C48 N46 1.337 . S
C48 H84 0.930 . S
Co49 N50 2.034 . S
Co49 O63 1.950 . S
Co49 O64 2.262 . S
Co49 O65 1.958 . S
Co49 O69 2.057 . S
N50 Co49 2.034 . S
N50 C53 1.366 . S
N50 C54 1.332 . S
N51 C52 1.337 . S
N51 C54 1.346 . S
C52 N51 1.337 . S
C52 C53 1.377 . S
C52 H85 0.930 . S
C53 N50 1.366 . S
C53 C52 1.377 . S
C53 H57 0.931 . S
C54 N50 1.332 . S
C54 N51 1.346 . S
C54 C71 1.361 . S
Co55 O58 2.097 . S
Co55 O59 2.065 . S
Co55 O60 2.065 . S
Co55 O61 2.042 . S
Co55 O64 2.097 . S
Co55 O68 2.042 . S
C56 O64 1.253 . S
C56 O69 1.263 . S
H57 C53 0.931 . S
O58 Co43 2.262 . S
O58 Co55 2.097 . S
O58 C82 1.253 . S
O59 Co55 2.065 . S
O59 C75 1.221 . S
O60 Co55 2.065 . S
O60 C70 1.221 1_455 S
O61 Co55 2.042 . S
O61 C76 1.237 . S
O62 Co43 1.958 . S
O62 C76 1.278 . S
O63 Co49 1.950 . S
O63 C75 1.277 . S
O64 Co49 2.262 . S
O64 Co55 2.097 . S
O64 C56 1.253 . S
O65 Co49 1.958 . S
O65 C83 1.278 . S
O66 Co43 1.950 1_655 S
O66 C70 1.277 . S
O67 Co43 2.057 . S
O67 C82 1.263 . S
O68 Co55 2.042 . S
O68 C83 1.237 . S
O69 Co49 2.057 . S
O69 C56 1.263 . S
C70 O60 1.221 1_655 S
C70 O66 1.277 . S
C71 C54 1.361 . S
C71 H72 0.960 . S
C71 H73 0.961 . S
C71 H74 0.961 . S
H72 C71 0.960 . S
H73 C71 0.961 . S
H74 C71 0.961 . S
C75 O59 1.221 . S
C75 O63 1.277 . S
C76 O61 1.237 . S
C76 O62 1.278 . S
H77 C45 0.931 . S
H78 C81 0.961 . S
H79 C81 0.961 . S
H80 C81 0.960 . S
C81 C47 1.361 . S
C81 H78 0.961 . S
C81 H79 0.961 . S
C81 H80 0.960 . S
C82 O58 1.253 . S
C82 O67 1.263 . S
C83 O65 1.278 . S
C83 O68 1.237 . S
H84 C48 0.930 . S
H85 C52 0.930 . S
Co86 N87 2.034 . S
Co86 O101 2.262 . S
Co86 O105 1.958 . S
Co86 O109 1.950 . S
Co86 O110 2.057 . S
N87 Co86 2.034 . S
N87 C88 1.374 . S
N87 C90 1.332 . S
C88 N87 1.374 . S
C88 C91 1.375 1_455 S
C88 H120 0.927 1_455 S
N89 C90 1.346 1_545 S
N89 C91 1.337 1_445 S
C90 N87 1.332 . S
C90 N89 1.346 1_565 S
C90 C124 1.361 1_565 S
C91 C88 1.375 1_655 S
C91 N89 1.337 1_665 S
C91 H127 0.930 . S
Co92 N93 2.034 . S
Co92 O106 1.950 . S
Co92 O107 2.262 . S
Co92 O108 1.958 . S
Co92 O112 2.057 . S
N93 Co92 2.034 . S
N93 C96 1.366 . S
N93 C97 1.332 . S
N94 C95 1.337 . S
N94 C97 1.346 . S
C95 N94 1.337 . S
C95 C96 1.377 . S
C95 H128 0.930 . S
C96 N93 1.366 . S
C96 C95 1.377 . S
C96 H100 0.931 . S
C97 N93 1.332 . S
C97 N94 1.346 . S
C97 C114 1.361 . S
Co98 O101 2.097 . S
Co98 O102 2.065 . S
Co98 O103 2.065 . S
Co98 O104 2.042 . S
Co98 O107 2.097 . S
Co98 O111 2.042 . S
C99 O107 1.253 . S
C99 O112 1.263 . S
H100 C96 0.931 . S
O101 Co86 2.262 . S
O101 Co98 2.097 . S
O101 C125 1.253 . S
O102 Co98 2.065 . S
O102 C118 1.221 . S
O103 Co98 2.065 . S
O103 C113 1.221 . S
O104 Co98 2.042 . S
O104 C119 1.237 . S
O105 Co86 1.958 . S
O105 C119 1.278 . S
O106 Co92 1.950 . S
O106 C118 1.277 . S
O107 Co92 2.262 . S
O107 Co98 2.097 . S
O107 C99 1.253 . S
O108 Co92 1.958 . S
O108 C126 1.278 . S
O109 Co86 1.950 . S
O109 C113 1.277 . S
O110 Co86 2.057 . S
O110 C125 1.263 . S
O111 Co98 2.042 . S
O111 C126 1.237 . S
O112 Co92 2.057 . S
O112 C99 1.263 . S
C113 O103 1.221 . S
C113 O109 1.277 . S
C114 C97 1.361 . S
C114 H115 0.960 . S
C114 H116 0.961 . S
C114 H117 0.961 . S
H115 C114 0.960 . S
H116 C114 0.961 . S
H117 C114 0.961 . S
C118 O102 1.221 . S
C118 O106 1.277 . S
C119 O104 1.237 . S
C119 O105 1.278 . S
H120 C88 0.927 1_655 S
H121 C124 0.961 . S
H122 C124 0.961 . S
H123 C124 0.960 1_565 S
C124 C90 1.361 1_545 S
C124 H121 0.961 . S
C124 H122 0.961 . S
C124 H123 0.960 1_545 S
C125 O101 1.253 . S
C125 O110 1.263 . S
C126 O108 1.278 . S
C126 O111 1.237 . S
H127 C91 0.930 . S
H128 C95 0.930 . S
Co129 N130 2.034 . S
Co129 O144 2.262 . S
Co129 O148 1.958 . S
Co129 O152 1.950 . S
Co129 O153 2.057 . S
N130 Co129 2.034 . S
N130 C131 1.366 . S
N130 C133 1.332 . S
C131 N130 1.366 . S
C131 C134 1.377 . S
C131 H163 0.931 . S
N132 C133 1.346 . S
N132 C134 1.337 . S
C133 N130 1.332 . S
C133 N132 1.346 . S
C133 C167 1.361 . S
C134 C131 1.377 . S
C134 N132 1.337 . S
C134 H170 0.930 . S
Co135 N136 2.034 . S
Co135 O149 1.950 . S
Co135 O150 2.262 . S
Co135 O151 1.958 . S
Co135 O155 2.057 . S
N136 Co135 2.034 . S
N136 C139 1.366 . S
N136 C140 1.332 . S
N137 C138 1.337 . S
N137 C140 1.346 . S
C138 N137 1.337 . S
C138 C139 1.377 . S
C138 H171 0.930 . S
C139 N136 1.366 . S
C139 C138 1.377 . S
C139 H143 0.931 . S
C140 N136 1.332 . S
C140 N137 1.346 . S
C140 C157 1.361 . S
Co141 O144 2.097 . S
Co141 O145 2.065 . S
Co141 O146 2.065 . S
Co141 O147 2.042 . S
Co141 O150 2.097 . S
Co141 O154 2.042 . S
C142 O150 1.253 . S
C142 O155 1.263 . S
H143 C139 0.931 . S
O144 Co129 2.262 . S
O144 Co141 2.097 . S
O144 C168 1.253 . S
O145 Co141 2.065 . S
O145 C161 1.221 . S
O146 Co141 2.065 . S
O146 C156 1.221 . S
O147 Co141 2.042 . S
O147 C162 1.237 . S
O148 Co129 1.958 . S
O148 C162 1.278 . S
O149 Co135 1.950 . S
O149 C161 1.277 . S
O150 Co135 2.262 . S
O150 Co141 2.097 . S
O150 C142 1.253 . S
O151 Co135 1.958 . S
O151 C169 1.278 . S
O152 Co129 1.950 . S
O152 C156 1.277 . S
O153 Co129 2.057 . S
O153 C168 1.263 . S
O154 Co141 2.042 . S
O154 C169 1.237 . S
O155 Co135 2.057 . S
O155 C142 1.263 . S
C156 O146 1.221 . S
C156 O152 1.277 . S
C157 C140 1.361 . S
C157 H158 0.960 . S
C157 H159 0.961 . S
C157 H160 0.961 . S
H158 C157 0.960 . S
H159 C157 0.961 . S
H160 C157 0.961 . S
C161 O145 1.221 . S
C161 O149 1.277 . S
C162 O147 1.237 . S
C162 O148 1.278 . S
H163 C131 0.931 . S
H164 C167 0.961 . S
H165 C167 0.961 . S
H166 C167 0.960 . S
C167 C133 1.361 . S
C167 H164 0.961 . S
C167 H165 0.961 . S
C167 H166 0.960 . S
C168 O144 1.253 . S
C168 O153 1.263 . S
C169 O151 1.278 . S
C169 O154 1.237 . S
H170 C134 0.930 . S
H171 C138 0.930 . S
C172 C173 1.363 . S
C172 C178 1.379 . S
C172 N180 1.356 . S
C173 C172 1.363 . S
C173 C179 1.363 . S
C174 C175 1.363 . S
C174 C179 1.379 . S
C174 N181 1.356 . S
C175 C174 1.363 . S
C175 C178 1.363 . S
N176 C178 1.356 . S
N176 H188 0.984 . S
N176 H189 0.985 . S
N177 C179 1.356 1_655 S
N177 H182 0.984 . S
N177 H183 0.985 . S
C178 C172 1.379 . S
C178 C175 1.363 . S
C178 N176 1.356 . S
C179 C173 1.363 . S
C179 C174 1.379 . S
C179 N177 1.356 1_455 S
N180 C172 1.356 . S
N180 H186 0.984 . S
N180 H187 0.984 . S
N181 C174 1.356 . S
N181 H184 0.984 . S
N181 H185 0.985 1_455 S
H182 N177 0.984 . S
H183 N177 0.985 . S
H184 N181 0.984 . S
H185 N181 0.985 1_655 S
H186 N180 0.984 . S
H187 N180 0.984 . S
H188 N176 0.984 . S
H189 N176 0.985 . S
C190 C191 1.363 . S
C190 C196 1.379 . S
C190 N198 1.356 . S
C191 C190 1.363 . S
C191 C197 1.363 . S
C192 C193 1.363 . S
C192 C197 1.379 . S
C192 N199 1.356 . S
C193 C192 1.363 . S
C193 C196 1.363 . S
N194 C196 1.356 . S
N194 H206 0.984 . S
N194 H207 0.985 . S
N195 C197 1.356 . S
N195 H200 0.984 . S
N195 H201 0.985 . S
C196 C190 1.379 . S
C196 C193 1.363 . S
C196 N194 1.356 . S
C197 C191 1.363 . S
C197 C192 1.379 . S
C197 N195 1.356 . S
N198 C190 1.356 . S
N198 H204 0.984 . S
N198 H205 0.984 . S
N199 C192 1.356 . S
N199 H202 0.984 1_655 S
N199 H203 0.985 . S
H200 N195 0.984 . S
H201 N195 0.985 . S
H202 N199 0.984 1_455 S
H203 N199 0.985 . S
H204 N198 0.984 . S
H205 N198 0.984 . S
H206 N194 0.984 . S
H207 N194 0.985 . S
C208 C209 1.363 . S
C208 C214 1.379 . S
C208 N216 1.356 . S
C209 C208 1.363 . S
C209 C215 1.363 . S
C210 C211 1.363 . S
C210 C215 1.379 . S
C210 N217 1.356 . S
C211 C210 1.363 . S
C211 C214 1.363 . S
N212 C214 1.356 1_554 S
N212 H224 0.984 . S
N212 H225 0.985 . S
N213 C215 1.356 . S
N213 H218 0.984 . S
N213 H219 0.985 . S
C214 C208 1.379 . S
C214 C211 1.363 . S
C214 N212 1.356 1_556 S
C215 C209 1.363 . S
C215 C210 1.379 . S
C215 N213 1.356 . S
N216 C208 1.356 . S
N216 H222 0.984 . S
N216 H223 0.984 . S
N217 C210 1.356 . S
N217 H220 0.984 1_556 S
N217 H221 0.985 . S
H218 N213 0.984 . S
H219 N213 0.985 . S
H220 N217 0.984 1_554 S
H221 N217 0.985 . S
H222 N216 0.984 . S
H223 N216 0.984 . S
H224 N212 0.984 . S
H225 N212 0.985 . S
C226 C227 1.363 . S
C226 C232 1.379 . S
C226 N234 1.356 . S
C227 C226 1.363 . S
C227 C233 1.363 . S
C228 C229 1.363 . S
C228 C233 1.379 . S
C228 N235 1.356 . S
C229 C228 1.363 . S
C229 C232 1.363 . S
N230 C232 1.356 . S
N230 H242 0.984 . S
N230 H243 0.985 . S
N231 C233 1.356 . S
N231 H236 0.984 . S
N231 H237 0.985 . S
C232 C226 1.379 . S
C232 C229 1.363 . S
C232 N230 1.356 . S
C233 C227 1.363 . S
C233 C228 1.379 . S
C233 N231 1.356 . S
N234 C226 1.356 . S
N234 H240 0.984 . S
N234 H241 0.984 . S
N235 C228 1.356 . S
N235 H238 0.984 . S
N235 H239 0.985 . S
H236 N231 0.984 . S
H237 N231 0.985 . S
H238 N235 0.984 . S
H239 N235 0.985 . S
H240 N234 0.984 . S
H241 N234 0.984 . S
H242 N230 0.984 . S
H243 N230 0.985 . S
C244 C245 1.363 . S
C244 C250 1.379 . S
C244 N252 1.356 1_455 S
C245 C244 1.363 . S
C245 C251 1.363 . S
C246 C247 1.363 . S
C246 C251 1.379 . S
C246 N253 1.356 . S
C247 C246 1.363 . S
C247 C250 1.363 . S
N248 C250 1.356 1_655 S
N248 H260 0.984 . S
N248 H261 0.985 1_655 S
N249 C251 1.356 . S
N249 H254 0.984 . S
N249 H255 0.985 . S
C250 C244 1.379 . S
C250 C247 1.363 . S
C250 N248 1.356 1_455 S
C251 C245 1.363 . S
C251 C246 1.379 . S
C251 N249 1.356 . S
N252 C244 1.356 1_655 S
N252 H258 0.984 . S
N252 H259 0.984 1_655 S
N253 C246 1.356 . S
N253 H256 0.984 . S
N253 H257 0.985 . S
H254 N249 0.984 . S
H255 N249 0.985 . S
H256 N253 0.984 . S
H257 N253 0.985 . S
H258 N252 0.984 . S
H259 N252 0.984 1_455 S
H260 N248 0.984 . S
H261 N248 0.985 1_455 S
C262 C263 1.363 . S
C262 C268 1.379 . S
C262 N270 1.356 . S
C263 C262 1.363 . S
C263 C269 1.363 . S
C264 C265 1.363 . S
C264 C269 1.379 . S
C264 N271 1.356 . S
C265 C264 1.363 . S
C265 C268 1.363 . S
N266 C268 1.356 . S
N266 H278 0.984 . S
N266 H279 0.985 . S
N267 C269 1.356 . S
N267 H272 0.984 . S
N267 H273 0.985 . S
C268 C262 1.379 . S
C268 C265 1.363 . S
C268 N266 1.356 . S
C269 C263 1.363 . S
C269 C264 1.379 . S
C269 N267 1.356 . S
N270 C262 1.356 . S
N270 H276 0.984 . S
N270 H277 0.984 . S
N271 C264 1.356 . S
N271 H274 0.984 . S
N271 H275 0.985 . S
H272 N267 0.984 . S
H273 N267 0.985 . S
H274 N271 0.984 . S
H275 N271 0.985 . S
H276 N270 0.984 . S
H277 N270 0.984 . S
H278 N266 0.984 . S
H279 N266 0.985 . S
C280 C281 1.363 1_554 S
C280 C286 1.379 . S
C280 N288 1.356 1_545 S
C281 C280 1.363 1_556 S
C281 C287 1.363 . S
C282 C283 1.363 . S
C282 C287 1.379 1_554 S
C282 N289 1.356 . S
C283 C282 1.363 . S
C283 C286 1.363 . S
N284 C286 1.356 . S
N284 H296 0.984 . S
N284 H297 0.985 . S
N285 C287 1.356 . S
N285 H290 0.984 . S
N285 H291 0.985 . S
C286 C280 1.379 . S
C286 C283 1.363 . S
C286 N284 1.356 . S
C287 C281 1.363 . S
C287 C282 1.379 1_556 S
C287 N285 1.356 . S
N288 C280 1.356 1_565 S
N288 H294 0.984 1_455 S
N288 H295 0.984 1_554 S
N289 C282 1.356 . S
N289 H292 0.984 . S
N289 H293 0.985 . S
H290 N285 0.984 . S
H291 N285 0.985 . S
H292 N289 0.984 . S
H293 N289 0.985 . S
H294 N288 0.984 1_655 S
H295 N288 0.984 1_556 S
H296 N284 0.984 . S
H297 N284 0.985 . S
C298 C299 1.363 . S
C298 C304 1.379 1_545 S
C298 N306 1.356 . S
C299 C298 1.363 . S
C299 C305 1.363 1_545 S
C300 C301 1.363 . S
C300 C305 1.379 . S
C300 N307 1.356 . S
C301 C300 1.363 . S
C301 C304 1.363 . S
N302 C304 1.356 . S
N302 H314 0.984 1_565 S
N302 H315 0.985 . S
N303 C305 1.356 . S
N303 H308 0.984 1_565 S
N303 H309 0.985 . S
C304 C298 1.379 1_565 S
C304 C301 1.363 . S
C304 N302 1.356 . S
C305 C299 1.363 1_565 S
C305 C300 1.379 . S
C305 N303 1.356 . S
N306 C298 1.356 . S
N306 H312 0.984 . S
N306 H313 0.984 . S
N307 C300 1.356 . S
N307 H310 0.984 . S
N307 H311 0.985 . S
H308 N303 0.984 1_545 S
H309 N303 0.985 . S
H310 N307 0.984 . S
H311 N307 0.985 . S
H312 N306 0.984 . S
H313 N306 0.984 . S
H314 N302 0.984 1_545 S
H315 N302 0.985 . S
C316 C317 1.363 . S
C316 C322 1.379 1_545 S
C316 N324 1.356 . S
C317 C316 1.363 . S
C317 C323 1.363 1_545 S
C318 C319 1.363 . S
C318 C323 1.379 . S
C318 N325 1.356 . S
C319 C318 1.363 . S
C319 C322 1.363 . S
N320 C322 1.356 . S
N320 H332 0.984 . S
N320 H333 0.985 . S
N321 C323 1.356 1_655 S
N321 H326 0.984 1_565 S
N321 H327 0.985 . S
C322 C316 1.379 1_565 S
C322 C319 1.363 . S
C322 N320 1.356 . S
C323 C317 1.363 1_565 S
C323 C318 1.379 . S
C323 N321 1.356 1_455 S
N324 C316 1.356 . S
N324 H330 0.984 . S
N324 H331 0.984 . S
N325 C318 1.356 . S
N325 H328 0.984 . S
N325 H329 0.985 1_455 S
H326 N321 0.984 1_545 S
H327 N321 0.985 . S
H328 N325 0.984 . S
H329 N325 0.985 1_655 S
H330 N324 0.984 . S
H331 N324 0.984 . S
H332 N320 0.984 . S
H333 N320 0.985 . S
C334 C335 1.363 . S
C334 C340 1.379 . S
C334 N342 1.356 . S
C335 C334 1.363 . S
C335 C341 1.363 . S
C336 C337 1.363 . S
C336 C341 1.379 . S
C336 N343 1.356 . S
C337 C336 1.363 . S
C337 C340 1.363 . S
N338 C340 1.356 . S
N338 H350 0.984 . S
N338 H351 0.985 . S
N339 C341 1.356 . S
N339 H344 0.984 . S
N339 H345 0.985 . S
C340 C334 1.379 . S
C340 C337 1.363 . S
C340 N338 1.356 . S
C341 C335 1.363 . S
C341 C336 1.379 . S
C341 N339 1.356 . S
N342 C334 1.356 . S
N342 H348 0.984 . S
N342 H349 0.984 . S
N343 C336 1.356 . S
N343 H346 0.984 . S
N343 H347 0.985 . S
H344 N339 0.984 . S
H345 N339 0.985 . S
H346 N343 0.984 . S
H347 N343 0.985 . S
H348 N342 0.984 . S
H349 N342 0.984 . S
H350 N338 0.984 . S
H351 N338 0.985 . S
C352 C353 1.363 . S
C352 C358 1.379 . S
C352 N360 1.356 . S
C353 C352 1.363 . S
C353 C359 1.363 . S
C354 C355 1.363 . S
C354 C359 1.379 . S
C354 N361 1.356 . S
C355 C354 1.363 . S
C355 C358 1.363 . S
N356 C358 1.356 1_565 S
N356 H368 0.984 . S
N356 H369 0.985 . S
N357 C359 1.356 . S
N357 H362 0.984 . S
N357 H363 0.985 . S
C358 C352 1.379 . S
C358 C355 1.363 . S
C358 N356 1.356 1_545 S
C359 C353 1.363 . S
C359 C354 1.379 . S
C359 N357 1.356 . S
N360 C352 1.356 . S
N360 H366 0.984 . S
N360 H367 0.984 . S
N361 C354 1.356 . S
N361 H364 0.984 . S
N361 H365 0.985 . S
H362 N357 0.984 . S
H363 N357 0.985 . S
H364 N361 0.984 . S
H365 N361 0.985 . S
H366 N360 0.984 . S
H367 N360 0.984 . S
H368 N356 0.984 . S
H369 N356 0.985 . S
C370 C371 1.363 . S
C370 C376 1.379 . S
C370 N378 1.356 . S
C371 C370 1.363 . S
C371 C377 1.363 . S
C372 C373 1.363 . S
C372 C377 1.379 . S
C372 N379 1.356 . S
C373 C372 1.363 . S
C373 C376 1.363 . S
N374 C376 1.356 . S
N374 H386 0.984 . S
N374 H387 0.985 . S
N375 C377 1.356 . S
N375 H380 0.984 1_655 S
N375 H381 0.985 . S
C376 C370 1.379 . S
C376 C373 1.363 . S
C376 N374 1.356 . S
C377 C371 1.363 . S
C377 C372 1.379 . S
C377 N375 1.356 . S
N378 C370 1.356 . S
N378 H384 0.984 . S
N378 H385 0.984 1_655 S
N379 C372 1.356 . S
N379 H382 0.984 . S
N379 H383 0.985 . S
H380 N375 0.984 1_455 S
H381 N375 0.985 . S
H382 N379 0.984 . S
H383 N379 0.985 . S
H384 N378 0.984 . S
H385 N378 0.984 1_455 S
H386 N374 0.984 . S
H387 N374 0.985 . S
C388 C389 1.363 . S
C388 C394 1.379 1_565 S
C388 N396 1.356 . S
C389 C388 1.363 . S
C389 C395 1.363 . S
C390 C391 1.363 . S
C390 C395 1.379 1_545 S
C390 N397 1.356 . S
C391 C390 1.363 . S
C391 C394 1.363 . S
N392 C394 1.356 . S
N392 H404 0.984 . S
N392 H405 0.985 . S
N393 C395 1.356 . S
N393 H398 0.984 . S
N393 H399 0.985 . S
C394 C388 1.379 1_545 S
C394 C391 1.363 . S
C394 N392 1.356 . S
C395 C389 1.363 . S
C395 C390 1.379 1_565 S
C395 N393 1.356 . S
N396 C388 1.356 . S
N396 H402 0.984 . S
N396 H403 0.984 . S
N397 C390 1.356 . S
N397 H400 0.984 . S
N397 H401 0.985 . S
H398 N393 0.984 . S
H399 N393 0.985 . S
H400 N397 0.984 . S
H401 N397 0.985 . S
H402 N396 0.984 . S
H403 N396 0.984 . S
H404 N392 0.984 . S
H405 N392 0.985 . S
C406 C407 1.363 . S
C406 C412 1.379 . S
C406 N414 1.356 . S
C407 C406 1.363 . S
C407 C413 1.363 . S
C408 C409 1.363 . S
C408 C413 1.379 . S
C408 N415 1.356 1_655 S
C409 C408 1.363 . S
C409 C412 1.363 . S
N410 C412 1.356 . S
N410 H422 0.984 . S
N410 H423 0.985 1_655 S
N411 C413 1.356 . S
N411 H416 0.984 . S
N411 H417 0.985 . S
C412 C406 1.379 . S
C412 C409 1.363 . S
C412 N410 1.356 . S
C413 C407 1.363 . S
C413 C408 1.379 . S
C413 N411 1.356 . S
N414 C406 1.356 . S
N414 H420 0.984 . S
N414 H421 0.984 . S
N415 C408 1.356 1_455 S
N415 H418 0.984 . S
N415 H419 0.985 . S
H416 N411 0.984 . S
H417 N411 0.985 . S
H418 N415 0.984 . S
H419 N415 0.985 . S
H420 N414 0.984 . S
H421 N414 0.984 . S
H422 N410 0.984 . S
H423 N410 0.985 1_455 S
C424 C425 1.363 . S
C424 C430 1.379 . S
C424 N432 1.356 . S
C425 C424 1.363 . S
C425 C431 1.363 . S
C426 C427 1.363 1_565 S
C426 C431 1.379 . S
C426 N433 1.356 1_565 S
C427 C426 1.363 1_545 S
C427 C430 1.363 1_545 S
N428 C430 1.356 1_545 S
N428 H440 0.984 . S
N428 H441 0.985 . S
N429 C431 1.356 . S
N429 H434 0.984 . S
N429 H435 0.985 . S
C430 C424 1.379 . S
C430 C427 1.363 1_565 S
C430 N428 1.356 1_565 S
C431 C425 1.363 . S
C431 C426 1.379 . S
C431 N429 1.356 . S
N432 C424 1.356 . S
N432 H438 0.984 . S
N432 H439 0.984 . S
N433 C426 1.356 1_545 S
N433 H436 0.984 . S
N433 H437 0.985 . S
H434 N429 0.984 . S
H435 N429 0.985 . S
H436 N433 0.984 . S
H437 N433 0.985 . S
H438 N432 0.984 . S
H439 N432 0.984 . S
H440 N428 0.984 . S
H441 N428 0.985 . S
C442 C443 1.363 . S
C442 C448 1.379 . S
C442 N450 1.356 . S
C443 C442 1.363 . S
C443 C449 1.363 . S
C444 C445 1.363 . S
C444 C449 1.379 . S
C444 N451 1.356 . S
C445 C444 1.363 . S
C445 C448 1.363 . S
N446 C448 1.356 . S
N446 H458 0.984 . S
N446 H459 0.985 . S
N447 C449 1.356 . S
N447 H452 0.984 . S
N447 H453 0.985 . S
C448 C442 1.379 . S
C448 C445 1.363 . S
C448 N446 1.356 . S
C449 C443 1.363 . S
C449 C444 1.379 . S
C449 N447 1.356 . S
N450 C442 1.356 . S
N450 H456 0.984 . S
N450 H457 0.984 . S
N451 C444 1.356 . S
N451 H454 0.984 . S
N451 H455 0.985 . S
H452 N447 0.984 . S
H453 N447 0.985 . S
H454 N451 0.984 . S
H455 N451 0.985 . S
H456 N450 0.984 . S
H457 N450 0.984 . S
H458 N446 0.984 . S
H459 N446 0.985 . S
C173 C39 2.059 . S
C175 C56 2.050 . S
C191 N94 1.349 . S
C193 N46 1.342 . S
C209 C125 1.394 . S
C211 N137 1.614 1_556 S
C227 N8 1.858 . S
C229 C168 1.673 . S
C245 N132 1.614 . S
C247 C13 1.394 . S
C263 C82 2.050 . S
C265 C99 2.059 . S
C281 N89 1.858 . S
C283 C142 1.673 . S
C299 N3 1.349 . S
C301 N51 1.342 . S
C317 C27 1.485 . S
C319 C40 1.487 . S
C335 C83 1.494 . S
C337 C70 1.493 . S
C353 C126 1.734 . S
C355 C113 1.712 1_545 S
C371 C156 1.577 1_655 S
C373 C169 1.591 . S
C389 C75 1.493 . S
C391 C76 1.494 . S
C407 C118 1.485 . S
C409 C119 1.487 1_655 S
C425 C161 1.577 . S
C427 C162 1.591 . S
C443 C32 1.712 . S
C445 C33 1.734 . S
