# Generated by pormake.
# Topology snz, (6)-cn, num edge types: 1
# Building blocks:
#     Node 0, Type 0, BuildingBlock: VOLQOD_clean_sbu_1, # of connection points: 6
#     Node 1, Type 0, BuildingBlock: VOLQOD_clean_sbu_1, # of connection points: 6
#     Node 2, Type 0, BuildingBlock: VOLQOD_clean_sbu_1, # of connection points: 6
#     Node 3, Type 0, BuildingBlock: VOLQOD_clean_sbu_1, # of connection points: 6
#     Node 4, Type 0, BuildingBlock: VOLQOD_clean_sbu_1, # of connection points: 6
#     Node 5, Type 0, BuildingBlock: VOLQOD_clean_sbu_1, # of connection points: 6
#     Node 6, Type 0, BuildingBlock: VOLQOD_clean_sbu_1, # of connection points: 6
#     Node 7, Type 0, BuildingBlock: VOLQOD_clean_sbu_1, # of connection points: 6
#     Node 8, Type 0, BuildingBlock: VOLQOD_clean_sbu_1, # of connection points: 6
#     Edge 9, Type (0, 0), BuildingBlock: KIFKEQ_clean_linker_1, # of connection points: 2
#     Edge 10, Type (0, 0), BuildingBlock: KIFKEQ_clean_linker_1, # of connection points: 2
#     Edge 11, Type (0, 0), BuildingBlock: KIFKEQ_clean_linker_1, # of connection points: 2
#     Edge 12, Type (0, 0), BuildingBlock: KIFKEQ_clean_linker_1, # of connection points: 2
#     Edge 13, Type (0, 0), BuildingBlock: KIFKEQ_clean_linker_1, # of connection points: 2
#     Edge 14, Type (0, 0), BuildingBlock: KIFKEQ_clean_linker_1, # of connection points: 2
#     Edge 15, Type (0, 0), BuildingBlock: KIFKEQ_clean_linker_1, # of connection points: 2
#     Edge 16, Type (0, 0), BuildingBlock: KIFKEQ_clean_linker_1, # of connection points: 2
#     Edge 17, Type (0, 0), BuildingBlock: KIFKEQ_clean_linker_1, # of connection points: 2
#     Edge 18, Type (0, 0), BuildingBlock: KIFKEQ_clean_linker_1, # of connection points: 2
#     Edge 19, Type (0, 0), BuildingBlock: KIFKEQ_clean_linker_1, # of connection points: 2
#     Edge 20, Type (0, 0), BuildingBlock: KIFKEQ_clean_linker_1, # of connection points: 2
#     Edge 21, Type (0, 0), BuildingBlock: KIFKEQ_clean_linker_1, # of connection points: 2
#     Edge 22, Type (0, 0), BuildingBlock: KIFKEQ_clean_linker_1, # of connection points: 2
#     Edge 23, Type (0, 0), BuildingBlock: KIFKEQ_clean_linker_1, # of connection points: 2
#     Edge 24, Type (0, 0), BuildingBlock: KIFKEQ_clean_linker_1, # of connection points: 2
#     Edge 25, Type (0, 0), BuildingBlock: KIFKEQ_clean_linker_1, # of connection points: 2
#     Edge 26, Type (0, 0), BuildingBlock: KIFKEQ_clean_linker_1, # of connection points: 2
#     Edge 27, Type (0, 0), BuildingBlock: KIFKEQ_clean_linker_1, # of connection points: 2
#     Edge 28, Type (0, 0), BuildingBlock: KIFKEQ_clean_linker_1, # of connection points: 2
#     Edge 29, Type (0, 0), BuildingBlock: KIFKEQ_clean_linker_1, # of connection points: 2
#     Edge 30, Type (0, 0), BuildingBlock: KIFKEQ_clean_linker_1, # of connection points: 2
#     Edge 31, Type (0, 0), BuildingBlock: KIFKEQ_clean_linker_1, # of connection points: 2
#     Edge 32, Type (0, 0), BuildingBlock: KIFKEQ_clean_linker_1, # of connection points: 2
#     Edge 33, Type (0, 0), BuildingBlock: KIFKEQ_clean_linker_1, # of connection points: 2
#     Edge 34, Type (0, 0), BuildingBlock: KIFKEQ_clean_linker_1, # of connection points: 2
#     Edge 35, Type (0, 0), BuildingBlock: KIFKEQ_clean_linker_1, # of connection points: 2
# Relax obj value: 0.409
# Max RMSD: 0.302
# Mean RMSD: 0.293
data_MOF--net-snz--node1-VOLQOD_clean_sbu_1--edge1-KIFKEQ_clean_linker_1
_symmetry_space_group_name_H-M    P1
_symmetry_Int_Tables_number       1
_symmetry_cell_setting            triclinic
loop_
_symmetry_equiv_pos_as_xyz
'x, y, z'
_cell_length_a     53.982052
_cell_length_b     53.782096
_cell_length_c     15.950994
_cell_angle_alpha  90.083141
_cell_angle_beta   90.094956
_cell_angle_gamma 120.00765
loop_
_atom_site_label
_atom_site_type_symbol
_atom_site_fract_x
_atom_site_fract_y
_atom_site_fract_z
_atom_type_partial_charge
O0 O 0.01922 0.49339 0.9748 0.0
Zn1 Zn 0.00127 0.51618 0.93463 0.0
O2 O 0.96433 0.5026 -0.01398 0.0
Zn3 Zn 0.9361 0.47916 0.9049 0.0
Zn4 Zn 0.96028 0.47876 0.07843 0.0
Zn5 Zn 0.9604 0.53526 0.01542 0.0
O6 O 0.91611 0.49877 0.85874 0.0
O7 O 0.93478 0.53935 0.93221 0.0
O8 O -0.00479 0.51597 0.81019 0.0
O9 O 0.95628 0.47343 0.81006 0.0
O10 O 0.90783 0.4406 0.94692 0.0
O11 O 0.92955 0.43745 0.0608 0.0
O12 O 0.94873 0.49319 0.1759 0.0
O13 O 0.02828 0.55667 0.96997 0.0
O14 O 0.94548 0.53098 0.13331 0.0
O15 O -0.00128 0.57131 0.01476 0.0
C16 C 0.01761 0.48396 0.04912 0.0
C17 C 0.91846 0.52304 0.87414 0.0
C18 C 0.90924 0.42611 0.00763 0.0
C19 C 0.97475 0.49535 0.77064 0.0
C20 C 0.94279 0.51295 0.18938 0.0
C21 C 0.02382 0.57619 -0.00173 0.0
O22 O -0.00241 0.4802 0.099 0.0
O23 O 0.5239 0.56099 0.12278 0.0
Zn24 Zn 0.50406 0.51996 0.08388 0.0
O25 O 0.51665 0.49833 0.14765 0.0
Zn26 Zn 0.53958 0.48915 0.07871 0.0
Zn27 Zn 0.5416 0.52143 0.23286 0.0
Zn28 Zn 0.48483 0.46351 0.1861 0.0
O29 O 0.51675 0.44966 0.03153 0.0
O30 O 0.47613 0.43204 0.10269 0.0
O31 O 0.50997 0.51442 0.9633 0.0
O32 O 0.55074 0.51482 0.98052 0.0
O33 O 0.57579 0.49627 0.13327 0.0
O34 O 0.58237 0.53518 0.19953 0.0
O35 O 0.53272 0.49639 0.33217 0.0
O36 O 0.46243 0.50508 0.10459 0.0
O37 O 0.49393 0.45451 0.29997 0.0
O38 O 0.45069 0.46874 0.19219 0.0
C39 C 0.53216 0.57039 0.19703 0.0
C40 C 0.49119 0.42981 0.04488 0.0
C41 C 0.59247 0.52062 0.16603 0.0
C42 C 0.53142 0.51378 0.93281 0.0
C43 C 0.51424 0.4705 0.34978 0.0
C44 C 0.44451 0.48554 0.15281 0.0
O45 O 0.53668 0.55576 0.25162 0.0
O46 O 0.44307 0.00723 0.08392 0.0
Zn47 Zn 0.48344 0.02463 0.04165 0.0
O48 O 0.50716 0.05911 0.10387 0.0
Zn49 Zn 0.52087 0.09015 0.02879 0.0
Zn50 Zn 0.48635 0.06805 0.1799 0.0
Zn51 Zn 0.53836 0.05777 0.15149 0.0
O52 O 0.55819 0.098 0.98017 0.0
O53 O 0.57092 0.07478 0.07002 0.0
O54 O 0.4886 0.0348 0.91888 0.0
O55 O 0.49226 0.077 0.93857 0.0
O56 O 0.52164 0.12484 0.07547 0.0
O57 O 0.47889 0.09808 0.13004 0.0
O58 O 0.51049 0.08389 0.28127 0.0
O59 O 0.49501 -0.00496 0.06588 0.0
O60 O 0.54849 0.07859 0.26108 0.0
O61 O 0.52681 0.01656 0.16866 0.0
C62 C 0.43408 0.01057 0.15472 0.0
C63 C 0.57548 0.08979 0.004 0.0
C64 C 0.4973 0.12136 0.09509 0.0
C65 C 0.49075 0.05781 0.88942 0.0
C66 C 0.53466 0.08745 0.30461 0.0
C67 C 0.51067 -0.00555 0.12474 0.0
O68 O 0.44943 0.0319 0.20254 0.0
O69 O 0.70472 0.89528 0.33159 0.0
Zn70 Zn 0.67538 0.85539 0.30023 0.0
O71 O 0.63782 0.84687 0.33527 0.0
Zn72 Zn 0.62636 0.82182 0.42984 0.0
Zn73 Zn 0.64123 0.88294 0.36501 0.0
Zn74 Zn 0.60913 0.82874 0.24963 0.0
O75 O 0.59577 0.78208 0.40014 0.0
O76 O 0.58513 0.78621 0.26846 0.0
O77 O 0.68832 0.83166 0.36018 0.0
O78 O 0.65931 0.81759 0.47044 0.0
O79 O 0.61483 0.83827 0.52329 0.0
O80 O 0.63804 0.88443 0.48821 0.0
O81 O 0.60964 0.88644 0.3157 0.0
O82 O 0.67642 0.8525 0.17613 0.0
O83 O 0.58415 0.84702 0.23947 0.0
O84 O 0.63028 0.83463 0.14382 0.0
C85 C 0.70321 0.918 0.33771 0.0
C86 C 0.58211 0.7709 0.33262 0.0
C87 C 0.62476 0.86464 0.54148 0.0
C88 C 0.68149 0.8207 0.43298 0.0
C89 C 0.58813 0.87072 0.26967 0.0
C90 C 0.65616 0.8437 0.12304 0.0
O91 O 0.67924 0.91711 0.3374 0.0
O92 O 0.10078 0.8313 0.36625 0.0
Zn93 Zn 0.14115 0.85179 0.32605 0.0
O94 O 0.16076 0.83067 0.35538 0.0
Zn95 Zn 0.18897 0.85127 0.44078 0.0
Zn96 Zn 0.13276 0.79272 0.39464 0.0
Zn97 Zn 0.18046 0.827 0.2598 0.0
O98 O 0.22872 0.86284 0.40522 0.0
O99 O 0.22293 0.84784 0.27344 0.0
O100 O 0.16054 0.89129 0.37732 0.0
O101 O 0.19036 0.88822 0.46697 0.0
O102 O 0.17892 0.82874 0.54552 0.0
O103 O 0.13888 0.7882 0.51542 0.0
O104 O 0.133 0.76155 0.32628 0.0
O105 O 0.13892 0.85452 0.20155 0.0
O106 O 0.16639 0.78579 0.23077 0.0
O107 O 0.17129 0.84292 0.16116 0.0
C108 C 0.08426 0.80525 0.3865 0.0
C109 C 0.23902 0.86087 0.3356 0.0
C110 C 0.15817 0.80449 0.56707 0.0
C111 C 0.17905 0.90197 0.43583 0.0
C112 C 0.14742 0.7622 0.26242 0.0
C113 C 0.15387 0.85166 0.14511 0.0
O114 O 0.09342 0.78765 0.39292 0.0
O115 O 0.16441 0.29958 0.2893 0.0
Zn116 Zn 0.14483 0.32215 0.26638 0.0
O117 O 0.16982 0.36267 0.28834 0.0
Zn118 Zn 0.1538 0.37643 0.37164 0.0
Zn119 Zn 0.20404 0.36647 0.33328 0.0
Zn120 Zn 0.17957 0.38635 0.19105 0.0
O121 O 0.14508 0.40564 0.32477 0.0
O122 O 0.16135 0.41084 0.19451 0.0
O123 O 0.11034 0.30595 0.33956 0.0
O124 O 0.11694 0.34386 0.41335 0.0
O125 O 0.17876 0.39058 0.47322 0.0
O126 O 0.19982 0.36467 0.45581 0.0
O127 O 0.23746 0.40318 0.29893 0.0
O128 O 0.13419 0.31605 0.14523 0.0
O129 O 0.22242 0.41261 0.17971 0.0
O130 O 0.16292 0.36006 0.09415 0.0
C131 C 0.19079 0.30737 0.29513 0.0
C132 C 0.14874 0.41665 0.2521 0.0
C133 C 0.19048 0.37706 0.50336 0.0
C134 C 0.10246 0.31722 0.39608 0.0
C135 C 0.24211 0.41817 0.23313 0.0
C136 C 0.14456 0.33356 0.08452 0.0
O137 O 0.20981 0.33372 0.3017 0.0
O138 O 0.39364 0.24982 0.63274 0.0
Zn139 Zn 0.37657 0.20963 0.58908 0.0
O140 O 0.33532 0.18817 0.61029 0.0
Zn141 Zn 0.32582 0.15729 0.68822 0.0
Zn142 Zn 0.32352 0.21427 0.65504 0.0
Zn143 Zn 0.3144 0.17089 0.50924 0.0
O144 O 0.29463 0.11892 0.64839 0.0
O145 O 0.28962 0.12823 0.51627 0.0
O146 O 0.39667 0.19224 0.65178 0.0
O147 O 0.36056 0.15466 0.71383 0.0
O148 O 0.31557 0.16664 0.79822 0.0
O149 O 0.31521 0.20724 0.77736 0.0
O150 O 0.29077 0.21256 0.59037 0.0
O151 O 0.38467 0.21214 0.4649 0.0
O152 O 0.28889 0.18655 0.47961 0.0
O153 O 0.34145 0.18064 0.41584 0.0
C154 C 0.38286 0.26526 0.65304 0.0
C155 C 0.28307 0.11065 0.5766 0.0
C156 C 0.31333 0.18761 0.82569 0.0
C157 C 0.38716 0.17026 0.69891 0.0
C158 C 0.28065 0.20173 0.5187 0.0
C159 C 0.368 0.19776 0.40501 0.0
O160 O 0.3559 0.25487 0.6553 0.0
O161 O 0.77133 0.16413 0.68806 0.0
Zn162 Zn 0.81328 0.18971 0.67107 0.0
O163 O 0.8336 0.16923 0.69761 0.0
Zn164 Zn 0.8646 0.19105 0.77518 0.0
Zn165 Zn 0.80778 0.13238 0.74828 0.0
Zn166 Zn 0.85025 0.16335 0.60089 0.0
O167 O 0.9037 0.20719 0.72481 0.0
O168 O 0.89241 0.18216 0.60695 0.0
O169 O 0.82534 0.22285 0.75078 0.0
O170 O 0.86054 0.22301 0.82384 0.0
O171 O 0.86181 0.16606 0.87002 0.0
O172 O 0.815 0.13745 0.87247 0.0
O173 O 0.81094 0.09985 0.69426 0.0
O174 O 0.81893 0.20265 0.55007 0.0
O175 O 0.83516 0.12216 0.5797 0.0
O176 O 0.84224 0.18085 0.50452 0.0
C177 C 0.756 0.13834 0.71257 0.0
C178 C 0.91102 0.19997 0.65746 0.0
C179 C 0.83868 0.15216 0.91078 0.0
C180 C 0.84403 0.23302 0.80905 0.0
C181 C 0.82123 0.09942 0.62257 0.0
C182 C 0.83088 0.19626 0.49185 0.0
O183 O 0.76717 0.12339 0.73485 0.0
O184 O 0.80257 0.61413 0.62506 0.0
Zn185 Zn 0.78412 0.63878 0.63001 0.0
O186 O 0.81235 0.67827 0.65767 0.0
Zn187 Zn 0.80051 0.69327 0.7484 0.0
Zn188 Zn 0.84559 0.67909 0.70001 0.0
Zn189 Zn 0.82261 0.70363 0.56572 0.0
O190 O 0.79017 0.72241 0.71043 0.0
O191 O 0.80879 0.7313 0.58266 0.0
O192 O 0.75411 0.62237 0.72147 0.0
O193 O 0.76762 0.66052 0.8039 0.0
O194 O 0.83056 0.70936 0.83742 0.0
O195 O 0.84143 0.67525 0.82434 0.0
O196 O 0.8809 0.71425 0.66358 0.0
O197 O 0.76921 0.63684 0.51232 0.0
O198 O 0.86532 0.72549 0.54866 0.0
O199 O 0.802 0.68027 0.46623 0.0
C200 C 0.82873 0.62101 0.63164 0.0
C201 C 0.79579 0.73603 0.64149 0.0
C202 C 0.83638 0.69143 0.87071 0.0
C203 C 0.75158 0.63391 0.78854 0.0
C204 C 0.88567 0.72887 0.59675 0.0
C205 C 0.78063 0.6553 0.45385 0.0
O206 O 0.84772 0.64585 0.65601 0.0
H207 H 0.00968 0.53156 0.64873 0.0
H208 H 0.92098 0.47361 0.70977 0.0
H209 H -0.00505 0.54191 0.51439 0.0
H210 H 0.90625 0.48527 0.57922 0.0
H211 H 0.90501 0.47125 0.2896 0.0
H212 H 0.90881 0.47143 0.44064 0.0
H213 H 0.97068 0.56232 0.43616 0.0
H214 H 0.96705 0.56172 0.28306 0.0
C215 C 0.98711 0.5212 0.6335 0.0
C216 C 0.9666 0.50111 0.68815 0.0
C217 C 0.97859 0.52756 0.55761 0.0
C218 C 0.94937 0.51436 0.53623 0.0
C219 C 0.9289 0.4954 0.59318 0.0
C220 C 0.93742 0.48852 0.66765 0.0
C221 C 0.91835 0.49152 0.32138 0.0
C222 C 0.93603 0.51635 0.2756 0.0
C223 C 0.92059 0.4917 0.40808 0.0
C224 C 0.94067 0.51677 0.45012 0.0
C225 C 0.95553 0.54256 0.40494 0.0
C226 C 0.95315 0.54236 0.3177 0.0
H227 H 0.56208 0.49087 0.8667 0.0
H228 H 0.49456 0.50935 0.80906 0.0
H229 H 0.55403 0.46605 0.73344 0.0
H230 H 0.48719 0.48526 0.67453 0.0
H231 H 0.46901 0.43731 0.45055 0.0
H232 H 0.47138 0.43855 0.60366 0.0
H233 H 0.56378 0.48433 0.59115 0.0
H234 H 0.56128 0.48263 0.43949 0.0
C235 C 0.54581 0.49004 0.82507 0.0
C236 C 0.52923 0.50251 0.84762 0.0
C237 C 0.54096 0.47543 0.74943 0.0
C238 C 0.51972 0.47333 0.69447 0.0
C239 C 0.50318 0.48582 0.71688 0.0
C240 C 0.50783 0.50021 0.79291 0.0
C241 C 0.4897 0.44626 0.48092 0.0
C242 C 0.515 0.46068 0.43439 0.0
C243 C 0.49108 0.4472 0.56823 0.0
C244 C 0.51775 0.46242 0.60869 0.0
C245 C 0.54292 0.47265 0.5617 0.0
C246 C 0.54153 0.47183 0.47482 0.0
H247 H 0.5106 0.11077 0.82168 0.0
H248 H 0.49608 0.0257 0.76532 0.0
H249 H 0.53478 0.12806 0.68889 0.0
H250 H 0.51917 0.04289 0.63003 0.0
H251 H 0.56735 0.07486 0.40693 0.0
H252 H 0.56468 0.07437 0.55955 0.0
H253 H 0.51839 0.12066 0.54731 0.0
H254 H 0.52182 0.12187 0.39611 0.0
C255 C 0.51216 0.09559 0.78041 0.0
C256 C 0.50116 0.0667 0.80361 0.0
C257 C 0.52631 0.10566 0.70472 0.0
C258 C 0.52925 0.08698 0.64984 0.0
C259 C 0.51796 0.05801 0.67234 0.0
C260 C 0.50412 0.04797 0.74881 0.0
C261 C 0.5579 0.08616 0.43726 0.0
C262 C 0.54379 0.09745 0.39042 0.0
C263 C 0.5561 0.0856 0.52439 0.0
C264 C 0.54031 0.09641 0.56462 0.0
C265 C 0.53042 0.11185 0.51806 0.0
C266 C 0.53225 0.11244 0.43128 0.0
H267 H 0.67215 0.90681 0.61573 0.0
H268 H 0.5864 0.8379 0.66567 0.0
H269 H 0.68599 0.90436 0.75934 0.0
H270 H 0.59971 0.83651 0.81079 0.0
H271 H 0.63554 0.80503 -0.00216 0.0
H272 H 0.62925 0.81651 0.8546 0.0
H273 H 0.68156 0.90709 0.91039 0.0
H274 H 0.68906 0.89525 0.0525 0.0
C275 C 0.65586 0.89226 0.65887 0.0
C276 C 0.6284 0.87207 0.63011 0.0
C277 C 0.66388 0.89068 0.74075 0.0
C278 C 0.64424 0.8693 0.79438 0.0
C279 C 0.61558 0.85228 0.76901 0.0
C280 C 0.60775 0.85342 0.68683 0.0
C281 C 0.64683 0.82724 0.97772 0.0
C282 C 0.66269 0.84932 0.03481 0.0
C283 C 0.64272 0.8339 0.89684 0.0
C284 C 0.65378 0.86272 0.87331 0.0
C285 C 0.67246 0.88473 0.9276 0.0
C286 C 0.67707 0.87798 0.00825 0.0
H287 H 0.10692 0.785 0.64163 0.0
H288 H 0.19633 0.81635 0.69281 0.0
H289 H 0.10099 0.79924 0.78155 0.0
H290 H 0.19014 0.8291 0.8346 0.0
H291 H 0.18808 0.88565 0.02201 0.0
H292 H 0.18492 0.86897 0.87826 0.0
H293 H 0.10164 0.79589 0.93105 0.0
H294 H 0.10428 0.81383 0.07303 0.0
C295 C 0.12493 0.79347 0.68454 0.0
C296 C 0.15222 0.80005 0.65666 0.0
C297 C 0.1216 0.80198 0.76428 0.0
C298 C 0.14543 0.81655 0.81722 0.0
C299 C 0.17172 0.8192 0.7933 0.0
C300 C 0.17517 0.81126 0.71314 0.0
C301 C 0.16845 0.86704 0.00089 0.0
C302 C 0.14643 0.85095 0.05743 0.0
C303 C 0.16691 0.85699 0.91966 0.0
C304 C 0.14366 0.83035 0.89516 0.0
C305 C 0.11999 0.81627 0.94859 0.0
C306 C 0.12129 0.82675 0.02939 0.0
H307 H 0.18827 0.3298 0.57177 0.0
H308 H 0.17807 0.40271 0.63082 0.0
H309 H 0.16739 0.30822 0.70557 0.0
H310 H 0.15852 0.38178 0.76678 0.0
H311 H 0.10851 0.33832 0.97777 0.0
H312 H 0.11606 0.34299 0.8265 0.0
H313 H 0.17787 0.31452 0.85076 0.0
H314 H 0.16883 0.30835 0.0005 0.0
C315 C 0.18234 0.34164 0.6144 0.0
C316 C 0.18479 0.368 0.59108 0.0
C317 C 0.17008 0.32907 0.69065 0.0
C318 C 0.16057 0.34288 0.74554 0.0
C319 C 0.16459 0.37004 0.72422 0.0
C320 C 0.17639 0.38239 0.64735 0.0
C321 C 0.12227 0.33137 0.94936 0.0
C322 C 0.13821 0.3231 -0.00079 0.0
C323 C 0.12706 0.33456 0.86343 0.0
C324 C 0.14845 0.3303 0.82775 0.0
C325 C 0.16138 0.31815 0.87644 0.0
C326 C 0.15612 0.31441 0.96209 0.0
H327 H 0.3791 0.24651 0.32876 0.0
H328 H 0.37267 0.16429 0.28708 0.0
H329 H 0.36503 0.24715 0.18426 0.0
H330 H 0.36049 0.16557 0.1406 0.0
H331 H 0.2936 0.14879 0.9523 0.0
H332 H 0.31523 0.15649 0.09077 0.0
H333 H 0.36845 0.24696 0.03661 0.0
H334 H 0.34559 0.23939 0.90013 0.0
C335 C 0.37664 0.22955 0.28676 0.0
C336 C 0.37675 0.20529 0.31829 0.0
C337 C 0.36816 0.22968 0.20421 0.0
C338 C 0.36036 0.20576 0.15221 0.0
C339 C 0.36511 0.18371 0.18047 0.0
C340 C 0.3729 0.1833 0.26348 0.0
C341 C 0.30909 0.17045 0.97156 0.0
C342 C 0.31793 0.19344 0.91582 0.0
C343 C 0.32207 0.17482 0.04984 0.0
C344 C 0.34452 0.20215 0.07308 0.0
C345 C 0.35148 0.22561 0.02028 0.0
C346 C 0.33807 0.22131 0.94248 0.0
H347 H 0.78464 0.18153 0.39291 0.0
H348 H 0.87683 0.22742 0.39654 0.0
H349 H 0.78516 0.17558 0.2409 0.0
H350 H 0.87774 0.22078 0.24703 0.0
H351 H 0.87482 0.20455 0.97633 0.0
H352 H 0.86975 0.22468 0.10638 0.0
H353 H 0.79558 0.14307 0.16849 0.0
H354 H 0.79953 0.12348 0.03415 0.0
C355 C 0.80496 0.19165 0.36034 0.0
C356 C 0.83071 0.2048 0.40537 0.0
C357 C 0.80532 0.18772 0.27382 0.0
C358 C 0.83146 0.19681 0.23227 0.0
C359 C 0.85718 0.21343 0.27645 0.0
C360 C 0.85676 0.21744 0.36234 0.0
C361 C 0.8576 0.19072 0.01811 0.0
C362 C 0.8379 0.16215 -0.00395 0.0
C363 C 0.85456 0.2024 0.09249 0.0
C364 C 0.83227 0.18558 0.14806 0.0
C365 C 0.81265 0.15688 0.12631 0.0
C366 C 0.81524 0.14539 0.05044 0.0
H367 H 0.7899 0.61815 0.36596 0.0
H368 H 0.757 0.67626 0.34602 0.0
H369 H 0.8002 0.62304 0.21664 0.0
H370 H 0.76538 0.67982 0.19517 0.0
H371 H 0.83378 0.72396 -0.00296 0.0
H372 H 0.81073 0.70727 0.1323 0.0
H373 H 0.7915 0.62101 0.0712 0.0
H374 H 0.81587 0.63812 0.93765 0.0
C375 C 0.78314 0.63047 0.32827 0.0
C376 C 0.77284 0.64696 0.3666 0.0
C377 C 0.78923 0.6335 0.24269 0.0
C378 C 0.78465 0.65275 0.19465 0.0
C379 C 0.77022 0.66573 0.23128 0.0
C380 C 0.76481 0.66324 0.31712 0.0
C381 C 0.8251 0.70157 0.01336 0.0
C382 C 0.82697 0.68249 0.95744 0.0
C383 C 0.81131 0.6918 0.09004 0.0
C384 C 0.79861 0.66259 0.11186 0.0
C385 C 0.80111 0.64363 0.05659 0.0
C386 C 0.81533 0.65351 0.98036 0.0
H387 H 0.1598 0.45244 0.11847 0.0
H388 H 0.10581 0.41812 0.33662 0.0
H389 H 0.13159 0.47384 0.07205 0.0
H390 H 0.07686 0.43805 0.28854 0.0
H391 H 0.03551 0.4876 0.20976 0.0
H392 H 0.07207 0.478 0.26307 0.0
H393 H 0.08608 0.45713 0.01188 0.0
H394 H 0.05057 0.46847 0.95824 0.0
C395 C 0.14208 0.44972 0.15687 0.0
C396 C 0.13489 0.43347 0.23085 0.0
C397 C 0.12576 0.46174 0.12993 0.0
C398 C 0.10168 0.45735 0.17582 0.0
C399 C 0.09544 0.44227 0.252 0.0
C400 C 0.11202 0.43069 0.27956 0.0
C401 C 0.04652 0.48105 0.166 0.0
C402 C 0.04003 0.4784 0.08008 0.0
C403 C 0.06744 0.47549 0.19653 0.0
C404 C 0.08188 0.46651 0.14203 0.0
C405 C 0.07574 0.46444 0.0556 0.0
C406 C 0.0552 0.47062 0.02482 0.0
H407 H 0.54234 0.61482 0.09402 0.0
H408 H 0.52885 0.58879 0.35369 0.0
H409 H 0.5485 0.66126 0.13325 0.0
H410 H 0.53338 0.63466 0.39291 0.0
H411 H 0.58483 0.73231 0.43683 0.0
H412 H 0.56883 0.68245 0.40716 0.0
H413 H 0.52725 0.68743 0.18087 0.0
H414 H 0.54477 0.73814 0.20858 0.0
C415 C 0.54035 0.61896 0.15945 0.0
C416 C 0.53549 0.59838 0.22093 0.0
C417 C 0.54352 0.64547 0.18198 0.0
C418 C 0.54136 0.6518 0.26638 0.0
C419 C 0.5357 0.63079 0.32754 0.0
C420 C 0.53309 0.60448 0.30513 0.0
C421 C 0.57176 0.72268 0.38159 0.0
C422 C 0.56645 0.73932 0.32434 0.0
C423 C 0.56244 0.6939 0.36464 0.0
C424 C 0.54714 0.68092 0.29073 0.0
C425 C 0.53972 0.69696 0.23712 0.0
C426 C 0.54948 0.72594 0.2534 0.0
H427 H 0.41794 -0.00383 0.31671 0.0
H428 H 0.38802 0.97298 0.06173 0.0
H429 H 0.37341 0.95623 0.36806 0.0
H430 H 0.34271 0.93402 0.1128 0.0
H431 H 0.27065 0.85418 0.21351 0.0
H432 H 0.31981 0.88856 0.17508 0.0
H433 H 0.32554 0.9422 0.38519 0.0
H434 H 0.27729 0.90717 0.42589 0.0
C435 C 0.40157 0.98278 0.27173 0.0
C436 C 0.40626 0.98774 0.18531 0.0
C437 C 0.37604 0.95986 0.30111 0.0
C438 C 0.35441 0.94178 0.2447 0.0
C439 C 0.35911 0.94702 0.15811 0.0
C440 C 0.3849 0.96958 0.12872 0.0
C441 C 0.28277 0.87299 0.25254 0.0
C442 C 0.2701 0.87812 0.32222 0.0
C443 C 0.3108 0.89287 0.23003 0.0
C444 C 0.32647 0.91852 0.27585 0.0
C445 C 0.31432 0.92265 0.34867 0.0
C446 C 0.28653 0.90253 0.37205 0.0
H447 H 0.44852 0.12299 0.12658 0.0
H448 H 0.52237 0.15833 0.96404 0.0
H449 H 0.42441 0.13863 0.02873 0.0
H450 H 0.49792 0.17332 0.8655 0.0
H451 H 0.44433 0.20719 0.72687 0.0
H452 H 0.4744 0.20192 0.83215 0.0
H453 H 0.40512 0.11693 0.89012 0.0
H454 H 0.37513 0.12218 0.7864 0.0
C455 C 0.45992 0.1348 0.07123 0.0
C456 C 0.48709 0.13888 0.05229 0.0
C457 C 0.446 0.14347 0.01476 0.0
C458 C 0.45896 0.15629 0.93826 0.0
C459 C 0.48735 0.16328 0.92367 0.0
C460 C 0.50137 0.15475 0.98047 0.0
C461 C 0.43574 0.18718 0.76101 0.0
C462 C 0.40726 0.16518 0.7488 0.0
C463 C 0.45289 0.18429 0.82166 0.0
C464 C 0.44179 0.15938 0.87096 0.0
C465 C 0.41393 0.13679 0.85507 0.0
C466 C 0.39687 0.13965 0.79479 0.0
H467 H 0.80646 0.25297 0.82165 0.0
H468 H 0.88775 0.26704 0.91465 0.0
H469 H 0.81328 0.29519 0.89826 0.0
H470 H 0.89525 0.30978 -0.01258 0.0
H471 H 0.86532 0.39516 0.89923 0.0
H472 H 0.84274 0.34428 0.8727 0.0
H473 H 0.88462 0.33433 0.09101 0.0
H474 H 0.90854 0.38599 0.11531 0.0
C475 C 0.82575 0.26506 0.85854 0.0
C476 C 0.84689 0.25712 0.8605 0.0
C477 C 0.82965 0.28921 0.90258 0.0
C478 C 0.85497 0.30617 0.94825 0.0
C479 C 0.87529 0.29714 0.95399 0.0
C480 C 0.87119 0.27279 0.91109 0.0
C481 C 0.86929 0.38212 0.94287 0.0
C482 C 0.88952 0.39476 0.00765 0.0
C483 C 0.85603 0.35271 0.92807 0.0
C484 C 0.86244 0.33523 0.97842 0.0
C485 C 0.87993 0.34737 0.04949 0.0
C486 C 0.8935 0.37695 0.06379 0.0
H487 H 0.70522 0.57976 0.77418 0.0
H488 H 0.75424 0.64703 0.95397 0.0
H489 H 0.67279 0.5507 0.88547 0.0
H490 H 0.7229 0.61754 0.06566 0.0
H491 H 0.63242 0.57711 0.18767 0.0
H492 H 0.67568 0.60343 0.10635 0.0
H493 H 0.66566 0.52359 0.01108 0.0
H494 H 0.62157 0.49714 0.09063 0.0
C495 C 0.70921 0.58818 0.83755 0.0
C496 C 0.73186 0.61585 0.85496 0.0
C497 C 0.69093 0.5714 0.90168 0.0
C498 C 0.69526 0.5818 0.98468 0.0
C499 C 0.71865 0.60906 0.00235 0.0
C500 C 0.73656 0.62599 0.93814 0.0
C501 C 0.63986 0.56505 0.15161 0.0
C502 C 0.62305 0.5351 0.14337 0.0
C503 C 0.66481 0.5802 0.10486 0.0
C504 C 0.6736 0.56562 0.04996 0.0
C505 C 0.65886 0.53545 0.0506 0.0
C506 C 0.63375 0.5203 0.09689 0.0
H507 H 0.79818 0.56448 0.67454 0.0
H508 H 0.879 0.629 0.57194 0.0
H509 H 0.81941 0.53494 0.71035 0.0
H510 H 0.89998 0.59935 0.60647 0.0
H511 H 0.87457 0.49177 0.76396 0.0
H512 H 0.85058 0.50984 0.67212 0.0
H513 H 0.90538 0.59545 0.76834 0.0
H514 H 0.92892 0.5777 0.86007 0.0
C515 C 0.82 0.57162 0.65575 0.0
C516 C 0.83729 0.59923 0.62278 0.0
C517 C 0.83211 0.55472 0.67609 0.0
C518 C 0.86143 0.56537 0.66289 0.0
C519 C 0.87742 0.59102 0.61834 0.0
C520 C 0.86545 0.60793 0.59873 0.0
C521 C 0.88143 0.51445 0.76528 0.0
C522 C 0.90344 0.53333 0.81973 0.0
C523 C 0.86783 0.52469 0.71255 0.0
C524 C 0.87656 0.554 0.71237 0.0
C525 C 0.89871 0.57281 0.76608 0.0
C526 C 0.91191 0.56258 0.81946 0.0
H527 H 0.51392 0.4224 0.90018 0.0
H528 H 0.43749 0.38299 0.05253 0.0
H529 H 0.48932 0.38586 0.79259 0.0
H530 H 0.41318 0.34637 0.94537 0.0
H531 H 0.36725 0.30332 0.71067 0.0
H532 H 0.39539 0.34469 0.80058 0.0
H533 H 0.46857 0.33323 0.77137 0.0
H534 H 0.44064 0.29199 0.68044 0.0
C535 C 0.49204 0.4057 0.91143 0.0
C536 C 0.47765 0.4056 -0.0149 0.0
C537 C 0.47797 0.38487 0.84958 0.0
C538 C 0.44924 0.36359 0.86013 0.0
C539 C 0.43515 0.36295 0.93477 0.0
C540 C 0.44918 0.38373 -0.00341 0.0
C541 C 0.38952 0.30996 0.72172 0.0
C542 C 0.40155 0.29402 0.68951 0.0
C543 C 0.40554 0.33351 0.77386 0.0
C544 C 0.4339 0.34166 0.79456 0.0
C545 C 0.4467 0.32732 0.7567 0.0
C546 C 0.43067 0.30369 0.70456 0.0
H547 H 0.71621 0.08456 0.76496 0.0
H548 H 0.72629 0.16693 0.69659 0.0
H549 H 0.6692 0.07023 0.82239 0.0
H550 H 0.67965 0.15277 0.75579 0.0
H551 H 0.58767 0.11319 0.84664 0.0
H552 H 0.62749 0.12089 0.75683 0.0
H553 H 0.65866 0.08771 0.95164 0.0
H554 H 0.61891 0.0796 0.04058 0.0
C555 C 0.7082 0.0994 0.76062 0.0
C556 C 0.72527 0.12713 0.72802 0.0
C557 C 0.68135 0.09124 0.79396 0.0
C558 C 0.67114 0.11067 0.79545 0.0
C559 C 0.68699 0.13735 0.75567 0.0
C560 C 0.7138 0.14549 0.722 0.0
C561 C 0.60312 0.10766 0.87036 0.0
C562 C 0.60026 0.09595 0.95098 0.0
C563 C 0.6258 0.11196 0.81877 0.0
C564 C 0.64596 0.10458 0.84685 0.0
C565 C 0.64308 0.09296 0.92744 0.0
C566 C 0.62047 0.08865 0.97886 0.0
H567 H 0.50186 0.96857 0.27486 0.0
H568 H 0.51939 0.96074 0.01552 0.0
H569 H 0.51008 0.92932 0.31173 0.0
H570 H 0.52972 0.92272 0.05265 0.0
H571 H 0.548 0.85409 0.14305 0.0
H572 H 0.51912 0.8763 0.10794 0.0
H573 H 0.55528 0.93317 0.32121 0.0
H574 H 0.58282 0.91079 0.35696 0.0
C575 C 0.50715 0.95807 0.22574 0.0
C576 C 0.51055 0.96775 0.1429 0.0
C577 C 0.51194 0.93572 0.24663 0.0
C578 C 0.52137 0.92345 0.18552 0.0
C579 C 0.52242 0.93161 0.10121 0.0
C580 C 0.51677 0.9535 0.07993 0.0
C581 C 0.54917 0.87093 0.18306 0.0
C582 C 0.56793 0.88097 0.25201 0.0
C583 C 0.53278 0.88371 0.16285 0.0
C584 C 0.53481 0.90647 0.21181 0.0
C585 C 0.55261 0.91535 0.28288 0.0
C586 C 0.56882 0.90273 0.30279 0.0
H587 H 0.15073 0.7553 0.09476 0.0
H588 H 0.12386 0.70834 0.32781 0.0
H589 H 0.12637 0.71005 0.01671 0.0
H590 H 0.10034 0.66313 0.24926 0.0
H591 H 0.02659 0.6279 -0.01189 0.0
H592 H 0.06472 0.6739 0.04196 0.0
H593 H 0.11342 0.63375 0.11508 0.0
H594 H 0.07573 0.58779 0.05833 0.0
C595 C 0.14058 0.7353 0.1293 0.0
C596 C 0.13893 0.73523 0.21727 0.0
C597 C 0.12667 0.70953 0.0846 0.0
C598 C 0.11169 0.68341 0.12743 0.0
C599 C 0.11207 0.68315 0.21532 0.0
C600 C 0.12536 0.70893 0.26004 0.0
C601 C 0.04575 0.62909 0.01379 0.0
C602 C 0.04831 0.60444 0.01937 0.0
C603 C 0.06753 0.65532 0.04404 0.0
C604 C 0.09181 0.65708 0.08203 0.0
C605 C 0.09489 0.63273 0.08524 0.0
C606 C 0.07342 0.6066 0.05282 0.0
H607 H 0.40573 0.45535 0.27398 0.0
H608 H 0.419 0.50881 0.05723 0.0
H609 H 0.35813 0.44864 0.29079 0.0
H610 H 0.37091 0.50201 0.07459 0.0
H611 H 0.26894 0.4335 0.08152 0.0
H612 H 0.32075 0.45803 0.06065 0.0
H613 H 0.33381 0.47657 0.32584 0.0
H614 H 0.28224 0.45159 0.34683 0.0
C615 C 0.39855 0.46583 0.23022 0.0
C616 C 0.41603 0.48245 0.16404 0.0
C617 C 0.3714 0.46227 0.24044 0.0
C618 C 0.36104 0.47512 0.18449 0.0
C619 C 0.37852 0.492 0.11865 0.0
C620 C 0.40595 0.49584 0.10887 0.0
C621 C 0.28295 0.4438 0.13462 0.0
C622 C 0.27182 0.44016 0.21597 0.0
C623 C 0.31256 0.45784 0.12273 0.0
C624 C 0.33111 0.46848 0.1921 0.0
C625 C 0.31987 0.46795 0.27173 0.0
C626 C 0.29043 0.45374 0.28366 0.0
H627 H 0.80253 0.7668 0.49989 0.0
H628 H 0.76326 0.74901 0.74509 0.0
H629 H 0.77724 0.79147 0.4613 0.0
H630 H 0.73859 0.77502 0.70717 0.0
H631 H 0.66752 0.77959 0.55248 0.0
H632 H 0.69914 0.76469 0.61622 0.0
H633 H 0.7706 0.83112 0.47876 0.0
H634 H 0.7387 0.84485 0.41213 0.0
C635 C 0.789 0.76875 0.54643 0.0
C636 C 0.78452 0.7555 0.62508 0.0
C637 C 0.77463 0.78318 0.52446 0.0
C638 C 0.75568 0.78503 0.58094 0.0
C639 C 0.75265 0.77347 0.66176 0.0
C640 C 0.76693 0.75877 0.68366 0.0
C641 C 0.69002 0.79099 0.53641 0.0
C642 C 0.70061 0.81283 0.47607 0.0
C643 C 0.70821 0.78273 0.57354 0.0
C644 C 0.73736 0.79656 0.55191 0.0
C645 C 0.74814 0.81957 0.4952 0.0
C646 C 0.72988 0.82741 0.45696 0.0
H647 H 0.25914 0.08438 0.42778 0.0
H648 H 0.26046 0.06739 0.6922 0.0
H649 H 0.22923 0.03324 0.40119 0.0
H650 H 0.22982 0.0162 0.66568 0.0
H651 H 0.21778 0.93079 0.55982 0.0
H652 H 0.2382 0.98075 0.59939 0.0
H653 H 0.18308 0.9902 0.42119 0.0
H654 H 0.16296 0.94002 0.3796 0.0
C655 C 0.25267 0.06978 0.48047 0.0
C656 C 0.26254 0.07992 0.56195 0.0
C657 C 0.2353 0.04046 0.46527 0.0
C658 C 0.22731 0.02067 0.53127 0.0
C659 C 0.23603 0.03092 0.61335 0.0
C660 C 0.25353 0.06024 0.62853 0.0
C661 C 0.20973 0.94335 0.52947 0.0
C662 C 0.18897 0.93149 0.46574 0.0
C663 C 0.2213 0.972 0.55281 0.0
C664 C 0.21232 0.98946 0.51325 0.0
C665 C 0.19067 0.97733 0.45201 0.0
C666 C 0.17909 0.94858 0.42847 0.0
H667 H 0.93318 0.18846 0.51978 0.0
H668 H 0.95741 0.24319 0.73913 0.0
H669 H 0.98148 0.21562 0.46725 0.0
H670 H 0.00647 0.27001 0.68723 0.0
H671 H 0.07289 0.33414 0.4973 0.0
H672 H 0.0289 0.30362 0.57328 0.0
H673 H 0.03032 0.22834 0.4845 0.0
H674 H 0.07374 0.25882 0.40605 0.0
C675 C 0.94897 0.20598 0.55771 0.0
C676 C 0.94136 0.21395 0.63307 0.0
C677 C 0.9768 0.22142 0.52782 0.0
C678 C -0.00224 0.24508 0.57284 0.0
C679 C -0.0094 0.25213 0.65058 0.0
C680 C 0.9626 0.23668 0.68049 0.0
C681 C 0.06385 0.31108 0.49426 0.0
C682 C 0.07645 0.29884 0.44457 0.0
C683 C 0.03883 0.2936 0.53858 0.0
C684 C 0.02611 0.26357 0.53466 0.0
C685 C 0.03937 0.25141 0.48757 0.0
C686 C 0.0642 0.26886 0.44255 0.0
H687 H 0.27291 0.20361 0.35075 0.0
H688 H 0.24482 0.21746 0.59111 0.0
H689 H 0.24639 0.22349 0.28035 0.0
H690 H 0.21778 0.23664 0.52016 0.0
H691 H 0.15846 0.25347 0.35763 0.0
H692 H 0.1754 0.22098 0.40176 0.0
H693 H 0.25891 0.27932 0.30137 0.0
H694 H 0.24234 0.31225 0.25905 0.0
C695 C 0.26046 0.21017 0.38836 0.0
C696 C 0.26106 0.20926 0.47642 0.0
C697 C 0.24538 0.22153 0.34803 0.0
C698 C 0.23015 0.23142 0.39512 0.0
C699 C 0.22922 0.22882 0.48275 0.0
C700 C 0.2448 0.21807 0.52322 0.0
C701 C 0.18022 0.25901 0.34304 0.0
C702 C 0.19923 0.28546 0.30568 0.0
C703 C 0.18984 0.24047 0.36848 0.0
C704 C 0.21835 0.24784 0.35487 0.0
C705 C 0.23674 0.2732 0.31182 0.0
C706 C 0.22733 0.29204 0.28808 0.0
H707 H 0.7482 0.92377 0.42928 0.0
H708 H 0.71528 0.97252 0.30407 0.0
H709 H 0.78489 0.96764 0.4977 0.0
H710 H 0.75266 0.01644 0.37032 0.0
H711 H 0.79 0.04501 0.6872 0.0
H712 H 0.76892 0.00013 0.60715 0.0
H713 H 0.81342 0.04679 0.38548 0.0
H714 H 0.83518 0.09146 0.46469 0.0
C715 C 0.74948 0.94401 0.41399 0.0
C716 C 0.72891 0.9449 0.36174 0.0
C717 C 0.77033 0.96893 0.45343 0.0
C718 C 0.77134 -0.00492 0.43893 0.0
C719 C 0.75224 -0.00363 0.38167 0.0
C720 C 0.73093 0.97136 0.34399 0.0
C721 C 0.79603 0.04561 0.6222 0.0
C722 C 0.81377 0.07185 0.582 0.0
C723 C 0.78409 0.01997 0.57664 0.0
C724 C 0.78955 0.02038 0.49049 0.0
C725 C 0.80899 0.04617 0.45193 0.0
C726 C 0.8213 0.07168 0.49753 0.0
H727 H 0.90524 0.75729 0.44746 0.0
H728 H 0.93388 0.74134 0.68443 0.0
H729 H 0.95403 0.77874 0.39344 0.0
H730 H 0.98226 0.76263 0.63006 0.0
H731 H 0.04626 0.75492 0.46083 0.0
H732 H -0.00116 0.74114 0.51289 0.0
H733 H 0.00713 0.82022 0.41921 0.0
H734 H 0.05499 0.83433 0.36671 0.0
C735 C 0.92197 0.75892 0.48859 0.0
C736 C 0.91559 0.74711 0.56967 0.0
C737 C 0.94984 0.7712 0.45762 0.0
C738 C 0.97156 0.77169 0.50723 0.0
C739 C 0.96563 0.76192 0.5902 0.0
C740 C 0.93795 0.74984 0.62128 0.0
C741 C 0.03799 0.76933 0.4505 0.0
C742 C 0.05446 0.79581 0.41011 0.0
C743 C 0.01094 0.76153 0.48097 0.0
C744 C -0.0003 0.77989 0.4711 0.0
C745 C 0.01552 0.80582 0.42776 0.0
C746 C 0.04282 0.81383 0.3979 0.0
loop_
_geom_bond_atom_site_label_1
_geom_bond_atom_site_label_2
_geom_bond_distance
_geom_bond_site_symmetry_2
_ccdc_geom_bond_type
O0 Zn1 1.953 . S
O0 C16 1.225 1_556 S
Zn1 O0 1.953 . S
Zn1 O2 1.949 1_556 S
Zn1 O8 1.919 . S
Zn1 O13 1.924 1_556 S
O2 Zn1 1.949 1_554 S
O2 Zn3 1.923 1_454 S
O2 Zn4 1.950 . S
O2 Zn5 1.945 . S
Zn3 O2 1.923 1_656 S
Zn3 O6 1.933 . S
Zn3 O9 1.941 . S
Zn3 O10 1.965 . S
Zn4 O2 1.950 . S
Zn4 O11 1.938 1_455 S
Zn4 O12 1.906 1_455 S
Zn4 O22 1.953 . S
Zn5 O2 1.945 . S
Zn5 O7 1.932 1_455 S
Zn5 O14 1.977 1_455 S
Zn5 O15 1.910 . S
O6 Zn3 1.933 . S
O6 C17 1.226 . S
O7 Zn5 1.932 1_655 S
O7 C17 1.307 1_554 S
O8 Zn1 1.919 . S
O8 C19 1.253 . S
O9 Zn3 1.941 . S
O9 C19 1.283 1_655 S
O10 Zn3 1.965 . S
O10 C18 1.303 . S
O11 Zn4 1.938 1_655 S
O11 C18 1.247 1_554 S
O12 Zn4 1.906 1_655 S
O12 C20 1.304 . S
O13 Zn1 1.924 1_554 S
O13 C21 1.311 . S
O14 Zn5 1.977 1_655 S
O14 C20 1.272 . S
O15 Zn5 1.910 . S
O15 C21 1.231 . S
C16 O0 1.225 1_554 S
C16 O22 1.298 . S
C17 O6 1.226 . S
C17 O7 1.307 1_556 S
C18 O10 1.303 . S
C18 O11 1.247 1_556 S
C19 O8 1.253 . S
C19 O9 1.283 1_455 S
C20 O12 1.304 . S
C20 O14 1.272 . S
C21 O13 1.311 . S
C21 O15 1.231 . S
O22 Zn4 1.953 . S
O22 C16 1.298 . S
O23 Zn24 1.953 . S
O23 C39 1.225 1_556 S
Zn24 O23 1.953 . S
Zn24 O25 1.949 1_556 S
Zn24 O31 1.919 . S
Zn24 O36 1.924 1_556 S
O25 Zn24 1.949 1_554 S
O25 Zn26 1.923 1_554 S
O25 Zn27 1.950 . S
O25 Zn28 1.945 . S
Zn26 O25 1.923 1_556 S
Zn26 O29 1.933 . S
Zn26 O32 1.941 . S
Zn26 O33 1.965 . S
Zn27 O25 1.950 . S
Zn27 O34 1.938 . S
Zn27 O35 1.906 . S
Zn27 O45 1.953 . S
Zn28 O25 1.945 . S
Zn28 O30 1.932 . S
Zn28 O37 1.977 . S
Zn28 O38 1.910 . S
O29 Zn26 1.933 . S
O29 C40 1.226 . S
O30 Zn28 1.932 . S
O30 C40 1.307 1_554 S
O31 Zn24 1.919 . S
O31 C42 1.253 . S
O32 Zn26 1.941 . S
O32 C42 1.283 . S
O33 Zn26 1.965 . S
O33 C41 1.303 . S
O34 Zn27 1.938 . S
O34 C41 1.247 1_554 S
O35 Zn27 1.906 . S
O35 C43 1.304 . S
O36 Zn24 1.924 1_554 S
O36 C44 1.311 . S
O37 Zn28 1.977 . S
O37 C43 1.272 . S
O38 Zn28 1.910 . S
O38 C44 1.231 . S
C39 O23 1.225 1_554 S
C39 O45 1.298 . S
C40 O29 1.226 . S
C40 O30 1.307 1_556 S
C41 O33 1.303 . S
C41 O34 1.247 1_556 S
C42 O31 1.253 . S
C42 O32 1.283 . S
C43 O35 1.304 . S
C43 O37 1.272 . S
C44 O36 1.311 . S
C44 O38 1.231 . S
O45 Zn27 1.953 . S
O45 C39 1.298 . S
O46 Zn47 1.953 . S
O46 C62 1.225 1_556 S
Zn47 O46 1.953 . S
Zn47 O48 1.949 1_566 S
Zn47 O54 1.919 . S
Zn47 O59 1.924 1_556 S
O48 Zn47 1.949 1_544 S
O48 Zn49 1.923 1_554 S
O48 Zn50 1.950 . S
O48 Zn51 1.945 . S
Zn49 O48 1.923 1_556 S
Zn49 O52 1.933 . S
Zn49 O55 1.941 . S
Zn49 O56 1.965 . S
Zn50 O48 1.950 . S
Zn50 O57 1.938 . S
Zn50 O58 1.906 . S
Zn50 O68 1.953 1_545 S
Zn51 O48 1.945 . S
Zn51 O53 1.932 . S
Zn51 O60 1.977 . S
Zn51 O61 1.910 1_545 S
O52 Zn49 1.933 . S
O52 C63 1.226 . S
O53 Zn51 1.932 . S
O53 C63 1.307 1_554 S
O54 Zn47 1.919 . S
O54 C65 1.253 1_565 S
O55 Zn49 1.941 . S
O55 C65 1.283 . S
O56 Zn49 1.965 . S
O56 C64 1.303 . S
O57 Zn50 1.938 . S
O57 C64 1.247 1_554 S
O58 Zn50 1.906 . S
O58 C66 1.304 . S
O59 Zn47 1.924 1_554 S
O59 C67 1.311 . S
O60 Zn51 1.977 . S
O60 C66 1.272 . S
O61 Zn51 1.910 1_565 S
O61 C67 1.231 . S
C62 O46 1.225 1_554 S
C62 O68 1.298 . S
C63 O52 1.226 . S
C63 O53 1.307 1_556 S
C64 O56 1.303 . S
C64 O57 1.247 1_556 S
C65 O54 1.253 1_545 S
C65 O55 1.283 . S
C66 O58 1.304 . S
C66 O60 1.272 . S
C67 O59 1.311 . S
C67 O61 1.231 . S
O68 Zn50 1.953 1_565 S
O68 C62 1.298 . S
O69 Zn70 1.953 . S
O69 C85 1.225 . S
Zn70 O69 1.953 . S
Zn70 O71 1.949 . S
Zn70 O77 1.919 . S
Zn70 O82 1.924 . S
O71 Zn70 1.949 . S
O71 Zn72 1.923 . S
O71 Zn73 1.950 . S
O71 Zn74 1.945 . S
Zn72 O71 1.923 . S
Zn72 O75 1.933 . S
Zn72 O78 1.941 . S
Zn72 O79 1.965 . S
Zn73 O71 1.950 . S
Zn73 O80 1.938 . S
Zn73 O81 1.906 . S
Zn73 O91 1.953 . S
Zn74 O71 1.945 . S
Zn74 O76 1.932 . S
Zn74 O83 1.977 . S
Zn74 O84 1.910 . S
O75 Zn72 1.933 . S
O75 C86 1.226 . S
O76 Zn74 1.932 . S
O76 C86 1.307 . S
O77 Zn70 1.919 . S
O77 C88 1.253 . S
O78 Zn72 1.941 . S
O78 C88 1.283 . S
O79 Zn72 1.965 . S
O79 C87 1.303 . S
O80 Zn73 1.938 . S
O80 C87 1.247 . S
O81 Zn73 1.906 . S
O81 C89 1.304 . S
O82 Zn70 1.924 . S
O82 C90 1.311 . S
O83 Zn74 1.977 . S
O83 C89 1.272 . S
O84 Zn74 1.910 . S
O84 C90 1.231 . S
C85 O69 1.225 . S
C85 O91 1.298 . S
C86 O75 1.226 . S
C86 O76 1.307 . S
C87 O79 1.303 . S
C87 O80 1.247 . S
C88 O77 1.253 . S
C88 O78 1.283 . S
C89 O81 1.304 . S
C89 O83 1.272 . S
C90 O82 1.311 . S
C90 O84 1.231 . S
O91 Zn73 1.953 . S
O91 C85 1.298 . S
O92 Zn93 1.953 . S
O92 C108 1.225 . S
Zn93 O92 1.953 . S
Zn93 O94 1.949 . S
Zn93 O100 1.919 . S
Zn93 O105 1.924 . S
O94 Zn93 1.949 . S
O94 Zn95 1.923 . S
O94 Zn96 1.950 . S
O94 Zn97 1.945 . S
Zn95 O94 1.923 . S
Zn95 O98 1.933 . S
Zn95 O101 1.941 . S
Zn95 O102 1.965 . S
Zn96 O94 1.950 . S
Zn96 O103 1.938 . S
Zn96 O104 1.906 . S
Zn96 O114 1.953 . S
Zn97 O94 1.945 . S
Zn97 O99 1.932 . S
Zn97 O106 1.977 . S
Zn97 O107 1.910 . S
O98 Zn95 1.933 . S
O98 C109 1.226 . S
O99 Zn97 1.932 . S
O99 C109 1.307 . S
O100 Zn93 1.919 . S
O100 C111 1.253 . S
O101 Zn95 1.941 . S
O101 C111 1.283 . S
O102 Zn95 1.965 . S
O102 C110 1.303 . S
O103 Zn96 1.938 . S
O103 C110 1.247 . S
O104 Zn96 1.906 . S
O104 C112 1.304 . S
O105 Zn93 1.924 . S
O105 C113 1.311 . S
O106 Zn97 1.977 . S
O106 C112 1.272 . S
O107 Zn97 1.910 . S
O107 C113 1.231 . S
C108 O92 1.225 . S
C108 O114 1.298 . S
C109 O98 1.226 . S
C109 O99 1.307 . S
C110 O102 1.303 . S
C110 O103 1.247 . S
C111 O100 1.253 . S
C111 O101 1.283 . S
C112 O104 1.304 . S
C112 O106 1.272 . S
C113 O105 1.311 . S
C113 O107 1.231 . S
O114 Zn96 1.953 . S
O114 C108 1.298 . S
O115 Zn116 1.953 . S
O115 C131 1.225 . S
Zn116 O115 1.953 . S
Zn116 O117 1.949 . S
Zn116 O123 1.919 . S
Zn116 O128 1.924 . S
O117 Zn116 1.949 . S
O117 Zn118 1.923 . S
O117 Zn119 1.950 . S
O117 Zn120 1.945 . S
Zn118 O117 1.923 . S
Zn118 O121 1.933 . S
Zn118 O124 1.941 . S
Zn118 O125 1.965 . S
Zn119 O117 1.950 . S
Zn119 O126 1.938 . S
Zn119 O127 1.906 . S
Zn119 O137 1.953 . S
Zn120 O117 1.945 . S
Zn120 O122 1.932 . S
Zn120 O129 1.977 . S
Zn120 O130 1.910 . S
O121 Zn118 1.933 . S
O121 C132 1.226 . S
O122 Zn120 1.932 . S
O122 C132 1.307 . S
O123 Zn116 1.919 . S
O123 C134 1.253 . S
O124 Zn118 1.941 . S
O124 C134 1.283 . S
O125 Zn118 1.965 . S
O125 C133 1.303 . S
O126 Zn119 1.938 . S
O126 C133 1.247 . S
O127 Zn119 1.906 . S
O127 C135 1.304 . S
O128 Zn116 1.924 . S
O128 C136 1.311 . S
O129 Zn120 1.977 . S
O129 C135 1.272 . S
O130 Zn120 1.910 . S
O130 C136 1.231 . S
C131 O115 1.225 . S
C131 O137 1.298 . S
C132 O121 1.226 . S
C132 O122 1.307 . S
C133 O125 1.303 . S
C133 O126 1.247 . S
C134 O123 1.253 . S
C134 O124 1.283 . S
C135 O127 1.304 . S
C135 O129 1.272 . S
C136 O128 1.311 . S
C136 O130 1.231 . S
O137 Zn119 1.953 . S
O137 C131 1.298 . S
O138 Zn139 1.953 . S
O138 C154 1.225 . S
Zn139 O138 1.953 . S
Zn139 O140 1.949 . S
Zn139 O146 1.919 . S
Zn139 O151 1.924 . S
O140 Zn139 1.949 . S
O140 Zn141 1.923 . S
O140 Zn142 1.950 . S
O140 Zn143 1.945 . S
Zn141 O140 1.923 . S
Zn141 O144 1.933 . S
Zn141 O147 1.941 . S
Zn141 O148 1.965 . S
Zn142 O140 1.950 . S
Zn142 O149 1.938 . S
Zn142 O150 1.906 . S
Zn142 O160 1.953 . S
Zn143 O140 1.945 . S
Zn143 O145 1.932 . S
Zn143 O152 1.977 . S
Zn143 O153 1.910 . S
O144 Zn141 1.933 . S
O144 C155 1.226 . S
O145 Zn143 1.932 . S
O145 C155 1.307 . S
O146 Zn139 1.919 . S
O146 C157 1.253 . S
O147 Zn141 1.941 . S
O147 C157 1.283 . S
O148 Zn141 1.965 . S
O148 C156 1.303 . S
O149 Zn142 1.938 . S
O149 C156 1.247 . S
O150 Zn142 1.906 . S
O150 C158 1.304 . S
O151 Zn139 1.924 . S
O151 C159 1.311 . S
O152 Zn143 1.977 . S
O152 C158 1.272 . S
O153 Zn143 1.910 . S
O153 C159 1.231 . S
C154 O138 1.225 . S
C154 O160 1.298 . S
C155 O144 1.226 . S
C155 O145 1.307 . S
C156 O148 1.303 . S
C156 O149 1.247 . S
C157 O146 1.253 . S
C157 O147 1.283 . S
C158 O150 1.304 . S
C158 O152 1.272 . S
C159 O151 1.311 . S
C159 O153 1.231 . S
O160 Zn142 1.953 . S
O160 C154 1.298 . S
O161 Zn162 1.953 . S
O161 C177 1.225 . S
Zn162 O161 1.953 . S
Zn162 O163 1.949 . S
Zn162 O169 1.919 . S
Zn162 O174 1.924 . S
O163 Zn162 1.949 . S
O163 Zn164 1.923 . S
O163 Zn165 1.950 . S
O163 Zn166 1.945 . S
Zn164 O163 1.923 . S
Zn164 O167 1.933 . S
Zn164 O170 1.941 . S
Zn164 O171 1.965 . S
Zn165 O163 1.950 . S
Zn165 O172 1.938 . S
Zn165 O173 1.906 . S
Zn165 O183 1.953 . S
Zn166 O163 1.945 . S
Zn166 O168 1.932 . S
Zn166 O175 1.977 . S
Zn166 O176 1.910 . S
O167 Zn164 1.933 . S
O167 C178 1.226 . S
O168 Zn166 1.932 . S
O168 C178 1.307 . S
O169 Zn162 1.919 . S
O169 C180 1.253 . S
O170 Zn164 1.941 . S
O170 C180 1.283 . S
O171 Zn164 1.965 . S
O171 C179 1.303 . S
O172 Zn165 1.938 . S
O172 C179 1.247 . S
O173 Zn165 1.906 . S
O173 C181 1.304 . S
O174 Zn162 1.924 . S
O174 C182 1.311 . S
O175 Zn166 1.977 . S
O175 C181 1.272 . S
O176 Zn166 1.910 . S
O176 C182 1.231 . S
C177 O161 1.225 . S
C177 O183 1.298 . S
C178 O167 1.226 . S
C178 O168 1.307 . S
C179 O171 1.303 . S
C179 O172 1.247 . S
C180 O169 1.253 . S
C180 O170 1.283 . S
C181 O173 1.304 . S
C181 O175 1.272 . S
C182 O174 1.311 . S
C182 O176 1.231 . S
O183 Zn165 1.953 . S
O183 C177 1.298 . S
O184 Zn185 1.953 . S
O184 C200 1.225 . S
Zn185 O184 1.953 . S
Zn185 O186 1.949 . S
Zn185 O192 1.919 . S
Zn185 O197 1.924 . S
O186 Zn185 1.949 . S
O186 Zn187 1.923 . S
O186 Zn188 1.950 . S
O186 Zn189 1.945 . S
Zn187 O186 1.923 . S
Zn187 O190 1.933 . S
Zn187 O193 1.941 . S
Zn187 O194 1.965 . S
Zn188 O186 1.950 . S
Zn188 O195 1.938 . S
Zn188 O196 1.906 . S
Zn188 O206 1.953 . S
Zn189 O186 1.945 . S
Zn189 O191 1.932 . S
Zn189 O198 1.977 . S
Zn189 O199 1.910 . S
O190 Zn187 1.933 . S
O190 C201 1.226 . S
O191 Zn189 1.932 . S
O191 C201 1.307 . S
O192 Zn185 1.919 . S
O192 C203 1.253 . S
O193 Zn187 1.941 . S
O193 C203 1.283 . S
O194 Zn187 1.965 . S
O194 C202 1.303 . S
O195 Zn188 1.938 . S
O195 C202 1.247 . S
O196 Zn188 1.906 . S
O196 C204 1.304 . S
O197 Zn185 1.924 . S
O197 C205 1.311 . S
O198 Zn189 1.977 . S
O198 C204 1.272 . S
O199 Zn189 1.910 . S
O199 C205 1.231 . S
C200 O184 1.225 . S
C200 O206 1.298 . S
C201 O190 1.226 . S
C201 O191 1.307 . S
C202 O194 1.303 . S
C202 O195 1.247 . S
C203 O192 1.253 . S
C203 O193 1.283 . S
C204 O196 1.304 . S
C204 O198 1.272 . S
C205 O197 1.311 . S
C205 O199 1.231 . S
O206 Zn188 1.953 . S
O206 C200 1.298 . S
H207 C215 0.950 . S
H208 C220 0.950 . S
H209 C217 0.950 . S
H210 C219 0.950 . S
H211 C221 0.950 . S
H212 C223 0.950 . S
H213 C225 0.950 . S
H214 C226 0.950 . S
C215 H207 0.950 . S
C215 C216 1.386 . S
C215 C217 1.391 . S
C216 C215 1.386 . S
C216 C220 1.393 1_455 S
C217 H209 0.950 . S
C217 C215 1.391 . S
C217 C218 1.400 . S
C218 C217 1.400 . S
C218 C219 1.398 1_455 S
C218 C224 1.491 1_455 S
C219 H210 0.950 . S
C219 C218 1.398 1_655 S
C219 C220 1.391 . S
C220 H208 0.950 . S
C220 C216 1.393 1_655 S
C220 C219 1.391 . S
C221 H211 0.950 . S
C221 C222 1.386 . S
C221 C223 1.391 . S
C222 C221 1.386 . S
C222 C226 1.393 1_655 S
C223 H212 0.950 . S
C223 C221 1.391 . S
C223 C224 1.400 . S
C224 C218 1.491 1_655 S
C224 C223 1.400 . S
C224 C225 1.398 1_655 S
C225 H213 0.950 . S
C225 C224 1.398 1_455 S
C225 C226 1.391 . S
C226 H214 0.950 . S
C226 C222 1.393 1_455 S
C226 C225 1.391 . S
H227 C235 0.950 . S
H228 C240 0.950 . S
H229 C237 0.950 . S
H230 C239 0.950 . S
H231 C241 0.950 . S
H232 C243 0.950 . S
H233 C245 0.950 . S
H234 C246 0.950 . S
C235 H227 0.950 . S
C235 C236 1.386 . S
C235 C237 1.391 . S
C236 C235 1.386 . S
C236 C240 1.393 . S
C237 H229 0.950 . S
C237 C235 1.391 . S
C237 C238 1.400 . S
C238 C237 1.400 . S
C238 C239 1.398 . S
C238 C244 1.491 . S
C239 H230 0.950 . S
C239 C238 1.398 . S
C239 C240 1.391 . S
C240 H228 0.950 . S
C240 C236 1.393 . S
C240 C239 1.391 . S
C241 H231 0.950 . S
C241 C242 1.386 . S
C241 C243 1.391 . S
C242 C241 1.386 . S
C242 C246 1.393 . S
C243 H232 0.950 . S
C243 C241 1.391 . S
C243 C244 1.400 . S
C244 C238 1.491 . S
C244 C243 1.400 . S
C244 C245 1.398 . S
C245 H233 0.950 . S
C245 C244 1.398 . S
C245 C246 1.391 . S
C246 H234 0.950 . S
C246 C242 1.393 . S
C246 C245 1.391 . S
H247 C255 0.950 . S
H248 C260 0.950 . S
H249 C257 0.950 . S
H250 C259 0.950 . S
H251 C261 0.950 . S
H252 C263 0.950 1_565 S
H253 C265 0.950 . S
H254 C266 0.950 . S
C255 H247 0.950 . S
C255 C256 1.386 . S
C255 C257 1.391 . S
C256 C255 1.386 . S
C256 C260 1.393 1_545 S
C257 H249 0.950 . S
C257 C255 1.391 . S
C257 C258 1.400 . S
C258 C257 1.400 . S
C258 C259 1.398 1_545 S
C258 C264 1.491 . S
C259 H250 0.950 . S
C259 C258 1.398 1_565 S
C259 C260 1.391 . S
C260 H248 0.950 . S
C260 C256 1.393 1_565 S
C260 C259 1.391 . S
C261 H251 0.950 . S
C261 C262 1.386 . S
C261 C263 1.391 . S
C262 C261 1.386 . S
C262 C266 1.393 . S
C263 H252 0.950 1_545 S
C263 C261 1.391 . S
C263 C264 1.400 . S
C264 C258 1.491 . S
C264 C263 1.400 . S
C264 C265 1.398 . S
C265 H253 0.950 . S
C265 C264 1.398 . S
C265 C266 1.391 . S
C266 H254 0.950 . S
C266 C262 1.393 . S
C266 C265 1.391 . S
H267 C275 0.950 . S
H268 C280 0.950 . S
H269 C277 0.950 . S
H270 C279 0.950 . S
H271 C281 0.950 . S
H272 C283 0.950 . S
H273 C285 0.950 . S
H274 C286 0.950 . S
C275 H267 0.950 . S
C275 C276 1.386 . S
C275 C277 1.391 . S
C276 C275 1.386 . S
C276 C280 1.393 . S
C277 H269 0.950 . S
C277 C275 1.391 . S
C277 C278 1.400 . S
C278 C277 1.400 . S
C278 C279 1.398 . S
C278 C284 1.491 . S
C279 H270 0.950 . S
C279 C278 1.398 . S
C279 C280 1.391 . S
C280 H268 0.950 . S
C280 C276 1.393 . S
C280 C279 1.391 . S
C281 H271 0.950 . S
C281 C282 1.386 . S
C281 C283 1.391 1_554 S
C282 C281 1.386 . S
C282 C286 1.393 . S
C283 H272 0.950 . S
C283 C281 1.391 1_556 S
C283 C284 1.400 . S
C284 C278 1.491 . S
C284 C283 1.400 . S
C284 C285 1.398 . S
C285 H273 0.950 . S
C285 C284 1.398 . S
C285 C286 1.391 1_556 S
C286 H274 0.950 . S
C286 C282 1.393 . S
C286 C285 1.391 1_554 S
H287 C295 0.950 . S
H288 C300 0.950 . S
H289 C297 0.950 . S
H290 C299 0.950 . S
H291 C301 0.950 . S
H292 C303 0.950 . S
H293 C305 0.950 . S
H294 C306 0.950 . S
C295 H287 0.950 . S
C295 C296 1.386 . S
C295 C297 1.391 . S
C296 C295 1.386 . S
C296 C300 1.393 . S
C297 H289 0.950 . S
C297 C295 1.391 . S
C297 C298 1.400 . S
C298 C297 1.400 . S
C298 C299 1.398 . S
C298 C304 1.491 . S
C299 H290 0.950 . S
C299 C298 1.398 . S
C299 C300 1.391 . S
C300 H288 0.950 . S
C300 C296 1.393 . S
C300 C299 1.391 . S
C301 H291 0.950 . S
C301 C302 1.386 . S
C301 C303 1.391 1_554 S
C302 C301 1.386 . S
C302 C306 1.393 . S
C303 H292 0.950 . S
C303 C301 1.391 1_556 S
C303 C304 1.400 . S
C304 C298 1.491 . S
C304 C303 1.400 . S
C304 C305 1.398 . S
C305 H293 0.950 . S
C305 C304 1.398 . S
C305 C306 1.391 1_556 S
C306 H294 0.950 . S
C306 C302 1.393 . S
C306 C305 1.391 1_554 S
H307 C315 0.950 . S
H308 C320 0.950 . S
H309 C317 0.950 . S
H310 C319 0.950 . S
H311 C321 0.950 . S
H312 C323 0.950 . S
H313 C325 0.950 . S
H314 C326 0.950 . S
C315 H307 0.950 . S
C315 C316 1.386 . S
C315 C317 1.391 . S
C316 C315 1.386 . S
C316 C320 1.393 . S
C317 H309 0.950 . S
C317 C315 1.391 . S
C317 C318 1.400 . S
C318 C317 1.400 . S
C318 C319 1.398 . S
C318 C324 1.491 . S
C319 H310 0.950 . S
C319 C318 1.398 . S
C319 C320 1.391 . S
C320 H308 0.950 . S
C320 C316 1.393 . S
C320 C319 1.391 . S
C321 H311 0.950 . S
C321 C322 1.386 . S
C321 C323 1.391 1_554 S
C322 C321 1.386 . S
C322 C326 1.393 . S
C323 H312 0.950 . S
C323 C321 1.391 1_556 S
C323 C324 1.400 . S
C324 C318 1.491 . S
C324 C323 1.400 . S
C324 C325 1.398 . S
C325 H313 0.950 . S
C325 C324 1.398 . S
C325 C326 1.391 1_556 S
C326 H314 0.950 . S
C326 C322 1.393 . S
C326 C325 1.391 1_554 S
H327 C335 0.950 . S
H328 C340 0.950 . S
H329 C337 0.950 . S
H330 C339 0.950 . S
H331 C341 0.950 . S
H332 C343 0.950 . S
H333 C345 0.950 . S
H334 C346 0.950 . S
C335 H327 0.950 . S
C335 C336 1.386 . S
C335 C337 1.391 . S
C336 C335 1.386 . S
C336 C340 1.393 . S
C337 H329 0.950 . S
C337 C335 1.391 . S
C337 C338 1.400 . S
C338 C337 1.400 . S
C338 C339 1.398 . S
C338 C344 1.491 . S
C339 H330 0.950 . S
C339 C338 1.398 . S
C339 C340 1.391 . S
C340 H328 0.950 . S
C340 C336 1.393 . S
C340 C339 1.391 . S
C341 H331 0.950 . S
C341 C342 1.386 1_554 S
C341 C343 1.391 . S
C342 C341 1.386 1_556 S
C342 C346 1.393 1_556 S
C343 H332 0.950 . S
C343 C341 1.391 . S
C343 C344 1.400 . S
C344 C338 1.491 . S
C344 C343 1.400 . S
C344 C345 1.398 . S
C345 H333 0.950 . S
C345 C344 1.398 . S
C345 C346 1.391 . S
C346 H334 0.950 . S
C346 C342 1.393 1_554 S
C346 C345 1.391 . S
H347 C355 0.950 . S
H348 C360 0.950 . S
H349 C357 0.950 . S
H350 C359 0.950 . S
H351 C361 0.950 1_556 S
H352 C363 0.950 . S
H353 C365 0.950 . S
H354 C366 0.950 . S
C355 H347 0.950 . S
C355 C356 1.386 . S
C355 C357 1.391 . S
C356 C355 1.386 . S
C356 C360 1.393 . S
C357 H349 0.950 . S
C357 C355 1.391 . S
C357 C358 1.400 . S
C358 C357 1.400 . S
C358 C359 1.398 . S
C358 C364 1.491 . S
C359 H350 0.950 . S
C359 C358 1.398 . S
C359 C360 1.391 . S
C360 H348 0.950 . S
C360 C356 1.393 . S
C360 C359 1.391 . S
C361 H351 0.950 1_554 S
C361 C362 1.386 1_554 S
C361 C363 1.391 . S
C362 C361 1.386 1_556 S
C362 C366 1.393 1_556 S
C363 H352 0.950 . S
C363 C361 1.391 . S
C363 C364 1.400 . S
C364 C358 1.491 . S
C364 C363 1.400 . S
C364 C365 1.398 . S
C365 H353 0.950 . S
C365 C364 1.398 . S
C365 C366 1.391 . S
C366 H354 0.950 . S
C366 C362 1.393 1_554 S
C366 C365 1.391 . S
H367 C375 0.950 . S
H368 C380 0.950 . S
H369 C377 0.950 . S
H370 C379 0.950 . S
H371 C381 0.950 . S
H372 C383 0.950 . S
H373 C385 0.950 . S
H374 C386 0.950 1_556 S
C375 H367 0.950 . S
C375 C376 1.386 . S
C375 C377 1.391 . S
C376 C375 1.386 . S
C376 C380 1.393 . S
C377 H369 0.950 . S
C377 C375 1.391 . S
C377 C378 1.400 . S
C378 C377 1.400 . S
C378 C379 1.398 . S
C378 C384 1.491 . S
C379 H370 0.950 . S
C379 C378 1.398 . S
C379 C380 1.391 . S
C380 H368 0.950 . S
C380 C376 1.393 . S
C380 C379 1.391 . S
C381 H371 0.950 . S
C381 C382 1.386 1_554 S
C381 C383 1.391 . S
C382 C381 1.386 1_556 S
C382 C386 1.393 1_556 S
C383 H372 0.950 . S
C383 C381 1.391 . S
C383 C384 1.400 . S
C384 C378 1.491 . S
C384 C383 1.400 . S
C384 C385 1.398 . S
C385 H373 0.950 . S
C385 C384 1.398 . S
C385 C386 1.391 . S
C386 H374 0.950 1_554 S
C386 C382 1.393 1_554 S
C386 C385 1.391 . S
H387 C395 0.950 . S
H388 C400 0.950 . S
H389 C397 0.950 . S
H390 C399 0.950 . S
H391 C401 0.950 . S
H392 C403 0.950 . S
H393 C405 0.950 . S
H394 C406 0.950 1_556 S
C395 H387 0.950 . S
C395 C396 1.386 . S
C395 C397 1.391 . S
C396 C395 1.386 . S
C396 C400 1.393 . S
C397 H389 0.950 . S
C397 C395 1.391 . S
C397 C398 1.400 . S
C398 C397 1.400 . S
C398 C399 1.398 . S
C398 C404 1.491 . S
C399 H390 0.950 . S
C399 C398 1.398 . S
C399 C400 1.391 . S
C400 H388 0.950 . S
C400 C396 1.393 . S
C400 C399 1.391 . S
C401 H391 0.950 . S
C401 C402 1.386 . S
C401 C403 1.391 . S
C402 C401 1.386 . S
C402 C406 1.393 . S
C403 H392 0.950 . S
C403 C401 1.391 . S
C403 C404 1.400 . S
C404 C398 1.491 . S
C404 C403 1.400 . S
C404 C405 1.398 . S
C405 H393 0.950 . S
C405 C404 1.398 . S
C405 C406 1.391 . S
C406 H394 0.950 1_554 S
C406 C402 1.393 . S
C406 C405 1.391 . S
H407 C415 0.950 1_556 S
H408 C420 0.950 . S
H409 C417 0.950 . S
H410 C419 0.950 . S
H411 C421 0.950 . S
H412 C423 0.950 . S
H413 C425 0.950 . S
H414 C426 0.950 . S
C415 H407 0.950 1_554 S
C415 C416 1.386 . S
C415 C417 1.391 . S
C416 C415 1.386 . S
C416 C420 1.393 . S
C417 H409 0.950 . S
C417 C415 1.391 . S
C417 C418 1.400 . S
C418 C417 1.400 . S
C418 C419 1.398 . S
C418 C424 1.491 . S
C419 H410 0.950 . S
C419 C418 1.398 . S
C419 C420 1.391 . S
C420 H408 0.950 . S
C420 C416 1.393 . S
C420 C419 1.391 . S
C421 H411 0.950 . S
C421 C422 1.386 . S
C421 C423 1.391 . S
C422 C421 1.386 . S
C422 C426 1.393 . S
C423 H412 0.950 . S
C423 C421 1.391 . S
C423 C424 1.400 . S
C424 C418 1.491 . S
C424 C423 1.400 . S
C424 C425 1.398 . S
C425 H413 0.950 . S
C425 C424 1.398 . S
C425 C426 1.391 . S
C426 H414 0.950 . S
C426 C422 1.393 . S
C426 C425 1.391 . S
H427 C435 0.950 . S
H428 C440 0.950 1_556 S
H429 C437 0.950 . S
H430 C439 0.950 . S
H431 C441 0.950 . S
H432 C443 0.950 . S
H433 C445 0.950 . S
H434 C446 0.950 . S
C435 H427 0.950 . S
C435 C436 1.386 . S
C435 C437 1.391 . S
C436 C435 1.386 . S
C436 C440 1.393 . S
C437 H429 0.950 . S
C437 C435 1.391 . S
C437 C438 1.400 . S
C438 C437 1.400 . S
C438 C439 1.398 . S
C438 C444 1.491 . S
C439 H430 0.950 . S
C439 C438 1.398 . S
C439 C440 1.391 . S
C440 H428 0.950 1_554 S
C440 C436 1.393 . S
C440 C439 1.391 . S
C441 H431 0.950 . S
C441 C442 1.386 . S
C441 C443 1.391 . S
C442 C441 1.386 . S
C442 C446 1.393 . S
C443 H432 0.950 . S
C443 C441 1.391 . S
C443 C444 1.400 . S
C444 C438 1.491 . S
C444 C443 1.400 . S
C444 C445 1.398 . S
C445 H433 0.950 . S
C445 C444 1.398 . S
C445 C446 1.391 . S
C446 H434 0.950 . S
C446 C442 1.393 . S
C446 C445 1.391 . S
H447 C455 0.950 . S
H448 C460 0.950 . S
H449 C457 0.950 . S
H450 C459 0.950 . S
H451 C461 0.950 . S
H452 C463 0.950 . S
H453 C465 0.950 . S
H454 C466 0.950 . S
C455 H447 0.950 . S
C455 C456 1.386 . S
C455 C457 1.391 . S
C456 C455 1.386 . S
C456 C460 1.393 . S
C457 H449 0.950 . S
C457 C455 1.391 . S
C457 C458 1.400 . S
C458 C457 1.400 . S
C458 C459 1.398 . S
C458 C464 1.491 . S
C459 H450 0.950 . S
C459 C458 1.398 . S
C459 C460 1.391 . S
C460 H448 0.950 . S
C460 C456 1.393 . S
C460 C459 1.391 . S
C461 H451 0.950 . S
C461 C462 1.386 . S
C461 C463 1.391 . S
C462 C461 1.386 . S
C462 C466 1.393 . S
C463 H452 0.950 . S
C463 C461 1.391 . S
C463 C464 1.400 . S
C464 C458 1.491 . S
C464 C463 1.400 . S
C464 C465 1.398 . S
C465 H453 0.950 . S
C465 C464 1.398 . S
C465 C466 1.391 . S
C466 H454 0.950 . S
C466 C462 1.393 . S
C466 C465 1.391 . S
H467 C475 0.950 . S
H468 C480 0.950 . S
H469 C477 0.950 . S
H470 C479 0.950 . S
H471 C481 0.950 . S
H472 C483 0.950 . S
H473 C485 0.950 1_554 S
H474 C486 0.950 . S
C475 H467 0.950 . S
C475 C476 1.386 . S
C475 C477 1.391 . S
C476 C475 1.386 . S
C476 C480 1.393 . S
C477 H469 0.950 . S
C477 C475 1.391 . S
C477 C478 1.400 . S
C478 C477 1.400 . S
C478 C479 1.398 . S
C478 C484 1.491 . S
C479 H470 0.950 . S
C479 C478 1.398 . S
C479 C480 1.391 . S
C480 H468 0.950 . S
C480 C476 1.393 . S
C480 C479 1.391 . S
C481 H471 0.950 . S
C481 C482 1.386 . S
C481 C483 1.391 . S
C482 C481 1.386 . S
C482 C486 1.393 1_556 S
C483 H472 0.950 . S
C483 C481 1.391 . S
C483 C484 1.400 . S
C484 C478 1.491 . S
C484 C483 1.400 . S
C484 C485 1.398 . S
C485 H473 0.950 1_556 S
C485 C484 1.398 . S
C485 C486 1.391 1_556 S
C486 H474 0.950 . S
C486 C482 1.393 1_554 S
C486 C485 1.391 1_554 S
H487 C495 0.950 . S
H488 C500 0.950 . S
H489 C497 0.950 . S
H490 C499 0.950 . S
H491 C501 0.950 . S
H492 C503 0.950 . S
H493 C505 0.950 . S
H494 C506 0.950 . S
C495 H487 0.950 . S
C495 C496 1.386 . S
C495 C497 1.391 . S
C496 C495 1.386 . S
C496 C500 1.393 . S
C497 H489 0.950 . S
C497 C495 1.391 . S
C497 C498 1.400 . S
C498 C497 1.400 . S
C498 C499 1.398 . S
C498 C504 1.491 . S
C499 H490 0.950 . S
C499 C498 1.398 . S
C499 C500 1.391 . S
C500 H488 0.950 . S
C500 C496 1.393 . S
C500 C499 1.391 . S
C501 H491 0.950 . S
C501 C502 1.386 . S
C501 C503 1.391 . S
C502 C501 1.386 . S
C502 C506 1.393 . S
C503 H492 0.950 . S
C503 C501 1.391 . S
C503 C504 1.400 . S
C504 C498 1.491 . S
C504 C503 1.400 . S
C504 C505 1.398 . S
C505 H493 0.950 . S
C505 C504 1.398 . S
C505 C506 1.391 . S
C506 H494 0.950 . S
C506 C502 1.393 . S
C506 C505 1.391 . S
H507 C515 0.950 . S
H508 C520 0.950 . S
H509 C517 0.950 . S
H510 C519 0.950 . S
H511 C521 0.950 . S
H512 C523 0.950 . S
H513 C525 0.950 . S
H514 C526 0.950 . S
C515 H507 0.950 . S
C515 C516 1.386 . S
C515 C517 1.391 . S
C516 C515 1.386 . S
C516 C520 1.393 . S
C517 H509 0.950 . S
C517 C515 1.391 . S
C517 C518 1.400 . S
C518 C517 1.400 . S
C518 C519 1.398 . S
C518 C524 1.491 . S
C519 H510 0.950 . S
C519 C518 1.398 . S
C519 C520 1.391 . S
C520 H508 0.950 . S
C520 C516 1.393 . S
C520 C519 1.391 . S
C521 H511 0.950 . S
C521 C522 1.386 . S
C521 C523 1.391 . S
C522 C521 1.386 . S
C522 C526 1.393 1_556 S
C523 H512 0.950 . S
C523 C521 1.391 . S
C523 C524 1.400 . S
C524 C518 1.491 . S
C524 C523 1.400 . S
C524 C525 1.398 . S
C525 H513 0.950 . S
C525 C524 1.398 . S
C525 C526 1.391 1_556 S
C526 H514 0.950 . S
C526 C522 1.393 1_554 S
C526 C525 1.391 1_554 S
H527 C535 0.950 . S
H528 C540 0.950 . S
H529 C537 0.950 . S
H530 C539 0.950 . S
H531 C541 0.950 . S
H532 C543 0.950 . S
H533 C545 0.950 . S
H534 C546 0.950 . S
C535 H527 0.950 . S
C535 C536 1.386 . S
C535 C537 1.391 . S
C536 C535 1.386 . S
C536 C540 1.393 . S
C537 H529 0.950 . S
C537 C535 1.391 . S
C537 C538 1.400 . S
C538 C537 1.400 . S
C538 C539 1.398 . S
C538 C544 1.491 . S
C539 H530 0.950 . S
C539 C538 1.398 . S
C539 C540 1.391 . S
C540 H528 0.950 . S
C540 C536 1.393 . S
C540 C539 1.391 . S
C541 H531 0.950 . S
C541 C542 1.386 . S
C541 C543 1.391 . S
C542 C541 1.386 . S
C542 C546 1.393 . S
C543 H532 0.950 . S
C543 C541 1.391 . S
C543 C544 1.400 . S
C544 C538 1.491 . S
C544 C543 1.400 . S
C544 C545 1.398 . S
C545 H533 0.950 . S
C545 C544 1.398 . S
C545 C546 1.391 . S
C546 H534 0.950 . S
C546 C542 1.393 . S
C546 C545 1.391 . S
H547 C555 0.950 . S
H548 C560 0.950 . S
H549 C557 0.950 . S
H550 C559 0.950 . S
H551 C561 0.950 . S
H552 C563 0.950 . S
H553 C565 0.950 . S
H554 C566 0.950 . S
C555 H547 0.950 . S
C555 C556 1.386 . S
C555 C557 1.391 . S
C556 C555 1.386 . S
C556 C560 1.393 . S
C557 H549 0.950 . S
C557 C555 1.391 . S
C557 C558 1.400 . S
C558 C557 1.400 . S
C558 C559 1.398 . S
C558 C564 1.491 . S
C559 H550 0.950 . S
C559 C558 1.398 . S
C559 C560 1.391 . S
C560 H548 0.950 . S
C560 C556 1.393 . S
C560 C559 1.391 . S
C561 H551 0.950 . S
C561 C562 1.386 . S
C561 C563 1.391 . S
C562 C561 1.386 . S
C562 C566 1.393 . S
C563 H552 0.950 . S
C563 C561 1.391 . S
C563 C564 1.400 . S
C564 C558 1.491 . S
C564 C563 1.400 . S
C564 C565 1.398 . S
C565 H553 0.950 . S
C565 C564 1.398 . S
C565 C566 1.391 . S
C566 H554 0.950 . S
C566 C562 1.393 . S
C566 C565 1.391 . S
H567 C575 0.950 . S
H568 C580 0.950 1_556 S
H569 C577 0.950 . S
H570 C579 0.950 . S
H571 C581 0.950 . S
H572 C583 0.950 . S
H573 C585 0.950 . S
H574 C586 0.950 . S
C575 H567 0.950 . S
C575 C576 1.386 . S
C575 C577 1.391 . S
C576 C575 1.386 . S
C576 C580 1.393 . S
C577 H569 0.950 . S
C577 C575 1.391 . S
C577 C578 1.400 . S
C578 C577 1.400 . S
C578 C579 1.398 . S
C578 C584 1.491 . S
C579 H570 0.950 . S
C579 C578 1.398 . S
C579 C580 1.391 . S
C580 H568 0.950 1_554 S
C580 C576 1.393 . S
C580 C579 1.391 . S
C581 H571 0.950 . S
C581 C582 1.386 . S
C581 C583 1.391 . S
C582 C581 1.386 . S
C582 C586 1.393 . S
C583 H572 0.950 . S
C583 C581 1.391 . S
C583 C584 1.400 . S
C584 C578 1.491 . S
C584 C583 1.400 . S
C584 C585 1.398 . S
C585 H573 0.950 . S
C585 C584 1.398 . S
C585 C586 1.391 . S
C586 H574 0.950 . S
C586 C582 1.393 . S
C586 C585 1.391 . S
H587 C595 0.950 . S
H588 C600 0.950 . S
H589 C597 0.950 . S
H590 C599 0.950 . S
H591 C601 0.950 . S
H592 C603 0.950 . S
H593 C605 0.950 . S
H594 C606 0.950 . S
C595 H587 0.950 . S
C595 C596 1.386 . S
C595 C597 1.391 . S
C596 C595 1.386 . S
C596 C600 1.393 . S
C597 H589 0.950 . S
C597 C595 1.391 . S
C597 C598 1.400 . S
C598 C597 1.400 . S
C598 C599 1.398 . S
C598 C604 1.491 . S
C599 H590 0.950 . S
C599 C598 1.398 . S
C599 C600 1.391 . S
C600 H588 0.950 . S
C600 C596 1.393 . S
C600 C599 1.391 . S
C601 H591 0.950 . S
C601 C602 1.386 . S
C601 C603 1.391 . S
C602 C601 1.386 . S
C602 C606 1.393 . S
C603 H592 0.950 . S
C603 C601 1.391 . S
C603 C604 1.400 . S
C604 C598 1.491 . S
C604 C603 1.400 . S
C604 C605 1.398 . S
C605 H593 0.950 . S
C605 C604 1.398 . S
C605 C606 1.391 . S
C606 H594 0.950 . S
C606 C602 1.393 . S
C606 C605 1.391 . S
H607 C615 0.950 . S
H608 C620 0.950 1_556 S
H609 C617 0.950 . S
H610 C619 0.950 . S
H611 C621 0.950 . S
H612 C623 0.950 . S
H613 C625 0.950 . S
H614 C626 0.950 . S
C615 H607 0.950 . S
C615 C616 1.386 . S
C615 C617 1.391 . S
C616 C615 1.386 . S
C616 C620 1.393 . S
C617 H609 0.950 . S
C617 C615 1.391 . S
C617 C618 1.400 . S
C618 C617 1.400 . S
C618 C619 1.398 . S
C618 C624 1.491 . S
C619 H610 0.950 . S
C619 C618 1.398 . S
C619 C620 1.391 . S
C620 H608 0.950 1_554 S
C620 C616 1.393 . S
C620 C619 1.391 . S
C621 H611 0.950 . S
C621 C622 1.386 . S
C621 C623 1.391 . S
C622 C621 1.386 . S
C622 C626 1.393 . S
C623 H612 0.950 . S
C623 C621 1.391 . S
C623 C624 1.400 . S
C624 C618 1.491 . S
C624 C623 1.400 . S
C624 C625 1.398 . S
C625 H613 0.950 . S
C625 C624 1.398 . S
C625 C626 1.391 . S
C626 H614 0.950 . S
C626 C622 1.393 . S
C626 C625 1.391 . S
H627 C635 0.950 . S
H628 C640 0.950 . S
H629 C637 0.950 . S
H630 C639 0.950 . S
H631 C641 0.950 . S
H632 C643 0.950 . S
H633 C645 0.950 . S
H634 C646 0.950 . S
C635 H627 0.950 . S
C635 C636 1.386 . S
C635 C637 1.391 . S
C636 C635 1.386 . S
C636 C640 1.393 . S
C637 H629 0.950 . S
C637 C635 1.391 . S
C637 C638 1.400 . S
C638 C637 1.400 . S
C638 C639 1.398 . S
C638 C644 1.491 . S
C639 H630 0.950 . S
C639 C638 1.398 . S
C639 C640 1.391 . S
C640 H628 0.950 . S
C640 C636 1.393 . S
C640 C639 1.391 . S
C641 H631 0.950 . S
C641 C642 1.386 . S
C641 C643 1.391 . S
C642 C641 1.386 . S
C642 C646 1.393 . S
C643 H632 0.950 . S
C643 C641 1.391 . S
C643 C644 1.400 . S
C644 C638 1.491 . S
C644 C643 1.400 . S
C644 C645 1.398 . S
C645 H633 0.950 . S
C645 C644 1.398 . S
C645 C646 1.391 . S
C646 H634 0.950 . S
C646 C642 1.393 . S
C646 C645 1.391 . S
H647 C655 0.950 . S
H648 C660 0.950 . S
H649 C657 0.950 . S
H650 C659 0.950 . S
H651 C661 0.950 . S
H652 C663 0.950 . S
H653 C665 0.950 1_545 S
H654 C666 0.950 . S
C655 H647 0.950 . S
C655 C656 1.386 . S
C655 C657 1.391 . S
C656 C655 1.386 . S
C656 C660 1.393 . S
C657 H649 0.950 . S
C657 C655 1.391 . S
C657 C658 1.400 . S
C658 C657 1.400 . S
C658 C659 1.398 . S
C658 C664 1.491 . S
C659 H650 0.950 . S
C659 C658 1.398 . S
C659 C660 1.391 . S
C660 H648 0.950 . S
C660 C656 1.393 . S
C660 C659 1.391 . S
C661 H651 0.950 . S
C661 C662 1.386 . S
C661 C663 1.391 . S
C662 C661 1.386 . S
C662 C666 1.393 . S
C663 H652 0.950 . S
C663 C661 1.391 . S
C663 C664 1.400 1_565 S
C664 C658 1.491 . S
C664 C663 1.400 1_545 S
C664 C665 1.398 1_545 S
C665 H653 0.950 1_565 S
C665 C664 1.398 1_565 S
C665 C666 1.391 . S
C666 H654 0.950 . S
C666 C662 1.393 . S
C666 C665 1.391 . S
H667 C675 0.950 . S
H668 C680 0.950 . S
H669 C677 0.950 . S
H670 C679 0.950 1_455 S
H671 C681 0.950 . S
H672 C683 0.950 . S
H673 C685 0.950 . S
H674 C686 0.950 . S
C675 H667 0.950 . S
C675 C676 1.386 . S
C675 C677 1.391 . S
C676 C675 1.386 . S
C676 C680 1.393 . S
C677 H669 0.950 . S
C677 C675 1.391 . S
C677 C678 1.400 . S
C678 C677 1.400 . S
C678 C679 1.398 . S
C678 C684 1.491 1_655 S
C679 H670 0.950 1_655 S
C679 C678 1.398 . S
C679 C680 1.391 . S
C680 H668 0.950 . S
C680 C676 1.393 . S
C680 C679 1.391 . S
C681 H671 0.950 . S
C681 C682 1.386 . S
C681 C683 1.391 . S
C682 C681 1.386 . S
C682 C686 1.393 . S
C683 H672 0.950 . S
C683 C681 1.391 . S
C683 C684 1.400 . S
C684 C678 1.491 1_455 S
C684 C683 1.400 . S
C684 C685 1.398 . S
C685 H673 0.950 . S
C685 C684 1.398 . S
C685 C686 1.391 . S
C686 H674 0.950 . S
C686 C682 1.393 . S
C686 C685 1.391 . S
H687 C695 0.950 . S
H688 C700 0.950 . S
H689 C697 0.950 . S
H690 C699 0.950 . S
H691 C701 0.950 . S
H692 C703 0.950 . S
H693 C705 0.950 . S
H694 C706 0.950 . S
C695 H687 0.950 . S
C695 C696 1.386 . S
C695 C697 1.391 . S
C696 C695 1.386 . S
C696 C700 1.393 . S
C697 H689 0.950 . S
C697 C695 1.391 . S
C697 C698 1.400 . S
C698 C697 1.400 . S
C698 C699 1.398 . S
C698 C704 1.491 . S
C699 H690 0.950 . S
C699 C698 1.398 . S
C699 C700 1.391 . S
C700 H688 0.950 . S
C700 C696 1.393 . S
C700 C699 1.391 . S
C701 H691 0.950 . S
C701 C702 1.386 . S
C701 C703 1.391 . S
C702 C701 1.386 . S
C702 C706 1.393 . S
C703 H692 0.950 . S
C703 C701 1.391 . S
C703 C704 1.400 . S
C704 C698 1.491 . S
C704 C703 1.400 . S
C704 C705 1.398 . S
C705 H693 0.950 . S
C705 C704 1.398 . S
C705 C706 1.391 . S
C706 H694 0.950 . S
C706 C702 1.393 . S
C706 C705 1.391 . S
H707 C715 0.950 . S
H708 C720 0.950 . S
H709 C717 0.950 . S
H710 C719 0.950 . S
H711 C721 0.950 . S
H712 C723 0.950 . S
H713 C725 0.950 . S
H714 C726 0.950 . S
C715 H707 0.950 . S
C715 C716 1.386 . S
C715 C717 1.391 1_565 S
C716 C715 1.386 . S
C716 C720 1.393 . S
C717 H709 0.950 . S
C717 C715 1.391 1_545 S
C717 C718 1.400 . S
C718 C717 1.400 . S
C718 C719 1.398 . S
C718 C724 1.491 . S
C719 H710 0.950 . S
C719 C718 1.398 . S
C719 C720 1.391 1_545 S
C720 H708 0.950 . S
C720 C716 1.393 . S
C720 C719 1.391 1_565 S
C721 H711 0.950 . S
C721 C722 1.386 . S
C721 C723 1.391 . S
C722 C721 1.386 . S
C722 C726 1.393 . S
C723 H712 0.950 . S
C723 C721 1.391 . S
C723 C724 1.400 . S
C724 C718 1.491 . S
C724 C723 1.400 . S
C724 C725 1.398 . S
C725 H713 0.950 . S
C725 C724 1.398 . S
C725 C726 1.391 . S
C726 H714 0.950 . S
C726 C722 1.393 . S
C726 C725 1.391 . S
H727 C735 0.950 . S
H728 C740 0.950 . S
H729 C737 0.950 . S
H730 C739 0.950 . S
H731 C741 0.950 . S
H732 C743 0.950 . S
H733 C745 0.950 . S
H734 C746 0.950 . S
C735 H727 0.950 . S
C735 C736 1.386 . S
C735 C737 1.391 . S
C736 C735 1.386 . S
C736 C740 1.393 . S
C737 H729 0.950 . S
C737 C735 1.391 . S
C737 C738 1.400 . S
C738 C737 1.400 . S
C738 C739 1.398 . S
C738 C744 1.491 1_655 S
C739 H730 0.950 . S
C739 C738 1.398 . S
C739 C740 1.391 . S
C740 H728 0.950 . S
C740 C736 1.393 . S
C740 C739 1.391 . S
C741 H731 0.950 . S
C741 C742 1.386 . S
C741 C743 1.391 . S
C742 C741 1.386 . S
C742 C746 1.393 . S
C743 H732 0.950 . S
C743 C741 1.391 . S
C743 C744 1.400 . S
C744 C738 1.491 1_455 S
C744 C743 1.400 . S
C744 C745 1.398 . S
C745 H733 0.950 . S
C745 C744 1.398 . S
C745 C746 1.391 . S
C746 H734 0.950 . S
C746 C742 1.393 . S
C746 C745 1.391 . S
C216 C19 0.994 . S
C222 C20 0.950 . S
C236 C42 1.023 . S
C242 C43 0.942 . S
C256 C65 1.019 . S
C262 C66 0.931 . S
C276 C87 1.072 . S
C282 C90 0.996 . S
C296 C110 1.072 . S
C302 C113 0.997 . S
C316 C133 1.072 . S
C322 C136 1.005 . S
C336 C159 0.992 . S
C342 C156 1.033 . S
C356 C182 0.991 . S
C362 C179 1.032 . S
C376 C205 0.961 . S
C382 C202 1.034 . S
C396 C132 1.446 . S
C402 C16 1.442 . S
C416 C39 1.439 . S
C422 C86 1.444 . S
C436 C62 1.432 . S
C442 C109 1.454 . S
C456 C64 1.198 . S
C462 C157 1.192 . S
C476 C180 1.181 . S
C482 C18 1.191 . S
C496 C203 1.166 . S
C502 C41 1.196 . S
C516 C200 1.006 . S
C522 C17 1.002 . S
C536 C40 1.012 . S
C542 C154 1.009 . S
C556 C177 0.991 . S
C562 C63 0.999 . S
C576 C67 1.194 . S
C582 C89 1.172 . S
C596 C112 1.188 . S
C602 C21 1.180 . S
C616 C44 1.193 . S
C622 C135 1.174 . S
C636 C201 1.294 . S
C642 C88 1.266 . S
C656 C155 1.291 . S
C662 C111 1.253 . S
C676 C178 1.294 . S
C682 C134 1.266 . S
C696 C158 1.055 . S
C702 C131 1.088 . S
C716 C85 1.102 . S
C722 C181 1.049 . S
C736 C204 1.051 . S
C742 C108 1.102 . S
