# Generated by pormake.
# Topology uof, (4)-cn, num edge types: 1
# Building blocks:
#     Node 0, Type 0, BuildingBlock: NAHDIM_clean_sbu_0, # of connection points: 4
#     Node 1, Type 0, BuildingBlock: NAHDIM_clean_sbu_0, # of connection points: 4
#     Node 2, Type 0, BuildingBlock: NAHDIM_clean_sbu_0, # of connection points: 4
#     Node 3, Type 0, BuildingBlock: NAHDIM_clean_sbu_0, # of connection points: 4
#     Node 4, Type 0, BuildingBlock: NAHDIM_clean_sbu_0, # of connection points: 4
#     Node 5, Type 0, BuildingBlock: NAHDIM_clean_sbu_0, # of connection points: 4
#     Node 6, Type 0, BuildingBlock: NAHDIM_clean_sbu_0, # of connection points: 4
#     Node 7, Type 0, BuildingBlock: NAHDIM_clean_sbu_0, # of connection points: 4
#     Node 8, Type 0, BuildingBlock: NAHDIM_clean_sbu_0, # of connection points: 4
#     Node 9, Type 0, BuildingBlock: NAHDIM_clean_sbu_0, # of connection points: 4
#     Node 10, Type 0, BuildingBlock: NAHDIM_clean_sbu_0, # of connection points: 4
#     Node 11, Type 0, BuildingBlock: NAHDIM_clean_sbu_0, # of connection points: 4
#     Edge 12, Type (0, 0), BuildingBlock: UVAHIK_clean_linker_0, # of connection points: 2
#     Edge 13, Type (0, 0), BuildingBlock: UVAHIK_clean_linker_0, # of connection points: 2
#     Edge 14, Type (0, 0), BuildingBlock: UVAHIK_clean_linker_0, # of connection points: 2
#     Edge 15, Type (0, 0), BuildingBlock: UVAHIK_clean_linker_0, # of connection points: 2
#     Edge 16, Type (0, 0), BuildingBlock: UVAHIK_clean_linker_0, # of connection points: 2
#     Edge 17, Type (0, 0), BuildingBlock: UVAHIK_clean_linker_0, # of connection points: 2
#     Edge 18, Type (0, 0), BuildingBlock: UVAHIK_clean_linker_0, # of connection points: 2
#     Edge 19, Type (0, 0), BuildingBlock: UVAHIK_clean_linker_0, # of connection points: 2
#     Edge 20, Type (0, 0), BuildingBlock: UVAHIK_clean_linker_0, # of connection points: 2
#     Edge 21, Type (0, 0), BuildingBlock: UVAHIK_clean_linker_0, # of connection points: 2
#     Edge 22, Type (0, 0), BuildingBlock: UVAHIK_clean_linker_0, # of connection points: 2
#     Edge 23, Type (0, 0), BuildingBlock: UVAHIK_clean_linker_0, # of connection points: 2
#     Edge 24, Type (0, 0), BuildingBlock: UVAHIK_clean_linker_0, # of connection points: 2
#     Edge 25, Type (0, 0), BuildingBlock: UVAHIK_clean_linker_0, # of connection points: 2
#     Edge 26, Type (0, 0), BuildingBlock: UVAHIK_clean_linker_0, # of connection points: 2
#     Edge 27, Type (0, 0), BuildingBlock: UVAHIK_clean_linker_0, # of connection points: 2
#     Edge 28, Type (0, 0), BuildingBlock: UVAHIK_clean_linker_0, # of connection points: 2
#     Edge 29, Type (0, 0), BuildingBlock: UVAHIK_clean_linker_0, # of connection points: 2
#     Edge 30, Type (0, 0), BuildingBlock: UVAHIK_clean_linker_0, # of connection points: 2
#     Edge 31, Type (0, 0), BuildingBlock: UVAHIK_clean_linker_0, # of connection points: 2
#     Edge 32, Type (0, 0), BuildingBlock: UVAHIK_clean_linker_0, # of connection points: 2
#     Edge 33, Type (0, 0), BuildingBlock: UVAHIK_clean_linker_0, # of connection points: 2
#     Edge 34, Type (0, 0), BuildingBlock: UVAHIK_clean_linker_0, # of connection points: 2
#     Edge 35, Type (0, 0), BuildingBlock: UVAHIK_clean_linker_0, # of connection points: 2
# Relax obj value: 0.221
# Max RMSD: 0.169
# Mean RMSD: 0.169
data_MOF--net-uof--node1-NAHDIM_clean_sbu_0--edge1-UVAHIK_clean_linker_0
_symmetry_space_group_name_H-M    P1
_symmetry_Int_Tables_number       1
_symmetry_cell_setting            triclinic
loop_
_symmetry_equiv_pos_as_xyz
'x, y, z'
_cell_length_a     41.759516
_cell_length_b     41.769289
_cell_length_c     78.117917
_cell_angle_alpha  89.965073
_cell_angle_beta   90.002996
_cell_angle_gamma 120.05429
loop_
_atom_site_label
_atom_site_type_symbol
_atom_site_fract_x
_atom_site_fract_y
_atom_site_fract_z
_atom_type_partial_charge
C0 C 0.15681 0.32311 0.2119 0.0
O1 O 0.152 0.30344 0.22577 0.0
O2 O 0.22358 0.32118 0.24003 0.0
Zn3 Zn 0.23023 0.33421 0.21484 0.0
O4 O 0.23098 0.29234 0.2026 0.0
C5 C 0.29807 0.39992 0.22391 0.0
O6 O 0.28135 0.39413 0.23878 0.0
O7 O 0.18881 0.34041 0.20517 0.0
C8 C 0.25739 0.2865 0.20599 0.0
O9 O 0.28321 0.30861 0.21677 0.0
C10 C 0.20809 0.28778 0.24511 0.0
O11 O 0.19333 0.26098 0.23378 0.0
O12 O 0.2805 0.37922 0.21134 0.0
C13 C 0.83781 0.15735 0.54415 0.0
O14 O 0.85746 0.15267 0.55597 0.0
O15 O 0.90372 0.22445 0.57318 0.0
Zn16 Zn 0.896 0.23173 0.54822 0.0
O17 O 0.93796 0.23297 0.53503 0.0
C18 C 0.90203 0.30093 0.5582 0.0
O19 O 0.89578 0.28568 0.57345 0.0
O20 O 0.84803 0.18996 0.539 0.0
C21 C 0.96952 0.26217 0.53539 0.0
O22 O 0.97354 0.29108 0.5439 0.0
C23 C 0.92444 0.21175 0.57777 0.0
O24 O 0.93904 0.20041 0.56604 0.0
O25 O 0.90048 0.28189 0.5452 0.0
C26 C 0.67956 0.84417 0.87662 0.0
O27 O 0.70408 0.86463 0.88823 0.0
O28 O 0.67454 0.90735 0.90586 0.0
Zn29 Zn 0.66246 0.90129 0.88058 0.0
O30 O 0.70456 0.94348 0.86808 0.0
C31 C 0.59648 0.90289 0.8894 0.0
O32 O 0.60226 0.89203 0.90429 0.0
O33 O 0.6566 0.85358 0.87144 0.0
C34 C 0.70664 0.97489 0.86771 0.0
O35 O 0.68062 0.97887 0.87513 0.0
C36 C 0.70648 0.93032 0.91158 0.0
O37 O 0.73362 0.94915 0.90076 0.0
O38 O 0.61713 0.90591 0.87683 0.0
C39 C 0.83158 0.66098 0.20745 0.0
O40 O 0.8358 0.66715 0.22401 0.0
O41 O 0.77925 0.6805 0.23738 0.0
Zn42 Zn 0.7657 0.66667 0.21261 0.0
O43 O 0.76426 0.70938 0.20162 0.0
C44 C 0.69487 0.60882 0.22456 0.0
O45 O 0.7106 0.62098 0.23953 0.0
O46 O 0.80318 0.65837 0.20013 0.0
C47 C 0.74139 0.71826 0.20749 0.0
O48 O 0.71933 0.69873 0.22008 0.0
C49 C 0.79914 0.71396 0.24208 0.0
O50 O 0.81441 0.73999 0.2304 0.0
O51 O 0.71382 0.62276 0.21104 0.0
C52 C 0.15152 0.83891 0.54303 0.0
O53 O 0.1285 0.84149 0.55364 0.0
O54 O 0.08862 0.76822 0.5717 0.0
Zn55 Zn 0.09649 0.76394 0.54644 0.0
O56 O 0.05491 0.76407 0.53353 0.0
C57 C 0.09685 0.6971 0.55471 0.0
O58 O 0.10781 0.7136 0.56962 0.0
O59 O 0.14453 0.807 0.5382 0.0
C60 C 0.02386 0.73447 0.53219 0.0
O61 O 0.01971 0.70376 0.53889 0.0
C62 C 0.06483 0.77617 0.57728 0.0
O63 O 0.04612 0.7844 0.56636 0.0
O64 O 0.09292 0.71457 0.54232 0.0
C65 C 0.30584 0.15058 0.87974 0.0
O66 O 0.27955 0.12802 0.89022 0.0
O67 O 0.3125 0.08808 0.90936 0.0
Zn68 Zn 0.32504 0.09514 0.88412 0.0
O69 O 0.28354 0.05306 0.87138 0.0
C70 C 0.39096 0.09307 0.89274 0.0
O71 O 0.38416 0.10168 0.90795 0.0
O72 O 0.33061 0.14302 0.87537 0.0
C73 C 0.27984 0.02106 0.87279 0.0
O74 O 0.30369 0.01692 0.88213 0.0
C75 C 0.28022 0.06575 0.91495 0.0
O76 O 0.25294 0.04826 0.90404 0.0
O77 O 0.37073 0.09125 0.88019 0.0
C78 C 0.68914 0.84377 0.44348 0.0
O79 O 0.71573 0.8482 0.43305 0.0
O80 O 0.69051 0.77606 0.41565 0.0
Zn81 Zn 0.67211 0.76913 0.4401 0.0
O82 O 0.71071 0.76785 0.455 0.0
C83 C 0.60933 0.70033 0.42916 0.0
O84 O 0.62062 0.7152 0.41395 0.0
O85 O 0.66514 0.8112 0.44803 0.0
C86 C 0.71239 0.73835 0.45589 0.0
O87 O 0.68793 0.70886 0.44755 0.0
C88 C 0.72431 0.78766 0.4121 0.0
O89 O 0.74857 0.79801 0.42458 0.0
O90 O 0.62557 0.71934 0.44237 0.0
C91 C 0.84294 0.68362 0.7825 0.0
O92 O 0.86773 0.70999 0.7727 0.0
O93 O 0.91056 0.67843 0.75628 0.0
Zn94 Zn 0.89767 0.66315 0.78092 0.0
O95 O 0.93737 0.70435 0.79496 0.0
C96 C 0.89355 0.59409 0.77262 0.0
O97 O 0.88108 0.59907 0.758 0.0
O98 O 0.84872 0.65797 0.78744 0.0
C99 C 0.96172 0.70092 0.80322 0.0
O100 O 0.96042 0.66884 0.8033 0.0
C101 C 0.94213 0.68418 0.75152 0.0
O102 O 0.96301 0.67942 0.76263 0.0
O103 O 0.89978 0.61658 0.78481 0.0
C104 C 0.16161 0.82797 0.1164 0.0
O105 O 0.16334 0.83579 0.10001 0.0
O106 O 0.22419 0.91155 0.09409 0.0
Zn107 Zn 0.22891 0.89987 0.11867 0.0
O108 O 0.22708 0.93949 0.13257 0.0
C109 C 0.29541 0.89939 0.10925 0.0
O110 O 0.27773 0.88701 0.09468 0.0
O111 O 0.18711 0.85049 0.1263 0.0
C112 C 0.25266 0.96081 0.14276 0.0
O113 O 0.28114 0.95607 0.14516 0.0
C114 C 0.24885 0.94371 0.08933 0.0
O115 O 0.27411 0.96537 0.10042 0.0
O116 O 0.27892 0.90435 0.12175 0.0
C117 C 0.31289 0.16333 0.44895 0.0
O118 O 0.28782 0.15974 0.43776 0.0
O119 O 0.3132 0.23227 0.42171 0.0
Zn120 Zn 0.32963 0.23798 0.44644 0.0
O121 O 0.28988 0.2385 0.46076 0.0
C122 C 0.39557 0.30414 0.43607 0.0
O123 O 0.38802 0.28641 0.42141 0.0
O124 O 0.336 0.1955 0.45435 0.0
C125 C 0.28865 0.26814 0.46237 0.0
O126 O 0.31451 0.29865 0.45519 0.0
C127 C 0.27983 0.22134 0.41757 0.0
O128 O 0.25463 0.21104 0.42963 0.0
O129 O 0.37592 0.28767 0.44909 0.0
C130 C 0.15437 0.31635 0.78155 0.0
O131 O 0.13438 0.29215 0.76974 0.0
O132 O 0.08523 0.31509 0.75415 0.0
Zn133 Zn 0.0952 0.33143 0.77888 0.0
O134 O 0.05451 0.29148 0.79301 0.0
C135 C 0.09006 0.39486 0.76857 0.0
O136 O 0.09648 0.38571 0.7534 0.0
O137 O 0.14392 0.33819 0.7872 0.0
C138 C 0.02344 0.29006 0.79404 0.0
O139 O 0.01898 0.31549 0.78631 0.0
C140 C 0.06353 0.28159 0.74995 0.0
O141 O 0.04914 0.25621 0.76195 0.0
O142 O 0.09125 0.37738 0.78165 0.0
C143 C 0.83367 0.14999 0.11724 0.0
O144 O 0.83521 0.12409 0.10835 0.0
O145 O 0.7616 0.08268 0.09054 0.0
Zn146 Zn 0.75905 0.09545 0.11516 0.0
O147 O 0.76227 0.05668 0.12907 0.0
C148 C 0.69198 0.09561 0.107 0.0
O149 O 0.70879 0.10791 0.09224 0.0
O150 O 0.80214 0.14505 0.12151 0.0
C151 C 0.74068 0.03937 0.14143 0.0
O152 O 0.71552 0.04776 0.14603 0.0
C153 C 0.73686 0.05033 0.08609 0.0
O154 O 0.7123 0.02879 0.09748 0.0
O155 O 0.70933 0.09099 0.11924 0.0
C156 C 0.9023 0.18419 0.12068 0.0
C157 C 0.86807 0.18171 0.12397 0.0
C158 C 0.93438 0.21102 0.12874 0.0
C159 C 0.96297 0.26654 0.1681 0.0
H160 H 0.06013 0.30199 0.14833 0.0
C161 C 0.12886 0.34088 0.18785 0.0
C162 C 0.12444 0.32066 0.20292 0.0
C163 C 0.09801 0.33455 0.17819 0.0
C164 C 0.03336 0.29316 0.15405 0.0
H165 H 0.84106 0.20707 0.13747 0.0
H166 H 0.89737 0.25455 0.15134 0.0
H167 H 0.00588 0.27317 0.13005 0.0
H168 H 0.08408 0.27949 0.22017 0.0
H169 H 0.03074 0.26768 0.20319 0.0
H170 H 0.99047 0.28662 0.19209 0.0
C171 C 0.89922 0.23514 0.1428 0.0
C172 C 0.00211 0.27608 0.14356 0.0
C173 C 0.86698 0.20806 0.13477 0.0
C174 C 0.08851 0.29551 0.2086 0.0
C175 C 0.05777 0.28896 0.19889 0.0
C176 C 0.99426 0.28403 0.17855 0.0
C177 C 0.93316 0.23633 0.14022 0.0
C178 C 0.96643 0.26112 0.15058 0.0
C179 C 0.06213 0.30766 0.18332 0.0
C180 C 0.02974 0.29614 0.17179 0.0
H181 H 0.90419 0.1644 0.1124 0.0
H182 H 0.95978 0.2106 0.1266 0.0
H183 H 0.936 0.25537 0.174 0.0
H184 H 0.15619 0.36075 0.18322 0.0
H185 H 0.10238 0.34999 0.16644 0.0
C186 C 0.7879 0.12908 0.52182 0.0
C187 C 0.80755 0.12481 0.5354 0.0
C188 C 0.76293 0.09845 0.51215 0.0
C189 C 0.73885 0.03666 0.48618 0.0
H190 H 0.68817 0.9372 0.50472 0.0
C191 C 0.71974 0.91203 0.4479 0.0
C192 C 0.69028 0.87642 0.45151 0.0
C193 C 0.72406 0.94257 0.45708 0.0
C194 C 0.70139 0.96472 0.49925 0.0
H195 H 0.81478 0.08476 0.55008 0.0
H196 H 0.77239 0.03192 0.53307 0.0
H197 H 0.71165 0.98977 0.524 0.0
H198 H 0.64073 0.84528 0.46681 0.0
H199 H 0.64788 0.89885 0.48268 0.0
H200 H 0.72859 0.01161 0.46142 0.0
C201 C 0.77553 0.05862 0.52997 0.0
C202 C 0.71537 0.99495 0.51036 0.0
C203 C 0.80021 0.0891 0.53968 0.0
C204 C 0.66394 0.87233 0.46383 0.0
C205 C 0.66815 0.90301 0.47298 0.0
C206 C 0.7245 0.00643 0.47505 0.0
C207 C 0.75725 0.06297 0.5158 0.0
C208 C 0.73569 0.03129 0.50401 0.0
C209 C 0.69886 0.93837 0.47005 0.0
C210 C 0.70703 0.97009 0.48148 0.0
H211 H 0.79268 0.15622 0.5183 0.0
H212 H 0.74886 0.10275 0.50151 0.0
H213 H 0.75436 0.06417 0.48077 0.0
H214 H 0.7405 0.91623 0.43846 0.0
H215 H 0.74835 0.96917 0.45459 0.0
C216 C 0.65864 0.79402 0.85449 0.0
C217 C 0.68195 0.81365 0.86825 0.0
C218 C 0.66432 0.76859 0.84524 0.0
C219 C 0.70304 0.74315 0.82044 0.0
H220 H 0.74631 0.68901 0.84091 0.0
C221 C 0.8082 0.71762 0.78542 0.0
C222 C 0.81171 0.68677 0.78952 0.0
C223 C 0.78221 0.72369 0.79379 0.0
C224 C 0.73357 0.70324 0.83491 0.0
H225 H 0.72811 0.82041 0.8837 0.0
H226 H 0.73847 0.77698 0.86748 0.0
H227 H 0.71768 0.71481 0.85912 0.0
H228 H 0.78886 0.63666 0.80476 0.0
H229 H 0.74295 0.64698 0.81921 0.0
H230 H 0.71918 0.73181 0.79624 0.0
C231 C 0.71546 0.78063 0.86389 0.0
C232 C 0.71757 0.71849 0.8454 0.0
C233 C 0.70971 0.80588 0.87313 0.0
C234 C 0.78708 0.6609 0.80142 0.0
C235 C 0.7609 0.6669 0.80977 0.0
C236 C 0.71878 0.72765 0.80994 0.0
C237 C 0.69344 0.76233 0.84957 0.0
C238 C 0.70348 0.73991 0.83835 0.0
C239 C 0.75887 0.69894 0.8064 0.0
C240 C 0.73559 0.7088 0.81709 0.0
H241 H 0.63679 0.79917 0.85048 0.0
H242 H 0.64651 0.75456 0.83444 0.0
H243 H 0.69256 0.75954 0.81454 0.0
H244 H 0.82664 0.73805 0.77627 0.0
H245 H 0.78186 0.74891 0.79099 0.0
C246 C 0.85749 0.65577 0.17933 0.0
C247 C 0.86183 0.66224 0.19706 0.0
C248 C 0.8876 0.66204 0.16914 0.0
C249 C 0.98555 0.68276 0.1705 0.0
H250 H 0.99554 0.74168 0.13035 0.0
C251 C 0.1253 0.78945 0.14143 0.0
C252 C 0.12785 0.79637 0.12373 0.0
C253 C 0.09173 0.76346 0.1488 0.0
C254 C 0.99296 0.72456 0.14128 0.0
H255 H 0.90068 0.67816 0.21814 0.0
H256 H 0.95327 0.68982 0.20038 0.0
H257 H 0.93796 0.71302 0.14629 0.0
H258 H 0.0978 0.77941 0.09971 0.0
H259 H 0.0392 0.73387 0.1126 0.0
H260 H 0.0414 0.69589 0.16581 0.0
C261 C 0.92655 0.67946 0.19432 0.0
C262 C 0.95984 0.70806 0.15045 0.0
C263 C 0.8964 0.67301 0.20452 0.0
C264 C 0.0967 0.77501 0.11341 0.0
C265 C 0.06307 0.74902 0.1208 0.0
C266 C 0.01879 0.69938 0.16133 0.0
C267 C 0.92277 0.67509 0.17645 0.0
C268 C 0.95602 0.68774 0.16543 0.0
C269 C 0.05995 0.74379 0.13864 0.0
C270 C 0.02317 0.72125 0.14686 0.0
H271 H 0.8311 0.64704 0.17321 0.0
H272 H 0.88356 0.6577 0.15546 0.0
H273 H 0.9833 0.66677 0.18182 0.0
H274 H 0.14882 0.80526 0.14975 0.0
H275 H 0.09026 0.76037 0.16259 0.0
C276 C 0.33486 0.13307 0.47006 0.0
C277 C 0.31076 0.13003 0.45678 0.0
C278 C 0.32934 0.10157 0.47893 0.0
C279 C 0.29169 0.0371 0.50365 0.0
H280 H 0.24422 0.93972 0.48294 0.0
C281 C 0.18728 0.90757 0.5397 0.0
C282 C 0.18228 0.87275 0.53532 0.0
C283 C 0.21298 0.93928 0.53098 0.0
C284 C 0.25814 0.96665 0.48899 0.0
H285 H 0.26337 0.09133 0.44174 0.0
H286 H 0.25326 0.03691 0.45734 0.0
H287 H 0.27275 0.99434 0.46479 0.0
H288 H 0.20206 0.8442 0.51906 0.0
H289 H 0.2475 0.89982 0.50397 0.0
H290 H 0.27696 0.00941 0.52785 0.0
C291 C 0.27678 0.06335 0.46083 0.0
C292 C 0.27408 0.99804 0.47854 0.0
C293 C 0.28238 0.09472 0.45194 0.0
C294 C 0.20504 0.87061 0.52265 0.0
C295 C 0.23095 0.90246 0.51394 0.0
C296 C 0.27606 0.00572 0.5141 0.0
C297 C 0.29957 0.06642 0.47473 0.0
C298 C 0.28966 0.03361 0.48572 0.0
C299 C 0.23455 0.93706 0.51771 0.0
C300 C 0.25771 0.9701 0.50688 0.0
H301 H 0.3572 0.15987 0.47401 0.0
H302 H 0.34779 0.10488 0.48938 0.0
H303 H 0.30334 0.06398 0.50968 0.0
H304 H 0.1703 0.91027 0.54942 0.0
H305 H 0.21449 0.96525 0.5341 0.0
C306 C 0.33027 0.20459 0.85953 0.0
C307 C 0.30392 0.18167 0.87171 0.0
C308 C 0.32572 0.23105 0.85055 0.0
C309 C 0.26881 0.27738 0.84911 0.0
H310 H 0.28201 0.27581 0.80007 0.0
C311 C 0.19276 0.28634 0.78514 0.0
C312 C 0.18517 0.31432 0.78984 0.0
C313 C 0.21779 0.28051 0.79453 0.0
C314 C 0.27822 0.27667 0.81374 0.0
H315 H 0.25319 0.16989 0.88465 0.0
H316 H 0.24477 0.21502 0.86882 0.0
H317 H 0.30558 0.24609 0.81895 0.0
H318 H 0.20008 0.36001 0.8073 0.0
H319 H 0.24447 0.3503 0.82354 0.0
H320 H 0.23885 0.3053 0.84384 0.0
C321 C 0.26933 0.21323 0.86631 0.0
C322 C 0.29222 0.26003 0.82462 0.0
C323 C 0.27397 0.187 0.87532 0.0
C324 C 0.20503 0.33795 0.80346 0.0
C325 C 0.23033 0.33225 0.81283 0.0
C326 C 0.25448 0.29367 0.83823 0.0
C327 C 0.29467 0.23505 0.85354 0.0
C328 C 0.28643 0.25894 0.8424 0.0
C329 C 0.23615 0.30272 0.8088 0.0
C330 C 0.25777 0.29226 0.82036 0.0
H331 H 0.35384 0.20137 0.85655 0.0
H332 H 0.34606 0.24776 0.84098 0.0
H333 H 0.2646 0.27781 0.86277 0.0
H334 H 0.17806 0.26769 0.77467 0.0
H335 H 0.22108 0.25719 0.79114 0.0
C336 C 0.6331 0.57216 0.23855 0.0
C337 C 0.6545 0.58311 0.22354 0.0
C338 C 0.59461 0.55119 0.23769 0.0
C339 C 0.5167 0.52837 0.20833 0.0
H340 H 0.46058 0.4551 0.24309 0.0
C341 C 0.357 0.43084 0.20694 0.0
C342 C 0.33841 0.42564 0.22261 0.0
C343 C 0.39565 0.45111 0.20624 0.0
C344 C 0.47591 0.47572 0.23338 0.0
H345 H 0.65227 0.5794 0.19582 0.0
H346 H 0.58493 0.54194 0.19433 0.0
H347 H 0.52783 0.4854 0.2431 0.0
H348 H 0.34581 0.43915 0.24968 0.0
H349 H 0.41313 0.47439 0.24843 0.0
H350 H 0.4644 0.51811 0.19853 0.0
C351 C 0.59796 0.55031 0.20677 0.0
C352 C 0.51444 0.4931 0.23338 0.0
C353 C 0.63657 0.5715 0.20763 0.0
C354 C 0.35921 0.44248 0.23741 0.0
C355 C 0.39779 0.46244 0.23673 0.0
C356 C 0.47804 0.51069 0.20825 0.0
C357 C 0.57649 0.54038 0.22179 0.0
C358 C 0.53538 0.52001 0.221 0.0
C359 C 0.41641 0.46628 0.22122 0.0
C360 C 0.45733 0.48456 0.22091 0.0
H361 H 0.64597 0.58072 0.25102 0.0
H362 H 0.57902 0.54454 0.24952 0.0
H363 H 0.53193 0.54931 0.19874 0.0
H364 H 0.34177 0.41825 0.1953 0.0
H365 H 0.40932 0.45361 0.19412 0.0
C366 C 0.07958 0.63607 0.56794 0.0
C367 C 0.08297 0.65693 0.55325 0.0
C368 C 0.06173 0.59754 0.56716 0.0
C369 C 0.99337 0.51911 0.54101 0.0
H370 H 0.02158 0.46289 0.57066 0.0
C371 C 0.92573 0.35847 0.54039 0.0
C372 C 0.91758 0.34135 0.55657 0.0
C373 C 0.94519 0.39707 0.53901 0.0
C374 C 0.01328 0.47828 0.56239 0.0
H375 H 0.07197 0.65377 0.52598 0.0
H376 H 0.04178 0.58649 0.52449 0.0
H377 H 0.06018 0.52996 0.56941 0.0
H378 H 0.92204 0.3514 0.58396 0.0
H379 H 0.95612 0.41855 0.58151 0.0
H380 H 0.94664 0.46698 0.53386 0.0
C381 C 0.05203 0.59988 0.53674 0.0
C382 C 0.03534 0.51671 0.56168 0.0
C383 C 0.06966 0.63848 0.53756 0.0
C384 C 0.92792 0.36362 0.5713 0.0
C385 C 0.94769 0.4021 0.56992 0.0
C386 C 0.97151 0.48054 0.54158 0.0
C387 C 0.04713 0.57888 0.55161 0.0
C388 C 0.02537 0.53772 0.5512 0.0
C389 C 0.9572 0.41917 0.55378 0.0
C390 C 0.98096 0.45986 0.55249 0.0
H391 H 0.08936 0.64934 0.58026 0.0
H392 H 0.05809 0.58238 0.57893 0.0
H393 H 0.9845 0.53436 0.53298 0.0
H394 H 0.91812 0.34209 0.52879 0.0
H395 H 0.95218 0.40959 0.52642 0.0
C396 C 0.42487 0.06994 0.87471 0.0
C397 C 0.41751 0.07965 0.89086 0.0
C398 C 0.44635 0.05297 0.87327 0.0
C399 C 0.5103 0.03202 0.89784 0.0
H400 H 0.47665 0.95029 0.86592 0.0
C401 C 0.5564 0.92422 0.90311 0.0
C402 C 0.57131 0.91811 0.88816 0.0
C403 C 0.53735 0.9437 0.9024 0.0
C404 C 0.48646 0.97322 0.87479 0.0
H405 H 0.42791 0.08021 0.9181 0.0
H406 H 0.46439 0.04999 0.91566 0.0
H407 H 0.44627 0.98731 0.86647 0.0
H408 H 0.57608 0.92584 0.86061 0.0
H409 H 0.54195 0.95931 0.85939 0.0
H410 H 0.54962 0.017 0.90653 0.0
C411 C 0.45431 0.05602 0.90403 0.0
C412 C 0.46927 0.99462 0.87506 0.0
C413 C 0.43317 0.07326 0.90545 0.0
C414 C 0.56497 0.93016 0.87236 0.0
C415 C 0.54545 0.94928 0.87164 0.0
C416 C 0.52709 0.01035 0.89772 0.0
C417 C 0.4607 0.0451 0.88795 0.0
C418 C 0.48073 0.02406 0.88673 0.0
C419 C 0.53237 0.95707 0.88672 0.0
C420 C 0.51508 0.98053 0.88633 0.0
H421 H 0.41334 0.07465 0.8632 0.0
H422 H 0.4513 0.04559 0.86065 0.0
H423 H 0.52044 0.05494 0.90673 0.0
H424 H 0.5607 0.9153 0.91549 0.0
H425 H 0.52703 0.9489 0.91418 0.0
C426 C 0.57174 0.64343 0.44693 0.0
C427 C 0.58241 0.66031 0.43076 0.0
C428 C 0.54993 0.60497 0.44836 0.0
C429 C 0.4899 0.51987 0.4232 0.0
H430 H 0.51695 0.47181 0.45821 0.0
C431 C 0.43755 0.36407 0.42142 0.0
C432 C 0.42179 0.34447 0.43663 0.0
C433 C 0.45783 0.40266 0.42143 0.0
C434 C 0.50895 0.4849 0.44846 0.0
H435 H 0.57748 0.6501 0.40339 0.0
H436 H 0.5402 0.58333 0.40586 0.0
H437 H 0.54867 0.53926 0.45695 0.0
H438 H 0.41671 0.35001 0.46398 0.0
H439 H 0.45265 0.41757 0.46399 0.0
H440 H 0.4508 0.46546 0.41449 0.0
C441 C 0.5481 0.59965 0.41747 0.0
C442 C 0.52693 0.52353 0.44778 0.0
C443 C 0.56968 0.63804 0.41605 0.0
C444 C 0.42844 0.36428 0.45203 0.0
C445 C 0.44904 0.40295 0.45206 0.0
C446 C 0.47221 0.48133 0.42379 0.0
C447 C 0.53844 0.58256 0.43364 0.0
C448 C 0.51782 0.5415 0.43504 0.0
C449 C 0.4631 0.42251 0.43668 0.0
C450 C 0.48175 0.46345 0.43633 0.0
H451 H 0.58098 0.65982 0.45852 0.0
H452 H 0.54243 0.59279 0.461 0.0
H453 H 0.48163 0.53271 0.41344 0.0
H454 H 0.43309 0.34971 0.40934 0.0
H455 H 0.46891 0.41705 0.40944 0.0
C456 C 0.9205 0.56205 0.78937 0.0
C457 C 0.90712 0.56756 0.77379 0.0
C458 C 0.9383 0.54127 0.78994 0.0
C459 C 0.95613 0.47634 0.76446 0.0
H460 H 0.04469 0.51577 0.7924 0.0
C461 C 0.06424 0.43146 0.75518 0.0
C462 C 0.07454 0.41976 0.77001 0.0
C463 C 0.04434 0.45003 0.75641 0.0
C464 C 0.01988 0.50434 0.78464 0.0
H465 H 0.90066 0.55437 0.7467 0.0
H466 H 0.93228 0.51897 0.7476 0.0
H467 H 0.00627 0.54456 0.7934 0.0
H468 H 0.07384 0.42024 0.79779 0.0
H469 H 0.03955 0.45339 0.79989 0.0
H470 H 0.97051 0.43684 0.75535 0.0
C471 C 0.92855 0.53006 0.75947 0.0
C472 C -0.00231 0.52062 0.78527 0.0
C473 C 0.91047 0.55052 0.75894 0.0
C474 C 0.06627 0.42884 0.78612 0.0
C475 C 0.04667 0.44782 0.78734 0.0
C476 C 0.97854 0.46038 0.76369 0.0
C477 C 0.94338 0.5258 0.77491 0.0
C478 C 0.96567 0.50699 0.77509 0.0
C479 C 0.03468 0.45768 0.77249 0.0
C480 C 0.01077 0.47441 0.77366 0.0
H481 H 0.91816 0.57465 0.80107 0.0
H482 H 0.94865 0.53789 0.80212 0.0
H483 H 0.93133 0.46462 0.7567 0.0
H484 H 0.07022 0.425 0.74257 0.0
H485 H 0.03592 0.45787 0.74476 0.0
C486 C 0.35627 0.91973 0.09509 0.0
C487 C 0.33572 0.91384 0.11016 0.0
C488 C 0.39487 0.93821 0.0956 0.0
C489 C 0.47342 0.00311 0.12289 0.0
H490 H 0.53028 0.98117 0.09057 0.0
C491 C 0.63353 0.06857 0.12425 0.0
C492 C 0.65159 0.08042 0.10837 0.0
C493 C 0.59489 0.04943 0.12514 0.0
C494 C 0.51469 0.98773 0.09959 0.0
H495 H 0.33944 0.9209 0.13773 0.0
H496 H 0.40678 0.9519 0.13872 0.0
H497 H 0.46319 0.94218 0.09134 0.0
H498 H 0.64328 0.08278 0.08107 0.0
H499 H 0.5759 0.04907 0.08266 0.0
H500 H 0.52538 0.04828 0.13132 0.0
C501 C 0.39316 0.94334 0.12641 0.0
C502 C 0.47624 0.96545 0.10003 0.0
C503 C 0.35452 0.92523 0.12587 0.0
C504 C 0.63026 0.07406 0.0935 0.0
C505 C 0.59169 0.05452 0.09438 0.0
C506 C 0.51198 0.02509 0.1226 0.0
C507 C 0.41387 0.95083 0.11123 0.0
C508 C 0.45502 0.97308 0.11154 0.0
C509 C 0.57366 0.04139 0.11015 0.0
C510 C 0.53289 0.01786 0.1108 0.0
H511 H 0.34266 0.91156 0.08276 0.0
H512 H 0.40976 0.94386 0.08361 0.0
H513 H 0.45804 0.01027 0.13173 0.0
H514 H 0.64921 0.07307 0.13593 0.0
H515 H 0.58162 0.03955 0.13746 0.0
C516 C 0.28102 0.01762 0.16109 0.0
C517 C 0.25177 0.99253 0.15064 0.0
C518 C 0.28136 0.04896 0.16757 0.0
C519 C 0.22141 0.08888 0.17607 0.0
H520 H 0.31369 0.18235 0.17421 0.0
C521 C 0.22849 0.22832 0.18859 0.0
C522 C 0.25769 0.25382 0.19895 0.0
C523 C 0.22795 0.19651 0.18266 0.0
C524 C 0.2878 0.1564 0.17497 0.0
H525 H 0.19954 0.98026 0.13911 0.0
H526 H 0.20032 0.03501 0.15031 0.0
H527 H 0.31197 0.126 0.16458 0.0
H528 H 0.30948 0.2662 0.21099 0.0
H529 H 0.30841 0.21063 0.2007 0.0
H530 H 0.19722 0.11934 0.1864 0.0
C531 C 0.22281 0.03031 0.15363 0.0
C532 C 0.28682 0.12411 0.16949 0.0
C533 C 0.22247 -0.001 0.14714 0.0
C534 C 0.28661 0.24714 0.20301 0.0
C535 C 0.28609 0.21537 0.19705 0.0
C536 C 0.22238 0.12118 0.18154 0.0
C537 C 0.25245 0.05584 0.16376 0.0
C538 C 0.25361 0.08999 0.16996 0.0
C539 C 0.25662 0.18957 0.18693 0.0
C540 C 0.25558 0.1553 0.18103 0.0
H541 H 0.30396 0.01339 0.16407 0.0
H542 H 0.30431 0.06783 0.17556 0.0
H543 H 0.1955 0.06295 0.17681 0.0
H544 H 0.20582 0.2327 0.18521 0.0
H545 H 0.20512 0.17739 0.17468 0.0
C546 C 0.03536 0.29648 0.52559 0.0
C547 C 0.00183 0.26295 0.52725 0.0
C548 C 0.06637 0.2971 0.51851 0.0
C549 C 0.10778 0.239 0.51174 0.0
H550 H 0.16729 0.31213 0.47753 0.0
C551 C 0.22523 0.23397 0.47516 0.0
C552 C 0.257 0.26767 0.47105 0.0
C553 C 0.1944 0.23349 0.48238 0.0
C554 C 0.15133 0.29187 0.48727 0.0
H555 H 0.97444 0.20379 0.52273 0.0
H556 H 0.02879 0.20493 0.51046 0.0
H557 H 0.11263 0.31116 0.48914 0.0
H558 H 0.28182 0.32735 0.47178 0.0
H559 H 0.22847 0.32659 0.48482 0.0
H560 H 0.14667 0.22003 0.51014 0.0
C561 C 0.03101 0.23067 0.51467 0.0
C562 C 0.11994 0.29125 0.49384 0.0
C563 C -0.00014 0.23008 0.52159 0.0
C564 C 0.25764 0.30091 0.47469 0.0
C565 C 0.22694 0.30046 0.48205 0.0
C566 C 0.13937 0.23981 0.50528 0.0
C567 C 0.06458 0.26417 0.51312 0.0
C568 C 0.09781 0.26475 0.5061 0.0
C569 C 0.19477 0.26673 0.4858 0.0
C570 C 0.1615 0.26621 0.49293 0.0
H571 H 0.03774 0.32227 0.52983 0.0
H572 H 0.092 0.32328 0.51757 0.0
H573 H 0.09146 0.21858 0.52136 0.0
H574 H 0.22379 0.20786 0.47241 0.0
H575 H 0.16996 0.20701 0.48487 0.0
C576 C 0.99373 0.22736 0.80764 0.0
C577 C 0.99195 0.25885 0.80283 0.0
C578 C 0.96313 0.197 0.81503 0.0
C579 C 0.86149 0.15429 0.81914 0.0
H580 H 0.87363 0.09662 0.85481 0.0
C581 C 0.73902 0.04044 0.85747 0.0
C582 C 0.73888 0.00702 0.85983 0.0
C583 C 0.76989 0.07117 0.85047 0.0
C584 C 0.86988 0.11232 0.84476 0.0
H585 H 0.95714 0.2837 0.80249 0.0
H586 H 0.90412 0.2312 0.8158 0.0
H587 H 0.9279 0.15104 0.84329 0.0
H588 H 0.77098 0.97958 0.85669 0.0
H589 H 0.82499 0.03341 0.84454 0.0
H590 H 0.80337 0.11577 0.82084 0.0
C591 C 0.92878 0.22949 0.81346 0.0
C592 C 0.90095 0.14345 0.83813 0.0
C593 C 0.95927 0.25971 0.80593 0.0
C594 C 0.7702 0.00492 0.855 0.0
C595 C 0.80121 0.03578 0.84815 0.0
C596 C 0.83043 0.12336 0.82588 0.0
C597 C 0.93017 0.19758 0.81792 0.0
C598 C 0.89714 0.16478 0.82521 0.0
C599 C 0.80136 0.06921 0.84584 0.0
C600 C 0.83433 0.10203 0.83872 0.0
H601 H 0.01848 0.22578 0.80532 0.0
H602 H 0.96504 0.17272 0.81809 0.0
H603 H 0.85755 0.16962 0.80898 0.0
H604 H 0.71531 0.04294 0.86106 0.0
H605 H 0.76938 0.0967 0.84895 0.0
C606 C 0.76847 -0.00132 0.14427 0.0
C607 C 0.74239 0.00842 0.14972 0.0
C608 C 0.76885 0.96821 0.15137 0.0
C609 C 0.7089 0.88055 0.17372 0.0
H610 H 0.80143 0.88338 0.18324 0.0
C611 C 0.71553 0.76088 0.20745 0.0
C612 C 0.74084 0.75116 0.20089 0.0
C613 C 0.71567 0.79255 0.20159 0.0
C614 C 0.77537 0.88207 0.18049 0.0
H615 H 0.69677 0.99424 0.16716 0.0
H616 H 0.69771 0.94118 0.17969 0.0
H617 H 0.8023 0.93889 0.17287 0.0
H618 H 0.78596 0.76687 0.18293 0.0
H619 H 0.78597 0.82199 0.17262 0.0
H620 H 0.68199 0.82367 0.18129 0.0
C621 C 0.71752 0.95688 0.16975 0.0
C622 C 0.77587 0.91386 0.17457 0.0
C623 C 0.71714 0.98741 0.16265 0.0
C624 C 0.76613 0.77363 0.18827 0.0
C625 C 0.76631 0.80534 0.18244 0.0
C626 C 0.7084 0.84876 0.17967 0.0
C627 C 0.74318 0.94676 0.16408 0.0
C628 C 0.74264 0.91341 0.17103 0.0
C629 C 0.74117 0.81522 0.18909 0.0
C630 C 0.74164 0.84912 0.18303 0.0
H631 H 0.78827 0.01423 0.13431 0.0
H632 H 0.78868 0.9609 0.14657 0.0
H633 H 0.68284 0.87913 0.17086 0.0
H634 H 0.69574 0.74421 0.21722 0.0
H635 H 0.6962 0.79963 0.20709 0.0
C636 C 0.77362 0.77116 0.47082 0.0
C637 C 0.74309 0.73798 0.46511 0.0
C638 C 0.80369 0.77101 0.47856 0.0
C639 C 0.83144 0.71159 0.50108 0.0
H640 H 0.92989 0.78226 0.48497 0.0
C641 C 0.95928 0.70181 0.5207 0.0
C642 C 0.99219 0.73501 0.52406 0.0
C643 C 0.9289 0.70233 0.51353 0.0
C644 C 0.90266 0.76267 0.4898 0.0
H645 H 0.71972 0.67854 0.46344 0.0
H646 H 0.77216 0.6783 0.47711 0.0
H647 H 0.87641 0.78324 0.4731 0.0
H648 H 0.01909 0.79483 0.52259 0.0
H649 H 0.96589 0.79579 0.51044 0.0
H650 H 0.85755 0.69125 0.51794 0.0
C651 C 0.77278 0.70438 0.47557 0.0
C652 C 0.87204 0.76322 0.48297 0.0
C653 C 0.74286 0.70456 0.46768 0.0
C654 C 0.99419 0.76875 0.52003 0.0
C655 C 0.96372 0.76928 0.51299 0.0
C656 C 0.86208 0.71121 0.50802 0.0
C657 C 0.80366 0.73765 0.48091 0.0
C658 C 0.83613 0.7376 0.4885 0.0
C659 C 0.93065 0.73608 0.5097 0.0
C660 C 0.89806 0.73665 0.50241 0.0
H661 H 0.77464 0.79737 0.46901 0.0
H662 H 0.827 0.797 0.48272 0.0
H663 H 0.80408 0.69179 0.50571 0.0
H664 H 0.95695 0.67535 0.52357 0.0
H665 H 0.90412 0.67623 0.51088 0.0
C666 C 0.24374 0.95321 0.86665 0.0
C667 C 0.24775 0.98854 0.86504 0.0
C668 C 0.21264 0.9222 0.86001 0.0
C669 C 0.13634 0.89375 0.82901 0.0
H670 H 0.08951 0.80386 0.85613 0.0
C671 C 0.99575 0.76843 0.81037 0.0
C672 C 0.99279 0.73345 0.81152 0.0
C673 C 0.02627 0.79956 0.81732 0.0
C674 C 0.10247 0.82865 0.84835 0.0
H675 H 0.22245 0.01911 0.85503 0.0
H676 H 0.168 0.96493 0.84358 0.0
H677 H 0.14447 0.85834 0.86707 0.0
H678 H 0.01921 0.70364 0.82116 0.0
H679 H 0.07252 0.75802 0.83321 0.0
H680 H 0.09431 0.86404 0.8103 0.0
C681 C 0.18911 0.96125 0.84981 0.0
C682 C 0.13398 0.85984 0.85459 0.0
C683 C 0.22024 0.99228 0.85644 0.0
C684 C 0.02062 0.73017 0.82008 0.0
C685 C 0.0511 0.7613 0.82705 0.0
C686 C 0.1048 0.86257 0.82278 0.0
C687 C 0.18484 0.92583 0.85162 0.0
C688 C 0.15132 0.89272 0.84498 0.0
C689 C 0.05444 0.79639 0.82559 0.0
C690 C 0.08756 0.82967 0.83237 0.0
H691 H 0.26451 0.9494 0.87314 0.0
H692 H 0.21046 0.89537 0.86137 0.0
H693 H 0.14935 0.91848 0.82119 0.0
H694 H 0.97474 0.7719 0.80391 0.0
H695 H 0.02781 0.82615 0.81621 0.0
C696 C 0.23416 0.21542 0.39526 0.0
C697 C 0.27009 0.22335 0.39956 0.0
C698 C 0.22568 0.22031 0.37851 0.0
C699 C 0.2705 0.2723 0.33918 0.0
H700 H 0.17582 0.20544 0.3183 0.0
C701 C 0.22669 0.30788 0.27545 0.0
C702 C 0.21015 0.2793 0.26332 0.0
C703 C 0.23178 0.30018 0.29231 0.0
C704 C 0.20247 0.22426 0.32392 0.0
H705 H 0.32496 0.24134 0.38949 0.0
H706 H 0.30998 0.24924 0.36021 0.0
H707 H 0.18993 0.19191 0.34679 0.0
H708 H 0.18498 0.22007 0.25952 0.0
H709 H 0.19429 0.20674 0.28885 0.0
H710 H 0.28347 0.30418 0.31619 0.0
C711 C 0.28854 0.23996 0.36987 0.0
C712 C 0.21042 0.21669 0.34031 0.0
C713 C 0.29705 0.23518 0.38663 0.0
C714 C 0.19776 0.24273 0.26855 0.0
C715 C 0.20295 0.23505 0.2854 0.0
C716 C 0.26259 0.27982 0.3228 0.0
C717 C 0.25291 0.23314 0.36567 0.0
C718 C 0.24455 0.24063 0.34812 0.0
C719 C 0.22055 0.26375 0.29741 0.0
C720 C 0.22848 0.25594 0.31498 0.0
H721 H 0.21274 0.20633 0.40492 0.0
H722 H 0.19807 0.21514 0.37576 0.0
H723 H 0.29685 0.2916 0.34491 0.0
H724 H 0.23638 0.33633 0.27185 0.0
H725 H 0.24481 0.32284 0.30132 0.0
C726 C 0.96088 0.20274 0.60079 0.0
C727 C 0.93501 0.21322 0.59595 0.0
C728 C 0.97363 0.20744 0.61764 0.0
C729 C 0.9849 0.2636 0.65585 0.0
H730 H 0.00533 0.1932 0.6786 0.0
C731 C 0.06577 0.29924 0.71914 0.0
C732 C 0.05179 0.27189 0.73193 0.0
C733 C 0.05222 0.29074 0.70243 0.0
C734 C -0.00042 0.21303 0.67246 0.0
H735 H 0.90108 0.23546 0.60517 0.0
H736 H 0.92292 0.24314 0.63463 0.0
H737 H 0.97746 0.17918 0.65014 0.0
H738 H 0.01342 0.21388 0.73707 0.0
H739 H 0.98956 0.19917 0.70795 0.0
H740 H 0.0063 0.29713 0.67824 0.0
C741 C 0.93389 0.23194 0.62532 0.0
C742 C 0.98392 0.20514 0.65609 0.0
C743 C 0.92117 0.22729 0.60846 0.0
C744 C 0.02481 0.2356 0.72752 0.0
C745 C 0.01123 0.22711 0.7108 0.0
C746 C 0.00053 0.27146 0.67218 0.0
C747 C 0.96074 0.22268 0.63003 0.0
C748 C 0.97643 0.23037 0.6476 0.0
C749 C 0.02436 0.25472 0.69813 0.0
C750 C 0.00814 0.24633 0.68066 0.0
H751 H 0.97213 0.19184 0.59146 0.0
H752 H 0.99456 0.20033 0.62081 0.0
H753 H 0.97996 0.28386 0.64958 0.0
H754 H 0.0867 0.32744 0.7221 0.0
H755 H 0.0634 0.31249 0.69289 0.0
C756 C 0.70491 0.00311 0.0632 0.0
C757 C 0.73511 0.03706 0.06839 0.0
C758 C 0.70282 0.99039 0.0465 0.0
C759 C 0.75901 -0.00075 0.00874 0.0
H760 H 0.66592 0.96042 0.98443 0.0
C761 C 0.745 0.96892 0.9361 0.0
C762 C 0.71195 0.93868 0.93009 0.0
C763 C 0.7488 0.97919 0.95332 0.0
C764 C 0.69196 0.97058 0.99111 0.0
H765 H 0.78699 0.08416 0.06018 0.0
H766 H 0.78332 0.06179 0.03092 0.0
H767 H 0.67071 0.98226 0.01371 0.0
H768 H 0.65762 0.89442 0.93759 0.0
H769 H 0.66459 0.91178 0.9677 0.0
H770 H 0.78024 0.98738 0.98617 0.0
C771 C 0.76138 0.04502 0.03985 0.0
C772 C 0.69472 0.98324 0.00787 0.0
C773 C 0.76335 0.05791 0.05655 0.0
C774 C 0.68334 0.91804 0.94179 0.0
C775 C 0.68724 0.92817 0.95903 0.0
C776 C 0.7562 0.98635 0.99199 0.0
C777 C 0.73098 0.01121 0.03464 0.0
C778 C 0.72827 0.99777 0.01685 0.0
C779 C 0.71973 0.9593 0.96494 0.0
C780 C 0.72264 0.97193 0.98296 0.0
H781 H 0.6827 0.98634 0.07201 0.0
H782 H 0.67926 0.96405 0.0429 0.0
H783 H 0.7851 0.00991 0.01544 0.0
H784 H 0.76755 0.98547 0.92741 0.0
H785 H 0.77406 0.00353 0.95738 0.0
C786 C 0.78335 0.69593 0.27279 0.0
C787 C 0.79975 0.72379 0.26031 0.0
C788 C 0.7791 0.70469 0.28957 0.0
C789 C 0.80813 0.78217 0.32034 0.0
H790 H 0.71231 0.71641 0.34057 0.0
C791 C 0.77179 0.79385 0.39075 0.0
C792 C 0.73555 0.78592 0.39433 0.0
C793 C 0.78151 0.78871 0.37429 0.0
C794 C 0.73906 0.73529 0.33505 0.0
H795 H 0.82621 0.78292 0.25586 0.0
H796 H 0.81832 0.79814 0.28508 0.0
H797 H 0.72712 0.70236 0.3125 0.0
H798 H 0.68153 0.76796 0.38325 0.0
H799 H 0.69866 0.75966 0.35448 0.0
H800 H 0.81958 0.81561 0.34278 0.0
C801 C 0.80906 0.76955 0.28195 0.0
C802 C 0.7478 0.7269 0.31905 0.0
C803 C 0.81348 0.7608 0.26517 0.0
C804 C 0.70962 0.77408 0.38095 0.0
C805 C 0.71937 0.76907 0.36448 0.0
C806 C 0.79933 0.79061 0.33636 0.0
C807 C 0.79097 0.74148 0.29423 0.0
C808 C 0.78244 0.75018 0.3115 0.0
C809 C 0.75523 0.77563 0.36103 0.0
C810 C 0.76464 0.76728 0.34388 0.0
H811 H 0.77276 0.66716 0.2695 0.0
H812 H 0.76581 0.6825 0.29882 0.0
H813 H 0.83513 0.80057 0.31492 0.0
H814 H 0.79245 0.80298 0.40077 0.0
H815 H 0.80927 0.79374 0.37211 0.0
C816 C 0.02532 0.77524 0.60158 0.0
C817 C 0.05568 0.7725 0.59572 0.0
C818 C 0.01446 0.76829 0.61873 0.0
C819 C 0.02129 0.7187 0.65637 0.0
H820 H 0.98329 0.77336 0.68092 0.0
C821 C 0.98867 0.69837 0.72841 0.0
C822 C 0.95527 0.69562 0.73379 0.0
C823 C 0.00132 0.70897 0.71169 0.0
C824 C 0.99354 0.75767 0.67416 0.0
H825 H 0.09945 0.76191 0.60341 0.0
H826 H 0.08099 0.75056 0.63338 0.0
H827 H 0.00615 0.79126 0.65169 0.0
H828 H 0.90905 0.70212 0.72587 0.0
H829 H 0.93126 0.7207 0.69657 0.0
H830 H 0.00883 0.68523 0.67884 0.0
C831 C 0.06502 0.75722 0.62465 0.0
C832 C 0.00664 0.7679 0.65743 0.0
C833 C 0.07577 0.76399 0.60749 0.0
C834 C 0.93488 0.70395 0.7221 0.0
C835 C 0.94769 0.7148 0.70537 0.0
C836 C 0.00838 0.70861 0.6731 0.0
C837 C 0.03382 0.75861 0.63041 0.0
C838 C 0.02067 0.74852 0.64834 0.0
C839 C 0.98097 0.71724 0.69998 0.0
C840 C 0.99438 0.72797 0.68217 0.0
H841 H 0.00919 0.78166 0.59284 0.0
H842 H 0.99011 0.76926 0.62269 0.0
H843 H 0.03115 0.70265 0.64963 0.0
H844 H 0.0051 0.69222 0.73709 0.0
H845 H 0.02729 0.71104 0.70797 0.0
C846 C 0.22157 0.93546 0.0599 0.0
C847 C 0.25008 0.95654 0.07157 0.0
C848 C 0.2233 0.94792 0.0431 0.0
C849 C 0.28987 0.00858 0.01077 0.0
H850 H 0.20501 0.00597 0.98915 0.0
C851 C 0.30292 0.07623 0.94522 0.0
C852 C 0.27436 0.05651 0.93338 0.0
C853 C 0.29862 0.06529 0.96235 0.0
C854 C 0.22885 0.00653 0.99494 0.0
H855 H 0.30267 0.00724 0.07481 0.0
H856 H 0.30568 0.02874 0.04559 0.0
H857 H 0.19979 0.98304 0.01839 0.0
H858 H 0.21846 0.01045 0.93034 0.0
H859 H 0.21124 0.99095 0.96014 0.0
H860 H 0.31885 0.03138 0.98736 0.0
C861 C 0.28211 0.00255 0.04937 0.0
C862 C 0.22583 0.9934 0.01168 0.0
C863 C 0.28025 0.99028 0.06614 0.0
C864 C 0.24097 0.02632 0.93915 0.0
C865 C 0.23677 0.01521 0.95627 0.0
C866 C 0.29283 0.02144 0.99403 0.0
C867 C 0.25374 0.98149 0.03766 0.0
C868 C 0.25639 0.99449 0.01978 0.0
C869 C 0.26578 0.0342 0.96802 0.0
C870 C 0.26243 0.02077 0.98593 0.0
H871 H 0.19795 0.90935 0.06371 0.0
H872 H 0.20117 0.931 0.03429 0.0
H873 H 0.31372 0.0092 0.0166 0.0
H874 H 0.32889 0.09979 0.9412 0.0
H875 H 0.32123 0.08103 0.97113 0.0
loop_
_geom_bond_atom_site_label_1
_geom_bond_atom_site_label_2
_geom_bond_distance
_geom_bond_site_symmetry_2
_ccdc_geom_bond_type
C0 O1 1.160 . S
C0 O7 1.185 . S
O1 C0 1.160 . S
O2 Zn3 1.899 . S
O2 C10 1.284 . S
Zn3 O2 1.899 . S
Zn3 O4 2.032 . S
Zn3 O7 2.086 . S
Zn3 O12 1.977 . S
O4 Zn3 2.032 . S
O4 C8 1.278 . S
C5 O6 1.203 . S
C5 O12 1.267 . S
O6 C5 1.203 . S
O7 C0 1.185 . S
O7 Zn3 2.086 . S
C8 O4 1.278 . S
C8 O9 1.211 . S
O9 C8 1.211 . S
C10 O2 1.284 . S
C10 O11 1.273 . S
O11 C10 1.273 . S
O12 Zn3 1.977 . S
O12 C5 1.267 . S
C13 O14 1.160 . S
C13 O20 1.185 . S
O14 C13 1.160 . S
O15 Zn16 1.899 . S
O15 C23 1.284 . S
Zn16 O15 1.899 . S
Zn16 O17 2.032 . S
Zn16 O20 2.086 . S
Zn16 O25 1.977 . S
O17 Zn16 2.032 . S
O17 C21 1.278 1_655 S
C18 O19 1.203 . S
C18 O25 1.267 . S
O19 C18 1.203 . S
O20 C13 1.185 . S
O20 Zn16 2.086 . S
C21 O17 1.278 1_455 S
C21 O22 1.211 . S
O22 C21 1.211 . S
C23 O15 1.284 . S
C23 O24 1.273 . S
O24 C23 1.273 . S
O25 Zn16 1.977 . S
O25 C18 1.267 . S
C26 O27 1.160 . S
C26 O33 1.185 . S
O27 C26 1.160 . S
O28 Zn29 1.899 . S
O28 C36 1.284 . S
Zn29 O28 1.899 . S
Zn29 O30 2.032 . S
Zn29 O33 2.086 . S
Zn29 O38 1.977 . S
O30 Zn29 2.032 . S
O30 C34 1.278 1_565 S
C31 O32 1.203 . S
C31 O38 1.267 . S
O32 C31 1.203 . S
O33 C26 1.185 . S
O33 Zn29 2.086 . S
C34 O30 1.278 1_545 S
C34 O35 1.211 . S
O35 C34 1.211 . S
C36 O28 1.284 . S
C36 O37 1.273 . S
O37 C36 1.273 . S
O38 Zn29 1.977 . S
O38 C31 1.267 . S
C39 O40 1.160 . S
C39 O46 1.185 . S
O40 C39 1.160 . S
O41 Zn42 1.899 . S
O41 C49 1.284 . S
Zn42 O41 1.899 . S
Zn42 O43 2.032 . S
Zn42 O46 2.086 . S
Zn42 O51 1.977 . S
O43 Zn42 2.032 . S
O43 C47 1.278 . S
C44 O45 1.203 . S
C44 O51 1.267 . S
O45 C44 1.203 . S
O46 C39 1.185 . S
O46 Zn42 2.086 . S
C47 O43 1.278 . S
C47 O48 1.211 . S
O48 C47 1.211 . S
C49 O41 1.284 . S
C49 O50 1.273 . S
O50 C49 1.273 . S
O51 Zn42 1.977 . S
O51 C44 1.267 . S
C52 O53 1.160 . S
C52 O59 1.185 . S
O53 C52 1.160 . S
O54 Zn55 1.899 . S
O54 C62 1.284 . S
Zn55 O54 1.899 . S
Zn55 O56 2.032 . S
Zn55 O59 2.086 . S
Zn55 O64 1.977 . S
O56 Zn55 2.032 . S
O56 C60 1.278 1_455 S
C57 O58 1.203 . S
C57 O64 1.267 . S
O58 C57 1.203 . S
O59 C52 1.185 . S
O59 Zn55 2.086 . S
C60 O56 1.278 1_655 S
C60 O61 1.211 . S
O61 C60 1.211 . S
C62 O54 1.284 . S
C62 O63 1.273 . S
O63 C62 1.273 . S
O64 Zn55 1.977 . S
O64 C57 1.267 . S
C65 O66 1.160 . S
C65 O72 1.185 . S
O66 C65 1.160 . S
O67 Zn68 1.899 . S
O67 C75 1.284 . S
Zn68 O67 1.899 . S
Zn68 O69 2.032 . S
Zn68 O72 2.086 . S
Zn68 O77 1.977 . S
O69 Zn68 2.032 . S
O69 C73 1.278 1_545 S
C70 O71 1.203 . S
C70 O77 1.267 . S
O71 C70 1.203 . S
O72 C65 1.185 . S
O72 Zn68 2.086 . S
C73 O69 1.278 1_565 S
C73 O74 1.211 . S
O74 C73 1.211 . S
C75 O67 1.284 . S
C75 O76 1.273 . S
O76 C75 1.273 . S
O77 Zn68 1.977 . S
O77 C70 1.267 . S
C78 O79 1.160 . S
C78 O85 1.185 . S
O79 C78 1.160 . S
O80 Zn81 1.899 . S
O80 C88 1.284 . S
Zn81 O80 1.899 . S
Zn81 O82 2.032 . S
Zn81 O85 2.086 . S
Zn81 O90 1.977 . S
O82 Zn81 2.032 . S
O82 C86 1.278 . S
C83 O84 1.203 . S
C83 O90 1.267 . S
O84 C83 1.203 . S
O85 C78 1.185 . S
O85 Zn81 2.086 . S
C86 O82 1.278 . S
C86 O87 1.211 . S
O87 C86 1.211 . S
C88 O80 1.284 . S
C88 O89 1.273 . S
O89 C88 1.273 . S
O90 Zn81 1.977 . S
O90 C83 1.267 . S
C91 O92 1.160 . S
C91 O98 1.185 . S
O92 C91 1.160 . S
O93 Zn94 1.899 . S
O93 C101 1.284 . S
Zn94 O93 1.899 . S
Zn94 O95 2.032 . S
Zn94 O98 2.086 . S
Zn94 O103 1.977 . S
O95 Zn94 2.032 . S
O95 C99 1.278 1_655 S
C96 O97 1.203 . S
C96 O103 1.267 . S
O97 C96 1.203 . S
O98 C91 1.185 . S
O98 Zn94 2.086 . S
C99 O95 1.278 1_455 S
C99 O100 1.211 . S
O100 C99 1.211 . S
C101 O93 1.284 . S
C101 O102 1.273 . S
O102 C101 1.273 . S
O103 Zn94 1.977 . S
O103 C96 1.267 . S
C104 O105 1.160 . S
C104 O111 1.185 . S
O105 C104 1.160 . S
O106 Zn107 1.899 . S
O106 C114 1.284 . S
Zn107 O106 1.899 . S
Zn107 O108 2.032 . S
Zn107 O111 2.086 . S
Zn107 O116 1.977 . S
O108 Zn107 2.032 . S
O108 C112 1.278 1_565 S
C109 O110 1.203 . S
C109 O116 1.267 . S
O110 C109 1.203 . S
O111 C104 1.185 . S
O111 Zn107 2.086 . S
C112 O108 1.278 1_545 S
C112 O113 1.211 . S
O113 C112 1.211 . S
C114 O106 1.284 . S
C114 O115 1.273 . S
O115 C114 1.273 . S
O116 Zn107 1.977 . S
O116 C109 1.267 . S
C117 O118 1.160 . S
C117 O124 1.185 . S
O118 C117 1.160 . S
O119 Zn120 1.899 . S
O119 C127 1.284 . S
Zn120 O119 1.899 . S
Zn120 O121 2.032 . S
Zn120 O124 2.086 . S
Zn120 O129 1.977 . S
O121 Zn120 2.032 . S
O121 C125 1.278 . S
C122 O123 1.203 . S
C122 O129 1.267 . S
O123 C122 1.203 . S
O124 C117 1.185 . S
O124 Zn120 2.086 . S
C125 O121 1.278 . S
C125 O126 1.211 . S
O126 C125 1.211 . S
C127 O119 1.284 . S
C127 O128 1.273 . S
O128 C127 1.273 . S
O129 Zn120 1.977 . S
O129 C122 1.267 . S
C130 O131 1.160 . S
C130 O137 1.185 . S
O131 C130 1.160 . S
O132 Zn133 1.899 . S
O132 C140 1.284 . S
Zn133 O132 1.899 . S
Zn133 O134 2.032 . S
Zn133 O137 2.086 . S
Zn133 O142 1.977 . S
O134 Zn133 2.032 . S
O134 C138 1.278 1_455 S
C135 O136 1.203 . S
C135 O142 1.267 . S
O136 C135 1.203 . S
O137 C130 1.185 . S
O137 Zn133 2.086 . S
C138 O134 1.278 1_655 S
C138 O139 1.211 . S
O139 C138 1.211 . S
C140 O132 1.284 . S
C140 O141 1.273 . S
O141 C140 1.273 . S
O142 Zn133 1.977 . S
O142 C135 1.267 . S
C143 O144 1.160 . S
C143 O150 1.185 . S
O144 C143 1.160 . S
O145 Zn146 1.899 . S
O145 C153 1.284 . S
Zn146 O145 1.899 . S
Zn146 O147 2.032 . S
Zn146 O150 2.086 . S
Zn146 O155 1.977 . S
O147 Zn146 2.032 . S
O147 C151 1.278 1_545 S
C148 O149 1.203 . S
C148 O155 1.267 . S
O149 C148 1.203 . S
O150 C143 1.185 . S
O150 Zn146 2.086 . S
C151 O147 1.278 1_565 S
C151 O152 1.211 . S
O152 C151 1.211 . S
C153 O145 1.284 . S
C153 O154 1.273 . S
O154 C153 1.273 . S
O155 Zn146 1.977 . S
O155 C148 1.267 . S
C156 C157 1.349 . S
C156 C158 1.327 . S
C156 H181 0.950 . S
C157 C156 1.349 . S
C157 C173 1.349 . S
C158 C156 1.327 . S
C158 C177 1.429 . S
C158 H182 0.950 . S
C159 C176 1.574 1_655 S
C159 C178 1.368 . S
C159 H183 0.949 . S
H160 C164 0.949 . S
C161 C162 1.349 . S
C161 C163 1.327 . S
C161 H184 0.950 . S
C162 C161 1.349 . S
C162 C174 1.349 . S
C163 C161 1.327 . S
C163 C179 1.429 . S
C163 H185 0.950 . S
C164 H160 0.949 . S
C164 C172 1.574 1_455 S
C164 C180 1.368 . S
H165 C173 0.950 . S
H166 C171 0.950 . S
H167 C172 0.949 . S
H168 C174 0.950 . S
H169 C175 0.950 . S
H170 C176 0.949 . S
C171 H166 0.950 . S
C171 C173 1.327 . S
C171 C177 1.429 . S
C172 C164 1.574 1_655 S
C172 H167 0.949 . S
C172 C178 1.368 . S
C173 C157 1.349 . S
C173 H165 0.950 . S
C173 C171 1.327 . S
C174 C162 1.349 . S
C174 H168 0.950 . S
C174 C175 1.327 . S
C175 H169 0.950 . S
C175 C174 1.327 . S
C175 C179 1.429 . S
C176 C159 1.574 1_455 S
C176 H170 0.949 . S
C176 C180 1.368 . S
C177 C158 1.429 . S
C177 C171 1.429 . S
C177 C178 1.523 . S
C178 C159 1.368 . S
C178 C172 1.368 . S
C178 C177 1.523 . S
C179 C163 1.429 . S
C179 C175 1.429 . S
C179 C180 1.523 . S
C180 C164 1.368 . S
C180 C176 1.368 . S
C180 C179 1.523 . S
H181 C156 0.950 . S
H182 C158 0.950 . S
H183 C159 0.949 . S
H184 C161 0.950 . S
H185 C163 0.950 . S
C186 C187 1.349 . S
C186 C188 1.327 . S
C186 H211 0.950 . S
C187 C186 1.349 . S
C187 C203 1.349 . S
C188 C186 1.327 . S
C188 C207 1.429 . S
C188 H212 0.950 . S
C189 C206 1.574 1_545 S
C189 C208 1.368 . S
C189 H213 0.949 . S
H190 C194 0.949 . S
C191 C192 1.349 . S
C191 C193 1.327 . S
C191 H214 0.950 . S
C192 C191 1.349 . S
C192 C204 1.349 . S
C193 C191 1.327 . S
C193 C209 1.429 . S
C193 H215 0.950 . S
C194 H190 0.949 . S
C194 C202 1.574 1_565 S
C194 C210 1.368 . S
H195 C203 0.950 . S
H196 C201 0.950 . S
H197 C202 0.949 . S
H198 C204 0.950 . S
H199 C205 0.950 . S
H200 C206 0.949 . S
C201 H196 0.950 . S
C201 C203 1.327 . S
C201 C207 1.429 . S
C202 C194 1.574 1_545 S
C202 H197 0.949 . S
C202 C208 1.368 . S
C203 C187 1.349 . S
C203 H195 0.950 . S
C203 C201 1.327 . S
C204 C192 1.349 . S
C204 H198 0.950 . S
C204 C205 1.327 . S
C205 H199 0.950 . S
C205 C204 1.327 . S
C205 C209 1.429 . S
C206 C189 1.574 1_565 S
C206 H200 0.949 . S
C206 C210 1.368 . S
C207 C188 1.429 . S
C207 C201 1.429 . S
C207 C208 1.523 . S
C208 C189 1.368 . S
C208 C202 1.368 . S
C208 C207 1.523 . S
C209 C193 1.429 . S
C209 C205 1.429 . S
C209 C210 1.523 . S
C210 C194 1.368 . S
C210 C206 1.368 . S
C210 C209 1.523 . S
H211 C186 0.950 . S
H212 C188 0.950 . S
H213 C189 0.949 . S
H214 C191 0.950 . S
H215 C193 0.950 . S
C216 C217 1.349 . S
C216 C218 1.327 . S
C216 H241 0.950 . S
C217 C216 1.349 . S
C217 C233 1.349 . S
C218 C216 1.327 . S
C218 C237 1.429 . S
C218 H242 0.950 . S
C219 C236 1.574 . S
C219 C238 1.368 . S
C219 H243 0.949 . S
H220 C224 0.949 . S
C221 C222 1.349 . S
C221 C223 1.327 . S
C221 H244 0.950 . S
C222 C221 1.349 . S
C222 C234 1.349 . S
C223 C221 1.327 . S
C223 C239 1.429 . S
C223 H245 0.950 . S
C224 H220 0.949 . S
C224 C232 1.574 . S
C224 C240 1.368 . S
H225 C233 0.950 . S
H226 C231 0.950 . S
H227 C232 0.949 . S
H228 C234 0.950 . S
H229 C235 0.950 . S
H230 C236 0.949 . S
C231 H226 0.950 . S
C231 C233 1.327 . S
C231 C237 1.429 . S
C232 C224 1.574 . S
C232 H227 0.949 . S
C232 C238 1.368 . S
C233 C217 1.349 . S
C233 H225 0.950 . S
C233 C231 1.327 . S
C234 C222 1.349 . S
C234 H228 0.950 . S
C234 C235 1.327 . S
C235 H229 0.950 . S
C235 C234 1.327 . S
C235 C239 1.429 . S
C236 C219 1.574 . S
C236 H230 0.949 . S
C236 C240 1.368 . S
C237 C218 1.429 . S
C237 C231 1.429 . S
C237 C238 1.523 . S
C238 C219 1.368 . S
C238 C232 1.368 . S
C238 C237 1.523 . S
C239 C223 1.429 . S
C239 C235 1.429 . S
C239 C240 1.523 . S
C240 C224 1.368 . S
C240 C236 1.368 . S
C240 C239 1.523 . S
H241 C216 0.950 . S
H242 C218 0.950 . S
H243 C219 0.949 . S
H244 C221 0.950 . S
H245 C223 0.950 . S
C246 C247 1.349 . S
C246 C248 1.327 . S
C246 H271 0.950 . S
C247 C246 1.349 . S
C247 C263 1.349 . S
C248 C246 1.327 . S
C248 C267 1.429 . S
C248 H272 0.950 . S
C249 C266 1.574 1_655 S
C249 C268 1.368 . S
C249 H273 0.949 . S
H250 C254 0.949 . S
C251 C252 1.349 . S
C251 C253 1.327 . S
C251 H274 0.950 . S
C252 C251 1.349 . S
C252 C264 1.349 . S
C253 C251 1.327 . S
C253 C269 1.429 . S
C253 H275 0.950 . S
C254 H250 0.949 . S
C254 C262 1.574 1_455 S
C254 C270 1.368 . S
H255 C263 0.950 . S
H256 C261 0.950 . S
H257 C262 0.949 . S
H258 C264 0.950 . S
H259 C265 0.950 . S
H260 C266 0.949 . S
C261 H256 0.950 . S
C261 C263 1.327 . S
C261 C267 1.429 . S
C262 C254 1.574 1_655 S
C262 H257 0.949 . S
C262 C268 1.368 . S
C263 C247 1.349 . S
C263 H255 0.950 . S
C263 C261 1.327 . S
C264 C252 1.349 . S
C264 H258 0.950 . S
C264 C265 1.327 . S
C265 H259 0.950 . S
C265 C264 1.327 . S
C265 C269 1.429 . S
C266 C249 1.574 1_455 S
C266 H260 0.949 . S
C266 C270 1.368 . S
C267 C248 1.429 . S
C267 C261 1.429 . S
C267 C268 1.523 . S
C268 C249 1.368 . S
C268 C262 1.368 . S
C268 C267 1.523 . S
C269 C253 1.429 . S
C269 C265 1.429 . S
C269 C270 1.523 . S
C270 C254 1.368 . S
C270 C266 1.368 . S
C270 C269 1.523 . S
H271 C246 0.950 . S
H272 C248 0.950 . S
H273 C249 0.949 . S
H274 C251 0.950 . S
H275 C253 0.950 . S
C276 C277 1.349 . S
C276 C278 1.327 . S
C276 H301 0.950 . S
C277 C276 1.349 . S
C277 C293 1.349 . S
C278 C276 1.327 . S
C278 C297 1.429 . S
C278 H302 0.950 . S
C279 C296 1.574 1_545 S
C279 C298 1.368 . S
C279 H303 0.949 . S
H280 C284 0.949 . S
C281 C282 1.349 . S
C281 C283 1.327 . S
C281 H304 0.950 . S
C282 C281 1.349 . S
C282 C294 1.349 . S
C283 C281 1.327 . S
C283 C299 1.429 . S
C283 H305 0.950 . S
C284 H280 0.949 . S
C284 C292 1.574 1_565 S
C284 C300 1.368 . S
H285 C293 0.950 . S
H286 C291 0.950 . S
H287 C292 0.949 . S
H288 C294 0.950 . S
H289 C295 0.950 . S
H290 C296 0.949 . S
C291 H286 0.950 . S
C291 C293 1.327 . S
C291 C297 1.429 . S
C292 C284 1.574 1_545 S
C292 H287 0.949 . S
C292 C298 1.368 . S
C293 C277 1.349 . S
C293 H285 0.950 . S
C293 C291 1.327 . S
C294 C282 1.349 . S
C294 H288 0.950 . S
C294 C295 1.327 . S
C295 H289 0.950 . S
C295 C294 1.327 . S
C295 C299 1.429 . S
C296 C279 1.574 1_565 S
C296 H290 0.949 . S
C296 C300 1.368 . S
C297 C278 1.429 . S
C297 C291 1.429 . S
C297 C298 1.523 . S
C298 C279 1.368 . S
C298 C292 1.368 . S
C298 C297 1.523 . S
C299 C283 1.429 . S
C299 C295 1.429 . S
C299 C300 1.523 . S
C300 C284 1.368 . S
C300 C296 1.368 . S
C300 C299 1.523 . S
H301 C276 0.950 . S
H302 C278 0.950 . S
H303 C279 0.949 . S
H304 C281 0.950 . S
H305 C283 0.950 . S
C306 C307 1.349 . S
C306 C308 1.327 . S
C306 H331 0.950 . S
C307 C306 1.349 . S
C307 C323 1.349 . S
C308 C306 1.327 . S
C308 C327 1.429 . S
C308 H332 0.950 . S
C309 C326 1.574 . S
C309 C328 1.368 . S
C309 H333 0.949 . S
H310 C314 0.949 . S
C311 C312 1.349 . S
C311 C313 1.327 . S
C311 H334 0.950 . S
C312 C311 1.349 . S
C312 C324 1.349 . S
C313 C311 1.327 . S
C313 C329 1.429 . S
C313 H335 0.950 . S
C314 H310 0.949 . S
C314 C322 1.574 . S
C314 C330 1.368 . S
H315 C323 0.950 . S
H316 C321 0.950 . S
H317 C322 0.949 . S
H318 C324 0.950 . S
H319 C325 0.950 . S
H320 C326 0.949 . S
C321 H316 0.950 . S
C321 C323 1.327 . S
C321 C327 1.429 . S
C322 C314 1.574 . S
C322 H317 0.949 . S
C322 C328 1.368 . S
C323 C307 1.349 . S
C323 H315 0.950 . S
C323 C321 1.327 . S
C324 C312 1.349 . S
C324 H318 0.950 . S
C324 C325 1.327 . S
C325 H319 0.950 . S
C325 C324 1.327 . S
C325 C329 1.429 . S
C326 C309 1.574 . S
C326 H320 0.949 . S
C326 C330 1.368 . S
C327 C308 1.429 . S
C327 C321 1.429 . S
C327 C328 1.523 . S
C328 C309 1.368 . S
C328 C322 1.368 . S
C328 C327 1.523 . S
C329 C313 1.429 . S
C329 C325 1.429 . S
C329 C330 1.523 . S
C330 C314 1.368 . S
C330 C326 1.368 . S
C330 C329 1.523 . S
H331 C306 0.950 . S
H332 C308 0.950 . S
H333 C309 0.949 . S
H334 C311 0.950 . S
H335 C313 0.950 . S
C336 C337 1.349 . S
C336 C338 1.327 . S
C336 H361 0.950 . S
C337 C336 1.349 . S
C337 C353 1.349 . S
C338 C336 1.327 . S
C338 C357 1.429 . S
C338 H362 0.950 . S
C339 C356 1.574 . S
C339 C358 1.368 . S
C339 H363 0.949 . S
H340 C344 0.949 . S
C341 C342 1.349 . S
C341 C343 1.327 . S
C341 H364 0.950 . S
C342 C341 1.349 . S
C342 C354 1.349 . S
C343 C341 1.327 . S
C343 C359 1.429 . S
C343 H365 0.950 . S
C344 H340 0.949 . S
C344 C352 1.574 . S
C344 C360 1.368 . S
H345 C353 0.950 . S
H346 C351 0.950 . S
H347 C352 0.949 . S
H348 C354 0.950 . S
H349 C355 0.950 . S
H350 C356 0.949 . S
C351 H346 0.950 . S
C351 C353 1.327 . S
C351 C357 1.429 . S
C352 C344 1.574 . S
C352 H347 0.949 . S
C352 C358 1.368 . S
C353 C337 1.349 . S
C353 H345 0.950 . S
C353 C351 1.327 . S
C354 C342 1.349 . S
C354 H348 0.950 . S
C354 C355 1.327 . S
C355 H349 0.950 . S
C355 C354 1.327 . S
C355 C359 1.429 . S
C356 C339 1.574 . S
C356 H350 0.949 . S
C356 C360 1.368 . S
C357 C338 1.429 . S
C357 C351 1.429 . S
C357 C358 1.523 . S
C358 C339 1.368 . S
C358 C352 1.368 . S
C358 C357 1.523 . S
C359 C343 1.429 . S
C359 C355 1.429 . S
C359 C360 1.523 . S
C360 C344 1.368 . S
C360 C356 1.368 . S
C360 C359 1.523 . S
H361 C336 0.950 . S
H362 C338 0.950 . S
H363 C339 0.949 . S
H364 C341 0.950 . S
H365 C343 0.950 . S
C366 C367 1.349 . S
C366 C368 1.327 . S
C366 H391 0.950 . S
C367 C366 1.349 . S
C367 C383 1.349 . S
C368 C366 1.327 . S
C368 C387 1.429 . S
C368 H392 0.950 . S
C369 C386 1.574 . S
C369 C388 1.368 . S
C369 H393 0.949 . S
H370 C374 0.949 . S
C371 C372 1.349 . S
C371 C373 1.327 . S
C371 H394 0.950 . S
C372 C371 1.349 . S
C372 C384 1.349 . S
C373 C371 1.327 . S
C373 C389 1.429 . S
C373 H395 0.950 . S
C374 H370 0.949 . S
C374 C382 1.574 . S
C374 C390 1.368 . S
H375 C383 0.950 . S
H376 C381 0.950 . S
H377 C382 0.949 . S
H378 C384 0.950 . S
H379 C385 0.950 . S
H380 C386 0.949 . S
C381 H376 0.950 . S
C381 C383 1.327 . S
C381 C387 1.429 . S
C382 C374 1.574 . S
C382 H377 0.949 . S
C382 C388 1.368 1_655 S
C383 C367 1.349 . S
C383 H375 0.950 . S
C383 C381 1.327 . S
C384 C372 1.349 . S
C384 H378 0.950 . S
C384 C385 1.327 . S
C385 H379 0.950 . S
C385 C384 1.327 . S
C385 C389 1.429 . S
C386 C369 1.574 . S
C386 H380 0.949 . S
C386 C390 1.368 1_455 S
C387 C368 1.429 . S
C387 C381 1.429 . S
C387 C388 1.523 . S
C388 C369 1.368 . S
C388 C382 1.368 1_455 S
C388 C387 1.523 . S
C389 C373 1.429 . S
C389 C385 1.429 . S
C389 C390 1.523 . S
C390 C374 1.368 . S
C390 C386 1.368 1_655 S
C390 C389 1.523 . S
H391 C366 0.950 . S
H392 C368 0.950 . S
H393 C369 0.949 . S
H394 C371 0.950 . S
H395 C373 0.950 . S
C396 C397 1.349 . S
C396 C398 1.327 . S
C396 H421 0.950 . S
C397 C396 1.349 . S
C397 C413 1.349 . S
C398 C396 1.327 . S
C398 C417 1.429 . S
C398 H422 0.950 . S
C399 C416 1.574 . S
C399 C418 1.368 1_565 S
C399 H423 0.949 . S
H400 C404 0.949 . S
C401 C402 1.349 . S
C401 C403 1.327 . S
C401 H424 0.950 . S
C402 C401 1.349 . S
C402 C414 1.349 . S
C403 C401 1.327 . S
C403 C419 1.429 . S
C403 H425 0.950 . S
C404 H400 0.949 . S
C404 C412 1.574 . S
C404 C420 1.368 1_545 S
H405 C413 0.950 . S
H406 C411 0.950 . S
H407 C412 0.949 . S
H408 C414 0.950 . S
H409 C415 0.950 . S
H410 C416 0.949 . S
C411 H406 0.950 . S
C411 C413 1.327 . S
C411 C417 1.429 . S
C412 C404 1.574 . S
C412 H407 0.949 . S
C412 C418 1.368 . S
C413 C397 1.349 . S
C413 H405 0.950 . S
C413 C411 1.327 . S
C414 C402 1.349 . S
C414 H408 0.950 . S
C414 C415 1.327 . S
C415 H409 0.950 . S
C415 C414 1.327 . S
C415 C419 1.429 . S
C416 C399 1.574 . S
C416 H410 0.949 . S
C416 C420 1.368 . S
C417 C398 1.429 . S
C417 C411 1.429 . S
C417 C418 1.523 . S
C418 C399 1.368 1_545 S
C418 C412 1.368 . S
C418 C417 1.523 . S
C419 C403 1.429 . S
C419 C415 1.429 . S
C419 C420 1.523 . S
C420 C404 1.368 1_565 S
C420 C416 1.368 . S
C420 C419 1.523 . S
H421 C396 0.950 . S
H422 C398 0.950 . S
H423 C399 0.949 . S
H424 C401 0.950 . S
H425 C403 0.950 . S
C426 C427 1.349 . S
C426 C428 1.327 . S
C426 H451 0.950 . S
C427 C426 1.349 . S
C427 C443 1.349 . S
C428 C426 1.327 . S
C428 C447 1.429 . S
C428 H452 0.950 . S
C429 C446 1.574 . S
C429 C448 1.368 . S
C429 H453 0.949 . S
H430 C434 0.949 . S
C431 C432 1.349 . S
C431 C433 1.327 . S
C431 H454 0.950 . S
C432 C431 1.349 . S
C432 C444 1.349 . S
C433 C431 1.327 . S
C433 C449 1.429 . S
C433 H455 0.950 . S
C434 H430 0.949 . S
C434 C442 1.574 . S
C434 C450 1.368 . S
H435 C443 0.950 . S
H436 C441 0.950 . S
H437 C442 0.949 . S
H438 C444 0.950 . S
H439 C445 0.950 . S
H440 C446 0.949 . S
C441 H436 0.950 . S
C441 C443 1.327 . S
C441 C447 1.429 . S
C442 C434 1.574 . S
C442 H437 0.949 . S
C442 C448 1.368 . S
C443 C427 1.349 . S
C443 H435 0.950 . S
C443 C441 1.327 . S
C444 C432 1.349 . S
C444 H438 0.950 . S
C444 C445 1.327 . S
C445 H439 0.950 . S
C445 C444 1.327 . S
C445 C449 1.429 . S
C446 C429 1.574 . S
C446 H440 0.949 . S
C446 C450 1.368 . S
C447 C428 1.429 . S
C447 C441 1.429 . S
C447 C448 1.523 . S
C448 C429 1.368 . S
C448 C442 1.368 . S
C448 C447 1.523 . S
C449 C433 1.429 . S
C449 C445 1.429 . S
C449 C450 1.523 . S
C450 C434 1.368 . S
C450 C446 1.368 . S
C450 C449 1.523 . S
H451 C426 0.950 . S
H452 C428 0.950 . S
H453 C429 0.949 . S
H454 C431 0.950 . S
H455 C433 0.950 . S
C456 C457 1.349 . S
C456 C458 1.327 . S
C456 H481 0.950 . S
C457 C456 1.349 . S
C457 C473 1.349 . S
C458 C456 1.327 . S
C458 C477 1.429 . S
C458 H482 0.950 . S
C459 C476 1.574 . S
C459 C478 1.368 1_455 S
C459 H483 0.949 . S
H460 C464 0.949 . S
C461 C462 1.349 . S
C461 C463 1.327 . S
C461 H484 0.950 . S
C462 C461 1.349 . S
C462 C474 1.349 . S
C463 C461 1.327 . S
C463 C479 1.429 . S
C463 H485 0.950 . S
C464 H460 0.949 . S
C464 C472 1.574 . S
C464 C480 1.368 1_655 S
H465 C473 0.950 . S
H466 C471 0.950 . S
H467 C472 0.949 . S
H468 C474 0.950 . S
H469 C475 0.950 . S
H470 C476 0.949 . S
C471 H466 0.950 . S
C471 C473 1.327 . S
C471 C477 1.429 . S
C472 C464 1.574 . S
C472 H467 0.949 . S
C472 C478 1.368 . S
C473 C457 1.349 . S
C473 H465 0.950 . S
C473 C471 1.327 . S
C474 C462 1.349 . S
C474 H468 0.950 . S
C474 C475 1.327 . S
C475 H469 0.950 . S
C475 C474 1.327 . S
C475 C479 1.429 . S
C476 C459 1.574 . S
C476 H470 0.949 . S
C476 C480 1.368 . S
C477 C458 1.429 . S
C477 C471 1.429 . S
C477 C478 1.523 . S
C478 C459 1.368 1_655 S
C478 C472 1.368 . S
C478 C477 1.523 . S
C479 C463 1.429 . S
C479 C475 1.429 . S
C479 C480 1.523 . S
C480 C464 1.368 1_455 S
C480 C476 1.368 . S
C480 C479 1.523 . S
H481 C456 0.950 . S
H482 C458 0.950 . S
H483 C459 0.949 . S
H484 C461 0.950 . S
H485 C463 0.950 . S
C486 C487 1.349 . S
C486 C488 1.327 . S
C486 H511 0.950 . S
C487 C486 1.349 . S
C487 C503 1.349 . S
C488 C486 1.327 . S
C488 C507 1.429 . S
C488 H512 0.950 . S
C489 C506 1.574 . S
C489 C508 1.368 . S
C489 H513 0.949 . S
H490 C494 0.949 . S
C491 C492 1.349 . S
C491 C493 1.327 . S
C491 H514 0.950 . S
C492 C491 1.349 . S
C492 C504 1.349 . S
C493 C491 1.327 . S
C493 C509 1.429 . S
C493 H515 0.950 . S
C494 H490 0.949 . S
C494 C502 1.574 . S
C494 C510 1.368 . S
H495 C503 0.950 . S
H496 C501 0.950 . S
H497 C502 0.949 . S
H498 C504 0.950 . S
H499 C505 0.950 . S
H500 C506 0.949 . S
C501 H496 0.950 . S
C501 C503 1.327 . S
C501 C507 1.429 . S
C502 C494 1.574 . S
C502 H497 0.949 . S
C502 C508 1.368 1_545 S
C503 C487 1.349 . S
C503 H495 0.950 . S
C503 C501 1.327 . S
C504 C492 1.349 . S
C504 H498 0.950 . S
C504 C505 1.327 . S
C505 H499 0.950 . S
C505 C504 1.327 . S
C505 C509 1.429 . S
C506 C489 1.574 . S
C506 H500 0.949 . S
C506 C510 1.368 1_565 S
C507 C488 1.429 . S
C507 C501 1.429 . S
C507 C508 1.523 . S
C508 C489 1.368 . S
C508 C502 1.368 1_565 S
C508 C507 1.523 . S
C509 C493 1.429 . S
C509 C505 1.429 . S
C509 C510 1.523 . S
C510 C494 1.368 . S
C510 C506 1.368 1_545 S
C510 C509 1.523 . S
H511 C486 0.950 . S
H512 C488 0.950 . S
H513 C489 0.949 . S
H514 C491 0.950 . S
H515 C493 0.950 . S
C516 C517 1.349 . S
C516 C518 1.327 . S
C516 H541 0.950 . S
C517 C516 1.349 . S
C517 C533 1.349 . S
C518 C516 1.327 . S
C518 C537 1.429 . S
C518 H542 0.950 . S
C519 C536 1.574 . S
C519 C538 1.368 . S
C519 H543 0.949 . S
H520 C524 0.949 . S
C521 C522 1.349 . S
C521 C523 1.327 . S
C521 H544 0.950 . S
C522 C521 1.349 . S
C522 C534 1.349 . S
C523 C521 1.327 . S
C523 C539 1.429 . S
C523 H545 0.950 . S
C524 H520 0.949 . S
C524 C532 1.574 . S
C524 C540 1.368 . S
H525 C533 0.950 . S
H526 C531 0.950 . S
H527 C532 0.949 . S
H528 C534 0.950 . S
H529 C535 0.950 . S
H530 C536 0.949 . S
C531 H526 0.950 . S
C531 C533 1.327 . S
C531 C537 1.429 . S
C532 C524 1.574 . S
C532 H527 0.949 . S
C532 C538 1.368 . S
C533 C517 1.349 . S
C533 H525 0.950 . S
C533 C531 1.327 . S
C534 C522 1.349 . S
C534 H528 0.950 . S
C534 C535 1.327 . S
C535 H529 0.950 . S
C535 C534 1.327 . S
C535 C539 1.429 . S
C536 C519 1.574 . S
C536 H530 0.949 . S
C536 C540 1.368 . S
C537 C518 1.429 . S
C537 C531 1.429 . S
C537 C538 1.523 . S
C538 C519 1.368 . S
C538 C532 1.368 . S
C538 C537 1.523 . S
C539 C523 1.429 . S
C539 C535 1.429 . S
C539 C540 1.523 . S
C540 C524 1.368 . S
C540 C536 1.368 . S
C540 C539 1.523 . S
H541 C516 0.950 . S
H542 C518 0.950 . S
H543 C519 0.949 . S
H544 C521 0.950 . S
H545 C523 0.950 . S
C546 C547 1.349 . S
C546 C548 1.327 . S
C546 H571 0.950 . S
C547 C546 1.349 . S
C547 C563 1.349 . S
C548 C546 1.327 . S
C548 C567 1.429 . S
C548 H572 0.950 . S
C549 C566 1.574 . S
C549 C568 1.368 . S
C549 H573 0.949 . S
H550 C554 0.949 . S
C551 C552 1.349 . S
C551 C553 1.327 . S
C551 H574 0.950 . S
C552 C551 1.349 . S
C552 C564 1.349 . S
C553 C551 1.327 . S
C553 C569 1.429 . S
C553 H575 0.950 . S
C554 H550 0.949 . S
C554 C562 1.574 . S
C554 C570 1.368 . S
H555 C563 0.950 1_655 S
H556 C561 0.950 . S
H557 C562 0.949 . S
H558 C564 0.950 . S
H559 C565 0.950 . S
H560 C566 0.949 . S
C561 H556 0.950 . S
C561 C563 1.327 . S
C561 C567 1.429 . S
C562 C554 1.574 . S
C562 H557 0.949 . S
C562 C568 1.368 . S
C563 C547 1.349 . S
C563 H555 0.950 1_455 S
C563 C561 1.327 . S
C564 C552 1.349 . S
C564 H558 0.950 . S
C564 C565 1.327 . S
C565 H559 0.950 . S
C565 C564 1.327 . S
C565 C569 1.429 . S
C566 C549 1.574 . S
C566 H560 0.949 . S
C566 C570 1.368 . S
C567 C548 1.429 . S
C567 C561 1.429 . S
C567 C568 1.523 . S
C568 C549 1.368 . S
C568 C562 1.368 . S
C568 C567 1.523 . S
C569 C553 1.429 . S
C569 C565 1.429 . S
C569 C570 1.523 . S
C570 C554 1.368 . S
C570 C566 1.368 . S
C570 C569 1.523 . S
H571 C546 0.950 . S
H572 C548 0.950 . S
H573 C549 0.949 . S
H574 C551 0.950 . S
H575 C553 0.950 . S
C576 C577 1.349 . S
C576 C578 1.327 . S
C576 H601 0.950 . S
C577 C576 1.349 . S
C577 C593 1.349 . S
C578 C576 1.327 . S
C578 C597 1.429 . S
C578 H602 0.950 . S
C579 C596 1.574 . S
C579 C598 1.368 . S
C579 H603 0.949 . S
H580 C584 0.949 . S
C581 C582 1.349 . S
C581 C583 1.327 . S
C581 H604 0.950 . S
C582 C581 1.349 . S
C582 C594 1.349 . S
C583 C581 1.327 . S
C583 C599 1.429 . S
C583 H605 0.950 . S
C584 H580 0.949 . S
C584 C592 1.574 . S
C584 C600 1.368 . S
H585 C593 0.950 . S
H586 C591 0.950 . S
H587 C592 0.949 . S
H588 C594 0.950 1_565 S
H589 C595 0.950 . S
H590 C596 0.949 . S
C591 H586 0.950 . S
C591 C593 1.327 . S
C591 C597 1.429 . S
C592 C584 1.574 . S
C592 H587 0.949 . S
C592 C598 1.368 . S
C593 C577 1.349 . S
C593 H585 0.950 . S
C593 C591 1.327 . S
C594 C582 1.349 . S
C594 H588 0.950 1_545 S
C594 C595 1.327 . S
C595 H589 0.950 . S
C595 C594 1.327 . S
C595 C599 1.429 . S
C596 C579 1.574 . S
C596 H590 0.949 . S
C596 C600 1.368 . S
C597 C578 1.429 . S
C597 C591 1.429 . S
C597 C598 1.523 . S
C598 C579 1.368 . S
C598 C592 1.368 . S
C598 C597 1.523 . S
C599 C583 1.429 . S
C599 C595 1.429 . S
C599 C600 1.523 . S
C600 C584 1.368 . S
C600 C596 1.368 . S
C600 C599 1.523 . S
H601 C576 0.950 . S
H602 C578 0.950 . S
H603 C579 0.949 . S
H604 C581 0.950 . S
H605 C583 0.950 . S
C606 C607 1.349 . S
C606 C608 1.327 . S
C606 H631 0.950 . S
C607 C606 1.349 . S
C607 C623 1.349 . S
C608 C606 1.327 . S
C608 C627 1.429 . S
C608 H632 0.950 . S
C609 C626 1.574 . S
C609 C628 1.368 . S
C609 H633 0.949 . S
H610 C614 0.949 . S
C611 C612 1.349 . S
C611 C613 1.327 . S
C611 H634 0.950 . S
C612 C611 1.349 . S
C612 C624 1.349 . S
C613 C611 1.327 . S
C613 C629 1.429 . S
C613 H635 0.950 . S
C614 H610 0.949 . S
C614 C622 1.574 . S
C614 C630 1.368 . S
H615 C623 0.950 . S
H616 C621 0.950 . S
H617 C622 0.949 . S
H618 C624 0.950 . S
H619 C625 0.950 . S
H620 C626 0.949 . S
C621 H616 0.950 . S
C621 C623 1.327 . S
C621 C627 1.429 . S
C622 C614 1.574 . S
C622 H617 0.949 . S
C622 C628 1.368 . S
C623 C607 1.349 . S
C623 H615 0.950 . S
C623 C621 1.327 . S
C624 C612 1.349 . S
C624 H618 0.950 . S
C624 C625 1.327 . S
C625 H619 0.950 . S
C625 C624 1.327 . S
C625 C629 1.429 . S
C626 C609 1.574 . S
C626 H620 0.949 . S
C626 C630 1.368 . S
C627 C608 1.429 . S
C627 C621 1.429 . S
C627 C628 1.523 . S
C628 C609 1.368 . S
C628 C622 1.368 . S
C628 C627 1.523 . S
C629 C613 1.429 . S
C629 C625 1.429 . S
C629 C630 1.523 . S
C630 C614 1.368 . S
C630 C626 1.368 . S
C630 C629 1.523 . S
H631 C606 0.950 . S
H632 C608 0.950 . S
H633 C609 0.949 . S
H634 C611 0.950 . S
H635 C613 0.950 . S
C636 C637 1.349 . S
C636 C638 1.327 . S
C636 H661 0.950 . S
C637 C636 1.349 . S
C637 C653 1.349 . S
C638 C636 1.327 . S
C638 C657 1.429 . S
C638 H662 0.950 . S
C639 C656 1.574 . S
C639 C658 1.368 . S
C639 H663 0.949 . S
H640 C644 0.949 . S
C641 C642 1.349 . S
C641 C643 1.327 . S
C641 H664 0.950 . S
C642 C641 1.349 . S
C642 C654 1.349 . S
C643 C641 1.327 . S
C643 C659 1.429 . S
C643 H665 0.950 . S
C644 H640 0.949 . S
C644 C652 1.574 . S
C644 C660 1.368 . S
H645 C653 0.950 . S
H646 C651 0.950 . S
H647 C652 0.949 . S
H648 C654 0.950 1_455 S
H649 C655 0.950 . S
H650 C656 0.949 . S
C651 H646 0.950 . S
C651 C653 1.327 . S
C651 C657 1.429 . S
C652 C644 1.574 . S
C652 H647 0.949 . S
C652 C658 1.368 . S
C653 C637 1.349 . S
C653 H645 0.950 . S
C653 C651 1.327 . S
C654 C642 1.349 . S
C654 H648 0.950 1_655 S
C654 C655 1.327 . S
C655 H649 0.950 . S
C655 C654 1.327 . S
C655 C659 1.429 . S
C656 C639 1.574 . S
C656 H650 0.949 . S
C656 C660 1.368 . S
C657 C638 1.429 . S
C657 C651 1.429 . S
C657 C658 1.523 . S
C658 C639 1.368 . S
C658 C652 1.368 . S
C658 C657 1.523 . S
C659 C643 1.429 . S
C659 C655 1.429 . S
C659 C660 1.523 . S
C660 C644 1.368 . S
C660 C656 1.368 . S
C660 C659 1.523 . S
H661 C636 0.950 . S
H662 C638 0.950 . S
H663 C639 0.949 . S
H664 C641 0.950 . S
H665 C643 0.950 . S
C666 C667 1.349 . S
C666 C668 1.327 . S
C666 H691 0.950 . S
C667 C666 1.349 . S
C667 C683 1.349 . S
C668 C666 1.327 . S
C668 C687 1.429 . S
C668 H692 0.950 . S
C669 C686 1.574 . S
C669 C688 1.368 . S
C669 H693 0.949 . S
H670 C674 0.949 . S
C671 C672 1.349 . S
C671 C673 1.327 . S
C671 H694 0.950 1_455 S
C672 C671 1.349 . S
C672 C684 1.349 . S
C673 C671 1.327 . S
C673 C689 1.429 . S
C673 H695 0.950 . S
C674 H670 0.949 . S
C674 C682 1.574 . S
C674 C690 1.368 . S
H675 C683 0.950 1_545 S
H676 C681 0.950 . S
H677 C682 0.949 . S
H678 C684 0.950 . S
H679 C685 0.950 . S
H680 C686 0.949 . S
C681 H676 0.950 . S
C681 C683 1.327 . S
C681 C687 1.429 . S
C682 C674 1.574 . S
C682 H677 0.949 . S
C682 C688 1.368 . S
C683 C667 1.349 . S
C683 H675 0.950 1_565 S
C683 C681 1.327 . S
C684 C672 1.349 . S
C684 H678 0.950 . S
C684 C685 1.327 . S
C685 H679 0.950 . S
C685 C684 1.327 . S
C685 C689 1.429 . S
C686 C669 1.574 . S
C686 H680 0.949 . S
C686 C690 1.368 . S
C687 C668 1.429 . S
C687 C681 1.429 . S
C687 C688 1.523 . S
C688 C669 1.368 . S
C688 C682 1.368 . S
C688 C687 1.523 . S
C689 C673 1.429 . S
C689 C685 1.429 . S
C689 C690 1.523 . S
C690 C674 1.368 . S
C690 C686 1.368 . S
C690 C689 1.523 . S
H691 C666 0.950 . S
H692 C668 0.950 . S
H693 C669 0.949 . S
H694 C671 0.950 1_655 S
H695 C673 0.950 . S
C696 C697 1.349 . S
C696 C698 1.327 . S
C696 H721 0.950 . S
C697 C696 1.349 . S
C697 C713 1.349 . S
C698 C696 1.327 . S
C698 C717 1.429 . S
C698 H722 0.950 . S
C699 C716 1.574 . S
C699 C718 1.368 . S
C699 H723 0.949 . S
H700 C704 0.949 . S
C701 C702 1.349 . S
C701 C703 1.327 . S
C701 H724 0.950 . S
C702 C701 1.349 . S
C702 C714 1.349 . S
C703 C701 1.327 . S
C703 C719 1.429 . S
C703 H725 0.950 . S
C704 H700 0.949 . S
C704 C712 1.574 . S
C704 C720 1.368 . S
H705 C713 0.950 . S
H706 C711 0.950 . S
H707 C712 0.949 . S
H708 C714 0.950 . S
H709 C715 0.950 . S
H710 C716 0.949 . S
C711 H706 0.950 . S
C711 C713 1.327 . S
C711 C717 1.429 . S
C712 C704 1.574 . S
C712 H707 0.949 . S
C712 C718 1.368 . S
C713 C697 1.349 . S
C713 H705 0.950 . S
C713 C711 1.327 . S
C714 C702 1.349 . S
C714 H708 0.950 . S
C714 C715 1.327 . S
C715 H709 0.950 . S
C715 C714 1.327 . S
C715 C719 1.429 . S
C716 C699 1.574 . S
C716 H710 0.949 . S
C716 C720 1.368 . S
C717 C698 1.429 . S
C717 C711 1.429 . S
C717 C718 1.523 . S
C718 C699 1.368 . S
C718 C712 1.368 . S
C718 C717 1.523 . S
C719 C703 1.429 . S
C719 C715 1.429 . S
C719 C720 1.523 . S
C720 C704 1.368 . S
C720 C716 1.368 . S
C720 C719 1.523 . S
H721 C696 0.950 . S
H722 C698 0.950 . S
H723 C699 0.949 . S
H724 C701 0.950 . S
H725 C703 0.950 . S
C726 C727 1.349 . S
C726 C728 1.327 . S
C726 H751 0.950 . S
C727 C726 1.349 . S
C727 C743 1.349 . S
C728 C726 1.327 . S
C728 C747 1.429 . S
C728 H752 0.950 . S
C729 C746 1.574 1_655 S
C729 C748 1.368 . S
C729 H753 0.949 . S
H730 C734 0.949 . S
C731 C732 1.349 . S
C731 C733 1.327 . S
C731 H754 0.950 . S
C732 C731 1.349 . S
C732 C744 1.349 . S
C733 C731 1.327 . S
C733 C749 1.429 . S
C733 H755 0.950 . S
C734 H730 0.949 . S
C734 C742 1.574 1_455 S
C734 C750 1.368 . S
H735 C743 0.950 . S
H736 C741 0.950 . S
H737 C742 0.949 . S
H738 C744 0.950 . S
H739 C745 0.950 . S
H740 C746 0.949 . S
C741 H736 0.950 . S
C741 C743 1.327 . S
C741 C747 1.429 . S
C742 C734 1.574 1_655 S
C742 H737 0.949 . S
C742 C748 1.368 . S
C743 C727 1.349 . S
C743 H735 0.950 . S
C743 C741 1.327 . S
C744 C732 1.349 . S
C744 H738 0.950 . S
C744 C745 1.327 . S
C745 H739 0.950 . S
C745 C744 1.327 . S
C745 C749 1.429 . S
C746 C729 1.574 1_455 S
C746 H740 0.949 . S
C746 C750 1.368 . S
C747 C728 1.429 . S
C747 C741 1.429 . S
C747 C748 1.523 . S
C748 C729 1.368 . S
C748 C742 1.368 . S
C748 C747 1.523 . S
C749 C733 1.429 . S
C749 C745 1.429 . S
C749 C750 1.523 . S
C750 C734 1.368 . S
C750 C746 1.368 . S
C750 C749 1.523 . S
H751 C726 0.950 . S
H752 C728 0.950 . S
H753 C729 0.949 . S
H754 C731 0.950 . S
H755 C733 0.950 . S
C756 C757 1.349 . S
C756 C758 1.327 . S
C756 H781 0.950 . S
C757 C756 1.349 . S
C757 C773 1.349 . S
C758 C756 1.327 . S
C758 C777 1.429 . S
C758 H782 0.950 1_545 S
C759 C776 1.574 1_554 S
C759 C778 1.368 . S
C759 H783 0.949 . S
H760 C764 0.949 . S
C761 C762 1.349 . S
C761 C763 1.327 . S
C761 H784 0.950 . S
C762 C761 1.349 . S
C762 C774 1.349 . S
C763 C761 1.327 . S
C763 C779 1.429 . S
C763 H785 0.950 1_565 S
C764 H760 0.949 . S
C764 C772 1.574 1_556 S
C764 C780 1.368 . S
H765 C773 0.950 . S
H766 C771 0.950 . S
H767 C772 0.949 . S
H768 C774 0.950 . S
H769 C775 0.950 . S
H770 C776 0.949 . S
C771 H766 0.950 . S
C771 C773 1.327 . S
C771 C777 1.429 . S
C772 C764 1.574 1_554 S
C772 H767 0.949 . S
C772 C778 1.368 1_565 S
C773 C757 1.349 . S
C773 H765 0.950 . S
C773 C771 1.327 . S
C774 C762 1.349 . S
C774 H768 0.950 . S
C774 C775 1.327 . S
C775 H769 0.950 . S
C775 C774 1.327 . S
C775 C779 1.429 . S
C776 C759 1.574 1_556 S
C776 H770 0.949 . S
C776 C780 1.368 1_545 S
C777 C758 1.429 . S
C777 C771 1.429 . S
C777 C778 1.523 . S
C778 C759 1.368 . S
C778 C772 1.368 1_545 S
C778 C777 1.523 . S
C779 C763 1.429 . S
C779 C775 1.429 . S
C779 C780 1.523 . S
C780 C764 1.368 . S
C780 C776 1.368 1_565 S
C780 C779 1.523 . S
H781 C756 0.950 . S
H782 C758 0.950 1_565 S
H783 C759 0.949 . S
H784 C761 0.950 . S
H785 C763 0.950 1_545 S
C786 C787 1.349 . S
C786 C788 1.327 . S
C786 H811 0.950 . S
C787 C786 1.349 . S
C787 C803 1.349 . S
C788 C786 1.327 . S
C788 C807 1.429 . S
C788 H812 0.950 . S
C789 C806 1.574 . S
C789 C808 1.368 . S
C789 H813 0.949 . S
H790 C794 0.949 . S
C791 C792 1.349 . S
C791 C793 1.327 . S
C791 H814 0.950 . S
C792 C791 1.349 . S
C792 C804 1.349 . S
C793 C791 1.327 . S
C793 C809 1.429 . S
C793 H815 0.950 . S
C794 H790 0.949 . S
C794 C802 1.574 . S
C794 C810 1.368 . S
H795 C803 0.950 . S
H796 C801 0.950 . S
H797 C802 0.949 . S
H798 C804 0.950 . S
H799 C805 0.950 . S
H800 C806 0.949 . S
C801 H796 0.950 . S
C801 C803 1.327 . S
C801 C807 1.429 . S
C802 C794 1.574 . S
C802 H797 0.949 . S
C802 C808 1.368 . S
C803 C787 1.349 . S
C803 H795 0.950 . S
C803 C801 1.327 . S
C804 C792 1.349 . S
C804 H798 0.950 . S
C804 C805 1.327 . S
C805 H799 0.950 . S
C805 C804 1.327 . S
C805 C809 1.429 . S
C806 C789 1.574 . S
C806 H800 0.949 . S
C806 C810 1.368 . S
C807 C788 1.429 . S
C807 C801 1.429 . S
C807 C808 1.523 . S
C808 C789 1.368 . S
C808 C802 1.368 . S
C808 C807 1.523 . S
C809 C793 1.429 . S
C809 C805 1.429 . S
C809 C810 1.523 . S
C810 C794 1.368 . S
C810 C806 1.368 . S
C810 C809 1.523 . S
H811 C786 0.950 . S
H812 C788 0.950 . S
H813 C789 0.949 . S
H814 C791 0.950 . S
H815 C793 0.950 . S
C816 C817 1.349 . S
C816 C818 1.327 . S
C816 H841 0.950 . S
C817 C816 1.349 . S
C817 C833 1.349 . S
C818 C816 1.327 . S
C818 C837 1.429 . S
C818 H842 0.950 . S
C819 C836 1.574 . S
C819 C838 1.368 . S
C819 H843 0.949 . S
H820 C824 0.949 . S
C821 C822 1.349 . S
C821 C823 1.327 . S
C821 H844 0.950 . S
C822 C821 1.349 . S
C822 C834 1.349 . S
C823 C821 1.327 . S
C823 C839 1.429 . S
C823 H845 0.950 . S
C824 H820 0.949 . S
C824 C832 1.574 . S
C824 C840 1.368 . S
H825 C833 0.950 . S
H826 C831 0.950 . S
H827 C832 0.949 . S
H828 C834 0.950 . S
H829 C835 0.950 . S
H830 C836 0.949 . S
C831 H826 0.950 . S
C831 C833 1.327 . S
C831 C837 1.429 . S
C832 C824 1.574 . S
C832 H827 0.949 . S
C832 C838 1.368 1_655 S
C833 C817 1.349 . S
C833 H825 0.950 . S
C833 C831 1.327 . S
C834 C822 1.349 . S
C834 H828 0.950 . S
C834 C835 1.327 . S
C835 H829 0.950 . S
C835 C834 1.327 . S
C835 C839 1.429 . S
C836 C819 1.574 . S
C836 H830 0.949 . S
C836 C840 1.368 1_455 S
C837 C818 1.429 . S
C837 C831 1.429 . S
C837 C838 1.523 . S
C838 C819 1.368 . S
C838 C832 1.368 1_455 S
C838 C837 1.523 . S
C839 C823 1.429 . S
C839 C835 1.429 . S
C839 C840 1.523 . S
C840 C824 1.368 . S
C840 C836 1.368 1_655 S
C840 C839 1.523 . S
H841 C816 0.950 . S
H842 C818 0.950 . S
H843 C819 0.949 . S
H844 C821 0.950 . S
H845 C823 0.950 . S
C846 C847 1.349 . S
C846 C848 1.327 . S
C846 H871 0.950 . S
C847 C846 1.349 . S
C847 C863 1.349 . S
C848 C846 1.327 . S
C848 C867 1.429 . S
C848 H872 0.950 . S
C849 C866 1.574 1_554 S
C849 C868 1.368 1_545 S
C849 H873 0.949 . S
H850 C854 0.949 . S
C851 C852 1.349 . S
C851 C853 1.327 . S
C851 H874 0.950 . S
C852 C851 1.349 . S
C852 C864 1.349 . S
C853 C851 1.327 . S
C853 C869 1.429 . S
C853 H875 0.950 . S
C854 H850 0.949 . S
C854 C862 1.574 1_556 S
C854 C870 1.368 1_565 S
H855 C863 0.950 1_545 S
H856 C861 0.950 1_545 S
H857 C862 0.949 . S
H858 C864 0.950 1_565 S
H859 C865 0.950 1_565 S
H860 C866 0.949 . S
C861 H856 0.950 1_565 S
C861 C863 1.327 . S
C861 C867 1.429 . S
C862 C854 1.574 1_554 S
C862 H857 0.949 . S
C862 C868 1.368 . S
C863 C847 1.349 . S
C863 H855 0.950 1_565 S
C863 C861 1.327 . S
C864 C852 1.349 . S
C864 H858 0.950 1_545 S
C864 C865 1.327 . S
C865 H859 0.950 1_545 S
C865 C864 1.327 . S
C865 C869 1.429 . S
C866 C849 1.574 1_556 S
C866 H860 0.949 . S
C866 C870 1.368 . S
C867 C848 1.429 . S
C867 C861 1.429 . S
C867 C868 1.523 . S
C868 C849 1.368 1_565 S
C868 C862 1.368 . S
C868 C867 1.523 . S
C869 C853 1.429 . S
C869 C865 1.429 . S
C869 C870 1.523 . S
C870 C854 1.368 1_545 S
C870 C866 1.368 . S
C870 C869 1.523 . S
H871 C846 0.950 . S
H872 C848 0.950 . S
H873 C849 0.949 . S
H874 C851 0.950 . S
H875 C853 0.950 . S
C157 C143 1.419 . S
C162 C0 1.419 . S
C187 C13 1.419 . S
C192 C78 1.419 . S
C217 C26 1.419 . S
C222 C91 1.419 . S
C247 C39 1.419 . S
C252 C104 1.419 . S
C277 C117 1.419 . S
C282 C52 1.419 . S
C307 C65 1.419 . S
C312 C130 1.419 . S
C337 C44 1.008 . S
C342 C5 1.008 . S
C367 C57 1.008 . S
C372 C18 1.008 . S
C397 C70 1.008 . S
C402 C31 1.008 . S
C427 C83 1.008 . S
C432 C122 1.008 . S
C457 C96 1.008 . S
C462 C135 1.008 . S
C487 C109 1.008 . S
C492 C148 1.008 . S
C517 C112 0.339 . S
C522 C8 0.339 . S
C547 C21 0.339 . S
C552 C125 0.339 . S
C577 C138 0.339 . S
C582 C34 0.339 . S
C607 C151 0.339 . S
C612 C47 0.339 . S
C637 C86 0.339 . S
C642 C60 0.339 . S
C667 C73 0.339 . S
C672 C99 0.339 . S
C697 C127 1.568 . S
C702 C10 1.568 . S
C727 C23 1.568 . S
C732 C140 1.568 . S
C757 C153 1.568 . S
C762 C36 1.568 . S
C787 C49 1.568 . S
C792 C88 1.568 . S
C817 C62 1.568 . S
C822 C101 1.568 . S
C847 C114 1.568 . S
C852 C75 1.568 . S
