# Generated by pormake.
# Topology sxa, (6)-cn, num edge types: 1
# Building blocks:
#     Node 0, Type 0, BuildingBlock: VOLQOD_clean_sbu_1, # of connection points: 6
#     Node 1, Type 0, BuildingBlock: VOLQOD_clean_sbu_1, # of connection points: 6
#     Node 2, Type 0, BuildingBlock: VOLQOD_clean_sbu_1, # of connection points: 6
#     Node 3, Type 0, BuildingBlock: VOLQOD_clean_sbu_1, # of connection points: 6
#     Edge 4, Type (0, 0), BuildingBlock: EZIPEK_clean_linker_0, # of connection points: 2
#     Edge 5, Type (0, 0), BuildingBlock: EZIPEK_clean_linker_0, # of connection points: 2
#     Edge 6, Type (0, 0), BuildingBlock: EZIPEK_clean_linker_0, # of connection points: 2
#     Edge 7, Type (0, 0), BuildingBlock: EZIPEK_clean_linker_0, # of connection points: 2
#     Edge 8, Type (0, 0), BuildingBlock: EZIPEK_clean_linker_0, # of connection points: 2
#     Edge 9, Type (0, 0), BuildingBlock: EZIPEK_clean_linker_0, # of connection points: 2
#     Edge 10, Type (0, 0), BuildingBlock: EZIPEK_clean_linker_0, # of connection points: 2
#     Edge 11, Type (0, 0), BuildingBlock: EZIPEK_clean_linker_0, # of connection points: 2
#     Edge 12, Type (0, 0), BuildingBlock: EZIPEK_clean_linker_0, # of connection points: 2
#     Edge 13, Type (0, 0), BuildingBlock: EZIPEK_clean_linker_0, # of connection points: 2
#     Edge 14, Type (0, 0), BuildingBlock: EZIPEK_clean_linker_0, # of connection points: 2
#     Edge 15, Type (0, 0), BuildingBlock: EZIPEK_clean_linker_0, # of connection points: 2
# Relax obj value: 0.229
# Max RMSD: 0.203
# Mean RMSD: 0.203
data_MOF--net-sxa--node1-VOLQOD_clean_sbu_1--edge1-EZIPEK_clean_linker_0
_symmetry_space_group_name_H-M    P1
_symmetry_Int_Tables_number       1
_symmetry_cell_setting            triclinic
loop_
_symmetry_equiv_pos_as_xyz
'x, y, z'
_cell_length_a     19.02707
_cell_length_b     22.787114
_cell_length_c     13.687269
_cell_angle_alpha  89.921239
_cell_angle_beta   90.607054
_cell_angle_gamma 90.180914
loop_
_atom_site_label
_atom_site_type_symbol
_atom_site_fract_x
_atom_site_fract_y
_atom_site_fract_z
_atom_type_partial_charge
O0 O 0.97583 0.72864 0.43867 0.0
Zn1 Zn 0.05138 0.72203 0.33043 0.0
O2 O 0.02794 0.78546 0.24473 0.0
Zn3 Zn 0.9802 0.76275 0.12565 0.0
Zn4 Zn 0.97213 0.84378 0.3053 0.0
Zn5 Zn 0.11092 0.81824 0.19611 0.0
O6 O 0.02307 0.80186 1.00877 0.0
O7 O 0.12851 0.78078 0.069 0.0
O8 O 0.04965 0.64618 0.243 0.0
O9 O -0.00067 0.67856 0.10481 0.0
O10 O 0.87636 0.7753 0.13374 0.0
O11 O 0.87309 0.82809 0.26955 0.0
O12 O -0.00379 0.92489 0.24462 0.0
O13 O 0.15199 0.73592 0.38642 0.0
O14 O 0.09258 0.90224 0.16148 0.0
O15 O 0.19295 0.80541 0.28725 0.0
C16 C 0.95016 0.77427 0.48058 0.0
C17 C 0.08816 0.79206 0.99677 0.0
C18 C 0.8422 0.80117 0.20042 0.0
C19 C 0.02807 0.63798 0.15461 0.0
C20 C 0.04422 0.9383 0.18311 0.0
C21 C 0.20138 0.77062 0.35951 0.0
O22 O 0.9652 0.82622 0.4507 0.0
O23 O 0.49038 0.22835 0.42914 0.0
Zn24 Zn 0.56382 0.22555 0.31826 0.0
O25 O 0.54106 0.29543 0.24801 0.0
Zn26 Zn 0.48987 0.28087 0.12774 0.0
Zn27 Zn 0.48345 0.3485 0.31405 0.0
Zn28 Zn 0.62515 0.33676 0.22215 0.0
O29 O 0.54792 0.30601 1.01311 0.0
O30 O 0.65135 0.30942 0.09184 0.0
O31 O 0.55566 0.15727 0.21396 0.0
O32 O 0.47989 0.19524 0.10686 0.0
O33 O 0.39038 0.31048 0.12742 0.0
O34 O 0.38495 0.3322 0.28469 0.0
O35 O 0.49829 0.42831 0.24581 0.0
O36 O 0.665 0.2316 0.3775 0.0
O37 O 0.61031 0.42368 0.20761 0.0
O38 O 0.70214 0.31693 0.31711 0.0
C39 C 0.46679 0.27198 0.47873 0.0
C40 C 0.61486 0.30465 1.01378 0.0
C41 C 0.35537 0.32255 0.2034 0.0
C42 C 0.51807 0.15299 0.13542 0.0
C43 C 0.55189 0.4504 0.20342 0.0
C44 C 0.71187 0.27188 0.37064 0.0
O45 O 0.48285 0.32522 0.45677 0.0
O46 O 0.16472 0.23104 0.70081 0.0
Zn47 Zn 0.06325 0.22278 0.752 0.0
O48 O 0.04651 0.28905 0.83207 0.0
Zn49 Zn -0.00492 0.2702 0.9462 0.0
Zn50 Zn 0.13 0.32168 0.87856 0.0
Zn51 Zn -0.00333 0.34804 0.76298 0.0
O52 O 0.89383 0.28676 0.92358 0.0
O53 O 0.89522 0.33364 0.78154 0.0
O54 O 0.05344 0.14772 0.84006 0.0
O55 O 0.00585 0.1853 0.97431 0.0
O56 O 0.03823 0.30907 0.06292 0.0
O57 O 0.14394 0.28544 1.00735 0.0
O58 O 0.11366 0.40585 0.91337 0.0
O59 O 0.98728 0.23452 0.64337 0.0
O60 O 0.01773 0.42827 0.82691 0.0
O61 O 0.00523 0.32964 0.61943 0.0
C62 C 0.21553 0.26665 0.7197 0.0
C63 C 0.86211 0.30988 0.85077 0.0
C64 C 0.10281 0.29737 0.07762 0.0
C65 C 0.03032 0.14203 0.92748 0.0
C66 C 0.0647 0.44148 0.8911 0.0
C67 C 0.97383 0.28196 0.59561 0.0
O68 O 0.20984 0.3062 0.78525 0.0
O69 O 0.64813 0.7353 0.70595 0.0
Zn70 Zn 0.54561 0.7268 0.75484 0.0
O71 O 0.52484 0.79371 0.83249 0.0
Zn72 Zn 0.47408 0.77524 0.94856 0.0
Zn73 Zn 0.60862 0.82785 0.87706 0.0
Zn74 Zn 0.4732 0.85157 0.76297 0.0
O75 O 0.37116 0.79297 0.9307 0.0
O76 O 0.37213 0.8412 0.78929 0.0
O77 O 0.53508 0.65229 0.84428 0.0
O78 O 0.4851 0.6912 0.97506 0.0
O79 O 0.52201 0.80769 0.06821 0.0
O80 O 0.62692 0.79033 1.00376 0.0
O81 O 0.58915 0.9113 0.91227 0.0
O82 O 0.4754 0.7346 0.63881 0.0
O83 O 0.49641 0.93315 0.81866 0.0
O84 O 0.47522 0.83143 0.61989 0.0
C85 C 0.69704 0.7733 0.72097 0.0
C86 C 0.33941 0.81814 0.85973 0.0
C87 C 0.58693 0.79513 0.07746 0.0
C88 C 0.5113 0.64749 0.93157 0.0
C89 C 0.5418 0.94705 0.88439 0.0
C90 C 0.45888 0.78018 0.58812 0.0
O91 O 0.68889 0.81485 0.78241 0.0
C92 C 0.10947 0.53437 0.97142 0.0
C93 C 0.05456 0.49265 0.95786 0.0
C94 C 0.98539 0.54234 0.08457 0.0
C95 C 0.04148 0.58227 0.10122 0.0
N96 N 0.161 0.61176 0.07186 0.0
N97 N 0.94825 0.44823 1.02034 0.0
C98 C 0.10502 0.57654 0.04839 0.0
C99 C -0.00542 0.49427 1.01947 0.0
N100 N 0.16464 0.5349 0.90822 0.0
N101 N 0.9225 0.55106 0.12961 0.0
H102 H 0.95325 0.41117 0.97649 0.0
H103 H 0.90834 0.44403 0.07139 0.0
H104 H 0.91512 0.5836 0.18209 0.0
H105 H 0.87672 0.52836 0.11076 0.0
H106 H 0.20356 0.56707 0.90783 0.0
H107 H 0.16857 0.50545 0.85025 0.0
H108 H 0.21096 0.60678 0.04287 0.0
H109 H 0.15901 0.64332 0.12691 0.0
C110 C 0.59036 0.51065 0.05312 0.0
C111 C 0.54365 0.50196 0.13385 0.0
C112 C 0.46757 0.57753 0.06054 0.0
C113 C 0.52025 0.59297 0.99194 0.0
N114 N 0.64321 0.58405 0.95001 0.0
N115 N 0.44771 0.54406 0.22529 0.0
C116 C 0.5852 0.56273 0.99627 0.0
C117 C 0.48497 0.54031 0.14086 0.0
N118 N 0.63673 0.46857 1.02457 0.0
N119 N 0.40054 0.5978 0.04898 0.0
H120 H 0.46327 0.52322 0.28975 0.0
H121 H 0.40752 0.57449 0.23479 0.0
H122 H 0.38473 0.62246 0.98834 0.0
H123 H 0.3594 0.58415 0.09347 0.0
H124 H 0.66882 0.47384 0.96388 0.0
H125 H 0.63566 0.42549 0.04891 0.0
H126 H 0.69289 0.56554 0.95981 0.0
H127 H 0.64401 0.62364 0.91202 0.0
C128 C 0.50563 0.9943 0.04154 0.0
C129 C 0.53115 1.00047 0.94481 0.0
C130 C 0.53542 0.10682 0.96688 0.0
C131 C 0.52168 0.10014 0.06961 0.0
N132 N 0.49504 1.03513 0.20407 0.0
N133 N 0.57909 0.06168 0.81913 0.0
C134 C 0.50791 0.04303 0.1069 0.0
C135 C 0.54828 0.05644 0.90853 0.0
N136 N 0.47505 0.9426 0.06903 0.0
N137 N 0.53462 0.16065 0.92269 0.0
H138 H 0.58765 1.02588 0.77336 0.0
H139 H 0.60135 0.1007 0.79416 0.0
H140 H 0.53035 0.20027 0.95894 0.0
H141 H 0.53405 0.16594 0.84703 0.0
H142 H 0.44871 0.93693 0.1347 0.0
H143 H 0.46903 0.90727 1.0213 0.0
H144 H 0.49371 0.99394 0.23714 0.0
H145 H 0.48888 0.06968 0.25298 0.0
C146 C 0.09628 1.03165 0.11539 0.0
C147 C 0.03836 0.99229 0.1211 0.0
C148 C 0.97682 0.04878 0.9924 0.0
C149 C 0.03647 0.0857 0.98249 0.0
N150 N 0.15682 0.10796 1.0242 0.0
N151 N 0.93032 0.95571 0.04836 0.0
C152 C 0.09751 0.07555 0.04073 0.0
C153 C 0.98028 0.99886 0.05531 0.0
N154 N 0.14901 1.02821 0.18379 0.0
N155 N 0.91616 0.06203 0.94283 0.0
H156 H 0.93089 0.91778 0.09094 0.0
H157 H 0.89155 0.95487 0.99409 0.0
H158 H 0.91283 0.09618 0.89212 0.0
H159 H 0.86823 0.04151 0.95637 0.0
H160 H 0.18983 0.05852 0.18984 0.0
H161 H 0.14878 0.99752 0.24045 0.0
H162 H 0.20533 0.09921 0.05679 0.0
H163 H 0.15905 0.14095 0.97137 0.0
C164 C 0.37331 0.82726 0.46924 0.0
C165 C 0.40582 0.77539 0.50476 0.0
C166 C 0.3113 0.71856 0.42224 0.0
C167 C 0.27115 0.77094 0.41149 0.0
N168 N 0.26292 0.87563 0.43828 0.0
N169 N 0.41438 0.6701 0.4906 0.0
C170 C 0.30201 0.82544 0.43847 0.0
C171 C 0.37726 0.72034 0.47408 0.0
N172 N 0.41155 0.87761 0.4589 0.0
N173 N 0.28868 0.66809 0.37784 0.0
H174 H 0.46801 0.67062 0.50704 0.0
H175 H 0.39271 0.6282 0.48545 0.0
H176 H 0.24244 0.6656 0.33654 0.0
H177 H 0.31822 0.62981 0.37455 0.0
H178 H 0.39093 0.91553 0.42708 0.0
H179 H 0.46611 0.87832 0.46761 0.0
H180 H 0.28225 0.91533 0.46544 0.0
H181 H 0.20933 0.87624 0.42147 0.0
C182 C 0.27683 0.25789 0.5576 0.0
C183 C 0.28151 0.26397 0.66059 0.0
C184 C 0.41049 0.27406 0.64652 0.0
C185 C 0.40543 0.26256 0.54478 0.0
N186 N 0.33349 0.22565 0.41131 0.0
N187 N 0.3558 0.26354 0.80513 0.0
C188 C 0.33876 0.24841 0.50312 0.0
C189 C 0.34931 0.26812 0.7059 0.0
N190 N 0.21404 0.26557 0.5097 0.0
N191 N 0.47361 0.29038 0.68659 0.0
H192 H 0.31307 0.25598 0.85055 0.0
H193 H 0.40412 0.26092 0.84137 0.0
H194 H 0.51979 0.29202 0.64619 0.0
H195 H 0.47921 0.30545 0.7581 0.0
H196 H 0.20982 0.26728 0.4337 0.0
H197 H 0.16787 0.27754 0.54463 0.0
H198 H 0.28692 0.20673 0.38556 0.0
H199 H 0.37609 0.21975 0.36547 0.0
C200 C 0.89955 0.23685 0.45919 0.0
C201 C 0.91055 0.28322 0.52783 0.0
C202 C 0.78709 0.31302 0.5041 0.0
C203 C 0.77766 0.26998 0.43098 0.0
N204 N 0.82708 0.19558 0.3282 0.0
N205 N 0.86763 0.37773 0.58664 0.0
C206 C 0.83447 0.23291 0.40572 0.0
C207 C 0.85549 0.32504 0.54178 0.0
N208 N 0.95195 0.19719 0.44357 0.0
N209 N 0.72995 0.34201 0.53959 0.0
H210 H 0.91608 0.39239 0.6119 0.0
H211 H 0.83029 0.41108 0.58806 0.0
H212 H 0.6788 0.33399 0.51455 0.0
H213 H 0.73241 0.36907 0.60088 0.0
H214 H 0.94475 0.15826 0.40497 0.0
H215 H 0.00278 0.20261 0.47148 0.0
H216 H 0.86845 0.17211 0.29829 0.0
H217 H 0.77984 0.1907 0.28962 0.0
C218 C 0.89247 0.78256 0.64749 0.0
C219 C 0.88818 0.76745 0.54697 0.0
C220 C 0.75939 0.76131 0.55971 0.0
C221 C 0.7635 0.7707 0.66212 0.0
N222 N 0.83734 0.77731 0.80662 0.0
N223 N 0.81754 0.72647 0.41588 0.0
C224 C 0.8311 0.77787 0.70708 0.0
C225 C 0.82183 0.75147 0.50614 0.0
N226 N 0.9551 0.80119 0.68623 0.0
N227 N 0.69641 0.766 0.51121 0.0
H228 H 0.86073 0.72001 0.37127 0.0
H229 H 0.77151 0.70652 0.39051 0.0
H230 H 0.64976 0.77761 0.54528 0.0
H231 H 0.69214 0.76549 0.43517 0.0
H232 H 0.96017 0.8189 0.7561 0.0
H233 H 0.00135 0.80212 0.64594 0.0
H234 H 0.88555 0.77698 0.84338 0.0
H235 H 0.79464 0.77094 0.85258 0.0
C236 C 0.22274 0.86719 0.87572 0.0
C237 C 0.26245 0.81623 0.85479 0.0
C238 C 0.15756 0.75503 0.86344 0.0
C239 C 0.12259 0.80342 0.90392 0.0
N240 N 0.10681 0.90722 0.90933 0.0
N241 N 0.26546 0.71686 0.79477 0.0
C242 C 0.14993 0.86052 0.89377 0.0
C243 C 0.22873 0.76175 0.83601 0.0
N244 N 0.2554 0.92041 0.88512 0.0
N245 N 0.12398 0.70203 0.86138 0.0
H246 H 0.31773 0.72155 0.77353 0.0
H247 H 0.24341 0.67661 0.77565 0.0
H248 H 0.07135 0.69822 0.88172 0.0
H249 H 0.14739 0.66276 0.84119 0.0
H250 H 0.23043 0.95819 0.90925 0.0
H251 H 0.30879 0.9264 0.87155 0.0
H252 H 0.12186 0.95082 0.90025 0.0
H253 H 0.05354 0.90113 0.92421 0.0
C254 C 0.17468 0.25509 0.20035 0.0
C255 C 0.13565 0.30449 0.17331 0.0
C256 C 0.23593 0.36759 0.20861 0.0
C257 C 0.27893 0.31685 0.20198 0.0
N258 N 0.28949 0.21092 0.19306 0.0
N259 N 0.11895 0.40805 0.17992 0.0
C260 C 0.24853 0.25984 0.20045 0.0
C261 C 0.16261 0.36111 0.19121 0.0
N262 N 0.14074 0.20297 0.21296 0.0
N263 N 0.26536 0.42127 0.22712 0.0
H264 H 0.06508 0.40211 0.16793 0.0
H265 H 0.13544 0.45163 0.18084 0.0
H266 H 0.31942 0.42744 0.23584 0.0
H267 H 0.23626 0.4592 0.23839 0.0
H268 H 0.16579 0.16509 0.23771 0.0
H269 H 0.08604 0.20022 0.20605 0.0
H270 H 0.26892 0.16897 0.18248 0.0
H271 H 0.34426 0.21247 0.19293 0.0
C272 C 0.66893 0.34251 0.865 0.0
C273 C 0.65375 0.29368 0.92447 0.0
C274 C 0.75957 0.2461 0.86841 0.0
C275 C 0.7857 0.30195 0.84298 0.0
N276 N 0.76254 0.40377 0.8032 0.0
N277 N 0.68452 0.19669 0.98227 0.0
C278 C 0.73906 0.35016 0.83337 0.0
C279 C 0.69738 0.24346 0.92254 0.0
N280 N 0.61782 0.38268 0.84513 0.0
N281 N 0.79712 0.19686 0.84744 0.0
H282 H 0.64185 0.19537 1.02928 0.0
H283 H 0.71922 0.1617 0.99081 0.0
H284 H 0.84377 0.19892 0.80797 0.0
H285 H 0.77815 0.15459 0.86027 0.0
H286 H 0.62475 0.4177 0.79711 0.0
H287 H 0.56662 0.37719 0.87036 0.0
H288 H 0.73188 0.44152 0.80546 0.0
H289 H 0.81359 0.41119 0.77954 0.0
C290 C 0.72344 0.8483 0.21224 0.0
C291 C 0.76497 0.79661 0.20239 0.0
C292 C 0.658 0.73751 0.18498 0.0
C293 C 0.62076 0.79005 0.17303 0.0
N294 N 0.60525 0.88814 0.22639 0.0
N295 N 0.77173 0.69019 0.19683 0.0
C296 C 0.6494 0.84275 0.20731 0.0
C297 C 0.73216 0.74022 0.19598 0.0
N298 N 0.75405 0.90264 0.21604 0.0
N299 N 0.62175 0.68598 0.17635 0.0
H300 H 0.82577 0.6901 0.20985 0.0
H301 H 0.75147 0.64825 0.18618 0.0
H302 H 0.56727 0.68605 0.16544 0.0
H303 H 0.64367 0.64447 0.18402 0.0
H304 H 0.72553 0.94154 0.21458 0.0
H305 H 0.80805 0.90963 0.2121 0.0
H306 H 0.62161 0.92781 0.25687 0.0
H307 H 0.55086 0.88279 0.21954 0.0
loop_
_geom_bond_atom_site_label_1
_geom_bond_atom_site_label_2
_geom_bond_distance
_geom_bond_site_symmetry_2
_ccdc_geom_bond_type
O0 Zn1 1.953 1_655 S
O0 C16 1.225 . S
Zn1 O0 1.953 1_455 S
Zn1 O2 1.949 . S
Zn1 O8 1.919 . S
Zn1 O13 1.924 . S
O2 Zn1 1.949 . S
O2 Zn3 1.923 . S
O2 Zn4 1.950 1_455 S
O2 Zn5 1.945 . S
Zn3 O2 1.923 . S
Zn3 O6 1.933 1_554 S
Zn3 O9 1.941 . S
Zn3 O10 1.965 1_454 S
Zn4 O2 1.950 1_655 S
Zn4 O11 1.938 . S
Zn4 O12 1.906 . S
Zn4 O22 1.953 . S
Zn5 O2 1.945 . S
Zn5 O7 1.932 . S
Zn5 O14 1.977 . S
Zn5 O15 1.910 . S
O6 Zn3 1.933 1_556 S
O6 C17 1.226 1_556 S
O7 Zn5 1.932 . S
O7 C17 1.307 . S
O8 Zn1 1.919 . S
O8 C19 1.253 . S
O9 Zn3 1.941 . S
O9 C19 1.283 . S
O10 Zn3 1.965 1_656 S
O10 C18 1.303 1_556 S
O11 Zn4 1.938 . S
O11 C18 1.247 . S
O12 Zn4 1.906 . S
O12 C20 1.304 1_655 S
O13 Zn1 1.924 . S
O13 C21 1.311 . S
O14 Zn5 1.977 . S
O14 C20 1.272 . S
O15 Zn5 1.910 . S
O15 C21 1.231 . S
C16 O0 1.225 . S
C16 O22 1.298 . S
C17 O6 1.226 1_554 S
C17 O7 1.307 . S
C18 O10 1.303 1_554 S
C18 O11 1.247 . S
C19 O8 1.253 . S
C19 O9 1.283 . S
C20 O12 1.304 1_455 S
C20 O14 1.272 . S
C21 O13 1.311 . S
C21 O15 1.231 . S
O22 Zn4 1.953 . S
O22 C16 1.298 . S
O23 Zn24 1.953 . S
O23 C39 1.225 . S
Zn24 O23 1.953 . S
Zn24 O25 1.949 . S
Zn24 O31 1.919 . S
Zn24 O36 1.924 . S
O25 Zn24 1.949 . S
O25 Zn26 1.923 . S
O25 Zn27 1.950 . S
O25 Zn28 1.945 . S
Zn26 O25 1.923 . S
Zn26 O29 1.933 1_554 S
Zn26 O32 1.941 . S
Zn26 O33 1.965 1_554 S
Zn27 O25 1.950 . S
Zn27 O34 1.938 . S
Zn27 O35 1.906 . S
Zn27 O45 1.953 . S
Zn28 O25 1.945 . S
Zn28 O30 1.932 . S
Zn28 O37 1.977 . S
Zn28 O38 1.910 . S
O29 Zn26 1.933 1_556 S
O29 C40 1.226 1_556 S
O30 Zn28 1.932 . S
O30 C40 1.307 . S
O31 Zn24 1.919 . S
O31 C42 1.253 . S
O32 Zn26 1.941 . S
O32 C42 1.283 . S
O33 Zn26 1.965 1_556 S
O33 C41 1.303 1_556 S
O34 Zn27 1.938 . S
O34 C41 1.247 . S
O35 Zn27 1.906 . S
O35 C43 1.304 . S
O36 Zn24 1.924 . S
O36 C44 1.311 . S
O37 Zn28 1.977 . S
O37 C43 1.272 . S
O38 Zn28 1.910 . S
O38 C44 1.231 . S
C39 O23 1.225 . S
C39 O45 1.298 . S
C40 O29 1.226 1_554 S
C40 O30 1.307 . S
C41 O33 1.303 1_554 S
C41 O34 1.247 . S
C42 O31 1.253 . S
C42 O32 1.283 . S
C43 O35 1.304 . S
C43 O37 1.272 . S
C44 O36 1.311 . S
C44 O38 1.231 . S
O45 Zn27 1.953 . S
O45 C39 1.298 . S
O46 Zn47 1.953 . S
O46 C62 1.225 . S
Zn47 O46 1.953 . S
Zn47 O48 1.949 . S
Zn47 O54 1.919 . S
Zn47 O59 1.924 1_455 S
O48 Zn47 1.949 . S
O48 Zn49 1.923 . S
O48 Zn50 1.950 . S
O48 Zn51 1.945 1_455 S
Zn49 O48 1.923 . S
Zn49 O52 1.933 1_456 S
Zn49 O55 1.941 . S
Zn49 O56 1.965 1_556 S
Zn50 O48 1.950 . S
Zn50 O57 1.938 . S
Zn50 O58 1.906 . S
Zn50 O68 1.953 . S
Zn51 O48 1.945 1_655 S
Zn51 O53 1.932 . S
Zn51 O60 1.977 . S
Zn51 O61 1.910 . S
O52 Zn49 1.933 1_654 S
O52 C63 1.226 1_554 S
O53 Zn51 1.932 . S
O53 C63 1.307 . S
O54 Zn47 1.919 . S
O54 C65 1.253 . S
O55 Zn49 1.941 . S
O55 C65 1.283 . S
O56 Zn49 1.965 1_554 S
O56 C64 1.303 1_554 S
O57 Zn50 1.938 . S
O57 C64 1.247 . S
O58 Zn50 1.906 . S
O58 C66 1.304 . S
O59 Zn47 1.924 1_655 S
O59 C67 1.311 . S
O60 Zn51 1.977 . S
O60 C66 1.272 1_655 S
O61 Zn51 1.910 . S
O61 C67 1.231 . S
C62 O46 1.225 . S
C62 O68 1.298 . S
C63 O52 1.226 1_556 S
C63 O53 1.307 . S
C64 O56 1.303 1_556 S
C64 O57 1.247 . S
C65 O54 1.253 . S
C65 O55 1.283 . S
C66 O58 1.304 . S
C66 O60 1.272 1_455 S
C67 O59 1.311 . S
C67 O61 1.231 . S
O68 Zn50 1.953 . S
O68 C62 1.298 . S
O69 Zn70 1.953 . S
O69 C85 1.225 . S
Zn70 O69 1.953 . S
Zn70 O71 1.949 . S
Zn70 O77 1.919 . S
Zn70 O82 1.924 . S
O71 Zn70 1.949 . S
O71 Zn72 1.923 . S
O71 Zn73 1.950 . S
O71 Zn74 1.945 . S
Zn72 O71 1.923 . S
Zn72 O75 1.933 1_556 S
Zn72 O78 1.941 . S
Zn72 O79 1.965 1_556 S
Zn73 O71 1.950 . S
Zn73 O80 1.938 . S
Zn73 O81 1.906 . S
Zn73 O91 1.953 . S
Zn74 O71 1.945 . S
Zn74 O76 1.932 . S
Zn74 O83 1.977 . S
Zn74 O84 1.910 . S
O75 Zn72 1.933 1_554 S
O75 C86 1.226 1_554 S
O76 Zn74 1.932 . S
O76 C86 1.307 . S
O77 Zn70 1.919 . S
O77 C88 1.253 . S
O78 Zn72 1.941 . S
O78 C88 1.283 . S
O79 Zn72 1.965 1_554 S
O79 C87 1.303 1_554 S
O80 Zn73 1.938 . S
O80 C87 1.247 . S
O81 Zn73 1.906 . S
O81 C89 1.304 . S
O82 Zn70 1.924 . S
O82 C90 1.311 . S
O83 Zn74 1.977 . S
O83 C89 1.272 . S
O84 Zn74 1.910 . S
O84 C90 1.231 . S
C85 O69 1.225 . S
C85 O91 1.298 . S
C86 O75 1.226 1_556 S
C86 O76 1.307 . S
C87 O79 1.303 1_556 S
C87 O80 1.247 . S
C88 O77 1.253 . S
C88 O78 1.283 . S
C89 O81 1.304 . S
C89 O83 1.272 . S
C90 O82 1.311 . S
C90 O84 1.231 . S
O91 Zn73 1.953 . S
O91 C85 1.298 . S
C92 C93 1.363 . S
C92 C98 1.379 . S
C92 N100 1.356 . S
C93 C92 1.363 . S
C93 C99 1.363 1_456 S
C94 C95 1.363 . S
C94 C99 1.379 1_455 S
C94 N101 1.356 1_455 S
C95 C94 1.363 . S
C95 C98 1.363 1_554 S
N96 C98 1.356 . S
N96 H108 0.984 . S
N96 H109 0.985 1_556 S
N97 C99 1.356 1_556 S
N97 H102 0.984 . S
N97 H103 0.985 1_556 S
C98 C92 1.379 . S
C98 C95 1.363 1_556 S
C98 N96 1.356 . S
C99 C93 1.363 1_654 S
C99 C94 1.379 1_655 S
C99 N97 1.356 1_554 S
N100 C92 1.356 . S
N100 H106 0.984 . S
N100 H107 0.984 . S
N101 C94 1.356 1_655 S
N101 H104 0.984 . S
N101 H105 0.985 . S
H102 N97 0.984 . S
H103 N97 0.985 1_554 S
H104 N101 0.984 . S
H105 N101 0.985 . S
H106 N100 0.984 . S
H107 N100 0.984 . S
H108 N96 0.984 . S
H109 N96 0.985 1_554 S
C110 C111 1.363 1_556 S
C110 C116 1.379 . S
C110 N118 1.356 . S
C111 C110 1.363 1_554 S
C111 C117 1.363 . S
C112 C113 1.363 1_554 S
C112 C117 1.379 . S
C112 N119 1.356 . S
C113 C112 1.363 1_556 S
C113 C116 1.363 . S
N114 C116 1.356 . S
N114 H126 0.984 . S
N114 H127 0.985 . S
N115 C117 1.356 . S
N115 H120 0.984 . S
N115 H121 0.985 . S
C116 C110 1.379 . S
C116 C113 1.363 . S
C116 N114 1.356 . S
C117 C111 1.363 . S
C117 C112 1.379 . S
C117 N115 1.356 . S
N118 C110 1.356 . S
N118 H124 0.984 . S
N118 H125 0.984 1_556 S
N119 C112 1.356 . S
N119 H122 0.984 1_554 S
N119 H123 0.985 . S
H120 N115 0.984 . S
H121 N115 0.985 . S
H122 N119 0.984 1_556 S
H123 N119 0.985 . S
H124 N118 0.984 . S
H125 N118 0.984 1_554 S
H126 N114 0.984 . S
H127 N114 0.985 . S
C128 C129 1.363 1_554 S
C128 C134 1.379 . S
C128 N136 1.356 1_554 S
C129 C128 1.363 1_556 S
C129 C135 1.363 1_565 S
C130 C131 1.363 1_556 S
C130 C135 1.379 . S
C130 N137 1.356 . S
C131 C130 1.363 1_554 S
C131 C134 1.363 1_545 S
N132 C134 1.356 1_545 S
N132 H144 0.984 1_545 S
N132 H145 0.985 . S
N133 C135 1.355 1_565 S
N133 H138 0.989 . S
N133 H139 0.981 1_565 S
C134 C128 1.379 . S
C134 C131 1.363 1_565 S
C134 N132 1.356 1_565 S
C135 C129 1.363 1_545 S
C135 C130 1.379 . S
C135 N133 1.355 1_545 S
N136 C128 1.356 1_556 S
N136 H142 0.984 1_556 S
N136 H143 0.984 . S
N137 C130 1.356 . S
N137 H140 0.984 1_556 S
N137 H141 0.985 . S
H138 N133 0.989 . S
H139 N133 0.981 1_545 S
H140 N137 0.984 1_554 S
H141 N137 0.985 . S
H142 N136 0.984 1_554 S
H143 N136 0.984 . S
H144 N132 0.984 1_565 S
H145 N132 0.985 . S
C146 C147 1.363 1_545 S
C146 C152 1.379 . S
C146 N154 1.356 . S
C147 C146 1.363 1_565 S
C147 C153 1.363 1_554 S
C148 C149 1.363 1_565 S
C148 C153 1.379 . S
C148 N155 1.356 . S
C149 C148 1.363 1_545 S
C149 C152 1.363 1_556 S
N150 C152 1.356 . S
N150 H162 0.984 . S
N150 H163 0.985 1_554 S
N151 C153 1.356 . S
N151 H156 0.984 1_556 S
N151 H157 0.985 . S
C152 C146 1.379 . S
C152 C149 1.363 1_554 S
C152 N150 1.356 . S
C153 C147 1.363 1_556 S
C153 C148 1.379 . S
C153 N151 1.356 . S
N154 C146 1.356 . S
N154 H160 0.984 . S
N154 H161 0.984 1_545 S
N155 C148 1.356 . S
N155 H158 0.984 1_565 S
N155 H159 0.985 . S
H156 N151 0.984 1_554 S
H157 N151 0.985 . S
H158 N155 0.984 1_545 S
H159 N155 0.985 . S
H160 N154 0.984 . S
H161 N154 0.984 1_565 S
H162 N150 0.984 . S
H163 N150 0.985 1_556 S
C164 C165 1.363 . S
C164 C170 1.379 . S
C164 N172 1.356 . S
C165 C164 1.363 . S
C165 C171 1.363 . S
C166 C167 1.363 . S
C166 C171 1.379 . S
C166 N173 1.356 . S
C167 C166 1.363 . S
C167 C170 1.363 . S
N168 C170 1.356 . S
N168 H180 0.984 . S
N168 H181 0.985 . S
N169 C171 1.356 . S
N169 H174 0.984 . S
N169 H175 0.985 . S
C170 C164 1.379 . S
C170 C167 1.363 . S
C170 N168 1.356 . S
C171 C165 1.363 . S
C171 C166 1.379 . S
C171 N169 1.356 . S
N172 C164 1.356 . S
N172 H178 0.984 . S
N172 H179 0.984 . S
N173 C166 1.356 . S
N173 H176 0.984 . S
N173 H177 0.985 . S
H174 N169 0.984 . S
H175 N169 0.985 . S
H176 N173 0.984 . S
H177 N173 0.985 . S
H178 N172 0.984 . S
H179 N172 0.984 . S
H180 N168 0.984 . S
H181 N168 0.985 . S
C182 C183 1.363 . S
C182 C188 1.379 . S
C182 N190 1.356 . S
C183 C182 1.363 . S
C183 C189 1.363 . S
C184 C185 1.363 . S
C184 C189 1.379 . S
C184 N191 1.356 . S
C185 C184 1.363 . S
C185 C188 1.363 . S
N186 C188 1.356 . S
N186 H198 0.984 . S
N186 H199 0.985 . S
N187 C189 1.356 . S
N187 H192 0.984 . S
N187 H193 0.985 . S
C188 C182 1.379 . S
C188 C185 1.363 . S
C188 N186 1.356 . S
C189 C183 1.363 . S
C189 C184 1.379 . S
C189 N187 1.356 . S
N190 C182 1.356 . S
N190 H196 0.984 . S
N190 H197 0.984 . S
N191 C184 1.356 . S
N191 H194 0.984 . S
N191 H195 0.985 . S
H192 N187 0.984 . S
H193 N187 0.985 . S
H194 N191 0.984 . S
H195 N191 0.985 . S
H196 N190 0.984 . S
H197 N190 0.984 . S
H198 N186 0.984 . S
H199 N186 0.985 . S
C200 C201 1.363 . S
C200 C206 1.379 . S
C200 N208 1.356 . S
C201 C200 1.363 . S
C201 C207 1.363 . S
C202 C203 1.363 . S
C202 C207 1.379 . S
C202 N209 1.356 . S
C203 C202 1.363 . S
C203 C206 1.363 . S
N204 C206 1.356 . S
N204 H216 0.984 . S
N204 H217 0.985 . S
N205 C207 1.356 . S
N205 H210 0.984 . S
N205 H211 0.985 . S
C206 C200 1.379 . S
C206 C203 1.363 . S
C206 N204 1.356 . S
C207 C201 1.363 . S
C207 C202 1.379 . S
C207 N205 1.356 . S
N208 C200 1.356 . S
N208 H214 0.984 . S
N208 H215 0.984 . S
N209 C202 1.356 . S
N209 H212 0.984 . S
N209 H213 0.985 . S
H210 N205 0.984 . S
H211 N205 0.985 . S
H212 N209 0.984 . S
H213 N209 0.985 . S
H214 N208 0.984 . S
H215 N208 0.984 . S
H216 N204 0.984 . S
H217 N204 0.985 . S
C218 C219 1.363 . S
C218 C224 1.379 . S
C218 N226 1.356 . S
C219 C218 1.363 . S
C219 C225 1.363 . S
C220 C221 1.363 . S
C220 C225 1.379 . S
C220 N227 1.356 . S
C221 C220 1.363 . S
C221 C224 1.363 . S
N222 C224 1.356 . S
N222 H234 0.984 . S
N222 H235 0.985 . S
N223 C225 1.356 . S
N223 H228 0.984 . S
N223 H229 0.985 . S
C224 C218 1.379 . S
C224 C221 1.363 . S
C224 N222 1.356 . S
C225 C219 1.363 . S
C225 C220 1.379 . S
C225 N223 1.356 . S
N226 C218 1.356 . S
N226 H232 0.984 . S
N226 H233 0.984 . S
N227 C220 1.356 . S
N227 H230 0.984 . S
N227 H231 0.985 . S
H228 N223 0.984 . S
H229 N223 0.985 . S
H230 N227 0.984 . S
H231 N227 0.985 . S
H232 N226 0.984 . S
H233 N226 0.984 . S
H234 N222 0.984 . S
H235 N222 0.985 . S
C236 C237 1.363 . S
C236 C242 1.379 . S
C236 N244 1.356 . S
C237 C236 1.363 . S
C237 C243 1.363 1_554 S
C238 C239 1.363 . S
C238 C243 1.379 . S
C238 N245 1.356 . S
C239 C238 1.363 . S
C239 C242 1.363 1_556 S
N240 C242 1.356 . S
N240 H252 0.984 . S
N240 H253 0.985 . S
N241 C243 1.356 . S
N241 H246 0.984 . S
N241 H247 0.985 . S
C242 C236 1.379 . S
C242 C239 1.363 1_554 S
C242 N240 1.356 . S
C243 C237 1.363 1_556 S
C243 C238 1.379 . S
C243 N241 1.356 . S
N244 C236 1.356 . S
N244 H250 0.984 . S
N244 H251 0.984 . S
N245 C238 1.356 . S
N245 H248 0.984 . S
N245 H249 0.985 . S
H246 N241 0.984 . S
H247 N241 0.985 . S
H248 N245 0.984 . S
H249 N245 0.985 . S
H250 N244 0.984 . S
H251 N244 0.984 . S
H252 N240 0.984 . S
H253 N240 0.985 . S
C254 C255 1.363 1_554 S
C254 C260 1.379 . S
C254 N262 1.356 . S
C255 C254 1.363 1_556 S
C255 C261 1.363 . S
C256 C257 1.363 1_556 S
C256 C261 1.379 . S
C256 N263 1.356 . S
C257 C256 1.363 1_554 S
C257 C260 1.363 . S
N258 C260 1.356 . S
N258 H270 0.984 . S
N258 H271 0.985 . S
N259 C261 1.356 . S
N259 H264 0.984 . S
N259 H265 0.985 . S
C260 C254 1.379 . S
C260 C257 1.363 . S
C260 N258 1.356 . S
C261 C255 1.363 . S
C261 C256 1.379 . S
C261 N259 1.356 . S
N262 C254 1.356 . S
N262 H268 0.984 . S
N262 H269 0.984 . S
N263 C256 1.356 . S
N263 H266 0.984 . S
N263 H267 0.985 . S
H264 N259 0.984 . S
H265 N259 0.985 . S
H266 N263 0.984 . S
H267 N263 0.985 . S
H268 N262 0.984 . S
H269 N262 0.984 . S
H270 N258 0.984 . S
H271 N258 0.985 . S
C272 C273 1.363 . S
C272 C278 1.379 . S
C272 N280 1.356 . S
C273 C272 1.363 . S
C273 C279 1.363 1_556 S
C274 C275 1.363 . S
C274 C279 1.379 . S
C274 N281 1.356 . S
C275 C274 1.363 . S
C275 C278 1.363 1_554 S
N276 C278 1.356 . S
N276 H288 0.984 . S
N276 H289 0.985 . S
N277 C279 1.356 . S
N277 H282 0.984 . S
N277 H283 0.985 . S
C278 C272 1.379 . S
C278 C275 1.363 1_556 S
C278 N276 1.356 . S
C279 C273 1.363 1_554 S
C279 C274 1.379 . S
C279 N277 1.356 . S
N280 C272 1.356 . S
N280 H286 0.984 . S
N280 H287 0.984 . S
N281 C274 1.356 . S
N281 H284 0.984 . S
N281 H285 0.985 . S
H282 N277 0.984 . S
H283 N277 0.985 . S
H284 N281 0.984 . S
H285 N281 0.985 . S
H286 N280 0.984 . S
H287 N280 0.984 . S
H288 N276 0.984 . S
H289 N276 0.985 . S
C290 C291 1.363 . S
C290 C296 1.379 . S
C290 N298 1.356 . S
C291 C290 1.363 . S
C291 C297 1.363 1_554 S
C292 C293 1.363 . S
C292 C297 1.379 . S
C292 N299 1.356 . S
C293 C292 1.363 . S
C293 C296 1.363 1_556 S
N294 C296 1.356 . S
N294 H306 0.984 . S
N294 H307 0.985 . S
N295 C297 1.356 . S
N295 H300 0.984 . S
N295 H301 0.985 . S
C296 C290 1.379 . S
C296 C293 1.363 1_554 S
C296 N294 1.356 . S
C297 C291 1.363 1_556 S
C297 C292 1.379 . S
C297 N295 1.356 . S
N298 C290 1.356 . S
N298 H304 0.984 . S
N298 H305 0.984 . S
N299 C292 1.356 . S
N299 H302 0.984 . S
N299 H303 0.985 . S
H300 N295 0.984 . S
H301 N295 0.985 . S
H302 N299 0.984 . S
H303 N299 0.985 . S
H304 N298 0.984 . S
H305 N298 0.984 . S
H306 N294 0.984 . S
H307 N294 0.985 . S
C93 C66 2.152 . S
C95 C19 2.067 . S
C111 C43 2.152 . S
C113 C88 2.067 . S
C129 C89 2.152 . S
C131 C42 2.067 . S
C147 C20 2.152 . S
C149 C65 2.067 . S
C165 C90 1.530 . S
C167 C21 1.530 . S
C183 C62 1.935 . S
C185 C39 1.935 . S
C201 C67 1.530 . S
C203 C44 1.530 . S
C219 C16 1.935 . S
C221 C85 1.935 . S
C237 C86 1.013 1_554 S
C239 C17 1.013 1_556 S
C255 C64 0.435 . S
C257 C41 0.435 . S
C273 C40 1.013 1_556 S
C275 C63 1.013 1_554 S
C291 C18 0.435 . S
C293 C87 0.435 . S
