# Generated by pormake.
# Topology unr, (4)-cn, num edge types: 1
# Building blocks:
#     Node 0, Type 0, BuildingBlock: GALJAG_clean_sbu_0, # of connection points: 4
#     Node 1, Type 0, BuildingBlock: GALJAG_clean_sbu_0, # of connection points: 4
#     Node 2, Type 0, BuildingBlock: GALJAG_clean_sbu_0, # of connection points: 4
#     Node 3, Type 0, BuildingBlock: GALJAG_clean_sbu_0, # of connection points: 4
#     Node 4, Type 0, BuildingBlock: GALJAG_clean_sbu_0, # of connection points: 4
#     Node 5, Type 0, BuildingBlock: GALJAG_clean_sbu_0, # of connection points: 4
#     Node 6, Type 0, BuildingBlock: GALJAG_clean_sbu_0, # of connection points: 4
#     Node 7, Type 0, BuildingBlock: GALJAG_clean_sbu_0, # of connection points: 4
#     Node 8, Type 0, BuildingBlock: GALJAG_clean_sbu_0, # of connection points: 4
#     Node 9, Type 0, BuildingBlock: GALJAG_clean_sbu_0, # of connection points: 4
#     Node 10, Type 0, BuildingBlock: GALJAG_clean_sbu_0, # of connection points: 4
#     Node 11, Type 0, BuildingBlock: GALJAG_clean_sbu_0, # of connection points: 4
#     Node 12, Type 0, BuildingBlock: GALJAG_clean_sbu_0, # of connection points: 4
#     Node 13, Type 0, BuildingBlock: GALJAG_clean_sbu_0, # of connection points: 4
#     Node 14, Type 0, BuildingBlock: GALJAG_clean_sbu_0, # of connection points: 4
#     Node 15, Type 0, BuildingBlock: GALJAG_clean_sbu_0, # of connection points: 4
#     Node 16, Type 0, BuildingBlock: GALJAG_clean_sbu_0, # of connection points: 4
#     Node 17, Type 0, BuildingBlock: GALJAG_clean_sbu_0, # of connection points: 4
#     Node 18, Type 0, BuildingBlock: GALJAG_clean_sbu_0, # of connection points: 4
#     Node 19, Type 0, BuildingBlock: GALJAG_clean_sbu_0, # of connection points: 4
#     Node 20, Type 0, BuildingBlock: GALJAG_clean_sbu_0, # of connection points: 4
#     Node 21, Type 0, BuildingBlock: GALJAG_clean_sbu_0, # of connection points: 4
#     Node 22, Type 0, BuildingBlock: GALJAG_clean_sbu_0, # of connection points: 4
#     Node 23, Type 0, BuildingBlock: GALJAG_clean_sbu_0, # of connection points: 4
#     Node 24, Type 0, BuildingBlock: GALJAG_clean_sbu_0, # of connection points: 4
#     Node 25, Type 0, BuildingBlock: GALJAG_clean_sbu_0, # of connection points: 4
#     Node 26, Type 0, BuildingBlock: GALJAG_clean_sbu_0, # of connection points: 4
#     Node 27, Type 0, BuildingBlock: GALJAG_clean_sbu_0, # of connection points: 4
#     Node 28, Type 0, BuildingBlock: GALJAG_clean_sbu_0, # of connection points: 4
#     Node 29, Type 0, BuildingBlock: GALJAG_clean_sbu_0, # of connection points: 4
#     Node 30, Type 0, BuildingBlock: GALJAG_clean_sbu_0, # of connection points: 4
#     Node 31, Type 0, BuildingBlock: GALJAG_clean_sbu_0, # of connection points: 4
#     Node 32, Type 0, BuildingBlock: GALJAG_clean_sbu_0, # of connection points: 4
#     Node 33, Type 0, BuildingBlock: GALJAG_clean_sbu_0, # of connection points: 4
#     Node 34, Type 0, BuildingBlock: GALJAG_clean_sbu_0, # of connection points: 4
#     Node 35, Type 0, BuildingBlock: GALJAG_clean_sbu_0, # of connection points: 4
#     Edge 36, Type (0, 0), BuildingBlock: UVAHIK_clean_linker_0, # of connection points: 2
#     Edge 37, Type (0, 0), BuildingBlock: UVAHIK_clean_linker_0, # of connection points: 2
#     Edge 38, Type (0, 0), BuildingBlock: UVAHIK_clean_linker_0, # of connection points: 2
#     Edge 39, Type (0, 0), BuildingBlock: UVAHIK_clean_linker_0, # of connection points: 2
#     Edge 40, Type (0, 0), BuildingBlock: UVAHIK_clean_linker_0, # of connection points: 2
#     Edge 41, Type (0, 0), BuildingBlock: UVAHIK_clean_linker_0, # of connection points: 2
#     Edge 42, Type (0, 0), BuildingBlock: UVAHIK_clean_linker_0, # of connection points: 2
#     Edge 43, Type (0, 0), BuildingBlock: UVAHIK_clean_linker_0, # of connection points: 2
#     Edge 44, Type (0, 0), BuildingBlock: UVAHIK_clean_linker_0, # of connection points: 2
#     Edge 45, Type (0, 0), BuildingBlock: UVAHIK_clean_linker_0, # of connection points: 2
#     Edge 46, Type (0, 0), BuildingBlock: UVAHIK_clean_linker_0, # of connection points: 2
#     Edge 47, Type (0, 0), BuildingBlock: UVAHIK_clean_linker_0, # of connection points: 2
#     Edge 48, Type (0, 0), BuildingBlock: UVAHIK_clean_linker_0, # of connection points: 2
#     Edge 49, Type (0, 0), BuildingBlock: UVAHIK_clean_linker_0, # of connection points: 2
#     Edge 50, Type (0, 0), BuildingBlock: UVAHIK_clean_linker_0, # of connection points: 2
#     Edge 51, Type (0, 0), BuildingBlock: UVAHIK_clean_linker_0, # of connection points: 2
#     Edge 52, Type (0, 0), BuildingBlock: UVAHIK_clean_linker_0, # of connection points: 2
#     Edge 53, Type (0, 0), BuildingBlock: UVAHIK_clean_linker_0, # of connection points: 2
#     Edge 54, Type (0, 0), BuildingBlock: UVAHIK_clean_linker_0, # of connection points: 2
#     Edge 55, Type (0, 0), BuildingBlock: UVAHIK_clean_linker_0, # of connection points: 2
#     Edge 56, Type (0, 0), BuildingBlock: UVAHIK_clean_linker_0, # of connection points: 2
#     Edge 57, Type (0, 0), BuildingBlock: UVAHIK_clean_linker_0, # of connection points: 2
#     Edge 58, Type (0, 0), BuildingBlock: UVAHIK_clean_linker_0, # of connection points: 2
#     Edge 59, Type (0, 0), BuildingBlock: UVAHIK_clean_linker_0, # of connection points: 2
#     Edge 60, Type (0, 0), BuildingBlock: UVAHIK_clean_linker_0, # of connection points: 2
#     Edge 61, Type (0, 0), BuildingBlock: UVAHIK_clean_linker_0, # of connection points: 2
#     Edge 62, Type (0, 0), BuildingBlock: UVAHIK_clean_linker_0, # of connection points: 2
#     Edge 63, Type (0, 0), BuildingBlock: UVAHIK_clean_linker_0, # of connection points: 2
#     Edge 64, Type (0, 0), BuildingBlock: UVAHIK_clean_linker_0, # of connection points: 2
#     Edge 65, Type (0, 0), BuildingBlock: UVAHIK_clean_linker_0, # of connection points: 2
#     Edge 66, Type (0, 0), BuildingBlock: UVAHIK_clean_linker_0, # of connection points: 2
#     Edge 67, Type (0, 0), BuildingBlock: UVAHIK_clean_linker_0, # of connection points: 2
#     Edge 68, Type (0, 0), BuildingBlock: UVAHIK_clean_linker_0, # of connection points: 2
#     Edge 69, Type (0, 0), BuildingBlock: UVAHIK_clean_linker_0, # of connection points: 2
#     Edge 70, Type (0, 0), BuildingBlock: UVAHIK_clean_linker_0, # of connection points: 2
#     Edge 71, Type (0, 0), BuildingBlock: UVAHIK_clean_linker_0, # of connection points: 2
#     Edge 72, Type (0, 0), BuildingBlock: UVAHIK_clean_linker_0, # of connection points: 2
#     Edge 73, Type (0, 0), BuildingBlock: UVAHIK_clean_linker_0, # of connection points: 2
#     Edge 74, Type (0, 0), BuildingBlock: UVAHIK_clean_linker_0, # of connection points: 2
#     Edge 75, Type (0, 0), BuildingBlock: UVAHIK_clean_linker_0, # of connection points: 2
#     Edge 76, Type (0, 0), BuildingBlock: UVAHIK_clean_linker_0, # of connection points: 2
#     Edge 77, Type (0, 0), BuildingBlock: UVAHIK_clean_linker_0, # of connection points: 2
#     Edge 78, Type (0, 0), BuildingBlock: UVAHIK_clean_linker_0, # of connection points: 2
#     Edge 79, Type (0, 0), BuildingBlock: UVAHIK_clean_linker_0, # of connection points: 2
#     Edge 80, Type (0, 0), BuildingBlock: UVAHIK_clean_linker_0, # of connection points: 2
#     Edge 81, Type (0, 0), BuildingBlock: UVAHIK_clean_linker_0, # of connection points: 2
#     Edge 82, Type (0, 0), BuildingBlock: UVAHIK_clean_linker_0, # of connection points: 2
#     Edge 83, Type (0, 0), BuildingBlock: UVAHIK_clean_linker_0, # of connection points: 2
#     Edge 84, Type (0, 0), BuildingBlock: UVAHIK_clean_linker_0, # of connection points: 2
#     Edge 85, Type (0, 0), BuildingBlock: UVAHIK_clean_linker_0, # of connection points: 2
#     Edge 86, Type (0, 0), BuildingBlock: UVAHIK_clean_linker_0, # of connection points: 2
#     Edge 87, Type (0, 0), BuildingBlock: UVAHIK_clean_linker_0, # of connection points: 2
#     Edge 88, Type (0, 0), BuildingBlock: UVAHIK_clean_linker_0, # of connection points: 2
#     Edge 89, Type (0, 0), BuildingBlock: UVAHIK_clean_linker_0, # of connection points: 2
#     Edge 90, Type (0, 0), BuildingBlock: UVAHIK_clean_linker_0, # of connection points: 2
#     Edge 91, Type (0, 0), BuildingBlock: UVAHIK_clean_linker_0, # of connection points: 2
#     Edge 92, Type (0, 0), BuildingBlock: UVAHIK_clean_linker_0, # of connection points: 2
#     Edge 93, Type (0, 0), BuildingBlock: UVAHIK_clean_linker_0, # of connection points: 2
#     Edge 94, Type (0, 0), BuildingBlock: UVAHIK_clean_linker_0, # of connection points: 2
#     Edge 95, Type (0, 0), BuildingBlock: UVAHIK_clean_linker_0, # of connection points: 2
#     Edge 96, Type (0, 0), BuildingBlock: UVAHIK_clean_linker_0, # of connection points: 2
#     Edge 97, Type (0, 0), BuildingBlock: UVAHIK_clean_linker_0, # of connection points: 2
#     Edge 98, Type (0, 0), BuildingBlock: UVAHIK_clean_linker_0, # of connection points: 2
#     Edge 99, Type (0, 0), BuildingBlock: UVAHIK_clean_linker_0, # of connection points: 2
#     Edge 100, Type (0, 0), BuildingBlock: UVAHIK_clean_linker_0, # of connection points: 2
#     Edge 101, Type (0, 0), BuildingBlock: UVAHIK_clean_linker_0, # of connection points: 2
#     Edge 102, Type (0, 0), BuildingBlock: UVAHIK_clean_linker_0, # of connection points: 2
#     Edge 103, Type (0, 0), BuildingBlock: UVAHIK_clean_linker_0, # of connection points: 2
#     Edge 104, Type (0, 0), BuildingBlock: UVAHIK_clean_linker_0, # of connection points: 2
#     Edge 105, Type (0, 0), BuildingBlock: UVAHIK_clean_linker_0, # of connection points: 2
#     Edge 106, Type (0, 0), BuildingBlock: UVAHIK_clean_linker_0, # of connection points: 2
#     Edge 107, Type (0, 0), BuildingBlock: UVAHIK_clean_linker_0, # of connection points: 2
# Relax obj value: 0.388
# Max RMSD: 0.141
# Mean RMSD: 0.140
data_MOF--net-unr--node1-GALJAG_clean_sbu_0--edge1-UVAHIK_clean_linker_0
_symmetry_space_group_name_H-M    P1
_symmetry_Int_Tables_number       1
_symmetry_cell_setting            triclinic
loop_
_symmetry_equiv_pos_as_xyz
'x, y, z'
_cell_length_a     63.794166
_cell_length_b     63.757598
_cell_length_c     100.11075
_cell_angle_alpha  89.980872
_cell_angle_beta   90.003604
_cell_angle_gamma 120.04469
loop_
_atom_site_label
_atom_site_type_symbol
_atom_site_fract_x
_atom_site_fract_y
_atom_site_fract_z
_atom_type_partial_charge
In0 In 0.15941 0.09719 0.17711 0.0
O1 O 0.19876 0.11886 0.16999 0.0
O2 O 0.19208 0.1099 0.19057 0.0
C3 C 0.13563 0.11092 0.16019 0.0
C4 C 0.13986 0.10065 0.20025 0.0
C5 C 0.15071 0.05374 0.16821 0.0
O6 O 0.12888 0.08912 0.1628 0.0
O7 O 0.15514 0.12615 0.16578 0.0
O8 O 0.14103 0.05616 0.17867 0.0
O9 O 0.16487 0.07328 0.16229 0.0
C10 C 0.20749 0.11968 0.18142 0.0
O11 O 0.14016 0.08165 0.19697 0.0
O12 O 0.14929 0.11766 0.19185 0.0
In13 In 0.86014 0.0363 0.177 0.0
O14 O 0.83338 0.04931 0.18133 0.0
O15 O 0.85965 0.06781 0.16639 0.0
C16 C 0.83645 0.99368 0.16371 0.0
C17 C 0.8604 0.02797 0.20347 0.0
C18 C 0.90708 0.05942 0.16986 0.0
O19 O 0.84565 0.01377 0.15773 0.0
O20 O 0.83847 0.99526 0.17621 0.0
O21 O 0.89826 0.06902 0.17733 0.0
O22 O 0.89241 0.03786 0.16642 0.0
C23 C 0.84271 0.06681 0.17329 0.0
O24 O 0.87926 0.03602 0.1964 0.0
O25 O 0.84172 0.02426 0.1972 0.0
In26 In 0.94452 0.81757 0.14859 0.0
O27 O 0.94435 0.80834 0.17053 0.0
O28 O 0.96559 0.84534 0.16512 0.0
C29 C 0.91234 0.83277 0.14548 0.0
C30 C 0.91777 0.76965 0.14355 0.0
C31 C 0.98624 0.83911 0.13441 0.0
O32 O 0.9142 0.82328 0.15616 0.0
O33 O 0.92683 0.83472 0.13632 0.0
O34 O 0.98029 0.82082 0.14167 0.0
O35 O 0.97056 0.84555 0.13378 0.0
C36 C 0.95854 0.82971 0.1743 0.0
O37 O 0.93652 0.77878 0.15069 0.0
O38 O 0.91376 0.78496 0.13791 0.0
In39 In 0.11573 0.16998 0.35924 0.0
O40 O 0.10328 0.13976 0.34362 0.0
O41 O 0.11054 0.1744 0.33711 0.0
C42 C 0.07397 0.16417 0.36929 0.0
C43 C 0.14848 0.21763 0.36102 0.0
C44 C 0.13268 0.14319 0.3708 0.0
O45 O 0.07975 0.16908 0.35716 0.0
O46 O 0.08925 0.16218 0.37638 0.0
O47 O 0.11188 0.14007 0.37307 0.0
O48 O 0.1455 0.16065 0.36309 0.0
C49 C 0.1044 0.15296 0.33395 0.0
O50 O 0.15015 0.20381 0.35265 0.0
O51 O 0.13117 0.20706 0.36913 0.0
In52 In 0.82069 0.96551 0.36998 0.0
O53 O 0.81045 0.9628 0.34809 0.0
O54 O 0.84784 0.98383 0.35283 0.0
C55 C 0.83612 0.93374 0.37429 0.0
C56 C 0.7725 0.93953 0.37466 0.0
C57 C 0.84379 0.00815 0.38335 0.0
O58 O 0.83026 0.93753 0.36288 0.0
O59 O 0.83444 0.9462 0.3836 0.0
O60 O 0.84687 0.99055 0.38586 0.0
O61 O 0.82817 0.00392 0.37448 0.0
C62 C 0.83175 0.97594 0.34386 0.0
O63 O 0.78218 0.9589 0.36803 0.0
O64 O 0.78736 0.93452 0.37993 0.0
In65 In 0.02743 0.86457 0.34007 0.0
O66 O 0.03162 0.88309 0.31987 0.0
O67 O 0.01194 0.84452 0.32064 0.0
C68 C 0.05705 0.91088 0.34757 0.0
C69 C 0.0514 0.84048 0.34501 0.0
C70 C 0.9839 0.84685 0.35214 0.0
O71 O 0.06347 0.9002 0.33933 0.0
O72 O 0.03551 0.89849 0.35163 0.0
O73 O 0.00148 0.8467 0.35781 0.0
O74 O 0.98821 0.8553 0.34047 0.0
C75 C 0.01984 0.86338 0.31356 0.0
O76 O 0.03846 0.8367 0.33482 0.0
O77 O 0.05117 0.85544 0.35313 0.0
In78 In 0.82521 0.86636 0.8274 0.0
O79 O 0.8461 0.88778 0.80888 0.0
O80 O 0.83348 0.84999 0.80942 0.0
C81 C 0.84193 0.91278 0.83459 0.0
C82 C 0.77626 0.84253 0.8269 0.0
C83 C 0.84366 0.84599 0.84391 0.0
O84 O 0.82253 0.90073 0.8281 0.0
O85 O 0.85324 0.90168 0.83705 0.0
O86 O 0.83593 0.85948 0.84812 0.0
O87 O 0.84083 0.84179 0.83156 0.0
C88 C 0.84453 0.86957 0.80297 0.0
O89 O 0.78901 0.84541 0.81675 0.0
O90 O 0.78811 0.85065 0.83755 0.0
In91 In 0.12277 0.95085 0.8424 0.0
O92 O 0.11219 0.96821 0.82555 0.0
O93 O 0.12333 0.94299 0.82031 0.0
C94 C 0.07701 0.92348 0.85125 0.0
C95 C 0.14567 0.92517 0.8457 0.0
C96 C 0.1466 0.99538 0.85369 0.0
O97 O 0.08287 0.92375 0.83918 0.0
O98 O 0.09421 0.93728 0.85887 0.0
O99 O 0.12837 0.97776 0.85898 0.0
O100 O 0.15353 0.99022 0.84305 0.0
C101 C 0.11652 0.95739 0.81633 0.0
O102 O 0.15554 0.94562 0.84015 0.0
O103 O 0.12508 0.91863 0.85048 0.0
In104 In 0.04358 0.17194 0.84092 0.0
O105 O 0.02659 0.14351 0.82428 0.0
O106 O 0.04746 0.18055 0.81876 0.0
C107 C 0.07691 0.15931 0.84696 0.0
C108 C 0.06602 0.22005 0.8458 0.0
C109 C 8e-05 0.1472 0.85324 0.0
O110 O 0.07591 0.16754 0.83565 0.0
O111 O 0.06098 0.15728 0.85517 0.0
O112 O 0.01819 0.14543 0.8565 0.0
O113 O 0.00423 0.16254 0.8442 0.0
C114 C 0.03462 0.15892 0.81496 0.0
O115 O 0.0481 0.20948 0.83811 0.0
O116 O 0.07121 0.20602 0.85193 0.0
In117 In 0.87429 0.82272 0.64073 0.0
O118 O 0.88398 0.85228 0.65654 0.0
O119 O 0.87812 0.81804 0.66295 0.0
C120 C 0.91836 0.8343 0.63136 0.0
C121 C 0.84742 0.77394 0.63961 0.0
C122 C 0.85346 0.84546 0.62846 0.0
O123 O 0.91353 0.83282 0.64366 0.0
O124 O 0.90096 0.8301 0.62369 0.0
O125 O 0.87459 0.84982 0.62591 0.0
O126 O 0.84222 0.82867 0.63681 0.0
C127 C 0.88288 0.83906 0.66621 0.0
O128 O 0.84197 0.78655 0.64693 0.0
O129 O 0.86523 0.78608 0.63203 0.0
In130 In 0.16355 0.02955 0.65171 0.0
O131 O 0.14433 0.03075 0.67077 0.0
O132 O 0.16414 0.01201 0.67129 0.0
C133 C 0.14224 0.05439 0.64296 0.0
C134 C 0.21218 0.05865 0.64997 0.0
C135 C 0.14475 0.98668 0.63871 0.0
O136 O 0.15809 0.06228 0.65203 0.0
O137 O 0.13656 0.03365 0.63862 0.0
O138 O 0.15982 0.00633 0.6332 0.0
O139 O 0.13988 0.98879 0.65063 0.0
C140 C 0.15114 0.01849 0.67755 0.0
O141 O 0.20189 0.0453 0.65987 0.0
O142 O 0.19811 0.05635 0.64056 0.0
In143 In 0.94991 0.12405 0.65201 0.0
O144 O 0.9516 0.10511 0.67112 0.0
O145 O 0.96256 0.14252 0.67214 0.0
C146 C 0.92108 0.07721 0.64547 0.0
C147 C 0.92372 0.14638 0.64845 0.0
C148 C 0.99234 0.1425 0.63858 0.0
O149 O 0.91594 0.08719 0.65482 0.0
O150 O 0.94107 0.09068 0.63975 0.0
O151 O 0.97266 0.13651 0.6327 0.0
O152 O 0.99056 0.14001 0.65105 0.0
C153 C 0.95978 0.12397 0.67821 0.0
O154 O 0.94258 0.15529 0.65548 0.0
O155 O 0.91911 0.12718 0.64251 0.0
In156 In 0.82546 0.47452 0.48821 0.0
O157 O 0.86292 0.49412 0.49732 0.0
O158 O 0.86098 0.49166 0.47623 0.0
C159 C 0.80419 0.49304 0.47245 0.0
C160 C 0.81078 0.47519 0.51337 0.0
C161 C 0.81013 0.42758 0.48279 0.0
O162 O 0.81277 0.4805 0.46785 0.0
O163 O 0.80742 0.49711 0.48479 0.0
O164 O 0.82997 0.44123 0.48855 0.0
O165 O 0.79771 0.43741 0.48007 0.0
C166 C 0.87425 0.49843 0.48647 0.0
O167 O 0.80397 0.45564 0.50709 0.0
O168 O 0.8245 0.49416 0.50687 0.0
In169 In 0.52907 0.36972 0.48095 0.0
O170 O 0.49758 0.37374 0.48853 0.0
O171 O 0.51444 0.3916 0.47054 0.0
C172 C 0.5101 0.32542 0.46979 0.0
C173 C 0.54034 0.36457 0.50633 0.0
C174 C 0.57176 0.40283 0.47017 0.0
O175 O 0.53123 0.34245 0.46739 0.0
O176 O 0.49802 0.3309 0.47757 0.0
O177 O 0.56763 0.40131 0.48256 0.0
O178 O 0.55438 0.38752 0.46316 0.0
C179 C 0.49893 0.38789 0.47938 0.0
O180 O 0.539 0.38267 0.50244 0.0
O181 O 0.53656 0.34922 0.49734 0.0
In182 In 0.62038 0.15657 0.48833 0.0
O183 O 0.61952 0.1203 0.4891 0.0
O184 O 0.59347 0.12255 0.4771 0.0
C185 C 0.6644 0.18407 0.47696 0.0
C186 C 0.62519 0.16559 0.51483 0.0
C187 C 0.58722 0.16931 0.48202 0.0
O188 O 0.64489 0.17763 0.4708 0.0
O189 O 0.66168 0.17561 0.48859 0.0
O190 O 0.58446 0.1555 0.49172 0.0
O191 O 0.60684 0.17698 0.47571 0.0
C192 C 0.60101 0.10928 0.48185 0.0
O193 O 0.62934 0.18189 0.50635 0.0
O194 O 0.61837 0.14495 0.50993 0.0
In195 In 0.79083 0.50625 0.68087 0.0
O196 O 0.7958 0.51884 0.65931 0.0
O197 O 0.77779 0.48089 0.66271 0.0
C198 C 0.74426 0.48993 0.68767 0.0
C199 C 0.81704 0.55348 0.68772 0.0
C200 C 0.81182 0.48206 0.69117 0.0
O201 O 0.75506 0.50582 0.67879 0.0
O202 O 0.75684 0.48198 0.69299 0.0
O203 O 0.79692 0.48557 0.69767 0.0
O204 O 0.81698 0.49179 0.6798 0.0
C205 C 0.78576 0.49791 0.65429 0.0
O206 O 0.82464 0.54357 0.67971 0.0
O207 O 0.79712 0.53907 0.69313 0.0
In208 In 0.49222 0.29108 0.66926 0.0
O209 O 0.50405 0.28437 0.64881 0.0
O210 O 0.51179 0.31999 0.6533 0.0
C211 C 0.50629 0.26002 0.67791 0.0
C212 C 0.44345 0.26844 0.66844 0.0
C213 C 0.50991 0.32946 0.68596 0.0
O214 O 0.48511 0.25298 0.67377 0.0
O215 O 0.52049 0.28263 0.67739 0.0
O216 O 0.51124 0.31075 0.68832 0.0
O217 O 0.49827 0.32823 0.67552 0.0
C218 C 0.51297 0.30596 0.64488 0.0
O219 O 0.45657 0.27776 0.65831 0.0
O220 O 0.45495 0.27157 0.67919 0.0
In221 In 0.69846 0.19516 0.6794 0.0
O222 O 0.68639 0.21016 0.66201 0.0
O223 O 0.69496 0.18265 0.65788 0.0
C224 C 0.72954 0.24247 0.68383 0.0
C225 C 0.72399 0.17284 0.68502 0.0
C226 C 0.65589 0.17489 0.69288 0.0
O227 O 0.73307 0.23071 0.67481 0.0
O228 O 0.71014 0.23049 0.69033 0.0
O229 O 0.67554 0.19091 0.69787 0.0
O230 O 0.65796 0.16813 0.6814 0.0
C231 C 0.68784 0.19649 0.6534 0.0
O232 O 0.70625 0.16409 0.67714 0.0
O233 O 0.72773 0.19192 0.69079 0.0
In234 In 0.49366 0.19564 0.19462 0.0
O235 O 0.48101 0.18615 0.17316 0.0
O236 O 0.5183 0.21143 0.1763 0.0
C237 C 0.50681 0.24191 0.20042 0.0
C238 C 0.447 0.16724 0.20203 0.0
C239 C 0.52069 0.17828 0.20563 0.0
O240 O 0.49074 0.22966 0.19187 0.0
O241 O 0.51634 0.2309 0.2059 0.0
O242 O 0.51443 0.19129 0.21199 0.0
O243 O 0.51243 0.17316 0.19393 0.0
C244 C 0.50152 0.19959 0.16801 0.0
O245 O 0.45702 0.16101 0.1933 0.0
O246 O 0.46093 0.18714 0.20761 0.0
In247 In 0.8114 0.30005 0.20199 0.0
O248 O 0.8445 0.2952 0.20124 0.0
O249 O 0.81542 0.27181 0.21381 0.0
C250 C 0.83001 0.3438 0.21403 0.0
C251 C 0.81098 0.30614 0.17536 0.0
C252 C 0.76399 0.26892 0.20644 0.0
O253 O 0.81913 0.3242 0.22045 0.0
O254 O 0.83248 0.34123 0.20177 0.0
O255 O 0.77625 0.26483 0.19805 0.0
O256 O 0.77552 0.28894 0.21244 0.0
C257 C 0.83559 0.27701 0.20885 0.0
O258 O 0.7978 0.31003 0.18321 0.0
O259 O 0.82415 0.29917 0.18095 0.0
In260 In 0.71081 0.50513 0.1956 0.0
O261 O 0.71128 0.54078 0.19192 0.0
O262 O 0.73901 0.5418 0.20392 0.0
C263 C 0.66603 0.47935 0.20642 0.0
C264 C 0.70834 0.49352 0.16948 0.0
C265 C 0.74168 0.49221 0.20591 0.0
O266 O 0.6842 0.47882 0.21089 0.0
O267 O 0.6706 0.49376 0.19681 0.0
O268 O 0.7386 0.49298 0.1935 0.0
O269 O 0.72901 0.49777 0.21318 0.0
C270 C 0.73078 0.55365 0.19811 0.0
O271 O 0.69528 0.4782 0.1782 0.0
O272 O 0.72295 0.51424 0.17402 0.0
In273 In 0.52154 0.15987 0.00182 0.0
O274 O 0.49427 0.11988 0.00529 0.0
O275 O 0.5173 0.12875 0.98856 0.0
C276 C 0.49838 0.18116 0.99023 0.0
C277 C 0.52416 0.17137 0.02793 0.0
C278 C 0.56877 0.17756 0.9963 0.0
O279 O 0.5149 0.1793 0.98448 0.0
O280 O 0.4926 0.17105 0.00147 0.0
O281 O 0.5582 0.16283 0.00574 0.0
O282 O 0.55568 0.18376 0.98992 0.0
C283 C 0.50125 0.11228 0.99566 0.0
O284 O 0.53787 0.18654 0.01931 0.0
O285 O 0.50964 0.15063 0.02336 0.0
In286 In 0.84168 0.35831 0.00745 0.0
O287 O 0.8814 0.37819 0.01315 0.0
O288 O 0.87321 0.37275 0.99253 0.0
C289 C 0.81528 0.3151 0.99504 0.0
C290 C 0.83311 0.34857 0.03367 0.0
C291 C 0.82563 0.38912 0.00139 0.0
O292 O 0.82417 0.33502 0.98893 0.0
O293 O 0.82116 0.31698 0.00717 0.0
O294 O 0.84603 0.39618 0.00667 0.0
O295 O 0.81311 0.36655 0.99963 0.0
C296 C 0.88935 0.38214 0.00139 0.0
O297 O 0.8238 0.35881 0.02712 0.0
O298 O 0.84649 0.34315 0.02696 0.0
In299 In 0.63094 0.46072 0.00563 0.0
O300 O 0.65458 0.48158 0.0233 0.0
O301 O 0.63362 0.44325 0.02501 0.0
C302 C 0.59304 0.41726 0.99907 0.0
C303 C 0.60862 0.48673 0.00222 0.0
C304 C 0.67105 0.47024 0.99192 0.0
O305 O 0.5962 0.42581 0.01075 0.0
O306 O 0.60914 0.43052 0.99075 0.0
O307 O 0.65373 0.44912 0.99399 0.0
O308 O 0.66805 0.487 0.99653 0.0
C309 C 0.64853 0.46309 0.03041 0.0
O310 O 0.61202 0.48018 0.01347 0.0
O311 O 0.61773 0.48132 0.99257 0.0
In312 In 0.50012 0.80532 0.80775 0.0
O313 O 0.53864 0.83041 0.8149 0.0
O314 O 0.53434 0.81352 0.79614 0.0
C315 C 0.47951 0.82565 0.79282 0.0
C316 C 0.48826 0.80636 0.83347 0.0
C317 C 0.48169 0.75778 0.80261 0.0
O318 O 0.49166 0.81711 0.78766 0.0
O319 O 0.47863 0.82469 0.80535 0.0
O320 O 0.5 0.76964 0.80995 0.0
O321 O 0.47231 0.76973 0.79817 0.0
C322 C 0.54873 0.82687 0.80507 0.0
O323 O 0.47893 0.78697 0.82676 0.0
O324 O 0.50333 0.82504 0.82717 0.0
In325 In 0.20442 0.71657 0.79394 0.0
O326 O 0.17143 0.72043 0.79828 0.0
O327 O 0.19777 0.74568 0.78502 0.0
C328 C 0.18236 0.67202 0.78267 0.0
C329 C 0.21259 0.71085 0.81984 0.0
C330 C 0.24892 0.7473 0.78441 0.0
O331 O 0.20311 0.68862 0.77928 0.0
O332 O 0.17221 0.67818 0.79137 0.0
O333 O 0.24384 0.74528 0.7967 0.0
O334 O 0.23152 0.73364 0.77684 0.0
C335 C 0.17857 0.73939 0.79146 0.0
O336 O 0.20651 0.72586 0.81599 0.0
O337 O 0.21516 0.6989 0.81058 0.0
In338 In 0.27579 0.49124 0.80514 0.0
O339 O 0.27453 0.45517 0.80832 0.0
O340 O 0.24998 0.45599 0.79448 0.0
C341 C 0.3198 0.5182 0.79372 0.0
C342 C 0.28125 0.50334 0.83128 0.0
C343 C 0.24261 0.50292 0.79714 0.0
O344 O 0.30131 0.51898 0.79011 0.0
O345 O 0.31595 0.5029 0.80275 0.0
O346 O 0.24367 0.49679 0.809 0.0
O347 O 0.25833 0.50326 0.78935 0.0
C348 C 0.25678 0.44329 0.80068 0.0
O349 O 0.29271 0.51865 0.82223 0.0
O350 O 0.26671 0.48232 0.82709 0.0
In351 In 0.46305 0.83823 1.00032 0.0
O352 O 0.49424 0.87707 0.99856 0.0
O353 O 0.46982 0.86873 0.01467 0.0
C354 C 0.48384 0.81414 0.01115 0.0
C355 C 0.46041 0.83031 0.97376 0.0
C356 C 0.41597 0.82352 0.00482 0.0
O357 O 0.46946 0.81845 0.01761 0.0
O358 O 0.48842 0.82285 0.99954 0.0
O359 O 0.42931 0.84128 0.99743 0.0
O360 O 0.42627 0.81285 0.00984 0.0
C361 C 0.48774 0.88485 0.00835 0.0
O362 O 0.44892 0.81339 0.98204 0.0
O363 O 0.47297 0.85102 0.97889 0.0
In364 In 0.15815 0.63398 0.98256 0.0
O365 O 0.12084 0.60923 0.97371 0.0
O366 O 0.12278 0.61563 0.99451 0.0
C367 C 0.17632 0.67554 0.99673 0.0
C368 C 0.17551 0.64907 0.95769 0.0
C369 C 0.17865 0.6085 0.99142 0.0
O370 O 0.17199 0.65567 0.0018 0.0
O371 O 0.16983 0.67408 0.98471 0.0
O372 O 0.16058 0.59934 0.98371 0.0
O373 O 0.18674 0.63051 0.99419 0.0
C374 C 0.1097 0.6045 0.98464 0.0
O375 O 0.18131 0.63616 0.96458 0.0
O376 O 0.16107 0.65433 0.96336 0.0
In377 In 0.3766 0.53797 0.9921 0.0
O378 O 0.38926 0.51377 0.00198 0.0
O379 O 0.40008 0.52532 0.98204 0.0
C380 C 0.33699 0.52696 0.00682 0.0
C381 C 0.35736 0.53594 0.96786 0.0
C382 C 0.4118 0.58138 0.0007 0.0
O383 O 0.35547 0.54774 0.00646 0.0
O384 O 0.33854 0.51116 1.00001 0.0
O385 O 0.40494 0.57751 0.98865 0.0
O386 O 0.40094 0.56331 0.00836 0.0
C387 C 0.40135 0.51394 0.99197 0.0
O388 O 0.37334 0.55566 0.97294 0.0
O389 O 0.35119 0.51744 0.97501 0.0
In390 In 0.16165 0.5612 0.49983 0.0
O391 O 0.17991 0.57601 0.47972 0.0
O392 O 0.17162 0.54039 0.48515 0.0
C393 C 0.16899 0.60497 0.50717 0.0
C394 C 0.11321 0.53642 0.49679 0.0
C395 C 0.18792 0.55114 0.51708 0.0
O396 O 0.1783 0.60172 0.49681 0.0
O397 O 0.15582 0.58603 0.51385 0.0
O398 O 0.19302 0.57235 0.51407 0.0
O399 O 0.16893 0.53461 0.51167 0.0
C400 C 0.18048 0.55713 0.47656 0.0
O401 O 0.12314 0.53785 0.50792 0.0
O402 O 0.12768 0.54678 0.48729 0.0
In403 In 0.46707 0.62648 0.51064 0.0
O404 O 0.48837 0.61009 0.50168 0.0
O405 O 0.4736 0.59812 0.52094 0.0
C406 C 0.49112 0.66562 0.52672 0.0
C407 C 0.46751 0.64007 0.48506 0.0
C408 C 0.41981 0.60416 0.51729 0.0
O409 O 0.47919 0.6444 0.53131 0.0
O410 O 0.49179 0.66674 0.51417 0.0
O411 O 0.42957 0.593 0.51225 0.0
O412 O 0.43373 0.6267 0.5186 0.0
C413 C 0.48484 0.59587 0.51122 0.0
O414 O 0.44821 0.62501 0.49089 0.0
O415 O 0.48635 0.64824 0.49214 0.0
In416 In 0.38592 0.83191 0.52161 0.0
O417 O 0.41491 0.86775 0.53042 0.0
O418 O 0.39323 0.86902 0.51475 0.0
C419 C 0.34277 0.81283 0.53419 0.0
C420 C 0.37634 0.81567 0.49608 0.0
C421 C 0.41595 0.81773 0.5318 0.0
O422 O 0.35613 0.80352 0.53457 0.0
O423 O 0.35152 0.83247 0.52776 0.0
O424 O 0.41359 0.8196 0.51941 0.0
O425 O 0.40294 0.82276 0.5391 0.0
C426 C 0.41097 0.8807 0.52246 0.0
O427 O 0.39491 0.83518 0.49941 0.0
O428 O 0.36278 0.80384 0.5057 0.0
In429 In 0.21762 0.49319 0.31788 0.0
O430 O 0.18737 0.45578 0.32354 0.0
O431 O 0.20967 0.45816 0.30726 0.0
C432 C 0.19222 0.51206 0.30662 0.0
C433 C 0.22536 0.50976 0.34331 0.0
C434 C 0.26266 0.50703 0.30918 0.0
O435 O 0.214 0.51917 0.30369 0.0
O436 O 0.18293 0.49463 0.31474 0.0
O437 O 0.25532 0.49866 0.32073 0.0
O438 O 0.2473 0.50864 0.30194 0.0
C439 C 0.19274 0.44464 0.31508 0.0
O440 O 0.22681 0.5229 0.33353 0.0
O441 O 0.22066 0.48872 0.3402 0.0
In442 In 0.51472 0.71576 0.3205 0.0
O443 O 0.48765 0.69322 0.33691 0.0
O444 O 0.52244 0.72153 0.34276 0.0
C445 C 0.49576 0.74411 0.31475 0.0
C446 C 0.56337 0.74362 0.31869 0.0
C447 C 0.49487 0.67473 0.3056 0.0
O448 O 0.49496 0.73574 0.32628 0.0
O449 O 0.50602 0.73805 0.30602 0.0
O450 O 0.49215 0.69253 0.30304 0.0
O451 O 0.5087 0.67802 0.31532 0.0
C452 C 0.50202 0.7045 0.34638 0.0
O453 O 0.55323 0.72286 0.32392 0.0
O454 O 0.54898 0.74934 0.31349 0.0
In455 In 0.27403 0.77472 0.33641 0.0
O456 O 0.25829 0.79522 0.34702 0.0
O457 O 0.25698 0.79443 0.32589 0.0
C458 C 0.31283 0.78575 0.3211 0.0
C459 C 0.29375 0.77613 0.36046 0.0
C460 C 0.23807 0.73143 0.3279 0.0
O461 O 0.30762 0.80168 0.32453 0.0
O462 O 0.29855 0.76471 0.32538 0.0
O463 O 0.24111 0.7372 0.34011 0.0
O464 O 0.25303 0.74747 0.3201 0.0
C465 C 0.25153 0.80103 0.33656 0.0
O466 O 0.27493 0.75753 0.3563 0.0
O467 O 0.3026 0.79381 0.35246 0.0
C468 C 0.12019 0.13952 0.15652 0.0
C469 C 0.11927 0.11758 0.15345 0.0
C470 C 0.10036 0.14249 0.15367 0.0
C471 C 0.03876 0.11237 0.13812 0.0
H472 H 0.01954 0.12491 0.17259 0.0
C473 C 0.94118 0.06106 0.15679 0.0
C474 C 0.93243 0.07256 0.16521 0.0
C475 C 0.96518 0.07333 0.15244 0.0
C476 C 0.02468 0.1219 0.16277 0.0
H477 H 0.0986 0.08295 0.14351 0.0
H478 H 0.06421 0.08806 0.13852 0.0
H479 H 0.06152 0.13659 0.16872 0.0
H480 H 0.94165 0.10616 0.17534 0.0
H481 H 0.98372 0.12764 0.16774 0.0
H482 H 0.00148 0.09636 0.13248 0.0
C483 C 0.07997 0.10299 0.14315 0.0
C484 C 0.04885 0.12871 0.16052 0.0
C485 C 0.09964 0.09996 0.14608 0.0
C486 C 0.94799 0.09677 0.16895 0.0
C487 C 0.97205 0.10906 0.1646 0.0
C488 C 0.01455 0.10557 0.14037 0.0
C489 C 0.07949 0.12364 0.14763 0.0
C490 C 0.05593 0.12297 0.1484 0.0
C491 C 0.98097 0.0974 0.15639 0.0
C492 C 0.00708 0.10924 0.15294 0.0
H493 H 0.13518 0.15343 0.16218 0.0
H494 H 0.10062 0.15875 0.15707 0.0
H495 H 0.04376 0.10804 0.1286 0.0
H496 H 0.92957 0.04244 0.1537 0.0
H497 H 0.97156 0.06363 0.14634 0.0
C498 C 0.8402 0.97014 0.14494 0.0
C499 C 0.82891 0.97052 0.1569 0.0
C500 C 0.83968 0.94889 0.14088 0.0
C501 C 0.83855 0.89842 0.15835 0.0
H502 H 0.8486 0.87988 0.1231 0.0
C503 C 0.8761 0.83442 0.15327 0.0
C504 C 0.89512 0.84166 0.1441 0.0
C505 C 0.86112 0.84452 0.15282 0.0
C506 C 0.84583 0.88487 0.13301 0.0
H507 H 0.80541 0.94853 0.17294 0.0
H508 H 0.80361 0.91124 0.16558 0.0
H509 H 0.83255 0.90748 0.12534 0.0
H510 H 0.91273 0.86421 0.12684 0.0
H511 H 0.88722 0.88268 0.12637 0.0
H512 H 0.85295 0.87717 0.16611 0.0
C513 C 0.81365 0.92744 0.1596 0.0
C514 C 0.83656 0.90058 0.13428 0.0
C515 C 0.81451 0.94873 0.16377 0.0
C516 C 0.8982 0.85836 0.13406 0.0
C517 C 0.88344 0.86878 0.13373 0.0
C518 C 0.84785 0.88289 0.15709 0.0
C519 C 0.82761 0.92771 0.14866 0.0
C520 C 0.8333 0.90793 0.14699 0.0
C521 C 0.86512 0.86244 0.14334 0.0
C522 C 0.85213 0.87631 0.14442 0.0
H523 H 0.85147 0.98675 0.13948 0.0
H524 H 0.85062 0.94975 0.1324 0.0
H525 H 0.83689 0.90411 0.1683 0.0
H526 H 0.87308 0.82127 0.16099 0.0
H527 H 0.84683 0.83877 0.16018 0.0
C528 C 0.12791 0.00865 0.16953 0.0
C529 C 0.14456 0.02981 0.1628 0.0
C530 C 0.1199 0.98599 0.16375 0.0
C531 C 0.10962 0.95841 0.13075 0.0
H532 H 0.08512 0.90057 0.15248 0.0
C533 C 0.02999 0.85102 0.13409 0.0
C534 C 0.01134 0.8551 0.12984 0.0
C535 C 0.05409 0.86982 0.13373 0.0
C536 C 0.09232 0.91632 0.14605 0.0
H537 H 0.16701 0.04387 0.14511 0.0
H538 H 0.15302 0.00412 0.135 0.0
H539 H 0.11465 0.93934 0.16178 0.0
H540 H 0.00345 0.88071 0.12009 0.0
H541 H 0.04498 0.91344 0.11973 0.0
H542 H 0.08677 0.93544 0.11513 0.0
C543 C 0.14597 0.0051 0.14468 0.0
C544 C 0.10904 0.93869 0.1515 0.0
C545 C 0.15401 0.02783 0.15048 0.0
C546 C 0.01743 0.87714 0.12361 0.0
C547 C 0.04142 0.89594 0.12333 0.0
C548 C 0.09307 0.93597 0.12524 0.0
C549 C 0.12839 0.98394 0.15112 0.0
C550 C 0.11665 0.96013 0.1442 0.0
C551 C 0.05984 0.89301 0.12921 0.0
C552 C 0.08301 0.91487 0.13312 0.0
H553 H 0.12034 0.0096 0.17904 0.0
H554 H 0.10604 0.97017 0.16891 0.0
H555 H 0.11523 0.97454 0.12479 0.0
H556 H 0.02584 0.83404 0.13878 0.0
H557 H 0.06792 0.86674 0.13799 0.0
C558 C 0.1582 0.12394 0.368 0.0
C559 C 0.13915 0.12477 0.37453 0.0
C560 C 0.15976 0.10284 0.36842 0.0
C561 C 0.13048 0.04007 0.38263 0.0
H562 H 0.12969 0.02206 0.34556 0.0
C563 C 0.0661 0.94545 0.36269 0.0
C564 C 0.07358 0.93563 0.35245 0.0
C565 C 0.08154 0.96886 0.36735 0.0
C566 C 0.13041 0.02682 0.356 0.0
H567 H 0.10877 0.10561 0.388 0.0
H568 H 0.11127 0.06893 0.38866 0.0
H569 H 0.146 0.06435 0.35136 0.0
H570 H 0.10328 0.94231 0.33928 0.0
H571 H 0.13024 0.98356 0.34733 0.0
H572 H 0.11329 0.00216 0.38708 0.0
C573 C 0.12507 0.08434 0.38319 0.0
C574 C 0.13988 0.05116 0.35936 0.0
C575 C 0.1235 0.10536 0.38275 0.0
C576 C 0.09699 0.94952 0.34712 0.0
C577 C 0.11242 0.97306 0.35174 0.0
C578 C 0.12092 0.0157 0.37926 0.0
C579 C 0.14232 0.08233 0.3754 0.0
C580 C 0.13894 0.05794 0.37263 0.0
C581 C 0.10477 0.98302 0.36185 0.0
C582 C 0.11977 0.00877 0.36583 0.0
H583 H 0.17067 0.13876 0.36167 0.0
H584 H 0.17355 0.10199 0.36252 0.0
H585 H 0.12992 0.04477 0.39297 0.0
H586 H 0.0482 0.93513 0.36704 0.0
H587 H 0.07492 0.97616 0.37497 0.0
C588 C 0.87887 0.03644 0.3974 0.0
C589 C 0.86076 0.03282 0.38819 0.0
C590 C 0.8992 0.05938 0.39901 0.0
C591 C 0.93502 0.10846 0.37669 0.0
H592 H 0.97889 0.13315 0.40685 0.0
C593 C 0.03624 0.16658 0.36719 0.0
C594 C 0.05039 0.15945 0.3745 0.0
C595 C 0.01266 0.15946 0.37125 0.0
C596 C 0.96687 0.12652 0.39832 0.0
H597 H 0.84806 0.05079 0.37477 0.0
H598 H 0.88364 0.09092 0.37758 0.0
H599 H 0.93582 0.10505 0.41064 0.0
H600 H 0.05165 0.14055 0.3922 0.0
H601 H 0.01022 0.12709 0.39895 0.0
H602 H 0.96589 0.12802 0.36426 0.0
C603 C 0.88229 0.07597 0.38341 0.0
C604 C 0.94218 0.11058 0.40051 0.0
C605 C 0.86189 0.05301 0.38184 0.0
C606 C 0.04108 0.14625 0.38636 0.0
C607 C 0.01735 0.13874 0.39029 0.0
C608 C 0.95963 0.12413 0.37449 0.0
C609 C 0.90177 0.07907 0.39139 0.0
C610 C 0.92619 0.10062 0.38967 0.0
C611 C 0.00255 0.14461 0.38255 0.0
C612 C 0.97606 0.13256 0.38523 0.0
H613 H 0.87835 0.02122 0.40253 0.0
H614 H 0.91388 0.0611 0.40522 0.0
H615 H 0.9233 0.10089 0.36809 0.0
H616 H 0.04317 0.17711 0.35811 0.0
H617 H 0.00206 0.16486 0.36522 0.0
C618 C 0.84365 0.90133 0.36591 0.0
C619 C 0.8445 0.91623 0.37645 0.0
C620 C 0.85279 0.8857 0.36756 0.0
C621 C 0.89926 0.88138 0.38613 0.0
H622 H 0.87321 0.82055 0.36694 0.0
C623 C 0.9608 0.84358 0.37296 0.0
C624 C 0.96128 0.84122 0.35904 0.0
C625 C 0.94141 0.84432 0.37903 0.0
C626 C 0.88059 0.83734 0.3725 0.0
H627 H 0.85471 0.92585 0.39716 0.0
H628 H 0.87104 0.89859 0.40003 0.0
H629 H 0.84799 0.8389 0.37045 0.0
H630 H 0.94101 0.83524 0.34071 0.0
H631 H 0.90728 0.83634 0.3512 0.0
H632 H 0.93233 0.88069 0.38743 0.0
C633 C 0.86328 0.89906 0.39048 0.0
C634 C 0.8662 0.84787 0.37448 0.0
C635 C 0.85395 0.91464 0.38884 0.0
C636 C 0.94112 0.83722 0.35146 0.0
C637 C 0.92169 0.83768 0.35751 0.0
C638 C 0.91365 0.87085 0.38415 0.0
C639 C 0.86308 0.88466 0.37979 0.0
C640 C 0.87581 0.8706 0.38071 0.0
C641 C 0.92214 0.84238 0.37126 0.0
C642 C 0.90487 0.84936 0.37672 0.0
H643 H 0.83638 0.90209 0.35626 0.0
H644 H 0.85275 0.87519 0.35905 0.0
H645 H 0.90724 0.89894 0.39092 0.0
H646 H 0.97617 0.84669 0.37902 0.0
H647 H 0.94213 0.84777 0.38966 0.0
C648 C 0.8674 0.85056 0.86465 0.0
C649 C 0.85965 0.84035 0.85192 0.0
C650 C 0.88785 0.85162 0.87046 0.0
C651 C 0.93624 0.83534 0.86463 0.0
H652 H 0.97871 0.90298 0.87352 0.0
C653 C 0.03448 0.89039 0.84763 0.0
C654 C 0.05189 0.90833 0.85598 0.0
C655 C 0.01038 0.87691 0.85169 0.0
C656 C 0.96709 0.88389 0.87139 0.0
H657 H 0.86514 0.82045 0.83607 0.0
H658 H 0.90085 0.82272 0.84592 0.0
H659 H 0.93528 0.8866 0.87334 0.0
H660 H 0.05799 0.92572 0.87532 0.0
H661 H 0.01553 0.90244 0.88233 0.0
H662 H 0.9685 0.83342 0.86163 0.0
C663 C 0.89134 0.82986 0.85158 0.0
C664 C 0.94206 0.87439 0.87134 0.0
C665 C 0.87086 0.82867 0.84584 0.0
C666 C 0.04489 0.91204 0.86867 0.0
C667 C 0.02066 0.89874 0.87268 0.0
C668 C 0.96132 0.84494 0.86455 0.0
C669 C 0.90094 0.84261 0.86358 0.0
C670 C 0.92637 0.8503 0.86732 0.0
C671 C 0.00312 0.88127 0.86414 0.0
C672 C 0.97698 0.86959 0.86735 0.0
H673 H 0.85891 0.85945 0.86965 0.0
H674 H 0.89439 0.86101 0.87989 0.0
H675 H 0.92466 0.81657 0.8618 0.0
H676 H 0.03939 0.88704 0.83782 0.0
H677 H -0.00278 0.86385 0.84481 0.0
C678 C 0.11417 0.15747 0.84149 0.0
C679 C 0.09479 0.15186 0.85018 0.0
C680 C 0.12997 0.14873 0.84401 0.0
C681 C 0.14626 0.11594 0.86933 0.0
H682 H 0.15601 0.08672 0.83776 0.0
C683 C 0.14379 0.0255 0.86831 0.0
C684 C 0.15547 0.02063 0.85789 0.0
C685 C 0.14667 0.04858 0.86971 0.0
C686 C 0.15416 0.09527 0.84668 0.0
H687 H 0.07732 0.1337 0.86862 0.0
H688 H 0.10419 0.11764 0.87276 0.0
H689 H 0.14082 0.11443 0.83538 0.0
H690 H 0.18186 0.03672 0.84195 0.0
H691 H 0.18707 0.07712 0.84449 0.0
H692 H 0.1581 0.09519 0.88063 0.0
C693 C 0.10769 0.12926 0.86417 0.0
C694 C 0.14537 0.11123 0.84531 0.0
C695 C 0.09209 0.13825 0.86173 0.0
C696 C 0.17236 0.03989 0.84996 0.0
C697 C 0.17527 0.063 0.85138 0.0
C698 C 0.15494 0.09978 0.8707 0.0
C699 C 0.1265 0.13392 0.85518 0.0
C700 C 0.14041 0.12104 0.85663 0.0
C701 C 0.16131 0.06717 0.86072 0.0
C702 C 0.15811 0.08859 0.8594 0.0
H703 H 0.11687 0.16824 0.8326 0.0
H704 H 0.14451 0.15306 0.83701 0.0
H705 H 0.14316 0.12361 0.87825 0.0
H706 H 0.13081 0.01104 0.87465 0.0
H707 H 0.13562 0.05114 0.87701 0.0
C708 C 0.83987 0.95099 0.83451 0.0
C709 C 0.85057 0.93776 0.8392 0.0
C710 C 0.84854 0.97485 0.83872 0.0
C711 C 0.88585 0.01951 0.86457 0.0
H712 H 0.90666 0.06624 0.83573 0.0
C713 C 0.97206 0.11045 0.86622 0.0
C714 C 0.97536 0.12897 0.8574 0.0
C715 C 0.94967 0.08922 0.86709 0.0
C716 C 0.90038 0.05362 0.84401 0.0
H717 H 0.87811 0.93872 0.8523 0.0
H718 H 0.8932 0.98028 0.85966 0.0
H719 H 0.88034 0.02354 0.83092 0.0
H720 H 0.95711 0.1413 0.84396 0.0
H721 H 0.91775 0.10436 0.84569 0.0
H722 H 0.90667 0.0495 0.87759 0.0
C723 C 0.87806 0.97223 0.85279 0.0
C724 C 0.88534 0.02905 0.84121 0.0
C725 C 0.86961 0.94854 0.84845 0.0
C726 C 0.95515 0.12716 0.85072 0.0
C727 C 0.93265 0.10592 0.85164 0.0
C728 C 0.9007 0.04413 0.8674 0.0
C729 C 0.86781 0.98573 0.84786 0.0
C730 C 0.87889 0.0117 0.85136 0.0
C731 C 0.93007 0.08614 0.8592 0.0
C732 C 0.90914 0.06136 0.85704 0.0
H733 H 0.82508 0.94305 0.82741 0.0
H734 H 0.84035 0.98488 0.83476 0.0
H735 H 0.88073 0.00648 0.87261 0.0
H736 H 0.98727 0.11144 0.8716 0.0
H737 H 0.9485 0.07446 0.87301 0.0
C738 C 0.91123 0.04204 0.63063 0.0
C739 C 0.90481 0.05189 0.64134 0.0
C740 C 0.89617 0.01799 0.62681 0.0
C741 C 0.85157 0.95993 0.64093 0.0
H742 H 0.84776 0.93852 0.6043 0.0
C743 C 0.82631 0.86283 0.63139 0.0
C744 C 0.84511 0.86229 0.62439 0.0
C745 C 0.82351 0.8832 0.6306 0.0
C746 C 0.8484 0.94418 0.61456 0.0
H747 H 0.87722 0.04461 0.65618 0.0
H748 H 0.85086 0.00241 0.64953 0.0
H749 H 0.86318 0.98139 0.609 0.0
H750 H 0.87351 0.88092 0.60971 0.0
H751 H 0.86882 0.91633 0.60838 0.0
H752 H 0.83828 0.92317 0.64662 0.0
C753 C 0.86763 0.01328 0.64414 0.0
C754 C 0.85731 0.96872 0.61726 0.0
C755 C 0.88272 0.0374 0.64796 0.0
C756 C 0.85902 0.88098 0.61533 0.0
C757 C 0.8562 0.90126 0.61452 0.0
C758 C 0.8427 0.93544 0.63825 0.0
C759 C 0.87433 0.00324 0.63362 0.0
C760 C 0.86002 0.97698 0.63052 0.0
C761 C 0.83943 0.90323 0.62277 0.0
C762 C 0.84208 0.92746 0.62508 0.0
H763 H 0.9281 0.0528 0.62531 0.0
H764 H 0.9021 0.01072 0.61883 0.0
H765 H 0.85354 0.96568 0.65126 0.0
H766 H 0.81516 0.84855 0.63837 0.0
H767 H 0.8101 0.88401 0.63688 0.0
C768 C 0.11784 0.94214 0.63878 0.0
C769 C 0.13052 0.96369 0.63146 0.0
C770 C 0.09887 0.92157 0.63293 0.0
C771 C 0.05226 0.91085 0.60911 0.0
H772 H 0.02496 0.84574 0.62325 0.0
C773 C 0.94941 0.84849 0.61311 0.0
C774 C 0.94276 0.84119 0.62642 0.0
C775 C 0.97333 0.85739 0.60893 0.0
C776 C 0.03239 0.86373 0.61904 0.0
H777 H 0.13531 0.98001 0.6119 0.0
H778 H 0.10192 0.94389 0.60158 0.0
H779 H 0.06877 0.87292 0.62368 0.0
H780 H 0.95538 0.83595 0.64556 0.0
H781 H -0.00306 0.85138 0.63832 0.0
H782 H 0.01585 0.90223 0.60529 0.0
C783 C 0.10652 0.94297 0.6119 0.0
C784 C 0.05745 0.87928 0.61927 0.0
C785 C 0.12572 0.96359 0.61777 0.0
C786 C 0.96004 0.84162 0.63526 0.0
C787 C 0.9838 0.8502 0.63106 0.0
C788 C 0.02724 0.89525 0.60881 0.0
C789 C 0.09205 0.92219 0.61964 0.0
C790 C 0.06751 0.90351 0.61511 0.0
C791 C 0.99087 0.85875 0.61795 0.0
C792 C 0.01699 0.87206 0.61452 0.0
H793 H 0.12134 0.94171 0.64935 0.0
H794 H 0.08814 0.90602 0.63926 0.0
H795 H 0.05929 0.92939 0.60587 0.0
H796 H 0.93638 0.84824 0.60608 0.0
H797 H 0.97829 0.86385 0.59877 0.0
C798 C 0.01294 0.13611 0.61915 0.0
C799 C 0.01449 0.14679 0.63164 0.0
C800 C 0.03189 0.13279 0.61471 0.0
C801 C 0.09378 0.14412 0.62317 0.0
H802 H 0.06345 0.07444 0.61923 0.0
C803 C 0.13611 0.09011 0.64391 0.0
C804 C 0.13152 0.06852 0.63766 0.0
C805 C 0.12554 0.10321 0.63907 0.0
C806 C 0.07245 0.09399 0.61997 0.0
H807 H 0.03801 0.16536 0.6484 0.0
H808 H 0.07101 0.15983 0.64067 0.0
H809 H 0.03934 0.0938 0.61661 0.0
H810 H 0.11315 0.04419 0.62113 0.0
H811 H 0.09497 0.06724 0.61254 0.0
H812 H 0.12673 0.14406 0.62715 0.0
C813 C 0.05532 0.15381 0.63429 0.0
C814 C 0.05857 0.10515 0.61842 0.0
C815 C 0.03634 0.15689 0.63877 0.0
C816 C 0.11675 0.06063 0.62625 0.0
C817 C 0.10634 0.07384 0.62133 0.0
C818 C 0.10774 0.13296 0.62465 0.0
C819 C 0.05266 0.14036 0.62266 0.0
C820 C 0.06883 0.13018 0.62058 0.0
C821 C 0.11031 0.09511 0.62781 0.0
C822 C 0.09697 0.10762 0.62365 0.0
H823 H 0.99627 0.12819 0.61345 0.0
H824 H 0.02951 0.12266 0.60561 0.0
H825 H 0.10223 0.16348 0.62475 0.0
H826 H 0.14748 0.09665 0.65271 0.0
H827 H 0.12866 0.11923 0.64447 0.0
C828 C 0.61274 0.4393 0.47248 0.0
C829 C 0.59548 0.42048 0.46449 0.0
C830 C 0.63606 0.45461 0.46765 0.0
C831 C 0.67935 0.45129 0.44616 0.0
H832 H 0.71956 0.51857 0.45647 0.0
C833 C 0.77972 0.48826 0.45197 0.0
C834 C 0.78733 0.49798 0.46482 0.0
C835 C 0.75884 0.48663 0.44641 0.0
C836 C 0.7086 0.49984 0.45341 0.0
H837 H 0.58859 0.40363 0.44495 0.0
H838 H 0.62972 0.43019 0.43659 0.0
H839 H 0.67551 0.49973 0.45733 0.0
H840 H 0.78103 0.51643 0.48116 0.0
H841 H 0.74456 0.51309 0.47175 0.0
H842 H 0.71203 0.45051 0.44335 0.0
C843 C 0.62509 0.43312 0.44655 0.0
C844 C 0.68339 0.4891 0.45387 0.0
C845 C 0.60161 0.41795 0.45134 0.0
C846 C 0.77543 0.50859 0.4713 0.0
C847 C 0.75452 0.50682 0.4658 0.0
C848 C 0.7045 0.46192 0.44583 0.0
C849 C 0.64268 0.45127 0.45478 0.0
C850 C 0.66857 0.46439 0.45088 0.0
C851 C 0.74515 0.49452 0.45366 0.0
C852 C 0.71944 0.48596 0.45014 0.0
H853 H 0.60845 0.44176 0.48262 0.0
H854 H 0.64929 0.46819 0.4743 0.0
H855 H 0.66841 0.43217 0.44386 0.0
H856 H 0.78875 0.48022 0.44667 0.0
H857 H 0.75249 0.47764 0.43687 0.0
C858 C 0.48426 0.28076 0.47314 0.0
C859 C 0.50234 0.3003 0.46587 0.0
C860 C 0.48187 0.25778 0.47212 0.0
C861 C 0.50589 0.22237 0.45458 0.0
H862 H 0.51556 0.20683 0.49068 0.0
C863 C 0.57317 0.19151 0.46741 0.0
C864 C 0.569 0.17607 0.47832 0.0
C865 C 0.55661 0.19897 0.46423 0.0
C866 C 0.51228 0.21032 0.48053 0.0
H867 H 0.52993 0.31067 0.45064 0.0
H868 H 0.52584 0.27084 0.44885 0.0
H869 H 0.4989 0.23321 0.48718 0.0
H870 H 0.54376 0.15541 0.4941 0.0
H871 H 0.51474 0.1685 0.48855 0.0
H872 H 0.52075 0.20058 0.44799 0.0
C873 C 0.5135 0.27301 0.45536 0.0
C874 C 0.50263 0.22546 0.4785 0.0
C875 C 0.51599 0.29594 0.45645 0.0
C876 C 0.54753 0.16751 0.48571 0.0
C877 C 0.53092 0.17499 0.48253 0.0
C878 C 0.51553 0.20719 0.4566 0.0
C879 C 0.4974 0.25403 0.46374 0.0
C880 C 0.50048 0.23263 0.46553 0.0
C881 C 0.53549 0.19113 0.47189 0.0
C882 C 0.51996 0.20201 0.46961 0.0
H883 H 0.47339 0.28362 0.48043 0.0
H884 H 0.46906 0.24339 0.47855 0.0
H885 H 0.50406 0.22727 0.44446 0.0
H886 H 0.58952 0.19833 0.4615 0.0
H887 H 0.56094 0.21175 0.45613 0.0
C888 C 0.68844 0.21948 0.46211 0.0
C889 C 0.68787 0.204 0.47225 0.0
C890 C 0.70899 0.24221 0.46031 0.0
C891 C 0.75767 0.28669 0.48166 0.0
H892 H 0.77118 0.32723 0.45032 0.0
C893 C 0.8144 0.39079 0.48463 0.0
C894 C 0.80213 0.40215 0.47944 0.0
C895 C 0.80628 0.36644 0.48181 0.0
C896 C 0.76773 0.31606 0.45912 0.0
H897 H 0.70927 0.19857 0.48719 0.0
H898 H 0.74558 0.2378 0.48364 0.0
H899 H 0.74793 0.28318 0.44801 0.0
H900 H 0.77239 0.39733 0.46685 0.0
H901 H 0.75826 0.35482 0.46189 0.0
H902 H 0.77697 0.31959 0.49278 0.0
C903 C 0.72984 0.23293 0.47747 0.0
C904 C 0.75437 0.29085 0.45782 0.0
C905 C 0.70913 0.21035 0.47944 0.0
C906 C 0.78209 0.38898 0.47105 0.0
C907 C 0.77417 0.36474 0.46809 0.0
C908 C 0.77128 0.31182 0.48291 0.0
C909 C 0.7295 0.24973 0.46848 0.0
C910 C 0.7483 0.27587 0.46917 0.0
C911 C 0.78597 0.35315 0.4736 0.0
C912 C 0.77562 0.32675 0.47174 0.0
H913 H 0.67233 0.21502 0.45639 0.0
H914 H 0.70787 0.25455 0.4533 0.0
H915 H 0.75313 0.27593 0.49068 0.0
H916 H 0.82998 0.40056 0.49108 0.0
H917 H 0.8157 0.35791 0.48616 0.0
C918 C 0.83387 0.45959 0.68707 0.0
C919 C 0.81835 0.46378 0.69515 0.0
C920 C 0.83454 0.43812 0.68835 0.0
C921 C 0.8091 0.38006 0.70765 0.0
H922 H 0.79696 0.352 0.67216 0.0
C923 C 0.7422 0.28003 0.69712 0.0
C924 C 0.74682 0.2682 0.68668 0.0
C925 C 0.75805 0.30455 0.69963 0.0
C926 C 0.80083 0.35957 0.68214 0.0
H927 H 0.79364 0.45032 0.71196 0.0
H928 H 0.79432 0.41273 0.71401 0.0
H929 H 0.81434 0.39534 0.67465 0.0
H930 H 0.77205 0.27246 0.67097 0.0
H931 H 0.79977 0.31547 0.67532 0.0
H932 H 0.79413 0.34381 0.71506 0.0
C933 C 0.80616 0.42593 0.70674 0.0
C934 C 0.81092 0.38454 0.6836 0.0
C935 C 0.80566 0.4475 0.70553 0.0
C936 C 0.76794 0.28119 0.67902 0.0
C937 C 0.7838 0.30578 0.68151 0.0
C938 C 0.79892 0.35501 0.70619 0.0
C939 C 0.81952 0.42039 0.69765 0.0
C940 C 0.81433 0.395 0.69636 0.0
C941 C 0.77885 0.31779 0.69174 0.0
C942 C 0.79384 0.34443 0.69341 0.0
H943 H 0.84413 0.47203 0.6791 0.0
H944 H 0.84553 0.43468 0.68143 0.0
H945 H 0.81188 0.38758 0.71762 0.0
H946 H 0.72611 0.27045 0.70323 0.0
H947 H 0.75349 0.31333 0.70744 0.0
C948 C 0.52892 0.37442 0.6876 0.0
C949 C 0.52574 0.35258 0.69285 0.0
C950 C 0.54931 0.39643 0.69106 0.0
C951 C 0.6062 0.42411 0.71157 0.0
H952 H 0.63586 0.45216 0.67749 0.0
C953 C 0.70698 0.46209 0.70056 0.0
C954 C 0.71879 0.48107 0.69135 0.0
C955 C 0.68243 0.45265 0.70338 0.0
C956 C 0.62786 0.44509 0.68717 0.0
H957 H 0.53935 0.33689 0.70724 0.0
H958 H 0.57494 0.37496 0.71308 0.0
H959 H 0.59261 0.42503 0.67869 0.0
H960 H 0.71458 0.50599 0.6784 0.0
H961 H 0.67172 0.4896 0.68337 0.0
H962 H 0.64198 0.44324 0.71983 0.0
C963 C 0.5619 0.37537 0.70631 0.0
C964 C 0.6029 0.42951 0.68789 0.0
C965 C 0.54149 0.35342 0.7029 0.0
C966 C 0.70587 0.49115 0.68543 0.0
C967 C 0.68133 0.48176 0.68827 0.0
C968 C 0.63126 0.43971 0.71085 0.0
C969 C 0.56685 0.3969 0.69977 0.0
C970 C 0.59188 0.41803 0.69997 0.0
C971 C 0.6692 0.46206 0.69706 0.0
C972 C 0.64245 0.44959 0.69853 0.0
H973 H 0.51688 0.37435 0.67994 0.0
H974 H 0.5523 0.41282 0.68611 0.0
H975 H 0.59823 0.41586 0.72108 0.0
H976 H 0.71652 0.45403 0.70531 0.0
H977 H 0.67359 0.43724 0.71004 0.0
C978 C 0.61074 0.1514 0.69229 0.0
C979 C 0.63216 0.16926 0.69832 0.0
C980 C 0.58897 0.15121 0.69433 0.0
C981 C 0.56255 0.18561 0.71129 0.0
H982 H 0.53621 0.18203 0.67591 0.0
C983 C 0.53502 0.25208 0.6908 0.0
C984 C 0.51383 0.24321 0.68315 0.0
C985 C 0.54258 0.23636 0.69554 0.0
C986 C 0.54293 0.18264 0.68593 0.0
H987 H 0.64711 0.19891 0.7125 0.0
H988 H 0.60977 0.19934 0.71563 0.0
H989 H 0.56133 0.16413 0.67989 0.0
H990 H 0.48359 0.21094 0.67467 0.0
H991 H 0.4974 0.18347 0.68258 0.0
H992 H 0.54573 0.20624 0.71683 0.0
C993 C 0.60929 0.18515 0.70948 0.0
C994 C 0.55728 0.17221 0.68828 0.0
C995 C 0.6309 0.18502 0.70764 0.0
C996 C 0.50005 0.21824 0.68052 0.0
C997 C 0.50788 0.20255 0.68506 0.0
C998 C 0.54853 0.19644 0.70885 0.0
C999 C 0.5884 0.16922 0.70219 0.0
C1000 C 0.5682 0.17448 0.70085 0.0
C1001 C 0.5293 0.21153 0.69254 0.0
C1002 C 0.5394 0.19582 0.696 0.0
H1003 H 0.61115 0.13876 0.68521 0.0
H1004 H 0.57305 0.13808 0.68894 0.0
H1005 H 0.57006 0.18717 0.72118 0.0
H1006 H 0.54587 0.27123 0.69305 0.0
H1007 H 0.55936 0.2438 0.70112 0.0
C1008 C 0.72526 0.25687 0.21848 0.0
C1009 C 0.73815 0.25166 0.20895 0.0
C1010 C 0.70053 0.24101 0.22041 0.0
C1011 C 0.64772 0.19692 0.20187 0.0
H1012 H 0.6155 0.18595 0.23613 0.0
C1013 C 0.54647 0.1594 0.20275 0.0
C1014 C 0.53998 0.17378 0.21034 0.0
C1015 C 0.56853 0.16035 0.20501 0.0
C1016 C 0.62421 0.18876 0.22649 0.0
H1017 H 0.73558 0.22534 0.19435 0.0
H1018 H 0.69234 0.19768 0.19769 0.0
H1019 H 0.65961 0.2051 0.23525 0.0
H1020 H 0.55009 0.19835 0.22717 0.0
H1021 H 0.58878 0.20065 0.23086 0.0
H1022 H 0.61282 0.18209 0.19299 0.0
C1023 C 0.70131 0.2141 0.20359 0.0
C1024 C 0.64945 0.19973 0.22599 0.0
C1025 C 0.72605 0.22993 0.20168 0.0
C1026 C 0.55469 0.18715 0.22111 0.0
C1027 C 0.5769 0.18836 0.22327 0.0
C1028 C 0.62258 0.18613 0.20235 0.0
C1029 C 0.68822 0.21965 0.21282 0.0
C1030 C 0.66148 0.20458 0.21364 0.0
C1031 C 0.58464 0.17599 0.21477 0.0
C1032 C 0.61055 0.18261 0.21464 0.0
H1033 H 0.73415 0.27344 0.22426 0.0
H1034 H 0.69088 0.24596 0.22746 0.0
H1035 H 0.65644 0.20065 0.19218 0.0
H1036 H 0.53526 0.14864 0.19449 0.0
H1037 H 0.57364 0.15005 0.19854 0.0
C1038 C 0.84418 0.38765 0.21125 0.0
C1039 C 0.83475 0.36722 0.21958 0.0
C1040 C 0.84228 0.40776 0.21485 0.0
C1041 C 0.79913 0.41784 0.23353 0.0
H1042 H 0.83603 0.48149 0.21746 0.0
C1043 C 0.75737 0.47855 0.22497 0.0
C1044 C 0.75846 0.48486 0.21143 0.0
C1045 C 0.77205 0.46976 0.22986 0.0
C1046 C 0.82567 0.46389 0.22215 0.0
H1047 H 0.81879 0.35294 0.23895 0.0
H1048 H 0.81596 0.38838 0.24541 0.0
H1049 H 0.85465 0.45634 0.22023 0.0
H1050 H 0.77655 0.48814 0.19257 0.0
H1051 H 0.80221 0.47295 0.2011 0.0
H1052 H 0.76986 0.42503 0.23495 0.0
C1053 C 0.82418 0.38859 0.23591 0.0
C1054 C 0.83628 0.44945 0.22371 0.0
C1055 C 0.82596 0.36836 0.23226 0.0
C1056 C 0.77523 0.48328 0.20303 0.0
C1057 C 0.7901 0.47483 0.20795 0.0
C1058 C 0.78864 0.43238 0.23211 0.0
C1059 C 0.83102 0.40791 0.2269 0.0
C1060 C 0.82269 0.42575 0.22877 0.0
C1061 C 0.78833 0.46751 0.22135 0.0
C1062 C 0.80141 0.45504 0.22581 0.0
H1063 H 0.85126 0.38738 0.20145 0.0
H1064 H 0.8477 0.42217 0.20759 0.0
H1065 H 0.78795 0.39964 0.23735 0.0
H1066 H 0.74463 0.47967 0.23167 0.0
H1067 H 0.77033 0.46424 0.24023 0.0
C1068 C 0.53129 0.27947 0.21377 0.0
C1069 C 0.51431 0.2673 0.20361 0.0
C1070 C 0.53969 0.30393 0.21628 0.0
C1071 C 0.55081 0.35824 0.19861 0.0
H1072 H 0.57069 0.38725 0.23373 0.0
C1073 C 0.62129 0.45794 0.20271 0.0
C1074 C 0.64115 0.46119 0.21037 0.0
C1075 C 0.59875 0.43691 0.20417 0.0
C1076 C 0.56509 0.37946 0.22386 0.0
H1077 H 0.49198 0.27084 0.18846 0.0
H1078 H 0.50687 0.3138 0.19277 0.0
H1079 H 0.54352 0.34357 0.23169 0.0
H1080 H 0.65243 0.44651 0.22657 0.0
H1081 H 0.61345 0.40988 0.229 0.0
H1082 H 0.57348 0.39366 0.1907 0.0
C1083 C 0.51372 0.30439 0.19876 0.0
C1084 C 0.54957 0.35446 0.2227 0.0
C1085 C 0.50521 0.27983 0.1963 0.0
C1086 C 0.63748 0.44438 0.22045 0.0
C1087 C 0.61501 0.4234 0.2219 0.0
C1088 C 0.56637 0.38318 0.19977 0.0
C1089 C 0.53136 0.31679 0.20863 0.0
C1090 C 0.54313 0.34349 0.21004 0.0
C1091 C 0.59573 0.41884 0.21331 0.0
C1092 C 0.57455 0.39393 0.21238 0.0
H1093 H 0.53855 0.27025 0.21961 0.0
H1094 H 0.55356 0.31303 0.2238 0.0
H1095 H 0.54635 0.35035 0.18871 0.0
H1096 H 0.62355 0.47073 0.19494 0.0
H1097 H 0.58411 0.43413 0.19757 0.0
C1098 C 0.55313 0.38078 0.00434 0.0
C1099 C 0.57272 0.39313 0.99556 0.0
C1100 C 0.53496 0.35707 0.00156 0.0
C1101 C 0.51257 0.30818 0.97553 0.0
H1102 H 0.49865 0.267 0.00659 0.0
C1103 C 0.50346 0.21474 0.97536 0.0
C1104 C 0.49109 0.19872 0.9859 0.0
C1105 C 0.503 0.23632 0.9741 0.0
C1106 C 0.50164 0.27809 0.99781 0.0
H1107 H 0.58816 0.39094 0.9767 0.0
H1108 H 0.55716 0.3493 0.97211 0.0
H1109 H 0.5186 0.31033 0.00946 0.0
H1110 H 0.46558 0.19078 0.00208 0.0
H1111 H 0.46448 0.22829 0.99973 0.0
H1112 H 0.49702 0.2756 0.96386 0.0
C1113 C 0.55531 0.35797 0.98097 0.0
C1114 C 0.51319 0.30312 0.99946 0.0
C1115 C 0.57327 0.38179 0.98366 0.0
C1116 C 0.47562 0.203 0.99398 0.0
C1117 C 0.47507 0.22454 0.99268 0.0
C1118 C 0.50112 0.28303 0.97387 0.0
C1119 C 0.53623 0.34508 0.99005 0.0
C1120 C 0.51966 0.31856 0.98832 0.0
C1121 C 0.49008 0.24214 0.98333 0.0
C1122 C 0.49636 0.26779 0.98497 0.0
H1123 H 0.55207 0.38926 0.01349 0.0
H1124 H 0.52028 0.34791 0.00864 0.0
H1125 H 0.51678 0.31951 0.96675 0.0
H1126 H 0.51537 0.2118 0.9689 0.0
H1127 H 0.51475 0.24944 0.96676 0.0
C1128 C 0.78232 0.27229 0.99788 0.0
C1129 C 0.79495 0.29259 0.98956 0.0
C1130 C 0.75889 0.25417 0.99458 0.0
C1131 C 0.70788 0.25276 0.97787 0.0
H1132 H 0.67362 0.18593 0.98978 0.0
C1133 C 0.60413 0.20012 0.98107 0.0
C1134 C 0.59435 0.18657 0.99279 0.0
C1135 C 0.62842 0.20906 0.9778 0.0
C1136 C 0.68294 0.20459 0.98643 0.0
H1137 H 0.79441 0.30821 0.97041 0.0
H1138 H 0.75362 0.27634 0.96454 0.0
H1139 H 0.71781 0.20748 0.98815 0.0
H1140 H 0.60209 0.17123 0.01012 0.0
H1141 H 0.64475 0.1875 0.00467 0.0
H1142 H 0.67342 0.25049 0.97679 0.0
C1143 C 0.76155 0.27475 0.97379 0.0
C1144 C 0.70822 0.21687 0.98543 0.0
C1145 C 0.78498 0.29291 0.9771 0.0
C1146 C 0.60919 0.18169 0.00104 0.0
C1147 C 0.63356 0.1908 0.99783 0.0
C1148 C 0.68272 0.24056 0.97891 0.0
C1149 C 0.74773 0.25601 0.98288 0.0
C1150 C 0.721 0.2413 0.98146 0.0
C1151 C 0.64355 0.20484 0.98625 0.0
C1152 C 0.66996 0.21653 0.98353 0.0
H1153 H 0.78962 0.27145 0.00751 0.0
H1154 H 0.7488 0.23999 0.00182 0.0
H1155 H 0.71712 0.2717 0.97505 0.0
H1156 H 0.59303 0.20391 0.97442 0.0
H1157 H 0.6354 0.21947 0.9687 0.0
C1158 C 0.83014 0.43049 0.00072 0.0
C1159 C 0.81727 0.40587 0.99716 0.0
C1160 C 0.82182 0.44611 0.99676 0.0
C1161 C 0.77987 0.45153 0.97324 0.0
H1162 H 0.76826 0.4843 0.00244 0.0
C1163 C 0.69439 0.4558 0.9789 0.0
C1164 C 0.6941 0.47431 0.98631 0.0
C1165 C 0.71615 0.45644 0.97634 0.0
C1166 C 0.77197 0.47599 0.99403 0.0
H1167 H 0.78611 0.3784 0.98637 0.0
H1168 H 0.77159 0.4055 0.97952 0.0
H1169 H 0.79482 0.46766 0.00583 0.0
H1170 H 0.71636 0.50913 0.99581 0.0
H1171 H 0.75467 0.51017 0.99145 0.0
H1172 H 0.75582 0.45856 0.96169 0.0
C1173 C 0.78819 0.41286 0.98525 0.0
C1174 C 0.78716 0.46635 0.996 0.0
C1175 C 0.79633 0.39727 0.98932 0.0
C1176 C 0.71614 0.49461 0.99008 0.0
C1177 C 0.73801 0.49514 0.98765 0.0
C1178 C 0.76477 0.46124 0.97125 0.0
C1179 C 0.8007 0.43739 0.98902 0.0
C1180 C 0.79016 0.45289 0.98585 0.0
C1181 C 0.73809 0.47551 0.98128 0.0
C1182 C 0.75959 0.47236 0.98186 0.0
H1183 H 0.84643 0.43761 0.00671 0.0
H1184 H 0.83177 0.46492 0.99982 0.0
H1185 H 0.78232 0.44166 0.96516 0.0
H1186 H 0.67762 0.44001 0.97581 0.0
H1187 H 0.71547 0.44091 0.97151 0.0
C1188 C 0.29079 0.78162 0.78795 0.0
C1189 C 0.27355 0.76392 0.77943 0.0
C1190 C 0.31471 0.79604 0.78378 0.0
C1191 C 0.35831 0.79141 0.76317 0.0
H1192 H 0.40006 0.85738 0.77526 0.0
C1193 C 0.4576 0.82406 0.77177 0.0
C1194 C 0.46374 0.83189 0.78505 0.0
C1195 C 0.43765 0.82376 0.76575 0.0
C1196 C 0.38868 0.83904 0.77168 0.0
H1197 H 0.26746 0.74811 0.75964 0.0
H1198 H 0.30966 0.77308 0.75243 0.0
H1199 H 0.35624 0.84059 0.77477 0.0
H1200 H 0.45589 0.84828 0.80184 0.0
H1201 H 0.42121 0.84755 0.79153 0.0
H1202 H 0.3903 0.78899 0.76113 0.0
C1203 C 0.30453 0.77585 0.7623 0.0
C1204 C 0.36361 0.82946 0.77138 0.0
C1205 C 0.28044 0.76158 0.76643 0.0
C1206 C 0.4514 0.84192 0.79163 0.0
C1207 C 0.43156 0.84166 0.78564 0.0
C1208 C 0.38333 0.80091 0.76355 0.0
C1209 C 0.32198 0.79291 0.77104 0.0
C1210 C 0.34815 0.80515 0.7678 0.0
C1211 C 0.42362 0.83134 0.77291 0.0
C1212 C 0.39869 0.82439 0.76853 0.0
H1213 H 0.28594 0.78391 0.798 0.0
H1214 H 0.32779 0.80875 0.79083 0.0
H1215 H 0.34686 0.77258 0.7604 0.0
H1216 H 0.46694 0.81638 0.76643 0.0
H1217 H 0.43226 0.81611 0.75584 0.0
C1218 C 0.18594 0.64083 0.76951 0.0
C1219 C 0.17319 0.64653 0.77888 0.0
C1220 C 0.18192 0.61725 0.76861 0.0
C1221 C 0.16889 0.57007 0.79225 0.0
H1222 H 0.18068 0.53938 0.76204 0.0
C1223 C 0.20549 0.50585 0.80108 0.0
C1224 C 0.22514 0.51032 0.79288 0.0
C1225 C 0.19031 0.51492 0.79764 0.0
C1226 C 0.17736 0.54771 0.77059 0.0
H1227 H 0.14421 0.63161 0.79349 0.0
H1228 H 0.13726 0.59038 0.79196 0.0
H1229 H 0.16814 0.56937 0.75821 0.0
H1230 H 0.24372 0.52671 0.77436 0.0
H1231 H 0.21806 0.54348 0.76863 0.0
H1232 H 0.17989 0.55018 0.80465 0.0
C1233 C 0.15053 0.60418 0.78542 0.0
C1234 C 0.17001 0.56473 0.76838 0.0
C1235 C 0.15446 0.62776 0.78626 0.0
C1236 C 0.2287 0.52304 0.78088 0.0
C1237 C 0.21378 0.53244 0.77754 0.0
C1238 C 0.17646 0.5533 0.79446 0.0
C1239 C 0.16516 0.59902 0.77712 0.0
C1240 C 0.16663 0.57677 0.7792 0.0
C1241 C 0.19475 0.52903 0.78604 0.0
C1242 C 0.18177 0.54264 0.78365 0.0
H1243 H 0.20036 0.65492 0.76361 0.0
H1244 H 0.19355 0.61391 0.76215 0.0
H1245 H 0.16678 0.57925 0.80081 0.0
H1246 H 0.20213 0.49577 0.81031 0.0
H1247 H 0.17554 0.51149 0.80429 0.0
C1248 C 0.36473 0.54031 0.79679 0.0
C1249 C 0.34435 0.53703 0.78966 0.0
C1250 C 0.38689 0.56184 0.79547 0.0
C1251 C 0.41824 0.62093 0.77702 0.0
H1252 H 0.43908 0.64736 0.81258 0.0
C1253 C 0.45339 0.72042 0.78998 0.0
C1254 C 0.47207 0.73197 0.79938 0.0
C1255 C 0.44389 0.69591 0.78708 0.0
C1256 C 0.43394 0.64021 0.80255 0.0
H1257 H 0.33175 0.55231 0.77444 0.0
H1258 H 0.37001 0.58977 0.77225 0.0
H1259 H 0.41224 0.6041 0.80979 0.0
H1260 H 0.49591 0.72716 0.81289 0.0
H1261 H 0.47899 0.68408 0.80794 0.0
H1262 H 0.43882 0.65748 0.76994 0.0
C1263 C 0.36919 0.57591 0.77884 0.0
C1264 C 0.41859 0.61532 0.80092 0.0
C1265 C 0.34712 0.55444 0.78016 0.0
C1266 C 0.4814 0.71866 0.80565 0.0
C1267 C 0.47176 0.69405 0.80282 0.0
C1268 C 0.43348 0.64587 0.77866 0.0
C1269 C 0.38897 0.5804 0.78699 0.0
C1270 C 0.40976 0.6055 0.78819 0.0
C1271 C 0.45278 0.68239 0.79357 0.0
C1272 C 0.4407 0.65583 0.7915 0.0
H1273 H 0.36316 0.52708 0.80411 0.0
H1274 H 0.40194 0.56455 0.80168 0.0
H1275 H 0.41214 0.61389 0.76706 0.0
H1276 H 0.44591 0.73026 0.78495 0.0
H1277 H 0.429 0.68734 0.78007 0.0
C1278 C 0.44353 0.62444 0.99666 0.0
C1279 C 0.42971 0.60563 0.00567 0.0
C1280 C 0.45831 0.64806 0.00127 0.0
C1281 C 0.45743 0.68655 0.02696 0.0
H1282 H 0.51943 0.73391 0.01207 0.0
C1283 C 0.48377 0.78551 0.02828 0.0
C1284 C 0.49089 0.7965 0.01568 0.0
C1285 C 0.48496 0.76467 0.03119 0.0
C1286 C 0.50212 0.72094 0.01635 0.0
H1287 H 0.42146 0.59642 0.0266 0.0
H1288 H 0.44689 0.63794 0.03464 0.0
H1289 H 0.50455 0.69073 0.00882 0.0
H1290 H 0.50723 0.79597 0.99679 0.0
H1291 H 0.50839 0.75941 0.00155 0.0
H1292 H 0.45365 0.71626 0.03345 0.0
C1293 C 0.4464 0.63432 0.02403 0.0
C1294 C 0.49371 0.69624 0.01454 0.0
C1295 C 0.43187 0.61062 0.01943 0.0
C1296 C 0.50142 0.78777 0.00656 0.0
C1297 C 0.50226 0.76678 0.00938 0.0
C1298 C 0.4656 0.71118 0.02858 0.0
C1299 C 0.45929 0.65334 0.01497 0.0
C1300 C 0.47086 0.67888 0.01939 0.0
C1301 C 0.49288 0.75423 0.02146 0.0
C1302 C 0.48756 0.72874 0.02277 0.0
H1303 H 0.44229 0.62106 0.986 0.0
H1304 H 0.46783 0.66243 0.99405 0.0
H1305 H 0.43964 0.67355 0.03072 0.0
H1306 H 0.47589 0.79209 0.03558 0.0
H1307 H 0.47826 0.75592 0.04076 0.0
C1308 C 0.20015 0.72074 0.99627 0.0
C1309 C 0.19329 0.69894 0.00302 0.0
C1310 C 0.22159 0.74182 0.9997 0.0
C1311 C 0.27546 0.76614 0.02272 0.0
H1312 H 0.31046 0.79048 0.98943 0.0
C1313 C 0.37617 0.7963 0.01584 0.0
C1314 C 0.39025 0.81571 0.00721 0.0
C1315 C 0.35152 0.78816 0.01751 0.0
C1316 C 0.30096 0.78435 0.99885 0.0
H1317 H 0.20159 0.68281 0.01979 0.0
H1318 H 0.23912 0.71903 0.02548 0.0
H1319 H 0.26676 0.76633 0.98909 0.0
H1320 H 0.38988 0.8425 0.994 0.0
H1321 H 0.34678 0.82812 0.99684 0.0
H1322 H 0.31021 0.78299 0.03229 0.0
C1323 C 0.22812 0.72023 0.01762 0.0
C1324 C 0.27576 0.77054 0.99869 0.0
C1325 C 0.20654 0.6993 0.01431 0.0
C1326 C 0.37943 0.82736 0.00063 0.0
C1327 C 0.35477 0.81915 0.00226 0.0
C1328 C 0.30077 0.7798 0.02286 0.0
C1329 C 0.23669 0.74132 0.00981 0.0
C1330 C 0.26268 0.76051 0.01056 0.0
C1331 C 0.34047 0.79922 0.01054 0.0
C1332 C 0.31378 0.78837 0.01086 0.0
H1333 H 0.19007 0.72108 0.98764 0.0
H1334 H 0.22723 0.75798 0.99377 0.0
H1335 H 0.26599 0.75912 0.03208 0.0
H1336 H 0.38407 0.78706 0.02108 0.0
H1337 H 0.34091 0.77256 0.02383 0.0
C1338 C 0.20515 0.60395 0.00798 0.0
C1339 C 0.18946 0.59469 0.997 0.0
C1340 C 0.21633 0.59166 0.01306 0.0
C1341 C 0.21752 0.5338 0.0115 0.0
H1342 H 0.28586 0.57689 0.01823 0.0
C1343 C 0.29236 0.5092 0.00555 0.0
C1344 C 0.31416 0.52337 0.01245 0.0
C1345 C 0.27258 0.51252 0.00785 0.0
C1346 C 0.2667 0.56447 0.01678 0.0
H1347 H 0.17235 0.56488 0.983 0.0
H1348 H 0.19278 0.54379 0.99149 0.0
H1349 H 0.26018 0.59374 0.01371 0.0
H1350 H 0.33148 0.54928 0.02843 0.0
H1351 H 0.29663 0.55419 0.03294 0.0
H1352 H 0.22467 0.5045 0.01394 0.0
C1353 C 0.19601 0.56028 0.9964 0.0
C1354 C 0.2519 0.57421 0.01413 0.0
C1355 C 0.18449 0.57246 0.99144 0.0
C1356 C 0.31489 0.53837 0.02289 0.0
C1357 C 0.29501 0.5413 0.02538 0.0
C1358 C 0.23245 0.52399 0.01413 0.0
C1359 C 0.21245 0.57003 0.0071 0.0
C1360 C 0.22723 0.55907 0.01124 0.0
C1361 C 0.27434 0.5298 0.01721 0.0
C1362 C 0.25731 0.53928 0.01658 0.0
H1363 H 0.20894 0.62085 0.01263 0.0
H1364 H 0.22844 0.59939 0.0215 0.0
H1365 H 0.19851 0.52163 0.00947 0.0
H1366 H 0.29143 0.49757 0.99742 0.0
H1367 H 0.25693 0.50332 0.00139 0.0
C1368 C 0.20523 0.52469 0.52277 0.0
C1369 C 0.20522 0.54655 0.52445 0.0
C1370 C 0.22533 0.52292 0.52673 0.0
C1371 C 0.28547 0.55644 0.54381 0.0
H1372 H 0.30801 0.53821 0.51232 0.0
C1373 C 0.38462 0.60485 0.5277 0.0
C1374 C 0.39417 0.59179 0.52141 0.0
C1375 C 0.36025 0.59334 0.53135 0.0
C1376 C 0.30191 0.54286 0.52135 0.0
H1377 H 0.22469 0.58263 0.53291 0.0
H1378 H 0.25956 0.57966 0.53978 0.0
H1379 H 0.2657 0.52695 0.51404 0.0
H1380 H 0.38597 0.55631 0.51436 0.0
H1381 H 0.34321 0.5362 0.52066 0.0
H1382 H 0.32217 0.57369 0.5507 0.0
C1383 C 0.24428 0.56383 0.53543 0.0
C1384 C 0.27756 0.53631 0.52237 0.0
C1385 C 0.22434 0.56563 0.5314 0.0
C1386 C 0.37903 0.56687 0.51911 0.0
C1387 C 0.35458 0.55535 0.52272 0.0
C1388 C 0.30986 0.56305 0.54277 0.0
C1389 C 0.24556 0.54293 0.53252 0.0
C1390 C 0.26931 0.54399 0.53333 0.0
C1391 C 0.34489 0.56853 0.52876 0.0
C1392 C 0.31851 0.55724 0.53125 0.0
H1393 H 0.19063 0.50966 0.51747 0.0
H1394 H 0.22567 0.50646 0.52453 0.0
H1395 H 0.27956 0.56226 0.55248 0.0
H1396 H 0.3959 0.62406 0.52964 0.0
H1397 H 0.35326 0.60411 0.53577 0.0
C1398 C 0.48997 0.68553 0.548 0.0
C1399 C 0.49876 0.68748 0.53493 0.0
C1400 C 0.49031 0.70547 0.55409 0.0
C1401 C 0.5072 0.77038 0.54789 0.0
H1402 H 0.4402 0.74604 0.55787 0.0
C1403 C 0.44991 0.80942 0.52899 0.0
C1404 C 0.43231 0.80977 0.53723 0.0
C1405 C 0.46425 0.8002 0.53372 0.0
C1406 C 0.45916 0.75333 0.55545 0.0
H1407 H 0.51792 0.71242 0.51876 0.0
H1408 H 0.51809 0.74674 0.5291 0.0
H1409 H 0.45647 0.71893 0.55812 0.0
H1410 H 0.41652 0.80174 0.55706 0.0
H1411 H 0.44123 0.78485 0.56523 0.0
H1412 H 0.5089 0.80428 0.54403 0.0
C1413 C 0.51095 0.73014 0.53481 0.0
C1414 C 0.46861 0.73777 0.55564 0.0
C1415 C 0.5107 0.71032 0.52878 0.0
C1416 C 0.42992 0.80158 0.55048 0.0
C1417 C 0.44405 0.79198 0.55516 0.0
C1418 C 0.49762 0.78586 0.54754 0.0
C1419 C 0.49933 0.72755 0.54715 0.0
C1420 C 0.49234 0.74573 0.55113 0.0
C1421 C 0.46107 0.79085 0.54674 0.0
C1422 C 0.47315 0.77709 0.55065 0.0
H1423 H 0.4809 0.66817 0.55304 0.0
H1424 H 0.48181 0.70302 0.56377 0.0
H1425 H 0.52574 0.7773 0.5447 0.0
H1426 H 0.45224 0.81577 0.51876 0.0
H1427 H 0.47695 0.79921 0.52692 0.0
C1428 C 0.30904 0.77728 0.54548 0.0
C1429 C 0.31735 0.79929 0.5387 0.0
C1430 C 0.28432 0.7608 0.54642 0.0
C1431 C 0.23122 0.72556 0.5463 0.0
H1432 H 0.20739 0.7207 0.51018 0.0
C1433 C 0.16634 0.63266 0.52401 0.0
C1434 C 0.17489 0.62934 0.5117 0.0
C1435 C 0.1748 0.656 0.52907 0.0
C1436 C 0.21362 0.72179 0.52037 0.0
H1437 H 0.30642 0.82284 0.52917 0.0
H1438 H 0.26303 0.79416 0.53103 0.0
H1439 H 0.24019 0.75903 0.51809 0.0
H1440 H 0.19763 0.64776 0.49464 0.0
H1441 H 0.21278 0.68813 0.50348 0.0
H1442 H 0.20653 0.68758 0.54799 0.0
C1443 C 0.27563 0.78931 0.5353 0.0
C1444 C 0.23227 0.74398 0.52501 0.0
C1445 C 0.30048 0.80582 0.53431 0.0
C1446 C 0.1908 0.64973 0.50417 0.0
C1447 C 0.19927 0.67297 0.50922 0.0
C1448 C 0.21285 0.70325 0.54157 0.0
C1449 C 0.26733 0.766 0.54062 0.0
C1450 C 0.24246 0.7457 0.53772 0.0
C1451 C 0.19197 0.67642 0.52191 0.0
C1452 C 0.20504 0.70081 0.52822 0.0
H1453 H 0.32164 0.77189 0.54912 0.0
H1454 H 0.27886 0.7431 0.55055 0.0
H1455 H 0.23807 0.72644 0.55632 0.0
H1456 H 0.15388 0.61721 0.52998 0.0
H1457 H 0.16858 0.65801 0.53879 0.0
C1458 C 0.22221 0.69947 0.31037 0.0
C1459 C 0.21993 0.7071 0.32316 0.0
C1460 C 0.20739 0.67543 0.30646 0.0
C1461 C 0.17383 0.61547 0.32229 0.0
H1462 H 0.1659 0.59478 0.2853 0.0
C1463 C 0.16037 0.52316 0.31051 0.0
C1464 C 0.18059 0.52637 0.3032 0.0
C1465 C 0.15383 0.54105 0.31036 0.0
C1466 C 0.16758 0.6002 0.29568 0.0
H1467 H 0.19898 0.69631 0.34144 0.0
H1468 H 0.17232 0.65446 0.33444 0.0
H1469 H 0.17497 0.63587 0.29064 0.0
H1470 H 0.20773 0.54902 0.28867 0.0
H1471 H 0.19624 0.58013 0.28834 0.0
H1472 H 0.16724 0.58015 0.32729 0.0
C1473 C 0.18617 0.66676 0.32758 0.0
C1474 C 0.173 0.62379 0.29876 0.0
C1475 C 0.20135 0.69075 0.33159 0.0
C1476 C 0.19221 0.5462 0.29449 0.0
C1477 C 0.18551 0.56396 0.29424 0.0
C1478 C 0.16801 0.59184 0.31922 0.0
C1479 C 0.18964 0.65852 0.31517 0.0
C1480 C 0.17754 0.63214 0.31206 0.0
C1481 C 0.16723 0.56224 0.30279 0.0
C1482 C 0.16606 0.58436 0.30586 0.0
H1483 H 0.23637 0.71172 0.30363 0.0
H1484 H 0.211 0.6699 0.29692 0.0
H1485 H 0.17736 0.62107 0.33264 0.0
H1486 H 0.15095 0.50794 0.31724 0.0
H1487 H 0.13951 0.53919 0.31693 0.0
C1488 C 0.2978 0.53129 0.29402 0.0
C1489 C 0.28766 0.51526 0.30481 0.0
C1490 C 0.32238 0.54137 0.29098 0.0
C1491 C 0.37895 0.55643 0.30832 0.0
H1492 H 0.40707 0.58162 0.27354 0.0
C1493 C 0.47693 0.62979 0.30572 0.0
C1494 C 0.47887 0.65062 0.29974 0.0
C1495 C 0.45689 0.60703 0.30305 0.0
C1496 C 0.3995 0.57447 0.28329 0.0
H1497 H 0.29457 0.49556 0.32019 0.0
H1498 H 0.3372 0.51244 0.31464 0.0
H1499 H 0.36383 0.55217 0.27536 0.0
H1500 H 0.46331 0.66371 0.28496 0.0
H1501 H 0.42837 0.62422 0.28042 0.0
H1502 H 0.41413 0.57937 0.31636 0.0
C1503 C 0.32651 0.51796 0.30878 0.0
C1504 C 0.37473 0.55772 0.28435 0.0
C1505 C 0.30206 0.50821 0.31195 0.0
C1506 C 0.46213 0.64798 0.28983 0.0
C1507 C 0.44213 0.62525 0.28717 0.0
C1508 C 0.40363 0.57298 0.30725 0.0
C1509 C 0.3372 0.53533 0.29858 0.0
C1510 C 0.36399 0.54924 0.29695 0.0
C1511 C 0.43854 0.60478 0.29436 0.0
C1512 C 0.41404 0.58293 0.2948 0.0
H1513 H 0.28705 0.53698 0.28834 0.0
H1514 H 0.32997 0.55488 0.28316 0.0
H1515 H 0.3714 0.55065 0.31822 0.0
H1516 H 0.48972 0.63126 0.3133 0.0
H1517 H 0.45485 0.59147 0.30855 0.0
C1518 C 0.3368 0.772 0.3081 0.0
C1519 C 0.33488 0.79116 0.31365 0.0
C1520 C 0.35886 0.7759 0.30315 0.0
C1521 C 0.40692 0.78754 0.29178 0.0
H1522 H 0.45505 0.81879 0.31958 0.0
C1523 C 0.48362 0.76606 0.29851 0.0
C1524 C 0.48476 0.75913 0.3117 0.0
C1525 C 0.47128 0.77851 0.29562 0.0
C1526 C 0.44194 0.81022 0.31163 0.0
H1527 H 0.35389 0.82981 0.31741 0.0
H1528 H 0.39283 0.8367 0.3088 0.0
H1529 H 0.42035 0.82483 0.31874 0.0
H1530 H 0.47504 0.76079 0.33226 0.0
H1531 H 0.45329 0.782 0.32725 0.0
H1532 H 0.42731 0.77107 0.28546 0.0
C1533 C 0.37722 0.81862 0.30835 0.0
C1534 C 0.42218 0.81394 0.31103 0.0
C1535 C 0.35497 0.81471 0.31323 0.0
C1536 C 0.47437 0.76581 0.32199 0.0
C1537 C 0.46213 0.77825 0.31912 0.0
C1538 C 0.4266 0.78369 0.29243 0.0
C1539 C 0.37958 0.79906 0.30371 0.0
C1540 C 0.40372 0.80147 0.30159 0.0
C1541 C 0.45999 0.78432 0.30588 0.0
C1542 C 0.44354 0.79387 0.30286 0.0
H1543 H 0.32152 0.75368 0.30819 0.0
H1544 H 0.35998 0.76033 0.29982 0.0
H1545 H 0.39323 0.7781 0.2842 0.0
H1546 H 0.49163 0.76127 0.29039 0.0
H1547 H 0.47006 0.78306 0.28533 0.0
C1548 C 0.10269 0.16047 0.30963 0.0
C1549 C 0.10106 0.14477 0.31993 0.0
C1550 C 0.10258 0.15408 0.29628 0.0
C1551 C 0.08977 0.10314 0.27351 0.0
H1552 H 0.14008 0.1541 0.25204 0.0
C1553 C 0.12379 0.08585 0.22326 0.0
C1554 C 0.1305 0.10345 0.21321 0.0
C1555 C 0.11694 0.08966 0.2359 0.0
C1556 C 0.12566 0.13975 0.25779 0.0
H1557 H 0.09688 0.10959 0.32437 0.0
H1558 H 0.09696 0.0985 0.30102 0.0
H1559 H 0.13343 0.16282 0.27474 0.0
H1560 H 0.13418 0.13825 0.20826 0.0
H1561 H 0.12187 0.14472 0.23018 0.0
H1562 H 0.08234 0.07998 0.25653 0.0
C1563 C 0.0981 0.11567 0.30325 0.0
C1564 C 0.12183 0.14475 0.27083 0.0
C1565 C 0.09816 0.12205 0.31662 0.0
C1566 C 0.12934 0.12446 0.21586 0.0
C1567 C 0.1224 0.12822 0.22844 0.0
C1568 C 0.09359 0.09812 0.26042 0.0
C1569 C 0.10093 0.13188 0.29295 0.0
C1570 C 0.10392 0.12651 0.27887 0.0
C1571 C 0.11661 0.11112 0.2387 0.0
C1572 C 0.11166 0.11637 0.25243 0.0
H1573 H 0.10476 0.17803 0.31187 0.0
H1574 H 0.10432 0.16678 0.28857 0.0
H1575 H 0.0757 0.08875 0.27943 0.0
H1576 H 0.12453 0.06947 0.22149 0.0
H1577 H 0.11278 0.07621 0.24361 0.0
C1578 C 0.83762 0.01101 0.22466 0.0
C1579 C 0.85986 0.02279 0.21788 0.0
C1580 C 0.83675 0.00565 0.23823 0.0
C1581 C 0.87215 0.0237 0.26904 0.0
H1582 H 0.82278 0.96016 0.28123 0.0
C1583 C 0.86105 0.99453 0.32482 0.0
C1584 C 0.8371 0.98131 0.3295 0.0
C1585 C 0.86574 -0.00071 0.31116 0.0
C1586 C 0.83654 0.97806 0.27802 0.0
H1587 H 0.89869 0.03846 0.21998 0.0
H1588 H 0.89716 0.02924 0.24387 0.0
H1589 H 0.82749 0.96921 0.25743 0.0
H1590 H 0.79932 0.96299 0.32361 0.0
H1591 H 0.8074 0.97162 0.29995 0.0
H1592 H 0.88075 0.03277 0.28969 0.0
C1593 C 0.88043 0.02416 0.23862 0.0
C1594 C 0.83927 0.9832 0.26438 0.0
C1595 C 0.88129 0.02933 0.22497 0.0
C1596 C 0.81798 0.97308 0.32031 0.0
C1597 C 0.82263 0.97789 0.30671 0.0
C1598 C 0.86931 0.0186 0.28274 0.0
C1599 C 0.85811 0.01209 0.24535 0.0
C1600 C 0.8568 0.00619 0.25976 0.0
C1601 C 0.84655 0.99092 0.30194 0.0
C1602 C 0.85115 0.99585 0.28739 0.0
H1603 H 0.82081 0.00579 0.21948 0.0
H1604 H 0.81932 0.99665 0.24319 0.0
H1605 H 0.88573 0.04162 0.26575 0.0
H1606 H 0.87614 0.00106 0.3317 0.0
H1607 H 0.88437 0.00923 0.3078 0.0
C1608 C 0.02468 0.88341 0.29129 0.0
C1609 C 0.01562 0.86221 0.299 0.0
C1610 C 0.02067 0.88199 0.27748 0.0
C1611 C 0.00467 0.83956 0.24907 0.0
H1612 H 0.98449 0.88096 0.23172 0.0
C1613 C 0.95927 0.81681 0.19771 0.0
C1614 C 0.96655 0.83558 0.18833 0.0
C1615 C 0.96719 0.82191 0.21091 0.0
C1616 C 0.99043 0.86951 0.2364 0.0
H1617 H 0.99512 0.82294 0.29837 0.0
H1618 H 0.98793 0.82045 0.27442 0.0
H1619 H 0.99499 0.88658 0.25546 0.0
H1620 H 0.98761 0.87446 0.18543 0.0
H1621 H 0.00146 0.88344 0.20867 0.0
H1622 H -0.00032 0.82218 0.23014 0.0
C1623 C -0.00154 0.83818 0.27894 0.0
C1624 C -0.00354 0.87273 0.24998 0.0
C1625 C 0.00244 0.83961 0.29268 0.0
C1626 C 0.98172 0.85964 0.19246 0.0
C1627 C 0.98957 0.86478 0.20575 0.0
C1628 C -0.0014 0.83632 0.23555 0.0
C1629 C 0.0076 0.85932 0.27115 0.0
C1630 C 0.00319 0.85746 0.25652 0.0
C1631 C 0.98253 0.84591 0.21507 0.0
C1632 C 0.99097 0.85094 0.22913 0.0
H1633 H 0.03494 0.90108 0.2959 0.0
H1634 H 0.02807 0.89859 0.27175 0.0
H1635 H 0.01033 0.82787 0.25374 0.0
H1636 H 0.94752 0.79808 0.19484 0.0
H1637 H 0.96113 0.80702 0.2179 0.0
C1638 C 0.88287 0.83066 0.69053 0.0
C1639 C 0.8854 0.84683 0.68029 0.0
C1640 C 0.88316 0.83698 0.7039 0.0
C1641 C 0.87116 0.87677 0.72518 0.0
H1642 H 0.89779 0.85418 0.75277 0.0
C1643 C 0.86253 0.89168 0.78154 0.0
C1644 C 0.85405 0.87069 0.78938 0.0
C1645 C 0.87013 0.89203 0.76839 0.0
C1646 C 0.89026 0.86059 0.74517 0.0
H1647 H 0.89098 0.88259 0.676 0.0
H1648 H 0.8918 0.89382 0.69945 0.0
H1649 H 0.90495 0.8494 0.72933 0.0
H1650 H 0.84746 0.83386 0.78977 0.0
H1651 H 0.86078 0.8345 0.7669 0.0
H1652 H 0.85614 0.88761 0.74107 0.0
C1653 C 0.88926 0.87611 0.69711 0.0
C1654 C 0.89432 0.85782 0.73175 0.0
C1655 C 0.88894 0.86975 0.6837 0.0
C1656 C 0.85389 0.8503 0.78396 0.0
C1657 C 0.86168 0.85072 0.77089 0.0
C1658 C 0.86721 0.87966 0.73862 0.0
C1659 C 0.88605 0.85965 0.70736 0.0
C1660 C 0.88432 0.86534 0.72158 0.0
C1661 C 0.86964 0.87148 0.76291 0.0
C1662 C 0.87625 0.87108 0.74875 0.0
H1663 H 0.88003 0.81283 0.68822 0.0
H1664 H 0.88025 0.8237 0.7115 0.0
H1665 H 0.86295 0.88252 0.71762 0.0
H1666 H 0.86284 0.90766 0.78548 0.0
H1667 H 0.87632 0.90833 0.76249 0.0
C1668 C 0.10838 0.97886 0.79779 0.0
C1669 C 0.11505 0.96198 0.80199 0.0
C1670 C 0.10861 0.98419 0.7842 0.0
C1671 C 0.11057 0.96131 0.75029 0.0
H1672 H 0.13912 0.02874 0.73988 0.0
C1673 C 0.14948 0.99529 0.69796 0.0
C1674 C 0.14427 0.01185 0.69166 0.0
C1675 C 0.14302 0.98876 0.71127 0.0
C1676 C 0.13079 0.00981 0.74263 0.0
H1677 H 0.12681 0.93719 0.79528 0.0
H1678 H 0.12758 0.94667 0.77173 0.0
H1679 H 0.13256 0.0178 0.76351 0.0
H1680 H 0.12835 0.03466 0.69435 0.0
H1681 H 0.11728 0.02338 0.71779 0.0
H1682 H 0.10957 0.95344 0.72944 0.0
C1683 C 0.12176 0.95554 0.77882 0.0
C1684 C 0.12697 0.00351 0.75617 0.0
C1685 C 0.12147 0.95021 0.79236 0.0
C1686 C 0.13256 0.02183 0.69896 0.0
C1687 C 0.12631 0.01546 0.71237 0.0
C1688 C 0.11454 0.96762 0.73679 0.0
C1689 C 0.11552 0.97273 0.77456 0.0
C1690 C 0.11725 0.97922 0.76017 0.0
C1691 C 0.1314 -0.00124 0.71862 0.0
C1692 C 0.1251 0.99197 0.73284 0.0
H1693 H 0.10332 0.9882 0.805 0.0
H1694 H 0.10346 0.99732 0.78124 0.0
H1695 H 0.10254 0.94238 0.75298 0.0
H1696 H 0.1585 0.9873 0.6926 0.0
H1697 H 0.14749 0.97611 0.71588 0.0
C1698 C 0.97985 0.14722 0.69884 0.0
C1699 C 0.96685 0.1248 0.69232 0.0
C1700 C 0.98773 0.14843 0.71196 0.0
C1701 C 0.97573 0.11449 0.74294 0.0
H1702 H 0.04215 0.16264 0.75125 0.0
C1703 C 0.01427 0.1283 0.79671 0.0
C1704 C 0.02867 0.15253 0.80075 0.0
C1705 C 0.00769 0.12267 0.78328 0.0
C1706 C 0.0235 0.14922 0.74914 0.0
H1707 H 0.95145 0.08598 0.69447 0.0
H1708 H 0.96497 0.08811 0.71763 0.0
H1709 H 0.02811 0.15704 0.7282 0.0
H1710 H 0.04766 0.18983 0.79393 0.0
H1711 H 0.03589 0.18015 0.77071 0.0
H1712 H 0.97082 0.10729 0.76394 0.0
C1713 C 0.96912 0.10471 0.7125 0.0
C1714 C 0.01551 0.14598 0.73593 0.0
C1715 C 0.96146 0.10351 0.69927 0.0
C1716 C 0.03666 0.17096 0.79112 0.0
C1717 C 0.03002 0.16538 0.77776 0.0
C1718 C 0.98367 0.11789 0.75621 0.0
C1719 C 0.98259 0.12723 0.71889 0.0
C1720 C 0.99144 0.12893 0.73274 0.0
C1721 C 0.01536 0.14119 0.77367 0.0
C1722 C 0.00753 0.13566 0.75949 0.0
H1723 H 0.98426 0.16393 0.69375 0.0
H1724 H -0.00221 0.166 0.71672 0.0
H1725 H 0.95705 0.10129 0.74074 0.0
H1726 H 0.00788 0.11372 0.80393 0.0
H1727 H -0.0034 0.10384 0.78044 0.0
C1728 C 0.81208 0.49844 0.53367 0.0
C1729 C 0.80449 0.47601 0.52748 0.0
C1730 C 0.80798 0.49962 0.54726 0.0
C1731 C 0.77215 0.46372 0.57631 0.0
H1732 H 0.82567 0.51449 0.59621 0.0
C1733 C 0.77526 0.47059 0.63436 0.0
C1734 C 0.78474 0.49398 0.63971 0.0
C1735 C 0.77603 0.46732 0.62058 0.0
C1736 C 0.81045 0.50037 0.59078 0.0
H1737 H 0.78604 0.43715 0.53056 0.0
H1738 H 0.77906 0.43921 0.55443 0.0
H1739 H 0.82986 0.5107 0.57234 0.0
H1740 H 0.80167 0.53219 0.63484 0.0
H1741 H 0.80282 0.5265 0.61087 0.0
H1742 H 0.75284 0.45338 0.5949 0.0
C1743 C 0.78799 0.45587 0.54872 0.0
C1744 C 0.81284 0.49821 0.57709 0.0
C1745 C 0.79206 0.45469 0.53507 0.0
C1746 C 0.79436 0.51395 0.63102 0.0
C1747 C 0.79515 0.5107 0.6173 0.0
C1748 C 0.76977 0.46587 0.59007 0.0
C1749 C 0.79629 0.4784 0.555 0.0
C1750 C 0.79365 0.48004 0.56965 0.0
C1751 C 0.78636 0.48741 0.61193 0.0
C1752 C 0.78883 0.4844 0.59742 0.0
H1753 H 0.82155 0.51518 0.52806 0.0
H1754 H 0.81415 0.51722 0.55173 0.0
H1755 H 0.75699 0.44962 0.57084 0.0
H1756 H 0.76774 0.45487 0.64084 0.0
H1757 H 0.76922 0.44917 0.61674 0.0
C1758 C 0.54081 0.3385 0.5249 0.0
C1759 C 0.54419 0.3609 0.52049 0.0
C1760 C 0.54177 0.33421 0.53853 0.0
C1761 C 0.53323 0.35563 0.57114 0.0
H1762 H 0.55784 0.31557 0.58538 0.0
C1763 C 0.53135 0.3381 0.6274 0.0
C1764 C 0.52222 0.31385 0.6312 0.0
C1765 C 0.53771 0.3452 0.61413 0.0
C1766 C 0.55081 0.32671 0.58152 0.0
H1767 H 0.55256 0.39682 0.52674 0.0
H1768 H 0.55478 0.38957 0.55046 0.0
H1769 H 0.56268 0.32583 0.56161 0.0
H1770 H 0.51359 0.27822 0.62423 0.0
H1771 H 0.52452 0.29059 0.60099 0.0
H1772 H 0.52106 0.35629 0.59092 0.0
C1773 C 0.55078 0.37508 0.54347 0.0
C1774 C 0.55356 0.33256 0.56792 0.0
C1775 C 0.54966 0.3793 0.52987 0.0
C1776 C 0.52056 0.29704 0.62158 0.0
C1777 C 0.52693 0.30415 0.60829 0.0
C1778 C 0.53056 0.34985 0.5847 0.0
C1779 C 0.54626 0.3523 0.548 0.0
C1780 C 0.54466 0.34699 0.56255 0.0
C1781 C 0.53506 0.3282 0.60437 0.0
C1782 C 0.53918 0.33522 0.59005 0.0
H1783 H 0.53652 0.32397 0.51788 0.0
H1784 H 0.538 0.3164 0.54167 0.0
H1785 H 0.52565 0.36632 0.56732 0.0
H1786 H 0.533 0.35152 0.63461 0.0
H1787 H 0.54431 0.36395 0.61147 0.0
C1788 C 0.63508 0.19301 0.53468 0.0
C1789 C 0.6289 0.17027 0.52933 0.0
C1790 C 0.63938 0.19739 0.54839 0.0
C1791 C 0.63014 0.16528 0.58087 0.0
H1792 H 0.68447 0.2263 0.59269 0.0
C1793 C 0.67715 0.17626 0.63118 0.0
C1794 C 0.6807 0.19571 0.63931 0.0
C1795 C 0.66936 0.17463 0.61802 0.0
C1796 C 0.66907 0.20931 0.58952 0.0
H1797 H 0.62236 0.1343 0.53407 0.0
H1798 H 0.63043 0.14202 0.55777 0.0
H1799 H 0.67308 0.22054 0.56908 0.0
H1800 H 0.67939 0.22903 0.63998 0.0
H1801 H 0.66625 0.22644 0.61667 0.0
H1802 H 0.6269 0.15372 0.60122 0.0
C1803 C 0.63139 0.15637 0.55155 0.0
C1804 C 0.66247 0.20601 0.57602 0.0
C1805 C 0.62692 0.15197 0.53792 0.0
C1806 C 0.67675 0.21381 0.63392 0.0
C1807 C 0.66931 0.21238 0.62063 0.0
C1808 C 0.63694 0.16849 0.59429 0.0
C1809 C 0.63771 0.17913 0.55699 0.0
C1810 C 0.64322 0.18374 0.57149 0.0
C1811 C 0.66527 0.19259 0.61263 0.0
C1812 C 0.65673 0.19034 0.59869 0.0
H1813 H 0.63667 0.20744 0.52828 0.0
H1814 H 0.64396 0.21504 0.55226 0.0
H1815 H 0.61483 0.14814 0.57782 0.0
H1816 H 0.68003 0.16203 0.63506 0.0
H1817 H 0.66664 0.15934 0.612 0.0
C1818 C 0.54292 0.19899 0.0476 0.0
C1819 C 0.52415 0.17741 0.04215 0.0
C1820 C 0.5423 0.20458 0.06108 0.0
C1821 C 0.49999 0.19291 0.08838 0.0
H1822 H 0.55304 0.20667 0.1124 0.0
C1823 C 0.48659 0.18468 0.14503 0.0
C1824 C 0.50547 0.20062 0.15344 0.0
C1825 C 0.4902 0.18484 0.13129 0.0
C1826 C 0.53824 0.20334 0.1058 0.0
H1827 H 0.49007 0.14481 0.04645 0.0
H1828 H 0.48882 0.15479 0.06982 0.0
H1829 H 0.55732 0.20185 0.08849 0.0
H1830 H 0.54291 0.22952 0.15408 0.0
H1831 H 0.54915 0.23023 0.12993 0.0
H1832 H 0.48085 0.19444 0.10551 0.0
C1833 C 0.50401 0.16732 0.06372 0.0
C1834 C 0.5407 0.20051 0.09213 0.0
C1835 C 0.50481 0.16156 0.05038 0.0
C1836 C 0.52804 0.21698 0.14782 0.0
C1837 C 0.53164 0.21728 0.134 0.0
C1838 C 0.49763 0.19602 0.10198 0.0
C1839 C 0.52268 0.18889 0.0692 0.0
C1840 C 0.52135 0.19468 0.08337 0.0
C1841 C 0.51275 0.20114 0.12557 0.0
C1842 C 0.51646 0.20062 0.11093 0.0
H1843 H 0.55806 0.21149 0.04147 0.0
H1844 H 0.5569 0.22132 0.0651 0.0
H1845 H 0.48495 0.1888 0.08178 0.0
H1846 H 0.46903 0.17173 0.14907 0.0
H1847 H 0.47539 0.17177 0.12518 0.0
C1848 C 0.84086 0.33316 0.05492 0.0
C1849 C 0.82915 0.34369 0.04814 0.0
C1850 C 0.8379 0.32922 0.06867 0.0
C1851 C 0.79809 0.32251 0.09691 0.0
H1852 H 0.85534 0.33879 0.11792 0.0
C1853 C 0.79788 0.31923 0.1549 0.0
C1854 C 0.81152 0.30991 0.16079 0.0
C1855 C 0.79921 0.32352 0.14113 0.0
C1856 C 0.83913 0.3339 0.11219 0.0
H1857 H 0.80485 0.358 0.05036 0.0
H1858 H 0.79971 0.35113 0.07448 0.0
H1859 H 0.85906 0.34588 0.09393 0.0
H1860 H 0.83678 0.29726 0.15688 0.0
H1861 H 0.83885 0.30441 0.13292 0.0
H1862 H 0.77814 0.31035 0.11523 0.0
C1863 C 0.81107 0.34583 0.06912 0.0
C1864 C 0.84127 0.33799 0.09844 0.0
C1865 C 0.8141 0.34985 0.05534 0.0
C1866 C 0.82618 0.30461 0.15264 0.0
C1867 C 0.82748 0.30885 0.13892 0.0
C1868 C 0.79593 0.31836 0.1107 0.0
C1869 C 0.82314 0.33568 0.07594 0.0
C1870 C 0.82076 0.33211 0.09063 0.0
C1871 C 0.81421 0.31857 0.13301 0.0
C1872 C 0.81641 0.32378 0.11846 0.0
H1873 H 0.85248 0.32812 0.04963 0.0
H1874 H 0.84713 0.32101 0.07361 0.0
H1875 H 0.78194 0.31763 0.09113 0.0
H1876 H 0.78643 0.3235 0.16095 0.0
H1877 H 0.7889 0.33118 0.13689 0.0
C1878 C 0.71975 0.50684 0.14588 0.0
C1879 C 0.70564 0.48835 0.15501 0.0
C1880 C 0.7156 0.50301 0.13218 0.0
C1881 C 0.68688 0.45644 0.10603 0.0
H1882 H 0.68194 0.5071 0.08737 0.0
C1883 C 0.64716 0.44449 0.05266 0.0
C1884 C 0.65749 0.46478 0.04419 0.0
C1885 C 0.65458 0.44664 0.06598 0.0
C1886 C 0.68364 0.49294 0.09234 0.0
H1887 H 0.67682 0.45103 0.15697 0.0
H1888 H 0.66954 0.44432 0.13293 0.0
H1889 H 0.69251 0.51197 0.11092 0.0
H1890 H 0.68435 0.50293 0.04279 0.0
H1891 H 0.6977 0.50658 0.06588 0.0
H1892 H 0.678 0.43741 0.08738 0.0
C1893 C 0.68386 0.46174 0.1364 0.0
C1894 C 0.68966 0.49572 0.10587 0.0
C1895 C 0.68796 0.4656 0.15015 0.0
C1896 C 0.6759 0.48703 0.04913 0.0
C1897 C 0.68343 0.48914 0.06239 0.0
C1898 C 0.68099 0.4537 0.09243 0.0
C1899 C 0.69729 0.48061 0.12731 0.0
C1900 C 0.69135 0.47753 0.11286 0.0
C1901 C 0.67257 0.46909 0.07106 0.0
C1902 C 0.67929 0.47194 0.08543 0.0
H1903 H 0.7336 0.52452 0.14932 0.0
H1904 H 0.72649 0.51776 0.1254 0.0
H1905 H 0.68821 0.44219 0.11117 0.0
H1906 H 0.6329 0.42711 0.04911 0.0
H1907 H 0.64566 0.43089 0.0724 0.0
C1908 C 0.4465 0.80289 0.9538 0.0
C1909 C 0.45983 0.82629 0.95921 0.0
C1910 C 0.44673 0.79923 0.94003 0.0
C1911 C 0.46065 0.83162 0.90766 0.0
H1912 H 0.46959 0.77916 0.89497 0.0
C1913 C 0.49292 0.82951 0.8544 0.0
C1914 C 0.4823 0.80725 0.84763 0.0
C1915 C 0.48774 0.83053 0.86785 0.0
C1916 C 0.46673 0.79368 0.89835 0.0
H1917 H 0.48367 0.86423 0.95448 0.0
H1918 H 0.48423 0.85788 0.93056 0.0
H1919 H 0.46469 0.78323 0.91885 0.0
H1920 H 0.45786 0.76857 0.84958 0.0
H1921 H 0.44872 0.77036 0.87315 0.0
H1922 H 0.46311 0.84233 0.88721 0.0
C1923 C 0.47335 0.84235 0.93688 0.0
C1924 C 0.4639 0.796 0.91202 0.0
C1925 C 0.47315 0.84598 0.9506 0.0
C1926 C 0.46631 0.78599 0.85456 0.0
C1927 C 0.46117 0.787 0.86806 0.0
C1928 C 0.46349 0.82932 0.89402 0.0
C1929 C 0.46022 0.81894 0.93142 0.0
C1930 C 0.46123 0.81524 0.91685 0.0
C1931 C 0.47185 0.8093 0.87484 0.0
C1932 C 0.46695 0.81056 0.88922 0.0
H1933 H 0.43605 0.78737 0.96021 0.0
H1934 H 0.43626 0.78101 0.93611 0.0
H1935 H 0.45814 0.84636 0.91104 0.0
H1936 H 0.50538 0.8462 0.84934 0.0
H1937 H 0.49655 0.84794 0.87283 0.0
C1938 C 0.18067 0.67463 0.93773 0.0
C1939 C 0.18453 0.65715 0.94401 0.0
C1940 C 0.18844 0.68183 0.92463 0.0
C1941 C 0.20047 0.66021 0.89357 0.0
H1942 H 0.23086 0.72774 0.88309 0.0
C1943 C 0.22124 0.68951 0.83824 0.0
C1944 C 0.21513 0.70684 0.83414 0.0
C1945 C 0.22182 0.68466 0.85183 0.0
C1946 C 0.22226 0.70878 0.88583 0.0
H1947 H 0.19975 0.63366 0.9416 0.0
H1948 H 0.21305 0.64604 0.91853 0.0
H1949 H 0.2236 0.71689 0.90668 0.0
H1950 H 0.20536 0.73306 0.84103 0.0
H1951 H 0.20589 0.72435 0.86459 0.0
H1952 H 0.19814 0.65194 0.87273 0.0
C1953 C 0.20407 0.65418 0.9238 0.0
C1954 C 0.21819 0.7026 0.89934 0.0
C1955 C 0.19654 0.64718 0.93699 0.0
C1956 C 0.21021 0.71965 0.84387 0.0
C1957 C 0.2107 0.71476 0.85741 0.0
C1958 C 0.20436 0.66636 0.88003 0.0
C1959 C 0.20002 0.67152 0.91749 0.0
C1960 C 0.2068 0.67823 0.90332 0.0
C1961 C 0.21625 0.69703 0.86158 0.0
C1962 C 0.21482 0.6907 0.87598 0.0
H1963 H 0.17149 0.68265 0.9429 0.0
H1964 H 0.18482 0.69502 0.91997 0.0
H1965 H 0.19148 0.64125 0.89636 0.0
H1966 H 0.22518 0.67941 0.83094 0.0
H1967 H 0.22645 0.6711 0.8547 0.0
C1968 C 0.2728 0.49066 0.85514 0.0
C1969 C 0.28573 0.5089 0.84566 0.0
C1970 C 0.27869 0.49485 0.86866 0.0
C1971 C 0.31122 0.54218 0.89409 0.0
H1972 H 0.31741 0.4914 0.91174 0.0
C1973 C 0.3571 0.55439 0.94581 0.0
C1974 C 0.34715 0.5343 0.95442 0.0
C1975 C 0.34829 0.5522 0.93278 0.0
C1976 C 0.31542 0.50562 0.90706 0.0
H1977 H 0.31424 0.54617 0.84293 0.0
H1978 H 0.32463 0.55348 0.86665 0.0
H1979 H 0.30396 0.48611 0.88867 0.0
H1980 H 0.31955 0.49649 0.95641 0.0
H1981 H 0.30388 0.49278 0.93385 0.0
H1982 H 0.32279 0.56172 0.91256 0.0
C1983 C 0.30986 0.53599 0.8636 0.0
C1984 C 0.30772 0.50258 0.89381 0.0
C1985 C 0.30398 0.53177 0.85003 0.0
C1986 C 0.32775 0.51223 0.94994 0.0
C1987 C 0.31886 0.51008 0.93698 0.0
C1988 C 0.31885 0.54519 0.90742 0.0
C1989 C 0.29764 0.51737 0.87301 0.0
C1990 C 0.30549 0.52078 0.88718 0.0
C1991 C 0.3293 0.5299 0.92816 0.0
C1992 C 0.32099 0.5269 0.91406 0.0
H1993 H 0.25853 0.47289 0.85208 0.0
H1994 H 0.26867 0.48029 0.87571 0.0
H1995 H 0.30952 0.55646 0.88925 0.0
H1996 H 0.37209 0.57164 0.94901 0.0
H1997 H 0.35687 0.56777 0.92621 0.0
C1998 C 0.19663 0.57214 0.45362 0.0
C1999 C 0.1898 0.55436 0.46358 0.0
C2000 C 0.20391 0.56869 0.44103 0.0
C2001 C 0.1971 0.51961 0.41886 0.0
H2002 H 0.24772 0.57192 0.39819 0.0
C2003 C 0.2251 0.50171 0.36769 0.0
C2004 C 0.22697 0.51746 0.35735 0.0
C2005 C 0.22378 0.50754 0.38098 0.0
C2006 C 0.23347 0.55719 0.40383 0.0
H2007 H 0.18613 0.51951 0.46839 0.0
H2008 H 0.19921 0.51368 0.44652 0.0
H2009 H 0.23951 0.57961 0.42099 0.0
H2010 H 0.22998 0.55211 0.35281 0.0
H2011 H 0.22747 0.56224 0.3761 0.0
H2012 H 0.19084 0.49725 0.40173 0.0
C2013 C 0.19847 0.53005 0.44832 0.0
C2014 C 0.22874 0.56157 0.41687 0.0
C2015 C 0.1911 0.53344 0.46086 0.0
C2016 C 0.22856 0.53964 0.36059 0.0
C2017 C 0.22721 0.54547 0.37392 0.0
C2018 C 0.20187 0.51523 0.40588 0.0
C2019 C 0.20457 0.54744 0.43818 0.0
C2020 C 0.21042 0.54283 0.42451 0.0
C2021 C 0.22424 0.5292 0.38422 0.0
C2022 C 0.22004 0.53396 0.3982 0.0
H2023 H 0.19579 0.58844 0.45544 0.0
H2024 H 0.20825 0.58234 0.43342 0.0
H2025 H 0.18253 0.50489 0.42433 0.0
H2026 H 0.22402 0.48457 0.36551 0.0
H2027 H 0.22194 0.49483 0.38871 0.0
C2028 C 0.51308 0.71089 0.37052 0.0
C2029 C 0.49571 0.69832 0.36059 0.0
C2030 C 0.50756 0.70488 0.38397 0.0
C2031 C 0.46586 0.6551 0.4061 0.0
H2032 H 0.49216 0.70573 0.43295 0.0
C2033 C 0.44762 0.63561 0.46282 0.0
C2034 C 0.46827 0.64729 0.47097 0.0
C2035 C 0.44879 0.64204 0.44935 0.0
C2036 C 0.48476 0.69139 0.42557 0.0
H2037 H 0.45883 0.66973 0.35691 0.0
H2038 H 0.44903 0.65937 0.38049 0.0
H2039 H 0.49787 0.71661 0.40936 0.0
H2040 H 0.50621 0.67504 0.47151 0.0
H2041 H 0.50823 0.68627 0.44809 0.0
H2042 H 0.45291 0.6299 0.42239 0.0
C2043 C 0.46703 0.6737 0.37786 0.0
C2044 C 0.48807 0.69761 0.41205 0.0
C2045 C 0.4726 0.6797 0.36437 0.0
C2046 C 0.48998 0.66572 0.46548 0.0
C2047 C 0.4911 0.67226 0.45208 0.0
C2048 C 0.46245 0.64888 0.41964 0.0
C2049 C 0.48449 0.6862 0.38781 0.0
C2050 C 0.47907 0.67954 0.40215 0.0
C2051 C 0.47057 0.66042 0.44385 0.0
C2052 C 0.47226 0.66697 0.42951 0.0
H2053 H 0.53109 0.72525 0.36792 0.0
H2054 H 0.52159 0.71458 0.39133 0.0
H2055 H 0.45891 0.64073 0.39874 0.0
H2056 H 0.43064 0.62132 0.46679 0.0
H2057 H 0.43265 0.63271 0.44326 0.0
C2058 C 0.38532 0.82345 0.47174 0.0
C2059 C 0.37013 0.80846 0.48197 0.0
C2060 C 0.3784 0.8182 0.45838 0.0
C2061 C 0.33684 0.77042 0.43515 0.0
H2062 H 0.34417 0.82491 0.41425 0.0
C2063 C 0.29133 0.75964 0.38348 0.0
C2064 C 0.30408 0.77767 0.37387 0.0
C2065 C 0.30041 0.76214 0.39647 0.0
C2066 C 0.34234 0.80954 0.41984 0.0
H2067 H 0.33624 0.77566 0.48622 0.0
H2068 H 0.32411 0.76646 0.4628 0.0
H2069 H 0.35846 0.83125 0.4372 0.0
H2070 H 0.33678 0.8119 0.37009 0.0
H2071 H 0.35291 0.81599 0.39258 0.0
H2072 H 0.32068 0.7487 0.41774 0.0
C2073 C 0.34141 0.78223 0.46514 0.0
C2074 C 0.35051 0.81318 0.43302 0.0
C2075 C 0.34832 0.78754 0.47854 0.0
C2076 C 0.32643 0.79781 0.37733 0.0
C2077 C 0.33559 0.80022 0.39025 0.0
C2078 C 0.32877 0.76678 0.4219 0.0
C2079 C 0.35616 0.79781 0.45494 0.0
C2080 C 0.34785 0.79369 0.44084 0.0
C2081 C 0.3225 0.78265 0.40006 0.0
C2082 C 0.33142 0.78632 0.41408 0.0
H2083 H 0.4023 0.83964 0.47406 0.0
H2084 H 0.39032 0.83033 0.45073 0.0
H2085 H 0.33471 0.75509 0.44091 0.0
H2086 H 0.27402 0.74393 0.38109 0.0
H2087 H 0.28973 0.74837 0.40379 0.0
C2088 C 0.24276 0.13441 0.19672 0.0
C2089 C 0.23327 0.12829 0.18376 0.0
C2090 C 0.26605 0.13879 0.19946 0.0
C2091 C 0.32282 0.14843 0.18318 0.0
H2092 H 0.33191 0.1247 0.21717 0.0
C2093 C 0.40575 0.1392 0.19331 0.0
C2094 C 0.42049 0.15539 0.20328 0.0
C2095 C 0.38159 0.13319 0.19214 0.0
C2096 C 0.3295 0.13133 0.20765 0.0
H2097 H 0.24068 0.12259 0.16339 0.0
H2098 H 0.28094 0.12925 0.16818 0.0
H2099 H 0.29306 0.12178 0.21214 0.0
H2100 H 0.42104 0.17592 0.22067 0.0
H2101 H 0.3784 0.16471 0.21883 0.0
H2102 H 0.35906 0.15711 0.17859 0.0
C2103 C 0.27085 0.13142 0.17622 0.0
C2104 C 0.30741 0.12996 0.2048 0.0
C2105 C 0.24773 0.12755 0.17344 0.0
C2106 C 0.41006 0.16345 0.21288 0.0
C2107 C 0.38574 0.15708 0.21183 0.0
C2108 C 0.34466 0.14931 0.18594 0.0
C2109 C 0.28011 0.13658 0.18933 0.0
C2110 C 0.30381 0.13856 0.19252 0.0
C2111 C 0.37173 0.14287 0.20109 0.0
C2112 C 0.34814 0.14078 0.19818 0.0
H2113 H 0.23193 0.13523 0.20483 0.0
H2114 H 0.2728 0.14342 0.20958 0.0
H2115 H 0.32098 0.1557 0.17376 0.0
H2116 H 0.41329 0.13269 0.18578 0.0
H2117 H 0.37096 0.12202 0.18385 0.0
C2118 C 0.85358 0.10911 0.16754 0.0
C2119 C 0.83837 0.08738 0.17431 0.0
C2120 C 0.85405 0.1305 0.17116 0.0
C2121 C 0.84317 0.15724 0.20083 0.0
H2122 H 0.85085 0.208 0.17658 0.0
C2123 C 0.83114 0.23758 0.21591 0.0
C2124 C 0.8443 0.25953 0.20894 0.0
C2125 C 0.83407 0.21787 0.21281 0.0
C2126 C 0.84921 0.19419 0.18349 0.0
H2127 H 0.81009 0.07045 0.18924 0.0
H2128 H 0.81057 0.10769 0.19536 0.0
H2129 H 0.84545 0.17007 0.1676 0.0
H2130 H 0.87282 0.27899 0.19441 0.0
H2131 H 0.87825 0.24463 0.18919 0.0
H2132 H 0.84674 0.18125 0.21672 0.0
C2133 C 0.82259 0.10834 0.18752 0.0
C2134 C 0.84592 0.1724 0.17833 0.0
C2135 C 0.82212 0.08697 0.18391 0.0
C2136 C 0.86231 0.26223 0.19989 0.0
C2137 C 0.86522 0.24249 0.19678 0.0
C2138 C 0.8465 0.17903 0.20599 0.0
C2139 C 0.83929 0.13048 0.18158 0.0
C2140 C 0.8426 0.1536 0.18695 0.0
C2141 C 0.85026 0.21979 0.20272 0.0
C2142 C 0.84934 0.19766 0.19738 0.0
H2143 H 0.86632 0.10997 0.16011 0.0
H2144 H 0.86708 0.14728 0.16638 0.0
H2145 H 0.84125 0.14329 0.20773 0.0
H2146 H 0.81718 0.235 0.22297 0.0
H2147 H 0.82226 0.20065 0.21759 0.0
C2148 C 0.9027 0.72904 0.15375 0.0
C2149 C 0.89882 0.74402 0.14502 0.0
C2150 C 0.88311 0.70796 0.15881 0.0
C2151 C 0.81806 0.66433 0.15596 0.0
H2152 H 0.82081 0.66462 0.19469 0.0
C2153 C 0.73895 0.59131 0.18613 0.0
C2154 C 0.74597 0.57989 0.19569 0.0
C2155 C 0.75601 0.61365 0.18073 0.0
C2156 C 0.81978 0.66418 0.18389 0.0
H2157 H 0.87176 0.74725 0.13351 0.0
H2158 H 0.83752 0.71008 0.14222 0.0
H2159 H 0.85454 0.69608 0.18206 0.0
H2160 H 0.77559 0.58399 0.20816 0.0
H2161 H 0.80527 0.62268 0.19874 0.0
H2162 H 0.78361 0.63204 0.15774 0.0
C2163 C 0.85567 0.71486 0.14528 0.0
C2164 C 0.83915 0.68212 0.17666 0.0
C2165 C 0.87529 0.73609 0.14025 0.0
C2166 C 0.76966 0.59232 0.20076 0.0
C2167 C 0.78671 0.61458 0.19535 0.0
C2168 C 0.79875 0.64619 0.1632 0.0
C2169 C 0.85936 0.70137 0.15514 0.0
C2170 C 0.83862 0.68218 0.16262 0.0
C2171 C 0.78035 0.62492 0.18482 0.0
C2172 C 0.79952 0.64575 0.17725 0.0
H2173 H 0.92065 0.73458 0.15752 0.0
H2174 H 0.88644 0.6975 0.16618 0.0
H2175 H 0.81721 0.66403 0.14515 0.0
H2176 H 0.72075 0.5822 0.18208 0.0
H2177 H 0.7504 0.62148 0.17288 0.0
C2178 C 0.19638 0.40829 0.31002 0.0
C2179 C 0.18424 0.41862 0.31657 0.0
C2180 C 0.19339 0.3861 0.31433 0.0
C2181 C 0.18069 0.3524 0.34545 0.0
H2182 H 0.17478 0.29962 0.32355 0.0
C2183 C 0.15373 0.2582 0.366 0.0
C2184 C 0.16157 0.2441 0.35922 0.0
C2185 C 0.16061 0.28149 0.36153 0.0
C2186 C 0.17697 0.31445 0.3298 0.0
H2187 H 0.15755 0.41277 0.33173 0.0
H2188 H 0.15215 0.37396 0.33912 0.0
H2189 H 0.17537 0.33437 0.31295 0.0
H2190 H 0.18503 0.24424 0.3435 0.0
H2191 H 0.19763 0.28522 0.33593 0.0
H2192 H 0.18235 0.33265 0.36229 0.0
C2193 C 0.1644 0.38325 0.3309 0.0
C2194 C 0.17707 0.33422 0.32371 0.0
C2195 C 0.16731 0.40533 0.32658 0.0
C2196 C 0.17851 0.25464 0.34883 0.0
C2197 C 0.18551 0.27799 0.3444 0.0
C2198 C 0.18077 0.33276 0.35152 0.0
C2199 C 0.17826 0.37402 0.32524 0.0
C2200 C 0.17851 0.35316 0.33151 0.0
C2201 C 0.17563 0.29115 0.35026 0.0
C2202 C 0.17855 0.31338 0.34379 0.0
H2203 H 0.20955 0.41815 0.30227 0.0
H2204 H 0.2042 0.37929 0.30976 0.0
H2205 H 0.18243 0.36709 0.35167 0.0
H2206 H 0.14068 0.25055 0.37406 0.0
H2207 H 0.15264 0.2911 0.36628 0.0
C2208 C 0.59797 0.78575 0.31681 0.0
C2209 C 0.58874 0.76197 0.3215 0.0
C2210 C 0.61886 0.80477 0.32243 0.0
C2211 C 0.65072 0.82004 0.35448 0.0
H2212 H 0.69777 0.8778 0.33574 0.0
C2213 C 0.7382 0.89751 0.37792 0.0
C2214 C 0.74676 0.92106 0.373 0.0
C2215 C 0.71698 0.87809 0.37281 0.0
C2216 C 0.68451 0.86193 0.34114 0.0
H2217 H 0.59542 0.73904 0.33477 0.0
H2218 H 0.63229 0.77227 0.34439 0.0
H2219 H 0.66771 0.84314 0.32306 0.0
H2220 H 0.73838 0.94322 0.3601 0.0
H2221 H 0.70108 0.90935 0.35136 0.0
H2222 H 0.66768 0.83887 0.37257 0.0
C2223 C 0.62299 0.77627 0.33662 0.0
C2224 C 0.66741 0.84202 0.33386 0.0
C2225 C 0.60207 0.75722 0.33099 0.0
C2226 C 0.73233 0.92523 0.36401 0.0
C2227 C 0.71113 0.90582 0.35889 0.0
C2228 C 0.66788 0.83996 0.36177 0.0
C2229 C 0.63096 0.80034 0.33282 0.0
C2230 C 0.65028 0.82087 0.34044 0.0
C2231 C 0.70398 0.88195 0.36272 0.0
C2232 C 0.68487 0.86116 0.35517 0.0
H2233 H 0.58809 0.78994 0.30949 0.0
H2234 H 0.6245 0.82309 0.31927 0.0
H2235 H 0.63743 0.80419 0.35988 0.0
H2236 H 0.74892 0.89376 0.38488 0.0
H2237 H 0.71188 0.85991 0.376 0.0
C2238 C 0.08484 0.83866 0.35692 0.0
C2239 C 0.06885 0.83183 0.34603 0.0
C2240 C 0.10463 0.83495 0.35653 0.0
C2241 C 0.1453 0.83243 0.33213 0.0
H2242 H 0.16683 0.80729 0.361 0.0
C2243 C 0.22095 0.80899 0.32585 0.0
C2244 C 0.23521 0.81108 0.33699 0.0
C2245 C 0.202 0.81385 0.32705 0.0
C2246 C 0.16134 0.81481 0.35294 0.0
H2247 H 0.05994 0.81423 0.32666 0.0
H2248 H 0.09453 0.8078 0.32601 0.0
H2249 H 0.12947 0.80862 0.36346 0.0
H2250 H 0.24226 0.82173 0.3578 0.0
H2251 H 0.20978 0.83115 0.35977 0.0
H2252 H 0.17724 0.83906 0.32165 0.0
C2253 C 0.09191 0.81626 0.33474 0.0
C2254 C 0.13985 0.81535 0.35433 0.0
C2255 C 0.07203 0.81976 0.33517 0.0
C2256 C 0.23137 0.81979 0.34908 0.0
C2257 C 0.21262 0.82493 0.35024 0.0
C2258 C 0.16692 0.83215 0.33078 0.0
C2259 C 0.10879 0.82454 0.34522 0.0
C2260 C 0.13152 0.82391 0.34387 0.0
C2261 C 0.19715 0.82117 0.33937 0.0
C2262 C 0.17509 0.82313 0.34112 0.0
H2263 H 0.0828 0.84801 0.36542 0.0
H2264 H 0.11741 0.84146 0.36474 0.0
H2265 H 0.13948 0.83958 0.32402 0.0
H2266 H 0.22346 0.80218 0.31643 0.0
H2267 H 0.19037 0.81058 0.31849 0.0
C2268 C 0.73881 0.8404 0.83589 0.0
C2269 C 0.75034 0.83464 0.82579 0.0
C2270 C 0.71616 0.83808 0.83358 0.0
C2271 C 0.67944 0.8384 0.80528 0.0
H2272 H 0.63053 0.82241 0.83251 0.0
C2273 C 0.58389 0.82493 0.79554 0.0
C2274 C 0.57444 0.8336 0.80538 0.0
C2275 C 0.60633 0.82651 0.79743 0.0
C2276 C 0.64419 0.82719 0.82485 0.0
H2277 H 0.74649 0.81994 0.80584 0.0
H2278 H 0.70657 0.81505 0.80197 0.0
H2279 H 0.66592 0.81868 0.83751 0.0
H2280 H 0.58181 0.85246 0.82435 0.0
H2281 H 0.62105 0.85536 0.82756 0.0
H2282 H 0.65745 0.84662 0.79259 0.0
C2283 C 0.71532 0.82216 0.81149 0.0
C2284 C 0.66441 0.82499 0.82771 0.0
C2285 C 0.73806 0.82471 0.81376 0.0
C2286 C 0.58858 0.84549 0.81663 0.0
C2287 C 0.61093 0.84696 0.81853 0.0
C2288 C 0.65911 0.84043 0.8024 0.0
C2289 C 0.70455 0.82972 0.82117 0.0
C2290 C 0.68233 0.83067 0.81797 0.0
C2291 C 0.61959 0.83671 0.80919 0.0
C2292 C 0.6414 0.83501 0.81219 0.0
H2293 H 0.74795 0.84822 0.84524 0.0
H2294 H 0.70844 0.84418 0.84123 0.0
H2295 H 0.69314 0.84342 0.79763 0.0
H2296 H 0.57335 0.81566 0.78678 0.0
H2297 H 0.61261 0.81847 0.79006 0.0
C2298 C 0.15069 0.75011 0.80307 0.0
C2299 C 0.16923 0.75607 0.79371 0.0
C2300 C 0.14668 0.7681 0.80829 0.0
C2301 C 0.1626 0.83241 0.80481 0.0
H2302 H 0.15856 0.82975 0.84352 0.0
C2303 C 0.17334 0.91349 0.83468 0.0
C2304 C 0.15425 0.90783 0.84362 0.0
C2305 C 0.17685 0.89515 0.82951 0.0
C2306 C 0.15959 0.83068 0.83272 0.0
H2307 H 0.19641 0.78491 0.78144 0.0
H2308 H 0.18949 0.81628 0.79056 0.0
H2309 H 0.15769 0.79633 0.8312 0.0
H2310 H 0.12556 0.87908 0.85524 0.0
H2311 H 0.13183 0.84712 0.84631 0.0
H2312 H 0.16466 0.86684 0.80635 0.0
C2313 C 0.17805 0.79779 0.79392 0.0
C2314 C 0.15887 0.81146 0.82564 0.0
C2315 C 0.18201 0.77979 0.78867 0.0
C2316 C 0.14037 0.88396 0.84833 0.0
C2317 C 0.14395 0.86564 0.8432 0.0
C2318 C 0.1634 0.85165 0.81189 0.0
C2319 C 0.16114 0.79234 0.80424 0.0
C2320 C 0.16036 0.81211 0.8116 0.0
C2321 C 0.16146 0.8709 0.83327 0.0
C2322 C 0.16195 0.851 0.82592 0.0
H2323 H 0.14043 0.73192 0.80707 0.0
H2324 H 0.13306 0.76324 0.81598 0.0
H2325 H 0.16357 0.83335 0.79401 0.0
H2326 H 0.1844 0.93175 0.83091 0.0
H2327 H 0.19086 0.89977 0.82209 0.0
C2328 C 0.24636 0.40411 0.81156 0.0
C2329 C 0.2412 0.41681 0.80186 0.0
C2330 C 0.22829 0.3813 0.81585 0.0
C2331 C 0.16553 0.33145 0.80933 0.0
H2332 H 0.16118 0.32884 0.84803 0.0
C2333 C 0.07952 0.26003 0.83509 0.0
C2334 C 0.08338 0.24622 0.84466 0.0
C2335 C 0.09875 0.28214 0.83077 0.0
C2336 C 0.16223 0.32927 0.83722 0.0
H2337 H 0.2141 0.41451 0.78793 0.0
H2338 H 0.18263 0.37484 0.79541 0.0
H2339 H 0.19641 0.3621 0.83721 0.0
H2340 H 0.1096 0.2459 0.85833 0.0
H2341 H 0.14311 0.28457 0.85085 0.0
H2342 H 0.13121 0.29876 0.80935 0.0
C2343 C 0.2005 0.38241 0.79978 0.0
C2344 C 0.18249 0.34817 0.83102 0.0
C2345 C 0.21857 0.40519 0.79547 0.0
C2346 C 0.10611 0.25613 0.8509 0.0
C2347 C 0.12534 0.27827 0.84659 0.0
C2348 C 0.14524 0.31261 0.81553 0.0
C2349 C 0.20482 0.37082 0.81049 0.0
C2350 C 0.18432 0.34953 0.81699 0.0
C2351 C 0.12209 0.29084 0.836 0.0
C2352 C 0.14331 0.31142 0.82954 0.0
H2353 H 0.26373 0.41255 0.81659 0.0
H2354 H 0.23232 0.37248 0.82389 0.0
H2355 H 0.1665 0.33187 0.79852 0.0
H2356 H 0.06214 0.25293 0.83017 0.0
H2357 H 0.09563 0.2918 0.82282 0.0
C2358 C 0.81408 0.58956 0.69432 0.0
C2359 C 0.82667 0.57986 0.68764 0.0
C2360 C 0.81775 0.61235 0.6908 0.0
C2361 C 0.85536 0.66703 0.66998 0.0
H2362 H 0.79373 0.66354 0.66337 0.0
C2363 C 0.84981 0.73648 0.63649 0.0
C2364 C 0.83835 0.7481 0.64237 0.0
C2365 C 0.8468 0.71498 0.6419 0.0
C2366 C 0.81106 0.66481 0.66523 0.0
H2367 H 0.85505 0.5875 0.67327 0.0
H2368 H 0.86136 0.62706 0.66708 0.0
H2369 H 0.7947 0.63064 0.67524 0.0
H2370 H 0.81277 0.74507 0.65759 0.0
H2371 H 0.80729 0.70732 0.66693 0.0
H2372 H 0.87163 0.701 0.65971 0.0
C2373 C 0.84859 0.61719 0.67499 0.0
C2374 C 0.81169 0.64611 0.67215 0.0
C2375 C 0.84498 0.59446 0.67855 0.0
C2376 C 0.82188 0.73654 0.65287 0.0
C2377 C 0.81879 0.71496 0.65825 0.0
C2378 C 0.85471 0.68565 0.663 0.0
C2379 C 0.83407 0.62578 0.68055 0.0
C2380 C 0.83384 0.64692 0.67451 0.0
C2381 C 0.83214 0.70465 0.65321 0.0
C2382 C 0.83254 0.6846 0.66044 0.0
H2383 H 0.79999 0.57879 0.70147 0.0
H2384 H 0.80678 0.61881 0.69553 0.0
H2385 H 0.87272 0.66833 0.67177 0.0
H2386 H 0.86251 0.74489 0.62834 0.0
H2387 H 0.85685 0.70705 0.63764 0.0
C2388 C 0.40455 0.23568 0.67783 0.0
C2389 C 0.41721 0.25153 0.66729 0.0
C2390 C 0.38125 0.21614 0.67578 0.0
C2391 C 0.34382 0.17714 0.64829 0.0
H2392 H 0.29401 0.14974 0.67553 0.0
C2393 C 0.24744 0.09513 0.63993 0.0
C2394 C 0.23764 0.07829 0.65041 0.0
C2395 C 0.26981 0.11628 0.64146 0.0
C2396 C 0.30788 0.15709 0.66788 0.0
H2397 H 0.41481 0.26075 0.64672 0.0
H2398 H 0.37383 0.22708 0.64325 0.0
H2399 H 0.33053 0.18859 0.67952 0.0
H2400 H 0.24416 0.06954 0.67037 0.0
H2401 H 0.28328 0.10638 0.67298 0.0
H2402 H 0.32101 0.14561 0.63664 0.0
C2403 C 0.38214 0.22924 0.65297 0.0
C2404 C 0.32875 0.17936 0.67015 0.0
C2405 C 0.4055 0.24866 0.65499 0.0
C2406 C 0.25123 0.08225 0.66213 0.0
C2407 C 0.2735 0.10342 0.66368 0.0
C2408 C 0.32286 0.15494 0.64599 0.0
C2409 C 0.37012 0.21224 0.66319 0.0
C2410 C 0.34707 0.18954 0.66043 0.0
C2411 C 0.28266 0.12096 0.65352 0.0
C2412 C 0.30482 0.14459 0.65582 0.0
H2413 H 0.41318 0.23742 0.68741 0.0
H2414 H 0.37258 0.20334 0.68385 0.0
H2415 H 0.35777 0.18422 0.64068 0.0
H2416 H 0.23732 0.09255 0.63079 0.0
H2417 H 0.27647 0.12952 0.63346 0.0
C2418 C 0.76411 0.1786 0.6918 0.0
C2419 C 0.74216 0.16503 0.68491 0.0
C2420 C 0.78391 0.17571 0.68887 0.0
C2421 C 0.80326 0.13752 0.67075 0.0
H2422 H 0.86185 0.19898 0.66434 0.0
C2423 C 0.88325 0.14107 0.64311 0.0
C2424 C 0.90565 0.15423 0.64962 0.0
C2425 C 0.86376 0.14393 0.64685 0.0
C2426 C 0.84568 0.18169 0.66616 0.0
H2427 H 0.72294 0.13621 0.67051 0.0
H2428 H 0.75744 0.13117 0.66538 0.0
H2429 H 0.82644 0.19848 0.67391 0.0
H2430 H 0.92594 0.18225 0.66427 0.0
H2431 H 0.89191 0.1873 0.67078 0.0
H2432 H 0.82245 0.12075 0.6629 0.0
C2433 C 0.75946 0.14407 0.67303 0.0
C2434 C 0.82546 0.18137 0.67173 0.0
C2435 C 0.73966 0.14695 0.67597 0.0
C2436 C 0.90885 0.17186 0.65908 0.0
C2437 C 0.88935 0.17472 0.66282 0.0
C2438 C 0.82346 0.13785 0.66516 0.0
C2439 C 0.78206 0.15917 0.67901 0.0
C2440 C 0.804 0.15928 0.67404 0.0
C2441 C 0.86636 0.16002 0.65715 0.0
C2442 C 0.84482 0.15994 0.66273 0.0
H2443 H 0.76651 0.19258 0.6988 0.0
H2444 H 0.80096 0.18719 0.69387 0.0
H2445 H 0.78709 0.12022 0.67253 0.0
H2446 H 0.8803 0.12746 0.63571 0.0
H2447 H 0.84638 0.13279 0.64208 0.0
C2448 C 0.077 0.52323 0.48236 0.0
C2449 C 0.08699 0.52651 0.49521 0.0
C2450 C 0.05317 0.51803 0.48068 0.0
C2451 C 0.99577 0.50001 0.49878 0.0
H2452 H 0.98703 0.53745 0.471 0.0
C2453 C 0.91337 0.51262 0.49819 0.0
C2454 C 0.90033 0.50676 0.48616 0.0
C2455 C 0.93654 0.51565 0.49857 0.0
C2456 C 0.98919 0.52676 0.47871 0.0
H2457 H 0.07969 0.52565 0.5164 0.0
H2458 H 0.03821 0.51706 0.5135 0.0
H2459 H 0.0258 0.53881 0.4731 0.0
H2460 H 0.90188 0.50116 0.4649 0.0
H2461 H 0.94277 0.5068 0.46554 0.0
H2462 H 0.95933 0.48853 0.50459 0.0
C2463 C 0.04858 0.51814 0.50471 0.0
C2464 C 0.0113 0.52738 0.47988 0.0
C2465 C 0.07236 0.52311 0.50638 0.0
C2466 C 0.91156 0.5057 0.47431 0.0
C2467 C 0.93489 0.50886 0.47468 0.0
C2468 C 0.97377 0.49957 0.49768 0.0
C2469 C 0.03896 0.51624 0.49182 0.0
C2470 C 0.01491 0.51416 0.49001 0.0
C2471 C 0.94718 0.51301 0.4869 0.0
C2472 C 0.97037 0.51314 0.48773 0.0
H2473 H 0.08786 0.52556 0.47357 0.0
H2474 H 0.04611 0.51608 0.47064 0.0
H2475 H -0.0022 0.4893 0.50653 0.0
H2476 H 0.90523 0.51373 0.50747 0.0
H2477 H 0.94587 0.51935 0.50807 0.0
C2478 C 0.47431 0.40147 0.49214 0.0
C2479 C 0.48772 0.40314 0.48065 0.0
C2480 C 0.46953 0.41999 0.49529 0.0
C2481 C 0.4734 0.47665 0.48266 0.0
H2482 H 0.49262 0.49871 0.5191 0.0
C2483 C 0.49993 0.57294 0.49818 0.0
C2484 C 0.48897 0.57523 0.50982 0.0
C2485 C 0.49898 0.55113 0.49522 0.0
C2486 C 0.48697 0.49264 0.50895 0.0
H2487 H 0.50443 0.42412 0.46277 0.0
H2488 H 0.49622 0.45644 0.46828 0.0
H2489 H 0.48825 0.46013 0.51202 0.0
H2490 H 0.46998 0.55717 0.52798 0.0
H2491 H 0.46845 0.51897 0.52284 0.0
H2492 H 0.47268 0.50946 0.47953 0.0
C2493 C 0.48937 0.44092 0.47488 0.0
C2494 C 0.48428 0.47047 0.5049 0.0
C2495 C 0.49412 0.42239 0.47171 0.0
C2496 C 0.47863 0.55591 0.51894 0.0
C2497 C 0.47769 0.53404 0.51598 0.0
C2498 C 0.47615 0.49883 0.4867 0.0
C2499 C 0.47805 0.44045 0.48701 0.0
C2500 C 0.47782 0.46241 0.49166 0.0
C2501 C 0.48707 0.53119 0.50385 0.0
C2502 C 0.48336 0.50723 0.49982 0.0
H2503 H 0.46898 0.38672 0.49916 0.0
H2504 H 0.46026 0.41889 0.50456 0.0
H2505 H 0.46811 0.47079 0.47245 0.0
H2506 H 0.50816 0.5876 0.49099 0.0
H2507 H 0.50691 0.54961 0.48596 0.0
C2508 C 0.59098 0.06892 0.49087 0.0
C2509 C 0.5858 0.08268 0.48192 0.0
C2510 C 0.57311 0.0454 0.49422 0.0
C2511 C 0.5117 0.99517 0.48605 0.0
H2512 H 0.50442 0.98928 0.52458 0.0
C2513 C 0.42521 0.91922 0.50986 0.0
C2514 C 0.42874 0.90648 0.52024 0.0
C2515 C 0.44433 0.94138 0.5055 0.0
C2516 C 0.50631 0.99052 0.51382 0.0
H2517 H 0.55898 0.08176 0.46825 0.0
H2518 H 0.52786 0.04068 0.47402 0.0
H2519 H 0.53963 0.02416 0.51489 0.0
H2520 H 0.45441 0.90772 0.53487 0.0
H2521 H 0.48777 0.94628 0.52724 0.0
H2522 H 0.47834 0.96152 0.48497 0.0
C2523 C 0.54559 0.04805 0.47855 0.0
C2524 C 0.52655 0.01041 0.50826 0.0
C2525 C 0.56343 0.0716 0.47524 0.0
C2526 C 0.45115 0.91716 0.52686 0.0
C2527 C 0.47029 0.93927 0.52247 0.0
C2528 C 0.49148 0.97519 0.49161 0.0
C2529 C 0.54986 0.03525 0.48859 0.0
C2530 C 0.52942 0.01299 0.49432 0.0
C2531 C 0.46732 0.95116 0.51142 0.0
C2532 C 0.48849 0.97273 0.50556 0.0
H2533 H 0.60813 0.07694 0.49612 0.0
H2534 H 0.57702 0.03569 0.50178 0.0
H2535 H 0.5135 0.99666 0.47528 0.0
H2536 H 0.40808 0.91146 0.50461 0.0
H2537 H 0.44133 0.95043 0.49719 0.0
C2538 C 0.48015 0.06994 0.00428 0.0
C2539 C 0.49538 0.08685 0.99472 0.0
C2540 C 0.4793 0.04773 0.00561 0.0
C2541 C 0.49638 0.00609 0.98967 0.0
H2542 H 0.50229 0.98991 0.02634 0.0
C2543 C 0.51278 0.92776 0.001 0.0
C2544 C 0.49624 0.91083 0.01013 0.0
C2545 C 0.5156 0.95088 1.00009 0.0
C2546 C 0.50057 0.99415 0.01606 0.0
H2547 H 0.5201 0.09307 0.97835 0.0
H2548 H 0.5186 0.05431 0.98067 0.0
H2549 H 0.49804 0.02515 0.02169 0.0
H2550 H 0.47159 0.90554 0.02638 0.0
H2551 H 0.47652 0.94586 0.0248 0.0
H2552 H 0.49878 0.97504 0.98404 0.0
C2553 C 0.50734 0.05816 0.98715 0.0
C2554 C 0.49795 0.01422 0.01339 0.0
C2555 C 0.50818 0.08037 0.98581 0.0
C2556 C 0.48443 0.9182 0.01922 0.0
C2557 C 0.48725 0.94132 0.01831 0.0
C2558 C 0.49901 0.98604 0.99234 0.0
C2559 C 0.49363 0.04204 0.99741 0.0
C2560 C 0.49571 0.02032 1.00017 0.0
C2561 C 0.50198 0.95746 0.00831 0.0
C2562 C 0.50106 0.97982 0.00556 0.0
H2563 H 0.46998 0.0744 0.01125 0.0
H2564 H 0.4681 0.0354 0.0134 0.0
H2565 H 0.4945 0.01023 0.9794 0.0
H2566 H 0.52226 0.92263 0.99392 0.0
H2567 H 0.52753 0.96318 0.9925 0.0
C2568 C 0.93103 0.41152 0.00899 0.0
C2569 C 0.91465 0.40046 0.99842 0.0
C2570 C 0.95286 0.4329 0.00689 0.0
C2571 C 0.99581 0.47398 0.98179 0.0
H2572 H 0.00451 0.52387 0.00706 0.0
C2573 C 0.07098 0.57278 0.97455 0.0
C2574 C 0.08456 0.5845 0.98599 0.0
C2575 C 0.04912 0.551 0.9757 0.0
C2576 C 0.0025 0.51013 1.0 0.0
H2577 H 0.90916 0.40179 0.97713 0.0
H2578 H 0.94759 0.4392 0.97342 0.0
H2579 H 0.97057 0.48284 0.0097 0.0
H2580 H 0.08536 0.58343 0.00762 0.0
H2581 H 0.04743 0.54527 0.00963 0.0
H2582 H 0.02798 0.50113 0.97221 0.0
C2583 C 0.94341 0.43137 0.98334 0.0
C2584 C 0.9831 0.48662 0.00152 0.0
C2585 C 0.92146 0.40995 0.98546 0.0
C2586 C 0.0752 0.57484 0.99863 0.0
C2587 C 0.05343 0.55295 0.99977 0.0
C2588 C 0.01538 0.49748 0.98032 0.0
C2589 C 0.95877 0.44355 0.99416 0.0
C2590 C 0.97966 0.46829 0.99249 0.0
C2591 C 0.0405 0.54043 0.98829 0.0
C2592 C 0.01899 0.51581 0.98944 0.0
H2593 H 0.92634 0.40449 0.01907 0.0
H2594 H 0.96465 0.44169 0.01534 0.0
H2595 H 0.99357 0.46015 0.97471 0.0
H2596 H 0.07773 0.57992 0.96468 0.0
H2597 H 0.0393 0.54211 0.96668 0.0
C2598 C 0.43 0.50417 0.98055 0.0
C2599 C 0.41869 0.50514 0.99237 0.0
C2600 C 0.44988 0.50067 0.98105 0.0
C2601 C 0.48537 0.48363 0.00339 0.0
H2602 H 0.53876 0.52693 0.98045 0.0
C2603 C 0.58057 0.49922 0.01172 0.0
C2604 C 0.59144 0.49556 0.00044 0.0
C2605 C 0.56035 0.50197 0.01031 0.0
C2606 C 0.52395 0.51466 0.98684 0.0
H2607 H 0.41822 0.50176 0.01392 0.0
H2608 H 0.45322 0.49605 0.01486 0.0
H2609 H 0.49995 0.52556 0.97865 0.0
H2610 H 0.591 0.49386 0.97881 0.0
H2611 H 0.55565 0.49894 0.97634 0.0
H2612 H 0.50959 0.47312 0.01174 0.0
C2613 C 0.44662 0.4977 0.00517 0.0
C2614 C 0.50167 0.51371 0.98577 0.0
C2615 C 0.42657 0.50098 0.00465 0.0
C2616 C 0.58296 0.49667 0.98766 0.0
C2617 C 0.56273 0.49952 0.98625 0.0
C2618 C 0.50768 0.48472 0.00453 0.0
C2619 C 0.45896 0.4983 0.9934 0.0
C2620 C 0.48216 0.49824 0.99407 0.0
C2621 C 0.55071 0.50123 0.99761 0.0
C2622 C 0.52721 0.50036 0.99633 0.0
H2623 H 0.42413 0.50712 0.97093 0.0
H2624 H 0.4586 0.50059 0.97178 0.0
H2625 H 0.47062 0.47128 0.00978 0.0
H2626 H 0.58683 0.49863 0.02169 0.0
H2627 H 0.5517 0.50378 0.0192 0.0
loop_
_geom_bond_atom_site_label_1
_geom_bond_atom_site_label_2
_geom_bond_distance
_geom_bond_site_symmetry_2
_ccdc_geom_bond_type
In0 O1 2.294 . S
In0 O2 2.326 . S
In0 O6 2.266 . S
In0 O7 2.326 . S
In0 O8 2.266 . S
In0 O9 2.326 . S
In0 O11 2.294 . S
In0 O12 2.326 . S
O1 In0 2.294 . S
O1 C10 1.240 . S
O2 In0 2.326 . S
O2 C10 1.252 . S
C3 O6 1.252 . S
C3 O7 1.260 . S
C4 O11 1.240 . S
C4 O12 1.252 . S
C5 O8 1.252 . S
C5 O9 1.260 . S
O6 In0 2.266 . S
O6 C3 1.252 . S
O7 In0 2.326 . S
O7 C3 1.260 . S
O8 In0 2.266 . S
O8 C5 1.252 . S
O9 In0 2.326 . S
O9 C5 1.260 . S
C10 O1 1.240 . S
C10 O2 1.252 . S
O11 In0 2.294 . S
O11 C4 1.240 . S
O12 In0 2.326 . S
O12 C4 1.252 . S
In13 O14 2.294 . S
In13 O15 2.326 . S
In13 O19 2.266 1_545 S
In13 O20 2.326 1_545 S
In13 O21 2.266 . S
In13 O22 2.326 . S
In13 O24 2.294 . S
In13 O25 2.326 . S
O14 In13 2.294 . S
O14 C23 1.240 . S
O15 In13 2.326 . S
O15 C23 1.252 . S
C16 O19 1.252 . S
C16 O20 1.260 . S
C17 O24 1.240 . S
C17 O25 1.252 . S
C18 O21 1.252 . S
C18 O22 1.260 . S
O19 In13 2.266 1_565 S
O19 C16 1.252 . S
O20 In13 2.326 1_565 S
O20 C16 1.260 . S
O21 In13 2.266 . S
O21 C18 1.252 . S
O22 In13 2.326 . S
O22 C18 1.260 . S
C23 O14 1.240 . S
C23 O15 1.252 . S
O24 In13 2.294 . S
O24 C17 1.240 . S
O25 In13 2.326 . S
O25 C17 1.252 . S
In26 O27 2.294 . S
In26 O28 2.326 . S
In26 O32 2.266 . S
In26 O33 2.326 . S
In26 O34 2.266 1_655 S
In26 O35 2.326 1_655 S
In26 O37 2.294 . S
In26 O38 2.326 . S
O27 In26 2.294 . S
O27 C36 1.240 . S
O28 In26 2.326 . S
O28 C36 1.252 . S
C29 O32 1.252 . S
C29 O33 1.260 . S
C30 O37 1.240 . S
C30 O38 1.252 . S
C31 O34 1.252 . S
C31 O35 1.260 . S
O32 In26 2.266 . S
O32 C29 1.252 . S
O33 In26 2.326 . S
O33 C29 1.260 . S
O34 In26 2.266 1_455 S
O34 C31 1.252 . S
O35 In26 2.326 1_455 S
O35 C31 1.260 . S
C36 O27 1.240 . S
C36 O28 1.252 . S
O37 In26 2.294 . S
O37 C30 1.240 . S
O38 In26 2.326 . S
O38 C30 1.252 . S
In39 O40 2.294 . S
In39 O41 2.326 . S
In39 O45 2.266 . S
In39 O46 2.326 . S
In39 O47 2.266 . S
In39 O48 2.326 . S
In39 O50 2.294 . S
In39 O51 2.326 . S
O40 In39 2.294 . S
O40 C49 1.240 . S
O41 In39 2.326 . S
O41 C49 1.252 . S
C42 O45 1.252 . S
C42 O46 1.260 . S
C43 O50 1.240 . S
C43 O51 1.252 . S
C44 O47 1.252 . S
C44 O48 1.260 . S
O45 In39 2.266 . S
O45 C42 1.252 . S
O46 In39 2.326 . S
O46 C42 1.260 . S
O47 In39 2.266 . S
O47 C44 1.252 . S
O48 In39 2.326 . S
O48 C44 1.260 . S
C49 O40 1.240 . S
C49 O41 1.252 . S
O50 In39 2.294 . S
O50 C43 1.240 . S
O51 In39 2.326 . S
O51 C43 1.252 . S
In52 O53 2.294 . S
In52 O54 2.326 . S
In52 O58 2.266 . S
In52 O59 2.326 . S
In52 O60 2.266 1_565 S
In52 O61 2.326 1_565 S
In52 O63 2.294 . S
In52 O64 2.326 . S
O53 In52 2.294 . S
O53 C62 1.240 . S
O54 In52 2.326 . S
O54 C62 1.252 . S
C55 O58 1.252 . S
C55 O59 1.260 . S
C56 O63 1.240 . S
C56 O64 1.252 . S
C57 O60 1.252 . S
C57 O61 1.260 . S
O58 In52 2.266 . S
O58 C55 1.252 . S
O59 In52 2.326 . S
O59 C55 1.260 . S
O60 In52 2.266 1_545 S
O60 C57 1.252 . S
O61 In52 2.326 1_545 S
O61 C57 1.260 . S
C62 O53 1.240 . S
C62 O54 1.252 . S
O63 In52 2.294 . S
O63 C56 1.240 . S
O64 In52 2.326 . S
O64 C56 1.252 . S
In65 O66 2.294 . S
In65 O67 2.326 . S
In65 O71 2.266 . S
In65 O72 2.326 . S
In65 O73 2.266 1_455 S
In65 O74 2.326 1_455 S
In65 O76 2.294 . S
In65 O77 2.326 . S
O66 In65 2.294 . S
O66 C75 1.240 . S
O67 In65 2.326 . S
O67 C75 1.252 . S
C68 O71 1.252 . S
C68 O72 1.260 . S
C69 O76 1.240 . S
C69 O77 1.252 . S
C70 O73 1.252 . S
C70 O74 1.260 . S
O71 In65 2.266 . S
O71 C68 1.252 . S
O72 In65 2.326 . S
O72 C68 1.260 . S
O73 In65 2.266 1_655 S
O73 C70 1.252 . S
O74 In65 2.326 1_655 S
O74 C70 1.260 . S
C75 O66 1.240 . S
C75 O67 1.252 . S
O76 In65 2.294 . S
O76 C69 1.240 . S
O77 In65 2.326 . S
O77 C69 1.252 . S
In78 O79 2.294 . S
In78 O80 2.326 . S
In78 O84 2.266 . S
In78 O85 2.326 . S
In78 O86 2.266 . S
In78 O87 2.326 . S
In78 O89 2.294 . S
In78 O90 2.326 . S
O79 In78 2.294 . S
O79 C88 1.240 . S
O80 In78 2.326 . S
O80 C88 1.252 . S
C81 O84 1.252 . S
C81 O85 1.260 . S
C82 O89 1.240 . S
C82 O90 1.252 . S
C83 O86 1.252 . S
C83 O87 1.260 . S
O84 In78 2.266 . S
O84 C81 1.252 . S
O85 In78 2.326 . S
O85 C81 1.260 . S
O86 In78 2.266 . S
O86 C83 1.252 . S
O87 In78 2.326 . S
O87 C83 1.260 . S
C88 O79 1.240 . S
C88 O80 1.252 . S
O89 In78 2.294 . S
O89 C82 1.240 . S
O90 In78 2.326 . S
O90 C82 1.252 . S
In91 O92 2.294 . S
In91 O93 2.326 . S
In91 O97 2.266 . S
In91 O98 2.326 . S
In91 O99 2.266 1_565 S
In91 O100 2.326 1_565 S
In91 O102 2.294 . S
In91 O103 2.326 . S
O92 In91 2.294 . S
O92 C101 1.240 . S
O93 In91 2.326 . S
O93 C101 1.252 . S
C94 O97 1.252 . S
C94 O98 1.260 . S
C95 O102 1.240 . S
C95 O103 1.252 . S
C96 O99 1.252 . S
C96 O100 1.260 . S
O97 In91 2.266 . S
O97 C94 1.252 . S
O98 In91 2.326 . S
O98 C94 1.260 . S
O99 In91 2.266 1_545 S
O99 C96 1.252 . S
O100 In91 2.326 1_545 S
O100 C96 1.260 . S
C101 O92 1.240 . S
C101 O93 1.252 . S
O102 In91 2.294 . S
O102 C95 1.240 . S
O103 In91 2.326 . S
O103 C95 1.252 . S
In104 O105 2.294 . S
In104 O106 2.326 . S
In104 O110 2.266 . S
In104 O111 2.326 . S
In104 O112 2.266 1_455 S
In104 O113 2.326 1_455 S
In104 O115 2.294 . S
In104 O116 2.326 . S
O105 In104 2.294 . S
O105 C114 1.240 . S
O106 In104 2.326 . S
O106 C114 1.252 . S
C107 O110 1.252 . S
C107 O111 1.260 . S
C108 O115 1.240 . S
C108 O116 1.252 . S
C109 O112 1.252 . S
C109 O113 1.260 . S
O110 In104 2.266 . S
O110 C107 1.252 . S
O111 In104 2.326 . S
O111 C107 1.260 . S
O112 In104 2.266 1_655 S
O112 C109 1.252 . S
O113 In104 2.326 1_655 S
O113 C109 1.260 . S
C114 O105 1.240 . S
C114 O106 1.252 . S
O115 In104 2.294 . S
O115 C108 1.240 . S
O116 In104 2.326 . S
O116 C108 1.252 . S
In117 O118 2.294 . S
In117 O119 2.326 . S
In117 O123 2.266 . S
In117 O124 2.326 . S
In117 O125 2.266 . S
In117 O126 2.326 . S
In117 O128 2.294 . S
In117 O129 2.326 . S
O118 In117 2.294 . S
O118 C127 1.240 . S
O119 In117 2.326 . S
O119 C127 1.252 . S
C120 O123 1.252 . S
C120 O124 1.260 . S
C121 O128 1.240 . S
C121 O129 1.252 . S
C122 O125 1.252 . S
C122 O126 1.260 . S
O123 In117 2.266 . S
O123 C120 1.252 . S
O124 In117 2.326 . S
O124 C120 1.260 . S
O125 In117 2.266 . S
O125 C122 1.252 . S
O126 In117 2.326 . S
O126 C122 1.260 . S
C127 O118 1.240 . S
C127 O119 1.252 . S
O128 In117 2.294 . S
O128 C121 1.240 . S
O129 In117 2.326 . S
O129 C121 1.252 . S
In130 O131 2.294 . S
In130 O132 2.326 . S
In130 O136 2.266 . S
In130 O137 2.326 . S
In130 O138 2.266 1_545 S
In130 O139 2.326 1_545 S
In130 O141 2.294 . S
In130 O142 2.326 . S
O131 In130 2.294 . S
O131 C140 1.240 . S
O132 In130 2.326 . S
O132 C140 1.252 . S
C133 O136 1.252 . S
C133 O137 1.260 . S
C134 O141 1.240 . S
C134 O142 1.252 . S
C135 O138 1.252 . S
C135 O139 1.260 . S
O136 In130 2.266 . S
O136 C133 1.252 . S
O137 In130 2.326 . S
O137 C133 1.260 . S
O138 In130 2.266 1_565 S
O138 C135 1.252 . S
O139 In130 2.326 1_565 S
O139 C135 1.260 . S
C140 O131 1.240 . S
C140 O132 1.252 . S
O141 In130 2.294 . S
O141 C134 1.240 . S
O142 In130 2.326 . S
O142 C134 1.252 . S
In143 O144 2.294 . S
In143 O145 2.326 . S
In143 O149 2.266 . S
In143 O150 2.326 . S
In143 O151 2.266 1_655 S
In143 O152 2.326 1_655 S
In143 O154 2.294 . S
In143 O155 2.326 . S
O144 In143 2.294 . S
O144 C153 1.240 . S
O145 In143 2.326 . S
O145 C153 1.252 . S
C146 O149 1.252 . S
C146 O150 1.260 . S
C147 O154 1.240 . S
C147 O155 1.252 . S
C148 O151 1.252 . S
C148 O152 1.260 . S
O149 In143 2.266 . S
O149 C146 1.252 . S
O150 In143 2.326 . S
O150 C146 1.260 . S
O151 In143 2.266 1_455 S
O151 C148 1.252 . S
O152 In143 2.326 1_455 S
O152 C148 1.260 . S
C153 O144 1.240 . S
C153 O145 1.252 . S
O154 In143 2.294 . S
O154 C147 1.240 . S
O155 In143 2.326 . S
O155 C147 1.252 . S
In156 O157 2.294 . S
In156 O158 2.326 . S
In156 O162 2.266 . S
In156 O163 2.326 . S
In156 O164 2.266 . S
In156 O165 2.326 . S
In156 O167 2.294 . S
In156 O168 2.326 . S
O157 In156 2.294 . S
O157 C166 1.240 . S
O158 In156 2.326 . S
O158 C166 1.252 . S
C159 O162 1.252 . S
C159 O163 1.260 . S
C160 O167 1.240 . S
C160 O168 1.252 . S
C161 O164 1.252 . S
C161 O165 1.260 . S
O162 In156 2.266 . S
O162 C159 1.252 . S
O163 In156 2.326 . S
O163 C159 1.260 . S
O164 In156 2.266 . S
O164 C161 1.252 . S
O165 In156 2.326 . S
O165 C161 1.260 . S
C166 O157 1.240 . S
C166 O158 1.252 . S
O167 In156 2.294 . S
O167 C160 1.240 . S
O168 In156 2.326 . S
O168 C160 1.252 . S
In169 O170 2.294 . S
In169 O171 2.326 . S
In169 O175 2.266 . S
In169 O176 2.326 . S
In169 O177 2.266 . S
In169 O178 2.326 . S
In169 O180 2.294 . S
In169 O181 2.326 . S
O170 In169 2.294 . S
O170 C179 1.240 . S
O171 In169 2.326 . S
O171 C179 1.252 . S
C172 O175 1.252 . S
C172 O176 1.260 . S
C173 O180 1.240 . S
C173 O181 1.252 . S
C174 O177 1.252 . S
C174 O178 1.260 . S
O175 In169 2.266 . S
O175 C172 1.252 . S
O176 In169 2.326 . S
O176 C172 1.260 . S
O177 In169 2.266 . S
O177 C174 1.252 . S
O178 In169 2.326 . S
O178 C174 1.260 . S
C179 O170 1.240 . S
C179 O171 1.252 . S
O180 In169 2.294 . S
O180 C173 1.240 . S
O181 In169 2.326 . S
O181 C173 1.252 . S
In182 O183 2.294 . S
In182 O184 2.326 . S
In182 O188 2.266 . S
In182 O189 2.326 . S
In182 O190 2.266 . S
In182 O191 2.326 . S
In182 O193 2.294 . S
In182 O194 2.326 . S
O183 In182 2.294 . S
O183 C192 1.240 . S
O184 In182 2.326 . S
O184 C192 1.252 . S
C185 O188 1.252 . S
C185 O189 1.260 . S
C186 O193 1.240 . S
C186 O194 1.252 . S
C187 O190 1.252 . S
C187 O191 1.260 . S
O188 In182 2.266 . S
O188 C185 1.252 . S
O189 In182 2.326 . S
O189 C185 1.260 . S
O190 In182 2.266 . S
O190 C187 1.252 . S
O191 In182 2.326 . S
O191 C187 1.260 . S
C192 O183 1.240 . S
C192 O184 1.252 . S
O193 In182 2.294 . S
O193 C186 1.240 . S
O194 In182 2.326 . S
O194 C186 1.252 . S
In195 O196 2.294 . S
In195 O197 2.326 . S
In195 O201 2.266 . S
In195 O202 2.326 . S
In195 O203 2.266 . S
In195 O204 2.326 . S
In195 O206 2.294 . S
In195 O207 2.326 . S
O196 In195 2.294 . S
O196 C205 1.240 . S
O197 In195 2.326 . S
O197 C205 1.252 . S
C198 O201 1.252 . S
C198 O202 1.260 . S
C199 O206 1.240 . S
C199 O207 1.252 . S
C200 O203 1.252 . S
C200 O204 1.260 . S
O201 In195 2.266 . S
O201 C198 1.252 . S
O202 In195 2.326 . S
O202 C198 1.260 . S
O203 In195 2.266 . S
O203 C200 1.252 . S
O204 In195 2.326 . S
O204 C200 1.260 . S
C205 O196 1.240 . S
C205 O197 1.252 . S
O206 In195 2.294 . S
O206 C199 1.240 . S
O207 In195 2.326 . S
O207 C199 1.252 . S
In208 O209 2.294 . S
In208 O210 2.326 . S
In208 O214 2.266 . S
In208 O215 2.326 . S
In208 O216 2.266 . S
In208 O217 2.326 . S
In208 O219 2.294 . S
In208 O220 2.326 . S
O209 In208 2.294 . S
O209 C218 1.240 . S
O210 In208 2.326 . S
O210 C218 1.252 . S
C211 O214 1.252 . S
C211 O215 1.260 . S
C212 O219 1.240 . S
C212 O220 1.252 . S
C213 O216 1.252 . S
C213 O217 1.260 . S
O214 In208 2.266 . S
O214 C211 1.252 . S
O215 In208 2.326 . S
O215 C211 1.260 . S
O216 In208 2.266 . S
O216 C213 1.252 . S
O217 In208 2.326 . S
O217 C213 1.260 . S
C218 O209 1.240 . S
C218 O210 1.252 . S
O219 In208 2.294 . S
O219 C212 1.240 . S
O220 In208 2.326 . S
O220 C212 1.252 . S
In221 O222 2.294 . S
In221 O223 2.326 . S
In221 O227 2.266 . S
In221 O228 2.326 . S
In221 O229 2.266 . S
In221 O230 2.326 . S
In221 O232 2.294 . S
In221 O233 2.326 . S
O222 In221 2.294 . S
O222 C231 1.240 . S
O223 In221 2.326 . S
O223 C231 1.252 . S
C224 O227 1.252 . S
C224 O228 1.260 . S
C225 O232 1.240 . S
C225 O233 1.252 . S
C226 O229 1.252 . S
C226 O230 1.260 . S
O227 In221 2.266 . S
O227 C224 1.252 . S
O228 In221 2.326 . S
O228 C224 1.260 . S
O229 In221 2.266 . S
O229 C226 1.252 . S
O230 In221 2.326 . S
O230 C226 1.260 . S
C231 O222 1.240 . S
C231 O223 1.252 . S
O232 In221 2.294 . S
O232 C225 1.240 . S
O233 In221 2.326 . S
O233 C225 1.252 . S
In234 O235 2.294 . S
In234 O236 2.326 . S
In234 O240 2.266 . S
In234 O241 2.326 . S
In234 O242 2.266 . S
In234 O243 2.326 . S
In234 O245 2.294 . S
In234 O246 2.326 . S
O235 In234 2.294 . S
O235 C244 1.240 . S
O236 In234 2.326 . S
O236 C244 1.252 . S
C237 O240 1.252 . S
C237 O241 1.260 . S
C238 O245 1.240 . S
C238 O246 1.252 . S
C239 O242 1.252 . S
C239 O243 1.260 . S
O240 In234 2.266 . S
O240 C237 1.252 . S
O241 In234 2.326 . S
O241 C237 1.260 . S
O242 In234 2.266 . S
O242 C239 1.252 . S
O243 In234 2.326 . S
O243 C239 1.260 . S
C244 O235 1.240 . S
C244 O236 1.252 . S
O245 In234 2.294 . S
O245 C238 1.240 . S
O246 In234 2.326 . S
O246 C238 1.252 . S
In247 O248 2.294 . S
In247 O249 2.326 . S
In247 O253 2.266 . S
In247 O254 2.326 . S
In247 O255 2.266 . S
In247 O256 2.326 . S
In247 O258 2.294 . S
In247 O259 2.326 . S
O248 In247 2.294 . S
O248 C257 1.240 . S
O249 In247 2.326 . S
O249 C257 1.252 . S
C250 O253 1.252 . S
C250 O254 1.260 . S
C251 O258 1.240 . S
C251 O259 1.252 . S
C252 O255 1.252 . S
C252 O256 1.260 . S
O253 In247 2.266 . S
O253 C250 1.252 . S
O254 In247 2.326 . S
O254 C250 1.260 . S
O255 In247 2.266 . S
O255 C252 1.252 . S
O256 In247 2.326 . S
O256 C252 1.260 . S
C257 O248 1.240 . S
C257 O249 1.252 . S
O258 In247 2.294 . S
O258 C251 1.240 . S
O259 In247 2.326 . S
O259 C251 1.252 . S
In260 O261 2.294 . S
In260 O262 2.326 . S
In260 O266 2.266 . S
In260 O267 2.326 . S
In260 O268 2.266 . S
In260 O269 2.326 . S
In260 O271 2.294 . S
In260 O272 2.326 . S
O261 In260 2.294 . S
O261 C270 1.240 . S
O262 In260 2.326 . S
O262 C270 1.252 . S
C263 O266 1.252 . S
C263 O267 1.260 . S
C264 O271 1.240 . S
C264 O272 1.252 . S
C265 O268 1.252 . S
C265 O269 1.260 . S
O266 In260 2.266 . S
O266 C263 1.252 . S
O267 In260 2.326 . S
O267 C263 1.260 . S
O268 In260 2.266 . S
O268 C265 1.252 . S
O269 In260 2.326 . S
O269 C265 1.260 . S
C270 O261 1.240 . S
C270 O262 1.252 . S
O271 In260 2.294 . S
O271 C264 1.240 . S
O272 In260 2.326 . S
O272 C264 1.252 . S
In273 O274 2.293 1_554 S
In273 O275 2.327 . S
In273 O279 2.265 1_554 S
In273 O280 2.326 . S
In273 O281 2.267 . S
In273 O282 2.324 1_554 S
In273 O284 2.296 . S
In273 O285 2.328 . S
O274 In273 2.293 1_556 S
O274 C283 1.240 . S
O275 In273 2.327 . S
O275 C283 1.252 1_554 S
C276 O279 1.252 . S
C276 O280 1.260 1_556 S
C277 O284 1.240 . S
C277 O285 1.252 . S
C278 O281 1.252 1_556 S
C278 O282 1.260 . S
O279 In273 2.265 1_556 S
O279 C276 1.252 . S
O280 In273 2.326 . S
O280 C276 1.260 1_554 S
O281 In273 2.267 . S
O281 C278 1.252 1_554 S
O282 In273 2.324 1_556 S
O282 C278 1.260 . S
C283 O274 1.240 . S
C283 O275 1.252 1_556 S
O284 In273 2.296 . S
O284 C277 1.240 . S
O285 In273 2.328 . S
O285 C277 1.252 . S
In286 O287 2.293 1_554 S
In286 O288 2.327 . S
In286 O292 2.265 1_554 S
In286 O293 2.326 . S
In286 O294 2.267 . S
In286 O295 2.324 1_554 S
In286 O297 2.296 . S
In286 O298 2.328 . S
O287 In286 2.293 1_556 S
O287 C296 1.240 . S
O288 In286 2.327 . S
O288 C296 1.252 1_554 S
C289 O292 1.252 . S
C289 O293 1.260 1_556 S
C290 O297 1.240 . S
C290 O298 1.252 . S
C291 O294 1.252 1_556 S
C291 O295 1.260 . S
O292 In286 2.265 1_556 S
O292 C289 1.252 . S
O293 In286 2.326 . S
O293 C289 1.260 1_554 S
O294 In286 2.267 . S
O294 C291 1.252 1_554 S
O295 In286 2.324 1_556 S
O295 C291 1.260 . S
C296 O287 1.240 . S
C296 O288 1.252 1_556 S
O297 In286 2.296 . S
O297 C290 1.240 . S
O298 In286 2.328 . S
O298 C290 1.252 . S
In299 O300 2.296 . S
In299 O301 2.328 . S
In299 O305 2.267 . S
In299 O306 2.324 1_554 S
In299 O307 2.265 1_554 S
In299 O308 2.326 . S
In299 O310 2.293 1_554 S
In299 O311 2.327 . S
O300 In299 2.296 . S
O300 C309 1.240 . S
O301 In299 2.328 . S
O301 C309 1.252 . S
C302 O305 1.252 1_556 S
C302 O306 1.260 . S
C303 O310 1.240 . S
C303 O311 1.252 1_556 S
C304 O307 1.252 . S
C304 O308 1.260 1_556 S
O305 In299 2.267 . S
O305 C302 1.252 1_554 S
O306 In299 2.324 1_556 S
O306 C302 1.260 . S
O307 In299 2.265 1_556 S
O307 C304 1.252 . S
O308 In299 2.326 . S
O308 C304 1.260 1_554 S
C309 O300 1.240 . S
C309 O301 1.252 . S
O310 In299 2.293 1_556 S
O310 C303 1.240 . S
O311 In299 2.327 . S
O311 C303 1.252 1_554 S
In312 O313 2.294 . S
In312 O314 2.326 . S
In312 O318 2.266 . S
In312 O319 2.326 . S
In312 O320 2.266 . S
In312 O321 2.326 . S
In312 O323 2.294 . S
In312 O324 2.326 . S
O313 In312 2.294 . S
O313 C322 1.240 . S
O314 In312 2.326 . S
O314 C322 1.252 . S
C315 O318 1.252 . S
C315 O319 1.260 . S
C316 O323 1.240 . S
C316 O324 1.252 . S
C317 O320 1.252 . S
C317 O321 1.260 . S
O318 In312 2.266 . S
O318 C315 1.252 . S
O319 In312 2.326 . S
O319 C315 1.260 . S
O320 In312 2.266 . S
O320 C317 1.252 . S
O321 In312 2.326 . S
O321 C317 1.260 . S
C322 O313 1.240 . S
C322 O314 1.252 . S
O323 In312 2.294 . S
O323 C316 1.240 . S
O324 In312 2.326 . S
O324 C316 1.252 . S
In325 O326 2.294 . S
In325 O327 2.326 . S
In325 O331 2.266 . S
In325 O332 2.326 . S
In325 O333 2.266 . S
In325 O334 2.326 . S
In325 O336 2.294 . S
In325 O337 2.326 . S
O326 In325 2.294 . S
O326 C335 1.240 . S
O327 In325 2.326 . S
O327 C335 1.252 . S
C328 O331 1.252 . S
C328 O332 1.260 . S
C329 O336 1.240 . S
C329 O337 1.252 . S
C330 O333 1.252 . S
C330 O334 1.260 . S
O331 In325 2.266 . S
O331 C328 1.252 . S
O332 In325 2.326 . S
O332 C328 1.260 . S
O333 In325 2.266 . S
O333 C330 1.252 . S
O334 In325 2.326 . S
O334 C330 1.260 . S
C335 O326 1.240 . S
C335 O327 1.252 . S
O336 In325 2.294 . S
O336 C329 1.240 . S
O337 In325 2.326 . S
O337 C329 1.252 . S
In338 O339 2.294 . S
In338 O340 2.326 . S
In338 O344 2.266 . S
In338 O345 2.326 . S
In338 O346 2.266 . S
In338 O347 2.326 . S
In338 O349 2.294 . S
In338 O350 2.326 . S
O339 In338 2.294 . S
O339 C348 1.240 . S
O340 In338 2.326 . S
O340 C348 1.252 . S
C341 O344 1.252 . S
C341 O345 1.260 . S
C342 O349 1.240 . S
C342 O350 1.252 . S
C343 O346 1.252 . S
C343 O347 1.260 . S
O344 In338 2.266 . S
O344 C341 1.252 . S
O345 In338 2.326 . S
O345 C341 1.260 . S
O346 In338 2.266 . S
O346 C343 1.252 . S
O347 In338 2.326 . S
O347 C343 1.260 . S
C348 O339 1.240 . S
C348 O340 1.252 . S
O349 In338 2.294 . S
O349 C342 1.240 . S
O350 In338 2.326 . S
O350 C342 1.252 . S
In351 O352 2.293 1_556 S
In351 O353 2.327 . S
In351 O357 2.265 1_556 S
In351 O358 2.326 . S
In351 O359 2.267 . S
In351 O360 2.324 1_556 S
In351 O362 2.296 . S
In351 O363 2.328 . S
O352 In351 2.293 1_554 S
O352 C361 1.240 . S
O353 In351 2.327 . S
O353 C361 1.252 1_556 S
C354 O357 1.252 . S
C354 O358 1.260 1_554 S
C355 O362 1.240 . S
C355 O363 1.252 . S
C356 O359 1.252 1_554 S
C356 O360 1.260 . S
O357 In351 2.265 1_554 S
O357 C354 1.252 . S
O358 In351 2.326 . S
O358 C354 1.260 1_556 S
O359 In351 2.267 . S
O359 C356 1.252 1_556 S
O360 In351 2.324 1_554 S
O360 C356 1.260 . S
C361 O352 1.240 . S
C361 O353 1.252 1_554 S
O362 In351 2.296 . S
O362 C355 1.240 . S
O363 In351 2.328 . S
O363 C355 1.252 . S
In364 O365 2.293 1_556 S
In364 O366 2.327 . S
In364 O370 2.265 1_556 S
In364 O371 2.326 . S
In364 O372 2.267 . S
In364 O373 2.324 1_556 S
In364 O375 2.296 . S
In364 O376 2.328 . S
O365 In364 2.293 1_554 S
O365 C374 1.240 . S
O366 In364 2.327 . S
O366 C374 1.252 1_556 S
C367 O370 1.252 . S
C367 O371 1.260 1_554 S
C368 O375 1.240 . S
C368 O376 1.252 . S
C369 O372 1.252 1_554 S
C369 O373 1.260 . S
O370 In364 2.265 1_554 S
O370 C367 1.252 . S
O371 In364 2.326 . S
O371 C367 1.260 1_556 S
O372 In364 2.267 . S
O372 C369 1.252 1_556 S
O373 In364 2.324 1_554 S
O373 C369 1.260 . S
C374 O365 1.240 . S
C374 O366 1.252 1_554 S
O375 In364 2.296 . S
O375 C368 1.240 . S
O376 In364 2.328 . S
O376 C368 1.252 . S
In377 O378 2.293 1_556 S
In377 O379 2.327 . S
In377 O383 2.265 1_556 S
In377 O384 2.326 . S
In377 O385 2.267 . S
In377 O386 2.324 1_556 S
In377 O388 2.296 . S
In377 O389 2.328 . S
O378 In377 2.293 1_554 S
O378 C387 1.240 . S
O379 In377 2.327 . S
O379 C387 1.252 1_556 S
C380 O383 1.252 . S
C380 O384 1.260 1_554 S
C381 O388 1.240 . S
C381 O389 1.252 . S
C382 O385 1.252 1_554 S
C382 O386 1.260 . S
O383 In377 2.265 1_554 S
O383 C380 1.252 . S
O384 In377 2.326 . S
O384 C380 1.260 1_556 S
O385 In377 2.267 . S
O385 C382 1.252 1_556 S
O386 In377 2.324 1_554 S
O386 C382 1.260 . S
C387 O378 1.240 . S
C387 O379 1.252 1_554 S
O388 In377 2.296 . S
O388 C381 1.240 . S
O389 In377 2.328 . S
O389 C381 1.252 . S
In390 O391 2.294 . S
In390 O392 2.326 . S
In390 O396 2.266 . S
In390 O397 2.326 . S
In390 O398 2.266 . S
In390 O399 2.326 . S
In390 O401 2.294 . S
In390 O402 2.326 . S
O391 In390 2.294 . S
O391 C400 1.240 . S
O392 In390 2.326 . S
O392 C400 1.252 . S
C393 O396 1.252 . S
C393 O397 1.260 . S
C394 O401 1.240 . S
C394 O402 1.252 . S
C395 O398 1.252 . S
C395 O399 1.260 . S
O396 In390 2.266 . S
O396 C393 1.252 . S
O397 In390 2.326 . S
O397 C393 1.260 . S
O398 In390 2.266 . S
O398 C395 1.252 . S
O399 In390 2.326 . S
O399 C395 1.260 . S
C400 O391 1.240 . S
C400 O392 1.252 . S
O401 In390 2.294 . S
O401 C394 1.240 . S
O402 In390 2.326 . S
O402 C394 1.252 . S
In403 O404 2.294 . S
In403 O405 2.326 . S
In403 O409 2.266 . S
In403 O410 2.326 . S
In403 O411 2.266 . S
In403 O412 2.326 . S
In403 O414 2.294 . S
In403 O415 2.326 . S
O404 In403 2.294 . S
O404 C413 1.240 . S
O405 In403 2.326 . S
O405 C413 1.252 . S
C406 O409 1.252 . S
C406 O410 1.260 . S
C407 O414 1.240 . S
C407 O415 1.252 . S
C408 O411 1.252 . S
C408 O412 1.260 . S
O409 In403 2.266 . S
O409 C406 1.252 . S
O410 In403 2.326 . S
O410 C406 1.260 . S
O411 In403 2.266 . S
O411 C408 1.252 . S
O412 In403 2.326 . S
O412 C408 1.260 . S
C413 O404 1.240 . S
C413 O405 1.252 . S
O414 In403 2.294 . S
O414 C407 1.240 . S
O415 In403 2.326 . S
O415 C407 1.252 . S
In416 O417 2.294 . S
In416 O418 2.326 . S
In416 O422 2.266 . S
In416 O423 2.326 . S
In416 O424 2.266 . S
In416 O425 2.326 . S
In416 O427 2.294 . S
In416 O428 2.326 . S
O417 In416 2.294 . S
O417 C426 1.240 . S
O418 In416 2.326 . S
O418 C426 1.252 . S
C419 O422 1.252 . S
C419 O423 1.260 . S
C420 O427 1.240 . S
C420 O428 1.252 . S
C421 O424 1.252 . S
C421 O425 1.260 . S
O422 In416 2.266 . S
O422 C419 1.252 . S
O423 In416 2.326 . S
O423 C419 1.260 . S
O424 In416 2.266 . S
O424 C421 1.252 . S
O425 In416 2.326 . S
O425 C421 1.260 . S
C426 O417 1.240 . S
C426 O418 1.252 . S
O427 In416 2.294 . S
O427 C420 1.240 . S
O428 In416 2.326 . S
O428 C420 1.252 . S
In429 O430 2.294 . S
In429 O431 2.326 . S
In429 O435 2.266 . S
In429 O436 2.326 . S
In429 O437 2.266 . S
In429 O438 2.326 . S
In429 O440 2.294 . S
In429 O441 2.326 . S
O430 In429 2.294 . S
O430 C439 1.240 . S
O431 In429 2.326 . S
O431 C439 1.252 . S
C432 O435 1.252 . S
C432 O436 1.260 . S
C433 O440 1.240 . S
C433 O441 1.252 . S
C434 O437 1.252 . S
C434 O438 1.260 . S
O435 In429 2.266 . S
O435 C432 1.252 . S
O436 In429 2.326 . S
O436 C432 1.260 . S
O437 In429 2.266 . S
O437 C434 1.252 . S
O438 In429 2.326 . S
O438 C434 1.260 . S
C439 O430 1.240 . S
C439 O431 1.252 . S
O440 In429 2.294 . S
O440 C433 1.240 . S
O441 In429 2.326 . S
O441 C433 1.252 . S
In442 O443 2.294 . S
In442 O444 2.326 . S
In442 O448 2.266 . S
In442 O449 2.326 . S
In442 O450 2.266 . S
In442 O451 2.326 . S
In442 O453 2.294 . S
In442 O454 2.326 . S
O443 In442 2.294 . S
O443 C452 1.240 . S
O444 In442 2.326 . S
O444 C452 1.252 . S
C445 O448 1.252 . S
C445 O449 1.260 . S
C446 O453 1.240 . S
C446 O454 1.252 . S
C447 O450 1.252 . S
C447 O451 1.260 . S
O448 In442 2.266 . S
O448 C445 1.252 . S
O449 In442 2.326 . S
O449 C445 1.260 . S
O450 In442 2.266 . S
O450 C447 1.252 . S
O451 In442 2.326 . S
O451 C447 1.260 . S
C452 O443 1.240 . S
C452 O444 1.252 . S
O453 In442 2.294 . S
O453 C446 1.240 . S
O454 In442 2.326 . S
O454 C446 1.252 . S
In455 O456 2.294 . S
In455 O457 2.326 . S
In455 O461 2.266 . S
In455 O462 2.326 . S
In455 O463 2.266 . S
In455 O464 2.326 . S
In455 O466 2.294 . S
In455 O467 2.326 . S
O456 In455 2.294 . S
O456 C465 1.240 . S
O457 In455 2.326 . S
O457 C465 1.252 . S
C458 O461 1.252 . S
C458 O462 1.260 . S
C459 O466 1.240 . S
C459 O467 1.252 . S
C460 O463 1.252 . S
C460 O464 1.260 . S
O461 In455 2.266 . S
O461 C458 1.252 . S
O462 In455 2.326 . S
O462 C458 1.260 . S
O463 In455 2.266 . S
O463 C460 1.252 . S
O464 In455 2.326 . S
O464 C460 1.260 . S
C465 O456 1.240 . S
C465 O457 1.252 . S
O466 In455 2.294 . S
O466 C459 1.240 . S
O467 In455 2.326 . S
O467 C459 1.252 . S
C468 C469 1.349 . S
C468 C470 1.327 . S
C468 H493 0.950 . S
C469 C468 1.349 . S
C469 C485 1.349 . S
C470 C468 1.327 . S
C470 C489 1.429 . S
C470 H494 0.950 . S
C471 C488 1.574 . S
C471 C490 1.368 . S
C471 H495 0.949 . S
H472 C476 0.949 1_655 S
C473 C474 1.349 . S
C473 C475 1.327 . S
C473 H496 0.950 . S
C474 C473 1.349 . S
C474 C486 1.349 . S
C475 C473 1.327 . S
C475 C491 1.429 . S
C475 H497 0.950 . S
C476 H472 0.949 1_455 S
C476 C484 1.574 . S
C476 C492 1.368 1_455 S
H477 C485 0.950 . S
H478 C483 0.950 . S
H479 C484 0.949 . S
H480 C486 0.950 . S
H481 C487 0.950 . S
H482 C488 0.949 1_655 S
C483 H478 0.950 . S
C483 C485 1.327 . S
C483 C489 1.429 . S
C484 C476 1.574 . S
C484 H479 0.949 . S
C484 C490 1.368 . S
C485 C469 1.349 . S
C485 H477 0.950 . S
C485 C483 1.327 . S
C486 C474 1.349 . S
C486 H480 0.950 . S
C486 C487 1.327 . S
C487 H481 0.950 . S
C487 C486 1.327 . S
C487 C491 1.429 . S
C488 C471 1.574 . S
C488 H482 0.949 1_455 S
C488 C492 1.368 1_455 S
C489 C470 1.429 . S
C489 C483 1.429 . S
C489 C490 1.523 . S
C490 C471 1.368 . S
C490 C484 1.368 . S
C490 C489 1.523 . S
C491 C475 1.429 . S
C491 C487 1.429 . S
C491 C492 1.523 . S
C492 C476 1.368 1_655 S
C492 C488 1.368 1_655 S
C492 C491 1.523 . S
H493 C468 0.950 . S
H494 C470 0.950 . S
H495 C471 0.949 . S
H496 C473 0.950 . S
H497 C475 0.950 . S
C498 C499 1.349 . S
C498 C500 1.327 . S
C498 H523 0.950 . S
C499 C498 1.349 . S
C499 C515 1.349 . S
C500 C498 1.327 . S
C500 C519 1.429 . S
C500 H524 0.950 . S
C501 C518 1.574 . S
C501 C520 1.368 . S
C501 H525 0.949 . S
H502 C506 0.949 . S
C503 C504 1.349 . S
C503 C505 1.327 . S
C503 H526 0.950 . S
C504 C503 1.349 . S
C504 C516 1.349 . S
C505 C503 1.327 . S
C505 C521 1.429 . S
C505 H527 0.950 . S
C506 H502 0.949 . S
C506 C514 1.574 . S
C506 C522 1.368 . S
H507 C515 0.950 . S
H508 C513 0.950 . S
H509 C514 0.949 . S
H510 C516 0.950 . S
H511 C517 0.950 . S
H512 C518 0.949 . S
C513 H508 0.950 . S
C513 C515 1.327 . S
C513 C519 1.429 . S
C514 C506 1.574 . S
C514 H509 0.949 . S
C514 C520 1.368 . S
C515 C499 1.349 . S
C515 H507 0.950 . S
C515 C513 1.327 . S
C516 C504 1.349 . S
C516 H510 0.950 . S
C516 C517 1.327 . S
C517 H511 0.950 . S
C517 C516 1.327 . S
C517 C521 1.429 . S
C518 C501 1.574 . S
C518 H512 0.949 . S
C518 C522 1.368 . S
C519 C500 1.429 . S
C519 C513 1.429 . S
C519 C520 1.523 . S
C520 C501 1.368 . S
C520 C514 1.368 . S
C520 C519 1.523 . S
C521 C505 1.429 . S
C521 C517 1.429 . S
C521 C522 1.523 . S
C522 C506 1.368 . S
C522 C518 1.368 . S
C522 C521 1.523 . S
H523 C498 0.950 . S
H524 C500 0.950 . S
H525 C501 0.949 . S
H526 C503 0.950 . S
H527 C505 0.950 . S
C528 C529 1.349 . S
C528 C530 1.327 . S
C528 H553 0.950 . S
C529 C528 1.349 . S
C529 C545 1.349 . S
C530 C528 1.327 . S
C530 C549 1.429 . S
C530 H554 0.950 . S
C531 C548 1.574 . S
C531 C550 1.368 1_565 S
C531 H555 0.949 1_565 S
H532 C536 0.949 . S
C533 C534 1.349 . S
C533 C535 1.327 . S
C533 H556 0.950 . S
C534 C533 1.349 . S
C534 C546 1.349 . S
C535 C533 1.327 . S
C535 C551 1.429 . S
C535 H557 0.950 . S
C536 H532 0.949 . S
C536 C544 1.574 . S
C536 C552 1.368 . S
H537 C545 0.950 . S
H538 C543 0.950 . S
H539 C544 0.949 1_545 S
H540 C546 0.950 . S
H541 C547 0.950 . S
H542 C548 0.949 . S
C543 H538 0.950 . S
C543 C545 1.327 . S
C543 C549 1.429 . S
C544 C536 1.574 . S
C544 H539 0.949 1_565 S
C544 C550 1.368 1_565 S
C545 C529 1.349 . S
C545 H537 0.950 . S
C545 C543 1.327 . S
C546 C534 1.349 . S
C546 H540 0.950 . S
C546 C547 1.327 . S
C547 H541 0.950 . S
C547 C546 1.327 . S
C547 C551 1.429 . S
C548 C531 1.574 . S
C548 H542 0.949 . S
C548 C552 1.368 . S
C549 C530 1.429 . S
C549 C543 1.429 . S
C549 C550 1.523 . S
C550 C531 1.368 1_545 S
C550 C544 1.368 1_545 S
C550 C549 1.523 . S
C551 C535 1.429 . S
C551 C547 1.429 . S
C551 C552 1.523 . S
C552 C536 1.368 . S
C552 C548 1.368 . S
C552 C551 1.523 . S
H553 C528 0.950 . S
H554 C530 0.950 . S
H555 C531 0.949 1_545 S
H556 C533 0.950 . S
H557 C535 0.950 . S
C558 C559 1.349 . S
C558 C560 1.327 . S
C558 H583 0.950 . S
C559 C558 1.349 . S
C559 C575 1.349 . S
C560 C558 1.327 . S
C560 C579 1.429 . S
C560 H584 0.950 . S
C561 C578 1.574 . S
C561 C580 1.368 . S
C561 H585 0.949 . S
H562 C566 0.949 1_565 S
C563 C564 1.349 . S
C563 C565 1.327 . S
C563 H586 0.950 . S
C564 C563 1.349 . S
C564 C576 1.349 . S
C565 C563 1.327 . S
C565 C581 1.429 . S
C565 H587 0.950 . S
C566 H562 0.949 1_545 S
C566 C574 1.574 . S
C566 C582 1.368 1_545 S
H567 C575 0.950 . S
H568 C573 0.950 . S
H569 C574 0.949 . S
H570 C576 0.950 . S
H571 C577 0.950 . S
H572 C578 0.949 1_565 S
C573 H568 0.950 . S
C573 C575 1.327 . S
C573 C579 1.429 . S
C574 C566 1.574 . S
C574 H569 0.949 . S
C574 C580 1.368 . S
C575 C559 1.349 . S
C575 H567 0.950 . S
C575 C573 1.327 . S
C576 C564 1.349 . S
C576 H570 0.950 . S
C576 C577 1.327 . S
C577 H571 0.950 . S
C577 C576 1.327 . S
C577 C581 1.429 . S
C578 C561 1.574 . S
C578 H572 0.949 1_545 S
C578 C582 1.368 1_545 S
C579 C560 1.429 . S
C579 C573 1.429 . S
C579 C580 1.523 . S
C580 C561 1.368 . S
C580 C574 1.368 . S
C580 C579 1.523 . S
C581 C565 1.429 . S
C581 C577 1.429 . S
C581 C582 1.523 . S
C582 C566 1.368 1_565 S
C582 C578 1.368 1_565 S
C582 C581 1.523 . S
H583 C558 0.950 . S
H584 C560 0.950 . S
H585 C561 0.949 . S
H586 C563 0.950 . S
H587 C565 0.950 . S
C588 C589 1.349 . S
C588 C590 1.327 . S
C588 H613 0.950 . S
C589 C588 1.349 . S
C589 C605 1.349 . S
C590 C588 1.327 . S
C590 C609 1.429 . S
C590 H614 0.950 . S
C591 C608 1.574 . S
C591 C610 1.368 . S
C591 H615 0.949 . S
H592 C596 0.949 1_455 S
C593 C594 1.349 . S
C593 C595 1.327 . S
C593 H616 0.950 . S
C594 C593 1.349 . S
C594 C606 1.349 . S
C595 C593 1.327 . S
C595 C611 1.429 . S
C595 H617 0.950 . S
C596 H592 0.949 1_655 S
C596 C604 1.574 . S
C596 C612 1.368 1_655 S
H597 C605 0.950 . S
H598 C603 0.950 . S
H599 C604 0.949 . S
H600 C606 0.950 . S
H601 C607 0.950 . S
H602 C608 0.949 1_455 S
C603 H598 0.950 . S
C603 C605 1.327 . S
C603 C609 1.429 . S
C604 C596 1.574 . S
C604 H599 0.949 . S
C604 C610 1.368 . S
C605 C589 1.349 . S
C605 H597 0.950 . S
C605 C603 1.327 . S
C606 C594 1.349 . S
C606 H600 0.950 . S
C606 C607 1.327 . S
C607 H601 0.950 . S
C607 C606 1.327 . S
C607 C611 1.429 . S
C608 C591 1.574 . S
C608 H602 0.949 1_655 S
C608 C612 1.368 1_655 S
C609 C590 1.429 . S
C609 C603 1.429 . S
C609 C610 1.523 . S
C610 C591 1.368 . S
C610 C604 1.368 . S
C610 C609 1.523 . S
C611 C595 1.429 . S
C611 C607 1.429 . S
C611 C612 1.523 . S
C612 C596 1.368 1_455 S
C612 C608 1.368 1_455 S
C612 C611 1.523 . S
H613 C588 0.950 . S
H614 C590 0.950 . S
H615 C591 0.949 . S
H616 C593 0.950 . S
H617 C595 0.950 . S
C618 C619 1.349 . S
C618 C620 1.327 . S
C618 H643 0.950 . S
C619 C618 1.349 . S
C619 C635 1.349 . S
C620 C618 1.327 . S
C620 C639 1.429 . S
C620 H644 0.950 . S
C621 C638 1.574 . S
C621 C640 1.368 . S
C621 H645 0.949 . S
H622 C626 0.949 . S
C623 C624 1.349 . S
C623 C625 1.327 . S
C623 H646 0.950 . S
C624 C623 1.349 . S
C624 C636 1.349 . S
C625 C623 1.327 . S
C625 C641 1.429 . S
C625 H647 0.950 . S
C626 H622 0.949 . S
C626 C634 1.574 . S
C626 C642 1.368 . S
H627 C635 0.950 . S
H628 C633 0.950 . S
H629 C634 0.949 . S
H630 C636 0.950 . S
H631 C637 0.950 . S
H632 C638 0.949 . S
C633 H628 0.950 . S
C633 C635 1.327 . S
C633 C639 1.429 . S
C634 C626 1.574 . S
C634 H629 0.949 . S
C634 C640 1.368 . S
C635 C619 1.349 . S
C635 H627 0.950 . S
C635 C633 1.327 . S
C636 C624 1.349 . S
C636 H630 0.950 . S
C636 C637 1.327 . S
C637 H631 0.950 . S
C637 C636 1.327 . S
C637 C641 1.429 . S
C638 C621 1.574 . S
C638 H632 0.949 . S
C638 C642 1.368 . S
C639 C620 1.429 . S
C639 C633 1.429 . S
C639 C640 1.523 . S
C640 C621 1.368 . S
C640 C634 1.368 . S
C640 C639 1.523 . S
C641 C625 1.429 . S
C641 C637 1.429 . S
C641 C642 1.523 . S
C642 C626 1.368 . S
C642 C638 1.368 . S
C642 C641 1.523 . S
H643 C618 0.950 . S
H644 C620 0.950 . S
H645 C621 0.949 . S
H646 C623 0.950 . S
H647 C625 0.950 . S
C648 C649 1.349 . S
C648 C650 1.327 . S
C648 H673 0.950 . S
C649 C648 1.349 . S
C649 C665 1.349 . S
C650 C648 1.327 . S
C650 C669 1.429 . S
C650 H674 0.950 . S
C651 C668 1.574 . S
C651 C670 1.368 . S
C651 H675 0.949 . S
H652 C656 0.949 1_455 S
C653 C654 1.349 . S
C653 C655 1.327 . S
C653 H676 0.950 . S
C654 C653 1.349 . S
C654 C666 1.349 . S
C655 C653 1.327 . S
C655 C671 1.429 . S
C655 H677 0.950 . S
C656 H652 0.949 1_655 S
C656 C664 1.574 . S
C656 C672 1.368 1_655 S
H657 C665 0.950 . S
H658 C663 0.950 . S
H659 C664 0.949 . S
H660 C666 0.950 . S
H661 C667 0.950 . S
H662 C668 0.949 1_455 S
C663 H658 0.950 . S
C663 C665 1.327 . S
C663 C669 1.429 . S
C664 C656 1.574 . S
C664 H659 0.949 . S
C664 C670 1.368 . S
C665 C649 1.349 . S
C665 H657 0.950 . S
C665 C663 1.327 . S
C666 C654 1.349 . S
C666 H660 0.950 . S
C666 C667 1.327 . S
C667 H661 0.950 . S
C667 C666 1.327 . S
C667 C671 1.429 . S
C668 C651 1.574 . S
C668 H662 0.949 1_655 S
C668 C672 1.368 1_655 S
C669 C650 1.429 . S
C669 C663 1.429 . S
C669 C670 1.523 . S
C670 C651 1.368 . S
C670 C664 1.368 . S
C670 C669 1.523 . S
C671 C655 1.429 . S
C671 C667 1.429 . S
C671 C672 1.523 . S
C672 C656 1.368 1_455 S
C672 C668 1.368 1_455 S
C672 C671 1.523 . S
H673 C648 0.950 . S
H674 C650 0.950 . S
H675 C651 0.949 . S
H676 C653 0.950 . S
H677 C655 0.950 . S
C678 C679 1.349 . S
C678 C680 1.327 . S
C678 H703 0.950 . S
C679 C678 1.349 . S
C679 C695 1.349 . S
C680 C678 1.327 . S
C680 C699 1.429 . S
C680 H704 0.950 . S
C681 C698 1.574 . S
C681 C700 1.368 . S
C681 H705 0.949 . S
H682 C686 0.949 . S
C683 C684 1.349 . S
C683 C685 1.327 . S
C683 H706 0.950 . S
C684 C683 1.349 . S
C684 C696 1.349 . S
C685 C683 1.327 . S
C685 C701 1.429 . S
C685 H707 0.950 . S
C686 H682 0.949 . S
C686 C694 1.574 . S
C686 C702 1.368 . S
H687 C695 0.950 . S
H688 C693 0.950 . S
H689 C694 0.949 . S
H690 C696 0.950 . S
H691 C697 0.950 . S
H692 C698 0.949 . S
C693 H688 0.950 . S
C693 C695 1.327 . S
C693 C699 1.429 . S
C694 C686 1.574 . S
C694 H689 0.949 . S
C694 C700 1.368 . S
C695 C679 1.349 . S
C695 H687 0.950 . S
C695 C693 1.327 . S
C696 C684 1.349 . S
C696 H690 0.950 . S
C696 C697 1.327 . S
C697 H691 0.950 . S
C697 C696 1.327 . S
C697 C701 1.429 . S
C698 C681 1.574 . S
C698 H692 0.949 . S
C698 C702 1.368 . S
C699 C680 1.429 . S
C699 C693 1.429 . S
C699 C700 1.523 . S
C700 C681 1.368 . S
C700 C694 1.368 . S
C700 C699 1.523 . S
C701 C685 1.429 . S
C701 C697 1.429 . S
C701 C702 1.523 . S
C702 C686 1.368 . S
C702 C698 1.368 . S
C702 C701 1.523 . S
H703 C678 0.950 . S
H704 C680 0.950 . S
H705 C681 0.949 . S
H706 C683 0.950 . S
H707 C685 0.950 . S
C708 C709 1.349 . S
C708 C710 1.327 . S
C708 H733 0.950 . S
C709 C708 1.349 . S
C709 C725 1.349 . S
C710 C708 1.327 . S
C710 C729 1.429 . S
C710 H734 0.950 . S
C711 C728 1.574 . S
C711 C730 1.368 1_545 S
C711 H735 0.949 1_545 S
H712 C716 0.949 . S
C713 C714 1.349 . S
C713 C715 1.327 . S
C713 H736 0.950 . S
C714 C713 1.349 . S
C714 C726 1.349 . S
C715 C713 1.327 . S
C715 C731 1.429 . S
C715 H737 0.950 . S
C716 H712 0.949 . S
C716 C724 1.574 . S
C716 C732 1.368 . S
H717 C725 0.950 . S
H718 C723 0.950 . S
H719 C724 0.949 1_565 S
H720 C726 0.950 . S
H721 C727 0.950 . S
H722 C728 0.949 . S
C723 H718 0.950 . S
C723 C725 1.327 . S
C723 C729 1.429 . S
C724 C716 1.574 . S
C724 H719 0.949 1_545 S
C724 C730 1.368 1_545 S
C725 C709 1.349 . S
C725 H717 0.950 . S
C725 C723 1.327 . S
C726 C714 1.349 . S
C726 H720 0.950 . S
C726 C727 1.327 . S
C727 H721 0.950 . S
C727 C726 1.327 . S
C727 C731 1.429 . S
C728 C711 1.574 . S
C728 H722 0.949 . S
C728 C732 1.368 . S
C729 C710 1.429 . S
C729 C723 1.429 . S
C729 C730 1.523 . S
C730 C711 1.368 1_565 S
C730 C724 1.368 1_565 S
C730 C729 1.523 . S
C731 C715 1.429 . S
C731 C727 1.429 . S
C731 C732 1.523 . S
C732 C716 1.368 . S
C732 C728 1.368 . S
C732 C731 1.523 . S
H733 C708 0.950 . S
H734 C710 0.950 . S
H735 C711 0.949 1_565 S
H736 C713 0.950 . S
H737 C715 0.950 . S
C738 C739 1.349 . S
C738 C740 1.327 . S
C738 H763 0.950 . S
C739 C738 1.349 . S
C739 C755 1.349 . S
C740 C738 1.327 . S
C740 C759 1.429 . S
C740 H764 0.950 . S
C741 C758 1.574 . S
C741 C760 1.368 1_565 S
C741 H765 0.949 1_565 S
H742 C746 0.949 . S
C743 C744 1.349 . S
C743 C745 1.327 . S
C743 H766 0.950 . S
C744 C743 1.349 . S
C744 C756 1.349 . S
C745 C743 1.327 . S
C745 C761 1.429 . S
C745 H767 0.950 . S
C746 H742 0.949 . S
C746 C754 1.574 . S
C746 C762 1.368 . S
H747 C755 0.950 . S
H748 C753 0.950 . S
H749 C754 0.949 1_545 S
H750 C756 0.950 . S
H751 C757 0.950 . S
H752 C758 0.949 . S
C753 H748 0.950 . S
C753 C755 1.327 . S
C753 C759 1.429 . S
C754 C746 1.574 . S
C754 H749 0.949 1_565 S
C754 C760 1.368 1_565 S
C755 C739 1.349 . S
C755 H747 0.950 . S
C755 C753 1.327 . S
C756 C744 1.349 . S
C756 H750 0.950 . S
C756 C757 1.327 . S
C757 H751 0.950 . S
C757 C756 1.327 . S
C757 C761 1.429 . S
C758 C741 1.574 . S
C758 H752 0.949 . S
C758 C762 1.368 . S
C759 C740 1.429 . S
C759 C753 1.429 . S
C759 C760 1.523 . S
C760 C741 1.368 1_545 S
C760 C754 1.368 1_545 S
C760 C759 1.523 . S
C761 C745 1.429 . S
C761 C757 1.429 . S
C761 C762 1.523 . S
C762 C746 1.368 . S
C762 C758 1.368 . S
C762 C761 1.523 . S
H763 C738 0.950 . S
H764 C740 0.950 . S
H765 C741 0.949 1_545 S
H766 C743 0.950 . S
H767 C745 0.950 . S
C768 C769 1.349 . S
C768 C770 1.327 . S
C768 H793 0.950 . S
C769 C768 1.349 . S
C769 C785 1.349 . S
C770 C768 1.327 . S
C770 C789 1.429 . S
C770 H794 0.950 . S
C771 C788 1.574 . S
C771 C790 1.368 . S
C771 H795 0.949 . S
H772 C776 0.949 1_655 S
C773 C774 1.349 . S
C773 C775 1.327 . S
C773 H796 0.950 . S
C774 C773 1.349 . S
C774 C786 1.349 . S
C775 C773 1.327 . S
C775 C791 1.429 . S
C775 H797 0.950 . S
C776 H772 0.949 1_455 S
C776 C784 1.574 . S
C776 C792 1.368 1_455 S
H777 C785 0.950 . S
H778 C783 0.950 . S
H779 C784 0.949 . S
H780 C786 0.950 . S
H781 C787 0.950 . S
H782 C788 0.949 1_655 S
C783 H778 0.950 . S
C783 C785 1.327 . S
C783 C789 1.429 . S
C784 C776 1.574 . S
C784 H779 0.949 . S
C784 C790 1.368 . S
C785 C769 1.349 . S
C785 H777 0.950 . S
C785 C783 1.327 . S
C786 C774 1.349 . S
C786 H780 0.950 . S
C786 C787 1.327 . S
C787 H781 0.950 . S
C787 C786 1.327 . S
C787 C791 1.429 . S
C788 C771 1.574 . S
C788 H782 0.949 1_455 S
C788 C792 1.368 1_455 S
C789 C770 1.429 . S
C789 C783 1.429 . S
C789 C790 1.523 . S
C790 C771 1.368 . S
C790 C784 1.368 . S
C790 C789 1.523 . S
C791 C775 1.429 . S
C791 C787 1.429 . S
C791 C792 1.523 . S
C792 C776 1.368 1_655 S
C792 C788 1.368 1_655 S
C792 C791 1.523 . S
H793 C768 0.950 . S
H794 C770 0.950 . S
H795 C771 0.949 . S
H796 C773 0.950 . S
H797 C775 0.950 . S
C798 C799 1.349 . S
C798 C800 1.327 . S
C798 H823 0.950 . S
C799 C798 1.349 . S
C799 C815 1.349 . S
C800 C798 1.327 . S
C800 C819 1.429 . S
C800 H824 0.950 . S
C801 C818 1.574 . S
C801 C820 1.368 . S
C801 H825 0.949 . S
H802 C806 0.949 . S
C803 C804 1.349 . S
C803 C805 1.327 . S
C803 H826 0.950 . S
C804 C803 1.349 . S
C804 C816 1.349 . S
C805 C803 1.327 . S
C805 C821 1.429 . S
C805 H827 0.950 . S
C806 H802 0.949 . S
C806 C814 1.574 . S
C806 C822 1.368 . S
H807 C815 0.950 . S
H808 C813 0.950 . S
H809 C814 0.949 . S
H810 C816 0.950 . S
H811 C817 0.950 . S
H812 C818 0.949 . S
C813 H808 0.950 . S
C813 C815 1.327 . S
C813 C819 1.429 . S
C814 C806 1.574 . S
C814 H809 0.949 . S
C814 C820 1.368 . S
C815 C799 1.349 . S
C815 H807 0.950 . S
C815 C813 1.327 . S
C816 C804 1.349 . S
C816 H810 0.950 . S
C816 C817 1.327 . S
C817 H811 0.950 . S
C817 C816 1.327 . S
C817 C821 1.429 . S
C818 C801 1.574 . S
C818 H812 0.949 . S
C818 C822 1.368 . S
C819 C800 1.429 . S
C819 C813 1.429 . S
C819 C820 1.523 . S
C820 C801 1.368 . S
C820 C814 1.368 . S
C820 C819 1.523 . S
C821 C805 1.429 . S
C821 C817 1.429 . S
C821 C822 1.523 . S
C822 C806 1.368 . S
C822 C818 1.368 . S
C822 C821 1.523 . S
H823 C798 0.950 . S
H824 C800 0.950 . S
H825 C801 0.949 . S
H826 C803 0.950 . S
H827 C805 0.950 . S
C828 C829 1.349 . S
C828 C830 1.327 . S
C828 H853 0.950 . S
C829 C828 1.349 . S
C829 C845 1.349 . S
C830 C828 1.327 . S
C830 C849 1.429 . S
C830 H854 0.950 . S
C831 C848 1.574 . S
C831 C850 1.368 . S
C831 H855 0.949 . S
H832 C836 0.949 . S
C833 C834 1.349 . S
C833 C835 1.327 . S
C833 H856 0.950 . S
C834 C833 1.349 . S
C834 C846 1.349 . S
C835 C833 1.327 . S
C835 C851 1.429 . S
C835 H857 0.950 . S
C836 H832 0.949 . S
C836 C844 1.574 . S
C836 C852 1.368 . S
H837 C845 0.950 . S
H838 C843 0.950 . S
H839 C844 0.949 . S
H840 C846 0.950 . S
H841 C847 0.950 . S
H842 C848 0.949 . S
C843 H838 0.950 . S
C843 C845 1.327 . S
C843 C849 1.429 . S
C844 C836 1.574 . S
C844 H839 0.949 . S
C844 C850 1.368 . S
C845 C829 1.349 . S
C845 H837 0.950 . S
C845 C843 1.327 . S
C846 C834 1.349 . S
C846 H840 0.950 . S
C846 C847 1.327 . S
C847 H841 0.950 . S
C847 C846 1.327 . S
C847 C851 1.429 . S
C848 C831 1.574 . S
C848 H842 0.949 . S
C848 C852 1.368 . S
C849 C830 1.429 . S
C849 C843 1.429 . S
C849 C850 1.523 . S
C850 C831 1.368 . S
C850 C844 1.368 . S
C850 C849 1.523 . S
C851 C835 1.429 . S
C851 C847 1.429 . S
C851 C852 1.523 . S
C852 C836 1.368 . S
C852 C848 1.368 . S
C852 C851 1.523 . S
H853 C828 0.950 . S
H854 C830 0.950 . S
H855 C831 0.949 . S
H856 C833 0.950 . S
H857 C835 0.950 . S
C858 C859 1.349 . S
C858 C860 1.327 . S
C858 H883 0.950 . S
C859 C858 1.349 . S
C859 C875 1.349 . S
C860 C858 1.327 . S
C860 C879 1.429 . S
C860 H884 0.950 . S
C861 C878 1.574 . S
C861 C880 1.368 . S
C861 H885 0.949 . S
H862 C866 0.949 . S
C863 C864 1.349 . S
C863 C865 1.327 . S
C863 H886 0.950 . S
C864 C863 1.349 . S
C864 C876 1.349 . S
C865 C863 1.327 . S
C865 C881 1.429 . S
C865 H887 0.950 . S
C866 H862 0.949 . S
C866 C874 1.574 . S
C866 C882 1.368 . S
H867 C875 0.950 . S
H868 C873 0.950 . S
H869 C874 0.949 . S
H870 C876 0.950 . S
H871 C877 0.950 . S
H872 C878 0.949 . S
C873 H868 0.950 . S
C873 C875 1.327 . S
C873 C879 1.429 . S
C874 C866 1.574 . S
C874 H869 0.949 . S
C874 C880 1.368 . S
C875 C859 1.349 . S
C875 H867 0.950 . S
C875 C873 1.327 . S
C876 C864 1.349 . S
C876 H870 0.950 . S
C876 C877 1.327 . S
C877 H871 0.950 . S
C877 C876 1.327 . S
C877 C881 1.429 . S
C878 C861 1.574 . S
C878 H872 0.949 . S
C878 C882 1.368 . S
C879 C860 1.429 . S
C879 C873 1.429 . S
C879 C880 1.523 . S
C880 C861 1.368 . S
C880 C874 1.368 . S
C880 C879 1.523 . S
C881 C865 1.429 . S
C881 C877 1.429 . S
C881 C882 1.523 . S
C882 C866 1.368 . S
C882 C878 1.368 . S
C882 C881 1.523 . S
H883 C858 0.950 . S
H884 C860 0.950 . S
H885 C861 0.949 . S
H886 C863 0.950 . S
H887 C865 0.950 . S
C888 C889 1.349 . S
C888 C890 1.327 . S
C888 H913 0.950 . S
C889 C888 1.349 . S
C889 C905 1.349 . S
C890 C888 1.327 . S
C890 C909 1.429 . S
C890 H914 0.950 . S
C891 C908 1.574 . S
C891 C910 1.368 . S
C891 H915 0.949 . S
H892 C896 0.949 . S
C893 C894 1.349 . S
C893 C895 1.327 . S
C893 H916 0.950 . S
C894 C893 1.349 . S
C894 C906 1.349 . S
C895 C893 1.327 . S
C895 C911 1.429 . S
C895 H917 0.950 . S
C896 H892 0.949 . S
C896 C904 1.574 . S
C896 C912 1.368 . S
H897 C905 0.950 . S
H898 C903 0.950 . S
H899 C904 0.949 . S
H900 C906 0.950 . S
H901 C907 0.950 . S
H902 C908 0.949 . S
C903 H898 0.950 . S
C903 C905 1.327 . S
C903 C909 1.429 . S
C904 C896 1.574 . S
C904 H899 0.949 . S
C904 C910 1.368 . S
C905 C889 1.349 . S
C905 H897 0.950 . S
C905 C903 1.327 . S
C906 C894 1.349 . S
C906 H900 0.950 . S
C906 C907 1.327 . S
C907 H901 0.950 . S
C907 C906 1.327 . S
C907 C911 1.429 . S
C908 C891 1.574 . S
C908 H902 0.949 . S
C908 C912 1.368 . S
C909 C890 1.429 . S
C909 C903 1.429 . S
C909 C910 1.523 . S
C910 C891 1.368 . S
C910 C904 1.368 . S
C910 C909 1.523 . S
C911 C895 1.429 . S
C911 C907 1.429 . S
C911 C912 1.523 . S
C912 C896 1.368 . S
C912 C908 1.368 . S
C912 C911 1.523 . S
H913 C888 0.950 . S
H914 C890 0.950 . S
H915 C891 0.949 . S
H916 C893 0.950 . S
H917 C895 0.950 . S
C918 C919 1.349 . S
C918 C920 1.327 . S
C918 H943 0.950 . S
C919 C918 1.349 . S
C919 C935 1.349 . S
C920 C918 1.327 . S
C920 C939 1.429 . S
C920 H944 0.950 . S
C921 C938 1.574 . S
C921 C940 1.368 . S
C921 H945 0.949 . S
H922 C926 0.949 . S
C923 C924 1.349 . S
C923 C925 1.327 . S
C923 H946 0.950 . S
C924 C923 1.349 . S
C924 C936 1.349 . S
C925 C923 1.327 . S
C925 C941 1.429 . S
C925 H947 0.950 . S
C926 H922 0.949 . S
C926 C934 1.574 . S
C926 C942 1.368 . S
H927 C935 0.950 . S
H928 C933 0.950 . S
H929 C934 0.949 . S
H930 C936 0.950 . S
H931 C937 0.950 . S
H932 C938 0.949 . S
C933 H928 0.950 . S
C933 C935 1.327 . S
C933 C939 1.429 . S
C934 C926 1.574 . S
C934 H929 0.949 . S
C934 C940 1.368 . S
C935 C919 1.349 . S
C935 H927 0.950 . S
C935 C933 1.327 . S
C936 C924 1.349 . S
C936 H930 0.950 . S
C936 C937 1.327 . S
C937 H931 0.950 . S
C937 C936 1.327 . S
C937 C941 1.429 . S
C938 C921 1.574 . S
C938 H932 0.949 . S
C938 C942 1.368 . S
C939 C920 1.429 . S
C939 C933 1.429 . S
C939 C940 1.523 . S
C940 C921 1.368 . S
C940 C934 1.368 . S
C940 C939 1.523 . S
C941 C925 1.429 . S
C941 C937 1.429 . S
C941 C942 1.523 . S
C942 C926 1.368 . S
C942 C938 1.368 . S
C942 C941 1.523 . S
H943 C918 0.950 . S
H944 C920 0.950 . S
H945 C921 0.949 . S
H946 C923 0.950 . S
H947 C925 0.950 . S
C948 C949 1.349 . S
C948 C950 1.327 . S
C948 H973 0.950 . S
C949 C948 1.349 . S
C949 C965 1.349 . S
C950 C948 1.327 . S
C950 C969 1.429 . S
C950 H974 0.950 . S
C951 C968 1.574 . S
C951 C970 1.368 . S
C951 H975 0.949 . S
H952 C956 0.949 . S
C953 C954 1.349 . S
C953 C955 1.327 . S
C953 H976 0.950 . S
C954 C953 1.349 . S
C954 C966 1.349 . S
C955 C953 1.327 . S
C955 C971 1.429 . S
C955 H977 0.950 . S
C956 H952 0.949 . S
C956 C964 1.574 . S
C956 C972 1.368 . S
H957 C965 0.950 . S
H958 C963 0.950 . S
H959 C964 0.949 . S
H960 C966 0.950 . S
H961 C967 0.950 . S
H962 C968 0.949 . S
C963 H958 0.950 . S
C963 C965 1.327 . S
C963 C969 1.429 . S
C964 C956 1.574 . S
C964 H959 0.949 . S
C964 C970 1.368 . S
C965 C949 1.349 . S
C965 H957 0.950 . S
C965 C963 1.327 . S
C966 C954 1.349 . S
C966 H960 0.950 . S
C966 C967 1.327 . S
C967 H961 0.950 . S
C967 C966 1.327 . S
C967 C971 1.429 . S
C968 C951 1.574 . S
C968 H962 0.949 . S
C968 C972 1.368 . S
C969 C950 1.429 . S
C969 C963 1.429 . S
C969 C970 1.523 . S
C970 C951 1.368 . S
C970 C964 1.368 . S
C970 C969 1.523 . S
C971 C955 1.429 . S
C971 C967 1.429 . S
C971 C972 1.523 . S
C972 C956 1.368 . S
C972 C968 1.368 . S
C972 C971 1.523 . S
H973 C948 0.950 . S
H974 C950 0.950 . S
H975 C951 0.949 . S
H976 C953 0.950 . S
H977 C955 0.950 . S
C978 C979 1.349 . S
C978 C980 1.327 . S
C978 H1003 0.950 . S
C979 C978 1.349 . S
C979 C995 1.349 . S
C980 C978 1.327 . S
C980 C999 1.429 . S
C980 H1004 0.950 . S
C981 C998 1.574 . S
C981 C1000 1.368 . S
C981 H1005 0.949 . S
H982 C986 0.949 . S
C983 C984 1.349 . S
C983 C985 1.327 . S
C983 H1006 0.950 . S
C984 C983 1.349 . S
C984 C996 1.349 . S
C985 C983 1.327 . S
C985 C1001 1.429 . S
C985 H1007 0.950 . S
C986 H982 0.949 . S
C986 C994 1.574 . S
C986 C1002 1.368 . S
H987 C995 0.950 . S
H988 C993 0.950 . S
H989 C994 0.949 . S
H990 C996 0.950 . S
H991 C997 0.950 . S
H992 C998 0.949 . S
C993 H988 0.950 . S
C993 C995 1.327 . S
C993 C999 1.429 . S
C994 C986 1.574 . S
C994 H989 0.949 . S
C994 C1000 1.368 . S
C995 C979 1.349 . S
C995 H987 0.950 . S
C995 C993 1.327 . S
C996 C984 1.349 . S
C996 H990 0.950 . S
C996 C997 1.327 . S
C997 H991 0.950 . S
C997 C996 1.327 . S
C997 C1001 1.429 . S
C998 C981 1.574 . S
C998 H992 0.949 . S
C998 C1002 1.368 . S
C999 C980 1.429 . S
C999 C993 1.429 . S
C999 C1000 1.523 . S
C1000 C981 1.368 . S
C1000 C994 1.368 . S
C1000 C999 1.523 . S
C1001 C985 1.429 . S
C1001 C997 1.429 . S
C1001 C1002 1.523 . S
C1002 C986 1.368 . S
C1002 C998 1.368 . S
C1002 C1001 1.523 . S
H1003 C978 0.950 . S
H1004 C980 0.950 . S
H1005 C981 0.949 . S
H1006 C983 0.950 . S
H1007 C985 0.950 . S
C1008 C1009 1.349 . S
C1008 C1010 1.327 . S
C1008 H1033 0.950 . S
C1009 C1008 1.349 . S
C1009 C1025 1.349 . S
C1010 C1008 1.327 . S
C1010 C1029 1.429 . S
C1010 H1034 0.950 . S
C1011 C1028 1.574 . S
C1011 C1030 1.368 . S
C1011 H1035 0.949 . S
H1012 C1016 0.949 . S
C1013 C1014 1.349 . S
C1013 C1015 1.327 . S
C1013 H1036 0.950 . S
C1014 C1013 1.349 . S
C1014 C1026 1.349 . S
C1015 C1013 1.327 . S
C1015 C1031 1.429 . S
C1015 H1037 0.950 . S
C1016 H1012 0.949 . S
C1016 C1024 1.574 . S
C1016 C1032 1.368 . S
H1017 C1025 0.950 . S
H1018 C1023 0.950 . S
H1019 C1024 0.949 . S
H1020 C1026 0.950 . S
H1021 C1027 0.950 . S
H1022 C1028 0.949 . S
C1023 H1018 0.950 . S
C1023 C1025 1.327 . S
C1023 C1029 1.429 . S
C1024 C1016 1.574 . S
C1024 H1019 0.949 . S
C1024 C1030 1.368 . S
C1025 C1009 1.349 . S
C1025 H1017 0.950 . S
C1025 C1023 1.327 . S
C1026 C1014 1.349 . S
C1026 H1020 0.950 . S
C1026 C1027 1.327 . S
C1027 H1021 0.950 . S
C1027 C1026 1.327 . S
C1027 C1031 1.429 . S
C1028 C1011 1.574 . S
C1028 H1022 0.949 . S
C1028 C1032 1.368 . S
C1029 C1010 1.429 . S
C1029 C1023 1.429 . S
C1029 C1030 1.523 . S
C1030 C1011 1.368 . S
C1030 C1024 1.368 . S
C1030 C1029 1.523 . S
C1031 C1015 1.429 . S
C1031 C1027 1.429 . S
C1031 C1032 1.523 . S
C1032 C1016 1.368 . S
C1032 C1028 1.368 . S
C1032 C1031 1.523 . S
H1033 C1008 0.950 . S
H1034 C1010 0.950 . S
H1035 C1011 0.949 . S
H1036 C1013 0.950 . S
H1037 C1015 0.950 . S
C1038 C1039 1.349 . S
C1038 C1040 1.327 . S
C1038 H1063 0.950 . S
C1039 C1038 1.349 . S
C1039 C1055 1.349 . S
C1040 C1038 1.327 . S
C1040 C1059 1.429 . S
C1040 H1064 0.950 . S
C1041 C1058 1.574 . S
C1041 C1060 1.368 . S
C1041 H1065 0.949 . S
H1042 C1046 0.949 . S
C1043 C1044 1.349 . S
C1043 C1045 1.327 . S
C1043 H1066 0.950 . S
C1044 C1043 1.349 . S
C1044 C1056 1.349 . S
C1045 C1043 1.327 . S
C1045 C1061 1.429 . S
C1045 H1067 0.950 . S
C1046 H1042 0.949 . S
C1046 C1054 1.574 . S
C1046 C1062 1.368 . S
H1047 C1055 0.950 . S
H1048 C1053 0.950 . S
H1049 C1054 0.949 . S
H1050 C1056 0.950 . S
H1051 C1057 0.950 . S
H1052 C1058 0.949 . S
C1053 H1048 0.950 . S
C1053 C1055 1.327 . S
C1053 C1059 1.429 . S
C1054 C1046 1.574 . S
C1054 H1049 0.949 . S
C1054 C1060 1.368 . S
C1055 C1039 1.349 . S
C1055 H1047 0.950 . S
C1055 C1053 1.327 . S
C1056 C1044 1.349 . S
C1056 H1050 0.950 . S
C1056 C1057 1.327 . S
C1057 H1051 0.950 . S
C1057 C1056 1.327 . S
C1057 C1061 1.429 . S
C1058 C1041 1.574 . S
C1058 H1052 0.949 . S
C1058 C1062 1.368 . S
C1059 C1040 1.429 . S
C1059 C1053 1.429 . S
C1059 C1060 1.523 . S
C1060 C1041 1.368 . S
C1060 C1054 1.368 . S
C1060 C1059 1.523 . S
C1061 C1045 1.429 . S
C1061 C1057 1.429 . S
C1061 C1062 1.523 . S
C1062 C1046 1.368 . S
C1062 C1058 1.368 . S
C1062 C1061 1.523 . S
H1063 C1038 0.950 . S
H1064 C1040 0.950 . S
H1065 C1041 0.949 . S
H1066 C1043 0.950 . S
H1067 C1045 0.950 . S
C1068 C1069 1.349 . S
C1068 C1070 1.327 . S
C1068 H1093 0.950 . S
C1069 C1068 1.349 . S
C1069 C1085 1.349 . S
C1070 C1068 1.327 . S
C1070 C1089 1.429 . S
C1070 H1094 0.950 . S
C1071 C1088 1.574 . S
C1071 C1090 1.368 . S
C1071 H1095 0.949 . S
H1072 C1076 0.949 . S
C1073 C1074 1.349 . S
C1073 C1075 1.327 . S
C1073 H1096 0.950 . S
C1074 C1073 1.349 . S
C1074 C1086 1.349 . S
C1075 C1073 1.327 . S
C1075 C1091 1.429 . S
C1075 H1097 0.950 . S
C1076 H1072 0.949 . S
C1076 C1084 1.574 . S
C1076 C1092 1.368 . S
H1077 C1085 0.950 . S
H1078 C1083 0.950 . S
H1079 C1084 0.949 . S
H1080 C1086 0.950 . S
H1081 C1087 0.950 . S
H1082 C1088 0.949 . S
C1083 H1078 0.950 . S
C1083 C1085 1.327 . S
C1083 C1089 1.429 . S
C1084 C1076 1.574 . S
C1084 H1079 0.949 . S
C1084 C1090 1.368 . S
C1085 C1069 1.349 . S
C1085 H1077 0.950 . S
C1085 C1083 1.327 . S
C1086 C1074 1.349 . S
C1086 H1080 0.950 . S
C1086 C1087 1.327 . S
C1087 H1081 0.950 . S
C1087 C1086 1.327 . S
C1087 C1091 1.429 . S
C1088 C1071 1.574 . S
C1088 H1082 0.949 . S
C1088 C1092 1.368 . S
C1089 C1070 1.429 . S
C1089 C1083 1.429 . S
C1089 C1090 1.523 . S
C1090 C1071 1.368 . S
C1090 C1084 1.368 . S
C1090 C1089 1.523 . S
C1091 C1075 1.429 . S
C1091 C1087 1.429 . S
C1091 C1092 1.523 . S
C1092 C1076 1.368 . S
C1092 C1088 1.368 . S
C1092 C1091 1.523 . S
H1093 C1068 0.950 . S
H1094 C1070 0.950 . S
H1095 C1071 0.949 . S
H1096 C1073 0.950 . S
H1097 C1075 0.950 . S
C1098 C1099 1.349 . S
C1098 C1100 1.327 . S
C1098 H1123 0.950 1_556 S
C1099 C1098 1.349 . S
C1099 C1115 1.349 . S
C1100 C1098 1.327 . S
C1100 C1119 1.429 . S
C1100 H1124 0.950 1_556 S
C1101 C1118 1.574 . S
C1101 C1120 1.368 . S
C1101 H1125 0.949 . S
H1102 C1106 0.949 1_554 S
C1103 C1104 1.349 . S
C1103 C1105 1.327 . S
C1103 H1126 0.950 . S
C1104 C1103 1.349 . S
C1104 C1116 1.349 . S
C1105 C1103 1.327 . S
C1105 C1121 1.429 . S
C1105 H1127 0.950 . S
C1106 H1102 0.949 1_556 S
C1106 C1114 1.574 . S
C1106 C1122 1.368 . S
H1107 C1115 0.950 . S
H1108 C1113 0.950 . S
H1109 C1114 0.949 1_554 S
H1110 C1116 0.950 1_554 S
H1111 C1117 0.950 1_554 S
H1112 C1118 0.949 . S
C1113 H1108 0.950 . S
C1113 C1115 1.327 . S
C1113 C1119 1.429 . S
C1114 C1106 1.574 . S
C1114 H1109 0.949 1_556 S
C1114 C1120 1.368 . S
C1115 C1099 1.349 . S
C1115 H1107 0.950 . S
C1115 C1113 1.327 . S
C1116 C1104 1.349 . S
C1116 H1110 0.950 1_556 S
C1116 C1117 1.327 . S
C1117 H1111 0.950 1_556 S
C1117 C1116 1.327 . S
C1117 C1121 1.429 . S
C1118 C1101 1.574 . S
C1118 H1112 0.949 . S
C1118 C1122 1.368 . S
C1119 C1100 1.429 . S
C1119 C1113 1.429 . S
C1119 C1120 1.523 . S
C1120 C1101 1.368 . S
C1120 C1114 1.368 . S
C1120 C1119 1.523 . S
C1121 C1105 1.429 . S
C1121 C1117 1.429 . S
C1121 C1122 1.523 . S
C1122 C1106 1.368 . S
C1122 C1118 1.368 . S
C1122 C1121 1.523 . S
H1123 C1098 0.950 1_554 S
H1124 C1100 0.950 1_554 S
H1125 C1101 0.949 . S
H1126 C1103 0.950 . S
H1127 C1105 0.950 . S
C1128 C1129 1.349 . S
C1128 C1130 1.327 . S
C1128 H1153 0.950 1_556 S
C1129 C1128 1.349 . S
C1129 C1145 1.349 . S
C1130 C1128 1.327 . S
C1130 C1149 1.429 . S
C1130 H1154 0.950 1_556 S
C1131 C1148 1.574 . S
C1131 C1150 1.368 . S
C1131 H1155 0.949 . S
H1132 C1136 0.894 1_554 S
C1133 C1134 1.349 . S
C1133 C1135 1.327 . S
C1133 H1156 0.950 . S
C1134 C1133 1.349 . S
C1134 C1146 1.349 . S
C1135 C1133 1.327 . S
C1135 C1151 1.429 . S
C1135 H1157 0.950 . S
C1136 H1132 0.894 1_556 S
C1136 C1144 1.576 . S
C1136 C1152 1.431 . S
H1137 C1145 0.950 . S
H1138 C1143 0.950 . S
H1139 C1144 0.949 1_554 S
H1140 C1146 0.950 1_554 S
H1141 C1147 0.950 1_554 S
H1142 C1148 0.949 . S
C1143 H1138 0.950 . S
C1143 C1145 1.327 . S
C1143 C1149 1.429 . S
C1144 C1136 1.576 . S
C1144 H1139 0.949 1_556 S
C1144 C1150 1.368 . S
C1145 C1129 1.349 . S
C1145 H1137 0.950 . S
C1145 C1143 1.327 . S
C1146 C1134 1.349 . S
C1146 H1140 0.950 1_556 S
C1146 C1147 1.327 . S
C1147 H1141 0.950 1_556 S
C1147 C1146 1.327 . S
C1147 C1151 1.429 . S
C1148 C1131 1.574 . S
C1148 H1142 0.949 . S
C1148 C1152 1.368 . S
C1149 C1130 1.429 . S
C1149 C1143 1.429 . S
C1149 C1150 1.523 . S
C1150 C1131 1.368 . S
C1150 C1144 1.368 . S
C1150 C1149 1.523 . S
C1151 C1135 1.429 . S
C1151 C1147 1.429 . S
C1151 C1152 1.523 . S
C1152 C1136 1.431 . S
C1152 C1148 1.368 . S
C1152 C1151 1.523 . S
H1153 C1128 0.950 1_554 S
H1154 C1130 0.950 1_554 S
H1155 C1131 0.949 . S
H1156 C1133 0.950 . S
H1157 C1135 0.950 . S
C1158 C1159 1.349 . S
C1158 C1160 1.327 . S
C1158 H1183 0.950 1_556 S
C1159 C1158 1.349 . S
C1159 C1175 1.349 . S
C1160 C1158 1.327 . S
C1160 C1179 1.429 . S
C1160 H1184 0.950 1_556 S
C1161 C1178 1.574 . S
C1161 C1180 1.368 . S
C1161 H1185 0.949 . S
H1162 C1166 0.949 1_554 S
C1163 C1164 1.349 . S
C1163 C1165 1.327 . S
C1163 H1186 0.950 . S
C1164 C1163 1.349 . S
C1164 C1176 1.349 . S
C1165 C1163 1.327 . S
C1165 C1181 1.429 . S
C1165 H1187 0.950 . S
C1166 H1162 0.949 1_556 S
C1166 C1174 1.574 . S
C1166 C1182 1.368 . S
H1167 C1175 0.950 . S
H1168 C1173 0.950 . S
H1169 C1174 0.949 1_554 S
H1170 C1176 0.950 1_554 S
H1171 C1177 0.950 1_554 S
H1172 C1178 0.949 . S
C1173 H1168 0.950 . S
C1173 C1175 1.327 . S
C1173 C1179 1.429 . S
C1174 C1166 1.574 . S
C1174 H1169 0.949 1_556 S
C1174 C1180 1.368 . S
C1175 C1159 1.349 . S
C1175 H1167 0.950 . S
C1175 C1173 1.327 . S
C1176 C1164 1.349 . S
C1176 H1170 0.950 1_556 S
C1176 C1177 1.327 . S
C1177 H1171 0.950 1_556 S
C1177 C1176 1.327 . S
C1177 C1181 1.429 . S
C1178 C1161 1.574 . S
C1178 H1172 0.949 . S
C1178 C1182 1.368 . S
C1179 C1160 1.429 . S
C1179 C1173 1.429 . S
C1179 C1180 1.523 . S
C1180 C1161 1.368 . S
C1180 C1174 1.368 . S
C1180 C1179 1.523 . S
C1181 C1165 1.429 . S
C1181 C1177 1.429 . S
C1181 C1182 1.523 . S
C1182 C1166 1.368 . S
C1182 C1178 1.368 . S
C1182 C1181 1.523 . S
H1183 C1158 0.950 1_554 S
H1184 C1160 0.950 1_554 S
H1185 C1161 0.949 . S
H1186 C1163 0.950 . S
H1187 C1165 0.950 . S
C1188 C1189 1.349 . S
C1188 C1190 1.327 . S
C1188 H1213 0.950 . S
C1189 C1188 1.349 . S
C1189 C1205 1.349 . S
C1190 C1188 1.327 . S
C1190 C1209 1.429 . S
C1190 H1214 0.950 . S
C1191 C1208 1.574 . S
C1191 C1210 1.368 . S
C1191 H1215 0.949 . S
H1192 C1196 0.949 . S
C1193 C1194 1.349 . S
C1193 C1195 1.327 . S
C1193 H1216 0.950 . S
C1194 C1193 1.349 . S
C1194 C1206 1.349 . S
C1195 C1193 1.327 . S
C1195 C1211 1.429 . S
C1195 H1217 0.950 . S
C1196 H1192 0.949 . S
C1196 C1204 1.574 . S
C1196 C1212 1.368 . S
H1197 C1205 0.950 . S
H1198 C1203 0.950 . S
H1199 C1204 0.949 . S
H1200 C1206 0.950 . S
H1201 C1207 0.950 . S
H1202 C1208 0.949 . S
C1203 H1198 0.950 . S
C1203 C1205 1.327 . S
C1203 C1209 1.429 . S
C1204 C1196 1.574 . S
C1204 H1199 0.949 . S
C1204 C1210 1.368 . S
C1205 C1189 1.349 . S
C1205 H1197 0.950 . S
C1205 C1203 1.327 . S
C1206 C1194 1.349 . S
C1206 H1200 0.950 . S
C1206 C1207 1.327 . S
C1207 H1201 0.950 . S
C1207 C1206 1.327 . S
C1207 C1211 1.429 . S
C1208 C1191 1.574 . S
C1208 H1202 0.949 . S
C1208 C1212 1.368 . S
C1209 C1190 1.429 . S
C1209 C1203 1.429 . S
C1209 C1210 1.523 . S
C1210 C1191 1.368 . S
C1210 C1204 1.368 . S
C1210 C1209 1.523 . S
C1211 C1195 1.429 . S
C1211 C1207 1.429 . S
C1211 C1212 1.523 . S
C1212 C1196 1.368 . S
C1212 C1208 1.368 . S
C1212 C1211 1.523 . S
H1213 C1188 0.950 . S
H1214 C1190 0.950 . S
H1215 C1191 0.949 . S
H1216 C1193 0.950 . S
H1217 C1195 0.950 . S
C1218 C1219 1.349 . S
C1218 C1220 1.327 . S
C1218 H1243 0.950 . S
C1219 C1218 1.349 . S
C1219 C1235 1.349 . S
C1220 C1218 1.327 . S
C1220 C1239 1.429 . S
C1220 H1244 0.950 . S
C1221 C1238 1.574 . S
C1221 C1240 1.368 . S
C1221 H1245 0.949 . S
H1222 C1226 0.949 . S
C1223 C1224 1.349 . S
C1223 C1225 1.327 . S
C1223 H1246 0.950 . S
C1224 C1223 1.349 . S
C1224 C1236 1.349 . S
C1225 C1223 1.327 . S
C1225 C1241 1.429 . S
C1225 H1247 0.950 . S
C1226 H1222 0.949 . S
C1226 C1234 1.574 . S
C1226 C1242 1.368 . S
H1227 C1235 0.950 . S
H1228 C1233 0.950 . S
H1229 C1234 0.949 . S
H1230 C1236 0.950 . S
H1231 C1237 0.950 . S
H1232 C1238 0.949 . S
C1233 H1228 0.950 . S
C1233 C1235 1.327 . S
C1233 C1239 1.429 . S
C1234 C1226 1.574 . S
C1234 H1229 0.949 . S
C1234 C1240 1.368 . S
C1235 C1219 1.349 . S
C1235 H1227 0.950 . S
C1235 C1233 1.327 . S
C1236 C1224 1.349 . S
C1236 H1230 0.950 . S
C1236 C1237 1.327 . S
C1237 H1231 0.950 . S
C1237 C1236 1.327 . S
C1237 C1241 1.429 . S
C1238 C1221 1.574 . S
C1238 H1232 0.949 . S
C1238 C1242 1.368 . S
C1239 C1220 1.429 . S
C1239 C1233 1.429 . S
C1239 C1240 1.523 . S
C1240 C1221 1.368 . S
C1240 C1234 1.368 . S
C1240 C1239 1.523 . S
C1241 C1225 1.429 . S
C1241 C1237 1.429 . S
C1241 C1242 1.523 . S
C1242 C1226 1.368 . S
C1242 C1238 1.368 . S
C1242 C1241 1.523 . S
H1243 C1218 0.950 . S
H1244 C1220 0.950 . S
H1245 C1221 0.949 . S
H1246 C1223 0.950 . S
H1247 C1225 0.950 . S
C1248 C1249 1.349 . S
C1248 C1250 1.327 . S
C1248 H1273 0.950 . S
C1249 C1248 1.349 . S
C1249 C1265 1.349 . S
C1250 C1248 1.327 . S
C1250 C1269 1.429 . S
C1250 H1274 0.950 . S
C1251 C1268 1.574 . S
C1251 C1270 1.368 . S
C1251 H1275 0.949 . S
H1252 C1256 0.949 . S
C1253 C1254 1.349 . S
C1253 C1255 1.327 . S
C1253 H1276 0.950 . S
C1254 C1253 1.349 . S
C1254 C1266 1.349 . S
C1255 C1253 1.327 . S
C1255 C1271 1.429 . S
C1255 H1277 0.950 . S
C1256 H1252 0.949 . S
C1256 C1264 1.574 . S
C1256 C1272 1.368 . S
H1257 C1265 0.950 . S
H1258 C1263 0.950 . S
H1259 C1264 0.949 . S
H1260 C1266 0.950 . S
H1261 C1267 0.950 . S
H1262 C1268 0.949 . S
C1263 H1258 0.950 . S
C1263 C1265 1.327 . S
C1263 C1269 1.429 . S
C1264 C1256 1.574 . S
C1264 H1259 0.949 . S
C1264 C1270 1.368 . S
C1265 C1249 1.349 . S
C1265 H1257 0.950 . S
C1265 C1263 1.327 . S
C1266 C1254 1.349 . S
C1266 H1260 0.950 . S
C1266 C1267 1.327 . S
C1267 H1261 0.950 . S
C1267 C1266 1.327 . S
C1267 C1271 1.429 . S
C1268 C1251 1.574 . S
C1268 H1262 0.949 . S
C1268 C1272 1.368 . S
C1269 C1250 1.429 . S
C1269 C1263 1.429 . S
C1269 C1270 1.523 . S
C1270 C1251 1.368 . S
C1270 C1264 1.368 . S
C1270 C1269 1.523 . S
C1271 C1255 1.429 . S
C1271 C1267 1.429 . S
C1271 C1272 1.523 . S
C1272 C1256 1.368 . S
C1272 C1268 1.368 . S
C1272 C1271 1.523 . S
H1273 C1248 0.950 . S
H1274 C1250 0.950 . S
H1275 C1251 0.949 . S
H1276 C1253 0.950 . S
H1277 C1255 0.950 . S
C1278 C1279 1.349 . S
C1278 C1280 1.327 . S
C1278 H1303 0.950 1_554 S
C1279 C1278 1.349 . S
C1279 C1295 1.349 . S
C1280 C1278 1.327 . S
C1280 C1299 1.429 . S
C1280 H1304 0.950 1_554 S
C1281 C1298 1.574 . S
C1281 C1300 1.368 . S
C1281 H1305 0.949 . S
H1282 C1286 0.949 1_556 S
C1283 C1284 1.349 . S
C1283 C1285 1.327 . S
C1283 H1306 0.950 . S
C1284 C1283 1.349 . S
C1284 C1296 1.349 . S
C1285 C1283 1.327 . S
C1285 C1301 1.429 . S
C1285 H1307 0.950 . S
C1286 H1282 0.949 1_554 S
C1286 C1294 1.574 . S
C1286 C1302 1.368 . S
H1287 C1295 0.950 . S
H1288 C1293 0.950 . S
H1289 C1294 0.949 1_556 S
H1290 C1296 0.950 1_556 S
H1291 C1297 0.950 1_556 S
H1292 C1298 0.949 . S
C1293 H1288 0.950 . S
C1293 C1295 1.327 . S
C1293 C1299 1.429 . S
C1294 C1286 1.574 . S
C1294 H1289 0.949 1_554 S
C1294 C1300 1.368 . S
C1295 C1279 1.349 . S
C1295 H1287 0.950 . S
C1295 C1293 1.327 . S
C1296 C1284 1.349 . S
C1296 H1290 0.950 1_554 S
C1296 C1297 1.327 . S
C1297 H1291 0.950 1_554 S
C1297 C1296 1.327 . S
C1297 C1301 1.429 . S
C1298 C1281 1.574 . S
C1298 H1292 0.949 . S
C1298 C1302 1.368 . S
C1299 C1280 1.429 . S
C1299 C1293 1.429 . S
C1299 C1300 1.523 . S
C1300 C1281 1.368 . S
C1300 C1294 1.368 . S
C1300 C1299 1.523 . S
C1301 C1285 1.429 . S
C1301 C1297 1.429 . S
C1301 C1302 1.523 . S
C1302 C1286 1.368 . S
C1302 C1298 1.368 . S
C1302 C1301 1.523 . S
H1303 C1278 0.950 1_556 S
H1304 C1280 0.950 1_556 S
H1305 C1281 0.949 . S
H1306 C1283 0.950 . S
H1307 C1285 0.950 . S
C1308 C1309 1.349 . S
C1308 C1310 1.327 . S
C1308 H1333 0.950 1_554 S
C1309 C1308 1.349 . S
C1309 C1325 1.349 . S
C1310 C1308 1.327 . S
C1310 C1329 1.429 . S
C1310 H1334 0.950 1_554 S
C1311 C1328 1.574 . S
C1311 C1330 1.368 . S
C1311 H1335 0.949 . S
H1312 C1316 0.890 1_556 S
C1313 C1314 1.349 . S
C1313 C1315 1.327 . S
C1313 H1336 0.950 . S
C1314 C1313 1.349 . S
C1314 C1326 1.349 . S
C1315 C1313 1.327 . S
C1315 C1331 1.429 . S
C1315 H1337 0.950 . S
C1316 H1312 0.890 1_554 S
C1316 C1324 1.577 . S
C1316 C1332 1.436 . S
H1317 C1325 0.950 . S
H1318 C1323 0.950 . S
H1319 C1324 0.949 1_556 S
H1320 C1326 0.950 1_556 S
H1321 C1327 0.950 1_556 S
H1322 C1328 0.949 . S
C1323 H1318 0.950 . S
C1323 C1325 1.327 . S
C1323 C1329 1.429 . S
C1324 C1316 1.577 . S
C1324 H1319 0.949 1_554 S
C1324 C1330 1.368 . S
C1325 C1309 1.349 . S
C1325 H1317 0.950 . S
C1325 C1323 1.327 . S
C1326 C1314 1.349 . S
C1326 H1320 0.950 1_554 S
C1326 C1327 1.327 . S
C1327 H1321 0.950 1_554 S
C1327 C1326 1.327 . S
C1327 C1331 1.429 . S
C1328 C1311 1.574 . S
C1328 H1322 0.949 . S
C1328 C1332 1.368 . S
C1329 C1310 1.429 . S
C1329 C1323 1.429 . S
C1329 C1330 1.523 . S
C1330 C1311 1.368 . S
C1330 C1324 1.368 . S
C1330 C1329 1.523 . S
C1331 C1315 1.429 . S
C1331 C1327 1.429 . S
C1331 C1332 1.523 . S
C1332 C1316 1.436 . S
C1332 C1328 1.368 . S
C1332 C1331 1.523 . S
H1333 C1308 0.950 1_556 S
H1334 C1310 0.950 1_556 S
H1335 C1311 0.949 . S
H1336 C1313 0.950 . S
H1337 C1315 0.950 . S
C1338 C1339 1.349 . S
C1338 C1340 1.327 . S
C1338 H1363 0.950 . S
C1339 C1338 1.349 . S
C1339 C1355 1.349 . S
C1340 C1338 1.327 . S
C1340 C1359 1.429 . S
C1340 H1364 0.950 . S
C1341 C1358 1.574 . S
C1341 C1360 1.425 . S
C1341 H1365 0.900 1_554 S
H1342 C1346 0.949 . S
C1343 C1344 1.349 . S
C1343 C1345 1.327 . S
C1343 H1366 0.950 1_554 S
C1344 C1343 1.349 . S
C1344 C1356 1.349 . S
C1345 C1343 1.327 . S
C1345 C1361 1.429 . S
C1345 H1367 0.950 1_554 S
C1346 H1342 0.949 . S
C1346 C1354 1.574 . S
C1346 C1362 1.368 . S
H1347 C1355 0.950 1_556 S
H1348 C1353 0.950 1_556 S
H1349 C1354 0.949 . S
H1350 C1356 0.950 . S
H1351 C1357 0.950 . S
H1352 C1358 0.892 1_556 S
C1353 H1348 0.950 1_554 S
C1353 C1355 1.327 . S
C1353 C1359 1.429 . S
C1354 C1346 1.574 . S
C1354 H1349 0.949 . S
C1354 C1360 1.368 . S
C1355 C1339 1.349 . S
C1355 H1347 0.950 1_554 S
C1355 C1353 1.327 . S
C1356 C1344 1.349 . S
C1356 H1350 0.950 . S
C1356 C1357 1.327 . S
C1357 H1351 0.950 . S
C1357 C1356 1.327 . S
C1357 C1361 1.429 . S
C1358 C1341 1.574 . S
C1358 H1352 0.892 1_554 S
C1358 C1362 1.435 . S
C1359 C1340 1.429 . S
C1359 C1353 1.429 . S
C1359 C1360 1.523 . S
C1360 C1341 1.425 . S
C1360 C1354 1.368 . S
C1360 C1359 1.523 . S
C1361 C1345 1.429 . S
C1361 C1357 1.429 . S
C1361 C1362 1.523 . S
C1362 C1346 1.368 . S
C1362 C1358 1.435 . S
C1362 C1361 1.523 . S
H1363 C1338 0.950 . S
H1364 C1340 0.950 . S
H1365 C1341 0.900 1_556 S
H1366 C1343 0.950 1_556 S
H1367 C1345 0.950 1_556 S
C1368 C1369 1.349 . S
C1368 C1370 1.327 . S
C1368 H1393 0.950 . S
C1369 C1368 1.349 . S
C1369 C1385 1.349 . S
C1370 C1368 1.327 . S
C1370 C1389 1.429 . S
C1370 H1394 0.950 . S
C1371 C1388 1.574 . S
C1371 C1390 1.368 . S
C1371 H1395 0.949 . S
H1372 C1376 0.949 . S
C1373 C1374 1.349 . S
C1373 C1375 1.327 . S
C1373 H1396 0.950 . S
C1374 C1373 1.349 . S
C1374 C1386 1.349 . S
C1375 C1373 1.327 . S
C1375 C1391 1.429 . S
C1375 H1397 0.950 . S
C1376 H1372 0.949 . S
C1376 C1384 1.574 . S
C1376 C1392 1.368 . S
H1377 C1385 0.950 . S
H1378 C1383 0.950 . S
H1379 C1384 0.949 . S
H1380 C1386 0.950 . S
H1381 C1387 0.950 . S
H1382 C1388 0.949 . S
C1383 H1378 0.950 . S
C1383 C1385 1.327 . S
C1383 C1389 1.429 . S
C1384 C1376 1.574 . S
C1384 H1379 0.949 . S
C1384 C1390 1.368 . S
C1385 C1369 1.349 . S
C1385 H1377 0.950 . S
C1385 C1383 1.327 . S
C1386 C1374 1.349 . S
C1386 H1380 0.950 . S
C1386 C1387 1.327 . S
C1387 H1381 0.950 . S
C1387 C1386 1.327 . S
C1387 C1391 1.429 . S
C1388 C1371 1.574 . S
C1388 H1382 0.949 . S
C1388 C1392 1.368 . S
C1389 C1370 1.429 . S
C1389 C1383 1.429 . S
C1389 C1390 1.523 . S
C1390 C1371 1.368 . S
C1390 C1384 1.368 . S
C1390 C1389 1.523 . S
C1391 C1375 1.429 . S
C1391 C1387 1.429 . S
C1391 C1392 1.523 . S
C1392 C1376 1.368 . S
C1392 C1388 1.368 . S
C1392 C1391 1.523 . S
H1393 C1368 0.950 . S
H1394 C1370 0.950 . S
H1395 C1371 0.949 . S
H1396 C1373 0.950 . S
H1397 C1375 0.950 . S
C1398 C1399 1.349 . S
C1398 C1400 1.327 . S
C1398 H1423 0.950 . S
C1399 C1398 1.349 . S
C1399 C1415 1.349 . S
C1400 C1398 1.327 . S
C1400 C1419 1.429 . S
C1400 H1424 0.950 . S
C1401 C1418 1.574 . S
C1401 C1420 1.368 . S
C1401 H1425 0.949 . S
H1402 C1406 0.949 . S
C1403 C1404 1.349 . S
C1403 C1405 1.327 . S
C1403 H1426 0.950 . S
C1404 C1403 1.349 . S
C1404 C1416 1.349 . S
C1405 C1403 1.327 . S
C1405 C1421 1.429 . S
C1405 H1427 0.950 . S
C1406 H1402 0.949 . S
C1406 C1414 1.574 . S
C1406 C1422 1.368 . S
H1407 C1415 0.950 . S
H1408 C1413 0.950 . S
H1409 C1414 0.949 . S
H1410 C1416 0.950 . S
H1411 C1417 0.950 . S
H1412 C1418 0.949 . S
C1413 H1408 0.950 . S
C1413 C1415 1.327 . S
C1413 C1419 1.429 . S
C1414 C1406 1.574 . S
C1414 H1409 0.949 . S
C1414 C1420 1.368 . S
C1415 C1399 1.349 . S
C1415 H1407 0.950 . S
C1415 C1413 1.327 . S
C1416 C1404 1.349 . S
C1416 H1410 0.950 . S
C1416 C1417 1.327 . S
C1417 H1411 0.950 . S
C1417 C1416 1.327 . S
C1417 C1421 1.429 . S
C1418 C1401 1.574 . S
C1418 H1412 0.949 . S
C1418 C1422 1.368 . S
C1419 C1400 1.429 . S
C1419 C1413 1.429 . S
C1419 C1420 1.523 . S
C1420 C1401 1.368 . S
C1420 C1414 1.368 . S
C1420 C1419 1.523 . S
C1421 C1405 1.429 . S
C1421 C1417 1.429 . S
C1421 C1422 1.523 . S
C1422 C1406 1.368 . S
C1422 C1418 1.368 . S
C1422 C1421 1.523 . S
H1423 C1398 0.950 . S
H1424 C1400 0.950 . S
H1425 C1401 0.949 . S
H1426 C1403 0.950 . S
H1427 C1405 0.950 . S
C1428 C1429 1.349 . S
C1428 C1430 1.327 . S
C1428 H1453 0.950 . S
C1429 C1428 1.349 . S
C1429 C1445 1.349 . S
C1430 C1428 1.327 . S
C1430 C1449 1.429 . S
C1430 H1454 0.950 . S
C1431 C1448 1.574 . S
C1431 C1450 1.368 . S
C1431 H1455 0.949 . S
H1432 C1436 0.949 . S
C1433 C1434 1.349 . S
C1433 C1435 1.327 . S
C1433 H1456 0.950 . S
C1434 C1433 1.349 . S
C1434 C1446 1.349 . S
C1435 C1433 1.327 . S
C1435 C1451 1.429 . S
C1435 H1457 0.950 . S
C1436 H1432 0.949 . S
C1436 C1444 1.574 . S
C1436 C1452 1.368 . S
H1437 C1445 0.950 . S
H1438 C1443 0.950 . S
H1439 C1444 0.949 . S
H1440 C1446 0.950 . S
H1441 C1447 0.950 . S
H1442 C1448 0.949 . S
C1443 H1438 0.950 . S
C1443 C1445 1.327 . S
C1443 C1449 1.429 . S
C1444 C1436 1.574 . S
C1444 H1439 0.949 . S
C1444 C1450 1.368 . S
C1445 C1429 1.349 . S
C1445 H1437 0.950 . S
C1445 C1443 1.327 . S
C1446 C1434 1.349 . S
C1446 H1440 0.950 . S
C1446 C1447 1.327 . S
C1447 H1441 0.950 . S
C1447 C1446 1.327 . S
C1447 C1451 1.429 . S
C1448 C1431 1.574 . S
C1448 H1442 0.949 . S
C1448 C1452 1.368 . S
C1449 C1430 1.429 . S
C1449 C1443 1.429 . S
C1449 C1450 1.523 . S
C1450 C1431 1.368 . S
C1450 C1444 1.368 . S
C1450 C1449 1.523 . S
C1451 C1435 1.429 . S
C1451 C1447 1.429 . S
C1451 C1452 1.523 . S
C1452 C1436 1.368 . S
C1452 C1448 1.368 . S
C1452 C1451 1.523 . S
H1453 C1428 0.950 . S
H1454 C1430 0.950 . S
H1455 C1431 0.949 . S
H1456 C1433 0.950 . S
H1457 C1435 0.950 . S
C1458 C1459 1.349 . S
C1458 C1460 1.327 . S
C1458 H1483 0.950 . S
C1459 C1458 1.349 . S
C1459 C1475 1.349 . S
C1460 C1458 1.327 . S
C1460 C1479 1.429 . S
C1460 H1484 0.950 . S
C1461 C1478 1.574 . S
C1461 C1480 1.368 . S
C1461 H1485 0.949 . S
H1462 C1466 0.949 . S
C1463 C1464 1.349 . S
C1463 C1465 1.327 . S
C1463 H1486 0.950 . S
C1464 C1463 1.349 . S
C1464 C1476 1.349 . S
C1465 C1463 1.327 . S
C1465 C1481 1.429 . S
C1465 H1487 0.950 . S
C1466 H1462 0.949 . S
C1466 C1474 1.574 . S
C1466 C1482 1.368 . S
H1467 C1475 0.950 . S
H1468 C1473 0.950 . S
H1469 C1474 0.949 . S
H1470 C1476 0.950 . S
H1471 C1477 0.950 . S
H1472 C1478 0.949 . S
C1473 H1468 0.950 . S
C1473 C1475 1.327 . S
C1473 C1479 1.429 . S
C1474 C1466 1.574 . S
C1474 H1469 0.949 . S
C1474 C1480 1.368 . S
C1475 C1459 1.349 . S
C1475 H1467 0.950 . S
C1475 C1473 1.327 . S
C1476 C1464 1.349 . S
C1476 H1470 0.950 . S
C1476 C1477 1.327 . S
C1477 H1471 0.950 . S
C1477 C1476 1.327 . S
C1477 C1481 1.429 . S
C1478 C1461 1.574 . S
C1478 H1472 0.949 . S
C1478 C1482 1.368 . S
C1479 C1460 1.429 . S
C1479 C1473 1.429 . S
C1479 C1480 1.523 . S
C1480 C1461 1.368 . S
C1480 C1474 1.368 . S
C1480 C1479 1.523 . S
C1481 C1465 1.429 . S
C1481 C1477 1.429 . S
C1481 C1482 1.523 . S
C1482 C1466 1.368 . S
C1482 C1478 1.368 . S
C1482 C1481 1.523 . S
H1483 C1458 0.950 . S
H1484 C1460 0.950 . S
H1485 C1461 0.949 . S
H1486 C1463 0.950 . S
H1487 C1465 0.950 . S
C1488 C1489 1.349 . S
C1488 C1490 1.327 . S
C1488 H1513 0.950 . S
C1489 C1488 1.349 . S
C1489 C1505 1.349 . S
C1490 C1488 1.327 . S
C1490 C1509 1.429 . S
C1490 H1514 0.950 . S
C1491 C1508 1.574 . S
C1491 C1510 1.368 . S
C1491 H1515 0.949 . S
H1492 C1496 0.949 . S
C1493 C1494 1.349 . S
C1493 C1495 1.327 . S
C1493 H1516 0.950 . S
C1494 C1493 1.349 . S
C1494 C1506 1.349 . S
C1495 C1493 1.327 . S
C1495 C1511 1.429 . S
C1495 H1517 0.950 . S
C1496 H1492 0.949 . S
C1496 C1504 1.574 . S
C1496 C1512 1.368 . S
H1497 C1505 0.950 . S
H1498 C1503 0.950 . S
H1499 C1504 0.949 . S
H1500 C1506 0.950 . S
H1501 C1507 0.950 . S
H1502 C1508 0.949 . S
C1503 H1498 0.950 . S
C1503 C1505 1.327 . S
C1503 C1509 1.429 . S
C1504 C1496 1.574 . S
C1504 H1499 0.949 . S
C1504 C1510 1.368 . S
C1505 C1489 1.349 . S
C1505 H1497 0.950 . S
C1505 C1503 1.327 . S
C1506 C1494 1.349 . S
C1506 H1500 0.950 . S
C1506 C1507 1.327 . S
C1507 H1501 0.950 . S
C1507 C1506 1.327 . S
C1507 C1511 1.429 . S
C1508 C1491 1.574 . S
C1508 H1502 0.949 . S
C1508 C1512 1.368 . S
C1509 C1490 1.429 . S
C1509 C1503 1.429 . S
C1509 C1510 1.523 . S
C1510 C1491 1.368 . S
C1510 C1504 1.368 . S
C1510 C1509 1.523 . S
C1511 C1495 1.429 . S
C1511 C1507 1.429 . S
C1511 C1512 1.523 . S
C1512 C1496 1.368 . S
C1512 C1508 1.368 . S
C1512 C1511 1.523 . S
H1513 C1488 0.950 . S
H1514 C1490 0.950 . S
H1515 C1491 0.949 . S
H1516 C1493 0.950 . S
H1517 C1495 0.950 . S
C1518 C1519 1.349 . S
C1518 C1520 1.327 . S
C1518 H1543 0.950 . S
C1519 C1518 1.349 . S
C1519 C1535 1.349 . S
C1520 C1518 1.327 . S
C1520 C1539 1.429 . S
C1520 H1544 0.950 . S
C1521 C1538 1.574 . S
C1521 C1540 1.368 . S
C1521 H1545 0.949 . S
H1522 C1526 0.949 . S
C1523 C1524 1.349 . S
C1523 C1525 1.327 . S
C1523 H1546 0.950 . S
C1524 C1523 1.349 . S
C1524 C1536 1.349 . S
C1525 C1523 1.327 . S
C1525 C1541 1.429 . S
C1525 H1547 0.950 . S
C1526 H1522 0.949 . S
C1526 C1534 1.574 . S
C1526 C1542 1.368 . S
H1527 C1535 0.950 . S
H1528 C1533 0.950 . S
H1529 C1534 0.949 . S
H1530 C1536 0.950 . S
H1531 C1537 0.950 . S
H1532 C1538 0.949 . S
C1533 H1528 0.950 . S
C1533 C1535 1.327 . S
C1533 C1539 1.429 . S
C1534 C1526 1.574 . S
C1534 H1529 0.949 . S
C1534 C1540 1.368 . S
C1535 C1519 1.349 . S
C1535 H1527 0.950 . S
C1535 C1533 1.327 . S
C1536 C1524 1.349 . S
C1536 H1530 0.950 . S
C1536 C1537 1.327 . S
C1537 H1531 0.950 . S
C1537 C1536 1.327 . S
C1537 C1541 1.429 . S
C1538 C1521 1.574 . S
C1538 H1532 0.949 . S
C1538 C1542 1.368 . S
C1539 C1520 1.429 . S
C1539 C1533 1.429 . S
C1539 C1540 1.523 . S
C1540 C1521 1.368 . S
C1540 C1534 1.368 . S
C1540 C1539 1.523 . S
C1541 C1525 1.429 . S
C1541 C1537 1.429 . S
C1541 C1542 1.523 . S
C1542 C1526 1.368 . S
C1542 C1538 1.368 . S
C1542 C1541 1.523 . S
H1543 C1518 0.950 . S
H1544 C1520 0.950 . S
H1545 C1521 0.949 . S
H1546 C1523 0.950 . S
H1547 C1525 0.950 . S
C1548 C1549 1.349 . S
C1548 C1550 1.327 . S
C1548 H1573 0.950 . S
C1549 C1548 1.349 . S
C1549 C1565 1.349 . S
C1550 C1548 1.327 . S
C1550 C1569 1.429 . S
C1550 H1574 0.950 . S
C1551 C1568 1.574 . S
C1551 C1570 1.368 . S
C1551 H1575 0.949 . S
H1552 C1556 0.949 . S
C1553 C1554 1.349 . S
C1553 C1555 1.327 . S
C1553 H1576 0.950 . S
C1554 C1553 1.349 . S
C1554 C1566 1.349 . S
C1555 C1553 1.327 . S
C1555 C1571 1.429 . S
C1555 H1577 0.950 . S
C1556 H1552 0.949 . S
C1556 C1564 1.574 . S
C1556 C1572 1.368 . S
H1557 C1565 0.950 . S
H1558 C1563 0.950 . S
H1559 C1564 0.949 . S
H1560 C1566 0.950 . S
H1561 C1567 0.950 . S
H1562 C1568 0.949 . S
C1563 H1558 0.950 . S
C1563 C1565 1.327 . S
C1563 C1569 1.429 . S
C1564 C1556 1.574 . S
C1564 H1559 0.949 . S
C1564 C1570 1.368 . S
C1565 C1549 1.349 . S
C1565 H1557 0.950 . S
C1565 C1563 1.327 . S
C1566 C1554 1.349 . S
C1566 H1560 0.950 . S
C1566 C1567 1.327 . S
C1567 H1561 0.950 . S
C1567 C1566 1.327 . S
C1567 C1571 1.429 . S
C1568 C1551 1.574 . S
C1568 H1562 0.949 . S
C1568 C1572 1.368 . S
C1569 C1550 1.429 . S
C1569 C1563 1.429 . S
C1569 C1570 1.523 . S
C1570 C1551 1.368 . S
C1570 C1564 1.368 . S
C1570 C1569 1.523 . S
C1571 C1555 1.429 . S
C1571 C1567 1.429 . S
C1571 C1572 1.523 . S
C1572 C1556 1.368 . S
C1572 C1568 1.368 . S
C1572 C1571 1.523 . S
H1573 C1548 0.950 . S
H1574 C1550 0.950 . S
H1575 C1551 0.949 . S
H1576 C1553 0.950 . S
H1577 C1555 0.950 . S
C1578 C1579 1.349 1_565 S
C1578 C1580 1.327 . S
C1578 H1603 0.950 . S
C1579 C1578 1.349 1_545 S
C1579 C1595 1.349 . S
C1580 C1578 1.327 . S
C1580 C1599 1.429 1_565 S
C1580 H1604 0.950 . S
C1581 C1598 1.574 . S
C1581 C1600 1.368 . S
C1581 H1605 0.949 . S
H1582 C1586 0.949 . S
C1583 C1584 1.349 1_545 S
C1583 C1585 1.327 . S
C1583 H1606 0.950 . S
C1584 C1583 1.349 1_565 S
C1584 C1596 1.349 . S
C1585 C1583 1.327 . S
C1585 C1601 1.429 1_545 S
C1585 H1607 0.950 . S
C1586 H1582 0.949 . S
C1586 C1594 1.574 . S
C1586 C1602 1.410 . S
H1587 C1595 0.950 . S
H1588 C1593 0.950 . S
H1589 C1594 0.949 . S
H1590 C1596 0.950 . S
H1591 C1597 0.950 . S
H1592 C1598 0.949 . S
C1593 H1588 0.950 . S
C1593 C1595 1.327 . S
C1593 C1599 1.429 . S
C1594 C1586 1.574 . S
C1594 H1589 0.949 . S
C1594 C1600 1.368 1_565 S
C1595 C1579 1.349 . S
C1595 H1587 0.950 . S
C1595 C1593 1.327 . S
C1596 C1584 1.349 . S
C1596 H1590 0.950 . S
C1596 C1597 1.327 . S
C1597 H1591 0.950 . S
C1597 C1596 1.327 . S
C1597 C1601 1.429 . S
C1598 C1581 1.574 . S
C1598 H1592 0.949 . S
C1598 C1602 1.323 1_545 S
C1599 C1580 1.429 1_545 S
C1599 C1593 1.429 . S
C1599 C1600 1.523 . S
C1600 C1581 1.368 . S
C1600 C1594 1.368 1_545 S
C1600 C1599 1.523 . S
C1601 C1585 1.429 1_565 S
C1601 C1597 1.429 . S
C1601 C1602 1.528 . S
C1602 C1586 1.410 . S
C1602 C1598 1.323 1_565 S
C1602 C1601 1.528 . S
H1603 C1578 0.950 . S
H1604 C1580 0.950 . S
H1605 C1581 0.949 . S
H1606 C1583 0.950 . S
H1607 C1585 0.950 . S
C1608 C1609 1.349 . S
C1608 C1610 1.327 . S
C1608 H1633 0.950 . S
C1609 C1608 1.349 . S
C1609 C1625 1.349 1_455 S
C1610 C1608 1.327 . S
C1610 C1629 1.429 . S
C1610 H1634 0.950 . S
C1611 C1628 1.574 . S
C1611 C1630 1.343 1_655 S
C1611 H1635 0.949 . S
H1612 C1616 0.949 . S
C1613 C1614 1.349 . S
C1613 C1615 1.327 . S
C1613 H1636 0.950 . S
C1614 C1613 1.349 . S
C1614 C1626 1.349 1_655 S
C1615 C1613 1.327 . S
C1615 C1631 1.429 . S
C1615 H1637 0.950 . S
C1616 H1612 0.949 . S
C1616 C1624 1.574 . S
C1616 C1632 1.368 1_455 S
H1617 C1625 0.950 . S
H1618 C1623 0.950 . S
H1619 C1624 0.949 . S
H1620 C1626 0.950 . S
H1621 C1627 0.950 . S
H1622 C1628 0.949 . S
C1623 H1618 0.950 . S
C1623 C1625 1.327 . S
C1623 C1629 1.429 1_655 S
C1624 C1616 1.574 . S
C1624 H1619 0.949 . S
C1624 C1630 1.391 . S
C1625 C1609 1.349 1_655 S
C1625 H1617 0.950 . S
C1625 C1623 1.327 . S
C1626 C1614 1.349 1_455 S
C1626 H1620 0.950 . S
C1626 C1627 1.327 . S
C1627 H1621 0.950 . S
C1627 C1626 1.327 . S
C1627 C1631 1.429 1_455 S
C1628 C1611 1.574 . S
C1628 H1622 0.949 . S
C1628 C1632 1.368 . S
C1629 C1610 1.429 . S
C1629 C1623 1.429 1_455 S
C1629 C1630 1.528 . S
C1630 C1611 1.343 1_455 S
C1630 C1624 1.391 . S
C1630 C1629 1.528 . S
C1631 C1615 1.429 . S
C1631 C1627 1.429 1_655 S
C1631 C1632 1.523 . S
C1632 C1616 1.368 1_655 S
C1632 C1628 1.368 . S
C1632 C1631 1.523 . S
H1633 C1608 0.950 . S
H1634 C1610 0.950 . S
H1635 C1611 0.949 . S
H1636 C1613 0.950 . S
H1637 C1615 0.950 . S
C1638 C1639 1.349 . S
C1638 C1640 1.327 . S
C1638 H1663 0.950 . S
C1639 C1638 1.349 . S
C1639 C1655 1.349 . S
C1640 C1638 1.327 . S
C1640 C1659 1.429 . S
C1640 H1664 0.950 . S
C1641 C1658 1.574 . S
C1641 C1660 1.368 . S
C1641 H1665 0.949 . S
H1642 C1646 0.949 . S
C1643 C1644 1.349 . S
C1643 C1645 1.327 . S
C1643 H1666 0.950 . S
C1644 C1643 1.349 . S
C1644 C1656 1.349 . S
C1645 C1643 1.327 . S
C1645 C1661 1.429 . S
C1645 H1667 0.950 . S
C1646 H1642 0.949 . S
C1646 C1654 1.574 . S
C1646 C1662 1.368 . S
H1647 C1655 0.950 . S
H1648 C1653 0.950 . S
H1649 C1654 0.949 . S
H1650 C1656 0.950 . S
H1651 C1657 0.950 . S
H1652 C1658 0.949 . S
C1653 H1648 0.950 . S
C1653 C1655 1.327 . S
C1653 C1659 1.429 . S
C1654 C1646 1.574 . S
C1654 H1649 0.949 . S
C1654 C1660 1.368 . S
C1655 C1639 1.349 . S
C1655 H1647 0.950 . S
C1655 C1653 1.327 . S
C1656 C1644 1.349 . S
C1656 H1650 0.950 . S
C1656 C1657 1.327 . S
C1657 H1651 0.950 . S
C1657 C1656 1.327 . S
C1657 C1661 1.429 . S
C1658 C1641 1.574 . S
C1658 H1652 0.949 . S
C1658 C1662 1.368 . S
C1659 C1640 1.429 . S
C1659 C1653 1.429 . S
C1659 C1660 1.523 . S
C1660 C1641 1.368 . S
C1660 C1654 1.368 . S
C1660 C1659 1.523 . S
C1661 C1645 1.429 . S
C1661 C1657 1.429 . S
C1661 C1662 1.523 . S
C1662 C1646 1.368 . S
C1662 C1658 1.368 . S
C1662 C1661 1.523 . S
H1663 C1638 0.950 . S
H1664 C1640 0.950 . S
H1665 C1641 0.949 . S
H1666 C1643 0.950 . S
H1667 C1645 0.950 . S
C1668 C1669 1.349 . S
C1668 C1670 1.327 . S
C1668 H1693 0.950 . S
C1669 C1668 1.349 . S
C1669 C1685 1.349 1_565 S
C1670 C1668 1.327 . S
C1670 C1689 1.429 . S
C1670 H1694 0.950 . S
C1671 C1688 1.574 . S
C1671 C1690 1.368 1_545 S
C1671 H1695 0.949 . S
H1672 C1676 0.949 . S
C1673 C1674 1.349 . S
C1673 C1675 1.327 . S
C1673 H1696 0.950 . S
C1674 C1673 1.349 . S
C1674 C1686 1.349 1_545 S
C1675 C1673 1.327 . S
C1675 C1691 1.429 . S
C1675 H1697 0.950 . S
C1676 H1672 0.949 . S
C1676 C1684 1.574 . S
C1676 C1692 1.351 1_565 S
H1677 C1685 0.950 . S
H1678 C1683 0.950 . S
H1679 C1684 0.949 . S
H1680 C1686 0.950 . S
H1681 C1687 0.950 . S
H1682 C1688 0.949 . S
C1683 H1678 0.950 . S
C1683 C1685 1.327 . S
C1683 C1689 1.429 1_545 S
C1684 C1676 1.574 . S
C1684 H1679 0.949 . S
C1684 C1690 1.368 . S
C1685 C1669 1.349 1_545 S
C1685 H1677 0.950 . S
C1685 C1683 1.327 . S
C1686 C1674 1.349 1_565 S
C1686 H1680 0.950 . S
C1686 C1687 1.327 . S
C1687 H1681 0.950 . S
C1687 C1686 1.327 . S
C1687 C1691 1.429 1_565 S
C1688 C1671 1.574 . S
C1688 H1682 0.949 . S
C1688 C1692 1.384 . S
C1689 C1670 1.429 . S
C1689 C1683 1.429 1_565 S
C1689 C1690 1.523 . S
C1690 C1671 1.368 1_565 S
C1690 C1684 1.368 . S
C1690 C1689 1.523 . S
C1691 C1675 1.429 . S
C1691 C1687 1.429 1_545 S
C1691 C1692 1.528 . S
C1692 C1676 1.351 1_545 S
C1692 C1688 1.384 . S
C1692 C1691 1.528 . S
H1693 C1668 0.950 . S
H1694 C1670 0.950 . S
H1695 C1671 0.949 . S
H1696 C1673 0.950 . S
H1697 C1675 0.950 . S
C1698 C1699 1.349 . S
C1698 C1700 1.327 . S
C1698 H1723 0.950 . S
C1699 C1698 1.349 . S
C1699 C1715 1.349 . S
C1700 C1698 1.327 . S
C1700 C1719 1.429 . S
C1700 H1724 0.950 . S
C1701 C1718 1.574 . S
C1701 C1720 1.341 1_455 S
C1701 H1725 0.949 . S
H1702 C1706 0.959 . S
C1703 C1704 1.349 . S
C1703 C1705 1.327 . S
C1703 H1726 0.950 . S
C1704 C1703 1.349 . S
C1704 C1716 1.349 . S
C1705 C1703 1.327 . S
C1705 C1721 1.429 . S
C1705 H1727 0.950 . S
C1706 H1702 0.959 . S
C1706 C1714 1.576 . S
C1706 C1722 1.356 1_655 S
H1707 C1715 0.950 . S
H1708 C1713 0.950 1_455 S
H1709 C1714 0.949 . S
H1710 C1716 0.950 . S
H1711 C1717 0.950 . S
H1712 C1718 0.949 . S
C1713 H1708 0.950 1_655 S
C1713 C1715 1.327 . S
C1713 C1719 1.429 . S
C1714 C1706 1.576 . S
C1714 H1709 0.949 . S
C1714 C1720 1.393 . S
C1715 C1699 1.349 . S
C1715 H1707 0.950 . S
C1715 C1713 1.327 . S
C1716 C1704 1.349 . S
C1716 H1710 0.950 . S
C1716 C1717 1.327 . S
C1717 H1711 0.950 . S
C1717 C1716 1.327 . S
C1717 C1721 1.429 . S
C1718 C1701 1.574 . S
C1718 H1712 0.949 . S
C1718 C1722 1.368 . S
C1719 C1700 1.429 . S
C1719 C1713 1.429 . S
C1719 C1720 1.528 . S
C1720 C1701 1.341 1_655 S
C1720 C1714 1.393 . S
C1720 C1719 1.528 . S
C1721 C1705 1.429 . S
C1721 C1717 1.429 . S
C1721 C1722 1.523 . S
C1722 C1706 1.356 1_455 S
C1722 C1718 1.368 . S
C1722 C1721 1.523 . S
H1723 C1698 0.950 . S
H1724 C1700 0.950 . S
H1725 C1701 0.949 . S
H1726 C1703 0.950 . S
H1727 C1705 0.950 . S
C1728 C1729 1.349 . S
C1728 C1730 1.327 . S
C1728 H1753 0.950 . S
C1729 C1728 1.349 . S
C1729 C1745 1.349 . S
C1730 C1728 1.327 . S
C1730 C1749 1.429 . S
C1730 H1754 0.950 . S
C1731 C1748 1.574 . S
C1731 C1750 1.368 . S
C1731 H1755 0.949 . S
H1732 C1736 0.949 . S
C1733 C1734 1.349 . S
C1733 C1735 1.327 . S
C1733 H1756 0.950 . S
C1734 C1733 1.349 . S
C1734 C1746 1.349 . S
C1735 C1733 1.327 . S
C1735 C1751 1.429 . S
C1735 H1757 0.950 . S
C1736 H1732 0.949 . S
C1736 C1744 1.574 . S
C1736 C1752 1.368 . S
H1737 C1745 0.950 . S
H1738 C1743 0.950 . S
H1739 C1744 0.949 . S
H1740 C1746 0.950 . S
H1741 C1747 0.950 . S
H1742 C1748 0.949 . S
C1743 H1738 0.950 . S
C1743 C1745 1.327 . S
C1743 C1749 1.429 . S
C1744 C1736 1.574 . S
C1744 H1739 0.949 . S
C1744 C1750 1.368 . S
C1745 C1729 1.349 . S
C1745 H1737 0.950 . S
C1745 C1743 1.327 . S
C1746 C1734 1.349 . S
C1746 H1740 0.950 . S
C1746 C1747 1.327 . S
C1747 H1741 0.950 . S
C1747 C1746 1.327 . S
C1747 C1751 1.429 . S
C1748 C1731 1.574 . S
C1748 H1742 0.949 . S
C1748 C1752 1.368 . S
C1749 C1730 1.429 . S
C1749 C1743 1.429 . S
C1749 C1750 1.523 . S
C1750 C1731 1.368 . S
C1750 C1744 1.368 . S
C1750 C1749 1.523 . S
C1751 C1735 1.429 . S
C1751 C1747 1.429 . S
C1751 C1752 1.523 . S
C1752 C1736 1.368 . S
C1752 C1748 1.368 . S
C1752 C1751 1.523 . S
H1753 C1728 0.950 . S
H1754 C1730 0.950 . S
H1755 C1731 0.949 . S
H1756 C1733 0.950 . S
H1757 C1735 0.950 . S
C1758 C1759 1.349 . S
C1758 C1760 1.327 . S
C1758 H1783 0.950 . S
C1759 C1758 1.349 . S
C1759 C1775 1.349 . S
C1760 C1758 1.327 . S
C1760 C1779 1.429 . S
C1760 H1784 0.950 . S
C1761 C1778 1.574 . S
C1761 C1780 1.368 . S
C1761 H1785 0.949 . S
H1762 C1766 0.949 . S
C1763 C1764 1.349 . S
C1763 C1765 1.327 . S
C1763 H1786 0.950 . S
C1764 C1763 1.349 . S
C1764 C1776 1.349 . S
C1765 C1763 1.327 . S
C1765 C1781 1.429 . S
C1765 H1787 0.950 . S
C1766 H1762 0.949 . S
C1766 C1774 1.574 . S
C1766 C1782 1.368 . S
H1767 C1775 0.950 . S
H1768 C1773 0.950 . S
H1769 C1774 0.949 . S
H1770 C1776 0.950 . S
H1771 C1777 0.950 . S
H1772 C1778 0.949 . S
C1773 H1768 0.950 . S
C1773 C1775 1.327 . S
C1773 C1779 1.429 . S
C1774 C1766 1.574 . S
C1774 H1769 0.949 . S
C1774 C1780 1.368 . S
C1775 C1759 1.349 . S
C1775 H1767 0.950 . S
C1775 C1773 1.327 . S
C1776 C1764 1.349 . S
C1776 H1770 0.950 . S
C1776 C1777 1.327 . S
C1777 H1771 0.950 . S
C1777 C1776 1.327 . S
C1777 C1781 1.429 . S
C1778 C1761 1.574 . S
C1778 H1772 0.949 . S
C1778 C1782 1.368 . S
C1779 C1760 1.429 . S
C1779 C1773 1.429 . S
C1779 C1780 1.523 . S
C1780 C1761 1.368 . S
C1780 C1774 1.368 . S
C1780 C1779 1.523 . S
C1781 C1765 1.429 . S
C1781 C1777 1.429 . S
C1781 C1782 1.523 . S
C1782 C1766 1.368 . S
C1782 C1778 1.368 . S
C1782 C1781 1.523 . S
H1783 C1758 0.950 . S
H1784 C1760 0.950 . S
H1785 C1761 0.949 . S
H1786 C1763 0.950 . S
H1787 C1765 0.950 . S
C1788 C1789 1.349 . S
C1788 C1790 1.327 . S
C1788 H1813 0.950 . S
C1789 C1788 1.349 . S
C1789 C1805 1.349 . S
C1790 C1788 1.327 . S
C1790 C1809 1.429 . S
C1790 H1814 0.950 . S
C1791 C1808 1.574 . S
C1791 C1810 1.368 . S
C1791 H1815 0.949 . S
H1792 C1796 0.949 . S
C1793 C1794 1.349 . S
C1793 C1795 1.327 . S
C1793 H1816 0.950 . S
C1794 C1793 1.349 . S
C1794 C1806 1.349 . S
C1795 C1793 1.327 . S
C1795 C1811 1.429 . S
C1795 H1817 0.950 . S
C1796 H1792 0.949 . S
C1796 C1804 1.574 . S
C1796 C1812 1.368 . S
H1797 C1805 0.950 . S
H1798 C1803 0.950 . S
H1799 C1804 0.949 . S
H1800 C1806 0.950 . S
H1801 C1807 0.950 . S
H1802 C1808 0.949 . S
C1803 H1798 0.950 . S
C1803 C1805 1.327 . S
C1803 C1809 1.429 . S
C1804 C1796 1.574 . S
C1804 H1799 0.949 . S
C1804 C1810 1.368 . S
C1805 C1789 1.349 . S
C1805 H1797 0.950 . S
C1805 C1803 1.327 . S
C1806 C1794 1.349 . S
C1806 H1800 0.950 . S
C1806 C1807 1.327 . S
C1807 H1801 0.950 . S
C1807 C1806 1.327 . S
C1807 C1811 1.429 . S
C1808 C1791 1.574 . S
C1808 H1802 0.949 . S
C1808 C1812 1.368 . S
C1809 C1790 1.429 . S
C1809 C1803 1.429 . S
C1809 C1810 1.523 . S
C1810 C1791 1.368 . S
C1810 C1804 1.368 . S
C1810 C1809 1.523 . S
C1811 C1795 1.429 . S
C1811 C1807 1.429 . S
C1811 C1812 1.523 . S
C1812 C1796 1.368 . S
C1812 C1808 1.368 . S
C1812 C1811 1.523 . S
H1813 C1788 0.950 . S
H1814 C1790 0.950 . S
H1815 C1791 0.949 . S
H1816 C1793 0.950 . S
H1817 C1795 0.950 . S
C1818 C1819 1.349 . S
C1818 C1820 1.327 . S
C1818 H1843 0.950 . S
C1819 C1818 1.349 . S
C1819 C1835 1.349 . S
C1820 C1818 1.327 . S
C1820 C1839 1.429 . S
C1820 H1844 0.950 . S
C1821 C1838 1.574 . S
C1821 C1840 1.368 . S
C1821 H1845 0.949 . S
H1822 C1826 0.949 . S
C1823 C1824 1.349 . S
C1823 C1825 1.327 . S
C1823 H1846 0.950 . S
C1824 C1823 1.349 . S
C1824 C1836 1.349 . S
C1825 C1823 1.327 . S
C1825 C1841 1.429 . S
C1825 H1847 0.950 . S
C1826 H1822 0.949 . S
C1826 C1834 1.574 . S
C1826 C1842 1.368 . S
H1827 C1835 0.950 . S
H1828 C1833 0.950 . S
H1829 C1834 0.949 . S
H1830 C1836 0.950 . S
H1831 C1837 0.950 . S
H1832 C1838 0.949 . S
C1833 H1828 0.950 . S
C1833 C1835 1.327 . S
C1833 C1839 1.429 . S
C1834 C1826 1.574 . S
C1834 H1829 0.949 . S
C1834 C1840 1.368 . S
C1835 C1819 1.349 . S
C1835 H1827 0.950 . S
C1835 C1833 1.327 . S
C1836 C1824 1.349 . S
C1836 H1830 0.950 . S
C1836 C1837 1.327 . S
C1837 H1831 0.950 . S
C1837 C1836 1.327 . S
C1837 C1841 1.429 . S
C1838 C1821 1.574 . S
C1838 H1832 0.949 . S
C1838 C1842 1.368 . S
C1839 C1820 1.429 . S
C1839 C1833 1.429 . S
C1839 C1840 1.523 . S
C1840 C1821 1.368 . S
C1840 C1834 1.368 . S
C1840 C1839 1.523 . S
C1841 C1825 1.429 . S
C1841 C1837 1.429 . S
C1841 C1842 1.523 . S
C1842 C1826 1.368 . S
C1842 C1838 1.368 . S
C1842 C1841 1.523 . S
H1843 C1818 0.950 . S
H1844 C1820 0.950 . S
H1845 C1821 0.949 . S
H1846 C1823 0.950 . S
H1847 C1825 0.950 . S
C1848 C1849 1.349 . S
C1848 C1850 1.327 . S
C1848 H1873 0.950 . S
C1849 C1848 1.349 . S
C1849 C1865 1.349 . S
C1850 C1848 1.327 . S
C1850 C1869 1.429 . S
C1850 H1874 0.950 . S
C1851 C1868 1.574 . S
C1851 C1870 1.368 . S
C1851 H1875 0.949 . S
H1852 C1856 0.949 . S
C1853 C1854 1.349 . S
C1853 C1855 1.327 . S
C1853 H1876 0.950 . S
C1854 C1853 1.349 . S
C1854 C1866 1.349 . S
C1855 C1853 1.327 . S
C1855 C1871 1.429 . S
C1855 H1877 0.950 . S
C1856 H1852 0.949 . S
C1856 C1864 1.574 . S
C1856 C1872 1.368 . S
H1857 C1865 0.950 . S
H1858 C1863 0.950 . S
H1859 C1864 0.949 . S
H1860 C1866 0.950 . S
H1861 C1867 0.950 . S
H1862 C1868 0.949 . S
C1863 H1858 0.950 . S
C1863 C1865 1.327 . S
C1863 C1869 1.429 . S
C1864 C1856 1.574 . S
C1864 H1859 0.949 . S
C1864 C1870 1.368 . S
C1865 C1849 1.349 . S
C1865 H1857 0.950 . S
C1865 C1863 1.327 . S
C1866 C1854 1.349 . S
C1866 H1860 0.950 . S
C1866 C1867 1.327 . S
C1867 H1861 0.950 . S
C1867 C1866 1.327 . S
C1867 C1871 1.429 . S
C1868 C1851 1.574 . S
C1868 H1862 0.949 . S
C1868 C1872 1.368 . S
C1869 C1850 1.429 . S
C1869 C1863 1.429 . S
C1869 C1870 1.523 . S
C1870 C1851 1.368 . S
C1870 C1864 1.368 . S
C1870 C1869 1.523 . S
C1871 C1855 1.429 . S
C1871 C1867 1.429 . S
C1871 C1872 1.523 . S
C1872 C1856 1.368 . S
C1872 C1868 1.368 . S
C1872 C1871 1.523 . S
H1873 C1848 0.950 . S
H1874 C1850 0.950 . S
H1875 C1851 0.949 . S
H1876 C1853 0.950 . S
H1877 C1855 0.950 . S
C1878 C1879 1.349 . S
C1878 C1880 1.327 . S
C1878 H1903 0.950 . S
C1879 C1878 1.349 . S
C1879 C1895 1.349 . S
C1880 C1878 1.327 . S
C1880 C1899 1.429 . S
C1880 H1904 0.950 . S
C1881 C1898 1.574 . S
C1881 C1900 1.368 . S
C1881 H1905 0.949 . S
H1882 C1886 0.949 . S
C1883 C1884 1.349 . S
C1883 C1885 1.327 . S
C1883 H1906 0.950 . S
C1884 C1883 1.349 . S
C1884 C1896 1.349 . S
C1885 C1883 1.327 . S
C1885 C1901 1.429 . S
C1885 H1907 0.950 . S
C1886 H1882 0.949 . S
C1886 C1894 1.574 . S
C1886 C1902 1.368 . S
H1887 C1895 0.950 . S
H1888 C1893 0.950 . S
H1889 C1894 0.949 . S
H1890 C1896 0.950 . S
H1891 C1897 0.950 . S
H1892 C1898 0.949 . S
C1893 H1888 0.950 . S
C1893 C1895 1.327 . S
C1893 C1899 1.429 . S
C1894 C1886 1.574 . S
C1894 H1889 0.949 . S
C1894 C1900 1.368 . S
C1895 C1879 1.349 . S
C1895 H1887 0.950 . S
C1895 C1893 1.327 . S
C1896 C1884 1.349 . S
C1896 H1890 0.950 . S
C1896 C1897 1.327 . S
C1897 H1891 0.950 . S
C1897 C1896 1.327 . S
C1897 C1901 1.429 . S
C1898 C1881 1.574 . S
C1898 H1892 0.949 . S
C1898 C1902 1.368 . S
C1899 C1880 1.429 . S
C1899 C1893 1.429 . S
C1899 C1900 1.523 . S
C1900 C1881 1.368 . S
C1900 C1894 1.368 . S
C1900 C1899 1.523 . S
C1901 C1885 1.429 . S
C1901 C1897 1.429 . S
C1901 C1902 1.523 . S
C1902 C1886 1.368 . S
C1902 C1898 1.368 . S
C1902 C1901 1.523 . S
H1903 C1878 0.950 . S
H1904 C1880 0.950 . S
H1905 C1881 0.949 . S
H1906 C1883 0.950 . S
H1907 C1885 0.950 . S
C1908 C1909 1.349 . S
C1908 C1910 1.327 . S
C1908 H1933 0.950 . S
C1909 C1908 1.349 . S
C1909 C1925 1.349 . S
C1910 C1908 1.327 . S
C1910 C1929 1.429 . S
C1910 H1934 0.950 . S
C1911 C1928 1.574 . S
C1911 C1930 1.368 . S
C1911 H1935 0.949 . S
H1912 C1916 0.949 . S
C1913 C1914 1.349 . S
C1913 C1915 1.327 . S
C1913 H1936 0.950 . S
C1914 C1913 1.349 . S
C1914 C1926 1.349 . S
C1915 C1913 1.327 . S
C1915 C1931 1.429 . S
C1915 H1937 0.950 . S
C1916 H1912 0.949 . S
C1916 C1924 1.574 . S
C1916 C1932 1.368 . S
H1917 C1925 0.950 . S
H1918 C1923 0.950 . S
H1919 C1924 0.949 . S
H1920 C1926 0.950 . S
H1921 C1927 0.950 . S
H1922 C1928 0.949 . S
C1923 H1918 0.950 . S
C1923 C1925 1.327 . S
C1923 C1929 1.429 . S
C1924 C1916 1.574 . S
C1924 H1919 0.949 . S
C1924 C1930 1.368 . S
C1925 C1909 1.349 . S
C1925 H1917 0.950 . S
C1925 C1923 1.327 . S
C1926 C1914 1.349 . S
C1926 H1920 0.950 . S
C1926 C1927 1.327 . S
C1927 H1921 0.950 . S
C1927 C1926 1.327 . S
C1927 C1931 1.429 . S
C1928 C1911 1.574 . S
C1928 H1922 0.949 . S
C1928 C1932 1.368 . S
C1929 C1910 1.429 . S
C1929 C1923 1.429 . S
C1929 C1930 1.523 . S
C1930 C1911 1.368 . S
C1930 C1924 1.368 . S
C1930 C1929 1.523 . S
C1931 C1915 1.429 . S
C1931 C1927 1.429 . S
C1931 C1932 1.523 . S
C1932 C1916 1.368 . S
C1932 C1928 1.368 . S
C1932 C1931 1.523 . S
H1933 C1908 0.950 . S
H1934 C1910 0.950 . S
H1935 C1911 0.949 . S
H1936 C1913 0.950 . S
H1937 C1915 0.950 . S
C1938 C1939 1.349 . S
C1938 C1940 1.327 . S
C1938 H1963 0.950 . S
C1939 C1938 1.349 . S
C1939 C1955 1.349 . S
C1940 C1938 1.327 . S
C1940 C1959 1.429 . S
C1940 H1964 0.950 . S
C1941 C1958 1.574 . S
C1941 C1960 1.368 . S
C1941 H1965 0.949 . S
H1942 C1946 0.949 . S
C1943 C1944 1.349 . S
C1943 C1945 1.327 . S
C1943 H1966 0.950 . S
C1944 C1943 1.349 . S
C1944 C1956 1.349 . S
C1945 C1943 1.327 . S
C1945 C1961 1.429 . S
C1945 H1967 0.950 . S
C1946 H1942 0.949 . S
C1946 C1954 1.574 . S
C1946 C1962 1.368 . S
H1947 C1955 0.950 . S
H1948 C1953 0.950 . S
H1949 C1954 0.949 . S
H1950 C1956 0.950 . S
H1951 C1957 0.950 . S
H1952 C1958 0.949 . S
C1953 H1948 0.950 . S
C1953 C1955 1.327 . S
C1953 C1959 1.429 . S
C1954 C1946 1.574 . S
C1954 H1949 0.949 . S
C1954 C1960 1.368 . S
C1955 C1939 1.349 . S
C1955 H1947 0.950 . S
C1955 C1953 1.327 . S
C1956 C1944 1.349 . S
C1956 H1950 0.950 . S
C1956 C1957 1.327 . S
C1957 H1951 0.950 . S
C1957 C1956 1.327 . S
C1957 C1961 1.429 . S
C1958 C1941 1.574 . S
C1958 H1952 0.949 . S
C1958 C1962 1.368 . S
C1959 C1940 1.429 . S
C1959 C1953 1.429 . S
C1959 C1960 1.523 . S
C1960 C1941 1.368 . S
C1960 C1954 1.368 . S
C1960 C1959 1.523 . S
C1961 C1945 1.429 . S
C1961 C1957 1.429 . S
C1961 C1962 1.523 . S
C1962 C1946 1.368 . S
C1962 C1958 1.368 . S
C1962 C1961 1.523 . S
H1963 C1938 0.950 . S
H1964 C1940 0.950 . S
H1965 C1941 0.949 . S
H1966 C1943 0.950 . S
H1967 C1945 0.950 . S
C1968 C1969 1.349 . S
C1968 C1970 1.327 . S
C1968 H1993 0.950 . S
C1969 C1968 1.349 . S
C1969 C1985 1.349 . S
C1970 C1968 1.327 . S
C1970 C1989 1.429 . S
C1970 H1994 0.950 . S
C1971 C1988 1.574 . S
C1971 C1990 1.368 . S
C1971 H1995 0.949 . S
H1972 C1976 0.949 . S
C1973 C1974 1.349 . S
C1973 C1975 1.327 . S
C1973 H1996 0.950 . S
C1974 C1973 1.349 . S
C1974 C1986 1.349 . S
C1975 C1973 1.327 . S
C1975 C1991 1.429 . S
C1975 H1997 0.950 . S
C1976 H1972 0.949 . S
C1976 C1984 1.574 . S
C1976 C1992 1.368 . S
H1977 C1985 0.950 . S
H1978 C1983 0.950 . S
H1979 C1984 0.949 . S
H1980 C1986 0.950 . S
H1981 C1987 0.950 . S
H1982 C1988 0.949 . S
C1983 H1978 0.950 . S
C1983 C1985 1.327 . S
C1983 C1989 1.429 . S
C1984 C1976 1.574 . S
C1984 H1979 0.949 . S
C1984 C1990 1.368 . S
C1985 C1969 1.349 . S
C1985 H1977 0.950 . S
C1985 C1983 1.327 . S
C1986 C1974 1.349 . S
C1986 H1980 0.950 . S
C1986 C1987 1.327 . S
C1987 H1981 0.950 . S
C1987 C1986 1.327 . S
C1987 C1991 1.429 . S
C1988 C1971 1.574 . S
C1988 H1982 0.949 . S
C1988 C1992 1.368 . S
C1989 C1970 1.429 . S
C1989 C1983 1.429 . S
C1989 C1990 1.523 . S
C1990 C1971 1.368 . S
C1990 C1984 1.368 . S
C1990 C1989 1.523 . S
C1991 C1975 1.429 . S
C1991 C1987 1.429 . S
C1991 C1992 1.523 . S
C1992 C1976 1.368 . S
C1992 C1988 1.368 . S
C1992 C1991 1.523 . S
H1993 C1968 0.950 . S
H1994 C1970 0.950 . S
H1995 C1971 0.949 . S
H1996 C1973 0.950 . S
H1997 C1975 0.950 . S
C1998 C1999 1.349 . S
C1998 C2000 1.327 . S
C1998 H2023 0.950 . S
C1999 C1998 1.349 . S
C1999 C2015 1.349 . S
C2000 C1998 1.327 . S
C2000 C2019 1.429 . S
C2000 H2024 0.950 . S
C2001 C2018 1.574 . S
C2001 C2020 1.368 . S
C2001 H2025 0.949 . S
H2002 C2006 0.949 . S
C2003 C2004 1.349 . S
C2003 C2005 1.327 . S
C2003 H2026 0.950 . S
C2004 C2003 1.349 . S
C2004 C2016 1.349 . S
C2005 C2003 1.327 . S
C2005 C2021 1.429 . S
C2005 H2027 0.950 . S
C2006 H2002 0.949 . S
C2006 C2014 1.574 . S
C2006 C2022 1.368 . S
H2007 C2015 0.950 . S
H2008 C2013 0.950 . S
H2009 C2014 0.949 . S
H2010 C2016 0.950 . S
H2011 C2017 0.950 . S
H2012 C2018 0.949 . S
C2013 H2008 0.950 . S
C2013 C2015 1.327 . S
C2013 C2019 1.429 . S
C2014 C2006 1.574 . S
C2014 H2009 0.949 . S
C2014 C2020 1.368 . S
C2015 C1999 1.349 . S
C2015 H2007 0.950 . S
C2015 C2013 1.327 . S
C2016 C2004 1.349 . S
C2016 H2010 0.950 . S
C2016 C2017 1.327 . S
C2017 H2011 0.950 . S
C2017 C2016 1.327 . S
C2017 C2021 1.429 . S
C2018 C2001 1.574 . S
C2018 H2012 0.949 . S
C2018 C2022 1.368 . S
C2019 C2000 1.429 . S
C2019 C2013 1.429 . S
C2019 C2020 1.523 . S
C2020 C2001 1.368 . S
C2020 C2014 1.368 . S
C2020 C2019 1.523 . S
C2021 C2005 1.429 . S
C2021 C2017 1.429 . S
C2021 C2022 1.523 . S
C2022 C2006 1.368 . S
C2022 C2018 1.368 . S
C2022 C2021 1.523 . S
H2023 C1998 0.950 . S
H2024 C2000 0.950 . S
H2025 C2001 0.949 . S
H2026 C2003 0.950 . S
H2027 C2005 0.950 . S
C2028 C2029 1.349 . S
C2028 C2030 1.327 . S
C2028 H2053 0.950 . S
C2029 C2028 1.349 . S
C2029 C2045 1.349 . S
C2030 C2028 1.327 . S
C2030 C2049 1.429 . S
C2030 H2054 0.950 . S
C2031 C2048 1.574 . S
C2031 C2050 1.368 . S
C2031 H2055 0.949 . S
H2032 C2036 0.949 . S
C2033 C2034 1.349 . S
C2033 C2035 1.327 . S
C2033 H2056 0.950 . S
C2034 C2033 1.349 . S
C2034 C2046 1.349 . S
C2035 C2033 1.327 . S
C2035 C2051 1.429 . S
C2035 H2057 0.950 . S
C2036 H2032 0.949 . S
C2036 C2044 1.574 . S
C2036 C2052 1.368 . S
H2037 C2045 0.950 . S
H2038 C2043 0.950 . S
H2039 C2044 0.949 . S
H2040 C2046 0.950 . S
H2041 C2047 0.950 . S
H2042 C2048 0.949 . S
C2043 H2038 0.950 . S
C2043 C2045 1.327 . S
C2043 C2049 1.429 . S
C2044 C2036 1.574 . S
C2044 H2039 0.949 . S
C2044 C2050 1.368 . S
C2045 C2029 1.349 . S
C2045 H2037 0.950 . S
C2045 C2043 1.327 . S
C2046 C2034 1.349 . S
C2046 H2040 0.950 . S
C2046 C2047 1.327 . S
C2047 H2041 0.950 . S
C2047 C2046 1.327 . S
C2047 C2051 1.429 . S
C2048 C2031 1.574 . S
C2048 H2042 0.949 . S
C2048 C2052 1.368 . S
C2049 C2030 1.429 . S
C2049 C2043 1.429 . S
C2049 C2050 1.523 . S
C2050 C2031 1.368 . S
C2050 C2044 1.368 . S
C2050 C2049 1.523 . S
C2051 C2035 1.429 . S
C2051 C2047 1.429 . S
C2051 C2052 1.523 . S
C2052 C2036 1.368 . S
C2052 C2048 1.368 . S
C2052 C2051 1.523 . S
H2053 C2028 0.950 . S
H2054 C2030 0.950 . S
H2055 C2031 0.949 . S
H2056 C2033 0.950 . S
H2057 C2035 0.950 . S
C2058 C2059 1.349 . S
C2058 C2060 1.327 . S
C2058 H2083 0.950 . S
C2059 C2058 1.349 . S
C2059 C2075 1.349 . S
C2060 C2058 1.327 . S
C2060 C2079 1.429 . S
C2060 H2084 0.950 . S
C2061 C2078 1.574 . S
C2061 C2080 1.368 . S
C2061 H2085 0.949 . S
H2062 C2066 0.949 . S
C2063 C2064 1.349 . S
C2063 C2065 1.327 . S
C2063 H2086 0.950 . S
C2064 C2063 1.349 . S
C2064 C2076 1.349 . S
C2065 C2063 1.327 . S
C2065 C2081 1.429 . S
C2065 H2087 0.950 . S
C2066 H2062 0.949 . S
C2066 C2074 1.574 . S
C2066 C2082 1.368 . S
H2067 C2075 0.950 . S
H2068 C2073 0.950 . S
H2069 C2074 0.949 . S
H2070 C2076 0.950 . S
H2071 C2077 0.950 . S
H2072 C2078 0.949 . S
C2073 H2068 0.950 . S
C2073 C2075 1.327 . S
C2073 C2079 1.429 . S
C2074 C2066 1.574 . S
C2074 H2069 0.949 . S
C2074 C2080 1.368 . S
C2075 C2059 1.349 . S
C2075 H2067 0.950 . S
C2075 C2073 1.327 . S
C2076 C2064 1.349 . S
C2076 H2070 0.950 . S
C2076 C2077 1.327 . S
C2077 H2071 0.950 . S
C2077 C2076 1.327 . S
C2077 C2081 1.429 . S
C2078 C2061 1.574 . S
C2078 H2072 0.949 . S
C2078 C2082 1.368 . S
C2079 C2060 1.429 . S
C2079 C2073 1.429 . S
C2079 C2080 1.523 . S
C2080 C2061 1.368 . S
C2080 C2074 1.368 . S
C2080 C2079 1.523 . S
C2081 C2065 1.429 . S
C2081 C2077 1.429 . S
C2081 C2082 1.523 . S
C2082 C2066 1.368 . S
C2082 C2078 1.368 . S
C2082 C2081 1.523 . S
H2083 C2058 0.950 . S
H2084 C2060 0.950 . S
H2085 C2061 0.949 . S
H2086 C2063 0.950 . S
H2087 C2065 0.950 . S
C2088 C2089 1.349 . S
C2088 C2090 1.327 . S
C2088 H2113 0.950 . S
C2089 C2088 1.349 . S
C2089 C2105 1.349 . S
C2090 C2088 1.327 . S
C2090 C2109 1.429 . S
C2090 H2114 0.950 . S
C2091 C2108 1.574 . S
C2091 C2110 1.368 . S
C2091 H2115 0.949 . S
H2092 C2096 0.949 . S
C2093 C2094 1.349 . S
C2093 C2095 1.327 . S
C2093 H2116 0.950 . S
C2094 C2093 1.349 . S
C2094 C2106 1.349 . S
C2095 C2093 1.327 . S
C2095 C2111 1.429 . S
C2095 H2117 0.950 . S
C2096 H2092 0.949 . S
C2096 C2104 1.574 . S
C2096 C2112 1.368 . S
H2097 C2105 0.950 . S
H2098 C2103 0.950 . S
H2099 C2104 0.949 . S
H2100 C2106 0.950 . S
H2101 C2107 0.950 . S
H2102 C2108 0.949 . S
C2103 H2098 0.950 . S
C2103 C2105 1.327 . S
C2103 C2109 1.429 . S
C2104 C2096 1.574 . S
C2104 H2099 0.949 . S
C2104 C2110 1.368 . S
C2105 C2089 1.349 . S
C2105 H2097 0.950 . S
C2105 C2103 1.327 . S
C2106 C2094 1.349 . S
C2106 H2100 0.950 . S
C2106 C2107 1.327 . S
C2107 H2101 0.950 . S
C2107 C2106 1.327 . S
C2107 C2111 1.429 . S
C2108 C2091 1.574 . S
C2108 H2102 0.949 . S
C2108 C2112 1.368 . S
C2109 C2090 1.429 . S
C2109 C2103 1.429 . S
C2109 C2110 1.523 . S
C2110 C2091 1.368 . S
C2110 C2104 1.368 . S
C2110 C2109 1.523 . S
C2111 C2095 1.429 . S
C2111 C2107 1.429 . S
C2111 C2112 1.523 . S
C2112 C2096 1.368 . S
C2112 C2108 1.368 . S
C2112 C2111 1.523 . S
H2113 C2088 0.950 . S
H2114 C2090 0.950 . S
H2115 C2091 0.949 . S
H2116 C2093 0.950 . S
H2117 C2095 0.950 . S
C2118 C2119 1.349 . S
C2118 C2120 1.327 . S
C2118 H2143 0.950 . S
C2119 C2118 1.349 . S
C2119 C2135 1.349 . S
C2120 C2118 1.327 . S
C2120 C2139 1.429 . S
C2120 H2144 0.950 . S
C2121 C2138 1.574 . S
C2121 C2140 1.368 . S
C2121 H2145 0.949 . S
H2122 C2126 0.949 . S
C2123 C2124 1.349 . S
C2123 C2125 1.327 . S
C2123 H2146 0.950 . S
C2124 C2123 1.349 . S
C2124 C2136 1.349 . S
C2125 C2123 1.327 . S
C2125 C2141 1.429 . S
C2125 H2147 0.950 . S
C2126 H2122 0.949 . S
C2126 C2134 1.574 . S
C2126 C2142 1.368 . S
H2127 C2135 0.950 . S
H2128 C2133 0.950 . S
H2129 C2134 0.949 . S
H2130 C2136 0.950 . S
H2131 C2137 0.950 . S
H2132 C2138 0.949 . S
C2133 H2128 0.950 . S
C2133 C2135 1.327 . S
C2133 C2139 1.429 . S
C2134 C2126 1.574 . S
C2134 H2129 0.949 . S
C2134 C2140 1.368 . S
C2135 C2119 1.349 . S
C2135 H2127 0.950 . S
C2135 C2133 1.327 . S
C2136 C2124 1.349 . S
C2136 H2130 0.950 . S
C2136 C2137 1.327 . S
C2137 H2131 0.950 . S
C2137 C2136 1.327 . S
C2137 C2141 1.429 . S
C2138 C2121 1.574 . S
C2138 H2132 0.949 . S
C2138 C2142 1.368 . S
C2139 C2120 1.429 . S
C2139 C2133 1.429 . S
C2139 C2140 1.523 . S
C2140 C2121 1.368 . S
C2140 C2134 1.368 . S
C2140 C2139 1.523 . S
C2141 C2125 1.429 . S
C2141 C2137 1.429 . S
C2141 C2142 1.523 . S
C2142 C2126 1.368 . S
C2142 C2138 1.368 . S
C2142 C2141 1.523 . S
H2143 C2118 0.950 . S
H2144 C2120 0.950 . S
H2145 C2121 0.949 . S
H2146 C2123 0.950 . S
H2147 C2125 0.950 . S
C2148 C2149 1.349 . S
C2148 C2150 1.327 . S
C2148 H2173 0.950 . S
C2149 C2148 1.349 . S
C2149 C2165 1.349 . S
C2150 C2148 1.327 . S
C2150 C2169 1.429 . S
C2150 H2174 0.950 . S
C2151 C2168 1.574 . S
C2151 C2170 1.368 . S
C2151 H2175 0.949 . S
H2152 C2156 0.949 . S
C2153 C2154 1.349 . S
C2153 C2155 1.327 . S
C2153 H2176 0.950 . S
C2154 C2153 1.349 . S
C2154 C2166 1.349 . S
C2155 C2153 1.327 . S
C2155 C2171 1.429 . S
C2155 H2177 0.950 . S
C2156 H2152 0.949 . S
C2156 C2164 1.574 . S
C2156 C2172 1.368 . S
H2157 C2165 0.950 . S
H2158 C2163 0.950 . S
H2159 C2164 0.949 . S
H2160 C2166 0.950 . S
H2161 C2167 0.950 . S
H2162 C2168 0.949 . S
C2163 H2158 0.950 . S
C2163 C2165 1.327 . S
C2163 C2169 1.429 . S
C2164 C2156 1.574 . S
C2164 H2159 0.949 . S
C2164 C2170 1.368 . S
C2165 C2149 1.349 . S
C2165 H2157 0.950 . S
C2165 C2163 1.327 . S
C2166 C2154 1.349 . S
C2166 H2160 0.950 . S
C2166 C2167 1.327 . S
C2167 H2161 0.950 . S
C2167 C2166 1.327 . S
C2167 C2171 1.429 . S
C2168 C2151 1.574 . S
C2168 H2162 0.949 . S
C2168 C2172 1.368 . S
C2169 C2150 1.429 . S
C2169 C2163 1.429 . S
C2169 C2170 1.523 . S
C2170 C2151 1.368 . S
C2170 C2164 1.368 . S
C2170 C2169 1.523 . S
C2171 C2155 1.429 . S
C2171 C2167 1.429 . S
C2171 C2172 1.523 . S
C2172 C2156 1.368 . S
C2172 C2168 1.368 . S
C2172 C2171 1.523 . S
H2173 C2148 0.950 . S
H2174 C2150 0.950 . S
H2175 C2151 0.949 . S
H2176 C2153 0.950 . S
H2177 C2155 0.950 . S
C2178 C2179 1.349 . S
C2178 C2180 1.327 . S
C2178 H2203 0.950 . S
C2179 C2178 1.349 . S
C2179 C2195 1.349 . S
C2180 C2178 1.327 . S
C2180 C2199 1.429 . S
C2180 H2204 0.950 . S
C2181 C2198 1.574 . S
C2181 C2200 1.368 . S
C2181 H2205 0.949 . S
H2182 C2186 0.949 . S
C2183 C2184 1.349 . S
C2183 C2185 1.327 . S
C2183 H2206 0.950 . S
C2184 C2183 1.349 . S
C2184 C2196 1.349 . S
C2185 C2183 1.327 . S
C2185 C2201 1.429 . S
C2185 H2207 0.950 . S
C2186 H2182 0.949 . S
C2186 C2194 1.574 . S
C2186 C2202 1.368 . S
H2187 C2195 0.950 . S
H2188 C2193 0.950 . S
H2189 C2194 0.949 . S
H2190 C2196 0.950 . S
H2191 C2197 0.950 . S
H2192 C2198 0.949 . S
C2193 H2188 0.950 . S
C2193 C2195 1.327 . S
C2193 C2199 1.429 . S
C2194 C2186 1.574 . S
C2194 H2189 0.949 . S
C2194 C2200 1.368 . S
C2195 C2179 1.349 . S
C2195 H2187 0.950 . S
C2195 C2193 1.327 . S
C2196 C2184 1.349 . S
C2196 H2190 0.950 . S
C2196 C2197 1.327 . S
C2197 H2191 0.950 . S
C2197 C2196 1.327 . S
C2197 C2201 1.429 . S
C2198 C2181 1.574 . S
C2198 H2192 0.949 . S
C2198 C2202 1.368 . S
C2199 C2180 1.429 . S
C2199 C2193 1.429 . S
C2199 C2200 1.523 . S
C2200 C2181 1.368 . S
C2200 C2194 1.368 . S
C2200 C2199 1.523 . S
C2201 C2185 1.429 . S
C2201 C2197 1.429 . S
C2201 C2202 1.523 . S
C2202 C2186 1.368 . S
C2202 C2198 1.368 . S
C2202 C2201 1.523 . S
H2203 C2178 0.950 . S
H2204 C2180 0.950 . S
H2205 C2181 0.949 . S
H2206 C2183 0.950 . S
H2207 C2185 0.950 . S
C2208 C2209 1.349 . S
C2208 C2210 1.327 . S
C2208 H2233 0.950 . S
C2209 C2208 1.349 . S
C2209 C2225 1.349 . S
C2210 C2208 1.327 . S
C2210 C2229 1.429 . S
C2210 H2234 0.950 . S
C2211 C2228 1.574 . S
C2211 C2230 1.368 . S
C2211 H2235 0.949 . S
H2212 C2216 0.949 . S
C2213 C2214 1.349 . S
C2213 C2215 1.327 . S
C2213 H2236 0.950 . S
C2214 C2213 1.349 . S
C2214 C2226 1.349 . S
C2215 C2213 1.327 . S
C2215 C2231 1.429 . S
C2215 H2237 0.950 . S
C2216 H2212 0.949 . S
C2216 C2224 1.574 . S
C2216 C2232 1.368 . S
H2217 C2225 0.950 . S
H2218 C2223 0.950 . S
H2219 C2224 0.949 . S
H2220 C2226 0.950 . S
H2221 C2227 0.950 . S
H2222 C2228 0.949 . S
C2223 H2218 0.950 . S
C2223 C2225 1.327 . S
C2223 C2229 1.429 . S
C2224 C2216 1.574 . S
C2224 H2219 0.949 . S
C2224 C2230 1.368 . S
C2225 C2209 1.349 . S
C2225 H2217 0.950 . S
C2225 C2223 1.327 . S
C2226 C2214 1.349 . S
C2226 H2220 0.950 . S
C2226 C2227 1.327 . S
C2227 H2221 0.950 . S
C2227 C2226 1.327 . S
C2227 C2231 1.429 . S
C2228 C2211 1.574 . S
C2228 H2222 0.949 . S
C2228 C2232 1.368 . S
C2229 C2210 1.429 . S
C2229 C2223 1.429 . S
C2229 C2230 1.523 . S
C2230 C2211 1.368 . S
C2230 C2224 1.368 . S
C2230 C2229 1.523 . S
C2231 C2215 1.429 . S
C2231 C2227 1.429 . S
C2231 C2232 1.523 . S
C2232 C2216 1.368 . S
C2232 C2228 1.368 . S
C2232 C2231 1.523 . S
H2233 C2208 0.950 . S
H2234 C2210 0.950 . S
H2235 C2211 0.949 . S
H2236 C2213 0.950 . S
H2237 C2215 0.950 . S
C2238 C2239 1.349 . S
C2238 C2240 1.327 . S
C2238 H2263 0.950 . S
C2239 C2238 1.349 . S
C2239 C2255 1.349 . S
C2240 C2238 1.327 . S
C2240 C2259 1.429 . S
C2240 H2264 0.950 . S
C2241 C2258 1.574 . S
C2241 C2260 1.368 . S
C2241 H2265 0.949 . S
H2242 C2246 0.949 . S
C2243 C2244 1.349 . S
C2243 C2245 1.327 . S
C2243 H2266 0.950 . S
C2244 C2243 1.349 . S
C2244 C2256 1.349 . S
C2245 C2243 1.327 . S
C2245 C2261 1.429 . S
C2245 H2267 0.950 . S
C2246 H2242 0.949 . S
C2246 C2254 1.574 . S
C2246 C2262 1.368 . S
H2247 C2255 0.950 . S
H2248 C2253 0.950 . S
H2249 C2254 0.949 . S
H2250 C2256 0.950 . S
H2251 C2257 0.950 . S
H2252 C2258 0.949 . S
C2253 H2248 0.950 . S
C2253 C2255 1.327 . S
C2253 C2259 1.429 . S
C2254 C2246 1.574 . S
C2254 H2249 0.949 . S
C2254 C2260 1.368 . S
C2255 C2239 1.349 . S
C2255 H2247 0.950 . S
C2255 C2253 1.327 . S
C2256 C2244 1.349 . S
C2256 H2250 0.950 . S
C2256 C2257 1.327 . S
C2257 H2251 0.950 . S
C2257 C2256 1.327 . S
C2257 C2261 1.429 . S
C2258 C2241 1.574 . S
C2258 H2252 0.949 . S
C2258 C2262 1.368 . S
C2259 C2240 1.429 . S
C2259 C2253 1.429 . S
C2259 C2260 1.523 . S
C2260 C2241 1.368 . S
C2260 C2254 1.368 . S
C2260 C2259 1.523 . S
C2261 C2245 1.429 . S
C2261 C2257 1.429 . S
C2261 C2262 1.523 . S
C2262 C2246 1.368 . S
C2262 C2258 1.368 . S
C2262 C2261 1.523 . S
H2263 C2238 0.950 . S
H2264 C2240 0.950 . S
H2265 C2241 0.949 . S
H2266 C2243 0.950 . S
H2267 C2245 0.950 . S
C2268 C2269 1.349 . S
C2268 C2270 1.327 . S
C2268 H2293 0.950 . S
C2269 C2268 1.349 . S
C2269 C2285 1.349 . S
C2270 C2268 1.327 . S
C2270 C2289 1.429 . S
C2270 H2294 0.950 . S
C2271 C2288 1.574 . S
C2271 C2290 1.368 . S
C2271 H2295 0.949 . S
H2272 C2276 0.949 . S
C2273 C2274 1.349 . S
C2273 C2275 1.327 . S
C2273 H2296 0.950 . S
C2274 C2273 1.349 . S
C2274 C2286 1.349 . S
C2275 C2273 1.327 . S
C2275 C2291 1.429 . S
C2275 H2297 0.950 . S
C2276 H2272 0.949 . S
C2276 C2284 1.574 . S
C2276 C2292 1.368 . S
H2277 C2285 0.950 . S
H2278 C2283 0.950 . S
H2279 C2284 0.949 . S
H2280 C2286 0.950 . S
H2281 C2287 0.950 . S
H2282 C2288 0.949 . S
C2283 H2278 0.950 . S
C2283 C2285 1.327 . S
C2283 C2289 1.429 . S
C2284 C2276 1.574 . S
C2284 H2279 0.949 . S
C2284 C2290 1.368 . S
C2285 C2269 1.349 . S
C2285 H2277 0.950 . S
C2285 C2283 1.327 . S
C2286 C2274 1.349 . S
C2286 H2280 0.950 . S
C2286 C2287 1.327 . S
C2287 H2281 0.950 . S
C2287 C2286 1.327 . S
C2287 C2291 1.429 . S
C2288 C2271 1.574 . S
C2288 H2282 0.949 . S
C2288 C2292 1.368 . S
C2289 C2270 1.429 . S
C2289 C2283 1.429 . S
C2289 C2290 1.523 . S
C2290 C2271 1.368 . S
C2290 C2284 1.368 . S
C2290 C2289 1.523 . S
C2291 C2275 1.429 . S
C2291 C2287 1.429 . S
C2291 C2292 1.523 . S
C2292 C2276 1.368 . S
C2292 C2288 1.368 . S
C2292 C2291 1.523 . S
H2293 C2268 0.950 . S
H2294 C2270 0.950 . S
H2295 C2271 0.949 . S
H2296 C2273 0.950 . S
H2297 C2275 0.950 . S
C2298 C2299 1.349 . S
C2298 C2300 1.327 . S
C2298 H2323 0.950 . S
C2299 C2298 1.349 . S
C2299 C2315 1.349 . S
C2300 C2298 1.327 . S
C2300 C2319 1.429 . S
C2300 H2324 0.950 . S
C2301 C2318 1.574 . S
C2301 C2320 1.368 . S
C2301 H2325 0.949 . S
H2302 C2306 0.949 . S
C2303 C2304 1.349 . S
C2303 C2305 1.327 . S
C2303 H2326 0.950 . S
C2304 C2303 1.349 . S
C2304 C2316 1.349 . S
C2305 C2303 1.327 . S
C2305 C2321 1.429 . S
C2305 H2327 0.950 . S
C2306 H2302 0.949 . S
C2306 C2314 1.574 . S
C2306 C2322 1.368 . S
H2307 C2315 0.950 . S
H2308 C2313 0.950 . S
H2309 C2314 0.949 . S
H2310 C2316 0.950 . S
H2311 C2317 0.950 . S
H2312 C2318 0.949 . S
C2313 H2308 0.950 . S
C2313 C2315 1.327 . S
C2313 C2319 1.429 . S
C2314 C2306 1.574 . S
C2314 H2309 0.949 . S
C2314 C2320 1.368 . S
C2315 C2299 1.349 . S
C2315 H2307 0.950 . S
C2315 C2313 1.327 . S
C2316 C2304 1.349 . S
C2316 H2310 0.950 . S
C2316 C2317 1.327 . S
C2317 H2311 0.950 . S
C2317 C2316 1.327 . S
C2317 C2321 1.429 . S
C2318 C2301 1.574 . S
C2318 H2312 0.949 . S
C2318 C2322 1.368 . S
C2319 C2300 1.429 . S
C2319 C2313 1.429 . S
C2319 C2320 1.523 . S
C2320 C2301 1.368 . S
C2320 C2314 1.368 . S
C2320 C2319 1.523 . S
C2321 C2305 1.429 . S
C2321 C2317 1.429 . S
C2321 C2322 1.523 . S
C2322 C2306 1.368 . S
C2322 C2318 1.368 . S
C2322 C2321 1.523 . S
H2323 C2298 0.950 . S
H2324 C2300 0.950 . S
H2325 C2301 0.949 . S
H2326 C2303 0.950 . S
H2327 C2305 0.950 . S
C2328 C2329 1.349 . S
C2328 C2330 1.327 . S
C2328 H2353 0.950 . S
C2329 C2328 1.349 . S
C2329 C2345 1.349 . S
C2330 C2328 1.327 . S
C2330 C2349 1.429 . S
C2330 H2354 0.950 . S
C2331 C2348 1.574 . S
C2331 C2350 1.368 . S
C2331 H2355 0.949 . S
H2332 C2336 0.949 . S
C2333 C2334 1.349 . S
C2333 C2335 1.327 . S
C2333 H2356 0.950 . S
C2334 C2333 1.349 . S
C2334 C2346 1.349 . S
C2335 C2333 1.327 . S
C2335 C2351 1.429 . S
C2335 H2357 0.950 . S
C2336 H2332 0.949 . S
C2336 C2344 1.574 . S
C2336 C2352 1.368 . S
H2337 C2345 0.950 . S
H2338 C2343 0.950 . S
H2339 C2344 0.949 . S
H2340 C2346 0.950 . S
H2341 C2347 0.950 . S
H2342 C2348 0.949 . S
C2343 H2338 0.950 . S
C2343 C2345 1.327 . S
C2343 C2349 1.429 . S
C2344 C2336 1.574 . S
C2344 H2339 0.949 . S
C2344 C2350 1.368 . S
C2345 C2329 1.349 . S
C2345 H2337 0.950 . S
C2345 C2343 1.327 . S
C2346 C2334 1.349 . S
C2346 H2340 0.950 . S
C2346 C2347 1.327 . S
C2347 H2341 0.950 . S
C2347 C2346 1.327 . S
C2347 C2351 1.429 . S
C2348 C2331 1.574 . S
C2348 H2342 0.949 . S
C2348 C2352 1.368 . S
C2349 C2330 1.429 . S
C2349 C2343 1.429 . S
C2349 C2350 1.523 . S
C2350 C2331 1.368 . S
C2350 C2344 1.368 . S
C2350 C2349 1.523 . S
C2351 C2335 1.429 . S
C2351 C2347 1.429 . S
C2351 C2352 1.523 . S
C2352 C2336 1.368 . S
C2352 C2348 1.368 . S
C2352 C2351 1.523 . S
H2353 C2328 0.950 . S
H2354 C2330 0.950 . S
H2355 C2331 0.949 . S
H2356 C2333 0.950 . S
H2357 C2335 0.950 . S
C2358 C2359 1.349 . S
C2358 C2360 1.327 . S
C2358 H2383 0.950 . S
C2359 C2358 1.349 . S
C2359 C2375 1.349 . S
C2360 C2358 1.327 . S
C2360 C2379 1.429 . S
C2360 H2384 0.950 . S
C2361 C2378 1.574 . S
C2361 C2380 1.368 . S
C2361 H2385 0.949 . S
H2362 C2366 0.949 . S
C2363 C2364 1.349 . S
C2363 C2365 1.327 . S
C2363 H2386 0.950 . S
C2364 C2363 1.349 . S
C2364 C2376 1.349 . S
C2365 C2363 1.327 . S
C2365 C2381 1.429 . S
C2365 H2387 0.950 . S
C2366 H2362 0.949 . S
C2366 C2374 1.574 . S
C2366 C2382 1.368 . S
H2367 C2375 0.950 . S
H2368 C2373 0.950 . S
H2369 C2374 0.949 . S
H2370 C2376 0.950 . S
H2371 C2377 0.950 . S
H2372 C2378 0.949 . S
C2373 H2368 0.950 . S
C2373 C2375 1.327 . S
C2373 C2379 1.429 . S
C2374 C2366 1.574 . S
C2374 H2369 0.949 . S
C2374 C2380 1.368 . S
C2375 C2359 1.349 . S
C2375 H2367 0.950 . S
C2375 C2373 1.327 . S
C2376 C2364 1.349 . S
C2376 H2370 0.950 . S
C2376 C2377 1.327 . S
C2377 H2371 0.950 . S
C2377 C2376 1.327 . S
C2377 C2381 1.429 . S
C2378 C2361 1.574 . S
C2378 H2372 0.949 . S
C2378 C2382 1.368 . S
C2379 C2360 1.429 . S
C2379 C2373 1.429 . S
C2379 C2380 1.523 . S
C2380 C2361 1.368 . S
C2380 C2374 1.368 . S
C2380 C2379 1.523 . S
C2381 C2365 1.429 . S
C2381 C2377 1.429 . S
C2381 C2382 1.523 . S
C2382 C2366 1.368 . S
C2382 C2378 1.368 . S
C2382 C2381 1.523 . S
H2383 C2358 0.950 . S
H2384 C2360 0.950 . S
H2385 C2361 0.949 . S
H2386 C2363 0.950 . S
H2387 C2365 0.950 . S
C2388 C2389 1.349 . S
C2388 C2390 1.327 . S
C2388 H2413 0.950 . S
C2389 C2388 1.349 . S
C2389 C2405 1.349 . S
C2390 C2388 1.327 . S
C2390 C2409 1.429 . S
C2390 H2414 0.950 . S
C2391 C2408 1.574 . S
C2391 C2410 1.368 . S
C2391 H2415 0.949 . S
H2392 C2396 0.949 . S
C2393 C2394 1.349 . S
C2393 C2395 1.327 . S
C2393 H2416 0.950 . S
C2394 C2393 1.349 . S
C2394 C2406 1.349 . S
C2395 C2393 1.327 . S
C2395 C2411 1.429 . S
C2395 H2417 0.950 . S
C2396 H2392 0.949 . S
C2396 C2404 1.574 . S
C2396 C2412 1.368 . S
H2397 C2405 0.950 . S
H2398 C2403 0.950 . S
H2399 C2404 0.949 . S
H2400 C2406 0.950 . S
H2401 C2407 0.950 . S
H2402 C2408 0.949 . S
C2403 H2398 0.950 . S
C2403 C2405 1.327 . S
C2403 C2409 1.429 . S
C2404 C2396 1.574 . S
C2404 H2399 0.949 . S
C2404 C2410 1.368 . S
C2405 C2389 1.349 . S
C2405 H2397 0.950 . S
C2405 C2403 1.327 . S
C2406 C2394 1.349 . S
C2406 H2400 0.950 . S
C2406 C2407 1.327 . S
C2407 H2401 0.950 . S
C2407 C2406 1.327 . S
C2407 C2411 1.429 . S
C2408 C2391 1.574 . S
C2408 H2402 0.949 . S
C2408 C2412 1.368 . S
C2409 C2390 1.429 . S
C2409 C2403 1.429 . S
C2409 C2410 1.523 . S
C2410 C2391 1.368 . S
C2410 C2404 1.368 . S
C2410 C2409 1.523 . S
C2411 C2395 1.429 . S
C2411 C2407 1.429 . S
C2411 C2412 1.523 . S
C2412 C2396 1.368 . S
C2412 C2408 1.368 . S
C2412 C2411 1.523 . S
H2413 C2388 0.950 . S
H2414 C2390 0.950 . S
H2415 C2391 0.949 . S
H2416 C2393 0.950 . S
H2417 C2395 0.950 . S
C2418 C2419 1.349 . S
C2418 C2420 1.327 . S
C2418 H2443 0.950 . S
C2419 C2418 1.349 . S
C2419 C2435 1.349 . S
C2420 C2418 1.327 . S
C2420 C2439 1.429 . S
C2420 H2444 0.950 . S
C2421 C2438 1.574 . S
C2421 C2440 1.368 . S
C2421 H2445 0.949 . S
H2422 C2426 0.949 . S
C2423 C2424 1.349 . S
C2423 C2425 1.327 . S
C2423 H2446 0.950 . S
C2424 C2423 1.349 . S
C2424 C2436 1.349 . S
C2425 C2423 1.327 . S
C2425 C2441 1.429 . S
C2425 H2447 0.950 . S
C2426 H2422 0.949 . S
C2426 C2434 1.574 . S
C2426 C2442 1.368 . S
H2427 C2435 0.950 . S
H2428 C2433 0.950 . S
H2429 C2434 0.949 . S
H2430 C2436 0.950 . S
H2431 C2437 0.950 . S
H2432 C2438 0.949 . S
C2433 H2428 0.950 . S
C2433 C2435 1.327 . S
C2433 C2439 1.429 . S
C2434 C2426 1.574 . S
C2434 H2429 0.949 . S
C2434 C2440 1.368 . S
C2435 C2419 1.349 . S
C2435 H2427 0.950 . S
C2435 C2433 1.327 . S
C2436 C2424 1.349 . S
C2436 H2430 0.950 . S
C2436 C2437 1.327 . S
C2437 H2431 0.950 . S
C2437 C2436 1.327 . S
C2437 C2441 1.429 . S
C2438 C2421 1.574 . S
C2438 H2432 0.949 . S
C2438 C2442 1.368 . S
C2439 C2420 1.429 . S
C2439 C2433 1.429 . S
C2439 C2440 1.523 . S
C2440 C2421 1.368 . S
C2440 C2434 1.368 . S
C2440 C2439 1.523 . S
C2441 C2425 1.429 . S
C2441 C2437 1.429 . S
C2441 C2442 1.523 . S
C2442 C2426 1.368 . S
C2442 C2438 1.368 . S
C2442 C2441 1.523 . S
H2443 C2418 0.950 . S
H2444 C2420 0.950 . S
H2445 C2421 0.949 . S
H2446 C2423 0.950 . S
H2447 C2425 0.950 . S
C2448 C2449 1.349 . S
C2448 C2450 1.327 . S
C2448 H2473 0.950 . S
C2449 C2448 1.349 . S
C2449 C2465 1.349 . S
C2450 C2448 1.327 . S
C2450 C2469 1.429 . S
C2450 H2474 0.950 . S
C2451 C2468 1.574 . S
C2451 C2470 1.368 1_655 S
C2451 H2475 0.949 . S
H2452 C2456 0.949 . S
C2453 C2454 1.349 . S
C2453 C2455 1.327 . S
C2453 H2476 0.950 . S
C2454 C2453 1.349 . S
C2454 C2466 1.349 . S
C2455 C2453 1.327 . S
C2455 C2471 1.429 . S
C2455 H2477 0.950 . S
C2456 H2452 0.949 . S
C2456 C2464 1.574 . S
C2456 C2472 1.368 1_455 S
H2457 C2465 0.950 . S
H2458 C2463 0.950 . S
H2459 C2464 0.949 . S
H2460 C2466 0.950 . S
H2461 C2467 0.950 . S
H2462 C2468 0.949 . S
C2463 H2458 0.950 . S
C2463 C2465 1.327 . S
C2463 C2469 1.429 . S
C2464 C2456 1.574 . S
C2464 H2459 0.949 . S
C2464 C2470 1.368 . S
C2465 C2449 1.349 . S
C2465 H2457 0.950 . S
C2465 C2463 1.327 . S
C2466 C2454 1.349 . S
C2466 H2460 0.950 . S
C2466 C2467 1.327 . S
C2467 H2461 0.950 . S
C2467 C2466 1.327 . S
C2467 C2471 1.429 . S
C2468 C2451 1.574 . S
C2468 H2462 0.949 . S
C2468 C2472 1.368 . S
C2469 C2450 1.429 . S
C2469 C2463 1.429 . S
C2469 C2470 1.523 . S
C2470 C2451 1.368 1_455 S
C2470 C2464 1.368 . S
C2470 C2469 1.523 . S
C2471 C2455 1.429 . S
C2471 C2467 1.429 . S
C2471 C2472 1.523 . S
C2472 C2456 1.368 1_655 S
C2472 C2468 1.368 . S
C2472 C2471 1.523 . S
H2473 C2448 0.950 . S
H2474 C2450 0.950 . S
H2475 C2451 0.949 . S
H2476 C2453 0.950 . S
H2477 C2455 0.950 . S
C2478 C2479 1.349 . S
C2478 C2480 1.327 . S
C2478 H2503 0.950 . S
C2479 C2478 1.349 . S
C2479 C2495 1.349 . S
C2480 C2478 1.327 . S
C2480 C2499 1.429 . S
C2480 H2504 0.950 . S
C2481 C2498 1.574 . S
C2481 C2500 1.368 . S
C2481 H2505 0.949 . S
H2482 C2486 0.949 . S
C2483 C2484 1.349 . S
C2483 C2485 1.327 . S
C2483 H2506 0.950 . S
C2484 C2483 1.349 . S
C2484 C2496 1.349 . S
C2485 C2483 1.327 . S
C2485 C2501 1.429 . S
C2485 H2507 0.950 . S
C2486 H2482 0.949 . S
C2486 C2494 1.574 . S
C2486 C2502 1.368 . S
H2487 C2495 0.950 . S
H2488 C2493 0.950 . S
H2489 C2494 0.949 . S
H2490 C2496 0.950 . S
H2491 C2497 0.950 . S
H2492 C2498 0.949 . S
C2493 H2488 0.950 . S
C2493 C2495 1.327 . S
C2493 C2499 1.429 . S
C2494 C2486 1.574 . S
C2494 H2489 0.949 . S
C2494 C2500 1.368 . S
C2495 C2479 1.349 . S
C2495 H2487 0.950 . S
C2495 C2493 1.327 . S
C2496 C2484 1.349 . S
C2496 H2490 0.950 . S
C2496 C2497 1.327 . S
C2497 H2491 0.950 . S
C2497 C2496 1.327 . S
C2497 C2501 1.429 . S
C2498 C2481 1.574 . S
C2498 H2492 0.949 . S
C2498 C2502 1.368 . S
C2499 C2480 1.429 . S
C2499 C2493 1.429 . S
C2499 C2500 1.523 . S
C2500 C2481 1.368 . S
C2500 C2494 1.368 . S
C2500 C2499 1.523 . S
C2501 C2485 1.429 . S
C2501 C2497 1.429 . S
C2501 C2502 1.523 . S
C2502 C2486 1.368 . S
C2502 C2498 1.368 . S
C2502 C2501 1.523 . S
H2503 C2478 0.950 . S
H2504 C2480 0.950 . S
H2505 C2481 0.949 . S
H2506 C2483 0.950 . S
H2507 C2485 0.950 . S
C2508 C2509 1.349 . S
C2508 C2510 1.327 . S
C2508 H2533 0.950 . S
C2509 C2508 1.349 . S
C2509 C2525 1.349 . S
C2510 C2508 1.327 . S
C2510 C2529 1.429 . S
C2510 H2534 0.950 . S
C2511 C2528 1.574 . S
C2511 C2530 1.368 1_565 S
C2511 H2535 0.949 . S
H2512 C2516 0.949 . S
C2513 C2514 1.349 . S
C2513 C2515 1.327 . S
C2513 H2536 0.950 . S
C2514 C2513 1.349 . S
C2514 C2526 1.349 . S
C2515 C2513 1.327 . S
C2515 C2531 1.429 . S
C2515 H2537 0.950 . S
C2516 H2512 0.949 . S
C2516 C2524 1.574 . S
C2516 C2532 1.368 1_545 S
H2517 C2525 0.950 . S
H2518 C2523 0.950 . S
H2519 C2524 0.949 . S
H2520 C2526 0.950 . S
H2521 C2527 0.950 . S
H2522 C2528 0.949 . S
C2523 H2518 0.950 . S
C2523 C2525 1.327 . S
C2523 C2529 1.429 . S
C2524 C2516 1.574 . S
C2524 H2519 0.949 . S
C2524 C2530 1.368 . S
C2525 C2509 1.349 . S
C2525 H2517 0.950 . S
C2525 C2523 1.327 . S
C2526 C2514 1.349 . S
C2526 H2520 0.950 . S
C2526 C2527 1.327 . S
C2527 H2521 0.950 . S
C2527 C2526 1.327 . S
C2527 C2531 1.429 . S
C2528 C2511 1.574 . S
C2528 H2522 0.949 . S
C2528 C2532 1.368 . S
C2529 C2510 1.429 . S
C2529 C2523 1.429 . S
C2529 C2530 1.523 . S
C2530 C2511 1.368 1_545 S
C2530 C2524 1.368 . S
C2530 C2529 1.523 . S
C2531 C2515 1.429 . S
C2531 C2527 1.429 . S
C2531 C2532 1.523 . S
C2532 C2516 1.368 1_565 S
C2532 C2528 1.368 . S
C2532 C2531 1.523 . S
H2533 C2508 0.950 . S
H2534 C2510 0.950 . S
H2535 C2511 0.949 . S
H2536 C2513 0.950 . S
H2537 C2515 0.950 . S
C2538 C2539 1.349 1_554 S
C2538 C2540 1.327 . S
C2538 H2563 0.950 . S
C2539 C2538 1.349 1_556 S
C2539 C2555 1.349 . S
C2540 C2538 1.327 . S
C2540 C2559 1.429 1_554 S
C2540 H2564 0.950 . S
C2541 C2558 1.574 1_545 S
C2541 C2560 1.368 . S
C2541 H2565 0.949 . S
H2542 C2546 0.949 . S
C2543 C2544 1.349 1_556 S
C2543 C2545 1.327 . S
C2543 H2566 0.950 . S
C2544 C2543 1.349 1_554 S
C2544 C2556 1.349 . S
C2545 C2543 1.327 . S
C2545 C2561 1.429 1_556 S
C2545 H2567 0.950 . S
C2546 H2542 0.949 . S
C2546 C2554 1.574 1_565 S
C2546 C2562 1.368 . S
H2547 C2555 0.950 . S
H2548 C2553 0.950 . S
H2549 C2554 0.949 . S
H2550 C2556 0.950 . S
H2551 C2557 0.950 . S
H2552 C2558 0.949 . S
C2553 H2548 0.950 . S
C2553 C2555 1.327 . S
C2553 C2559 1.429 . S
C2554 C2546 1.574 1_545 S
C2554 H2549 0.949 . S
C2554 C2560 1.368 1_554 S
C2555 C2539 1.349 . S
C2555 H2547 0.950 . S
C2555 C2553 1.327 . S
C2556 C2544 1.349 . S
C2556 H2550 0.950 . S
C2556 C2557 1.327 . S
C2557 H2551 0.950 . S
C2557 C2556 1.327 . S
C2557 C2561 1.429 . S
C2558 C2541 1.574 1_565 S
C2558 H2552 0.949 . S
C2558 C2562 1.368 1_556 S
C2559 C2540 1.429 1_556 S
C2559 C2553 1.429 . S
C2559 C2560 1.523 . S
C2560 C2541 1.368 . S
C2560 C2554 1.368 1_556 S
C2560 C2559 1.523 . S
C2561 C2545 1.429 1_554 S
C2561 C2557 1.429 . S
C2561 C2562 1.523 . S
C2562 C2546 1.368 . S
C2562 C2558 1.368 1_554 S
C2562 C2561 1.523 . S
H2563 C2538 0.950 . S
H2564 C2540 0.950 . S
H2565 C2541 0.949 . S
H2566 C2543 0.950 . S
H2567 C2545 0.950 . S
C2568 C2569 1.349 1_554 S
C2568 C2570 1.327 . S
C2568 H2593 0.950 . S
C2569 C2568 1.349 1_556 S
C2569 C2585 1.349 . S
C2570 C2568 1.327 . S
C2570 C2589 1.429 1_554 S
C2570 H2594 0.950 . S
C2571 C2588 1.574 1_655 S
C2571 C2590 1.368 . S
C2571 H2595 0.949 . S
H2572 C2576 0.949 . S
C2573 C2574 1.349 1_556 S
C2573 C2575 1.327 . S
C2573 H2596 0.950 . S
C2574 C2573 1.349 1_554 S
C2574 C2586 1.349 . S
C2575 C2573 1.327 . S
C2575 C2591 1.429 1_556 S
C2575 H2597 0.950 . S
C2576 H2572 0.949 . S
C2576 C2584 1.574 1_455 S
C2576 C2592 1.368 . S
H2577 C2585 0.950 . S
H2578 C2583 0.950 . S
H2579 C2584 0.949 . S
H2580 C2586 0.950 . S
H2581 C2587 0.950 . S
H2582 C2588 0.949 . S
C2583 H2578 0.950 . S
C2583 C2585 1.327 . S
C2583 C2589 1.429 . S
C2584 C2576 1.574 1_655 S
C2584 H2579 0.949 . S
C2584 C2590 1.368 1_554 S
C2585 C2569 1.349 . S
C2585 H2577 0.950 . S
C2585 C2583 1.327 . S
C2586 C2574 1.349 . S
C2586 H2580 0.950 . S
C2586 C2587 1.327 . S
C2587 H2581 0.950 . S
C2587 C2586 1.327 . S
C2587 C2591 1.429 . S
C2588 C2571 1.574 1_455 S
C2588 H2582 0.949 . S
C2588 C2592 1.368 1_556 S
C2589 C2570 1.429 1_556 S
C2589 C2583 1.429 . S
C2589 C2590 1.523 . S
C2590 C2571 1.368 . S
C2590 C2584 1.368 1_556 S
C2590 C2589 1.523 . S
C2591 C2575 1.429 1_554 S
C2591 C2587 1.429 . S
C2591 C2592 1.523 . S
C2592 C2576 1.368 . S
C2592 C2588 1.368 1_554 S
C2592 C2591 1.523 . S
H2593 C2568 0.950 . S
H2594 C2570 0.950 . S
H2595 C2571 0.949 . S
H2596 C2573 0.950 . S
H2597 C2575 0.950 . S
C2598 C2599 1.349 1_556 S
C2598 C2600 1.327 . S
C2598 H2623 0.950 . S
C2599 C2598 1.349 1_554 S
C2599 C2615 1.349 . S
C2600 C2598 1.327 . S
C2600 C2619 1.429 1_556 S
C2600 H2624 0.950 . S
C2601 C2618 1.574 . S
C2601 C2620 1.368 . S
C2601 H2625 0.949 . S
H2602 C2606 0.949 . S
C2603 C2604 1.349 1_554 S
C2603 C2605 1.327 . S
C2603 H2626 0.950 . S
C2604 C2603 1.349 1_556 S
C2604 C2616 1.349 . S
C2605 C2603 1.327 . S
C2605 C2621 1.429 1_554 S
C2605 H2627 0.950 . S
C2606 H2602 0.949 . S
C2606 C2614 1.574 . S
C2606 C2622 1.368 . S
H2607 C2615 0.950 . S
H2608 C2613 0.950 . S
H2609 C2614 0.949 . S
H2610 C2616 0.950 . S
H2611 C2617 0.950 . S
H2612 C2618 0.949 . S
C2613 H2608 0.950 . S
C2613 C2615 1.327 . S
C2613 C2619 1.429 . S
C2614 C2606 1.574 . S
C2614 H2609 0.949 . S
C2614 C2620 1.368 1_556 S
C2615 C2599 1.349 . S
C2615 H2607 0.950 . S
C2615 C2613 1.327 . S
C2616 C2604 1.349 . S
C2616 H2610 0.950 . S
C2616 C2617 1.327 . S
C2617 H2611 0.950 . S
C2617 C2616 1.327 . S
C2617 C2621 1.429 . S
C2618 C2601 1.574 . S
C2618 H2612 0.949 . S
C2618 C2622 1.368 1_554 S
C2619 C2600 1.429 1_554 S
C2619 C2613 1.429 . S
C2619 C2620 1.523 . S
C2620 C2601 1.368 . S
C2620 C2614 1.368 1_554 S
C2620 C2619 1.523 . S
C2621 C2605 1.429 1_556 S
C2621 C2617 1.429 . S
C2621 C2622 1.523 . S
C2622 C2606 1.368 . S
C2622 C2618 1.368 1_556 S
C2622 C2621 1.523 . S
H2623 C2598 0.950 . S
H2624 C2600 0.950 . S
H2625 C2601 0.949 . S
H2626 C2603 0.950 . S
H2627 C2605 0.950 . S
C469 C3 1.198 . S
C474 C18 1.266 . S
C499 C16 1.198 . S
C504 C29 1.266 . S
C529 C5 1.265 . S
C534 C31 1.197 . S
C559 C44 1.208 . S
C564 C68 1.279 . S
C589 C57 1.208 . S
C594 C42 1.278 . S
C619 C55 1.278 . S
C624 C70 1.208 . S
C649 C83 1.198 . S
C654 C94 1.266 . S
C679 C107 1.266 . S
C684 C96 1.198 . S
C709 C81 1.265 . S
C714 C109 1.197 . S
C739 C146 1.279 . S
C744 C122 1.208 . S
C769 C135 1.208 . S
C774 C120 1.278 . S
C799 C148 1.208 . S
C804 C133 1.278 . S
C829 C174 1.275 . S
C834 C159 1.205 . S
C859 C172 1.205 . S
C864 C187 1.275 . S
C889 C185 1.205 . S
C894 C161 1.274 . S
C919 C200 1.205 . S
C924 C224 1.275 . S
C949 C213 1.205 . S
C954 C198 1.274 . S
C979 C226 1.205 . S
C984 C211 1.274 . S
C1009 C252 1.318 . S
C1014 C239 1.243 . S
C1039 C250 1.243 . S
C1044 C265 1.318 . S
C1069 C237 1.317 . S
C1074 C263 1.243 . S
C1099 C302 1.162 . S
C1104 C276 1.109 . S
C1129 C289 1.109 . S
C1134 C278 1.162 . S
C1159 C291 1.162 . S
C1164 C304 1.109 . S
C1189 C330 1.318 . S
C1194 C315 1.243 . S
C1219 C328 1.243 . S
C1224 C343 1.318 . S
C1249 C341 1.243 . S
C1254 C317 1.317 . S
C1279 C382 1.162 . S
C1284 C354 1.109 . S
C1309 C367 1.109 . S
C1314 C356 1.162 . S
C1339 C369 1.162 . S
C1344 C380 1.109 . S
C1369 C395 1.205 . S
C1374 C408 1.275 . S
C1399 C406 1.205 . S
C1404 C421 1.275 . S
C1429 C419 1.205 . S
C1434 C393 1.274 . S
C1459 C460 1.275 . S
C1464 C432 1.205 . S
C1489 C434 1.274 . S
C1494 C447 1.205 . S
C1519 C458 1.205 . S
C1524 C445 1.274 . S
C1549 C49 1.736 . S
C1554 C4 1.736 . S
C1579 C17 1.736 . S
C1584 C62 1.736 . S
C1609 C75 1.736 . S
C1614 C36 1.736 . S
C1639 C127 1.736 . S
C1644 C88 1.736 . S
C1669 C101 1.736 . S
C1674 C140 1.736 . S
C1699 C153 1.736 . S
C1704 C114 1.736 . S
C1729 C160 1.733 . S
C1734 C205 1.733 . S
C1759 C173 1.733 . S
C1764 C218 1.733 . S
C1789 C186 1.733 . S
C1794 C231 1.733 . S
C1819 C277 1.757 . S
C1824 C244 1.752 . S
C1849 C290 1.757 . S
C1854 C251 1.752 . S
C1879 C264 1.762 . S
C1884 C309 1.747 . S
C1909 C355 1.757 . S
C1914 C316 1.752 . S
C1939 C368 1.757 . S
C1944 C329 1.752 . S
C1969 C342 1.762 . S
C1974 C381 1.747 . S
C1999 C400 1.733 . S
C2004 C433 1.733 . S
C2029 C452 1.733 . S
C2034 C407 1.733 . S
C2059 C420 1.733 . S
C2064 C459 1.733 . S
C2089 C10 1.750 . S
C2094 C238 1.745 . S
C2119 C23 1.750 . S
C2124 C257 1.745 . S
C2149 C30 1.749 . S
C2154 C270 1.744 . S
C2179 C439 1.734 . S
C2184 C43 1.733 . S
C2209 C446 1.733 . S
C2214 C56 1.732 . S
C2239 C69 1.733 . S
C2244 C465 1.734 . S
C2269 C82 1.750 . S
C2274 C322 1.745 . S
C2299 C335 1.745 . S
C2304 C95 1.750 . S
C2329 C348 1.744 . S
C2334 C108 1.749 . S
C2359 C199 1.734 . S
C2364 C121 1.733 . S
C2389 C212 1.733 . S
C2394 C134 1.732 . S
C2419 C225 1.734 . S
C2424 C147 1.733 . S
C2449 C394 1.727 . S
C2454 C166 1.727 . S
C2479 C179 1.727 . S
C2484 C413 1.727 . S
C2509 C192 1.726 . S
C2514 C426 1.726 . S
C2539 C283 1.603 . S
C2544 C361 1.605 . S
C2569 C296 1.603 . S
C2574 C374 1.604 . S
C2599 C387 1.603 . S
C2604 C303 1.604 . S
