# Generated by pormake.
# Topology mmt, (4)-cn, num edge types: 1
# Building blocks:
#     Node 0, Type 0, BuildingBlock: GALJAG_clean_sbu_0, # of connection points: 4
#     Node 1, Type 0, BuildingBlock: GALJAG_clean_sbu_0, # of connection points: 4
#     Node 2, Type 0, BuildingBlock: GALJAG_clean_sbu_0, # of connection points: 4
#     Node 3, Type 0, BuildingBlock: GALJAG_clean_sbu_0, # of connection points: 4
#     Node 4, Type 0, BuildingBlock: GALJAG_clean_sbu_0, # of connection points: 4
#     Node 5, Type 0, BuildingBlock: GALJAG_clean_sbu_0, # of connection points: 4
#     Node 6, Type 0, BuildingBlock: GALJAG_clean_sbu_0, # of connection points: 4
#     Node 7, Type 0, BuildingBlock: GALJAG_clean_sbu_0, # of connection points: 4
#     Edge 8, Type (0, 0), BuildingBlock: TEMPAE_clean_linker_10, # of connection points: 2
#     Edge 9, Type (0, 0), BuildingBlock: TEMPAE_clean_linker_10, # of connection points: 2
#     Edge 10, Type (0, 0), BuildingBlock: TEMPAE_clean_linker_10, # of connection points: 2
#     Edge 11, Type (0, 0), BuildingBlock: TEMPAE_clean_linker_10, # of connection points: 2
#     Edge 12, Type (0, 0), BuildingBlock: TEMPAE_clean_linker_10, # of connection points: 2
#     Edge 13, Type (0, 0), BuildingBlock: TEMPAE_clean_linker_10, # of connection points: 2
#     Edge 14, Type (0, 0), BuildingBlock: TEMPAE_clean_linker_10, # of connection points: 2
#     Edge 15, Type (0, 0), BuildingBlock: TEMPAE_clean_linker_10, # of connection points: 2
#     Edge 16, Type (0, 0), BuildingBlock: TEMPAE_clean_linker_10, # of connection points: 2
#     Edge 17, Type (0, 0), BuildingBlock: TEMPAE_clean_linker_10, # of connection points: 2
#     Edge 18, Type (0, 0), BuildingBlock: TEMPAE_clean_linker_10, # of connection points: 2
#     Edge 19, Type (0, 0), BuildingBlock: TEMPAE_clean_linker_10, # of connection points: 2
#     Edge 20, Type (0, 0), BuildingBlock: TEMPAE_clean_linker_10, # of connection points: 2
#     Edge 21, Type (0, 0), BuildingBlock: TEMPAE_clean_linker_10, # of connection points: 2
#     Edge 22, Type (0, 0), BuildingBlock: TEMPAE_clean_linker_10, # of connection points: 2
#     Edge 23, Type (0, 0), BuildingBlock: TEMPAE_clean_linker_10, # of connection points: 2
# Relax obj value: 0.016
# Max RMSD: 0.061
# Mean RMSD: 0.061
data_MOF--net-mmt--node1-GALJAG_clean_sbu_0--edge1-TEMPAE_clean_linker_10
_symmetry_space_group_name_H-M    P1
_symmetry_Int_Tables_number       1
_symmetry_cell_setting            triclinic
loop_
_symmetry_equiv_pos_as_xyz
'x, y, z'
_cell_length_a     25.247306
_cell_length_b     37.378847
_cell_length_c     41.589146
_cell_angle_alpha  90.011766
_cell_angle_beta   90.012118
_cell_angle_gamma 89.998069
loop_
_atom_site_label
_atom_site_type_symbol
_atom_site_fract_x
_atom_site_fract_y
_atom_site_fract_z
_atom_type_partial_charge
In0 In 0.12106 0.56229 0.34162 0.0
O1 O 0.19051 0.52278 0.34253 0.0
O2 O 0.17589 0.55195 0.29959 0.0
C3 C 0.08366 0.53679 0.39818 0.0
C4 C 0.16232 0.62857 0.34663 0.0
C5 C 0.03563 0.5555 0.30322 0.0
O6 O 0.08681 0.51787 0.3732 0.0
O7 O 0.10021 0.56835 0.39487 0.0
O8 O 0.03987 0.58069 0.3233 0.0
O9 O 0.07441 0.53429 0.30253 0.0
C10 C 0.20414 0.52914 0.31387 0.0
O11 O 0.12142 0.622 0.33015 0.0
O12 O 0.18169 0.60183 0.36093 0.0
In13 In 0.37985 0.93635 0.33285 0.0
O14 O 0.31901 0.98161 0.3299 0.0
O15 O 0.31944 0.94257 0.29276 0.0
C16 C 0.42024 0.95437 0.3908 0.0
C17 C 0.34014 0.86969 0.34033 0.0
C18 C 0.46229 0.95251 0.29438 0.0
O19 O 0.37417 0.96328 0.38217 0.0
O20 O 0.44547 0.93617 0.37041 0.0
O21 O 0.45421 0.92129 0.30486 0.0
O22 O 0.42851 0.97544 0.30309 0.0
C23 C 0.29861 0.97056 0.30401 0.0
O24 O 0.37163 0.8778 0.31797 0.0
O25 O 0.3294 0.89503 0.35923 0.0
In26 In 0.62167 0.44388 0.16359 0.0
O27 O 0.62642 0.38493 0.17756 0.0
O28 O 0.68156 0.40454 0.14314 0.0
C29 C 0.53544 0.45179 0.20121 0.0
C30 C 0.70451 0.47758 0.19101 0.0
C31 C 0.58408 0.46714 0.10635 0.0
O32 O 0.54088 0.4254 0.18255 0.0
O33 O 0.57336 0.47368 0.20085 0.0
O34 O 0.59206 0.48782 0.12979 0.0
O35 O 0.59576 0.43491 0.11159 0.0
C36 C 0.66537 0.37826 0.15945 0.0
O37 O 0.69128 0.4832 0.16215 0.0
O38 O 0.67595 0.45526 0.20567 0.0
In39 In 0.88083 0.06928 0.16062 0.0
O40 O 0.80792 0.03307 0.15718 0.0
O41 O 0.82607 0.05659 0.20237 0.0
C42 C 0.91642 0.04247 0.10429 0.0
C43 C 0.84224 0.13652 0.15693 0.0
C44 C 0.96821 0.06032 0.19708 0.0
O45 O 0.90926 0.02328 0.12883 0.0
O46 O 0.90488 0.07501 0.10799 0.0
O47 O 0.9655 0.08391 0.17541 0.0
O48 O 0.92675 0.04193 0.20056 0.0
C49 C 0.79532 0.03687 0.18635 0.0
O50 O 0.87936 0.12813 0.17582 0.0
O51 O 0.82551 0.11123 0.13965 0.0
In52 In 0.87703 0.43106 0.6619 0.0
O53 O 0.86684 0.37379 0.68025 0.0
O54 O 0.82936 0.3877 0.63638 0.0
C55 C 0.96213 0.44806 0.6979 0.0
C56 C 0.79212 0.46254 0.68933 0.0
C57 C 0.9174 0.45154 0.6047 0.0
O58 O 0.95338 0.41662 0.68813 0.0
O59 O 0.9276 0.47079 0.68982 0.0
O60 O 0.87985 0.46806 0.61815 0.0
O61 O 0.93393 0.42456 0.61987 0.0
C62 C 0.83765 0.36397 0.65728 0.0
O63 O 0.7999 0.46293 0.65935 0.0
O64 O 0.82759 0.44688 0.70539 0.0
In65 In 0.61516 0.05737 0.65882 0.0
O66 O 0.69031 0.0233 0.65793 0.0
O67 O 0.66532 0.04498 0.70271 0.0
C68 C 0.57965 0.03425 0.60106 0.0
C69 C 0.65744 0.12343 0.65496 0.0
C70 C 0.52794 0.04595 0.69486 0.0
O71 O 0.59498 0.01316 0.6228 0.0
O72 O 0.583 0.06691 0.60825 0.0
O73 O 0.5351 0.07471 0.67953 0.0
O74 O 0.56481 0.02342 0.69213 0.0
C75 C 0.6992 0.02667 0.68767 0.0
O76 O 0.61808 0.1165 0.67265 0.0
O77 O 0.67457 0.09724 0.6389 0.0
In78 In 0.37726 0.56175 0.83922 0.0
O79 O 0.30595 0.52408 0.8387 0.0
O80 O 0.32485 0.55174 0.79558 0.0
C81 C 0.41847 0.54419 0.89703 0.0
C82 C 0.33756 0.62842 0.84655 0.0
C83 C 0.46013 0.54322 0.80192 0.0
O84 O 0.37766 0.52923 0.8858 0.0
O85 O 0.438 0.56813 0.87931 0.0
O86 O 0.44901 0.57536 0.80838 0.0
O87 O 0.42905 0.52043 0.81402 0.0
C88 C 0.29424 0.53021 0.80971 0.0
O89 O 0.37296 0.62108 0.82622 0.0
O90 O 0.32288 0.6023 0.86349 0.0
In91 In 0.11609 0.93499 0.8393 0.0
O92 O 0.18484 0.97475 0.8376 0.0
O93 O 0.16786 0.94476 0.79544 0.0
C94 C 0.07687 0.9541 0.89721 0.0
C95 C 0.15769 0.86875 0.8462 0.0
C96 C 0.03117 0.95109 0.80283 0.0
O97 O 0.11788 0.96823 0.88542 0.0
O98 O 0.05617 0.9301 0.88002 0.0
O99 O 0.04133 0.91963 0.81195 0.0
O100 O 0.06405 0.97441 0.81199 0.0
C101 C 0.19687 0.96786 0.8088 0.0
O102 O 0.12426 0.87637 0.82476 0.0
O103 O 0.16951 0.89438 0.86453 0.0
C104 C 0.26254 0.52082 0.26628 0.0
C105 C 0.25045 0.51238 0.29828 0.0
C106 C 0.30809 0.50724 0.25146 0.0
C107 C 0.34242 0.48463 0.26908 0.0
C108 C 0.32955 0.47499 0.30107 0.0
C109 C 0.2836 0.48905 0.31535 0.0
C110 C 0.32042 0.51816 0.21729 0.0
C111 C 0.36518 0.45084 0.32051 0.0
C112 C 0.44398 0.43479 0.2188 0.0
C113 C 0.48761 0.45787 0.22089 0.0
C114 C 0.39692 0.44227 0.23552 0.0
C115 C 0.39364 0.47356 0.25462 0.0
C116 C 0.43832 0.49614 0.25777 0.0
C117 C 0.48475 0.48801 0.24088 0.0
C118 C 0.35011 0.41751 0.23174 0.0
C119 C 0.43642 0.52977 0.27791 0.0
H120 H 0.23688 0.53869 0.25291 0.0
H121 H 0.27426 0.48236 0.34007 0.0
H122 H 0.35729 0.53431 0.21683 0.0
H123 H 0.32734 0.49414 0.2022 0.0
H124 H 0.28804 0.53416 0.20632 0.0
H125 H 0.34723 0.44334 0.34395 0.0
H126 H 0.37419 0.42607 0.30686 0.0
H127 H 0.40339 0.46455 0.32518 0.0
H128 H 0.44613 0.41138 0.20346 0.0
H129 H 0.51849 0.50583 0.24274 0.0
H130 H 0.31829 0.43132 0.21816 0.0
H131 H 0.33367 0.41033 0.25562 0.0
H132 H 0.36069 0.39254 0.21875 0.0
H133 H 0.40789 0.54895 0.2672 0.0
H134 H 0.47568 0.54305 0.27966 0.0
H135 H 0.42233 0.52354 0.30254 0.0
C136 C 0.0164 0.02703 0.23994 0.0
C137 C 0.01701 0.05286 0.21551 0.0
C138 C 0.06316 0.01685 0.25562 0.0
C139 C 0.11175 0.03281 0.24656 0.0
C140 C 0.11235 0.05995 0.22281 0.0
C141 C 0.06485 0.06971 0.20756 0.0
C142 C 0.06082 0.98794 0.28095 0.0
C143 C 0.16342 0.07758 0.21257 0.0
C144 C 0.22835 0.01782 0.30279 0.0
C145 C 0.25293 0.9882 0.28846 0.0
C146 C 0.1831 0.03338 0.28897 0.0
C147 C 0.16215 0.01892 0.26018 0.0
C148 C 0.18772 0.98963 0.24519 0.0
C149 C 0.23276 0.97462 0.25953 0.0
C150 C 0.15688 0.0646 0.3056 0.0
C151 C 0.16666 0.97349 0.21443 0.0
H152 H 0.97945 0.01406 0.24631 0.0
H153 H 0.06547 0.08973 0.18871 0.0
H154 H 0.08219 0.96384 0.27231 0.0
H155 H 0.08079 0.99701 0.30327 0.0
H156 H 0.0195 0.98017 0.28691 0.0
H157 H 0.15657 0.10041 0.19598 0.0
H158 H 0.18556 0.08733 0.23388 0.0
H159 H 0.18894 0.0577 0.20022 0.0
H160 H 0.24389 0.02845 0.32514 0.0
H161 H 0.25174 0.95181 0.24827 0.0
H162 H 0.11691 0.05663 0.31404 0.0
H163 H 0.15156 0.08711 0.28852 0.0
H164 H 0.18011 0.07422 0.32658 0.0
H165 H 0.12669 0.9621 0.21871 0.0
H166 H 0.19271 0.95196 0.20499 0.0
H167 H 0.16252 0.99445 0.19572 0.0
C168 C 0.76355 0.48601 0.23829 0.0
C169 C 0.75082 0.49457 0.20641 0.0
C170 C 0.80917 0.49977 0.2529 0.0
C171 C 0.84283 0.52276 0.23521 0.0
C172 C 0.82927 0.53255 0.20337 0.0
C173 C 0.78334 0.51823 0.18927 0.0
C174 C 0.82232 0.48861 0.2869 0.0
C175 C 0.8641 0.55719 0.1839 0.0
C176 C 0.94408 0.57249 0.28579 0.0
C177 C 0.988 0.54971 0.28328 0.0
C178 C 0.89707 0.56506 0.26898 0.0
C179 C 0.8941 0.53409 0.24945 0.0
C180 C 0.9391 0.51189 0.24584 0.0
C181 C 0.98553 0.52002 0.26275 0.0
C182 C 0.84997 0.58949 0.27317 0.0
C183 C 0.9375 0.47855 0.2253 0.0
H184 H 0.73841 0.46786 0.25171 0.0
H185 H 0.77348 0.52503 0.16465 0.0
H186 H 0.85957 0.47285 0.28701 0.0
H187 H 0.82892 0.51253 0.30217 0.0
H188 H 0.7905 0.47215 0.29792 0.0
H189 H 0.84554 0.56482 0.16067 0.0
H190 H 0.873 0.58186 0.19772 0.0
H191 H 0.90242 0.54381 0.17881 0.0
H192 H 0.94594 0.59558 0.30152 0.0
H193 H 0.01948 0.50243 0.26058 0.0
H194 H 0.81863 0.57541 0.28692 0.0
H195 H 0.83296 0.59668 0.24944 0.0
H196 H 0.86045 0.61446 0.28619 0.0
H197 H 0.90952 0.45897 0.23596 0.0
H198 H 0.97698 0.46564 0.22316 0.0
H199 H 0.92288 0.48501 0.20083 0.0
C200 C 0.70943 0.004 0.18113 0.0
C201 C 0.74736 0.02077 0.20059 0.0
C202 C 0.66222 0.99065 0.19436 0.0
C203 C 0.65314 0.99399 0.22782 0.0
C204 C 0.692 0.01004 0.24766 0.0
C205 C 0.73855 0.02337 0.23378 0.0
C206 C 0.62152 0.97384 0.17247 0.0
C207 C 0.68396 0.01382 0.2835 0.0
C208 C 0.51398 0.9964 0.26191 0.0
C209 C 0.50917 0.96199 0.27495 0.0
C210 C 0.55993 0.00671 0.24541 0.0
C211 C 0.6022 0.98208 0.24214 0.0
C212 C 0.59694 0.94695 0.25443 0.0
C213 C 0.55031 0.93726 0.27061 0.0
C214 C 0.5639 0.04432 0.23237 0.0
C215 C 0.64129 0.92005 0.25156 0.0
H216 H 0.7161 0.00199 0.15544 0.0
H217 H 0.76789 0.03617 0.24894 0.0
H218 H 0.61114 0.94668 0.18117 0.0
H219 H 0.58466 0.99 0.17281 0.0
H220 H 0.63566 0.97178 0.14725 0.0
H221 H 0.71912 0.02543 0.29572 0.0
H222 H 0.64933 0.03129 0.28829 0.0
H223 H 0.67535 0.98733 0.29434 0.0
H224 H 0.48212 0.01553 0.26505 0.0
H225 H 0.54673 0.91062 0.28066 0.0
H226 H 0.57517 0.04374 0.20659 0.0
H227 H 0.59537 0.05913 0.2454 0.0
H228 H 0.52613 0.05932 0.23487 0.0
H229 H 0.65421 0.91765 0.22616 0.0
H230 H 0.62957 0.89315 0.26041 0.0
H231 H 0.67598 0.92933 0.26567 0.0
C232 C 0.5164 0.49702 0.7752 0.0
C233 C 0.5071 0.533 0.78282 0.0
C234 C 0.56219 0.48669 0.7585 0.0
C235 C 0.59969 0.51298 0.74941 0.0
C236 C 0.59002 0.54944 0.75649 0.0
C237 C 0.5437 0.55903 0.77305 0.0
C238 C 0.57095 0.44756 0.75116 0.0
C239 C 0.6292 0.57819 0.7473 0.0
C240 C 0.74071 0.48034 0.73796 0.0
C241 C 0.74409 0.47761 0.70442 0.0
C242 C 0.69432 0.49264 0.75285 0.0
C243 C 0.65007 0.50204 0.73372 0.0
C244 C 0.65352 0.49989 0.6998 0.0
C245 C 0.70068 0.48787 0.68552 0.0
C246 C 0.69236 0.49496 0.78909 0.0
C247 C 0.60701 0.50942 0.67865 0.0
H248 H 0.48812 0.47681 0.7826 0.0
H249 H 0.53668 0.5869 0.77889 0.0
H250 H 0.57802 0.44381 0.72505 0.0
H251 H 0.60674 0.43789 0.76396 0.0
H252 H 0.53673 0.43072 0.75843 0.0
H253 H 0.61474 0.60543 0.75336 0.0
H254 H 0.66727 0.57359 0.75998 0.0
H255 H 0.63751 0.57704 0.72113 0.0
H256 H 0.77427 0.47257 0.75266 0.0
H257 H 0.70309 0.48567 0.65957 0.0
H258 H 0.66185 0.47634 0.79849 0.0
H259 H 0.68084 0.52235 0.79664 0.0
H260 H 0.73097 0.48822 0.80039 0.0
H261 H 0.57338 0.4912 0.68383 0.0
H262 H 0.61674 0.50751 0.65266 0.0
H263 H 0.59343 0.53703 0.68393 0.0
C264 C 0.78825 0.99752 0.68528 0.0
C265 C 0.74679 0.01199 0.70353 0.0
C266 C 0.83516 0.98584 0.70007 0.0
C267 C 0.84036 0.98847 0.73389 0.0
C268 C 0.79799 0.00214 0.75248 0.0
C269 C 0.75179 0.01388 0.73705 0.0
C270 C 0.87964 0.97157 0.67948 0.0
C271 C 0.80186 0.00505 0.78863 0.0
C272 C 0.94476 0.93415 0.77785 0.0
C273 C 0.98366 0.9601 0.78377 0.0
C274 C 0.89822 0.94282 0.76112 0.0
C275 C 0.89073 0.97819 0.74987 0.0
C276 C 0.93049 0.00427 0.75511 0.0
C277 C 0.97642 0.99493 0.77213 0.0
C278 C 0.85654 0.91438 0.75616 0.0
C279 C 0.92406 0.04222 0.74327 0.0
H280 H 0.78455 0.99609 0.65934 0.0
H281 H 0.71974 0.02492 0.75127 0.0
H282 H 0.91482 0.98918 0.6818 0.0
H283 H 0.89153 0.94456 0.68783 0.0
H284 H 0.86852 0.96992 0.65367 0.0
H285 H 0.76443 0.01469 0.79968 0.0
H286 H 0.81191 0.97864 0.79917 0.0
H287 H 0.83414 0.02382 0.79521 0.0
H288 H 0.9502 0.90718 0.78684 0.0
H289 H 0.00651 0.01503 0.77653 0.0
H290 H 0.84683 0.91192 0.73024 0.0
H291 H 0.81959 0.92215 0.7688 0.0
H292 H 0.86939 0.8878 0.76523 0.0
H293 H 0.91587 0.04233 0.71706 0.0
H294 H 0.95978 0.05879 0.74791 0.0
H295 H 0.88969 0.05492 0.75534 0.0
C296 C 0.20864 0.49667 0.81196 0.0
C297 C 0.24706 0.5148 0.79389 0.0
C298 C 0.162 0.48402 0.7975 0.0
C299 C 0.15398 0.48934 0.76414 0.0
C300 C 0.19334 0.50677 0.74565 0.0
C301 C 0.23929 0.51947 0.76079 0.0
C302 C 0.12071 0.4658 0.81803 0.0
C303 C 0.1865 0.5126 0.70995 0.0
C304 C 0.05202 0.43352 0.71942 0.0
C305 C 0.01004 0.45784 0.71632 0.0
C306 C 0.09894 0.44322 0.7353 0.0
C307 C 0.10363 0.47791 0.74869 0.0
C308 C 0.06081 0.50223 0.74632 0.0
C309 C 0.01463 0.49197 0.72999 0.0
C310 C 0.14395 0.41669 0.73709 0.0
C311 C 0.06411 0.53933 0.76059 0.0
H312 H 0.21444 0.49309 0.83759 0.0
H313 H 0.269 0.53335 0.7467 0.0
H314 H 0.08355 0.48166 0.81775 0.0
H315 H 0.11126 0.43902 0.80809 0.0
H316 H 0.13382 0.46261 0.84337 0.0
H317 H 0.22197 0.52501 0.69876 0.0
H318 H 0.17845 0.48675 0.69777 0.0
H319 H 0.15189 0.53022 0.70554 0.0
H320 H 0.04868 0.40713 0.7088 0.0
H321 H 0.98217 0.51079 0.72777 0.0
H322 H 0.15589 0.41247 0.76248 0.0
H323 H 0.17894 0.42746 0.72417 0.0
H324 H 0.13334 0.39041 0.7264 0.0
H325 H 0.07431 0.53768 0.7865 0.0
H326 H 0.02639 0.55437 0.75803 0.0
H327 H 0.09606 0.5547 0.74858 0.0
C328 C 0.25204 0.97695 0.75976 0.0
C329 C 0.24273 0.9842 0.79234 0.0
C330 C 0.29735 0.99005 0.74425 0.0
C331 C 0.33439 0.01071 0.76182 0.0
C332 C 0.3244 0.01905 0.79447 0.0
C333 C 0.27853 0.00574 0.80935 0.0
C334 C 0.30644 0.98076 0.70934 0.0
C335 C 0.36307 0.04092 0.81397 0.0
C336 C 0.47551 0.00646 0.7311 0.0
C337 C 0.47954 0.03841 0.71363 0.0
C338 C 0.42894 0.99765 0.74761 0.0
C339 C 0.38521 0.02132 0.74652 0.0
C340 C 0.38942 0.05405 0.72957 0.0
C341 C 0.43668 0.06225 0.71333 0.0
C342 C 0.42609 0.96256 0.76555 0.0
C343 C 0.34357 0.0799 0.72788 0.0
H344 H 0.22431 0.96047 0.74646 0.0
H345 H 0.27144 0.01144 0.83454 0.0
H346 H 0.31419 0.00537 0.6952 0.0
H347 H 0.34194 0.96343 0.70713 0.0
H348 H 0.27212 0.96655 0.69855 0.0
H349 H 0.34762 0.0473 0.83832 0.0
H350 H 0.40076 0.02594 0.81665 0.0
H351 H 0.37241 0.06631 0.80139 0.0
H352 H 0.50863 0.988 0.73153 0.0
H353 H 0.43966 0.087 0.69987 0.0
H354 H 0.39549 0.94516 0.7545 0.0
H355 H 0.41422 0.96726 0.79088 0.0
H356 H 0.46446 0.94801 0.76537 0.0
H357 H 0.30997 0.06727 0.71496 0.0
H358 H 0.35425 0.10512 0.71532 0.0
H359 H 0.32951 0.08653 0.75244 0.0
C360 C 0.06767 0.5426 0.45719 0.0
C361 C 0.06059 0.52348 0.42852 0.0
C362 C 0.04488 0.5307 0.48604 0.0
C363 C 0.01347 0.49931 0.48603 0.0
C364 C 0.00608 0.47997 0.4571 0.0
C365 C 0.03017 0.49212 0.42873 0.0
C366 C 0.05443 0.55168 0.51653 0.0
C367 C 0.97218 0.4467 0.45605 0.0
C368 C 0.99098 0.45022 0.56474 0.0
C369 C 0.94129 0.46332 0.57409 0.0
C370 C 0.01509 0.46188 0.53623 0.0
C371 C 0.98835 0.48671 0.51631 0.0
C372 C 0.93779 0.49964 0.5254 0.0
C373 C 0.91506 0.48804 0.55439 0.0
C374 C 0.06943 0.44796 0.52761 0.0
C375 C 0.90769 0.52566 0.50449 0.0
H376 H 0.09132 0.56681 0.4571 0.0
H377 H 0.02433 0.47741 0.40654 0.0
H378 H 0.01623 0.56152 0.5263 0.0
H379 H 0.07236 0.5341 0.53507 0.0
H380 H 0.08098 0.57497 0.51261 0.0
H381 H 0.96987 0.435 0.43152 0.0
H382 H 0.98835 0.4262 0.47264 0.0
H383 H 0.93147 0.45306 0.4643 0.0
H384 H 0.01152 0.43127 0.58004 0.0
H385 H 0.87654 0.4981 0.56152 0.0
H386 H 0.09753 0.47063 0.52519 0.0
H387 H 0.06806 0.43409 0.50405 0.0
H388 H 0.08512 0.42908 0.54591 0.0
H389 H 0.93069 0.55076 0.50175 0.0
H390 H 0.86816 0.53235 0.51456 0.0
H391 H 0.90224 0.51422 0.48009 0.0
C392 C 0.49809 0.96147 0.42714 0.0
C393 C 0.44348 0.96502 0.42195 0.0
C394 C 0.52121 0.97236 0.45621 0.0
C395 C 0.48875 0.98656 0.48084 0.0
C396 C 0.43343 0.9897 0.47591 0.0
C397 C 0.41149 0.97915 0.44637 0.0
C398 C 0.58043 0.9691 0.4604 0.0
C399 C 0.39747 0.00424 0.50181 0.0
C400 C 0.54255 0.98601 0.56615 0.0
C401 C 0.55783 0.02179 0.57009 0.0
C402 C 0.51968 0.97419 0.53728 0.0
C403 C 0.51282 0.99864 0.51161 0.0
C404 C 0.52898 0.03468 0.51531 0.0
C405 C 0.55089 0.04589 0.54463 0.0
C406 C 0.50226 0.93568 0.53436 0.0
C407 C 0.5231 0.06139 0.4883 0.0
H408 H 0.523 0.95072 0.40824 0.0
H409 H 0.36921 0.98178 0.44245 0.0
H410 H 0.59779 0.99584 0.46524 0.0
H411 H 0.58955 0.95194 0.48144 0.0
H412 H 0.60007 0.95756 0.43887 0.0
H413 H 0.35513 0.00386 0.49453 0.0
H414 H 0.40201 0.98829 0.52413 0.0
H415 H 0.40876 0.03218 0.50764 0.0
H416 H 0.54758 0.96736 0.58588 0.0
H417 H 0.56284 0.07356 0.54757 0.0
H418 H 0.52332 0.92257 0.51414 0.0
H419 H 0.45927 0.93448 0.52891 0.0
H420 H 0.50993 0.92016 0.55667 0.0
H421 H 0.54431 0.05169 0.46662 0.0
H422 H 0.53883 0.08819 0.49481 0.0
H423 H 0.48072 0.06422 0.48173 0.0
C424 C 0.56326 0.45735 0.04836 0.0
C425 C 0.56124 0.4794 0.07558 0.0
C426 C 0.5406 0.46826 0.01915 0.0
C427 C 0.51447 0.50171 0.01736 0.0
C428 C 0.51225 0.52407 0.04482 0.0
C429 C 0.53612 0.51276 0.07356 0.0
C430 C 0.54459 0.44397 0.99023 0.0
C431 C 0.48405 0.55968 0.04395 0.0
C432 C 0.49442 0.54426 0.93537 0.0
C433 C 0.4424 0.53395 0.92808 0.0
C434 C 0.51844 0.53386 0.96432 0.0
C435 C 0.48934 0.51325 0.98674 0.0
C436 C 0.43646 0.50327 0.97972 0.0
C437 C 0.41378 0.51345 0.95029 0.0
C438 C 0.57519 0.5445 0.9707 0.0
C439 C 0.4039 0.48181 0.00328 0.0
H440 H 0.58283 0.43159 0.04984 0.0
H441 H 0.53421 0.52977 0.09464 0.0
H442 H 0.50439 0.43615 0.98207 0.0
H443 H 0.56382 0.45835 0.97002 0.0
H444 H 0.5676 0.41929 0.99539 0.0
H445 H 0.48551 0.57373 0.06748 0.0
H446 H 0.50213 0.57718 0.02543 0.0
H447 H 0.44196 0.55569 0.03714 0.0
H448 H 0.51676 0.55994 0.91815 0.0
H449 H 0.37346 0.50558 0.94476 0.0
H450 H 0.59979 0.52022 0.97426 0.0
H451 H 0.57767 0.56047 0.99313 0.0
H452 H 0.59238 0.56042 0.95071 0.0
H453 H 0.42284 0.45545 0.00752 0.0
H454 H 0.3628 0.47728 0.99465 0.0
H455 H 0.40221 0.49584 0.02678 0.0
C456 C 0.08283 0.98718 0.94928 0.0
C457 C 0.05382 0.96548 0.92819 0.0
C458 C 0.06077 0.99883 0.97843 0.0
C459 C 0.00818 0.98903 0.98634 0.0
C460 C 0.97878 0.96705 0.96514 0.0
C461 C 0.00214 0.95529 0.93641 0.0
C462 C 0.09363 0.02179 0.00069 0.0
C463 C 0.92234 0.95648 0.97252 0.0
C464 C 0.96361 0.99489 0.07341 0.0
C465 C 0.93832 0.02826 0.07396 0.0
C466 C 0.98673 0.98181 0.04506 0.0
C467 C 0.98358 0.00234 0.01652 0.0
C468 C 0.9572 0.03577 0.01684 0.0
C469 C 0.9353 0.04849 0.04566 0.0
C470 C 0.01522 0.94629 0.04575 0.0
C471 C 0.95225 0.05815 0.98675 0.0
H472 H 0.12288 0.99498 0.94303 0.0
H473 H 0.97949 0.93865 0.92007 0.0
H474 H 0.07462 0.04833 0.00372 0.0
H475 H 0.09581 0.00925 0.02484 0.0
H476 H 0.13455 0.02586 0.99159 0.0
H477 H 0.905 0.93912 0.95356 0.0
H478 H 0.92055 0.94205 0.99579 0.0
H479 H 0.89744 0.9808 0.97493 0.0
H480 H 0.96628 0.97929 0.09532 0.0
H481 H 0.91559 0.07425 0.046 0.0
H482 H 0.05716 0.95002 0.03852 0.0
H483 H 0.99701 0.92763 0.02821 0.0
H484 H 0.01426 0.93368 0.06993 0.0
H485 H 0.99216 0.06566 0.97789 0.0
H486 H 0.92903 0.08299 0.99083 0.0
H487 H 0.93276 0.0424 0.96747 0.0
C488 C 0.16505 0.69307 0.33092 0.0
C489 C 0.18705 0.66436 0.348 0.0
C490 C 0.18971 0.72671 0.33073 0.0
C491 C 0.23749 0.73169 0.34801 0.0
C492 C 0.25938 0.70295 0.36574 0.0
C493 C 0.23386 0.66961 0.36553 0.0
C494 C 0.16513 0.75677 0.3116 0.0
C495 C 0.31023 0.70726 0.38447 0.0
C496 C 0.3278 0.80704 0.32088 0.0
C497 C 0.31577 0.8339 0.34324 0.0
C498 C 0.30299 0.7735 0.32238 0.0
C499 C 0.26527 0.76672 0.34682 0.0
C500 C 0.25355 0.79356 0.36975 0.0
C501 C 0.27898 0.82687 0.36769 0.0
C502 C 0.31661 0.74548 0.29755 0.0
C503 C 0.21361 0.78727 0.39617 0.0
H504 H 0.12886 0.68913 0.31735 0.0
H505 H 0.25103 0.6475 0.37878 0.0
H506 H 0.15794 0.78021 0.32738 0.0
H507 H 0.1928 0.76548 0.29242 0.0
H508 H 0.12704 0.74883 0.30028 0.0
H509 H 0.32112 0.6826 0.39784 0.0
H510 H 0.34306 0.71412 0.36785 0.0
H511 H 0.30646 0.72962 0.40186 0.0
H512 H 0.35621 0.81235 0.30194 0.0
H513 H 0.26954 0.84756 0.38502 0.0
H514 H 0.2807 0.73831 0.28359 0.0
H515 H 0.33071 0.72075 0.30957 0.0
H516 H 0.34767 0.75472 0.28055 0.0
H517 H 0.17418 0.78163 0.38554 0.0
H518 H 0.20995 0.8106 0.41257 0.0
H519 H 0.22506 0.76349 0.41054 0.0
C520 C 0.77611 0.17979 0.13513 0.0
C521 C 0.81847 0.17263 0.15598 0.0
C522 C 0.75132 0.21337 0.13491 0.0
C523 C 0.76936 0.24041 0.15606 0.0
C524 C 0.8126 0.23352 0.17685 0.0
C525 C 0.83667 0.19966 0.17656 0.0
C526 C 0.70539 0.21974 0.11236 0.0
C527 C 0.83296 0.26176 0.19969 0.0
C528 C 0.73403 0.33693 0.13736 0.0
C529 C 0.69114 0.34279 0.15812 0.0
C530 C 0.75986 0.30371 0.13641 0.0
C531 C 0.74239 0.27576 0.15675 0.0
C532 C 0.69895 0.28148 0.17767 0.0
C533 C 0.67378 0.31495 0.17807 0.0
C534 C 0.80592 0.29856 0.11371 0.0
C535 C 0.67922 0.25228 0.19972 0.0
H536 H 0.76187 0.15898 0.11916 0.0
H537 H 0.86938 0.19424 0.19273 0.0
H538 H 0.66925 0.22617 0.12638 0.0
H539 H 0.71379 0.24305 0.09666 0.0
H540 H 0.69698 0.19615 0.09692 0.0
H541 H 0.86765 0.25238 0.2138 0.0
H542 H 0.84452 0.28609 0.18612 0.0
H543 H 0.80112 0.26965 0.21665 0.0
H544 H 0.74762 0.35839 0.12189 0.0
H545 H 0.64071 0.31939 0.19421 0.0
H546 H 0.79748 0.27618 0.09695 0.0
H547 H 0.84197 0.29125 0.12748 0.0
H548 H 0.81447 0.32296 0.09939 0.0
H549 H 0.66714 0.22861 0.18539 0.0
H550 H 0.64499 0.26105 0.21453 0.0
H551 H 0.71153 0.24359 0.21603 0.0
C552 C 0.66079 0.18802 0.67045 0.0
C553 C 0.683 0.15896 0.65398 0.0
C554 C 0.68579 0.22156 0.6705 0.0
C555 C 0.73433 0.22597 0.65389 0.0
C556 C 0.75676 0.19675 0.63708 0.0
C557 C 0.7307 0.16362 0.63722 0.0
C558 C 0.66049 0.25222 0.68848 0.0
C559 C 0.8086 0.20038 0.61925 0.0
C560 C 0.77708 0.31996 0.63108 0.0
C561 C 0.81297 0.32818 0.65573 0.0
C562 C 0.7513 0.28673 0.63013 0.0
C563 C 0.76189 0.2611 0.65432 0.0
C564 C 0.79866 0.26906 0.67903 0.0
C565 C 0.82369 0.30258 0.67948 0.0
C566 C 0.71226 0.27922 0.60344 0.0
C567 C 0.8112 0.24228 0.70513 0.0
H568 H 0.62389 0.18453 0.6834 0.0
H569 H 0.74814 0.14118 0.62454 0.0
H570 H 0.68754 0.26175 0.70768 0.0
H571 H 0.6536 0.27501 0.67192 0.0
H572 H 0.62213 0.24457 0.69962 0.0
H573 H 0.82051 0.17512 0.60718 0.0
H574 H 0.8055 0.22175 0.60085 0.0
H575 H 0.84042 0.20834 0.63621 0.0
H576 H 0.76856 0.33971 0.61271 0.0
H577 H 0.85141 0.30882 0.69858 0.0
H578 H 0.67258 0.2737 0.61377 0.0
H579 H 0.72451 0.25501 0.58991 0.0
H580 H 0.7088 0.30191 0.58632 0.0
H581 H 0.7747 0.23571 0.71875 0.0
H582 H 0.84147 0.25238 0.72227 0.0
H583 H 0.82588 0.21703 0.69429 0.0
C584 C 0.33252 0.69279 0.83078 0.0
C585 C 0.31326 0.66424 0.84922 0.0
C586 C 0.3079 0.72643 0.83173 0.0
C587 C 0.26277 0.73148 0.85142 0.0
C588 C 0.24376 0.70293 0.87055 0.0
C589 C 0.26936 0.66964 0.86929 0.0
C590 C 0.32954 0.75634 0.81117 0.0
C591 C 0.19563 0.70729 0.89174 0.0
C592 C 0.22253 0.82681 0.8715 0.0
C593 C 0.18277 0.83316 0.84866 0.0
C594 C 0.24857 0.79367 0.87295 0.0
C595 C 0.23435 0.7663 0.85107 0.0
C596 C 0.1936 0.77237 0.82833 0.0
C597 C 0.16833 0.80576 0.82738 0.0
C598 C 0.29186 0.78815 0.89751 0.0
C599 C 0.17719 0.74375 0.8047 0.0
H600 H 0.36654 0.68875 0.8153 0.0
H601 H 0.25429 0.64762 0.88356 0.0
H602 H 0.29946 0.76448 0.79314 0.0
H603 H 0.33816 0.78012 0.82626 0.0
H604 H 0.3663 0.7485 0.79829 0.0
H605 H 0.18713 0.68287 0.90606 0.0
H606 H 0.20132 0.73009 0.90847 0.0
H607 H 0.16048 0.71347 0.87673 0.0
H608 H 0.23385 0.84793 0.88799 0.0
H609 H 0.13759 0.81054 0.80969 0.0
H610 H 0.32991 0.7826 0.88513 0.0
H611 H 0.28271 0.76456 0.91271 0.0
H612 H 0.29719 0.81181 0.91335 0.0
H613 H 0.21123 0.73659 0.7891 0.0
H614 H 0.14377 0.75241 0.78916 0.0
H615 H 0.16525 0.71916 0.81775 0.0
loop_
_geom_bond_atom_site_label_1
_geom_bond_atom_site_label_2
_geom_bond_distance
_geom_bond_site_symmetry_2
_ccdc_geom_bond_type
In0 O1 2.294 . S
In0 O2 2.326 . S
In0 O6 2.266 . S
In0 O7 2.326 . S
In0 O8 2.266 . S
In0 O9 2.326 . S
In0 O11 2.294 . S
In0 O12 2.326 . S
O1 In0 2.294 . S
O1 C10 1.240 . S
O2 In0 2.326 . S
O2 C10 1.252 . S
C3 O6 1.252 . S
C3 O7 1.260 . S
C4 O11 1.240 . S
C4 O12 1.252 . S
C5 O8 1.252 . S
C5 O9 1.260 . S
O6 In0 2.266 . S
O6 C3 1.252 . S
O7 In0 2.326 . S
O7 C3 1.260 . S
O8 In0 2.266 . S
O8 C5 1.252 . S
O9 In0 2.326 . S
O9 C5 1.260 . S
C10 O1 1.240 . S
C10 O2 1.252 . S
O11 In0 2.294 . S
O11 C4 1.240 . S
O12 In0 2.326 . S
O12 C4 1.252 . S
In13 O14 2.294 . S
In13 O15 2.326 . S
In13 O19 2.266 . S
In13 O20 2.326 . S
In13 O21 2.266 . S
In13 O22 2.326 . S
In13 O24 2.294 . S
In13 O25 2.326 . S
O14 In13 2.294 . S
O14 C23 1.240 . S
O15 In13 2.326 . S
O15 C23 1.252 . S
C16 O19 1.252 . S
C16 O20 1.260 . S
C17 O24 1.240 . S
C17 O25 1.252 . S
C18 O21 1.252 . S
C18 O22 1.260 . S
O19 In13 2.266 . S
O19 C16 1.252 . S
O20 In13 2.326 . S
O20 C16 1.260 . S
O21 In13 2.266 . S
O21 C18 1.252 . S
O22 In13 2.326 . S
O22 C18 1.260 . S
C23 O14 1.240 . S
C23 O15 1.252 . S
O24 In13 2.294 . S
O24 C17 1.240 . S
O25 In13 2.326 . S
O25 C17 1.252 . S
In26 O27 2.294 . S
In26 O28 2.326 . S
In26 O32 2.266 . S
In26 O33 2.326 . S
In26 O34 2.266 . S
In26 O35 2.326 . S
In26 O37 2.294 . S
In26 O38 2.326 . S
O27 In26 2.294 . S
O27 C36 1.240 . S
O28 In26 2.326 . S
O28 C36 1.252 . S
C29 O32 1.252 . S
C29 O33 1.260 . S
C30 O37 1.240 . S
C30 O38 1.252 . S
C31 O34 1.252 . S
C31 O35 1.260 . S
O32 In26 2.266 . S
O32 C29 1.252 . S
O33 In26 2.326 . S
O33 C29 1.260 . S
O34 In26 2.266 . S
O34 C31 1.252 . S
O35 In26 2.326 . S
O35 C31 1.260 . S
C36 O27 1.240 . S
C36 O28 1.252 . S
O37 In26 2.294 . S
O37 C30 1.240 . S
O38 In26 2.326 . S
O38 C30 1.252 . S
In39 O40 2.294 . S
In39 O41 2.326 . S
In39 O45 2.266 . S
In39 O46 2.326 . S
In39 O47 2.266 . S
In39 O48 2.326 . S
In39 O50 2.294 . S
In39 O51 2.326 . S
O40 In39 2.294 . S
O40 C49 1.240 . S
O41 In39 2.326 . S
O41 C49 1.252 . S
C42 O45 1.252 . S
C42 O46 1.260 . S
C43 O50 1.240 . S
C43 O51 1.252 . S
C44 O47 1.252 . S
C44 O48 1.260 . S
O45 In39 2.266 . S
O45 C42 1.252 . S
O46 In39 2.326 . S
O46 C42 1.260 . S
O47 In39 2.266 . S
O47 C44 1.252 . S
O48 In39 2.326 . S
O48 C44 1.260 . S
C49 O40 1.240 . S
C49 O41 1.252 . S
O50 In39 2.294 . S
O50 C43 1.240 . S
O51 In39 2.326 . S
O51 C43 1.252 . S
In52 O53 2.294 . S
In52 O54 2.326 . S
In52 O58 2.266 . S
In52 O59 2.326 . S
In52 O60 2.266 . S
In52 O61 2.326 . S
In52 O63 2.294 . S
In52 O64 2.326 . S
O53 In52 2.294 . S
O53 C62 1.240 . S
O54 In52 2.326 . S
O54 C62 1.252 . S
C55 O58 1.252 . S
C55 O59 1.260 . S
C56 O63 1.240 . S
C56 O64 1.252 . S
C57 O60 1.252 . S
C57 O61 1.260 . S
O58 In52 2.266 . S
O58 C55 1.252 . S
O59 In52 2.326 . S
O59 C55 1.260 . S
O60 In52 2.266 . S
O60 C57 1.252 . S
O61 In52 2.326 . S
O61 C57 1.260 . S
C62 O53 1.240 . S
C62 O54 1.252 . S
O63 In52 2.294 . S
O63 C56 1.240 . S
O64 In52 2.326 . S
O64 C56 1.252 . S
In65 O66 2.294 . S
In65 O67 2.326 . S
In65 O71 2.266 . S
In65 O72 2.326 . S
In65 O73 2.266 . S
In65 O74 2.326 . S
In65 O76 2.294 . S
In65 O77 2.326 . S
O66 In65 2.294 . S
O66 C75 1.240 . S
O67 In65 2.326 . S
O67 C75 1.252 . S
C68 O71 1.252 . S
C68 O72 1.260 . S
C69 O76 1.240 . S
C69 O77 1.252 . S
C70 O73 1.252 . S
C70 O74 1.260 . S
O71 In65 2.266 . S
O71 C68 1.252 . S
O72 In65 2.326 . S
O72 C68 1.260 . S
O73 In65 2.266 . S
O73 C70 1.252 . S
O74 In65 2.326 . S
O74 C70 1.260 . S
C75 O66 1.240 . S
C75 O67 1.252 . S
O76 In65 2.294 . S
O76 C69 1.240 . S
O77 In65 2.326 . S
O77 C69 1.252 . S
In78 O79 2.294 . S
In78 O80 2.326 . S
In78 O84 2.266 . S
In78 O85 2.326 . S
In78 O86 2.266 . S
In78 O87 2.326 . S
In78 O89 2.294 . S
In78 O90 2.326 . S
O79 In78 2.294 . S
O79 C88 1.240 . S
O80 In78 2.326 . S
O80 C88 1.252 . S
C81 O84 1.252 . S
C81 O85 1.260 . S
C82 O89 1.240 . S
C82 O90 1.252 . S
C83 O86 1.252 . S
C83 O87 1.260 . S
O84 In78 2.266 . S
O84 C81 1.252 . S
O85 In78 2.326 . S
O85 C81 1.260 . S
O86 In78 2.266 . S
O86 C83 1.252 . S
O87 In78 2.326 . S
O87 C83 1.260 . S
C88 O79 1.240 . S
C88 O80 1.252 . S
O89 In78 2.294 . S
O89 C82 1.240 . S
O90 In78 2.326 . S
O90 C82 1.252 . S
In91 O92 2.294 . S
In91 O93 2.326 . S
In91 O97 2.266 . S
In91 O98 2.326 . S
In91 O99 2.266 . S
In91 O100 2.326 . S
In91 O102 2.294 . S
In91 O103 2.326 . S
O92 In91 2.294 . S
O92 C101 1.240 . S
O93 In91 2.326 . S
O93 C101 1.252 . S
C94 O97 1.252 . S
C94 O98 1.260 . S
C95 O102 1.240 . S
C95 O103 1.252 . S
C96 O99 1.252 . S
C96 O100 1.260 . S
O97 In91 2.266 . S
O97 C94 1.252 . S
O98 In91 2.326 . S
O98 C94 1.260 . S
O99 In91 2.266 . S
O99 C96 1.252 . S
O100 In91 2.326 . S
O100 C96 1.260 . S
C101 O92 1.240 . S
C101 O93 1.252 . S
O102 In91 2.294 . S
O102 C95 1.240 . S
O103 In91 2.326 . S
O103 C95 1.252 . S
C104 C105 1.391 . S
C104 C106 1.394 . S
C104 H120 0.931 . S
C105 C104 1.391 . S
C105 C109 1.376 . S
C106 C104 1.394 . S
C106 C107 1.369 . S
C106 C110 1.531 . S
C107 C106 1.369 . S
C107 C108 1.410 . S
C107 C115 1.503 . S
C108 C107 1.410 . S
C108 C109 1.392 . S
C108 C111 1.511 . S
C109 C105 1.376 . S
C109 C108 1.392 . S
C109 H121 0.929 . S
C110 C106 1.531 . S
C110 H122 0.960 . S
C110 H123 0.962 . S
C110 H124 0.960 . S
C111 C108 1.511 . S
C111 H125 0.961 . S
C111 H126 0.961 . S
C111 H127 0.961 . S
C112 C113 1.370 . S
C112 C114 1.363 . S
C112 H128 0.931 . S
C113 C112 1.370 . S
C113 C117 1.408 . S
C114 C112 1.363 . S
C114 C115 1.370 . S
C114 C118 1.524 . S
C115 C107 1.503 . S
C115 C114 1.370 . S
C115 C116 1.403 . S
C116 C115 1.403 . S
C116 C117 1.404 . S
C116 C119 1.539 . S
C117 C113 1.408 . S
C117 C116 1.404 . S
C117 H129 0.930 . S
C118 C114 1.524 . S
C118 H130 0.956 . S
C118 H131 0.961 . S
C118 H132 0.961 . S
C119 C116 1.539 . S
C119 H133 0.958 . S
C119 H134 0.961 . S
C119 H135 0.960 . S
H120 C104 0.931 . S
H121 C109 0.929 . S
H122 C110 0.960 . S
H123 C110 0.962 . S
H124 C110 0.960 . S
H125 C111 0.961 . S
H126 C111 0.961 . S
H127 C111 0.961 . S
H128 C112 0.931 . S
H129 C117 0.930 . S
H130 C118 0.956 . S
H131 C118 0.961 . S
H132 C118 0.961 . S
H133 C119 0.958 . S
H134 C119 0.961 . S
H135 C119 0.960 . S
C136 C137 1.391 . S
C136 C138 1.394 1_545 S
C136 H152 0.931 1_455 S
C137 C136 1.391 . S
C137 C141 1.376 . S
C138 C136 1.394 1_565 S
C138 C139 1.369 . S
C138 C142 1.531 . S
C139 C138 1.369 . S
C139 C140 1.410 1_565 S
C139 C147 1.503 . S
C140 C139 1.410 1_545 S
C140 C141 1.392 . S
C140 C143 1.511 . S
C141 C137 1.376 . S
C141 C140 1.392 . S
C141 H153 0.929 . S
C142 C138 1.531 . S
C142 H154 0.960 . S
C142 H155 0.962 1_565 S
C142 H156 0.960 . S
C143 C140 1.511 . S
C143 H157 0.961 . S
C143 H158 0.961 . S
C143 H159 0.961 1_545 S
C144 C145 1.370 1_545 S
C144 C146 1.363 . S
C144 H160 0.931 . S
C145 C144 1.370 1_565 S
C145 C149 1.408 . S
C146 C144 1.363 . S
C146 C147 1.370 1_545 S
C146 C150 1.524 . S
C147 C139 1.503 . S
C147 C146 1.370 1_565 S
C147 C148 1.403 . S
C148 C147 1.403 . S
C148 C149 1.404 . S
C148 C151 1.539 . S
C149 C145 1.408 . S
C149 C148 1.404 . S
C149 H161 0.930 . S
C150 C146 1.524 . S
C150 H162 0.956 . S
C150 H163 0.961 . S
C150 H164 0.961 . S
C151 C148 1.539 . S
C151 H165 0.958 . S
C151 H166 0.961 . S
C151 H167 0.960 . S
H152 C136 0.931 1_655 S
H153 C141 0.929 . S
H154 C142 0.960 . S
H155 C142 0.962 1_545 S
H156 C142 0.960 . S
H157 C143 0.961 . S
H158 C143 0.961 . S
H159 C143 0.961 1_565 S
H160 C144 0.931 . S
H161 C149 0.930 . S
H162 C150 0.956 . S
H163 C150 0.961 . S
H164 C150 0.961 . S
H165 C151 0.958 . S
H166 C151 0.961 . S
H167 C151 0.960 . S
C168 C169 1.391 . S
C168 C170 1.394 . S
C168 H184 0.931 . S
C169 C168 1.391 . S
C169 C173 1.376 . S
C170 C168 1.394 . S
C170 C171 1.369 . S
C170 C174 1.531 . S
C171 C170 1.369 . S
C171 C172 1.410 . S
C171 C179 1.503 . S
C172 C171 1.410 . S
C172 C173 1.392 . S
C172 C175 1.511 . S
C173 C169 1.376 . S
C173 C172 1.392 . S
C173 H185 0.929 . S
C174 C170 1.531 . S
C174 H186 0.960 . S
C174 H187 0.962 . S
C174 H188 0.960 . S
C175 C172 1.511 . S
C175 H189 0.961 . S
C175 H190 0.961 . S
C175 H191 0.961 . S
C176 C177 1.370 . S
C176 C178 1.363 . S
C176 H192 0.931 . S
C177 C176 1.370 . S
C177 C181 1.408 . S
C178 C176 1.363 . S
C178 C179 1.370 . S
C178 C182 1.524 . S
C179 C171 1.503 . S
C179 C178 1.370 . S
C179 C180 1.403 . S
C180 C179 1.403 . S
C180 C181 1.404 . S
C180 C183 1.539 . S
C181 C177 1.408 . S
C181 C180 1.404 . S
C181 H193 0.930 1_655 S
C182 C178 1.524 . S
C182 H194 0.956 . S
C182 H195 0.961 . S
C182 H196 0.961 . S
C183 C180 1.539 . S
C183 H197 0.958 . S
C183 H198 0.980 . S
C183 H199 0.960 . S
H184 C168 0.931 . S
H185 C173 0.929 . S
H186 C174 0.960 . S
H187 C174 0.962 . S
H188 C174 0.960 . S
H189 C175 0.961 . S
H190 C175 0.961 . S
H191 C175 0.961 . S
H192 C176 0.931 . S
H193 C181 0.930 1_455 S
H194 C182 0.956 . S
H195 C182 0.961 . S
H196 C182 0.961 . S
H197 C183 0.958 . S
H198 C183 0.980 . S
H199 C183 0.960 . S
C200 C201 1.391 . S
C200 C202 1.394 1_545 S
C200 H216 0.935 . S
C201 C200 1.391 . S
C201 C205 1.376 . S
C202 C200 1.394 1_565 S
C202 C203 1.369 1_565 S
C202 C206 1.531 . S
C203 C202 1.369 1_545 S
C203 C204 1.410 . S
C203 C211 1.503 1_545 S
C204 C203 1.410 . S
C204 C205 1.392 . S
C204 C207 1.511 . S
C205 C201 1.376 . S
C205 C204 1.392 . S
C205 H217 0.929 . S
C206 C202 1.531 . S
C206 H218 0.960 . S
C206 H219 0.962 . S
C206 H220 0.960 . S
C207 C204 1.511 . S
C207 H221 0.961 . S
C207 H222 0.961 . S
C207 H223 0.961 . S
C208 C209 1.370 1_545 S
C208 C210 1.363 . S
C208 H224 0.931 . S
C209 C208 1.370 1_565 S
C209 C213 1.408 . S
C210 C208 1.363 . S
C210 C211 1.370 1_545 S
C210 C214 1.524 . S
C211 C203 1.503 1_565 S
C211 C210 1.370 1_565 S
C211 C212 1.403 . S
C212 C211 1.403 . S
C212 C213 1.404 . S
C212 C215 1.539 . S
C213 C209 1.408 . S
C213 C212 1.404 . S
C213 H225 0.930 . S
C214 C210 1.524 . S
C214 H226 0.956 . S
C214 H227 0.961 . S
C214 H228 0.961 . S
C215 C212 1.539 . S
C215 H229 0.958 . S
C215 H230 0.961 . S
C215 H231 0.960 . S
H216 C200 0.935 . S
H217 C205 0.929 . S
H218 C206 0.960 . S
H219 C206 0.962 . S
H220 C206 0.960 . S
H221 C207 0.961 . S
H222 C207 0.961 . S
H223 C207 0.961 . S
H224 C208 0.931 . S
H225 C213 0.930 . S
H226 C214 0.956 . S
H227 C214 0.961 . S
H228 C214 0.961 . S
H229 C215 0.958 . S
H230 C215 0.961 . S
H231 C215 0.960 . S
C232 C233 1.391 . S
C232 C234 1.394 . S
C232 H248 0.931 . S
C233 C232 1.391 . S
C233 C237 1.376 . S
C234 C232 1.394 . S
C234 C235 1.369 . S
C234 C238 1.531 . S
C235 C234 1.369 . S
C235 C236 1.410 . S
C235 C243 1.503 . S
C236 C235 1.410 . S
C236 C237 1.392 . S
C236 C239 1.511 . S
C237 C233 1.376 . S
C237 C236 1.392 . S
C237 H249 0.929 . S
C238 C234 1.531 . S
C238 H250 0.960 . S
C238 H251 0.962 . S
C238 H252 0.960 . S
C239 C236 1.511 . S
C239 H253 0.961 . S
C239 H254 0.961 . S
C239 H255 0.961 . S
C240 C241 1.370 . S
C240 C242 1.363 . S
C240 H256 0.931 . S
C241 C240 1.370 . S
C241 C245 1.408 . S
C242 C240 1.363 . S
C242 C243 1.370 . S
C242 C246 1.524 . S
C243 C235 1.503 . S
C243 C242 1.370 . S
C243 C244 1.403 . S
C244 C243 1.403 . S
C244 C245 1.404 . S
C244 C247 1.539 . S
C245 C241 1.408 . S
C245 C244 1.404 . S
C245 H257 0.930 . S
C246 C242 1.524 . S
C246 H258 0.956 . S
C246 H259 0.961 . S
C246 H260 0.961 . S
C247 C244 1.539 . S
C247 H261 0.958 . S
C247 H262 0.961 . S
C247 H263 0.960 . S
H248 C232 0.931 . S
H249 C237 0.929 . S
H250 C238 0.960 . S
H251 C238 0.962 . S
H252 C238 0.960 . S
H253 C239 0.961 . S
H254 C239 0.961 . S
H255 C239 0.961 . S
H256 C240 0.931 . S
H257 C245 0.930 . S
H258 C246 0.956 . S
H259 C246 0.961 . S
H260 C246 0.961 . S
H261 C247 0.958 . S
H262 C247 0.961 . S
H263 C247 0.960 . S
C264 C265 1.391 . S
C264 C266 1.394 . S
C264 H280 0.931 . S
C265 C264 1.391 . S
C265 C269 1.376 . S
C266 C264 1.394 . S
C266 C267 1.369 . S
C266 C270 1.531 . S
C267 C266 1.369 . S
C267 C268 1.410 . S
C267 C275 1.503 . S
C268 C267 1.410 . S
C268 C269 1.392 . S
C268 C271 1.511 . S
C269 C265 1.376 . S
C269 C268 1.392 . S
C269 H281 0.929 . S
C270 C266 1.531 . S
C270 H282 0.960 . S
C270 H283 0.962 1_545 S
C270 H284 0.960 . S
C271 C268 1.511 . S
C271 H285 0.961 . S
C271 H286 0.974 . S
C271 H287 0.961 . S
C272 C273 1.370 . S
C272 C274 1.363 . S
C272 H288 0.931 . S
C273 C272 1.370 . S
C273 C277 1.408 1_565 S
C274 C272 1.363 . S
C274 C275 1.370 1_565 S
C274 C278 1.524 . S
C275 C267 1.503 . S
C275 C274 1.370 1_545 S
C275 C276 1.403 . S
C276 C275 1.403 . S
C276 C277 1.404 . S
C276 C279 1.539 . S
C277 C273 1.408 1_545 S
C277 C276 1.404 . S
C277 H289 0.930 1_655 S
C278 C274 1.524 . S
C278 H290 0.956 . S
C278 H291 0.961 . S
C278 H292 0.961 . S
C279 C276 1.539 . S
C279 H293 0.958 . S
C279 H294 0.961 . S
C279 H295 0.960 . S
H280 C264 0.931 . S
H281 C269 0.929 . S
H282 C270 0.960 . S
H283 C270 0.962 1_565 S
H284 C270 0.960 . S
H285 C271 0.961 . S
H286 C271 0.974 . S
H287 C271 0.961 . S
H288 C272 0.931 . S
H289 C277 0.930 1_455 S
H290 C278 0.956 . S
H291 C278 0.961 . S
H292 C278 0.961 . S
H293 C279 0.958 . S
H294 C279 0.961 . S
H295 C279 0.960 . S
C296 C297 1.391 . S
C296 C298 1.394 . S
C296 H312 0.931 . S
C297 C296 1.391 . S
C297 C301 1.376 . S
C298 C296 1.394 . S
C298 C299 1.369 . S
C298 C302 1.531 . S
C299 C298 1.369 . S
C299 C300 1.410 . S
C299 C307 1.503 . S
C300 C299 1.410 . S
C300 C301 1.392 . S
C300 C303 1.511 . S
C301 C297 1.376 . S
C301 C300 1.392 . S
C301 H313 0.929 . S
C302 C298 1.531 . S
C302 H314 0.960 . S
C302 H315 0.962 . S
C302 H316 0.960 . S
C303 C300 1.511 . S
C303 H317 0.961 . S
C303 H318 0.961 . S
C303 H319 0.961 . S
C304 C305 1.370 . S
C304 C306 1.363 . S
C304 H320 0.931 . S
C305 C304 1.370 . S
C305 C309 1.405 1_455 S
C306 C304 1.363 . S
C306 C307 1.370 . S
C306 C310 1.524 . S
C307 C299 1.503 . S
C307 C306 1.370 . S
C307 C308 1.403 . S
C308 C307 1.403 . S
C308 C309 1.387 1_455 S
C308 C311 1.539 . S
C309 C305 1.405 1_655 S
C309 C308 1.387 1_655 S
C309 H321 0.949 . S
C310 C306 1.524 . S
C310 H322 0.956 . S
C310 H323 0.961 . S
C310 H324 0.961 . S
C311 C308 1.539 . S
C311 H325 0.958 . S
C311 H326 0.953 1_455 S
C311 H327 0.960 . S
H312 C296 0.931 . S
H313 C301 0.929 . S
H314 C302 0.960 . S
H315 C302 0.962 . S
H316 C302 0.960 . S
H317 C303 0.961 . S
H318 C303 0.961 . S
H319 C303 0.961 . S
H320 C304 0.931 . S
H321 C309 0.949 . S
H322 C310 0.956 . S
H323 C310 0.961 . S
H324 C310 0.961 . S
H325 C311 0.958 . S
H326 C311 0.953 1_655 S
H327 C311 0.960 . S
C328 C329 1.391 . S
C328 C330 1.394 . S
C328 H344 0.931 . S
C329 C328 1.391 . S
C329 C333 1.376 . S
C330 C328 1.394 . S
C330 C331 1.369 . S
C330 C334 1.531 . S
C331 C330 1.369 . S
C331 C332 1.410 1_565 S
C331 C339 1.503 1_565 S
C332 C331 1.410 1_545 S
C332 C333 1.392 1_545 S
C332 C335 1.511 . S
C333 C329 1.376 . S
C333 C332 1.392 1_565 S
C333 H345 0.929 . S
C334 C330 1.531 . S
C334 H346 0.959 1_565 S
C334 H347 0.962 . S
C334 H348 0.960 . S
C335 C332 1.511 . S
C335 H349 0.961 . S
C335 H350 0.961 . S
C335 H351 0.961 . S
C336 C337 1.370 1_565 S
C336 C338 1.363 . S
C336 H352 0.931 . S
C337 C336 1.370 1_545 S
C337 C341 1.408 . S
C338 C336 1.363 . S
C338 C339 1.370 1_565 S
C338 C342 1.524 . S
C339 C331 1.503 1_545 S
C339 C338 1.370 1_545 S
C339 C340 1.403 . S
C340 C339 1.403 . S
C340 C341 1.404 . S
C340 C343 1.539 . S
C341 C337 1.408 . S
C341 C340 1.404 . S
C341 H353 0.930 . S
C342 C338 1.524 . S
C342 H354 0.956 . S
C342 H355 0.961 . S
C342 H356 0.961 . S
C343 C340 1.539 . S
C343 H357 0.958 . S
C343 H358 0.961 . S
C343 H359 0.960 . S
H344 C328 0.931 . S
H345 C333 0.929 . S
H346 C334 0.959 1_545 S
H347 C334 0.962 . S
H348 C334 0.960 . S
H349 C335 0.961 . S
H350 C335 0.961 . S
H351 C335 0.961 . S
H352 C336 0.931 . S
H353 C341 0.930 . S
H354 C342 0.956 . S
H355 C342 0.961 . S
H356 C342 0.961 . S
H357 C343 0.958 . S
H358 C343 0.961 . S
H359 C343 0.960 . S
C360 C361 1.391 . S
C360 C362 1.394 . S
C360 H376 0.931 . S
C361 C360 1.391 . S
C361 C365 1.376 . S
C362 C360 1.394 . S
C362 C363 1.369 . S
C362 C366 1.531 . S
C363 C362 1.369 . S
C363 C364 1.410 1_455 S
C363 C371 1.503 1_455 S
C364 C363 1.410 1_655 S
C364 C365 1.392 1_655 S
C364 C367 1.511 . S
C365 C361 1.376 . S
C365 C364 1.392 1_455 S
C365 H377 0.929 . S
C366 C362 1.531 . S
C366 H378 0.960 . S
C366 H379 0.962 . S
C366 H380 0.960 . S
C367 C364 1.511 . S
C367 H381 0.961 . S
C367 H382 0.961 . S
C367 H383 0.961 . S
C368 C369 1.370 . S
C368 C370 1.363 1_655 S
C368 H384 0.931 1_655 S
C369 C368 1.370 . S
C369 C373 1.408 . S
C370 C368 1.363 1_455 S
C370 C371 1.370 1_455 S
C370 C374 1.524 . S
C371 C363 1.503 1_655 S
C371 C370 1.370 1_655 S
C371 C372 1.403 . S
C372 C371 1.403 . S
C372 C373 1.404 . S
C372 C375 1.539 . S
C373 C369 1.408 . S
C373 C372 1.404 . S
C373 H385 0.930 . S
C374 C370 1.524 . S
C374 H386 0.956 . S
C374 H387 0.961 . S
C374 H388 0.961 . S
C375 C372 1.539 . S
C375 H389 0.958 . S
C375 H390 0.961 . S
C375 H391 0.960 . S
H376 C360 0.931 . S
H377 C365 0.929 . S
H378 C366 0.960 . S
H379 C366 0.962 . S
H380 C366 0.960 . S
H381 C367 0.961 . S
H382 C367 0.961 . S
H383 C367 0.961 . S
H384 C368 0.931 1_455 S
H385 C373 0.930 . S
H386 C374 0.956 . S
H387 C374 0.961 . S
H388 C374 0.961 . S
H389 C375 0.958 . S
H390 C375 0.961 . S
H391 C375 0.960 . S
C392 C393 1.391 . S
C392 C394 1.394 . S
C392 H408 0.931 . S
C393 C392 1.391 . S
C393 C397 1.376 . S
C394 C392 1.394 . S
C394 C395 1.369 . S
C394 C398 1.531 . S
C395 C394 1.369 . S
C395 C396 1.410 1_565 S
C395 C403 1.503 1_565 S
C396 C395 1.410 1_545 S
C396 C397 1.392 1_545 S
C396 C399 1.511 . S
C397 C393 1.376 . S
C397 C396 1.392 1_565 S
C397 H409 0.929 1_565 S
C398 C394 1.531 . S
C398 H410 0.960 . S
C398 H411 0.962 . S
C398 H412 0.960 . S
C399 C396 1.511 . S
C399 H413 0.961 . S
C399 H414 0.961 . S
C399 H415 0.961 . S
C400 C401 1.370 . S
C400 C402 1.363 1_545 S
C400 H416 0.931 1_545 S
C401 C400 1.370 . S
C401 C405 1.408 . S
C402 C400 1.363 1_565 S
C402 C403 1.370 1_565 S
C402 C406 1.524 . S
C403 C395 1.503 1_545 S
C403 C402 1.370 1_545 S
C403 C404 1.403 . S
C404 C403 1.403 . S
C404 C405 1.404 . S
C404 C407 1.539 . S
C405 C401 1.408 . S
C405 C404 1.404 . S
C405 H417 0.930 . S
C406 C402 1.524 . S
C406 H418 0.956 . S
C406 H419 0.961 . S
C406 H420 0.961 . S
C407 C404 1.539 . S
C407 H421 0.958 . S
C407 H422 0.961 . S
C407 H423 0.960 . S
H408 C392 0.931 . S
H409 C397 0.929 1_545 S
H410 C398 0.960 . S
H411 C398 0.962 . S
H412 C398 0.960 . S
H413 C399 0.961 . S
H414 C399 0.961 . S
H415 C399 0.961 . S
H416 C400 0.931 1_565 S
H417 C405 0.930 . S
H418 C406 0.956 . S
H419 C406 0.961 . S
H420 C406 0.961 . S
H421 C407 0.958 . S
H422 C407 0.961 . S
H423 C407 0.960 . S
C424 C425 1.391 . S
C424 C426 1.394 . S
C424 H440 0.931 . S
C425 C424 1.391 . S
C425 C429 1.376 . S
C426 C424 1.394 . S
C426 C427 1.369 . S
C426 C430 1.531 1_554 S
C427 C426 1.369 . S
C427 C428 1.410 . S
C427 C435 1.503 1_554 S
C428 C427 1.410 . S
C428 C429 1.392 . S
C428 C431 1.511 . S
C429 C425 1.376 . S
C429 C428 1.392 . S
C429 H441 0.929 . S
C430 C426 1.531 1_556 S
C430 H442 0.960 . S
C430 H443 0.962 . S
C430 H444 0.960 . S
C431 C428 1.511 . S
C431 H445 0.961 . S
C431 H446 0.961 . S
C431 H447 0.961 . S
C432 C433 1.370 . S
C432 C434 1.363 . S
C432 H448 0.931 . S
C433 C432 1.370 . S
C433 C437 1.408 . S
C434 C432 1.363 . S
C434 C435 1.370 . S
C434 C438 1.524 . S
C435 C427 1.503 1_556 S
C435 C434 1.370 . S
C435 C436 1.403 . S
C436 C435 1.403 . S
C436 C437 1.404 . S
C436 C439 1.539 . S
C437 C433 1.408 . S
C437 C436 1.404 . S
C437 H449 0.930 . S
C438 C434 1.524 . S
C438 H450 0.956 . S
C438 H451 0.961 1_556 S
C438 H452 0.961 . S
C439 C436 1.539 . S
C439 H453 0.958 . S
C439 H454 0.961 . S
C439 H455 0.960 1_556 S
H440 C424 0.931 . S
H441 C429 0.929 . S
H442 C430 0.960 . S
H443 C430 0.962 . S
H444 C430 0.960 . S
H445 C431 0.961 . S
H446 C431 0.961 . S
H447 C431 0.961 . S
H448 C432 0.931 . S
H449 C437 0.930 . S
H450 C438 0.956 . S
H451 C438 0.961 1_554 S
H452 C438 0.961 . S
H453 C439 0.958 . S
H454 C439 0.961 . S
H455 C439 0.960 1_554 S
C456 C457 1.391 . S
C456 C458 1.394 . S
C456 H472 0.931 . S
C457 C456 1.391 . S
C457 C461 1.376 . S
C458 C456 1.394 . S
C458 C459 1.368 1_565 S
C458 C462 1.531 1_566 S
C459 C458 1.368 1_545 S
C459 C460 1.401 1_445 S
C459 C467 1.512 1_456 S
C460 C459 1.401 1_665 S
C460 C461 1.392 1_655 S
C460 C463 1.511 . S
C461 C457 1.376 . S
C461 C460 1.392 1_455 S
C461 H473 0.929 1_455 S
C462 C458 1.531 1_544 S
C462 H474 0.960 . S
C462 H475 0.962 1_545 S
C462 H476 0.960 1_554 S
C463 C460 1.511 . S
C463 H477 0.961 . S
C463 H478 0.961 . S
C463 H479 0.961 1_565 S
C464 C465 1.341 1_565 S
C464 C466 1.373 . S
C464 H480 0.951 . S
C465 C464 1.341 1_545 S
C465 C469 1.408 . S
C466 C464 1.373 . S
C466 C467 1.370 1_565 S
C466 C470 1.524 . S
C467 C459 1.512 1_654 S
C467 C466 1.370 1_545 S
C467 C468 1.403 . S
C468 C467 1.403 . S
C468 C469 1.404 . S
C468 C471 1.539 1_554 S
C469 C465 1.408 . S
C469 C468 1.404 . S
C469 H481 0.930 . S
C470 C466 1.524 . S
C470 H482 0.956 1_655 S
C470 H483 0.961 . S
C470 H484 0.961 . S
C471 C468 1.539 1_556 S
C471 H485 0.958 1_655 S
C471 H486 0.961 . S
C471 H487 0.960 . S
H472 C456 0.931 . S
H473 C461 0.929 1_655 S
H474 C462 0.960 . S
H475 C462 0.962 1_565 S
H476 C462 0.960 1_556 S
H477 C463 0.961 . S
H478 C463 0.961 . S
H479 C463 0.961 1_545 S
H480 C464 0.951 . S
H481 C469 0.930 . S
H482 C470 0.956 1_455 S
H483 C470 0.961 . S
H484 C470 0.961 . S
H485 C471 0.958 1_455 S
H486 C471 0.961 . S
H487 C471 0.960 . S
C488 C489 1.391 . S
C488 C490 1.394 . S
C488 H504 0.931 . S
C489 C488 1.391 . S
C489 C493 1.376 . S
C490 C488 1.394 . S
C490 C491 1.369 . S
C490 C494 1.531 . S
C491 C490 1.369 . S
C491 C492 1.410 . S
C491 C499 1.503 . S
C492 C491 1.410 . S
C492 C493 1.392 . S
C492 C495 1.511 . S
C493 C489 1.376 . S
C493 C492 1.392 . S
C493 H505 0.929 . S
C494 C490 1.531 . S
C494 H506 0.960 . S
C494 H507 0.962 . S
C494 H508 0.960 . S
C495 C492 1.511 . S
C495 H509 0.961 . S
C495 H510 0.961 . S
C495 H511 0.961 . S
C496 C497 1.370 . S
C496 C498 1.363 . S
C496 H512 0.931 . S
C497 C496 1.370 . S
C497 C501 1.408 . S
C498 C496 1.363 . S
C498 C499 1.370 . S
C498 C502 1.524 . S
C499 C491 1.503 . S
C499 C498 1.370 . S
C499 C500 1.403 . S
C500 C499 1.403 . S
C500 C501 1.404 . S
C500 C503 1.539 . S
C501 C497 1.408 . S
C501 C500 1.404 . S
C501 H513 0.930 . S
C502 C498 1.524 . S
C502 H514 0.956 . S
C502 H515 0.961 . S
C502 H516 0.961 . S
C503 C500 1.539 . S
C503 H517 0.958 . S
C503 H518 0.961 . S
C503 H519 0.960 . S
H504 C488 0.931 . S
H505 C493 0.929 . S
H506 C494 0.960 . S
H507 C494 0.962 . S
H508 C494 0.960 . S
H509 C495 0.961 . S
H510 C495 0.961 . S
H511 C495 0.961 . S
H512 C496 0.931 . S
H513 C501 0.930 . S
H514 C502 0.956 . S
H515 C502 0.961 . S
H516 C502 0.961 . S
H517 C503 0.958 . S
H518 C503 0.961 . S
H519 C503 0.960 . S
C520 C521 1.391 . S
C520 C522 1.394 . S
C520 H536 0.931 . S
C521 C520 1.391 . S
C521 C525 1.376 . S
C522 C520 1.394 . S
C522 C523 1.369 . S
C522 C526 1.531 . S
C523 C522 1.369 . S
C523 C524 1.410 . S
C523 C531 1.503 . S
C524 C523 1.410 . S
C524 C525 1.392 . S
C524 C527 1.511 . S
C525 C521 1.376 . S
C525 C524 1.392 . S
C525 H537 0.929 . S
C526 C522 1.531 . S
C526 H538 0.960 . S
C526 H539 0.962 . S
C526 H540 0.960 . S
C527 C524 1.511 . S
C527 H541 0.961 . S
C527 H542 0.961 . S
C527 H543 0.961 . S
C528 C529 1.370 . S
C528 C530 1.363 . S
C528 H544 0.931 . S
C529 C528 1.370 . S
C529 C533 1.408 . S
C530 C528 1.363 . S
C530 C531 1.370 . S
C530 C534 1.524 . S
C531 C523 1.503 . S
C531 C530 1.370 . S
C531 C532 1.403 . S
C532 C531 1.403 . S
C532 C533 1.404 . S
C532 C535 1.539 . S
C533 C529 1.408 . S
C533 C532 1.404 . S
C533 H545 0.930 . S
C534 C530 1.524 . S
C534 H546 0.956 . S
C534 H547 0.961 . S
C534 H548 0.961 . S
C535 C532 1.539 . S
C535 H549 0.958 . S
C535 H550 0.961 . S
C535 H551 0.960 . S
H536 C520 0.931 . S
H537 C525 0.929 . S
H538 C526 0.960 . S
H539 C526 0.962 . S
H540 C526 0.960 . S
H541 C527 0.961 . S
H542 C527 0.961 . S
H543 C527 0.961 . S
H544 C528 0.931 . S
H545 C533 0.930 . S
H546 C534 0.956 . S
H547 C534 0.961 . S
H548 C534 0.961 . S
H549 C535 0.958 . S
H550 C535 0.961 . S
H551 C535 0.960 . S
C552 C553 1.391 . S
C552 C554 1.394 . S
C552 H568 0.931 . S
C553 C552 1.391 . S
C553 C557 1.376 . S
C554 C552 1.394 . S
C554 C555 1.369 . S
C554 C558 1.531 . S
C555 C554 1.369 . S
C555 C556 1.410 . S
C555 C563 1.503 . S
C556 C555 1.410 . S
C556 C557 1.392 . S
C556 C559 1.511 . S
C557 C553 1.376 . S
C557 C556 1.392 . S
C557 H569 0.929 . S
C558 C554 1.531 . S
C558 H570 0.960 . S
C558 H571 0.962 . S
C558 H572 0.960 . S
C559 C556 1.511 . S
C559 H573 0.961 . S
C559 H574 0.961 . S
C559 H575 0.961 . S
C560 C561 1.370 . S
C560 C562 1.363 . S
C560 H576 0.931 . S
C561 C560 1.370 . S
C561 C565 1.408 . S
C562 C560 1.363 . S
C562 C563 1.370 . S
C562 C566 1.524 . S
C563 C555 1.503 . S
C563 C562 1.370 . S
C563 C564 1.403 . S
C564 C563 1.403 . S
C564 C565 1.404 . S
C564 C567 1.539 . S
C565 C561 1.408 . S
C565 C564 1.404 . S
C565 H577 0.930 . S
C566 C562 1.524 . S
C566 H578 0.956 . S
C566 H579 0.961 . S
C566 H580 0.961 . S
C567 C564 1.539 . S
C567 H581 0.958 . S
C567 H582 0.961 . S
C567 H583 0.960 . S
H568 C552 0.931 . S
H569 C557 0.929 . S
H570 C558 0.960 . S
H571 C558 0.962 . S
H572 C558 0.960 . S
H573 C559 0.961 . S
H574 C559 0.961 . S
H575 C559 0.961 . S
H576 C560 0.931 . S
H577 C565 0.930 . S
H578 C566 0.956 . S
H579 C566 0.961 . S
H580 C566 0.961 . S
H581 C567 0.958 . S
H582 C567 0.961 . S
H583 C567 0.960 . S
C584 C585 1.391 . S
C584 C586 1.394 . S
C584 H600 0.931 . S
C585 C584 1.391 . S
C585 C589 1.376 . S
C586 C584 1.394 . S
C586 C587 1.369 . S
C586 C590 1.531 . S
C587 C586 1.369 . S
C587 C588 1.410 . S
C587 C595 1.503 . S
C588 C587 1.410 . S
C588 C589 1.392 . S
C588 C591 1.511 . S
C589 C585 1.376 . S
C589 C588 1.392 . S
C589 H601 0.929 . S
C590 C586 1.531 . S
C590 H602 0.960 . S
C590 H603 0.962 . S
C590 H604 0.960 . S
C591 C588 1.511 . S
C591 H605 0.961 . S
C591 H606 0.961 . S
C591 H607 0.961 . S
C592 C593 1.370 . S
C592 C594 1.363 . S
C592 H608 0.931 . S
C593 C592 1.370 . S
C593 C597 1.408 . S
C594 C592 1.363 . S
C594 C595 1.370 . S
C594 C598 1.524 . S
C595 C587 1.503 . S
C595 C594 1.370 . S
C595 C596 1.403 . S
C596 C595 1.403 . S
C596 C597 1.404 . S
C596 C599 1.539 . S
C597 C593 1.408 . S
C597 C596 1.404 . S
C597 H609 0.930 . S
C598 C594 1.524 . S
C598 H610 0.956 . S
C598 H611 0.961 . S
C598 H612 0.961 . S
C599 C596 1.539 . S
C599 H613 0.958 . S
C599 H614 0.961 . S
C599 H615 0.960 . S
H600 C584 0.931 . S
H601 C589 0.929 . S
H602 C590 0.960 . S
H603 C590 0.962 . S
H604 C590 0.960 . S
H605 C591 0.961 . S
H606 C591 0.961 . S
H607 C591 0.961 . S
H608 C592 0.931 . S
H609 C597 0.930 . S
H610 C598 0.956 . S
H611 C598 0.961 . S
H612 C598 0.961 . S
H613 C599 0.958 . S
H614 C599 0.961 . S
H615 C599 0.960 . S
C105 C10 1.547 . S
C113 C29 1.558 . S
C137 C44 1.556 1_455 S
C145 C23 1.555 . S
C169 C30 1.547 . S
C177 C5 1.557 1_655 S
C201 C49 1.557 . S
C209 C18 1.556 . S
C233 C83 1.554 . S
C241 C56 1.554 . S
C265 C75 1.548 . S
C273 C96 1.558 1_655 S
C297 C88 1.548 . S
C305 C55 1.557 1_455 S
C329 C101 1.557 . S
C337 C70 1.555 . S
C361 C3 1.515 . S
C369 C57 1.516 . S
C393 C16 1.507 . S
C401 C68 1.519 . S
C425 C31 1.516 . S
C433 C81 1.516 . S
C457 C94 1.507 . S
C465 C42 1.519 . S
C489 C4 1.524 . S
C497 C17 1.524 . S
C521 C43 1.511 . S
C529 C36 1.518 . S
C553 C69 1.509 . S
C561 C62 1.517 . S
C585 C82 1.510 . S
C593 C95 1.518 . S
