# Generated by pormake.
# Topology lcy-e, (6)-cn, num edge types: 1
# Building blocks:
#     Node 0, Type 0, BuildingBlock: CUKXOW_clean_sbu_0, # of connection points: 6
#     Node 1, Type 0, BuildingBlock: CUKXOW_clean_sbu_0, # of connection points: 6
#     Node 2, Type 0, BuildingBlock: CUKXOW_clean_sbu_0, # of connection points: 6
#     Node 3, Type 0, BuildingBlock: CUKXOW_clean_sbu_0, # of connection points: 6
#     Node 4, Type 0, BuildingBlock: CUKXOW_clean_sbu_0, # of connection points: 6
#     Node 5, Type 0, BuildingBlock: CUKXOW_clean_sbu_0, # of connection points: 6
#     Node 6, Type 0, BuildingBlock: CUKXOW_clean_sbu_0, # of connection points: 6
#     Node 7, Type 0, BuildingBlock: CUKXOW_clean_sbu_0, # of connection points: 6
#     Node 8, Type 0, BuildingBlock: CUKXOW_clean_sbu_0, # of connection points: 6
#     Node 9, Type 0, BuildingBlock: CUKXOW_clean_sbu_0, # of connection points: 6
#     Node 10, Type 0, BuildingBlock: CUKXOW_clean_sbu_0, # of connection points: 6
#     Node 11, Type 0, BuildingBlock: CUKXOW_clean_sbu_0, # of connection points: 6
#     Edge 12, Type (0, 0), BuildingBlock: AJUNOK_clean_linker_0, # of connection points: 2
#     Edge 13, Type (0, 0), BuildingBlock: AJUNOK_clean_linker_0, # of connection points: 2
#     Edge 14, Type (0, 0), BuildingBlock: AJUNOK_clean_linker_0, # of connection points: 2
#     Edge 15, Type (0, 0), BuildingBlock: AJUNOK_clean_linker_0, # of connection points: 2
#     Edge 16, Type (0, 0), BuildingBlock: AJUNOK_clean_linker_0, # of connection points: 2
#     Edge 17, Type (0, 0), BuildingBlock: AJUNOK_clean_linker_0, # of connection points: 2
#     Edge 18, Type (0, 0), BuildingBlock: AJUNOK_clean_linker_0, # of connection points: 2
#     Edge 19, Type (0, 0), BuildingBlock: AJUNOK_clean_linker_0, # of connection points: 2
#     Edge 20, Type (0, 0), BuildingBlock: AJUNOK_clean_linker_0, # of connection points: 2
#     Edge 21, Type (0, 0), BuildingBlock: AJUNOK_clean_linker_0, # of connection points: 2
#     Edge 22, Type (0, 0), BuildingBlock: AJUNOK_clean_linker_0, # of connection points: 2
#     Edge 23, Type (0, 0), BuildingBlock: AJUNOK_clean_linker_0, # of connection points: 2
#     Edge 24, Type (0, 0), BuildingBlock: AJUNOK_clean_linker_0, # of connection points: 2
#     Edge 25, Type (0, 0), BuildingBlock: AJUNOK_clean_linker_0, # of connection points: 2
#     Edge 26, Type (0, 0), BuildingBlock: AJUNOK_clean_linker_0, # of connection points: 2
#     Edge 27, Type (0, 0), BuildingBlock: AJUNOK_clean_linker_0, # of connection points: 2
#     Edge 28, Type (0, 0), BuildingBlock: AJUNOK_clean_linker_0, # of connection points: 2
#     Edge 29, Type (0, 0), BuildingBlock: AJUNOK_clean_linker_0, # of connection points: 2
#     Edge 30, Type (0, 0), BuildingBlock: AJUNOK_clean_linker_0, # of connection points: 2
#     Edge 31, Type (0, 0), BuildingBlock: AJUNOK_clean_linker_0, # of connection points: 2
#     Edge 32, Type (0, 0), BuildingBlock: AJUNOK_clean_linker_0, # of connection points: 2
#     Edge 33, Type (0, 0), BuildingBlock: AJUNOK_clean_linker_0, # of connection points: 2
#     Edge 34, Type (0, 0), BuildingBlock: AJUNOK_clean_linker_0, # of connection points: 2
#     Edge 35, Type (0, 0), BuildingBlock: AJUNOK_clean_linker_0, # of connection points: 2
#     Edge 36, Type (0, 0), BuildingBlock: AJUNOK_clean_linker_0, # of connection points: 2
#     Edge 37, Type (0, 0), BuildingBlock: AJUNOK_clean_linker_0, # of connection points: 2
#     Edge 38, Type (0, 0), BuildingBlock: AJUNOK_clean_linker_0, # of connection points: 2
#     Edge 39, Type (0, 0), BuildingBlock: AJUNOK_clean_linker_0, # of connection points: 2
#     Edge 40, Type (0, 0), BuildingBlock: AJUNOK_clean_linker_0, # of connection points: 2
#     Edge 41, Type (0, 0), BuildingBlock: AJUNOK_clean_linker_0, # of connection points: 2
#     Edge 42, Type (0, 0), BuildingBlock: AJUNOK_clean_linker_0, # of connection points: 2
#     Edge 43, Type (0, 0), BuildingBlock: AJUNOK_clean_linker_0, # of connection points: 2
#     Edge 44, Type (0, 0), BuildingBlock: AJUNOK_clean_linker_0, # of connection points: 2
#     Edge 45, Type (0, 0), BuildingBlock: AJUNOK_clean_linker_0, # of connection points: 2
#     Edge 46, Type (0, 0), BuildingBlock: AJUNOK_clean_linker_0, # of connection points: 2
#     Edge 47, Type (0, 0), BuildingBlock: AJUNOK_clean_linker_0, # of connection points: 2
# Relax obj value: 0.172
# Max RMSD: 0.264
# Mean RMSD: 0.228
data_MOF--net-lcy-e--node1-CUKXOW_clean_sbu_0--edge1-AJUNOK_clean_linker_0
_symmetry_space_group_name_H-M    P1
_symmetry_Int_Tables_number       1
_symmetry_cell_setting            triclinic
loop_
_symmetry_equiv_pos_as_xyz
'x, y, z'
_cell_length_a     25.460368
_cell_length_b     27.750413
_cell_length_c     28.093311
_cell_angle_alpha  90.007066
_cell_angle_beta   91.608133
_cell_angle_gamma 88.03847
loop_
_atom_site_label
_atom_site_type_symbol
_atom_site_fract_x
_atom_site_fract_y
_atom_site_fract_z
_atom_type_partial_charge
Tb0 Tb 0.18944 0.18626 0.4259 0.0
C1 C 0.08694 0.12147 0.41169 0.0
Tb2 Tb 0.08771 0.20827 0.4836 0.0
O3 O 0.23283 0.16648 0.49243 0.0
O4 O 0.15355 0.16112 0.48623 0.0
O5 O 0.13335 0.13417 0.39478 0.0
C6 C 0.02306 0.20187 0.55491 0.0
O7 O 0.06373 0.14329 0.44797 0.0
C8 C 0.09478 0.25269 0.40243 0.0
C9 C 0.17662 0.28346 0.48575 0.0
O10 O 1.00903 0.2162 0.51207 0.0
O11 O 0.07312 0.19141 0.55683 0.0
O12 O 0.06686 0.27058 0.43687 0.0
O13 O 0.1124 0.21199 0.41407 0.0
O14 O 0.13953 0.26325 0.51037 0.0
O15 O 0.1988 0.2618 0.44862 0.0
C16 C 0.26531 0.17317 0.36385 0.0
O17 O 0.24812 0.14001 0.39153 0.0
O18 O 0.23848 0.21327 0.37005 0.0
C19 C 0.19092 0.15784 0.51573 0.0
Tb20 Tb 0.11657 0.93928 0.70429 0.0
C21 C 0.15469 0.83063 0.67655 0.0
Tb22 Tb 0.08906 0.85497 0.76436 0.0
O23 O 0.17272 0.96347 0.75899 0.0
O24 O 0.15898 0.89132 0.75066 0.0
O25 O 0.14411 0.87573 0.66088 0.0
C26 C 0.09134 0.79991 0.8415 0.0
O27 O 0.14402 0.81687 0.72012 0.0
C28 C 0.02949 0.87025 0.68812 0.0
C29 C 0.03037 0.95641 0.78386 0.0
O30 O 0.06403 0.79166 0.80264 0.0
O31 O 0.11621 0.83952 0.83697 0.0
O32 O 0.03803 0.82729 0.70602 0.0
O33 O 0.04929 0.90075 0.71514 0.0
O34 O 0.04635 0.91368 0.80138 0.0
O35 O 0.04793 0.97127 0.74207 0.0
C36 C 0.13808 1.00791 0.64281 0.0
O37 O 0.13524 1.01323 0.68832 0.0
O38 O 0.12689 0.964 0.63124 0.0
C39 C 0.18321 0.92098 0.77591 0.0
Tb40 Tb 0.45745 0.84102 0.97046 0.0
C41 C 0.35038 0.86389 0.9067 0.0
Tb42 Tb 0.35118 0.80162 0.99936 0.0
O43 O 0.47971 0.77187 0.93497 0.0
O44 O 0.40332 0.79236 0.94286 0.0
O45 O 0.40063 0.87523 0.91602 0.0
C46 C 0.27655 0.73812 1.0021 0.0
O47 O 0.32555 0.83296 0.93296 0.0
C48 C 0.3676 0.89009 0.02433 0.0
C49 C 0.44828 0.78164 0.07029 0.0
O50 O 0.27396 0.78012 0.02273 0.0
O51 O 0.32191 0.73125 0.98309 0.0
O52 O 0.32072 0.87303 1.01946 0.0
O53 O 0.4018 0.85609 0.02302 0.0
O54 O 0.40096 0.76874 0.05533 0.0
O55 O 0.47625 0.8124 0.04475 0.0
C56 C 0.53523 0.90105 0.9498 0.0
O57 O 0.54051 0.85458 0.95533 0.0
O58 O 0.48632 0.91339 0.95652 0.0
C59 C 0.43169 0.75809 0.92803 0.0
Tb60 Tb 0.46033 0.14776 0.14242 0.0
C61 C 0.41929 0.25817 0.13937 0.0
Tb62 Tb 0.51603 0.22509 0.20602 0.0
O63 O 0.44084 0.11386 0.20942 0.0
O64 O 0.44483 0.18779 0.20509 0.0
O65 O 0.41817 0.21468 0.11864 0.0
C66 C 0.53628 0.25599 0.29443 0.0
O67 O 0.45072 0.26866 0.17641 0.0
C68 C 0.56134 0.21463 0.12251 0.0
C69 C 0.56366 0.11769 0.19729 0.0
O70 O 0.53573 0.28339 0.25646 0.0
O71 O 0.526 0.21236 0.28188 0.0
O72 O 0.5774 0.24492 0.15512 0.0
O73 O 0.52281 0.19407 0.13938 0.0
O74 O 0.55828 0.15724 0.22347 0.0
O75 O 0.53447 0.10935 0.15865 0.0
C76 C 0.41168 0.08188 0.0905 0.0
O77 O 0.45218 0.10526 0.0769 0.0
O78 O 0.39731 0.09792 0.13146 0.0
C79 C 0.43551 0.15378 0.23278 0.0
Tb80 Tb 0.62138 0.36849 0.57968 0.0
C81 C 0.73734 0.39633 0.61811 0.0
Tb82 Tb 0.71705 0.32683 0.53302 0.0
O83 O 0.60773 0.29779 0.6111 0.0
O84 O 0.68304 0.31898 0.60134 0.0
O85 O 0.68547 0.40656 0.61779 0.0
C86 C 0.76903 0.24435 0.51088 0.0
O87 O 0.75864 0.3628 0.5901 0.0
C88 C 0.68574 0.41383 0.50123 0.0
C89 C 0.60506 0.31029 0.48429 0.0
O90 O 0.77976 0.28688 0.49411 0.0
O91 O 0.73164 0.24978 0.54081 0.0
O92 O 0.73404 0.39643 0.4981 0.0
O93 O 0.6581 0.37996 0.51505 0.0
O94 O 0.65439 0.2946 0.49005 0.0
O95 O 0.58543 0.34528 0.51145 0.0
C96 C 0.53955 0.41724 0.61543 0.0
O97 O 0.54402 0.37093 0.6111 0.0
O98 O 0.58171 0.4365 0.59997 0.0
C99 C 0.65678 0.28478 0.61669 0.0
Tb100 Tb 0.93302 0.44485 0.85598 0.0
C101 C 0.88359 0.34102 0.86691 0.0
Tb102 Tb 0.96584 0.36106 0.79187 0.0
O103 O 0.88631 0.48009 0.79773 0.0
O104 O 0.89864 0.407 0.79814 0.0
O105 O 0.89701 0.38104 0.89048 0.0
C106 C 0.96857 0.29891 0.72073 0.0
O107 O 0.89566 0.33533 0.8219 0.0
C108 C 1.01117 0.36149 0.87676 0.0
C109 C 0.03099 0.45567 0.78712 0.0
O110 O 0.99135 0.2919 0.76216 0.0
O111 O 0.94739 0.34197 0.71846 0.0
O112 O 1.00469 0.32211 0.85257 0.0
O113 O 0.99822 0.39708 0.85094 0.0
O114 O 1.01476 0.41697 0.76373 0.0
O115 O 1.00916 0.46921 0.8281 0.0
C116 C 0.91359 0.51496 0.91953 0.0
O117 O 0.92667 0.52086 0.87588 0.0
O118 O 0.91163 0.46895 0.92803 0.0
C119 C 0.88251 0.44155 0.77242 0.0
Tb120 Tb 0.85379 0.70327 0.13609 0.0
C121 C 0.96182 0.63996 0.14893 0.0
Tb122 Tb 0.9589 0.73701 0.09186 0.0
O123 O 0.82473 0.68152 0.06535 0.0
O124 O 0.90319 0.68228 0.0806 0.0
O125 O 0.91064 0.64468 0.15835 0.0
C126 C 1.02226 0.73783 1.01903 0.0
O127 O 0.9884 0.67239 0.1259 0.0
C128 C 0.94443 0.77421 0.17702 0.0
C129 C 0.86043 0.80801 0.08977 0.0
O130 O 0.03594 0.75011 0.0623 0.0
O131 O 0.97306 0.72735 1.01697 0.0
O132 O 0.9853 0.78325 0.1517 0.0
O133 O 0.91642 0.74643 0.15293 0.0
O134 O 0.90399 0.79389 0.06824 0.0
O135 O 0.83711 0.7808 0.12166 0.0
C136 C 0.77572 0.6732 0.1887 0.0
O137 O 0.77037 0.69841 0.14992 0.0
O138 O 0.82541 0.66611 0.19907 0.0
C139 C 0.87068 0.67525 0.04713 0.0
Tb140 Tb 0.57126 0.69411 0.36407 0.0
C141 C 0.58655 0.58714 0.40926 0.0
Tb142 Tb 0.50233 0.6082 0.32853 0.0
O143 O 0.52579 0.7141 0.4275 0.0
O144 O 0.50157 0.66103 0.3829 0.0
O145 O 0.61015 0.62817 0.39784 0.0
C146 C 0.41915 0.55617 0.30515 0.0
O147 O 0.53818 0.57788 0.39338 0.0
C148 C 0.5969 0.61431 0.29368 0.0
C149 C 0.49991 0.70573 0.2654 0.0
O150 O 0.46794 0.54108 0.30349 0.0
O151 O 0.41742 0.60019 0.32094 0.0
O152 O 0.57213 0.57404 0.29454 0.0
O153 O 0.56576 0.64716 0.30634 0.0
O154 O 0.47924 0.66298 0.27383 0.0
O155 O 0.53655 0.7238 0.29515 0.0
C156 C 0.64089 0.76342 0.37414 0.0
O157 O 0.59027 0.77024 0.36971 0.0
O158 O 0.65237 0.71721 0.37305 0.0
C159 C 0.49069 0.68174 0.42168 0.0
Tb160 Tb 0.16738 0.40113 0.15655 0.0
C161 C 0.11898 0.40022 0.05455 0.0
Tb162 Tb 0.19421 0.48231 0.09288 0.0
O163 O 0.08491 0.42568 0.15604 0.0
O164 O 0.14485 0.47477 0.15082 0.0
O165 O 0.13274 0.37158 0.09114 0.0
C166 C 0.18468 0.565 0.04525 0.0
O167 O 0.13484 0.44514 0.05134 0.0
C168 C 0.26594 0.4125 0.09608 0.0
C169 C 0.25232 0.47461 0.19068 0.0
O170 O 0.2067 0.52546 0.02938 0.0
O171 O 0.16909 0.55782 0.08799 0.0
O172 O 0.27609 0.45725 0.08736 0.0
O173 O 0.21686 0.40817 0.09774 0.0
O174 O 0.23346 0.50517 0.1579 0.0
O175 O 0.23836 0.42904 0.19151 0.0
C176 C 0.15562 0.34857 0.2329 0.0
O177 O 0.15329 0.39498 0.23103 0.0
O178 O 0.16595 0.33046 0.1911 0.0
C179 C 0.09586 0.47017 0.14944 0.0
Tb180 Tb 0.73641 0.11497 0.86553 0.0
C181 C 0.68389 0.14517 0.96622 0.0
Tb182 Tb 0.77844 0.07142 0.96155 0.0
O183 O 0.70247 0.04492 0.8472 0.0
O184 O 0.71115 0.06542 0.91664 0.0
O185 O 0.68883 0.15515 0.9197 0.0
C186 C 0.79551 0.9994 0.02428 0.0
O187 O 0.7117 0.1107 0.98904 0.0
C188 C 0.81151 0.15743 0.94075 0.0
C189 C 0.83957 0.04652 0.86606 0.0
O190 O 0.82707 0.03464 1.01742 0.0
O191 O 0.7542 1.00583 0.99673 0.0
O192 O 0.80912 0.1416 0.98448 0.0
O193 O 0.8017 0.12325 0.91241 0.0
O194 O 0.82745 0.03343 0.90975 0.0
O195 O 0.81203 0.08149 0.84286 0.0
C196 C 0.70925 0.1699 0.78817 0.0
O197 O 0.69541 0.12604 0.79569 0.0
O198 O 0.73707 0.18326 0.82499 0.0
C199 C 0.69856 0.03045 0.89089 0.0
Tb200 Tb 0.8838 0.95334 0.42824 0.0
C201 C 0.88295 0.89218 0.33477 0.0
Tb202 Tb 0.81149 0.9863 0.34521 0.0
O203 O 0.8405 0.88895 0.43926 0.0
O204 O 0.80154 0.95005 0.41099 0.0
O205 O 0.91318 0.9063 0.37143 0.0
C206 C 0.72863 1.00102 0.28586 0.0
O207 O 0.83786 0.91487 0.32215 0.0
C208 C 0.90483 1.02501 0.3479 0.0
C209 C 0.8268 0.05647 0.43082 0.0
O210 O 0.77748 1.00129 0.27359 0.0
O211 O 0.72719 0.99145 0.33088 0.0
O212 O 0.86327 0.04582 0.328 0.0
O213 O 0.89322 0.98362 0.36071 0.0
O214 O 0.79339 0.04191 0.39731 0.0
O215 O 0.86935 0.03037 0.44409 0.0
C216 C 0.93934 0.93812 0.50868 0.0
O217 O 0.89281 0.95826 0.50501 0.0
O218 O 0.95606 0.92777 0.46635 0.0
C219 C 0.79712 0.90552 0.41983 0.0
Tb220 Tb 0.31296 0.60753 0.68305 0.0
C221 C 0.35202 0.61857 0.57282 0.0
Tb222 Tb 0.25913 0.55482 0.59834 0.0
O223 O 0.34371 0.53772 0.70932 0.0
O224 O 0.33097 0.54908 0.63823 0.0
O225 O 0.35071 0.63709 0.6174 0.0
C226 C 0.23156 0.47781 0.54599 0.0
O227 O 0.32237 0.58256 0.55913 0.0
C228 C 0.23098 0.64667 0.60894 0.0
C229 C 0.21522 0.54176 0.7018 0.0
O230 O 0.19987 0.51293 0.55916 0.0
O231 O 0.2788 0.48746 0.56068 0.0
O232 O 0.22437 0.62315 0.56902 0.0
O233 O 0.24372 0.61656 0.6412 0.0
O234 O 0.22259 0.52326 0.65907 0.0
O235 O 0.24292 0.57875 0.71786 0.0
C236 C 0.35472 0.6613 0.75444 0.0
O237 O 0.30549 0.66137 0.74074 0.0
O238 O 0.3806 0.63278 0.72621 0.0
C239 C 0.34733 0.51774 0.66778 0.0
C240 C 0.24145 0.35024 0.49472 0.0
C241 C 0.18996 0.33398 0.49837 0.0
C242 C 0.25434 0.39726 0.509 0.0
C243 C 0.21598 0.4303 0.5262 0.0
H244 H 0.27232 0.32602 0.48217 0.0
H245 H 0.29488 0.4076 0.50715 0.0
S246 S 0.07441 0.40701 0.53868 0.0
N247 N 0.09979 0.35584 0.51814 0.0
N248 N 0.1238 0.44388 0.54368 0.0
C249 C 0.16401 0.41508 0.52811 0.0
C250 C 0.15109 0.36707 0.51455 0.0
C251 C 0.90694 0.03821 0.8007 0.0
C252 C 0.8886 1.02378 0.84531 0.0
C253 C 0.95375 1.01797 0.78185 0.0
C254 C 0.98441 0.98215 0.80658 0.0
H255 H 0.88495 0.06534 0.77996 0.0
H256 H 0.96536 0.02987 0.74711 0.0
S257 S 0.95635 0.93348 0.92626 0.0
N258 N 0.90718 0.97224 0.91453 0.0
N259 N 0.99403 0.93518 0.87956 0.0
C260 C 0.96722 0.96831 0.85171 0.0
C261 C 0.91976 0.98871 0.87084 0.0
C262 C 0.2062 0.69718 0.04393 0.0
C263 C 0.23776 0.70065 1.00411 0.0
C264 C 0.18278 0.65368 0.05426 0.0
C265 C 0.19076 0.61302 0.02501 0.0
H266 H 0.20394 0.72627 0.06959 0.0
H267 H 0.16297 0.65063 0.08771 0.0
S268 S 0.2548 0.61008 0.9083 0.0
N269 N 0.26446 0.66479 0.92918 0.0
N270 N 0.22055 0.58279 0.94881 0.0
C271 C 0.21509 0.61871 0.98139 0.0
C272 C 0.23882 0.66284 0.97089 0.0
C273 C 0.59814 0.06479 0.26202 0.0
C274 C 0.60164 0.0805 0.21485 0.0
C275 C 0.63781 0.03546 0.2832 0.0
C276 C 0.68321 1.02196 0.25836 0.0
H277 H 0.56525 0.07668 0.28329 0.0
H278 H 0.63421 0.02589 0.32033 0.0
S279 S 0.70835 0.04984 0.13204 0.0
N280 N 0.65091 0.07701 0.14207 0.0
N281 N 0.72714 1.02293 0.18252 0.0
C282 C 0.68583 0.03516 0.21015 0.0
C283 C 0.64456 0.0643 0.18819 0.0
C284 C 0.83457 0.18807 0.47006 0.0
C285 C 0.78623 0.1961 0.49247 0.0
C286 C 0.84899 0.1421 0.45181 0.0
C287 C 0.81488 0.10323 0.45436 0.0
H288 H 0.86126 0.21735 0.4666 0.0
H289 H 0.88618 0.13734 0.43428 0.0
S290 S 0.68434 0.10502 0.5092 0.0
N291 N 0.705 0.16031 0.51667 0.0
N292 N 0.73149 0.07557 0.48101 0.0
C293 C 0.76684 0.11084 0.47664 0.0
C294 C 0.7527 0.15682 0.49608 0.0
C295 C 0.10543 0.45759 0.73076 0.0
C296 C 0.07904 0.47934 0.76903 0.0
C297 C 0.15017 0.47718 0.71168 0.0
C298 C 0.17153 0.52025 0.7291 0.0
H299 H 0.0915 0.42473 0.71475 0.0
H300 H 0.16756 0.4582 0.682 0.0
S301 S 0.12009 0.59096 0.83103 0.0
N302 N 0.07966 0.54577 0.8257 0.0
N303 N 0.16366 0.58324 0.78892 0.0
C304 C 0.14674 0.54209 0.76835 0.0
C305 C 0.10069 0.52165 0.78834 0.0
C306 C 0.86278 0.94072 0.05827 0.0
C307 C 0.80962 0.95343 0.04917 0.0
C308 C 0.87826 0.89398 0.07303 0.0
C309 C 0.84119 0.85825 0.08013 0.0
H310 H 0.89299 0.96622 0.05149 0.0
H311 H 0.91992 0.88541 0.07781 0.0
S312 S 0.69656 0.87467 0.06598 0.0
N313 N 0.71934 0.92758 0.0514 0.0
N314 N 0.74863 0.83997 0.08048 0.0
C315 C 0.78766 0.87131 0.07413 0.0
C316 C 0.77185 0.91882 0.05823 0.0
C317 C 0.32925 0.55992 0.26839 0.0
C318 C 0.37415 0.53202 0.28238 0.0
C319 C 0.28932 0.54042 0.23991 0.0
C320 C 0.29215 0.49198 0.22527 0.0
H321 H 0.32599 0.59781 0.27753 0.0
H322 H 0.25641 0.5638 0.22847 0.0
S323 S 0.39904 0.40231 0.25624 0.0
N324 N 0.41785 0.45271 0.28191 0.0
N325 N 0.34167 0.41551 0.2296 0.0
C326 C 0.33534 0.46283 0.24129 0.0
C327 C 0.37668 0.48302 0.26952 0.0
C328 C 0.54769 0.3186 0.35866 0.0
C329 C 0.54878 0.26999 0.34433 0.0
C330 C 0.56166 0.33151 0.40575 0.0
C331 C 0.57787 0.29623 0.43962 0.0
H332 H 0.53689 0.3468 0.3332 0.0
H333 H 0.56267 0.36941 0.41493 0.0
S334 S 0.58562 0.16417 0.42082 0.0
N335 N 0.56499 0.18645 0.36885 0.0
N336 N 0.59268 0.21111 0.45624 0.0
C337 C 0.57773 0.24768 0.42606 0.0
C338 C 0.56276 0.23445 0.37869 0.0
C339 C 1.01828 0.19988 0.64198 0.0
C340 C 0.99402 0.21267 0.598 0.0
C341 C 1.0066 0.22577 0.68309 0.0
C342 C 0.97022 0.26483 0.6811 0.0
H343 H 0.05032 0.17312 0.64381 0.0
H344 H 0.02936 0.21773 0.71545 0.0
S345 S 0.88371 0.30148 0.57817 0.0
N346 N 0.92314 0.2585 0.5572 0.0
N347 N 0.90075 0.3073 0.635 0.0
C348 C 0.94002 0.27302 0.6391 0.0
C349 C 0.95186 0.24652 0.59722 0.0
C350 C 0.10519 0.79594 0.92923 0.0
C351 C 0.08638 0.77457 0.88689 0.0
C352 C 0.08884 0.78023 0.97362 0.0
C353 C 0.05332 0.74292 0.97643 0.0
H354 H 0.12917 0.8274 0.92801 0.0
H355 H 0.10014 0.80022 1.00519 0.0
S356 S 1.00525 0.66663 0.87726 0.0
N357 N 0.03978 0.70798 0.8513 0.0
N358 N 1.00906 0.67836 0.93486 0.0
C359 C 0.03997 0.71734 0.93497 0.0
C360 C 0.05656 0.73326 0.88994 0.0
C361 C 0.44618 0.71114 0.18829 0.0
C362 C 0.48758 0.72878 0.21697 0.0
C363 C 0.43556 0.72774 0.14147 0.0
C364 C 0.46555 0.76326 0.11966 0.0
H365 H 0.4214 0.68366 0.20194 0.0
H366 H 0.40285 0.71214 0.12223 0.0
S367 S 0.57982 0.82141 0.17809 0.0
N368 N 0.55996 0.78396 0.2191 0.0
N369 N 0.53963 0.81531 0.1314 0.0
C370 C 0.50745 0.78134 0.14766 0.0
C371 C 0.51837 0.7643 0.19594 0.0
C372 C 0.1059 0.32644 0.35524 0.0
C373 C 0.10817 0.2762 0.35823 0.0
C374 C 0.12253 0.34934 0.31448 0.0
C375 C 0.14136 0.32258 0.27545 0.0
H376 H 0.09229 0.34814 0.38481 0.0
H377 H 0.12027 0.38839 0.31359 0.0
S378 S 0.15359 0.18989 0.26557 0.0
N379 N 0.12967 0.20002 0.31877 0.0
N380 N 0.1608 0.24363 0.24195 0.0
C381 C 0.14339 0.27236 0.27782 0.0
C382 C 0.12669 0.24897 0.31938 0.0
C383 C 1.02015 0.8643 0.59964 0.0
C384 C 1.00283 0.88363 0.64286 0.0
C385 C 1.00097 0.88325 0.5559 0.0
C386 C 0.96354 0.92173 0.55434 0.0
H387 H 0.0499 0.83568 0.59959 0.0
H388 H 1.01502 0.86733 0.52322 0.0
S389 S 0.90563 0.98443 0.65815 0.0
N390 N 0.94661 0.94304 0.68171 0.0
N391 N 0.90979 0.97822 0.59992 0.0
C392 C 0.94578 0.94102 0.5975 0.0
C393 C 0.96566 0.92207 0.6417 0.0
C394 C 0.34157 0.70667 0.83083 0.0
C395 C 0.37619 0.68462 0.79867 0.0
C396 C 0.36004 0.72779 0.87337 0.0
C397 C 0.41405 0.72855 0.88595 0.0
H398 H 0.29961 0.70773 0.82316 0.0
H399 H 0.33137 0.74479 0.89602 0.0
S400 S 0.52144 0.67397 0.81481 0.0
N401 N 0.46747 0.66311 0.78314 0.0
N402 N 0.50204 0.70356 0.86261 0.0
C403 C 0.44918 0.7057 0.85452 0.0
C404 C 0.43031 0.68374 0.8111 0.0
C405 C 0.57418 0.16053 0.05208 0.0
C406 C 0.58712 0.20277 0.07679 0.0
C407 C 0.60274 0.14456 1.0127 0.0
C408 C 0.64452 0.1708 0.9955 0.0
H409 H 0.54393 0.13794 0.06497 0.0
H410 H 0.59432 0.10969 0.9976 0.0
S411 S 0.69242 0.28535 0.0452 0.0
N412 N 0.64333 0.2719 0.07956 0.0
N413 N 0.69636 0.24198 1.00502 0.0
C414 C 0.65618 0.21438 1.01817 0.0
C415 C 0.62759 0.23039 0.05885 0.0
C416 C 0.64455 0.21361 0.67048 0.0
C417 C 0.6745 0.2532 0.6578 0.0
C418 C 0.65648 0.18645 0.71212 0.0
C419 C 0.69798 0.19854 0.74368 0.0
H420 H 0.61111 0.20385 0.64825 0.0
H421 H 0.63216 0.15641 0.72022 0.0
S422 S 0.78982 0.29779 0.72673 0.0
N423 N 0.74935 0.30152 0.67981 0.0
N424 N 0.77015 0.25202 0.75844 0.0
C425 C 0.72863 0.23762 0.73121 0.0
C426 C 0.71738 0.26448 0.68824 0.0
C427 C 0.05388 0.42029 0.99061 0.0
C428 C 0.08442 0.38441 1.0148 0.0
C429 C 0.02938 0.41151 0.94692 0.0
C430 C 0.03293 0.36599 0.92564 0.0
H431 H 0.05078 0.45656 1.00421 0.0
H432 H 1.00923 0.44151 0.92888 0.0
S433 S 0.10228 0.25728 0.97649 0.0
N434 N 0.11349 0.30004 1.01614 0.0
N435 N 0.06506 0.2827 0.93364 0.0
C436 C 0.05989 0.32833 0.95071 0.0
C437 C 0.08599 0.33766 0.99553 0.0
C438 C 0.95324 0.85438 0.2858 0.0
C439 C 0.90174 0.85419 0.30241 0.0
C440 C 0.96755 0.82651 0.24622 0.0
C441 C 0.93102 0.79717 0.22269 0.0
H442 H 0.98146 0.87865 0.30127 0.0
H443 H 1.00677 0.82954 0.23278 0.0
S444 S 0.79332 0.77955 0.25711 0.0
N445 N 0.8157 0.81944 0.29545 0.0
N446 N 0.84293 0.76595 0.22241 0.0
C447 C 0.88071 0.79402 0.24148 0.0
C448 C 0.86597 0.82289 0.28107 0.0
C449 C 0.39241 0.61076 0.49185 0.0
C450 C 0.38793 0.63648 0.53538 0.0
C451 C 0.42466 0.6257 0.45507 0.0
C452 C 0.45418 0.66722 0.45973 0.0
H453 H 0.37099 0.57818 0.48581 0.0
H454 H 0.42686 0.6042 0.42297 0.0
S455 S 0.45717 0.74826 0.56545 0.0
N456 N 0.41643 0.70605 0.58015 0.0
N457 N 0.47679 0.73438 0.51145 0.0
C458 C 0.45019 0.69352 0.50283 0.0
C459 C 0.41733 0.67814 0.54044 0.0
C460 C 0.32839 0.20787 0.30833 0.0
C461 C 0.31099 0.16763 0.33299 0.0
C462 C 0.37121 0.20376 0.27825 0.0
C463 C 0.39774 0.1591 0.2714 0.0
H464 H 0.30835 0.24274 0.31169 0.0
H465 H 0.38213 0.23543 0.25878 0.0
S466 S 0.37057 0.04378 0.33105 0.0
N467 N 0.32583 0.08248 0.35131 0.0
N468 N 0.40608 0.07466 0.29424 0.0
C469 C 0.38212 0.11903 0.29736 0.0
C470 C 0.33867 0.12328 0.3282 0.0
C471 C 0.17565 0.12964 0.59734 0.0
C472 C 0.19001 0.11919 0.55065 0.0
C473 C 0.15961 0.09295 0.62728 0.0
C474 C 0.15633 0.04516 0.61082 0.0
H475 H 0.17434 0.16656 0.60994 0.0
H476 H 0.14793 0.10242 0.66296 0.0
S477 S 0.19083 0.99994 0.49123 0.0
N478 N 0.20165 0.05824 0.48942 0.0
N479 N 0.17055 0.98926 0.54543 0.0
C480 C 0.17194 0.03422 0.56452 0.0
C481 C 0.18913 0.07134 0.53446 0.0
C482 C 0.24229 0.85915 0.81451 0.0
C483 C 0.23155 0.90779 0.80381 0.0
C484 C 0.28546 0.84519 0.84337 0.0
C485 C 0.31983 0.87912 0.86323 0.0
H486 H 0.21611 0.8316 0.80201 0.0
H487 H 0.28959 0.80751 0.85286 0.0
S488 S 0.31734 1.00932 0.83438 0.0
N489 N 0.26417 0.98918 0.80709 0.0
N490 N 0.34644 0.9621 0.86113 0.0
C491 C 0.31312 0.92713 0.84822 0.0
C492 C 0.26848 0.94171 0.81882 0.0
C493 C 0.38791 0.99716 0.10476 0.0
C494 C 0.39708 0.03446 0.07233 0.0
C495 C 0.37887 0.95021 0.08887 0.0
C496 C 0.37793 0.93942 0.04013 0.0
H497 H 0.38926 1.00395 0.14275 0.0
H498 H 0.37276 0.9222 0.11481 0.0
S499 S 0.39379 0.02581 0.94151 0.0
N500 N 0.40196 0.05843 0.99 0.0
N501 N 0.38274 0.97049 0.95965 0.0
C502 C 0.38521 0.97677 1.00747 0.0
C503 C 0.39547 1.0243 0.02373 0.0
C504 C 0.86262 0.42474 0.68699 0.0
C505 C 0.84458 0.43657 0.73231 0.0
C506 C 0.82722 0.41497 0.64936 0.0
C507 C 0.77242 0.41658 0.65571 0.0
H508 H 0.9044 0.42211 0.68076 0.0
H509 H 0.84309 0.40458 0.61535 0.0
S510 S 0.70577 0.44873 0.76777 0.0
N511 N 0.76907 0.45201 0.78148 0.0
N512 N 0.70215 0.43345 0.71096 0.0
C513 C 0.75395 0.43075 0.70055 0.0
C514 C 0.79018 0.44068 0.73886 0.0
C515 C 0.89955 0.60293 0.93583 0.0
C516 C 0.90174 0.55502 0.95279 0.0
C517 C 0.8889 0.64203 0.96626 0.0
C518 C 0.87971 0.63439 1.01453 0.0
H519 H 0.90613 0.61034 0.89867 0.0
H520 H 0.88816 0.67834 0.95203 0.0
S521 S 0.88089 0.51652 0.07693 0.0
N522 N 0.8941 0.50255 1.02128 0.0
N523 N 0.87293 0.57583 0.07818 0.0
C524 C 0.88113 0.58678 0.03188 0.0
C525 C 0.89243 0.54709 1.00108 0.0
C526 C 0.68149 0.67763 0.20762 0.0
C527 C 0.73142 0.65576 0.21574 0.0
C528 C 0.6381 0.66253 0.23213 0.0
C529 C 0.64268 0.62445 0.2651 0.0
H530 H 0.6759 0.70726 0.18265 0.0
H531 H 0.60059 0.68107 0.22525 0.0
S532 S 0.76411 0.55363 0.2977 0.0
N533 N 0.78305 0.59319 0.25823 0.0
N534 N 0.70036 0.56416 0.30387 0.0
C535 C 0.69193 0.60127 0.2728 0.0
C536 C 0.73668 0.61723 0.2483 0.0
C537 C 0.60843 0.46988 0.4804 0.0
C538 C 0.66326 0.46086 0.48102 0.0
C539 C 0.58493 0.51166 0.45928 0.0
C540 C 0.61478 0.54727 0.43772 0.0
H541 H 0.58292 0.44385 0.49552 0.0
H542 H 0.54244 0.51547 0.45911 0.0
S543 S 0.76052 0.54339 0.43264 0.0
N544 N 0.74728 0.49281 0.46024 0.0
N545 N 0.70326 0.57132 0.42084 0.0
C546 C 0.66995 0.53981 0.43977 0.0
C547 C 0.69403 0.49676 0.46117 0.0
C548 C 0.29145 0.32463 0.10342 0.0
C549 C 0.30597 0.37315 0.1037 0.0
C550 C 0.32888 0.28704 0.11247 0.0
C551 C 0.38175 0.29691 0.12303 0.0
H552 H 0.25084 0.31566 0.09665 0.0
H553 H 0.31594 0.25026 0.11313 0.0
S554 S 0.44011 0.41761 0.12659 0.0
N555 N 0.37724 0.42872 0.11359 0.0
N556 N 0.44702 0.35844 0.13158 0.0
C557 C 0.3968 0.34519 0.12255 0.0
C558 C 0.35904 0.38323 0.11261 0.0
C559 C 0.8513 0.25745 0.85921 0.0
C560 C 0.85993 0.2977 0.88905 0.0
C561 C 0.83657 0.21309 0.87683 0.0
C562 C 0.8276 0.20616 0.92521 0.0
H563 H 0.85779 0.25906 0.82135 0.0
H564 H 0.83326 0.1835 0.85193 0.0
S565 S 0.84365 0.29845 1.01988 0.0
N566 N 0.85875 0.32686 0.97062 0.0
N567 N 0.8283 0.24325 1.00372 0.0
C568 C 0.83501 0.24577 0.95604 0.0
C569 C 0.85143 0.29148 0.93799 0.0
C570 C 0.03216 0.52474 0.19115 0.0
C571 C 0.05707 0.51019 0.14909 0.0
C572 C 0.99796 0.56569 0.19143 0.0
C573 C 0.98796 0.59219 0.14945 0.0
H574 H 0.04074 0.50549 0.22416 0.0
H575 H 0.98147 0.57785 0.22465 0.0
S576 S 0.03835 0.56468 0.02934 0.0
N577 N 0.06592 0.52284 0.06448 0.0
N578 N 1.00121 0.59831 0.06418 0.0
C579 C 1.01016 0.57578 0.10685 0.0
C580 C 0.04505 0.5351 0.10688 0.0
C581 C 0.77 0.82334 0.39843 0.0
C582 C 0.75565 0.87254 0.40367 0.0
C583 C 0.73279 0.78884 0.38755 0.0
C584 C 0.67931 0.80184 0.38191 0.0
H585 H 0.81066 0.811 0.40315 0.0
H586 H 0.74609 0.75149 0.38445 0.0
S587 S 0.6206 0.92578 0.39181 0.0
N588 N 0.68409 0.93255 0.40243 0.0
N589 N 0.61352 0.86771 0.38132 0.0
C590 C 0.66419 0.85107 0.38604 0.0
C591 C 0.70249 0.88644 0.3971 0.0
C592 C 0.44721 0.41738 0.6431 0.0
C593 C 0.49195 0.44326 0.63168 0.0
C594 C 0.40019 0.44134 0.6558 0.0
C595 C 0.39686 0.49174 0.6576 0.0
H596 H 0.44819 0.37837 0.64136 0.0
H597 H 0.36622 0.42049 0.66342 0.0
S598 S 0.50281 0.5761 0.63285 0.0
N599 N 0.52988 0.522 0.62417 0.0
N600 N 0.44204 0.56689 0.64872 0.0
C601 C 0.44156 0.51793 0.64739 0.0
C602 C 0.48908 0.4937 0.63425 0.0
C603 C 0.16456 0.71576 0.60504 0.0
C604 C 0.21555 0.69818 0.61756 0.0
C605 C 0.14629 0.76174 0.61995 0.0
C606 C 0.17887 0.79254 0.64646 0.0
H607 H 0.13738 0.69254 0.58656 0.0
H608 H 0.10524 0.77148 0.61378 0.0
S609 S 0.31786 0.7665 0.68265 0.0
N610 N 0.29987 0.7174 0.65413 0.0
N611 N 0.26567 0.80352 0.68133 0.0
C612 C 0.23091 0.77662 0.65626 0.0
C613 C 0.24925 0.7296 0.64193 0.0
C614 C 0.62893 0.91686 0.92778 0.0
C615 C 0.57712 0.93433 0.93553 0.0
C616 C 0.66831 0.94781 0.91288 0.0
C617 C 0.65721 0.99725 0.90514 0.0
H618 H 0.63915 0.87901 0.93316 0.0
H619 H 0.70765 0.93302 0.90763 0.0
S620 S 0.52882 0.06137 0.92034 0.0
N621 N 0.51789 1.00491 0.9345 0.0
N622 N 0.5913 0.06225 0.90635 0.0
C623 C 0.60596 1.01512 0.91293 0.0
C624 C 0.5661 0.98389 0.92814 0.0
C625 C 0.99512 1.02233 0.38524 0.0
C626 C 0.9567 0.04638 0.35603 0.0
C627 C 0.04162 0.04478 0.39932 0.0
C628 C 0.05186 0.09131 0.38331 0.0
H629 H 0.9879 0.98708 0.39959 0.0
H630 H 0.0679 0.02705 0.42535 0.0
S631 S 0.96675 0.16776 0.30274 0.0
N632 N 0.93399 0.11788 0.30888 0.0
N633 N 1.02181 0.15953 0.3346 0.0
C634 C 1.01566 0.11419 0.35136 0.0
C635 C 0.96793 0.09184 0.33781 0.0
loop_
_geom_bond_atom_site_label_1
_geom_bond_atom_site_label_2
_geom_bond_distance
_geom_bond_site_symmetry_2
_ccdc_geom_bond_type
Tb0 O3 2.453 . S
Tb0 O4 2.596 . S
Tb0 O5 2.374 . S
Tb0 O13 2.343 . S
Tb0 O15 2.353 . S
Tb0 O17 2.427 . S
Tb0 O18 2.513 . S
C1 O5 1.251 . S
C1 O7 1.263 . S
Tb2 O4 2.343 . S
Tb2 O7 2.353 . S
Tb2 O10 2.427 . S
Tb2 O11 2.513 . S
Tb2 O12 2.453 . S
Tb2 O13 2.596 . S
Tb2 O14 2.374 . S
O3 Tb0 2.453 . S
O3 C19 1.245 . S
O4 Tb0 2.596 . S
O4 Tb2 2.343 . S
O4 C19 1.259 . S
O5 Tb0 2.374 . S
O5 C1 1.251 . S
C6 O10 1.275 . S
C6 O11 1.246 . S
O7 C1 1.263 . S
O7 Tb2 2.353 . S
C8 O12 1.245 . S
C8 O13 1.259 . S
C9 O14 1.250 . S
C9 O15 1.263 . S
O10 Tb2 2.427 . S
O10 C6 1.275 . S
O11 Tb2 2.513 . S
O11 C6 1.246 . S
O12 Tb2 2.453 . S
O12 C8 1.245 . S
O13 Tb0 2.343 . S
O13 Tb2 2.596 . S
O13 C8 1.259 . S
O14 Tb2 2.374 . S
O14 C9 1.250 . S
O15 Tb0 2.353 . S
O15 C9 1.263 . S
C16 O17 1.275 . S
C16 O18 1.246 . S
O17 Tb0 2.427 . S
O17 C16 1.275 . S
O18 Tb0 2.513 . S
O18 C16 1.246 . S
C19 O3 1.245 . S
C19 O4 1.259 . S
Tb20 O23 2.453 . S
Tb20 O24 2.596 . S
Tb20 O25 2.374 . S
Tb20 O33 2.343 . S
Tb20 O35 2.353 . S
Tb20 O37 2.427 . S
Tb20 O38 2.513 . S
C21 O25 1.251 . S
C21 O27 1.263 . S
Tb22 O24 2.343 . S
Tb22 O27 2.353 . S
Tb22 O30 2.427 . S
Tb22 O31 2.513 . S
Tb22 O32 2.453 1_455 S
Tb22 O33 2.596 . S
Tb22 O34 2.376 . S
O23 Tb20 2.453 . S
O23 C39 1.245 . S
O24 Tb20 2.596 . S
O24 Tb22 2.343 . S
O24 C39 1.259 . S
O25 Tb20 2.374 . S
O25 C21 1.251 . S
C26 O30 1.275 . S
C26 O31 1.246 . S
O27 C21 1.263 . S
O27 Tb22 2.353 . S
C28 O32 1.245 1_455 S
C28 O33 1.259 . S
C29 O34 1.253 . S
C29 O35 1.263 . S
O30 Tb22 2.427 . S
O30 C26 1.275 . S
O31 Tb22 2.513 . S
O31 C26 1.246 . S
O32 Tb22 2.453 1_655 S
O32 C28 1.245 1_655 S
O33 Tb20 2.343 . S
O33 Tb22 2.596 . S
O33 C28 1.259 . S
O34 Tb22 2.376 . S
O34 C29 1.253 . S
O35 Tb20 2.353 . S
O35 C29 1.263 . S
C36 O37 1.275 . S
C36 O38 1.246 . S
O37 Tb20 2.427 . S
O37 C36 1.275 . S
O38 Tb20 2.513 . S
O38 C36 1.246 . S
C39 O23 1.245 . S
C39 O24 1.259 . S
Tb40 O43 2.453 . S
Tb40 O44 2.596 . S
Tb40 O45 2.374 . S
Tb40 O53 2.343 . S
Tb40 O55 2.353 . S
Tb40 O57 2.427 . S
Tb40 O58 2.513 . S
C41 O45 1.251 . S
C41 O47 1.263 . S
Tb42 O44 2.343 . S
Tb42 O47 2.353 . S
Tb42 O50 2.427 . S
Tb42 O51 2.513 1_556 S
Tb42 O52 2.453 1_556 S
Tb42 O53 2.596 . S
Tb42 O54 2.374 1_556 S
O43 Tb40 2.453 . S
O43 C59 1.245 . S
O44 Tb40 2.596 . S
O44 Tb42 2.343 . S
O44 C59 1.259 . S
O45 Tb40 2.374 . S
O45 C41 1.251 . S
C46 O50 1.275 . S
C46 O51 1.246 1_556 S
O47 C41 1.263 . S
O47 Tb42 2.353 . S
C48 O52 1.245 . S
C48 O53 1.259 1_554 S
C49 O54 1.250 . S
C49 O55 1.263 1_554 S
O50 Tb42 2.427 . S
O50 C46 1.275 . S
O51 Tb42 2.513 1_554 S
O51 C46 1.246 1_554 S
O52 Tb42 2.453 1_554 S
O52 C48 1.245 . S
O53 Tb40 2.343 . S
O53 Tb42 2.596 . S
O53 C48 1.259 1_556 S
O54 Tb42 2.374 1_554 S
O54 C49 1.250 . S
O55 Tb40 2.353 . S
O55 C49 1.263 1_556 S
C56 O57 1.275 . S
C56 O58 1.246 . S
O57 Tb40 2.427 . S
O57 C56 1.275 . S
O58 Tb40 2.513 . S
O58 C56 1.246 . S
C59 O43 1.245 . S
C59 O44 1.259 . S
Tb60 O63 2.453 . S
Tb60 O64 2.596 . S
Tb60 O65 2.374 . S
Tb60 O73 2.343 . S
Tb60 O75 2.353 . S
Tb60 O77 2.427 . S
Tb60 O78 2.513 . S
C61 O65 1.251 . S
C61 O67 1.263 . S
Tb62 O64 2.343 . S
Tb62 O67 2.353 . S
Tb62 O70 2.427 . S
Tb62 O71 2.513 . S
Tb62 O72 2.453 . S
Tb62 O73 2.596 . S
Tb62 O74 2.374 . S
O63 Tb60 2.453 . S
O63 C79 1.245 . S
O64 Tb60 2.596 . S
O64 Tb62 2.343 . S
O64 C79 1.259 . S
O65 Tb60 2.374 . S
O65 C61 1.251 . S
C66 O70 1.275 . S
C66 O71 1.246 . S
O67 C61 1.263 . S
O67 Tb62 2.353 . S
C68 O72 1.245 . S
C68 O73 1.259 . S
C69 O74 1.250 . S
C69 O75 1.263 . S
O70 Tb62 2.427 . S
O70 C66 1.275 . S
O71 Tb62 2.513 . S
O71 C66 1.246 . S
O72 Tb62 2.453 . S
O72 C68 1.245 . S
O73 Tb60 2.343 . S
O73 Tb62 2.596 . S
O73 C68 1.259 . S
O74 Tb62 2.374 . S
O74 C69 1.250 . S
O75 Tb60 2.353 . S
O75 C69 1.263 . S
C76 O77 1.275 . S
C76 O78 1.246 . S
O77 Tb60 2.427 . S
O77 C76 1.275 . S
O78 Tb60 2.513 . S
O78 C76 1.246 . S
C79 O63 1.245 . S
C79 O64 1.259 . S
Tb80 O83 2.453 . S
Tb80 O84 2.596 . S
Tb80 O85 2.374 . S
Tb80 O93 2.343 . S
Tb80 O95 2.353 . S
Tb80 O97 2.427 . S
Tb80 O98 2.513 . S
C81 O85 1.251 . S
C81 O87 1.263 . S
Tb82 O84 2.343 . S
Tb82 O87 2.353 . S
Tb82 O90 2.427 . S
Tb82 O91 2.513 . S
Tb82 O92 2.453 . S
Tb82 O93 2.596 . S
Tb82 O94 2.374 . S
O83 Tb80 2.453 . S
O83 C99 1.245 . S
O84 Tb80 2.596 . S
O84 Tb82 2.343 . S
O84 C99 1.259 . S
O85 Tb80 2.374 . S
O85 C81 1.251 . S
C86 O90 1.275 . S
C86 O91 1.246 . S
O87 C81 1.263 . S
O87 Tb82 2.353 . S
C88 O92 1.245 . S
C88 O93 1.259 . S
C89 O94 1.250 . S
C89 O95 1.263 . S
O90 Tb82 2.427 . S
O90 C86 1.275 . S
O91 Tb82 2.513 . S
O91 C86 1.246 . S
O92 Tb82 2.453 . S
O92 C88 1.245 . S
O93 Tb80 2.343 . S
O93 Tb82 2.596 . S
O93 C88 1.259 . S
O94 Tb82 2.374 . S
O94 C89 1.250 . S
O95 Tb80 2.353 . S
O95 C89 1.263 . S
C96 O97 1.275 . S
C96 O98 1.246 . S
O97 Tb80 2.427 . S
O97 C96 1.275 . S
O98 Tb80 2.513 . S
O98 C96 1.246 . S
C99 O83 1.245 . S
C99 O84 1.259 . S
Tb100 O103 2.453 . S
Tb100 O104 2.596 . S
Tb100 O105 2.374 . S
Tb100 O113 2.343 . S
Tb100 O115 2.353 . S
Tb100 O117 2.427 . S
Tb100 O118 2.513 . S
C101 O105 1.251 . S
C101 O107 1.263 . S
Tb102 O104 2.343 . S
Tb102 O107 2.353 . S
Tb102 O110 2.427 . S
Tb102 O111 2.513 . S
Tb102 O112 2.453 1_655 S
Tb102 O113 2.596 . S
Tb102 O114 2.374 1_655 S
O103 Tb100 2.453 . S
O103 C119 1.245 . S
O104 Tb100 2.596 . S
O104 Tb102 2.343 . S
O104 C119 1.259 . S
O105 Tb100 2.374 . S
O105 C101 1.251 . S
C106 O110 1.275 . S
C106 O111 1.246 . S
O107 C101 1.263 . S
O107 Tb102 2.353 . S
C108 O112 1.245 . S
C108 O113 1.259 1_455 S
C109 O114 1.254 . S
C109 O115 1.249 1_455 S
O110 Tb102 2.427 . S
O110 C106 1.275 . S
O111 Tb102 2.513 . S
O111 C106 1.246 . S
O112 Tb102 2.453 1_455 S
O112 C108 1.245 . S
O113 Tb100 2.343 . S
O113 Tb102 2.596 . S
O113 C108 1.259 1_655 S
O114 Tb102 2.374 1_455 S
O114 C109 1.254 . S
O115 Tb100 2.353 . S
O115 C109 1.249 1_655 S
C116 O117 1.275 . S
C116 O118 1.246 . S
O117 Tb100 2.427 . S
O117 C116 1.275 . S
O118 Tb100 2.513 . S
O118 C116 1.246 . S
C119 O103 1.245 . S
C119 O104 1.259 . S
Tb120 O123 2.453 . S
Tb120 O124 2.596 . S
Tb120 O125 2.374 . S
Tb120 O133 2.343 . S
Tb120 O135 2.353 . S
Tb120 O137 2.427 . S
Tb120 O138 2.513 . S
C121 O125 1.251 . S
C121 O127 1.263 . S
Tb122 O124 2.343 . S
Tb122 O127 2.353 . S
Tb122 O130 2.427 1_655 S
Tb122 O131 2.513 1_554 S
Tb122 O132 2.453 . S
Tb122 O133 2.596 . S
Tb122 O134 2.374 . S
O123 Tb120 2.453 . S
O123 C139 1.245 . S
O124 Tb120 2.596 . S
O124 Tb122 2.343 . S
O124 C139 1.259 . S
O125 Tb120 2.374 . S
O125 C121 1.251 . S
C126 O130 1.275 1_556 S
C126 O131 1.246 1_455 S
O127 C121 1.263 . S
O127 Tb122 2.353 . S
C128 O132 1.245 . S
C128 O133 1.259 . S
C129 O134 1.250 . S
C129 O135 1.263 . S
O130 Tb122 2.427 1_455 S
O130 C126 1.275 1_554 S
O131 Tb122 2.513 1_556 S
O131 C126 1.246 1_655 S
O132 Tb122 2.453 . S
O132 C128 1.245 . S
O133 Tb120 2.343 . S
O133 Tb122 2.596 . S
O133 C128 1.259 . S
O134 Tb122 2.374 . S
O134 C129 1.250 . S
O135 Tb120 2.353 . S
O135 C129 1.263 . S
C136 O137 1.275 . S
C136 O138 1.246 . S
O137 Tb120 2.427 . S
O137 C136 1.275 . S
O138 Tb120 2.513 . S
O138 C136 1.246 . S
C139 O123 1.245 . S
C139 O124 1.259 . S
Tb140 O143 2.453 . S
Tb140 O144 2.596 . S
Tb140 O145 2.374 . S
Tb140 O153 2.343 . S
Tb140 O155 2.353 . S
Tb140 O157 2.427 . S
Tb140 O158 2.513 . S
C141 O145 1.251 . S
C141 O147 1.263 . S
Tb142 O144 2.343 . S
Tb142 O147 2.353 . S
Tb142 O150 2.427 . S
Tb142 O151 2.513 . S
Tb142 O152 2.453 . S
Tb142 O153 2.596 . S
Tb142 O154 2.374 . S
O143 Tb140 2.453 . S
O143 C159 1.245 . S
O144 Tb140 2.596 . S
O144 Tb142 2.343 . S
O144 C159 1.259 . S
O145 Tb140 2.374 . S
O145 C141 1.251 . S
C146 O150 1.275 . S
C146 O151 1.246 . S
O147 C141 1.263 . S
O147 Tb142 2.353 . S
C148 O152 1.245 . S
C148 O153 1.259 . S
C149 O154 1.250 . S
C149 O155 1.263 . S
O150 Tb142 2.427 . S
O150 C146 1.275 . S
O151 Tb142 2.513 . S
O151 C146 1.246 . S
O152 Tb142 2.453 . S
O152 C148 1.245 . S
O153 Tb140 2.343 . S
O153 Tb142 2.596 . S
O153 C148 1.259 . S
O154 Tb142 2.374 . S
O154 C149 1.250 . S
O155 Tb140 2.353 . S
O155 C149 1.263 . S
C156 O157 1.275 . S
C156 O158 1.246 . S
O157 Tb140 2.427 . S
O157 C156 1.275 . S
O158 Tb140 2.513 . S
O158 C156 1.246 . S
C159 O143 1.245 . S
C159 O144 1.259 . S
Tb160 O163 2.453 . S
Tb160 O164 2.596 . S
Tb160 O165 2.374 . S
Tb160 O173 2.343 . S
Tb160 O175 2.353 . S
Tb160 O177 2.427 . S
Tb160 O178 2.513 . S
C161 O165 1.251 . S
C161 O167 1.263 . S
Tb162 O164 2.343 . S
Tb162 O167 2.353 . S
Tb162 O170 2.427 . S
Tb162 O171 2.513 . S
Tb162 O172 2.453 . S
Tb162 O173 2.596 . S
Tb162 O174 2.374 . S
O163 Tb160 2.453 . S
O163 C179 1.245 . S
O164 Tb160 2.596 . S
O164 Tb162 2.343 . S
O164 C179 1.259 . S
O165 Tb160 2.374 . S
O165 C161 1.251 . S
C166 O170 1.275 . S
C166 O171 1.246 . S
O167 C161 1.263 . S
O167 Tb162 2.353 . S
C168 O172 1.245 . S
C168 O173 1.259 . S
C169 O174 1.250 . S
C169 O175 1.263 . S
O170 Tb162 2.427 . S
O170 C166 1.275 . S
O171 Tb162 2.513 . S
O171 C166 1.246 . S
O172 Tb162 2.453 . S
O172 C168 1.245 . S
O173 Tb160 2.343 . S
O173 Tb162 2.596 . S
O173 C168 1.259 . S
O174 Tb162 2.374 . S
O174 C169 1.250 . S
O175 Tb160 2.353 . S
O175 C169 1.263 . S
C176 O177 1.275 . S
C176 O178 1.246 . S
O177 Tb160 2.427 . S
O177 C176 1.275 . S
O178 Tb160 2.513 . S
O178 C176 1.246 . S
C179 O163 1.245 . S
C179 O164 1.259 . S
Tb180 O183 2.453 1_545 S
Tb180 O184 2.596 . S
Tb180 O185 2.374 . S
Tb180 O193 2.343 . S
Tb180 O195 2.353 . S
Tb180 O197 2.427 . S
Tb180 O198 2.513 . S
C181 O185 1.251 . S
C181 O187 1.263 . S
Tb182 O184 2.343 . S
Tb182 O187 2.353 . S
Tb182 O190 2.427 1_545 S
Tb182 O191 2.513 1_545 S
Tb182 O192 2.453 . S
Tb182 O193 2.596 . S
Tb182 O194 2.374 . S
O183 Tb180 2.453 1_565 S
O183 C199 1.245 . S
O184 Tb180 2.596 . S
O184 Tb182 2.343 . S
O184 C199 1.259 1_545 S
O185 Tb180 2.374 . S
O185 C181 1.251 . S
C186 O190 1.275 . S
C186 O191 1.246 . S
O187 C181 1.263 . S
O187 Tb182 2.353 . S
C188 O192 1.245 . S
C188 O193 1.259 . S
C189 O194 1.250 . S
C189 O195 1.263 . S
O190 Tb182 2.427 1_565 S
O190 C186 1.275 . S
O191 Tb182 2.513 1_565 S
O191 C186 1.246 . S
O192 Tb182 2.453 . S
O192 C188 1.245 . S
O193 Tb180 2.343 . S
O193 Tb182 2.596 . S
O193 C188 1.259 . S
O194 Tb182 2.374 . S
O194 C189 1.250 . S
O195 Tb180 2.353 . S
O195 C189 1.263 . S
C196 O197 1.275 . S
C196 O198 1.246 . S
O197 Tb180 2.427 . S
O197 C196 1.275 . S
O198 Tb180 2.513 . S
O198 C196 1.246 . S
C199 O183 1.245 . S
C199 O184 1.259 1_565 S
Tb200 O203 2.453 . S
Tb200 O204 2.596 . S
Tb200 O205 2.374 . S
Tb200 O213 2.343 . S
Tb200 O215 2.353 . S
Tb200 O217 2.427 . S
Tb200 O218 2.513 . S
C201 O205 1.251 . S
C201 O207 1.263 . S
Tb202 O204 2.343 . S
Tb202 O207 2.353 . S
Tb202 O210 2.427 . S
Tb202 O211 2.513 1_565 S
Tb202 O212 2.453 1_565 S
Tb202 O213 2.596 . S
Tb202 O214 2.374 1_565 S
O203 Tb200 2.453 . S
O203 C219 1.245 . S
O204 Tb200 2.596 . S
O204 Tb202 2.343 . S
O204 C219 1.259 . S
O205 Tb200 2.374 . S
O205 C201 1.251 . S
C206 O210 1.275 . S
C206 O211 1.246 1_565 S
O207 C201 1.263 . S
O207 Tb202 2.353 . S
C208 O212 1.245 . S
C208 O213 1.259 1_545 S
C209 O214 1.250 . S
C209 O215 1.263 1_545 S
O210 Tb202 2.427 . S
O210 C206 1.275 . S
O211 Tb202 2.513 1_545 S
O211 C206 1.246 1_545 S
O212 Tb202 2.453 1_545 S
O212 C208 1.245 . S
O213 Tb200 2.343 . S
O213 Tb202 2.596 . S
O213 C208 1.259 1_565 S
O214 Tb202 2.374 1_545 S
O214 C209 1.250 . S
O215 Tb200 2.353 . S
O215 C209 1.263 1_565 S
C216 O217 1.275 . S
C216 O218 1.246 . S
O217 Tb200 2.427 . S
O217 C216 1.275 . S
O218 Tb200 2.513 . S
O218 C216 1.246 . S
C219 O203 1.245 . S
C219 O204 1.259 . S
Tb220 O223 2.453 . S
Tb220 O224 2.596 . S
Tb220 O225 2.374 . S
Tb220 O233 2.343 . S
Tb220 O235 2.353 . S
Tb220 O237 2.427 . S
Tb220 O238 2.513 . S
C221 O225 1.251 . S
C221 O227 1.263 . S
Tb222 O224 2.343 . S
Tb222 O227 2.353 . S
Tb222 O230 2.427 . S
Tb222 O231 2.513 . S
Tb222 O232 2.453 . S
Tb222 O233 2.596 . S
Tb222 O234 2.374 . S
O223 Tb220 2.453 . S
O223 C239 1.245 . S
O224 Tb220 2.596 . S
O224 Tb222 2.343 . S
O224 C239 1.259 . S
O225 Tb220 2.374 . S
O225 C221 1.251 . S
C226 O230 1.275 . S
C226 O231 1.246 . S
O227 C221 1.263 . S
O227 Tb222 2.353 . S
C228 O232 1.245 . S
C228 O233 1.259 . S
C229 O234 1.250 . S
C229 O235 1.263 . S
O230 Tb222 2.427 . S
O230 C226 1.275 . S
O231 Tb222 2.513 . S
O231 C226 1.246 . S
O232 Tb222 2.453 . S
O232 C228 1.245 . S
O233 Tb220 2.343 . S
O233 Tb222 2.596 . S
O233 C228 1.259 . S
O234 Tb222 2.374 . S
O234 C229 1.250 . S
O235 Tb220 2.353 . S
O235 C229 1.263 . S
C236 O237 1.275 . S
C236 O238 1.246 . S
O237 Tb220 2.427 . S
O237 C236 1.275 . S
O238 Tb220 2.513 . S
O238 C236 1.246 . S
C239 O223 1.245 . S
C239 O224 1.259 . S
C240 C241 1.369 . S
C240 C242 1.419 . S
C240 H244 0.930 . S
C241 C240 1.369 . S
C241 C250 1.429 . S
C242 C240 1.419 . S
C242 C243 1.363 . S
C242 H245 0.929 . S
C243 C242 1.363 . S
C243 C249 1.428 . S
H244 C240 0.930 . S
H245 C242 0.929 . S
S246 N247 1.613 . S
S246 N248 1.610 . S
N247 S246 1.613 . S
N247 C250 1.350 . S
N248 S246 1.610 . S
N248 C249 1.351 . S
C249 C243 1.428 . S
C249 N248 1.351 . S
C249 C250 1.434 . S
C250 C241 1.429 . S
C250 N247 1.350 . S
C250 C249 1.434 . S
C251 C252 1.369 . S
C251 C253 1.419 . S
C251 H255 0.930 . S
C252 C251 1.369 . S
C252 C261 1.429 1_545 S
C253 C251 1.419 . S
C253 C254 1.363 1_545 S
C253 H256 0.929 . S
C254 C253 1.363 1_565 S
C254 C260 1.428 . S
H255 C251 0.930 . S
H256 C253 0.929 . S
S257 N258 1.613 . S
S257 N259 1.610 . S
N258 S257 1.613 . S
N258 C261 1.350 . S
N259 S257 1.610 . S
N259 C260 1.351 . S
C260 C254 1.428 . S
C260 N259 1.351 . S
C260 C261 1.434 . S
C261 C252 1.429 1_565 S
C261 N258 1.350 . S
C261 C260 1.434 . S
C262 C263 1.369 . S
C262 C264 1.419 1_556 S
C262 H266 0.930 . S
C263 C262 1.369 . S
C263 C272 1.429 . S
C264 C262 1.419 1_554 S
C264 C265 1.363 . S
C264 H267 0.929 . S
C265 C264 1.363 . S
C265 C271 1.428 . S
H266 C262 0.930 . S
H267 C264 0.929 . S
S268 N269 1.613 . S
S268 N270 1.610 1_556 S
N269 S268 1.613 . S
N269 C272 1.350 . S
N270 S268 1.610 1_554 S
N270 C271 1.351 . S
C271 C265 1.428 . S
C271 N270 1.351 . S
C271 C272 1.434 1_554 S
C272 C263 1.429 . S
C272 N269 1.350 . S
C272 C271 1.434 1_556 S
C273 C274 1.369 . S
C273 C275 1.419 1_545 S
C273 H277 0.930 1_545 S
C274 C273 1.369 . S
C274 C283 1.429 . S
C275 C273 1.419 1_565 S
C275 C276 1.363 . S
C275 H278 0.929 . S
C276 C275 1.363 . S
C276 C282 1.428 1_565 S
H277 C273 0.930 1_565 S
H278 C275 0.929 . S
S279 N280 1.613 . S
S279 N281 1.610 . S
N280 S279 1.613 . S
N280 C283 1.350 . S
N281 S279 1.610 . S
N281 C282 1.351 . S
C282 C276 1.428 1_545 S
C282 N281 1.351 . S
C282 C283 1.434 . S
C283 C274 1.429 . S
C283 N280 1.350 . S
C283 C282 1.434 . S
C284 C285 1.369 . S
C284 C286 1.419 . S
C284 H288 0.930 . S
C285 C284 1.369 . S
C285 C294 1.429 . S
C286 C284 1.419 . S
C286 C287 1.363 . S
C286 H289 0.929 . S
C287 C286 1.363 . S
C287 C293 1.428 . S
H288 C284 0.930 . S
H289 C286 0.929 . S
S290 N291 1.613 . S
S290 N292 1.610 . S
N291 S290 1.613 . S
N291 C294 1.350 . S
N292 S290 1.610 . S
N292 C293 1.351 . S
C293 C287 1.428 . S
C293 N292 1.351 . S
C293 C294 1.434 . S
C294 C285 1.429 . S
C294 N291 1.350 . S
C294 C293 1.434 . S
C295 C296 1.369 . S
C295 C297 1.419 . S
C295 H299 0.930 . S
C296 C295 1.369 . S
C296 C305 1.429 . S
C297 C295 1.419 . S
C297 C298 1.363 . S
C297 H300 0.929 . S
C298 C297 1.363 . S
C298 C304 1.428 . S
H299 C295 0.930 . S
H300 C297 0.929 . S
S301 N302 1.613 . S
S301 N303 1.610 . S
N302 S301 1.613 . S
N302 C305 1.350 . S
N303 S301 1.610 . S
N303 C304 1.351 . S
C304 C298 1.428 . S
C304 N303 1.351 . S
C304 C305 1.434 . S
C305 C296 1.429 . S
C305 N302 1.350 . S
C305 C304 1.434 . S
C306 C307 1.369 . S
C306 C308 1.419 . S
C306 H310 0.930 . S
C307 C306 1.369 . S
C307 C316 1.429 . S
C308 C306 1.419 . S
C308 C309 1.363 . S
C308 H311 0.929 . S
C309 C308 1.363 . S
C309 C315 1.428 . S
H310 C306 0.930 . S
H311 C308 0.929 . S
S312 N313 1.613 . S
S312 N314 1.610 1_556 S
N313 S312 1.613 . S
N313 C316 1.345 1_556 S
N314 S312 1.610 1_554 S
N314 C315 1.351 . S
C315 C309 1.428 . S
C315 N314 1.351 . S
C315 C316 1.439 . S
C316 C307 1.429 . S
C316 N313 1.345 1_554 S
C316 C315 1.439 . S
C317 C318 1.369 . S
C317 C319 1.419 . S
C317 H321 0.930 . S
C318 C317 1.369 . S
C318 C327 1.429 . S
C319 C317 1.419 . S
C319 C320 1.363 . S
C319 H322 0.929 . S
C320 C319 1.363 . S
C320 C326 1.428 . S
H321 C317 0.930 . S
H322 C319 0.929 . S
S323 N324 1.613 . S
S323 N325 1.610 . S
N324 S323 1.613 . S
N324 C327 1.350 . S
N325 S323 1.610 . S
N325 C326 1.351 . S
C326 C320 1.428 . S
C326 N325 1.351 . S
C326 C327 1.434 . S
C327 C318 1.429 . S
C327 N324 1.350 . S
C327 C326 1.434 . S
C328 C329 1.369 . S
C328 C330 1.419 . S
C328 H332 0.930 . S
C329 C328 1.369 . S
C329 C338 1.429 . S
C330 C328 1.419 . S
C330 C331 1.363 . S
C330 H333 0.929 . S
C331 C330 1.363 . S
C331 C337 1.428 . S
H332 C328 0.930 . S
H333 C330 0.929 . S
S334 N335 1.613 . S
S334 N336 1.610 . S
N335 S334 1.613 . S
N335 C338 1.350 . S
N336 S334 1.610 . S
N336 C337 1.351 . S
C337 C331 1.428 . S
C337 N336 1.351 . S
C337 C338 1.434 . S
C338 C329 1.429 . S
C338 N335 1.350 . S
C338 C337 1.434 . S
C339 C340 1.369 . S
C339 C341 1.419 . S
C339 H343 0.930 . S
C340 C339 1.369 . S
C340 C349 1.429 1_455 S
C341 C339 1.419 . S
C341 C342 1.363 1_455 S
C341 H344 0.929 . S
C342 C341 1.363 1_655 S
C342 C348 1.428 . S
H343 C339 0.930 . S
H344 C341 0.929 . S
S345 N346 1.613 . S
S345 N347 1.610 . S
N346 S345 1.613 . S
N346 C349 1.350 . S
N347 S345 1.610 . S
N347 C348 1.351 . S
C348 C342 1.428 . S
C348 N347 1.351 . S
C348 C349 1.434 . S
C349 C340 1.429 1_655 S
C349 N346 1.350 . S
C349 C348 1.434 . S
C350 C351 1.369 . S
C350 C352 1.419 . S
C350 H354 0.930 . S
C351 C350 1.369 . S
C351 C360 1.429 1_455 S
C352 C350 1.419 . S
C352 C353 1.363 . S
C352 H355 0.929 . S
C353 C352 1.363 . S
C353 C359 1.428 1_455 S
H354 C350 0.930 . S
H355 C352 0.929 . S
S356 N357 1.613 . S
S356 N358 1.610 . S
N357 S356 1.613 . S
N357 C360 1.350 . S
N358 S356 1.610 . S
N358 C359 1.351 . S
C359 C353 1.428 1_655 S
C359 N358 1.351 . S
C359 C360 1.434 . S
C360 C351 1.429 1_655 S
C360 N357 1.350 . S
C360 C359 1.434 . S
C361 C362 1.369 . S
C361 C363 1.419 . S
C361 H365 0.930 . S
C362 C361 1.369 . S
C362 C371 1.429 . S
C363 C361 1.419 . S
C363 C364 1.363 . S
C363 H366 0.929 . S
C364 C363 1.363 . S
C364 C370 1.428 . S
H365 C361 0.930 . S
H366 C363 0.929 . S
S367 N368 1.613 . S
S367 N369 1.610 . S
N368 S367 1.613 . S
N368 C371 1.350 . S
N369 S367 1.610 . S
N369 C370 1.351 . S
C370 C364 1.428 . S
C370 N369 1.351 . S
C370 C371 1.434 . S
C371 C362 1.429 . S
C371 N368 1.350 . S
C371 C370 1.434 . S
C372 C373 1.369 . S
C372 C374 1.419 . S
C372 H376 0.930 . S
C373 C372 1.369 . S
C373 C382 1.429 . S
C374 C372 1.419 . S
C374 C375 1.363 . S
C374 H377 0.929 . S
C375 C374 1.363 . S
C375 C381 1.428 . S
H376 C372 0.930 . S
H377 C374 0.929 . S
S378 N379 1.613 . S
S378 N380 1.610 . S
N379 S378 1.613 . S
N379 C382 1.350 . S
N380 S378 1.610 . S
N380 C381 1.351 . S
C381 C375 1.428 . S
C381 N380 1.351 . S
C381 C382 1.434 . S
C382 C373 1.429 . S
C382 N379 1.350 . S
C382 C381 1.434 . S
C383 C384 1.369 1_455 S
C383 C385 1.419 . S
C383 H387 0.930 . S
C384 C383 1.369 1_655 S
C384 C393 1.429 . S
C385 C383 1.419 . S
C385 C386 1.363 1_455 S
C385 H388 0.929 . S
C386 C385 1.363 1_655 S
C386 C392 1.428 . S
H387 C383 0.930 . S
H388 C385 0.929 . S
S389 N390 1.613 . S
S389 N391 1.610 . S
N390 S389 1.613 . S
N390 C393 1.350 . S
N391 S389 1.610 . S
N391 C392 1.351 . S
C392 C386 1.428 . S
C392 N391 1.351 . S
C392 C393 1.434 . S
C393 C384 1.429 . S
C393 N390 1.350 . S
C393 C392 1.434 . S
C394 C395 1.369 . S
C394 C396 1.419 . S
C394 H398 0.930 . S
C395 C394 1.369 . S
C395 C404 1.429 . S
C396 C394 1.419 . S
C396 C397 1.363 . S
C396 H399 0.929 . S
C397 C396 1.363 . S
C397 C403 1.428 . S
H398 C394 0.930 . S
H399 C396 0.929 . S
S400 N401 1.613 . S
S400 N402 1.610 . S
N401 S400 1.613 . S
N401 C404 1.350 . S
N402 S400 1.610 . S
N402 C403 1.351 . S
C403 C397 1.428 . S
C403 N402 1.351 . S
C403 C404 1.434 . S
C404 C395 1.429 . S
C404 N401 1.350 . S
C404 C403 1.434 . S
C405 C406 1.369 . S
C405 C407 1.419 1_554 S
C405 H409 0.930 . S
C406 C405 1.369 . S
C406 C415 1.429 . S
C407 C405 1.419 1_556 S
C407 C408 1.363 . S
C407 H410 0.929 . S
C408 C407 1.363 . S
C408 C414 1.428 1_556 S
H409 C405 0.930 . S
H410 C407 0.929 . S
S411 N412 1.613 . S
S411 N413 1.610 . S
N412 S411 1.613 . S
N412 C415 1.350 . S
N413 S411 1.610 . S
N413 C414 1.351 . S
C414 C408 1.428 1_554 S
C414 N413 1.351 . S
C414 C415 1.434 . S
C415 C406 1.429 . S
C415 N412 1.350 . S
C415 C414 1.434 . S
C416 C417 1.369 . S
C416 C418 1.419 . S
C416 H420 0.930 . S
C417 C416 1.369 . S
C417 C426 1.429 . S
C418 C416 1.419 . S
C418 C419 1.363 . S
C418 H421 0.929 . S
C419 C418 1.363 . S
C419 C425 1.428 . S
H420 C416 0.930 . S
H421 C418 0.929 . S
S422 N423 1.613 . S
S422 N424 1.610 . S
N423 S422 1.613 . S
N423 C426 1.350 . S
N424 S422 1.610 . S
N424 C425 1.351 . S
C425 C419 1.428 . S
C425 N424 1.351 . S
C425 C426 1.434 . S
C426 C417 1.429 . S
C426 N423 1.350 . S
C426 C425 1.434 . S
C427 C428 1.369 1_556 S
C427 C429 1.419 . S
C427 H431 0.930 1_556 S
C428 C427 1.369 1_554 S
C428 C437 1.429 1_554 S
C429 C427 1.419 . S
C429 C430 1.363 . S
C429 H432 0.929 1_455 S
C430 C429 1.363 . S
C430 C436 1.428 . S
H431 C427 0.930 1_554 S
H432 C429 0.929 1_655 S
S433 N434 1.613 . S
S433 N435 1.610 . S
N434 S433 1.613 . S
N434 C437 1.350 . S
N435 S433 1.610 . S
N435 C436 1.351 . S
C436 C430 1.428 . S
C436 N435 1.351 . S
C436 C437 1.434 . S
C437 C428 1.429 1_556 S
C437 N434 1.350 . S
C437 C436 1.434 . S
C438 C439 1.369 . S
C438 C440 1.419 . S
C438 H442 0.930 . S
C439 C438 1.369 . S
C439 C448 1.429 . S
C440 C438 1.419 . S
C440 C441 1.363 . S
C440 H443 0.929 . S
C441 C440 1.363 . S
C441 C447 1.428 . S
H442 C438 0.930 . S
H443 C440 0.929 . S
S444 N445 1.613 . S
S444 N446 1.610 . S
N445 S444 1.613 . S
N445 C448 1.350 . S
N446 S444 1.610 . S
N446 C447 1.351 . S
C447 C441 1.428 . S
C447 N446 1.351 . S
C447 C448 1.434 . S
C448 C439 1.429 . S
C448 N445 1.350 . S
C448 C447 1.434 . S
C449 C450 1.369 . S
C449 C451 1.419 . S
C449 H453 0.930 . S
C450 C449 1.369 . S
C450 C459 1.429 . S
C451 C449 1.419 . S
C451 C452 1.363 . S
C451 H454 0.929 . S
C452 C451 1.363 . S
C452 C458 1.428 . S
H453 C449 0.930 . S
H454 C451 0.929 . S
S455 N456 1.613 . S
S455 N457 1.610 . S
N456 S455 1.613 . S
N456 C459 1.350 . S
N457 S455 1.610 . S
N457 C458 1.351 . S
C458 C452 1.428 . S
C458 N457 1.351 . S
C458 C459 1.434 . S
C459 C450 1.429 . S
C459 N456 1.350 . S
C459 C458 1.434 . S
C460 C461 1.369 . S
C460 C462 1.419 . S
C460 H464 0.930 . S
C461 C460 1.369 . S
C461 C470 1.429 . S
C462 C460 1.419 . S
C462 C463 1.363 . S
C462 H465 0.929 . S
C463 C462 1.363 . S
C463 C469 1.428 . S
H464 C460 0.930 . S
H465 C462 0.929 . S
S466 N467 1.613 . S
S466 N468 1.610 . S
N467 S466 1.613 . S
N467 C470 1.350 . S
N468 S466 1.610 . S
N468 C469 1.351 . S
C469 C463 1.428 . S
C469 N468 1.351 . S
C469 C470 1.434 . S
C470 C461 1.429 . S
C470 N467 1.350 . S
C470 C469 1.434 . S
C471 C472 1.369 . S
C471 C473 1.419 . S
C471 H475 0.930 . S
C472 C471 1.369 . S
C472 C481 1.429 . S
C473 C471 1.419 . S
C473 C474 1.363 . S
C473 H476 0.929 . S
C474 C473 1.363 . S
C474 C480 1.428 . S
H475 C471 0.930 . S
H476 C473 0.929 . S
S477 N478 1.613 1_565 S
S477 N479 1.610 . S
N478 S477 1.613 1_545 S
N478 C481 1.350 . S
N479 S477 1.610 . S
N479 C480 1.351 1_565 S
C480 C474 1.428 . S
C480 N479 1.351 1_545 S
C480 C481 1.434 . S
C481 C472 1.429 . S
C481 N478 1.350 . S
C481 C480 1.434 . S
C482 C483 1.369 . S
C482 C484 1.419 . S
C482 H486 0.930 . S
C483 C482 1.369 . S
C483 C492 1.429 . S
C484 C482 1.419 . S
C484 C485 1.363 . S
C484 H487 0.929 . S
C485 C484 1.363 . S
C485 C491 1.428 . S
H486 C482 0.930 . S
H487 C484 0.929 . S
S488 N489 1.613 . S
S488 N490 1.610 . S
N489 S488 1.613 . S
N489 C492 1.350 . S
N490 S488 1.610 . S
N490 C491 1.351 . S
C491 C485 1.428 . S
C491 N490 1.351 . S
C491 C492 1.434 . S
C492 C483 1.429 . S
C492 N489 1.350 . S
C492 C491 1.434 . S
C493 C494 1.369 1_565 S
C493 C495 1.419 . S
C493 H497 0.930 . S
C494 C493 1.369 1_545 S
C494 C503 1.445 1_545 S
C495 C493 1.419 . S
C495 C496 1.363 . S
C495 H498 0.929 . S
C496 C495 1.363 . S
C496 C502 1.428 1_554 S
H497 C493 0.930 . S
H498 C495 0.929 . S
S499 N500 1.613 1_565 S
S499 N501 1.610 . S
N500 S499 1.613 1_545 S
N500 C503 1.336 1_546 S
N501 S499 1.610 . S
N501 C502 1.351 . S
C502 C496 1.428 1_556 S
C502 N501 1.351 . S
C502 C503 1.431 1_556 S
C503 C494 1.445 1_565 S
C503 N500 1.336 1_564 S
C503 C502 1.431 1_554 S
C504 C505 1.369 . S
C504 C506 1.419 . S
C504 H508 0.930 . S
C505 C504 1.369 . S
C505 C514 1.429 . S
C506 C504 1.419 . S
C506 C507 1.363 . S
C506 H509 0.929 . S
C507 C506 1.363 . S
C507 C513 1.428 . S
H508 C504 0.930 . S
H509 C506 0.929 . S
S510 N511 1.613 . S
S510 N512 1.610 . S
N511 S510 1.613 . S
N511 C514 1.350 . S
N512 S510 1.610 . S
N512 C513 1.351 . S
C513 C507 1.428 . S
C513 N512 1.351 . S
C513 C514 1.434 . S
C514 C505 1.429 . S
C514 N511 1.350 . S
C514 C513 1.434 . S
C515 C516 1.369 . S
C515 C517 1.419 . S
C515 H519 0.930 . S
C516 C515 1.369 . S
C516 C525 1.429 . S
C517 C515 1.419 . S
C517 C518 1.363 . S
C517 H520 0.929 . S
C518 C517 1.363 . S
C518 C524 1.428 1_556 S
H519 C515 0.930 . S
H520 C517 0.929 . S
S521 N522 1.613 . S
S521 N523 1.610 . S
N522 S521 1.613 . S
N522 C525 1.350 1_554 S
N523 S521 1.610 . S
N523 C524 1.351 . S
C524 C518 1.428 1_554 S
C524 N523 1.351 . S
C524 C525 1.434 1_554 S
C525 C516 1.429 . S
C525 N522 1.350 1_556 S
C525 C524 1.434 1_556 S
C526 C527 1.369 . S
C526 C528 1.419 . S
C526 H530 0.930 . S
C527 C526 1.369 . S
C527 C536 1.429 . S
C528 C526 1.419 . S
C528 C529 1.363 . S
C528 H531 0.929 . S
C529 C528 1.363 . S
C529 C535 1.428 . S
H530 C526 0.930 . S
H531 C528 0.929 . S
S532 N533 1.613 . S
S532 N534 1.610 . S
N533 S532 1.613 . S
N533 C536 1.350 . S
N534 S532 1.610 . S
N534 C535 1.351 . S
C535 C529 1.428 . S
C535 N534 1.351 . S
C535 C536 1.434 . S
C536 C527 1.429 . S
C536 N533 1.350 . S
C536 C535 1.434 . S
C537 C538 1.369 . S
C537 C539 1.419 . S
C537 H541 0.930 . S
C538 C537 1.369 . S
C538 C547 1.429 . S
C539 C537 1.419 . S
C539 C540 1.363 . S
C539 H542 0.929 . S
C540 C539 1.363 . S
C540 C546 1.428 . S
H541 C537 0.930 . S
H542 C539 0.929 . S
S543 N544 1.613 . S
S543 N545 1.610 . S
N544 S543 1.613 . S
N544 C547 1.350 . S
N545 S543 1.610 . S
N545 C546 1.351 . S
C546 C540 1.428 . S
C546 N545 1.351 . S
C546 C547 1.434 . S
C547 C538 1.429 . S
C547 N544 1.350 . S
C547 C546 1.434 . S
C548 C549 1.369 . S
C548 C550 1.419 . S
C548 H552 0.930 . S
C549 C548 1.369 . S
C549 C558 1.429 . S
C550 C548 1.419 . S
C550 C551 1.363 . S
C550 H553 0.929 . S
C551 C550 1.363 . S
C551 C557 1.428 . S
H552 C548 0.930 . S
H553 C550 0.929 . S
S554 N555 1.613 . S
S554 N556 1.610 . S
N555 S554 1.613 . S
N555 C558 1.350 . S
N556 S554 1.610 . S
N556 C557 1.351 . S
C557 C551 1.428 . S
C557 N556 1.351 . S
C557 C558 1.434 . S
C558 C549 1.429 . S
C558 N555 1.350 . S
C558 C557 1.434 . S
C559 C560 1.369 . S
C559 C561 1.419 . S
C559 H563 0.930 . S
C560 C559 1.369 . S
C560 C569 1.429 . S
C561 C559 1.419 . S
C561 C562 1.363 . S
C561 H564 0.929 . S
C562 C561 1.363 . S
C562 C568 1.428 . S
H563 C559 0.930 . S
H564 C561 0.929 . S
S565 N566 1.613 . S
S565 N567 1.610 . S
N566 S565 1.613 . S
N566 C569 1.350 . S
N567 S565 1.610 . S
N567 C568 1.351 . S
C568 C562 1.428 . S
C568 N567 1.351 . S
C568 C569 1.434 . S
C569 C560 1.429 . S
C569 N566 1.350 . S
C569 C568 1.434 . S
C570 C571 1.369 . S
C570 C572 1.419 . S
C570 H574 0.930 . S
C571 C570 1.369 . S
C571 C580 1.429 . S
C572 C570 1.419 . S
C572 C573 1.363 1_455 S
C572 H575 0.929 . S
C573 C572 1.363 1_655 S
C573 C579 1.428 1_655 S
H574 C570 0.930 . S
H575 C572 0.929 . S
S576 N577 1.613 1_556 S
S576 N578 1.610 1_456 S
N577 S576 1.613 1_554 S
N577 C580 1.350 . S
N578 S576 1.610 1_654 S
N578 C579 1.351 1_655 S
C579 C573 1.428 1_455 S
C579 N578 1.351 1_455 S
C579 C580 1.434 . S
C580 C571 1.429 . S
C580 N577 1.350 . S
C580 C579 1.434 . S
C581 C582 1.369 . S
C581 C583 1.419 . S
C581 H585 0.930 . S
C582 C581 1.369 . S
C582 C591 1.429 . S
C583 C581 1.419 . S
C583 C584 1.363 . S
C583 H586 0.929 . S
C584 C583 1.363 . S
C584 C590 1.428 . S
H585 C581 0.930 . S
H586 C583 0.929 . S
S587 N588 1.613 . S
S587 N589 1.610 . S
N588 S587 1.613 . S
N588 C591 1.350 . S
N589 S587 1.610 . S
N589 C590 1.351 . S
C590 C584 1.428 . S
C590 N589 1.351 . S
C590 C591 1.434 . S
C591 C582 1.429 . S
C591 N588 1.350 . S
C591 C590 1.434 . S
C592 C593 1.369 . S
C592 C594 1.419 . S
C592 H596 0.930 . S
C593 C592 1.369 . S
C593 C602 1.429 . S
C594 C592 1.419 . S
C594 C595 1.363 . S
C594 H597 0.929 . S
C595 C594 1.363 . S
C595 C601 1.428 . S
H596 C592 0.930 . S
H597 C594 0.929 . S
S598 N599 1.613 . S
S598 N600 1.610 . S
N599 S598 1.613 . S
N599 C602 1.350 . S
N600 S598 1.610 . S
N600 C601 1.351 . S
C601 C595 1.428 . S
C601 N600 1.351 . S
C601 C602 1.434 . S
C602 C593 1.429 . S
C602 N599 1.350 . S
C602 C601 1.434 . S
C603 C604 1.369 . S
C603 C605 1.419 . S
C603 H607 0.930 . S
C604 C603 1.369 . S
C604 C613 1.429 . S
C605 C603 1.419 . S
C605 C606 1.363 . S
C605 H608 0.929 . S
C606 C605 1.363 . S
C606 C612 1.428 . S
H607 C603 0.930 . S
H608 C605 0.929 . S
S609 N610 1.613 . S
S609 N611 1.610 . S
N610 S609 1.613 . S
N610 C613 1.350 . S
N611 S609 1.610 . S
N611 C612 1.351 . S
C612 C606 1.428 . S
C612 N611 1.351 . S
C612 C613 1.434 . S
C613 C604 1.429 . S
C613 N610 1.350 . S
C613 C612 1.434 . S
C614 C615 1.369 . S
C614 C616 1.419 . S
C614 H618 0.930 . S
C615 C614 1.369 . S
C615 C624 1.429 . S
C616 C614 1.419 . S
C616 C617 1.363 . S
C616 H619 0.929 . S
C617 C616 1.363 . S
C617 C623 1.428 . S
H618 C614 0.930 . S
H619 C616 0.929 . S
S620 N621 1.613 1_545 S
S620 N622 1.610 . S
N621 S620 1.613 1_565 S
N621 C624 1.350 . S
N622 S620 1.610 . S
N622 C623 1.351 1_545 S
C623 C617 1.428 . S
C623 N622 1.351 1_565 S
C623 C624 1.434 . S
C624 C615 1.429 . S
C624 N621 1.350 . S
C624 C623 1.434 . S
C625 C626 1.369 . S
C625 C627 1.419 1_655 S
C625 H629 0.930 1_545 S
C626 C625 1.369 . S
C626 C635 1.429 . S
C627 C625 1.419 1_455 S
C627 C628 1.363 . S
C627 H630 0.929 . S
C628 C627 1.363 . S
C628 C634 1.428 1_455 S
H629 C625 0.930 1_565 S
H630 C627 0.929 . S
S631 N632 1.613 . S
S631 N633 1.610 . S
N632 S631 1.613 . S
N632 C635 1.350 . S
N633 S631 1.610 . S
N633 C634 1.351 . S
C634 C628 1.428 1_655 S
C634 N633 1.351 . S
C634 C635 1.434 . S
C635 C626 1.429 . S
C635 N632 1.350 . S
C635 C634 1.434 . S
C241 C9 1.684 . S
C243 C226 1.722 . S
C252 C189 1.835 . S
C254 C29 1.810 1_655 S
C263 C46 1.267 . S
C265 C166 1.245 . S
C274 C69 1.504 . S
C276 C206 1.426 . S
C285 C86 1.624 . S
C287 C209 1.698 . S
C296 C109 1.765 . S
C298 C229 1.788 . S
C307 C186 1.610 1_554 S
C309 C129 1.606 . S
C318 C146 1.444 . S
C320 C169 1.484 . S
C329 C66 1.612 . S
C331 C89 1.655 . S
C340 C6 1.239 . S
C342 C106 1.281 . S
C351 C26 1.309 . S
C353 C126 1.263 . S
C362 C149 2.076 . S
C364 C49 2.051 . S
C373 C8 1.415 . S
C375 C176 1.396 . S
C384 C28 1.418 1_655 S
C386 C216 1.378 . S
C395 C236 1.761 . S
C397 C59 1.750 . S
C406 C68 1.707 . S
C408 C181 1.762 . S
C417 C99 1.665 . S
C419 C196 1.739 . S
C428 C161 1.621 . S
C430 C108 1.556 . S
C439 C201 1.602 . S
C441 C128 1.557 . S
C450 C221 1.864 . S
C452 C159 1.746 . S
C461 C16 1.303 . S
C463 C79 1.222 . S
C472 C19 1.352 . S
C474 C36 1.394 1_545 S
C483 C39 1.263 . S
C485 C41 1.353 . S
C494 C76 1.365 . S
C496 C48 1.463 . S
C505 C119 1.639 . S
C507 C81 1.749 . S
C516 C116 1.776 . S
C518 C139 1.663 1_556 S
C527 C136 1.589 . S
C529 C148 1.648 . S
C538 C88 1.979 . S
C540 C141 1.974 . S
C549 C168 1.571 . S
C551 C61 1.662 . S
C560 C101 1.767 . S
C562 C188 1.733 . S
C571 C179 1.388 . S
C573 C121 1.520 . S
C582 C219 1.458 . S
C584 C156 1.562 . S
C593 C96 1.492 . S
C595 C239 1.447 . S
C604 C228 1.705 . S
C606 C21 1.670 . S
C615 C56 1.566 . S
C617 C199 1.530 . S
C626 C208 1.480 . S
C628 C1 1.538 . S
