# Generated by pormake.
# Topology wkf, (6)-cn, num edge types: 1
# Building blocks:
#     Node 0, Type 0, BuildingBlock: KUMJIN_clean_sbu_1, # of connection points: 6
#     Node 1, Type 0, BuildingBlock: KUMJIN_clean_sbu_1, # of connection points: 6
#     Node 2, Type 0, BuildingBlock: KUMJIN_clean_sbu_1, # of connection points: 6
#     Node 3, Type 0, BuildingBlock: KUMJIN_clean_sbu_1, # of connection points: 6
#     Node 4, Type 0, BuildingBlock: KUMJIN_clean_sbu_1, # of connection points: 6
#     Node 5, Type 0, BuildingBlock: KUMJIN_clean_sbu_1, # of connection points: 6
#     Node 6, Type 0, BuildingBlock: KUMJIN_clean_sbu_1, # of connection points: 6
#     Node 7, Type 0, BuildingBlock: KUMJIN_clean_sbu_1, # of connection points: 6
#     Node 8, Type 0, BuildingBlock: KUMJIN_clean_sbu_1, # of connection points: 6
#     Node 9, Type 0, BuildingBlock: KUMJIN_clean_sbu_1, # of connection points: 6
#     Node 10, Type 0, BuildingBlock: KUMJIN_clean_sbu_1, # of connection points: 6
#     Node 11, Type 0, BuildingBlock: KUMJIN_clean_sbu_1, # of connection points: 6
#     Edge 12, Type (0, 0), BuildingBlock: XIVTED_clean_linker_0, # of connection points: 2
#     Edge 13, Type (0, 0), BuildingBlock: XIVTED_clean_linker_0, # of connection points: 2
#     Edge 14, Type (0, 0), BuildingBlock: XIVTED_clean_linker_0, # of connection points: 2
#     Edge 15, Type (0, 0), BuildingBlock: XIVTED_clean_linker_0, # of connection points: 2
#     Edge 16, Type (0, 0), BuildingBlock: XIVTED_clean_linker_0, # of connection points: 2
#     Edge 17, Type (0, 0), BuildingBlock: XIVTED_clean_linker_0, # of connection points: 2
#     Edge 18, Type (0, 0), BuildingBlock: XIVTED_clean_linker_0, # of connection points: 2
#     Edge 19, Type (0, 0), BuildingBlock: XIVTED_clean_linker_0, # of connection points: 2
#     Edge 20, Type (0, 0), BuildingBlock: XIVTED_clean_linker_0, # of connection points: 2
#     Edge 21, Type (0, 0), BuildingBlock: XIVTED_clean_linker_0, # of connection points: 2
#     Edge 22, Type (0, 0), BuildingBlock: XIVTED_clean_linker_0, # of connection points: 2
#     Edge 23, Type (0, 0), BuildingBlock: XIVTED_clean_linker_0, # of connection points: 2
#     Edge 24, Type (0, 0), BuildingBlock: XIVTED_clean_linker_0, # of connection points: 2
#     Edge 25, Type (0, 0), BuildingBlock: XIVTED_clean_linker_0, # of connection points: 2
#     Edge 26, Type (0, 0), BuildingBlock: XIVTED_clean_linker_0, # of connection points: 2
#     Edge 27, Type (0, 0), BuildingBlock: XIVTED_clean_linker_0, # of connection points: 2
#     Edge 28, Type (0, 0), BuildingBlock: XIVTED_clean_linker_0, # of connection points: 2
#     Edge 29, Type (0, 0), BuildingBlock: XIVTED_clean_linker_0, # of connection points: 2
#     Edge 30, Type (0, 0), BuildingBlock: XIVTED_clean_linker_0, # of connection points: 2
#     Edge 31, Type (0, 0), BuildingBlock: XIVTED_clean_linker_0, # of connection points: 2
#     Edge 32, Type (0, 0), BuildingBlock: XIVTED_clean_linker_0, # of connection points: 2
#     Edge 33, Type (0, 0), BuildingBlock: XIVTED_clean_linker_0, # of connection points: 2
#     Edge 34, Type (0, 0), BuildingBlock: XIVTED_clean_linker_0, # of connection points: 2
#     Edge 35, Type (0, 0), BuildingBlock: XIVTED_clean_linker_0, # of connection points: 2
#     Edge 36, Type (0, 0), BuildingBlock: XIVTED_clean_linker_0, # of connection points: 2
#     Edge 37, Type (0, 0), BuildingBlock: XIVTED_clean_linker_0, # of connection points: 2
#     Edge 38, Type (0, 0), BuildingBlock: XIVTED_clean_linker_0, # of connection points: 2
#     Edge 39, Type (0, 0), BuildingBlock: XIVTED_clean_linker_0, # of connection points: 2
#     Edge 40, Type (0, 0), BuildingBlock: XIVTED_clean_linker_0, # of connection points: 2
#     Edge 41, Type (0, 0), BuildingBlock: XIVTED_clean_linker_0, # of connection points: 2
#     Edge 42, Type (0, 0), BuildingBlock: XIVTED_clean_linker_0, # of connection points: 2
#     Edge 43, Type (0, 0), BuildingBlock: XIVTED_clean_linker_0, # of connection points: 2
#     Edge 44, Type (0, 0), BuildingBlock: XIVTED_clean_linker_0, # of connection points: 2
#     Edge 45, Type (0, 0), BuildingBlock: XIVTED_clean_linker_0, # of connection points: 2
#     Edge 46, Type (0, 0), BuildingBlock: XIVTED_clean_linker_0, # of connection points: 2
#     Edge 47, Type (0, 0), BuildingBlock: XIVTED_clean_linker_0, # of connection points: 2
# Relax obj value: 0.238
# Max RMSD: 0.285
# Mean RMSD: 0.278
data_MOF--net-wkf--node1-KUMJIN_clean_sbu_1--edge1-XIVTED_clean_linker_0
_symmetry_space_group_name_H-M    P1
_symmetry_Int_Tables_number       1
_symmetry_cell_setting            triclinic
loop_
_symmetry_equiv_pos_as_xyz
'x, y, z'
_cell_length_a     30.134639
_cell_length_b     30.183375
_cell_length_c     89.5971
_cell_angle_alpha  89.99109
_cell_angle_beta   89.995915
_cell_angle_gamma 119.27461
loop_
_atom_site_label
_atom_site_type_symbol
_atom_site_fract_x
_atom_site_fract_y
_atom_site_fract_z
_atom_type_partial_charge
Eu0 Eu 0.41348 0.9666 0.34433 0.0
C1 C 0.62388 0.98341 0.36799 0.0
N2 N 0.57996 0.96797 0.37562 0.0
C3 C 0.59677 0.91201 0.39053 0.0
C4 C 0.6566 0.96384 0.37148 0.0
C5 C 0.56563 0.93256 0.38668 0.0
C6 C 0.64273 0.92807 0.383 0.0
C7 C 0.67758 1.02954 0.3471 0.0
C8 C 0.63401 1.01588 0.35596 0.0
C9 C 0.7117 1.01224 0.35098 0.0
C10 C 0.70116 0.97936 0.36312 0.0
Eu11 Eu 0.53353 1.00968 0.3703 0.0
N12 N 0.59941 0.03085 0.35228 0.0
C13 C 0.68463 0.05855 0.33427 0.0
C14 C 0.60435 0.05556 0.33909 0.0
C15 C 0.64732 0.0707 0.3301 0.0
H16 H 0.53029 0.92053 0.3926 0.0
H17 H 0.65123 0.09112 0.31981 0.0
H18 H 0.44138 0.05816 0.3174 0.0
H19 H 0.23424 0.86903 0.37536 0.0
H20 H 0.5752 0.06279 0.33506 0.0
H21 H 0.71759 0.06988 0.32718 0.0
H22 H 0.30989 0.87645 0.36261 0.0
H23 H 0.58544 0.884 0.39934 0.0
H24 H 0.74554 1.0228 0.34437 0.0
H25 H 0.72704 0.96512 0.36571 0.0
H26 H 0.41867 0.12381 0.31139 0.0
H27 H 0.66675 0.91198 0.38597 0.0
H28 H 0.21362 0.93869 0.37355 0.0
N29 N 0.39224 1.02966 0.33624 0.0
C30 C 0.35194 1.029 0.34331 0.0
C31 C 0.40018 0.09805 0.3206 0.0
C32 C 0.33721 0.06586 0.3401 0.0
C33 C 0.41322 0.06079 0.32415 0.0
C34 C 0.36307 0.10163 0.32892 0.0
N35 N 0.33433 0.95104 0.3545 0.0
C36 C 0.3023 0.90769 0.36206 0.0
C37 C 0.27848 0.9854 0.35954 0.0
C38 C 0.32215 0.9886 0.35268 0.0
C39 C 0.24743 0.94249 0.36811 0.0
C40 C 0.25893 0.9031 0.36915 0.0
H41 H 0.3528 0.13037 0.3261 0.0
H42 H 0.28422 0.09273 0.34538 0.0
H43 H 0.23321 1.02263 0.36259 0.0
O44 O 0.34448 0.91687 0.33137 0.0
O45 O 0.40388 0.99119 0.36809 0.0
O46 O 0.4865 0.04805 0.37097 0.0
O47 O 0.41841 0.94542 0.32131 0.0
O48 O 0.39975 0.90547 0.36223 0.0
O49 O 0.46055 0.946 0.38068 0.0
O50 O 0.59755 0.06545 0.38353 0.0
O51 O 0.51909 0.93807 0.35726 0.0
O52 O 0.45012 0.91317 0.34149 0.0
O53 O 0.53072 1.00695 0.39456 0.0
O54 O 0.53885 0.08178 0.35836 0.0
O55 O 0.48236 0.04926 0.33864 0.0
C56 C 0.44004 1.02886 0.37562 0.0
C57 C 0.3491 0.92736 0.30479 0.0
C58 C 0.28472 0.89621 0.28474 0.0
C59 C 0.31313 0.94283 0.27732 0.0
C60 C 0.37768 0.97198 0.2965 0.0
C61 C 0.35926 0.9801 0.28312 0.0
C62 C 0.30274 0.88892 0.29868 0.0
C63 C 0.41633 0.90847 0.37616 0.0
C64 C 0.36924 0.91954 0.3192 0.0
C65 C 0.29544 0.06424 0.34753 0.0
C66 C 0.26626 1.02421 0.35728 0.0
C67 C 0.48813 0.90706 0.34696 0.0
C68 C 0.57293 0.08538 0.40684 0.0
C69 C 0.59199 0.17214 0.41329 0.0
C70 C 0.57211 0.15397 0.42771 0.0
C71 C 0.55414 0.06908 0.42126 0.0
C72 C 0.59048 0.13622 0.40283 0.0
C73 C 0.55313 0.10308 0.43153 0.0
C74 C 0.51787 0.08951 0.34615 0.0
C75 C 0.57379 0.04853 0.3962 0.0
H76 H 0.30104 0.94956 0.26658 0.0
H77 H 0.41505 1.00022 0.3001 0.0
H78 H 0.38168 1.01494 0.27696 0.0
H79 H 0.28136 0.85327 0.30457 0.0
H80 H 0.57187 0.17838 0.43644 0.0
H81 H 0.54019 0.02994 0.42457 0.0
H82 H 0.60309 0.1468 0.39151 0.0
H83 H 0.53856 0.09017 0.44267 0.0
Eu84 Eu 0.47971 0.39392 0.51039 0.0
C85 C 0.66152 0.60188 0.5369 0.0
N86 N 0.63407 0.55854 0.5447 0.0
C87 C 0.70544 0.57896 0.56065 0.0
C88 C 0.71209 0.63659 0.54095 0.0
C89 C 0.65544 0.54589 0.55621 0.0
C90 C 0.73369 0.62494 0.55313 0.0
C91 C 0.66936 0.65201 0.51502 0.0
C92 C 0.64033 0.60918 0.52411 0.0
C93 C 0.71851 0.68858 0.51952 0.0
C94 C 0.73994 0.68075 0.53244 0.0
Eu95 Eu 0.54791 0.5076 0.53809 0.0
N96 N 0.59341 0.57201 0.51984 0.0
C97 C 0.64921 0.6555 0.50131 0.0
C98 C 0.57654 0.57279 0.50575 0.0
C99 C 0.60318 0.61505 0.49649 0.0
H100 H 0.63397 0.5101 0.56198 0.0
H101 H 0.58872 0.61589 0.4855 0.0
H102 H 0.41127 0.41856 0.48415 0.0
H103 H 0.41036 0.21409 0.54078 0.0
H104 H 0.54366 0.54063 0.50129 0.0
H105 H 0.67016 0.68781 0.49401 0.0
H106 H 0.47397 0.29071 0.52783 0.0
H107 H 0.72213 0.56893 0.56984 0.0
H108 H 0.74106 0.72197 0.51276 0.0
H109 H 0.7786 0.70822 0.53547 0.0
H110 H 0.32202 0.39264 0.47865 0.0
H111 H 0.77251 0.65044 0.55653 0.0
H112 H 0.31933 0.18985 0.53953 0.0
N113 N 0.39445 0.36881 0.50267 0.0
C114 C 0.35709 0.32728 0.50969 0.0
C115 C 0.33123 0.37449 0.48762 0.0
C116 C 0.30516 0.3106 0.50677 0.0
C117 C 0.38196 0.38945 0.49089 0.0
C118 C 0.29261 0.33586 0.49591 0.0
N119 N 0.42079 0.31319 0.52052 0.0
C120 C 0.43491 0.28213 0.52773 0.0
C121 C 0.33258 0.25401 0.52571 0.0
C122 C 0.37057 0.29861 0.51883 0.0
C123 C 0.34736 0.2243 0.53407 0.0
C124 C 0.39868 0.23791 0.53483 0.0
H125 H 0.25327 0.32412 0.49331 0.0
H126 H 0.22745 0.25505 0.51227 0.0
H127 H 0.25149 0.20589 0.52904 0.0
O128 O 0.46875 0.32633 0.49783 0.0
O129 O 0.44045 0.38401 0.53343 0.0
O130 O 0.46303 0.46615 0.53823 0.0
O131 O 0.49897 0.39837 0.48669 0.0
O132 O 0.52868 0.3803 0.52788 0.0
O133 O 0.53216 0.43108 0.54753 0.0
O134 O 0.54573 0.56502 0.55285 0.0
O135 O 0.60656 0.48781 0.52797 0.0
O136 O 0.56926 0.4431 0.50644 0.0
O137 O 0.54795 0.50018 0.56206 0.0
O138 O 0.4863 0.51858 0.52478 0.0
O139 O 0.45952 0.45967 0.50554 0.0
C140 C 0.43317 0.41806 0.54055 0.0
C141 C 0.45088 0.32415 0.47167 0.0
C142 C 0.41581 0.25436 0.45326 0.0
C143 C 0.39053 0.27746 0.44631 0.0
C144 C 0.42788 0.34753 0.46365 0.0
C145 C 0.39692 0.32377 0.45139 0.0
C146 C 0.44562 0.27769 0.46617 0.0
C147 C 0.53285 0.39059 0.54239 0.0
C148 C 0.48273 0.34982 0.48509 0.0
C149 C 0.26741 0.26778 0.5142 0.0
C150 C 0.28109 0.23968 0.5237 0.0
C151 C 0.61085 0.47044 0.51481 0.0
C152 C 0.49651 0.52549 0.57492 0.0
C153 C 0.43296 0.5444 0.58547 0.0
C154 C 0.41558 0.50183 0.5948 0.0
C155 C 0.47819 0.48268 0.58437 0.0
C156 C 0.47323 0.55593 0.57547 0.0
C157 C 0.43788 0.47091 0.59413 0.0
C158 C 0.45761 0.49786 0.51261 0.0
C159 C 0.54012 0.53798 0.56481 0.0
H160 H 0.36798 0.26115 0.43634 0.0
H161 H 0.43479 0.38498 0.46652 0.0
H162 H 0.37905 0.3422 0.44549 0.0
H163 H 0.46531 0.26036 0.47169 0.0
H164 H 0.385 0.49275 0.60267 0.0
H165 H 0.49513 0.45825 0.58431 0.0
H166 H 0.48759 0.58959 0.56854 0.0
H167 H 0.42421 0.43797 0.60132 0.0
Eu168 Eu 0.10058 0.45374 0.67679 0.0
C169 C 0.07143 0.63956 0.69025 0.0
N170 N 0.08282 0.61837 0.70187 0.0
C171 C 0.11955 0.69745 0.71513 0.0
C172 C 0.08251 0.69069 0.69076 0.0
C173 C 0.10787 0.64669 0.71407 0.0
C174 C 0.10614 0.7194 0.70351 0.0
C175 C 1.04417 0.63347 0.66462 0.0
C176 C 0.0525 0.61119 0.67742 0.0
C177 C 0.05207 0.68333 0.66532 0.0
C178 C 0.07134 0.71195 0.67837 0.0
Eu179 Eu 0.0565 0.53099 0.70049 0.0
N180 N 0.04704 0.5637 0.67702 0.0
C181 C 1.03073 0.606 0.65128 0.0
C182 C 1.03911 0.53937 0.66363 0.0
C183 C 1.02946 0.55926 0.65071 0.0
H184 H 0.1189 0.63018 0.72303 0.0
H185 H 1.02223 0.53903 0.64023 0.0
H186 H 1.03466 0.41129 0.64405 0.0
H187 H 0.15502 0.33955 0.71215 0.0
H188 H 1.04231 0.50584 0.66257 0.0
H189 H 1.02405 0.62172 0.64121 0.0
H190 H 0.16711 0.41788 0.69986 0.0
H191 H 0.13895 0.71961 0.72489 0.0
H192 H 0.04531 0.70077 0.65565 0.0
H193 H 0.07901 0.75096 0.6786 0.0
H194 H 0.97014 0.32976 0.63317 0.0
H195 H 0.11545 0.75884 0.70431 0.0
H196 H 0.0783 0.25752 0.70675 0.0
N197 N 1.03861 0.37832 0.66471 0.0
C198 C 1.02587 0.33431 0.67217 0.0
C199 C 0.98499 0.33062 0.64423 0.0
C200 C 0.98858 0.28708 0.66641 0.0
C201 C 1.02176 0.37662 0.65038 0.0
C202 C 0.96686 0.28597 0.65252 0.0
N203 N 0.097 0.38076 0.68799 0.0
C204 C 0.13355 0.38226 0.6974 0.0
C205 C 0.04796 0.28991 0.69087 0.0
C206 C 0.05604 0.33557 0.68415 0.0
C207 C 0.08322 0.29181 0.70138 0.0
C208 C 0.12676 0.33799 0.7044 0.0
H209 H 0.93838 0.25042 0.6477 0.0
H210 H 0.94802 0.20562 0.66992 0.0
H211 H 0.99958 0.20819 0.69146 0.0
O212 O 0.16554 0.44428 0.67021 0.0
O213 O 0.07187 0.42162 0.70066 0.0
O214 O 1.01369 0.44763 0.70398 0.0
O215 O 0.12649 0.46172 0.6533 0.0
O216 O 0.16007 0.49726 0.69492 0.0
O217 O 0.11805 0.51952 0.71249 0.0
O218 O 0.99928 0.54249 0.71252 0.0
O219 O 0.13877 0.58212 0.69295 0.0
O220 O 0.13833 0.543 0.67098 0.0
O221 O 0.05912 0.53819 0.72458 0.0
O222 O 0.98301 0.46694 0.68849 0.0
O223 O 1.01227 0.42592 0.67268 0.0
C224 C 1.03173 0.41801 0.70765 0.0
C225 C 0.16288 0.40929 0.64627 0.0
C226 C 0.19993 0.38168 0.62608 0.0
C227 C 0.16553 0.33096 0.62981 0.0
C228 C 0.13146 0.35805 0.64992 0.0
C229 C 0.13186 0.31939 0.64163 0.0
C230 C 0.1976 0.42119 0.63417 0.0
C231 C 0.15585 0.51128 0.70861 0.0
C232 C 0.16143 0.44911 0.65594 0.0
C233 C 0.97737 0.24207 0.67399 0.0
C234 C 1.00689 0.24352 0.68624 0.0
C235 C 0.15819 0.5851 0.67957 0.0
C236 C 0.98137 0.5061 0.73717 0.0
C237 C 0.89595 0.44466 0.746 0.0
C238 C 0.91706 0.44568 0.76015 0.0
C239 C 1.0009 0.50607 0.75138 0.0
C240 C 0.9291 0.47463 0.73444 0.0
C241 C 0.96903 0.47562 0.76271 0.0
C242 C 0.9736 0.43102 0.67821 0.0
C243 C 1.01686 0.53966 0.72559 0.0
H244 H 0.16505 0.29983 0.62366 0.0
H245 H 0.10732 0.34756 0.65947 0.0
H246 H 0.10659 0.28013 0.6446 0.0
H247 H 0.22362 0.46053 0.63146 0.0
H248 H 0.89361 0.42501 0.76956 0.0
H249 H 1.04103 0.52989 0.75376 0.0
H250 H 0.91466 0.47373 0.72333 0.0
H251 H 0.9845 0.47619 0.77366 0.0
Eu252 Eu 0.67466 0.0954 0.84277 0.0
C253 C 0.46598 0.0704 0.86787 0.0
N254 N 0.50708 0.08473 0.87671 0.0
C255 C 0.47813 0.12794 0.89313 0.0
C256 C 0.42811 0.08315 0.87156 0.0
C257 C 0.51449 0.11418 0.88901 0.0
C258 C 0.43431 0.1117 0.88449 0.0
C259 C 0.42377 0.03458 0.84447 0.0
C260 C 0.46408 0.04654 0.85453 0.0
C261 C 0.38407 0.04407 0.84849 0.0
C262 C 0.38635 0.0685 0.862 0.0
Eu263 Eu 0.5633 0.05454 0.87047 0.0
N264 N 0.50399 0.03945 0.85084 0.0
C265 C 0.42584 1.01579 0.83038 0.0
C266 C 0.50859 1.02645 0.83657 0.0
C267 C 0.46908 1.01297 0.82629 0.0
H268 H 0.54841 0.12692 0.8957 0.0
H269 H 0.47243 1.00133 0.81511 0.0
H270 H 0.64699 1.00596 0.81544 0.0
H271 H 0.85689 0.19753 0.87244 0.0
H272 H 0.54296 1.02761 0.83288 0.0
H273 H 0.39561 1.006 0.82233 0.0
H274 H 0.77992 0.18861 0.86038 0.0
H275 H 0.48389 0.15097 0.90297 0.0
H276 H 0.35249 0.0345 0.84098 0.0
H277 H 0.35648 0.0773 0.86472 0.0
H278 H 0.67326 0.94361 0.80814 0.0
H279 H 0.40622 0.12251 0.88767 0.0
H280 H 0.87983 0.12971 0.86987 0.0
N281 N 0.6987 0.03569 0.83362 0.0
C282 C 0.74035 0.03771 0.8402 0.0
C283 C 0.69202 0.96931 0.81734 0.0
C284 C 0.75661 1.00245 0.83641 0.0
C285 C 0.67731 1.00485 0.82151 0.0
C286 C 0.73088 0.96706 0.82512 0.0
N287 N 0.75598 0.11414 0.8521 0.0
C288 C 0.78795 0.15771 0.8596 0.0
C289 C 0.81453 0.08228 0.85611 0.0
C290 C 0.7697 0.07789 0.84972 0.0
C291 C 0.8452 0.12504 0.86477 0.0
C292 C 0.83236 0.16337 0.86626 0.0
H293 H 0.7423 0.93953 0.82186 0.0
H294 H 0.81191 0.97782 0.84082 0.0
H295 H 0.86221 0.04732 0.85826 0.0
O296 O 0.74118 0.14833 0.8294 0.0
O297 O 0.68681 0.06918 0.86602 0.0
O298 O 0.60504 1.01066 0.87101 0.0
O299 O 0.66641 0.11203 0.81952 0.0
O300 O 0.69156 0.15917 0.86 0.0
O301 O 0.63896 0.11641 0.87978 0.0
O302 O 0.50291 1.00102 0.88524 0.0
O303 O 0.58311 0.13293 0.86089 0.0
O304 O 0.62646 0.13797 0.83919 0.0
O305 O 0.5738 0.05937 0.8945 0.0
O306 O 0.54938 0.98029 0.85766 0.0
O307 O 0.61114 1.00872 0.83921 0.0
C308 C 0.65332 1.02873 0.87332 0.0
C309 C 0.73675 0.13407 0.80295 0.0
C310 C 0.80336 0.16573 0.78352 0.0
C311 C 0.77549 0.11954 0.77585 0.0
C312 C 0.70868 0.09012 0.79433 0.0
C313 C 0.7285 0.08237 0.78117 0.0
C314 C 0.78398 0.17252 0.79728 0.0
C315 C 0.68037 0.1554 0.87444 0.0
C316 C 0.71514 0.14128 0.81719 0.0
C317 C 0.79953 1.00516 0.84341 0.0
C318 C 0.82828 0.04484 0.85329 0.0
C319 C 0.60021 0.1538 0.84767 0.0
C320 C 0.53592 0.9802 0.90673 0.0
C321 C 0.49896 0.89378 0.9163 0.0
C322 C 0.54239 0.90772 0.92504 0.0
C323 C 0.57893 0.99405 0.9158 0.0
C324 C 0.49636 0.93002 0.90706 0.0
C325 C 0.582 0.95793 0.92487 0.0
C326 C 0.5709 0.97039 0.84594 0.0
C327 C 0.53153 1.01776 0.89713 0.0
H328 H 0.78867 0.11318 0.76524 0.0
H329 H 0.67067 0.06201 0.79749 0.0
H330 H 0.70651 0.04795 0.77479 0.0
H331 H 0.80496 0.20785 0.80335 0.0
H332 H 0.54498 0.88034 0.93229 0.0
H333 H 0.61016 0.0327 0.91592 0.0
H334 H 0.46297 0.91904 0.90018 0.0
H335 H 0.61506 0.969 0.93186 0.0
Eu336 Eu 0.61169 0.66927 0.01139 0.0
C337 C 0.42413 0.46058 0.03549 0.0
N338 N 0.45217 0.50308 0.04356 0.0
C339 C 0.38088 0.48329 0.05945 0.0
C340 C 0.3731 0.42669 0.0393 0.0
C341 C 0.43137 0.5155 0.05526 0.0
C342 C 0.35174 0.4383 0.05155 0.0
C343 C 0.41631 0.41085 0.01353 0.0
C344 C 0.44558 0.4531 0.02279 0.0
C345 C 0.36641 0.37521 0.01771 0.0
C346 C 0.34475 0.38326 0.03055 0.0
Eu347 Eu 0.53878 0.55235 0.03753 0.0
N348 N 0.49343 0.48929 0.01889 0.0
C349 C 0.43724 0.40682 1.00003 0.0
C350 C 0.51153 0.48783 0.00503 0.0
C351 C 0.48457 0.44612 0.99561 0.0
H352 H 0.45386 0.55032 0.06139 0.0
H353 H 0.49993 0.44481 0.9848 0.0
H354 H 0.66489 0.64934 0.98012 0.0
H355 H 0.71449 0.83242 0.04876 0.0
H356 H 0.5457 0.519 1.00084 0.0
H357 H 0.41615 0.3749 0.99262 0.0
H358 H 0.64073 0.76926 0.03441 0.0
H359 H 0.36453 0.49313 0.06878 0.0
H360 H 0.34365 0.34228 0.01081 0.0
H361 H 0.30568 0.35641 0.03338 0.0
H362 H 0.74906 0.66435 0.97169 0.0
H363 H 0.31259 0.4134 0.05479 0.0
H364 H 0.79855 0.83783 0.04566 0.0
N365 N 0.69142 0.68362 1.00143 0.0
C366 C 0.7333 0.71391 0.00974 0.0
C367 C 0.74507 0.6778 0.98254 0.0
C368 C 0.78218 0.7234 0.00533 0.0
C369 C 0.69745 0.66945 0.98737 0.0
C370 C 0.78729 0.70317 0.99181 0.0
N371 N 0.6818 0.73713 0.02394 0.0
C372 C 0.67705 0.77097 0.03307 0.0
C373 C 0.77181 0.77808 0.02907 0.0
C374 C 0.72847 0.74199 0.02126 0.0
C375 C 0.76618 0.80968 0.03943 0.0
C376 C 0.71883 0.80688 0.04118 0.0
H377 H 0.82417 0.70979 0.988 0.0
H378 H 0.8625 0.76292 0.01082 0.0
H379 H 0.85325 0.81023 0.0318 0.0
O380 O 0.61782 0.74188 0.00448 0.0
O381 O 0.64432 0.67107 0.03515 0.0
O382 O 0.62297 0.58884 0.03849 0.0
O383 O 0.60914 0.68835 0.98768 0.0
O384 O 0.56383 0.68382 0.02888 0.0
O385 O 0.55246 0.62764 0.04793 0.0
O386 O 0.53219 0.48994 0.0517 0.0
O387 O 0.48486 0.57813 0.02745 0.0
O388 O 0.52338 0.61736 0.00545 0.0
O389 O 0.54163 0.55937 0.06162 0.0
O390 O 0.60268 0.5444 0.02429 0.0
O391 O 0.6275 0.60188 0.0047 0.0
C392 C 0.65269 0.63638 0.04141 0.0
C393 C 0.65943 0.77644 0.98144 0.0
C394 C 0.69025 0.84077 0.96132 0.0
C395 C 0.74033 0.85719 0.96617 0.0
C396 C 0.7099 0.79595 0.98615 0.0
C397 C 0.7499 0.83513 0.97848 0.0
C398 C 0.64956 0.79917 0.96887 0.0
C399 C 0.55563 0.67053 0.04316 0.0
C400 C 0.61798 0.73438 0.99022 0.0
C401 C 0.82488 0.75613 0.01386 0.0
C402 C 0.81965 0.78329 0.02576 0.0
C403 C 0.48122 0.59319 0.01389 0.0
C404 C 0.57906 0.51911 0.07468 0.0
C405 C 0.64252 0.49566 0.08285 0.0
C406 C 0.64737 0.5217 0.09637 0.0
C407 C 0.58467 0.54436 0.08828 0.0
C408 C 0.60949 0.49669 0.07178 0.0
C409 C 0.61929 0.5464 0.09891 0.0
C410 C 0.6312 0.56508 0.01205 0.0
C411 C 0.54058 0.51641 0.06395 0.0
H412 H 0.77252 0.88755 0.96046 0.0
H413 H 0.71862 0.78154 0.99596 0.0
H414 H 0.78862 0.84897 0.98223 0.0
H415 H 0.61069 0.78562 0.96531 0.0
H416 H 0.67102 0.52148 0.1054 0.0
H417 H 0.56194 0.56232 0.09074 0.0
H418 H 0.60635 0.47928 0.06101 0.0
H419 H 0.62308 0.56573 0.1094 0.0
Eu420 Eu 0.9881 0.60493 0.178 0.0
C421 C 1.01866 0.42117 0.19098 0.0
N422 N 1.00737 0.44185 0.20276 0.0
C423 C 0.97131 0.36231 0.21579 0.0
C424 C 1.00784 0.37009 0.19129 0.0
C425 C 0.98274 0.41304 0.21493 0.0
C426 C 0.98458 0.34089 0.20399 0.0
C427 C 0.04544 0.42824 0.16527 0.0
C428 C 1.03719 0.44998 0.17821 0.0
C429 C 1.03783 0.37846 0.16576 0.0
C430 C 1.01891 0.34937 0.17875 0.0
Eu431 Eu 1.03308 0.52919 0.2017 0.0
N432 N 1.04231 0.49734 0.17801 0.0
C433 C 0.0585 0.45613 0.15201 0.0
C434 C 0.0498 0.52202 0.16469 0.0
C435 C 0.05941 0.5027 0.15165 0.0
H436 H 0.97176 0.42911 0.22403 0.0
H437 H 0.06627 0.52323 0.14123 0.0
H438 H 0.05015 0.64213 0.14467 0.0
H439 H 0.93738 0.72302 0.21287 0.0
H440 H 0.04614 0.5553 0.16378 0.0
H441 H 0.06511 0.44083 0.14184 0.0
H442 H 0.92452 0.64311 0.20148 0.0
H443 H 0.95218 0.33977 0.22552 0.0
H444 H 1.04452 0.36144 0.15598 0.0
H445 H 1.01142 0.31041 0.17882 0.0
H446 H 0.1109 0.72221 0.13221 0.0
H447 H 0.97545 0.30148 0.20463 0.0
H448 H 1.01241 0.80457 0.20597 0.0
N449 N 0.04791 0.67848 0.16483 0.0
C450 C 0.06095 0.72353 0.1717 0.0
C451 C 0.09767 0.72303 0.14338 0.0
C452 C 0.09642 0.76997 0.16507 0.0
C453 C 0.06306 0.67785 0.15043 0.0
C454 C 0.11591 0.76907 0.15096 0.0
N455 N 0.99277 0.67901 0.18868 0.0
C456 C 0.95738 0.67855 0.19838 0.0
C457 C 1.04104 0.77028 0.19018 0.0
C458 C 1.03273 0.72376 0.18404 0.0
C459 C 1.00724 0.76961 0.20102 0.0
C460 C 0.96462 0.72369 0.20488 0.0
H461 H 0.1428 0.80397 0.14546 0.0
H462 H 0.13597 0.85194 0.16727 0.0
H463 H 0.08797 0.85215 0.18938 0.0
O464 O 0.92236 0.61364 0.17194 0.0
O465 O 1.01794 0.63849 0.20168 0.0
O466 O 0.07601 0.61238 0.20534 0.0
O467 O 0.95961 0.59487 0.15476 0.0
O468 O 0.92925 0.56198 0.19622 0.0
O469 O 0.97199 0.54121 0.21391 0.0
O470 O 0.09049 0.51763 0.21359 0.0
O471 O 0.95061 0.47796 0.19455 0.0
O472 O 0.95079 0.51562 0.17236 0.0
O473 O 1.03046 0.52119 0.22576 0.0
O474 O 0.10634 0.59351 0.18962 0.0
O475 O 0.07689 0.63478 0.17395 0.0
C476 C 0.05816 0.64241 0.20872 0.0
C477 C 0.92216 0.64648 0.14788 0.0
C478 C 0.88362 0.67174 0.12757 0.0
C479 C 0.91719 0.7229 0.13109 0.0
C480 C 0.95233 0.69801 0.15141 0.0
C481 C 0.95089 0.73577 0.14294 0.0
C482 C 0.88723 0.63324 0.13582 0.0
C483 C 0.93387 0.54891 0.20996 0.0
C484 C 0.92493 0.60764 0.15766 0.0
C485 C 0.108 0.81602 0.17205 0.0
C486 C 0.08053 0.81615 0.18462 0.0
C487 C 0.93104 0.47404 0.18116 0.0
C488 C 0.10825 0.55341 0.2383 0.0
C489 C 0.1937 0.61437 0.24717 0.0
C490 C 0.17262 0.61371 0.26129 0.0
C491 C 0.08869 0.55363 0.2525 0.0
C492 C 0.16056 0.58457 0.2356 0.0
C493 C 0.12059 0.58405 0.26383 0.0
C494 C 0.11567 0.62974 0.17944 0.0
C495 C 0.07285 0.51997 0.2267 0.0
H496 H 0.91697 0.75338 0.12476 0.0
H497 H 0.97625 0.70942 0.16101 0.0
H498 H 0.97532 0.7753 0.14579 0.0
H499 H 0.862 0.59359 0.13326 0.0
H500 H 0.19619 0.6344 0.27068 0.0
H501 H 0.04852 0.53 0.25487 0.0
H502 H 0.17513 0.5853 0.22452 0.0
H503 H 0.1051 0.58365 0.27476 0.0
Eu504 Eu 0.11281 0.66393 0.48966 0.0
C505 C 0.084 0.45467 0.46517 0.0
N506 N 0.09742 0.49345 0.45538 0.0
C507 C 0.13624 0.45865 0.43933 0.0
C508 C 0.09517 0.41529 0.46215 0.0
C509 C 0.12465 0.49696 0.44283 0.0
C510 C 0.12072 0.41719 0.44891 0.0
C511 C 0.05427 0.42002 0.48986 0.0
C512 C 0.06369 0.45713 0.47887 0.0
C513 C 0.06203 0.37884 0.48651 0.0
C514 C 0.08252 0.37653 0.47269 0.0
Eu515 Eu 0.06976 0.55212 0.46119 0.0
N516 N 0.05844 0.49853 0.48199 0.0
C517 C 1.04009 0.42685 0.50417 0.0
C518 C 0.04976 0.50764 0.4963 0.0
C519 C 1.03913 0.47151 0.50749 0.0
H520 H 0.13754 0.52935 0.43548 0.0
H521 H 1.03128 0.47866 0.51876 0.0
H522 H 1.02904 0.63857 0.51753 0.0
H523 H 0.21631 0.84495 0.45844 0.0
H524 H 0.0529 0.54324 0.49936 0.0
H525 H 1.03261 0.3993 0.51292 0.0
H526 H 0.20756 0.76856 0.47023 0.0
H527 H 0.15731 0.46124 0.42928 0.0
H528 H 0.05437 0.34972 0.49476 0.0
H529 H 0.09023 0.34563 0.4705 0.0
H530 H 0.97317 0.67016 0.52722 0.0
H531 H 0.13013 0.38775 0.44622 0.0
H532 H 0.15321 0.8729 0.46336 0.0
N533 N 0.06193 0.69488 0.50068 0.0
C534 C 0.06546 0.73777 0.49471 0.0
C535 C 0.99866 0.68942 0.51801 0.0
C536 C 1.03358 0.7568 0.49977 0.0
C537 C 1.03053 0.67175 0.51253 0.0
C538 C 0.99954 0.73168 0.51143 0.0
N539 N 0.1352 0.74663 0.4801 0.0
C540 C 0.1773 0.77705 0.47174 0.0
C541 C 0.10785 0.80968 0.47801 0.0
C542 C 0.10253 0.76396 0.48399 0.0
C543 C 0.14795 0.83775 0.46821 0.0
C544 C 0.18348 0.82197 0.46535 0.0
H545 H 0.97462 0.74523 0.51565 0.0
H546 H 1.01278 0.81555 0.4969 0.0
H547 H 0.0776 0.86175 0.47778 0.0
O548 O 0.16537 0.72476 0.50452 0.0
O549 O 0.04804 0.65637 0.47429 0.0
O550 O 0.08051 0.62933 0.45708 0.0
O551 O 0.12325 0.6473 0.51275 0.0
O552 O 0.17404 0.68301 0.47073 0.0
O553 O 0.13928 0.62274 0.45177 0.0
O554 O 0.99737 0.49977 0.45051 0.0
O555 O 0.1448 0.56344 0.47111 0.0
O556 O 0.15843 0.61759 0.49114 0.0
O557 O 0.06497 0.54397 0.43683 0.0
O558 O 0.99709 0.54285 0.47365 0.0
O559 O 1.02613 0.60099 0.49309 0.0
C560 C 0.04672 0.64183 0.46055 0.0
C561 C 0.14766 0.71478 0.53072 0.0
C562 C 0.17885 0.78165 0.54999 0.0
C563 C 0.13488 0.75138 0.55842 0.0
C564 C 0.10608 0.68443 0.53999 0.0
C565 C 0.09912 0.70316 0.55349 0.0
C566 C 0.18464 0.76328 0.53597 0.0
C567 C 0.17609 0.6666 0.457 0.0
C568 C 0.15444 0.69498 0.51612 0.0
C569 C 1.03739 0.80082 0.4933 0.0
C570 C 0.07427 0.82707 0.4824 0.0
C571 C 0.17012 0.58642 0.48337 0.0
C572 C 0.98686 0.48874 0.42367 0.0
C573 C 0.90615 0.45456 0.41031 0.0
C574 C 0.92993 0.44732 0.3977 0.0
C575 C 1.0099 0.48186 0.41097 0.0
C576 C 0.93554 0.47615 0.42321 0.0
C577 C 0.98146 0.46131 0.39803 0.0
C578 C 0.98761 0.5633 0.48558 0.0
C579 C 1.01681 0.51158 0.43718 0.0
H580 H 0.12939 0.7638 0.56927 0.0
H581 H 0.07897 0.64583 0.53695 0.0
H582 H 0.06646 0.67954 0.56038 0.0
H583 H 0.21825 0.78618 0.52931 0.0
H584 H 0.90863 0.42941 0.38769 0.0
H585 H 0.04973 0.49207 0.41107 0.0
H586 H 0.91882 0.48362 0.43293 0.0
H587 H 0.9992 0.45544 0.38829 0.0
Eu588 Eu 0.46867 0.08583 0.6543 0.0
C589 C 0.65441 0.0565 0.63797 0.0
N590 N 0.63139 0.06819 0.62693 0.0
C591 C 0.70816 0.10491 0.61249 0.0
C592 C 0.70539 0.06743 0.63656 0.0
C593 C 0.65756 0.09324 0.61444 0.0
C594 C 0.73202 0.09131 0.62352 0.0
C595 C 0.65214 1.02803 0.6633 0.0
C596 C 0.62797 0.03704 0.6511 0.0
C597 C 0.70187 0.03587 0.66169 0.0
C598 C 0.72851 0.05567 0.64834 0.0
Eu599 Eu 0.54436 0.04169 0.6297 0.0
N600 N 0.58048 0.0314 0.65236 0.0
C601 C 0.62657 1.01382 0.67696 0.0
C602 C 0.55798 1.02264 0.66606 0.0
C603 C 0.57982 1.01237 0.67843 0.0
H604 H 0.63928 0.10401 0.60592 0.0
H605 H 0.56104 1.0044 0.68918 0.0
H606 H 0.42612 1.01842 0.68686 0.0
H607 H 0.35292 0.14259 0.62047 0.0
H608 H 0.5243 1.02533 0.66777 0.0
H609 H 0.64375 1.00655 0.6866 0.0
H610 H 0.43163 0.154 0.6324 0.0
H611 H 0.72866 0.12433 0.60251 0.0
H612 H 0.72074 1.02855 0.67089 0.0
H613 H 0.76744 0.06318 0.64742 0.0
H614 H 0.34479 0.95202 0.69742 0.0
H615 H 0.77129 0.10051 0.62202 0.0
H616 H 0.27114 0.06495 0.6254 0.0
N617 N 0.3932 1.02255 0.6662 0.0
C618 C 0.34904 1.00994 0.65881 0.0
C619 C 0.34558 0.96742 0.68645 0.0
C620 C 0.30188 0.97178 0.6644 0.0
C621 C 0.39146 1.00521 0.68048 0.0
C622 C 0.30096 0.9491 0.6781 0.0
N623 N 0.395 0.08281 0.64367 0.0
C624 C 0.39612 0.12008 0.63468 0.0
C625 C 0.30406 0.03343 0.6407 0.0
C626 C 0.34994 0.04128 0.64726 0.0
C627 C 0.30559 0.06963 0.63063 0.0
C628 C 0.35163 0.11367 0.62788 0.0
H629 H 0.26549 0.91991 0.68278 0.0
H630 H 0.22033 0.93078 0.66083 0.0
H631 H 0.22236 0.98434 0.63992 0.0
O632 O 0.4588 0.1499 0.66156 0.0
O633 O 0.43618 0.05909 0.63043 0.0
O634 O 0.46044 0.99987 0.6273 0.0
O635 O 0.47889 0.11115 0.67784 0.0
O636 O 0.51048 0.14524 0.63584 0.0
O637 O 0.53484 0.10491 0.61825 0.0
O638 O 0.55728 0.98673 0.61711 0.0
O639 O 0.59618 0.12336 0.63752 0.0
O640 O 0.55816 0.12327 0.6597 0.0
O641 O 0.54498 0.04249 0.60545 0.0
O642 O 0.48116 0.96822 0.64197 0.0
O643 O 0.4426 0.99806 0.6585 0.0
C644 C 0.43196 1.01896 0.62339 0.0
C645 C 0.42627 0.14594 0.68595 0.0
C646 C 0.4001 0.18209 0.70671 0.0
C647 C 0.34931 0.14472 0.7041 0.0
C648 C 0.37476 0.11193 0.68328 0.0
C649 C 0.33686 0.11037 0.69244 0.0
C650 C 0.43901 0.18161 0.69776 0.0
C651 C 0.52572 0.142 0.62219 0.0
C652 C 0.46536 0.14561 0.6757 0.0
C653 C 0.2567 0.96081 0.65691 0.0
C654 C 0.25783 0.9915 0.64504 0.0
C655 C 0.59988 0.14268 0.65095 0.0
C656 C 0.51327 0.96323 0.5937 0.0
C657 C 0.45696 0.87457 0.58666 0.0
C658 C 0.4487 0.89137 0.57278 0.0
C659 C 0.50422 0.97881 0.5798 0.0
C660 C 0.48847 0.91128 0.5972 0.0
C661 C 0.47159 0.94308 0.56952 0.0
C662 C 0.44667 0.95915 0.65272 0.0
C663 C 0.54909 1.00173 0.60424 0.0
H664 H 0.31869 0.14236 0.71099 0.0
H665 H 0.36336 0.08704 0.6739 0.0
H666 H 0.29743 0.08293 0.6903 0.0
H667 H 0.47845 0.20965 0.69963 0.0
H668 H 0.42593 0.86485 0.56418 0.0
H669 H 0.52262 1.01871 0.57686 0.0
H670 H 0.49398 0.89969 0.60815 0.0
H671 H 0.46503 0.95546 0.55881 0.0
Eu672 Eu 0.40695 0.46603 0.82028 0.0
C673 C 0.61745 0.64919 0.8015 0.0
N674 N 0.58071 0.62451 0.79121 0.0
C675 C 0.6139 0.69979 0.77618 0.0
C676 C 0.65513 0.70026 0.79934 0.0
C677 C 0.57744 0.64923 0.77885 0.0
C678 C 0.65342 0.72526 0.78637 0.0
C679 C 0.64991 0.65043 0.82623 0.0
C680 C 0.6147 0.62447 0.8147 0.0
C681 C 0.68955 0.70022 0.82382 0.0
C682 C 0.69207 0.72516 0.8104 0.0
Eu683 Eu 0.52391 0.53749 0.79516 0.0
N684 N 0.57482 0.57694 0.81678 0.0
C685 C 0.64274 0.62657 0.84007 0.0
C686 C 0.56511 0.55606 0.83072 0.0
C687 C 0.59942 0.5797 0.84243 0.0
H688 H 0.54661 0.63003 0.771 0.0
H689 H 0.59184 0.56221 0.85336 0.0
H690 H 0.43036 0.43328 0.85446 0.0
H691 H 0.24577 0.34392 0.78408 0.0
H692 H 0.53029 0.52219 0.83314 0.0
H693 H 0.66887 0.64516 0.84921 0.0
H694 H 0.30875 0.42491 0.79553 0.0
H695 H 0.6114 0.71909 0.76629 0.0
H696 H 0.71725 0.72046 0.83248 0.0
H697 H 0.72171 0.76418 0.80889 0.0
H698 H 0.4073 0.35489 0.86872 0.0
H699 H 0.68152 0.76454 0.78433 0.0
H700 H 0.24004 0.26327 0.79245 0.0
N701 N 0.39259 0.39403 0.83461 0.0
C702 C 0.36153 0.34813 0.82819 0.0
C703 C 0.39467 0.3525 0.85729 0.0
C704 C 0.34927 0.30253 0.83578 0.0
C705 C 0.40742 0.39677 0.8492 0.0
C706 C 0.3669 0.30525 0.85039 0.0
N707 N 0.34086 0.39069 0.80947 0.0
C708 C 0.30678 0.38992 0.79918 0.0
C709 C 0.29939 0.29927 0.80905 0.0
C710 C 0.33592 0.34647 0.81503 0.0
C711 C 0.26836 0.29876 0.79734 0.0
C712 C 0.27118 0.34416 0.79266 0.0
H713 H 0.35757 0.27106 0.85664 0.0
H714 H 0.30779 0.22033 0.83459 0.0
H715 H 0.26478 0.21751 0.81107 0.0
O716 O 0.33275 0.45924 0.82535 0.0
O717 O 0.40532 0.43043 0.79704 0.0
O718 O 0.48822 0.45394 0.79285 0.0
O719 O 0.38585 0.47675 0.84317 0.0
O720 O 0.38997 0.50907 0.80206 0.0
O721 O 0.4493 0.523 0.78376 0.0
O722 O 0.5886 0.54531 0.78177 0.0
O723 O 0.49352 0.58967 0.80334 0.0
O724 O 0.46162 0.55393 0.82605 0.0
O725 O 0.52168 0.53957 0.77105 0.0
O726 O 0.5343 0.47493 0.80847 0.0
O727 O 0.467 0.43802 0.82532 0.0
C728 C 0.44039 0.42285 0.7906 0.0
C729 C 0.2973 0.42318 0.84893 0.0
C730 C 0.23747 0.39369 0.87019 0.0
C731 C 0.21783 0.3436 0.86497 0.0
C732 C 0.27299 0.37306 0.84362 0.0
C733 C 0.23513 0.33357 0.85175 0.0
C734 C 0.27894 0.43363 0.86236 0.0
C735 C 0.40506 0.5181 0.78801 0.0
C736 C 0.33902 0.46366 0.83974 0.0
C737 C 0.31659 0.25565 0.82907 0.0
C738 C 0.29204 0.25404 0.81567 0.0
C739 C 0.48145 0.59495 0.81711 0.0
C740 C 0.56206 0.50228 0.75809 0.0
C741 C 0.5814 0.436 0.74978 0.0
C742 C 0.55815 0.43486 0.73596 0.0
C743 C 0.53979 0.50028 0.74419 0.0
C744 C 0.58089 0.46878 0.76104 0.0
C745 C 0.537 0.46611 0.73334 0.0
C746 C 0.5093 0.44094 0.81935 0.0
C747 C 0.56442 0.53961 0.76918 0.0
H748 H 0.18762 0.31197 0.87092 0.0
H749 H 0.28205 0.3642 0.83292 0.0
H750 H 0.21802 0.29508 0.84754 0.0
H751 H 0.29516 0.47239 0.86631 0.0
H752 H 0.55773 0.41171 0.72673 0.0
H753 H 0.52448 0.52532 0.7417 0.0
H754 H 0.59567 0.46934 0.77205 0.0
H755 H 0.51982 0.465 0.72264 0.0
Eu756 Eu 0.97768 0.40129 0.98744 0.0
C757 C 1.01197 0.61696 0.97162 0.0
N758 N 0.99987 0.58418 0.96009 0.0
C759 C 0.96892 0.63134 0.94612 0.0
C760 C 1.00442 0.65949 0.9707 0.0
C761 C 0.97695 0.5897 0.94762 0.0
C762 C 0.98344 0.66689 0.95763 0.0
C763 C 1.03707 0.63656 0.99743 0.0
C764 C 1.02797 0.60551 0.98474 0.0
C765 C 1.03262 0.68068 0.99636 0.0
C766 C 1.01621 0.69208 0.98301 0.0
Eu767 Eu 1.01885 0.51721 0.96235 0.0
N768 N 1.03008 0.56159 0.98547 0.0
C769 C 0.04794 0.6211 0.011 0.0
C770 C 1.03624 0.54452 0.99901 0.0
C771 C 0.04642 0.57429 0.01184 0.0
H772 H 0.96478 0.56203 0.93875 0.0
H773 H 0.05204 0.56056 0.02245 0.0
H774 H 1.02637 0.44559 0.02153 0.0
H775 H 0.97339 0.2403 0.95761 0.0
H776 H 1.03155 0.50726 1.00018 0.0
H777 H 0.05507 0.64378 0.021 0.0
H778 H 0.94278 0.30005 0.96438 0.0
H779 H 0.95134 0.63584 0.93613 0.0
H780 H 1.03995 0.70518 0.00595 0.0
H781 H 1.01118 0.72522 0.98247 0.0
H782 H 0.08207 0.43552 0.03998 0.0
H783 H 0.97688 0.69896 0.9565 0.0
H784 H 0.0461 0.24283 0.9711 0.0
N785 N 1.03556 0.39988 0.00509 0.0
C786 C 0.05503 0.36866 0.00176 0.0
C787 C 0.07513 0.41695 0.02923 0.0
C788 C 0.08784 0.36284 0.01183 0.0
C789 C 1.04374 0.42262 0.0188 0.0
C790 C 0.09785 0.38755 0.02566 0.0
N791 N 1.00054 0.33896 0.98068 0.0
C792 C 0.97516 0.30197 0.97018 0.0
C793 C 0.05601 0.30425 0.98569 0.0
C794 C 1.03871 0.33912 0.98885 0.0
C795 C 1.03363 0.26993 0.9739 0.0
C796 C 0.99235 0.26812 0.96632 0.0
H797 H 0.12236 0.38348 0.03374 0.0
H798 H 0.13389 0.32683 0.01558 0.0
H799 H 0.10647 0.27599 0.99262 0.0
O800 O 0.91515 0.32465 0.99177 0.0
O801 O 1.006 0.39674 0.96378 0.0
O802 O 0.06493 0.4787 0.95929 0.0
O803 O 0.93907 0.37933 0.00941 0.0
O804 O 0.92164 0.3776 0.96786 0.0
O805 O 0.95401 0.44531 0.95136 0.0
O806 O 0.07387 0.57878 0.94802 0.0
O807 O 0.9368 0.48807 0.97007 0.0
O808 O 0.93914 0.45299 0.99254 0.0
O809 O 1.01003 0.51285 0.93832 0.0
O810 O 0.09333 0.528 0.97472 0.0
O811 O 0.0665 0.4594 0.99088 0.0
C812 C 0.04822 0.43061 0.95732 0.0
C813 C 0.90959 0.29228 0.01631 0.0
C814 C 0.8749 0.23452 0.03786 0.0
C815 C 0.90755 0.21503 0.03449 0.0
C816 C 0.93886 0.26897 0.01291 0.0
C817 C 0.93913 0.23208 0.02211 0.0
C818 C 0.87704 0.27458 0.02897 0.0
C819 C 0.92096 0.39763 0.95479 0.0
C820 C 0.9107 0.33164 0.00589 0.0
C821 C 0.10785 0.33093 0.00811 0.0
C822 C 0.09232 0.30206 0.99501 0.0
C823 C 0.91834 0.47385 0.98363 0.0
C824 C 0.08778 0.54405 0.92563 0.0
C825 C 0.17116 0.57399 0.9144 0.0
C826 C 0.15357 0.52765 0.90694 0.0
C827 C 0.07016 0.49783 0.91783 0.0
C828 C 0.13827 0.58198 0.92372 0.0
C829 C 0.10289 0.48994 0.90853 0.0
C830 C 0.10418 0.5026 0.98515 0.0
C831 C 0.05402 0.55253 0.93584 0.0
H832 H 0.90741 0.18516 0.04124 0.0
H833 H 0.96035 0.27766 0.00283 0.0
H834 H 0.96272 0.21538 0.01932 0.0
H835 H 0.8522 0.29011 0.03148 0.0
H836 H 0.17854 0.52122 0.89965 0.0
H837 H 1.03123 0.46756 0.91894 0.0
H838 H 0.15217 0.61797 0.92948 0.0
H839 H 0.08891 0.45444 0.90255 0.0
Eu840 Eu 0.62023 0.97383 0.15582 0.0
C841 C 0.4374 1.00847 0.1377 0.0
N842 N 0.46072 0.99569 0.12702 0.0
C843 C 0.38531 0.96052 0.11199 0.0
C844 C 0.38708 0.99908 0.13577 0.0
C845 C 0.43523 0.97069 0.11445 0.0
C846 C 0.36133 0.97546 0.12261 0.0
C847 C 0.43797 0.03721 0.1629 0.0
C848 C 0.46262 1.02721 0.15103 0.0
C849 C 0.38908 0.0311 0.16075 0.0
C850 C 0.3636 1.0119 0.14721 0.0
Eu851 Eu 0.54677 1.01909 0.13072 0.0
N852 N 0.50915 0.03096 0.15282 0.0
C853 C 0.46208 0.05053 0.17679 0.0
C854 C 0.52997 0.03872 0.16675 0.0
C855 C 0.5077 0.05002 0.17881 0.0
H856 H 0.45347 0.9587 0.10625 0.0
H857 H 0.52523 0.05725 0.18973 0.0
H858 H 0.66484 0.03946 0.18855 0.0
H859 H 0.73354 0.9209 0.11944 0.0
H860 H 0.56264 0.03454 0.16885 0.0
H861 H 0.4445 0.05854 0.18619 0.0
H862 H 0.65601 0.90725 0.13264 0.0
H863 H 0.36539 0.94114 0.10193 0.0
H864 H 0.36987 0.03919 0.16969 0.0
H865 H 0.32519 1.00559 0.14588 0.0
H866 H 0.74691 0.10458 0.19901 0.0
H867 H 0.32256 0.96737 0.12072 0.0
H868 H 0.81546 0.99848 0.12427 0.0
N869 N 0.69653 0.03604 0.16759 0.0
C870 C 0.7402 0.04913 0.15987 0.0
C871 C 0.74544 0.08985 0.1879 0.0
C872 C 0.78773 0.08685 0.16535 0.0
C873 C 0.69912 0.05274 0.18198 0.0
C874 C 0.78958 0.10849 0.17931 0.0
N875 N 0.69318 0.97766 0.14432 0.0
C876 C 0.69153 0.94123 0.13484 0.0
C877 C 0.7838 1.02777 0.14073 0.0
C878 C 0.73847 1.01896 0.14788 0.0
C879 C 0.78147 0.99294 0.13001 0.0
C880 C 0.73535 0.94894 0.12731 0.0
H881 H 0.82538 0.13727 0.18394 0.0
H882 H 0.86899 0.12832 0.16128 0.0
H883 H 0.86541 0.07713 0.13954 0.0
O884 O 0.6296 0.90901 0.16251 0.0
O885 O 0.65164 1.00193 0.13198 0.0
O886 O 0.63076 0.06371 0.12861 0.0
O887 O 0.61194 0.94807 0.17931 0.0
O888 O 0.57682 0.91344 0.13776 0.0
O889 O 0.55668 0.95543 0.11964 0.0
O890 O 0.53806 0.07514 0.11727 0.0
O891 O 0.49346 0.93803 0.13892 0.0
O892 O 0.53099 0.93755 0.16119 0.0
O893 O 0.54759 1.01608 0.10654 0.0
O894 O 0.60931 0.09137 0.14349 0.0
O895 O 0.64584 0.06121 0.16065 0.0
C896 C 0.66029 0.04493 0.12581 0.0
C897 C 0.66484 0.91242 0.18644 0.0
C898 C 0.69288 0.8763 0.20677 0.0
C899 C 0.74361 0.91129 0.20312 0.0
C900 C 0.7161 0.94428 0.18282 0.0
C901 C 0.75497 0.94465 0.19124 0.0
C902 C 0.65315 0.87793 0.19856 0.0
C903 C 0.56374 0.91729 0.12389 0.0
C904 C 0.62475 0.9133 0.17676 0.0
C905 C 0.83235 0.09861 0.15743 0.0
C906 C 0.83034 0.06928 0.14508 0.0
C907 C 0.48943 0.91867 0.15239 0.0
C908 C 0.58693 0.09537 0.09464 0.0
C909 C 0.64951 0.18257 0.08762 0.0
C910 C 0.65851 0.16343 0.07425 0.0
C911 C 0.59665 0.07776 0.0812 0.0
C912 C 0.61498 0.14739 0.09805 0.0
C913 C 0.6329 0.1115 0.07125 0.0
C914 C 0.64266 0.10024 0.15456 0.0
C915 C 0.54718 0.05865 0.10478 0.0
H916 H 0.77493 0.91247 0.20938 0.0
H917 H 0.72645 0.96823 0.17321 0.0
H918 H 0.79425 0.97029 0.18832 0.0
H919 H 0.6138 0.85154 0.2012 0.0
H920 H 0.68362 0.18823 0.06569 0.0
H921 H 0.57597 0.03778 0.07836 0.0
H922 H 0.60884 0.16018 0.10872 0.0
H923 H 0.63998 0.09752 0.06089 0.0
Eu924 Eu 0.67891 0.59398 0.32172 0.0
C925 C 0.47358 0.41164 0.30604 0.0
N926 N 0.5066 0.43343 0.29463 0.0
C927 C 0.46849 0.35432 0.28134 0.0
C928 C 0.43548 0.36014 0.30538 0.0
C929 C 0.5056 0.4054 0.28254 0.0
C930 C 0.43276 0.33172 0.29273 0.0
C931 C 0.44947 0.41693 0.33142 0.0
C932 C 0.48065 0.4398 0.31883 0.0
C933 C 0.40947 0.36663 0.33054 0.0
C934 C 0.40256 0.33823 0.31755 0.0
Eu935 Eu 0.56486 0.5211 0.29626 0.0
N936 N 0.5209 0.48777 0.31944 0.0
C937 C 0.46098 0.44431 0.34475 0.0
C938 C 0.53481 0.51221 0.33287 0.0
C939 C 0.50458 0.49169 0.34556 0.0
H940 H 0.53354 0.42228 0.27377 0.0
H941 H 0.51567 0.51198 0.35606 0.0
H942 H 0.63245 0.61192 0.35425 0.0
H943 H 0.85049 0.73029 0.29172 0.0
H944 H 0.57019 0.5464 0.33417 0.0
H945 H 0.43806 0.42811 0.35466 0.0
H946 H 0.78364 0.64492 0.29949 0.0
H947 H 0.4676 0.33241 0.27167 0.0
H948 H 0.38491 0.34873 0.34005 0.0
H949 H 0.37272 0.29891 0.3172 0.0
H950 H 0.6428 0.68407 0.36987 0.0
H951 H 0.4042 0.29203 0.29183 0.0
H952 H 0.85388 0.8067 0.30293 0.0
N953 N 0.68328 0.65923 0.33738 0.0
C954 C 0.71818 0.70738 0.33322 0.0
C955 C 0.6639 0.69109 0.35955 0.0
C956 C 0.72535 0.74951 0.34187 0.0
C957 C 0.65819 0.65044 0.35073 0.0
C958 C 0.69703 0.74083 0.355 0.0
N959 N 0.74801 0.673 0.31435 0.0
C960 C 0.78473 0.67815 0.30439 0.0
C961 C 0.78878 0.76382 0.31728 0.0
C962 C 0.75031 0.71445 0.32113 0.0
C963 C 0.82402 0.76939 0.30623 0.0
C964 C 0.82246 0.72635 0.29994 0.0
H965 H 0.70143 0.77222 0.3619 0.0
H966 H 0.76654 0.83155 0.34374 0.0
H967 H 0.82165 0.8441 0.32214 0.0
O968 O 0.75303 0.60498 0.32899 0.0
O969 O 0.68606 0.63097 0.29843 0.0
O970 O 0.60326 0.60444 0.29222 0.0
O971 O 0.69095 0.5747 0.3446 0.0
O972 O 0.70207 0.55722 0.30318 0.0
O973 O 0.63983 0.5348 0.2851 0.0
O974 O 0.49823 0.50981 0.28324 0.0
O975 O 0.59703 0.46999 0.30378 0.0
O976 O 0.62628 0.50518 0.32666 0.0
O977 O 0.56371 0.51361 0.2722 0.0
O978 O 0.5502 0.58243 0.30852 0.0
O979 O 0.6213 0.62625 0.32356 0.0
C980 C 0.65146 0.63686 0.29101 0.0
C981 C 0.77482 0.62602 0.35458 0.0
C982 C 0.82175 0.64094 0.37821 0.0
C983 C 0.84088 0.69331 0.3764 0.0
C984 C 0.79777 0.67886 0.35277 0.0
C985 C 0.82925 0.71208 0.36371 0.0
C986 C 0.78798 0.60698 0.36733 0.0
C987 C 0.68568 0.54388 0.28936 0.0
C988 C 0.73964 0.59168 0.34281 0.0
C989 C 0.76141 0.79877 0.33742 0.0
C990 C 0.79277 0.80592 0.3251 0.0
C991 C 0.60861 0.46468 0.31758 0.0
C992 C 0.52024 0.54637 0.25868 0.0
C993 C 0.50198 0.6123 0.24953 0.0
C994 C 0.51862 0.60698 0.23523 0.0
C995 C 0.53619 0.5419 0.24433 0.0
C996 C 0.50513 0.58293 0.26137 0.0
C997 C 0.53622 0.57266 0.23277 0.0
C998 C 0.57709 0.62007 0.31822 0.0
C999 C 0.5204 0.51242 0.27049 0.0
H1000 H 0.86688 0.71996 0.38452 0.0
H1001 H 0.79283 0.69488 0.34272 0.0
H1002 H 0.84591 0.75268 0.36211 0.0
H1003 H 0.773 0.56646 0.36864 0.0
H1004 H 0.516 0.62729 0.22564 0.0
H1005 H 0.54859 0.51437 0.24205 0.0
H1006 H 0.49485 0.58738 0.27261 0.0
H1007 H 0.54831 0.56868 0.22171 0.0
H1008 H 0.14647 0.66038 0.2218 0.0
H1009 H 0.20674 0.90087 0.26995 0.0
H1010 H 1.03608 0.71222 0.22325 0.0
H1011 H 0.2619 0.79721 0.28081 0.0
H1012 H 0.1455 0.83773 0.25248 0.0
H1013 H 0.1918 0.71601 0.24224 0.0
C1014 C 0.13121 0.68323 0.22643 0.0
C1015 C 0.08639 0.68057 0.22072 0.0
C1016 C 0.17028 0.82848 0.25892 0.0
C1017 C 0.14038 0.74673 0.24439 0.0
C1018 C 0.2053 0.86445 0.2689 0.0
C1019 C 0.23993 0.85456 0.27684 0.0
C1020 C 0.17045 0.78258 0.25663 0.0
C1021 C 0.23603 0.80661 0.27504 0.0
C1022 C 0.15753 0.71526 0.23822 0.0
C1023 C 0.07028 0.71285 0.22716 0.0
N1024 N 0.20272 0.77295 0.26498 0.0
N1025 N 0.0975 0.74498 0.23859 0.0
H1026 H 0.33309 0.1677 0.44253 0.0
H1027 H 0.50522 0.12384 0.38519 0.0
H1028 H 0.4965 0.24085 0.44576 0.0
H1029 H 0.35365 1.00076 0.39354 0.0
H1030 H 0.49693 0.17008 0.40597 0.0
H1031 H 0.33477 0.10695 0.42453 0.0
C1032 C 0.36923 0.17023 0.43974 0.0
C1033 C 0.41484 0.20975 0.44565 0.0
C1034 C 0.4656 0.13271 0.40347 0.0
C1035 C 0.41692 0.14107 0.42477 0.0
C1036 C 0.47004 0.10605 0.39146 0.0
C1037 C 0.43042 0.05749 0.38765 0.0
C1038 C 0.42093 0.11152 0.41193 0.0
C1039 C 0.38534 0.03785 0.39609 0.0
C1040 C 0.37006 0.13557 0.42944 0.0
C1041 C 0.46044 0.21108 0.44161 0.0
N1042 N 0.38173 0.06502 0.40787 0.0
N1043 N 0.46035 0.17799 0.43125 0.0
H1044 H 0.25828 0.33588 0.62256 0.0
H1045 H 0.37927 0.4672 0.54434 0.0
H1046 H 0.22751 0.44677 0.60173 0.0
H1047 H 0.39341 0.34203 0.56206 0.0
H1048 H 0.32343 0.45968 0.56499 0.0
H1049 H 0.30956 0.33946 0.60101 0.0
C1050 C 0.26253 0.36131 0.61346 0.0
C1051 C 0.23791 0.39076 0.61397 0.0
C1052 C 0.33789 0.4332 0.56431 0.0
C1053 C 0.29688 0.3947 0.589 0.0
C1054 C 0.36975 0.43732 0.55245 0.0
C1055 C 0.39096 0.405 0.55137 0.0
C1056 C 0.32723 0.39677 0.57546 0.0
C1057 C 0.37743 0.36728 0.56231 0.0
C1058 C 0.2917 0.36306 0.6011 0.0
C1059 C 0.24574 0.42353 0.60191 0.0
N1060 N 0.34688 0.36457 0.57399 0.0
N1061 N 0.27427 0.42441 0.58992 0.0
H1062 H 0.94221 0.39879 0.72013 0.0
H1063 H 0.88285 0.16153 0.76953 0.0
H1064 H 0.05502 0.35034 0.72296 0.0
H1065 H 0.82627 0.26466 0.77948 0.0
H1066 H 0.94487 0.22461 0.75218 0.0
H1067 H 0.89669 0.3438 0.74068 0.0
C1068 C 0.95795 0.37682 0.72509 0.0
C1069 C 1.00346 0.38021 0.71973 0.0
C1070 C 0.91963 0.23379 0.75841 0.0
C1071 C 0.94937 0.31488 0.74354 0.0
C1072 C 0.88419 0.19787 0.76832 0.0
C1073 C 0.84889 0.20759 0.77595 0.0
C1074 C 0.91919 0.27943 0.75586 0.0
C1075 C 0.85265 0.25541 0.77395 0.0
C1076 C 0.93155 0.34519 0.73695 0.0
C1077 C 1.02023 0.34906 0.72658 0.0
N1078 N 0.88634 0.28898 0.76394 0.0
N1079 N 0.99294 0.3173 0.73808 0.0
H1080 H 0.60559 0.92716 0.87773 0.0
H1081 H 0.73831 0.94358 0.95638 0.0
H1082 H 0.72982 0.06605 0.8947 0.0
H1083 H 0.62576 0.80233 0.93686 0.0
H1084 H 0.73525 0.9887 0.93415 0.0
H1085 H 0.61421 0.88095 0.89882 0.0
C1086 C 0.63552 0.94785 0.88577 0.0
C1087 C 0.66722 1.00066 0.88436 0.0
C1088 C 0.71124 0.94787 0.93467 0.0
C1089 C 0.67665 0.94764 0.90895 0.0
C1090 C 0.71281 0.92188 0.94741 0.0
C1091 C 0.68271 0.86864 0.94852 0.0
C1092 C 0.67902 0.92085 0.9228 0.0
C1093 C 0.6496 0.8432 0.93661 0.0
C1094 C 0.64026 0.92133 0.89788 0.0
C1095 C 0.70503 1.02534 0.89521 0.0
N1096 N 0.64882 0.86945 0.92426 0.0
N1097 N 0.70829 0.99873 0.90714 0.0
H1098 H 0.85358 0.60189 0.10441 0.0
H1099 H 0.69242 0.71382 0.06246 0.0
H1100 H 0.82596 0.71792 0.12306 0.0
H1101 H 0.70074 0.58253 0.04737 0.0
H1102 H 0.7467 0.7203 0.08388 0.0
H1103 H 0.79942 0.59528 0.08303 0.0
C1104 C 0.83574 0.6255 0.10412 0.0
C1105 C 0.84511 0.66099 0.1155 0.0
C1106 C 0.73688 0.69028 0.07579 0.0
C1107 C 0.78397 0.65465 0.09086 0.0
C1108 C 0.70645 0.68707 0.06347 0.0
C1109 C 0.69206 0.64768 0.05307 0.0
C1110 C 0.75327 0.65405 0.07764 0.0
C1111 C 0.71072 0.61346 0.05511 0.0
C1112 C 0.8052 0.62216 0.09183 0.0
C1113 C 0.82091 0.69078 0.11442 0.0
N1114 N 0.74005 0.61732 0.06709 0.0
N1115 N 0.79204 0.68728 0.10233 0.0
H1116 H 0.36245 0.04191 0.60918 0.0
H1117 H 0.28053 0.8123 0.55128 0.0
H1118 H 0.41488 0.93205 0.60975 0.0
H1119 H 0.17151 0.85765 0.56511 0.0
H1120 H 0.34399 0.87798 0.56744 0.0
H1121 H 0.30277 0.99259 0.58885 0.0
C1122 C 0.36163 1.00783 0.60511 0.0
C1123 C 0.39415 0.99154 0.61127 0.0
C1124 C 0.3064 0.87415 0.56675 0.0
C1125 C 0.32793 0.93643 0.58773 0.0
C1126 C 0.27027 0.83695 0.55738 0.0
C1127 C 0.22034 0.82889 0.55694 0.0
C1128 C 0.29292 0.90401 0.57571 0.0
C1129 C 0.20936 0.86201 0.56529 0.0
C1130 C 0.3279 0.97993 0.59346 0.0
C1131 C 0.39159 0.94711 0.60534 0.0
N1132 N 0.24515 0.89779 0.57445 0.0
N1133 N 0.35968 0.92167 0.59395 0.0
H1134 H 0.47741 0.22314 0.72783 0.0
H1135 H 0.35825 0.37518 0.77126 0.0
H1136 H 0.34509 0.23031 0.71276 0.0
H1137 H 0.49802 0.37898 0.78406 0.0
H1138 H 0.34968 0.31769 0.7506 0.0
H1139 H 0.48532 0.27943 0.74872 0.0
C1140 C 0.45032 0.23678 0.7288 0.0
C1141 C 0.4101 0.22109 0.71857 0.0
C1142 C 0.38205 0.33088 0.75801 0.0
C1143 C 0.41816 0.2848 0.74269 0.0
C1144 C 0.38649 0.36316 0.76993 0.0
C1145 C 0.42875 0.3819 0.77946 0.0
C1146 C 0.42008 0.31716 0.75563 0.0
C1147 C 0.46482 0.36574 0.77697 0.0
C1148 C 0.4545 0.26857 0.74083 0.0
C1149 C 0.37605 0.24015 0.72052 0.0
N1150 N 0.4598 0.33468 0.76534 0.0
N1151 N 0.38061 0.27045 0.73233 0.0
H1152 H 0.15046 0.48019 0.95346 0.0
H1153 H 0.1354 0.35238 0.87461 0.0
H1154 H 1.0136 0.35262 0.93665 0.0
H1155 H 0.27879 0.45288 0.89561 0.0
H1156 H 0.09093 0.3548 0.897 0.0
H1157 H 0.19856 0.47087 0.93292 0.0
C1158 C 0.13065 0.44944 0.94558 0.0
C1159 C 0.07777 0.41712 0.94677 0.0
C1160 C 0.13209 0.37624 0.8968 0.0
C1161 C 0.13282 0.40699 0.92293 0.0
C1162 C 0.15769 0.37513 0.88396 0.0
C1163 C 0.21121 0.40193 0.88323 0.0
C1164 C 0.15979 0.40496 0.90914 0.0
C1165 C 0.23764 0.43166 0.89562 0.0
C1166 C 0.15826 0.44425 0.93383 0.0
C1167 C 0.05424 0.37811 0.93624 0.0
N1168 N 0.21167 0.43232 0.90807 0.0
N1169 N 0.08179 0.37463 0.92463 0.0
H1170 H 0.72295 0.14611 0.12394 0.0
H1171 H 0.80376 0.13505 0.03952 0.0
H1172 H 0.68443 1.0064 0.1011 0.0
H1173 H 0.86286 0.27479 0.06431 0.0
H1174 H 0.75489 0.08828 0.06141 0.0
H1175 H 0.77243 0.19411 0.10229 0.0
C1176 C 0.72596 0.12556 0.11444 0.0
C1177 C 0.69995 0.07219 0.11437 0.0
C1178 C 0.77813 0.12917 0.06209 0.0
C1179 C 0.75557 0.12704 0.08926 0.0
C1180 C 0.80561 0.156 0.04954 0.0
C1181 C 0.83728 0.20896 0.05007 0.0
C1182 C 0.78221 0.15526 0.07542 0.0
C1183 C 0.83852 0.23412 0.06336 0.0
C1184 C 0.75391 0.15303 0.10203 0.0
C1185 C 0.70464 0.04747 0.10173 0.0
N1186 N 0.81164 0.20701 0.07554 0.0
N1187 N 0.73146 0.0751 0.08962 0.0
H1188 H 0.59757 0.68572 0.28642 0.0
H1189 H 0.74234 0.82163 0.21102 0.0
H1190 H 0.73196 0.68343 0.27104 0.0
H1191 H 0.62378 0.84431 0.23026 0.0
H1192 H 0.73681 0.76873 0.2323 0.0
H1193 H 0.60617 0.74297 0.26604 0.0
C1194 C 0.62958 0.69805 0.27887 0.0
C1195 C 0.66423 0.67971 0.2805 0.0
C1196 C 0.71194 0.78516 0.23192 0.0
C1197 C 0.67369 0.74503 0.25676 0.0
C1198 C 0.71493 0.81543 0.21972 0.0
C1199 C 0.68385 0.83824 0.21884 0.0
C1200 C 0.67723 0.77681 0.24344 0.0
C1201 C 0.6484 0.82759 0.23036 0.0
C1202 C 0.63425 0.73064 0.26717 0.0
C1203 C 0.70473 0.69697 0.27034 0.0
N1204 N 0.64621 0.79788 0.24218 0.0
N1205 N 0.70802 0.72821 0.25881 0.0
H1206 H 0.05555 0.63588 0.43067 0.0
H1207 H 0.79833 0.63515 0.40796 0.0
H1208 H 0.95398 0.64048 0.46379 0.0
H1209 H 0.89694 0.61622 0.37699 0.0
H1210 H 0.84997 0.63174 0.42878 0.0
H1211 H 0.99551 0.62645 0.41125 0.0
C1212 C 1.02041 0.63486 0.4339 0.0
C1213 C 1.00995 0.639 0.44896 0.0
C1214 C 0.85975 0.62732 0.41746 0.0
C1215 C 0.94 0.62788 0.42645 0.0
C1216 C 0.8299 0.62858 0.4056 0.0
C1217 C 0.84269 0.62465 0.39076 0.0
C1218 C 0.90344 0.62332 0.41442 0.0
C1219 C 0.88494 0.61796 0.38826 0.0
C1220 C 0.98591 0.62931 0.42272 0.0
C1221 C 0.96383 0.63784 0.45233 0.0
N1222 N 0.91397 0.61803 0.39992 0.0
N1223 N 0.93051 0.63239 0.44115 0.0
H1224 H 0.63515 0.71813 0.32915 0.0
H1225 H 0.4259 0.81604 0.33046 0.0
H1226 H 0.4817 0.61927 0.31525 0.0
H1227 H 0.57309 0.89439 0.35128 0.0
H1228 H 0.44388 0.74672 0.32342 0.0
H1229 H 0.61264 0.78304 0.33586 0.0
C1230 C 0.59625 0.709 0.32786 0.0
C1231 C 0.56072 0.66079 0.32214 0.0
C1232 C 0.47238 0.77909 0.32953 0.0
C1233 C 0.53348 0.73921 0.32928 0.0
C1234 C 0.46211 0.81935 0.33358 0.0
C1235 C 0.49763 0.86278 0.3417 0.0
C1236 C 0.51917 0.78127 0.33335 0.0
C1237 C 0.5437 0.86281 0.34521 0.0
C1238 C 0.58326 0.74715 0.3315 0.0
C1239 C 0.51117 0.65464 0.31984 0.0
N1240 N 0.5528 0.82386 0.34106 0.0
N1241 N 0.49932 0.69262 0.32338 0.0
H1242 H 0.64589 0.44519 0.48812 0.0
H1243 H 0.94616 0.57507 0.51273 0.0
H1244 H 0.70453 0.52341 0.5297 0.0
H1245 H 0.89563 0.511 0.4691 0.0
H1246 H 0.85865 0.5541 0.51898 0.0
H1247 H 0.73344 0.46532 0.48108 0.0
C1248 C 0.67661 0.46653 0.49587 0.0
C1249 C 0.66558 0.48209 0.50972 0.0
C1250 C 0.86623 0.54448 0.50798 0.0
C1251 C 0.76939 0.5059 0.50146 0.0
C1252 C 0.91731 0.5571 0.50428 0.0
C1253 C 0.93092 0.54617 0.49013 0.0
C1254 C 0.82582 0.51971 0.49765 0.0
C1255 C 0.88888 0.52068 0.48018 0.0
C1256 C 0.72738 0.47819 0.49177 0.0
C1257 C 0.70913 0.50991 0.51895 0.0
N1258 N 0.83952 0.50873 0.48405 0.0
N1259 N 0.7576 0.52044 0.51475 0.0
H1260 H 0.39652 0.91576 0.67999 0.0
H1261 H 0.21351 0.62133 0.65193 0.0
H1262 H 0.40309 0.86959 0.63511 0.0
H1263 H 0.20514 0.67624 0.69557 0.0
H1264 H 0.28189 0.70827 0.64542 0.0
H1265 H 0.32829 0.82891 0.68556 0.0
C1266 C 0.38338 0.88805 0.67112 0.0
C1267 C 0.40635 0.90269 0.65684 0.0
C1268 C 0.26523 0.70147 0.65645 0.0
C1269 C 0.32632 0.79828 0.6635 0.0
C1270 C 0.22556 0.65102 0.66025 0.0
C1271 C 0.20181 0.6391 0.67451 0.0
C1272 C 0.28291 0.74222 0.66688 0.0
C1273 C 0.22088 0.68147 0.68445 0.0
C1274 C 0.34421 0.83732 0.67442 0.0
C1275 C 0.38777 0.86196 0.64632 0.0
N1276 N 0.25916 0.72953 0.68053 0.0
N1277 N 0.34971 0.81296 0.64979 0.0
H1278 H 0.46628 0.35979 0.83959 0.0
H1279 H 0.64242 0.22712 0.82419 0.0
H1280 H 0.59028 0.42539 0.80868 0.0
H1281 H 0.53141 0.18217 0.85933 0.0
H1282 H 0.62366 0.29602 0.81736 0.0
H1283 H 0.48792 0.29379 0.84573 0.0
C1284 C 0.49846 0.36125 0.83415 0.0
C1285 C 0.52598 0.40052 0.82372 0.0
C1286 C 0.60321 0.27111 0.82656 0.0
C1287 C 0.55233 0.32101 0.83068 0.0
C1288 C 0.61392 0.23106 0.83051 0.0
C1289 C 0.58891 0.19713 0.84253 0.0
C1290 C 0.56631 0.27832 0.83444 0.0
C1291 C 0.55245 0.2062 0.85005 0.0
C1292 C 0.51106 0.3226 0.83766 0.0
C1293 C 0.56732 0.39741 0.81696 0.0
N1294 N 0.54251 0.24471 0.84591 0.0
N1295 N 0.57886 0.35919 0.82048 0.0
H1296 H 0.19691 0.57578 0.97156 0.0
H1297 H 0.38714 0.53079 0.02714 0.0
H1298 H 0.14635 0.46937 0.00773 0.0
H1299 H 0.44591 0.62729 0.98861 0.0
H1300 H 0.30106 0.51118 0.02019 0.0
H1301 H 0.28593 0.59819 0.97739 0.0
C1302 C 0.20375 0.55691 0.98083 0.0
C1303 C 0.16147 0.51976 0.9891 0.0
C1304 C 0.33234 0.5367 0.01313 0.0
C1305 C 0.26717 0.54607 0.99602 0.0
C1306 C 0.38269 0.54817 0.01713 0.0
C1307 C 0.4264 0.58108 0.00861 0.0
C1308 C 0.32284 0.55826 1.00034 0.0
C1309 C 0.41503 0.60158 0.99574 0.0
C1310 C 0.25549 0.56981 0.98414 0.0
C1311 C 0.17558 0.49749 1.00084 0.0
N1312 N 0.36547 0.5902 0.99215 0.0
N1313 N 0.2257 0.51071 0.00386 0.0
H1314 H 0.88782 0.38404 0.19748 0.0
H1315 H 0.67995 0.18927 0.13714 0.0
H1316 H 0.87227 0.43545 0.154 0.0
H1317 H 0.69897 0.14476 0.18115 0.0
H1318 H 0.74735 0.27699 0.14256 0.0
H1319 H 0.82066 0.29832 0.19126 0.0
C1320 C 0.87069 0.37802 0.18653 0.0
C1321 C 0.88765 0.41958 0.17642 0.0
C1322 C 0.73729 0.24821 0.15108 0.0
C1323 C 0.80672 0.31653 0.16897 0.0
C1324 C 0.69801 0.19723 0.148 0.0
C1325 C 0.68296 0.15687 0.15847 0.0
C1326 C 0.76308 0.26129 0.16497 0.0
C1327 C 0.70932 0.17227 0.1723 0.0
C1328 C 0.83146 0.32792 0.18297 0.0
C1329 C 0.86187 0.40634 0.16242 0.0
N1330 N 0.74707 0.2219 0.17503 0.0
N1331 N 0.82356 0.35706 0.15923 0.0
H1332 H 0.23024 0.61278 0.5099 0.0
H1333 H 0.4104 0.49223 0.48461 0.0
H1334 H 0.2122 0.53418 0.46836 0.0
H1335 H 0.41343 0.54583 0.52924 0.0
H1336 H 0.3421 0.51131 0.47835 0.0
H1337 H 0.29868 0.59353 0.51685 0.0
C1338 C 0.24033 0.59169 0.50212 0.0
C1339 C 0.21391 0.57567 0.48834 0.0
C1340 C 0.35725 0.51877 0.48958 0.0
C1341 C 0.29507 0.55317 0.49644 0.0
C1342 C 0.3965 0.50699 0.49331 0.0
C1343 C 0.4181 0.515 0.50779 0.0
C1344 C 0.33844 0.54029 0.5002 0.0
C1345 C 0.39877 0.53781 0.51796 0.0
C1346 C 0.27994 0.5805 0.50618 0.0
C1347 C 0.23027 0.54799 0.47908 0.0
N1348 N 0.36088 0.54921 0.51405 0.0
N1349 N 0.26892 0.53818 0.48319 0.0
H1350 H 0.69102 0.1849 0.63507 0.0
H1351 H 0.88449 0.39239 0.69583 0.0
H1352 H 0.63731 0.20202 0.67802 0.0
H1353 H 0.92916 0.37551 0.65163 0.0
H1354 H 0.79653 0.32514 0.69024 0.0
H1355 H 0.77661 0.25212 0.64153 0.0
C1356 C 0.6965 0.20243 0.64595 0.0
C1357 C 0.65433 0.18592 0.65583 0.0
C1358 C 0.82542 0.33568 0.68171 0.0
C1359 C 0.75725 0.2668 0.66359 0.0
C1360 C 0.87647 0.3749 0.6849 0.0
C1361 C 0.91688 0.39057 0.67439 0.0
C1362 C 0.81245 0.31044 0.66772 0.0
C1363 C 0.90158 0.36469 0.66049 0.0
C1364 C 0.74652 0.24167 0.64965 0.0
C1365 C 0.66692 0.21206 0.66977 0.0
N1366 N 0.85198 0.32695 0.65768 0.0
N1367 N 0.71615 0.25032 0.67312 0.0
H1368 H 0.52225 0.88118 0.86334 0.0
H1369 H 0.52595 0.68516 0.8008 0.0
H1370 H 0.57802 0.92548 0.81863 0.0
H1371 H 0.46558 0.63403 0.84483 0.0
H1372 H 0.54525 0.7714 0.80752 0.0
H1373 H 0.50104 0.79304 0.85733 0.0
C1374 C 0.53035 0.87309 0.85221 0.0
C1375 C 0.55368 0.91351 0.84172 0.0
C1376 C 0.52774 0.74172 0.81583 0.0
C1377 C 0.52849 0.80868 0.83452 0.0
C1378 C 0.51647 0.69138 0.81197 0.0
C1379 C 0.49347 0.6498 0.82208 0.0
C1380 C 0.51644 0.75325 0.83015 0.0
C1381 C 0.48302 0.6632 0.83639 0.0
C1382 C 0.51817 0.82188 0.84878 0.0
C1383 C 0.56223 0.89795 0.8275 0.0
N1384 N 0.49434 0.71267 0.83988 0.0
N1385 N 0.55001 0.84814 0.82446 0.0
H1386 H 0.67971 0.57148 0.98422 0.0
H1387 H 0.86444 0.45697 0.01131 0.0
H1388 H 0.67496 0.51707 0.02881 0.0
H1389 H 0.87106 0.51879 0.96757 0.0
H1390 H 0.79619 0.47697 0.01799 0.0
H1391 H 0.74793 0.55164 0.97814 0.0
C1392 C 0.69323 0.55632 0.99292 0.0
C1393 C 0.67114 0.54825 0.00735 0.0
C1394 C 0.8124 0.48617 0.00689 0.0
C1395 C 0.75094 0.52258 1.00006 0.0
C1396 C 0.85197 0.47458 0.00301 0.0
C1397 C 0.87505 0.48549 0.98867 0.0
C1398 C 0.79425 0.5092 0.99648 0.0
C1399 C 0.85561 0.50885 0.97874 0.0
C1400 C 0.73244 0.54418 0.98933 0.0
C1401 C 0.69013 0.52533 0.0176 0.0
N1402 N 0.81739 0.51948 0.98275 0.0
N1403 N 0.72811 0.51385 0.01385 0.0
H1404 H 0.39718 0.88086 0.13722 0.0
H1405 H 0.20591 0.66434 0.19642 0.0
H1406 H 0.45298 0.85545 0.17874 0.0
H1407 H 0.15913 0.68971 0.15352 0.0
H1408 H 0.29389 0.73171 0.19087 0.0
H1409 H 0.31155 0.8134 0.14363 0.0
C1410 C 0.39215 0.86142 0.14776 0.0
C1411 C 0.43488 0.87567 0.15726 0.0
C1412 C 0.2645 0.72303 0.18263 0.0
C1413 C 0.33201 0.79456 0.16495 0.0
C1414 C 0.21342 0.68374 0.18578 0.0
C1415 C 0.1724 0.67036 0.17564 0.0
C1416 C 0.27685 0.75071 0.16904 0.0
C1417 C 0.18714 0.69864 0.16211 0.0
C1418 C 0.34212 0.82208 0.15144 0.0
C1419 C 0.42287 0.84726 0.1708 0.0
N1420 N 0.23673 0.73641 0.15933 0.0
N1421 N 0.37366 0.80893 0.17412 0.0
H1422 H 0.61707 0.42586 0.346 0.0
H1423 H 0.51777 0.13305 0.31788 0.0
H1424 H 0.57188 0.3754 0.30085 0.0
H1425 H 0.55692 0.17816 0.36364 0.0
H1426 H 0.53781 0.22049 0.31174 0.0
H1427 H 0.5968 0.33818 0.35278 0.0
C1428 C 0.60307 0.39692 0.33742 0.0
C1429 C 0.5968 0.41017 0.32266 0.0
C1430 C 0.54193 0.21158 0.32318 0.0
C1431 C 0.57274 0.30643 0.33059 0.0
C1432 C 0.52972 0.1606 0.3268 0.0
C1433 C 0.53375 0.14561 0.34153 0.0
C1434 C 0.55935 0.25023 0.33421 0.0
C1435 C 0.55233 0.18602 0.35213 0.0
C1436 C 0.59129 0.34611 0.34136 0.0
C1437 C 0.57791 0.3689 0.31236 0.0
N1438 N 0.56393 0.23515 0.34834 0.0
N1439 N 0.56696 0.32034 0.31645 0.0
H1440 H 0.27182 0.7541 0.46116 0.0
H1441 H 0.32782 0.8145 0.37265 0.0
H1442 H 0.17139 0.66001 0.4263 0.0
H1443 H 0.42641 0.91388 0.40698 0.0
H1444 H 0.27182 0.75698 0.39214 0.0
H1445 H 0.32977 0.81168 0.44187 0.0
C1446 C 0.26153 0.74538 0.44954 0.0
C1447 C 0.21554 0.70175 0.44563 0.0
C1448 C 0.30574 0.79133 0.39545 0.0
C1449 C 0.28325 0.76803 0.42311 0.0
C1450 C 0.33789 0.8246 0.38423 0.0
C1451 C 0.38234 0.87009 0.38791 0.0
C1452 C 0.3176 0.80277 0.41072 0.0
C1453 C 0.39298 0.87962 0.40335 0.0
C1454 C 0.29504 0.77837 0.43844 0.0
C1455 C 0.20595 0.69268 0.43014 0.0
N1456 N 0.36119 0.84674 0.41402 0.0
N1457 N 0.23894 0.72514 0.41964 0.0
H1458 H 0.51479 0.38771 0.57253 0.0
H1459 H 0.54573 0.14291 0.59192 0.0
H1460 H 0.55402 0.30976 0.53918 0.0
H1461 H 0.51515 0.22846 0.62491 0.0
H1462 H 0.54866 0.20204 0.57262 0.0
H1463 H 0.51469 0.32959 0.59146 0.0
C1464 C 0.52362 0.35851 0.56908 0.0
C1465 C 0.53423 0.35422 0.55395 0.0
C1466 C 0.54147 0.20808 0.58407 0.0
C1467 C 0.53381 0.28583 0.57613 0.0
C1468 C 0.53991 0.17421 0.59522 0.0
C1469 C 0.53022 0.1801 0.61031 0.0
C1470 C 0.53324 0.24881 0.58782 0.0
C1471 C 0.52266 0.2217 0.61357 0.0
C1472 C 0.52335 0.32493 0.58003 0.0
C1473 C 0.54498 0.31476 0.55052 0.0
N1474 N 0.52424 0.25398 0.60253 0.0
N1475 N 0.54437 0.28234 0.56143 0.0
H1476 H 0.41458 0.52047 0.75723 0.0
H1477 H 0.15262 0.5227 0.73925 0.0
H1478 H 0.31358 0.51897 0.79154 0.0
H1479 H 0.24617 0.50828 0.70532 0.0
H1480 H 0.21237 0.52533 0.75833 0.0
H1481 H 0.35566 0.5199 0.73825 0.0
C1482 C 0.38028 0.52045 0.76086 0.0
C1483 C 0.36979 0.5201 0.77622 0.0
C1484 C 0.22003 0.52176 0.74672 0.0
C1485 C 0.30098 0.51927 0.75414 0.0
C1486 C 0.18584 0.52047 0.73572 0.0
C1487 C 0.19388 0.51546 0.72044 0.0
C1488 C 0.26341 0.51834 0.7426 0.0
C1489 C 0.23786 0.51225 0.71683 0.0
C1490 C 0.34633 0.5199 0.74991 0.0
C1491 C 0.32394 0.51947 0.77995 0.0
N1492 N 0.2706 0.51382 0.72772 0.0
N1493 N 0.29164 0.51917 0.76909 0.0
H1494 H 0.76151 0.25458 0.87014 0.0
H1495 H 0.84245 0.29844 0.95745 0.0
H1496 H 0.68245 0.14524 0.90491 0.0
H1497 H 0.91465 0.41698 0.92461 0.0
H1498 H 0.78555 0.24214 0.93805 0.0
H1499 H 0.81923 0.31382 0.88923 0.0
C1500 C 0.7561 0.24277 0.88172 0.0
C1501 C 0.71645 0.19417 0.8857 0.0
C1502 C 0.81362 0.28051 0.93503 0.0
C1503 C 0.78313 0.26271 0.90789 0.0
C1504 C 0.84636 0.31303 0.9462 0.0
C1505 C 0.88377 0.36335 0.94292 0.0
C1506 C 0.81781 0.29753 0.92016 0.0
C1507 C 0.88644 0.37898 0.9279 0.0
C1508 C 0.78917 0.27687 0.89268 0.0
C1509 C 0.71182 0.18198 0.90107 0.0
N1510 N 0.85433 0.34647 0.91719 0.0
N1511 N 0.7444 0.21551 0.91141 0.0
H1512 H 0.56705 0.82718 0.12745 0.0
H1513 H 0.5515 0.76045 0.03925 0.0
H1514 H 0.55205 0.91923 0.09318 0.0
H1515 H 0.55615 0.66398 0.07397 0.0
H1516 H 0.55243 0.81905 0.05854 0.0
H1517 H 0.56396 0.768 0.10809 0.0
C1518 C 0.56286 0.83507 0.1159 0.0
C1519 C 0.55954 0.87878 0.11218 0.0
C1520 C 0.55305 0.78496 0.06196 0.0
C1521 C 0.55626 0.81018 0.08957 0.0
C1522 C 0.55246 0.75122 0.05088 0.0
C1523 C 0.55355 0.70645 0.05476 0.0
C1524 C 0.55488 0.77453 0.07725 0.0
C1525 C 0.55492 0.69744 0.07021 0.0
C1526 C 0.56114 0.80102 0.10477 0.0
C1527 C 0.55437 0.88623 0.09682 0.0
N1528 N 0.55568 0.73083 0.08072 0.0
N1529 N 0.55303 0.85273 0.08622 0.0
H1530 H 0.78152 0.55391 0.29347 0.0
H1531 H 0.84124 0.54581 0.20592 0.0
H1532 H 0.67347 0.53029 0.25864 0.0
H1533 H 0.93866 0.54426 0.24089 0.0
H1534 H 0.78137 0.54327 0.22491 0.0
H1535 H 0.84045 0.55372 0.27458 0.0
C1536 C 0.76981 0.54839 0.28189 0.0
C1537 C 0.72166 0.54175 0.27785 0.0
C1538 C 0.8157 0.54327 0.22848 0.0
C1539 C 0.79031 0.54202 0.25581 0.0
C1540 C 0.85016 0.5447 0.21757 0.0
C1541 C 0.89549 0.54491 0.22162 0.0
C1542 C 0.82625 0.54259 0.24377 0.0
C1543 C 0.90431 0.54367 0.23706 0.0
C1544 C 0.80378 0.54833 0.27104 0.0
C1545 C 0.70964 0.53519 0.26248 0.0
N1546 N 0.87043 0.54282 0.24746 0.0
N1547 N 0.74348 0.53567 0.25215 0.0
H1548 H 0.84008 0.41653 0.43415 0.0
H1549 H 0.64527 0.22383 0.38722 0.0
H1550 H 0.84297 0.44745 0.38691 0.0
H1551 H 0.60012 0.25459 0.4303 0.0
H1552 H 0.70897 0.31081 0.38562 0.0
H1553 H 0.7485 0.36689 0.43305 0.0
C1554 C 0.82178 0.4144 0.42358 0.0
C1555 C 0.85012 0.43491 0.41045 0.0
C1556 C 0.68446 0.29845 0.39534 0.0
C1557 C 0.74441 0.37588 0.40914 0.0
C1558 C 0.64768 0.24754 0.3965 0.0
C1559 C 0.61925 0.22832 0.40978 0.0
C1560 C 0.69383 0.33064 0.40755 0.0
C1561 C 0.62372 0.2647 0.42049 0.0
C1562 C 0.76901 0.38574 0.423 0.0
C1563 C 0.82319 0.43014 0.39718 0.0
N1564 N 0.66182 0.31353 0.41945 0.0
N1565 N 0.77192 0.39959 0.39674 0.0
H1566 H 0.49795 0.82971 0.60468 0.0
H1567 H 0.39791 0.58376 0.56389 0.0
H1568 H 0.37017 0.79166 0.57526 0.0
H1569 H 0.42529 0.5873 0.61123 0.0
H1570 H 0.38498 0.65766 0.56675 0.0
H1571 H 0.47128 0.7407 0.60704 0.0
C1572 C 0.46352 0.80309 0.59897 0.0
C1573 C 0.43676 0.8193 0.58961 0.0
C1574 C 0.3922 0.64113 0.57655 0.0
C1575 C 0.40769 0.71631 0.59179 0.0
C1576 C 0.39992 0.59942 0.57491 0.0
C1577 C 0.41349 0.58032 0.58732 0.0
C1578 C 0.39965 0.66432 0.59058 0.0
C1579 C 0.4152 0.60129 0.6014 0.0
C1580 C 0.44854 0.75187 0.60029 0.0
C1581 C 0.39332 0.78169 0.5822 0.0
N1582 N 0.4098 0.64317 0.6026 0.0
N1583 N 0.38093 0.73196 0.58312 0.0
H1584 H 0.65568 0.45171 0.77104 0.0
H1585 H 0.83809 0.46445 0.72579 0.0
H1586 H 0.57821 0.35571 0.73302 0.0
H1587 H 0.82217 0.36041 0.76138 0.0
H1588 H 0.7474 0.43298 0.72679 0.0
H1589 H 0.71887 0.42543 0.76933 0.0
C1590 C 0.65041 0.42451 0.76246 0.0
C1591 C 0.61184 0.40889 0.75156 0.0
C1592 C 0.76391 0.41625 0.73409 0.0
C1593 C 0.68685 0.38012 0.7495 0.0
C1594 C 0.8161 0.43415 0.73357 0.0
C1595 C 0.83935 0.41695 0.74396 0.0
C1596 C 0.7349 0.38238 0.74535 0.0
C1597 C 0.80715 0.37752 0.75374 0.0
C1598 C 0.6872 0.40947 0.76158 0.0
C1599 C 0.60885 0.37266 0.741 0.0
N1600 N 0.75687 0.36322 0.75467 0.0
N1601 N 0.6473 0.36151 0.73976 0.0
H1602 H 0.49482 0.80053 0.91438 0.0
H1603 H 0.19605 0.66525 0.9029 0.0
H1604 H 0.40161 0.87138 0.92037 0.0
H1605 H 0.26232 0.578 0.92062 0.0
H1606 H 0.27968 0.74072 0.90298 0.0
H1607 H 0.41652 0.71714 0.91249 0.0
C1608 C 0.45801 0.79837 0.91547 0.0
C1609 C 0.45428 0.84267 0.91722 0.0
C1610 C 0.27614 0.70504 0.90676 0.0
C1611 C 0.36619 0.74918 0.91474 0.0
C1612 C 0.22864 0.66211 0.90662 0.0
C1613 C 0.22275 0.61609 0.91196 0.0
C1614 C 0.318 0.702 0.91239 0.0
C1615 C 0.2659 0.61333 0.9165 0.0
C1616 C 0.41369 0.75116 0.9143 0.0
C1617 C 0.40603 0.83824 0.91862 0.0
N1618 N 0.31216 0.65624 0.91681 0.0
N1619 N 0.36397 0.79247 0.91717 0.0
H1620 H 0.61164 0.23224 0.10518 0.0
H1621 H 0.61195 0.41139 0.06464 0.0
H1622 H 0.73575 0.26363 0.07482 0.0
H1623 H 0.72757 0.50137 0.09727 0.0
H1624 H 0.63749 0.34746 0.06634 0.0
H1625 H 0.63392 0.32034 0.10398 0.0
C1626 C 0.64446 0.25707 0.09856 0.0
C1627 C 0.67052 0.23865 0.08969 0.0
C1628 C 0.65792 0.38199 0.07283 0.0
C1629 C 0.69444 0.34037 0.08798 0.0
C1630 C 0.64361 0.41918 0.07187 0.0
C1631 C 0.66615 0.46221 0.0812 0.0
C1632 C 0.69383 0.38663 0.08345 0.0
C1633 C 0.70673 0.46799 0.09042 0.0
C1634 C 0.65689 0.30781 0.09789 0.0
C1635 C 0.71236 0.27462 0.08126 0.0
N1636 N 0.7179 0.42958 0.09178 0.0
N1637 N 0.72174 0.32343 0.08012 0.0
H1638 H 0.51027 0.69422 0.23282 0.0
H1639 H 0.26801 0.69922 0.26216 0.0
H1640 H 0.42955 0.59959 0.27067 0.0
H1641 H 0.25059 0.59175 0.22753 0.0
H1642 H 0.35828 0.72398 0.26377 0.0
H1643 H 0.44424 0.71875 0.23081 0.0
C1644 C 0.47969 0.67917 0.2409 0.0
C1645 C 0.47442 0.64196 0.25138 0.0
C1646 C 0.33455 0.6965 0.25546 0.0
C1647 C 0.4019 0.67402 0.24984 0.0
C1648 C 0.28275 0.68135 0.25469 0.0
C1649 C 0.25024 0.64118 0.24519 0.0
C1650 C 0.3542 0.67303 0.24621 0.0
C1651 C 0.27295 0.62224 0.23519 0.0
C1652 C 0.44273 0.69425 0.23986 0.0
C1653 C 0.43566 0.62728 0.26215 0.0
N1654 N 0.32331 0.6377 0.23617 0.0
N1655 N 0.40037 0.64254 0.26088 0.0
loop_
_geom_bond_atom_site_label_1
_geom_bond_atom_site_label_2
_geom_bond_distance
_geom_bond_site_symmetry_2
_ccdc_geom_bond_type
Eu0 N29 2.600 1_565 S
Eu0 N35 2.562 . S
Eu0 O44 2.462 . S
Eu0 O45 2.373 1_565 S
Eu0 O47 2.432 . S
Eu0 O48 2.291 . S
Eu0 O52 2.335 . S
Eu0 O55 2.372 1_565 S
Eu0 C64 2.787 . S
C1 N2 1.365 . S
C1 C4 1.405 . S
C1 C8 1.448 . S
N2 C1 1.365 . S
N2 C5 1.319 . S
N2 Eu11 2.600 1_565 S
C3 C5 1.397 . S
C3 C6 1.367 . S
C3 H23 0.931 . S
C4 C1 1.405 . S
C4 C6 1.403 . S
C4 C10 1.439 . S
C5 N2 1.319 . S
C5 C3 1.397 . S
C5 H16 0.930 . S
C6 C3 1.367 . S
C6 C4 1.403 . S
C6 H27 0.929 . S
C7 C8 1.430 . S
C7 C9 1.387 . S
C7 C13 1.404 1_565 S
C8 C1 1.448 . S
C8 C7 1.430 . S
C8 N12 1.351 1_565 S
C9 C7 1.387 . S
C9 C10 1.374 . S
C9 H24 0.931 . S
C10 C4 1.439 . S
C10 C9 1.374 . S
C10 H25 0.931 . S
Eu11 N2 2.600 1_545 S
Eu11 N12 2.562 . S
Eu11 O46 2.335 . S
Eu11 O49 2.372 1_545 S
Eu11 O50 2.462 . S
Eu11 O51 2.373 1_545 S
Eu11 O53 2.432 . S
Eu11 O54 2.291 . S
Eu11 C75 2.787 . S
N12 C8 1.351 1_545 S
N12 Eu11 2.562 . S
N12 C14 1.325 . S
C13 C7 1.404 1_545 S
C13 C15 1.366 . S
C13 H21 0.930 . S
C14 N12 1.325 . S
C14 C15 1.416 . S
C14 H20 0.929 . S
C15 C13 1.366 . S
C15 C14 1.416 . S
C15 H17 0.930 . S
H16 C5 0.930 . S
H17 C15 0.930 . S
H18 C33 0.930 . S
H19 C40 0.930 . S
H20 C14 0.929 . S
H21 C13 0.930 . S
H22 C36 0.929 . S
H23 C3 0.931 . S
H24 C9 0.931 . S
H25 C10 0.931 . S
H26 C31 0.931 . S
H27 C6 0.929 . S
H28 C39 0.930 . S
N29 Eu0 2.600 1_545 S
N29 C30 1.365 . S
N29 C33 1.319 . S
C30 N29 1.365 . S
C30 C32 1.405 . S
C30 C38 1.448 . S
C31 H26 0.931 . S
C31 C33 1.397 . S
C31 C34 1.367 . S
C32 C30 1.405 . S
C32 C34 1.403 . S
C32 C65 1.439 . S
C33 H18 0.930 . S
C33 N29 1.319 . S
C33 C31 1.397 . S
C34 C31 1.367 . S
C34 C32 1.403 . S
C34 H41 0.929 . S
N35 Eu0 2.562 . S
N35 C36 1.325 . S
N35 C38 1.351 1_565 S
C36 H22 0.929 . S
C36 N35 1.325 . S
C36 C40 1.416 . S
C37 C38 1.430 . S
C37 C39 1.404 1_545 S
C37 C66 1.387 . S
C38 C30 1.448 . S
C38 N35 1.351 1_545 S
C38 C37 1.430 . S
C39 H28 0.930 . S
C39 C37 1.404 1_565 S
C39 C40 1.366 . S
C40 H19 0.930 . S
C40 C36 1.416 . S
C40 C39 1.366 . S
H41 C34 0.929 . S
H42 C65 0.931 . S
H43 C66 0.931 . S
O44 Eu0 2.462 . S
O44 C64 1.252 . S
O45 Eu0 2.373 1_545 S
O45 C56 1.249 . S
O46 Eu11 2.335 . S
O46 C56 1.264 . S
O47 Eu0 2.432 . S
O47 C64 1.268 . S
O48 Eu0 2.291 . S
O48 C63 1.255 . S
O49 Eu11 2.372 1_565 S
O49 C63 1.257 . S
O50 Eu11 2.462 . S
O50 C75 1.252 . S
O51 Eu11 2.373 1_565 S
O51 C67 1.249 . S
O52 Eu0 2.335 . S
O52 C67 1.264 . S
O53 Eu11 2.432 . S
O53 C75 1.268 . S
O54 Eu11 2.291 . S
O54 C74 1.255 . S
O55 Eu0 2.372 1_545 S
O55 C74 1.257 . S
C56 O45 1.249 . S
C56 O46 1.264 . S
C57 C60 1.382 . S
C57 C62 1.390 . S
C57 C64 1.506 . S
C58 C59 1.398 . S
C58 C62 1.392 . S
C59 C58 1.398 . S
C59 C61 1.372 . S
C59 H76 0.931 . S
C60 C57 1.382 . S
C60 C61 1.390 . S
C60 H77 0.931 . S
C61 C59 1.372 . S
C61 C60 1.390 . S
C61 H78 0.929 . S
C62 C57 1.390 . S
C62 C58 1.392 . S
C62 H79 0.930 . S
C63 O48 1.255 . S
C63 O49 1.257 . S
C64 Eu0 2.787 . S
C64 O44 1.252 . S
C64 O47 1.268 . S
C64 C57 1.506 . S
C65 C32 1.439 . S
C65 H42 0.931 . S
C65 C66 1.374 . S
C66 C37 1.387 . S
C66 H43 0.931 . S
C66 C65 1.374 . S
C67 O51 1.249 . S
C67 O52 1.264 . S
C68 C71 1.382 . S
C68 C72 1.390 . S
C68 C75 1.506 . S
C69 C70 1.398 . S
C69 C72 1.392 . S
C70 C69 1.398 . S
C70 C73 1.372 . S
C70 H80 0.931 . S
C71 C68 1.382 . S
C71 C73 1.390 . S
C71 H81 0.931 . S
C72 C68 1.390 . S
C72 C69 1.392 . S
C72 H82 0.930 . S
C73 C70 1.372 . S
C73 C71 1.390 . S
C73 H83 0.929 . S
C74 O54 1.255 . S
C74 O55 1.257 . S
C75 Eu11 2.787 . S
C75 O50 1.252 . S
C75 O53 1.268 . S
C75 C68 1.506 . S
H76 C59 0.931 . S
H77 C60 0.931 . S
H78 C61 0.929 . S
H79 C62 0.930 . S
H80 C70 0.931 . S
H81 C71 0.931 . S
H82 C72 0.930 . S
H83 C73 0.929 . S
Eu84 N113 2.600 . S
Eu84 N119 2.562 . S
Eu84 O128 2.462 . S
Eu84 O129 2.373 . S
Eu84 O131 2.432 . S
Eu84 O132 2.291 . S
Eu84 O136 2.335 . S
Eu84 O139 2.372 . S
Eu84 C148 2.787 . S
C85 N86 1.365 . S
C85 C88 1.405 . S
C85 C92 1.448 . S
N86 C85 1.365 . S
N86 C89 1.319 . S
N86 Eu95 2.600 . S
C87 C89 1.397 . S
C87 C90 1.367 . S
C87 H107 0.931 . S
C88 C85 1.405 . S
C88 C90 1.403 . S
C88 C94 1.439 . S
C89 N86 1.319 . S
C89 C87 1.397 . S
C89 H100 0.930 . S
C90 C87 1.367 . S
C90 C88 1.403 . S
C90 H111 0.929 . S
C91 C92 1.430 . S
C91 C93 1.387 . S
C91 C97 1.404 . S
C92 C85 1.448 . S
C92 C91 1.430 . S
C92 N96 1.351 . S
C93 C91 1.387 . S
C93 C94 1.374 . S
C93 H108 0.931 . S
C94 C88 1.439 . S
C94 C93 1.374 . S
C94 H109 0.931 . S
Eu95 N86 2.600 . S
Eu95 N96 2.562 . S
Eu95 O130 2.335 . S
Eu95 O133 2.372 . S
Eu95 O134 2.462 . S
Eu95 O135 2.373 . S
Eu95 O137 2.432 . S
Eu95 O138 2.291 . S
Eu95 C159 2.787 . S
N96 C92 1.351 . S
N96 Eu95 2.562 . S
N96 C98 1.325 . S
C97 C91 1.404 . S
C97 C99 1.366 . S
C97 H105 0.930 . S
C98 N96 1.325 . S
C98 C99 1.416 . S
C98 H104 0.929 . S
C99 C97 1.366 . S
C99 C98 1.416 . S
C99 H101 0.930 . S
H100 C89 0.930 . S
H101 C99 0.930 . S
H102 C117 0.930 . S
H103 C124 0.930 . S
H104 C98 0.929 . S
H105 C97 0.930 . S
H106 C120 0.929 . S
H107 C87 0.931 . S
H108 C93 0.931 . S
H109 C94 0.931 . S
H110 C115 0.931 . S
H111 C90 0.929 . S
H112 C123 0.930 . S
N113 Eu84 2.600 . S
N113 C114 1.365 . S
N113 C117 1.319 . S
C114 N113 1.365 . S
C114 C116 1.405 . S
C114 C122 1.448 . S
C115 H110 0.931 . S
C115 C117 1.397 . S
C115 C118 1.367 . S
C116 C114 1.405 . S
C116 C118 1.403 . S
C116 C149 1.439 . S
C117 H102 0.930 . S
C117 N113 1.319 . S
C117 C115 1.397 . S
C118 C115 1.367 . S
C118 C116 1.403 . S
C118 H125 0.929 . S
N119 Eu84 2.562 . S
N119 C120 1.325 . S
N119 C122 1.351 . S
C120 H106 0.929 . S
C120 N119 1.325 . S
C120 C124 1.416 . S
C121 C122 1.430 . S
C121 C123 1.404 . S
C121 C150 1.387 . S
C122 C114 1.448 . S
C122 N119 1.351 . S
C122 C121 1.430 . S
C123 H112 0.930 . S
C123 C121 1.404 . S
C123 C124 1.366 . S
C124 H103 0.930 . S
C124 C120 1.416 . S
C124 C123 1.366 . S
H125 C118 0.929 . S
H126 C149 0.931 . S
H127 C150 0.931 . S
O128 Eu84 2.462 . S
O128 C148 1.252 . S
O129 Eu84 2.373 . S
O129 C140 1.249 . S
O130 Eu95 2.335 . S
O130 C140 1.264 . S
O131 Eu84 2.432 . S
O131 C148 1.268 . S
O132 Eu84 2.291 . S
O132 C147 1.255 . S
O133 Eu95 2.372 . S
O133 C147 1.257 . S
O134 Eu95 2.462 . S
O134 C159 1.252 . S
O135 Eu95 2.373 . S
O135 C151 1.249 . S
O136 Eu84 2.335 . S
O136 C151 1.264 . S
O137 Eu95 2.432 . S
O137 C159 1.268 . S
O138 Eu95 2.291 . S
O138 C158 1.255 . S
O139 Eu84 2.372 . S
O139 C158 1.257 . S
C140 O129 1.249 . S
C140 O130 1.264 . S
C141 C144 1.382 . S
C141 C146 1.390 . S
C141 C148 1.506 . S
C142 C143 1.398 . S
C142 C146 1.392 . S
C143 C142 1.398 . S
C143 C145 1.372 . S
C143 H160 0.931 . S
C144 C141 1.382 . S
C144 C145 1.390 . S
C144 H161 0.931 . S
C145 C143 1.372 . S
C145 C144 1.390 . S
C145 H162 0.929 . S
C146 C141 1.390 . S
C146 C142 1.392 . S
C146 H163 0.930 . S
C147 O132 1.255 . S
C147 O133 1.257 . S
C148 Eu84 2.787 . S
C148 O128 1.252 . S
C148 O131 1.268 . S
C148 C141 1.506 . S
C149 C116 1.439 . S
C149 H126 0.931 . S
C149 C150 1.374 . S
C150 C121 1.387 . S
C150 H127 0.931 . S
C150 C149 1.374 . S
C151 O135 1.249 . S
C151 O136 1.264 . S
C152 C155 1.382 . S
C152 C156 1.390 . S
C152 C159 1.506 . S
C153 C154 1.398 . S
C153 C156 1.392 . S
C154 C153 1.398 . S
C154 C157 1.372 . S
C154 H164 0.931 . S
C155 C152 1.382 . S
C155 C157 1.390 . S
C155 H165 0.931 . S
C156 C152 1.390 . S
C156 C153 1.392 . S
C156 H166 0.930 . S
C157 C154 1.372 . S
C157 C155 1.390 . S
C157 H167 0.929 . S
C158 O138 1.255 . S
C158 O139 1.257 . S
C159 Eu95 2.787 . S
C159 O134 1.252 . S
C159 O137 1.268 . S
C159 C152 1.506 . S
H160 C143 0.931 . S
H161 C144 0.931 . S
H162 C145 0.929 . S
H163 C146 0.930 . S
H164 C154 0.931 . S
H165 C155 0.931 . S
H166 C156 0.930 . S
H167 C157 0.929 . S
Eu168 N197 2.600 1_455 S
Eu168 N203 2.562 . S
Eu168 O212 2.462 . S
Eu168 O213 2.373 1_455 S
Eu168 O215 2.432 . S
Eu168 O216 2.291 . S
Eu168 O220 2.335 . S
Eu168 O223 2.372 1_455 S
Eu168 C232 2.787 . S
C169 N170 1.365 . S
C169 C172 1.405 . S
C169 C176 1.448 . S
N170 C169 1.365 . S
N170 C173 1.319 . S
N170 Eu179 2.600 1_455 S
C171 C173 1.397 . S
C171 C174 1.367 . S
C171 H191 0.931 . S
C172 C169 1.405 . S
C172 C174 1.403 . S
C172 C178 1.439 . S
C173 N170 1.319 . S
C173 C171 1.397 . S
C173 H184 0.930 . S
C174 C171 1.367 . S
C174 C172 1.403 . S
C174 H195 0.929 . S
C175 C176 1.430 . S
C175 C177 1.387 . S
C175 C181 1.404 1_455 S
C176 C169 1.448 . S
C176 C175 1.430 . S
C176 N180 1.351 1_455 S
C177 C175 1.387 . S
C177 C178 1.374 . S
C177 H192 0.931 . S
C178 C172 1.439 . S
C178 C177 1.374 . S
C178 H193 0.931 . S
Eu179 N170 2.600 1_655 S
Eu179 N180 2.562 . S
Eu179 O214 2.335 . S
Eu179 O217 2.372 1_655 S
Eu179 O218 2.462 . S
Eu179 O219 2.373 1_655 S
Eu179 O221 2.432 . S
Eu179 O222 2.291 . S
Eu179 C243 2.787 . S
N180 C176 1.351 1_655 S
N180 Eu179 2.562 . S
N180 C182 1.325 . S
C181 C175 1.404 1_655 S
C181 C183 1.366 . S
C181 H189 0.930 . S
C182 N180 1.325 . S
C182 C183 1.416 . S
C182 H188 0.929 . S
C183 C181 1.366 . S
C183 C182 1.416 . S
C183 H185 0.930 . S
H184 C173 0.930 . S
H185 C183 0.930 . S
H186 C201 0.930 . S
H187 C208 0.930 . S
H188 C182 0.929 . S
H189 C181 0.930 . S
H190 C204 0.929 . S
H191 C171 0.931 . S
H192 C177 0.931 . S
H193 C178 0.931 . S
H194 C199 0.931 . S
H195 C174 0.929 . S
H196 C207 0.930 . S
N197 Eu168 2.600 1_655 S
N197 C198 1.365 . S
N197 C201 1.319 . S
C198 N197 1.365 . S
C198 C200 1.405 . S
C198 C206 1.448 . S
C199 H194 0.931 . S
C199 C201 1.397 . S
C199 C202 1.367 . S
C200 C198 1.405 . S
C200 C202 1.403 . S
C200 C233 1.439 . S
C201 H186 0.930 . S
C201 N197 1.319 . S
C201 C199 1.397 . S
C202 C199 1.367 . S
C202 C200 1.403 . S
C202 H209 0.929 . S
N203 Eu168 2.562 . S
N203 C204 1.325 . S
N203 C206 1.351 1_455 S
C204 H190 0.929 . S
C204 N203 1.325 . S
C204 C208 1.416 . S
C205 C206 1.430 . S
C205 C207 1.404 1_655 S
C205 C234 1.387 . S
C206 C198 1.448 . S
C206 N203 1.351 1_655 S
C206 C205 1.430 . S
C207 H196 0.930 . S
C207 C205 1.404 1_455 S
C207 C208 1.366 . S
C208 H187 0.930 . S
C208 C204 1.416 . S
C208 C207 1.366 . S
H209 C202 0.929 . S
H210 C233 0.931 . S
H211 C234 0.931 . S
O212 Eu168 2.462 . S
O212 C232 1.252 . S
O213 Eu168 2.373 1_655 S
O213 C224 1.249 . S
O214 Eu179 2.335 . S
O214 C224 1.264 . S
O215 Eu168 2.432 . S
O215 C232 1.268 . S
O216 Eu168 2.291 . S
O216 C231 1.255 . S
O217 Eu179 2.372 1_455 S
O217 C231 1.257 . S
O218 Eu179 2.462 . S
O218 C243 1.252 . S
O219 Eu179 2.373 1_455 S
O219 C235 1.249 . S
O220 Eu168 2.335 . S
O220 C235 1.264 . S
O221 Eu179 2.432 . S
O221 C243 1.268 . S
O222 Eu179 2.291 . S
O222 C242 1.255 . S
O223 Eu168 2.372 1_655 S
O223 C242 1.257 . S
C224 O213 1.249 . S
C224 O214 1.264 . S
C225 C228 1.382 . S
C225 C230 1.390 . S
C225 C232 1.506 . S
C226 C227 1.398 . S
C226 C230 1.392 . S
C227 C226 1.398 . S
C227 C229 1.372 . S
C227 H244 0.931 . S
C228 C225 1.382 . S
C228 C229 1.390 . S
C228 H245 0.931 . S
C229 C227 1.372 . S
C229 C228 1.390 . S
C229 H246 0.929 . S
C230 C225 1.390 . S
C230 C226 1.392 . S
C230 H247 0.930 . S
C231 O216 1.255 . S
C231 O217 1.257 . S
C232 Eu168 2.787 . S
C232 O212 1.252 . S
C232 O215 1.268 . S
C232 C225 1.506 . S
C233 C200 1.439 . S
C233 H210 0.931 . S
C233 C234 1.374 . S
C234 C205 1.387 . S
C234 H211 0.931 . S
C234 C233 1.374 . S
C235 O219 1.249 . S
C235 O220 1.264 . S
C236 C239 1.382 . S
C236 C240 1.390 . S
C236 C243 1.506 . S
C237 C238 1.398 . S
C237 C240 1.392 . S
C238 C237 1.398 . S
C238 C241 1.372 . S
C238 H248 0.931 . S
C239 C236 1.382 . S
C239 C241 1.390 . S
C239 H249 0.931 . S
C240 C236 1.390 . S
C240 C237 1.392 . S
C240 H250 0.930 . S
C241 C238 1.372 . S
C241 C239 1.390 . S
C241 H251 0.929 . S
C242 O222 1.255 . S
C242 O223 1.257 . S
C243 Eu179 2.787 . S
C243 O218 1.252 . S
C243 O221 1.268 . S
C243 C236 1.506 . S
H244 C227 0.931 . S
H245 C228 0.931 . S
H246 C229 0.929 . S
H247 C230 0.930 . S
H248 C238 0.931 . S
H249 C239 0.931 . S
H250 C240 0.930 . S
H251 C241 0.929 . S
Eu252 N281 2.600 1_545 S
Eu252 N287 2.562 . S
Eu252 O296 2.462 . S
Eu252 O297 2.373 1_545 S
Eu252 O299 2.432 . S
Eu252 O300 2.291 . S
Eu252 O304 2.335 . S
Eu252 O307 2.372 1_545 S
Eu252 C316 2.787 . S
C253 N254 1.365 . S
C253 C256 1.405 . S
C253 C260 1.448 . S
N254 C253 1.365 . S
N254 C257 1.319 . S
N254 Eu263 2.600 1_545 S
C255 C257 1.397 . S
C255 C258 1.367 . S
C255 H275 0.931 . S
C256 C253 1.405 . S
C256 C258 1.403 . S
C256 C262 1.439 . S
C257 N254 1.319 . S
C257 C255 1.397 . S
C257 H268 0.930 . S
C258 C255 1.367 . S
C258 C256 1.403 . S
C258 H279 0.929 . S
C259 C260 1.430 . S
C259 C261 1.387 . S
C259 C265 1.404 1_545 S
C260 C253 1.448 . S
C260 C259 1.430 . S
C260 N264 1.351 1_545 S
C261 C259 1.387 . S
C261 C262 1.374 . S
C261 H276 0.931 . S
C262 C256 1.439 . S
C262 C261 1.374 . S
C262 H277 0.931 . S
Eu263 N254 2.600 1_565 S
Eu263 N264 2.562 . S
Eu263 O298 2.335 . S
Eu263 O301 2.372 1_565 S
Eu263 O302 2.462 . S
Eu263 O303 2.373 1_565 S
Eu263 O305 2.432 . S
Eu263 O306 2.291 . S
Eu263 C327 2.787 . S
N264 C260 1.351 1_565 S
N264 Eu263 2.562 . S
N264 C266 1.325 . S
C265 C259 1.404 1_565 S
C265 C267 1.366 . S
C265 H273 0.930 . S
C266 N264 1.325 . S
C266 C267 1.416 . S
C266 H272 0.929 . S
C267 C265 1.366 . S
C267 C266 1.416 . S
C267 H269 0.930 . S
H268 C257 0.930 . S
H269 C267 0.930 . S
H270 C285 0.930 . S
H271 C292 0.930 . S
H272 C266 0.929 . S
H273 C265 0.930 . S
H274 C288 0.929 . S
H275 C255 0.931 . S
H276 C261 0.931 . S
H277 C262 0.931 . S
H278 C283 0.931 . S
H279 C258 0.929 . S
H280 C291 0.930 . S
N281 Eu252 2.600 1_565 S
N281 C282 1.365 . S
N281 C285 1.319 . S
C282 N281 1.365 . S
C282 C284 1.405 . S
C282 C290 1.448 . S
C283 H278 0.931 . S
C283 C285 1.397 . S
C283 C286 1.367 . S
C284 C282 1.405 . S
C284 C286 1.403 . S
C284 C317 1.439 . S
C285 H270 0.930 . S
C285 N281 1.319 . S
C285 C283 1.397 . S
C286 C283 1.367 . S
C286 C284 1.403 . S
C286 H293 0.929 . S
N287 Eu252 2.562 . S
N287 C288 1.325 . S
N287 C290 1.351 1_545 S
C288 H274 0.929 . S
C288 N287 1.325 . S
C288 C292 1.416 . S
C289 C290 1.430 . S
C289 C291 1.404 1_565 S
C289 C318 1.387 . S
C290 C282 1.448 . S
C290 N287 1.351 1_565 S
C290 C289 1.430 . S
C291 H280 0.930 . S
C291 C289 1.404 1_545 S
C291 C292 1.366 . S
C292 H271 0.930 . S
C292 C288 1.416 . S
C292 C291 1.366 . S
H293 C286 0.929 . S
H294 C317 0.931 . S
H295 C318 0.931 . S
O296 Eu252 2.462 . S
O296 C316 1.252 . S
O297 Eu252 2.373 1_565 S
O297 C308 1.249 . S
O298 Eu263 2.335 . S
O298 C308 1.264 . S
O299 Eu252 2.432 . S
O299 C316 1.268 . S
O300 Eu252 2.291 . S
O300 C315 1.255 . S
O301 Eu263 2.372 1_545 S
O301 C315 1.257 . S
O302 Eu263 2.462 . S
O302 C327 1.252 . S
O303 Eu263 2.373 1_545 S
O303 C319 1.249 . S
O304 Eu252 2.335 . S
O304 C319 1.264 . S
O305 Eu263 2.432 . S
O305 C327 1.268 . S
O306 Eu263 2.291 . S
O306 C326 1.255 . S
O307 Eu252 2.372 1_565 S
O307 C326 1.257 . S
C308 O297 1.249 . S
C308 O298 1.264 . S
C309 C312 1.382 . S
C309 C314 1.390 . S
C309 C316 1.506 . S
C310 C311 1.398 . S
C310 C314 1.392 . S
C311 C310 1.398 . S
C311 C313 1.372 . S
C311 H328 0.931 . S
C312 C309 1.382 . S
C312 C313 1.390 . S
C312 H329 0.931 . S
C313 C311 1.372 . S
C313 C312 1.390 . S
C313 H330 0.929 . S
C314 C309 1.390 . S
C314 C310 1.392 . S
C314 H331 0.930 . S
C315 O300 1.255 . S
C315 O301 1.257 . S
C316 Eu252 2.787 . S
C316 O296 1.252 . S
C316 O299 1.268 . S
C316 C309 1.506 . S
C317 C284 1.439 . S
C317 H294 0.931 . S
C317 C318 1.374 . S
C318 C289 1.387 . S
C318 H295 0.931 . S
C318 C317 1.374 . S
C319 O303 1.249 . S
C319 O304 1.264 . S
C320 C323 1.382 . S
C320 C324 1.390 . S
C320 C327 1.506 . S
C321 C322 1.398 . S
C321 C324 1.392 . S
C322 C321 1.398 . S
C322 C325 1.372 . S
C322 H332 0.931 . S
C323 C320 1.382 . S
C323 C325 1.390 . S
C323 H333 0.931 . S
C324 C320 1.390 . S
C324 C321 1.392 . S
C324 H334 0.930 . S
C325 C322 1.372 . S
C325 C323 1.390 . S
C325 H335 0.929 . S
C326 O306 1.255 . S
C326 O307 1.257 . S
C327 Eu263 2.787 . S
C327 O302 1.252 . S
C327 O305 1.268 . S
C327 C320 1.506 . S
H328 C311 0.931 . S
H329 C312 0.931 . S
H330 C313 0.929 . S
H331 C314 0.930 . S
H332 C322 0.931 . S
H333 C323 0.931 . S
H334 C324 0.930 . S
H335 C325 0.929 . S
Eu336 N365 2.600 . S
Eu336 N371 2.562 . S
Eu336 O380 2.462 . S
Eu336 O381 2.373 . S
Eu336 O383 2.432 1_554 S
Eu336 O384 2.291 . S
Eu336 O388 2.335 . S
Eu336 O391 2.372 . S
Eu336 C400 2.787 1_554 S
C337 N338 1.365 . S
C337 C340 1.405 . S
C337 C344 1.448 . S
N338 C337 1.365 . S
N338 C341 1.319 . S
N338 Eu347 2.600 . S
C339 C341 1.397 . S
C339 C342 1.367 . S
C339 H359 0.931 . S
C340 C337 1.405 . S
C340 C342 1.403 . S
C340 C346 1.439 . S
C341 N338 1.319 . S
C341 C339 1.397 . S
C341 H352 0.930 . S
C342 C339 1.367 . S
C342 C340 1.403 . S
C342 H363 0.929 . S
C343 C344 1.430 . S
C343 C345 1.387 . S
C343 C349 1.404 . S
C344 C337 1.448 . S
C344 C343 1.430 . S
C344 N348 1.351 . S
C345 C343 1.387 . S
C345 C346 1.374 . S
C345 H360 0.931 . S
C346 C340 1.439 . S
C346 C345 1.374 . S
C346 H361 0.931 . S
Eu347 N338 2.600 . S
Eu347 N348 2.562 . S
Eu347 O382 2.335 . S
Eu347 O385 2.372 . S
Eu347 O386 2.462 . S
Eu347 O387 2.373 . S
Eu347 O389 2.432 . S
Eu347 O390 2.291 . S
Eu347 C411 2.787 . S
N348 C344 1.351 . S
N348 Eu347 2.562 . S
N348 C350 1.325 . S
C349 C343 1.404 . S
C349 C351 1.366 . S
C349 H357 0.930 . S
C350 N348 1.325 . S
C350 C351 1.416 . S
C350 H356 0.929 . S
C351 C349 1.366 . S
C351 C350 1.416 . S
C351 H353 0.930 . S
H352 C341 0.930 . S
H353 C351 0.930 . S
H354 C369 0.930 . S
H355 C376 0.930 . S
H356 C350 0.929 . S
H357 C349 0.930 . S
H358 C372 0.929 . S
H359 C339 0.931 . S
H360 C345 0.931 . S
H361 C346 0.931 . S
H362 C367 0.931 . S
H363 C342 0.929 . S
H364 C375 0.930 . S
N365 Eu336 2.600 . S
N365 C366 1.365 . S
N365 C369 1.319 1_554 S
C366 N365 1.365 . S
C366 C368 1.405 . S
C366 C374 1.448 . S
C367 H362 0.931 . S
C367 C369 1.397 . S
C367 C370 1.339 1_556 S
C368 C366 1.405 . S
C368 C370 1.455 . S
C368 C401 1.439 . S
C369 H354 0.930 . S
C369 N365 1.319 1_556 S
C369 C367 1.397 . S
C370 C367 1.339 1_554 S
C370 C368 1.455 . S
C370 H377 0.912 1_554 S
N371 Eu336 2.562 . S
N371 C372 1.325 . S
N371 C374 1.351 . S
C372 H358 0.929 . S
C372 N371 1.325 . S
C372 C376 1.416 . S
C373 C374 1.430 . S
C373 C375 1.404 . S
C373 C402 1.387 . S
C374 C366 1.448 . S
C374 N371 1.351 . S
C374 C373 1.430 . S
C375 H364 0.930 . S
C375 C373 1.404 . S
C375 C376 1.366 . S
C376 H355 0.930 . S
C376 C372 1.416 . S
C376 C375 1.366 . S
H377 C370 0.912 1_556 S
H378 C401 0.931 . S
H379 C402 0.931 . S
O380 Eu336 2.462 . S
O380 C400 1.252 1_554 S
O381 Eu336 2.373 . S
O381 C392 1.249 . S
O382 Eu347 2.335 . S
O382 C392 1.264 . S
O383 Eu336 2.432 1_556 S
O383 C400 1.268 . S
O384 Eu336 2.291 . S
O384 C399 1.255 . S
O385 Eu347 2.372 . S
O385 C399 1.257 . S
O386 Eu347 2.462 . S
O386 C411 1.252 . S
O387 Eu347 2.373 . S
O387 C403 1.249 . S
O388 Eu336 2.335 . S
O388 C403 1.264 . S
O389 Eu347 2.432 . S
O389 C411 1.268 . S
O390 Eu347 2.291 . S
O390 C410 1.255 . S
O391 Eu336 2.372 . S
O391 C410 1.257 . S
C392 O381 1.249 . S
C392 O382 1.264 . S
C393 C396 1.382 . S
C393 C398 1.390 . S
C393 C400 1.506 . S
C394 C395 1.398 . S
C394 C398 1.392 . S
C395 C394 1.398 . S
C395 C397 1.372 . S
C395 H412 0.931 . S
C396 C393 1.382 . S
C396 C397 1.390 . S
C396 H413 0.931 . S
C397 C395 1.372 . S
C397 C396 1.390 . S
C397 H414 0.929 . S
C398 C393 1.390 . S
C398 C394 1.392 . S
C398 H415 0.943 . S
C399 O384 1.255 . S
C399 O385 1.257 . S
C400 Eu336 2.787 1_556 S
C400 O380 1.252 1_556 S
C400 O383 1.268 . S
C400 C393 1.506 . S
C401 C368 1.439 . S
C401 H378 0.931 . S
C401 C402 1.374 . S
C402 C373 1.387 . S
C402 H379 0.931 . S
C402 C401 1.374 . S
C403 O387 1.249 . S
C403 O388 1.264 . S
C404 C407 1.382 . S
C404 C408 1.390 . S
C404 C411 1.506 . S
C405 C406 1.398 . S
C405 C408 1.392 . S
C406 C405 1.398 . S
C406 C409 1.372 . S
C406 H416 0.931 . S
C407 C404 1.382 . S
C407 C409 1.390 . S
C407 H417 0.931 . S
C408 C404 1.390 . S
C408 C405 1.392 . S
C408 H418 0.930 . S
C409 C406 1.372 . S
C409 C407 1.390 . S
C409 H419 0.929 . S
C410 O390 1.255 . S
C410 O391 1.257 . S
C411 Eu347 2.787 . S
C411 O386 1.252 . S
C411 O389 1.268 . S
C411 C404 1.506 . S
H412 C395 0.931 . S
H413 C396 0.931 . S
H414 C397 0.929 . S
H415 C398 0.943 . S
H416 C406 0.931 . S
H417 C407 0.931 . S
H418 C408 0.930 . S
H419 C409 0.929 . S
Eu420 N449 2.600 1_655 S
Eu420 N455 2.562 . S
Eu420 O464 2.462 . S
Eu420 O465 2.373 1_655 S
Eu420 O467 2.432 . S
Eu420 O468 2.291 . S
Eu420 O472 2.335 . S
Eu420 O475 2.372 1_655 S
Eu420 C484 2.787 . S
C421 N422 1.365 . S
C421 C424 1.405 . S
C421 C428 1.448 . S
N422 C421 1.365 . S
N422 C425 1.319 . S
N422 Eu431 2.600 1_655 S
C423 C425 1.397 . S
C423 C426 1.367 . S
C423 H443 0.931 . S
C424 C421 1.405 . S
C424 C426 1.403 . S
C424 C430 1.439 . S
C425 N422 1.319 . S
C425 C423 1.397 . S
C425 H436 0.930 . S
C426 C423 1.367 . S
C426 C424 1.403 . S
C426 H447 0.929 . S
C427 C428 1.430 . S
C427 C429 1.387 . S
C427 C433 1.404 1_655 S
C428 C421 1.448 . S
C428 C427 1.430 . S
C428 N432 1.351 1_655 S
C429 C427 1.387 . S
C429 C430 1.374 . S
C429 H444 0.931 . S
C430 C424 1.439 . S
C430 C429 1.374 . S
C430 H445 0.931 . S
Eu431 N422 2.600 1_455 S
Eu431 N432 2.562 . S
Eu431 O466 2.335 . S
Eu431 O469 2.372 1_455 S
Eu431 O470 2.462 . S
Eu431 O471 2.373 1_455 S
Eu431 O473 2.432 . S
Eu431 O474 2.291 . S
Eu431 C495 2.787 . S
N432 C428 1.351 1_455 S
N432 Eu431 2.562 . S
N432 C434 1.325 . S
C433 C427 1.404 1_455 S
C433 C435 1.366 . S
C433 H441 0.930 . S
C434 N432 1.325 . S
C434 C435 1.416 . S
C434 H440 0.929 . S
C435 C433 1.366 . S
C435 C434 1.416 . S
C435 H437 0.930 . S
H436 C425 0.930 . S
H437 C435 0.930 . S
H438 C453 0.930 . S
H439 C460 0.930 . S
H440 C434 0.929 . S
H441 C433 0.930 . S
H442 C456 0.929 . S
H443 C423 0.931 . S
H444 C429 0.931 . S
H445 C430 0.931 . S
H446 C451 0.931 . S
H447 C426 0.929 . S
H448 C459 0.930 . S
N449 Eu420 2.600 1_455 S
N449 C450 1.365 . S
N449 C453 1.319 . S
C450 N449 1.365 . S
C450 C452 1.405 . S
C450 C458 1.448 . S
C451 H446 0.931 . S
C451 C453 1.397 . S
C451 C454 1.367 . S
C452 C450 1.405 . S
C452 C454 1.403 . S
C452 C485 1.439 . S
C453 H438 0.930 . S
C453 N449 1.319 . S
C453 C451 1.397 . S
C454 C451 1.367 . S
C454 C452 1.403 . S
C454 H461 0.929 . S
N455 Eu420 2.562 . S
N455 C456 1.325 . S
N455 C458 1.351 1_655 S
C456 H442 0.929 . S
C456 N455 1.325 . S
C456 C460 1.416 . S
C457 C458 1.430 . S
C457 C459 1.404 1_455 S
C457 C486 1.387 . S
C458 C450 1.448 . S
C458 N455 1.351 1_455 S
C458 C457 1.430 . S
C459 H448 0.930 . S
C459 C457 1.404 1_655 S
C459 C460 1.366 . S
C460 H439 0.930 . S
C460 C456 1.416 . S
C460 C459 1.366 . S
H461 C454 0.929 . S
H462 C485 0.931 . S
H463 C486 0.931 . S
O464 Eu420 2.462 . S
O464 C484 1.252 . S
O465 Eu420 2.373 1_455 S
O465 C476 1.249 . S
O466 Eu431 2.335 . S
O466 C476 1.264 . S
O467 Eu420 2.432 . S
O467 C484 1.268 . S
O468 Eu420 2.291 . S
O468 C483 1.255 . S
O469 Eu431 2.372 1_655 S
O469 C483 1.257 . S
O470 Eu431 2.462 . S
O470 C495 1.252 . S
O471 Eu431 2.373 1_655 S
O471 C487 1.249 . S
O472 Eu420 2.335 . S
O472 C487 1.264 . S
O473 Eu431 2.432 . S
O473 C495 1.268 . S
O474 Eu431 2.291 . S
O474 C494 1.255 . S
O475 Eu420 2.372 1_455 S
O475 C494 1.257 . S
C476 O465 1.249 . S
C476 O466 1.264 . S
C477 C480 1.382 . S
C477 C482 1.390 . S
C477 C484 1.506 . S
C478 C479 1.398 . S
C478 C482 1.392 . S
C479 C478 1.398 . S
C479 C481 1.372 . S
C479 H496 0.931 . S
C480 C477 1.382 . S
C480 C481 1.390 . S
C480 H497 0.931 . S
C481 C479 1.372 . S
C481 C480 1.390 . S
C481 H498 0.929 . S
C482 C477 1.390 . S
C482 C478 1.392 . S
C482 H499 0.930 . S
C483 O468 1.255 . S
C483 O469 1.257 . S
C484 Eu420 2.787 . S
C484 O464 1.252 . S
C484 O467 1.268 . S
C484 C477 1.506 . S
C485 C452 1.439 . S
C485 H462 0.931 . S
C485 C486 1.374 . S
C486 C457 1.387 . S
C486 H463 0.931 . S
C486 C485 1.374 . S
C487 O471 1.249 . S
C487 O472 1.264 . S
C488 C491 1.382 . S
C488 C492 1.390 . S
C488 C495 1.506 . S
C489 C490 1.398 . S
C489 C492 1.392 . S
C490 C489 1.398 . S
C490 C493 1.372 . S
C490 H500 0.931 . S
C491 C488 1.382 . S
C491 C493 1.390 . S
C491 H501 0.931 . S
C492 C488 1.390 . S
C492 C489 1.392 . S
C492 H502 0.930 . S
C493 C490 1.372 . S
C493 C491 1.390 . S
C493 H503 0.929 . S
C494 O474 1.255 . S
C494 O475 1.257 . S
C495 Eu431 2.787 . S
C495 O470 1.252 . S
C495 O473 1.268 . S
C495 C488 1.506 . S
H496 C479 0.931 . S
H497 C480 0.931 . S
H498 C481 0.929 . S
H499 C482 0.930 . S
H500 C490 0.931 . S
H501 C491 0.931 . S
H502 C492 0.930 . S
H503 C493 0.929 . S
Eu504 N533 2.600 1_455 S
Eu504 N539 2.562 . S
Eu504 O548 2.462 . S
Eu504 O549 2.373 1_455 S
Eu504 O551 2.432 . S
Eu504 O552 2.291 . S
Eu504 O556 2.335 . S
Eu504 O559 2.372 1_455 S
Eu504 C568 2.787 . S
C505 N506 1.365 . S
C505 C508 1.405 . S
C505 C512 1.448 . S
N506 C505 1.365 . S
N506 C509 1.319 . S
N506 Eu515 2.600 1_455 S
C507 C509 1.397 . S
C507 C510 1.367 . S
C507 H527 0.931 . S
C508 C505 1.405 . S
C508 C510 1.403 . S
C508 C514 1.439 . S
C509 N506 1.319 . S
C509 C507 1.397 . S
C509 H520 0.930 . S
C510 C507 1.367 . S
C510 C508 1.403 . S
C510 H531 0.929 . S
C511 C512 1.430 . S
C511 C513 1.387 . S
C511 C517 1.404 1_455 S
C512 C505 1.448 . S
C512 C511 1.430 . S
C512 N516 1.351 1_455 S
C513 C511 1.387 . S
C513 C514 1.374 . S
C513 H528 0.931 . S
C514 C508 1.439 . S
C514 C513 1.374 . S
C514 H529 0.931 . S
Eu515 N506 2.600 1_655 S
Eu515 N516 2.562 . S
Eu515 O550 2.335 . S
Eu515 O553 2.372 1_655 S
Eu515 O554 2.462 . S
Eu515 O555 2.373 1_655 S
Eu515 O557 2.432 . S
Eu515 O558 2.291 . S
Eu515 C579 2.787 . S
N516 C512 1.351 1_655 S
N516 Eu515 2.562 . S
N516 C518 1.325 . S
C517 C511 1.404 1_655 S
C517 C519 1.366 . S
C517 H525 0.930 . S
C518 N516 1.325 . S
C518 C519 1.416 . S
C518 H524 0.929 . S
C519 C517 1.366 . S
C519 C518 1.416 . S
C519 H521 0.930 . S
H520 C509 0.930 . S
H521 C519 0.930 . S
H522 C537 0.930 . S
H523 C544 0.930 . S
H524 C518 0.929 . S
H525 C517 0.930 . S
H526 C540 0.929 . S
H527 C507 0.931 . S
H528 C513 0.931 . S
H529 C514 0.931 . S
H530 C535 0.931 . S
H531 C510 0.929 . S
H532 C543 0.930 . S
N533 Eu504 2.600 1_655 S
N533 C534 1.365 . S
N533 C537 1.319 . S
C534 N533 1.365 . S
C534 C536 1.405 . S
C534 C542 1.448 . S
C535 H530 0.931 . S
C535 C537 1.397 . S
C535 C538 1.367 . S
C536 C534 1.405 . S
C536 C538 1.403 . S
C536 C569 1.439 . S
C537 H522 0.930 . S
C537 N533 1.319 . S
C537 C535 1.397 . S
C538 C535 1.367 . S
C538 C536 1.403 . S
C538 H545 0.929 . S
N539 Eu504 2.562 . S
N539 C540 1.325 . S
N539 C542 1.351 1_455 S
C540 H526 0.929 . S
C540 N539 1.325 . S
C540 C544 1.416 . S
C541 C542 1.430 . S
C541 C543 1.404 1_655 S
C541 C570 1.387 . S
C542 C534 1.448 . S
C542 N539 1.351 1_655 S
C542 C541 1.430 . S
C543 H532 0.930 . S
C543 C541 1.404 1_455 S
C543 C544 1.366 . S
C544 H523 0.930 . S
C544 C540 1.416 . S
C544 C543 1.366 . S
H545 C538 0.929 . S
H546 C569 0.931 . S
H547 C570 0.931 . S
O548 Eu504 2.462 . S
O548 C568 1.252 . S
O549 Eu504 2.373 1_655 S
O549 C560 1.249 . S
O550 Eu515 2.335 . S
O550 C560 1.264 . S
O551 Eu504 2.432 . S
O551 C568 1.268 . S
O552 Eu504 2.291 . S
O552 C567 1.255 . S
O553 Eu515 2.372 1_455 S
O553 C567 1.257 . S
O554 Eu515 2.462 . S
O554 C579 1.252 . S
O555 Eu515 2.373 1_455 S
O555 C571 1.249 . S
O556 Eu504 2.335 . S
O556 C571 1.264 . S
O557 Eu515 2.432 . S
O557 C579 1.268 . S
O558 Eu515 2.291 . S
O558 C578 1.255 . S
O559 Eu504 2.372 1_655 S
O559 C578 1.257 . S
C560 O549 1.249 . S
C560 O550 1.264 . S
C561 C564 1.382 . S
C561 C566 1.390 . S
C561 C568 1.506 . S
C562 C563 1.398 . S
C562 C566 1.392 . S
C563 C562 1.398 . S
C563 C565 1.372 . S
C563 H580 0.931 . S
C564 C561 1.382 . S
C564 C565 1.390 . S
C564 H581 0.931 . S
C565 C563 1.372 . S
C565 C564 1.390 . S
C565 H582 0.929 . S
C566 C561 1.390 . S
C566 C562 1.392 . S
C566 H583 0.930 . S
C567 O552 1.255 . S
C567 O553 1.257 . S
C568 Eu504 2.787 . S
C568 O548 1.252 . S
C568 O551 1.268 . S
C568 C561 1.506 . S
C569 C536 1.439 . S
C569 H546 0.931 . S
C569 C570 1.374 . S
C570 C541 1.387 . S
C570 H547 0.931 . S
C570 C569 1.374 . S
C571 O555 1.249 . S
C571 O556 1.264 . S
C572 C575 1.382 . S
C572 C576 1.390 . S
C572 C579 1.506 . S
C573 C574 1.398 . S
C573 C576 1.392 . S
C574 C573 1.398 . S
C574 C577 1.372 . S
C574 H584 0.931 . S
C575 C572 1.382 . S
C575 C577 1.390 . S
C575 H585 0.931 . S
C576 C572 1.390 . S
C576 C573 1.392 . S
C576 H586 0.930 . S
C577 C574 1.372 . S
C577 C575 1.390 . S
C577 H587 0.929 . S
C578 O558 1.255 . S
C578 O559 1.257 . S
C579 Eu515 2.787 . S
C579 O554 1.252 . S
C579 O557 1.268 . S
C579 C572 1.506 . S
H580 C563 0.931 . S
H581 C564 0.931 . S
H582 C565 0.929 . S
H583 C566 0.930 . S
H584 C574 0.931 . S
H585 C575 0.931 . S
H586 C576 0.930 . S
H587 C577 0.929 . S
Eu588 N617 2.600 1_545 S
Eu588 N623 2.562 . S
Eu588 O632 2.462 . S
Eu588 O633 2.373 1_545 S
Eu588 O635 2.432 . S
Eu588 O636 2.291 . S
Eu588 O640 2.335 . S
Eu588 O643 2.372 1_545 S
Eu588 C652 2.787 . S
C589 N590 1.365 . S
C589 C592 1.405 . S
C589 C596 1.448 . S
N590 C589 1.365 . S
N590 C593 1.319 . S
N590 Eu599 2.600 1_545 S
C591 C593 1.397 . S
C591 C594 1.367 . S
C591 H611 0.931 . S
C592 C589 1.405 . S
C592 C594 1.403 . S
C592 C598 1.439 . S
C593 N590 1.319 . S
C593 C591 1.397 . S
C593 H604 0.930 . S
C594 C591 1.367 . S
C594 C592 1.403 . S
C594 H615 0.929 . S
C595 C596 1.430 . S
C595 C597 1.387 . S
C595 C601 1.404 1_545 S
C596 C589 1.448 . S
C596 C595 1.430 . S
C596 N600 1.351 1_545 S
C597 C595 1.387 . S
C597 C598 1.374 . S
C597 H612 0.931 . S
C598 C592 1.439 . S
C598 C597 1.374 . S
C598 H613 0.931 . S
Eu599 N590 2.600 1_565 S
Eu599 N600 2.562 . S
Eu599 O634 2.335 . S
Eu599 O637 2.372 1_565 S
Eu599 O638 2.462 . S
Eu599 O639 2.373 1_565 S
Eu599 O641 2.432 . S
Eu599 O642 2.291 . S
Eu599 C663 2.787 . S
N600 C596 1.351 1_565 S
N600 Eu599 2.562 . S
N600 C602 1.325 . S
C601 C595 1.404 1_565 S
C601 C603 1.366 . S
C601 H609 0.930 . S
C602 N600 1.325 . S
C602 C603 1.416 . S
C602 H608 0.929 . S
C603 C601 1.366 . S
C603 C602 1.416 . S
C603 H605 0.930 . S
H604 C593 0.930 . S
H605 C603 0.930 . S
H606 C621 0.930 . S
H607 C628 0.930 . S
H608 C602 0.929 . S
H609 C601 0.930 . S
H610 C624 0.929 . S
H611 C591 0.931 . S
H612 C597 0.931 . S
H613 C598 0.931 . S
H614 C619 0.931 . S
H615 C594 0.929 . S
H616 C627 0.930 . S
N617 Eu588 2.600 1_565 S
N617 C618 1.365 . S
N617 C621 1.319 . S
C618 N617 1.365 . S
C618 C620 1.405 . S
C618 C626 1.448 . S
C619 H614 0.931 . S
C619 C621 1.397 . S
C619 C622 1.367 . S
C620 C618 1.405 . S
C620 C622 1.403 . S
C620 C653 1.439 . S
C621 H606 0.930 . S
C621 N617 1.319 . S
C621 C619 1.397 . S
C622 C619 1.367 . S
C622 C620 1.403 . S
C622 H629 0.929 . S
N623 Eu588 2.562 . S
N623 C624 1.325 . S
N623 C626 1.351 1_545 S
C624 H610 0.929 . S
C624 N623 1.325 . S
C624 C628 1.416 . S
C625 C626 1.430 . S
C625 C627 1.404 1_565 S
C625 C654 1.387 . S
C626 C618 1.448 . S
C626 N623 1.351 1_565 S
C626 C625 1.430 . S
C627 H616 0.930 . S
C627 C625 1.404 1_545 S
C627 C628 1.366 . S
C628 H607 0.930 . S
C628 C624 1.416 . S
C628 C627 1.366 . S
H629 C622 0.929 . S
H630 C653 0.931 . S
H631 C654 0.931 . S
O632 Eu588 2.462 . S
O632 C652 1.252 . S
O633 Eu588 2.373 1_565 S
O633 C644 1.249 . S
O634 Eu599 2.335 . S
O634 C644 1.264 . S
O635 Eu588 2.432 . S
O635 C652 1.268 . S
O636 Eu588 2.291 . S
O636 C651 1.255 . S
O637 Eu599 2.372 1_545 S
O637 C651 1.257 . S
O638 Eu599 2.462 . S
O638 C663 1.252 . S
O639 Eu599 2.373 1_545 S
O639 C655 1.249 . S
O640 Eu588 2.335 . S
O640 C655 1.264 . S
O641 Eu599 2.432 . S
O641 C663 1.268 . S
O642 Eu599 2.291 . S
O642 C662 1.255 . S
O643 Eu588 2.372 1_565 S
O643 C662 1.257 . S
C644 O633 1.249 . S
C644 O634 1.264 . S
C645 C648 1.382 . S
C645 C650 1.390 . S
C645 C652 1.506 . S
C646 C647 1.398 . S
C646 C650 1.392 . S
C647 C646 1.398 . S
C647 C649 1.372 . S
C647 H664 0.931 . S
C648 C645 1.382 . S
C648 C649 1.390 . S
C648 H665 0.931 . S
C649 C647 1.372 . S
C649 C648 1.390 . S
C649 H666 0.929 . S
C650 C645 1.390 . S
C650 C646 1.392 . S
C650 H667 0.930 . S
C651 O636 1.255 . S
C651 O637 1.257 . S
C652 Eu588 2.787 . S
C652 O632 1.252 . S
C652 O635 1.268 . S
C652 C645 1.506 . S
C653 C620 1.439 . S
C653 H630 0.931 . S
C653 C654 1.374 . S
C654 C625 1.387 . S
C654 H631 0.931 . S
C654 C653 1.374 . S
C655 O639 1.249 . S
C655 O640 1.264 . S
C656 C659 1.382 . S
C656 C660 1.390 . S
C656 C663 1.506 . S
C657 C658 1.398 . S
C657 C660 1.392 . S
C658 C657 1.398 . S
C658 C661 1.372 . S
C658 H668 0.931 . S
C659 C656 1.382 . S
C659 C661 1.390 . S
C659 H669 0.931 . S
C660 C656 1.390 . S
C660 C657 1.392 . S
C660 H670 0.930 . S
C661 C658 1.372 . S
C661 C659 1.390 . S
C661 H671 0.929 . S
C662 O642 1.255 . S
C662 O643 1.257 . S
C663 Eu599 2.787 . S
C663 O638 1.252 . S
C663 O641 1.268 . S
C663 C656 1.506 . S
H664 C647 0.931 . S
H665 C648 0.931 . S
H666 C649 0.929 . S
H667 C650 0.930 . S
H668 C658 0.931 . S
H669 C659 0.931 . S
H670 C660 0.930 . S
H671 C661 0.929 . S
Eu672 N701 2.600 . S
Eu672 N707 2.562 . S
Eu672 O716 2.462 . S
Eu672 O717 2.373 . S
Eu672 O719 2.432 . S
Eu672 O720 2.291 . S
Eu672 O724 2.335 . S
Eu672 O727 2.372 . S
Eu672 C736 2.787 . S
C673 N674 1.365 . S
C673 C676 1.405 . S
C673 C680 1.448 . S
N674 C673 1.365 . S
N674 C677 1.319 . S
N674 Eu683 2.600 . S
C675 C677 1.397 . S
C675 C678 1.367 . S
C675 H695 0.931 . S
C676 C673 1.405 . S
C676 C678 1.403 . S
C676 C682 1.439 . S
C677 N674 1.319 . S
C677 C675 1.397 . S
C677 H688 0.930 . S
C678 C675 1.367 . S
C678 C676 1.403 . S
C678 H699 0.929 . S
C679 C680 1.430 . S
C679 C681 1.387 . S
C679 C685 1.404 . S
C680 C673 1.448 . S
C680 C679 1.430 . S
C680 N684 1.351 . S
C681 C679 1.387 . S
C681 C682 1.374 . S
C681 H696 0.931 . S
C682 C676 1.439 . S
C682 C681 1.374 . S
C682 H697 0.931 . S
Eu683 N674 2.600 . S
Eu683 N684 2.562 . S
Eu683 O718 2.335 . S
Eu683 O721 2.372 . S
Eu683 O722 2.462 . S
Eu683 O723 2.373 . S
Eu683 O725 2.432 . S
Eu683 O726 2.291 . S
Eu683 C747 2.787 . S
N684 C680 1.351 . S
N684 Eu683 2.562 . S
N684 C686 1.325 . S
C685 C679 1.404 . S
C685 C687 1.366 . S
C685 H693 0.930 . S
C686 N684 1.325 . S
C686 C687 1.416 . S
C686 H692 0.929 . S
C687 C685 1.366 . S
C687 C686 1.416 . S
C687 H689 0.930 . S
H688 C677 0.930 . S
H689 C687 0.930 . S
H690 C705 0.930 . S
H691 C712 0.930 . S
H692 C686 0.929 . S
H693 C685 0.930 . S
H694 C708 0.929 . S
H695 C675 0.931 . S
H696 C681 0.931 . S
H697 C682 0.931 . S
H698 C703 0.931 . S
H699 C678 0.929 . S
H700 C711 0.930 . S
N701 Eu672 2.600 . S
N701 C702 1.365 . S
N701 C705 1.319 . S
C702 N701 1.365 . S
C702 C704 1.405 . S
C702 C710 1.448 . S
C703 H698 0.931 . S
C703 C705 1.397 . S
C703 C706 1.367 . S
C704 C702 1.405 . S
C704 C706 1.403 . S
C704 C737 1.439 . S
C705 H690 0.930 . S
C705 N701 1.319 . S
C705 C703 1.397 . S
C706 C703 1.367 . S
C706 C704 1.403 . S
C706 H713 0.929 . S
N707 Eu672 2.562 . S
N707 C708 1.325 . S
N707 C710 1.351 . S
C708 H694 0.929 . S
C708 N707 1.325 . S
C708 C712 1.416 . S
C709 C710 1.430 . S
C709 C711 1.404 . S
C709 C738 1.387 . S
C710 C702 1.448 . S
C710 N707 1.351 . S
C710 C709 1.430 . S
C711 H700 0.930 . S
C711 C709 1.404 . S
C711 C712 1.366 . S
C712 H691 0.930 . S
C712 C708 1.416 . S
C712 C711 1.366 . S
H713 C706 0.929 . S
H714 C737 0.931 . S
H715 C738 0.931 . S
O716 Eu672 2.462 . S
O716 C736 1.252 . S
O717 Eu672 2.373 . S
O717 C728 1.249 . S
O718 Eu683 2.335 . S
O718 C728 1.264 . S
O719 Eu672 2.432 . S
O719 C736 1.268 . S
O720 Eu672 2.291 . S
O720 C735 1.255 . S
O721 Eu683 2.372 . S
O721 C735 1.257 . S
O722 Eu683 2.462 . S
O722 C747 1.252 . S
O723 Eu683 2.373 . S
O723 C739 1.249 . S
O724 Eu672 2.335 . S
O724 C739 1.264 . S
O725 Eu683 2.432 . S
O725 C747 1.268 . S
O726 Eu683 2.291 . S
O726 C746 1.255 . S
O727 Eu672 2.372 . S
O727 C746 1.257 . S
C728 O717 1.249 . S
C728 O718 1.264 . S
C729 C732 1.382 . S
C729 C734 1.390 . S
C729 C736 1.506 . S
C730 C731 1.398 . S
C730 C734 1.392 . S
C731 C730 1.398 . S
C731 C733 1.372 . S
C731 H748 0.931 . S
C732 C729 1.382 . S
C732 C733 1.390 . S
C732 H749 0.931 . S
C733 C731 1.372 . S
C733 C732 1.390 . S
C733 H750 0.929 . S
C734 C729 1.390 . S
C734 C730 1.392 . S
C734 H751 0.930 . S
C735 O720 1.255 . S
C735 O721 1.257 . S
C736 Eu672 2.787 . S
C736 O716 1.252 . S
C736 O719 1.268 . S
C736 C729 1.506 . S
C737 C704 1.439 . S
C737 H714 0.931 . S
C737 C738 1.374 . S
C738 C709 1.387 . S
C738 H715 0.931 . S
C738 C737 1.374 . S
C739 O723 1.249 . S
C739 O724 1.264 . S
C740 C743 1.382 . S
C740 C744 1.390 . S
C740 C747 1.506 . S
C741 C742 1.398 . S
C741 C744 1.392 . S
C742 C741 1.398 . S
C742 C745 1.372 . S
C742 H752 0.931 . S
C743 C740 1.382 . S
C743 C745 1.390 . S
C743 H753 0.931 . S
C744 C740 1.390 . S
C744 C741 1.392 . S
C744 H754 0.930 . S
C745 C742 1.372 . S
C745 C743 1.390 . S
C745 H755 0.929 . S
C746 O726 1.255 . S
C746 O727 1.257 . S
C747 Eu683 2.787 . S
C747 O722 1.252 . S
C747 O725 1.268 . S
C747 C740 1.506 . S
H748 C731 0.931 . S
H749 C732 0.931 . S
H750 C733 0.929 . S
H751 C734 0.930 . S
H752 C742 0.931 . S
H753 C743 0.931 . S
H754 C744 0.930 . S
H755 C745 0.929 . S
Eu756 N785 2.600 1_655 S
Eu756 N791 2.562 . S
Eu756 O800 2.462 . S
Eu756 O801 2.373 1_655 S
Eu756 O803 2.432 1_556 S
Eu756 O804 2.291 . S
Eu756 O808 2.335 . S
Eu756 O811 2.372 1_655 S
Eu756 C820 2.787 1_556 S
C757 N758 1.365 . S
C757 C760 1.405 . S
C757 C764 1.448 . S
N758 C757 1.365 . S
N758 C761 1.319 . S
N758 Eu767 2.600 1_655 S
C759 C761 1.397 . S
C759 C762 1.367 . S
C759 H779 0.931 . S
C760 C757 1.405 . S
C760 C762 1.403 . S
C760 C766 1.439 . S
C761 N758 1.319 . S
C761 C759 1.397 . S
C761 H772 0.930 . S
C762 C759 1.367 . S
C762 C760 1.403 . S
C762 H783 0.929 . S
C763 C764 1.430 . S
C763 C765 1.387 . S
C763 C769 1.404 1_655 S
C764 C757 1.448 . S
C764 C763 1.430 . S
C764 N768 1.351 1_655 S
C765 C763 1.387 . S
C765 C766 1.374 . S
C765 H780 0.931 . S
C766 C760 1.439 . S
C766 C765 1.374 . S
C766 H781 0.931 . S
Eu767 N758 2.600 1_455 S
Eu767 N768 2.562 . S
Eu767 O802 2.335 . S
Eu767 O805 2.372 1_455 S
Eu767 O806 2.462 . S
Eu767 O807 2.373 1_455 S
Eu767 O809 2.432 . S
Eu767 O810 2.291 . S
Eu767 C831 2.787 . S
N768 C764 1.351 1_455 S
N768 Eu767 2.562 . S
N768 C770 1.325 . S
C769 C763 1.404 1_455 S
C769 C771 1.366 . S
C769 H777 0.930 . S
C770 N768 1.325 . S
C770 C771 1.416 . S
C770 H776 0.929 . S
C771 C769 1.366 . S
C771 C770 1.416 . S
C771 H773 0.930 . S
H772 C761 0.930 . S
H773 C771 0.930 . S
H774 C789 0.930 . S
H775 C796 0.930 . S
H776 C770 0.929 . S
H777 C769 0.930 . S
H778 C792 0.929 . S
H779 C759 0.931 . S
H780 C765 0.931 . S
H781 C766 0.931 . S
H782 C787 0.931 . S
H783 C762 0.929 . S
H784 C795 0.930 . S
N785 Eu756 2.600 1_455 S
N785 C786 1.365 . S
N785 C789 1.319 1_556 S
C786 N785 1.365 . S
C786 C788 1.405 . S
C786 C794 1.448 . S
C787 H782 0.931 . S
C787 C789 1.397 . S
C787 C790 1.369 . S
C788 C786 1.405 . S
C788 C790 1.400 1_556 S
C788 C821 1.439 . S
C789 H774 0.930 . S
C789 N785 1.319 1_554 S
C789 C787 1.397 . S
C790 C787 1.369 . S
C790 C788 1.400 1_554 S
C790 H797 0.931 . S
N791 Eu756 2.562 . S
N791 C792 1.325 . S
N791 C794 1.351 1_655 S
C792 H778 0.929 . S
C792 N791 1.325 . S
C792 C796 1.416 . S
C793 C794 1.430 . S
C793 C795 1.404 1_455 S
C793 C822 1.387 . S
C794 C786 1.448 . S
C794 N791 1.351 1_455 S
C794 C793 1.430 . S
C795 H784 0.930 . S
C795 C793 1.404 1_655 S
C795 C796 1.366 . S
C796 H775 0.930 . S
C796 C792 1.416 . S
C796 C795 1.366 . S
H797 C790 0.931 . S
H798 C821 0.931 . S
H799 C822 0.931 . S
O800 Eu756 2.462 . S
O800 C820 1.252 1_556 S
O801 Eu756 2.373 1_455 S
O801 C812 1.249 . S
O802 Eu767 2.335 . S
O802 C812 1.264 . S
O803 Eu756 2.432 1_554 S
O803 C820 1.268 . S
O804 Eu756 2.291 . S
O804 C819 1.255 . S
O805 Eu767 2.372 1_655 S
O805 C819 1.257 . S
O806 Eu767 2.462 . S
O806 C831 1.252 . S
O807 Eu767 2.373 1_655 S
O807 C823 1.249 . S
O808 Eu756 2.335 . S
O808 C823 1.264 . S
O809 Eu767 2.432 . S
O809 C831 1.268 . S
O810 Eu767 2.291 . S
O810 C830 1.255 . S
O811 Eu756 2.372 1_455 S
O811 C830 1.257 . S
C812 O801 1.249 . S
C812 O802 1.264 . S
C813 C816 1.382 . S
C813 C818 1.390 . S
C813 C820 1.506 . S
C814 C815 1.398 . S
C814 C818 1.392 . S
C815 C814 1.398 . S
C815 C817 1.372 . S
C815 H832 0.931 . S
C816 C813 1.382 . S
C816 C817 1.390 . S
C816 H833 0.931 . S
C817 C815 1.372 . S
C817 C816 1.390 . S
C817 H834 0.929 . S
C818 C813 1.390 . S
C818 C814 1.392 . S
C818 H835 0.930 . S
C819 O804 1.255 . S
C819 O805 1.257 . S
C820 Eu756 2.787 1_554 S
C820 O800 1.252 1_554 S
C820 O803 1.268 . S
C820 C813 1.506 . S
C821 C788 1.439 . S
C821 H798 0.931 . S
C821 C822 1.374 . S
C822 C793 1.387 . S
C822 H799 0.931 . S
C822 C821 1.374 . S
C823 O807 1.249 . S
C823 O808 1.264 . S
C824 C827 1.382 . S
C824 C828 1.390 . S
C824 C831 1.506 . S
C825 C826 1.398 . S
C825 C828 1.392 . S
C826 C825 1.398 . S
C826 C829 1.372 . S
C826 H836 0.931 . S
C827 C824 1.382 . S
C827 C829 1.390 . S
C827 H837 0.931 . S
C828 C824 1.390 . S
C828 C825 1.392 . S
C828 H838 0.930 . S
C829 C826 1.372 . S
C829 C827 1.390 . S
C829 H839 0.929 . S
C830 O810 1.255 . S
C830 O811 1.257 . S
C831 Eu767 2.787 . S
C831 O806 1.252 . S
C831 O809 1.268 . S
C831 C824 1.506 . S
H832 C815 0.931 . S
H833 C816 0.931 . S
H834 C817 0.929 . S
H835 C818 0.930 . S
H836 C826 0.931 . S
H837 C827 0.931 . S
H838 C828 0.930 . S
H839 C829 0.929 . S
Eu840 N869 2.600 1_565 S
Eu840 N875 2.562 . S
Eu840 O884 2.462 . S
Eu840 O885 2.373 1_565 S
Eu840 O887 2.432 . S
Eu840 O888 2.291 . S
Eu840 O892 2.335 . S
Eu840 O895 2.372 1_565 S
Eu840 C904 2.787 . S
C841 N842 1.365 . S
C841 C844 1.405 . S
C841 C848 1.448 . S
N842 C841 1.365 . S
N842 C845 1.319 . S
N842 Eu851 2.600 1_565 S
C843 C845 1.397 . S
C843 C846 1.367 . S
C843 H863 0.931 . S
C844 C841 1.405 . S
C844 C846 1.403 . S
C844 C850 1.439 . S
C845 N842 1.319 . S
C845 C843 1.397 . S
C845 H856 0.930 . S
C846 C843 1.367 . S
C846 C844 1.403 . S
C846 H867 0.929 . S
C847 C848 1.430 . S
C847 C849 1.387 . S
C847 C853 1.404 1_565 S
C848 C841 1.448 . S
C848 C847 1.430 . S
C848 N852 1.351 1_565 S
C849 C847 1.387 . S
C849 C850 1.374 . S
C849 H864 0.931 . S
C850 C844 1.439 . S
C850 C849 1.374 . S
C850 H865 0.931 . S
Eu851 N842 2.600 1_545 S
Eu851 N852 2.562 . S
Eu851 O886 2.335 . S
Eu851 O889 2.372 1_545 S
Eu851 O890 2.462 . S
Eu851 O891 2.373 1_545 S
Eu851 O893 2.432 . S
Eu851 O894 2.291 . S
Eu851 C915 2.787 . S
N852 C848 1.351 1_545 S
N852 Eu851 2.562 . S
N852 C854 1.325 . S
C853 C847 1.404 1_545 S
C853 C855 1.366 . S
C853 H861 0.930 . S
C854 N852 1.325 . S
C854 C855 1.416 . S
C854 H860 0.929 . S
C855 C853 1.366 . S
C855 C854 1.416 . S
C855 H857 0.930 . S
H856 C845 0.930 . S
H857 C855 0.930 . S
H858 C873 0.930 . S
H859 C880 0.930 . S
H860 C854 0.929 . S
H861 C853 0.930 . S
H862 C876 0.929 . S
H863 C843 0.931 . S
H864 C849 0.931 . S
H865 C850 0.931 . S
H866 C871 0.931 . S
H867 C846 0.929 . S
H868 C879 0.930 . S
N869 Eu840 2.600 1_545 S
N869 C870 1.365 . S
N869 C873 1.319 . S
C870 N869 1.365 . S
C870 C872 1.405 . S
C870 C878 1.448 . S
C871 H866 0.931 . S
C871 C873 1.397 . S
C871 C874 1.367 . S
C872 C870 1.405 . S
C872 C874 1.403 . S
C872 C905 1.439 . S
C873 H858 0.930 . S
C873 N869 1.319 . S
C873 C871 1.397 . S
C874 C871 1.367 . S
C874 C872 1.403 . S
C874 H881 0.929 . S
N875 Eu840 2.562 . S
N875 C876 1.325 . S
N875 C878 1.351 1_565 S
C876 H862 0.929 . S
C876 N875 1.325 . S
C876 C880 1.416 . S
C877 C878 1.430 . S
C877 C879 1.404 1_545 S
C877 C906 1.387 . S
C878 C870 1.448 . S
C878 N875 1.351 1_545 S
C878 C877 1.430 . S
C879 H868 0.930 . S
C879 C877 1.404 1_565 S
C879 C880 1.366 . S
C880 H859 0.930 . S
C880 C876 1.416 . S
C880 C879 1.366 . S
H881 C874 0.929 . S
H882 C905 0.931 . S
H883 C906 0.931 . S
O884 Eu840 2.462 . S
O884 C904 1.252 . S
O885 Eu840 2.373 1_545 S
O885 C896 1.249 . S
O886 Eu851 2.335 . S
O886 C896 1.264 . S
O887 Eu840 2.432 . S
O887 C904 1.268 . S
O888 Eu840 2.291 . S
O888 C903 1.255 . S
O889 Eu851 2.372 1_565 S
O889 C903 1.257 . S
O890 Eu851 2.462 . S
O890 C915 1.252 . S
O891 Eu851 2.373 1_565 S
O891 C907 1.249 . S
O892 Eu840 2.335 . S
O892 C907 1.264 . S
O893 Eu851 2.432 . S
O893 C915 1.268 . S
O894 Eu851 2.291 . S
O894 C914 1.255 . S
O895 Eu840 2.372 1_545 S
O895 C914 1.257 . S
C896 O885 1.249 . S
C896 O886 1.264 . S
C897 C900 1.382 . S
C897 C902 1.390 . S
C897 C904 1.506 . S
C898 C899 1.398 . S
C898 C902 1.392 . S
C899 C898 1.398 . S
C899 C901 1.372 . S
C899 H916 0.931 . S
C900 C897 1.382 . S
C900 C901 1.390 . S
C900 H917 0.931 . S
C901 C899 1.372 . S
C901 C900 1.390 . S
C901 H918 0.929 . S
C902 C897 1.390 . S
C902 C898 1.392 . S
C902 H919 0.930 . S
C903 O888 1.255 . S
C903 O889 1.257 . S
C904 Eu840 2.787 . S
C904 O884 1.252 . S
C904 O887 1.268 . S
C904 C897 1.506 . S
C905 C872 1.439 . S
C905 H882 0.931 . S
C905 C906 1.374 . S
C906 C877 1.387 . S
C906 H883 0.931 . S
C906 C905 1.374 . S
C907 O891 1.249 . S
C907 O892 1.264 . S
C908 C911 1.382 . S
C908 C912 1.390 . S
C908 C915 1.506 . S
C909 C910 1.398 . S
C909 C912 1.392 . S
C910 C909 1.398 . S
C910 C913 1.372 . S
C910 H920 0.931 . S
C911 C908 1.382 . S
C911 C913 1.390 . S
C911 H921 0.931 . S
C912 C908 1.390 . S
C912 C909 1.392 . S
C912 H922 0.930 . S
C913 C910 1.372 . S
C913 C911 1.390 . S
C913 H923 0.929 . S
C914 O894 1.255 . S
C914 O895 1.257 . S
C915 Eu851 2.787 . S
C915 O890 1.252 . S
C915 O893 1.268 . S
C915 C908 1.506 . S
H916 C899 0.931 . S
H917 C900 0.931 . S
H918 C901 0.929 . S
H919 C902 0.930 . S
H920 C910 0.931 . S
H921 C911 0.931 . S
H922 C912 0.930 . S
H923 C913 0.929 . S
Eu924 N953 2.600 . S
Eu924 N959 2.562 . S
Eu924 O968 2.462 . S
Eu924 O969 2.373 . S
Eu924 O971 2.432 . S
Eu924 O972 2.291 . S
Eu924 O976 2.335 . S
Eu924 O979 2.372 . S
Eu924 C988 2.787 . S
C925 N926 1.365 . S
C925 C928 1.405 . S
C925 C932 1.448 . S
N926 C925 1.365 . S
N926 C929 1.319 . S
N926 Eu935 2.600 . S
C927 C929 1.397 . S
C927 C930 1.367 . S
C927 H947 0.931 . S
C928 C925 1.405 . S
C928 C930 1.403 . S
C928 C934 1.439 . S
C929 N926 1.319 . S
C929 C927 1.397 . S
C929 H940 0.930 . S
C930 C927 1.367 . S
C930 C928 1.403 . S
C930 H951 0.929 . S
C931 C932 1.430 . S
C931 C933 1.387 . S
C931 C937 1.404 . S
C932 C925 1.448 . S
C932 C931 1.430 . S
C932 N936 1.351 . S
C933 C931 1.387 . S
C933 C934 1.374 . S
C933 H948 0.931 . S
C934 C928 1.439 . S
C934 C933 1.374 . S
C934 H949 0.931 . S
Eu935 N926 2.600 . S
Eu935 N936 2.562 . S
Eu935 O970 2.335 . S
Eu935 O973 2.372 . S
Eu935 O974 2.462 . S
Eu935 O975 2.373 . S
Eu935 O977 2.432 . S
Eu935 O978 2.291 . S
Eu935 C999 2.787 . S
N936 C932 1.351 . S
N936 Eu935 2.562 . S
N936 C938 1.325 . S
C937 C931 1.404 . S
C937 C939 1.366 . S
C937 H945 0.930 . S
C938 N936 1.325 . S
C938 C939 1.416 . S
C938 H944 0.929 . S
C939 C937 1.366 . S
C939 C938 1.416 . S
C939 H941 0.930 . S
H940 C929 0.930 . S
H941 C939 0.930 . S
H942 C957 0.930 . S
H943 C964 0.930 . S
H944 C938 0.929 . S
H945 C937 0.930 . S
H946 C960 0.929 . S
H947 C927 0.931 . S
H948 C933 0.931 . S
H949 C934 0.931 . S
H950 C955 0.931 . S
H951 C930 0.929 . S
H952 C963 0.930 . S
N953 Eu924 2.600 . S
N953 C954 1.365 . S
N953 C957 1.319 . S
C954 N953 1.365 . S
C954 C956 1.405 . S
C954 C962 1.448 . S
C955 H950 0.931 . S
C955 C957 1.397 . S
C955 C958 1.367 . S
C956 C954 1.405 . S
C956 C958 1.403 . S
C956 C989 1.439 . S
C957 H942 0.930 . S
C957 N953 1.319 . S
C957 C955 1.397 . S
C958 C955 1.367 . S
C958 C956 1.403 . S
C958 H965 0.929 . S
N959 Eu924 2.562 . S
N959 C960 1.325 . S
N959 C962 1.351 . S
C960 H946 0.929 . S
C960 N959 1.325 . S
C960 C964 1.416 . S
C961 C962 1.430 . S
C961 C963 1.404 . S
C961 C990 1.387 . S
C962 C954 1.448 . S
C962 N959 1.351 . S
C962 C961 1.430 . S
C963 H952 0.930 . S
C963 C961 1.404 . S
C963 C964 1.366 . S
C964 H943 0.930 . S
C964 C960 1.416 . S
C964 C963 1.366 . S
H965 C958 0.929 . S
H966 C989 0.931 . S
H967 C990 0.931 . S
O968 Eu924 2.462 . S
O968 C988 1.252 . S
O969 Eu924 2.373 . S
O969 C980 1.249 . S
O970 Eu935 2.335 . S
O970 C980 1.264 . S
O971 Eu924 2.432 . S
O971 C988 1.268 . S
O972 Eu924 2.291 . S
O972 C987 1.255 . S
O973 Eu935 2.372 . S
O973 C987 1.257 . S
O974 Eu935 2.462 . S
O974 C999 1.252 . S
O975 Eu935 2.373 . S
O975 C991 1.249 . S
O976 Eu924 2.335 . S
O976 C991 1.264 . S
O977 Eu935 2.432 . S
O977 C999 1.268 . S
O978 Eu935 2.291 . S
O978 C998 1.255 . S
O979 Eu924 2.372 . S
O979 C998 1.257 . S
C980 O969 1.249 . S
C980 O970 1.264 . S
C981 C984 1.382 . S
C981 C986 1.390 . S
C981 C988 1.506 . S
C982 C983 1.398 . S
C982 C986 1.392 . S
C983 C982 1.398 . S
C983 C985 1.372 . S
C983 H1000 0.931 . S
C984 C981 1.382 . S
C984 C985 1.390 . S
C984 H1001 0.931 . S
C985 C983 1.372 . S
C985 C984 1.390 . S
C985 H1002 0.929 . S
C986 C981 1.390 . S
C986 C982 1.392 . S
C986 H1003 0.930 . S
C987 O972 1.255 . S
C987 O973 1.257 . S
C988 Eu924 2.787 . S
C988 O968 1.252 . S
C988 O971 1.268 . S
C988 C981 1.506 . S
C989 C956 1.439 . S
C989 H966 0.931 . S
C989 C990 1.374 . S
C990 C961 1.387 . S
C990 H967 0.931 . S
C990 C989 1.374 . S
C991 O975 1.249 . S
C991 O976 1.264 . S
C992 C995 1.382 . S
C992 C996 1.390 . S
C992 C999 1.506 . S
C993 C994 1.398 . S
C993 C996 1.392 . S
C994 C993 1.398 . S
C994 C997 1.372 . S
C994 H1004 0.931 . S
C995 C992 1.382 . S
C995 C997 1.390 . S
C995 H1005 0.931 . S
C996 C992 1.390 . S
C996 C993 1.392 . S
C996 H1006 0.930 . S
C997 C994 1.372 . S
C997 C995 1.390 . S
C997 H1007 0.929 . S
C998 O978 1.255 . S
C998 O979 1.257 . S
C999 Eu935 2.787 . S
C999 O974 1.252 . S
C999 O977 1.268 . S
C999 C992 1.506 . S
H1000 C983 0.931 . S
H1001 C984 0.931 . S
H1002 C985 0.929 . S
H1003 C986 0.930 . S
H1004 C994 0.931 . S
H1005 C995 0.931 . S
H1006 C996 0.930 . S
H1007 C997 0.929 . S
H1008 C1014 0.930 . S
H1009 C1018 0.930 . S
H1010 C1023 0.929 . S
H1011 C1021 0.929 . S
H1012 C1016 0.929 . S
H1013 C1022 0.929 . S
C1014 H1008 0.930 . S
C1014 C1015 1.367 . S
C1014 C1022 1.378 . S
C1015 C1014 1.367 . S
C1015 C1023 1.433 . S
C1016 H1012 0.929 . S
C1016 C1018 1.378 . S
C1016 C1020 1.350 . S
C1017 C1020 1.463 . S
C1017 C1022 1.350 . S
C1017 N1025 1.427 . S
C1018 H1009 0.930 . S
C1018 C1016 1.378 . S
C1018 C1019 1.367 . S
C1019 C1018 1.367 . S
C1019 C1021 1.433 . S
C1020 C1016 1.350 . S
C1020 C1017 1.463 . S
C1020 N1024 1.427 . S
C1021 H1011 0.929 . S
C1021 C1019 1.433 . S
C1021 N1024 1.384 . S
C1022 H1013 0.929 . S
C1022 C1014 1.378 . S
C1022 C1017 1.350 . S
C1023 H1010 0.929 . S
C1023 C1015 1.433 . S
C1023 N1025 1.384 . S
N1024 C1020 1.427 . S
N1024 C1021 1.384 . S
N1025 C1017 1.427 . S
N1025 C1023 1.384 . S
H1026 C1032 0.930 . S
H1027 C1036 0.930 . S
H1028 C1041 0.929 . S
H1029 C1039 0.929 . S
H1030 C1034 0.929 . S
H1031 C1040 0.929 . S
C1032 H1026 0.930 . S
C1032 C1033 1.367 . S
C1032 C1040 1.378 . S
C1033 C1032 1.367 . S
C1033 C1041 1.433 . S
C1034 H1030 0.929 . S
C1034 C1036 1.378 . S
C1034 C1038 1.350 . S
C1035 C1038 1.463 . S
C1035 C1040 1.350 . S
C1035 N1043 1.427 . S
C1036 H1027 0.930 . S
C1036 C1034 1.378 . S
C1036 C1037 1.367 . S
C1037 C1036 1.367 . S
C1037 C1039 1.433 . S
C1038 C1034 1.350 . S
C1038 C1035 1.463 . S
C1038 N1042 1.427 . S
C1039 H1029 0.929 . S
C1039 C1037 1.433 . S
C1039 N1042 1.384 . S
C1040 H1031 0.929 . S
C1040 C1032 1.378 . S
C1040 C1035 1.350 . S
C1041 H1028 0.929 . S
C1041 C1033 1.433 . S
C1041 N1043 1.384 . S
N1042 C1038 1.427 . S
N1042 C1039 1.384 . S
N1043 C1035 1.427 . S
N1043 C1041 1.384 . S
H1044 C1050 0.930 . S
H1045 C1054 0.930 . S
H1046 C1059 0.929 . S
H1047 C1057 0.929 . S
H1048 C1052 0.929 . S
H1049 C1058 0.929 . S
C1050 H1044 0.930 . S
C1050 C1051 1.367 . S
C1050 C1058 1.378 . S
C1051 C1050 1.367 . S
C1051 C1059 1.433 . S
C1052 H1048 0.929 . S
C1052 C1054 1.378 . S
C1052 C1056 1.350 . S
C1053 C1056 1.463 . S
C1053 C1058 1.350 . S
C1053 N1061 1.427 . S
C1054 H1045 0.930 . S
C1054 C1052 1.378 . S
C1054 C1055 1.367 . S
C1055 C1054 1.367 . S
C1055 C1057 1.433 . S
C1056 C1052 1.350 . S
C1056 C1053 1.463 . S
C1056 N1060 1.427 . S
C1057 H1047 0.929 . S
C1057 C1055 1.433 . S
C1057 N1060 1.384 . S
C1058 H1049 0.929 . S
C1058 C1050 1.378 . S
C1058 C1053 1.350 . S
C1059 H1046 0.929 . S
C1059 C1051 1.433 . S
C1059 N1061 1.384 . S
N1060 C1056 1.427 . S
N1060 C1057 1.384 . S
N1061 C1053 1.427 . S
N1061 C1059 1.384 . S
H1062 C1068 0.930 . S
H1063 C1072 0.930 . S
H1064 C1077 0.929 . S
H1065 C1075 0.929 . S
H1066 C1070 0.929 . S
H1067 C1076 0.929 . S
C1068 H1062 0.930 . S
C1068 C1069 1.367 . S
C1068 C1076 1.378 . S
C1069 C1068 1.367 . S
C1069 C1077 1.433 . S
C1070 H1066 0.929 . S
C1070 C1072 1.378 . S
C1070 C1074 1.350 . S
C1071 C1074 1.463 . S
C1071 C1076 1.350 . S
C1071 N1079 1.427 . S
C1072 H1063 0.930 . S
C1072 C1070 1.378 . S
C1072 C1073 1.367 . S
C1073 C1072 1.367 . S
C1073 C1075 1.433 . S
C1074 C1070 1.350 . S
C1074 C1071 1.463 . S
C1074 N1078 1.427 . S
C1075 H1065 0.929 . S
C1075 C1073 1.433 . S
C1075 N1078 1.384 . S
C1076 H1067 0.929 . S
C1076 C1068 1.378 . S
C1076 C1071 1.350 . S
C1077 H1064 0.929 . S
C1077 C1069 1.433 . S
C1077 N1079 1.384 . S
N1078 C1074 1.427 . S
N1078 C1075 1.384 . S
N1079 C1071 1.427 . S
N1079 C1077 1.384 . S
H1080 C1086 0.930 . S
H1081 C1090 0.930 . S
H1082 C1095 0.929 . S
H1083 C1093 0.929 . S
H1084 C1088 0.929 . S
H1085 C1094 0.929 . S
C1086 H1080 0.930 . S
C1086 C1087 1.367 . S
C1086 C1094 1.378 . S
C1087 C1086 1.367 . S
C1087 C1095 1.433 . S
C1088 H1084 0.929 . S
C1088 C1090 1.378 . S
C1088 C1092 1.350 . S
C1089 C1092 1.463 . S
C1089 C1094 1.350 . S
C1089 N1097 1.427 . S
C1090 H1081 0.930 . S
C1090 C1088 1.378 . S
C1090 C1091 1.367 . S
C1091 C1090 1.367 . S
C1091 C1093 1.433 . S
C1092 C1088 1.350 . S
C1092 C1089 1.463 . S
C1092 N1096 1.427 . S
C1093 H1083 0.929 . S
C1093 C1091 1.433 . S
C1093 N1096 1.384 . S
C1094 H1085 0.929 . S
C1094 C1086 1.378 . S
C1094 C1089 1.350 . S
C1095 H1082 0.929 . S
C1095 C1087 1.433 . S
C1095 N1097 1.384 . S
N1096 C1092 1.427 . S
N1096 C1093 1.384 . S
N1097 C1089 1.427 . S
N1097 C1095 1.384 . S
H1098 C1104 0.930 . S
H1099 C1108 0.930 . S
H1100 C1113 0.929 . S
H1101 C1111 0.929 . S
H1102 C1106 0.929 . S
H1103 C1112 0.929 . S
C1104 H1098 0.930 . S
C1104 C1105 1.367 . S
C1104 C1112 1.378 . S
C1105 C1104 1.367 . S
C1105 C1113 1.433 . S
C1106 H1102 0.929 . S
C1106 C1108 1.378 . S
C1106 C1110 1.350 . S
C1107 C1110 1.463 . S
C1107 C1112 1.350 . S
C1107 N1115 1.427 . S
C1108 H1099 0.930 . S
C1108 C1106 1.378 . S
C1108 C1109 1.367 . S
C1109 C1108 1.367 . S
C1109 C1111 1.433 . S
C1110 C1106 1.350 . S
C1110 C1107 1.463 . S
C1110 N1114 1.427 . S
C1111 H1101 0.929 . S
C1111 C1109 1.433 . S
C1111 N1114 1.384 . S
C1112 H1103 0.929 . S
C1112 C1104 1.378 . S
C1112 C1107 1.350 . S
C1113 H1100 0.929 . S
C1113 C1105 1.433 . S
C1113 N1115 1.384 . S
N1114 C1110 1.427 . S
N1114 C1111 1.384 . S
N1115 C1107 1.427 . S
N1115 C1113 1.384 . S
H1116 C1122 0.930 . S
H1117 C1126 0.930 . S
H1118 C1131 0.929 . S
H1119 C1129 0.929 . S
H1120 C1124 0.929 . S
H1121 C1130 0.929 . S
C1122 H1116 0.930 . S
C1122 C1123 1.367 . S
C1122 C1130 1.378 . S
C1123 C1122 1.367 . S
C1123 C1131 1.433 . S
C1124 H1120 0.929 . S
C1124 C1126 1.378 . S
C1124 C1128 1.350 . S
C1125 C1128 1.463 . S
C1125 C1130 1.350 . S
C1125 N1133 1.427 . S
C1126 H1117 0.930 . S
C1126 C1124 1.378 . S
C1126 C1127 1.367 . S
C1127 C1126 1.367 . S
C1127 C1129 1.433 . S
C1128 C1124 1.350 . S
C1128 C1125 1.463 . S
C1128 N1132 1.427 . S
C1129 H1119 0.929 . S
C1129 C1127 1.433 . S
C1129 N1132 1.384 . S
C1130 H1121 0.929 . S
C1130 C1122 1.378 . S
C1130 C1125 1.350 . S
C1131 H1118 0.929 . S
C1131 C1123 1.433 . S
C1131 N1133 1.384 . S
N1132 C1128 1.427 . S
N1132 C1129 1.384 . S
N1133 C1125 1.427 . S
N1133 C1131 1.384 . S
H1134 C1140 0.930 . S
H1135 C1144 0.930 . S
H1136 C1149 0.929 . S
H1137 C1147 0.929 . S
H1138 C1142 0.929 . S
H1139 C1148 0.929 . S
C1140 H1134 0.930 . S
C1140 C1141 1.367 . S
C1140 C1148 1.378 . S
C1141 C1140 1.367 . S
C1141 C1149 1.433 . S
C1142 H1138 0.929 . S
C1142 C1144 1.378 . S
C1142 C1146 1.350 . S
C1143 C1146 1.463 . S
C1143 C1148 1.350 . S
C1143 N1151 1.427 . S
C1144 H1135 0.930 . S
C1144 C1142 1.378 . S
C1144 C1145 1.367 . S
C1145 C1144 1.367 . S
C1145 C1147 1.433 . S
C1146 C1142 1.350 . S
C1146 C1143 1.463 . S
C1146 N1150 1.427 . S
C1147 H1137 0.929 . S
C1147 C1145 1.433 . S
C1147 N1150 1.384 . S
C1148 H1139 0.929 . S
C1148 C1140 1.378 . S
C1148 C1143 1.350 . S
C1149 H1136 0.929 . S
C1149 C1141 1.433 . S
C1149 N1151 1.384 . S
N1150 C1146 1.427 . S
N1150 C1147 1.384 . S
N1151 C1143 1.427 . S
N1151 C1149 1.384 . S
H1152 C1158 0.930 . S
H1153 C1162 0.930 . S
H1154 C1167 0.929 . S
H1155 C1165 0.929 . S
H1156 C1160 0.929 . S
H1157 C1166 0.929 . S
C1158 H1152 0.930 . S
C1158 C1159 1.367 . S
C1158 C1166 1.378 . S
C1159 C1158 1.367 . S
C1159 C1167 1.433 . S
C1160 H1156 0.929 . S
C1160 C1162 1.378 . S
C1160 C1164 1.350 . S
C1161 C1164 1.463 . S
C1161 C1166 1.350 . S
C1161 N1169 1.427 . S
C1162 H1153 0.930 . S
C1162 C1160 1.378 . S
C1162 C1163 1.367 . S
C1163 C1162 1.367 . S
C1163 C1165 1.433 . S
C1164 C1160 1.350 . S
C1164 C1161 1.463 . S
C1164 N1168 1.427 . S
C1165 H1155 0.929 . S
C1165 C1163 1.433 . S
C1165 N1168 1.384 . S
C1166 H1157 0.929 . S
C1166 C1158 1.378 . S
C1166 C1161 1.350 . S
C1167 H1154 0.929 . S
C1167 C1159 1.433 . S
C1167 N1169 1.384 . S
N1168 C1164 1.427 . S
N1168 C1165 1.384 . S
N1169 C1161 1.427 . S
N1169 C1167 1.384 . S
H1170 C1176 0.930 . S
H1171 C1180 0.930 . S
H1172 C1185 0.929 . S
H1173 C1183 0.929 . S
H1174 C1178 0.929 . S
H1175 C1184 0.929 . S
C1176 H1170 0.930 . S
C1176 C1177 1.367 . S
C1176 C1184 1.378 . S
C1177 C1176 1.367 . S
C1177 C1185 1.433 . S
C1178 H1174 0.929 . S
C1178 C1180 1.378 . S
C1178 C1182 1.350 . S
C1179 C1182 1.463 . S
C1179 C1184 1.350 . S
C1179 N1187 1.427 . S
C1180 H1171 0.930 . S
C1180 C1178 1.378 . S
C1180 C1181 1.367 . S
C1181 C1180 1.367 . S
C1181 C1183 1.433 . S
C1182 C1178 1.350 . S
C1182 C1179 1.463 . S
C1182 N1186 1.427 . S
C1183 H1173 0.929 . S
C1183 C1181 1.433 . S
C1183 N1186 1.384 . S
C1184 H1175 0.929 . S
C1184 C1176 1.378 . S
C1184 C1179 1.350 . S
C1185 H1172 0.929 . S
C1185 C1177 1.433 . S
C1185 N1187 1.384 . S
N1186 C1182 1.427 . S
N1186 C1183 1.384 . S
N1187 C1179 1.427 . S
N1187 C1185 1.384 . S
H1188 C1194 0.930 . S
H1189 C1198 0.930 . S
H1190 C1203 0.929 . S
H1191 C1201 0.929 . S
H1192 C1196 0.929 . S
H1193 C1202 0.929 . S
C1194 H1188 0.930 . S
C1194 C1195 1.367 . S
C1194 C1202 1.378 . S
C1195 C1194 1.367 . S
C1195 C1203 1.433 . S
C1196 H1192 0.929 . S
C1196 C1198 1.378 . S
C1196 C1200 1.350 . S
C1197 C1200 1.463 . S
C1197 C1202 1.350 . S
C1197 N1205 1.427 . S
C1198 H1189 0.930 . S
C1198 C1196 1.378 . S
C1198 C1199 1.367 . S
C1199 C1198 1.367 . S
C1199 C1201 1.433 . S
C1200 C1196 1.350 . S
C1200 C1197 1.463 . S
C1200 N1204 1.427 . S
C1201 H1191 0.929 . S
C1201 C1199 1.433 . S
C1201 N1204 1.384 . S
C1202 H1193 0.929 . S
C1202 C1194 1.378 . S
C1202 C1197 1.350 . S
C1203 H1190 0.929 . S
C1203 C1195 1.433 . S
C1203 N1205 1.384 . S
N1204 C1200 1.427 . S
N1204 C1201 1.384 . S
N1205 C1197 1.427 . S
N1205 C1203 1.384 . S
H1206 C1212 0.930 . S
H1207 C1216 0.930 . S
H1208 C1221 0.929 . S
H1209 C1219 0.929 . S
H1210 C1214 0.929 . S
H1211 C1220 0.929 . S
C1212 H1206 0.930 . S
C1212 C1213 1.367 . S
C1212 C1220 1.378 . S
C1213 C1212 1.367 . S
C1213 C1221 1.433 . S
C1214 H1210 0.929 . S
C1214 C1216 1.378 . S
C1214 C1218 1.350 . S
C1215 C1218 1.463 . S
C1215 C1220 1.350 . S
C1215 N1223 1.427 . S
C1216 H1207 0.930 . S
C1216 C1214 1.378 . S
C1216 C1217 1.367 . S
C1217 C1216 1.367 . S
C1217 C1219 1.433 . S
C1218 C1214 1.350 . S
C1218 C1215 1.463 . S
C1218 N1222 1.427 . S
C1219 H1209 0.929 . S
C1219 C1217 1.433 . S
C1219 N1222 1.384 . S
C1220 H1211 0.929 . S
C1220 C1212 1.378 . S
C1220 C1215 1.350 . S
C1221 H1208 0.929 . S
C1221 C1213 1.433 . S
C1221 N1223 1.384 . S
N1222 C1218 1.427 . S
N1222 C1219 1.384 . S
N1223 C1215 1.427 . S
N1223 C1221 1.384 . S
H1224 C1230 0.930 . S
H1225 C1234 0.930 . S
H1226 C1239 0.929 . S
H1227 C1237 0.929 . S
H1228 C1232 0.929 . S
H1229 C1238 0.929 . S
C1230 H1224 0.930 . S
C1230 C1231 1.367 . S
C1230 C1238 1.378 . S
C1231 C1230 1.367 . S
C1231 C1239 1.433 . S
C1232 H1228 0.929 . S
C1232 C1234 1.378 . S
C1232 C1236 1.350 . S
C1233 C1236 1.463 . S
C1233 C1238 1.350 . S
C1233 N1241 1.427 . S
C1234 H1225 0.930 . S
C1234 C1232 1.378 . S
C1234 C1235 1.367 . S
C1235 C1234 1.367 . S
C1235 C1237 1.433 . S
C1236 C1232 1.350 . S
C1236 C1233 1.463 . S
C1236 N1240 1.427 . S
C1237 H1227 0.929 . S
C1237 C1235 1.433 . S
C1237 N1240 1.384 . S
C1238 H1229 0.929 . S
C1238 C1230 1.378 . S
C1238 C1233 1.350 . S
C1239 H1226 0.929 . S
C1239 C1231 1.433 . S
C1239 N1241 1.384 . S
N1240 C1236 1.427 . S
N1240 C1237 1.384 . S
N1241 C1233 1.427 . S
N1241 C1239 1.384 . S
H1242 C1248 0.930 . S
H1243 C1252 0.930 . S
H1244 C1257 0.929 . S
H1245 C1255 0.929 . S
H1246 C1250 0.929 . S
H1247 C1256 0.929 . S
C1248 H1242 0.930 . S
C1248 C1249 1.367 . S
C1248 C1256 1.378 . S
C1249 C1248 1.367 . S
C1249 C1257 1.433 . S
C1250 H1246 0.929 . S
C1250 C1252 1.378 . S
C1250 C1254 1.350 . S
C1251 C1254 1.463 . S
C1251 C1256 1.350 . S
C1251 N1259 1.427 . S
C1252 H1243 0.930 . S
C1252 C1250 1.378 . S
C1252 C1253 1.367 . S
C1253 C1252 1.367 . S
C1253 C1255 1.433 . S
C1254 C1250 1.350 . S
C1254 C1251 1.463 . S
C1254 N1258 1.427 . S
C1255 H1245 0.929 . S
C1255 C1253 1.433 . S
C1255 N1258 1.384 . S
C1256 H1247 0.929 . S
C1256 C1248 1.378 . S
C1256 C1251 1.350 . S
C1257 H1244 0.929 . S
C1257 C1249 1.433 . S
C1257 N1259 1.384 . S
N1258 C1254 1.427 . S
N1258 C1255 1.384 . S
N1259 C1251 1.427 . S
N1259 C1257 1.384 . S
H1260 C1266 0.930 . S
H1261 C1270 0.930 . S
H1262 C1275 0.929 . S
H1263 C1273 0.929 . S
H1264 C1268 0.929 . S
H1265 C1274 0.929 . S
C1266 H1260 0.930 . S
C1266 C1267 1.367 . S
C1266 C1274 1.378 . S
C1267 C1266 1.367 . S
C1267 C1275 1.433 . S
C1268 H1264 0.929 . S
C1268 C1270 1.378 . S
C1268 C1272 1.350 . S
C1269 C1272 1.463 . S
C1269 C1274 1.350 . S
C1269 N1277 1.427 . S
C1270 H1261 0.930 . S
C1270 C1268 1.378 . S
C1270 C1271 1.367 . S
C1271 C1270 1.367 . S
C1271 C1273 1.433 . S
C1272 C1268 1.350 . S
C1272 C1269 1.463 . S
C1272 N1276 1.427 . S
C1273 H1263 0.929 . S
C1273 C1271 1.433 . S
C1273 N1276 1.384 . S
C1274 H1265 0.929 . S
C1274 C1266 1.378 . S
C1274 C1269 1.350 . S
C1275 H1262 0.929 . S
C1275 C1267 1.433 . S
C1275 N1277 1.384 . S
N1276 C1272 1.427 . S
N1276 C1273 1.384 . S
N1277 C1269 1.427 . S
N1277 C1275 1.384 . S
H1278 C1284 0.930 . S
H1279 C1288 0.930 . S
H1280 C1293 0.929 . S
H1281 C1291 0.929 . S
H1282 C1286 0.929 . S
H1283 C1292 0.929 . S
C1284 H1278 0.930 . S
C1284 C1285 1.367 . S
C1284 C1292 1.378 . S
C1285 C1284 1.367 . S
C1285 C1293 1.433 . S
C1286 H1282 0.929 . S
C1286 C1288 1.378 . S
C1286 C1290 1.350 . S
C1287 C1290 1.463 . S
C1287 C1292 1.350 . S
C1287 N1295 1.427 . S
C1288 H1279 0.930 . S
C1288 C1286 1.378 . S
C1288 C1289 1.367 . S
C1289 C1288 1.367 . S
C1289 C1291 1.433 . S
C1290 C1286 1.350 . S
C1290 C1287 1.463 . S
C1290 N1294 1.427 . S
C1291 H1281 0.929 . S
C1291 C1289 1.433 . S
C1291 N1294 1.384 . S
C1292 H1283 0.929 . S
C1292 C1284 1.378 . S
C1292 C1287 1.350 . S
C1293 H1280 0.929 . S
C1293 C1285 1.433 . S
C1293 N1295 1.384 . S
N1294 C1290 1.427 . S
N1294 C1291 1.384 . S
N1295 C1287 1.427 . S
N1295 C1293 1.384 . S
H1296 C1302 0.930 . S
H1297 C1306 0.930 . S
H1298 C1311 0.929 . S
H1299 C1309 0.929 . S
H1300 C1304 0.930 . S
H1301 C1310 0.929 . S
C1302 H1296 0.930 . S
C1302 C1303 1.367 . S
C1302 C1310 1.378 . S
C1303 C1302 1.367 . S
C1303 C1311 1.433 . S
C1304 H1300 0.930 . S
C1304 C1306 1.378 . S
C1304 C1308 1.346 1_554 S
C1305 C1308 1.472 . S
C1305 C1310 1.350 . S
C1305 N1313 1.427 . S
C1306 H1297 0.930 . S
C1306 C1304 1.378 . S
C1306 C1307 1.367 . S
C1307 C1306 1.367 . S
C1307 C1309 1.433 . S
C1308 C1304 1.346 1_556 S
C1308 C1305 1.472 . S
C1308 N1312 1.425 1_556 S
C1309 H1299 0.929 . S
C1309 C1307 1.433 . S
C1309 N1312 1.388 . S
C1310 H1301 0.929 . S
C1310 C1302 1.378 . S
C1310 C1305 1.350 . S
C1311 H1298 0.929 . S
C1311 C1303 1.433 . S
C1311 N1313 1.384 . S
N1312 C1308 1.425 1_554 S
N1312 C1309 1.388 . S
N1313 C1305 1.427 . S
N1313 C1311 1.384 . S
H1314 C1320 0.930 . S
H1315 C1324 0.930 . S
H1316 C1329 0.929 . S
H1317 C1327 0.929 . S
H1318 C1322 0.929 . S
H1319 C1328 0.929 . S
C1320 H1314 0.930 . S
C1320 C1321 1.367 . S
C1320 C1328 1.378 . S
C1321 C1320 1.367 . S
C1321 C1329 1.433 . S
C1322 H1318 0.929 . S
C1322 C1324 1.378 . S
C1322 C1326 1.350 . S
C1323 C1326 1.463 . S
C1323 C1328 1.350 . S
C1323 N1331 1.427 . S
C1324 H1315 0.930 . S
C1324 C1322 1.378 . S
C1324 C1325 1.367 . S
C1325 C1324 1.367 . S
C1325 C1327 1.433 . S
C1326 C1322 1.350 . S
C1326 C1323 1.463 . S
C1326 N1330 1.427 . S
C1327 H1317 0.929 . S
C1327 C1325 1.433 . S
C1327 N1330 1.384 . S
C1328 H1319 0.929 . S
C1328 C1320 1.378 . S
C1328 C1323 1.350 . S
C1329 H1316 0.929 . S
C1329 C1321 1.433 . S
C1329 N1331 1.384 . S
N1330 C1326 1.427 . S
N1330 C1327 1.384 . S
N1331 C1323 1.427 . S
N1331 C1329 1.384 . S
H1332 C1338 0.930 . S
H1333 C1342 0.930 . S
H1334 C1347 0.929 . S
H1335 C1345 0.929 . S
H1336 C1340 0.929 . S
H1337 C1346 0.929 . S
C1338 H1332 0.930 . S
C1338 C1339 1.367 . S
C1338 C1346 1.378 . S
C1339 C1338 1.367 . S
C1339 C1347 1.433 . S
C1340 H1336 0.929 . S
C1340 C1342 1.378 . S
C1340 C1344 1.350 . S
C1341 C1344 1.463 . S
C1341 C1346 1.350 . S
C1341 N1349 1.427 . S
C1342 H1333 0.930 . S
C1342 C1340 1.378 . S
C1342 C1343 1.367 . S
C1343 C1342 1.367 . S
C1343 C1345 1.433 . S
C1344 C1340 1.350 . S
C1344 C1341 1.463 . S
C1344 N1348 1.427 . S
C1345 H1335 0.929 . S
C1345 C1343 1.433 . S
C1345 N1348 1.384 . S
C1346 H1337 0.929 . S
C1346 C1338 1.378 . S
C1346 C1341 1.350 . S
C1347 H1334 0.929 . S
C1347 C1339 1.433 . S
C1347 N1349 1.384 . S
N1348 C1344 1.427 . S
N1348 C1345 1.384 . S
N1349 C1341 1.427 . S
N1349 C1347 1.384 . S
H1350 C1356 0.930 . S
H1351 C1360 0.930 . S
H1352 C1365 0.929 . S
H1353 C1363 0.929 . S
H1354 C1358 0.929 . S
H1355 C1364 0.929 . S
C1356 H1350 0.930 . S
C1356 C1357 1.367 . S
C1356 C1364 1.378 . S
C1357 C1356 1.367 . S
C1357 C1365 1.433 . S
C1358 H1354 0.929 . S
C1358 C1360 1.378 . S
C1358 C1362 1.350 . S
C1359 C1362 1.463 . S
C1359 C1364 1.350 . S
C1359 N1367 1.427 . S
C1360 H1351 0.930 . S
C1360 C1358 1.378 . S
C1360 C1361 1.367 . S
C1361 C1360 1.367 . S
C1361 C1363 1.433 . S
C1362 C1358 1.350 . S
C1362 C1359 1.463 . S
C1362 N1366 1.427 . S
C1363 H1353 0.929 . S
C1363 C1361 1.433 . S
C1363 N1366 1.384 . S
C1364 H1355 0.929 . S
C1364 C1356 1.378 . S
C1364 C1359 1.350 . S
C1365 H1352 0.929 . S
C1365 C1357 1.433 . S
C1365 N1367 1.384 . S
N1366 C1362 1.427 . S
N1366 C1363 1.384 . S
N1367 C1359 1.427 . S
N1367 C1365 1.384 . S
H1368 C1374 0.930 . S
H1369 C1378 0.930 . S
H1370 C1383 0.929 . S
H1371 C1381 0.929 . S
H1372 C1376 0.929 . S
H1373 C1382 0.929 . S
C1374 H1368 0.930 . S
C1374 C1375 1.367 . S
C1374 C1382 1.378 . S
C1375 C1374 1.367 . S
C1375 C1383 1.433 . S
C1376 H1372 0.929 . S
C1376 C1378 1.378 . S
C1376 C1380 1.350 . S
C1377 C1380 1.463 . S
C1377 C1382 1.350 . S
C1377 N1385 1.427 . S
C1378 H1369 0.930 . S
C1378 C1376 1.378 . S
C1378 C1379 1.367 . S
C1379 C1378 1.367 . S
C1379 C1381 1.433 . S
C1380 C1376 1.350 . S
C1380 C1377 1.463 . S
C1380 N1384 1.427 . S
C1381 H1371 0.929 . S
C1381 C1379 1.433 . S
C1381 N1384 1.384 . S
C1382 H1373 0.929 . S
C1382 C1374 1.378 . S
C1382 C1377 1.350 . S
C1383 H1370 0.929 . S
C1383 C1375 1.433 . S
C1383 N1385 1.384 . S
N1384 C1380 1.427 . S
N1384 C1381 1.384 . S
N1385 C1377 1.427 . S
N1385 C1383 1.384 . S
H1386 C1392 0.930 . S
H1387 C1396 0.930 . S
H1388 C1401 0.929 . S
H1389 C1399 0.929 . S
H1390 C1394 0.929 . S
H1391 C1400 0.929 . S
C1392 H1386 0.930 . S
C1392 C1393 1.367 1_556 S
C1392 C1400 1.378 . S
C1393 C1392 1.367 1_554 S
C1393 C1401 1.433 . S
C1394 H1390 0.929 . S
C1394 C1396 1.378 . S
C1394 C1398 1.350 . S
C1395 C1398 1.463 . S
C1395 C1400 1.350 1_554 S
C1395 N1403 1.427 . S
C1396 H1387 0.930 . S
C1396 C1394 1.378 . S
C1396 C1397 1.367 1_554 S
C1397 C1396 1.367 1_556 S
C1397 C1399 1.433 . S
C1398 C1394 1.350 . S
C1398 C1395 1.463 . S
C1398 N1402 1.427 1_554 S
C1399 H1389 0.929 . S
C1399 C1397 1.433 . S
C1399 N1402 1.384 . S
C1400 H1391 0.929 . S
C1400 C1392 1.378 . S
C1400 C1395 1.350 1_556 S
C1401 H1388 0.929 . S
C1401 C1393 1.433 . S
C1401 N1403 1.384 . S
N1402 C1398 1.427 1_556 S
N1402 C1399 1.384 . S
N1403 C1395 1.427 . S
N1403 C1401 1.384 . S
H1404 C1410 0.930 . S
H1405 C1414 0.930 . S
H1406 C1419 0.929 . S
H1407 C1417 0.929 . S
H1408 C1412 0.929 . S
H1409 C1418 0.929 . S
C1410 H1404 0.930 . S
C1410 C1411 1.367 . S
C1410 C1418 1.378 . S
C1411 C1410 1.367 . S
C1411 C1419 1.433 . S
C1412 H1408 0.929 . S
C1412 C1414 1.378 . S
C1412 C1416 1.350 . S
C1413 C1416 1.463 . S
C1413 C1418 1.350 . S
C1413 N1421 1.427 . S
C1414 H1405 0.930 . S
C1414 C1412 1.378 . S
C1414 C1415 1.367 . S
C1415 C1414 1.367 . S
C1415 C1417 1.433 . S
C1416 C1412 1.350 . S
C1416 C1413 1.463 . S
C1416 N1420 1.427 . S
C1417 H1407 0.929 . S
C1417 C1415 1.433 . S
C1417 N1420 1.384 . S
C1418 H1409 0.929 . S
C1418 C1410 1.378 . S
C1418 C1413 1.350 . S
C1419 H1406 0.929 . S
C1419 C1411 1.433 . S
C1419 N1421 1.384 . S
N1420 C1416 1.427 . S
N1420 C1417 1.384 . S
N1421 C1413 1.427 . S
N1421 C1419 1.384 . S
H1422 C1428 0.930 . S
H1423 C1432 0.930 . S
H1424 C1437 0.929 . S
H1425 C1435 0.929 . S
H1426 C1430 0.929 . S
H1427 C1436 0.929 . S
C1428 H1422 0.930 . S
C1428 C1429 1.367 . S
C1428 C1436 1.378 . S
C1429 C1428 1.367 . S
C1429 C1437 1.433 . S
C1430 H1426 0.929 . S
C1430 C1432 1.378 . S
C1430 C1434 1.350 . S
C1431 C1434 1.463 . S
C1431 C1436 1.350 . S
C1431 N1439 1.427 . S
C1432 H1423 0.930 . S
C1432 C1430 1.378 . S
C1432 C1433 1.367 . S
C1433 C1432 1.367 . S
C1433 C1435 1.433 . S
C1434 C1430 1.350 . S
C1434 C1431 1.463 . S
C1434 N1438 1.427 . S
C1435 H1425 0.929 . S
C1435 C1433 1.433 . S
C1435 N1438 1.384 . S
C1436 H1427 0.929 . S
C1436 C1428 1.378 . S
C1436 C1431 1.350 . S
C1437 H1424 0.929 . S
C1437 C1429 1.433 . S
C1437 N1439 1.384 . S
N1438 C1434 1.427 . S
N1438 C1435 1.384 . S
N1439 C1431 1.427 . S
N1439 C1437 1.384 . S
H1440 C1446 0.930 . S
H1441 C1450 0.930 . S
H1442 C1455 0.929 . S
H1443 C1453 0.929 . S
H1444 C1448 0.929 . S
H1445 C1454 0.929 . S
C1446 H1440 0.930 . S
C1446 C1447 1.367 . S
C1446 C1454 1.378 . S
C1447 C1446 1.367 . S
C1447 C1455 1.433 . S
C1448 H1444 0.929 . S
C1448 C1450 1.378 . S
C1448 C1452 1.350 . S
C1449 C1452 1.463 . S
C1449 C1454 1.350 . S
C1449 N1457 1.427 . S
C1450 H1441 0.930 . S
C1450 C1448 1.378 . S
C1450 C1451 1.367 . S
C1451 C1450 1.367 . S
C1451 C1453 1.433 . S
C1452 C1448 1.350 . S
C1452 C1449 1.463 . S
C1452 N1456 1.427 . S
C1453 H1443 0.929 . S
C1453 C1451 1.433 . S
C1453 N1456 1.384 . S
C1454 H1445 0.929 . S
C1454 C1446 1.378 . S
C1454 C1449 1.350 . S
C1455 H1442 0.929 . S
C1455 C1447 1.433 . S
C1455 N1457 1.384 . S
N1456 C1452 1.427 . S
N1456 C1453 1.384 . S
N1457 C1449 1.427 . S
N1457 C1455 1.384 . S
H1458 C1464 0.930 . S
H1459 C1468 0.930 . S
H1460 C1473 0.929 . S
H1461 C1471 0.929 . S
H1462 C1466 0.929 . S
H1463 C1472 0.929 . S
C1464 H1458 0.930 . S
C1464 C1465 1.367 . S
C1464 C1472 1.378 . S
C1465 C1464 1.367 . S
C1465 C1473 1.433 . S
C1466 H1462 0.929 . S
C1466 C1468 1.378 . S
C1466 C1470 1.350 . S
C1467 C1470 1.463 . S
C1467 C1472 1.350 . S
C1467 N1475 1.427 . S
C1468 H1459 0.930 . S
C1468 C1466 1.378 . S
C1468 C1469 1.367 . S
C1469 C1468 1.367 . S
C1469 C1471 1.433 . S
C1470 C1466 1.350 . S
C1470 C1467 1.463 . S
C1470 N1474 1.427 . S
C1471 H1461 0.929 . S
C1471 C1469 1.433 . S
C1471 N1474 1.384 . S
C1472 H1463 0.929 . S
C1472 C1464 1.378 . S
C1472 C1467 1.350 . S
C1473 H1460 0.929 . S
C1473 C1465 1.433 . S
C1473 N1475 1.384 . S
N1474 C1470 1.427 . S
N1474 C1471 1.384 . S
N1475 C1467 1.427 . S
N1475 C1473 1.384 . S
H1476 C1482 0.930 . S
H1477 C1486 0.930 . S
H1478 C1491 0.929 . S
H1479 C1489 0.929 . S
H1480 C1484 0.929 . S
H1481 C1490 0.929 . S
C1482 H1476 0.930 . S
C1482 C1483 1.367 . S
C1482 C1490 1.378 . S
C1483 C1482 1.367 . S
C1483 C1491 1.433 . S
C1484 H1480 0.929 . S
C1484 C1486 1.378 . S
C1484 C1488 1.350 . S
C1485 C1488 1.463 . S
C1485 C1490 1.350 . S
C1485 N1493 1.427 . S
C1486 H1477 0.930 . S
C1486 C1484 1.378 . S
C1486 C1487 1.367 . S
C1487 C1486 1.367 . S
C1487 C1489 1.433 . S
C1488 C1484 1.350 . S
C1488 C1485 1.463 . S
C1488 N1492 1.427 . S
C1489 H1479 0.929 . S
C1489 C1487 1.433 . S
C1489 N1492 1.384 . S
C1490 H1481 0.929 . S
C1490 C1482 1.378 . S
C1490 C1485 1.350 . S
C1491 H1478 0.929 . S
C1491 C1483 1.433 . S
C1491 N1493 1.384 . S
N1492 C1488 1.427 . S
N1492 C1489 1.384 . S
N1493 C1485 1.427 . S
N1493 C1491 1.384 . S
H1494 C1500 0.930 . S
H1495 C1504 0.930 . S
H1496 C1509 0.929 . S
H1497 C1507 0.929 . S
H1498 C1502 0.929 . S
H1499 C1508 0.929 . S
C1500 H1494 0.930 . S
C1500 C1501 1.367 . S
C1500 C1508 1.378 . S
C1501 C1500 1.367 . S
C1501 C1509 1.433 . S
C1502 H1498 0.929 . S
C1502 C1504 1.378 . S
C1502 C1506 1.350 . S
C1503 C1506 1.463 . S
C1503 C1508 1.350 . S
C1503 N1511 1.427 . S
C1504 H1495 0.930 . S
C1504 C1502 1.378 . S
C1504 C1505 1.367 . S
C1505 C1504 1.367 . S
C1505 C1507 1.433 . S
C1506 C1502 1.350 . S
C1506 C1503 1.463 . S
C1506 N1510 1.427 . S
C1507 H1497 0.929 . S
C1507 C1505 1.433 . S
C1507 N1510 1.384 . S
C1508 H1499 0.929 . S
C1508 C1500 1.378 . S
C1508 C1503 1.350 . S
C1509 H1496 0.929 . S
C1509 C1501 1.433 . S
C1509 N1511 1.384 . S
N1510 C1506 1.427 . S
N1510 C1507 1.384 . S
N1511 C1503 1.427 . S
N1511 C1509 1.384 . S
H1512 C1518 0.930 . S
H1513 C1522 0.930 . S
H1514 C1527 0.929 . S
H1515 C1525 0.929 . S
H1516 C1520 0.929 . S
H1517 C1526 0.929 . S
C1518 H1512 0.930 . S
C1518 C1519 1.367 . S
C1518 C1526 1.378 . S
C1519 C1518 1.367 . S
C1519 C1527 1.433 . S
C1520 H1516 0.929 . S
C1520 C1522 1.378 . S
C1520 C1524 1.350 . S
C1521 C1524 1.463 . S
C1521 C1526 1.350 . S
C1521 N1529 1.427 . S
C1522 H1513 0.930 . S
C1522 C1520 1.378 . S
C1522 C1523 1.367 . S
C1523 C1522 1.367 . S
C1523 C1525 1.433 . S
C1524 C1520 1.350 . S
C1524 C1521 1.463 . S
C1524 N1528 1.427 . S
C1525 H1515 0.929 . S
C1525 C1523 1.433 . S
C1525 N1528 1.384 . S
C1526 H1517 0.929 . S
C1526 C1518 1.378 . S
C1526 C1521 1.350 . S
C1527 H1514 0.929 . S
C1527 C1519 1.433 . S
C1527 N1529 1.384 . S
N1528 C1524 1.427 . S
N1528 C1525 1.384 . S
N1529 C1521 1.427 . S
N1529 C1527 1.384 . S
H1530 C1536 0.930 . S
H1531 C1540 0.930 . S
H1532 C1545 0.929 . S
H1533 C1543 0.929 . S
H1534 C1538 0.929 . S
H1535 C1544 0.929 . S
C1536 H1530 0.930 . S
C1536 C1537 1.367 . S
C1536 C1544 1.378 . S
C1537 C1536 1.367 . S
C1537 C1545 1.433 . S
C1538 H1534 0.929 . S
C1538 C1540 1.378 . S
C1538 C1542 1.350 . S
C1539 C1542 1.463 . S
C1539 C1544 1.350 . S
C1539 N1547 1.427 . S
C1540 H1531 0.930 . S
C1540 C1538 1.378 . S
C1540 C1541 1.367 . S
C1541 C1540 1.367 . S
C1541 C1543 1.433 . S
C1542 C1538 1.350 . S
C1542 C1539 1.463 . S
C1542 N1546 1.427 . S
C1543 H1533 0.929 . S
C1543 C1541 1.433 . S
C1543 N1546 1.384 . S
C1544 H1535 0.929 . S
C1544 C1536 1.378 . S
C1544 C1539 1.350 . S
C1545 H1532 0.929 . S
C1545 C1537 1.433 . S
C1545 N1547 1.384 . S
N1546 C1542 1.427 . S
N1546 C1543 1.384 . S
N1547 C1539 1.427 . S
N1547 C1545 1.384 . S
H1548 C1554 0.930 . S
H1549 C1558 0.930 . S
H1550 C1563 0.929 . S
H1551 C1561 0.929 . S
H1552 C1556 0.929 . S
H1553 C1562 0.929 . S
C1554 H1548 0.930 . S
C1554 C1555 1.367 . S
C1554 C1562 1.378 . S
C1555 C1554 1.367 . S
C1555 C1563 1.433 . S
C1556 H1552 0.929 . S
C1556 C1558 1.378 . S
C1556 C1560 1.350 . S
C1557 C1560 1.463 . S
C1557 C1562 1.350 . S
C1557 N1565 1.427 . S
C1558 H1549 0.930 . S
C1558 C1556 1.378 . S
C1558 C1559 1.367 . S
C1559 C1558 1.367 . S
C1559 C1561 1.433 . S
C1560 C1556 1.350 . S
C1560 C1557 1.463 . S
C1560 N1564 1.427 . S
C1561 H1551 0.929 . S
C1561 C1559 1.433 . S
C1561 N1564 1.384 . S
C1562 H1553 0.929 . S
C1562 C1554 1.378 . S
C1562 C1557 1.350 . S
C1563 H1550 0.929 . S
C1563 C1555 1.433 . S
C1563 N1565 1.384 . S
N1564 C1560 1.427 . S
N1564 C1561 1.384 . S
N1565 C1557 1.427 . S
N1565 C1563 1.384 . S
H1566 C1572 0.930 . S
H1567 C1576 0.930 . S
H1568 C1581 0.929 . S
H1569 C1579 0.929 . S
H1570 C1574 0.929 . S
H1571 C1580 0.929 . S
C1572 H1566 0.930 . S
C1572 C1573 1.367 . S
C1572 C1580 1.378 . S
C1573 C1572 1.367 . S
C1573 C1581 1.433 . S
C1574 H1570 0.929 . S
C1574 C1576 1.378 . S
C1574 C1578 1.350 . S
C1575 C1578 1.463 . S
C1575 C1580 1.350 . S
C1575 N1583 1.427 . S
C1576 H1567 0.930 . S
C1576 C1574 1.378 . S
C1576 C1577 1.367 . S
C1577 C1576 1.367 . S
C1577 C1579 1.433 . S
C1578 C1574 1.350 . S
C1578 C1575 1.463 . S
C1578 N1582 1.427 . S
C1579 H1569 0.929 . S
C1579 C1577 1.433 . S
C1579 N1582 1.384 . S
C1580 H1571 0.929 . S
C1580 C1572 1.378 . S
C1580 C1575 1.350 . S
C1581 H1568 0.929 . S
C1581 C1573 1.433 . S
C1581 N1583 1.384 . S
N1582 C1578 1.427 . S
N1582 C1579 1.384 . S
N1583 C1575 1.427 . S
N1583 C1581 1.384 . S
H1584 C1590 0.930 . S
H1585 C1594 0.930 . S
H1586 C1599 0.929 . S
H1587 C1597 0.929 . S
H1588 C1592 0.929 . S
H1589 C1598 0.929 . S
C1590 H1584 0.930 . S
C1590 C1591 1.367 . S
C1590 C1598 1.378 . S
C1591 C1590 1.367 . S
C1591 C1599 1.433 . S
C1592 H1588 0.929 . S
C1592 C1594 1.378 . S
C1592 C1596 1.350 . S
C1593 C1596 1.463 . S
C1593 C1598 1.350 . S
C1593 N1601 1.427 . S
C1594 H1585 0.930 . S
C1594 C1592 1.378 . S
C1594 C1595 1.367 . S
C1595 C1594 1.367 . S
C1595 C1597 1.433 . S
C1596 C1592 1.350 . S
C1596 C1593 1.463 . S
C1596 N1600 1.427 . S
C1597 H1587 0.929 . S
C1597 C1595 1.433 . S
C1597 N1600 1.384 . S
C1598 H1589 0.929 . S
C1598 C1590 1.378 . S
C1598 C1593 1.350 . S
C1599 H1586 0.929 . S
C1599 C1591 1.433 . S
C1599 N1601 1.384 . S
N1600 C1596 1.427 . S
N1600 C1597 1.384 . S
N1601 C1593 1.427 . S
N1601 C1599 1.384 . S
H1602 C1608 0.930 . S
H1603 C1612 0.930 . S
H1604 C1617 0.929 . S
H1605 C1615 0.929 . S
H1606 C1610 0.929 . S
H1607 C1616 0.929 . S
C1608 H1602 0.930 . S
C1608 C1609 1.367 . S
C1608 C1616 1.378 . S
C1609 C1608 1.367 . S
C1609 C1617 1.433 . S
C1610 H1606 0.929 . S
C1610 C1612 1.378 . S
C1610 C1614 1.350 . S
C1611 C1614 1.463 . S
C1611 C1616 1.350 . S
C1611 N1619 1.427 . S
C1612 H1603 0.930 . S
C1612 C1610 1.378 . S
C1612 C1613 1.367 . S
C1613 C1612 1.367 . S
C1613 C1615 1.433 . S
C1614 C1610 1.350 . S
C1614 C1611 1.463 . S
C1614 N1618 1.427 . S
C1615 H1605 0.929 . S
C1615 C1613 1.433 . S
C1615 N1618 1.384 . S
C1616 H1607 0.929 . S
C1616 C1608 1.378 . S
C1616 C1611 1.350 . S
C1617 H1604 0.929 . S
C1617 C1609 1.433 . S
C1617 N1619 1.384 . S
N1618 C1614 1.427 . S
N1618 C1615 1.384 . S
N1619 C1611 1.427 . S
N1619 C1617 1.384 . S
H1620 C1626 0.930 . S
H1621 C1630 0.930 . S
H1622 C1635 0.929 . S
H1623 C1633 0.929 . S
H1624 C1628 0.929 . S
H1625 C1634 0.929 . S
C1626 H1620 0.930 . S
C1626 C1627 1.367 . S
C1626 C1634 1.378 . S
C1627 C1626 1.367 . S
C1627 C1635 1.433 . S
C1628 H1624 0.929 . S
C1628 C1630 1.378 . S
C1628 C1632 1.350 . S
C1629 C1632 1.463 . S
C1629 C1634 1.350 . S
C1629 N1637 1.427 . S
C1630 H1621 0.930 . S
C1630 C1628 1.378 . S
C1630 C1631 1.367 . S
C1631 C1630 1.367 . S
C1631 C1633 1.433 . S
C1632 C1628 1.350 . S
C1632 C1629 1.463 . S
C1632 N1636 1.427 . S
C1633 H1623 0.929 . S
C1633 C1631 1.433 . S
C1633 N1636 1.384 . S
C1634 H1625 0.929 . S
C1634 C1626 1.378 . S
C1634 C1629 1.350 . S
C1635 H1622 0.929 . S
C1635 C1627 1.433 . S
C1635 N1637 1.384 . S
N1636 C1632 1.427 . S
N1636 C1633 1.384 . S
N1637 C1629 1.427 . S
N1637 C1635 1.384 . S
H1638 C1644 0.930 . S
H1639 C1648 0.930 . S
H1640 C1653 0.929 . S
H1641 C1651 0.929 . S
H1642 C1646 0.929 . S
H1643 C1652 0.929 . S
C1644 H1638 0.930 . S
C1644 C1645 1.367 . S
C1644 C1652 1.378 . S
C1645 C1644 1.367 . S
C1645 C1653 1.433 . S
C1646 H1642 0.929 . S
C1646 C1648 1.378 . S
C1646 C1650 1.350 . S
C1647 C1650 1.463 . S
C1647 C1652 1.350 . S
C1647 N1655 1.427 . S
C1648 H1639 0.930 . S
C1648 C1646 1.378 . S
C1648 C1649 1.367 . S
C1649 C1648 1.367 . S
C1649 C1651 1.433 . S
C1650 C1646 1.350 . S
C1650 C1647 1.463 . S
C1650 N1654 1.427 . S
C1651 H1641 0.929 . S
C1651 C1649 1.433 . S
C1651 N1654 1.384 . S
C1652 H1643 0.929 . S
C1652 C1644 1.378 . S
C1652 C1647 1.350 . S
C1653 H1640 0.929 . S
C1653 C1645 1.433 . S
C1653 N1655 1.384 . S
N1654 C1650 1.427 . S
N1654 C1651 1.384 . S
N1655 C1647 1.427 . S
N1655 C1653 1.384 . S
C1015 C476 1.589 . S
C1019 C58 1.227 . S
C1033 C142 1.260 . S
C1037 C56 1.700 . S
C1051 C226 1.334 . S
C1055 C140 1.700 . S
C1069 C224 1.589 . S
C1073 C310 1.227 . S
C1087 C308 1.710 . S
C1091 C394 1.281 . S
C1105 C478 1.308 . S
C1109 C392 1.694 . S
C1123 C644 1.601 . S
C1127 C562 1.248 . S
C1141 C646 1.325 . S
C1145 C728 1.704 . S
C1159 C812 1.708 . S
C1163 C730 1.275 . S
C1177 C896 1.599 . S
C1181 C814 1.257 . S
C1195 C980 1.702 . S
C1199 C898 1.342 . S
C1213 C560 1.709 . S
C1217 C982 1.264 . S
C1231 C998 3.471 . S
C1235 C67 3.413 . S
C1249 C151 2.963 . S
C1253 C578 3.012 . S
C1267 C662 3.261 . S
C1271 C235 3.195 . S
C1285 C746 3.471 . S
C1289 C319 3.414 . S
C1303 C830 3.020 . S
C1307 C403 2.960 . S
C1321 C487 3.189 . S
C1325 C914 3.255 . S
C1339 C571 3.416 . S
C1343 C158 3.478 . S
C1357 C655 3.191 . S
C1361 C242 3.259 . S
C1375 C326 3.020 . S
C1379 C739 2.957 . S
C1393 C410 3.476 . S
C1397 C823 3.418 . S
C1411 C907 3.192 . S
C1415 C494 3.260 . S
C1429 C991 2.965 . S
C1433 C74 3.017 . S
C1447 C567 2.218 . S
C1451 C63 2.224 . S
C1465 C147 1.483 . S
C1469 C651 1.499 . S
C1483 C735 1.486 . S
C1487 C231 1.498 . S
C1501 C315 2.221 . S
C1505 C819 2.218 . S
C1519 C903 1.510 . S
C1523 C399 1.496 . S
C1537 C987 1.489 . S
C1541 C483 1.512 . S
C1555 C573 0.513 . S
C1559 C69 0.505 . S
C1573 C657 0.329 . S
C1577 C153 0.320 . S
C1591 C741 0.314 . S
C1595 C237 0.337 . S
C1609 C321 0.504 . S
C1613 C825 0.481 . S
C1627 C909 0.335 . S
C1631 C405 0.316 . S
C1645 C993 0.284 . S
C1649 C489 0.307 . S
