# Generated by pormake.
# Topology kag, (6)-cn, num edge types: 1
# Building blocks:
#     Node 0, Type 0, BuildingBlock: KUMBOL_clean_sbu_0, # of connection points: 6
#     Node 1, Type 0, BuildingBlock: KUMBOL_clean_sbu_0, # of connection points: 6
#     Node 2, Type 0, BuildingBlock: KUMBOL_clean_sbu_0, # of connection points: 6
#     Edge 3, Type (0, 0), BuildingBlock: KIFKEQ_clean_linker_1, # of connection points: 2
#     Edge 4, Type (0, 0), BuildingBlock: KIFKEQ_clean_linker_1, # of connection points: 2
#     Edge 5, Type (0, 0), BuildingBlock: KIFKEQ_clean_linker_1, # of connection points: 2
#     Edge 6, Type (0, 0), BuildingBlock: KIFKEQ_clean_linker_1, # of connection points: 2
#     Edge 7, Type (0, 0), BuildingBlock: KIFKEQ_clean_linker_1, # of connection points: 2
#     Edge 8, Type (0, 0), BuildingBlock: KIFKEQ_clean_linker_1, # of connection points: 2
#     Edge 9, Type (0, 0), BuildingBlock: KIFKEQ_clean_linker_1, # of connection points: 2
#     Edge 10, Type (0, 0), BuildingBlock: KIFKEQ_clean_linker_1, # of connection points: 2
#     Edge 11, Type (0, 0), BuildingBlock: KIFKEQ_clean_linker_1, # of connection points: 2
# Relax obj value: 0.070
# Max RMSD: 0.188
# Mean RMSD: 0.140
data_MOF--net-kag--node1-KUMBOL_clean_sbu_0--edge1-KIFKEQ_clean_linker_1
_symmetry_space_group_name_H-M    P1
_symmetry_Int_Tables_number       1
_symmetry_cell_setting            triclinic
loop_
_symmetry_equiv_pos_as_xyz
'x, y, z'
_cell_length_a     40.133805
_cell_length_b     31.037293
_cell_length_c     15.540965
_cell_angle_alpha  93.92169
_cell_angle_beta   114.12885
_cell_angle_gamma 98.897765
loop_
_atom_site_label
_atom_site_type_symbol
_atom_site_fract_x
_atom_site_fract_y
_atom_site_fract_z
_atom_type_partial_charge
Gd0 Gd 0.01912 0.59202 -0.00239 0.0
Gd1 Gd 1.00365 0.47214 0.9779 0.0
C2 C 0.09268 0.39669 0.97915 0.0
C3 C 0.06323 0.35475 0.81987 0.0
C4 C 0.03035 0.40285 0.87115 0.0
C5 C 0.06064 0.41487 0.95898 0.0
C6 C 0.03105 0.37212 0.80109 0.0
C7 C 0.09401 0.36707 0.90867 0.0
C8 C 0.12227 0.40851 0.06985 0.0
C9 C 0.11906 0.4369 0.13846 0.0
N10 N 0.05855 0.44382 0.02526 0.0
C11 C 0.08665 0.45394 0.1152 0.0
H12 H 0.08467 0.47601 0.16882 0.0
C13 C 0.96803 0.40668 0.77275 0.0
N14 N 0.99983 0.4205 0.85497 0.0
C15 C 0.96738 0.37635 0.70099 0.0
C16 C 0.99916 0.35931 0.7148 0.0
H17 H 0.9435 0.41999 0.76174 0.0
H18 H 0.11851 0.35305 0.92258 0.0
H19 H 0.93716 0.58876 0.81078 0.0
H20 H 0.14745 0.39545 0.08801 0.0
H21 H 0.14159 0.44582 0.2092 0.0
H22 H 0.06442 0.33135 0.76667 0.0
H23 H 0.08182 0.64571 0.20971 0.0
H24 H 0.87662 0.67057 0.89768 0.0
H25 H 0.88071 0.61968 0.77433 0.0
H26 H 0.96326 0.73626 0.21501 0.0
H27 H 0.94242 0.36616 0.6351 0.0
H28 H 0.99858 0.3358 0.65911 0.0
H29 H 0.90757 0.71375 0.06251 0.0
H30 H 0.08534 0.7016 0.33608 0.0
N31 N 0.96447 0.62062 0.95453 0.0
C32 C 0.9015 0.65705 0.91418 0.0
C33 C 0.90372 0.62838 0.84435 0.0
C34 C 0.9318 0.66879 0.00373 0.0
C35 C 0.96342 0.65 0.02177 0.0
C36 C 0.93582 0.6109 0.86538 0.0
N37 N 0.02478 0.64446 0.12151 0.0
C38 C 0.99458 0.66241 0.10779 0.0
C39 C 0.05958 0.69068 0.27247 0.0
C40 C 0.02816 0.70794 0.26153 0.0
C41 C 0.05752 0.6591 0.20085 0.0
C42 C 0.99524 0.69425 0.17797 0.0
H43 H 0.02982 0.73239 0.31711 0.0
O44 O 0.06733 0.6397 0.01189 0.0
O45 O 0.04318 0.53297 0.98818 0.0
O46 O 0.02812 0.50474 0.13326 0.0
O47 O 0.01445 0.57506 0.13183 0.0
O48 O 0.07902 0.58574 0.08479 0.0
O49 O 0.01463 0.63275 0.88696 0.0
O50 O 0.95487 0.42391 0.9583 0.0
O51 O 0.97968 0.53115 0.9873 0.0
O52 O 0.99367 0.55921 0.84172 0.0
O53 O 1.00948 0.49009 0.84613 0.0
O54 O 0.94399 0.47871 0.88903 0.0
O55 O 1.00621 0.43149 0.08749 0.0
C56 C 0.07697 0.54677 0.04599 0.0
C57 C 0.96342 0.71203 0.16163 0.0
C58 C 0.93172 0.69924 0.07477 0.0
C59 C 0.0487 0.65507 0.93409 0.0
C60 C 0.05468 0.70333 0.9407 0.0
C61 C 0.02718 0.72675 0.93883 0.0
C62 C 0.08897 0.72628 0.94882 0.0
C63 C 0.09597 0.77233 0.95369 0.0
C64 C 0.03397 0.77263 0.9437 0.0
C65 C 0.06809 0.79538 0.95042 0.0
C66 C 0.0224 0.54005 0.17454 0.0
C67 C 0.94599 0.51748 0.92875 0.0
C68 C 0.97203 0.40971 0.03881 0.0
C69 C 0.96501 0.36179 0.03756 0.0
C70 C 0.9897 0.33592 0.03014 0.0
C71 C 0.93286 0.34186 0.04578 0.0
C72 C 0.92534 0.29635 0.04829 0.0
C73 C 0.98238 0.29056 0.0324 0.0
C74 C 0.95052 0.27083 0.04211 0.0
C75 C 1.00027 0.52424 0.80165 0.0
H76 H 1.00055 0.70971 0.93312 0.0
H77 H 0.11006 0.70806 0.94951 0.0
H78 H 1.01268 0.79059 0.9419 0.0
H79 H 0.07282 0.83091 0.95393 0.0
H80 H 0.0146 0.35073 0.02333 0.0
H81 H 0.91403 0.3621 0.05234 0.0
H82 H 1.00153 0.27065 0.02702 0.0
H83 H 0.94537 0.23566 0.04383 0.0
Gd84 Gd 0.46996 1.02968 0.94553 0.0
Gd85 Gd 0.56664 0.05291 0.05451 0.0
C86 C 0.60992 0.93776 0.96049 0.0
C87 C 0.61174 0.88925 0.07765 0.0
C88 C 0.59209 0.95934 0.08577 0.0
C89 C 0.59669 0.96797 0.00482 0.0
C90 C 0.60071 0.92044 0.12471 0.0
C91 C 0.61618 0.89781 -0.0046 0.0
C92 C 0.6182 0.94941 0.88515 0.0
C93 C 0.61599 0.99151 0.86059 0.0
N94 N 0.59098 1.00724 0.97377 0.0
C95 C 0.60366 1.0206 0.90815 0.0
H96 H 0.6047 0.05398 0.89211 0.0
C97 C 0.57992 0.98444 0.21452 0.0
N98 N 0.58006 0.98937 0.12793 0.0
C99 C 0.58839 0.94668 0.25611 0.0
C100 C 0.59827 0.91416 0.21028 0.0
H101 H 0.57434 1.00983 0.25389 0.0
H102 H 0.62576 0.87403 0.96129 0.0
H103 H 0.46157 0.08929 0.12329 0.0
H104 H 0.62831 0.92712 0.84921 0.0
H105 H 0.62454 1.00197 0.80641 0.0
H106 H 0.61765 0.85884 0.1054 0.0
H107 H 0.42933 1.00716 0.70244 0.0
H108 H 0.42742 0.20775 0.03044 0.0
H109 H 0.44608 0.15992 0.15585 0.0
H110 H 0.40434 0.18922 0.70179 0.0
H111 H 0.5876 0.94291 0.32402 0.0
H112 H 0.60467 0.88482 0.24242 0.0
H113 H 0.41348 0.21922 0.86214 0.0
H114 H 0.40615 0.04716 0.56541 0.0
N115 N 0.45485 0.09729 0.98242 0.0
C116 C 0.43465 0.1767 0.01588 0.0
C117 C 0.44535 0.14992 0.08691 0.0
C118 C 0.43239 0.16248 0.92602 0.0
C119 C 0.44199 0.12161 0.91062 0.0
C120 C 0.45494 0.10998 0.06853 0.0
N121 N 0.44268 0.06343 0.80655 0.0
C122 C 0.43672 0.10468 0.82048 0.0
C123 C 0.41529 0.0641 0.63687 0.0
C124 C 0.41258 0.10798 0.65118 0.0
C125 C 0.42912 0.0418 0.71523 0.0
C126 C 0.42195 0.12829 0.74336 0.0
H127 H 0.40127 0.12502 0.59023 0.0
O128 O 0.4109 1.00362 0.85974 0.0
O129 O 0.51805 0.99458 0.01812 0.0
O130 O 0.54909 0.06088 0.90046 0.0
O131 O 0.48998 1.0183 0.8315 0.0
O132 O 0.47825 0.96529 0.88495 0.0
O133 O 0.43552 0.99388 0.00596 0.0
O134 O 0.60383 0.09011 0.19376 0.0
O135 O 0.51815 0.08903 0.02065 0.0
O136 O 0.4876 1.02647 0.10176 0.0
O137 O 0.54775 0.06728 0.16934 0.0
O138 O 0.5606 0.11595 0.98635 0.0
O139 O 0.62527 0.07705 0.09083 0.0
C140 C 0.50728 0.9591 0.95667 0.0
C141 C 0.41508 0.17038 0.75985 0.0
C142 C 0.42013 0.18737 0.85101 0.0
C143 C 0.40575 0.98486 0.92636 0.0
C144 C 0.38499 0.93901 0.89951 0.0
C145 C 0.39425 0.90722 0.8492 0.0
C146 C 0.35484 0.92719 0.92278 0.0
C147 C 0.33364 0.88388 0.89536 0.0
C148 C 0.37374 0.86411 0.8229 0.0
C149 C 0.34357 0.85245 0.84539 0.0
C150 C 0.51956 0.03982 0.82553 0.0
C151 C 0.52979 0.12275 0.98788 0.0
C152 C 0.63213 0.09841 0.1728 0.0
C153 C 0.653 0.14445 0.19515 0.0
C154 C 0.64399 0.17768 0.24291 0.0
C155 C 0.68301 0.15515 0.17035 0.0
C156 C 0.70392 0.19852 0.19263 0.0
C157 C 0.66465 0.22066 0.26559 0.0
C158 C 0.69443 0.23108 0.24105 0.0
C159 C 0.5174 0.04819 0.17612 0.0
H160 H 0.41691 0.91564 0.82904 0.0
H161 H 0.34797 0.9518 0.96226 0.0
H162 H 0.38094 0.83978 0.78377 0.0
H163 H 0.32754 0.81903 0.82175 0.0
H164 H 0.62114 0.17053 0.2632 0.0
H165 H 0.68973 0.12967 0.13259 0.0
H166 H 0.65767 0.24601 0.30289 0.0
H167 H 0.7103 0.26458 0.26118 0.0
Gd168 Gd 0.56334 0.5535 0.04011 0.0
Gd169 Gd 0.46141 0.52506 0.9388 0.0
C170 C 0.42564 0.37475 0.88995 0.0
C171 C 0.40319 0.35707 0.71867 0.0
C172 C 0.42659 0.43352 0.79539 0.0
C173 C 0.43459 0.41993 0.88341 0.0
C174 C 0.40959 0.4022 0.71173 0.0
C175 C 0.41105 0.34338 0.80761 0.0
C176 C 0.43102 0.36245 0.97884 0.0
C177 C 0.44393 0.39489 0.05794 0.0
N178 N 0.44897 0.45096 0.96201 0.0
C179 C 0.45251 0.43917 0.04814 0.0
H180 H 0.46215 0.46349 0.11029 0.0
C181 C 0.41599 0.49188 0.70426 0.0
N182 N 0.43167 0.47745 0.79076 0.0
C183 C 0.39996 0.46224 0.61956 0.0
C184 C 0.39751 0.41718 0.62325 0.0
H185 H 0.41612 0.52654 0.70014 0.0
H186 H 0.40477 0.30854 0.81166 0.0
H187 H 0.55557 0.61033 0.85897 0.0
H188 H 0.42461 0.32814 0.98678 0.0
H189 H 0.44747 0.38584 0.12673 0.0
H190 H 0.39066 0.33261 0.65528 0.0
H191 H 0.61745 0.55442 0.2726 0.0
H192 H 0.5987 0.74684 0.96971 0.0
H193 H 0.56976 0.68679 0.83284 0.0
H194 H 0.64737 0.74845 0.30702 0.0
H195 H 0.38892 0.47415 0.55155 0.0
H196 H 0.38442 0.3942 0.55751 0.0
H197 H 0.62616 0.76973 0.14651 0.0
H198 H 0.65309 0.60859 0.41882 0.0
N199 N 0.57447 0.62627 0.00874 0.0
C200 C 0.5923 0.71317 0.98156 0.0
C201 C 0.57594 0.67939 0.90419 0.0
C202 C 0.60128 0.70288 0.07363 0.0
C203 C 0.59232 0.65844 0.08523 0.0
C204 C 0.56738 0.63594 0.9192 0.0
N205 N 0.59898 0.60294 0.1833 0.0
C206 C 0.60415 0.64649 0.17543 0.0
C207 C 0.639 0.61977 0.35112 0.0
C208 C 0.64163 0.66474 0.34551 0.0
C209 C 0.61858 0.58924 0.26841 0.0
C210 C 0.62533 0.67864 0.25649 0.0
H211 H 0.65804 0.68838 0.40939 0.0
O212 O 0.61569 0.52993 0.0985 0.0
O213 O 0.51408 0.49438 0.97545 0.0
O214 O 0.48366 0.53713 0.09769 0.0
O215 O 0.54857 0.55297 0.16585 0.0
O216 O 0.56059 0.48769 0.09468 0.0
O217 O 0.6003 0.55661 0.96758 0.0
O218 O 0.40547 0.53761 0.86374 0.0
O219 O 0.511 0.58257 -0.00617 0.0
O220 O 0.53786 0.52946 0.88189 0.0
O221 O 0.47864 0.54505 0.82408 0.0
O222 O 0.45974 0.59795 0.92783 0.0
O223 O 0.42374 0.52514 0.00882 0.0
C224 C 0.52844 0.46636 0.03165 0.0
C225 C 0.63169 0.72327 0.24551 0.0
C226 C 0.61978 0.73537 0.15415 0.0
C227 C 0.62625 0.54156 0.03315 0.0
C228 C 0.66554 0.56627 0.0666 0.0
C229 C 0.67897 0.60214 0.13972 0.0
C230 C 0.69012 0.55432 0.02796 0.0
C231 C 0.7276 0.57836 0.06317 0.0
C232 C 0.71556 0.62518 0.17559 0.0
C233 C 0.73963 0.61333 0.13864 0.0
C234 C 0.51632 0.54627 0.17184 0.0
C235 C 0.49459 0.61601 0.97269 0.0
C236 C 0.39578 0.53155 0.9333 0.0
C237 C 0.35842 0.50298 0.90723 0.0
C238 C 0.34737 0.46441 0.84188 0.0
C239 C 0.33295 0.51451 0.94325 0.0
C240 C 0.2968 0.48747 0.9132 0.0
C241 C 0.31212 0.43816 0.81136 0.0
C242 C 0.28708 0.44962 0.84555 0.0
C243 C 0.50771 0.53666 0.81185 0.0
H244 H 0.66139 0.61228 0.17053 0.0
H245 H 0.68005 0.52695 0.97073 0.0
H246 H 0.72544 0.65235 0.23318 0.0
H247 H 0.76812 0.63158 0.17074 0.0
H248 H 0.36573 0.45489 0.81249 0.0
H249 H 0.34132 0.54413 -0.00581 0.0
H250 H 0.3039 0.40888 0.75958 0.0
H251 H 0.2596 0.42881 0.81687 0.0
H252 H 0.97123 0.57827 0.66814 0.0
H253 H 0.03217 0.4725 0.72125 0.0
H254 H 0.97625 0.58168 0.51746 0.0
H255 H 0.03949 0.47773 0.57521 0.0
H256 H 0.01935 0.60733 0.29427 0.0
H257 H 0.01416 0.60349 0.44397 0.0
H258 H 1.01345 0.46371 0.41358 0.0
H259 H 0.02156 0.46856 0.26832 0.0
C260 C 0.98577 0.55581 0.64778 0.0
C261 C 1.00107 0.52499 0.70683 0.0
C262 C 0.98911 0.55806 0.56161 0.0
C263 C 1.00851 0.53016 0.53298 0.0
C264 C 0.02364 0.49926 0.59252 0.0
C265 C 0.01962 0.4964 0.67734 0.0
C266 C 0.01891 0.57598 0.32053 0.0
C267 C 0.02152 0.53847 0.26932 0.0
C268 C 0.01524 0.57353 0.40614 0.0
C269 C 1.01319 0.53321 0.44219 0.0
C270 C 0.01574 0.49569 0.39044 0.0
C271 C 0.02023 0.49839 0.30608 0.0
H272 H 0.45864 1.01904 0.21793 0.0
H273 H 0.57533 0.08156 0.34957 0.0
H274 H 0.45868 1.01891 0.37427 0.0
H275 H 0.57588 0.07925 0.50603 0.0
H276 H 0.55738 0.10481 0.77211 0.0
H277 H 0.55568 0.10939 0.61469 0.0
H278 H 0.48037 0.9825 0.50901 0.0
H279 H 0.48106 0.97901 0.66592 0.0
C280 C 0.48437 1.03259 0.28021 0.0
C281 C 0.51705 0.05003 0.27113 0.0
C282 C 0.48447 1.03216 0.37005 0.0
C283 C 0.51737 0.04864 0.45307 0.0
C284 C 0.5499 0.06676 0.4438 0.0
C285 C 0.54965 0.06781 0.35389 0.0
C286 C 0.54058 0.07787 0.71513 0.0
C287 C 0.51933 0.04156 0.73091 0.0
C288 C 0.53968 0.08039 0.62494 0.0
C289 C 0.51789 0.04632 0.54885 0.0
C290 C 0.49688 1.00978 0.56529 0.0
C291 C 0.49743 1.00757 0.65527 0.0
H292 H 0.55038 0.49821 0.74363 0.0
H293 H 0.46575 0.57729 0.66636 0.0
H294 H 0.5526 0.50154 0.59006 0.0
H295 H 0.46879 0.58201 0.5138 0.0
H296 H 0.45601 0.54377 0.21262 0.0
H297 H 0.45351 0.54062 0.36506 0.0
H298 H 0.57271 0.54947 0.50125 0.0
H299 H 0.57485 0.54981 0.34736 0.0
C300 C 0.53229 0.51642 0.69379 0.0
C301 C 0.50769 0.53723 0.71679 0.0
C302 C 0.53379 0.51867 0.60596 0.0
C303 C 0.51105 0.54226 0.53936 0.0
C304 C 0.48633 0.56296 0.56251 0.0
C305 C 0.48455 0.56029 0.65004 0.0
C306 C 0.48183 0.54511 0.27482 0.0
C307 C 0.51581 0.54744 0.26708 0.0
C308 C 0.48037 0.54367 0.3628 0.0
C309 C 0.51289 0.54489 0.44594 0.0
C310 C 0.54697 0.54788 0.43863 0.0
C311 C 0.54836 0.54885 0.35024 0.0
H312 H 0.1507 0.57664 0.16396 0.0
H313 H 0.07895 0.49482 0.89604 0.0
H314 H 0.20547 0.56499 0.13913 0.0
H315 H 0.13354 0.481 0.87421 0.0
H316 H 0.24439 0.42888 0.94221 0.0
H317 H 0.19225 0.4432 0.97354 0.0
H318 H 0.23192 0.58292 0.00331 0.0
H319 H 0.2834 0.56884 0.9652 0.0
C320 C 0.14651 0.5555 0.1005 0.0
C321 C 0.11009 0.53566 0.0334 0.0
C322 C 0.17797 0.54907 0.0861 0.0
C323 C 0.17404 0.52196 0.00483 0.0
C324 C 0.1377 0.50183 0.93805 0.0
C325 C 0.10624 0.50932 0.95115 0.0
C326 C 0.24207 0.46286 0.95365 0.0
C327 C 0.26815 0.49759 0.94799 0.0
C328 C 0.21205 0.47095 0.97245 0.0
C329 C 0.20747 0.51412 0.98965 0.0
C330 C 0.23454 0.54917 0.99 0.0
C331 C 0.26429 0.54105 0.96873 0.0
H332 H 0.75539 0.14894 0.19436 0.0
H333 H 0.72406 0.27397 0.12885 0.0
H334 H 0.80681 0.168 0.14981 0.0
H335 H 0.77675 0.29417 0.09069 0.0
H336 H 0.85412 0.30698 0.94877 0.0
H337 H 0.79956 0.27978 0.97636 0.0
H338 H 0.86641 0.21485 0.20448 0.0
H339 H 0.92065 0.24101 0.17415 0.0
C340 C 0.75934 0.18044 0.17027 0.0
C341 C 0.73546 0.2099 0.16542 0.0
C342 C 0.7892 0.19163 0.1459 0.0
C343 C 0.79608 0.23267 0.11659 0.0
C344 C 0.77209 0.26198 0.11143 0.0
C345 C 0.74211 0.25067 0.13495 0.0
C346 C 0.85699 0.2866 0.0043 0.0
C347 C 0.89162 0.27633 0.05974 0.0
C348 C 0.8258 0.2712 0.0206 0.0
C349 C 0.82857 0.24558 0.09364 0.0
C350 C 0.86305 0.2341 0.14702 0.0
C351 C 0.89419 0.24914 0.12989 0.0
H352 H 0.51412 0.89496 0.83633 0.0
H353 H 0.50835 0.90987 0.10618 0.0
H354 H 0.51586 0.81712 0.84499 0.0
H355 H 0.50959 0.83107 0.11544 0.0
H356 H 0.52663 0.68388 0.1327 0.0
H357 H 0.53226 0.7643 0.13522 0.0
H358 H 0.48846 0.74535 0.82887 0.0
H359 H 0.48363 0.66613 0.8278 0.0
C360 C 0.51356 0.8819 0.89869 0.0
C361 C 0.5122 0.91072 0.97152 0.0
C362 C 0.51414 0.83609 0.90348 0.0
C363 C 0.51263 0.81513 0.98086 0.0
C364 C 0.51126 0.84415 0.05427 0.0
C365 C 0.5107 0.8903 0.04931 0.0
C366 C 0.51946 0.69686 0.06588 0.0
C367 C 0.50683 0.66692 0.9803 0.0
C368 C 0.52202 0.74382 0.06694 0.0
C369 C 0.51133 0.76397 0.98224 0.0
C370 C 0.49825 0.73357 0.89706 0.0
C371 C 0.49554 0.687 0.89623 0.0
H372 H 0.94398 0.56793 0.08022 0.0
H373 H 0.87237 0.48884 0.80862 0.0
H374 H 0.88931 0.58219 0.101 0.0
H375 H 0.81747 0.50106 0.83217 0.0
H376 H 0.73763 0.49711 -0.00013 0.0
H377 H 0.78883 0.48246 0.96089 0.0
H378 H 0.83287 0.62196 0.00686 0.0
H379 H 0.78124 0.63688 0.04004 0.0
C380 C 0.91669 0.55409 0.02416 0.0
C381 C 0.91287 0.5284 0.94118 0.0
C382 C 0.8852 0.56187 0.0366 0.0
C383 C 0.84887 0.54274 0.96826 0.0
C384 C 0.84497 0.5162 0.88633 0.0
C385 C 0.87648 0.50943 0.8727 0.0
C386 C 0.75767 0.52472 -0.00045 0.0
C387 C 0.75532 0.56821 0.0255 0.0
C388 C 0.78723 0.51629 0.9778 0.0
C389 C 0.81545 0.55105 0.98269 0.0
C390 C 0.81217 0.59438 0.00443 0.0
C391 C 0.78243 0.60281 0.02397 0.0
H392 H 0.1655 0.76377 0.07505 0.0
H393 H 0.10766 0.83251 0.84379 0.0
H394 H 0.22464 0.7953 0.07281 0.0
H395 H 0.16658 0.86308 0.83897 0.0
H396 H 0.28141 0.93295 0.88756 0.0
H397 H 0.22604 0.91143 0.91531 0.0
H398 H 0.25473 0.78446 0.97231 0.0
H399 H 0.31109 0.80695 0.95039 0.0
C400 C 0.16556 0.78582 0.02397 0.0
C401 C 0.13207 0.79551 0.95916 0.0
C402 C 0.19937 0.8037 0.02224 0.0
C403 C 0.2004 0.83128 0.95484 0.0
C404 C 0.16696 0.84236 0.89253 0.0
C405 C 0.13315 0.82481 0.89501 0.0
C406 C 0.27631 0.90078 0.90796 0.0
C407 C 0.3007 0.87163 0.91639 0.0
C408 C 0.24426 0.88822 0.92266 0.0
C409 C 0.23574 0.84613 0.94569 0.0
C410 C 0.26055 0.81735 0.95592 0.0
C411 C 0.29267 0.83001 0.94189 0.0
H412 H 0.54116 0.41076 0.16687 0.0
H413 H 0.50407 0.40264 0.86408 0.0
H414 H 0.53937 0.33192 0.15653 0.0
H415 H 0.50086 0.32256 0.85173 0.0
H416 H 0.52073 0.17794 0.8506 0.0
H417 H 0.51774 0.25604 0.85572 0.0
H418 H 0.52272 0.25862 0.13863 0.0
H419 H 0.52689 0.18066 0.13309 0.0
C420 C 0.5317 0.39206 0.09683 0.0
C421 C 0.52151 0.41474 0.01636 0.0
C422 C 0.53055 0.34558 0.09053 0.0
C423 C 0.51968 0.31779 0.00295 0.0
C424 C 0.50973 0.3407 0.92182 0.0
C425 C 0.51099 0.3876 0.92842 0.0
C426 C 0.52063 0.19486 0.91378 0.0
C427 C 0.52273 0.17088 0.98987 0.0
C428 C 0.51888 0.24075 0.91701 0.0
C429 C 0.51987 0.26659 -0.00231 0.0
C430 C 0.52214 0.24228 0.07427 0.0
C431 C 0.52391 0.19624 0.07083 0.0
loop_
_geom_bond_atom_site_label_1
_geom_bond_atom_site_label_2
_geom_bond_distance
_geom_bond_site_symmetry_2
_ccdc_geom_bond_type
Gd0 N31 2.661 1_454 S
Gd0 N37 2.601 . S
Gd0 O44 2.545 . S
Gd0 O45 2.606 . S
Gd0 O47 2.429 . S
Gd0 O48 2.545 . S
Gd0 O49 2.412 1_554 S
Gd0 O51 2.362 1_454 S
Gd0 O52 2.320 1_554 S
Gd0 C59 2.828 . S
Gd1 N10 2.661 1_656 S
Gd1 N14 2.601 . S
Gd1 O45 2.362 1_656 S
Gd1 O46 2.320 1_556 S
Gd1 O50 2.545 . S
Gd1 O51 2.606 . S
Gd1 O53 2.429 . S
Gd1 O54 2.545 . S
Gd1 O55 2.412 1_556 S
Gd1 C68 2.828 . S
C2 C5 1.416 1_554 S
C2 C7 1.431 1_554 S
C2 C8 1.412 . S
C3 C6 1.437 . S
C3 C7 1.317 . S
C3 H22 0.929 . S
C4 C5 1.431 . S
C4 C6 1.413 . S
C4 N14 1.359 1_455 S
C5 C2 1.416 1_556 S
C5 C4 1.431 . S
C5 N10 1.347 1_556 S
C6 C3 1.437 . S
C6 C4 1.413 . S
C6 C16 1.391 1_455 S
C7 C2 1.431 1_556 S
C7 C3 1.317 . S
C7 H18 0.930 1_556 S
C8 C2 1.412 . S
C8 C9 1.355 . S
C8 H20 0.930 . S
C9 C8 1.355 . S
C9 C11 1.402 . S
C9 H21 0.930 . S
N10 Gd1 2.661 1_454 S
N10 C5 1.347 1_554 S
N10 C11 1.307 . S
C11 C9 1.402 . S
C11 N10 1.307 . S
C11 H12 0.930 . S
H12 C11 0.930 . S
C13 N14 1.334 . S
C13 C15 1.394 . S
C13 H17 0.930 . S
N14 Gd1 2.601 . S
N14 C4 1.359 1_655 S
N14 C13 1.334 . S
C15 C13 1.394 . S
C15 C16 1.359 . S
C15 H27 0.930 . S
C16 C6 1.391 1_655 S
C16 C15 1.359 . S
C16 H28 0.946 . S
H17 C13 0.930 . S
H18 C7 0.930 1_554 S
H19 C36 0.930 . S
H20 C8 0.930 . S
H21 C9 0.930 . S
H22 C3 0.929 . S
H23 C41 0.930 . S
H24 C32 0.930 . S
H25 C33 0.930 . S
H26 C57 0.929 . S
H27 C15 0.930 . S
H28 C16 0.946 . S
H29 C58 0.930 1_556 S
H30 C39 0.930 . S
N31 Gd0 2.661 1_656 S
N31 C35 1.345 1_556 S
N31 C36 1.307 . S
C32 H24 0.930 . S
C32 C33 1.355 . S
C32 C34 1.412 . S
C33 H25 0.930 . S
C33 C32 1.355 . S
C33 C36 1.402 . S
C34 C32 1.412 . S
C34 C35 1.415 1_556 S
C34 C58 1.431 1_556 S
C35 N31 1.345 1_554 S
C35 C34 1.415 1_554 S
C35 C38 1.434 . S
C36 H19 0.930 . S
C36 N31 1.307 . S
C36 C33 1.402 . S
N37 Gd0 2.601 . S
N37 C38 1.359 1_455 S
N37 C41 1.334 . S
C38 C35 1.434 . S
C38 N37 1.359 1_655 S
C38 C42 1.413 . S
C39 H30 0.930 . S
C39 C40 1.359 . S
C39 C41 1.394 . S
C40 C39 1.359 . S
C40 C42 1.391 1_455 S
C40 H43 0.929 . S
C41 H23 0.930 . S
C41 N37 1.334 . S
C41 C39 1.394 . S
C42 C38 1.413 . S
C42 C40 1.391 1_655 S
C42 C57 1.437 . S
H43 C40 0.929 . S
O44 Gd0 2.545 . S
O44 C59 1.258 . S
O45 Gd0 2.606 . S
O45 Gd1 2.362 1_454 S
O45 C56 1.284 . S
O46 Gd1 2.320 1_554 S
O46 C66 1.257 1_655 S
O47 Gd0 2.429 . S
O47 C66 1.268 . S
O48 Gd0 2.545 . S
O48 C56 1.250 . S
O49 Gd0 2.412 1_556 S
O49 C59 1.252 1_556 S
O50 Gd1 2.545 . S
O50 C68 1.258 . S
O51 Gd0 2.362 1_656 S
O51 Gd1 2.606 . S
O51 C67 1.284 . S
O52 Gd0 2.320 1_556 S
O52 C75 1.258 1_455 S
O53 Gd1 2.429 . S
O53 C75 1.268 . S
O54 Gd1 2.545 . S
O54 C67 1.250 . S
O55 Gd1 2.412 1_554 S
O55 C68 1.252 1_554 S
C56 O45 1.284 . S
C56 O48 1.250 . S
C57 H26 0.929 . S
C57 C42 1.437 . S
C57 C58 1.317 . S
C58 H29 0.930 1_554 S
C58 C34 1.431 1_554 S
C58 C57 1.317 . S
C59 Gd0 2.828 . S
C59 O44 1.258 . S
C59 O49 1.252 1_554 S
C59 C60 1.497 . S
C60 C59 1.497 . S
C60 C61 1.395 . S
C60 C62 1.384 . S
C61 C60 1.395 . S
C61 C64 1.398 . S
C61 H76 0.930 . S
C62 C60 1.384 . S
C62 C63 1.390 . S
C62 H77 0.928 1_554 S
C63 C62 1.390 . S
C63 C65 1.387 . S
C64 C61 1.398 . S
C64 C65 1.380 . S
C64 H78 0.930 . S
C65 C63 1.387 . S
C65 C64 1.380 . S
C65 H79 0.930 . S
C66 O46 1.257 1_455 S
C66 O47 1.268 . S
C67 O51 1.284 . S
C67 O54 1.250 . S
C68 Gd1 2.828 . S
C68 O50 1.258 . S
C68 O55 1.252 1_556 S
C68 C69 1.497 . S
C69 C68 1.497 . S
C69 C70 1.395 . S
C69 C71 1.381 . S
C70 C69 1.395 . S
C70 C73 1.398 . S
C70 H80 0.930 . S
C71 C69 1.381 . S
C71 C72 1.391 . S
C71 H81 0.930 1_556 S
C72 C71 1.391 . S
C72 C74 1.387 . S
C73 C70 1.398 . S
C73 C74 1.380 . S
C73 H82 0.930 . S
C74 C72 1.387 . S
C74 C73 1.380 . S
C74 H83 0.930 . S
C75 O52 1.258 1_655 S
C75 O53 1.268 . S
H76 C61 0.930 . S
H77 C62 0.928 1_556 S
H78 C64 0.930 . S
H79 C65 0.930 . S
H80 C70 0.930 . S
H81 C71 0.930 1_554 S
H82 C73 0.930 . S
H83 C74 0.930 . S
Gd84 N115 2.661 1_565 S
Gd84 N121 2.601 1_565 S
Gd84 O128 2.545 . S
Gd84 O129 2.606 1_556 S
Gd84 O131 2.429 . S
Gd84 O132 2.545 . S
Gd84 O133 2.412 . S
Gd84 O135 2.362 1_565 S
Gd84 O136 2.324 1_556 S
Gd84 C143 2.828 . S
Gd85 N94 2.661 1_545 S
Gd85 N98 2.601 1_545 S
Gd85 O129 2.362 1_545 S
Gd85 O130 2.324 1_554 S
Gd85 O134 2.545 . S
Gd85 O135 2.606 1_554 S
Gd85 O137 2.429 . S
Gd85 O138 2.545 . S
Gd85 O139 2.412 . S
Gd85 C152 2.828 . S
C86 C89 1.417 . S
C86 C91 1.431 . S
C86 C92 1.412 1_554 S
C87 C90 1.437 . S
C87 C91 1.317 . S
C87 H106 0.929 . S
C88 C89 1.426 . S
C88 C90 1.413 . S
C88 N98 1.359 . S
C89 C86 1.417 . S
C89 C88 1.426 . S
C89 N94 1.350 . S
C90 C87 1.437 . S
C90 C88 1.413 . S
C90 C100 1.391 . S
C91 C86 1.431 . S
C91 C87 1.317 . S
C91 H102 0.930 . S
C92 C86 1.412 1_556 S
C92 C93 1.355 . S
C92 H104 0.930 . S
C93 C92 1.355 . S
C93 C95 1.402 . S
C93 H105 0.930 . S
N94 Gd85 2.661 1_565 S
N94 C89 1.350 . S
N94 C95 1.307 1_554 S
C95 C93 1.402 . S
C95 N94 1.307 1_556 S
C95 H96 0.930 . S
H96 C95 0.930 . S
C97 N98 1.334 1_545 S
C97 C99 1.395 1_545 S
C97 H101 0.930 . S
N98 Gd85 2.601 1_565 S
N98 C88 1.359 . S
N98 C97 1.334 1_565 S
C99 C97 1.395 1_565 S
C99 C100 1.357 . S
C99 H111 0.931 1_565 S
C100 C90 1.391 . S
C100 C99 1.357 . S
C100 H112 0.929 . S
H101 C97 0.930 . S
H102 C91 0.930 . S
H103 C120 0.930 . S
H104 C92 0.930 . S
H105 C93 0.930 . S
H106 C87 0.929 . S
H107 C125 0.930 . S
H108 C116 0.930 . S
H109 C117 0.930 . S
H110 C141 0.929 . S
H111 C99 0.931 1_545 S
H112 C100 0.929 . S
H113 C142 0.930 . S
H114 C123 0.928 1_565 S
N115 Gd84 2.661 1_545 S
N115 C119 1.350 . S
N115 C120 1.307 1_556 S
C116 H108 0.930 . S
C116 C117 1.355 . S
C116 C118 1.412 1_554 S
C117 H109 0.930 . S
C117 C116 1.355 . S
C117 C120 1.402 . S
C118 C116 1.412 1_556 S
C118 C119 1.417 . S
C118 C142 1.431 . S
C119 N115 1.350 . S
C119 C118 1.417 . S
C119 C122 1.426 . S
C120 H103 0.930 . S
C120 N115 1.307 1_554 S
C120 C117 1.402 . S
N121 Gd84 2.601 1_545 S
N121 C122 1.359 . S
N121 C125 1.334 1_545 S
C122 C119 1.426 . S
C122 N121 1.359 . S
C122 C126 1.413 . S
C123 H114 0.928 1_545 S
C123 C124 1.363 . S
C123 C125 1.392 1_545 S
C124 C123 1.363 . S
C124 C126 1.391 . S
C124 H127 0.929 . S
C125 H107 0.930 . S
C125 N121 1.334 1_565 S
C125 C123 1.392 1_565 S
C126 C122 1.413 . S
C126 C124 1.391 . S
C126 C141 1.437 . S
H127 C124 0.929 . S
O128 Gd84 2.545 . S
O128 C143 1.258 . S
O129 Gd84 2.606 1_554 S
O129 Gd85 2.362 1_565 S
O129 C140 1.284 . S
O130 Gd85 2.324 1_556 S
O130 C150 1.253 . S
O131 Gd84 2.429 . S
O131 C150 1.265 1_565 S
O132 Gd84 2.545 . S
O132 C140 1.250 1_556 S
O133 Gd84 2.412 . S
O133 C143 1.252 . S
O134 Gd85 2.545 . S
O134 C152 1.258 . S
O135 Gd84 2.362 1_545 S
O135 Gd85 2.606 1_556 S
O135 C151 1.284 . S
O136 Gd84 2.324 1_554 S
O136 C159 1.253 . S
O137 Gd85 2.429 . S
O137 C159 1.267 1_545 S
O138 Gd85 2.545 . S
O138 C151 1.250 1_554 S
O139 Gd85 2.412 . S
O139 C152 1.252 . S
C140 O129 1.284 . S
C140 O132 1.250 1_554 S
C141 H110 0.929 . S
C141 C126 1.437 . S
C141 C142 1.317 . S
C142 H113 0.930 . S
C142 C118 1.431 . S
C142 C141 1.317 . S
C143 Gd84 2.828 . S
C143 O128 1.258 . S
C143 O133 1.252 . S
C143 C144 1.497 . S
C144 C143 1.497 . S
C144 C145 1.395 . S
C144 C146 1.380 . S
C145 C144 1.395 . S
C145 C148 1.398 . S
C145 H160 0.930 . S
C146 C144 1.380 . S
C146 C147 1.391 . S
C146 H161 0.930 1_556 S
C147 C146 1.391 . S
C147 C149 1.387 . S
C148 C145 1.398 . S
C148 C149 1.380 . S
C148 H162 0.930 . S
C149 C147 1.387 . S
C149 C148 1.380 . S
C149 H163 0.930 . S
C150 O130 1.253 . S
C150 O131 1.265 1_545 S
C151 O135 1.284 . S
C151 O138 1.250 1_556 S
C152 Gd85 2.828 . S
C152 O134 1.258 . S
C152 O139 1.252 . S
C152 C153 1.497 . S
C153 C152 1.497 . S
C153 C154 1.395 . S
C153 C155 1.380 . S
C154 C153 1.395 . S
C154 C157 1.398 . S
C154 H164 0.930 . S
C155 C153 1.380 . S
C155 C156 1.391 . S
C155 H165 0.930 1_554 S
C156 C155 1.391 . S
C156 C158 1.387 . S
C157 C154 1.398 . S
C157 C158 1.380 . S
C157 H166 0.930 . S
C158 C156 1.387 . S
C158 C157 1.380 . S
C158 H167 0.930 . S
C159 O136 1.253 . S
C159 O137 1.267 1_565 S
H160 C145 0.930 . S
H161 C146 0.930 1_554 S
H162 C148 0.930 . S
H163 C149 0.930 . S
H164 C154 0.930 . S
H165 C155 0.930 1_556 S
H166 C157 0.930 . S
H167 C158 0.930 . S
Gd168 N199 2.661 . S
Gd168 N205 2.601 . S
Gd168 O212 2.545 . S
Gd168 O213 2.606 1_554 S
Gd168 O215 2.429 . S
Gd168 O216 2.545 . S
Gd168 O217 2.412 . S
Gd168 O219 2.362 . S
Gd168 O220 2.324 1_554 S
Gd168 C227 2.828 . S
Gd169 N178 2.661 . S
Gd169 N182 2.601 . S
Gd169 O213 2.362 . S
Gd169 O214 2.324 1_556 S
Gd169 O218 2.545 . S
Gd169 O219 2.606 1_556 S
Gd169 O221 2.429 . S
Gd169 O222 2.545 . S
Gd169 O223 2.412 . S
Gd169 C236 2.828 . S
C170 C173 1.417 . S
C170 C175 1.431 . S
C170 C176 1.412 1_556 S
C171 C174 1.437 . S
C171 C175 1.317 . S
C171 H190 0.929 . S
C172 C173 1.426 . S
C172 C174 1.413 . S
C172 N182 1.359 . S
C173 C170 1.417 . S
C173 C172 1.426 . S
C173 N178 1.350 . S
C174 C171 1.437 . S
C174 C172 1.413 . S
C174 C184 1.391 . S
C175 C170 1.431 . S
C175 C171 1.317 . S
C175 H186 0.930 . S
C176 C170 1.412 1_554 S
C176 C177 1.355 . S
C176 H188 0.930 . S
C177 C176 1.355 . S
C177 C179 1.402 . S
C177 H189 0.930 . S
N178 Gd169 2.661 . S
N178 C173 1.350 . S
N178 C179 1.307 1_556 S
C179 C177 1.402 . S
C179 N178 1.307 1_554 S
C179 H180 0.930 . S
H180 C179 0.930 . S
C181 N182 1.334 . S
C181 C183 1.394 . S
C181 H185 0.930 . S
N182 Gd169 2.601 . S
N182 C172 1.359 . S
N182 C181 1.334 . S
C183 C181 1.394 . S
C183 C184 1.359 . S
C183 H195 0.930 . S
C184 C174 1.391 . S
C184 C183 1.359 . S
C184 H196 0.929 . S
H185 C181 0.930 . S
H186 C175 0.930 . S
H187 C204 0.930 . S
H188 C176 0.930 . S
H189 C177 0.930 . S
H190 C171 0.929 . S
H191 C209 0.930 . S
H192 C200 0.930 . S
H193 C201 0.930 . S
H194 C225 0.929 . S
H195 C183 0.930 . S
H196 C184 0.929 . S
H197 C226 0.930 . S
H198 C207 0.930 . S
N199 Gd168 2.661 . S
N199 C203 1.350 . S
N199 C204 1.307 1_554 S
C200 H192 0.930 . S
C200 C201 1.355 . S
C200 C202 1.412 1_556 S
C201 H193 0.930 . S
C201 C200 1.355 . S
C201 C204 1.402 . S
C202 C200 1.412 1_554 S
C202 C203 1.417 . S
C202 C226 1.431 . S
C203 N199 1.350 . S
C203 C202 1.417 . S
C203 C206 1.426 . S
C204 H187 0.930 . S
C204 N199 1.307 1_556 S
C204 C201 1.402 . S
N205 Gd168 2.601 . S
N205 C206 1.359 . S
N205 C209 1.334 . S
C206 C203 1.426 . S
C206 N205 1.359 . S
C206 C210 1.413 . S
C207 H198 0.930 . S
C207 C208 1.359 . S
C207 C209 1.394 . S
C208 C207 1.359 . S
C208 C210 1.391 . S
C208 H211 0.929 . S
C209 H191 0.930 . S
C209 N205 1.334 . S
C209 C207 1.394 . S
C210 C206 1.413 . S
C210 C208 1.391 . S
C210 C225 1.437 . S
H211 C208 0.929 . S
O212 Gd168 2.545 . S
O212 C227 1.258 . S
O213 Gd168 2.606 1_556 S
O213 Gd169 2.362 . S
O213 C224 1.284 . S
O214 Gd169 2.324 1_554 S
O214 C234 1.254 . S
O215 Gd168 2.429 . S
O215 C234 1.268 . S
O216 Gd168 2.545 . S
O216 C224 1.250 1_554 S
O217 Gd168 2.412 . S
O217 C227 1.252 . S
O218 Gd169 2.545 . S
O218 C236 1.258 . S
O219 Gd168 2.362 . S
O219 Gd169 2.606 1_554 S
O219 C235 1.284 . S
O220 Gd168 2.324 1_556 S
O220 C243 1.254 . S
O221 Gd169 2.429 . S
O221 C243 1.268 . S
O222 Gd169 2.545 . S
O222 C235 1.250 1_556 S
O223 Gd169 2.412 . S
O223 C236 1.252 . S
C224 O213 1.284 . S
C224 O216 1.250 1_556 S
C225 H194 0.929 . S
C225 C210 1.437 . S
C225 C226 1.317 . S
C226 H197 0.930 . S
C226 C202 1.431 . S
C226 C225 1.317 . S
C227 Gd168 2.828 . S
C227 O212 1.258 . S
C227 O217 1.252 . S
C227 C228 1.497 . S
C228 C227 1.497 . S
C228 C229 1.395 . S
C228 C230 1.380 . S
C229 C228 1.395 . S
C229 C232 1.398 . S
C229 H244 0.930 . S
C230 C228 1.380 . S
C230 C231 1.391 . S
C230 H245 0.930 1_554 S
C231 C230 1.391 . S
C231 C233 1.387 . S
C232 C229 1.398 . S
C232 C233 1.380 . S
C232 H246 0.930 . S
C233 C231 1.387 . S
C233 C232 1.380 . S
C233 H247 0.930 . S
C234 O214 1.254 . S
C234 O215 1.268 . S
C235 O219 1.284 . S
C235 O222 1.250 1_554 S
C236 Gd169 2.828 . S
C236 O218 1.258 . S
C236 O223 1.252 . S
C236 C237 1.497 . S
C237 C236 1.497 . S
C237 C238 1.395 . S
C237 C239 1.380 . S
C238 C237 1.395 . S
C238 C241 1.398 . S
C238 H248 0.930 . S
C239 C237 1.380 . S
C239 C240 1.391 . S
C239 H249 0.930 1_556 S
C240 C239 1.391 . S
C240 C242 1.387 . S
C241 C238 1.398 . S
C241 C242 1.380 . S
C241 H250 0.930 . S
C242 C240 1.387 . S
C242 C241 1.380 . S
C242 H251 0.930 . S
C243 O220 1.254 . S
C243 O221 1.268 . S
H244 C229 0.930 . S
H245 C230 0.930 1_556 S
H246 C232 0.930 . S
H247 C233 0.930 . S
H248 C238 0.930 . S
H249 C239 0.930 1_554 S
H250 C241 0.930 . S
H251 C242 0.930 . S
H252 C260 0.950 . S
H253 C265 0.950 . S
H254 C262 0.950 . S
H255 C264 0.950 . S
H256 C266 0.950 . S
H257 C268 0.950 . S
H258 C270 0.950 . S
H259 C271 0.950 . S
C260 H252 0.950 . S
C260 C261 1.386 . S
C260 C262 1.391 . S
C261 C260 1.386 . S
C261 C265 1.393 1_655 S
C262 H254 0.950 . S
C262 C260 1.391 . S
C262 C263 1.401 . S
C263 C262 1.401 . S
C263 C264 1.398 1_655 S
C263 C269 1.486 1_655 S
C264 H255 0.950 . S
C264 C263 1.398 1_455 S
C264 C265 1.391 . S
C265 H253 0.950 . S
C265 C261 1.393 1_455 S
C265 C264 1.391 . S
C266 H256 0.950 . S
C266 C267 1.386 . S
C266 C268 1.391 . S
C267 C266 1.386 . S
C267 C271 1.393 1_455 S
C268 H257 0.950 . S
C268 C266 1.391 . S
C268 C269 1.409 . S
C269 C263 1.486 1_455 S
C269 C268 1.409 . S
C269 C270 1.393 1_455 S
C270 H258 0.950 . S
C270 C269 1.393 1_655 S
C270 C271 1.391 . S
C271 H259 0.950 . S
C271 C267 1.393 1_655 S
C271 C270 1.391 . S
H272 C280 0.950 . S
H273 C285 0.950 . S
H274 C282 0.950 . S
H275 C284 0.950 . S
H276 C286 0.950 . S
H277 C288 0.950 . S
H278 C290 0.950 . S
H279 C291 0.950 . S
C280 H272 0.950 . S
C280 C281 1.386 . S
C280 C282 1.391 . S
C281 C280 1.386 . S
C281 C285 1.393 1_565 S
C282 H274 0.950 . S
C282 C280 1.391 . S
C282 C283 1.400 . S
C283 C282 1.400 . S
C283 C284 1.398 1_565 S
C283 C289 1.491 1_565 S
C284 H275 0.950 . S
C284 C283 1.398 1_545 S
C284 C285 1.391 . S
C285 H273 0.950 . S
C285 C281 1.393 1_545 S
C285 C284 1.391 . S
C286 H276 0.950 . S
C286 C287 1.386 . S
C286 C288 1.391 . S
C287 C286 1.386 . S
C287 C291 1.393 1_545 S
C288 H277 0.950 . S
C288 C286 1.391 . S
C288 C289 1.400 . S
C289 C283 1.491 1_545 S
C289 C288 1.400 . S
C289 C290 1.398 1_545 S
C290 H278 0.950 . S
C290 C289 1.398 1_565 S
C290 C291 1.391 . S
C291 H279 0.950 . S
C291 C287 1.393 1_565 S
C291 C290 1.391 . S
H292 C300 0.950 . S
H293 C305 0.950 . S
H294 C302 0.950 . S
H295 C304 0.950 . S
H296 C306 0.950 . S
H297 C308 0.950 . S
H298 C310 0.950 . S
H299 C311 0.950 . S
C300 H292 0.950 . S
C300 C301 1.386 . S
C300 C302 1.391 . S
C301 C300 1.386 . S
C301 C305 1.393 . S
C302 H294 0.950 . S
C302 C300 1.391 . S
C302 C303 1.400 . S
C303 C302 1.400 . S
C303 C304 1.398 . S
C303 C309 1.491 . S
C304 H295 0.950 . S
C304 C303 1.398 . S
C304 C305 1.391 . S
C305 H293 0.950 . S
C305 C301 1.393 . S
C305 C304 1.391 . S
C306 H296 0.950 . S
C306 C307 1.386 . S
C306 C308 1.391 . S
C307 C306 1.386 . S
C307 C311 1.393 . S
C308 H297 0.950 . S
C308 C306 1.391 . S
C308 C309 1.400 . S
C309 C303 1.491 . S
C309 C308 1.400 . S
C309 C310 1.398 . S
C310 H298 0.950 . S
C310 C309 1.398 . S
C310 C311 1.391 . S
C311 H299 0.950 . S
C311 C307 1.393 . S
C311 C310 1.391 . S
H312 C320 0.950 . S
H313 C325 0.950 . S
H314 C322 0.950 . S
H315 C324 0.950 . S
H316 C326 0.950 . S
H317 C328 0.950 . S
H318 C330 0.950 . S
H319 C331 0.950 . S
C320 H312 0.950 . S
C320 C321 1.386 . S
C320 C322 1.391 . S
C321 C320 1.386 . S
C321 C325 1.393 1_554 S
C322 H314 0.950 . S
C322 C320 1.391 . S
C322 C323 1.400 . S
C323 C322 1.400 . S
C323 C324 1.398 1_554 S
C323 C329 1.491 . S
C324 H315 0.950 . S
C324 C323 1.398 1_556 S
C324 C325 1.391 . S
C325 H313 0.950 . S
C325 C321 1.393 1_556 S
C325 C324 1.391 . S
C326 H316 0.950 . S
C326 C327 1.386 . S
C326 C328 1.391 . S
C327 C326 1.386 . S
C327 C331 1.393 1_556 S
C328 H317 0.950 . S
C328 C326 1.391 . S
C328 C329 1.400 1_556 S
C329 C323 1.491 . S
C329 C328 1.400 1_554 S
C329 C330 1.398 . S
C330 H318 0.950 . S
C330 C329 1.398 . S
C330 C331 1.391 . S
C331 H319 0.950 . S
C331 C327 1.393 1_554 S
C331 C330 1.391 . S
H332 C340 0.950 . S
H333 C345 0.950 . S
H334 C342 0.950 . S
H335 C344 0.950 . S
H336 C346 0.950 . S
H337 C348 0.950 . S
H338 C350 0.950 1_556 S
H339 C351 0.950 1_556 S
C340 H332 0.950 . S
C340 C341 1.386 1_556 S
C340 C342 1.391 . S
C341 C340 1.386 1_554 S
C341 C345 1.393 . S
C342 H334 0.950 . S
C342 C340 1.391 . S
C342 C343 1.400 1_556 S
C343 C342 1.400 1_554 S
C343 C344 1.398 . S
C343 C349 1.491 . S
C344 H335 0.950 . S
C344 C343 1.398 . S
C344 C345 1.391 . S
C345 H333 0.950 . S
C345 C341 1.393 . S
C345 C344 1.391 . S
C346 H336 0.950 . S
C346 C347 1.386 . S
C346 C348 1.391 . S
C347 C346 1.386 . S
C347 C351 1.393 . S
C348 H337 0.950 . S
C348 C346 1.391 . S
C348 C349 1.400 . S
C349 C343 1.491 . S
C349 C348 1.400 . S
C349 C350 1.398 . S
C350 H338 0.950 1_554 S
C350 C349 1.398 . S
C350 C351 1.391 . S
C351 H339 0.950 1_554 S
C351 C347 1.393 . S
C351 C350 1.391 . S
H352 C360 0.950 . S
H353 C365 0.950 . S
H354 C362 0.950 . S
H355 C364 0.950 . S
H356 C366 0.950 . S
H357 C368 0.950 . S
H358 C370 0.950 . S
H359 C371 0.950 . S
C360 H352 0.950 . S
C360 C361 1.386 1_556 S
C360 C362 1.391 . S
C361 C360 1.386 1_554 S
C361 C365 1.393 . S
C362 H354 0.950 . S
C362 C360 1.391 . S
C362 C363 1.400 1_556 S
C363 C362 1.400 1_554 S
C363 C364 1.398 . S
C363 C369 1.491 . S
C364 H355 0.950 . S
C364 C363 1.398 . S
C364 C365 1.391 . S
C365 H353 0.950 . S
C365 C361 1.393 . S
C365 C364 1.391 . S
C366 H356 0.950 . S
C366 C367 1.386 . S
C366 C368 1.391 . S
C367 C366 1.386 . S
C367 C371 1.393 1_554 S
C368 H357 0.950 . S
C368 C366 1.391 . S
C368 C369 1.400 . S
C369 C363 1.491 . S
C369 C368 1.400 . S
C369 C370 1.398 1_554 S
C370 H358 0.950 . S
C370 C369 1.398 1_556 S
C370 C371 1.391 . S
C371 H359 0.950 . S
C371 C367 1.393 1_556 S
C371 C370 1.391 . S
H372 C380 0.950 . S
H373 C385 0.950 . S
H374 C382 0.950 . S
H375 C384 0.950 . S
H376 C386 0.950 . S
H377 C388 0.950 . S
H378 C390 0.950 . S
H379 C391 0.950 . S
C380 H372 0.950 . S
C380 C381 1.386 1_554 S
C380 C382 1.391 . S
C381 C380 1.386 1_556 S
C381 C385 1.393 . S
C382 H374 0.950 . S
C382 C380 1.391 . S
C382 C383 1.400 1_554 S
C383 C382 1.400 1_556 S
C383 C384 1.398 . S
C383 C389 1.491 . S
C384 H375 0.950 . S
C384 C383 1.398 . S
C384 C385 1.391 . S
C385 H373 0.950 . S
C385 C381 1.393 . S
C385 C384 1.391 . S
C386 H376 0.950 . S
C386 C387 1.386 1_556 S
C386 C388 1.391 . S
C387 C386 1.386 1_554 S
C387 C391 1.393 . S
C388 H377 0.950 . S
C388 C386 1.391 . S
C388 C389 1.400 . S
C389 C383 1.491 . S
C389 C388 1.400 . S
C389 C390 1.398 1_556 S
C390 H378 0.950 . S
C390 C389 1.398 1_554 S
C390 C391 1.391 . S
C391 H379 0.950 . S
C391 C387 1.393 . S
C391 C390 1.391 . S
H392 C400 0.950 . S
H393 C405 0.950 . S
H394 C402 0.950 . S
H395 C404 0.950 . S
H396 C406 0.950 . S
H397 C408 0.950 . S
H398 C410 0.950 . S
H399 C411 0.950 . S
C400 H392 0.950 . S
C400 C401 1.386 1_554 S
C400 C402 1.391 . S
C401 C400 1.386 1_556 S
C401 C405 1.393 . S
C402 H394 0.950 . S
C402 C400 1.391 . S
C402 C403 1.400 1_554 S
C403 C402 1.400 1_556 S
C403 C404 1.398 . S
C403 C409 1.491 . S
C404 H395 0.950 . S
C404 C403 1.398 . S
C404 C405 1.391 . S
C405 H393 0.950 . S
C405 C401 1.393 . S
C405 C404 1.391 . S
C406 H396 0.950 . S
C406 C407 1.386 . S
C406 C408 1.391 . S
C407 C406 1.386 . S
C407 C411 1.393 1_556 S
C408 H397 0.950 . S
C408 C406 1.391 . S
C408 C409 1.400 . S
C409 C403 1.491 . S
C409 C408 1.400 . S
C409 C410 1.398 1_556 S
C410 H398 0.950 . S
C410 C409 1.398 1_554 S
C410 C411 1.391 . S
C411 H399 0.950 . S
C411 C407 1.393 1_554 S
C411 C410 1.391 . S
H412 C420 0.950 . S
H413 C425 0.950 . S
H414 C422 0.950 . S
H415 C424 0.950 . S
H416 C426 0.950 . S
H417 C428 0.950 . S
H418 C430 0.950 . S
H419 C431 0.950 . S
C420 H412 0.950 . S
C420 C421 1.386 1_554 S
C420 C422 1.391 . S
C421 C420 1.386 1_556 S
C421 C425 1.393 . S
C422 H414 0.950 . S
C422 C420 1.391 . S
C422 C423 1.400 1_554 S
C423 C422 1.400 1_556 S
C423 C424 1.398 . S
C423 C429 1.491 . S
C424 H415 0.950 . S
C424 C423 1.398 . S
C424 C425 1.391 . S
C425 H413 0.950 . S
C425 C421 1.393 . S
C425 C424 1.391 . S
C426 H416 0.950 . S
C426 C427 1.386 . S
C426 C428 1.391 . S
C427 C426 1.386 . S
C427 C431 1.393 1_556 S
C428 H417 0.950 . S
C428 C426 1.391 . S
C428 C429 1.400 . S
C429 C423 1.491 . S
C429 C428 1.400 . S
C429 C430 1.398 1_556 S
C430 H418 0.950 . S
C430 C429 1.398 1_554 S
C430 C431 1.391 . S
C431 H419 0.950 . S
C431 C427 1.393 1_554 S
C431 C430 1.391 . S
C261 C75 1.489 . S
C267 C66 1.489 . S
C281 C159 1.479 . S
C287 C150 1.481 . S
C301 C243 1.502 . S
C307 C234 1.502 . S
C321 C56 1.577 . S
C327 C240 1.479 . S
C341 C156 0.826 . S
C347 C72 0.818 1_554 S
C361 C140 2.316 . S
C367 C235 2.361 . S
C381 C67 1.580 . S
C387 C231 1.492 . S
C401 C63 0.827 1_556 S
C407 C147 0.809 . S
C421 C224 2.367 . S
C427 C151 2.296 . S
