# Generated by pormake.
# Topology whw, (6)-cn, num edge types: 1
# Building blocks:
#     Node 0, Type 0, BuildingBlock: HISSIN_clean_sbu_0, # of connection points: 6
#     Node 1, Type 0, BuildingBlock: HISSIN_clean_sbu_0, # of connection points: 6
#     Node 2, Type 0, BuildingBlock: HISSIN_clean_sbu_0, # of connection points: 6
#     Node 3, Type 0, BuildingBlock: HISSIN_clean_sbu_0, # of connection points: 6
#     Node 4, Type 0, BuildingBlock: HISSIN_clean_sbu_0, # of connection points: 6
#     Node 5, Type 0, BuildingBlock: HISSIN_clean_sbu_0, # of connection points: 6
#     Node 6, Type 0, BuildingBlock: HISSIN_clean_sbu_0, # of connection points: 6
#     Node 7, Type 0, BuildingBlock: HISSIN_clean_sbu_0, # of connection points: 6
#     Node 8, Type 0, BuildingBlock: HISSIN_clean_sbu_0, # of connection points: 6
#     Node 9, Type 0, BuildingBlock: HISSIN_clean_sbu_0, # of connection points: 6
#     Node 10, Type 0, BuildingBlock: HISSIN_clean_sbu_0, # of connection points: 6
#     Node 11, Type 0, BuildingBlock: HISSIN_clean_sbu_0, # of connection points: 6
#     Node 12, Type 0, BuildingBlock: HISSIN_clean_sbu_0, # of connection points: 6
#     Node 13, Type 0, BuildingBlock: HISSIN_clean_sbu_0, # of connection points: 6
#     Node 14, Type 0, BuildingBlock: HISSIN_clean_sbu_0, # of connection points: 6
#     Node 15, Type 0, BuildingBlock: HISSIN_clean_sbu_0, # of connection points: 6
#     Edge 16, Type (0, 0), BuildingBlock: EZIPEK_clean_linker_0, # of connection points: 2
#     Edge 17, Type (0, 0), BuildingBlock: EZIPEK_clean_linker_0, # of connection points: 2
#     Edge 18, Type (0, 0), BuildingBlock: EZIPEK_clean_linker_0, # of connection points: 2
#     Edge 19, Type (0, 0), BuildingBlock: EZIPEK_clean_linker_0, # of connection points: 2
#     Edge 20, Type (0, 0), BuildingBlock: EZIPEK_clean_linker_0, # of connection points: 2
#     Edge 21, Type (0, 0), BuildingBlock: EZIPEK_clean_linker_0, # of connection points: 2
#     Edge 22, Type (0, 0), BuildingBlock: EZIPEK_clean_linker_0, # of connection points: 2
#     Edge 23, Type (0, 0), BuildingBlock: EZIPEK_clean_linker_0, # of connection points: 2
#     Edge 24, Type (0, 0), BuildingBlock: EZIPEK_clean_linker_0, # of connection points: 2
#     Edge 25, Type (0, 0), BuildingBlock: EZIPEK_clean_linker_0, # of connection points: 2
#     Edge 26, Type (0, 0), BuildingBlock: EZIPEK_clean_linker_0, # of connection points: 2
#     Edge 27, Type (0, 0), BuildingBlock: EZIPEK_clean_linker_0, # of connection points: 2
#     Edge 28, Type (0, 0), BuildingBlock: EZIPEK_clean_linker_0, # of connection points: 2
#     Edge 29, Type (0, 0), BuildingBlock: EZIPEK_clean_linker_0, # of connection points: 2
#     Edge 30, Type (0, 0), BuildingBlock: EZIPEK_clean_linker_0, # of connection points: 2
#     Edge 31, Type (0, 0), BuildingBlock: EZIPEK_clean_linker_0, # of connection points: 2
#     Edge 32, Type (0, 0), BuildingBlock: EZIPEK_clean_linker_0, # of connection points: 2
#     Edge 33, Type (0, 0), BuildingBlock: EZIPEK_clean_linker_0, # of connection points: 2
#     Edge 34, Type (0, 0), BuildingBlock: EZIPEK_clean_linker_0, # of connection points: 2
#     Edge 35, Type (0, 0), BuildingBlock: EZIPEK_clean_linker_0, # of connection points: 2
#     Edge 36, Type (0, 0), BuildingBlock: EZIPEK_clean_linker_0, # of connection points: 2
#     Edge 37, Type (0, 0), BuildingBlock: EZIPEK_clean_linker_0, # of connection points: 2
#     Edge 38, Type (0, 0), BuildingBlock: EZIPEK_clean_linker_0, # of connection points: 2
#     Edge 39, Type (0, 0), BuildingBlock: EZIPEK_clean_linker_0, # of connection points: 2
#     Edge 40, Type (0, 0), BuildingBlock: EZIPEK_clean_linker_0, # of connection points: 2
#     Edge 41, Type (0, 0), BuildingBlock: EZIPEK_clean_linker_0, # of connection points: 2
#     Edge 42, Type (0, 0), BuildingBlock: EZIPEK_clean_linker_0, # of connection points: 2
#     Edge 43, Type (0, 0), BuildingBlock: EZIPEK_clean_linker_0, # of connection points: 2
#     Edge 44, Type (0, 0), BuildingBlock: EZIPEK_clean_linker_0, # of connection points: 2
#     Edge 45, Type (0, 0), BuildingBlock: EZIPEK_clean_linker_0, # of connection points: 2
#     Edge 46, Type (0, 0), BuildingBlock: EZIPEK_clean_linker_0, # of connection points: 2
#     Edge 47, Type (0, 0), BuildingBlock: EZIPEK_clean_linker_0, # of connection points: 2
#     Edge 48, Type (0, 0), BuildingBlock: EZIPEK_clean_linker_0, # of connection points: 2
#     Edge 49, Type (0, 0), BuildingBlock: EZIPEK_clean_linker_0, # of connection points: 2
#     Edge 50, Type (0, 0), BuildingBlock: EZIPEK_clean_linker_0, # of connection points: 2
#     Edge 51, Type (0, 0), BuildingBlock: EZIPEK_clean_linker_0, # of connection points: 2
#     Edge 52, Type (0, 0), BuildingBlock: EZIPEK_clean_linker_0, # of connection points: 2
#     Edge 53, Type (0, 0), BuildingBlock: EZIPEK_clean_linker_0, # of connection points: 2
#     Edge 54, Type (0, 0), BuildingBlock: EZIPEK_clean_linker_0, # of connection points: 2
#     Edge 55, Type (0, 0), BuildingBlock: EZIPEK_clean_linker_0, # of connection points: 2
#     Edge 56, Type (0, 0), BuildingBlock: EZIPEK_clean_linker_0, # of connection points: 2
#     Edge 57, Type (0, 0), BuildingBlock: EZIPEK_clean_linker_0, # of connection points: 2
#     Edge 58, Type (0, 0), BuildingBlock: EZIPEK_clean_linker_0, # of connection points: 2
#     Edge 59, Type (0, 0), BuildingBlock: EZIPEK_clean_linker_0, # of connection points: 2
#     Edge 60, Type (0, 0), BuildingBlock: EZIPEK_clean_linker_0, # of connection points: 2
#     Edge 61, Type (0, 0), BuildingBlock: EZIPEK_clean_linker_0, # of connection points: 2
#     Edge 62, Type (0, 0), BuildingBlock: EZIPEK_clean_linker_0, # of connection points: 2
#     Edge 63, Type (0, 0), BuildingBlock: EZIPEK_clean_linker_0, # of connection points: 2
# Relax obj value: 1.169
# Max RMSD: 0.209
# Mean RMSD: 0.209
data_MOF--net-whw--node1-HISSIN_clean_sbu_0--edge1-EZIPEK_clean_linker_0
_symmetry_space_group_name_H-M    P1
_symmetry_Int_Tables_number       1
_symmetry_cell_setting            triclinic
loop_
_symmetry_equiv_pos_as_xyz
'x, y, z'
_cell_length_a     39.060155
_cell_length_b     38.78778
_cell_length_c     19.974479
_cell_angle_alpha  90.548959
_cell_angle_beta   89.809904
_cell_angle_gamma 89.90364
loop_
_atom_site_label
_atom_site_type_symbol
_atom_site_fract_x
_atom_site_fract_y
_atom_site_fract_z
_atom_type_partial_charge
Eu0 Eu 0.00233 0.05614 0.3539 0.0
Eu1 Eu 0.93533 0.06897 0.39999 0.0
C2 C -0.04579 0.00175 0.33754 0.0
C3 C 0.06165 0.01504 1.23424 0.0
C4 C 0.08104 -0.01429 1.21859 0.0
C5 C 0.06087 0.02718 1.11769 0.0
C6 C 0.09202 -0.01764 1.15205 0.0
C7 C 0.04639 0.03252 1.1811 0.0
C8 C 0.09485 0.01342 1.11495 0.0
C9 C 0.05476 0.02498 0.30239 0.0
O10 O -0.03352 0.07663 0.50096 0.0
O11 O 0.02036 0.07406 0.45896 0.0
C12 C 0.00014 0.08093 0.51064 0.0
O13 O -0.0006 0.11096 0.34028 0.0
O14 O 0.90489 0.02617 0.4287 0.0
O15 O 0.8827 0.07838 0.43399 0.0
O16 O -0.04085 0.11923 0.42169 0.0
C17 C -0.01683 0.13058 0.38226 0.0
O18 O -0.02741 0.07915 1.25612 0.0
O19 O 0.92243 0.09742 0.30424 0.0
O20 O 0.94223 0.03033 0.31556 0.0
O21 O 0.05451 0.05808 0.31547 0.0
O22 O 0.02881 0.00891 0.32754 0.0
O23 O -0.02501 0.00815 0.38608 0.0
C24 C 0.8609 0.03269 0.50149 0.0
C25 C 0.86733 0.04735 0.56393 0.0
C26 C 0.83175 -0.01521 0.55295 0.0
C27 C 0.85478 0.03148 0.62083 0.0
C28 C 0.84366 0.00119 0.49606 0.0
C29 C 0.83597 0.0002 0.61623 0.0
C30 C 0.87804 0.04504 0.44259 0.0
C31 C 0.94216 0.09608 1.2506 0.0
H32 H 0.0868 -0.03377 1.2554 0.0
H33 H 0.04782 0.03713 1.07453 0.0
H34 H 0.1025 -0.04187 1.13456 0.0
H35 H 0.02516 0.05017 1.18838 0.0
H36 H 0.88214 0.07086 0.56873 0.0
H37 H 0.81848 -0.03941 0.54676 0.0
H38 H 0.85899 0.04482 0.66784 0.0
H39 H 0.84017 -0.0112 0.44766 0.0
Eu40 Eu 0.06202 0.74054 0.59876 0.0
Eu41 Eu 0.0916 0.67555 0.62987 0.0
C42 C 0.13563 0.71929 0.54596 0.0
C43 C 0.06442 0.83382 0.55387 0.0
C44 C 0.11518 0.83446 0.53637 0.0
C45 C 0.0332 0.83391 0.38811 0.0
C46 C 0.13706 0.835 0.44519 0.0
C47 C 0.02689 0.83634 0.4877 0.0
C48 C 0.10176 0.83858 0.3547 0.0
C49 C 0.05492 0.80735 0.59984 0.0
O50 O 0.09779 0.71463 0.72513 0.0
O51 O 0.05288 0.74904 0.70508 0.0
C52 C 0.07619 0.7397 0.7462 0.0
O53 O 0.02411 0.714 0.66846 0.0
O54 O 0.14428 0.66173 0.64769 0.0
O55 O 0.10541 0.6215 0.64063 0.0
O56 O 0.05169 0.66589 0.70526 0.0
C57 C 0.02659 0.68771 0.71032 0.0
O58 O 0.04021 0.70908 0.50519 0.0
O59 O 0.05323 0.65605 0.54665 0.0
O60 O 0.11541 0.69389 0.53338 0.0
O61 O 0.03085 0.78606 0.5794 0.0
O62 O 0.08147 0.79096 0.62207 0.0
O63 O 0.12151 0.74031 0.58937 0.0
C64 C 0.15265 0.61249 0.70967 0.0
C65 C 0.14577 0.6256 0.77338 0.0
C66 C 0.18549 0.56611 0.7571 0.0
C67 C 0.15748 0.6083 0.82909 0.0
C68 C 0.17353 0.58359 0.70126 0.0
C69 C 0.17609 0.57695 0.82237 0.0
C70 C 0.13758 0.62885 0.65217 0.0
C71 C 0.03779 0.67457 0.49935 0.0
H72 H 0.13189 0.83232 0.57905 0.0
H73 H 0.01361 0.82615 0.34837 0.0
H74 H 0.16501 0.83593 0.4425 0.0
H75 H 0.02351 0.83557 0.43713 0.0
H76 H 0.13003 0.64845 0.78011 0.0
H77 H 0.20028 0.54303 0.74807 0.0
H78 H 0.1492 0.61869 0.87675 0.0
H79 H 0.17956 0.57381 0.65158 0.0
Eu80 Eu 0.40428 0.81105 0.86435 0.0
Eu81 Eu 0.47637 0.83058 0.91398 0.0
C82 C 0.43528 0.8865 0.84395 0.0
C83 C 0.3175 0.81454 0.78194 0.0
C84 C 0.32592 0.86168 0.74323 0.0
C85 C 0.33232 0.76215 0.63494 0.0
C86 C 0.33941 0.87015 0.64662 0.0
C87 C 0.31708 0.7691 0.73193 0.0
C88 C 0.34691 0.81688 0.57447 0.0
C89 C 0.33773 0.81063 0.84265 0.0
O90 O 0.44811 0.82451 1.01736 0.0
O91 O 0.39433 0.821 0.97541 0.0
C92 C 0.41455 0.82022 1.02757 0.0
O93 O 0.41783 0.76793 0.93192 0.0
O94 O 0.52036 0.85643 0.87051 0.0
O95 O 0.52155 0.83966 0.9745 0.0
O96 O 0.47519 0.77704 0.94881 0.0
C97 C 0.44713 0.75952 0.95918 0.0
O98 O 0.43818 0.7796 0.78516 0.0
O99 O 0.49021 0.80072 0.81488 0.0
O100 O 0.44642 0.8799 0.90363 0.0
O101 O 0.35675 0.78292 0.84456 0.0
O102 O 0.35531 0.83787 0.85965 0.0
O103 O 0.42278 0.86003 0.81047 0.0
C104 C 0.55633 0.88673 0.94415 0.0
C105 C 0.54333 0.91027 0.99169 0.0
C106 C 0.6136 0.90353 0.97209 0.0
C107 C 0.5662 0.92682 1.03506 0.0
C108 C 0.59118 0.88718 0.92835 0.0
C109 C 0.60057 0.91639 1.03302 0.0
C110 C 0.53748 0.85571 0.92623 0.0
C111 C 0.47189 0.78154 0.77318 0.0
H112 H 0.3236 0.88357 0.77642 0.0
H113 H 0.33207 0.73787 0.60264 0.0
H114 H 0.34545 0.8983 0.63687 0.0
H115 H 0.32251 0.7593 0.6849 0.0
H116 H 0.51621 0.9111 1.00315 0.0
H117 H 0.64066 0.89786 0.96665 0.0
H118 H 0.556 0.93936 1.07954 0.0
H119 H 0.60152 0.87036 0.88959 0.0
Eu120 Eu 0.36054 0.14205 1.11519 0.0
Eu121 Eu 0.33272 0.21295 1.15477 0.0
C122 C 0.28837 0.16606 1.06452 0.0
C123 C 0.37443 0.05303 1.04905 0.0
C124 C 0.32473 0.05585 1.02269 0.0
C125 C 0.41378 0.06824 0.88841 0.0
C126 C 0.30844 0.06513 0.92881 0.0
C127 C 0.41555 0.05557 0.98765 0.0
C128 C 0.35434 0.0751 0.84309 0.0
C129 C 0.37884 0.07701 1.10397 0.0
O130 O 0.33329 0.18155 1.25763 0.0
O131 O 0.36039 0.13277 1.22444 0.0
C132 C 0.34751 0.15107 0.27251 0.0
O133 O 0.40031 0.16671 1.17763 0.0
O134 O 0.28261 0.22942 1.18697 0.0
O135 O 0.32177 0.26777 1.16235 0.0
O136 O 0.37931 0.21868 1.21424 0.0
C137 C 0.40218 0.19424 1.21603 0.0
O138 O 0.37518 0.17874 1.02213 0.0
O139 O 0.36692 0.23242 1.06738 0.0
O140 O 0.30727 0.19327 1.06027 0.0
O141 O 0.39902 0.1029 1.09116 0.0
O142 O 0.35012 0.0877 1.13001 0.0
O143 O 0.30239 0.14135 1.09891 0.0
C144 C 0.27795 0.28431 1.23674 0.0
C145 C 0.26593 0.27073 0.29707 0.0
C146 C 0.2701 0.34187 0.2797 0.0
C147 C 0.25637 0.29285 0.349 0.0
C148 C 0.278 0.31984 1.22692 0.0
C149 C 0.26116 0.32864 0.34299 0.0
C150 C 0.29043 0.26219 1.18314 0.0
C151 C 0.37787 0.21336 1.01599 0.0
H152 H 0.30562 0.05524 1.06184 0.0
H153 H 0.43583 0.07208 0.8523 0.0
H154 H 0.27935 0.06951 0.92766 0.0
H155 H 0.42127 0.06055 0.93832 0.0
H156 H 0.26458 0.24315 0.30477 0.0
H157 H 0.27397 0.36916 0.27187 0.0
H158 H 0.24671 0.28149 0.39421 0.0
H159 H 0.2862 0.3306 1.17962 0.0
Eu160 Eu 0.03605 0.82232 1.14375 0.0
Eu161 Eu -0.04888 0.82033 1.09694 0.0
C162 C -0.01642 0.88481 1.16484 0.0
C163 C 0.11138 0.84433 1.24104 0.0
C164 C 0.08022 0.8798 0.28523 0.0
C165 C 0.12221 0.78547 0.37915 0.0
C166 C 0.06625 0.87948 0.38492 0.0
C167 C 0.13257 0.8019 0.2837 0.0
C168 C 0.08221 0.82315 0.44725 0.0
C169 C 0.09949 0.83848 1.17384 0.0
O170 O -0.01633 0.80715 0.99778 0.0
O171 O 0.03959 0.82056 1.028 0.0
C172 C 0.01745 0.80917 0.98285 0.0
O173 O 0.04171 0.76601 1.11948 0.0
O174 O 0.92988 0.86772 1.06584 0.0
O175 O 0.89905 0.8186 1.05778 0.0
O176 O -0.00333 0.79174 1.09536 0.0
C177 C 0.00947 0.76285 1.11164 0.0
O178 O -0.00486 0.80041 1.23509 0.0
O179 O 0.93993 0.79161 1.19143 0.0
O180 O -0.03873 0.86059 1.17408 0.0
O181 O 0.0895 0.80696 1.16259 0.0
O182 O 0.07631 0.86055 1.15588 0.0
O183 O 0.01332 0.87665 1.13863 0.0
C184 C 0.87888 0.87083 1.00583 0.0
C185 C 0.89235 0.88581 0.94778 0.0
C186 C 0.82224 0.88788 0.97484 0.0
C187 C 0.86997 0.89905 0.90017 0.0
C188 C 0.84433 0.8745 1.02181 0.0
C189 C 0.83464 0.89557 0.91074 0.0
C190 C 0.90026 0.85284 1.05249 0.0
C191 C -0.03874 0.78895 1.24271 0.0
H192 H 0.07065 0.88615 0.33125 0.0
H193 H 0.12989 0.76025 0.40367 0.0
H194 H 0.04791 0.90142 0.40746 0.0
H195 H 0.13211 0.78877 0.3286 0.0
H196 H 0.91954 0.88468 0.93695 0.0
H197 H 0.79496 0.88624 0.98451 0.0
H198 H 0.87985 0.90593 0.85136 0.0
H199 H 0.83409 0.8648 1.06849 0.0
Eu200 Eu 0.35667 0.74651 0.40762 0.0
Eu201 Eu 0.32644 0.68569 0.37379 0.0
C202 C 0.28369 0.72537 0.45919 0.0
C203 C 0.34706 0.83624 0.46779 0.0
C204 C 0.30431 0.81307 0.5008 0.0
C205 C 0.39122 0.84766 0.62432 0.0
C206 C 0.29488 0.80165 0.59739 0.0
C207 C 0.38568 0.85516 0.52376 0.0
C208 C 0.34095 0.8171 0.67833 0.0
C209 C 0.36028 0.81408 0.41425 0.0
O210 O 0.32894 0.72341 0.27631 0.0
O211 O 0.37623 0.75165 0.30517 0.0
C212 C 0.35416 0.74536 0.25922 0.0
O213 O 0.39653 0.7149 0.34976 0.0
O214 O 0.27334 0.6799 0.3411 0.0
O215 O 0.304 0.63493 0.36715 0.0
O216 O 0.37015 0.66448 0.31994 0.0
C217 C 0.39667 0.68439 0.31885 0.0
O218 O 0.38018 0.71477 0.49958 0.0
O219 O 0.3614 0.66328 0.4603 0.0
O220 O 0.30609 0.7027 0.47481 0.0
O221 O 0.38465 0.79314 0.43264 0.0
O222 O 0.33676 0.79744 0.38111 0.0
O223 O 0.29658 0.74415 0.41138 0.0
C224 C 0.25894 0.62573 0.29373 0.0
C225 C 0.26631 0.63246 1.22636 0.0
C226 C 0.25013 0.56575 0.26833 0.0
C227 C 0.2688 0.60484 1.18133 0.0
C228 C 0.24695 0.59327 0.31262 0.0
C229 C 0.26483 0.57115 1.20545 0.0
C230 C 0.2744 0.64637 0.34631 0.0
C231 C 0.38017 0.68002 0.50632 0.0
H232 H 0.28691 0.80365 0.46407 0.0
H233 H 0.41321 0.85493 0.65873 0.0
H234 H 0.2708 0.78558 0.60373 0.0
H235 H 0.39384 0.85554 0.57296 0.0
H236 H 0.27524 0.65765 1.21117 0.0
H237 H 0.24642 0.53983 0.28685 0.0
H238 H 0.27971 0.60919 1.1322 0.0
H239 H 0.2407 0.58803 0.36446 0.0
Eu240 Eu 0.40587 0.08722 0.66909 0.0
Eu241 Eu 0.47722 0.08089 0.62671 0.0
C242 C 0.44307 0.01966 0.69994 0.0
C243 C 0.32491 0.06727 0.74624 0.0
C244 C 0.35569 0.0287 0.77624 0.0
C245 C 0.32278 0.11858 0.89739 0.0
C246 C 0.37608 0.02563 0.86867 0.0
C247 C 0.30741 0.10714 0.80216 0.0
C248 C 0.36222 0.0746 0.94685 0.0
C249 C 0.34001 0.07995 0.68602 0.0
O250 O 0.44786 0.08153 0.52172 0.0
O251 O 0.39605 0.09754 0.56118 0.0
C252 C 0.41551 0.09125 0.50998 0.0
O253 O 0.41524 0.13376 0.61264 0.0
O254 O 0.50887 0.03605 0.62741 0.0
O255 O 0.52891 0.083 0.58312 0.0
O256 O 0.47238 0.13852 0.62428 0.0
C257 C 0.44283 0.15188 0.60841 0.0
O258 O 0.44041 0.11053 0.76237 0.0
O259 O 0.49407 0.11262 0.7165 0.0
O260 O 0.46469 0.04423 0.71287 0.0
O261 O 0.35628 0.10884 0.69503 0.0
O262 O 0.35907 0.05736 0.65501 0.0
O263 O 0.41813 0.03009 0.66285 0.0
C264 C 0.55166 0.02862 0.54969 0.0
C265 C 0.53308 0.00736 0.50587 0.0
C266 C 0.60445 0.00696 0.50419 0.0
C267 C 0.55043 -0.01281 0.45873 0.0
C268 C 0.58718 0.02642 0.55196 0.0
C269 C 0.58619 -0.00989 0.45251 0.0
C270 C 0.53463 0.05069 0.59803 0.0
C271 C 0.47428 0.11927 0.76834 0.0
H272 H 0.36406 0.0102 0.73955 0.0
H273 H 0.31643 0.14173 0.93041 0.0
H274 H 0.39575 0.00376 0.87159 0.0
H275 H 0.31055 0.11778 0.84934 0.0
H276 H 0.50533 0.00729 0.50656 0.0
H277 H 0.63208 0.00908 0.50315 0.0
H278 H 0.53566 -0.02756 0.42292 0.0
H279 H 0.60166 0.04121 0.58843 0.0
Eu280 Eu 0.07778 0.13809 0.93369 0.0
Eu281 Eu 0.09263 0.2024 0.87216 0.0
C282 C 0.15157 0.16459 0.93707 0.0
C283 C 0.10173 0.07281 1.05187 0.0
C284 C 0.14271 0.05641 1.02108 0.0
C285 C 0.12938 0.08218 1.20202 0.0
C286 C 0.17944 0.05229 1.07561 0.0
C287 C 0.09522 0.08577 1.14079 0.0
C288 C 0.17407 0.06759 1.17006 0.0
C289 C 0.07613 0.08279 1.00332 0.0
O290 O 0.0712 0.17002 0.78016 0.0
O291 O 0.05899 0.11947 0.8302 0.0
C292 C 0.05879 0.13805 0.77525 0.0
O293 O 0.02729 0.15454 0.90027 0.0
O294 O 0.13568 0.20864 0.80295 0.0
O295 O 0.10537 0.25367 0.83959 0.0
O296 O 0.03698 0.20962 0.86654 0.0
C297 C 0.01611 0.18463 0.88131 0.0
O298 O 0.06494 0.17909 1.01931 0.0
O299 O 0.06798 0.22978 0.96263 0.0
O300 O 0.13183 0.19054 0.9516 0.0
O301 O 0.05868 0.11019 1.01993 0.0
O302 O 0.08665 0.08294 0.94147 0.0
O303 O 0.13498 0.13892 0.91125 0.0
C304 C 0.15614 0.26577 0.77628 0.0
C305 C 0.15959 0.26669 0.70644 0.0
C306 C 0.1731 0.32519 0.78421 0.0
C307 C 0.16436 0.29843 0.67548 0.0
C308 C 0.16686 0.29389 0.81527 0.0
C309 C 0.16638 0.32823 0.71566 0.0
C310 C 0.13087 0.24202 0.80272 0.0
C311 C 0.05934 0.2132 1.01769 0.0
H312 H 0.14565 0.05004 0.96855 0.0
H313 H 0.12608 0.09295 1.25178 0.0
H314 H 0.20372 0.04338 1.05635 0.0
H315 H 0.07148 0.09815 1.15562 0.0
H316 H 0.152 0.24471 0.67603 0.0
H317 H 0.17588 0.34809 0.81524 0.0
H318 H 0.15975 0.30033 0.62219 0.0
H319 H 0.16517 0.29324 0.86939 0.0
Eu320 Eu 0.86283 0.24304 0.92788 0.0
Eu321 Eu 0.82972 0.19012 0.87904 0.0
C322 C 0.7889 0.22863 0.95951 0.0
C323 C 0.83817 0.31068 1.04351 0.0
C324 C 0.80253 0.32347 0.99191 0.0
C325 C 0.79625 0.32334 1.18121 0.0
C326 C 0.76193 0.33617 1.02606 0.0
C327 C 0.83523 0.30933 1.13634 0.0
C328 C 0.75645 0.33477 1.12581 0.0
C329 C 0.86816 0.29635 1.00581 0.0
O330 O 0.84282 0.22943 0.78703 0.0
O331 O 0.8859 0.26042 0.83025 0.0
C332 C 0.86879 0.25191 0.7763 0.0
O333 O 0.90109 0.20883 0.86615 0.0
O334 O 0.77825 0.19245 0.83479 0.0
O335 O 0.79987 0.14394 0.86963 0.0
O336 O 0.86707 0.16775 0.81594 0.0
C337 C 0.89602 0.18295 0.82176 0.0
O338 O 0.88089 0.20619 1.01111 0.0
O339 O 0.86273 0.15845 0.95772 0.0
O340 O 0.81033 0.20617 0.98008 0.0
O341 O 0.87902 0.26598 1.02386 0.0
O342 O 0.86648 0.29893 0.94054 0.0
O343 O 0.80393 0.24731 0.91451 0.0
C344 C 0.75929 0.1397 0.78694 0.0
C345 C 0.77982 0.13402 0.73034 0.0
C346 C 0.73575 0.08249 0.77681 0.0
C347 C 0.78097 0.10116 0.70187 0.0
C348 C 0.73439 0.11546 0.80474 0.0
C349 C 0.76134 0.07464 0.72999 0.0
C350 C 0.77376 0.15931 0.84189 0.0
C351 C 0.87978 0.17226 1.00954 0.0
H352 H 0.8054 0.32329 0.93805 0.0
H353 H 0.79407 0.32072 1.23492 0.0
H354 H 0.74139 0.34406 0.99361 0.0
H355 H 0.85533 0.2965 1.16342 0.0
H356 H 0.7991 0.15268 0.71613 0.0
H357 H 0.72032 0.06221 0.79834 0.0
H358 H 0.80064 0.09531 0.66504 0.0
H359 H 0.71826 0.11979 0.84831 0.0
Eu360 Eu 0.5668 0.64714 0.41619 0.0
Eu361 Eu 0.58486 0.71756 0.38462 0.0
C362 C 0.63772 0.67517 0.4607 0.0
C363 C 0.56776 0.55789 0.47295 0.0
C364 C 0.61748 0.56428 0.50156 0.0
C365 C 0.52688 0.55964 0.63479 0.0
C366 C 0.63385 0.56549 0.59767 0.0
C367 C 0.52645 0.55349 0.53334 0.0
C368 C 0.58427 0.57074 0.68703 0.0
C369 C 0.55887 0.58016 0.41878 0.0
O370 O 0.56677 0.69378 0.27802 0.0
O371 O 0.55916 0.63864 0.30771 0.0
C372 C 0.55722 0.66147 0.26172 0.0
O373 O 0.52148 0.67395 0.37782 0.0
O374 O 0.63582 0.73176 0.35353 0.0
O375 O 0.59685 0.77178 0.37002 0.0
O376 O 0.53097 0.7318 0.38499 0.0
C377 C 0.51032 0.70563 0.38446 0.0
O378 O 0.54626 0.67884 0.51438 0.0
O379 O 0.55725 0.73433 0.48173 0.0
O380 O 0.61517 0.69866 0.47465 0.0
O381 O 0.53435 0.60209 0.43373 0.0
O382 O 0.58539 0.5955 0.39354 0.0
O383 O 0.62525 0.65198 0.42052 0.0
C384 C 0.64665 0.78674 0.30845 0.0
C385 C 0.66609 0.77312 1.25506 0.0
C386 C 0.65485 0.844 0.26684 0.0
C387 C 0.6777 0.79502 1.20494 0.0
C388 C 0.64378 0.82239 0.3171 0.0
C389 C 0.66813 0.82983 1.20731 0.0
C390 C 0.62892 0.76479 0.35566 0.0
C391 C 0.54329 0.71337 0.52612 0.0
H392 H 0.63641 0.56819 0.46293 0.0
H393 H 0.50439 0.55889 0.6709 0.0
H394 H 0.66217 0.56925 0.60364 0.0
H395 H 0.52028 0.55485 0.58335 0.0
H396 H 0.66999 0.74559 1.24928 0.0
H397 H 0.64812 0.8711 0.27025 0.0
H398 H 0.6889 0.78397 1.1599 0.0
H399 H 0.63038 0.83337 0.3599 0.0
Eu400 Eu 0.58028 0.26368 1.10115 0.0
Eu401 Eu 0.59188 0.19603 1.14264 0.0
C402 C 0.64966 0.22951 1.07234 0.0
C403 C 0.58996 0.33067 0.99325 0.0
C404 C 0.61761 0.28875 0.96334 0.0
C405 C 0.54647 0.34805 0.83723 0.0
C406 C 0.62126 0.27064 0.86913 0.0
C407 C 0.55822 0.35949 0.93572 0.0
C408 C 0.57651 0.29588 0.78736 0.0
C409 C 0.5828 0.32718 1.06236 0.0
O410 O 0.56573 0.22299 1.23779 0.0
O411 O 0.57236 0.27797 1.20798 0.0
C412 C 0.56111 0.25643 1.25144 0.0
O413 O 0.52734 0.24734 1.12513 0.0
O414 O 0.63531 0.18606 1.20712 0.0
O415 O 0.60388 0.14281 1.16615 0.0
O416 O 0.5374 0.19047 1.14435 0.0
C417 C 0.51634 0.21614 1.13603 0.0
O418 O 0.56074 0.2256 1.00964 0.0
O419 O 0.56437 0.17179 1.0534 0.0
O420 O 0.62676 0.20724 1.0553 0.0
O421 O 0.55389 0.31197 1.07454 0.0
O422 O 0.60799 0.31216 1.09219 0.0
O423 O 0.63781 0.2527 1.11363 0.0
C424 C 0.65307 0.12818 1.23304 0.0
C425 C 0.6611 0.13289 0.3009 0.0
C426 C 0.66545 0.06777 1.24047 0.0
C427 C 0.66638 0.10381 0.3403 0.0
C428 C 0.65924 0.09646 1.20154 0.0
C429 C 0.66351 0.07107 0.31021 0.0
C430 C 0.63091 0.15274 1.20025 0.0
C431 C 0.55401 0.19106 1.00328 0.0
H432 H 0.62769 0.27285 1.00003 0.0
H433 H 0.52505 0.35958 0.80694 0.0
H434 H 0.63758 0.24672 0.86437 0.0
H435 H 0.54869 0.35982 0.88771 0.0
H436 H 0.65738 0.15773 0.3252 0.0
H437 H 0.66452 0.04253 1.21676 0.0
H438 H 0.66569 0.10667 0.39429 0.0
H439 H 0.6545 0.09293 1.14849 0.0
Eu440 Eu 0.85421 0.64904 0.57956 0.0
Eu441 Eu 0.84475 0.72336 0.62164 0.0
C442 C 0.78226 0.68033 0.56 0.0
C443 C 0.85011 0.55576 0.52423 0.0
C444 C 0.80123 0.55023 0.49139 0.0
C445 C 0.89271 0.57186 0.3701 0.0
C446 C 0.78742 0.5536 0.39312 0.0
C447 C 0.89206 0.56213 0.46711 0.0
C448 C 0.83568 0.56783 0.31279 0.0
C449 C 0.85254 0.58091 0.57791 0.0
O450 O 0.86598 0.70051 0.72068 0.0
O451 O 0.84362 0.64946 0.69347 0.0
C452 C 0.86078 0.66805 0.73742 0.0
O453 O 0.90289 0.65999 0.62366 0.0
O454 O 0.82576 0.77273 0.58734 0.0
O455 O 0.83835 0.76579 0.69246 0.0
O456 O 0.90184 0.71783 0.6178 0.0
C457 C 0.91839 0.68905 0.62846 0.0
O458 O 0.88452 0.68112 0.49261 0.0
O459 O 0.86687 0.73562 0.51752 0.0
O460 O 0.79243 0.6962 0.61488 0.0
O461 O 0.88054 0.59915 0.57802 0.0
O462 O 0.82586 0.60075 0.58345 0.0
O463 O 0.80592 0.66452 0.52502 0.0
C464 C 0.79127 0.80082 0.66582 0.0
C465 C 0.76593 0.78157 0.69865 0.0
C466 C 0.75997 0.85274 0.6912 0.0
C467 C 0.73983 0.79902 0.73319 0.0
C468 C 0.78603 0.83602 0.65579 0.0
C469 C 0.74355 0.83473 0.74322 0.0
C470 C 0.82412 0.78555 0.64766 0.0
C471 C 0.8845 0.71509 0.47747 0.0
H472 H 0.78098 0.54924 0.52828 0.0
H473 H 0.91555 0.58154 0.34846 0.0
H474 H 0.75861 0.5529 0.38567 0.0
H475 H 0.91606 0.56654 0.49269 0.0
H476 H 0.76812 0.75382 0.70291 0.0
H477 H 0.75976 0.88066 0.69039 0.0
H478 H 0.72283 0.78439 0.765 0.0
H479 H 0.80393 0.85103 0.62653 0.0
Eu480 Eu 0.52521 0.581 0.85004 0.0
Eu481 Eu 0.45566 0.56465 0.87655 0.0
C482 C 0.49762 0.51085 0.80361 0.0
C483 C 0.61132 0.56897 0.78748 0.0
C484 C 0.58623 0.52657 0.75881 0.0
C485 C 0.61301 0.61441 0.63407 0.0
C486 C 0.56789 0.51735 0.66785 0.0
C487 C 0.62621 0.60821 0.73094 0.0
C488 C 0.57951 0.55559 0.58663 0.0
C489 C 0.59216 0.58264 0.84349 0.0
O490 O 0.47537 0.58709 0.98298 0.0
O491 O 0.53129 0.5886 0.95982 0.0
C492 C 0.50728 0.59543 1.00211 0.0
O493 O 0.50191 0.63051 0.88221 0.0
O494 O 0.44072 0.51389 0.90874 0.0
O495 O 0.40174 0.55293 0.88681 0.0
O496 O 0.44495 0.61903 0.88166 0.0
C497 C 0.47012 0.64082 0.88515 0.0
O498 O 0.49378 0.60231 0.7521 0.0
O499 O 0.4382 0.59125 0.78117 0.0
O500 O 0.47576 0.5343 0.78737 0.0
O501 O 0.5724 0.60837 0.82809 0.0
O502 O 0.57518 0.55947 0.87601 0.0
O503 O 0.51934 0.52237 0.84685 0.0
C504 C 0.38553 0.50594 0.95414 0.0
C505 C 0.3977 0.482 1.00082 0.0
C506 C 0.33027 0.50557 1.00675 0.0
C507 C 0.37643 0.47134 1.05264 0.0
C508 C 0.35101 0.51529 0.95419 0.0
C509 C 0.34383 0.48605 1.0594 0.0
C510 C 0.408 0.52105 0.90443 0.0
C511 C 0.45964 0.60471 0.73765 0.0
H512 H 0.57984 0.5082 0.79687 0.0
H513 H 0.61834 0.63655 0.5982 0.0
H514 H 0.55446 0.49294 0.65939 0.0
H515 H 0.62371 0.61696 0.68269 0.0
H516 H 0.42392 0.47286 0.99933 0.0
H517 H 0.3048 0.51662 1.00971 0.0
H518 H 0.38653 0.45441 1.09059 0.0
H519 H 0.34067 0.53221 0.91636 0.0
Eu520 Eu 0.92993 0.3181 0.35015 0.0
Eu521 Eu -0.00517 0.32941 0.40609 0.0
C522 C -0.04229 0.38663 0.33707 0.0
C523 C 0.87731 0.35573 1.22571 0.0
C524 C 0.85307 0.3814 1.23587 0.0
C525 C 0.8743 0.36541 1.10608 0.0
C526 C 0.83574 0.39339 1.1807 0.0
C527 C 0.89247 0.35266 1.16145 0.0
C528 C 0.83997 0.37559 1.11789 0.0
C529 C 0.8792 0.3282 0.27534 0.0
O530 O -0.04024 0.3192 0.50287 0.0
O531 O 0.91092 0.30051 0.45319 0.0
C532 C 0.92852 0.30474 0.50899 0.0
O533 O 0.93829 0.26577 0.38544 0.0
O534 O 0.01291 0.37916 0.43348 0.0
O535 O 0.04737 0.33457 0.44382 0.0
O536 O -0.01161 0.27594 0.43728 0.0
C537 C -0.0308 0.25611 0.40059 0.0
O538 O -0.03182 0.30421 0.26051 0.0
O539 O 0.018 0.3004 0.31522 0.0
O540 O -0.01845 0.36493 0.32121 0.0
O541 O 0.90059 0.30307 0.26275 0.0
O542 O 0.87843 0.33807 0.338 0.0
O543 O 0.93538 0.37403 0.3773 0.0
C544 C 0.05914 0.38695 0.50327 0.0
C545 C 0.03927 0.40114 0.5551 0.0
C546 C 0.10962 0.41264 0.54999 0.0
C547 C 0.05501 0.41985 0.60594 0.0
C548 C 0.09375 0.39491 0.49825 0.0
C549 C 0.09103 0.42162 0.60857 0.0
C550 C 0.04346 0.36818 0.4489 0.0
C551 C 0.00106 0.29449 0.25932 0.0
H552 H 0.8434 0.38769 0.28546 0.0
H553 H 0.88337 0.35919 1.05629 0.0
H554 H 0.81375 0.40919 1.1931 0.0
H555 H 0.91378 0.33534 1.15246 0.0
H556 H 0.01182 0.39717 0.55708 0.0
H557 H 0.13713 0.41528 0.54668 0.0
H558 H 0.03918 0.4294 0.6464 0.0
H559 H 0.10883 0.38616 0.45566 0.0
Eu560 Eu 0.49933 0.29314 0.64984 0.0
Eu561 Eu 0.43737 0.3353 0.62229 0.0
C562 C 0.49918 0.37511 0.66647 0.0
C563 C 0.58916 0.26911 0.68873 0.0
C564 C 0.60188 0.31922 0.69715 0.0
C565 C 0.57003 0.2493 0.85666 0.0
C566 C 0.60212 0.34635 0.78573 0.0
C567 C 0.57774 0.2364 0.76054 0.0
C568 C 0.58986 0.31678 0.88058 0.0
C569 C 0.5609 0.26555 0.64246 0.0
O570 O 0.46175 0.32492 0.51301 0.0
O571 O 0.51431 0.31579 0.5521 0.0
C572 C 0.49434 0.31567 0.50096 0.0
O573 O 0.46496 0.26237 0.58135 0.0
O574 O 0.42274 0.38701 0.6551 0.0
O575 O 0.38645 0.35463 0.60213 0.0
O576 O 0.41688 0.29424 0.55917 0.0
C577 C 0.43584 0.26716 0.54942 0.0
O578 O 0.46425 0.26743 0.7318 0.0
O579 O 0.42309 0.30827 0.72537 0.0
O580 O 0.48228 0.37009 0.61197 0.0
O581 O 0.53385 0.24917 0.66444 0.0
O582 O 0.55224 0.29472 0.6167 0.0
O583 O 0.50338 0.3469 0.70251 0.0
C584 C 0.38149 0.41399 0.58774 0.0
C585 C 0.39643 0.41878 0.5244 0.0
C586 C 0.32651 0.42886 0.54405 0.0
C587 C 0.37498 0.42362 0.46933 0.0
C588 C 0.34783 0.42481 0.59886 0.0
C589 C 0.33953 0.42169 0.47988 0.0
C590 C 0.39263 0.38505 0.62803 0.0
C591 C 0.4354 0.28062 0.75645 0.0
H592 H 0.60423 0.33791 0.73347 0.0
H593 H 0.5587 0.23388 0.89858 0.0
H594 H 0.61011 0.37498 0.79181 0.0
H595 H 0.57273 0.23652 0.81049 0.0
H596 H 0.4227 0.41115 0.5151 0.0
H597 H 0.29911 0.42961 0.55286 0.0
H598 H 0.38551 0.4198 0.41956 0.0
H599 H 0.33628 0.42268 0.64807 0.0
Eu600 Eu 0.89867 0.57895 1.14311 0.0
Eu601 Eu -0.03434 0.56937 1.10632 0.0
C602 C 0.93643 0.51579 1.1979 0.0
C603 C 0.81509 0.55402 1.21 0.0
C604 C 0.84863 0.52116 1.25139 0.0
C605 C 0.79577 0.60715 0.35437 0.0
C606 C 0.86351 0.52307 0.34762 0.0
C607 C 0.78833 0.59175 1.25711 0.0
C608 C 0.83861 0.57028 0.41702 0.0
C609 C 0.83252 0.56733 1.15158 0.0
O610 O -0.05382 0.59357 1.00611 0.0
O611 O 0.89201 0.60115 1.03975 0.0
C612 C 0.91495 0.60518 0.99342 0.0
O613 O 0.91859 0.63084 1.16565 0.0
O614 O -0.02678 0.51987 1.05841 0.0
O615 O 0.01714 0.55485 1.08119 0.0
O616 O -0.03325 0.62552 1.10043 0.0
C617 C -0.05303 0.64323 1.14072 0.0
O618 O 0.93025 0.59795 1.24471 0.0
O619 O -0.01535 0.58969 1.20767 0.0
O620 O -0.04009 0.53868 1.19952 0.0
O621 O 0.8468 0.5972 1.16134 0.0
O622 O 0.85416 0.5459 1.12426 0.0
O623 O 0.91147 0.52247 1.15766 0.0
C624 C 0.02589 0.5097 1.0045 0.0
C625 C 0.0279 0.52724 0.94387 0.0
C626 C 0.08078 0.48352 0.98558 0.0
C627 C 0.05822 0.52546 0.9074 0.0
C628 C 0.05049 0.48515 1.02168 0.0
C629 C 0.08578 0.50646 0.93294 0.0
C630 C 0.00665 0.52442 1.0589 0.0
C631 C -0.03513 0.60125 1.25667 0.0
H632 H 0.86098 0.50223 1.21955 0.0
H633 H 0.7847 0.63019 0.38268 0.0
H634 H 0.88495 0.50395 0.35806 0.0
H635 H 0.7867 0.60368 0.3036 0.0
H636 H 0.00862 0.54608 0.93053 0.0
H637 H 0.10196 0.46866 1.00514 0.0
H638 H 0.06198 0.54305 0.86623 0.0
H639 H 0.04873 0.47139 1.06859 0.0
C640 C 0.14808 0.10034 1.09972 0.0
C641 C 0.12926 0.03704 1.12706 0.0
C642 C 0.18349 0.03762 1.20377 0.0
C643 C 0.19741 0.07775 1.19435 0.0
N644 N 0.19848 0.13697 1.14598 0.0
N645 N 0.1613 -0.01957 1.15263 0.0
C646 C 0.18193 0.10615 1.14587 0.0
C647 C 0.15354 0.01359 1.16924 0.0
N648 N 0.13288 0.12759 1.06727 0.0
N649 N 0.2025 0.02035 1.25011 0.0
H650 H 0.15373 -0.0299 1.10659 0.0
H651 H 0.18059 -0.03309 1.17698 0.0
H652 H 0.22304 0.03237 0.27418 0.0
H653 H 0.19606 -0.00428 0.26635 0.0
H654 H 0.14187 0.15277 1.07055 0.0
H655 H 0.14187 0.15277 1.07055 0.0
H656 H 0.19159 0.15775 1.11647 0.0
H657 H 0.22005 0.14059 1.176 0.0
C658 C 0.12943 0.89062 0.39807 0.0
C659 C 0.12585 0.85702 0.35726 0.0
C660 C 0.07771 0.80987 0.43674 0.0
C661 C 0.07979 0.86071 0.45354 0.0
N662 N 0.1052 0.91868 0.49974 0.0
N663 N 0.06686 0.80522 0.29047 0.0
C664 C 0.10957 0.89034 0.46072 0.0
C665 C 0.0867 0.82612 0.34166 0.0
N666 N 0.15544 0.91273 0.38609 0.0
N667 N 0.05478 0.77493 0.43921 0.0
H668 H 0.05599 0.78233 0.30634 0.0
H669 H 0.05313 0.81762 1.2535 0.0
H670 H 0.0317 0.77278 0.46481 0.0
H671 H 0.06172 0.75385 0.40924 0.0
H672 H 0.16098 0.93335 0.41805 0.0
H673 H 0.17091 0.90925 0.34378 0.0
H674 H 0.12061 0.94046 0.49517 0.0
H675 H 0.08585 0.91906 0.53589 0.0
C676 C 0.35566 0.8097 0.68045 0.0
C677 C 0.30513 0.81831 0.66646 0.0
C678 C 0.29111 0.86349 0.58353 0.0
C679 C 0.33232 0.85107 0.57889 0.0
N680 N 0.39462 0.78837 0.55787 0.0
N681 N 0.24714 0.85411 0.67178 0.0
C682 C 0.35917 0.80627 0.5776 0.0
C683 C 0.27994 0.85208 0.65044 0.0
N684 N 0.38383 0.78557 0.71215 0.0
N685 N 0.27931 0.8925 0.55466 0.0
H686 H 0.23901 0.83892 0.71162 0.0
H687 H 0.22954 0.87066 0.6495 0.0
H688 H 0.29321 0.90373 0.51588 0.0
H689 H 0.25639 0.90403 0.56994 0.0
H690 H 0.40729 0.78477 0.68734 0.0
H691 H 0.37924 0.76526 0.74448 0.0
H692 H 0.40204 0.76583 0.58114 0.0
H693 H 0.41447 0.79998 0.53148 0.0
C694 C 0.36303 0.08845 0.84189 0.0
C695 C 0.32238 0.05722 0.86101 0.0
C696 C 0.33262 0.00732 0.93582 0.0
C697 C 0.36429 0.03719 0.93743 0.0
N698 N 0.39334 0.12064 0.96291 0.0
N699 N 0.28582 -0.00146 0.85332 0.0
C700 C 0.36851 0.08933 0.94449 0.0
C701 C 0.31504 0.01437 0.87227 0.0
N702 N 0.37462 0.12514 0.81353 0.0
N703 N 0.33683 -0.02491 0.95946 0.0
H704 H 0.27036 0.00978 0.81699 0.0
H705 H 0.27845 -0.02502 0.87355 0.0
H706 H 0.3562 -0.02984 0.99396 0.0
H707 H 0.32124 -0.04524 0.94382 0.0
H708 H 0.39758 0.13571 0.82975 0.0
H709 H 0.35869 0.1431 0.79056 0.0
H710 H 0.39067 0.1431 0.93544 0.0
H711 H 0.41706 0.1188 0.9864 0.0
C712 C 0.94157 0.73622 0.41494 0.0
C713 C 0.90502 0.73245 0.41651 0.0
C714 C 0.90652 0.7739 0.31858 0.0
C715 C -0.05663 0.77174 0.30823 0.0
N716 N -0.00633 0.74339 0.34988 0.0
N717 N 0.8532 0.74827 0.36052 0.0
C718 C -0.04003 0.75062 0.35739 0.0
C719 C 0.88791 0.75135 0.36511 0.0
N720 N -0.04075 0.72927 0.47163 0.0
N721 N 0.88893 0.79986 0.28832 0.0
H722 H 0.83897 0.73302 0.39315 0.0
H723 H 0.83915 0.75808 0.32073 0.0
H724 H 0.90113 0.81968 0.26275 0.0
H725 H 0.8631 0.80486 0.29728 0.0
H726 H -0.01509 0.73562 0.47699 0.0
H727 H -0.05282 0.7213 0.51538 0.0
H728 H 0.0062 0.72487 0.37836 0.0
H729 H 0.00794 0.7545 0.31228 0.0
C730 C 0.9299 0.1605 1.09671 0.0
C731 C 0.89726 0.15073 1.06811 0.0
C732 C 0.89565 0.1041 1.15642 0.0
C733 C 0.92822 0.11367 1.18448 0.0
N734 N -0.02342 0.15142 1.17731 0.0
N735 N 0.84645 0.11691 1.08505 0.0
C736 C -0.05485 0.14212 1.15331 0.0
C737 C 0.8798 0.1232 1.10162 0.0
N738 N -0.05361 0.18837 1.07069 0.0
N739 N 0.87985 0.07549 1.1811 0.0
H740 H 0.83349 0.13035 1.04805 0.0
H741 H 0.8303 0.10085 1.11203 0.0
H742 H 0.88961 0.06148 1.22094 0.0
H743 H 0.85878 0.06373 1.15889 0.0
H744 H -0.0338 0.20133 1.09455 0.0
H745 H 0.94005 0.19909 1.02479 0.0
H746 H -0.00716 0.1691 1.15483 0.0
H747 H -0.01245 0.13997 1.21904 0.0
C748 C 0.54286 0.13914 0.91519 0.0
C749 C 0.5336 0.17278 0.94181 0.0
C750 C 0.48329 0.16922 0.85997 0.0
C751 C 0.4927 0.13631 0.83273 0.0
N752 N 0.53496 0.09124 0.83498 0.0
N753 N 0.49404 0.21967 0.93121 0.0
C754 C 0.52345 0.12185 0.86108 0.0
C755 C 0.50345 0.18732 0.9118 0.0
N756 N 0.57089 0.12317 0.94142 0.0
N757 N 0.45389 0.1836 0.8374 0.0
H758 H 0.50297 0.2316 0.97461 0.0
H759 H 0.47998 0.23564 0.90028 0.0
H760 H 0.4404 0.17417 0.79621 0.0
H761 H 0.44188 0.20321 0.86371 0.0
H762 H 0.57621 0.09704 0.93537 0.0
H763 H 0.58896 0.13606 0.9705 0.0
H764 H 0.55926 0.08118 0.84327 0.0
H765 H 0.52034 0.07606 0.8026 0.0
C766 C 0.48583 0.77647 0.64299 0.0
C767 C 0.49012 0.76373 0.70941 0.0
C768 C 0.53303 0.72161 0.65662 0.0
C769 C 0.52416 0.73018 0.58955 0.0
N770 N 0.48936 0.76778 0.52201 0.0
N771 N 0.51934 0.7218 0.77541 0.0
C772 C 0.49987 0.75831 0.58412 0.0
C773 C 0.51445 0.73594 0.7145 0.0
N774 N 0.47013 0.80767 0.63609 0.0
N775 N 0.56136 0.70161 0.66613 0.0
H776 H 0.50722 0.73132 0.81832 0.0
H777 H 0.53269 0.6988 0.78047 0.0
H778 H 0.57535 0.69068 0.62673 0.0
H779 H 0.57323 0.69916 0.71245 0.0
H780 H 0.4695 0.82131 0.5915 0.0
H781 H 0.46103 0.82173 0.6772 0.0
H782 H 0.47034 0.78592 0.51323 0.0
H783 H 0.49771 0.75545 0.47881 0.0
C784 C 0.62971 0.5155 0.65958 0.0
C785 C 0.61817 0.55542 0.67326 0.0
C786 C 0.57501 0.57648 0.58343 0.0
C787 C 0.58416 0.52641 0.57341 0.0
N788 N 0.61984 0.47207 0.56928 0.0
N789 N 0.5575 0.61913 0.70418 0.0
C790 C 0.61467 0.50389 0.59569 0.0
C791 C 0.57447 0.58226 0.68377 0.0
N792 N 0.65906 0.50252 0.6848 0.0
N793 N 0.56385 0.60898 0.54926 0.0
H794 H 0.57008 0.63885 0.72992 0.0
H795 H 0.53509 0.62715 0.6808 0.0
H796 H 0.57937 0.61975 0.51258 0.0
H797 H 0.55027 0.62729 0.57676 0.0
H798 H 0.6697 0.47943 0.66744 0.0
H799 H 0.67156 0.51568 0.72341 0.0
H800 H 0.63747 0.45484 0.58934 0.0
H801 H 0.6056 0.4639 0.52794 0.0
C802 C 0.56196 0.2953 0.79455 0.0
C803 C 0.61205 0.28387 0.79396 0.0
C804 C 0.6495 0.32797 0.85123 0.0
C805 C 0.61383 0.33515 0.88133 0.0
N806 N 0.54367 0.29544 0.93725 0.0
N807 N 0.67715 0.29091 0.76487 0.0
C808 C 0.57284 0.30586 0.89163 0.0
C809 C 0.64858 0.30498 0.79214 0.0
N810 N 0.52322 0.28087 0.78782 0.0
N811 N 0.67624 0.34881 0.86585 0.0
H812 H 0.67506 0.26965 0.73275 0.0
H813 H 0.70154 0.30039 0.77529 0.0
H814 H 0.67407 0.36708 0.9044 0.0
H815 H 0.69922 0.34769 0.83923 0.0
H816 H 0.50354 0.29645 0.80622 0.0
H817 H 0.51732 0.25485 0.78093 0.0
H818 H 0.52004 0.28903 0.91654 0.0
H819 H 0.54802 0.28224 0.98083 0.0
C820 C 0.78558 0.29255 1.08555 0.0
C821 C 0.80686 0.35626 1.08929 0.0
C822 C 0.74548 0.37435 1.13181 0.0
C823 C 0.72972 0.33687 1.14362 0.0
N824 N 0.72872 0.2713 1.14204 0.0
N825 N 0.78709 0.41926 1.0779 0.0
C826 C 0.74692 0.2993 1.12121 0.0
C827 C 0.78097 0.38653 1.09881 0.0
N828 N 0.79974 0.25974 1.08587 0.0
N829 N 0.72439 0.39999 1.15404 0.0
H830 H 0.80984 0.42544 1.0532 0.0
H831 H 0.76872 0.43869 1.08113 0.0
H832 H 0.70057 0.39424 1.17512 0.0
H833 H 0.73148 0.42585 1.15501 0.0
H834 H 0.78521 0.23826 1.09764 0.0
H835 H 0.82504 0.25274 1.0768 0.0
H836 H 0.73672 0.24595 1.13558 0.0
H837 H 0.70545 0.27478 1.16709 0.0
C838 C 0.80453 0.50362 0.34115 0.0
C839 C 0.80628 0.54595 0.32515 0.0
C840 C 0.84195 0.58626 0.41485 0.0
C841 C 0.84596 0.53423 0.4139 0.0
N842 N 0.82652 0.46979 0.43653 0.0
N843 N 0.85109 0.61945 0.28158 0.0
C844 C 0.81935 0.50055 0.40859 0.0
C845 C 0.84279 0.58243 0.31158 0.0
N846 N 0.77943 0.48286 0.31788 0.0
N847 N 0.85808 0.62175 0.43923 0.0
H848 H 0.8349 0.6339 1.2512 0.0
H849 H 0.87091 0.63361 0.30253 0.0
H850 H 0.878 0.6233 0.47302 0.0
H851 H 0.85144 0.64416 0.41381 0.0
H852 H 0.77446 0.45895 0.33933 0.0
H853 H 0.76482 0.49053 0.27697 0.0
H854 H 0.81486 0.44708 0.42006 0.0
H855 H 0.84431 0.46846 0.47529 0.0
C856 C 0.4274 0.27712 0.88855 0.0
C857 C 0.41778 0.26558 0.82289 0.0
C858 C 0.37661 0.22531 0.88396 0.0
C859 C 0.39134 0.23188 0.94883 0.0
N860 N 0.43325 0.2656 1.0081 0.0
N861 N 0.37964 0.22892 0.7613 0.0
C862 C 0.417 0.25865 0.94937 0.0
C863 C 0.39111 0.23993 0.82205 0.0
N864 N 0.44615 0.3067 0.89348 0.0
N865 N 0.34711 0.20659 0.88162 0.0
H866 H 0.38817 0.23991 0.71683 0.0
H867 H 0.36308 0.20817 0.75502 0.0
H868 H 0.33522 0.1976 0.92481 0.0
H869 H 0.33247 0.20313 0.83869 0.0
H870 H 0.45133 0.31919 0.93867 0.0
H871 H 0.45339 0.32083 0.85157 0.0
H872 H 0.4547 0.28139 1.01123 0.0
H873 H 0.42732 0.25281 1.05224 0.0
C874 C 0.42641 0.60495 0.6209 0.0
C875 C 0.44325 0.62349 0.67396 0.0
C876 C 0.41392 0.67625 0.62564 0.0
C877 C 0.40107 0.65933 0.5657 0.0
N878 N 0.4009 0.60312 0.50979 0.0
N879 N 0.45277 0.67919 0.72189 0.0
C880 C 0.40878 0.62239 0.56507 0.0
C881 C 0.43718 0.65981 0.67361 0.0
N882 N 0.42632 0.5698 0.62423 0.0
N883 N 0.40075 0.70746 0.64203 0.0
H884 H 0.46946 0.66862 0.75672 0.0
H885 H 0.45132 0.70588 0.72449 0.0
H886 H 0.381 0.71764 0.61497 0.0
H887 H 0.40467 0.71988 0.68759 0.0
H888 H 0.41076 0.55416 0.59457 0.0
H889 H 0.43984 0.55632 0.6606 0.0
H890 H 0.40994 0.57812 0.50201 0.0
H891 H 0.38855 0.61257 0.46808 0.0
C892 C 0.03745 0.63993 0.38306 0.0
C893 C 0.01904 0.65577 0.43737 0.0
C894 C -0.03407 0.63918 0.37145 0.0
C895 C -0.01653 0.61906 0.32137 0.0
N896 N 0.03967 0.59373 0.29982 0.0
N897 N -0.03641 0.65654 0.48878 0.0
C898 C 0.02036 0.61784 0.33283 0.0
C899 C -0.01729 0.65106 0.433 0.0
N900 N 0.07186 0.64548 0.37915 0.0
N901 N 0.93357 0.64987 0.35879 0.0
H902 H -0.02561 0.6657 0.53319 0.0
H903 H 0.93819 0.64856 0.4914 0.0
H904 H 0.92364 0.6488 0.31067 0.0
H905 H 0.91949 0.66462 0.39261 0.0
H906 H 0.08647 0.63829 0.33754 0.0
H907 H 0.08505 0.66011 0.41479 0.0
H908 H 0.06571 0.59028 0.30874 0.0
H909 H 0.02915 0.57345 0.27254 0.0
C910 C 0.06066 0.23281 1.14337 0.0
C911 C 0.04438 0.2336 1.07968 0.0
C912 C 0.00412 0.27813 1.12961 0.0
C913 C 0.01804 0.27512 1.19601 0.0
N914 N 0.0632 0.24834 0.26052 0.0
N915 N -0.00385 0.25426 1.01709 0.0
C916 C 0.04709 0.25193 1.20087 0.0
C917 C 0.01494 0.25556 1.07458 0.0
N918 N 0.09124 0.21577 1.14824 0.0
N919 N -0.0176 0.30478 1.11669 0.0
H920 H 0.00281 0.23856 0.97651 0.0
H921 H -0.02784 0.26573 1.01232 0.0
H922 H -0.02261 0.32411 1.15154 0.0
H923 H -0.02647 0.31079 1.06912 0.0
H924 H 0.10718 0.21709 1.18982 0.0
H925 H 0.10252 0.20249 1.10831 0.0
H926 H 0.07688 0.22627 0.27325 0.0
H927 H 0.06512 0.26843 0.2948 0.0
C928 C -0.03702 0.214 0.31433 0.0
C929 C -0.01386 0.2341 0.35154 0.0
C930 C 0.01772 0.1827 0.3726 0.0
C931 C -0.01455 0.16587 0.3701 0.0
N932 N 0.92416 0.1697 0.34288 0.0
N933 N 0.04279 0.23707 0.4016 0.0
C934 C -0.04318 0.18223 0.34119 0.0
C935 C 0.01692 0.21859 0.37286 0.0
N936 N -0.05708 0.22658 0.26471 0.0
N937 N 0.04816 0.16544 0.37449 0.0
H938 H 0.04376 0.26388 0.40137 0.0
H939 H 0.06306 0.22543 0.42667 0.0
H940 H 0.05023 0.13873 0.37159 0.0
H941 H 0.07164 0.17817 0.37199 0.0
H942 H 0.92591 0.21082 1.23828 0.0
H943 H -0.05413 0.25097 1.24552 0.0
H944 H 0.90353 0.18347 0.32345 0.0
H945 H 0.91646 0.14881 0.37119 0.0
C946 C -0.04339 0.71747 0.71205 0.0
C947 C -0.05132 0.68808 0.6708 0.0
C948 C -0.01665 0.6529 0.74633 0.0
C949 C -0.00015 0.68314 0.7622 0.0
N950 N -0.02662 0.72869 0.8257 0.0
N951 N -0.04078 0.62568 0.64964 0.0
C952 C -0.02239 0.71137 0.76725 0.0
C953 C -0.03762 0.65445 0.68914 0.0
N954 N -0.05271 0.75051 0.69772 0.0
N955 N -0.00773 0.62319 0.77718 0.0
H956 H -0.05129 0.62569 0.60195 0.0
H957 H -0.02909 0.60232 0.66131 0.0
H958 H 0.0101 0.62343 0.8161 0.0
H959 H -0.01965 0.59973 0.76686 0.0
H960 H -0.04612 0.77106 0.72925 0.0
H961 H 0.93901 0.75829 0.65078 0.0
H962 H -0.04452 0.74852 0.83169 0.0
H963 H -0.01529 0.71919 0.86862 0.0
C964 C 0.42833 0.68252 0.92904 0.0
C965 C 0.46306 0.67442 0.91378 0.0
C966 C 0.48193 0.71437 0.99914 0.0
C967 C 0.4488 0.72789 0.99829 0.0
N968 N 0.38966 0.71165 1.00475 0.0
N969 N 0.52273 0.69328 0.92061 0.0
C970 C 0.42196 0.70548 0.98198 0.0
C971 C 0.49024 0.69258 0.94587 0.0
N972 N 0.40231 0.67224 0.88788 0.0
N973 N 0.50668 0.72777 1.03949 0.0
H974 H 0.53073 0.67969 0.87857 0.0
H975 H 0.54128 0.71048 0.9379 0.0
H976 H 0.50271 0.74916 1.07008 0.0
H977 H 0.53092 0.71663 1.04315 0.0
H978 H 0.37685 0.6794 0.89545 0.0
H979 H 0.40692 0.66063 0.84135 0.0
H980 H 0.36962 0.6943 0.99741 0.0
H981 H 0.3838 0.73366 1.03259 0.0
C982 C 0.46504 0.23937 1.19222 0.0
C983 C 0.48233 0.21097 1.16172 0.0
C984 C 0.45681 0.17219 1.24059 0.0
C985 C 0.43342 0.1988 1.25511 0.0
N986 N 0.43021 0.25827 0.28622 0.0
N987 N 0.48389 0.14934 1.1415 0.0
C988 C 0.44463 0.2327 1.24853 0.0
C989 C 0.47547 0.17676 1.1819 0.0
N990 N 0.46443 0.27097 1.16299 0.0
N991 N 0.4528 0.14019 0.26637 0.0
H992 H 0.49422 0.15287 1.09374 0.0
H993 H 0.47729 0.12395 1.15231 0.0
H994 H 0.43114 0.1336 0.29329 0.0
H995 H 0.4709 0.12067 0.2591 0.0
H996 H 0.44931 0.29127 1.1807 0.0
H997 H 0.47594 0.2757 1.11697 0.0
H998 H 0.43828 0.28384 0.28399 0.0
H999 H 0.41202 0.25275 0.32296 0.0
C1000 C -0.04495 0.73033 1.12503 0.0
C1001 C -0.00988 0.7357 1.14103 0.0
C1002 C -0.00487 0.67928 1.18262 0.0
C1003 C -0.04033 0.67476 1.16771 0.0
N1004 N 0.9044 0.70341 1.16769 0.0
N1005 N 0.03576 0.72087 1.21979 0.0
C1006 C 0.93887 0.70345 1.15696 0.0
C1007 C 0.00701 0.7127 1.18439 0.0
N1008 N 0.93803 0.74745 1.0761 0.0
N1009 N 0.01887 0.65342 1.18339 0.0
H1010 H 0.04523 0.74574 1.22407 0.0
H1011 H 0.04677 0.70374 1.25354 0.0
H1012 H 0.016 0.63002 1.15933 0.0
H1013 H 0.04462 0.65768 1.19432 0.0
H1014 H 0.91291 0.7413 1.06292 0.0
H1015 H -0.05031 0.76424 1.04352 0.0
H1016 H 0.88944 0.72523 1.15875 0.0
H1017 H 0.89211 0.68372 1.1935 0.0
C1018 C 0.45774 0.68011 0.40527 0.0
C1019 C 0.474 0.70921 0.37657 0.0
C1020 C 0.45121 0.69406 0.26981 0.0
C1021 C 0.42975 0.6699 0.30072 0.0
N1022 N 0.43707 0.62273 0.37478 0.0
N1023 N 0.47926 0.74905 0.2865 0.0
C1024 C 0.44186 0.65655 0.36075 0.0
C1025 C 0.46664 0.71907 0.31102 0.0
N1026 N 0.46411 0.67226 0.47024 0.0
N1027 N 0.46329 0.68774 1.2073 0.0
H1028 H 0.49074 0.76736 0.31783 0.0
H1029 H 0.47585 0.75624 1.23716 0.0
H1030 H 0.45402 0.66696 1.17904 0.0
H1031 H 0.48364 0.70171 1.18718 0.0
H1032 H 0.45799 0.64865 0.49105 0.0
H1033 H 0.47575 0.69013 0.50219 0.0
H1034 H 0.44866 0.61076 0.41531 0.0
H1035 H 0.42392 0.60668 0.34137 0.0
C1036 C 0.40483 0.19906 0.57082 0.0
C1037 C 0.43861 0.18361 0.57058 0.0
C1038 C 0.45366 0.22156 0.47914 0.0
C1039 C 0.42584 0.24183 0.49924 0.0
N1040 N 0.36573 0.23565 0.50842 0.0
N1041 N 0.49384 0.17763 0.51146 0.0
C1042 C 0.39778 0.22439 0.52313 0.0
C1043 C 0.46307 0.19386 0.52082 0.0
N1044 N 0.38115 0.19244 0.61946 0.0
N1045 N 0.47062 0.22972 0.42212 0.0
H1046 H 0.50148 0.15514 0.53469 0.0
H1047 H 0.51231 0.18647 0.4782 0.0
H1048 H 0.46319 0.25121 0.3949 0.0
H1049 H 0.48977 0.21448 0.40058 0.0
H1050 H 0.35731 0.20454 0.62127 0.0
H1051 H 0.38688 0.1787 0.66257 0.0
H1052 H 0.34372 0.22272 0.52377 0.0
H1053 H 0.36219 0.2564 0.47612 0.0
C1054 C -0.02804 0.20405 0.80194 0.0
C1055 C -0.01932 0.1852 0.86033 0.0
C1056 C 0.93692 0.14303 0.83476 0.0
C1057 C 0.92437 0.16625 0.78873 0.0
N1058 N 0.94032 0.20143 0.69747 0.0
N1059 N -0.03556 0.14189 0.94201 0.0
C1060 C -0.05364 0.19021 0.76053 0.0
C1061 C -0.03907 0.15601 0.88007 0.0
N1062 N -0.01477 0.23589 0.78971 0.0
N1063 N 0.92185 0.11164 0.84144 0.0
H1064 H -0.01944 0.15267 0.97811 0.0
H1065 H -0.05092 0.12183 0.95907 0.0
H1066 H 0.90226 0.10393 0.80909 0.0
H1067 H 0.93082 0.09304 0.87445 0.0
H1068 H -0.02206 0.25064 0.74879 0.0
H1069 H -0.0008 0.24958 0.82544 0.0
H1070 H -0.04359 0.21852 0.67264 0.0
H1071 H 0.92044 0.19075 0.66926 0.0
C1072 C -0.05281 -0.02992 1.22625 0.0
C1073 C -0.04273 -0.0301 0.29479 0.0
C1074 C -0.01504 0.9142 0.27593 0.0
C1075 C -0.02071 0.91657 1.20629 0.0
N1076 N -0.04239 -0.05141 1.11329 0.0
N1077 N -0.02367 0.93547 0.3878 0.0
C1078 C -0.03867 0.94524 1.18081 0.0
C1079 C -0.02644 0.94023 0.32035 0.0
N1080 N 0.92136 -0.00871 1.20613 0.0
N1081 N 0.00095 0.88646 0.30176 0.0
H1082 H -0.03584 -0.04863 0.42291 0.0
H1083 H -0.01198 0.91379 0.40825 0.0
H1084 H 0.01121 0.86669 0.27223 0.0
H1085 H 0.01121 0.86669 0.27223 0.0
H1086 H 0.9116 -0.00862 1.1577 0.0
H1087 H 0.90571 0.0043 1.24031 0.0
H1088 H -0.05238 -0.02939 1.09113 0.0
H1089 H -0.03241 0.93055 1.07934 0.0
C1090 C 0.19202 0.75112 0.51535 0.0
C1091 C 0.17386 0.7196 0.52425 0.0
C1092 C 0.22924 0.68978 0.4944 0.0
C1093 C 0.24518 0.7221 0.47763 0.0
N1094 N 0.23012 0.77918 0.4394 0.0
N1095 N 0.17887 0.657 0.52457 0.0
C1096 C 0.2233 0.75147 0.47846 0.0
C1097 C 0.19336 0.68842 0.51294 0.0
N1098 N 0.18093 0.78113 0.54386 0.0
N1099 N 0.24681 0.65947 0.48613 0.0
H1100 H 0.15299 0.65172 0.52103 0.0
H1101 H 0.19271 0.6354 0.53916 0.0
H1102 H 0.27298 0.65712 0.48029 0.0
H1103 H 0.23525 0.63547 0.48076 0.0
H1104 H 0.19521 0.80382 0.54118 0.0
H1105 H 0.1611 0.78231 0.57831 0.0
H1106 H 0.21392 0.80054 0.4376 0.0
H1107 H 0.24813 0.77835 0.40099 0.0
C1108 C 0.41533 -0.03886 0.72672 0.0
C1109 C 0.44381 -0.01608 0.73275 0.0
C1110 C 0.46779 0.94342 0.81702 0.0
C1111 C 0.43781 0.92235 0.81308 0.0
N1112 N 0.37833 0.92219 0.7827 0.0
N1113 N 0.50298 -0.01201 0.76797 0.0
C1114 C 0.41049 0.93436 0.77344 0.0
C1115 C 0.47155 -0.02709 0.77428 0.0
N1116 N 0.39306 -0.03656 0.67454 0.0
N1117 N 0.49241 0.93645 0.86322 0.0
H1118 H 0.50852 0.00681 0.73327 0.0
H1119 H 0.52519 -0.0214 0.78997 0.0
H1120 H 0.4919 0.91516 0.89384 0.0
H1121 H 0.51179 -0.04638 0.87625 0.0
H1122 H 0.37115 -0.05179 0.67153 0.0
H1123 H 0.39845 -0.02288 0.63121 0.0
H1124 H 0.37194 0.90583 0.82197 0.0
H1125 H 0.37194 0.90583 0.82197 0.0
C1126 C 0.23459 0.19574 1.01643 0.0
C1127 C 0.253 0.16453 1.03074 0.0
C1128 C 0.20813 0.13275 0.96638 0.0
C1129 C 0.1891 0.16376 0.95778 0.0
N1130 N 0.19443 0.22507 0.94533 0.0
N1131 N 0.2504 0.10211 1.03122 0.0
C1132 C 0.20527 0.19523 0.97451 0.0
C1133 C 0.23802 0.1327 1.00845 0.0
N1134 N 0.24292 0.22625 1.04665 0.0
N1135 N 0.19911 0.10372 0.93144 0.0
H1136 H 0.26623 0.09983 1.07228 0.0
H1137 H 0.24145 0.07819 1.01616 0.0
H1138 H 0.1805 0.10356 0.89442 0.0
H1139 H 0.21337 0.08106 0.93061 0.0
H1140 H 0.22667 0.24761 1.04724 0.0
H1141 H 0.26388 0.22994 1.07666 0.0
H1142 H 0.20745 0.24842 0.94964 0.0
H1143 H 0.17578 0.22547 0.90829 0.0
C1144 C 0.69906 0.25925 1.00975 0.0
C1145 C 0.68505 0.22951 1.04121 0.0
C1146 C 0.73637 0.1967 1.00566 0.0
C1147 C 0.75089 0.22707 0.97666 0.0
N1148 N 0.73649 0.28088 0.92341 0.0
N1149 N 0.69299 0.17054 1.07491 0.0
C1150 C 0.72926 0.2563 0.9697 0.0
C1151 C 0.70413 0.19829 1.03925 0.0
N1152 N 0.68593 0.29117 1.02339 0.0
N1153 N 0.75169 0.16525 0.99696 0.0
H1154 H 0.66943 0.16965 1.09869 0.0
H1155 H 0.70825 0.14942 1.08659 0.0
H1156 H 0.77531 0.16121 0.9751 0.0
H1157 H 0.73925 0.14191 1.00477 0.0
H1158 H 0.69424 0.31372 1.0011 0.0
H1159 H 0.66926 0.29597 1.06295 0.0
H1160 H 0.71954 0.30066 0.9121 0.0
H1161 H 0.75656 0.279 0.88935 0.0
C1162 C 0.72406 0.70928 0.53766 0.0
C1163 C 0.74472 0.6791 0.53862 0.0
C1164 C 0.69739 0.6469 0.48386 0.0
C1165 C 0.67538 0.67674 0.48492 0.0
N1166 N 0.67438 0.73947 0.49772 0.0
N1167 N 0.74494 0.61725 0.53517 0.0
C1168 C 0.69028 0.70861 0.50903 0.0
C1169 C 0.72965 0.64752 0.51779 0.0
N1170 N 0.73647 0.73919 0.56477 0.0
N1171 N 0.68941 0.61813 0.44704 0.0
H1172 H 0.76671 0.61655 0.56482 0.0
H1173 H 0.7333 0.59326 0.52911 0.0
H1174 H 0.6683 0.6154 0.41645 0.0
H1175 H 0.7067 0.59799 0.439 0.0
H1176 H 0.72085 0.75954 0.58049 0.0
H1177 H 0.76225 0.74333 0.57447 0.0
H1178 H 0.6862 0.76332 0.50379 0.0
H1179 H 0.65096 0.74259 0.47492 0.0
C1180 C 0.52532 0.45052 0.78258 0.0
C1181 C 0.49807 0.47473 0.77232 0.0
C1182 C 0.47914 0.43843 0.67772 0.0
C1183 C 0.5029 0.41204 0.69377 0.0
N1184 N 0.55944 0.4049 0.73621 0.0
N1185 N 0.44116 0.4808 0.72488 0.0
C1186 C 0.52887 0.42124 0.7393 0.0
C1187 C 0.4727 0.46559 0.72422 0.0
N1188 N 0.54729 0.45374 0.83515 0.0
N1189 N 0.46558 0.44052 0.61516 0.0
H1190 H 0.43249 0.49626 0.76434 0.0
H1191 H 0.42177 0.47319 0.69211 0.0
H1192 H 0.47437 0.4254 0.57534 0.0
H1193 H 0.45008 0.46109 0.60081 0.0
H1194 H 0.56732 0.43632 0.84263 0.0
H1195 H 0.54355 0.47098 0.87466 0.0
H1196 H 0.56495 0.38618 0.69983 0.0
H1197 H 0.56495 0.38618 0.69983 0.0
C1198 C -0.05158 0.48274 0.30352 0.0
C1199 C 0.94087 0.48262 1.23372 0.0
C1200 C -0.05082 0.41994 1.23072 0.0
C1201 C -0.04785 0.41964 0.30152 0.0
N1202 N -0.04895 0.45066 0.40676 0.0
N1203 N 0.93177 0.45002 1.13133 0.0
C1204 C -0.04946 0.451 0.33832 0.0
C1205 C 0.94041 0.45092 1.1976 0.0
N1206 N -0.04563 0.51306 0.33684 0.0
N1207 N -0.04432 0.39078 1.19426 0.0
H1208 H 0.92858 0.47183 1.10218 0.0
H1209 H 0.92597 0.42726 1.10569 0.0
H1210 H -0.04221 0.36663 1.2156 0.0
H1211 H -0.04001 0.3907 1.14276 0.0
H1212 H -0.03526 0.51439 0.38477 0.0
H1213 H -0.04899 0.53712 0.31562 0.0
H1214 H -0.05466 0.47221 0.43629 0.0
H1215 H -0.04508 0.42835 0.43442 0.0
C1216 C 0.00222 0.08511 0.64289 0.0
C1217 C 0.01543 0.09526 0.57915 0.0
C1218 C 0.05965 0.12959 0.64443 0.0
C1219 C 0.04377 0.123 0.70758 0.0
N1220 N -0.00517 0.09725 0.76182 0.0
N1221 N 0.05379 0.13478 0.5242 0.0
C1222 C 0.0137 0.10148 0.70503 0.0
C1223 C 0.04343 0.11948 0.58174 0.0
N1224 N -0.02036 0.0583 0.64514 0.0
N1225 N 0.09146 0.14419 0.64346 0.0
H1226 H 0.04155 0.13003 0.47926 0.0
H1227 H 0.07112 0.15517 0.52272 0.0
H1228 H 0.10508 0.15026 0.68674 0.0
H1229 H 0.1061 0.14639 0.60003 0.0
H1230 H -0.02826 0.04678 0.68943 0.0
H1231 H -0.02813 0.04466 0.60269 0.0
H1232 H -0.02892 0.08514 0.76225 0.0
H1233 H 0.00108 0.10865 0.80737 0.0
C1234 C 0.0699 0.79321 0.81977 0.0
C1235 C 0.07237 0.75638 0.81568 0.0
C1236 C 0.03733 0.75399 0.91966 0.0
C1237 C 0.03349 0.7909 0.92163 0.0
N1238 N 0.05497 0.8452 0.88277 0.0
N1239 N 0.06362 0.70228 0.86895 0.0
C1240 C 0.05251 0.81025 0.87443 0.0
C1241 C 0.05821 0.7371 0.86891 0.0
N1242 N 0.08375 0.8122 0.76948 0.0
N1243 N 0.01978 0.73483 0.96513 0.0
H1244 H 0.07904 0.69007 0.83319 0.0
H1245 H 0.05506 0.68556 0.90564 0.0
H1246 H -0.00069 0.74517 0.99156 0.0
H1247 H 0.02178 0.7083 0.97058 0.0
H1248 H 0.07783 0.83803 0.76139 0.0
H1249 H 0.10118 0.80139 0.73568 0.0
H1250 H 0.07209 0.86042 0.85611 0.0
H1251 H 0.04135 0.85889 0.91937 0.0
C1252 C 0.3926 0.75153 1.15909 0.0
C1253 C 0.36204 0.76195 1.19097 0.0
C1254 C 0.36446 0.81344 1.11576 0.0
C1255 C 0.39856 0.8052 1.09309 0.0
N1256 N 0.44745 0.77044 1.11918 0.0
N1257 N 0.32184 0.80841 1.20537 0.0
C1258 C 0.4133 0.77566 1.12296 0.0
C1259 C 0.34875 0.79462 1.17084 0.0
N1260 N 0.40119 0.71764 1.15979 0.0
N1261 N 0.34694 0.83947 1.08583 0.0
H1262 H 0.30962 0.79505 1.24374 0.0
H1263 H 0.31324 0.83357 1.19821 0.0
H1264 H 0.35819 0.85569 1.05075 0.0
H1265 H 0.32096 0.8439 1.09448 0.0
H1266 H 0.41982 0.70785 1.12741 0.0
H1267 H 0.38595 0.69929 1.18347 0.0
H1268 H 0.45849 0.74814 1.13756 0.0
H1269 H 0.46445 0.7896 1.10466 0.0
C1270 C 0.36863 0.08803 0.41835 0.0
C1271 C 0.39983 0.10265 0.44282 0.0
C1272 C 0.38489 0.15464 0.37682 0.0
C1273 C 0.35771 0.13808 0.34269 0.0
N1274 N 0.32788 0.08431 0.32644 0.0
N1275 N 0.44201 0.14522 0.42047 0.0
C1276 C 0.35087 0.10331 0.36225 0.0
C1277 C 0.40898 0.13492 0.41568 0.0
N1278 N 0.35561 0.0595 0.44852 0.0
N1279 N 0.38866 0.18918 0.3704 0.0
H1280 H 0.46057 0.12993 0.44313 0.0
H1281 H 0.45135 0.16584 0.393 0.0
H1282 H 0.37023 0.20448 0.34742 0.0
H1283 H 0.40879 0.20246 0.39193 0.0
H1284 H 0.33127 0.04994 0.43787 0.0
H1285 H 0.36847 0.04671 0.48671 0.0
H1286 H 0.32477 0.05786 0.33301 0.0
H1287 H 0.31332 0.09486 0.28797 0.0
C1288 C 0.75204 0.88258 0.82381 0.0
C1289 C 0.75486 0.84677 0.81082 0.0
C1290 C 0.81445 0.84765 0.84314 0.0
C1291 C 0.81237 0.88357 0.8565 0.0
N1292 N 0.77802 0.93555 0.85923 0.0
N1293 N 0.7836 0.79549 0.85236 0.0
C1294 C 0.78089 0.90111 0.84699 0.0
C1295 C 0.78402 0.82938 0.83569 0.0
N1296 N 0.72214 0.89908 0.81031 0.0
N1297 N 0.84485 0.83017 0.84298 0.0
H1298 H 0.76126 0.78085 0.85438 0.0
H1299 H 0.76126 0.78085 0.85438 0.0
H1300 H 0.86855 0.84231 0.84235 0.0
H1301 H 0.84604 0.80348 0.83567 0.0
H1302 H 0.71906 0.92561 0.81738 0.0
H1303 H 0.70074 0.88547 0.79333 0.0
H1304 H 0.79861 -0.0491 0.87427 0.0
H1305 H 0.79861 -0.0491 0.87427 0.0
C1306 C 0.80514 0.03043 0.75997 0.0
C1307 C 0.77448 0.03925 0.72521 0.0
C1308 C 0.77998 -0.01366 0.66127 0.0
C1309 C 0.81535 -0.01215 0.67428 0.0
N1310 N 0.85585 -0.00533 0.76249 0.0
N1311 N 0.72892 0.0214 0.65115 0.0
C1312 C 0.82471 0.0023 0.73612 0.0
C1313 C 0.76003 0.0154 0.67946 0.0
N1314 N 0.81764 0.04989 0.81131 0.0
N1315 N 0.76644 -0.04193 0.63069 0.0
H1316 H 0.71379 0.04255 0.6648 0.0
H1317 H 0.71907 0.00601 0.61275 0.0
H1318 H 0.78164 0.93649 0.62014 0.0
H1319 H 0.74027 -0.04484 0.62245 0.0
H1320 H 0.80502 0.07142 0.8312 0.0
H1321 H 0.80502 0.07142 0.8312 0.0
H1322 H 0.86527 0.00704 0.80527 0.0
H1323 H 0.87146 -0.02421 0.74043 0.0
C1324 C 0.65919 0.01246 0.36126 0.0
C1325 C 0.64343 0.0441 0.34317 0.0
C1326 C 0.58823 0.0159 0.34484 0.0
C1327 C 0.60208 -0.01002 0.38497 0.0
N1328 N 0.65064 -0.04465 0.40951 0.0
N1329 N 0.59041 0.07661 0.32637 0.0
C1330 C 0.63785 -0.01517 0.38282 0.0
C1331 C 0.60711 0.04624 0.33768 0.0
N1332 N 0.694 0.00947 0.35966 0.0
N1333 N 0.55669 0.01219 0.31696 0.0
H1334 H 0.6025 0.10026 0.3218 0.0
H1335 H 0.56378 0.0786 0.32817 0.0
H1336 H 0.54361 -0.01119 0.31902 0.0
H1337 H 0.54608 0.03059 0.28533 0.0
H1338 H 0.70704 -0.01339 0.36874 0.0
H1339 H 0.7099 0.03017 0.34786 0.0
H1340 H 0.67659 -0.04971 0.41574 0.0
H1341 H 0.63414 0.93602 0.42616 0.0
C1342 C 0.60239 0.86612 1.10792 0.0
C1343 C 0.61563 0.89931 1.09202 0.0
C1344 C 0.67104 0.88154 1.13667 0.0
C1345 C 0.65803 0.84792 1.14625 0.0
N1346 N 0.61373 0.80605 1.12037 0.0
N1347 N 0.66287 0.93898 1.09483 0.0
C1348 C 0.625 0.8394 1.12271 0.0
C1349 C 0.65009 0.90704 1.10766 0.0
N1350 N 0.56835 0.85895 1.11158 0.0
N1351 N 0.70338 0.88982 1.1558 0.0
H1352 H 0.64757 -0.04134 1.07572 0.0
H1353 H 0.68829 0.94554 1.10472 0.0
H1354 H 0.72032 0.87193 1.17626 0.0
H1355 H 0.72032 0.87193 1.17626 0.0
H1356 H 0.54897 0.87741 1.11158 0.0
H1357 H 0.54897 0.87741 1.11158 0.0
H1358 H 0.58887 0.79961 1.1058 0.0
H1359 H 0.62986 0.78492 1.12576 0.0
C1360 C 0.54636 0.63914 1.07001 0.0
C1361 C 0.51842 0.6143 1.06859 0.0
C1362 C 0.51392 0.62415 1.1922 0.0
C1363 C 0.5424 0.64805 1.19371 0.0
N1364 N 0.59093 0.66914 1.13351 0.0
N1365 N 0.48337 0.57735 1.13554 0.0
C1366 C 0.55979 0.65307 1.13231 0.0
C1367 C 0.50433 0.60547 1.13178 0.0
N1368 N 0.56046 0.65045 1.01167 0.0
N1369 N 0.49486 0.61961 1.24876 0.0
H1370 H 0.47654 0.56249 1.09401 0.0
H1371 H 0.47577 0.56627 1.18045 0.0
H1372 H 0.49951 0.63279 0.29317 0.0
H1373 H 0.47188 0.60607 1.24956 0.0
H1374 H 0.57714 0.67133 1.00929 0.0
H1375 H 0.55358 0.64173 0.96453 0.0
H1376 H 0.60789 0.66905 1.09319 0.0
H1377 H 0.60158 0.67964 1.17689 0.0
C1378 C 0.50127 0.31284 0.37035 0.0
C1379 C 0.50974 0.30027 0.4348 0.0
C1380 C 0.55302 0.26095 0.37877 0.0
C1381 C 0.54265 0.27112 0.31427 0.0
N1382 N 0.51019 0.31247 1.2497 0.0
N1383 N 0.53737 0.25324 0.49372 0.0
C1384 C 0.51746 0.2985 0.31051 0.0
C1385 C 0.53436 0.27228 0.43711 0.0
N1386 N 0.47703 0.33814 0.36588 0.0
N1387 N 0.58209 0.24155 0.38541 0.0
H1388 H 0.52034 0.25559 0.53322 0.0
H1389 H 0.5528 0.2314 0.49738 0.0
H1390 H 0.59689 0.23312 0.3449 0.0
H1391 H 0.59378 0.23718 0.43138 0.0
H1392 H 0.46483 0.34503 0.32182 0.0
H1393 H 0.46783 0.35181 0.40729 0.0
H1394 H 0.49666 0.33527 1.24309 0.0
H1395 H 0.51865 0.3021 1.20455 0.0
C1396 C 0.89426 0.25932 0.5819 0.0
C1397 C 0.91287 0.29143 0.57783 0.0
C1398 C 0.89897 0.29894 0.70106 0.0
C1399 C 0.88106 0.26643 0.70562 0.0
N1400 N 0.85595 0.22015 0.64041 0.0
N1401 N 0.93588 0.33913 0.64091 0.0
C1402 C 0.87693 0.24827 0.64308 0.0
C1403 C 0.91616 0.31009 0.63974 0.0
N1404 N 0.89594 0.2369 0.52881 0.0
N1405 N 0.89635 0.32163 0.75362 0.0
H1406 H -0.05543 0.35134 0.59797 0.0
H1407 H -0.05484 0.35026 0.68486 0.0
H1408 H 0.88058 0.31738 0.79481 0.0
H1409 H 0.90551 0.34679 0.75276 0.0
H1410 H 0.88732 0.21154 0.53027 0.0
H1411 H 0.91003 0.24171 0.48586 0.0
H1412 H 0.84647 0.20995 0.59577 0.0
H1413 H 0.84582 0.20803 0.68196 0.0
C1414 C 0.9089 0.60583 0.86398 0.0
C1415 C 0.90388 0.62258 0.92701 0.0
C1416 C 0.8712 0.66904 0.86653 0.0
C1417 C 0.87533 0.65193 0.80334 0.0
N1418 N 0.89742 0.60171 0.74457 0.0
N1419 N 0.87802 0.66997 0.98794 0.0
C1420 C 0.89411 0.61975 0.80317 0.0
C1421 C 0.8845 0.65417 0.92773 0.0
N1422 N 0.92761 0.57595 0.86207 0.0
N1423 N 0.85426 0.69991 0.86851 0.0
H1424 H 0.89053 0.6633 1.03195 0.0
H1425 H 0.85968 0.68914 0.99516 0.0
H1426 H 0.84016 0.70935 0.82848 0.0
H1427 H 0.85475 0.7169 0.90908 0.0
H1428 H 0.93654 0.564 0.81864 0.0
H1429 H 0.93562 0.56301 0.90467 0.0
H1430 H 0.90628 0.5765 0.74045 0.0
H1431 H 0.89003 0.61144 0.69889 0.0
C1432 C 0.32189 0.36174 0.45124 0.0
C1433 C 0.31836 0.39789 0.4394 0.0
C1434 C 0.26115 0.38692 0.39473 0.0
C1435 C 0.26657 0.35113 0.40283 0.0
N1436 N 0.29178 0.31019 0.4785 0.0
N1437 N 0.28253 0.44497 0.40336 0.0
C1438 C 0.29322 0.3406 0.44505 0.0
C1439 C 0.28716 0.4105 0.41282 0.0
N1440 N 0.35172 0.34616 0.46882 0.0
N1441 N 0.23199 0.39861 0.36581 0.0
H1442 H 0.30172 0.46299 0.41338 0.0
H1443 H 0.25981 0.45503 0.38422 0.0
H1444 H 0.21217 0.38211 0.35134 0.0
H1445 H 0.21217 0.38211 0.35134 0.0
H1446 H 0.37566 0.35784 0.4685 0.0
H1447 H 0.37566 0.35784 0.4685 0.0
H1448 H 0.31198 0.30141 0.50799 0.0
H1449 H 0.2688 0.29704 0.48488 0.0
C1450 C 0.27058 0.51382 1.1483 0.0
C1451 C 0.28615 0.54312 1.17828 0.0
C1452 C 0.34261 0.51675 1.16579 0.0
C1453 C 0.32756 0.49093 1.12531 0.0
N1454 N 0.27891 0.45629 1.10055 0.0
N1455 N 0.33785 0.56913 1.22648 0.0
C1456 C 0.29182 0.48617 1.12642 0.0
C1457 C 0.32208 0.54359 1.19077 0.0
N1458 N 0.23609 0.51356 1.13707 0.0
N1459 N 0.37699 0.51669 1.17813 0.0
H1460 H 0.3255 0.58994 1.24947 0.0
H1461 H 0.3255 0.58994 1.24947 0.0
H1462 H 0.39264 0.49569 1.16695 0.0
H1463 H 0.38928 0.53656 1.20423 0.0
H1464 H 0.2235 0.49409 1.11086 0.0
H1465 H 0.22012 0.53403 1.15093 0.0
H1466 H 0.25307 0.44985 1.10126 0.0
H1467 H 0.29523 0.43687 1.08267 0.0
C1468 C 0.16331 0.56388 0.94024 0.0
C1469 C 0.17878 0.55266 0.88035 0.0
C1470 C 0.14343 0.50136 0.87959 0.0
C1471 C 0.12044 0.51931 0.92222 0.0
N1472 N 0.11238 0.56557 1.0055 0.0
N1473 N 0.20217 0.49932 0.83964 0.0
C1474 C 0.13163 0.5494 0.95763 0.0
C1475 C 0.17514 0.51725 0.86516 0.0
N1476 N 0.17643 0.59134 0.97436 0.0
N1477 N 0.13467 0.47041 0.85152 0.0
H1478 H 0.22577 0.51139 0.83234 0.0
H1479 H 0.20175 0.47272 0.83174 0.0
H1480 H 0.11155 0.45811 0.86213 0.0
H1481 H 0.14975 0.45799 0.81553 0.0
H1482 H 0.16468 0.60164 1.01715 0.0
H1483 H 0.19923 0.60289 0.95885 0.0
H1484 H 0.08842 0.55709 1.02157 0.0
H1485 H 0.08842 0.55709 1.02157 0.0
C1486 C 0.14469 0.42059 0.67273 0.0
C1487 C 0.10863 0.41854 0.67457 0.0
C1488 C 0.11125 0.3603 0.71333 0.0
C1489 C 0.14687 0.35906 0.69686 0.0
N1490 N 0.19859 0.39021 0.66945 0.0
N1491 N 0.06442 0.39676 0.74667 0.0
C1492 C 0.16414 0.39003 0.68038 0.0
C1493 C 0.0947 0.39223 0.71388 0.0
N1494 N 0.16017 0.45036 0.65457 0.0
N1495 N 0.09223 0.33206 0.72875 0.0
H1496 H 0.05326 0.42114 0.75118 0.0
H1497 H 0.05275 0.37699 0.77357 0.0
H1498 H 0.10114 0.30677 0.72698 0.0
H1499 H 0.10114 0.30677 0.72698 0.0
H1500 H 0.14627 0.4729 0.64577 0.0
H1501 H 0.14627 0.4729 0.64577 0.0
H1502 H 0.2117 0.41265 0.65666 0.0
H1503 H 0.21349 0.36789 0.67204 0.0
loop_
_geom_bond_atom_site_label_1
_geom_bond_atom_site_label_2
_geom_bond_distance
_geom_bond_site_symmetry_2
_ccdc_geom_bond_type
Eu0 C9 2.828 1_554 S
Eu0 O11 2.392 . S
Eu0 O13 2.418 . S
Eu0 O18 2.373 . S
Eu0 O21 2.488 . S
Eu0 O22 2.471 . S
Eu0 O23 2.349 . S
Eu1 O10 2.373 1_655 S
Eu1 O14 2.488 . S
Eu1 O15 2.471 . S
Eu1 O16 2.349 1_655 S
Eu1 O19 2.392 . S
Eu1 O20 2.418 1_655 S
Eu1 C30 2.828 . S
C2 O20 1.244 . S
C2 O23 1.265 . S
C3 C4 1.379 . S
C3 C7 1.373 . S
C3 C9 1.505 . S
C4 C3 1.379 . S
C4 C6 1.369 . S
C4 H32 0.930 . S
C5 C7 1.383 . S
C5 C8 1.382 . S
C5 H33 0.930 . S
C6 C4 1.369 . S
C6 C8 1.392 . S
C6 H34 0.930 . S
C7 C3 1.373 . S
C7 C5 1.383 . S
C7 H35 0.931 . S
C8 C5 1.382 . S
C8 C6 1.392 . S
C9 Eu0 2.828 1_556 S
C9 C3 1.505 . S
C9 O21 1.249 1_556 S
C9 O22 1.244 1_556 S
O10 Eu1 2.373 1_455 S
O10 C12 1.258 . S
O11 Eu0 2.392 . S
O11 C12 1.242 . S
C12 O10 1.258 . S
C12 O11 1.242 . S
O13 Eu0 2.418 . S
O13 C17 1.244 . S
O14 Eu1 2.488 . S
O14 C30 1.249 . S
O15 Eu1 2.471 . S
O15 C30 1.244 . S
O16 Eu1 2.349 1_455 S
O16 C17 1.265 . S
C17 O13 1.244 . S
C17 O16 1.265 . S
O18 Eu0 2.373 . S
O18 C31 1.258 1_455 S
O19 Eu1 2.392 . S
O19 C31 1.242 . S
O20 Eu1 2.418 1_455 S
O20 C2 1.244 . S
O21 Eu0 2.488 . S
O21 C9 1.249 1_554 S
O22 Eu0 2.471 . S
O22 C9 1.244 1_554 S
O23 Eu0 2.349 . S
O23 C2 1.265 . S
C24 C25 1.379 . S
C24 C28 1.373 . S
C24 C30 1.505 . S
C25 C24 1.379 . S
C25 C27 1.369 . S
C25 H36 0.930 . S
C26 C28 1.383 . S
C26 C29 1.382 . S
C26 H37 0.930 . S
C27 C25 1.369 . S
C27 C29 1.392 . S
C27 H38 0.930 . S
C28 C24 1.373 . S
C28 C26 1.383 . S
C28 H39 0.931 . S
C29 C26 1.382 . S
C29 C27 1.392 . S
C30 Eu1 2.828 . S
C30 O14 1.249 . S
C30 O15 1.244 . S
C30 C24 1.505 . S
C31 O18 1.258 1_655 S
C31 O19 1.242 . S
H32 C4 0.930 . S
H33 C5 0.930 . S
H34 C6 0.930 . S
H35 C7 0.931 . S
H36 C25 0.930 . S
H37 C26 0.930 . S
H38 C27 0.930 . S
H39 C28 0.931 . S
Eu40 C49 2.828 . S
Eu40 O51 2.392 . S
Eu40 O53 2.418 . S
Eu40 O58 2.373 . S
Eu40 O61 2.488 . S
Eu40 O62 2.471 . S
Eu40 O63 2.349 . S
Eu41 O50 2.373 . S
Eu41 O54 2.488 . S
Eu41 O55 2.471 . S
Eu41 O56 2.349 . S
Eu41 O59 2.392 . S
Eu41 O60 2.418 . S
Eu41 C70 2.828 . S
C42 O60 1.244 . S
C42 O63 1.265 . S
C43 C44 1.379 . S
C43 C47 1.373 . S
C43 C49 1.505 . S
C44 C43 1.379 . S
C44 C46 1.369 . S
C44 H72 0.930 . S
C45 C47 1.383 . S
C45 C48 1.382 . S
C45 H73 0.930 . S
C46 C44 1.369 . S
C46 C48 1.392 . S
C46 H74 0.930 . S
C47 C43 1.373 . S
C47 C45 1.383 . S
C47 H75 0.931 . S
C48 C45 1.382 . S
C48 C46 1.392 . S
C49 Eu40 2.828 . S
C49 C43 1.505 . S
C49 O61 1.249 . S
C49 O62 1.244 . S
O50 Eu41 2.373 . S
O50 C52 1.258 . S
O51 Eu40 2.392 . S
O51 C52 1.242 . S
C52 O50 1.258 . S
C52 O51 1.242 . S
O53 Eu40 2.418 . S
O53 C57 1.244 . S
O54 Eu41 2.488 . S
O54 C70 1.249 . S
O55 Eu41 2.471 . S
O55 C70 1.244 . S
O56 Eu41 2.349 . S
O56 C57 1.265 . S
C57 O53 1.244 . S
C57 O56 1.265 . S
O58 Eu40 2.373 . S
O58 C71 1.258 . S
O59 Eu41 2.392 . S
O59 C71 1.242 . S
O60 Eu41 2.418 . S
O60 C42 1.244 . S
O61 Eu40 2.488 . S
O61 C49 1.249 . S
O62 Eu40 2.471 . S
O62 C49 1.244 . S
O63 Eu40 2.349 . S
O63 C42 1.265 . S
C64 C65 1.379 . S
C64 C68 1.373 . S
C64 C70 1.505 . S
C65 C64 1.379 . S
C65 C67 1.369 . S
C65 H76 0.930 . S
C66 C68 1.383 . S
C66 C69 1.382 . S
C66 H77 0.930 . S
C67 C65 1.369 . S
C67 C69 1.392 . S
C67 H78 0.930 . S
C68 C64 1.373 . S
C68 C66 1.383 . S
C68 H79 0.931 . S
C69 C66 1.382 . S
C69 C67 1.392 . S
C70 Eu41 2.828 . S
C70 O54 1.249 . S
C70 O55 1.244 . S
C70 C64 1.505 . S
C71 O58 1.258 . S
C71 O59 1.242 . S
H72 C44 0.930 . S
H73 C45 0.930 . S
H74 C46 0.930 . S
H75 C47 0.931 . S
H76 C65 0.930 . S
H77 C66 0.930 . S
H78 C67 0.930 . S
H79 C68 0.931 . S
Eu80 C89 2.828 . S
Eu80 O91 2.392 . S
Eu80 O93 2.418 . S
Eu80 O98 2.373 . S
Eu80 O101 2.488 . S
Eu80 O102 2.471 . S
Eu80 O103 2.349 . S
Eu81 O90 2.373 . S
Eu81 O94 2.488 . S
Eu81 O95 2.471 . S
Eu81 O96 2.349 . S
Eu81 O99 2.392 . S
Eu81 O100 2.418 . S
Eu81 C110 2.828 . S
C82 O100 1.244 . S
C82 O103 1.265 . S
C83 C84 1.379 . S
C83 C87 1.373 . S
C83 C89 1.505 . S
C84 C83 1.379 . S
C84 C86 1.369 . S
C84 H112 0.930 . S
C85 C87 1.383 . S
C85 C88 1.382 . S
C85 H113 0.930 . S
C86 C84 1.369 . S
C86 C88 1.392 . S
C86 H114 0.930 . S
C87 C83 1.373 . S
C87 C85 1.383 . S
C87 H115 0.931 . S
C88 C85 1.382 . S
C88 C86 1.392 . S
C89 Eu80 2.828 . S
C89 C83 1.505 . S
C89 O101 1.249 . S
C89 O102 1.244 . S
O90 Eu81 2.373 . S
O90 C92 1.258 . S
O91 Eu80 2.392 . S
O91 C92 1.242 . S
C92 O90 1.258 . S
C92 O91 1.242 . S
O93 Eu80 2.418 . S
O93 C97 1.244 . S
O94 Eu81 2.488 . S
O94 C110 1.249 . S
O95 Eu81 2.471 . S
O95 C110 1.244 . S
O96 Eu81 2.349 . S
O96 C97 1.265 . S
C97 O93 1.244 . S
C97 O96 1.265 . S
O98 Eu80 2.373 . S
O98 C111 1.258 . S
O99 Eu81 2.392 . S
O99 C111 1.242 . S
O100 Eu81 2.418 . S
O100 C82 1.244 . S
O101 Eu80 2.488 . S
O101 C89 1.249 . S
O102 Eu80 2.471 . S
O102 C89 1.244 . S
O103 Eu80 2.349 . S
O103 C82 1.265 . S
C104 C105 1.379 . S
C104 C108 1.373 . S
C104 C110 1.505 . S
C105 C104 1.379 . S
C105 C107 1.369 . S
C105 H116 0.930 . S
C106 C108 1.383 . S
C106 C109 1.382 . S
C106 H117 0.930 . S
C107 C105 1.369 . S
C107 C109 1.392 . S
C107 H118 0.930 . S
C108 C104 1.373 . S
C108 C106 1.383 . S
C108 H119 0.931 . S
C109 C106 1.382 . S
C109 C107 1.392 . S
C110 Eu81 2.828 . S
C110 O94 1.249 . S
C110 O95 1.244 . S
C110 C104 1.505 . S
C111 O98 1.258 . S
C111 O99 1.242 . S
H112 C84 0.930 . S
H113 C85 0.930 . S
H114 C86 0.930 . S
H115 C87 0.931 . S
H116 C105 0.930 . S
H117 C106 0.930 . S
H118 C107 0.930 . S
H119 C108 0.931 . S
Eu120 C129 2.828 . S
Eu120 O131 2.392 . S
Eu120 O133 2.418 . S
Eu120 O138 2.373 . S
Eu120 O141 2.488 . S
Eu120 O142 2.471 . S
Eu120 O143 2.349 . S
Eu121 O130 2.373 . S
Eu121 O134 2.488 . S
Eu121 O135 2.471 . S
Eu121 O136 2.349 . S
Eu121 O139 2.392 . S
Eu121 O140 2.418 . S
Eu121 C150 2.828 . S
C122 O140 1.244 . S
C122 O143 1.265 . S
C123 C124 1.379 . S
C123 C127 1.373 . S
C123 C129 1.505 . S
C124 C123 1.379 . S
C124 C126 1.369 . S
C124 H152 0.930 . S
C125 C127 1.383 . S
C125 C128 1.382 . S
C125 H153 0.930 . S
C126 C124 1.369 . S
C126 C128 1.392 . S
C126 H154 0.930 . S
C127 C123 1.373 . S
C127 C125 1.383 . S
C127 H155 0.931 . S
C128 C125 1.382 . S
C128 C126 1.392 . S
C129 Eu120 2.828 . S
C129 C123 1.505 . S
C129 O141 1.249 . S
C129 O142 1.244 . S
O130 Eu121 2.373 . S
O130 C132 1.258 . S
O131 Eu120 2.392 . S
O131 C132 1.242 . S
C132 O130 1.258 . S
C132 O131 1.242 . S
O133 Eu120 2.418 . S
O133 C137 1.244 . S
O134 Eu121 2.488 . S
O134 C150 1.249 . S
O135 Eu121 2.471 . S
O135 C150 1.244 . S
O136 Eu121 2.349 . S
O136 C137 1.265 . S
C137 O133 1.244 . S
C137 O136 1.265 . S
O138 Eu120 2.373 . S
O138 C151 1.258 . S
O139 Eu121 2.392 . S
O139 C151 1.242 . S
O140 Eu121 2.418 . S
O140 C122 1.244 . S
O141 Eu120 2.488 . S
O141 C129 1.249 . S
O142 Eu120 2.471 . S
O142 C129 1.244 . S
O143 Eu120 2.349 . S
O143 C122 1.265 . S
C144 C145 1.379 . S
C144 C148 1.373 . S
C144 C150 1.505 1_554 S
C145 C144 1.379 . S
C145 C147 1.369 . S
C145 H156 0.930 . S
C146 C148 1.383 . S
C146 C149 1.382 . S
C146 H157 0.930 . S
C147 C145 1.369 . S
C147 C149 1.392 . S
C147 H158 0.930 . S
C148 C144 1.373 . S
C148 C146 1.383 . S
C148 H159 0.931 . S
C149 C146 1.382 . S
C149 C147 1.392 . S
C150 Eu121 2.828 . S
C150 O134 1.249 . S
C150 O135 1.244 . S
C150 C144 1.505 1_556 S
C151 O138 1.258 . S
C151 O139 1.242 . S
H152 C124 0.930 . S
H153 C125 0.930 . S
H154 C126 0.930 . S
H155 C127 0.931 . S
H156 C145 0.930 . S
H157 C146 0.930 . S
H158 C147 0.930 . S
H159 C148 0.931 . S
Eu160 C169 2.828 1_556 S
Eu160 O171 2.392 . S
Eu160 O173 2.418 . S
Eu160 O178 2.373 . S
Eu160 O181 2.488 . S
Eu160 O182 2.471 . S
Eu160 O183 2.349 . S
Eu161 O170 2.373 1_655 S
Eu161 O174 2.488 . S
Eu161 O175 2.471 . S
Eu161 O176 2.349 1_655 S
Eu161 O179 2.392 . S
Eu161 O180 2.418 1_655 S
Eu161 C190 2.828 . S
C162 O180 1.244 . S
C162 O183 1.265 . S
C163 C164 1.379 . S
C163 C167 1.373 . S
C163 C169 1.505 . S
C164 C163 1.379 . S
C164 C166 1.369 . S
C164 H192 0.930 . S
C165 C167 1.383 . S
C165 C168 1.382 . S
C165 H193 0.930 . S
C166 C164 1.369 . S
C166 C168 1.392 . S
C166 H194 0.930 . S
C167 C163 1.373 . S
C167 C165 1.383 . S
C167 H195 0.931 . S
C168 C165 1.382 . S
C168 C166 1.392 . S
C169 Eu160 2.828 1_554 S
C169 C163 1.505 . S
C169 O181 1.249 1_554 S
C169 O182 1.244 1_554 S
O170 Eu161 2.373 1_455 S
O170 C172 1.258 . S
O171 Eu160 2.392 . S
O171 C172 1.242 . S
C172 O170 1.258 . S
C172 O171 1.242 . S
O173 Eu160 2.418 . S
O173 C177 1.244 . S
O174 Eu161 2.488 . S
O174 C190 1.249 . S
O175 Eu161 2.471 . S
O175 C190 1.244 . S
O176 Eu161 2.349 1_455 S
O176 C177 1.265 . S
C177 O173 1.244 . S
C177 O176 1.265 . S
O178 Eu160 2.373 . S
O178 C191 1.258 1_455 S
O179 Eu161 2.392 . S
O179 C191 1.242 . S
O180 Eu161 2.418 1_455 S
O180 C162 1.244 . S
O181 Eu160 2.488 . S
O181 C169 1.249 1_556 S
O182 Eu160 2.471 . S
O182 C169 1.244 1_556 S
O183 Eu160 2.349 . S
O183 C162 1.265 . S
C184 C185 1.379 . S
C184 C188 1.373 . S
C184 C190 1.505 . S
C185 C184 1.379 . S
C185 C187 1.369 . S
C185 H196 0.930 . S
C186 C188 1.383 . S
C186 C189 1.382 . S
C186 H197 0.930 . S
C187 C185 1.369 . S
C187 C189 1.392 . S
C187 H198 0.930 . S
C188 C184 1.373 . S
C188 C186 1.383 . S
C188 H199 0.931 . S
C189 C186 1.382 . S
C189 C187 1.392 . S
C190 Eu161 2.828 . S
C190 O174 1.249 . S
C190 O175 1.244 . S
C190 C184 1.505 . S
C191 O178 1.258 1_655 S
C191 O179 1.242 . S
H192 C164 0.930 . S
H193 C165 0.930 . S
H194 C166 0.930 . S
H195 C167 0.931 . S
H196 C185 0.930 . S
H197 C186 0.930 . S
H198 C187 0.930 . S
H199 C188 0.931 . S
Eu200 C209 2.828 . S
Eu200 O211 2.392 . S
Eu200 O213 2.418 . S
Eu200 O218 2.373 . S
Eu200 O221 2.488 . S
Eu200 O222 2.471 . S
Eu200 O223 2.349 . S
Eu201 O210 2.373 . S
Eu201 O214 2.488 . S
Eu201 O215 2.471 . S
Eu201 O216 2.349 . S
Eu201 O219 2.392 . S
Eu201 O220 2.418 . S
Eu201 C230 2.828 . S
C202 O220 1.244 . S
C202 O223 1.265 . S
C203 C204 1.379 . S
C203 C207 1.373 . S
C203 C209 1.505 . S
C204 C203 1.379 . S
C204 C206 1.369 . S
C204 H232 0.930 . S
C205 C207 1.383 . S
C205 C208 1.382 . S
C205 H233 0.930 . S
C206 C204 1.369 . S
C206 C208 1.392 . S
C206 H234 0.930 . S
C207 C203 1.373 . S
C207 C205 1.383 . S
C207 H235 0.931 . S
C208 C205 1.382 . S
C208 C206 1.392 . S
C209 Eu200 2.828 . S
C209 C203 1.505 . S
C209 O221 1.249 . S
C209 O222 1.244 . S
O210 Eu201 2.373 . S
O210 C212 1.258 . S
O211 Eu200 2.392 . S
O211 C212 1.242 . S
C212 O210 1.258 . S
C212 O211 1.242 . S
O213 Eu200 2.418 . S
O213 C217 1.244 . S
O214 Eu201 2.488 . S
O214 C230 1.249 . S
O215 Eu201 2.471 . S
O215 C230 1.244 . S
O216 Eu201 2.349 . S
O216 C217 1.265 . S
C217 O213 1.244 . S
C217 O216 1.265 . S
O218 Eu200 2.373 . S
O218 C231 1.258 . S
O219 Eu201 2.392 . S
O219 C231 1.242 . S
O220 Eu201 2.418 . S
O220 C202 1.244 . S
O221 Eu200 2.488 . S
O221 C209 1.249 . S
O222 Eu200 2.471 . S
O222 C209 1.244 . S
O223 Eu200 2.349 . S
O223 C202 1.265 . S
C224 C225 1.379 . S
C224 C228 1.373 . S
C224 C230 1.505 1_556 S
C225 C224 1.379 . S
C225 C227 1.369 . S
C225 H236 0.930 . S
C226 C228 1.383 . S
C226 C229 1.382 . S
C226 H237 0.930 . S
C227 C225 1.369 . S
C227 C229 1.392 . S
C227 H238 0.930 . S
C228 C224 1.373 . S
C228 C226 1.383 . S
C228 H239 0.931 . S
C229 C226 1.382 . S
C229 C227 1.392 . S
C230 Eu201 2.828 . S
C230 O214 1.249 . S
C230 O215 1.244 . S
C230 C224 1.505 1_554 S
C231 O218 1.258 . S
C231 O219 1.242 . S
H232 C204 0.930 . S
H233 C205 0.930 . S
H234 C206 0.930 . S
H235 C207 0.931 . S
H236 C225 0.930 . S
H237 C226 0.930 . S
H238 C227 0.930 . S
H239 C228 0.931 . S
Eu240 C249 2.828 . S
Eu240 O251 2.392 . S
Eu240 O253 2.418 . S
Eu240 O258 2.373 . S
Eu240 O261 2.488 . S
Eu240 O262 2.471 . S
Eu240 O263 2.349 . S
Eu241 O250 2.373 . S
Eu241 O254 2.488 . S
Eu241 O255 2.471 . S
Eu241 O256 2.349 . S
Eu241 O259 2.392 . S
Eu241 O260 2.418 . S
Eu241 C270 2.828 . S
C242 O260 1.244 . S
C242 O263 1.265 . S
C243 C244 1.379 . S
C243 C247 1.373 . S
C243 C249 1.505 . S
C244 C243 1.379 . S
C244 C246 1.369 . S
C244 H272 0.930 . S
C245 C247 1.383 . S
C245 C248 1.382 . S
C245 H273 0.930 . S
C246 C244 1.369 . S
C246 C248 1.392 . S
C246 H274 0.930 . S
C247 C243 1.373 . S
C247 C245 1.383 . S
C247 H275 0.931 . S
C248 C245 1.382 . S
C248 C246 1.392 . S
C249 Eu240 2.828 . S
C249 C243 1.505 . S
C249 O261 1.249 . S
C249 O262 1.244 . S
O250 Eu241 2.373 . S
O250 C252 1.258 . S
O251 Eu240 2.392 . S
O251 C252 1.242 . S
C252 O250 1.258 . S
C252 O251 1.242 . S
O253 Eu240 2.418 . S
O253 C257 1.244 . S
O254 Eu241 2.488 . S
O254 C270 1.249 . S
O255 Eu241 2.471 . S
O255 C270 1.244 . S
O256 Eu241 2.349 . S
O256 C257 1.265 . S
C257 O253 1.244 . S
C257 O256 1.265 . S
O258 Eu240 2.373 . S
O258 C271 1.258 . S
O259 Eu241 2.392 . S
O259 C271 1.242 . S
O260 Eu241 2.418 . S
O260 C242 1.244 . S
O261 Eu240 2.488 . S
O261 C249 1.249 . S
O262 Eu240 2.471 . S
O262 C249 1.244 . S
O263 Eu240 2.349 . S
O263 C242 1.265 . S
C264 C265 1.379 . S
C264 C268 1.373 . S
C264 C270 1.505 . S
C265 C264 1.379 . S
C265 C267 1.369 . S
C265 H276 0.930 . S
C266 C268 1.383 . S
C266 C269 1.382 . S
C266 H277 0.930 . S
C267 C265 1.369 . S
C267 C269 1.392 . S
C267 H278 0.930 . S
C268 C264 1.373 . S
C268 C266 1.383 . S
C268 H279 0.931 . S
C269 C266 1.382 . S
C269 C267 1.392 . S
C270 Eu241 2.828 . S
C270 O254 1.249 . S
C270 O255 1.244 . S
C270 C264 1.505 . S
C271 O258 1.258 . S
C271 O259 1.242 . S
H272 C244 0.930 . S
H273 C245 0.930 . S
H274 C246 0.930 . S
H275 C247 0.931 . S
H276 C265 0.930 . S
H277 C266 0.930 . S
H278 C267 0.930 . S
H279 C268 0.931 . S
Eu280 C289 2.828 . S
Eu280 O291 2.392 . S
Eu280 O293 2.418 . S
Eu280 O298 2.373 . S
Eu280 O301 2.488 . S
Eu280 O302 2.471 . S
Eu280 O303 2.349 . S
Eu281 O290 2.373 . S
Eu281 O294 2.488 . S
Eu281 O295 2.471 . S
Eu281 O296 2.349 . S
Eu281 O299 2.392 . S
Eu281 O300 2.418 . S
Eu281 C310 2.828 . S
C282 O300 1.244 . S
C282 O303 1.265 . S
C283 C284 1.379 . S
C283 C287 1.373 . S
C283 C289 1.505 . S
C284 C283 1.379 . S
C284 C286 1.369 . S
C284 H312 0.930 . S
C285 C287 1.383 . S
C285 C288 1.382 . S
C285 H313 0.930 . S
C286 C284 1.369 . S
C286 C288 1.392 . S
C286 H314 0.930 . S
C287 C283 1.373 . S
C287 C285 1.383 . S
C287 H315 0.931 . S
C288 C285 1.382 . S
C288 C286 1.392 . S
C289 Eu280 2.828 . S
C289 C283 1.505 . S
C289 O301 1.249 . S
C289 O302 1.244 . S
O290 Eu281 2.373 . S
O290 C292 1.258 . S
O291 Eu280 2.392 . S
O291 C292 1.242 . S
C292 O290 1.258 . S
C292 O291 1.242 . S
O293 Eu280 2.418 . S
O293 C297 1.244 . S
O294 Eu281 2.488 . S
O294 C310 1.249 . S
O295 Eu281 2.471 . S
O295 C310 1.244 . S
O296 Eu281 2.349 . S
O296 C297 1.265 . S
C297 O293 1.244 . S
C297 O296 1.265 . S
O298 Eu280 2.373 . S
O298 C311 1.258 . S
O299 Eu281 2.392 . S
O299 C311 1.242 . S
O300 Eu281 2.418 . S
O300 C282 1.244 . S
O301 Eu280 2.488 . S
O301 C289 1.249 . S
O302 Eu280 2.471 . S
O302 C289 1.244 . S
O303 Eu280 2.349 . S
O303 C282 1.265 . S
C304 C305 1.379 . S
C304 C308 1.373 . S
C304 C310 1.505 . S
C305 C304 1.379 . S
C305 C307 1.369 . S
C305 H316 0.930 . S
C306 C308 1.383 . S
C306 C309 1.382 . S
C306 H317 0.930 . S
C307 C305 1.369 . S
C307 C309 1.392 . S
C307 H318 0.930 . S
C308 C304 1.373 . S
C308 C306 1.383 . S
C308 H319 0.931 . S
C309 C306 1.382 . S
C309 C307 1.392 . S
C310 Eu281 2.828 . S
C310 O294 1.249 . S
C310 O295 1.244 . S
C310 C304 1.505 . S
C311 O298 1.258 . S
C311 O299 1.242 . S
H312 C284 0.930 . S
H313 C285 0.930 . S
H314 C286 0.930 . S
H315 C287 0.931 . S
H316 C305 0.930 . S
H317 C306 0.930 . S
H318 C307 0.930 . S
H319 C308 0.931 . S
Eu320 C329 2.828 . S
Eu320 O331 2.392 . S
Eu320 O333 2.418 . S
Eu320 O338 2.373 . S
Eu320 O341 2.488 . S
Eu320 O342 2.471 . S
Eu320 O343 2.349 . S
Eu321 O330 2.373 . S
Eu321 O334 2.488 . S
Eu321 O335 2.471 . S
Eu321 O336 2.349 . S
Eu321 O339 2.392 . S
Eu321 O340 2.418 . S
Eu321 C350 2.828 . S
C322 O340 1.244 . S
C322 O343 1.265 . S
C323 C324 1.379 . S
C323 C327 1.373 . S
C323 C329 1.505 . S
C324 C323 1.379 . S
C324 C326 1.369 . S
C324 H352 0.930 . S
C325 C327 1.383 . S
C325 C328 1.382 . S
C325 H353 0.930 . S
C326 C324 1.369 . S
C326 C328 1.392 . S
C326 H354 0.930 . S
C327 C323 1.373 . S
C327 C325 1.383 . S
C327 H355 0.931 . S
C328 C325 1.382 . S
C328 C326 1.392 . S
C329 Eu320 2.828 . S
C329 C323 1.505 . S
C329 O341 1.249 . S
C329 O342 1.244 . S
O330 Eu321 2.373 . S
O330 C332 1.258 . S
O331 Eu320 2.392 . S
O331 C332 1.242 . S
C332 O330 1.258 . S
C332 O331 1.242 . S
O333 Eu320 2.418 . S
O333 C337 1.244 . S
O334 Eu321 2.488 . S
O334 C350 1.249 . S
O335 Eu321 2.471 . S
O335 C350 1.244 . S
O336 Eu321 2.349 . S
O336 C337 1.265 . S
C337 O333 1.244 . S
C337 O336 1.265 . S
O338 Eu320 2.373 . S
O338 C351 1.258 . S
O339 Eu321 2.392 . S
O339 C351 1.242 . S
O340 Eu321 2.418 . S
O340 C322 1.244 . S
O341 Eu320 2.488 . S
O341 C329 1.249 . S
O342 Eu320 2.471 . S
O342 C329 1.244 . S
O343 Eu320 2.349 . S
O343 C322 1.265 . S
C344 C345 1.379 . S
C344 C348 1.373 . S
C344 C350 1.505 . S
C345 C344 1.379 . S
C345 C347 1.369 . S
C345 H356 0.930 . S
C346 C348 1.383 . S
C346 C349 1.382 . S
C346 H357 0.930 . S
C347 C345 1.369 . S
C347 C349 1.392 . S
C347 H358 0.930 . S
C348 C344 1.373 . S
C348 C346 1.383 . S
C348 H359 0.931 . S
C349 C346 1.382 . S
C349 C347 1.392 . S
C350 Eu321 2.828 . S
C350 O334 1.249 . S
C350 O335 1.244 . S
C350 C344 1.505 . S
C351 O338 1.258 . S
C351 O339 1.242 . S
H352 C324 0.930 . S
H353 C325 0.930 . S
H354 C326 0.930 . S
H355 C327 0.931 . S
H356 C345 0.930 . S
H357 C346 0.930 . S
H358 C347 0.930 . S
H359 C348 0.931 . S
Eu360 C369 2.828 . S
Eu360 O371 2.392 . S
Eu360 O373 2.418 . S
Eu360 O378 2.373 . S
Eu360 O381 2.488 . S
Eu360 O382 2.471 . S
Eu360 O383 2.349 . S
Eu361 O370 2.373 . S
Eu361 O374 2.488 . S
Eu361 O375 2.471 . S
Eu361 O376 2.349 . S
Eu361 O379 2.392 . S
Eu361 O380 2.418 . S
Eu361 C390 2.828 . S
C362 O380 1.244 . S
C362 O383 1.265 . S
C363 C364 1.379 . S
C363 C367 1.373 . S
C363 C369 1.505 . S
C364 C363 1.379 . S
C364 C366 1.369 . S
C364 H392 0.930 . S
C365 C367 1.383 . S
C365 C368 1.382 . S
C365 H393 0.930 . S
C366 C364 1.369 . S
C366 C368 1.392 . S
C366 H394 0.930 . S
C367 C363 1.373 . S
C367 C365 1.383 . S
C367 H395 0.931 . S
C368 C365 1.382 . S
C368 C366 1.392 . S
C369 Eu360 2.828 . S
C369 C363 1.505 . S
C369 O381 1.249 . S
C369 O382 1.244 . S
O370 Eu361 2.373 . S
O370 C372 1.258 . S
O371 Eu360 2.392 . S
O371 C372 1.242 . S
C372 O370 1.258 . S
C372 O371 1.242 . S
O373 Eu360 2.418 . S
O373 C377 1.244 . S
O374 Eu361 2.488 . S
O374 C390 1.249 . S
O375 Eu361 2.471 . S
O375 C390 1.244 . S
O376 Eu361 2.349 . S
O376 C377 1.265 . S
C377 O373 1.244 . S
C377 O376 1.265 . S
O378 Eu360 2.373 . S
O378 C391 1.258 . S
O379 Eu361 2.392 . S
O379 C391 1.242 . S
O380 Eu361 2.418 . S
O380 C362 1.244 . S
O381 Eu360 2.488 . S
O381 C369 1.249 . S
O382 Eu360 2.471 . S
O382 C369 1.244 . S
O383 Eu360 2.349 . S
O383 C362 1.265 . S
C384 C385 1.379 . S
C384 C388 1.373 . S
C384 C390 1.505 1_556 S
C385 C384 1.379 . S
C385 C387 1.369 . S
C385 H396 0.930 . S
C386 C388 1.383 . S
C386 C389 1.382 . S
C386 H397 0.930 . S
C387 C385 1.369 . S
C387 C389 1.392 . S
C387 H398 0.930 . S
C388 C384 1.373 . S
C388 C386 1.383 . S
C388 H399 0.931 . S
C389 C386 1.382 . S
C389 C387 1.392 . S
C390 Eu361 2.828 . S
C390 O374 1.249 . S
C390 O375 1.244 . S
C390 C384 1.505 1_554 S
C391 O378 1.258 . S
C391 O379 1.242 . S
H392 C364 0.930 . S
H393 C365 0.930 . S
H394 C366 0.930 . S
H395 C367 0.931 . S
H396 C385 0.930 . S
H397 C386 0.930 . S
H398 C387 0.930 . S
H399 C388 0.931 . S
Eu400 C409 2.828 . S
Eu400 O411 2.392 . S
Eu400 O413 2.418 . S
Eu400 O418 2.373 . S
Eu400 O421 2.488 . S
Eu400 O422 2.471 . S
Eu400 O423 2.349 . S
Eu401 O410 2.373 . S
Eu401 O414 2.488 . S
Eu401 O415 2.471 . S
Eu401 O416 2.349 . S
Eu401 O419 2.392 . S
Eu401 O420 2.418 . S
Eu401 C430 2.828 . S
C402 O420 1.244 . S
C402 O423 1.265 . S
C403 C404 1.379 . S
C403 C407 1.373 . S
C403 C409 1.505 . S
C404 C403 1.379 . S
C404 C406 1.369 . S
C404 H432 0.930 . S
C405 C407 1.383 . S
C405 C408 1.382 . S
C405 H433 0.930 . S
C406 C404 1.369 . S
C406 C408 1.392 . S
C406 H434 0.930 . S
C407 C403 1.373 . S
C407 C405 1.383 . S
C407 H435 0.931 . S
C408 C405 1.382 . S
C408 C406 1.392 . S
C409 Eu400 2.828 . S
C409 C403 1.505 . S
C409 O421 1.249 . S
C409 O422 1.244 . S
O410 Eu401 2.373 . S
O410 C412 1.258 . S
O411 Eu400 2.392 . S
O411 C412 1.242 . S
C412 O410 1.258 . S
C412 O411 1.242 . S
O413 Eu400 2.418 . S
O413 C417 1.244 . S
O414 Eu401 2.488 . S
O414 C430 1.249 . S
O415 Eu401 2.471 . S
O415 C430 1.244 . S
O416 Eu401 2.349 . S
O416 C417 1.265 . S
C417 O413 1.244 . S
C417 O416 1.265 . S
O418 Eu400 2.373 . S
O418 C431 1.258 . S
O419 Eu401 2.392 . S
O419 C431 1.242 . S
O420 Eu401 2.418 . S
O420 C402 1.244 . S
O421 Eu400 2.488 . S
O421 C409 1.249 . S
O422 Eu400 2.471 . S
O422 C409 1.244 . S
O423 Eu400 2.349 . S
O423 C402 1.265 . S
C424 C425 1.379 . S
C424 C428 1.373 . S
C424 C430 1.505 1_554 S
C425 C424 1.379 . S
C425 C427 1.369 . S
C425 H436 0.930 . S
C426 C428 1.383 . S
C426 C429 1.382 . S
C426 H437 0.930 . S
C427 C425 1.369 . S
C427 C429 1.392 . S
C427 H438 0.930 . S
C428 C424 1.373 . S
C428 C426 1.383 . S
C428 H439 0.931 . S
C429 C426 1.382 . S
C429 C427 1.392 . S
C430 Eu401 2.828 . S
C430 O414 1.249 . S
C430 O415 1.244 . S
C430 C424 1.505 1_556 S
C431 O418 1.258 . S
C431 O419 1.242 . S
H432 C404 0.930 . S
H433 C405 0.930 . S
H434 C406 0.930 . S
H435 C407 0.931 . S
H436 C425 0.930 . S
H437 C426 0.930 . S
H438 C427 0.930 . S
H439 C428 0.931 . S
Eu440 C449 2.828 . S
Eu440 O451 2.392 . S
Eu440 O453 2.418 . S
Eu440 O458 2.373 . S
Eu440 O461 2.488 . S
Eu440 O462 2.471 . S
Eu440 O463 2.349 . S
Eu441 O450 2.373 . S
Eu441 O454 2.488 . S
Eu441 O455 2.471 . S
Eu441 O456 2.349 . S
Eu441 O459 2.392 . S
Eu441 O460 2.418 . S
Eu441 C470 2.828 . S
C442 O460 1.244 . S
C442 O463 1.265 . S
C443 C444 1.379 . S
C443 C447 1.373 . S
C443 C449 1.505 . S
C444 C443 1.379 . S
C444 C446 1.369 . S
C444 H472 0.930 . S
C445 C447 1.383 . S
C445 C448 1.382 . S
C445 H473 0.930 . S
C446 C444 1.369 . S
C446 C448 1.392 . S
C446 H474 0.930 . S
C447 C443 1.373 . S
C447 C445 1.383 . S
C447 H475 0.931 . S
C448 C445 1.382 . S
C448 C446 1.392 . S
C449 Eu440 2.828 . S
C449 C443 1.505 . S
C449 O461 1.249 . S
C449 O462 1.244 . S
O450 Eu441 2.373 . S
O450 C452 1.258 . S
O451 Eu440 2.392 . S
O451 C452 1.242 . S
C452 O450 1.258 . S
C452 O451 1.242 . S
O453 Eu440 2.418 . S
O453 C457 1.244 . S
O454 Eu441 2.488 . S
O454 C470 1.249 . S
O455 Eu441 2.471 . S
O455 C470 1.244 . S
O456 Eu441 2.349 . S
O456 C457 1.265 . S
C457 O453 1.244 . S
C457 O456 1.265 . S
O458 Eu440 2.373 . S
O458 C471 1.258 . S
O459 Eu441 2.392 . S
O459 C471 1.242 . S
O460 Eu441 2.418 . S
O460 C442 1.244 . S
O461 Eu440 2.488 . S
O461 C449 1.249 . S
O462 Eu440 2.471 . S
O462 C449 1.244 . S
O463 Eu440 2.349 . S
O463 C442 1.265 . S
C464 C465 1.379 . S
C464 C468 1.373 . S
C464 C470 1.505 . S
C465 C464 1.379 . S
C465 C467 1.369 . S
C465 H476 0.930 . S
C466 C468 1.383 . S
C466 C469 1.382 . S
C466 H477 0.930 . S
C467 C465 1.369 . S
C467 C469 1.392 . S
C467 H478 0.930 . S
C468 C464 1.373 . S
C468 C466 1.383 . S
C468 H479 0.931 . S
C469 C466 1.382 . S
C469 C467 1.392 . S
C470 Eu441 2.828 . S
C470 O454 1.249 . S
C470 O455 1.244 . S
C470 C464 1.505 . S
C471 O458 1.258 . S
C471 O459 1.242 . S
H472 C444 0.930 . S
H473 C445 0.930 . S
H474 C446 0.930 . S
H475 C447 0.931 . S
H476 C465 0.930 . S
H477 C466 0.930 . S
H478 C467 0.930 . S
H479 C468 0.931 . S
Eu480 C489 2.828 . S
Eu480 O491 2.392 . S
Eu480 O493 2.418 . S
Eu480 O498 2.373 . S
Eu480 O501 2.488 . S
Eu480 O502 2.471 . S
Eu480 O503 2.349 . S
Eu481 O490 2.373 . S
Eu481 O494 2.488 . S
Eu481 O495 2.471 . S
Eu481 O496 2.349 . S
Eu481 O499 2.392 . S
Eu481 O500 2.418 . S
Eu481 C510 2.828 . S
C482 O500 1.244 . S
C482 O503 1.265 . S
C483 C484 1.379 . S
C483 C487 1.373 . S
C483 C489 1.505 . S
C484 C483 1.379 . S
C484 C486 1.369 . S
C484 H512 0.930 . S
C485 C487 1.383 . S
C485 C488 1.382 . S
C485 H513 0.930 . S
C486 C484 1.369 . S
C486 C488 1.392 . S
C486 H514 0.930 . S
C487 C483 1.373 . S
C487 C485 1.383 . S
C487 H515 0.931 . S
C488 C485 1.382 . S
C488 C486 1.392 . S
C489 Eu480 2.828 . S
C489 C483 1.505 . S
C489 O501 1.249 . S
C489 O502 1.244 . S
O490 Eu481 2.373 . S
O490 C492 1.258 . S
O491 Eu480 2.392 . S
O491 C492 1.242 . S
C492 O490 1.258 . S
C492 O491 1.242 . S
O493 Eu480 2.418 . S
O493 C497 1.244 . S
O494 Eu481 2.488 . S
O494 C510 1.249 . S
O495 Eu481 2.471 . S
O495 C510 1.244 . S
O496 Eu481 2.349 . S
O496 C497 1.265 . S
C497 O493 1.244 . S
C497 O496 1.265 . S
O498 Eu480 2.373 . S
O498 C511 1.258 . S
O499 Eu481 2.392 . S
O499 C511 1.242 . S
O500 Eu481 2.418 . S
O500 C482 1.244 . S
O501 Eu480 2.488 . S
O501 C489 1.249 . S
O502 Eu480 2.471 . S
O502 C489 1.244 . S
O503 Eu480 2.349 . S
O503 C482 1.265 . S
C504 C505 1.379 . S
C504 C508 1.373 . S
C504 C510 1.505 . S
C505 C504 1.379 . S
C505 C507 1.369 . S
C505 H516 0.930 . S
C506 C508 1.383 . S
C506 C509 1.382 . S
C506 H517 0.930 . S
C507 C505 1.369 . S
C507 C509 1.392 . S
C507 H518 0.930 . S
C508 C504 1.373 . S
C508 C506 1.383 . S
C508 H519 0.931 . S
C509 C506 1.382 . S
C509 C507 1.392 . S
C510 Eu481 2.828 . S
C510 O494 1.249 . S
C510 O495 1.244 . S
C510 C504 1.505 . S
C511 O498 1.258 . S
C511 O499 1.242 . S
H512 C484 0.930 . S
H513 C485 0.930 . S
H514 C486 0.930 . S
H515 C487 0.931 . S
H516 C505 0.930 . S
H517 C506 0.930 . S
H518 C507 0.930 . S
H519 C508 0.931 . S
Eu520 C529 2.828 1_554 S
Eu520 O531 2.392 . S
Eu520 O533 2.418 . S
Eu520 O538 2.373 1_655 S
Eu520 O541 2.488 . S
Eu520 O542 2.471 . S
Eu520 O543 2.349 . S
Eu521 O530 2.373 . S
Eu521 O534 2.488 . S
Eu521 O535 2.471 . S
Eu521 O536 2.349 . S
Eu521 O539 2.392 . S
Eu521 O540 2.418 . S
Eu521 C550 2.828 . S
C522 O540 1.244 . S
C522 O543 1.265 1_455 S
C523 C524 1.379 . S
C523 C527 1.373 . S
C523 C529 1.505 . S
C524 C523 1.379 . S
C524 C526 1.369 . S
C524 H552 0.930 . S
C525 C527 1.383 . S
C525 C528 1.382 . S
C525 H553 0.930 . S
C526 C524 1.369 . S
C526 C528 1.392 . S
C526 H554 0.930 . S
C527 C523 1.373 . S
C527 C525 1.383 . S
C527 H555 0.931 . S
C528 C525 1.382 . S
C528 C526 1.392 . S
C529 Eu520 2.828 1_556 S
C529 C523 1.505 . S
C529 O541 1.249 1_556 S
C529 O542 1.244 1_556 S
O530 Eu521 2.373 . S
O530 C532 1.258 1_455 S
O531 Eu520 2.392 . S
O531 C532 1.242 . S
C532 O530 1.258 1_655 S
C532 O531 1.242 . S
O533 Eu520 2.418 . S
O533 C537 1.244 1_655 S
O534 Eu521 2.488 . S
O534 C550 1.249 . S
O535 Eu521 2.471 . S
O535 C550 1.244 . S
O536 Eu521 2.349 . S
O536 C537 1.265 . S
C537 O533 1.244 1_455 S
C537 O536 1.265 . S
O538 Eu520 2.373 1_455 S
O538 C551 1.258 . S
O539 Eu521 2.392 . S
O539 C551 1.242 . S
O540 Eu521 2.418 . S
O540 C522 1.244 . S
O541 Eu520 2.488 . S
O541 C529 1.249 1_554 S
O542 Eu520 2.471 . S
O542 C529 1.244 1_554 S
O543 Eu520 2.349 . S
O543 C522 1.265 1_655 S
C544 C545 1.379 . S
C544 C548 1.373 . S
C544 C550 1.505 . S
C545 C544 1.379 . S
C545 C547 1.369 . S
C545 H556 0.930 . S
C546 C548 1.383 . S
C546 C549 1.382 . S
C546 H557 0.930 . S
C547 C545 1.369 . S
C547 C549 1.392 . S
C547 H558 0.930 . S
C548 C544 1.373 . S
C548 C546 1.383 . S
C548 H559 0.931 . S
C549 C546 1.382 . S
C549 C547 1.392 . S
C550 Eu521 2.828 . S
C550 O534 1.249 . S
C550 O535 1.244 . S
C550 C544 1.505 . S
C551 O538 1.258 . S
C551 O539 1.242 . S
H552 C524 0.930 . S
H553 C525 0.930 . S
H554 C526 0.930 . S
H555 C527 0.931 . S
H556 C545 0.930 . S
H557 C546 0.930 . S
H558 C547 0.930 . S
H559 C548 0.931 . S
Eu560 C569 2.828 . S
Eu560 O571 2.392 . S
Eu560 O573 2.418 . S
Eu560 O578 2.373 . S
Eu560 O581 2.488 . S
Eu560 O582 2.471 . S
Eu560 O583 2.349 . S
Eu561 O570 2.373 . S
Eu561 O574 2.488 . S
Eu561 O575 2.471 . S
Eu561 O576 2.349 . S
Eu561 O579 2.392 . S
Eu561 O580 2.418 . S
Eu561 C590 2.828 . S
C562 O580 1.244 . S
C562 O583 1.265 . S
C563 C564 1.379 . S
C563 C567 1.373 . S
C563 C569 1.505 . S
C564 C563 1.379 . S
C564 C566 1.369 . S
C564 H592 0.930 . S
C565 C567 1.383 . S
C565 C568 1.382 . S
C565 H593 0.930 . S
C566 C564 1.369 . S
C566 C568 1.392 . S
C566 H594 0.930 . S
C567 C563 1.373 . S
C567 C565 1.383 . S
C567 H595 0.931 . S
C568 C565 1.382 . S
C568 C566 1.392 . S
C569 Eu560 2.828 . S
C569 C563 1.505 . S
C569 O581 1.249 . S
C569 O582 1.244 . S
O570 Eu561 2.373 . S
O570 C572 1.258 . S
O571 Eu560 2.392 . S
O571 C572 1.242 . S
C572 O570 1.258 . S
C572 O571 1.242 . S
O573 Eu560 2.418 . S
O573 C577 1.244 . S
O574 Eu561 2.488 . S
O574 C590 1.249 . S
O575 Eu561 2.471 . S
O575 C590 1.244 . S
O576 Eu561 2.349 . S
O576 C577 1.265 . S
C577 O573 1.244 . S
C577 O576 1.265 . S
O578 Eu560 2.373 . S
O578 C591 1.258 . S
O579 Eu561 2.392 . S
O579 C591 1.242 . S
O580 Eu561 2.418 . S
O580 C562 1.244 . S
O581 Eu560 2.488 . S
O581 C569 1.249 . S
O582 Eu560 2.471 . S
O582 C569 1.244 . S
O583 Eu560 2.349 . S
O583 C562 1.265 . S
C584 C585 1.379 . S
C584 C588 1.373 . S
C584 C590 1.505 . S
C585 C584 1.379 . S
C585 C587 1.369 . S
C585 H596 0.930 . S
C586 C588 1.383 . S
C586 C589 1.382 . S
C586 H597 0.930 . S
C587 C585 1.369 . S
C587 C589 1.392 . S
C587 H598 0.930 . S
C588 C584 1.373 . S
C588 C586 1.383 . S
C588 H599 0.931 . S
C589 C586 1.382 . S
C589 C587 1.392 . S
C590 Eu561 2.828 . S
C590 O574 1.249 . S
C590 O575 1.244 . S
C590 C584 1.505 . S
C591 O578 1.258 . S
C591 O579 1.242 . S
H592 C564 0.930 . S
H593 C565 0.930 . S
H594 C566 0.930 . S
H595 C567 0.931 . S
H596 C585 0.930 . S
H597 C586 0.930 . S
H598 C587 0.930 . S
H599 C588 0.931 . S
Eu600 C609 2.828 1_556 S
Eu600 O611 2.392 . S
Eu600 O613 2.418 . S
Eu600 O618 2.373 1_655 S
Eu600 O621 2.488 . S
Eu600 O622 2.471 . S
Eu600 O623 2.349 . S
Eu601 O610 2.373 . S
Eu601 O614 2.488 . S
Eu601 O615 2.471 . S
Eu601 O616 2.349 . S
Eu601 O619 2.392 . S
Eu601 O620 2.418 . S
Eu601 C630 2.828 . S
C602 O620 1.244 . S
C602 O623 1.265 1_455 S
C603 C604 1.379 . S
C603 C607 1.373 . S
C603 C609 1.505 . S
C604 C603 1.379 . S
C604 C606 1.369 . S
C604 H632 0.930 . S
C605 C607 1.383 . S
C605 C608 1.382 . S
C605 H633 0.930 . S
C606 C604 1.369 . S
C606 C608 1.392 . S
C606 H634 0.930 . S
C607 C603 1.373 . S
C607 C605 1.383 . S
C607 H635 0.931 . S
C608 C605 1.382 . S
C608 C606 1.392 . S
C609 Eu600 2.828 1_554 S
C609 C603 1.505 . S
C609 O621 1.249 1_554 S
C609 O622 1.244 1_554 S
O610 Eu601 2.373 . S
O610 C612 1.258 1_455 S
O611 Eu600 2.392 . S
O611 C612 1.242 . S
C612 O610 1.258 1_655 S
C612 O611 1.242 . S
O613 Eu600 2.418 . S
O613 C617 1.244 1_655 S
O614 Eu601 2.488 . S
O614 C630 1.249 . S
O615 Eu601 2.471 . S
O615 C630 1.244 . S
O616 Eu601 2.349 . S
O616 C617 1.265 . S
C617 O613 1.244 1_455 S
C617 O616 1.265 . S
O618 Eu600 2.373 1_455 S
O618 C631 1.258 . S
O619 Eu601 2.392 . S
O619 C631 1.242 . S
O620 Eu601 2.418 . S
O620 C602 1.244 . S
O621 Eu600 2.488 . S
O621 C609 1.249 1_556 S
O622 Eu600 2.471 . S
O622 C609 1.244 1_556 S
O623 Eu600 2.349 . S
O623 C602 1.265 1_655 S
C624 C625 1.379 . S
C624 C628 1.373 . S
C624 C630 1.505 . S
C625 C624 1.379 . S
C625 C627 1.369 . S
C625 H636 0.930 . S
C626 C628 1.383 . S
C626 C629 1.382 . S
C626 H637 0.930 . S
C627 C625 1.369 . S
C627 C629 1.392 . S
C627 H638 0.930 . S
C628 C624 1.373 . S
C628 C626 1.383 . S
C628 H639 0.931 . S
C629 C626 1.382 . S
C629 C627 1.392 . S
C630 Eu601 2.828 . S
C630 O614 1.249 . S
C630 O615 1.244 . S
C630 C624 1.505 . S
C631 O618 1.258 . S
C631 O619 1.242 . S
H632 C604 0.930 . S
H633 C605 0.930 . S
H634 C606 0.930 . S
H635 C607 0.931 . S
H636 C625 0.930 . S
H637 C626 0.930 . S
H638 C627 0.930 . S
H639 C628 0.931 . S
C640 C641 1.363 . S
C640 C646 1.379 . S
C640 N648 1.356 . S
C641 C640 1.363 . S
C641 C647 1.363 . S
C642 C643 1.363 . S
C642 C647 1.379 . S
C642 N649 1.356 . S
C643 C642 1.363 . S
C643 C646 1.363 . S
N644 C646 1.356 . S
N644 H656 0.984 . S
N644 H657 0.985 . S
N645 C647 1.356 . S
N645 H650 0.984 . S
N645 H651 0.985 . S
C646 C640 1.379 . S
C646 C643 1.363 . S
C646 N644 1.356 . S
C647 C641 1.363 . S
C647 C642 1.379 . S
C647 N645 1.356 . S
N648 C640 1.356 . S
N648 H654 0.984 . S
N648 H655 0.984 . S
N649 C642 1.356 . S
N649 H652 0.984 . S
N649 H653 0.985 . S
H650 N645 0.984 . S
H651 N645 0.985 . S
H652 N649 0.984 . S
H653 N649 0.985 . S
H654 N648 0.984 . S
H655 N648 0.984 . S
H656 N644 0.984 . S
H657 N644 0.985 . S
C658 C659 1.363 . S
C658 C664 1.379 . S
C658 N666 1.356 . S
C659 C658 1.363 . S
C659 C665 1.363 . S
C660 C661 1.363 . S
C660 C665 1.379 . S
C660 N667 1.356 . S
C661 C660 1.363 . S
C661 C664 1.363 . S
N662 C664 1.356 . S
N662 H674 0.984 . S
N662 H675 0.985 . S
N663 C665 1.356 . S
N663 H668 0.984 . S
N663 H669 0.985 . S
C664 C658 1.379 . S
C664 C661 1.363 . S
C664 N662 1.356 . S
C665 C659 1.363 . S
C665 C660 1.379 . S
C665 N663 1.356 . S
N666 C658 1.356 . S
N666 H672 0.984 . S
N666 H673 0.984 . S
N667 C660 1.356 . S
N667 H670 0.984 . S
N667 H671 0.985 . S
H668 N663 0.984 . S
H669 N663 0.985 . S
H670 N667 0.984 . S
H671 N667 0.985 . S
H672 N666 0.984 . S
H673 N666 0.984 . S
H674 N662 0.984 . S
H675 N662 0.985 . S
C676 C677 1.363 . S
C676 C682 1.379 . S
C676 N684 1.356 . S
C677 C676 1.363 . S
C677 C683 1.363 . S
C678 C679 1.363 . S
C678 C683 1.379 . S
C678 N685 1.356 . S
C679 C678 1.363 . S
C679 C682 1.363 . S
N680 C682 1.356 . S
N680 H692 0.984 . S
N680 H693 0.985 . S
N681 C683 1.356 . S
N681 H686 0.984 . S
N681 H687 0.985 . S
C682 C676 1.379 . S
C682 C679 1.363 . S
C682 N680 1.356 . S
C683 C677 1.363 . S
C683 C678 1.379 . S
C683 N681 1.356 . S
N684 C676 1.356 . S
N684 H690 0.984 . S
N684 H691 0.984 . S
N685 C678 1.356 . S
N685 H688 0.984 . S
N685 H689 0.985 . S
H686 N681 0.984 . S
H687 N681 0.985 . S
H688 N685 0.984 . S
H689 N685 0.985 . S
H690 N684 0.984 . S
H691 N684 0.984 . S
H692 N680 0.984 . S
H693 N680 0.985 . S
C694 C695 1.363 . S
C694 C700 1.379 . S
C694 N702 1.356 . S
C695 C694 1.363 . S
C695 C701 1.363 . S
C696 C697 1.363 . S
C696 C701 1.379 . S
C696 N703 1.356 . S
C697 C696 1.363 . S
C697 C700 1.363 . S
N698 C700 1.356 . S
N698 H710 0.984 . S
N698 H711 0.985 . S
N699 C701 1.356 . S
N699 H704 0.984 . S
N699 H705 0.985 . S
C700 C694 1.379 . S
C700 C697 1.363 . S
C700 N698 1.356 . S
C701 C695 1.363 . S
C701 C696 1.379 . S
C701 N699 1.356 . S
N702 C694 1.356 . S
N702 H708 0.984 . S
N702 H709 0.984 . S
N703 C696 1.356 . S
N703 H706 0.984 . S
N703 H707 0.985 . S
H704 N699 0.984 . S
H705 N699 0.985 . S
H706 N703 0.984 . S
H707 N703 0.985 . S
H708 N702 0.984 . S
H709 N702 0.984 . S
H710 N698 0.984 . S
H711 N698 0.985 . S
C712 C713 1.363 . S
C712 C718 1.379 . S
C712 N720 1.356 . S
C713 C712 1.363 . S
C713 C719 1.363 . S
C714 C715 1.363 . S
C714 C719 1.379 . S
C714 N721 1.356 . S
C715 C714 1.363 . S
C715 C718 1.363 . S
N716 C718 1.356 1_455 S
N716 H728 0.984 . S
N716 H729 0.985 . S
N717 C719 1.356 . S
N717 H722 0.984 . S
N717 H723 0.985 . S
C718 C712 1.379 . S
C718 C715 1.363 . S
C718 N716 1.356 1_655 S
C719 C713 1.363 . S
C719 C714 1.379 . S
C719 N717 1.356 . S
N720 C712 1.356 . S
N720 H726 0.984 . S
N720 H727 0.984 . S
N721 C714 1.356 . S
N721 H724 0.984 . S
N721 H725 0.985 . S
H722 N717 0.984 . S
H723 N717 0.985 . S
H724 N721 0.984 . S
H725 N721 0.985 . S
H726 N720 0.984 . S
H727 N720 0.984 . S
H728 N716 0.984 . S
H729 N716 0.985 . S
C730 C731 1.363 . S
C730 C736 1.379 . S
C730 N738 1.356 . S
C731 C730 1.363 . S
C731 C737 1.363 . S
C732 C733 1.363 . S
C732 C737 1.379 . S
C732 N739 1.356 . S
C733 C732 1.363 . S
C733 C736 1.363 . S
N734 C736 1.356 . S
N734 H746 0.983 . S
N734 H747 0.985 . S
N735 C737 1.356 . S
N735 H740 0.984 . S
N735 H741 0.985 . S
C736 C730 1.379 . S
C736 C733 1.363 . S
C736 N734 1.356 . S
C737 C731 1.363 . S
C737 C732 1.379 . S
C737 N735 1.356 . S
N738 C730 1.356 . S
N738 H744 0.984 . S
N738 H745 0.984 . S
N739 C732 1.356 . S
N739 H742 0.984 . S
N739 H743 0.985 . S
H740 N735 0.984 . S
H741 N735 0.985 . S
H742 N739 0.984 . S
H743 N739 0.985 . S
H744 N738 0.984 . S
H745 N738 0.984 . S
H746 N734 0.983 . S
H747 N734 0.985 . S
C748 C749 1.363 . S
C748 C754 1.379 . S
C748 N756 1.356 . S
C749 C748 1.363 . S
C749 C755 1.363 . S
C750 C751 1.363 . S
C750 C755 1.379 . S
C750 N757 1.356 . S
C751 C750 1.363 . S
C751 C754 1.363 . S
N752 C754 1.356 . S
N752 H764 0.984 . S
N752 H765 0.985 . S
N753 C755 1.356 . S
N753 H758 0.984 . S
N753 H759 0.985 . S
C754 C748 1.379 . S
C754 C751 1.363 . S
C754 N752 1.356 . S
C755 C749 1.363 . S
C755 C750 1.379 . S
C755 N753 1.356 . S
N756 C748 1.356 . S
N756 H762 0.984 . S
N756 H763 0.984 . S
N757 C750 1.356 . S
N757 H760 0.984 . S
N757 H761 0.985 . S
H758 N753 0.984 . S
H759 N753 0.985 . S
H760 N757 0.984 . S
H761 N757 0.985 . S
H762 N756 0.984 . S
H763 N756 0.984 . S
H764 N752 0.984 . S
H765 N752 0.985 . S
C766 C767 1.363 . S
C766 C772 1.379 . S
C766 N774 1.356 . S
C767 C766 1.363 . S
C767 C773 1.363 . S
C768 C769 1.363 . S
C768 C773 1.379 . S
C768 N775 1.356 . S
C769 C768 1.363 . S
C769 C772 1.363 . S
N770 C772 1.356 . S
N770 H782 0.984 . S
N770 H783 0.985 . S
N771 C773 1.356 . S
N771 H776 0.984 . S
N771 H777 0.985 . S
C772 C766 1.379 . S
C772 C769 1.363 . S
C772 N770 1.356 . S
C773 C767 1.363 . S
C773 C768 1.379 . S
C773 N771 1.356 . S
N774 C766 1.356 . S
N774 H780 0.984 . S
N774 H781 0.984 . S
N775 C768 1.356 . S
N775 H778 0.984 . S
N775 H779 0.985 . S
H776 N771 0.984 . S
H777 N771 0.985 . S
H778 N775 0.984 . S
H779 N775 0.985 . S
H780 N774 0.984 . S
H781 N774 0.984 . S
H782 N770 0.984 . S
H783 N770 0.985 . S
C784 C785 1.363 . S
C784 C790 1.379 . S
C784 N792 1.356 . S
C785 C784 1.363 . S
C785 C791 1.363 . S
C786 C787 1.363 . S
C786 C791 1.379 . S
C786 N793 1.356 . S
C787 C786 1.363 . S
C787 C790 1.363 . S
N788 C790 1.356 . S
N788 H800 0.984 . S
N788 H801 0.985 . S
N789 C791 1.356 . S
N789 H794 0.984 . S
N789 H795 0.985 . S
C790 C784 1.379 . S
C790 C787 1.363 . S
C790 N788 1.356 . S
C791 C785 1.363 . S
C791 C786 1.379 . S
C791 N789 1.356 . S
N792 C784 1.356 . S
N792 H798 0.984 . S
N792 H799 0.984 . S
N793 C786 1.356 . S
N793 H796 0.984 . S
N793 H797 0.985 . S
H794 N789 0.984 . S
H795 N789 0.985 . S
H796 N793 0.984 . S
H797 N793 0.985 . S
H798 N792 0.984 . S
H799 N792 0.984 . S
H800 N788 0.984 . S
H801 N788 0.985 . S
C802 C803 1.363 . S
C802 C808 1.379 . S
C802 N810 1.356 . S
C803 C802 1.363 . S
C803 C809 1.363 . S
C804 C805 1.363 . S
C804 C809 1.379 . S
C804 N811 1.356 . S
C805 C804 1.363 . S
C805 C808 1.363 . S
N806 C808 1.356 . S
N806 H818 0.984 . S
N806 H819 0.985 . S
N807 C809 1.356 . S
N807 H812 0.984 . S
N807 H813 0.985 . S
C808 C802 1.379 . S
C808 C805 1.363 . S
C808 N806 1.356 . S
C809 C803 1.363 . S
C809 C804 1.379 . S
C809 N807 1.356 . S
N810 C802 1.356 . S
N810 H816 0.984 . S
N810 H817 0.984 . S
N811 C804 1.356 . S
N811 H814 0.984 . S
N811 H815 0.985 . S
H812 N807 0.984 . S
H813 N807 0.985 . S
H814 N811 0.984 . S
H815 N811 0.985 . S
H816 N810 0.984 . S
H817 N810 0.984 . S
H818 N806 0.984 . S
H819 N806 0.985 . S
C820 C821 1.363 . S
C820 C826 1.379 . S
C820 N828 1.356 . S
C821 C820 1.363 . S
C821 C827 1.363 . S
C822 C823 1.363 . S
C822 C827 1.379 . S
C822 N829 1.356 . S
C823 C822 1.363 . S
C823 C826 1.363 . S
N824 C826 1.356 . S
N824 H836 0.984 . S
N824 H837 0.985 . S
N825 C827 1.356 . S
N825 H830 0.984 . S
N825 H831 0.985 . S
C826 C820 1.379 . S
C826 C823 1.363 . S
C826 N824 1.356 . S
C827 C821 1.363 . S
C827 C822 1.379 . S
C827 N825 1.356 . S
N828 C820 1.356 . S
N828 H834 0.984 . S
N828 H835 0.984 . S
N829 C822 1.356 . S
N829 H832 0.984 . S
N829 H833 0.985 . S
H830 N825 0.984 . S
H831 N825 0.985 . S
H832 N829 0.984 . S
H833 N829 0.985 . S
H834 N828 0.984 . S
H835 N828 0.984 . S
H836 N824 0.984 . S
H837 N824 0.985 . S
C838 C839 1.363 . S
C838 C844 1.379 . S
C838 N846 1.356 . S
C839 C838 1.363 . S
C839 C845 1.363 . S
C840 C841 1.363 . S
C840 C845 1.379 . S
C840 N847 1.356 . S
C841 C840 1.363 . S
C841 C844 1.363 . S
N842 C844 1.356 . S
N842 H854 0.984 . S
N842 H855 0.985 . S
N843 C845 1.356 . S
N843 H848 0.984 . S
N843 H849 0.985 . S
C844 C838 1.379 . S
C844 C841 1.363 . S
C844 N842 1.356 . S
C845 C839 1.363 . S
C845 C840 1.379 . S
C845 N843 1.356 . S
N846 C838 1.356 . S
N846 H852 0.984 . S
N846 H853 0.984 . S
N847 C840 1.356 . S
N847 H850 0.984 . S
N847 H851 0.985 . S
H848 N843 0.984 . S
H849 N843 0.985 . S
H850 N847 0.984 . S
H851 N847 0.985 . S
H852 N846 0.984 . S
H853 N846 0.984 . S
H854 N842 0.984 . S
H855 N842 0.985 . S
C856 C857 1.363 . S
C856 C862 1.379 . S
C856 N864 1.356 . S
C857 C856 1.363 . S
C857 C863 1.363 . S
C858 C859 1.363 . S
C858 C863 1.379 . S
C858 N865 1.356 . S
C859 C858 1.363 . S
C859 C862 1.363 . S
N860 C862 1.356 . S
N860 H872 0.984 . S
N860 H873 0.985 . S
N861 C863 1.356 . S
N861 H866 0.984 . S
N861 H867 0.985 . S
C862 C856 1.379 . S
C862 C859 1.363 . S
C862 N860 1.356 . S
C863 C857 1.363 . S
C863 C858 1.379 . S
C863 N861 1.356 . S
N864 C856 1.356 . S
N864 H870 0.984 . S
N864 H871 0.984 . S
N865 C858 1.356 . S
N865 H868 0.984 . S
N865 H869 0.985 . S
H866 N861 0.984 . S
H867 N861 0.985 . S
H868 N865 0.984 . S
H869 N865 0.985 . S
H870 N864 0.984 . S
H871 N864 0.984 . S
H872 N860 0.984 . S
H873 N860 0.985 . S
C874 C875 1.363 . S
C874 C880 1.379 . S
C874 N882 1.356 . S
C875 C874 1.363 . S
C875 C881 1.363 . S
C876 C877 1.363 . S
C876 C881 1.379 . S
C876 N883 1.356 . S
C877 C876 1.363 . S
C877 C880 1.363 . S
N878 C880 1.356 . S
N878 H890 0.984 . S
N878 H891 0.985 . S
N879 C881 1.356 . S
N879 H884 0.984 . S
N879 H885 0.985 . S
C880 C874 1.379 . S
C880 C877 1.363 . S
C880 N878 1.356 . S
C881 C875 1.363 . S
C881 C876 1.379 . S
C881 N879 1.356 . S
N882 C874 1.356 . S
N882 H888 0.984 . S
N882 H889 0.984 . S
N883 C876 1.356 . S
N883 H886 0.984 . S
N883 H887 0.985 . S
H884 N879 0.984 . S
H885 N879 0.985 . S
H886 N883 0.984 . S
H887 N883 0.985 . S
H888 N882 0.984 . S
H889 N882 0.984 . S
H890 N878 0.984 . S
H891 N878 0.985 . S
C892 C893 1.363 . S
C892 C898 1.379 . S
C892 N900 1.356 . S
C893 C892 1.363 . S
C893 C899 1.363 . S
C894 C895 1.363 . S
C894 C899 1.379 . S
C894 N901 1.356 . S
C895 C894 1.363 . S
C895 C898 1.363 . S
N896 C898 1.356 . S
N896 H908 0.984 . S
N896 H909 0.985 . S
N897 C899 1.356 . S
N897 H902 0.984 . S
N897 H903 0.985 . S
C898 C892 1.379 . S
C898 C895 1.363 . S
C898 N896 1.356 . S
C899 C893 1.363 . S
C899 C894 1.379 . S
C899 N897 1.356 . S
N900 C892 1.356 . S
N900 H906 0.984 . S
N900 H907 0.984 . S
N901 C894 1.356 . S
N901 H904 0.984 . S
N901 H905 0.985 . S
H902 N897 0.984 . S
H903 N897 0.985 . S
H904 N901 0.984 . S
H905 N901 0.985 . S
H906 N900 0.984 . S
H907 N900 0.984 . S
H908 N896 0.984 . S
H909 N896 0.985 . S
C910 C911 1.363 . S
C910 C916 1.379 . S
C910 N918 1.356 . S
C911 C910 1.363 . S
C911 C917 1.363 . S
C912 C913 1.363 . S
C912 C917 1.379 . S
C912 N919 1.356 . S
C913 C912 1.363 . S
C913 C916 1.363 . S
N914 C916 1.356 . S
N914 H926 0.984 . S
N914 H927 0.985 . S
N915 C917 1.356 . S
N915 H920 0.984 . S
N915 H921 0.985 . S
C916 C910 1.379 . S
C916 C913 1.363 . S
C916 N914 1.356 . S
C917 C911 1.363 . S
C917 C912 1.379 . S
C917 N915 1.356 . S
N918 C910 1.356 . S
N918 H924 0.984 . S
N918 H925 0.984 . S
N919 C912 1.356 . S
N919 H922 0.984 . S
N919 H923 0.985 . S
H920 N915 0.984 . S
H921 N915 0.985 . S
H922 N919 0.984 . S
H923 N919 0.985 . S
H924 N918 0.984 . S
H925 N918 0.984 . S
H926 N914 0.984 . S
H927 N914 0.985 . S
C928 C929 1.360 1_655 S
C928 C934 1.378 1_655 S
C928 N936 1.360 . S
C929 C928 1.360 1_455 S
C929 C935 1.363 . S
C930 C931 1.363 . S
C930 C935 1.379 . S
C930 N937 1.356 . S
C931 C930 1.363 . S
C931 C934 1.363 . S
N932 C934 1.356 1_655 S
N932 H944 0.984 . S
N932 H945 0.985 1_655 S
N933 C935 1.356 . S
N933 H938 0.984 . S
N933 H939 0.985 . S
C934 C928 1.378 1_455 S
C934 C931 1.363 . S
C934 N932 1.356 1_455 S
C935 C929 1.363 . S
C935 C930 1.379 . S
C935 N933 1.356 . S
N936 C928 1.360 . S
N936 H942 0.984 . S
N936 H943 0.984 . S
N937 C930 1.356 . S
N937 H940 0.984 . S
N937 H941 0.985 . S
H938 N933 0.984 . S
H939 N933 0.985 . S
H940 N937 0.984 . S
H941 N937 0.985 . S
H942 N936 0.984 . S
H943 N936 0.984 . S
H944 N932 0.984 . S
H945 N932 0.985 1_455 S
C946 C947 1.375 . S
C946 C952 1.353 1_655 S
C946 N954 1.377 . S
C947 C946 1.375 . S
C947 C953 1.363 1_655 S
C948 C949 1.363 . S
C948 C953 1.379 . S
C948 N955 1.356 . S
C949 C948 1.363 . S
C949 C952 1.363 . S
N950 C952 1.356 . S
N950 H962 0.984 . S
N950 H963 0.985 . S
N951 C953 1.356 1_655 S
N951 H956 0.984 . S
N951 H957 0.985 . S
C952 C946 1.353 1_455 S
C952 C949 1.363 . S
C952 N950 1.356 . S
C953 C947 1.363 1_455 S
C953 C948 1.379 . S
C953 N951 1.356 1_455 S
N954 C946 1.377 . S
N954 H960 0.984 . S
N954 H961 0.984 . S
N955 C948 1.356 . S
N955 H958 0.984 . S
N955 H959 0.985 . S
H956 N951 0.984 . S
H957 N951 0.985 . S
H958 N955 0.984 . S
H959 N955 0.985 . S
H960 N954 0.984 . S
H961 N954 0.984 . S
H962 N950 0.984 . S
H963 N950 0.985 . S
C964 C965 1.363 . S
C964 C970 1.379 . S
C964 N972 1.356 . S
C965 C964 1.363 . S
C965 C971 1.363 . S
C966 C967 1.363 . S
C966 C971 1.379 . S
C966 N973 1.356 . S
C967 C966 1.363 . S
C967 C970 1.363 . S
N968 C970 1.356 . S
N968 H980 0.984 . S
N968 H981 0.985 . S
N969 C971 1.356 . S
N969 H974 0.984 . S
N969 H975 0.985 . S
C970 C964 1.379 . S
C970 C967 1.363 . S
C970 N968 1.356 . S
C971 C965 1.363 . S
C971 C966 1.379 . S
C971 N969 1.356 . S
N972 C964 1.356 . S
N972 H978 0.984 . S
N972 H979 0.984 . S
N973 C966 1.356 . S
N973 H976 0.984 . S
N973 H977 0.985 . S
H974 N969 0.984 . S
H975 N969 0.985 . S
H976 N973 0.984 . S
H977 N973 0.985 . S
H978 N972 0.984 . S
H979 N972 0.984 . S
H980 N968 0.984 . S
H981 N968 0.985 . S
C982 C983 1.363 . S
C982 C988 1.379 . S
C982 N990 1.356 . S
C983 C982 1.363 . S
C983 C989 1.363 . S
C984 C985 1.363 . S
C984 C989 1.379 . S
C984 N991 1.356 . S
C985 C984 1.363 . S
C985 C988 1.363 . S
N986 C988 1.356 . S
N986 H998 0.984 . S
N986 H999 0.985 . S
N987 C989 1.356 . S
N987 H992 0.984 . S
N987 H993 0.985 . S
C988 C982 1.379 . S
C988 C985 1.363 . S
C988 N986 1.356 . S
C989 C983 1.363 . S
C989 C984 1.379 . S
C989 N987 1.356 . S
N990 C982 1.356 . S
N990 H996 0.984 . S
N990 H997 0.984 . S
N991 C984 1.356 . S
N991 H994 0.984 . S
N991 H995 0.985 . S
H992 N987 0.984 . S
H993 N987 0.985 . S
H994 N991 0.984 . S
H995 N991 0.985 . S
H996 N990 0.984 . S
H997 N990 0.984 . S
H998 N986 0.984 . S
H999 N986 0.985 . S
C1000 C1001 1.363 . S
C1000 C1006 1.378 1_455 S
C1000 N1008 1.356 1_455 S
C1001 C1000 1.363 . S
C1001 C1007 1.363 . S
C1002 C1003 1.363 . S
C1002 C1007 1.379 . S
C1002 N1009 1.356 . S
C1003 C1002 1.363 . S
C1003 C1006 1.360 1_455 S
N1004 C1006 1.360 . S
N1004 H1016 0.984 . S
N1004 H1017 0.985 . S
N1005 C1007 1.356 . S
N1005 H1010 0.984 . S
N1005 H1011 0.985 . S
C1006 C1000 1.378 1_655 S
C1006 C1003 1.360 1_655 S
C1006 N1004 1.360 . S
C1007 C1001 1.363 . S
C1007 C1002 1.379 . S
C1007 N1005 1.356 . S
N1008 C1000 1.356 1_655 S
N1008 H1014 0.984 . S
N1008 H1015 0.984 1_655 S
N1009 C1002 1.356 . S
N1009 H1012 0.984 . S
N1009 H1013 0.985 . S
H1010 N1005 0.984 . S
H1011 N1005 0.985 . S
H1012 N1009 0.984 . S
H1013 N1009 0.985 . S
H1014 N1008 0.984 . S
H1015 N1008 0.984 1_455 S
H1016 N1004 0.984 . S
H1017 N1004 0.985 . S
C1018 C1019 1.363 . S
C1018 C1024 1.379 . S
C1018 N1026 1.356 . S
C1019 C1018 1.363 . S
C1019 C1025 1.363 . S
C1020 C1021 1.363 . S
C1020 C1025 1.379 . S
C1020 N1027 1.356 . S
C1021 C1020 1.363 . S
C1021 C1024 1.363 . S
N1022 C1024 1.356 . S
N1022 H1034 0.984 . S
N1022 H1035 0.985 . S
N1023 C1025 1.356 . S
N1023 H1028 0.984 . S
N1023 H1029 0.985 . S
C1024 C1018 1.379 . S
C1024 C1021 1.363 . S
C1024 N1022 1.356 . S
C1025 C1019 1.363 . S
C1025 C1020 1.379 . S
C1025 N1023 1.356 . S
N1026 C1018 1.356 . S
N1026 H1032 0.984 . S
N1026 H1033 0.984 . S
N1027 C1020 1.356 . S
N1027 H1030 0.984 . S
N1027 H1031 0.985 . S
H1028 N1023 0.984 . S
H1029 N1023 0.985 . S
H1030 N1027 0.984 . S
H1031 N1027 0.985 . S
H1032 N1026 0.984 . S
H1033 N1026 0.984 . S
H1034 N1022 0.984 . S
H1035 N1022 0.985 . S
C1036 C1037 1.363 . S
C1036 C1042 1.379 . S
C1036 N1044 1.356 . S
C1037 C1036 1.363 . S
C1037 C1043 1.363 . S
C1038 C1039 1.363 . S
C1038 C1043 1.379 . S
C1038 N1045 1.356 . S
C1039 C1038 1.363 . S
C1039 C1042 1.363 . S
N1040 C1042 1.356 . S
N1040 H1052 0.984 . S
N1040 H1053 0.985 . S
N1041 C1043 1.356 . S
N1041 H1046 0.984 . S
N1041 H1047 0.985 . S
C1042 C1036 1.379 . S
C1042 C1039 1.363 . S
C1042 N1040 1.356 . S
C1043 C1037 1.363 . S
C1043 C1038 1.379 . S
C1043 N1041 1.356 . S
N1044 C1036 1.356 . S
N1044 H1050 0.984 . S
N1044 H1051 0.984 . S
N1045 C1038 1.356 . S
N1045 H1048 0.984 . S
N1045 H1049 0.985 . S
H1046 N1041 0.984 . S
H1047 N1041 0.985 . S
H1048 N1045 0.984 . S
H1049 N1045 0.985 . S
H1050 N1044 0.984 . S
H1051 N1044 0.984 . S
H1052 N1040 0.984 . S
H1053 N1040 0.985 . S
C1054 C1055 1.363 . S
C1054 C1060 1.379 . S
C1054 N1062 1.356 . S
C1055 C1054 1.363 . S
C1055 C1061 1.363 . S
C1056 C1057 1.375 . S
C1056 C1061 1.353 1_655 S
C1056 N1063 1.377 . S
C1057 C1056 1.375 . S
C1057 C1060 1.363 1_655 S
N1058 C1060 1.356 1_655 S
N1058 H1070 0.984 . S
N1058 H1071 0.985 . S
N1059 C1061 1.356 . S
N1059 H1064 0.984 . S
N1059 H1065 0.985 . S
C1060 C1054 1.379 . S
C1060 C1057 1.363 1_455 S
C1060 N1058 1.356 1_455 S
C1061 C1055 1.363 . S
C1061 C1056 1.353 1_455 S
C1061 N1059 1.356 . S
N1062 C1054 1.356 . S
N1062 H1068 0.984 . S
N1062 H1069 0.984 . S
N1063 C1056 1.377 . S
N1063 H1066 0.984 . S
N1063 H1067 0.985 . S
H1064 N1059 0.984 . S
H1065 N1059 0.985 . S
H1066 N1063 0.984 . S
H1067 N1063 0.985 . S
H1068 N1062 0.984 . S
H1069 N1062 0.984 . S
H1070 N1058 0.984 . S
H1071 N1058 0.985 . S
C1072 C1073 1.363 . S
C1072 C1078 1.379 1_554 S
C1072 N1080 1.356 . S
C1073 C1072 1.363 . S
C1073 C1079 1.363 1_545 S
C1074 C1075 1.363 . S
C1074 C1079 1.379 1_556 S
C1074 N1081 1.356 . S
C1075 C1074 1.363 . S
C1075 C1078 1.363 1_565 S
N1076 C1078 1.356 . S
N1076 H1088 0.984 1_455 S
N1076 H1089 0.985 . S
N1077 C1079 1.356 . S
N1077 H1082 0.984 . S
N1077 H1083 0.985 . S
C1078 C1072 1.379 1_556 S
C1078 C1075 1.363 1_545 S
C1078 N1076 1.356 . S
C1079 C1073 1.363 1_565 S
C1079 C1074 1.379 1_554 S
C1079 N1077 1.356 . S
N1080 C1072 1.356 . S
N1080 H1086 0.984 1_455 S
N1080 H1087 0.984 . S
N1081 C1074 1.356 . S
N1081 H1084 0.984 . S
N1081 H1085 0.985 . S
H1082 N1077 0.984 . S
H1083 N1077 0.985 . S
H1084 N1081 0.984 . S
H1085 N1081 0.985 . S
H1086 N1080 0.984 1_655 S
H1087 N1080 0.984 . S
H1088 N1076 0.984 1_655 S
H1089 N1076 0.985 . S
C1090 C1091 1.363 . S
C1090 C1096 1.379 . S
C1090 N1098 1.356 . S
C1091 C1090 1.363 . S
C1091 C1097 1.363 . S
C1092 C1093 1.363 . S
C1092 C1097 1.379 . S
C1092 N1099 1.356 . S
C1093 C1092 1.363 . S
C1093 C1096 1.363 . S
N1094 C1096 1.356 . S
N1094 H1106 0.984 . S
N1094 H1107 0.985 . S
N1095 C1097 1.356 . S
N1095 H1100 0.984 . S
N1095 H1101 0.985 . S
C1096 C1090 1.379 . S
C1096 C1093 1.363 . S
C1096 N1094 1.356 . S
C1097 C1091 1.363 . S
C1097 C1092 1.379 . S
C1097 N1095 1.356 . S
N1098 C1090 1.356 . S
N1098 H1104 0.984 . S
N1098 H1105 0.984 . S
N1099 C1092 1.356 . S
N1099 H1102 0.984 . S
N1099 H1103 0.985 . S
H1100 N1095 0.984 . S
H1101 N1095 0.985 . S
H1102 N1099 0.984 . S
H1103 N1099 0.985 . S
H1104 N1098 0.984 . S
H1105 N1098 0.984 . S
H1106 N1094 0.984 . S
H1107 N1094 0.985 . S
C1108 C1109 1.363 1_565 S
C1108 C1114 1.379 . S
C1108 N1116 1.356 . S
C1109 C1108 1.363 1_545 S
C1109 C1115 1.363 . S
C1110 C1111 1.363 1_545 S
C1110 C1115 1.379 . S
C1110 N1117 1.356 . S
C1111 C1110 1.363 1_565 S
C1111 C1114 1.363 . S
N1112 C1114 1.356 . S
N1112 H1124 0.984 . S
N1112 H1125 0.985 . S
N1113 C1115 1.356 . S
N1113 H1118 0.984 . S
N1113 H1119 0.985 . S
C1114 C1108 1.379 . S
C1114 C1111 1.363 . S
C1114 N1112 1.356 . S
C1115 C1109 1.363 . S
C1115 C1110 1.379 . S
C1115 N1113 1.356 . S
N1116 C1108 1.356 . S
N1116 H1122 0.984 . S
N1116 H1123 0.984 . S
N1117 C1110 1.356 . S
N1117 H1120 0.984 . S
N1117 H1121 0.985 . S
H1118 N1113 0.984 . S
H1119 N1113 0.985 . S
H1120 N1117 0.984 . S
H1121 N1117 0.985 . S
H1122 N1116 0.984 . S
H1123 N1116 0.984 . S
H1124 N1112 0.984 . S
H1125 N1112 0.985 . S
C1126 C1127 1.363 . S
C1126 C1132 1.379 . S
C1126 N1134 1.356 . S
C1127 C1126 1.363 . S
C1127 C1133 1.363 . S
C1128 C1129 1.363 . S
C1128 C1133 1.379 . S
C1128 N1135 1.356 . S
C1129 C1128 1.363 . S
C1129 C1132 1.363 . S
N1130 C1132 1.356 . S
N1130 H1142 0.984 . S
N1130 H1143 0.985 . S
N1131 C1133 1.356 . S
N1131 H1136 0.984 . S
N1131 H1137 0.985 . S
C1132 C1126 1.379 . S
C1132 C1129 1.363 . S
C1132 N1130 1.356 . S
C1133 C1127 1.363 . S
C1133 C1128 1.379 . S
C1133 N1131 1.356 . S
N1134 C1126 1.356 . S
N1134 H1140 0.984 . S
N1134 H1141 0.984 . S
N1135 C1128 1.356 . S
N1135 H1138 0.984 . S
N1135 H1139 0.985 . S
H1136 N1131 0.984 . S
H1137 N1131 0.985 . S
H1138 N1135 0.984 . S
H1139 N1135 0.985 . S
H1140 N1134 0.984 . S
H1141 N1134 0.984 . S
H1142 N1130 0.984 . S
H1143 N1130 0.985 . S
C1144 C1145 1.363 . S
C1144 C1150 1.379 . S
C1144 N1152 1.356 . S
C1145 C1144 1.363 . S
C1145 C1151 1.363 . S
C1146 C1147 1.363 . S
C1146 C1151 1.379 . S
C1146 N1153 1.356 . S
C1147 C1146 1.363 . S
C1147 C1150 1.363 . S
N1148 C1150 1.356 . S
N1148 H1160 0.984 . S
N1148 H1161 0.985 . S
N1149 C1151 1.356 . S
N1149 H1154 0.984 . S
N1149 H1155 0.985 . S
C1150 C1144 1.379 . S
C1150 C1147 1.363 . S
C1150 N1148 1.356 . S
C1151 C1145 1.363 . S
C1151 C1146 1.379 . S
C1151 N1149 1.356 . S
N1152 C1144 1.356 . S
N1152 H1158 0.984 . S
N1152 H1159 0.984 . S
N1153 C1146 1.356 . S
N1153 H1156 0.984 . S
N1153 H1157 0.985 . S
H1154 N1149 0.984 . S
H1155 N1149 0.985 . S
H1156 N1153 0.984 . S
H1157 N1153 0.985 . S
H1158 N1152 0.984 . S
H1159 N1152 0.984 . S
H1160 N1148 0.984 . S
H1161 N1148 0.985 . S
C1162 C1163 1.363 . S
C1162 C1168 1.379 . S
C1162 N1170 1.356 . S
C1163 C1162 1.363 . S
C1163 C1169 1.363 . S
C1164 C1165 1.363 . S
C1164 C1169 1.379 . S
C1164 N1171 1.356 . S
C1165 C1164 1.363 . S
C1165 C1168 1.363 . S
N1166 C1168 1.356 . S
N1166 H1178 0.984 . S
N1166 H1179 0.985 . S
N1167 C1169 1.356 . S
N1167 H1172 0.984 . S
N1167 H1173 0.985 . S
C1168 C1162 1.379 . S
C1168 C1165 1.363 . S
C1168 N1166 1.356 . S
C1169 C1163 1.363 . S
C1169 C1164 1.379 . S
C1169 N1167 1.356 . S
N1170 C1162 1.356 . S
N1170 H1176 0.984 . S
N1170 H1177 0.984 . S
N1171 C1164 1.356 . S
N1171 H1174 0.984 . S
N1171 H1175 0.985 . S
H1172 N1167 0.984 . S
H1173 N1167 0.985 . S
H1174 N1171 0.984 . S
H1175 N1171 0.985 . S
H1176 N1170 0.984 . S
H1177 N1170 0.984 . S
H1178 N1166 0.984 . S
H1179 N1166 0.985 . S
C1180 C1181 1.363 . S
C1180 C1186 1.379 . S
C1180 N1188 1.356 . S
C1181 C1180 1.363 . S
C1181 C1187 1.363 . S
C1182 C1183 1.363 . S
C1182 C1187 1.379 . S
C1182 N1189 1.356 . S
C1183 C1182 1.363 . S
C1183 C1186 1.363 . S
N1184 C1186 1.356 . S
N1184 H1196 0.984 . S
N1184 H1197 0.985 . S
N1185 C1187 1.356 . S
N1185 H1190 0.984 . S
N1185 H1191 0.985 . S
C1186 C1180 1.379 . S
C1186 C1183 1.363 . S
C1186 N1184 1.356 . S
C1187 C1181 1.363 . S
C1187 C1182 1.379 . S
C1187 N1185 1.356 . S
N1188 C1180 1.356 . S
N1188 H1194 0.984 . S
N1188 H1195 0.984 . S
N1189 C1182 1.356 . S
N1189 H1192 0.984 . S
N1189 H1193 0.985 . S
H1190 N1185 0.984 . S
H1191 N1185 0.985 . S
H1192 N1189 0.984 . S
H1193 N1189 0.985 . S
H1194 N1188 0.984 . S
H1195 N1188 0.984 . S
H1196 N1184 0.984 . S
H1197 N1184 0.985 . S
C1198 C1199 1.363 . S
C1198 C1204 1.379 1_556 S
C1198 N1206 1.356 . S
C1199 C1198 1.363 . S
C1199 C1205 1.363 1_455 S
C1200 C1201 1.363 1_655 S
C1200 C1205 1.379 1_554 S
C1200 N1207 1.356 . S
C1201 C1200 1.363 1_455 S
C1201 C1204 1.363 . S
N1202 C1204 1.356 . S
N1202 H1214 0.984 . S
N1202 H1215 0.985 . S
N1203 C1205 1.356 . S
N1203 H1208 0.984 . S
N1203 H1209 0.985 . S
C1204 C1198 1.379 1_554 S
C1204 C1201 1.363 . S
C1204 N1202 1.356 . S
C1205 C1199 1.363 1_655 S
C1205 C1200 1.379 1_556 S
C1205 N1203 1.356 . S
N1206 C1198 1.356 . S
N1206 H1212 0.984 . S
N1206 H1213 0.984 . S
N1207 C1200 1.356 . S
N1207 H1210 0.984 . S
N1207 H1211 0.985 . S
H1208 N1203 0.984 . S
H1209 N1203 0.985 . S
H1210 N1207 0.984 . S
H1211 N1207 0.985 . S
H1212 N1206 0.984 . S
H1213 N1206 0.984 . S
H1214 N1202 0.984 . S
H1215 N1202 0.985 . S
C1216 C1217 1.363 . S
C1216 C1222 1.379 . S
C1216 N1224 1.356 . S
C1217 C1216 1.363 . S
C1217 C1223 1.363 . S
C1218 C1219 1.363 . S
C1218 C1223 1.379 . S
C1218 N1225 1.356 . S
C1219 C1218 1.363 . S
C1219 C1222 1.363 . S
N1220 C1222 1.356 . S
N1220 H1232 0.984 . S
N1220 H1233 0.985 . S
N1221 C1223 1.356 . S
N1221 H1226 0.984 . S
N1221 H1227 0.985 . S
C1222 C1216 1.379 . S
C1222 C1219 1.363 . S
C1222 N1220 1.356 . S
C1223 C1217 1.363 . S
C1223 C1218 1.379 . S
C1223 N1221 1.356 . S
N1224 C1216 1.356 . S
N1224 H1230 0.984 . S
N1224 H1231 0.984 . S
N1225 C1218 1.356 . S
N1225 H1228 0.984 . S
N1225 H1229 0.985 . S
H1226 N1221 0.984 . S
H1227 N1221 0.985 . S
H1228 N1225 0.984 . S
H1229 N1225 0.985 . S
H1230 N1224 0.984 . S
H1231 N1224 0.984 . S
H1232 N1220 0.984 . S
H1233 N1220 0.985 . S
C1234 C1235 1.363 . S
C1234 C1240 1.379 . S
C1234 N1242 1.356 . S
C1235 C1234 1.363 . S
C1235 C1241 1.363 . S
C1236 C1237 1.363 . S
C1236 C1241 1.379 . S
C1236 N1243 1.356 . S
C1237 C1236 1.363 . S
C1237 C1240 1.363 . S
N1238 C1240 1.356 . S
N1238 H1250 0.984 . S
N1238 H1251 0.985 . S
N1239 C1241 1.356 . S
N1239 H1244 0.984 . S
N1239 H1245 0.985 . S
C1240 C1234 1.379 . S
C1240 C1237 1.363 . S
C1240 N1238 1.356 . S
C1241 C1235 1.363 . S
C1241 C1236 1.379 . S
C1241 N1239 1.356 . S
N1242 C1234 1.356 . S
N1242 H1248 0.984 . S
N1242 H1249 0.984 . S
N1243 C1236 1.356 . S
N1243 H1246 0.984 . S
N1243 H1247 0.985 . S
H1244 N1239 0.984 . S
H1245 N1239 0.985 . S
H1246 N1243 0.984 . S
H1247 N1243 0.985 . S
H1248 N1242 0.984 . S
H1249 N1242 0.984 . S
H1250 N1238 0.984 . S
H1251 N1238 0.985 . S
C1252 C1253 1.363 . S
C1252 C1258 1.379 . S
C1252 N1260 1.356 . S
C1253 C1252 1.363 . S
C1253 C1259 1.363 . S
C1254 C1255 1.363 . S
C1254 C1259 1.379 . S
C1254 N1261 1.356 . S
C1255 C1254 1.363 . S
C1255 C1258 1.363 . S
N1256 C1258 1.356 . S
N1256 H1268 0.984 . S
N1256 H1269 0.985 . S
N1257 C1259 1.356 . S
N1257 H1262 0.984 . S
N1257 H1263 0.985 . S
C1258 C1252 1.379 . S
C1258 C1255 1.363 . S
C1258 N1256 1.356 . S
C1259 C1253 1.363 . S
C1259 C1254 1.379 . S
C1259 N1257 1.356 . S
N1260 C1252 1.356 . S
N1260 H1266 0.984 . S
N1260 H1267 0.984 . S
N1261 C1254 1.356 . S
N1261 H1264 0.984 . S
N1261 H1265 0.985 . S
H1262 N1257 0.984 . S
H1263 N1257 0.985 . S
H1264 N1261 0.984 . S
H1265 N1261 0.985 . S
H1266 N1260 0.984 . S
H1267 N1260 0.984 . S
H1268 N1256 0.984 . S
H1269 N1256 0.985 . S
C1270 C1271 1.363 . S
C1270 C1276 1.379 . S
C1270 N1278 1.356 . S
C1271 C1270 1.363 . S
C1271 C1277 1.363 . S
C1272 C1273 1.363 . S
C1272 C1277 1.379 . S
C1272 N1279 1.356 . S
C1273 C1272 1.363 . S
C1273 C1276 1.363 . S
N1274 C1276 1.356 . S
N1274 H1286 0.984 . S
N1274 H1287 0.985 . S
N1275 C1277 1.356 . S
N1275 H1280 0.984 . S
N1275 H1281 0.985 . S
C1276 C1270 1.379 . S
C1276 C1273 1.363 . S
C1276 N1274 1.356 . S
C1277 C1271 1.363 . S
C1277 C1272 1.379 . S
C1277 N1275 1.356 . S
N1278 C1270 1.356 . S
N1278 H1284 0.984 . S
N1278 H1285 0.984 . S
N1279 C1272 1.356 . S
N1279 H1282 0.984 . S
N1279 H1283 0.985 . S
H1280 N1275 0.984 . S
H1281 N1275 0.985 . S
H1282 N1279 0.984 . S
H1283 N1279 0.985 . S
H1284 N1278 0.984 . S
H1285 N1278 0.984 . S
H1286 N1274 0.984 . S
H1287 N1274 0.985 . S
C1288 C1289 1.363 . S
C1288 C1294 1.379 . S
C1288 N1296 1.356 . S
C1289 C1288 1.363 . S
C1289 C1295 1.363 . S
C1290 C1291 1.363 . S
C1290 C1295 1.379 . S
C1290 N1297 1.356 . S
C1291 C1290 1.363 . S
C1291 C1294 1.363 . S
N1292 C1294 1.356 . S
N1292 H1304 0.984 . S
N1292 H1305 0.985 . S
N1293 C1295 1.356 . S
N1293 H1298 0.984 . S
N1293 H1299 0.985 . S
C1294 C1288 1.379 . S
C1294 C1291 1.363 . S
C1294 N1292 1.356 . S
C1295 C1289 1.363 . S
C1295 C1290 1.379 . S
C1295 N1293 1.356 . S
N1296 C1288 1.356 . S
N1296 H1302 0.984 . S
N1296 H1303 0.984 . S
N1297 C1290 1.356 . S
N1297 H1300 0.984 . S
N1297 H1301 0.985 . S
H1298 N1293 0.984 . S
H1299 N1293 0.985 . S
H1300 N1297 0.984 . S
H1301 N1297 0.985 . S
H1302 N1296 0.984 . S
H1303 N1296 0.984 . S
H1304 N1292 0.984 . S
H1305 N1292 0.985 . S
C1306 C1307 1.363 . S
C1306 C1312 1.379 . S
C1306 N1314 1.356 . S
C1307 C1306 1.363 . S
C1307 C1313 1.363 . S
C1308 C1309 1.363 . S
C1308 C1313 1.379 . S
C1308 N1315 1.356 . S
C1309 C1308 1.363 . S
C1309 C1312 1.363 . S
N1310 C1312 1.356 . S
N1310 H1322 0.984 . S
N1310 H1323 0.985 . S
N1311 C1313 1.356 . S
N1311 H1316 0.984 . S
N1311 H1317 0.985 . S
C1312 C1306 1.379 . S
C1312 C1309 1.363 . S
C1312 N1310 1.356 . S
C1313 C1307 1.363 . S
C1313 C1308 1.379 . S
C1313 N1311 1.356 . S
N1314 C1306 1.356 . S
N1314 H1320 0.984 . S
N1314 H1321 0.984 . S
N1315 C1308 1.356 . S
N1315 H1318 0.984 . S
N1315 H1319 0.985 . S
H1316 N1311 0.984 . S
H1317 N1311 0.985 . S
H1318 N1315 0.984 . S
H1319 N1315 0.985 . S
H1320 N1314 0.984 . S
H1321 N1314 0.984 . S
H1322 N1310 0.984 . S
H1323 N1310 0.985 . S
C1324 C1325 1.363 . S
C1324 C1330 1.379 . S
C1324 N1332 1.356 . S
C1325 C1324 1.363 . S
C1325 C1331 1.363 . S
C1326 C1327 1.363 . S
C1326 C1331 1.379 . S
C1326 N1333 1.356 . S
C1327 C1326 1.363 . S
C1327 C1330 1.363 . S
N1328 C1330 1.356 . S
N1328 H1340 0.984 . S
N1328 H1341 0.985 . S
N1329 C1331 1.356 . S
N1329 H1334 0.984 . S
N1329 H1335 0.985 . S
C1330 C1324 1.379 . S
C1330 C1327 1.363 . S
C1330 N1328 1.356 . S
C1331 C1325 1.363 . S
C1331 C1326 1.379 . S
C1331 N1329 1.356 . S
N1332 C1324 1.356 . S
N1332 H1338 0.984 . S
N1332 H1339 0.984 . S
N1333 C1326 1.356 . S
N1333 H1336 0.984 . S
N1333 H1337 0.985 . S
H1334 N1329 0.984 . S
H1335 N1329 0.985 . S
H1336 N1333 0.984 . S
H1337 N1333 0.985 . S
H1338 N1332 0.984 . S
H1339 N1332 0.984 . S
H1340 N1328 0.984 . S
H1341 N1328 0.985 . S
C1342 C1343 1.363 . S
C1342 C1348 1.379 . S
C1342 N1350 1.356 . S
C1343 C1342 1.363 . S
C1343 C1349 1.363 . S
C1344 C1345 1.363 . S
C1344 C1349 1.379 . S
C1344 N1351 1.356 . S
C1345 C1344 1.363 . S
C1345 C1348 1.363 . S
N1346 C1348 1.356 . S
N1346 H1358 0.984 . S
N1346 H1359 0.985 . S
N1347 C1349 1.356 . S
N1347 H1352 0.984 . S
N1347 H1353 0.985 . S
C1348 C1342 1.379 . S
C1348 C1345 1.363 . S
C1348 N1346 1.356 . S
C1349 C1343 1.363 . S
C1349 C1344 1.379 . S
C1349 N1347 1.356 . S
N1350 C1342 1.356 . S
N1350 H1356 0.984 . S
N1350 H1357 0.984 . S
N1351 C1344 1.356 . S
N1351 H1354 0.984 . S
N1351 H1355 0.985 . S
H1352 N1347 0.984 . S
H1353 N1347 0.985 . S
H1354 N1351 0.984 . S
H1355 N1351 0.985 . S
H1356 N1350 0.984 . S
H1357 N1350 0.984 . S
H1358 N1346 0.984 . S
H1359 N1346 0.985 . S
C1360 C1361 1.363 . S
C1360 C1366 1.379 . S
C1360 N1368 1.356 . S
C1361 C1360 1.363 . S
C1361 C1367 1.363 . S
C1362 C1363 1.363 . S
C1362 C1367 1.379 . S
C1362 N1369 1.356 . S
C1363 C1362 1.363 . S
C1363 C1366 1.363 . S
N1364 C1366 1.356 . S
N1364 H1376 0.984 . S
N1364 H1377 0.985 . S
N1365 C1367 1.356 . S
N1365 H1370 0.984 . S
N1365 H1371 0.985 . S
C1366 C1360 1.379 . S
C1366 C1363 1.363 . S
C1366 N1364 1.356 . S
C1367 C1361 1.363 . S
C1367 C1362 1.379 . S
C1367 N1365 1.356 . S
N1368 C1360 1.356 . S
N1368 H1374 0.984 . S
N1368 H1375 0.984 . S
N1369 C1362 1.356 . S
N1369 H1372 0.984 . S
N1369 H1373 0.985 . S
H1370 N1365 0.984 . S
H1371 N1365 0.985 . S
H1372 N1369 0.984 . S
H1373 N1369 0.985 . S
H1374 N1368 0.984 . S
H1375 N1368 0.984 . S
H1376 N1364 0.984 . S
H1377 N1364 0.985 . S
C1378 C1379 1.363 . S
C1378 C1384 1.379 . S
C1378 N1386 1.356 . S
C1379 C1378 1.363 . S
C1379 C1385 1.363 . S
C1380 C1381 1.363 . S
C1380 C1385 1.379 . S
C1380 N1387 1.356 . S
C1381 C1380 1.363 . S
C1381 C1384 1.363 . S
N1382 C1384 1.356 . S
N1382 H1394 0.984 . S
N1382 H1395 0.985 . S
N1383 C1385 1.356 . S
N1383 H1388 0.984 . S
N1383 H1389 0.985 . S
C1384 C1378 1.379 . S
C1384 C1381 1.363 . S
C1384 N1382 1.356 . S
C1385 C1379 1.363 . S
C1385 C1380 1.379 . S
C1385 N1383 1.356 . S
N1386 C1378 1.356 . S
N1386 H1392 0.984 . S
N1386 H1393 0.984 . S
N1387 C1380 1.356 . S
N1387 H1390 0.984 . S
N1387 H1391 0.985 . S
H1388 N1383 0.984 . S
H1389 N1383 0.985 . S
H1390 N1387 0.984 . S
H1391 N1387 0.985 . S
H1392 N1386 0.984 . S
H1393 N1386 0.984 . S
H1394 N1382 0.984 . S
H1395 N1382 0.985 . S
C1396 C1397 1.363 . S
C1396 C1402 1.379 . S
C1396 N1404 1.356 . S
C1397 C1396 1.363 . S
C1397 C1403 1.363 . S
C1398 C1399 1.363 . S
C1398 C1403 1.379 . S
C1398 N1405 1.356 . S
C1399 C1398 1.363 . S
C1399 C1402 1.363 . S
N1400 C1402 1.356 . S
N1400 H1412 0.984 . S
N1400 H1413 0.985 . S
N1401 C1403 1.356 . S
N1401 H1406 0.984 . S
N1401 H1407 0.985 . S
C1402 C1396 1.379 . S
C1402 C1399 1.363 . S
C1402 N1400 1.356 . S
C1403 C1397 1.363 . S
C1403 C1398 1.379 . S
C1403 N1401 1.356 . S
N1404 C1396 1.356 . S
N1404 H1410 0.984 . S
N1404 H1411 0.984 . S
N1405 C1398 1.356 . S
N1405 H1408 0.984 . S
N1405 H1409 0.985 . S
H1406 N1401 0.984 . S
H1407 N1401 0.985 . S
H1408 N1405 0.984 . S
H1409 N1405 0.985 . S
H1410 N1404 0.984 . S
H1411 N1404 0.984 . S
H1412 N1400 0.984 . S
H1413 N1400 0.985 . S
C1414 C1415 1.363 . S
C1414 C1420 1.379 . S
C1414 N1422 1.356 . S
C1415 C1414 1.363 . S
C1415 C1421 1.363 . S
C1416 C1417 1.363 . S
C1416 C1421 1.379 . S
C1416 N1423 1.356 . S
C1417 C1416 1.363 . S
C1417 C1420 1.363 . S
N1418 C1420 1.356 . S
N1418 H1430 0.984 . S
N1418 H1431 0.985 . S
N1419 C1421 1.356 . S
N1419 H1424 0.984 . S
N1419 H1425 0.985 . S
C1420 C1414 1.379 . S
C1420 C1417 1.363 . S
C1420 N1418 1.356 . S
C1421 C1415 1.363 . S
C1421 C1416 1.379 . S
C1421 N1419 1.356 . S
N1422 C1414 1.356 . S
N1422 H1428 0.984 . S
N1422 H1429 0.984 . S
N1423 C1416 1.356 . S
N1423 H1426 0.984 . S
N1423 H1427 0.985 . S
H1424 N1419 0.984 . S
H1425 N1419 0.985 . S
H1426 N1423 0.984 . S
H1427 N1423 0.985 . S
H1428 N1422 0.984 . S
H1429 N1422 0.984 . S
H1430 N1418 0.984 . S
H1431 N1418 0.985 . S
C1432 C1433 1.363 . S
C1432 C1438 1.379 . S
C1432 N1440 1.356 . S
C1433 C1432 1.363 . S
C1433 C1439 1.363 . S
C1434 C1435 1.363 . S
C1434 C1439 1.379 . S
C1434 N1441 1.356 . S
C1435 C1434 1.363 . S
C1435 C1438 1.363 . S
N1436 C1438 1.356 . S
N1436 H1448 0.984 . S
N1436 H1449 0.985 . S
N1437 C1439 1.356 . S
N1437 H1442 0.984 . S
N1437 H1443 0.985 . S
C1438 C1432 1.379 . S
C1438 C1435 1.363 . S
C1438 N1436 1.356 . S
C1439 C1433 1.363 . S
C1439 C1434 1.379 . S
C1439 N1437 1.356 . S
N1440 C1432 1.356 . S
N1440 H1446 0.984 . S
N1440 H1447 0.984 . S
N1441 C1434 1.356 . S
N1441 H1444 0.984 . S
N1441 H1445 0.985 . S
H1442 N1437 0.984 . S
H1443 N1437 0.985 . S
H1444 N1441 0.984 . S
H1445 N1441 0.985 . S
H1446 N1440 0.984 . S
H1447 N1440 0.984 . S
H1448 N1436 0.984 . S
H1449 N1436 0.985 . S
C1450 C1451 1.363 . S
C1450 C1456 1.379 . S
C1450 N1458 1.356 . S
C1451 C1450 1.363 . S
C1451 C1457 1.363 . S
C1452 C1453 1.363 . S
C1452 C1457 1.379 . S
C1452 N1459 1.356 . S
C1453 C1452 1.363 . S
C1453 C1456 1.363 . S
N1454 C1456 1.356 . S
N1454 H1466 0.984 . S
N1454 H1467 0.985 . S
N1455 C1457 1.356 . S
N1455 H1460 0.984 . S
N1455 H1461 0.985 . S
C1456 C1450 1.379 . S
C1456 C1453 1.363 . S
C1456 N1454 1.356 . S
C1457 C1451 1.363 . S
C1457 C1452 1.379 . S
C1457 N1455 1.356 . S
N1458 C1450 1.356 . S
N1458 H1464 0.984 . S
N1458 H1465 0.984 . S
N1459 C1452 1.356 . S
N1459 H1462 0.984 . S
N1459 H1463 0.985 . S
H1460 N1455 0.984 . S
H1461 N1455 0.985 . S
H1462 N1459 0.984 . S
H1463 N1459 0.985 . S
H1464 N1458 0.984 . S
H1465 N1458 0.984 . S
H1466 N1454 0.984 . S
H1467 N1454 0.985 . S
C1468 C1469 1.363 . S
C1468 C1474 1.379 . S
C1468 N1476 1.356 . S
C1469 C1468 1.363 . S
C1469 C1475 1.363 . S
C1470 C1471 1.363 . S
C1470 C1475 1.379 . S
C1470 N1477 1.356 . S
C1471 C1470 1.363 . S
C1471 C1474 1.363 . S
N1472 C1474 1.356 . S
N1472 H1484 0.984 . S
N1472 H1485 0.985 . S
N1473 C1475 1.356 . S
N1473 H1478 0.984 . S
N1473 H1479 0.985 . S
C1474 C1468 1.379 . S
C1474 C1471 1.363 . S
C1474 N1472 1.356 . S
C1475 C1469 1.363 . S
C1475 C1470 1.379 . S
C1475 N1473 1.356 . S
N1476 C1468 1.356 . S
N1476 H1482 0.984 . S
N1476 H1483 0.984 . S
N1477 C1470 1.356 . S
N1477 H1480 0.984 . S
N1477 H1481 0.985 . S
H1478 N1473 0.984 . S
H1479 N1473 0.985 . S
H1480 N1477 0.984 . S
H1481 N1477 0.985 . S
H1482 N1476 0.984 . S
H1483 N1476 0.984 . S
H1484 N1472 0.984 . S
H1485 N1472 0.985 . S
C1486 C1487 1.363 . S
C1486 C1492 1.379 . S
C1486 N1494 1.356 . S
C1487 C1486 1.363 . S
C1487 C1493 1.363 . S
C1488 C1489 1.363 . S
C1488 C1493 1.379 . S
C1488 N1495 1.356 . S
C1489 C1488 1.363 . S
C1489 C1492 1.363 . S
N1490 C1492 1.356 . S
N1490 H1502 0.984 . S
N1490 H1503 0.985 . S
N1491 C1493 1.356 . S
N1491 H1496 0.984 . S
N1491 H1497 0.985 . S
C1492 C1486 1.379 . S
C1492 C1489 1.363 . S
C1492 N1490 1.356 . S
C1493 C1487 1.363 . S
C1493 C1488 1.379 . S
C1493 N1491 1.356 . S
N1494 C1486 1.356 . S
N1494 H1500 0.984 . S
N1494 H1501 0.984 . S
N1495 C1488 1.356 . S
N1495 H1498 0.984 . S
N1495 H1499 0.985 . S
H1496 N1491 0.984 . S
H1497 N1491 0.985 . S
H1498 N1495 0.984 . S
H1499 N1495 0.985 . S
H1500 N1494 0.984 . S
H1501 N1494 0.984 . S
H1502 N1490 0.984 . S
H1503 N1490 0.985 . S
C641 C8 1.033 . S
C643 C288 1.033 . S
C659 C48 1.033 . S
C661 C168 1.033 . S
C677 C208 1.033 . S
C679 C88 1.033 . S
C695 C128 1.033 . S
C697 C248 1.033 . S
C713 C471 4.195 . S
C715 C191 4.195 1_554 S
C731 C351 4.195 . S
C733 C31 4.195 1_556 S
C749 C431 4.195 . S
C751 C271 4.195 . S
C767 C111 4.195 . S
C769 C391 4.195 . S
C785 C368 1.033 . S
C787 C488 1.033 . S
C803 C408 1.033 . S
C805 C568 1.033 . S
C821 C528 1.033 . S
C823 C328 1.033 . S
C839 C448 1.033 . S
C841 C608 1.033 . S
C857 C591 4.195 . S
C859 C151 4.195 . S
C875 C511 4.195 . S
C877 C231 4.195 . S
C893 C71 4.195 . S
C895 C631 4.195 1_554 S
C911 C311 4.195 . S
C913 C551 4.195 1_556 S
C929 C537 1.312 . S
C931 C17 1.312 . S
C947 C457 1.312 . S
C949 C57 1.312 . S
C965 C497 1.312 . S
C967 C97 1.312 . S
C983 C417 1.312 . S
C985 C137 1.312 . S
C1001 C177 1.312 . S
C1003 C617 1.312 . S
C1019 C377 1.312 . S
C1021 C217 1.312 . S
C1037 C257 1.312 . S
C1039 C577 1.312 . S
C1055 C297 1.312 . S
C1057 C337 1.312 . S
C1073 C2 1.949 . S
C1075 C162 1.949 . S
C1091 C42 1.948 . S
C1093 C202 1.949 . S
C1109 C242 1.949 . S
C1111 C82 1.949 . S
C1127 C122 1.949 . S
C1129 C282 1.948 . S
C1145 C402 1.949 . S
C1147 C322 1.948 . S
C1163 C442 1.948 . S
C1165 C362 1.949 . S
C1181 C482 1.949 . S
C1183 C562 1.949 . S
C1199 C602 1.949 . S
C1201 C522 1.949 . S
C1217 C12 4.751 . S
C1219 C292 4.750 . S
C1235 C52 4.750 . S
C1237 C172 4.751 . S
C1253 C212 4.750 1_556 S
C1255 C92 4.750 . S
C1271 C252 4.750 . S
C1273 C132 4.750 1_554 S
C1289 C469 0.771 . S
C1291 C189 0.771 . S
C1307 C349 0.771 . S
C1309 C29 0.771 . S
C1325 C429 0.771 . S
C1327 C269 0.771 . S
C1343 C109 0.771 . S
C1345 C389 0.771 . S
C1361 C492 4.750 . S
C1363 C372 4.750 1_556 S
C1379 C572 4.750 . S
C1381 C412 4.750 1_554 S
C1397 C532 4.751 . S
C1399 C332 4.750 . S
C1415 C612 4.751 . S
C1417 C452 4.750 . S
C1433 C589 0.771 . S
C1435 C149 0.771 . S
C1451 C229 0.771 . S
C1453 C509 0.771 . S
C1469 C69 0.771 . S
C1471 C629 0.771 . S
C1487 C549 0.771 . S
C1489 C309 0.771 . S
