# Generated by pormake.
# Topology kfi, (4)-cn, num edge types: 1
# Building blocks:
#     Node 0, Type 0, BuildingBlock: QUQFOY_clean_sbu_1, # of connection points: 4
#     Node 1, Type 0, BuildingBlock: QUQFOY_clean_sbu_1, # of connection points: 4
#     Node 2, Type 0, BuildingBlock: QUQFOY_clean_sbu_1, # of connection points: 4
#     Node 3, Type 0, BuildingBlock: QUQFOY_clean_sbu_1, # of connection points: 4
#     Node 4, Type 0, BuildingBlock: QUQFOY_clean_sbu_1, # of connection points: 4
#     Node 5, Type 0, BuildingBlock: QUQFOY_clean_sbu_1, # of connection points: 4
#     Node 6, Type 0, BuildingBlock: QUQFOY_clean_sbu_1, # of connection points: 4
#     Node 7, Type 0, BuildingBlock: QUQFOY_clean_sbu_1, # of connection points: 4
#     Node 8, Type 0, BuildingBlock: QUQFOY_clean_sbu_1, # of connection points: 4
#     Node 9, Type 0, BuildingBlock: QUQFOY_clean_sbu_1, # of connection points: 4
#     Node 10, Type 0, BuildingBlock: QUQFOY_clean_sbu_1, # of connection points: 4
#     Node 11, Type 0, BuildingBlock: QUQFOY_clean_sbu_1, # of connection points: 4
#     Node 12, Type 0, BuildingBlock: QUQFOY_clean_sbu_1, # of connection points: 4
#     Node 13, Type 0, BuildingBlock: QUQFOY_clean_sbu_1, # of connection points: 4
#     Node 14, Type 0, BuildingBlock: QUQFOY_clean_sbu_1, # of connection points: 4
#     Node 15, Type 0, BuildingBlock: QUQFOY_clean_sbu_1, # of connection points: 4
#     Node 16, Type 0, BuildingBlock: QUQFOY_clean_sbu_1, # of connection points: 4
#     Node 17, Type 0, BuildingBlock: QUQFOY_clean_sbu_1, # of connection points: 4
#     Node 18, Type 0, BuildingBlock: QUQFOY_clean_sbu_1, # of connection points: 4
#     Node 19, Type 0, BuildingBlock: QUQFOY_clean_sbu_1, # of connection points: 4
#     Node 20, Type 0, BuildingBlock: QUQFOY_clean_sbu_1, # of connection points: 4
#     Node 21, Type 0, BuildingBlock: QUQFOY_clean_sbu_1, # of connection points: 4
#     Node 22, Type 0, BuildingBlock: QUQFOY_clean_sbu_1, # of connection points: 4
#     Node 23, Type 0, BuildingBlock: QUQFOY_clean_sbu_1, # of connection points: 4
#     Node 24, Type 0, BuildingBlock: QUQFOY_clean_sbu_1, # of connection points: 4
#     Node 25, Type 0, BuildingBlock: QUQFOY_clean_sbu_1, # of connection points: 4
#     Node 26, Type 0, BuildingBlock: QUQFOY_clean_sbu_1, # of connection points: 4
#     Node 27, Type 0, BuildingBlock: QUQFOY_clean_sbu_1, # of connection points: 4
#     Node 28, Type 0, BuildingBlock: QUQFOY_clean_sbu_1, # of connection points: 4
#     Node 29, Type 0, BuildingBlock: QUQFOY_clean_sbu_1, # of connection points: 4
#     Node 30, Type 0, BuildingBlock: QUQFOY_clean_sbu_1, # of connection points: 4
#     Node 31, Type 0, BuildingBlock: QUQFOY_clean_sbu_1, # of connection points: 4
#     Node 32, Type 0, BuildingBlock: QUQFOY_clean_sbu_1, # of connection points: 4
#     Node 33, Type 0, BuildingBlock: QUQFOY_clean_sbu_1, # of connection points: 4
#     Node 34, Type 0, BuildingBlock: QUQFOY_clean_sbu_1, # of connection points: 4
#     Node 35, Type 0, BuildingBlock: QUQFOY_clean_sbu_1, # of connection points: 4
#     Node 36, Type 0, BuildingBlock: QUQFOY_clean_sbu_1, # of connection points: 4
#     Node 37, Type 0, BuildingBlock: QUQFOY_clean_sbu_1, # of connection points: 4
#     Node 38, Type 0, BuildingBlock: QUQFOY_clean_sbu_1, # of connection points: 4
#     Node 39, Type 0, BuildingBlock: QUQFOY_clean_sbu_1, # of connection points: 4
#     Node 40, Type 0, BuildingBlock: QUQFOY_clean_sbu_1, # of connection points: 4
#     Node 41, Type 0, BuildingBlock: QUQFOY_clean_sbu_1, # of connection points: 4
#     Node 42, Type 0, BuildingBlock: QUQFOY_clean_sbu_1, # of connection points: 4
#     Node 43, Type 0, BuildingBlock: QUQFOY_clean_sbu_1, # of connection points: 4
#     Node 44, Type 0, BuildingBlock: QUQFOY_clean_sbu_1, # of connection points: 4
#     Node 45, Type 0, BuildingBlock: QUQFOY_clean_sbu_1, # of connection points: 4
#     Node 46, Type 0, BuildingBlock: QUQFOY_clean_sbu_1, # of connection points: 4
#     Node 47, Type 0, BuildingBlock: QUQFOY_clean_sbu_1, # of connection points: 4
#     Node 48, Type 0, BuildingBlock: QUQFOY_clean_sbu_1, # of connection points: 4
#     Node 49, Type 0, BuildingBlock: QUQFOY_clean_sbu_1, # of connection points: 4
#     Node 50, Type 0, BuildingBlock: QUQFOY_clean_sbu_1, # of connection points: 4
#     Node 51, Type 0, BuildingBlock: QUQFOY_clean_sbu_1, # of connection points: 4
#     Node 52, Type 0, BuildingBlock: QUQFOY_clean_sbu_1, # of connection points: 4
#     Node 53, Type 0, BuildingBlock: QUQFOY_clean_sbu_1, # of connection points: 4
#     Node 54, Type 0, BuildingBlock: QUQFOY_clean_sbu_1, # of connection points: 4
#     Node 55, Type 0, BuildingBlock: QUQFOY_clean_sbu_1, # of connection points: 4
#     Node 56, Type 0, BuildingBlock: QUQFOY_clean_sbu_1, # of connection points: 4
#     Node 57, Type 0, BuildingBlock: QUQFOY_clean_sbu_1, # of connection points: 4
#     Node 58, Type 0, BuildingBlock: QUQFOY_clean_sbu_1, # of connection points: 4
#     Node 59, Type 0, BuildingBlock: QUQFOY_clean_sbu_1, # of connection points: 4
#     Node 60, Type 0, BuildingBlock: QUQFOY_clean_sbu_1, # of connection points: 4
#     Node 61, Type 0, BuildingBlock: QUQFOY_clean_sbu_1, # of connection points: 4
#     Node 62, Type 0, BuildingBlock: QUQFOY_clean_sbu_1, # of connection points: 4
#     Node 63, Type 0, BuildingBlock: QUQFOY_clean_sbu_1, # of connection points: 4
#     Node 64, Type 0, BuildingBlock: QUQFOY_clean_sbu_1, # of connection points: 4
#     Node 65, Type 0, BuildingBlock: QUQFOY_clean_sbu_1, # of connection points: 4
#     Node 66, Type 0, BuildingBlock: QUQFOY_clean_sbu_1, # of connection points: 4
#     Node 67, Type 0, BuildingBlock: QUQFOY_clean_sbu_1, # of connection points: 4
#     Node 68, Type 0, BuildingBlock: QUQFOY_clean_sbu_1, # of connection points: 4
#     Node 69, Type 0, BuildingBlock: QUQFOY_clean_sbu_1, # of connection points: 4
#     Node 70, Type 0, BuildingBlock: QUQFOY_clean_sbu_1, # of connection points: 4
#     Node 71, Type 0, BuildingBlock: QUQFOY_clean_sbu_1, # of connection points: 4
#     Node 72, Type 0, BuildingBlock: QUQFOY_clean_sbu_1, # of connection points: 4
#     Node 73, Type 0, BuildingBlock: QUQFOY_clean_sbu_1, # of connection points: 4
#     Node 74, Type 0, BuildingBlock: QUQFOY_clean_sbu_1, # of connection points: 4
#     Node 75, Type 0, BuildingBlock: QUQFOY_clean_sbu_1, # of connection points: 4
#     Node 76, Type 0, BuildingBlock: QUQFOY_clean_sbu_1, # of connection points: 4
#     Node 77, Type 0, BuildingBlock: QUQFOY_clean_sbu_1, # of connection points: 4
#     Node 78, Type 0, BuildingBlock: QUQFOY_clean_sbu_1, # of connection points: 4
#     Node 79, Type 0, BuildingBlock: QUQFOY_clean_sbu_1, # of connection points: 4
#     Node 80, Type 0, BuildingBlock: QUQFOY_clean_sbu_1, # of connection points: 4
#     Node 81, Type 0, BuildingBlock: QUQFOY_clean_sbu_1, # of connection points: 4
#     Node 82, Type 0, BuildingBlock: QUQFOY_clean_sbu_1, # of connection points: 4
#     Node 83, Type 0, BuildingBlock: QUQFOY_clean_sbu_1, # of connection points: 4
#     Node 84, Type 0, BuildingBlock: QUQFOY_clean_sbu_1, # of connection points: 4
#     Node 85, Type 0, BuildingBlock: QUQFOY_clean_sbu_1, # of connection points: 4
#     Node 86, Type 0, BuildingBlock: QUQFOY_clean_sbu_1, # of connection points: 4
#     Node 87, Type 0, BuildingBlock: QUQFOY_clean_sbu_1, # of connection points: 4
#     Node 88, Type 0, BuildingBlock: QUQFOY_clean_sbu_1, # of connection points: 4
#     Node 89, Type 0, BuildingBlock: QUQFOY_clean_sbu_1, # of connection points: 4
#     Node 90, Type 0, BuildingBlock: QUQFOY_clean_sbu_1, # of connection points: 4
#     Node 91, Type 0, BuildingBlock: QUQFOY_clean_sbu_1, # of connection points: 4
#     Node 92, Type 0, BuildingBlock: QUQFOY_clean_sbu_1, # of connection points: 4
#     Node 93, Type 0, BuildingBlock: QUQFOY_clean_sbu_1, # of connection points: 4
#     Node 94, Type 0, BuildingBlock: QUQFOY_clean_sbu_1, # of connection points: 4
#     Node 95, Type 0, BuildingBlock: QUQFOY_clean_sbu_1, # of connection points: 4
#     Edge 96, Type (0, 0), BuildingBlock: KIFKEQ_clean_linker_1, # of connection points: 2
#     Edge 97, Type (0, 0), BuildingBlock: KIFKEQ_clean_linker_1, # of connection points: 2
#     Edge 98, Type (0, 0), BuildingBlock: KIFKEQ_clean_linker_1, # of connection points: 2
#     Edge 99, Type (0, 0), BuildingBlock: KIFKEQ_clean_linker_1, # of connection points: 2
#     Edge 100, Type (0, 0), BuildingBlock: KIFKEQ_clean_linker_1, # of connection points: 2
#     Edge 101, Type (0, 0), BuildingBlock: KIFKEQ_clean_linker_1, # of connection points: 2
#     Edge 102, Type (0, 0), BuildingBlock: KIFKEQ_clean_linker_1, # of connection points: 2
#     Edge 103, Type (0, 0), BuildingBlock: KIFKEQ_clean_linker_1, # of connection points: 2
#     Edge 104, Type (0, 0), BuildingBlock: KIFKEQ_clean_linker_1, # of connection points: 2
#     Edge 105, Type (0, 0), BuildingBlock: KIFKEQ_clean_linker_1, # of connection points: 2
#     Edge 106, Type (0, 0), BuildingBlock: KIFKEQ_clean_linker_1, # of connection points: 2
#     Edge 107, Type (0, 0), BuildingBlock: KIFKEQ_clean_linker_1, # of connection points: 2
#     Edge 108, Type (0, 0), BuildingBlock: KIFKEQ_clean_linker_1, # of connection points: 2
#     Edge 109, Type (0, 0), BuildingBlock: KIFKEQ_clean_linker_1, # of connection points: 2
#     Edge 110, Type (0, 0), BuildingBlock: KIFKEQ_clean_linker_1, # of connection points: 2
#     Edge 111, Type (0, 0), BuildingBlock: KIFKEQ_clean_linker_1, # of connection points: 2
#     Edge 112, Type (0, 0), BuildingBlock: KIFKEQ_clean_linker_1, # of connection points: 2
#     Edge 113, Type (0, 0), BuildingBlock: KIFKEQ_clean_linker_1, # of connection points: 2
#     Edge 114, Type (0, 0), BuildingBlock: KIFKEQ_clean_linker_1, # of connection points: 2
#     Edge 115, Type (0, 0), BuildingBlock: KIFKEQ_clean_linker_1, # of connection points: 2
#     Edge 116, Type (0, 0), BuildingBlock: KIFKEQ_clean_linker_1, # of connection points: 2
#     Edge 117, Type (0, 0), BuildingBlock: KIFKEQ_clean_linker_1, # of connection points: 2
#     Edge 118, Type (0, 0), BuildingBlock: KIFKEQ_clean_linker_1, # of connection points: 2
#     Edge 119, Type (0, 0), BuildingBlock: KIFKEQ_clean_linker_1, # of connection points: 2
#     Edge 120, Type (0, 0), BuildingBlock: KIFKEQ_clean_linker_1, # of connection points: 2
#     Edge 121, Type (0, 0), BuildingBlock: KIFKEQ_clean_linker_1, # of connection points: 2
#     Edge 122, Type (0, 0), BuildingBlock: KIFKEQ_clean_linker_1, # of connection points: 2
#     Edge 123, Type (0, 0), BuildingBlock: KIFKEQ_clean_linker_1, # of connection points: 2
#     Edge 124, Type (0, 0), BuildingBlock: KIFKEQ_clean_linker_1, # of connection points: 2
#     Edge 125, Type (0, 0), BuildingBlock: KIFKEQ_clean_linker_1, # of connection points: 2
#     Edge 126, Type (0, 0), BuildingBlock: KIFKEQ_clean_linker_1, # of connection points: 2
#     Edge 127, Type (0, 0), BuildingBlock: KIFKEQ_clean_linker_1, # of connection points: 2
#     Edge 128, Type (0, 0), BuildingBlock: KIFKEQ_clean_linker_1, # of connection points: 2
#     Edge 129, Type (0, 0), BuildingBlock: KIFKEQ_clean_linker_1, # of connection points: 2
#     Edge 130, Type (0, 0), BuildingBlock: KIFKEQ_clean_linker_1, # of connection points: 2
#     Edge 131, Type (0, 0), BuildingBlock: KIFKEQ_clean_linker_1, # of connection points: 2
#     Edge 132, Type (0, 0), BuildingBlock: KIFKEQ_clean_linker_1, # of connection points: 2
#     Edge 133, Type (0, 0), BuildingBlock: KIFKEQ_clean_linker_1, # of connection points: 2
#     Edge 134, Type (0, 0), BuildingBlock: KIFKEQ_clean_linker_1, # of connection points: 2
#     Edge 135, Type (0, 0), BuildingBlock: KIFKEQ_clean_linker_1, # of connection points: 2
#     Edge 136, Type (0, 0), BuildingBlock: KIFKEQ_clean_linker_1, # of connection points: 2
#     Edge 137, Type (0, 0), BuildingBlock: KIFKEQ_clean_linker_1, # of connection points: 2
#     Edge 138, Type (0, 0), BuildingBlock: KIFKEQ_clean_linker_1, # of connection points: 2
#     Edge 139, Type (0, 0), BuildingBlock: KIFKEQ_clean_linker_1, # of connection points: 2
#     Edge 140, Type (0, 0), BuildingBlock: KIFKEQ_clean_linker_1, # of connection points: 2
#     Edge 141, Type (0, 0), BuildingBlock: KIFKEQ_clean_linker_1, # of connection points: 2
#     Edge 142, Type (0, 0), BuildingBlock: KIFKEQ_clean_linker_1, # of connection points: 2
#     Edge 143, Type (0, 0), BuildingBlock: KIFKEQ_clean_linker_1, # of connection points: 2
#     Edge 144, Type (0, 0), BuildingBlock: KIFKEQ_clean_linker_1, # of connection points: 2
#     Edge 145, Type (0, 0), BuildingBlock: KIFKEQ_clean_linker_1, # of connection points: 2
#     Edge 146, Type (0, 0), BuildingBlock: KIFKEQ_clean_linker_1, # of connection points: 2
#     Edge 147, Type (0, 0), BuildingBlock: KIFKEQ_clean_linker_1, # of connection points: 2
#     Edge 148, Type (0, 0), BuildingBlock: KIFKEQ_clean_linker_1, # of connection points: 2
#     Edge 149, Type (0, 0), BuildingBlock: KIFKEQ_clean_linker_1, # of connection points: 2
#     Edge 150, Type (0, 0), BuildingBlock: KIFKEQ_clean_linker_1, # of connection points: 2
#     Edge 151, Type (0, 0), BuildingBlock: KIFKEQ_clean_linker_1, # of connection points: 2
#     Edge 152, Type (0, 0), BuildingBlock: KIFKEQ_clean_linker_1, # of connection points: 2
#     Edge 153, Type (0, 0), BuildingBlock: KIFKEQ_clean_linker_1, # of connection points: 2
#     Edge 154, Type (0, 0), BuildingBlock: KIFKEQ_clean_linker_1, # of connection points: 2
#     Edge 155, Type (0, 0), BuildingBlock: KIFKEQ_clean_linker_1, # of connection points: 2
#     Edge 156, Type (0, 0), BuildingBlock: KIFKEQ_clean_linker_1, # of connection points: 2
#     Edge 157, Type (0, 0), BuildingBlock: KIFKEQ_clean_linker_1, # of connection points: 2
#     Edge 158, Type (0, 0), BuildingBlock: KIFKEQ_clean_linker_1, # of connection points: 2
#     Edge 159, Type (0, 0), BuildingBlock: KIFKEQ_clean_linker_1, # of connection points: 2
#     Edge 160, Type (0, 0), BuildingBlock: KIFKEQ_clean_linker_1, # of connection points: 2
#     Edge 161, Type (0, 0), BuildingBlock: KIFKEQ_clean_linker_1, # of connection points: 2
#     Edge 162, Type (0, 0), BuildingBlock: KIFKEQ_clean_linker_1, # of connection points: 2
#     Edge 163, Type (0, 0), BuildingBlock: KIFKEQ_clean_linker_1, # of connection points: 2
#     Edge 164, Type (0, 0), BuildingBlock: KIFKEQ_clean_linker_1, # of connection points: 2
#     Edge 165, Type (0, 0), BuildingBlock: KIFKEQ_clean_linker_1, # of connection points: 2
#     Edge 166, Type (0, 0), BuildingBlock: KIFKEQ_clean_linker_1, # of connection points: 2
#     Edge 167, Type (0, 0), BuildingBlock: KIFKEQ_clean_linker_1, # of connection points: 2
#     Edge 168, Type (0, 0), BuildingBlock: KIFKEQ_clean_linker_1, # of connection points: 2
#     Edge 169, Type (0, 0), BuildingBlock: KIFKEQ_clean_linker_1, # of connection points: 2
#     Edge 170, Type (0, 0), BuildingBlock: KIFKEQ_clean_linker_1, # of connection points: 2
#     Edge 171, Type (0, 0), BuildingBlock: KIFKEQ_clean_linker_1, # of connection points: 2
#     Edge 172, Type (0, 0), BuildingBlock: KIFKEQ_clean_linker_1, # of connection points: 2
#     Edge 173, Type (0, 0), BuildingBlock: KIFKEQ_clean_linker_1, # of connection points: 2
#     Edge 174, Type (0, 0), BuildingBlock: KIFKEQ_clean_linker_1, # of connection points: 2
#     Edge 175, Type (0, 0), BuildingBlock: KIFKEQ_clean_linker_1, # of connection points: 2
#     Edge 176, Type (0, 0), BuildingBlock: KIFKEQ_clean_linker_1, # of connection points: 2
#     Edge 177, Type (0, 0), BuildingBlock: KIFKEQ_clean_linker_1, # of connection points: 2
#     Edge 178, Type (0, 0), BuildingBlock: KIFKEQ_clean_linker_1, # of connection points: 2
#     Edge 179, Type (0, 0), BuildingBlock: KIFKEQ_clean_linker_1, # of connection points: 2
#     Edge 180, Type (0, 0), BuildingBlock: KIFKEQ_clean_linker_1, # of connection points: 2
#     Edge 181, Type (0, 0), BuildingBlock: KIFKEQ_clean_linker_1, # of connection points: 2
#     Edge 182, Type (0, 0), BuildingBlock: KIFKEQ_clean_linker_1, # of connection points: 2
#     Edge 183, Type (0, 0), BuildingBlock: KIFKEQ_clean_linker_1, # of connection points: 2
#     Edge 184, Type (0, 0), BuildingBlock: KIFKEQ_clean_linker_1, # of connection points: 2
#     Edge 185, Type (0, 0), BuildingBlock: KIFKEQ_clean_linker_1, # of connection points: 2
#     Edge 186, Type (0, 0), BuildingBlock: KIFKEQ_clean_linker_1, # of connection points: 2
#     Edge 187, Type (0, 0), BuildingBlock: KIFKEQ_clean_linker_1, # of connection points: 2
#     Edge 188, Type (0, 0), BuildingBlock: KIFKEQ_clean_linker_1, # of connection points: 2
#     Edge 189, Type (0, 0), BuildingBlock: KIFKEQ_clean_linker_1, # of connection points: 2
#     Edge 190, Type (0, 0), BuildingBlock: KIFKEQ_clean_linker_1, # of connection points: 2
#     Edge 191, Type (0, 0), BuildingBlock: KIFKEQ_clean_linker_1, # of connection points: 2
#     Edge 192, Type (0, 0), BuildingBlock: KIFKEQ_clean_linker_1, # of connection points: 2
#     Edge 193, Type (0, 0), BuildingBlock: KIFKEQ_clean_linker_1, # of connection points: 2
#     Edge 194, Type (0, 0), BuildingBlock: KIFKEQ_clean_linker_1, # of connection points: 2
#     Edge 195, Type (0, 0), BuildingBlock: KIFKEQ_clean_linker_1, # of connection points: 2
#     Edge 196, Type (0, 0), BuildingBlock: KIFKEQ_clean_linker_1, # of connection points: 2
#     Edge 197, Type (0, 0), BuildingBlock: KIFKEQ_clean_linker_1, # of connection points: 2
#     Edge 198, Type (0, 0), BuildingBlock: KIFKEQ_clean_linker_1, # of connection points: 2
#     Edge 199, Type (0, 0), BuildingBlock: KIFKEQ_clean_linker_1, # of connection points: 2
#     Edge 200, Type (0, 0), BuildingBlock: KIFKEQ_clean_linker_1, # of connection points: 2
#     Edge 201, Type (0, 0), BuildingBlock: KIFKEQ_clean_linker_1, # of connection points: 2
#     Edge 202, Type (0, 0), BuildingBlock: KIFKEQ_clean_linker_1, # of connection points: 2
#     Edge 203, Type (0, 0), BuildingBlock: KIFKEQ_clean_linker_1, # of connection points: 2
#     Edge 204, Type (0, 0), BuildingBlock: KIFKEQ_clean_linker_1, # of connection points: 2
#     Edge 205, Type (0, 0), BuildingBlock: KIFKEQ_clean_linker_1, # of connection points: 2
#     Edge 206, Type (0, 0), BuildingBlock: KIFKEQ_clean_linker_1, # of connection points: 2
#     Edge 207, Type (0, 0), BuildingBlock: KIFKEQ_clean_linker_1, # of connection points: 2
#     Edge 208, Type (0, 0), BuildingBlock: KIFKEQ_clean_linker_1, # of connection points: 2
#     Edge 209, Type (0, 0), BuildingBlock: KIFKEQ_clean_linker_1, # of connection points: 2
#     Edge 210, Type (0, 0), BuildingBlock: KIFKEQ_clean_linker_1, # of connection points: 2
#     Edge 211, Type (0, 0), BuildingBlock: KIFKEQ_clean_linker_1, # of connection points: 2
#     Edge 212, Type (0, 0), BuildingBlock: KIFKEQ_clean_linker_1, # of connection points: 2
#     Edge 213, Type (0, 0), BuildingBlock: KIFKEQ_clean_linker_1, # of connection points: 2
#     Edge 214, Type (0, 0), BuildingBlock: KIFKEQ_clean_linker_1, # of connection points: 2
#     Edge 215, Type (0, 0), BuildingBlock: KIFKEQ_clean_linker_1, # of connection points: 2
#     Edge 216, Type (0, 0), BuildingBlock: KIFKEQ_clean_linker_1, # of connection points: 2
#     Edge 217, Type (0, 0), BuildingBlock: KIFKEQ_clean_linker_1, # of connection points: 2
#     Edge 218, Type (0, 0), BuildingBlock: KIFKEQ_clean_linker_1, # of connection points: 2
#     Edge 219, Type (0, 0), BuildingBlock: KIFKEQ_clean_linker_1, # of connection points: 2
#     Edge 220, Type (0, 0), BuildingBlock: KIFKEQ_clean_linker_1, # of connection points: 2
#     Edge 221, Type (0, 0), BuildingBlock: KIFKEQ_clean_linker_1, # of connection points: 2
#     Edge 222, Type (0, 0), BuildingBlock: KIFKEQ_clean_linker_1, # of connection points: 2
#     Edge 223, Type (0, 0), BuildingBlock: KIFKEQ_clean_linker_1, # of connection points: 2
#     Edge 224, Type (0, 0), BuildingBlock: KIFKEQ_clean_linker_1, # of connection points: 2
#     Edge 225, Type (0, 0), BuildingBlock: KIFKEQ_clean_linker_1, # of connection points: 2
#     Edge 226, Type (0, 0), BuildingBlock: KIFKEQ_clean_linker_1, # of connection points: 2
#     Edge 227, Type (0, 0), BuildingBlock: KIFKEQ_clean_linker_1, # of connection points: 2
#     Edge 228, Type (0, 0), BuildingBlock: KIFKEQ_clean_linker_1, # of connection points: 2
#     Edge 229, Type (0, 0), BuildingBlock: KIFKEQ_clean_linker_1, # of connection points: 2
#     Edge 230, Type (0, 0), BuildingBlock: KIFKEQ_clean_linker_1, # of connection points: 2
#     Edge 231, Type (0, 0), BuildingBlock: KIFKEQ_clean_linker_1, # of connection points: 2
#     Edge 232, Type (0, 0), BuildingBlock: KIFKEQ_clean_linker_1, # of connection points: 2
#     Edge 233, Type (0, 0), BuildingBlock: KIFKEQ_clean_linker_1, # of connection points: 2
#     Edge 234, Type (0, 0), BuildingBlock: KIFKEQ_clean_linker_1, # of connection points: 2
#     Edge 235, Type (0, 0), BuildingBlock: KIFKEQ_clean_linker_1, # of connection points: 2
#     Edge 236, Type (0, 0), BuildingBlock: KIFKEQ_clean_linker_1, # of connection points: 2
#     Edge 237, Type (0, 0), BuildingBlock: KIFKEQ_clean_linker_1, # of connection points: 2
#     Edge 238, Type (0, 0), BuildingBlock: KIFKEQ_clean_linker_1, # of connection points: 2
#     Edge 239, Type (0, 0), BuildingBlock: KIFKEQ_clean_linker_1, # of connection points: 2
#     Edge 240, Type (0, 0), BuildingBlock: KIFKEQ_clean_linker_1, # of connection points: 2
#     Edge 241, Type (0, 0), BuildingBlock: KIFKEQ_clean_linker_1, # of connection points: 2
#     Edge 242, Type (0, 0), BuildingBlock: KIFKEQ_clean_linker_1, # of connection points: 2
#     Edge 243, Type (0, 0), BuildingBlock: KIFKEQ_clean_linker_1, # of connection points: 2
#     Edge 244, Type (0, 0), BuildingBlock: KIFKEQ_clean_linker_1, # of connection points: 2
#     Edge 245, Type (0, 0), BuildingBlock: KIFKEQ_clean_linker_1, # of connection points: 2
#     Edge 246, Type (0, 0), BuildingBlock: KIFKEQ_clean_linker_1, # of connection points: 2
#     Edge 247, Type (0, 0), BuildingBlock: KIFKEQ_clean_linker_1, # of connection points: 2
#     Edge 248, Type (0, 0), BuildingBlock: KIFKEQ_clean_linker_1, # of connection points: 2
#     Edge 249, Type (0, 0), BuildingBlock: KIFKEQ_clean_linker_1, # of connection points: 2
#     Edge 250, Type (0, 0), BuildingBlock: KIFKEQ_clean_linker_1, # of connection points: 2
#     Edge 251, Type (0, 0), BuildingBlock: KIFKEQ_clean_linker_1, # of connection points: 2
#     Edge 252, Type (0, 0), BuildingBlock: KIFKEQ_clean_linker_1, # of connection points: 2
#     Edge 253, Type (0, 0), BuildingBlock: KIFKEQ_clean_linker_1, # of connection points: 2
#     Edge 254, Type (0, 0), BuildingBlock: KIFKEQ_clean_linker_1, # of connection points: 2
#     Edge 255, Type (0, 0), BuildingBlock: KIFKEQ_clean_linker_1, # of connection points: 2
#     Edge 256, Type (0, 0), BuildingBlock: KIFKEQ_clean_linker_1, # of connection points: 2
#     Edge 257, Type (0, 0), BuildingBlock: KIFKEQ_clean_linker_1, # of connection points: 2
#     Edge 258, Type (0, 0), BuildingBlock: KIFKEQ_clean_linker_1, # of connection points: 2
#     Edge 259, Type (0, 0), BuildingBlock: KIFKEQ_clean_linker_1, # of connection points: 2
#     Edge 260, Type (0, 0), BuildingBlock: KIFKEQ_clean_linker_1, # of connection points: 2
#     Edge 261, Type (0, 0), BuildingBlock: KIFKEQ_clean_linker_1, # of connection points: 2
#     Edge 262, Type (0, 0), BuildingBlock: KIFKEQ_clean_linker_1, # of connection points: 2
#     Edge 263, Type (0, 0), BuildingBlock: KIFKEQ_clean_linker_1, # of connection points: 2
#     Edge 264, Type (0, 0), BuildingBlock: KIFKEQ_clean_linker_1, # of connection points: 2
#     Edge 265, Type (0, 0), BuildingBlock: KIFKEQ_clean_linker_1, # of connection points: 2
#     Edge 266, Type (0, 0), BuildingBlock: KIFKEQ_clean_linker_1, # of connection points: 2
#     Edge 267, Type (0, 0), BuildingBlock: KIFKEQ_clean_linker_1, # of connection points: 2
#     Edge 268, Type (0, 0), BuildingBlock: KIFKEQ_clean_linker_1, # of connection points: 2
#     Edge 269, Type (0, 0), BuildingBlock: KIFKEQ_clean_linker_1, # of connection points: 2
#     Edge 270, Type (0, 0), BuildingBlock: KIFKEQ_clean_linker_1, # of connection points: 2
#     Edge 271, Type (0, 0), BuildingBlock: KIFKEQ_clean_linker_1, # of connection points: 2
#     Edge 272, Type (0, 0), BuildingBlock: KIFKEQ_clean_linker_1, # of connection points: 2
#     Edge 273, Type (0, 0), BuildingBlock: KIFKEQ_clean_linker_1, # of connection points: 2
#     Edge 274, Type (0, 0), BuildingBlock: KIFKEQ_clean_linker_1, # of connection points: 2
#     Edge 275, Type (0, 0), BuildingBlock: KIFKEQ_clean_linker_1, # of connection points: 2
#     Edge 276, Type (0, 0), BuildingBlock: KIFKEQ_clean_linker_1, # of connection points: 2
#     Edge 277, Type (0, 0), BuildingBlock: KIFKEQ_clean_linker_1, # of connection points: 2
#     Edge 278, Type (0, 0), BuildingBlock: KIFKEQ_clean_linker_1, # of connection points: 2
#     Edge 279, Type (0, 0), BuildingBlock: KIFKEQ_clean_linker_1, # of connection points: 2
#     Edge 280, Type (0, 0), BuildingBlock: KIFKEQ_clean_linker_1, # of connection points: 2
#     Edge 281, Type (0, 0), BuildingBlock: KIFKEQ_clean_linker_1, # of connection points: 2
#     Edge 282, Type (0, 0), BuildingBlock: KIFKEQ_clean_linker_1, # of connection points: 2
#     Edge 283, Type (0, 0), BuildingBlock: KIFKEQ_clean_linker_1, # of connection points: 2
#     Edge 284, Type (0, 0), BuildingBlock: KIFKEQ_clean_linker_1, # of connection points: 2
#     Edge 285, Type (0, 0), BuildingBlock: KIFKEQ_clean_linker_1, # of connection points: 2
#     Edge 286, Type (0, 0), BuildingBlock: KIFKEQ_clean_linker_1, # of connection points: 2
#     Edge 287, Type (0, 0), BuildingBlock: KIFKEQ_clean_linker_1, # of connection points: 2
# Relax obj value: 0.101
# Max RMSD: 0.143
# Mean RMSD: 0.143
data_MOF--net-kfi--node1-QUQFOY_clean_sbu_1--edge1-KIFKEQ_clean_linker_1
_symmetry_space_group_name_H-M    P1
_symmetry_Int_Tables_number       1
_symmetry_cell_setting            triclinic
loop_
_symmetry_equiv_pos_as_xyz
'x, y, z'
_cell_length_a     96.400166
_cell_length_b     96.413041
_cell_length_c     96.415568
_cell_angle_alpha  90.001639
_cell_angle_beta   89.997092
_cell_angle_gamma 89.990222
loop_
_atom_site_label
_atom_site_type_symbol
_atom_site_fract_x
_atom_site_fract_y
_atom_site_fract_z
_atom_type_partial_charge
O0 O 0.1054 0.21364 0.3315 0.0
Cd1 Cd 0.09672 0.20219 0.3156 0.0
Cd2 Cd 0.07275 0.21402 0.32845 0.0
O3 O 0.08687 0.21972 0.34346 0.0
O4 O 0.11384 0.1939 0.30758 0.0
O5 O 0.09722 0.18111 0.31663 0.0
C6 C 0.10932 0.18182 0.31094 0.0
C7 C 0.05048 0.20718 0.33528 0.0
C8 C 0.09996 0.21946 0.342 0.0
C9 C 0.07993 0.22268 0.29914 0.0
O10 O 0.07316 0.22516 0.31018 0.0
O11 O 0.08893 0.21304 0.29882 0.0
O12 O 0.05484 0.21968 0.33699 0.0
O13 O 0.05895 0.19825 0.32999 0.0
O14 O 0.7849 0.10452 0.33022 0.0
Cd15 Cd 0.79656 0.09466 0.31513 0.0
Cd16 Cd 0.78493 0.07176 0.32848 0.0
O17 O 0.77947 0.0864 0.34306 0.0
O18 O 0.80602 0.11049 0.30587 0.0
O19 O 0.8175 0.09442 0.31746 0.0
C20 C 0.81766 0.10577 0.31036 0.0
C21 C 0.79284 0.05006 0.33577 0.0
C22 C 0.7794 0.09942 0.34107 0.0
C23 C 0.77621 0.07738 0.29913 0.0
O24 O 0.77337 0.0713 0.31047 0.0
O25 O 0.7861 0.08607 0.29853 0.0
O26 O 0.78025 0.054 0.33783 0.0
O27 O 0.80126 0.05866 0.32988 0.0
O28 O 0.89498 0.78285 0.32709 0.0
Cd29 Cd 0.90386 0.79453 0.31153 0.0
Cd30 Cd 0.92833 0.78298 0.32397 0.0
O31 O 0.91382 0.77589 0.33811 0.0
O32 O 0.88759 0.80413 0.30322 0.0
O33 O 0.90442 0.81545 0.31385 0.0
C34 C 0.89269 0.81572 0.30741 0.0
C35 C 0.95043 0.789 0.33216 0.0
C36 C 0.90068 0.77638 0.33707 0.0
C37 C 0.92153 0.77551 0.29415 0.0
O38 O 0.92901 0.7735 0.30481 0.0
O39 O 0.91146 0.78399 0.29453 0.0
O40 O 0.94605 0.77639 0.33217 0.0
O41 O 0.94199 0.7985 0.32794 0.0
O42 O 0.21639 0.89265 0.3254 0.0
Cd43 Cd 0.20405 0.90242 0.31077 0.0
Cd44 Cd 0.21465 0.92564 0.32399 0.0
O45 O 0.22137 0.91103 0.33804 0.0
O46 O 0.19392 0.88683 0.30186 0.0
O47 O 0.1833 0.90303 0.31411 0.0
C48 C 0.1826 0.89175 0.30693 0.0
C49 C 0.20629 0.94682 0.33224 0.0
C50 C 0.22199 0.89802 0.33606 0.0
C51 C 0.22301 0.92085 0.29439 0.0
O52 O 0.22559 0.92713 0.30568 0.0
O53 O 0.2138 0.91144 0.29396 0.0
O54 O 0.21907 0.94326 0.3337 0.0
O55 O 0.19795 0.93815 0.32636 0.0
O56 O 0.10587 0.78589 0.66894 0.0
Cd57 Cd 0.09982 0.7971 0.68613 0.0
Cd58 Cd 0.0731 0.7861 0.67702 0.0
O59 O 0.08585 0.77666 0.66262 0.0
O60 O 0.11787 0.80517 0.69197 0.0
O61 O 0.10017 0.81817 0.6856 0.0
C62 C 0.11287 0.81734 0.68975 0.0
C63 C 0.05078 0.79216 0.66946 0.0
C64 C 0.09885 0.77804 0.66101 0.0
C65 C 0.08302 0.77949 0.70612 0.0
O66 O 0.07361 0.7786 0.69696 0.0
O67 O 0.09411 0.78623 0.70377 0.0
O68 O 0.05462 0.77946 0.6708 0.0
O69 O 0.05977 0.8017 0.67219 0.0
O70 O 0.21424 0.1048 0.67556 0.0
Cd71 Cd 0.20099 0.09452 0.68892 0.0
Cd72 Cd 0.21146 0.07275 0.67425 0.0
O73 O 0.21628 0.08809 0.66011 0.0
O74 O 0.19116 0.11 0.69837 0.0
O75 O 0.18038 0.09503 0.6848 0.0
C76 C 0.17987 0.10597 0.69251 0.0
C77 C 0.20375 0.05117 0.66641 0.0
C78 C 0.21831 0.10058 0.66375 0.0
C79 C 0.22032 0.07617 0.70391 0.0
O80 O 0.22354 0.07157 0.69198 0.0
O81 O 0.21 0.08423 0.7053 0.0
O82 O 0.21617 0.05546 0.66405 0.0
O83 O 0.19535 0.05938 0.67286 0.0
O84 O 0.89406 0.21446 0.67038 0.0
Cd85 Cd 0.90292 0.20249 0.68583 0.0
Cd86 Cd 0.92678 0.21295 0.67306 0.0
O87 O 0.91281 0.21976 0.65846 0.0
O88 O 0.88614 0.19379 0.69404 0.0
O89 O 0.90269 0.18149 0.68415 0.0
C90 C 0.89078 0.18187 0.69027 0.0
C91 C 0.94814 0.20447 0.66543 0.0
C92 C 0.89974 0.22016 0.65995 0.0
C93 C 0.9209 0.22175 0.70244 0.0
O94 O 0.92769 0.22398 0.69137 0.0
O95 O 0.91131 0.2127 0.70268 0.0
O96 O 0.94471 0.21728 0.66393 0.0
O97 O 0.93927 0.19618 0.67107 0.0
O98 O 0.7847 0.89367 0.67409 0.0
Cd99 Cd 0.79641 0.90123 0.69027 0.0
Cd100 Cd 0.78485 0.9268 0.67915 0.0
O101 O 0.77698 0.91307 0.66466 0.0
O102 O 0.80532 0.88387 0.69697 0.0
O103 O 0.81744 0.90144 0.68878 0.0
C104 C 0.8172 0.88901 0.69375 0.0
C105 C 0.79028 0.94926 0.67148 0.0
C106 C 0.77774 0.8999 0.66479 0.0
C107 C 0.77787 0.91823 0.70881 0.0
O108 O 0.77622 0.92657 0.69874 0.0
O109 O 0.7858 0.90777 0.70767 0.0
O110 O 0.77772 0.94481 0.67209 0.0
O111 O 0.80005 0.94076 0.67488 0.0
O112 O 0.32683 0.10911 0.2137 0.0
Cd113 Cd 0.31159 0.09964 0.20211 0.0
Cd114 Cd 0.32371 0.07585 0.21338 0.0
O115 O 0.33788 0.09029 0.22054 0.0
O116 O 0.30336 0.11519 0.19138 0.0
O117 O 0.31451 0.09785 0.18136 0.0
C118 C 0.30795 0.10947 0.18024 0.0
C119 C 0.33201 0.05446 0.20558 0.0
C120 C 0.33682 0.10343 0.22014 0.0
C121 C 0.29414 0.08235 0.22134 0.0
O122 O 0.30476 0.07479 0.22335 0.0
O123 O 0.29457 0.09234 0.21277 0.0
O124 O 0.33286 0.05807 0.2184 0.0
O125 O 0.3267 0.06317 0.19691 0.0
O126 O 0.89485 0.32986 0.21353 0.0
Cd127 Cd 0.90235 0.3136 0.20173 0.0
Cd128 Cd 0.92767 0.32474 0.21386 0.0
O129 O 0.91416 0.3398 0.22077 0.0
O130 O 0.88475 0.30675 0.19347 0.0
O131 O 0.90187 0.31481 0.18067 0.0
C132 C 0.88949 0.30976 0.18138 0.0
C133 C 0.95043 0.33163 0.20873 0.0
C134 C 0.90101 0.33948 0.22011 0.0
C135 C 0.9188 0.29525 0.22094 0.0
O136 O 0.92663 0.30558 0.22331 0.0
O137 O 0.90909 0.29608 0.21206 0.0
O138 O 0.94565 0.33163 0.22118 0.0
O139 O 0.94211 0.32804 0.19888 0.0
O140 O 0.67168 0.89528 0.21458 0.0
Cd141 Cd 0.68702 0.90469 0.20289 0.0
Cd142 Cd 0.67476 0.92815 0.21543 0.0
O143 O 0.66011 0.91379 0.22146 0.0
O144 O 0.69541 0.88872 0.19291 0.0
O145 O 0.68441 0.90559 0.18201 0.0
C146 C 0.69103 0.89397 0.18147 0.0
C147 C 0.6673 0.95045 0.20938 0.0
C148 C 0.6614 0.90069 0.22084 0.0
C149 C 0.70439 0.92111 0.22283 0.0
O150 O 0.6935 0.92792 0.22577 0.0
O151 O 0.70425 0.91215 0.21319 0.0
O152 O 0.66667 0.94594 0.22192 0.0
O153 O 0.67181 0.94207 0.19996 0.0
O154 O 0.10579 0.67098 0.21448 0.0
Cd155 Cd 0.09707 0.68672 0.20284 0.0
Cd156 Cd 0.07308 0.67425 0.2143 0.0
O157 O 0.08707 0.65952 0.22089 0.0
O158 O 0.11388 0.69444 0.19374 0.0
O159 O 0.09677 0.68508 0.18183 0.0
C160 C 0.10888 0.69079 0.18193 0.0
C161 C 0.051 0.66676 0.2075 0.0
C162 C 0.10018 0.66074 0.2206 0.0
C163 C 0.08013 0.70373 0.22261 0.0
O164 O 0.07303 0.69286 0.22484 0.0
O165 O 0.08958 0.70379 0.21343 0.0
O166 O 0.0551 0.66614 0.22018 0.0
O167 O 0.05965 0.67135 0.19837 0.0
O168 O 0.33326 0.89512 0.78804 0.0
Cd169 Cd 0.31641 0.9029 0.79873 0.0
Cd170 Cd 0.32697 0.92828 0.78812 0.0
O171 O 0.3417 0.91492 0.78021 0.0
O172 O 0.3086 0.88626 0.80808 0.0
O173 O 0.31748 0.90389 0.81973 0.0
C174 C 0.31172 0.89181 0.81981 0.0
C175 C 0.33451 0.94983 0.79622 0.0
C176 C 0.3423 0.9018 0.78115 0.0
C177 C 0.29816 0.91998 0.77953 0.0
O178 O 0.30798 0.92868 0.77837 0.0
O179 O 0.29945 0.9094 0.78728 0.0
O180 O 0.33523 0.94653 0.78332 0.0
O181 O 0.32968 0.94077 0.80481 0.0
O182 O 0.10638 0.32618 0.78619 0.0
Cd183 Cd 0.09678 0.31119 0.79814 0.0
Cd184 Cd 0.07327 0.32368 0.7862 0.0
O185 O 0.08784 0.33798 0.77982 0.0
O186 O 0.1126 0.30263 0.80825 0.0
O187 O 0.09593 0.31409 0.81898 0.0
C188 C 0.10744 0.30728 0.81963 0.0
C189 C 0.05144 0.33166 0.79318 0.0
C190 C 0.10093 0.33648 0.78001 0.0
C191 C 0.07967 0.29408 0.77848 0.0
O192 O 0.07288 0.30504 0.77572 0.0
O193 O 0.08886 0.29413 0.78792 0.0
O194 O 0.05563 0.33278 0.78056 0.0
O195 O 0.0598 0.32626 0.80214 0.0
O196 O 0.6706 0.1058 0.78647 0.0
Cd197 Cd 0.68652 0.09753 0.79825 0.0
Cd198 Cd 0.67414 0.07297 0.78688 0.0
O199 O 0.65938 0.08688 0.78018 0.0
O200 O 0.69414 0.11467 0.80683 0.0
O201 O 0.68512 0.09778 0.81929 0.0
C202 C 0.69073 0.10993 0.81881 0.0
C203 C 0.6668 0.05063 0.79308 0.0
C204 C 0.66045 0.1 0.78037 0.0
C205 C 0.70371 0.08027 0.77884 0.0
O206 O 0.6929 0.07308 0.77663 0.0
O207 O 0.70364 0.08989 0.78785 0.0
O208 O 0.66633 0.05502 0.78049 0.0
O209 O 0.67108 0.05916 0.80247 0.0
O210 O 0.89275 0.67328 0.7822 0.0
Cd211 Cd 0.90169 0.68803 0.79478 0.0
Cd212 Cd 0.92555 0.67469 0.7844 0.0
O213 O 0.91105 0.66025 0.77784 0.0
O214 O 0.88495 0.69621 0.80364 0.0
O215 O 0.90131 0.68578 0.81573 0.0
C216 C 0.88947 0.69203 0.81547 0.0
C217 C 0.94714 0.66685 0.79221 0.0
C218 C 0.8981 0.66249 0.77688 0.0
C219 C 0.91996 0.70449 0.77595 0.0
O220 O 0.92667 0.69334 0.77376 0.0
O221 O 0.91025 0.70482 0.78485 0.0
O222 O 0.94334 0.66546 0.7795 0.0
O223 O 0.93846 0.67234 0.80081 0.0
O224 O 0.21511 0.32567 0.10805 0.0
Cd225 Cd 0.20359 0.31005 0.09907 0.0
Cd226 Cd 0.21391 0.32236 0.07473 0.0
O227 O 0.22105 0.33674 0.08893 0.0
O228 O 0.19372 0.30157 0.11507 0.0
O229 O 0.1827 0.3123 0.09808 0.0
C230 C 0.18222 0.30576 0.10975 0.0
C231 C 0.20599 0.33045 0.05329 0.0
C232 C 0.22112 0.33577 0.10208 0.0
C233 C 0.22278 0.29305 0.08122 0.0
O234 O 0.22434 0.30369 0.0736 0.0
O235 O 0.21445 0.29329 0.09142 0.0
O236 O 0.21878 0.33152 0.05692 0.0
O237 O 0.19739 0.32502 0.062 0.0
O238 O 0.21627 0.67024 0.89397 0.0
Cd239 Cd 0.2048 0.68645 0.90184 0.0
Cd240 Cd 0.21622 0.67492 0.92696 0.0
O241 O 0.22384 0.66035 0.91317 0.0
O242 O 0.196 0.69354 0.8846 0.0
O243 O 0.18374 0.68528 0.90204 0.0
C244 C 0.18406 0.69044 0.88968 0.0
C245 C 0.20989 0.66724 0.94915 0.0
C246 C 0.22306 0.66071 0.90001 0.0
C247 C 0.22371 0.70452 0.91892 0.0
O248 O 0.22535 0.69428 0.92706 0.0
O249 O 0.21561 0.70364 0.90856 0.0
O250 O 0.22259 0.66744 0.94507 0.0
O251 O 0.20049 0.67106 0.94042 0.0
O252 O 0.33096 0.21488 0.89215 0.0
Cd253 Cd 0.3145 0.20359 0.89971 0.0
Cd254 Cd 0.32556 0.21439 0.92514 0.0
O255 O 0.34039 0.2221 0.9117 0.0
O256 O 0.30743 0.19515 0.88229 0.0
O257 O 0.31529 0.18252 0.89965 0.0
C258 C 0.31024 0.1831 0.88727 0.0
C259 C 0.33327 0.20679 0.94683 0.0
C260 C 0.34038 0.22151 0.89854 0.0
C261 C 0.2963 0.22244 0.91692 0.0
O262 O 0.30633 0.22387 0.92536 0.0
O263 O 0.29741 0.21456 0.90641 0.0
O264 O 0.33372 0.21965 0.94332 0.0
O265 O 0.32855 0.19797 0.93794 0.0
O266 O 0.78679 0.32831 0.89249 0.0
Cd267 Cd 0.79828 0.31285 0.90176 0.0
Cd268 Cd 0.78702 0.32548 0.92575 0.0
O269 O 0.78043 0.33982 0.91122 0.0
O270 O 0.80803 0.3042 0.88578 0.0
O271 O 0.81919 0.31517 0.9025 0.0
C272 C 0.81957 0.30851 0.8909 0.0
C273 C 0.79449 0.33343 0.9474 0.0
C274 C 0.7807 0.33857 0.8981 0.0
C275 C 0.77879 0.29593 0.9194 0.0
O276 O 0.77669 0.30673 0.92666 0.0
O277 O 0.78756 0.29608 0.90956 0.0
O278 O 0.78179 0.33462 0.94348 0.0
O279 O 0.80326 0.32805 0.93882 0.0
O280 O 0.67227 0.78523 0.89563 0.0
Cd281 Cd 0.6868 0.79746 0.90566 0.0
Cd282 Cd 0.67377 0.78597 0.92845 0.0
O283 O 0.65956 0.77971 0.91381 0.0
O284 O 0.69572 0.80776 0.89018 0.0
O285 O 0.68345 0.81821 0.90647 0.0
C286 C 0.69065 0.81903 0.89521 0.0
C287 C 0.66593 0.79396 0.94992 0.0
C288 C 0.66161 0.77944 0.9008 0.0
C289 C 0.70334 0.77789 0.92326 0.0
O290 O 0.69206 0.77492 0.92938 0.0
O291 O 0.70371 0.78759 0.91434 0.0
O292 O 0.66431 0.78126 0.94613 0.0
O293 O 0.67171 0.80243 0.9413 0.0
O294 O 0.78603 0.66809 0.1046 0.0
Cd295 Cd 0.79699 0.68545 0.09857 0.0
Cd296 Cd 0.78506 0.67698 0.07204 0.0
O297 O 0.77603 0.66231 0.0848 0.0
O298 O 0.80574 0.69092 0.11641 0.0
O299 O 0.81807 0.68494 0.09811 0.0
C300 C 0.81771 0.68886 0.1109 0.0
C301 C 0.79047 0.67 0.04936 0.0
C302 C 0.7779 0.66035 0.0977 0.0
C303 C 0.77887 0.70586 0.08292 0.0
O304 O 0.7777 0.69697 0.07328 0.0
O305 O 0.78591 0.70319 0.09374 0.0
O306 O 0.77788 0.6713 0.05359 0.0
O307 O 0.80026 0.6724 0.05818 0.0
O308 O 0.32655 0.78414 0.10669 0.0
Cd309 Cd 0.31066 0.79593 0.09863 0.0
Cd310 Cd 0.32232 0.78478 0.07359 0.0
O311 O 0.33657 0.77678 0.08748 0.0
O312 O 0.30358 0.80505 0.11571 0.0
O313 O 0.31237 0.81693 0.09825 0.0
C314 C 0.30708 0.81685 0.11055 0.0
C315 C 0.33047 0.79096 0.05153 0.0
C316 C 0.33606 0.77733 0.10064 0.0
C317 C 0.29256 0.77748 0.08115 0.0
O318 O 0.30288 0.77586 0.07313 0.0
O319 O 0.29338 0.78543 0.09164 0.0
O320 O 0.33001 0.77828 0.05563 0.0
O321 O 0.32662 0.80043 0.06017 0.0
O322 O 0.67283 0.21224 0.10582 0.0
Cd323 Cd 0.68762 0.19996 0.09625 0.0
Cd324 Cd 0.67436 0.21073 0.07296 0.0
O325 O 0.66004 0.21704 0.08748 0.0
O326 O 0.6967 0.19043 0.11214 0.0
O327 O 0.68468 0.17912 0.09625 0.0
C328 C 0.69185 0.17888 0.10756 0.0
C329 C 0.66655 0.20253 0.05156 0.0
C330 C 0.66206 0.21767 0.10048 0.0
C331 C 0.70389 0.21922 0.07803 0.0
O332 O 0.69256 0.22192 0.07185 0.0
O333 O 0.70437 0.20979 0.08721 0.0
O334 O 0.66482 0.21523 0.05526 0.0
O335 O 0.67243 0.19417 0.06021 0.0
O336 O 0.89479 0.786 0.67245 0.0
Cd337 Cd 0.90457 0.7979 0.68742 0.0
Cd338 Cd 0.92755 0.78734 0.67364 0.0
O339 O 0.91292 0.78161 0.65923 0.0
O340 O 0.88877 0.80724 0.69686 0.0
O341 O 0.90457 0.8188 0.68499 0.0
C342 C 0.89331 0.81889 0.69223 0.0
C343 C 0.949 0.79559 0.666 0.0
C344 C 0.89995 0.7809 0.66144 0.0
C345 C 0.92269 0.77794 0.70289 0.0
O346 O 0.92863 0.77546 0.69139 0.0
O347 O 0.91374 0.78757 0.70382 0.0
O348 O 0.94517 0.78298 0.6639 0.0
O349 O 0.94044 0.80385 0.67215 0.0
O350 O 0.21716 0.89438 0.67345 0.0
Cd351 Cd 0.2054 0.90357 0.68887 0.0
Cd352 Cd 0.21705 0.92728 0.6762 0.0
O353 O 0.22344 0.91296 0.66167 0.0
O354 O 0.1958 0.88737 0.69728 0.0
O355 O 0.18449 0.90402 0.68637 0.0
C356 C 0.18422 0.89233 0.6929 0.0
C357 C 0.21001 0.94925 0.66859 0.0
C358 C 0.22318 0.89986 0.66308 0.0
C359 C 0.22508 0.92074 0.7058 0.0
O360 O 0.22758 0.92757 0.69481 0.0
O361 O 0.21575 0.91144 0.70589 0.0
O362 O 0.22272 0.94524 0.66785 0.0
O363 O 0.20099 0.94054 0.67331 0.0
O364 O 0.10463 0.21512 0.66794 0.0
Cd365 Cd 0.09845 0.20375 0.685 0.0
Cd366 Cd 0.07184 0.21419 0.67592 0.0
O367 O 0.0844 0.22367 0.66142 0.0
O368 O 0.11622 0.19509 0.69087 0.0
O369 O 0.0982 0.18271 0.68417 0.0
C370 C 0.11088 0.18311 0.68847 0.0
C371 C 0.04962 0.20782 0.66837 0.0
C372 C 0.09745 0.2227 0.6599 0.0
C373 C 0.08158 0.22121 0.70496 0.0
O374 O 0.07218 0.22198 0.69577 0.0
O375 O 0.09271 0.21452 0.70267 0.0
O376 O 0.05332 0.22057 0.6696 0.0
O377 O 0.05869 0.1984 0.67123 0.0
O378 O 0.7859 0.10665 0.67333 0.0
Cd379 Cd 0.79742 0.09745 0.6888 0.0
Cd380 Cd 0.78577 0.07343 0.67683 0.0
O381 O 0.77898 0.08778 0.66239 0.0
O382 O 0.80769 0.11332 0.69704 0.0
O383 O 0.81827 0.09609 0.68626 0.0
C384 C 0.81903 0.10779 0.69273 0.0
C385 C 0.79296 0.05162 0.66903 0.0
C386 C 0.77948 0.10092 0.66334 0.0
C387 C 0.77791 0.08048 0.70632 0.0
O388 O 0.77572 0.07292 0.69575 0.0
O389 O 0.78669 0.09029 0.70583 0.0
O390 O 0.78026 0.0556 0.66805 0.0
O391 O 0.80188 0.06021 0.67413 0.0
O392 O 0.89216 0.21497 0.32821 0.0
Cd393 Cd 0.8996 0.20295 0.31221 0.0
Cd394 Cd 0.9253 0.21489 0.32284 0.0
O395 O 0.91158 0.22315 0.33718 0.0
O396 O 0.8822 0.19392 0.3058 0.0
O397 O 0.89987 0.18194 0.314 0.0
C398 C 0.8874 0.18209 0.3091 0.0
C399 C 0.94784 0.20984 0.33057 0.0
C400 C 0.89842 0.22226 0.33722 0.0
C401 C 0.91643 0.221 0.29305 0.0
O402 O 0.92492 0.22284 0.30296 0.0
O403 O 0.9059 0.21322 0.29454 0.0
O404 O 0.94331 0.22235 0.32957 0.0
O405 O 0.93937 0.19992 0.32754 0.0
O406 O 0.78567 0.89219 0.32922 0.0
Cd407 Cd 0.79731 0.89975 0.31298 0.0
Cd408 Cd 0.78607 0.92539 0.32459 0.0
O409 O 0.77831 0.91153 0.33903 0.0
O410 O 0.80573 0.88229 0.30593 0.0
O411 O 0.81837 0.89948 0.31413 0.0
C412 C 0.81778 0.88713 0.309 0.0
C413 C 0.79151 0.94778 0.33247 0.0
C414 C 0.77892 0.89837 0.33871 0.0
C415 C 0.77884 0.91726 0.29484 0.0
O416 O 0.77731 0.92545 0.30505 0.0
O417 O 0.78667 0.9067 0.29577 0.0
O418 O 0.77896 0.94329 0.33193 0.0
O419 O 0.80127 0.93934 0.32888 0.0
O420 O 0.1076 0.78534 0.33 0.0
Cd421 Cd 0.09928 0.79644 0.31378 0.0
Cd422 Cd 0.07452 0.78499 0.32575 0.0
O423 O 0.08857 0.77811 0.34043 0.0
O424 O 0.11632 0.80512 0.30608 0.0
O425 O 0.09911 0.81751 0.3146 0.0
C426 C 0.11132 0.8171 0.30913 0.0
C427 C 0.05266 0.79221 0.33342 0.0
C428 C 0.10172 0.77885 0.33984 0.0
C429 C 0.08214 0.77684 0.29636 0.0
O430 O 0.07424 0.77505 0.30676 0.0
O431 O 0.09224 0.78529 0.29694 0.0
O432 O 0.05657 0.77948 0.3343 0.0
O433 O 0.0613 0.80113 0.32841 0.0
O434 O 0.2141 0.10422 0.33087 0.0
Cd435 Cd 0.20286 0.0963 0.31432 0.0
Cd436 Cd 0.21466 0.07115 0.32537 0.0
O437 O 0.22193 0.08473 0.3401 0.0
O438 O 0.19352 0.11306 0.30665 0.0
O439 O 0.18187 0.09571 0.31602 0.0
C440 C 0.1818 0.10776 0.31018 0.0
C441 C 0.20852 0.04875 0.33256 0.0
C442 C 0.22094 0.09787 0.34021 0.0
C443 C 0.22231 0.07956 0.29617 0.0
O444 O 0.22439 0.0716 0.30644 0.0
O445 O 0.21363 0.08945 0.29699 0.0
O446 O 0.22115 0.05304 0.33272 0.0
O447 O 0.19906 0.05739 0.32864 0.0
O448 O 0.6702 0.89393 0.78808 0.0
Cd449 Cd 0.68572 0.90264 0.80002 0.0
Cd450 Cd 0.67357 0.92667 0.78851 0.0
O451 O 0.6588 0.91274 0.78186 0.0
O452 O 0.69349 0.88575 0.80892 0.0
O453 O 0.68389 0.90261 0.82102 0.0
C454 C 0.68973 0.89056 0.82078 0.0
C455 C 0.66616 0.94845 0.79611 0.0
C456 C 0.66001 0.89963 0.78196 0.0
C457 C 0.70305 0.91974 0.78054 0.0
O458 O 0.69221 0.92679 0.77797 0.0
O459 O 0.70288 0.91035 0.78979 0.0
O460 O 0.66493 0.94466 0.78338 0.0
O461 O 0.67141 0.93973 0.80481 0.0
O462 O 0.10525 0.67224 0.78655 0.0
Cd463 Cd 0.09668 0.68793 0.79841 0.0
Cd464 Cd 0.07217 0.67638 0.78589 0.0
O465 O 0.08626 0.66166 0.77933 0.0
O466 O 0.11323 0.69581 0.80787 0.0
O467 O 0.09629 0.68556 0.81935 0.0
C468 C 0.10814 0.69177 0.8195 0.0
C469 C 0.04959 0.66898 0.79115 0.0
C470 C 0.09941 0.66239 0.78001 0.0
C471 C 0.08023 0.70601 0.77898 0.0
O472 O 0.07279 0.69548 0.77628 0.0
O473 O 0.08963 0.70536 0.78819 0.0
O474 O 0.05436 0.6689 0.77869 0.0
O475 O 0.05784 0.67291 0.80093 0.0
O476 O 0.32611 0.10593 0.7831 0.0
Cd477 Cd 0.31097 0.09679 0.79515 0.0
Cd478 Cd 0.32372 0.07273 0.78428 0.0
O479 O 0.33762 0.0872 0.77674 0.0
O480 O 0.3025 0.11287 0.80489 0.0
O481 O 0.31378 0.0963 0.81599 0.0
C482 C 0.30709 0.1079 0.81639 0.0
C483 C 0.33233 0.05119 0.79148 0.0
C484 C 0.33624 0.10032 0.77682 0.0
C485 C 0.29382 0.07848 0.77663 0.0
O486 O 0.30467 0.07129 0.77463 0.0
O487 O 0.29399 0.08864 0.78501 0.0
O488 O 0.33243 0.05495 0.77868 0.0
O489 O 0.32772 0.05995 0.80051 0.0
O490 O 0.89382 0.32715 0.78149 0.0
Cd491 Cd 0.90208 0.31221 0.79431 0.0
Cd492 Cd 0.92681 0.3244 0.78328 0.0
O493 O 0.9127 0.33887 0.77591 0.0
O494 O 0.88503 0.30497 0.80336 0.0
O495 O 0.90196 0.3147 0.81524 0.0
C496 C 0.88986 0.30898 0.81513 0.0
C497 C 0.94909 0.33213 0.78932 0.0
C498 C 0.89961 0.33732 0.77545 0.0
C499 C 0.91974 0.29436 0.77618 0.0
O500 O 0.92716 0.30504 0.77398 0.0
O501 O 0.90969 0.29481 0.78467 0.0
O502 O 0.94478 0.3321 0.7767 0.0
O503 O 0.94051 0.32822 0.79883 0.0
O504 O 0.67117 0.10692 0.2167 0.0
Cd505 Cd 0.68706 0.09826 0.20534 0.0
Cd506 Cd 0.67464 0.07387 0.21579 0.0
O507 O 0.66016 0.08791 0.22303 0.0
O508 O 0.6949 0.11494 0.1961 0.0
O509 O 0.68568 0.09763 0.18433 0.0
C510 C 0.6914 0.10974 0.18432 0.0
C511 C 0.66676 0.05248 0.20757 0.0
C512 C 0.66112 0.10105 0.22287 0.0
C513 C 0.704 0.08048 0.22465 0.0
O514 O 0.69335 0.07286 0.22615 0.0
O515 O 0.7038 0.09072 0.21634 0.0
O516 O 0.66564 0.05592 0.22041 0.0
O517 O 0.67212 0.06135 0.1991 0.0
O518 O 0.89529 0.67123 0.2134 0.0
Cd519 Cd 0.9053 0.68598 0.20145 0.0
Cd520 Cd 0.92795 0.67239 0.21251 0.0
O521 O 0.91327 0.65801 0.21829 0.0
O522 O 0.8896 0.69527 0.19184 0.0
O523 O 0.90552 0.68325 0.18058 0.0
C524 C 0.89424 0.69047 0.18029 0.0
C525 C 0.94927 0.66479 0.20395 0.0
C526 C 0.9003 0.66027 0.21874 0.0
C527 C 0.92312 0.70179 0.22137 0.0
O528 O 0.92901 0.69033 0.22414 0.0
O529 O 0.91429 0.70254 0.21162 0.0
O530 O 0.94565 0.66268 0.21663 0.0
O531 O 0.94058 0.67093 0.19582 0.0
O532 O 0.32845 0.89678 0.21269 0.0
Cd533 Cd 0.31268 0.90515 0.20091 0.0
Cd534 Cd 0.32442 0.93007 0.21265 0.0
O535 O 0.33877 0.91589 0.21996 0.0
O536 O 0.30457 0.8885 0.19182 0.0
O537 O 0.31468 0.90525 0.17992 0.0
C538 C 0.30841 0.89343 0.18004 0.0
C539 C 0.33231 0.95238 0.20699 0.0
C540 C 0.33814 0.90274 0.21937 0.0
C541 C 0.29473 0.92244 0.21982 0.0
O542 O 0.30511 0.93028 0.22188 0.0
O543 O 0.29551 0.91234 0.2114 0.0
O544 O 0.33214 0.94789 0.21955 0.0
O545 O 0.3284 0.94396 0.19733 0.0
O546 O 0.10764 0.32928 0.21603 0.0
Cd547 Cd 0.09937 0.3128 0.20526 0.0
Cd548 Cd 0.07464 0.32487 0.21618 0.0
O549 O 0.08851 0.3398 0.22285 0.0
O550 O 0.11639 0.30504 0.19658 0.0
O551 O 0.09904 0.31328 0.18419 0.0
C552 C 0.11129 0.30788 0.1846 0.0
C553 C 0.0529 0.33227 0.2084 0.0
C554 C 0.10166 0.33925 0.22222 0.0
C555 C 0.08225 0.29575 0.22517 0.0
O556 O 0.07431 0.30618 0.22665 0.0
O557 O 0.09239 0.29616 0.21675 0.0
O558 O 0.05659 0.33348 0.22116 0.0
O559 O 0.06171 0.32706 0.19976 0.0
O560 O 0.78497 0.67438 0.89225 0.0
Cd561 Cd 0.79691 0.68958 0.9014 0.0
Cd562 Cd 0.78642 0.67679 0.92562 0.0
O563 O 0.77917 0.66279 0.9111 0.0
O564 O 0.80675 0.69817 0.88543 0.0
O565 O 0.81775 0.68682 0.90202 0.0
C566 C 0.81822 0.69357 0.89047 0.0
C567 C 0.79377 0.66835 0.94715 0.0
C568 C 0.77896 0.66416 0.89799 0.0
C569 C 0.77814 0.70645 0.91979 0.0
O570 O 0.77631 0.69559 0.92703 0.0
O571 O 0.78653 0.70639 0.90963 0.0
O572 O 0.78105 0.66751 0.94323 0.0
O573 O 0.80264 0.67364 0.93863 0.0
O574 O 0.78419 0.32464 0.10462 0.0
Cd575 Cd 0.79636 0.30945 0.09576 0.0
Cd576 Cd 0.78461 0.3214 0.07128 0.0
O577 O 0.77679 0.33522 0.08571 0.0
O578 O 0.80626 0.30151 0.11202 0.0
O579 O 0.8172 0.31242 0.09511 0.0
C580 C 0.8177 0.30604 0.10687 0.0
C581 C 0.79067 0.32997 0.04935 0.0
C582 C 0.77731 0.33429 0.09885 0.0
C583 C 0.77795 0.29142 0.07812 0.0
O584 O 0.77576 0.30194 0.07049 0.0
O585 O 0.78629 0.29213 0.08829 0.0
O586 O 0.77801 0.32947 0.05351 0.0
O587 O 0.80019 0.32599 0.05789 0.0
O588 O 0.67048 0.78555 0.10724 0.0
Cd589 Cd 0.68649 0.7974 0.09938 0.0
Cd590 Cd 0.67547 0.78548 0.07443 0.0
O591 O 0.66062 0.77816 0.08796 0.0
O592 O 0.69329 0.80645 0.11659 0.0
O593 O 0.68483 0.81842 0.09905 0.0
C594 C 0.68999 0.81828 0.1114 0.0
C595 C 0.66819 0.79133 0.05198 0.0
C596 C 0.66095 0.77881 0.10111 0.0
C597 C 0.70502 0.77843 0.08296 0.0
O598 O 0.69472 0.77616 0.07505 0.0
O599 O 0.70409 0.78713 0.09281 0.0
O600 O 0.66835 0.77872 0.05633 0.0
O601 O 0.67189 0.80091 0.06057 0.0
O602 O 0.21311 0.6713 0.10585 0.0
Cd603 Cd 0.20108 0.68618 0.0961 0.0
Cd604 Cd 0.21275 0.67335 0.07289 0.0
O605 O 0.21886 0.65898 0.08746 0.0
O606 O 0.19112 0.69506 0.11182 0.0
O607 O 0.18024 0.68329 0.09546 0.0
C608 C 0.17969 0.69035 0.10683 0.0
C609 C 0.20533 0.66555 0.05118 0.0
C610 C 0.21895 0.66074 0.10051 0.0
C611 C 0.22078 0.70289 0.0787 0.0
O612 O 0.22367 0.69174 0.0723 0.0
O613 O 0.21116 0.70309 0.08771 0.0
O614 O 0.21795 0.66407 0.05523 0.0
O615 O 0.1966 0.67119 0.05963 0.0
O616 O 0.33248 0.21495 0.10401 0.0
Cd617 Cd 0.31662 0.20324 0.09551 0.0
Cd618 Cd 0.32874 0.21553 0.07133 0.0
O619 O 0.34358 0.22198 0.08528 0.0
O620 O 0.30887 0.19475 0.11261 0.0
O621 O 0.31791 0.18218 0.0958 0.0
C622 C 0.31218 0.18273 0.10789 0.0
C623 C 0.33575 0.20934 0.04892 0.0
C624 C 0.34255 0.22134 0.0984 0.0
C625 C 0.29914 0.22294 0.07878 0.0
O626 O 0.30993 0.22568 0.07173 0.0
O627 O 0.2994 0.21357 0.08804 0.0
O628 O 0.33638 0.22192 0.05333 0.0
O629 O 0.33155 0.19995 0.05749 0.0
O630 O 0.21397 0.32908 0.89584 0.0
Cd631 Cd 0.20243 0.31284 0.90374 0.0
Cd632 Cd 0.21422 0.32448 0.92853 0.0
O633 O 0.22087 0.33959 0.91496 0.0
O634 O 0.19385 0.30569 0.88641 0.0
O635 O 0.18136 0.31402 0.90364 0.0
C636 C 0.18185 0.30881 0.89132 0.0
C637 C 0.20827 0.33128 0.95112 0.0
C638 C 0.22032 0.33897 0.90182 0.0
C639 C 0.22221 0.29516 0.92012 0.0
O640 O 0.22439 0.30568 0.92774 0.0
O641 O 0.21315 0.29558 0.91055 0.0
O642 O 0.22083 0.33175 0.94664 0.0
O643 O 0.19877 0.32727 0.94257 0.0
O644 O 0.67411 0.21464 0.89509 0.0
Cd645 Cd 0.6892 0.20265 0.90456 0.0
Cd646 Cd 0.67616 0.21396 0.92795 0.0
O647 O 0.66177 0.2203 0.91351 0.0
O648 O 0.69783 0.19272 0.88866 0.0
O649 O 0.68631 0.18182 0.90518 0.0
C650 C 0.69313 0.18129 0.89366 0.0
C651 C 0.66831 0.20695 0.94985 0.0
C652 C 0.66353 0.22043 0.90045 0.0
C653 C 0.70575 0.22231 0.922 0.0
O654 O 0.69458 0.2248 0.92851 0.0
O655 O 0.70614 0.21287 0.91281 0.0
O656 O 0.66749 0.21963 0.94575 0.0
O657 O 0.67325 0.19794 0.94126 0.0
O658 O 0.33051 0.78521 0.89529 0.0
Cd659 Cd 0.31476 0.79692 0.90391 0.0
Cd660 Cd 0.3271 0.78571 0.92789 0.0
O661 O 0.34213 0.7794 0.91408 0.0
O662 O 0.30697 0.80556 0.8869 0.0
O663 O 0.31624 0.81795 0.90372 0.0
C664 C 0.31055 0.81751 0.89161 0.0
C665 C 0.33409 0.79372 0.94966 0.0
C666 C 0.34088 0.7794 0.90098 0.0
C667 C 0.29781 0.77711 0.92096 0.0
O668 O 0.30873 0.77469 0.92795 0.0
O669 O 0.29776 0.78644 0.91165 0.0
O670 O 0.33573 0.78099 0.946 0.0
O671 O 0.32868 0.8022 0.94081 0.0
O672 O 0.60808 0.71409 0.82806 0.0
Cd673 Cd 0.59949 0.70219 0.81242 0.0
Cd674 Cd 0.57519 0.71307 0.82484 0.0
O675 O 0.58915 0.71967 0.8396 0.0
O676 O 0.61636 0.69322 0.80462 0.0
O677 O 0.59944 0.68119 0.81421 0.0
C678 C 0.6115 0.68138 0.80838 0.0
C679 C 0.55328 0.70571 0.83224 0.0
C680 C 0.60226 0.7199 0.83836 0.0
C681 C 0.58199 0.72162 0.79547 0.0
O682 O 0.57494 0.72385 0.80638 0.0
O683 O 0.59156 0.71255 0.79541 0.0
O684 O 0.55728 0.71837 0.83357 0.0
O685 O 0.56189 0.69692 0.82695 0.0
O686 O 0.28743 0.6049 0.82856 0.0
Cd687 Cd 0.29885 0.59615 0.81275 0.0
Cd688 Cd 0.28721 0.57168 0.82457 0.0
O689 O 0.28014 0.58588 0.83902 0.0
O690 O 0.30869 0.61237 0.80468 0.0
O691 O 0.31977 0.59508 0.81484 0.0
C692 C 0.32021 0.60692 0.8086 0.0
C693 C 0.29324 0.54951 0.8325 0.0
C694 C 0.28084 0.59903 0.83836 0.0
C695 C 0.27957 0.57922 0.79499 0.0
O696 O 0.27767 0.57137 0.8054 0.0
O697 O 0.28803 0.58929 0.79565 0.0
O698 O 0.28063 0.55386 0.83251 0.0
O699 O 0.30274 0.55798 0.82834 0.0
O700 O 0.39773 0.28614 0.8288 0.0
Cd701 Cd 0.40654 0.29797 0.81321 0.0
Cd702 Cd 0.43055 0.28596 0.82563 0.0
O703 O 0.41641 0.27984 0.84044 0.0
O704 O 0.38999 0.3071 0.80488 0.0
O705 O 0.40648 0.31892 0.81546 0.0
C706 C 0.39473 0.31884 0.80904 0.0
C707 C 0.45298 0.292 0.8328 0.0
C708 C 0.4033 0.28013 0.83913 0.0
C709 C 0.42333 0.27809 0.79611 0.0
O710 O 0.43018 0.27542 0.80703 0.0
O711 O 0.41425 0.28764 0.79609 0.0
O712 O 0.44843 0.27947 0.83353 0.0
O713 O 0.44455 0.30142 0.82838 0.0
O714 O 0.71761 0.39556 0.82608 0.0
Cd715 Cd 0.70571 0.40472 0.81085 0.0
Cd716 Cd 0.71714 0.42881 0.82319 0.0
O717 O 0.72467 0.41433 0.83711 0.0
O718 O 0.69583 0.3887 0.80246 0.0
O719 O 0.68485 0.40547 0.81355 0.0
C720 C 0.68436 0.39386 0.80691 0.0
C721 C 0.71016 0.45043 0.83179 0.0
C722 C 0.72422 0.4012 0.83599 0.0
C723 C 0.72441 0.42256 0.79331 0.0
O724 O 0.72654 0.42997 0.80399 0.0
O725 O 0.71597 0.41246 0.79377 0.0
O726 O 0.72295 0.44662 0.83173 0.0
O727 O 0.70104 0.4417 0.82732 0.0
O728 O 0.60784 0.28409 0.17148 0.0
Cd729 Cd 0.59946 0.29582 0.18726 0.0
Cd730 Cd 0.57472 0.28529 0.17504 0.0
O731 O 0.58872 0.27761 0.16073 0.0
O732 O 0.61639 0.30471 0.19498 0.0
O733 O 0.59935 0.31684 0.18573 0.0
C734 C 0.61147 0.31659 0.19143 0.0
C735 C 0.55323 0.29317 0.16698 0.0
C736 C 0.60187 0.27773 0.16161 0.0
C737 C 0.5814 0.27708 0.2046 0.0
O738 O 0.5737 0.27546 0.19403 0.0
O739 O 0.59177 0.28521 0.20418 0.0
O740 O 0.55674 0.28032 0.16624 0.0
O741 O 0.56211 0.30184 0.17202 0.0
O742 O 0.7139 0.60367 0.16709 0.0
Cd743 Cd 0.70279 0.59567 0.18367 0.0
Cd744 Cd 0.71556 0.57076 0.1734 0.0
O745 O 0.72293 0.58435 0.15868 0.0
O746 O 0.69316 0.61229 0.19115 0.0
O747 O 0.6818 0.59459 0.18208 0.0
C748 C 0.68153 0.60667 0.18785 0.0
C749 C 0.70961 0.54831 0.16626 0.0
C750 C 0.72133 0.59741 0.15816 0.0
C751 C 0.7223 0.57978 0.20258 0.0
O752 O 0.72474 0.57154 0.19261 0.0
O753 O 0.71354 0.58953 0.20123 0.0
O754 O 0.72225 0.5526 0.16636 0.0
O755 O 0.70007 0.55697 0.16991 0.0
O756 O 0.39336 0.71454 0.17268 0.0
Cd757 Cd 0.4033 0.70304 0.18783 0.0
Cd758 Cd 0.42613 0.71387 0.17427 0.0
O759 O 0.41153 0.71928 0.15966 0.0
O760 O 0.38773 0.69311 0.19703 0.0
O761 O 0.40409 0.68217 0.18532 0.0
C762 C 0.39273 0.68165 0.19238 0.0
C763 C 0.44761 0.70548 0.16684 0.0
C764 C 0.39852 0.71968 0.16169 0.0
C765 C 0.42077 0.72348 0.2034 0.0
O766 O 0.42692 0.72585 0.19199 0.0
O767 O 0.4119 0.71377 0.20427 0.0
O768 O 0.44384 0.7181 0.16462 0.0
O769 O 0.43899 0.69733 0.17306 0.0
O770 O 0.2848 0.39522 0.17181 0.0
Cd771 Cd 0.29695 0.40552 0.18621 0.0
Cd772 Cd 0.28572 0.42796 0.1724 0.0
O773 O 0.27969 0.41301 0.1584 0.0
O774 O 0.30696 0.3901 0.19558 0.0
O775 O 0.31775 0.40596 0.18305 0.0
C776 C 0.31834 0.39482 0.19047 0.0
C777 C 0.29409 0.44925 0.16448 0.0
C778 C 0.27927 0.40008 0.16087 0.0
C779 C 0.27726 0.42363 0.20199 0.0
O780 O 0.27436 0.42932 0.19046 0.0
O781 O 0.28701 0.41479 0.20277 0.0
O782 O 0.28141 0.44554 0.16255 0.0
O783 O 0.30234 0.44061 0.17055 0.0
O784 O 0.8244 0.60569 0.71508 0.0
Cd785 Cd 0.8101 0.59603 0.70246 0.0
Cd786 Cd 0.82398 0.57291 0.71229 0.0
O787 O 0.83822 0.58776 0.71841 0.0
O788 O 0.80097 0.61177 0.69272 0.0
O789 O 0.81339 0.59599 0.68169 0.0
C790 C 0.8061 0.60722 0.68127 0.0
C791 C 0.83221 0.55185 0.70355 0.0
C792 C 0.83558 0.60059 0.71984 0.0
C793 C 0.79441 0.57739 0.72152 0.0
O794 O 0.80583 0.57116 0.72369 0.0
O795 O 0.79363 0.58684 0.71238 0.0
O796 O 0.83403 0.55535 0.7163 0.0
O797 O 0.82596 0.5605 0.69546 0.0
O798 O 0.39499 0.83289 0.71449 0.0
Cd799 Cd 0.40058 0.8154 0.70349 0.0
Cd800 Cd 0.42761 0.8239 0.71465 0.0
O801 O 0.4151 0.83865 0.72388 0.0
O802 O 0.38242 0.80998 0.69538 0.0
O803 O 0.40038 0.81563 0.68241 0.0
C804 C 0.38756 0.81184 0.68321 0.0
C805 C 0.45033 0.83075 0.70925 0.0
C806 C 0.40217 0.84065 0.72236 0.0
C807 C 0.41673 0.79508 0.72128 0.0
O808 O 0.42643 0.80395 0.72208 0.0
O809 O 0.40569 0.79773 0.71458 0.0
O810 O 0.44609 0.82947 0.72183 0.0
O811 O 0.44152 0.82842 0.69946 0.0
O812 O 0.1736 0.39294 0.71672 0.0
Cd813 Cd 0.18837 0.40285 0.70471 0.0
Cd814 Cd 0.17524 0.42586 0.71585 0.0
O815 O 0.16093 0.41123 0.72195 0.0
O816 O 0.19706 0.38735 0.69421 0.0
O817 O 0.18506 0.40396 0.68397 0.0
C818 C 0.19202 0.39256 0.68301 0.0
C819 C 0.16732 0.44737 0.70797 0.0
C820 C 0.16287 0.39821 0.7223 0.0
C821 C 0.20472 0.42043 0.72443 0.0
O822 O 0.19345 0.42673 0.72707 0.0
O823 O 0.2052 0.41137 0.71487 0.0
O824 O 0.16569 0.4435 0.72064 0.0
O825 O 0.17321 0.43886 0.69948 0.0
O826 O 0.60532 0.17099 0.71493 0.0
Cd827 Cd 0.59748 0.18702 0.70304 0.0
Cd828 Cd 0.57249 0.17537 0.71504 0.0
O829 O 0.58621 0.16052 0.72198 0.0
O830 O 0.61495 0.1942 0.69475 0.0
O831 O 0.59804 0.18567 0.68199 0.0
C832 C 0.61032 0.19096 0.68268 0.0
C833 C 0.54992 0.16827 0.70936 0.0
C834 C 0.59936 0.1612 0.72145 0.0
C835 C 0.5807 0.20495 0.72233 0.0
O836 O 0.57315 0.19442 0.72472 0.0
O837 O 0.59033 0.2044 0.71334 0.0
O838 O 0.55445 0.16814 0.7219 0.0
O839 O 0.55841 0.17208 0.69973 0.0
O840 O 0.83073 0.39561 0.28511 0.0
Cd841 Cd 0.81451 0.40396 0.29623 0.0
Cd842 Cd 0.82641 0.42849 0.28492 0.0
O843 O 0.84132 0.41464 0.27816 0.0
O844 O 0.80687 0.38693 0.305 0.0
O845 O 0.81537 0.40422 0.3173 0.0
C846 C 0.80994 0.39198 0.31695 0.0
C847 C 0.83363 0.45033 0.29257 0.0
C848 C 0.84066 0.4015 0.27877 0.0
C849 C 0.79722 0.42081 0.27632 0.0
O850 O 0.80768 0.42863 0.27452 0.0
O851 O 0.79767 0.4109 0.285 0.0
O852 O 0.83486 0.44658 0.27982 0.0
O853 O 0.82855 0.44151 0.30127 0.0
O854 O 0.60617 0.82826 0.28452 0.0
Cd855 Cd 0.59844 0.81217 0.29623 0.0
Cd856 Cd 0.57306 0.82313 0.2842 0.0
O857 O 0.58691 0.83753 0.27631 0.0
O858 O 0.61572 0.80542 0.30519 0.0
O859 O 0.59815 0.81366 0.31726 0.0
C860 C 0.61054 0.80861 0.31706 0.0
C861 C 0.55065 0.83097 0.28954 0.0
C862 C 0.60005 0.83745 0.27733 0.0
C863 C 0.58162 0.79336 0.2778 0.0
O864 O 0.57327 0.80338 0.27591 0.0
O865 O 0.59203 0.79468 0.28576 0.0
O866 O 0.5551 0.83019 0.27698 0.0
O867 O 0.55913 0.82763 0.29935 0.0
O868 O 0.17198 0.60775 0.28672 0.0
Cd869 Cd 0.18801 0.59965 0.29827 0.0
Cd870 Cd 0.17667 0.57479 0.28771 0.0
O871 O 0.16206 0.58835 0.27984 0.0
O872 O 0.19534 0.61669 0.3072 0.0
O873 O 0.1867 0.5993 0.31929 0.0
C874 C 0.19209 0.61156 0.31907 0.0
C875 C 0.16872 0.55347 0.29598 0.0
C876 C 0.16241 0.60151 0.28018 0.0
C877 C 0.206 0.58223 0.27954 0.0
O878 O 0.19578 0.57405 0.27802 0.0
O879 O 0.20511 0.59268 0.28752 0.0
O880 O 0.16811 0.55665 0.28304 0.0
O881 O 0.17372 0.5625 0.3045 0.0
O882 O 0.39306 0.17504 0.2845 0.0
Cd883 Cd 0.40221 0.18995 0.29692 0.0
Cd884 Cd 0.42603 0.17762 0.28524 0.0
O885 O 0.41172 0.16336 0.27824 0.0
O886 O 0.38606 0.19799 0.30691 0.0
O887 O 0.40275 0.18659 0.31769 0.0
C888 C 0.39108 0.19315 0.31828 0.0
C889 C 0.44806 0.16964 0.2917 0.0
C890 C 0.39862 0.16483 0.27826 0.0
C891 C 0.41961 0.2075 0.27808 0.0
O892 O 0.42645 0.19658 0.27536 0.0
O893 O 0.41017 0.20733 0.28726 0.0
O894 O 0.44387 0.16941 0.27903 0.0
O895 O 0.43949 0.17404 0.30101 0.0
O896 O 0.7149 0.82886 0.60625 0.0
Cd897 Cd 0.70327 0.81392 0.59612 0.0
Cd898 Cd 0.71476 0.82726 0.57347 0.0
O899 O 0.72038 0.84171 0.58816 0.0
O900 O 0.69334 0.80463 0.61161 0.0
O901 O 0.6824 0.81651 0.59537 0.0
C902 C 0.68188 0.8093 0.60663 0.0
C903 C 0.70626 0.83482 0.55212 0.0
C904 C 0.72044 0.8397 0.60117 0.0
C905 C 0.7235 0.79791 0.57869 0.0
O906 O 0.72632 0.80926 0.57262 0.0
O907 O 0.71371 0.79733 0.58748 0.0
O908 O 0.71895 0.83687 0.55574 0.0
O909 O 0.6981 0.82873 0.56082 0.0
O910 O 0.71459 0.17233 0.39437 0.0
Cd911 Cd 0.70287 0.1886 0.40174 0.0
Cd912 Cd 0.71455 0.17782 0.42749 0.0
O913 O 0.72251 0.16327 0.41386 0.0
O914 O 0.69405 0.19517 0.3843 0.0
O915 O 0.68183 0.18723 0.40191 0.0
C916 C 0.68213 0.19212 0.38945 0.0
C917 C 0.70932 0.17023 0.45003 0.0
C918 C 0.72166 0.16319 0.4007 0.0
C919 C 0.72127 0.20745 0.41861 0.0
O920 O 0.72295 0.19751 0.42709 0.0
O921 O 0.71342 0.20609 0.40811 0.0
O922 O 0.72184 0.17095 0.44551 0.0
O923 O 0.69947 0.17348 0.44156 0.0
O924 O 0.82783 0.71541 0.39559 0.0
Cd925 Cd 0.81262 0.70357 0.40507 0.0
Cd926 Cd 0.82556 0.71565 0.42853 0.0
O927 O 0.83994 0.72176 0.41394 0.0
O928 O 0.80382 0.69407 0.38903 0.0
O929 O 0.81513 0.68266 0.40534 0.0
C930 C 0.80826 0.68246 0.39385 0.0
C931 C 0.83325 0.70926 0.45067 0.0
C932 C 0.8383 0.72144 0.40087 0.0
C933 C 0.79581 0.72327 0.42237 0.0
O934 O 0.80693 0.72612 0.42883 0.0
O935 O 0.79564 0.71372 0.4133 0.0
O936 O 0.83401 0.72184 0.44627 0.0
O937 O 0.82856 0.69998 0.44224 0.0
O938 O 0.28631 0.82684 0.39337 0.0
Cd939 Cd 0.29865 0.81234 0.4033 0.0
Cd940 Cd 0.28752 0.82597 0.42629 0.0
O941 O 0.28134 0.83999 0.41141 0.0
O942 O 0.30855 0.80321 0.38765 0.0
O943 O 0.31944 0.81562 0.40354 0.0
C944 C 0.31996 0.80835 0.3923 0.0
C945 C 0.29505 0.83396 0.44791 0.0
C946 C 0.28078 0.83768 0.39845 0.0
C947 C 0.27924 0.79631 0.4215 0.0
O948 O 0.27643 0.80774 0.42741 0.0
O949 O 0.28884 0.79564 0.41249 0.0
O950 O 0.28246 0.83562 0.4438 0.0
O951 O 0.3037 0.82815 0.4395 0.0
O952 O 0.17214 0.28705 0.39214 0.0
Cd953 Cd 0.18859 0.29876 0.39903 0.0
Cd954 Cd 0.17868 0.28789 0.42511 0.0
O955 O 0.16396 0.27931 0.41206 0.0
O956 O 0.19472 0.30772 0.38153 0.0
O957 O 0.18731 0.31978 0.3995 0.0
C958 C 0.19192 0.3196 0.38693 0.0
C959 C 0.1711 0.29355 0.44753 0.0
C960 C 0.16335 0.27995 0.39891 0.0
C961 C 0.20803 0.28088 0.41565 0.0
O962 O 0.19848 0.2797 0.42466 0.0
O963 O 0.2062 0.28814 0.40482 0.0
O964 O 0.17213 0.28093 0.44335 0.0
O965 O 0.17417 0.30325 0.43883 0.0
O966 O 0.28084 0.17548 0.60945 0.0
Cd967 Cd 0.29313 0.19054 0.60066 0.0
Cd968 Cd 0.28254 0.17796 0.57641 0.0
O969 O 0.27583 0.16337 0.5907 0.0
O970 O 0.30263 0.19818 0.61728 0.0
O971 O 0.31406 0.18825 0.60013 0.0
C972 C 0.31427 0.19414 0.61216 0.0
C973 C 0.2896 0.16992 0.55462 0.0
C974 C 0.27523 0.16502 0.60375 0.0
C975 C 0.27422 0.20765 0.58304 0.0
O976 O 0.27227 0.19685 0.57573 0.0
O977 O 0.28287 0.20755 0.59298 0.0
O978 O 0.27693 0.16904 0.55867 0.0
O979 O 0.29857 0.17513 0.56308 0.0
O980 O 0.82915 0.28632 0.60492 0.0
Cd981 Cd 0.81368 0.29824 0.59607 0.0
Cd982 Cd 0.82642 0.28749 0.57221 0.0
O983 O 0.84115 0.28096 0.58622 0.0
O984 O 0.80563 0.30714 0.61285 0.0
O985 O 0.81551 0.31923 0.59615 0.0
C986 C 0.80953 0.31899 0.60813 0.0
C987 C 0.83381 0.29568 0.55064 0.0
C988 C 0.83963 0.28063 0.59929 0.0
C989 C 0.7971 0.27863 0.57848 0.0
O990 O 0.80816 0.27636 0.57168 0.0
O991 O 0.79679 0.28787 0.58788 0.0
O992 O 0.83543 0.28294 0.55424 0.0
O993 O 0.82821 0.30407 0.55944 0.0
O994 O 0.1683 0.71221 0.60706 0.0
Cd995 Cd 0.185 0.70138 0.59914 0.0
Cd996 Cd 0.17421 0.7118 0.57385 0.0
O997 O 0.15962 0.71982 0.58728 0.0
O998 O 0.19287 0.69187 0.61566 0.0
O999 O 0.18367 0.68041 0.59807 0.0
C1000 C 0.18954 0.68021 0.6101 0.0
C1001 C 0.16649 0.70369 0.55237 0.0
C1002 C 0.15919 0.71903 0.60043 0.0
C1003 C 0.20316 0.72036 0.58178 0.0
O1004 O 0.19323 0.72148 0.5732 0.0
O1005 O 0.20197 0.71268 0.59243 0.0
O1006 O 0.16583 0.7166 0.55566 0.0
O1007 O 0.17134 0.6951 0.56142 0.0
O1008 O 0.39525 0.28754 0.17025 0.0
Cd1009 Cd 0.40238 0.29944 0.18649 0.0
Cd1010 Cd 0.42836 0.28779 0.17596 0.0
O1011 O 0.41486 0.27975 0.16134 0.0
O1012 O 0.38476 0.308 0.19294 0.0
O1013 O 0.4022 0.32048 0.18505 0.0
C1014 C 0.38973 0.31999 0.18989 0.0
C1015 C 0.45098 0.29281 0.16849 0.0
C1016 C 0.40169 0.28049 0.16117 0.0
C1017 C 0.41925 0.28131 0.20559 0.0
O1018 O 0.42781 0.27956 0.19573 0.0
O1019 O 0.40872 0.28909 0.20409 0.0
O1020 O 0.44638 0.28032 0.16931 0.0
O1021 O 0.44255 0.30275 0.17158 0.0
O1022 O 0.71548 0.39179 0.17193 0.0
Cd1023 Cd 0.70395 0.40192 0.18695 0.0
Cd1024 Cd 0.71488 0.42468 0.17314 0.0
O1025 O 0.72029 0.40985 0.15876 0.0
O1026 O 0.69395 0.38651 0.19634 0.0
O1027 O 0.68309 0.40274 0.18436 0.0
C1028 C 0.68251 0.3915 0.19161 0.0
C1029 C 0.70684 0.44618 0.16539 0.0
C1030 C 0.72065 0.39686 0.1609 0.0
C1031 C 0.72422 0.41971 0.20242 0.0
O1032 O 0.7267 0.42569 0.19095 0.0
O1033 O 0.71454 0.4108 0.20332 0.0
O1034 O 0.71941 0.44221 0.16331 0.0
O1035 O 0.69851 0.43773 0.17161 0.0
O1036 O 0.6049 0.7131 0.17101 0.0
Cd1037 Cd 0.59669 0.70104 0.1867 0.0
Cd1038 Cd 0.57217 0.71288 0.17482 0.0
O1039 O 0.58598 0.71979 0.16004 0.0
O1040 O 0.61393 0.69235 0.19392 0.0
O1041 O 0.59696 0.68004 0.18482 0.0
C1042 C 0.6092 0.68044 0.19025 0.0
C1043 C 0.54975 0.70692 0.16755 0.0
C1044 C 0.59911 0.71946 0.16103 0.0
C1045 C 0.57987 0.72024 0.20449 0.0
O1046 O 0.57256 0.72271 0.19381 0.0
O1047 O 0.58941 0.71115 0.20412 0.0
O1048 O 0.55418 0.7195 0.16729 0.0
O1049 O 0.55827 0.6974 0.17159 0.0
O1050 O 0.28489 0.60635 0.172 0.0
Cd1051 Cd 0.29707 0.59812 0.18763 0.0
Cd1052 Cd 0.28557 0.57336 0.1756 0.0
O1053 O 0.27815 0.58732 0.16123 0.0
O1054 O 0.30582 0.61527 0.19504 0.0
O1055 O 0.31808 0.59835 0.18577 0.0
C1056 C 0.31773 0.6105 0.19139 0.0
C1057 C 0.29165 0.55116 0.1677 0.0
C1058 C 0.27838 0.60046 0.16217 0.0
C1059 C 0.27831 0.58064 0.20538 0.0
O1060 O 0.27603 0.57325 0.19472 0.0
O1061 O 0.28705 0.5905 0.20497 0.0
O1062 O 0.27901 0.55544 0.16782 0.0
O1063 O 0.30114 0.55969 0.17175 0.0
O1064 O 0.3956 0.71419 0.82967 0.0
Cd1065 Cd 0.40329 0.70263 0.81337 0.0
Cd1066 Cd 0.42825 0.71497 0.82414 0.0
O1067 O 0.41486 0.72199 0.83927 0.0
O1068 O 0.3859 0.69385 0.80667 0.0
O1069 O 0.40347 0.68157 0.8146 0.0
C1070 C 0.39103 0.68191 0.80965 0.0
C1071 C 0.45088 0.70916 0.83089 0.0
C1072 C 0.40172 0.72103 0.83913 0.0
C1073 C 0.41911 0.72212 0.79482 0.0
O1074 O 0.42714 0.72446 0.805 0.0
O1075 O 0.40946 0.71321 0.79582 0.0
O1076 O 0.44646 0.72175 0.83097 0.0
O1077 O 0.44227 0.69957 0.82727 0.0
O1078 O 0.28624 0.39303 0.83084 0.0
Cd1079 Cd 0.29772 0.40106 0.8147 0.0
Cd1080 Cd 0.28722 0.42599 0.82656 0.0
O1081 O 0.27985 0.41232 0.84133 0.0
O1082 O 0.30639 0.38389 0.80727 0.0
O1083 O 0.31876 0.40111 0.81581 0.0
C1084 C 0.31836 0.38884 0.81047 0.0
C1085 C 0.29526 0.44756 0.83414 0.0
C1086 C 0.28002 0.39916 0.8407 0.0
C1087 C 0.2786 0.41864 0.79726 0.0
O1088 O 0.27709 0.42656 0.8077 0.0
O1089 O 0.28682 0.40834 0.79778 0.0
O1090 O 0.28241 0.44411 0.83511 0.0
O1091 O 0.30384 0.43862 0.82907 0.0
O1092 O 0.6099 0.28619 0.82858 0.0
Cd1093 Cd 0.60178 0.29777 0.81259 0.0
Cd1094 Cd 0.57679 0.28701 0.8242 0.0
O1095 O 0.59059 0.27927 0.83869 0.0
O1096 O 0.61886 0.30662 0.8052 0.0
O1097 O 0.60157 0.3188 0.81391 0.0
C1098 C 0.61381 0.31852 0.80848 0.0
C1099 C 0.55518 0.2946 0.83215 0.0
C1100 C 0.60375 0.27963 0.83821 0.0
C1101 C 0.58422 0.27903 0.79473 0.0
O1102 O 0.57616 0.27746 0.80504 0.0
O1103 O 0.59466 0.28705 0.79552 0.0
O1104 O 0.55876 0.28177 0.8327 0.0
O1105 O 0.56401 0.30342 0.8273 0.0
O1106 O 0.71582 0.60571 0.82673 0.0
Cd1107 Cd 0.7037 0.59536 0.81231 0.0
Cd1108 Cd 0.71454 0.57296 0.82643 0.0
O1109 O 0.72036 0.58797 0.84042 0.0
O1110 O 0.6937 0.61067 0.80276 0.0
O1111 O 0.68292 0.59499 0.81551 0.0
C1112 C 0.68232 0.60604 0.80797 0.0
C1113 C 0.70594 0.55182 0.83449 0.0
C1114 C 0.72103 0.60087 0.83785 0.0
C1115 C 0.72343 0.57689 0.79696 0.0
O1116 O 0.72624 0.57139 0.8086 0.0
O1117 O 0.71369 0.58572 0.79595 0.0
O1118 O 0.71861 0.5555 0.83658 0.0
O1119 O 0.69784 0.56038 0.82814 0.0
O1120 O 0.173 0.39734 0.28464 0.0
Cd1121 Cd 0.18849 0.40657 0.29614 0.0
Cd1122 Cd 0.17599 0.43041 0.28477 0.0
O1123 O 0.16172 0.41603 0.27777 0.0
O1124 O 0.19703 0.39055 0.30587 0.0
O1125 O 0.18626 0.40738 0.31705 0.0
C1126 C 0.19286 0.39574 0.31742 0.0
C1127 C 0.16793 0.45214 0.29196 0.0
C1128 C 0.16289 0.40291 0.27827 0.0
C1129 C 0.20561 0.42397 0.27674 0.0
O1130 O 0.19487 0.43133 0.27472 0.0
O1131 O 0.20538 0.41408 0.28542 0.0
O1132 O 0.16747 0.44828 0.27919 0.0
O1133 O 0.17259 0.44338 0.30096 0.0
O1134 O 0.60447 0.17283 0.28653 0.0
Cd1135 Cd 0.59487 0.18799 0.2983 0.0
Cd1136 Cd 0.57165 0.17487 0.28716 0.0
O1137 O 0.58609 0.16024 0.2814 0.0
O1138 O 0.6108 0.19701 0.30781 0.0
O1139 O 0.59458 0.18555 0.31921 0.0
C1140 C 0.60603 0.1925 0.31942 0.0
C1141 C 0.55002 0.16747 0.29515 0.0
C1142 C 0.59913 0.16207 0.28109 0.0
C1143 C 0.57744 0.20414 0.2782 0.0
O1144 O 0.57111 0.19288 0.27561 0.0
O1145 O 0.58638 0.20467 0.28787 0.0
O1146 O 0.55388 0.16552 0.28252 0.0
O1147 O 0.55862 0.17338 0.30354 0.0
O1148 O 0.8278 0.60813 0.28489 0.0
Cd1149 Cd 0.81154 0.60079 0.29661 0.0
Cd1150 Cd 0.82226 0.575 0.28543 0.0
O1151 O 0.83676 0.58852 0.27719 0.0
O1152 O 0.80503 0.61816 0.30561 0.0
O1153 O 0.81299 0.60041 0.31763 0.0
C1154 C 0.80812 0.61289 0.31746 0.0
C1155 C 0.83 0.55255 0.29083 0.0
C1156 C 0.8369 0.60168 0.27787 0.0
C1157 C 0.79267 0.5838 0.27846 0.0
O1158 O 0.80255 0.5752 0.27708 0.0
O1159 O 0.79406 0.59451 0.28602 0.0
O1160 O 0.82917 0.55695 0.27827 0.0
O1161 O 0.82675 0.56108 0.30062 0.0
O1162 O 0.39344 0.83142 0.28423 0.0
Cd1163 Cd 0.40177 0.81524 0.29544 0.0
Cd1164 Cd 0.42647 0.82728 0.28431 0.0
O1165 O 0.41252 0.84206 0.27745 0.0
O1166 O 0.38481 0.80759 0.30436 0.0
O1167 O 0.40214 0.81625 0.3165 0.0
C1168 C 0.38993 0.81075 0.31626 0.0
C1169 C 0.44835 0.83469 0.29172 0.0
C1170 C 0.39937 0.84137 0.27794 0.0
C1171 C 0.419 0.79795 0.27584 0.0
O1172 O 0.42679 0.80845 0.2741 0.0
O1173 O 0.40893 0.7984 0.28434 0.0
O1174 O 0.44449 0.83578 0.279 0.0
O1175 O 0.43961 0.82967 0.30054 0.0
O1176 O 0.17062 0.60455 0.71694 0.0
Cd1177 Cd 0.18625 0.59601 0.70499 0.0
Cd1178 Cd 0.17398 0.5718 0.71711 0.0
O1179 O 0.15936 0.58587 0.72387 0.0
O1180 O 0.19383 0.6131 0.69632 0.0
O1181 O 0.18451 0.59628 0.68397 0.0
C1182 C 0.19017 0.6084 0.68439 0.0
C1183 C 0.16661 0.54949 0.71088 0.0
C1184 C 0.16054 0.59899 0.72336 0.0
C1185 C 0.20376 0.57897 0.72431 0.0
O1186 O 0.19294 0.57194 0.72699 0.0
O1187 O 0.20353 0.58838 0.7151 0.0
O1188 O 0.16621 0.55381 0.72349 0.0
O1189 O 0.1708 0.55807 0.70148 0.0
O1190 O 0.39249 0.173 0.71385 0.0
Cd1191 Cd 0.4017 0.18861 0.70252 0.0
Cd1192 Cd 0.42584 0.17592 0.71367 0.0
O1193 O 0.41128 0.16163 0.7203 0.0
O1194 O 0.3857 0.19738 0.6929 0.0
O1195 O 0.40242 0.18656 0.68158 0.0
C1196 C 0.39082 0.19324 0.68131 0.0
C1197 C 0.44751 0.16782 0.70638 0.0
C1198 C 0.39815 0.16279 0.71997 0.0
C1199 C 0.4194 0.20543 0.72207 0.0
O1200 O 0.42679 0.19468 0.72397 0.0
O1201 O 0.40943 0.20528 0.71345 0.0
O1202 O 0.44351 0.16674 0.71906 0.0
O1203 O 0.43902 0.17319 0.69753 0.0
O1204 O 0.82689 0.39551 0.71352 0.0
Cd1205 Cd 0.81288 0.40533 0.70055 0.0
Cd1206 Cd 0.82701 0.42794 0.71127 0.0
O1207 O 0.84135 0.41297 0.71662 0.0
O1208 O 0.80376 0.38967 0.69067 0.0
O1209 O 0.8166 0.40525 0.67984 0.0
C1210 C 0.80915 0.39414 0.67931 0.0
C1211 C 0.83474 0.44997 0.70457 0.0
C1212 C 0.83832 0.40023 0.7181 0.0
C1213 C 0.79721 0.42342 0.71977 0.0
O1214 O 0.80889 0.42875 0.72274 0.0
O1215 O 0.79617 0.41487 0.70982 0.0
O1216 O 0.83617 0.44546 0.71704 0.0
O1217 O 0.8294 0.44166 0.69552 0.0
O1218 O 0.60743 0.82879 0.7145 0.0
Cd1219 Cd 0.59951 0.81273 0.70287 0.0
Cd1220 Cd 0.57441 0.82389 0.71379 0.0
O1221 O 0.58798 0.83861 0.72146 0.0
O1222 O 0.61663 0.80562 0.69386 0.0
O1223 O 0.59914 0.81415 0.68185 0.0
C1224 C 0.61146 0.80889 0.68201 0.0
C1225 C 0.55258 0.8316 0.70655 0.0
C1226 C 0.60115 0.83831 0.72108 0.0
C1227 C 0.5824 0.79455 0.72172 0.0
O1228 O 0.57419 0.80473 0.72338 0.0
O1229 O 0.59273 0.79551 0.71358 0.0
O1230 O 0.55633 0.83207 0.71934 0.0
O1231 O 0.56135 0.82692 0.69758 0.0
O1232 O 0.28489 0.16747 0.39648 0.0
Cd1233 Cd 0.29627 0.18444 0.40308 0.0
Cd1234 Cd 0.28316 0.17501 0.4291 0.0
O1235 O 0.27513 0.16024 0.41593 0.0
O1236 O 0.30436 0.19047 0.3851 0.0
O1237 O 0.31738 0.1837 0.4026 0.0
C1238 C 0.31653 0.18808 0.38998 0.0
C1239 C 0.28806 0.16842 0.45201 0.0
C1240 C 0.27701 0.15911 0.40294 0.0
C1241 C 0.27743 0.20423 0.41882 0.0
O1242 O 0.27507 0.19464 0.42753 0.0
O1243 O 0.28578 0.20232 0.40879 0.0
O1244 O 0.27558 0.1691 0.44733 0.0
O1245 O 0.29804 0.17111 0.44349 0.0
O1246 O 0.28403 0.82661 0.60515 0.0
Cd1247 Cd 0.29588 0.81121 0.59606 0.0
Cd1248 Cd 0.28378 0.82368 0.57223 0.0
O1249 O 0.27738 0.8382 0.58656 0.0
O1250 O 0.30537 0.80297 0.61242 0.0
O1251 O 0.31679 0.81375 0.59578 0.0
C1252 C 0.31698 0.80734 0.60753 0.0
C1253 C 0.29018 0.83131 0.55004 0.0
C1254 C 0.27781 0.83687 0.59967 0.0
C1255 C 0.27621 0.79399 0.57914 0.0
O1256 O 0.27355 0.8049 0.57224 0.0
O1257 O 0.28562 0.79406 0.58836 0.0
O1258 O 0.27755 0.8318 0.55433 0.0
O1259 O 0.29948 0.82683 0.55858 0.0
O1260 O 0.16503 0.28877 0.60429 0.0
Cd1261 Cd 0.18197 0.29967 0.5968 0.0
Cd1262 Cd 0.17068 0.2886 0.57156 0.0
O1263 O 0.15539 0.28178 0.58473 0.0
O1264 O 0.1894 0.30747 0.61439 0.0
O1265 O 0.18178 0.32076 0.59743 0.0
C1266 C 0.1869 0.31972 0.60976 0.0
C1267 C 0.16427 0.29634 0.5495 0.0
C1268 C 0.1554 0.28244 0.59788 0.0
C1269 C 0.19944 0.27967 0.57992 0.0
O1270 O 0.18906 0.27779 0.57203 0.0
O1271 O 0.19893 0.28849 0.58971 0.0
O1272 O 0.16276 0.28361 0.55321 0.0
O1273 O 0.16919 0.30498 0.55847 0.0
O1274 O 0.71579 0.17298 0.60719 0.0
Cd1275 Cd 0.70416 0.18841 0.59803 0.0
Cd1276 Cd 0.71532 0.17597 0.57396 0.0
O1277 O 0.72216 0.16163 0.58837 0.0
O1278 O 0.69426 0.19688 0.61404 0.0
O1279 O 0.68327 0.18599 0.59715 0.0
C1280 C 0.68278 0.19256 0.60881 0.0
C1281 C 0.70773 0.16802 0.55234 0.0
C1282 C 0.72195 0.16281 0.6015 0.0
C1283 C 0.72353 0.20549 0.58043 0.0
O1284 O 0.72556 0.19476 0.57306 0.0
O1285 O 0.71484 0.20527 0.59034 0.0
O1286 O 0.72047 0.16693 0.55616 0.0
O1287 O 0.69899 0.17331 0.561 0.0
O1288 O 0.82825 0.71524 0.60735 0.0
Cd1289 Cd 0.81227 0.7038 0.59896 0.0
Cd1290 Cd 0.82461 0.71421 0.57421 0.0
O1291 O 0.83905 0.7216 0.58821 0.0
O1292 O 0.80446 0.69497 0.61589 0.0
O1293 O 0.81347 0.68276 0.59879 0.0
C1294 C 0.80782 0.68305 0.61093 0.0
C1295 C 0.83263 0.70638 0.5527 0.0
C1296 C 0.8382 0.72147 0.60136 0.0
C1297 C 0.79524 0.72298 0.58105 0.0
O1298 O 0.80581 0.72441 0.5733 0.0
O1299 O 0.79553 0.71478 0.59137 0.0
O1300 O 0.83354 0.71919 0.55631 0.0
O1301 O 0.82738 0.69772 0.56146 0.0
O1302 O 0.71363 0.82803 0.39491 0.0
Cd1303 Cd 0.70196 0.81246 0.40378 0.0
Cd1304 Cd 0.71351 0.82461 0.4282 0.0
O1305 O 0.72073 0.8388 0.41382 0.0
O1306 O 0.69231 0.80418 0.38755 0.0
O1307 O 0.68104 0.81473 0.40448 0.0
C1308 C 0.68073 0.80828 0.39275 0.0
C1309 C 0.70746 0.83287 0.45025 0.0
C1310 C 0.72019 0.8379 0.40068 0.0
C1311 C 0.72096 0.79486 0.42121 0.0
O1312 O 0.72294 0.80541 0.42885 0.0
O1313 O 0.71253 0.79539 0.41111 0.0
O1314 O 0.72008 0.83279 0.44592 0.0
O1315 O 0.69796 0.82863 0.44181 0.0
O1316 O 0.17353 0.71509 0.39598 0.0
Cd1317 Cd 0.18905 0.70343 0.40495 0.0
Cd1318 Cd 0.17714 0.71489 0.42915 0.0
O1319 O 0.16289 0.72226 0.41493 0.0
O1320 O 0.19726 0.6935 0.38888 0.0
O1321 O 0.18664 0.68255 0.40597 0.0
C1322 C 0.1931 0.68203 0.39426 0.0
C1323 C 0.16891 0.70804 0.45094 0.0
C1324 C 0.16371 0.7217 0.40179 0.0
C1325 C 0.20681 0.72239 0.42225 0.0
O1326 O 0.1963 0.72442 0.42993 0.0
O1327 O 0.20618 0.71394 0.41217 0.0
O1328 O 0.1689 0.7208 0.44706 0.0
O1329 O 0.17327 0.69886 0.44221 0.0
O1330 O 0.82777 0.28761 0.39337 0.0
Cd1331 Cd 0.81247 0.29952 0.40261 0.0
Cd1332 Cd 0.8249 0.28761 0.42636 0.0
O1333 O 0.83942 0.28124 0.41201 0.0
O1334 O 0.80409 0.30946 0.38659 0.0
O1335 O 0.81519 0.32038 0.40339 0.0
C1336 C 0.80853 0.32091 0.39178 0.0
C1337 C 0.83257 0.29377 0.44858 0.0
C1338 C 0.83807 0.28149 0.39891 0.0
C1339 C 0.79522 0.27999 0.41962 0.0
O1340 O 0.80615 0.27731 0.42647 0.0
O1341 O 0.79529 0.28935 0.41035 0.0
O1342 O 0.83311 0.2812 0.44412 0.0
O1343 O 0.82804 0.30316 0.44017 0.0
H1344 H 0.09225 0.23425 0.36513 0.0
H1345 H 0.12813 0.22202 0.34114 0.0
H1346 H 0.10703 0.24897 0.37958 0.0
H1347 H 0.14277 0.23661 0.35559 0.0
H1348 H 0.16058 0.27737 0.37087 0.0
H1349 H 0.14495 0.26221 0.35818 0.0
H1350 H 0.12698 0.24819 0.39672 0.0
H1351 H 0.14265 0.26348 0.40956 0.0
C1352 C 0.10329 0.23455 0.36304 0.0
C1353 C 0.10898 0.22704 0.35189 0.0
C1354 C 0.11174 0.24296 0.37134 0.0
C1355 C 0.12601 0.24409 0.36857 0.0
C1356 C 0.13176 0.23615 0.35779 0.0
C1357 C 0.12336 0.22771 0.34957 0.0
C1358 C 0.15326 0.27115 0.37669 0.0
C1359 C 0.15295 0.2716 0.39126 0.0
C1360 C 0.14436 0.26238 0.3694 0.0
C1361 C 0.13488 0.25387 0.37647 0.0
C1362 C 0.13419 0.25464 0.39101 0.0
C1363 C 0.14318 0.26338 0.39834 0.0
H1364 H 0.72287 0.16075 0.37252 0.0
H1365 H 0.73874 0.14246 0.41027 0.0
H1366 H 0.73727 0.14517 0.3589 0.0
H1367 H 0.75331 0.1269 0.39652 0.0
H1368 H 0.76584 0.09222 0.36504 0.0
H1369 H 0.75182 0.10718 0.37992 0.0
H1370 H 0.7622 0.1424 0.35427 0.0
H1371 H 0.77605 0.12751 0.33931 0.0
C1372 C 0.72939 0.15337 0.37794 0.0
C1373 C 0.72968 0.15292 0.39251 0.0
C1374 C 0.73773 0.14451 0.37011 0.0
C1375 C 0.74656 0.13493 0.37664 0.0
C1376 C 0.74658 0.13416 0.3912 0.0
C1377 C 0.73826 0.14309 0.39906 0.0
C1378 C 0.76523 0.10318 0.36264 0.0
C1379 C 0.772 0.10864 0.35091 0.0
C1380 C 0.75723 0.11175 0.3712 0.0
C1381 C 0.75578 0.12593 0.36818 0.0
C1382 C 0.7629 0.13145 0.35672 0.0
C1383 C 0.77093 0.12292 0.3482 0.0
H1384 H 0.86152 0.73608 0.40839 0.0
H1385 H 0.83758 0.72355 0.3726 0.0
H1386 H 0.87684 0.74953 0.39338 0.0
H1387 H 0.853 0.7368 0.35765 0.0
H1388 H 0.87239 0.77475 0.33755 0.0
H1389 H 0.85789 0.76127 0.35318 0.0
H1390 H 0.89439 0.74705 0.37493 0.0
H1391 H 0.90898 0.76073 0.35937 0.0
C1392 C 0.85959 0.73608 0.39732 0.0
C1393 C 0.84826 0.72878 0.39172 0.0
C1394 C 0.86841 0.74375 0.38872 0.0
C1395 C 0.86607 0.74433 0.37434 0.0
C1396 C 0.85494 0.73678 0.36872 0.0
C1397 C 0.84615 0.72909 0.37729 0.0
C1398 C 0.87736 0.76882 0.3457 0.0
C1399 C 0.89187 0.7688 0.34716 0.0
C1400 C 0.86903 0.761 0.3546 0.0
C1401 C 0.87499 0.75298 0.36521 0.0
C1402 C 0.88948 0.75319 0.3669 0.0
C1403 C 0.89783 0.761 0.35795 0.0
H1404 H 0.22515 0.86979 0.33554 0.0
H1405 H 0.23722 0.90636 0.35851 0.0
H1406 H 0.23948 0.85556 0.35073 0.0
H1407 H 0.2518 0.89217 0.37345 0.0
H1408 H 0.26539 0.8603 0.40606 0.0
H1409 H 0.25084 0.87477 0.39133 0.0
H1410 H 0.2637 0.85118 0.35545 0.0
H1411 H 0.27799 0.83648 0.37022 0.0
C1412 C 0.23083 0.8748 0.34383 0.0
C1413 C 0.23002 0.88923 0.34578 0.0
C1414 C 0.23915 0.86665 0.35247 0.0
C1415 C 0.24689 0.87272 0.36325 0.0
C1416 C 0.24588 0.88712 0.36534 0.0
C1417 C 0.23754 0.89527 0.35673 0.0
C1418 C 0.2652 0.85825 0.39501 0.0
C1419 C 0.27284 0.8472 0.38934 0.0
C1420 C 0.25687 0.86658 0.38656 0.0
C1421 C 0.25602 0.86409 0.37221 0.0
C1422 C 0.2639 0.85322 0.3665 0.0
C1423 C 0.2722 0.84487 0.37495 0.0
H1424 H 0.1457 0.74242 0.59204 0.0
H1425 H 0.14888 0.71367 0.62628 0.0
H1426 H 0.12985 0.75686 0.60566 0.0
H1427 H 0.13266 0.72796 0.63969 0.0
H1428 H 0.09146 0.75269 0.65085 0.0
H1429 H 0.10493 0.73781 0.63521 0.0
H1430 H 0.13605 0.76974 0.63158 0.0
H1431 H 0.12287 0.78447 0.64755 0.0
C1432 C 0.14281 0.73905 0.60236 0.0
C1433 C 0.14855 0.72694 0.60813 0.0
C1434 C 0.1338 0.74733 0.61013 0.0
C1435 C 0.13009 0.74345 0.62365 0.0
C1436 C 0.13535 0.73108 0.62923 0.0
C1437 C 0.14464 0.72297 0.6216 0.0
C1438 C 0.10109 0.75659 0.64658 0.0
C1439 C 0.10615 0.76972 0.65041 0.0
C1440 C 0.10879 0.74806 0.63771 0.0
C1441 C 0.12146 0.7527 0.63226 0.0
C1442 C 0.12625 0.76601 0.63564 0.0
C1443 C 0.11875 0.77439 0.64478 0.0
H1444 H 0.26976 0.13756 0.59884 0.0
H1445 H 0.26218 0.17066 0.628 0.0
H1446 H 0.2562 0.12176 0.61325 0.0
H1447 H 0.24789 0.15535 0.64187 0.0
H1448 H 0.23405 0.12252 0.67166 0.0
H1449 H 0.24827 0.13739 0.65723 0.0
H1450 H 0.23431 0.11526 0.62074 0.0
H1451 H 0.22082 0.09973 0.63548 0.0
C1452 C 0.2651 0.14146 0.60829 0.0
C1453 C 0.26715 0.15528 0.61238 0.0
C1454 C 0.2572 0.13245 0.61651 0.0
C1455 C 0.25091 0.13718 0.62884 0.0
C1456 C 0.25283 0.15112 0.63272 0.0
C1457 C 0.26099 0.15998 0.6247 0.0
C1458 C 0.23399 0.12087 0.66054 0.0
C1459 C 0.22628 0.11001 0.65468 0.0
C1460 C 0.2421 0.12947 0.6522 0.0
C1461 C 0.24244 0.1277 0.6377 0.0
C1462 C 0.23456 0.11686 0.63184 0.0
C1463 C 0.2267 0.10802 0.64027 0.0
H1464 H 0.86191 0.26517 0.59073 0.0
H1465 H 0.83955 0.27781 0.62749 0.0
H1466 H 0.87659 0.25016 0.60485 0.0
H1467 H 0.85438 0.26302 0.64158 0.0
H1468 H 0.87157 0.22339 0.66007 0.0
H1469 H 0.85765 0.23823 0.64512 0.0
H1470 H 0.89453 0.25046 0.6228 0.0
H1471 H 0.90848 0.2354 0.6376 0.0
C1472 C 0.86023 0.26489 0.60183 0.0
C1473 C 0.84949 0.27264 0.60796 0.0
C1474 C 0.86867 0.2563 0.60992 0.0
C1475 C 0.86655 0.25527 0.62431 0.0
C1476 C 0.8561 0.26336 0.63048 0.0
C1477 C 0.84767 0.27193 0.62241 0.0
C1478 C 0.87672 0.22914 0.65191 0.0
C1479 C 0.89116 0.22824 0.65008 0.0
C1480 C 0.86875 0.23775 0.64341 0.0
C1481 C 0.87501 0.24566 0.63288 0.0
C1482 C 0.88939 0.24445 0.63077 0.0
C1483 C 0.89738 0.23583 0.63928 0.0
H1484 H 0.76068 0.90923 0.64394 0.0
H1485 H 0.77662 0.8717 0.66262 0.0
H1486 H 0.74621 0.89531 0.62847 0.0
H1487 H 0.76233 0.8579 0.6471 0.0
H1488 H 0.72379 0.83796 0.62927 0.0
H1489 H 0.73752 0.85303 0.64417 0.0
H1490 H 0.74782 0.87866 0.60891 0.0
H1491 H 0.73393 0.86368 0.59397 0.0
C1492 C 0.76121 0.89804 0.64467 0.0
C1493 C 0.76977 0.8916 0.65458 0.0
C1494 C 0.75293 0.89007 0.63579 0.0
C1495 C 0.75301 0.87551 0.63668 0.0
C1496 C 0.76182 0.8691 0.64635 0.0
C1497 C 0.7701 0.87703 0.65517 0.0
C1498 C 0.72887 0.84686 0.62469 0.0
C1499 C 0.72781 0.84955 0.6104 0.0
C1500 C 0.73683 0.85545 0.63322 0.0
C1501 C 0.74389 0.86694 0.62769 0.0
C1502 C 0.74246 0.86992 0.61349 0.0
C1503 C 0.73453 0.8613 0.60493 0.0
H1504 H 0.33715 0.1317 0.22217 0.0
H1505 H 0.35894 0.09499 0.23593 0.0
H1506 H 0.35238 0.14603 0.2363 0.0
H1507 H 0.37407 0.10939 0.25025 0.0
H1508 H 0.40683 0.14216 0.26316 0.0
H1509 H 0.39241 0.12715 0.24875 0.0
H1510 H 0.35606 0.15029 0.26105 0.0
H1511 H 0.37043 0.1654 0.27526 0.0
C1512 C 0.34522 0.12667 0.22816 0.0
C1513 C 0.34677 0.11217 0.22795 0.0
C1514 C 0.35389 0.13489 0.23635 0.0
C1515 C 0.36434 0.12884 0.24451 0.0
C1516 C 0.36616 0.11438 0.24402 0.0
C1517 C 0.35746 0.10613 0.23584 0.0
C1518 C 0.39575 0.144 0.26286 0.0
C1519 C 0.38981 0.15504 0.27033 0.0
C1520 C 0.38749 0.13536 0.25463 0.0
C1521 C 0.37311 0.13761 0.25366 0.0
C1522 C 0.36714 0.14845 0.26137 0.0
C1523 C 0.37538 0.15705 0.26961 0.0
H1524 H 0.87282 0.34061 0.22251 0.0
H1525 H 0.91026 0.36159 0.23554 0.0
H1526 H 0.85912 0.35607 0.23698 0.0
H1527 H 0.89642 0.37706 0.25013 0.0
H1528 H 0.86297 0.41013 0.26326 0.0
H1529 H 0.87809 0.3958 0.24875 0.0
H1530 H 0.8564 0.3591 0.26243 0.0
H1531 H 0.8413 0.37327 0.27681 0.0
C1532 C 0.87814 0.34857 0.22838 0.0
C1533 C 0.89267 0.34978 0.22792 0.0
C1534 C 0.87028 0.35738 0.23675 0.0
C1535 C 0.87672 0.36765 0.24483 0.0
C1536 C 0.89118 0.36924 0.244 0.0
C1537 C 0.89909 0.36036 0.23566 0.0
C1538 C 0.86153 0.39899 0.26328 0.0
C1539 C 0.85084 0.39287 0.27112 0.0
C1540 C 0.8702 0.3908 0.25498 0.0
C1541 C 0.86829 0.37636 0.25431 0.0
C1542 C 0.85794 0.37023 0.26253 0.0
C1543 C 0.84935 0.37837 0.27085 0.0
H1544 H 0.63796 0.9084 0.23505 0.0
H1545 H 0.66213 0.87247 0.22335 0.0
H1546 H 0.62262 0.89357 0.24872 0.0
H1547 H 0.64675 0.85774 0.23689 0.0
H1548 H 0.62828 0.83905 0.27601 0.0
H1549 H 0.64231 0.85456 0.26195 0.0
H1550 H 0.60521 0.87433 0.24649 0.0
H1551 H 0.59103 0.8588 0.26071 0.0
C1552 C 0.63993 0.89734 0.23527 0.0
C1553 C 0.65135 0.89165 0.22817 0.0
C1554 C 0.63111 0.88885 0.24307 0.0
C1555 C 0.63357 0.87452 0.24399 0.0
C1556 C 0.64473 0.86879 0.23657 0.0
C1557 C 0.6535 0.87724 0.22873 0.0
C1558 C 0.62306 0.84673 0.26969 0.0
C1559 C 0.6085 0.84762 0.26946 0.0
C1560 C 0.63112 0.85556 0.26155 0.0
C1561 C 0.62486 0.86555 0.25299 0.0
C1562 C 0.61032 0.86675 0.25302 0.0
C1563 C 0.60221 0.85783 0.26113 0.0
H1564 H 0.12839 0.66102 0.22311 0.0
H1565 H 0.09199 0.63806 0.23574 0.0
H1566 H 0.14277 0.64618 0.23757 0.0
H1567 H 0.10648 0.62326 0.25036 0.0
H1568 H 0.14078 0.59194 0.26429 0.0
H1569 H 0.12544 0.60553 0.24936 0.0
H1570 H 0.14569 0.64314 0.26283 0.0
H1571 H 0.16106 0.62967 0.2776 0.0
C1572 C 0.12345 0.65275 0.22889 0.0
C1573 C 0.109 0.65081 0.22833 0.0
C1574 C 0.13169 0.64431 0.23726 0.0
C1575 C 0.12572 0.63368 0.24524 0.0
C1576 C 0.11137 0.63135 0.24429 0.0
C1577 C 0.10308 0.63986 0.23594 0.0
C1578 C 0.14189 0.60312 0.26415 0.0
C1579 C 0.15222 0.6097 0.27209 0.0
C1580 C 0.13308 0.61089 0.25562 0.0
C1581 C 0.13448 0.62538 0.2548 0.0
C1582 C 0.14454 0.63196 0.26304 0.0
C1583 C 0.15328 0.62423 0.27159 0.0
H1584 H 0.35286 0.87609 0.78671 0.0
H1585 H 0.35567 0.9101 0.75766 0.0
H1586 H 0.36908 0.86266 0.77246 0.0
H1587 H 0.37154 0.89645 0.74326 0.0
H1588 H 0.37853 0.8547 0.71575 0.0
H1589 H 0.36559 0.8709 0.73042 0.0
H1590 H 0.39643 0.86658 0.76255 0.0
H1591 H 0.40967 0.85069 0.74773 0.0
C1592 C 0.35703 0.88072 0.77737 0.0
C1593 C 0.353 0.89413 0.77329 0.0
C1594 C 0.36632 0.87307 0.76927 0.0
C1595 C 0.37148 0.87858 0.75682 0.0
C1596 C 0.36767 0.89204 0.75285 0.0
C1597 C 0.35865 0.89983 0.76111 0.0
C1598 C 0.38266 0.85738 0.72585 0.0
C1599 C 0.3951 0.85145 0.73061 0.0
C1600 C 0.37529 0.86665 0.7342 0.0
C1601 C 0.38005 0.8699 0.74757 0.0
C1602 C 0.39259 0.86419 0.75226 0.0
C1603 C 0.40016 0.85518 0.74377 0.0
H1604 H 0.16385 0.37002 0.72548 0.0
H1605 H 0.13978 0.40611 0.73685 0.0
H1606 H 0.14868 0.35551 0.73952 0.0
H1607 H 0.12479 0.39161 0.75112 0.0
H1608 H 0.09281 0.35858 0.7641 0.0
H1609 H 0.10736 0.37346 0.74976 0.0
H1610 H 0.14379 0.35152 0.76392 0.0
H1611 H 0.12925 0.33646 0.77804 0.0
C1612 C 0.1553 0.37486 0.73093 0.0
C1613 C 0.15307 0.38924 0.73004 0.0
C1614 C 0.14667 0.36655 0.73908 0.0
C1615 C 0.1356 0.37241 0.74655 0.0
C1616 C 0.13316 0.38675 0.74542 0.0
C1617 C 0.1418 0.39506 0.73726 0.0
C1618 C 0.10394 0.35698 0.76424 0.0
C1619 C 0.10985 0.34628 0.7722 0.0
C1620 C 0.11228 0.36555 0.75603 0.0
C1621 C 0.12673 0.36361 0.7556 0.0
C1622 C 0.13266 0.35312 0.76381 0.0
C1623 C 0.12433 0.34455 0.772 0.0
H1624 H 0.6276 0.16037 0.72351 0.0
H1625 H 0.59052 0.13929 0.73737 0.0
H1626 H 0.64163 0.14522 0.73799 0.0
H1627 H 0.60466 0.12418 0.75201 0.0
H1628 H 0.66043 0.12819 0.77752 0.0
H1629 H 0.64524 0.14227 0.76312 0.0
H1630 H 0.62265 0.1056 0.75085 0.0
H1631 H 0.63778 0.09142 0.76542 0.0
C1632 C 0.62243 0.15246 0.72958 0.0
C1633 C 0.60791 0.15111 0.72932 0.0
C1634 C 0.63048 0.14384 0.73797 0.0
C1635 C 0.62424 0.13363 0.74628 0.0
C1636 C 0.60977 0.13193 0.74569 0.0
C1637 C 0.60167 0.14061 0.73732 0.0
C1638 C 0.65217 0.1231 0.77186 0.0
C1639 C 0.65039 0.10864 0.77258 0.0
C1640 C 0.64352 0.13118 0.76351 0.0
C1641 C 0.63286 0.12502 0.75571 0.0
C1642 C 0.63075 0.11064 0.75678 0.0
C1643 C 0.63945 0.10252 0.7651 0.0
H1644 H 0.90151 0.63462 0.77224 0.0
H1645 H 0.87481 0.66927 0.76275 0.0
H1646 H 0.88651 0.61936 0.75866 0.0
H1647 H 0.86044 0.65447 0.74844 0.0
H1648 H 0.82885 0.62345 0.73475 0.0
H1649 H 0.8439 0.63766 0.74899 0.0
H1650 H 0.87909 0.61254 0.73684 0.0
H1651 H 0.86364 0.59769 0.72334 0.0
C1652 C 0.89249 0.63897 0.76715 0.0
C1653 C 0.88922 0.65307 0.76869 0.0
C1654 C 0.88393 0.63027 0.75925 0.0
C1655 C 0.87212 0.63558 0.75244 0.0
C1656 C 0.86913 0.64981 0.75381 0.0
C1657 C 0.87745 0.65838 0.76197 0.0
C1658 C 0.83982 0.621 0.73509 0.0
C1659 C 0.84509 0.60952 0.72787 0.0
C1660 C 0.84852 0.62922 0.74321 0.0
C1661 C 0.86284 0.62643 0.74404 0.0
C1662 C 0.86812 0.61494 0.73669 0.0
C1663 C 0.8593 0.60648 0.72883 0.0
H1664 H 0.22341 0.33697 0.13033 0.0
H1665 H 0.23686 0.35755 0.09283 0.0
H1666 H 0.23764 0.35268 0.14404 0.0
H1667 H 0.25132 0.37309 0.10657 0.0
H1668 H 0.26454 0.40707 0.13759 0.0
H1669 H 0.25016 0.39196 0.12329 0.0
H1670 H 0.26208 0.35683 0.14843 0.0
H1671 H 0.27622 0.37194 0.1629 0.0
C1672 C 0.22936 0.34487 0.125 0.0
C1673 C 0.229 0.34596 0.11046 0.0
C1674 C 0.23762 0.3538 0.13286 0.0
C1675 C 0.24573 0.36405 0.1264 0.0
C1676 C 0.24513 0.36537 0.11189 0.0
C1677 C 0.23686 0.35643 0.10401 0.0
C1678 C 0.26418 0.39611 0.14002 0.0
C1679 C 0.2715 0.39074 0.15144 0.0
C1680 C 0.25596 0.38744 0.13179 0.0
C1681 C 0.25488 0.37321 0.13479 0.0
C1682 C 0.26247 0.36779 0.146 0.0
C1683 C 0.27068 0.37645 0.15423 0.0
H1684 H 0.23905 0.6388 0.90889 0.0
H1685 H 0.22488 0.65967 0.8718 0.0
H1686 H 0.25342 0.62346 0.89466 0.0
H1687 H 0.23912 0.64435 0.85773 0.0
H1688 H 0.27851 0.62725 0.83877 0.0
H1689 H 0.26447 0.64141 0.85421 0.0
H1690 H 0.25158 0.6047 0.8764 0.0
H1691 H 0.26576 0.59041 0.86095 0.0
C1692 C 0.23889 0.64004 0.89773 0.0
C1693 C 0.23087 0.65054 0.89151 0.0
C1694 C 0.2471 0.63124 0.88959 0.0
C1695 C 0.24752 0.63283 0.87511 0.0
C1696 C 0.23921 0.64305 0.86889 0.0
C1697 C 0.23096 0.65177 0.87698 0.0
C1698 C 0.27279 0.62216 0.84699 0.0
C1699 C 0.2732 0.60766 0.84855 0.0
C1700 C 0.26466 0.63028 0.85579 0.0
C1701 C 0.25679 0.62414 0.8664 0.0
C1702 C 0.25756 0.60972 0.86832 0.0
C1703 C 0.26565 0.60154 0.85944 0.0
H1704 H 0.37511 0.27748 0.83866 0.0
H1705 H 0.41136 0.26547 0.8622 0.0
H1706 H 0.36067 0.26324 0.85364 0.0
H1707 H 0.39678 0.25109 0.87718 0.0
H1708 H 0.34258 0.22327 0.87039 0.0
H1709 H 0.35818 0.23781 0.85696 0.0
H1710 H 0.3773 0.25245 0.89471 0.0
H1711 H 0.36168 0.23777 0.90829 0.0
C1712 C 0.38001 0.27188 0.84708 0.0
C1713 C 0.39443 0.27254 0.84914 0.0
C1714 C 0.37172 0.26365 0.85562 0.0
C1715 C 0.37762 0.2559 0.86645 0.0
C1716 C 0.39195 0.25697 0.86891 0.0
C1717 C 0.40029 0.26517 0.8603 0.0
C1718 C 0.35016 0.22949 0.87588 0.0
C1719 C 0.35079 0.22941 0.89044 0.0
C1720 C 0.35904 0.2379 0.86816 0.0
C1721 C 0.36882 0.24642 0.87479 0.0
C1722 C 0.36986 0.24599 0.88932 0.0
C1723 C 0.3609 0.23759 0.89709 0.0
H1724 H 0.73994 0.40943 0.85826 0.0
H1725 H 0.7263 0.37294 0.83604 0.0
H1726 H 0.754 0.39484 0.87348 0.0
H1727 H 0.74018 0.35845 0.85133 0.0
H1728 H 0.77853 0.33857 0.86985 0.0
H1729 H 0.76489 0.35408 0.85535 0.0
H1730 H 0.75196 0.37685 0.8917 0.0
H1731 H 0.76578 0.36141 0.90628 0.0
C1732 C 0.73984 0.39831 0.85668 0.0
C1733 C 0.73203 0.39237 0.84587 0.0
C1734 C 0.74787 0.38995 0.86544 0.0
C1735 C 0.7483 0.37551 0.86352 0.0
C1736 C 0.74027 0.36957 0.85291 0.0
C1737 C 0.73222 0.37789 0.84421 0.0
C1738 C 0.77287 0.34692 0.87478 0.0
C1739 C 0.77321 0.34868 0.88925 0.0
C1740 C 0.76496 0.35576 0.86646 0.0
C1741 C 0.75722 0.3666 0.87239 0.0
C1742 C 0.75786 0.36863 0.88682 0.0
C1743 C 0.76575 0.35975 0.89516 0.0
H1744 H 0.63049 0.72261 0.8389 0.0
H1745 H 0.59328 0.73546 0.86039 0.0
H1746 H 0.64433 0.7372 0.85417 0.0
H1747 H 0.60714 0.75027 0.87549 0.0
H1748 H 0.63881 0.76434 0.9085 0.0
H1749 H 0.6244 0.74959 0.89389 0.0
H1750 H 0.64829 0.7618 0.858 0.0
H1751 H 0.66289 0.77633 0.87262 0.0
C1752 C 0.62525 0.7285 0.84691 0.0
C1753 C 0.61075 0.72788 0.84839 0.0
C1754 C 0.63318 0.73697 0.85559 0.0
C1755 C 0.62682 0.74503 0.86595 0.0
C1756 C 0.61237 0.74413 0.86767 0.0
C1757 C 0.60442 0.73565 0.85899 0.0
C1758 C 0.64094 0.76397 0.89748 0.0
C1759 C 0.65206 0.77148 0.89175 0.0
C1760 C 0.63264 0.75553 0.8891 0.0
C1761 C 0.63526 0.75442 0.8748 0.0
C1762 C 0.64615 0.76221 0.86902 0.0
C1763 C 0.65445 0.77064 0.87739 0.0
H1764 H 0.75237 0.65015 0.09095 0.0
H1765 H 0.78523 0.64644 0.12119 0.0
H1766 H 0.73812 0.63402 0.10451 0.0
H1767 H 0.77112 0.63002 0.13446 0.0
H1768 H 0.74519 0.59021 0.1448 0.0
H1769 H 0.75898 0.60449 0.12896 0.0
H1770 H 0.72848 0.63711 0.1317 0.0
H1771 H 0.71481 0.62303 0.14787 0.0
C1772 C 0.75663 0.6457 0.10034 0.0
C1773 C 0.76989 0.64955 0.10504 0.0
C1774 C 0.74846 0.63655 0.1081 0.0
C1775 C 0.75357 0.63084 0.12048 0.0
C1776 C 0.76701 0.63427 0.1249 0.0
C1777 C 0.77504 0.64367 0.11734 0.0
C1778 C 0.74134 0.60036 0.14191 0.0
C1779 C 0.72893 0.60553 0.1476 0.0
C1780 C 0.74925 0.60852 0.1329 0.0
C1781 C 0.74473 0.62183 0.12916 0.0
C1782 C 0.7321 0.62682 0.13441 0.0
C1783 C 0.72433 0.6188 0.14368 0.0
H1784 H 0.33772 0.77609 0.12887 0.0
H1785 H 0.35697 0.76021 0.09161 0.0
H1786 H 0.35295 0.7617 0.14289 0.0
H1787 H 0.37213 0.74561 0.10573 0.0
H1788 H 0.40607 0.73297 0.13771 0.0
H1789 H 0.39139 0.74696 0.12256 0.0
H1790 H 0.35578 0.73699 0.14786 0.0
H1791 H 0.37042 0.72321 0.16312 0.0
C1792 C 0.34523 0.76956 0.12365 0.0
C1793 C 0.34607 0.76928 0.10909 0.0
C1794 C 0.35389 0.76122 0.1317 0.0
C1795 C 0.36363 0.75238 0.12542 0.0
C1796 C 0.36476 0.75235 0.11088 0.0
C1797 C 0.35606 0.7607 0.10279 0.0
C1798 C 0.39508 0.73366 0.13998 0.0
C1799 C 0.38945 0.72704 0.1517 0.0
C1800 C 0.38667 0.74165 0.13126 0.0
C1801 C 0.37246 0.74321 0.1341 0.0
C1802 C 0.36675 0.73622 0.14555 0.0
C1803 C 0.37514 0.72822 0.15425 0.0
H1804 H 0.66342 0.22175 0.12852 0.0
H1805 H 0.63871 0.23178 0.09247 0.0
H1806 H 0.6485 0.23632 0.14277 0.0
H1807 H 0.62393 0.24655 0.10673 0.0
H1808 H 0.59284 0.26101 0.14042 0.0
H1809 H 0.60685 0.24602 0.12557 0.0
H1810 H 0.64405 0.26105 0.1455 0.0
H1811 H 0.63012 0.27583 0.16046 0.0
C1812 C 0.65478 0.22701 0.12363 0.0
C1813 C 0.65231 0.22563 0.10933 0.0
C1814 C 0.64628 0.23545 0.13179 0.0
C1815 C 0.63512 0.24272 0.12585 0.0
C1816 C 0.6324 0.24103 0.11163 0.0
C1817 C 0.6409 0.23259 0.10346 0.0
C1818 C 0.60402 0.2612 0.14156 0.0
C1819 C 0.61034 0.26959 0.15169 0.0
C1820 C 0.61204 0.25262 0.13303 0.0
C1821 C 0.62655 0.25222 0.13446 0.0
C1822 C 0.63288 0.2609 0.14432 0.0
C1823 C 0.62488 0.26946 0.15283 0.0
H1824 H 0.90768 0.76716 0.63779 0.0
H1825 H 0.87191 0.77687 0.66304 0.0
H1826 H 0.89327 0.75253 0.62303 0.0
H1827 H 0.8575 0.76247 0.64813 0.0
H1828 H 0.83964 0.72313 0.62961 0.0
H1829 H 0.85472 0.73781 0.6435 0.0
H1830 H 0.8743 0.7531 0.6062 0.0
H1831 H 0.85934 0.73819 0.59225 0.0
C1832 C 0.89672 0.76633 0.6401 0.0
C1833 C 0.89098 0.77314 0.65166 0.0
C1834 C 0.88846 0.75796 0.63161 0.0
C1835 C 0.87427 0.75622 0.63449 0.0
C1836 C 0.86845 0.76337 0.64579 0.0
C1837 C 0.8767 0.77173 0.65428 0.0
C1838 C 0.84722 0.72953 0.62435 0.0
C1839 C 0.84823 0.7295 0.6098 0.0
C1840 C 0.85579 0.73804 0.63232 0.0
C1841 C 0.86559 0.74676 0.62595 0.0
C1842 C 0.8669 0.74646 0.61143 0.0
C1843 C 0.85831 0.73792 0.60343 0.0
H1844 H 0.22518 0.87158 0.66324 0.0
H1845 H 0.23801 0.9078 0.64013 0.0
H1846 H 0.23846 0.8569 0.6476 0.0
H1847 H 0.2515 0.89305 0.62458 0.0
H1848 H 0.27624 0.83687 0.62796 0.0
H1849 H 0.26293 0.85239 0.64274 0.0
H1850 H 0.24898 0.87497 0.60665 0.0
H1851 H 0.2625 0.85954 0.59179 0.0
C1852 C 0.2308 0.87643 0.65481 0.0
C1853 C 0.23056 0.8909 0.65299 0.0
C1854 C 0.2385 0.868 0.64589 0.0
C1855 C 0.24615 0.87382 0.63493 0.0
C1856 C 0.24565 0.88825 0.63288 0.0
C1857 C 0.23796 0.8967 0.64183 0.0
C1858 C 0.27041 0.84518 0.62315 0.0
C1859 C 0.27041 0.84691 0.60867 0.0
C1860 C 0.26269 0.85403 0.63163 0.0
C1861 C 0.25478 0.86482 0.62586 0.0
C1862 C 0.25503 0.86679 0.61141 0.0
C1863 C 0.26275 0.85791 0.6029 0.0
H1864 H 0.12263 0.21788 0.64787 0.0
H1865 H 0.08836 0.24681 0.64813 0.0
H1866 H 0.13513 0.23294 0.63166 0.0
H1867 H 0.10114 0.26198 0.63219 0.0
H1868 H 0.14724 0.28684 0.62467 0.0
H1869 H 0.13165 0.27235 0.63859 0.0
H1870 H 0.12476 0.24569 0.60337 0.0
H1871 H 0.14002 0.26031 0.58925 0.0
C1872 C 0.11774 0.22738 0.6444 0.0
C1873 C 0.10452 0.23116 0.64926 0.0
C1874 C 0.12487 0.23594 0.63514 0.0
C1875 C 0.11902 0.24852 0.63079 0.0
C1876 C 0.10577 0.25227 0.63544 0.0
C1877 C 0.09849 0.24357 0.64449 0.0
C1878 C 0.14222 0.27803 0.61983 0.0
C1879 C 0.14485 0.27471 0.60587 0.0
C1880 C 0.13332 0.2698 0.62778 0.0
C1881 C 0.12712 0.258 0.62197 0.0
C1882 C 0.12945 0.25481 0.60798 0.0
C1883 C 0.13812 0.26319 0.59994 0.0
H1884 H 0.77753 0.12919 0.66292 0.0
H1885 H 0.76388 0.09249 0.64106 0.0
H1886 H 0.7635 0.14352 0.64762 0.0
H1887 H 0.74967 0.10691 0.62583 0.0
H1888 H 0.73702 0.14014 0.59312 0.0
H1889 H 0.75128 0.12491 0.6075 0.0
H1890 H 0.73862 0.14757 0.64401 0.0
H1891 H 0.72455 0.16287 0.62972 0.0
C1892 C 0.7716 0.12416 0.65482 0.0
C1893 C 0.7718 0.10966 0.65328 0.0
C1894 C 0.76346 0.13239 0.64611 0.0
C1895 C 0.75534 0.12634 0.63562 0.0
C1896 C 0.75585 0.11188 0.63378 0.0
C1897 C 0.76397 0.10363 0.64254 0.0
C1898 C 0.7372 0.14181 0.60423 0.0
C1899 C 0.72969 0.15279 0.61025 0.0
C1900 C 0.74534 0.13306 0.61246 0.0
C1901 C 0.74619 0.13513 0.62687 0.0
C1902 C 0.7384 0.14587 0.63291 0.0
C1903 C 0.73024 0.15458 0.62471 0.0
H1904 H 0.90778 0.23945 0.35797 0.0
H1905 H 0.87022 0.22385 0.33907 0.0
H1906 H 0.89388 0.25436 0.37309 0.0
H1907 H 0.85646 0.23861 0.35417 0.0
H1908 H 0.83715 0.27803 0.37079 0.0
H1909 H 0.8523 0.26382 0.35645 0.0
H1910 H 0.8766 0.25309 0.39251 0.0
H1911 H 0.8615 0.26745 0.40694 0.0
C1912 C 0.89659 0.2391 0.35711 0.0
C1913 C 0.89014 0.23049 0.34724 0.0
C1914 C 0.88863 0.24762 0.36579 0.0
C1915 C 0.87409 0.24778 0.3647 0.0
C1916 C 0.86766 0.23892 0.35508 0.0
C1917 C 0.87557 0.23038 0.34649 0.0
C1918 C 0.84578 0.27276 0.37568 0.0
C1919 C 0.84804 0.27383 0.39005 0.0
C1920 C 0.85441 0.26453 0.36746 0.0
C1921 C 0.86554 0.25721 0.37338 0.0
C1922 C 0.86813 0.25865 0.38765 0.0
C1923 C 0.85944 0.26684 0.39591 0.0
H1924 H 0.76291 0.90757 0.36045 0.0
H1925 H 0.7768 0.87017 0.33993 0.0
H1926 H 0.74831 0.89362 0.37582 0.0
H1927 H 0.76234 0.85637 0.35529 0.0
H1928 H 0.72276 0.83789 0.37248 0.0
H1929 H 0.73703 0.85302 0.35822 0.0
H1930 H 0.74981 0.8756 0.39471 0.0
H1931 H 0.73539 0.86048 0.4091 0.0
C1932 C 0.76297 0.89639 0.35929 0.0
C1933 C 0.77097 0.89001 0.34889 0.0
C1934 C 0.75462 0.88842 0.36812 0.0
C1935 C 0.75406 0.87392 0.36664 0.0
C1936 C 0.76236 0.86754 0.3565 0.0
C1937 C 0.77073 0.87547 0.34776 0.0
C1938 C 0.72851 0.84613 0.3775 0.0
C1939 C 0.72798 0.8479 0.39196 0.0
C1940 C 0.73677 0.85475 0.36932 0.0
C1941 C 0.74467 0.86539 0.37537 0.0
C1942 C 0.7438 0.86751 0.38976 0.0
C1943 C 0.73557 0.85881 0.39799 0.0
H1944 H 0.16356 0.72426 0.37358 0.0
H1945 H 0.14111 0.73681 0.41033 0.0
H1946 H 0.14815 0.7383 0.35938 0.0
H1947 H 0.12572 0.75099 0.39601 0.0
H1948 H 0.09312 0.76313 0.36202 0.0
H1949 H 0.10755 0.74905 0.37742 0.0
H1950 H 0.14426 0.76345 0.35618 0.0
H1951 H 0.12997 0.77738 0.34077 0.0
C1952 C 0.1553 0.72995 0.37864 0.0
C1953 C 0.15364 0.72945 0.39312 0.0
C1954 C 0.14652 0.73808 0.3705 0.0
C1955 C 0.13582 0.74587 0.3766 0.0
C1956 C 0.13385 0.74506 0.39102 0.0
C1957 C 0.1427 0.73697 0.39921 0.0
C1958 C 0.10428 0.76338 0.36071 0.0
C1959 C 0.11037 0.77132 0.35009 0.0
C1960 C 0.11253 0.75534 0.36956 0.0
C1961 C 0.12702 0.75502 0.36789 0.0
C1962 C 0.1331 0.76328 0.35755 0.0
C1963 C 0.1249 0.77135 0.34878 0.0
H1964 H 0.21505 0.12384 0.34994 0.0
H1965 H 0.24425 0.0901 0.35419 0.0
H1966 H 0.22867 0.13761 0.36644 0.0
H1967 H 0.25803 0.10409 0.37031 0.0
H1968 H 0.28438 0.14683 0.37854 0.0
H1969 H 0.27045 0.13092 0.36443 0.0
H1970 H 0.23772 0.13241 0.39488 0.0
H1971 H 0.25178 0.14797 0.40927 0.0
C1972 C 0.22431 0.11936 0.35444 0.0
C1973 C 0.22858 0.1059 0.3508 0.0
C1974 C 0.23205 0.1272 0.36388 0.0
C1975 C 0.24434 0.12184 0.36956 0.0
C1976 C 0.24856 0.10838 0.36604 0.0
C1977 C 0.24066 0.10041 0.35687 0.0
C1978 C 0.27429 0.14361 0.38231 0.0
C1979 C 0.26917 0.14861 0.39501 0.0
C1980 C 0.26637 0.13452 0.37426 0.0
C1981 C 0.25306 0.13055 0.37862 0.0
C1982 C 0.24797 0.13538 0.39136 0.0
C1983 C 0.25603 0.1442 0.39958 0.0
H1984 H 0.66039 0.87148 0.77884 0.0
H1985 H 0.63738 0.90808 0.76688 0.0
H1986 H 0.64568 0.85738 0.76398 0.0
H1987 H 0.62271 0.89388 0.75186 0.0
H1988 H 0.59151 0.85974 0.73719 0.0
H1989 H 0.60503 0.87488 0.75238 0.0
H1990 H 0.64272 0.85495 0.73865 0.0
H1991 H 0.62932 0.83978 0.72362 0.0
C1992 C 0.65214 0.87652 0.77312 0.0
C1993 C 0.65014 0.89094 0.774 0.0
C1994 C 0.64377 0.86844 0.76452 0.0
C1995 C 0.63316 0.87455 0.7566 0.0
C1996 C 0.63079 0.88888 0.75786 0.0
C1997 C 0.63922 0.897 0.76644 0.0
C1998 C 0.60269 0.85867 0.73732 0.0
C1999 C 0.60931 0.84847 0.72924 0.0
C2000 C 0.61043 0.86737 0.746 0.0
C2001 C 0.62491 0.86597 0.74684 0.0
C2002 C 0.63155 0.85608 0.73844 0.0
C2003 C 0.62385 0.84746 0.72973 0.0
H2004 H 0.16076 0.62723 0.72538 0.0
H2005 H 0.13796 0.59103 0.73882 0.0
H2006 H 0.14566 0.6419 0.73928 0.0
H2007 H 0.1229 0.60581 0.75288 0.0
H2008 H 0.09073 0.63995 0.76478 0.0
H2009 H 0.10498 0.6243 0.75085 0.0
H2010 H 0.14183 0.646 0.76417 0.0
H2011 H 0.12767 0.66171 0.77795 0.0
C2012 C 0.15249 0.62239 0.73125 0.0
C2013 C 0.15063 0.60792 0.73102 0.0
C2014 C 0.1439 0.63081 0.7393 0.0
C2015 C 0.13319 0.625 0.7473 0.0
C2016 C 0.13103 0.61059 0.74678 0.0
C2017 C 0.13969 0.60213 0.73875 0.0
C2018 C 0.10188 0.64133 0.76482 0.0
C2019 C 0.10804 0.65215 0.77244 0.0
C2020 C 0.11004 0.63233 0.75686 0.0
C2021 C 0.12451 0.63401 0.7563 0.0
C2022 C 0.13068 0.6446 0.76419 0.0
C2023 C 0.12256 0.65354 0.77218 0.0
H2024 H 0.33586 0.12852 0.7741 0.0
H2025 H 0.35886 0.09211 0.76159 0.0
H2026 H 0.3511 0.14295 0.76012 0.0
H2027 H 0.37403 0.10662 0.74741 0.0
H2028 H 0.40645 0.14031 0.73534 0.0
H2029 H 0.39192 0.12491 0.74924 0.0
H2030 H 0.35542 0.1469 0.73542 0.0
H2031 H 0.36986 0.16238 0.72172 0.0
C2032 C 0.34418 0.12358 0.7684 0.0
C2033 C 0.34609 0.10913 0.76894 0.0
C2034 C 0.35286 0.13186 0.76029 0.0
C2035 C 0.36368 0.12592 0.75253 0.0
C2036 C 0.36582 0.11151 0.75332 0.0
C2037 C 0.3571 0.1032 0.76142 0.0
C2038 C 0.39532 0.14179 0.73519 0.0
C2039 C 0.38934 0.15265 0.72747 0.0
C2040 C 0.38699 0.13294 0.74312 0.0
C2041 C 0.37253 0.13477 0.74355 0.0
C2042 C 0.36655 0.14537 0.73553 0.0
C2043 C 0.37484 0.15419 0.72759 0.0
H2044 H 0.87591 0.33099 0.76181 0.0
H2045 H 0.90402 0.36486 0.76986 0.0
H2046 H 0.86185 0.34591 0.74731 0.0
H2047 H 0.88935 0.3803 0.75612 0.0
H2048 H 0.86651 0.40215 0.72101 0.0
H2049 H 0.8817 0.38697 0.73443 0.0
H2050 H 0.84591 0.36323 0.74756 0.0
H2051 H 0.8311 0.37775 0.73337 0.0
C2052 C 0.87893 0.34175 0.76066 0.0
C2053 C 0.891 0.3468 0.76703 0.0
C2054 C 0.87079 0.35039 0.75239 0.0
C2055 C 0.87426 0.36447 0.75059 0.0
C2056 C 0.88639 0.36951 0.75704 0.0
C2057 C 0.89476 0.36072 0.76503 0.0
C2058 C 0.86199 0.39358 0.72669 0.0
C2059 C 0.84766 0.39103 0.72603 0.0
C2060 C 0.87066 0.38493 0.73451 0.0
C2061 C 0.86514 0.37374 0.74213 0.0
C2062 C 0.85072 0.37142 0.74158 0.0
C2063 C 0.84214 0.37982 0.73349 0.0
H2064 H 0.63946 0.09223 0.2391 0.0
H2065 H 0.66012 0.1293 0.22463 0.0
H2066 H 0.62437 0.10639 0.25369 0.0
H2067 H 0.64493 0.14339 0.23901 0.0
H2068 H 0.62729 0.163 0.27783 0.0
H2069 H 0.64173 0.14785 0.26371 0.0
H2070 H 0.60566 0.12369 0.25262 0.0
H2071 H 0.5912 0.13871 0.26695 0.0
C2072 C 0.64069 0.10339 0.2389 0.0
C2073 C 0.65106 0.10961 0.23074 0.0
C2074 C 0.63202 0.1115 0.24725 0.0
C2075 C 0.63356 0.126 0.24763 0.0
C2076 C 0.64366 0.13223 0.23917 0.0
C2077 C 0.65231 0.12414 0.23084 0.0
C2078 C 0.62243 0.1544 0.27249 0.0
C2079 C 0.60806 0.15213 0.27349 0.0
C2080 C 0.6307 0.14577 0.2643 0.0
C2081 C 0.62481 0.13466 0.25691 0.0
C2082 C 0.61052 0.13211 0.25824 0.0
C2083 C 0.60223 0.14076 0.26643 0.0
H2084 H 0.90744 0.63623 0.23218 0.0
H2085 H 0.87233 0.66249 0.22274 0.0
H2086 H 0.89259 0.62162 0.24659 0.0
H2087 H 0.85753 0.64781 0.23697 0.0
H2088 H 0.83967 0.62983 0.27659 0.0
H2089 H 0.85516 0.64322 0.26189 0.0
H2090 H 0.87267 0.60533 0.24562 0.0
H2091 H 0.85723 0.59182 0.26051 0.0
C2092 C 0.89654 0.63881 0.23304 0.0
C2093 C 0.8911 0.6506 0.22637 0.0
C2094 C 0.88803 0.6304 0.24127 0.0
C2095 C 0.87393 0.63365 0.24304 0.0
C2096 C 0.86842 0.64518 0.23602 0.0
C2097 C 0.87689 0.65355 0.22778 0.0
C2098 C 0.84687 0.62431 0.26996 0.0
C2099 C 0.84715 0.60973 0.2697 0.0
C2100 C 0.85568 0.632 0.26145 0.0
C2101 C 0.86502 0.62533 0.25246 0.0
C2102 C 0.86562 0.61076 0.25247 0.0
C2103 C 0.85675 0.60303 0.26098 0.0
H2104 H 0.36027 0.91155 0.235 0.0
H2105 H 0.3387 0.87452 0.22178 0.0
H2106 H 0.37548 0.89741 0.24957 0.0
H2107 H 0.35391 0.86051 0.2362 0.0
H2108 H 0.37115 0.84203 0.27575 0.0
H2109 H 0.35708 0.85733 0.26147 0.0
H2110 H 0.39393 0.87903 0.24817 0.0
H2111 H 0.40813 0.86374 0.2626 0.0
C2112 C 0.35885 0.90041 0.23509 0.0
C2113 C 0.3482 0.89419 0.22727 0.0
C2114 C 0.36758 0.89232 0.24341 0.0
C2115 C 0.36577 0.87788 0.24416 0.0
C2116 C 0.35539 0.87164 0.23605 0.0
C2117 C 0.34673 0.87969 0.22769 0.0
C2118 C 0.37629 0.85012 0.26989 0.0
C2119 C 0.3908 0.85158 0.27026 0.0
C2120 C 0.36822 0.85883 0.26162 0.0
C2121 C 0.37442 0.86926 0.25355 0.0
C2122 C 0.38886 0.8711 0.2543 0.0
C2123 C 0.39699 0.86232 0.26254 0.0
H2124 H 0.16314 0.37468 0.2761 0.0
H2125 H 0.14009 0.41092 0.26316 0.0
H2126 H 0.1479 0.36007 0.26231 0.0
H2127 H 0.12488 0.39619 0.24921 0.0
H2128 H 0.0928 0.3616 0.23754 0.0
H2129 H 0.10702 0.37742 0.25135 0.0
H2130 H 0.144 0.35639 0.2373 0.0
H2131 H 0.1299 0.34056 0.22366 0.0
C2132 C 0.15479 0.37954 0.27037 0.0
C2133 C 0.1529 0.394 0.27069 0.0
C2134 C 0.14611 0.37116 0.26239 0.0
C2135 C 0.1353 0.377 0.25454 0.0
C2136 C 0.1331 0.3914 0.25518 0.0
C2137 C 0.14185 0.39982 0.26314 0.0
C2138 C 0.10397 0.36043 0.23731 0.0
C2139 C 0.11019 0.34973 0.22956 0.0
C2140 C 0.11211 0.36951 0.24519 0.0
C2141 C 0.12661 0.36803 0.24554 0.0
C2142 C 0.13283 0.35762 0.23745 0.0
C2143 C 0.12473 0.3486 0.22955 0.0
H2144 H 0.77683 0.66345 0.86971 0.0
H2145 H 0.76276 0.64253 0.90679 0.0
H2146 H 0.76258 0.64809 0.85564 0.0
H2147 H 0.74826 0.62736 0.8927 0.0
H2148 H 0.73526 0.59375 0.86136 0.0
H2149 H 0.74946 0.6087 0.87596 0.0
H2150 H 0.73831 0.64398 0.85068 0.0
H2151 H 0.72436 0.629 0.83588 0.0
C2152 C 0.77072 0.65557 0.87487 0.0
C2153 C 0.77094 0.65425 0.88939 0.0
C2154 C 0.76244 0.64683 0.8668 0.0
C2155 C 0.75417 0.63657 0.87305 0.0
C2156 C 0.75459 0.63508 0.88755 0.0
C2157 C 0.76289 0.6438 0.89563 0.0
C2158 C 0.73575 0.60471 0.85896 0.0
C2159 C 0.72871 0.61016 0.8474 0.0
C2160 C 0.74387 0.61329 0.86737 0.0
C2161 C 0.74512 0.62752 0.86443 0.0
C2162 C 0.73779 0.63302 0.85308 0.0
C2163 C 0.7297 0.62444 0.84465 0.0
H2164 H 0.76026 0.35544 0.09036 0.0
H2165 H 0.77601 0.33522 0.12715 0.0
H2166 H 0.74592 0.37049 0.10481 0.0
H2167 H 0.76188 0.35038 0.14154 0.0
H2168 H 0.72399 0.36872 0.1624 0.0
H2169 H 0.73746 0.3539 0.14701 0.0
H2170 H 0.74767 0.38941 0.12167 0.0
H2171 H 0.73399 0.40423 0.13691 0.0
C2172 C 0.76076 0.35428 0.10152 0.0
C2173 C 0.76926 0.34408 0.10758 0.0
C2174 C 0.75257 0.36293 0.1098 0.0
C2175 C 0.75267 0.36156 0.12432 0.0
C2176 C 0.76136 0.35153 0.13037 0.0
C2177 C 0.76955 0.34291 0.12211 0.0
C2178 C 0.729 0.37337 0.15349 0.0
C2179 C 0.72794 0.38768 0.15094 0.0
C2180 C 0.73682 0.36488 0.14472 0.0
C2181 C 0.74376 0.3705 0.13319 0.0
C2182 C 0.74238 0.38474 0.13041 0.0
C2183 C 0.73457 0.39324 0.13919 0.0
H2184 H 0.65971 0.77659 0.12932 0.0
H2185 H 0.63917 0.76295 0.09185 0.0
H2186 H 0.64435 0.76203 0.14303 0.0
H2187 H 0.62383 0.74825 0.10569 0.0
H2188 H 0.59063 0.73477 0.13854 0.0
H2189 H 0.60495 0.74946 0.12363 0.0
H2190 H 0.64149 0.73671 0.14618 0.0
H2191 H 0.62729 0.72217 0.16111 0.0
C2192 C 0.65187 0.77056 0.12399 0.0
C2193 C 0.65075 0.77089 0.10946 0.0
C2194 C 0.64312 0.76214 0.13186 0.0
C2195 C 0.633 0.75387 0.12542 0.0
C2196 C 0.63152 0.75454 0.11094 0.0
C2197 C 0.64033 0.76293 0.10302 0.0
C2198 C 0.60173 0.73501 0.14024 0.0
C2199 C 0.60779 0.72735 0.15109 0.0
C2200 C 0.60993 0.7434 0.13167 0.0
C2201 C 0.62431 0.74437 0.13386 0.0
C2202 C 0.63039 0.73639 0.14442 0.0
C2203 C 0.62225 0.72797 0.15291 0.0
H2204 H 0.26206 0.59156 0.14063 0.0
H2205 H 0.27608 0.62871 0.16147 0.0
H2206 H 0.24718 0.60558 0.12572 0.0
H2207 H 0.26139 0.64268 0.14643 0.0
H2208 H 0.22225 0.66182 0.12868 0.0
H2209 H 0.23663 0.6469 0.14313 0.0
H2210 H 0.24808 0.62288 0.10709 0.0
H2211 H 0.23351 0.63765 0.09262 0.0
C2212 C 0.26209 0.60271 0.14194 0.0
C2213 C 0.27024 0.60899 0.1523 0.0
C2214 C 0.25358 0.61075 0.13337 0.0
C2215 C 0.253 0.62523 0.13498 0.0
C2216 C 0.26139 0.63152 0.1451 0.0
C2217 C 0.26991 0.62351 0.15365 0.0
C2218 C 0.22773 0.65329 0.12383 0.0
C2219 C 0.22676 0.65098 0.10947 0.0
C2220 C 0.23607 0.64481 0.13211 0.0
C2221 C 0.24362 0.6338 0.12623 0.0
C2222 C 0.24234 0.63122 0.11194 0.0
C2223 C 0.23401 0.63972 0.10365 0.0
H2224 H 0.36542 0.23634 0.09035 0.0
H2225 H 0.3422 0.22376 0.1266 0.0
H2226 H 0.38032 0.25074 0.10498 0.0
H2227 H 0.3571 0.23804 0.1411 0.0
H2228 H 0.4115 0.26421 0.1399 0.0
H2229 H 0.39798 0.24935 0.12437 0.0
H2230 H 0.36018 0.2635 0.14379 0.0
H2231 H 0.37355 0.27822 0.15928 0.0
C2232 C 0.36358 0.23651 0.10143 0.0
C2233 C 0.35253 0.22896 0.10728 0.0
C2234 C 0.37214 0.24474 0.1098 0.0
C2235 C 0.36976 0.24565 0.12415 0.0
C2236 C 0.35903 0.23774 0.13004 0.0
C2237 C 0.35054 0.22948 0.12172 0.0
C2238 C 0.4003 0.26422 0.14078 0.0
C2239 C 0.39363 0.27235 0.15091 0.0
C2240 C 0.39257 0.25574 0.13187 0.0
C2241 C 0.37805 0.25514 0.13299 0.0
C2242 C 0.37138 0.26354 0.14285 0.0
C2243 C 0.37906 0.27206 0.15167 0.0
H2244 H 0.27705 0.37103 0.8414 0.0
H2245 H 0.26478 0.4084 0.86295 0.0
H2246 H 0.26227 0.3574 0.85661 0.0
H2247 H 0.24986 0.39464 0.87817 0.0
H2248 H 0.23606 0.361 0.91071 0.0
H2249 H 0.25078 0.37609 0.8966 0.0
H2250 H 0.23684 0.35503 0.85961 0.0
H2251 H 0.22227 0.33994 0.87359 0.0
C2252 C 0.27128 0.37635 0.84943 0.0
C2253 C 0.27205 0.39084 0.85088 0.0
C2254 C 0.26272 0.36853 0.85809 0.0
C2255 C 0.25476 0.37498 0.86845 0.0
C2256 C 0.25589 0.3894 0.87028 0.0
C2257 C 0.26442 0.39727 0.86155 0.0
C2258 C 0.23603 0.35969 0.89955 0.0
C2259 C 0.22806 0.34917 0.8933 0.0
C2260 C 0.24444 0.36835 0.89148 0.0
C2261 C 0.2451 0.3666 0.87703 0.0
C2262 C 0.23675 0.35644 0.87076 0.0
C2263 C 0.22832 0.34785 0.87878 0.0
H2264 H 0.64024 0.23477 0.90829 0.0
H2265 H 0.6647 0.22381 0.87233 0.0
H2266 H 0.62543 0.24927 0.89375 0.0
H2267 H 0.64979 0.23813 0.85785 0.0
H2268 H 0.63197 0.27771 0.83973 0.0
H2269 H 0.6457 0.26307 0.85499 0.0
H2270 H 0.60826 0.24829 0.87466 0.0
H2271 H 0.59443 0.26312 0.85947 0.0
C2272 C 0.64238 0.23532 0.89727 0.0
C2273 C 0.65373 0.22819 0.8915 0.0
C2274 C 0.63385 0.2436 0.88894 0.0
C2275 C 0.63653 0.24497 0.87468 0.0
C2276 C 0.64762 0.2375 0.86885 0.0
C2277 C 0.65611 0.22921 0.87715 0.0
C2278 C 0.62663 0.27143 0.84736 0.0
C2279 C 0.61207 0.27156 0.84832 0.0
C2280 C 0.63451 0.26294 0.85604 0.0
C2281 C 0.62806 0.25439 0.86591 0.0
C2282 C 0.61354 0.25481 0.86718 0.0
C2283 C 0.60562 0.26329 0.85846 0.0
H2284 H 0.34039 0.77607 0.87287 0.0
H2285 H 0.3641 0.76516 0.90935 0.0
H2286 H 0.35559 0.76175 0.85872 0.0
H2287 H 0.37928 0.75069 0.89509 0.0
H2288 H 0.41086 0.73754 0.86048 0.0
H2289 H 0.39681 0.75203 0.87585 0.0
H2290 H 0.35957 0.73651 0.8564 0.0
H2291 H 0.37349 0.72216 0.84103 0.0
C2292 C 0.34889 0.7707 0.87788 0.0
C2293 C 0.35096 0.77171 0.89228 0.0
C2294 C 0.35754 0.7624 0.86977 0.0
C2295 C 0.36851 0.75495 0.87582 0.0
C2296 C 0.37092 0.75633 0.89013 0.0
C2297 C 0.3622 0.7646 0.89829 0.0
C2298 C 0.39967 0.73713 0.85957 0.0
C2299 C 0.39332 0.72876 0.84944 0.0
C2300 C 0.39164 0.74541 0.8684 0.0
C2301 C 0.37711 0.74554 0.86719 0.0
C2302 C 0.37076 0.73683 0.85739 0.0
C2303 C 0.37876 0.72853 0.84864 0.0
H2304 H 0.08957 0.21869 0.27269 0.0
H2305 H 0.06627 0.24744 0.29798 0.0
H2306 H 0.08836 0.23484 0.25327 0.0
H2307 H 0.06558 0.26378 0.27888 0.0
H2308 H 0.05942 0.28882 0.24055 0.0
H2309 H 0.05705 0.26966 0.25684 0.0
H2310 H 0.09857 0.25603 0.24673 0.0
H2311 H 0.10066 0.27477 0.23003 0.0
C2312 C 0.08414 0.22843 0.27409 0.0
C2313 C 0.07809 0.2318 0.28692 0.0
C2314 C 0.08352 0.23774 0.26298 0.0
C2315 C 0.07698 0.25071 0.26449 0.0
C2316 C 0.07053 0.25384 0.2772 0.0
C2317 C 0.071 0.24447 0.28824 0.0
C2318 C 0.06796 0.28161 0.24168 0.0
C2319 C 0.08026 0.28338 0.23406 0.0
C2320 C 0.06665 0.27066 0.2511 0.0
C2321 C 0.07767 0.26133 0.25327 0.0
C2322 C 0.08978 0.26285 0.24525 0.0
C2323 C 0.09102 0.27368 0.2357 0.0
H2324 H 0.75101 0.0645 0.29812 0.0
H2325 H 0.78103 0.08557 0.27237 0.0
H2326 H 0.73491 0.06372 0.27877 0.0
H2327 H 0.76511 0.0843 0.25278 0.0
H2328 H 0.70999 0.0576 0.24035 0.0
H2329 H 0.72896 0.05475 0.2568 0.0
H2330 H 0.74441 0.09541 0.24591 0.0
H2331 H 0.72583 0.09799 0.2291 0.0
C2332 C 0.7543 0.0687 0.28823 0.0
C2333 C 0.76725 0.07523 0.28684 0.0
C2334 C 0.74507 0.06818 0.27707 0.0
C2335 C 0.74863 0.07404 0.26418 0.0
C2336 C 0.76189 0.07994 0.26261 0.0
C2337 C 0.77106 0.08059 0.27383 0.0
C2338 C 0.71757 0.06584 0.24133 0.0
C2339 C 0.71633 0.07807 0.23349 0.0
C2340 C 0.7284 0.06425 0.25083 0.0
C2341 C 0.73817 0.0749 0.25284 0.0
C2342 C 0.73722 0.08689 0.24456 0.0
C2343 C 0.72649 0.08842 0.23495 0.0
H2344 H 0.91539 0.7287 0.21665 0.0
H2345 H 0.93632 0.70254 0.24641 0.0
H2346 H 0.91716 0.74824 0.23259 0.0
H2347 H 0.93758 0.72183 0.26254 0.0
H2348 H 0.94429 0.75981 0.28775 0.0
H2349 H 0.9469 0.74361 0.26854 0.0
H2350 H 0.90629 0.75519 0.25339 0.0
H2351 H 0.90397 0.77175 0.27223 0.0
C2352 C 0.92045 0.72714 0.22656 0.0
C2353 C 0.92561 0.71403 0.23031 0.0
C2354 C 0.92139 0.73833 0.23575 0.0
C2355 C 0.92738 0.73662 0.24895 0.0
C2356 C 0.93306 0.72363 0.25242 0.0
C2357 C 0.93226 0.7125 0.24318 0.0
C2358 C 0.93602 0.75904 0.28018 0.0
C2359 C 0.92387 0.76698 0.28159 0.0
C2360 C 0.93747 0.74969 0.26921 0.0
C2361 C 0.92674 0.74792 0.25947 0.0
C2362 C 0.91486 0.75635 0.26056 0.0
C2363 C 0.91348 0.76582 0.27144 0.0
H2364 H 0.24721 0.93547 0.29304 0.0
H2365 H 0.21826 0.91256 0.26764 0.0
H2366 H 0.26286 0.93749 0.27345 0.0
H2367 H 0.23368 0.91511 0.24777 0.0
H2368 H 0.27367 0.90394 0.22378 0.0
H2369 H 0.25488 0.90545 0.24047 0.0
H2370 H 0.26804 0.94687 0.25156 0.0
H2371 H 0.28726 0.94506 0.23524 0.0
C2372 C 0.24404 0.93113 0.28318 0.0
C2373 C 0.23156 0.92371 0.28195 0.0
C2374 C 0.25299 0.93238 0.27187 0.0
C2375 C 0.24962 0.92638 0.25899 0.0
C2376 C 0.23677 0.9196 0.25759 0.0
C2377 C 0.22788 0.91821 0.26896 0.0
C2378 C 0.27244 0.91345 0.22962 0.0
C2379 C 0.28207 0.92431 0.22831 0.0
C2380 C 0.26158 0.91437 0.23917 0.0
C2381 C 0.25998 0.92624 0.24752 0.0
C2382 C 0.26914 0.93744 0.24556 0.0
C2383 C 0.28011 0.93645 0.23614 0.0
H2384 H 0.06369 0.70981 0.75633 0.0
H2385 H 0.09351 0.73096 0.78227 0.0
H2386 H 0.06343 0.7294 0.74058 0.0
H2387 H 0.09289 0.75088 0.76668 0.0
H2388 H 0.10325 0.77234 0.72469 0.0
H2389 H 0.10126 0.75621 0.74401 0.0
H2390 H 0.05717 0.75279 0.7366 0.0
H2391 H 0.05928 0.7685 0.71696 0.0
C2392 C 0.06999 0.71877 0.75884 0.0
C2393 C 0.07872 0.71874 0.7705 0.0
C2394 C 0.06977 0.73009 0.74982 0.0
C2395 C 0.0782 0.74174 0.75229 0.0
C2396 C 0.08645 0.74199 0.76432 0.0
C2397 C 0.08674 0.7306 0.77331 0.0
C2398 C 0.0931 0.76831 0.72733 0.0
C2399 C 0.08146 0.77154 0.71917 0.0
C2400 C 0.09193 0.7591 0.73847 0.0
C2401 C 0.07907 0.75303 0.74178 0.0
C2402 C 0.06729 0.75699 0.73415 0.0
C2403 C 0.06849 0.76607 0.72292 0.0
H2404 H 0.2709 0.09492 0.77378 0.0
H2405 H 0.28839 0.0559 0.7603 0.0
H2406 H 0.25193 0.09208 0.75747 0.0
H2407 H 0.26907 0.05278 0.74431 0.0
H2408 H 0.21536 0.08198 0.73126 0.0
H2409 H 0.2316 0.08011 0.75054 0.0
H2410 H 0.26233 0.06274 0.72288 0.0
H2411 H 0.24596 0.06412 0.7038 0.0
C2412 C 0.27053 0.08557 0.76756 0.0
C2413 C 0.28126 0.07573 0.76822 0.0
C2414 C 0.25957 0.08389 0.75823 0.0
C2415 C 0.25899 0.07225 0.74944 0.0
C2416 C 0.26933 0.06202 0.7507 0.0
C2417 C 0.28037 0.06377 0.75993 0.0
C2418 C 0.22551 0.07754 0.72936 0.0
C2419 C 0.22941 0.07333 0.71596 0.0
C2420 C 0.23485 0.07655 0.7404 0.0
C2421 C 0.24836 0.07144 0.73827 0.0
C2422 C 0.25199 0.06659 0.72499 0.0
C2423 C 0.24261 0.06746 0.71399 0.0
H2424 H 0.90187 0.27277 0.77225 0.0
H2425 H 0.94268 0.28744 0.76096 0.0
H2426 H 0.90406 0.25388 0.75577 0.0
H2427 H 0.9452 0.26809 0.7449 0.0
H2428 H 0.93502 0.24623 0.70366 0.0
H2429 H 0.9364 0.26221 0.72304 0.0
H2430 H 0.9142 0.23294 0.74879 0.0
H2431 H 0.91225 0.21721 0.7291 0.0
C2432 C 0.91147 0.27176 0.76649 0.0
C2433 C 0.92203 0.28171 0.76779 0.0
C2434 C 0.91278 0.26084 0.75707 0.0
C2435 C 0.92476 0.25948 0.74884 0.0
C2436 C 0.93568 0.26898 0.75079 0.0
C2437 C 0.93428 0.28003 0.76007 0.0
C2438 C 0.93058 0.24311 0.71351 0.0
C2439 C 0.92338 0.23051 0.71479 0.0
C2440 C 0.93146 0.25226 0.7247 0.0
C2441 C 0.92532 0.24896 0.73753 0.0
C2442 C 0.91878 0.23599 0.739 0.0
C2443 C 0.91773 0.22692 0.72773 0.0
H2444 H 0.7055 0.93475 0.75666 0.0
H2445 H 0.72904 0.90907 0.78486 0.0
H2446 H 0.72518 0.93565 0.741 0.0
H2447 H 0.74902 0.91043 0.76942 0.0
H2448 H 0.77241 0.89911 0.72901 0.0
H2449 H 0.75569 0.90102 0.74779 0.0
H2450 H 0.74777 0.94367 0.73639 0.0
H2451 H 0.76408 0.94152 0.71722 0.0
C2452 C 0.71499 0.92953 0.75967 0.0
C2453 C 0.71564 0.92172 0.77195 0.0
C2454 C 0.72635 0.93012 0.75071 0.0
C2455 C 0.73873 0.92305 0.75387 0.0
C2456 C 0.73958 0.91578 0.7665 0.0
C2457 C 0.72815 0.91507 0.77541 0.0
C2458 C 0.76726 0.90896 0.73064 0.0
C2459 C 0.76944 0.9201 0.72151 0.0
C2460 C 0.7577 0.9101 0.74148 0.0
C2461 C 0.75022 0.92247 0.74355 0.0
C2462 C 0.75307 0.93388 0.73491 0.0
C2463 C 0.7625 0.93268 0.72397 0.0
H2464 H 0.24611 0.06459 0.29348 0.0
H2465 H 0.21818 0.09096 0.27042 0.0
H2466 H 0.26186 0.06401 0.27394 0.0
H2467 H 0.23365 0.0898 0.25043 0.0
H2468 H 0.27364 0.10106 0.22673 0.0
H2469 H 0.25492 0.09893 0.24343 0.0
H2470 H 0.26715 0.05656 0.25169 0.0
H2471 H 0.28641 0.05903 0.23551 0.0
C2472 C 0.24317 0.07002 0.2841 0.0
C2473 C 0.23094 0.07793 0.28356 0.0
C2474 C 0.25219 0.0696 0.27279 0.0
C2475 C 0.24912 0.0769 0.26053 0.0
C2476 C 0.23653 0.08429 0.25977 0.0
C2477 C 0.22759 0.08488 0.2712 0.0
C2478 C 0.27222 0.09122 0.23199 0.0
C2479 C 0.2816 0.08026 0.22993 0.0
C2480 C 0.26139 0.08996 0.24153 0.0
C2481 C 0.25953 0.07761 0.24909 0.0
C2482 C 0.26845 0.06636 0.24637 0.0
C2483 C 0.27944 0.06772 0.23701 0.0
H2484 H 0.9348 0.29177 0.24399 0.0
H2485 H 0.90623 0.26999 0.21719 0.0
H2486 H 0.93531 0.27207 0.25956 0.0
H2487 H 0.90721 0.24989 0.23254 0.0
H2488 H 0.89675 0.22714 0.27362 0.0
H2489 H 0.89868 0.24354 0.25456 0.0
H2490 H 0.9422 0.2492 0.26389 0.0
H2491 H 0.94004 0.2333 0.28338 0.0
C2492 C 0.92885 0.28264 0.24125 0.0
C2493 C 0.92037 0.28252 0.2294 0.0
C2494 C 0.92922 0.27125 0.25016 0.0
C2495 C 0.92126 0.25934 0.24738 0.0
C2496 C 0.91327 0.25897 0.23516 0.0
C2497 C 0.91278 0.27046 0.22631 0.0
C2498 C 0.90678 0.23172 0.27146 0.0
C2499 C 0.91819 0.22908 0.28012 0.0
C2500 C 0.90792 0.2411 0.26046 0.0
C2501 C 0.92056 0.24789 0.25775 0.0
C2502 C 0.9322 0.24448 0.26587 0.0
C2503 C 0.931 0.23528 0.277 0.0
H2504 H 0.77321 0.89861 0.27424 0.0
H2505 H 0.76533 0.94087 0.28688 0.0
H2506 H 0.75665 0.90114 0.2554 0.0
H2507 H 0.74918 0.94363 0.26766 0.0
H2508 H 0.70691 0.93558 0.24703 0.0
H2509 H 0.72651 0.93593 0.26278 0.0
H2510 H 0.75025 0.91115 0.2339 0.0
H2511 H 0.73033 0.91035 0.21833 0.0
C2512 C 0.76819 0.90855 0.27279 0.0
C2513 C 0.77045 0.91948 0.28217 0.0
C2514 C 0.75872 0.91004 0.26191 0.0
C2515 C 0.75141 0.92255 0.26006 0.0
C2516 C 0.75434 0.93374 0.26896 0.0
C2517 C 0.76368 0.93219 0.27994 0.0
C2518 C 0.71635 0.93035 0.24394 0.0
C2519 C 0.71699 0.92282 0.23147 0.0
C2520 C 0.72768 0.93062 0.25296 0.0
C2521 C 0.74 0.9235 0.24968 0.0
C2522 C 0.74085 0.91653 0.23689 0.0
C2523 C 0.72946 0.91614 0.22791 0.0
H2524 H 0.06562 0.70513 0.24685 0.0
H2525 H 0.09033 0.73003 0.21896 0.0
H2526 H 0.06484 0.72416 0.26325 0.0
H2527 H 0.089 0.74943 0.23514 0.0
H2528 H 0.10078 0.77203 0.2756 0.0
H2529 H 0.09872 0.75569 0.25655 0.0
H2530 H 0.05675 0.74621 0.26925 0.0
H2531 H 0.05912 0.76211 0.28875 0.0
C2532 C 0.07063 0.7148 0.24407 0.0
C2533 C 0.07815 0.71601 0.23164 0.0
C2534 C 0.0701 0.72579 0.25347 0.0
C2535 C 0.07692 0.73838 0.25062 0.0
C2536 C 0.08387 0.73981 0.23785 0.0
C2537 C 0.08456 0.72872 0.22851 0.0
C2538 C 0.09105 0.76658 0.27424 0.0
C2539 C 0.08017 0.76825 0.28378 0.0
C2540 C 0.08982 0.75724 0.26322 0.0
C2541 C 0.07759 0.74948 0.26136 0.0
C2542 C 0.06644 0.75173 0.27052 0.0
C2543 C 0.06776 0.76092 0.28167 0.0
H2544 H 0.22144 0.91009 0.73192 0.0
H2545 H 0.24885 0.936 0.70771 0.0
H2546 H 0.23737 0.91157 0.7515 0.0
H2547 H 0.26498 0.93702 0.72697 0.0
H2548 H 0.28955 0.9431 0.76551 0.0
H2549 H 0.27013 0.94505 0.74946 0.0
H2550 H 0.25925 0.9023 0.75755 0.0
H2551 H 0.27826 0.90057 0.77401 0.0
C2552 C 0.23081 0.91617 0.7308 0.0
C2553 C 0.2339 0.92284 0.71821 0.0
C2554 C 0.24001 0.91695 0.742 0.0
C2555 C 0.25256 0.92431 0.74082 0.0
C2556 C 0.25535 0.93141 0.72839 0.0
C2557 C 0.24611 0.93075 0.71726 0.0
C2558 C 0.28288 0.93418 0.764 0.0
C2559 C 0.28553 0.92165 0.77095 0.0
C2560 C 0.27179 0.93527 0.75472 0.0
C2561 C 0.26318 0.92379 0.75204 0.0
C2562 C 0.26551 0.91142 0.75945 0.0
C2563 C 0.2765 0.9104 0.76885 0.0
H2564 H 0.05795 0.23309 0.71515 0.0
H2565 H 0.10152 0.22759 0.72413 0.0
H2566 H 0.05584 0.24877 0.73483 0.0
H2567 H 0.09954 0.24363 0.74351 0.0
H2568 H 0.09153 0.26847 0.7819 0.0
H2569 H 0.09053 0.2488 0.76603 0.0
H2570 H 0.06299 0.27195 0.73926 0.0
H2571 H 0.06364 0.29135 0.75528 0.0
C2572 C 0.06706 0.23514 0.72139 0.0
C2573 C 0.07994 0.22921 0.71797 0.0
C2574 C 0.06587 0.2442 0.73264 0.0
C2575 C 0.07755 0.24764 0.74066 0.0
C2576 C 0.09028 0.24114 0.73766 0.0
C2577 C 0.09144 0.23197 0.72648 0.0
C2578 C 0.08509 0.26927 0.77274 0.0
C2579 C 0.07776 0.28154 0.76982 0.0
C2580 C 0.08458 0.25802 0.76359 0.0
C2581 C 0.07678 0.25881 0.75129 0.0
C2582 C 0.06897 0.27086 0.74871 0.0
C2583 C 0.06941 0.28206 0.75788 0.0
H2584 H 0.7301 0.09008 0.78294 0.0
H2585 H 0.70532 0.06564 0.75472 0.0
H2586 H 0.74983 0.08819 0.76721 0.0
H2587 H 0.72467 0.06432 0.73875 0.0
H2588 H 0.76272 0.05774 0.71385 0.0
H2589 H 0.74657 0.05575 0.73319 0.0
H2590 H 0.7569 0.0975 0.74596 0.0
H2591 H 0.77351 0.09914 0.72712 0.0
C2592 C 0.72888 0.08426 0.7734 0.0
C2593 C 0.71612 0.07809 0.77005 0.0
C2594 C 0.74017 0.08325 0.76433 0.0
C2595 C 0.73888 0.0762 0.7516 0.0
C2596 C 0.72621 0.06964 0.74852 0.0
C2597 C 0.71502 0.07048 0.75767 0.0
C2598 C 0.76168 0.06639 0.72094 0.0
C2599 C 0.76931 0.07863 0.71889 0.0
C2600 C 0.75234 0.0653 0.73198 0.0
C2601 C 0.75023 0.07653 0.74109 0.0
C2602 C 0.75833 0.08855 0.73933 0.0
C2603 C 0.76782 0.08954 0.72844 0.0
H2604 H 0.94236 0.70954 0.7592 0.0
H2605 H 0.90358 0.72735 0.77291 0.0
H2606 H 0.94548 0.72878 0.7431 0.0
H2607 H 0.90632 0.74615 0.75644 0.0
H2608 H 0.91604 0.78259 0.73009 0.0
H2609 H 0.91781 0.76632 0.74935 0.0
H2610 H 0.93609 0.73594 0.72185 0.0
H2611 H 0.93493 0.75243 0.70287 0.0
C2612 C 0.93453 0.7176 0.75883 0.0
C2613 C 0.92267 0.71686 0.76727 0.0
C2614 C 0.93627 0.7286 0.74952 0.0
C2615 C 0.9261 0.739 0.74831 0.0
C2616 C 0.91451 0.7385 0.75717 0.0
C2617 C 0.91287 0.72762 0.76659 0.0
C2618 C 0.92064 0.77251 0.72824 0.0
C2619 C 0.92524 0.76876 0.71493 0.0
C2620 C 0.92157 0.76313 0.73926 0.0
C2621 C 0.92692 0.7497 0.73717 0.0
C2622 C 0.93207 0.74621 0.72396 0.0
C2623 C 0.93133 0.75566 0.71301 0.0
H2624 H 0.23787 0.28644 0.05811 0.0
H2625 H 0.22797 0.27194 0.09933 0.0
H2626 H 0.25464 0.26771 0.05555 0.0
H2627 H 0.24514 0.25367 0.09708 0.0
H2628 H 0.27292 0.21772 0.08844 0.0
H2629 H 0.2527 0.23284 0.08702 0.0
H2630 H 0.27688 0.26281 0.06401 0.0
H2631 H 0.29678 0.24746 0.06489 0.0
C2632 C 0.23922 0.2792 0.06659 0.0
C2633 C 0.23167 0.28075 0.07896 0.0
C2634 C 0.24891 0.26851 0.06517 0.0
C2635 C 0.25144 0.25924 0.07617 0.0
C2636 C 0.24341 0.26045 0.0883 0.0
C2637 C 0.23358 0.27101 0.08964 0.0
C2638 C 0.27383 0.22746 0.08291 0.0
C2639 C 0.28649 0.23142 0.07686 0.0
C2640 C 0.26226 0.23618 0.08216 0.0
C2641 C 0.26313 0.24914 0.0755 0.0
C2642 C 0.27568 0.25284 0.06904 0.0
C2643 C 0.28717 0.24405 0.06963 0.0
H2644 H 0.23803 0.71234 0.94211 0.0
H2645 H 0.22881 0.72515 0.90018 0.0
H2646 H 0.25421 0.73159 0.94445 0.0
H2647 H 0.2454 0.74401 0.90226 0.0
H2648 H 0.29597 0.75286 0.93545 0.0
H2649 H 0.27658 0.73685 0.93627 0.0
H2650 H 0.2519 0.76545 0.91207 0.0
H2651 H 0.27161 0.78124 0.91077 0.0
C2652 C 0.2394 0.71932 0.93342 0.0
C2653 C 0.23222 0.71714 0.92092 0.0
C2654 C 0.24876 0.73031 0.93472 0.0
C2655 C 0.2513 0.73929 0.92349 0.0
C2656 C 0.24363 0.73745 0.9112 0.0
C2657 C 0.23414 0.72656 0.90997 0.0
C2658 C 0.28637 0.75583 0.93044 0.0
C2659 C 0.2854 0.76827 0.92293 0.0
C2660 C 0.27516 0.74666 0.93098 0.0
C2661 C 0.26264 0.74978 0.92416 0.0
C2662 C 0.26146 0.76256 0.91721 0.0
C2663 C 0.27274 0.77167 0.91654 0.0
H2664 H 0.24564 0.29268 0.93576 0.0
H2665 H 0.21921 0.26965 0.90784 0.0
H2666 H 0.26203 0.27363 0.93607 0.0
H2667 H 0.23538 0.25021 0.90863 0.0
H2668 H 0.27662 0.22856 0.89752 0.0
H2669 H 0.25737 0.24468 0.89968 0.0
H2670 H 0.26757 0.25103 0.9429 0.0
H2671 H 0.28728 0.23539 0.94049 0.0
C2672 C 0.24317 0.28341 0.92991 0.0
C2673 C 0.23117 0.28276 0.92167 0.0
C2674 C 0.25256 0.2724 0.93016 0.0
C2675 C 0.25012 0.26034 0.92231 0.0
C2676 C 0.23776 0.25943 0.91458 0.0
C2677 C 0.22843 0.27054 0.9142 0.0
C2678 C 0.27465 0.23327 0.90753 0.0
C2679 C 0.28357 0.23082 0.91879 0.0
C2680 C 0.26353 0.24247 0.90881 0.0
C2681 C 0.26093 0.2493 0.92144 0.0
C2682 C 0.26943 0.24624 0.93291 0.0
C2683 C 0.28069 0.2372 0.93157 0.0
H2684 H 0.70663 0.24707 0.93562 0.0
H2685 H 0.73247 0.21812 0.9132 0.0
H2686 H 0.72565 0.26348 0.93648 0.0
H2687 H 0.75184 0.23432 0.91464 0.0
H2688 H 0.77478 0.27421 0.90171 0.0
H2689 H 0.75844 0.25521 0.90415 0.0
H2690 H 0.74737 0.26998 0.94504 0.0
H2691 H 0.76328 0.28942 0.94225 0.0
C2692 C 0.7165 0.24406 0.93115 0.0
C2693 C 0.71798 0.23134 0.92421 0.0
C2694 C 0.72749 0.25347 0.93173 0.0
C2695 C 0.74033 0.25032 0.92555 0.0
C2696 C 0.74203 0.23725 0.91925 0.0
C2697 C 0.73095 0.22791 0.9185 0.0
C2698 C 0.76898 0.27331 0.9113 0.0
C2699 C 0.77021 0.28342 0.92172 0.0
C2700 C 0.75965 0.26233 0.91275 0.0
C2701 C 0.75144 0.26106 0.92476 0.0
C2702 C 0.75325 0.27078 0.9355 0.0
C2703 C 0.76244 0.28189 0.93396 0.0
H2704 H 0.73006 0.78323 0.91523 0.0
H2705 H 0.70479 0.75286 0.93638 0.0
H2706 H 0.74994 0.76767 0.91665 0.0
H2707 H 0.7244 0.7371 0.93726 0.0
H2708 H 0.76276 0.7123 0.94291 0.0
H2709 H 0.74638 0.73129 0.94608 0.0
H2710 H 0.75709 0.74716 0.90551 0.0
H2711 H 0.77384 0.72857 0.90265 0.0
C2712 C 0.72877 0.77327 0.92026 0.0
C2713 C 0.71581 0.76923 0.92559 0.0
C2714 C 0.74015 0.7643 0.921 0.0
C2715 C 0.73878 0.75103 0.92692 0.0
C2716 C 0.72595 0.74728 0.93279 0.0
C2717 C 0.71463 0.75631 0.9322 0.0
C2718 C 0.76176 0.71999 0.93477 0.0
C2719 C 0.76951 0.71886 0.92248 0.0
C2720 C 0.75231 0.73084 0.93655 0.0
C2721 C 0.75024 0.7407 0.92599 0.0
C2722 C 0.75848 0.73989 0.91396 0.0
C2723 C 0.76806 0.72916 0.91227 0.0
H2724 H 0.77162 0.72343 0.10397 0.0
H2725 H 0.76799 0.71779 0.05968 0.0
H2726 H 0.7554 0.74275 0.10286 0.0
H2727 H 0.75224 0.73749 0.05843 0.0
H2728 H 0.70918 0.75662 0.06543 0.0
H2729 H 0.72887 0.74103 0.06464 0.0
H2730 H 0.74977 0.76569 0.09572 0.0
H2731 H 0.72972 0.78109 0.09688 0.0
C2732 C 0.76763 0.72654 0.09394 0.0
C2733 C 0.77092 0.71896 0.08195 0.0
C2734 C 0.75836 0.73769 0.09328 0.0
C2735 C 0.75232 0.74159 0.08057 0.0
C2736 C 0.75639 0.73455 0.06845 0.0
C2737 C 0.76549 0.72331 0.06914 0.0
C2738 C 0.71803 0.75885 0.07199 0.0
C2739 C 0.7178 0.77005 0.08131 0.0
C2740 C 0.72941 0.74993 0.07146 0.0
C2741 C 0.74095 0.75204 0.08015 0.0
C2742 C 0.74098 0.76361 0.08905 0.0
C2743 C 0.72951 0.77249 0.08965 0.0
H2744 H 0.24527 0.70479 0.0646 0.0
H2745 H 0.21595 0.72927 0.08808 0.0
H2746 H 0.261 0.72442 0.06372 0.0
H2747 H 0.2315 0.74916 0.08673 0.0
H2748 H 0.27149 0.77254 0.09946 0.0
H2749 H 0.25273 0.75587 0.09709 0.0
H2750 H 0.26606 0.74682 0.05523 0.0
H2751 H 0.28518 0.76312 0.05785 0.0
C2752 C 0.24204 0.71447 0.06932 0.0
C2753 C 0.22941 0.71541 0.07654 0.0
C2754 C 0.25104 0.72579 0.06874 0.0
C2755 C 0.24759 0.7384 0.07524 0.0
C2756 C 0.23463 0.73954 0.08185 0.0
C2757 C 0.22567 0.72816 0.08255 0.0
C2758 C 0.27029 0.76716 0.08968 0.0
C2759 C 0.27993 0.76903 0.07891 0.0
C2760 C 0.25947 0.75762 0.08827 0.0
C2761 C 0.25794 0.74985 0.07601 0.0
C2762 C 0.26711 0.75237 0.06494 0.0
C2763 C 0.27803 0.76179 0.06641 0.0
H2764 H 0.73065 0.21443 0.08626 0.0
H2765 H 0.70515 0.24373 0.06391 0.0
H2766 H 0.75045 0.23 0.08408 0.0
H2767 H 0.72467 0.25951 0.06225 0.0
H2768 H 0.76276 0.28424 0.05526 0.0
H2769 H 0.74659 0.26495 0.05301 0.0
H2770 H 0.7576 0.25105 0.09421 0.0
H2771 H 0.77415 0.26993 0.09617 0.0
C2772 C 0.72929 0.22415 0.08081 0.0
C2773 C 0.71629 0.22788 0.07536 0.0
C2774 C 0.74062 0.23313 0.07963 0.0
C2775 C 0.73917 0.24611 0.07312 0.0
C2776 C 0.72629 0.24955 0.06716 0.0
C2777 C 0.71502 0.24051 0.0682 0.0
C2778 C 0.76189 0.2769 0.06373 0.0
C2779 C 0.76964 0.27869 0.07594 0.0
C2780 C 0.75255 0.26589 0.06248 0.0
C2781 C 0.7506 0.25652 0.0735 0.0
C2782 C 0.75889 0.25793 0.08543 0.0
C2783 C 0.76836 0.26883 0.0866 0.0
H2784 H 0.60137 0.77409 0.72654 0.0
H2785 H 0.55942 0.78649 0.73629 0.0
H2786 H 0.59965 0.75513 0.74301 0.0
H2787 H 0.55742 0.76708 0.75235 0.0
H2788 H 0.56705 0.74559 0.79383 0.0
H2789 H 0.56579 0.76166 0.77453 0.0
H2790 H 0.59027 0.73359 0.74952 0.0
H2791 H 0.59205 0.71775 0.76916 0.0
C2792 C 0.59165 0.77257 0.73197 0.0
C2793 C 0.58059 0.7819 0.73022 0.0
C2794 C 0.59062 0.76161 0.74138 0.0
C2795 C 0.57843 0.75959 0.74916 0.0
C2796 C 0.56709 0.76849 0.7468 0.0
C2797 C 0.56819 0.77957 0.73752 0.0
C2798 C 0.57203 0.74275 0.78417 0.0
C2799 C 0.57978 0.73045 0.78309 0.0
C2800 C 0.57123 0.75195 0.77302 0.0
C2801 C 0.578 0.74901 0.76043 0.0
C2802 C 0.58517 0.73635 0.75914 0.0
C2803 C 0.58612 0.72722 0.77037 0.0
H2804 H 0.22996 0.58899 0.71954 0.0
H2805 H 0.20616 0.56421 0.74831 0.0
H2806 H 0.25014 0.58715 0.73469 0.0
H2807 H 0.22599 0.5629 0.76369 0.0
H2808 H 0.26478 0.55629 0.7873 0.0
H2809 H 0.24822 0.55435 0.76831 0.0
H2810 H 0.25759 0.59644 0.75595 0.0
H2811 H 0.27458 0.59808 0.77448 0.0
C2812 C 0.22905 0.5831 0.72906 0.0
C2813 C 0.21642 0.57682 0.73275 0.0
C2814 C 0.24059 0.58211 0.7378 0.0
C2815 C 0.23972 0.57497 0.75051 0.0
C2816 C 0.22719 0.5683 0.75392 0.0
C2817 C 0.21573 0.56914 0.74512 0.0
C2818 C 0.26345 0.56503 0.78037 0.0
C2819 C 0.27089 0.57738 0.78247 0.0
C2820 C 0.25389 0.56397 0.76953 0.0
C2821 C 0.25136 0.5753 0.76068 0.0
C2822 C 0.25932 0.58742 0.76241 0.0
C2823 C 0.26904 0.5884 0.77312 0.0
H2824 H 0.40135 0.22664 0.72707 0.0
H2825 H 0.44264 0.21224 0.73684 0.0
H2826 H 0.40391 0.24542 0.74365 0.0
H2827 H 0.44553 0.23147 0.75297 0.0
H2828 H 0.43721 0.25351 0.79437 0.0
H2829 H 0.43759 0.23737 0.7751 0.0
H2830 H 0.41419 0.26646 0.75023 0.0
H2831 H 0.41327 0.28239 0.76986 0.0
C2832 C 0.41111 0.22769 0.73253 0.0
C2833 C 0.42173 0.21786 0.73075 0.0
C2834 C 0.41263 0.23854 0.74201 0.0
C2835 C 0.4249 0.23996 0.7498 0.0
C2836 C 0.43581 0.23054 0.74743 0.0
C2837 C 0.4342 0.21955 0.73811 0.0
C2838 C 0.43229 0.25656 0.78474 0.0
C2839 C 0.42509 0.26919 0.78371 0.0
C2840 C 0.43258 0.24731 0.77361 0.0
C2841 C 0.42585 0.25052 0.76106 0.0
C2842 C 0.41924 0.26349 0.75981 0.0
C2843 C 0.41879 0.27268 0.77103 0.0
H2844 H 0.74031 0.44519 0.78692 0.0
H2845 H 0.72752 0.40526 0.77111 0.0
H2846 H 0.75623 0.44779 0.76745 0.0
H2847 H 0.74378 0.40756 0.75203 0.0
H2848 H 0.77006 0.4164 0.71515 0.0
H2849 H 0.75068 0.41851 0.73125 0.0
H2850 H 0.77777 0.43814 0.76112 0.0
H2851 H 0.7969 0.43655 0.74485 0.0
C2852 C 0.74083 0.43701 0.77924 0.0
C2853 C 0.73274 0.42496 0.78064 0.0
C2854 C 0.75002 0.43846 0.76811 0.0
C2855 C 0.75146 0.42782 0.75823 0.0
C2856 C 0.74287 0.41606 0.75931 0.0
C2857 C 0.73357 0.41469 0.77033 0.0
C2858 C 0.7718 0.42137 0.72507 0.0
C2859 C 0.78506 0.42619 0.72876 0.0
C2860 C 0.76071 0.4225 0.73435 0.0
C2861 C 0.76265 0.42835 0.74758 0.0
C2862 C 0.77578 0.43373 0.75098 0.0
C2863 C 0.78682 0.43273 0.74166 0.0
H2864 H 0.56411 0.20505 0.25324 0.0
H2865 H 0.58622 0.2308 0.2825 0.0
H2866 H 0.56355 0.22413 0.23682 0.0
H2867 H 0.58515 0.25015 0.26628 0.0
H2868 H 0.59899 0.27268 0.22637 0.0
H2869 H 0.59618 0.25636 0.24534 0.0
H2870 H 0.55509 0.24617 0.2305 0.0
H2871 H 0.55819 0.26211 0.21114 0.0
C2872 C 0.56858 0.2149 0.2563 0.0
C2873 C 0.57535 0.21635 0.26912 0.0
C2874 C 0.56818 0.22591 0.2469 0.0
C2875 C 0.5744 0.23871 0.25014 0.0
C2876 C 0.58052 0.24037 0.26329 0.0
C2877 C 0.58105 0.2293 0.27264 0.0
C2878 C 0.58929 0.26709 0.22725 0.0
C2879 C 0.57888 0.26858 0.21715 0.0
C2880 C 0.58762 0.25777 0.23821 0.0
C2881 C 0.57544 0.24982 0.23944 0.0
C2882 C 0.56474 0.25187 0.22973 0.0
C2883 C 0.56647 0.26108 0.21867 0.0
H2884 H 0.77358 0.60347 0.27129 0.0
H2885 H 0.7831 0.55995 0.26659 0.0
H2886 H 0.75493 0.60125 0.25446 0.0
H2887 H 0.764 0.55751 0.25025 0.0
H2888 H 0.7452 0.5638 0.20704 0.0
H2889 H 0.76032 0.56379 0.22709 0.0
H2890 H 0.733 0.59272 0.2478 0.0
H2891 H 0.71811 0.59318 0.22734 0.0
C2892 C 0.77145 0.59334 0.26693 0.0
C2893 C 0.77993 0.58193 0.27012 0.0
C2894 C 0.76068 0.59203 0.25731 0.0
C2895 C 0.75803 0.57923 0.2508 0.0
C2896 C 0.76596 0.56762 0.25475 0.0
C2897 C 0.77685 0.56898 0.2642 0.0
C2898 C 0.7423 0.57005 0.21591 0.0
C2899 C 0.7305 0.57859 0.21552 0.0
C2900 C 0.75095 0.56997 0.22752 0.0
C2901 C 0.74795 0.57829 0.23912 0.0
C2902 C 0.73579 0.58637 0.23896 0.0
C2903 C 0.7272 0.58658 0.22726 0.0
H2904 H 0.41246 0.71971 0.2303 0.0
H2905 H 0.43404 0.74849 0.20358 0.0
H2906 H 0.41396 0.73626 0.24934 0.0
H2907 H 0.43503 0.76523 0.22236 0.0
H2908 H 0.44161 0.79128 0.26001 0.0
H2909 H 0.44407 0.77184 0.24406 0.0
H2910 H 0.40323 0.75732 0.2556 0.0
H2911 H 0.40106 0.77638 0.27193 0.0
C2912 C 0.4176 0.72954 0.22851 0.0
C2913 C 0.42304 0.73281 0.21539 0.0
C2914 C 0.41838 0.73908 0.23941 0.0
C2915 C 0.42448 0.75219 0.2374 0.0
C2916 C 0.43041 0.75521 0.2244 0.0
C2917 C 0.42977 0.74561 0.21357 0.0
C2918 C 0.43324 0.78383 0.25926 0.0
C2919 C 0.42109 0.78544 0.26717 0.0
C2920 C 0.43461 0.77271 0.25005 0.0
C2921 C 0.4238 0.76304 0.24839 0.0
C2922 C 0.41187 0.76441 0.25669 0.0
C2923 C 0.41057 0.77542 0.26602 0.0
H2924 H 0.25224 0.43684 0.20277 0.0
H2925 H 0.28241 0.4166 0.22902 0.0
H2926 H 0.23643 0.43867 0.22227 0.0
H2927 H 0.2668 0.41897 0.24876 0.0
H2928 H 0.22756 0.40644 0.27322 0.0
H2929 H 0.24616 0.40835 0.25636 0.0
H2930 H 0.23071 0.44856 0.24384 0.0
H2931 H 0.21169 0.44633 0.26035 0.0
C2932 C 0.25563 0.43306 0.21279 0.0
C2933 C 0.26852 0.42643 0.2143 0.0
C2934 C 0.24658 0.43419 0.22404 0.0
C2935 C 0.25026 0.42888 0.23713 0.0
C2936 C 0.26349 0.42292 0.23879 0.0
C2937 C 0.27248 0.42163 0.22748 0.0
C2938 C 0.22823 0.41578 0.26701 0.0
C2939 C 0.21804 0.42615 0.26801 0.0
C2940 C 0.23898 0.41693 0.25737 0.0
C2941 C 0.23991 0.42856 0.2486 0.0
C2942 C 0.23015 0.43931 0.25019 0.0
C2943 C 0.2193 0.43808 0.25972 0.0
H2944 H 0.74925 0.5653 0.79678 0.0
H2945 H 0.71771 0.58187 0.76962 0.0
H2946 H 0.76509 0.56337 0.77731 0.0
H2947 H 0.73331 0.57928 0.74991 0.0
H2948 H 0.77101 0.59304 0.72417 0.0
H2949 H 0.75283 0.59071 0.74135 0.0
H2950 H 0.77187 0.55299 0.75643 0.0
H2951 H 0.79053 0.55576 0.73957 0.0
C2952 C 0.74558 0.56822 0.78657 0.0
C2953 C 0.73228 0.5739 0.78478 0.0
C2954 C 0.75465 0.56702 0.77534 0.0
C2955 C 0.75058 0.57128 0.76198 0.0
C2956 C 0.73696 0.57621 0.76008 0.0
C2957 C 0.72796 0.57762 0.77137 0.0
C2958 C 0.77124 0.58413 0.73101 0.0
C2959 C 0.78232 0.57467 0.73059 0.0
C2960 C 0.76071 0.58273 0.74085 0.0
C2961 C 0.76086 0.5717 0.75042 0.0
C2962 C 0.77155 0.56179 0.74946 0.0
C2963 C 0.78221 0.56331 0.73972 0.0
H2964 H 0.44029 0.78335 0.73169 0.0
H2965 H 0.39595 0.77741 0.72909 0.0
H2966 H 0.44203 0.76369 0.74743 0.0
H2967 H 0.39759 0.75809 0.74527 0.0
H2968 H 0.40469 0.7195 0.77042 0.0
H2969 H 0.40516 0.73512 0.75051 0.0
H2970 H 0.43631 0.76006 0.77097 0.0
H2971 H 0.43619 0.74426 0.79051 0.0
C2972 C 0.43091 0.77777 0.73441 0.0
C2973 C 0.41796 0.78203 0.72926 0.0
C2974 C 0.4319 0.76655 0.7435 0.0
C2975 C 0.41993 0.75942 0.74783 0.0
C2976 C 0.40705 0.76323 0.7421 0.0
C2977 C 0.40609 0.77437 0.73285 0.0
C2978 C 0.41178 0.72821 0.77055 0.0
C2979 C 0.42035 0.73067 0.78211 0.0
C2980 C 0.41199 0.73722 0.75917 0.0
C2981 C 0.42071 0.74892 0.75913 0.0
C2982 C 0.42961 0.75106 0.77049 0.0
C2983 C 0.42948 0.74202 0.78179 0.0
H2984 H 0.27411 0.40056 0.77592 0.0
H2985 H 0.26327 0.44155 0.79044 0.0
H2986 H 0.25754 0.40281 0.7571 0.0
H2987 H 0.24706 0.44407 0.77122 0.0
H2988 H 0.20581 0.43424 0.74912 0.0
H2989 H 0.22506 0.43531 0.7653 0.0
H2990 H 0.25094 0.41328 0.73602 0.0
H2991 H 0.23141 0.4117 0.72004 0.0
C2992 C 0.26841 0.41019 0.77492 0.0
C2993 C 0.2699 0.42081 0.78478 0.0
C2994 C 0.25893 0.41153 0.76404 0.0
C2995 C 0.25083 0.42359 0.76265 0.0
C2996 C 0.25288 0.43451 0.77212 0.0
C2997 C 0.26224 0.4331 0.78311 0.0
C2998 C 0.21565 0.42978 0.74604 0.0
C2999 C 0.21702 0.42275 0.73334 0.0
C3000 C 0.22676 0.43047 0.75531 0.0
C3001 C 0.23958 0.42428 0.75206 0.0
C3002 C 0.24115 0.4179 0.73902 0.0
C3003 C 0.22997 0.41707 0.72981 0.0
H3004 H 0.60302 0.27332 0.77435 0.0
H3005 H 0.56063 0.26556 0.78662 0.0
H3006 H 0.6006 0.25689 0.75541 0.0
H3007 H 0.55793 0.2496 0.76721 0.0
H3008 H 0.56559 0.20762 0.74608 0.0
H3009 H 0.56517 0.22709 0.76194 0.0
H3010 H 0.59114 0.25057 0.73389 0.0
H3011 H 0.59208 0.23071 0.71825 0.0
C3012 C 0.59306 0.26834 0.77279 0.0
C3013 C 0.58207 0.2706 0.78209 0.0
C3014 C 0.59163 0.25896 0.76185 0.0
C3015 C 0.5791 0.25176 0.7598 0.0
C3016 C 0.56784 0.25467 0.76865 0.0
C3017 C 0.56935 0.2639 0.77973 0.0
C3018 C 0.57108 0.21699 0.74319 0.0
C3019 C 0.57899 0.21754 0.73096 0.0
C3020 C 0.57076 0.22824 0.75227 0.0
C3021 C 0.57819 0.24045 0.74929 0.0
C3022 C 0.58553 0.24125 0.73669 0.0
C3023 C 0.586 0.22989 0.72767 0.0
H3024 H 0.79057 0.44293 0.2598 0.0
H3025 H 0.77585 0.4026 0.27263 0.0
H3026 H 0.77142 0.4447 0.2434 0.0
H3027 H 0.7571 0.40407 0.25588 0.0
H3028 H 0.71999 0.41204 0.22944 0.0
H3029 H 0.73608 0.41432 0.2488 0.0
H3030 H 0.76544 0.43489 0.22185 0.0
H3031 H 0.74914 0.43314 0.20274 0.0
C3032 C 0.78321 0.43447 0.25917 0.0
C3033 C 0.7848 0.42258 0.26745 0.0
C3034 C 0.77226 0.43544 0.2497 0.0
C3035 C 0.76275 0.42447 0.24816 0.0
C3036 C 0.76407 0.41282 0.25686 0.0
C3037 C 0.77491 0.41193 0.26644 0.0
C3038 C 0.7298 0.41722 0.22772 0.0
C3039 C 0.73332 0.42232 0.21452 0.0
C3040 C 0.73908 0.41845 0.2388 0.0
C3041 C 0.75216 0.42466 0.2369 0.0
C3042 C 0.75542 0.43022 0.2238 0.0
C3043 C 0.74608 0.42913 0.21278 0.0
H3044 H 0.55818 0.78421 0.26478 0.0
H3045 H 0.601 0.77342 0.27237 0.0
H3046 H 0.55599 0.76454 0.24908 0.0
H3047 H 0.59906 0.75418 0.2562 0.0
H3048 H 0.59141 0.71656 0.23025 0.0
H3049 H 0.59014 0.73227 0.25005 0.0
H3050 H 0.56342 0.75956 0.22651 0.0
H3051 H 0.56421 0.74364 0.2071 0.0
C3052 C 0.56711 0.77758 0.26315 0.0
C3053 C 0.5798 0.78045 0.2697 0.0
C3054 C 0.56589 0.76634 0.25408 0.0
C3055 C 0.57741 0.75785 0.25116 0.0
C3056 C 0.58991 0.76036 0.25827 0.0
C3057 C 0.59106 0.77147 0.2675 0.0
C3058 C 0.58509 0.72581 0.22941 0.0
C3059 C 0.57799 0.72888 0.21706 0.0
C3060 C 0.58443 0.73487 0.24073 0.0
C3061 C 0.57677 0.74728 0.2399 0.0
C3062 C 0.56926 0.75003 0.22769 0.0
C3063 C 0.56979 0.74092 0.21647 0.0
H3064 H 0.28238 0.59144 0.23138 0.0
H3065 H 0.25481 0.56511 0.20783 0.0
H3066 H 0.26683 0.58989 0.25127 0.0
H3067 H 0.239 0.5641 0.22733 0.0
H3068 H 0.21423 0.55886 0.26568 0.0
H3069 H 0.23368 0.5565 0.24971 0.0
H3070 H 0.24527 0.59909 0.25771 0.0
H3071 H 0.22631 0.60117 0.27413 0.0
C3072 C 0.27305 0.58526 0.23048 0.0
C3073 C 0.26979 0.57849 0.21799 0.0
C3074 C 0.26407 0.58444 0.24185 0.0
C3075 C 0.25153 0.577 0.24092 0.0
C3076 C 0.24861 0.56977 0.22858 0.0
C3077 C 0.25767 0.57043 0.21731 0.0
C3078 C 0.22108 0.56764 0.26417 0.0
C3079 C 0.21866 0.58023 0.27107 0.0
C3080 C 0.23219 0.56632 0.25494 0.0
C3081 C 0.241 0.57765 0.25222 0.0
C3082 C 0.23888 0.59006 0.25962 0.0
C3083 C 0.22791 0.5913 0.269 0.0
H3084 H 0.40869 0.23347 0.28208 0.0
H3085 H 0.43547 0.21007 0.2548 0.0
H3086 H 0.41036 0.2534 0.26658 0.0
H3087 H 0.43668 0.22965 0.2391 0.0
H3088 H 0.44256 0.2681 0.21485 0.0
H3089 H 0.4445 0.25225 0.23442 0.0
H3090 H 0.40146 0.25971 0.24462 0.0
H3091 H 0.39974 0.27599 0.22545 0.0
C3092 C 0.41501 0.23261 0.27284 0.0
C3093 C 0.42186 0.22014 0.26963 0.0
C3094 C 0.4159 0.24401 0.2639 0.0
C3095 C 0.42356 0.24315 0.25149 0.0
C3096 C 0.43085 0.23083 0.24863 0.0
C3097 C 0.43008 0.21952 0.25761 0.0
C3098 C 0.43358 0.26652 0.22142 0.0
C3099 C 0.42096 0.27319 0.21851 0.0
C3100 C 0.43467 0.25736 0.2326 0.0
C3101 C 0.42309 0.2545 0.24102 0.0
C3102 C 0.41065 0.26174 0.2385 0.0
C3103 C 0.40963 0.27104 0.22743 0.0
H3104 H 0.7735 0.72747 0.59867 0.0
H3105 H 0.78916 0.7387 0.5582 0.0
H3106 H 0.75501 0.7444 0.59624 0.0
H3107 H 0.77028 0.75529 0.55551 0.0
H3108 H 0.74863 0.79679 0.56563 0.0
H3109 H 0.76457 0.77731 0.56464 0.0
H3110 H 0.73428 0.75143 0.58524 0.0
H3111 H 0.71853 0.77114 0.58673 0.0
C3112 C 0.77282 0.73334 0.58911 0.0
C3113 C 0.78291 0.73184 0.5787 0.0
C3114 C 0.76213 0.74302 0.58767 0.0
C3115 C 0.76118 0.75134 0.57571 0.0
C3116 C 0.77086 0.74929 0.56498 0.0
C3117 C 0.78164 0.73971 0.56649 0.0
C3118 C 0.74529 0.7869 0.56979 0.0
C3119 C 0.73237 0.78557 0.5764 0.0
C3120 C 0.75442 0.77566 0.56915 0.0
C3121 C 0.75079 0.76277 0.57496 0.0
C3122 C 0.73756 0.76127 0.58092 0.0
C3123 C 0.72848 0.77256 0.5817 0.0
H3124 H 0.79289 0.2563 0.43491 0.0
H3125 H 0.76921 0.284 0.40882 0.0
H3126 H 0.77337 0.24048 0.43592 0.0
H3127 H 0.74936 0.26838 0.41028 0.0
H3128 H 0.72658 0.22748 0.39927 0.0
H3129 H 0.743 0.24653 0.40107 0.0
H3130 H 0.7508 0.23575 0.4439 0.0
H3131 H 0.73479 0.21632 0.44188 0.0
C3132 C 0.7834 0.25917 0.42962 0.0
C3133 C 0.78267 0.27136 0.42167 0.0
C3134 C 0.77213 0.25011 0.43028 0.0
C3135 C 0.75975 0.25308 0.42312 0.0
C3136 C 0.7588 0.26562 0.41571 0.0
C3137 C 0.77016 0.27463 0.41494 0.0
C3138 C 0.73164 0.2293 0.40913 0.0
C3139 C 0.72952 0.22027 0.42037 0.0
C3140 C 0.74103 0.2403 0.4102 0.0
C3141 C 0.74839 0.24262 0.4226 0.0
C3142 C 0.74558 0.23408 0.4341 0.0
C3143 C 0.73634 0.22298 0.43297 0.0
H3144 H 0.79404 0.74774 0.43646 0.0
H3145 H 0.76931 0.71841 0.41329 0.0
H3146 H 0.7744 0.76339 0.4377 0.0
H3147 H 0.74936 0.73387 0.41505 0.0
H3148 H 0.7254 0.77364 0.40299 0.0
H3149 H 0.74214 0.75494 0.40504 0.0
H3150 H 0.75233 0.76859 0.44653 0.0
H3151 H 0.73599 0.78773 0.44418 0.0
C3152 C 0.7843 0.74449 0.43188 0.0
C3153 C 0.7833 0.73188 0.42464 0.0
C3154 C 0.77296 0.75345 0.43268 0.0
C3155 C 0.76025 0.74997 0.42641 0.0
C3156 C 0.75905 0.73703 0.41976 0.0
C3157 C 0.77047 0.72812 0.41882 0.0
C3158 C 0.73106 0.77254 0.41263 0.0
C3159 C 0.7295 0.78228 0.42335 0.0
C3160 C 0.74064 0.76173 0.41385 0.0
C3161 C 0.74875 0.76029 0.4259 0.0
C3162 C 0.74653 0.76956 0.43696 0.0
C3163 C 0.73709 0.78049 0.43566 0.0
H3164 H 0.2283 0.72601 0.40418 0.0
H3165 H 0.21381 0.7381 0.44483 0.0
H3166 H 0.24719 0.74255 0.40595 0.0
H3167 H 0.23313 0.75426 0.4469 0.0
H3168 H 0.25466 0.79537 0.43549 0.0
H3169 H 0.23877 0.77598 0.43736 0.0
H3170 H 0.26824 0.74972 0.41606 0.0
H3171 H 0.28394 0.76939 0.41366 0.0
C3172 C 0.22934 0.73197 0.41365 0.0
C3173 C 0.21944 0.73087 0.42429 0.0
C3174 C 0.24027 0.74142 0.41471 0.0
C3175 C 0.24166 0.74989 0.42652 0.0
C3176 C 0.23221 0.74816 0.43751 0.0
C3177 C 0.22118 0.73883 0.43637 0.0
C3178 C 0.25785 0.78543 0.43136 0.0
C3179 C 0.27051 0.78398 0.42428 0.0
C3180 C 0.24875 0.77423 0.43252 0.0
C3181 C 0.25214 0.76124 0.42678 0.0
C3182 C 0.26515 0.75962 0.42035 0.0
C3183 C 0.2742 0.77089 0.41904 0.0
H3184 H 0.25555 0.2098 0.4358 0.0
H3185 H 0.28135 0.22837 0.4042 0.0
H3186 H 0.24087 0.23014 0.43589 0.0
H3187 H 0.26692 0.24917 0.40472 0.0
H3188 H 0.22608 0.27293 0.39534 0.0
H3189 H 0.24471 0.25604 0.39721 0.0
H3190 H 0.2379 0.25351 0.44148 0.0
H3191 H 0.21878 0.26989 0.43943 0.0
C3192 C 0.25828 0.21837 0.42906 0.0
C3193 C 0.26957 0.21738 0.4199 0.0
C3194 C 0.24989 0.23015 0.42919 0.0
C3195 C 0.25265 0.24137 0.4203 0.0
C3196 C 0.26433 0.24064 0.41155 0.0
C3197 C 0.27265 0.22875 0.4113 0.0
C3198 C 0.22872 0.26893 0.4055 0.0
C3199 C 0.22083 0.27258 0.4172 0.0
C3200 C 0.23947 0.25927 0.4066 0.0
C3201 C 0.24272 0.2532 0.41947 0.0
C3202 C 0.23545 0.25766 0.43133 0.0
C3203 C 0.22455 0.26713 0.43019 0.0
H3204 H 0.20138 0.25525 0.56583 0.0
H3205 H 0.22552 0.28392 0.59037 0.0
H3206 H 0.2208 0.23929 0.56525 0.0
H3207 H 0.24533 0.26825 0.58918 0.0
H3208 H 0.26926 0.22876 0.60118 0.0
H3209 H 0.25243 0.24733 0.59892 0.0
H3210 H 0.24284 0.23355 0.5573 0.0
H3211 H 0.25921 0.21446 0.55993 0.0
C3212 C 0.21096 0.25828 0.57085 0.0
C3213 C 0.21186 0.2708 0.57826 0.0
C3214 C 0.22219 0.24915 0.57043 0.0
C3215 C 0.2347 0.25238 0.57722 0.0
C3216 C 0.23579 0.26523 0.58408 0.0
C3217 C 0.22446 0.27428 0.5847 0.0
C3218 C 0.26369 0.2298 0.59147 0.0
C3219 C 0.26546 0.22005 0.58079 0.0
C3220 C 0.25406 0.24054 0.59013 0.0
C3221 C 0.24611 0.24194 0.57796 0.0
C3222 C 0.24849 0.23262 0.56697 0.0
C3223 C 0.25796 0.22172 0.56842 0.0
H3224 H 0.77043 0.28288 0.58732 0.0
H3225 H 0.79611 0.25392 0.56473 0.0
H3226 H 0.75095 0.26684 0.58571 0.0
H3227 H 0.77696 0.23765 0.56371 0.0
H3228 H 0.73909 0.21209 0.55763 0.0
H3229 H 0.75519 0.2314 0.55504 0.0
H3230 H 0.74415 0.24594 0.59602 0.0
H3231 H 0.72763 0.22708 0.59826 0.0
C3232 C 0.77189 0.27312 0.58195 0.0
C3233 C 0.78484 0.26964 0.57624 0.0
C3234 C 0.76075 0.26386 0.58111 0.0
C3235 C 0.76236 0.25083 0.57471 0.0
C3236 C 0.7752 0.24763 0.56854 0.0
C3237 C 0.78626 0.25696 0.56921 0.0
C3238 C 0.73997 0.21955 0.56598 0.0
C3239 C 0.73216 0.21799 0.57819 0.0
C3240 C 0.74927 0.23058 0.56455 0.0
C3241 C 0.75115 0.2402 0.57538 0.0
C3242 C 0.7429 0.2389 0.58736 0.0
C3243 C 0.73346 0.228 0.5887 0.0
H3244 H 0.25238 0.79176 0.56403 0.0
H3245 H 0.28001 0.76805 0.59018 0.0
H3246 H 0.23627 0.77246 0.56347 0.0
H3247 H 0.26409 0.74842 0.58916 0.0
H3248 H 0.22323 0.72617 0.60091 0.0
H3249 H 0.24228 0.74254 0.59872 0.0
H3250 H 0.23105 0.74985 0.55592 0.0
H3251 H 0.21161 0.73389 0.55833 0.0
C3252 C 0.25517 0.78231 0.56942 0.0
C3253 C 0.26743 0.78152 0.57727 0.0
C3254 C 0.24594 0.77116 0.56903 0.0
C3255 C 0.2488 0.75886 0.57635 0.0
C3256 C 0.26141 0.75782 0.58363 0.0
C3257 C 0.27059 0.76905 0.58414 0.0
C3258 C 0.22493 0.73114 0.59098 0.0
C3259 C 0.2158 0.72886 0.57985 0.0
C3260 C 0.23593 0.74049 0.58968 0.0
C3261 C 0.23817 0.74766 0.57717 0.0
C3262 C 0.22947 0.74477 0.56581 0.0
C3263 C 0.21836 0.73556 0.56716 0.0
H3264 H 0.03393 0.18824 0.32215 0.0
H3265 H 0.03396 0.21885 0.3548 0.0
H3266 H 0.00864 0.18686 0.32347 0.0
H3267 H 0.00886 0.217 0.35668 0.0
H3268 H 0.9669 0.22898 0.33839 0.0
H3269 H 0.99147 0.22581 0.342 0.0
H3270 H 0.98698 0.18173 0.33508 0.0
H3271 H 0.96209 0.18505 0.33099 0.0
C3272 C 0.02855 0.19431 0.32993 0.0
C3273 C 0.03584 0.20382 0.33822 0.0
C3274 C 0.01406 0.1935 0.33073 0.0
C3275 C 0.00665 0.20207 0.33997 0.0
C3276 C 0.01416 0.21058 0.34914 0.0
C3277 C 0.02856 0.21157 0.34815 0.0
C3278 C 0.97106 0.21856 0.33778 0.0
C3279 C 0.96252 0.20728 0.33433 0.0
C3280 C 0.98521 0.2167 0.33999 0.0
C3281 C 0.99128 0.20348 0.33892 0.0
C3282 C 0.98268 0.19207 0.33588 0.0
C3283 C 0.96841 0.19395 0.33363 0.0
H3284 H 0.81619 0.96216 0.33141 0.0
H3285 H 0.77284 0.96658 0.34187 0.0
H3286 H 0.81957 0.98707 0.33529 0.0
H3287 H 0.77603 0.99117 0.34527 0.0
H3288 H 0.78298 0.03391 0.35656 0.0
H3289 H 0.78554 0.00891 0.35895 0.0
H3290 H 0.81342 0.00845 0.32383 0.0
H3291 H 0.81139 0.03365 0.32198 0.0
C3292 C 0.80745 0.96839 0.3347 0.0
C3293 C 0.79424 0.9624 0.33626 0.0
C3294 C 0.80935 0.98267 0.33683 0.0
C3295 C 0.79809 0.99118 0.34062 0.0
C3296 C 0.78504 0.98499 0.34265 0.0
C3297 C 0.78316 0.97083 0.34055 0.0
C3298 C 0.78995 0.02849 0.3496 0.0
C3299 C 0.79685 0.03565 0.33898 0.0
C3300 C 0.79135 0.01415 0.35089 0.0
C3301 C 0.79938 0.00657 0.34134 0.0
C3302 C 0.80717 0.01391 0.33139 0.0
C3303 C 0.80599 0.02836 0.33029 0.0
H3304 H 0.96962 0.77078 0.34169 0.0
H3305 H 0.96437 0.81392 0.33078 0.0
H3306 H 0.99419 0.77437 0.34464 0.0
H3307 H 0.98925 0.81774 0.3343 0.0
H3308 H 0.03564 0.81066 0.3203 0.0
H3309 H 0.01046 0.81221 0.32274 0.0
H3310 H 0.01224 0.7839 0.35749 0.0
H3311 H 0.03721 0.78174 0.35439 0.0
C3312 C 0.97368 0.78115 0.34021 0.0
C3313 C 0.96502 0.79203 0.33589 0.0
C3314 C 0.98785 0.78327 0.34205 0.0
C3315 C 0.99382 0.79638 0.33975 0.0
C3316 C 0.98506 0.80747 0.33601 0.0
C3317 C 0.97078 0.80531 0.33409 0.0
C3318 C 0.03063 0.80505 0.32865 0.0
C3319 C 0.03827 0.79592 0.33702 0.0
C3320 C 0.01619 0.80596 0.3301 0.0
C3321 C 0.00922 0.79791 0.34011 0.0
C3322 C 0.01717 0.78988 0.34936 0.0
C3323 C 0.03149 0.78873 0.34769 0.0
H3324 H 0.18367 0.03482 0.33012 0.0
H3325 H 0.22643 0.02945 0.34239 0.0
H3326 H 0.17974 0.00989 0.33324 0.0
H3327 H 0.22274 0.00486 0.34502 0.0
H3328 H 0.21519 0.9619 0.35418 0.0
H3329 H 0.21253 0.98678 0.35759 0.0
H3330 H 0.18601 0.98881 0.32147 0.0
H3331 H 0.18807 0.9637 0.31865 0.0
C3332 C 0.19216 0.02837 0.33365 0.0
C3333 C 0.20538 0.0341 0.33593 0.0
C3334 C 0.18994 0.01408 0.33535 0.0
C3335 C 0.2009 0.0053 0.3394 0.0
C3336 C 0.21394 0.01123 0.34218 0.0
C3337 C 0.21612 0.02541 0.34052 0.0
C3338 C 0.20845 0.96764 0.34724 0.0
C3339 C 0.20196 0.96097 0.33607 0.0
C3340 C 0.20701 0.98191 0.3491 0.0
C3341 C 0.19939 0.98991 0.33956 0.0
C3342 C 0.19194 0.98302 0.32905 0.0
C3343 C 0.19313 0.96862 0.32739 0.0
H3344 H 0.03725 0.81733 0.67031 0.0
H3345 H 0.03145 0.7741 0.66005 0.0
H3346 H 0.01247 0.82153 0.66626 0.0
H3347 H 0.007 0.77813 0.65638 0.0
H3348 H 0.96558 0.81388 0.67991 0.0
H3349 H 0.99081 0.81565 0.67794 0.0
H3350 H 0.98981 0.78853 0.64225 0.0
H3351 H 0.96478 0.78626 0.64471 0.0
C3352 C 0.03074 0.80879 0.66702 0.0
C3353 C 0.03628 0.79537 0.66558 0.0
C3354 C 0.01655 0.81117 0.66477 0.0
C3355 C 0.00771 0.80019 0.66095 0.0
C3356 C 0.01347 0.78692 0.65903 0.0
C3357 C 0.02753 0.78457 0.66129 0.0
C3358 C 0.97076 0.80864 0.67143 0.0
C3359 C 0.96332 0.79974 0.66261 0.0
C3360 C 0.98521 0.80966 0.67026 0.0
C3361 C 0.99239 0.80195 0.66014 0.0
C3362 C 0.98467 0.79427 0.65043 0.0
C3363 C 0.97032 0.79304 0.65176 0.0
H3364 H 0.18662 0.03386 0.68085 0.0
H3365 H 0.21293 0.03582 0.64471 0.0
H3366 H 0.18561 0.00864 0.67876 0.0
H3367 H 0.21131 0.01076 0.64207 0.0
H3368 H 0.22703 0.96891 0.65786 0.0
H3369 H 0.22241 0.99331 0.65474 0.0
H3370 H 0.17992 0.9871 0.66772 0.0
H3371 H 0.18479 0.96242 0.67134 0.0
C3372 C 0.19173 0.02893 0.67215 0.0
C3373 C 0.20003 0.03672 0.66307 0.0
C3374 C 0.19114 0.01446 0.67091 0.0
C3375 C 0.19867 0.00759 0.66044 0.0
C3376 C 0.20576 0.01563 0.65053 0.0
C3377 C 0.2066 0.03001 0.65195 0.0
C3378 C 0.21663 0.97265 0.65989 0.0
C3379 C 0.20631 0.96371 0.66496 0.0
C3380 C 0.21391 0.98671 0.65796 0.0
C3381 C 0.20075 0.99227 0.66093 0.0
C3382 C 0.19021 0.98321 0.66546 0.0
C3383 C 0.19297 0.96906 0.66746 0.0
H3384 H 0.96466 0.18619 0.67939 0.0
H3385 H 0.96366 0.21326 0.64378 0.0
H3386 H 0.98986 0.18422 0.67718 0.0
H3387 H 0.98864 0.21073 0.64104 0.0
H3388 H 0.03027 0.22556 0.65846 0.0
H3389 H 0.00587 0.22137 0.65483 0.0
H3390 H 0.01148 0.1782 0.6656 0.0
H3391 H 0.03624 0.18258 0.66964 0.0
C3392 C 0.96978 0.19124 0.67075 0.0
C3393 C 0.96233 0.20007 0.66189 0.0
C3394 C 0.98422 0.1901 0.66946 0.0
C3395 C 0.99133 0.19761 0.65914 0.0
C3396 C 0.98356 0.20515 0.64937 0.0
C3397 C 0.96924 0.20653 0.65085 0.0
C3398 C 0.0264 0.21511 0.6599 0.0
C3399 C 0.03518 0.20444 0.66446 0.0
C3400 C 0.01236 0.21265 0.65765 0.0
C3401 C 0.00665 0.19941 0.65985 0.0
C3402 C 0.01553 0.18854 0.6639 0.0
C3403 C 0.0297 0.19102 0.66613 0.0
H3404 H 0.78182 0.03576 0.6487 0.0
H3405 H 0.81197 0.03488 0.68174 0.0
H3406 H 0.78389 0.01075 0.64602 0.0
H3407 H 0.81352 0.00966 0.67968 0.0
H3408 H 0.81517 0.96335 0.67174 0.0
H3409 H 0.81872 0.98825 0.66796 0.0
H3410 H 0.77485 0.99302 0.6599 0.0
H3411 H 0.77148 0.96844 0.66317 0.0
C3412 C 0.78906 0.03019 0.65525 0.0
C3413 C 0.79661 0.03718 0.66553 0.0
C3414 C 0.79018 0.01584 0.65381 0.0
C3415 C 0.79856 0.00809 0.6629 0.0
C3416 C 0.80697 0.01525 0.67247 0.0
C3417 C 0.80608 0.02971 0.67369 0.0
C3418 C 0.80637 0.96973 0.6689 0.0
C3419 C 0.79304 0.96392 0.66781 0.0
C3420 C 0.80838 0.984 0.66682 0.0
C3421 C 0.79709 0.9927 0.66359 0.0
C3422 C 0.78388 0.9867 0.66207 0.0
C3423 C 0.7819 0.97254 0.66409 0.0
H3424 H 0.33089 0.96662 0.18224 0.0
H3425 H 0.34158 0.9714 0.22549 0.0
H3426 H 0.33414 0.99159 0.17877 0.0
H3427 H 0.34428 0.99604 0.22224 0.0
H3428 H 0.35337 0.03925 0.21562 0.0
H3429 H 0.35695 0.0144 0.21296 0.0
H3430 H 0.3222 0.01253 0.18466 0.0
H3431 H 0.31926 0.03762 0.18673 0.0
C3432 C 0.3341 0.97295 0.19095 0.0
C3433 C 0.3359 0.96704 0.20416 0.0
C3434 C 0.33587 0.98727 0.18899 0.0
C3435 C 0.33947 0.99591 0.20021 0.0
C3436 C 0.34179 0.98979 0.21325 0.0
C3437 C 0.3401 0.97558 0.21517 0.0
C3438 C 0.34678 0.03355 0.20852 0.0
C3439 C 0.33596 0.04027 0.2015 0.0
C3440 C 0.34873 0.01929 0.20708 0.0
C3441 C 0.3396 0.01133 0.19892 0.0
C3442 C 0.32946 0.01828 0.19101 0.0
C3443 C 0.32773 0.03266 0.19221 0.0
H3444 H 0.96932 0.34014 0.22772 0.0
H3445 H 0.96511 0.33021 0.18422 0.0
H3446 H 0.99403 0.34281 0.22485 0.0
H3447 H 0.99016 0.33338 0.18117 0.0
H3448 H 0.03641 0.31909 0.1895 0.0
H3449 H 0.01125 0.32147 0.18729 0.0
H3450 H 0.01218 0.35613 0.21575 0.0
H3451 H 0.03709 0.35314 0.21851 0.0
C3452 C 0.97365 0.33879 0.21744 0.0
C3453 C 0.96524 0.33487 0.20622 0.0
C3454 C 0.98789 0.34046 0.21574 0.0
C3455 C 0.99418 0.3384 0.20274 0.0
C3456 C 0.9857 0.33495 0.19135 0.0
C3457 C 0.97134 0.33321 0.19308 0.0
C3458 C 0.03122 0.32741 0.195 0.0
C3459 C 0.03859 0.33579 0.20434 0.0
C3460 C 0.0168 0.32881 0.19372 0.0
C3461 C 0.0096 0.33878 0.20162 0.0
C3462 C 0.01729 0.34804 0.20987 0.0
C3463 C 0.03159 0.34642 0.21137 0.0
H3464 H 0.65715 0.96953 0.22737 0.0
H3465 H 0.6698 0.96461 0.18467 0.0
H3466 H 0.65437 0.99413 0.22385 0.0
H3467 H 0.66648 0.98953 0.1809 0.0
H3468 H 0.68046 0.03578 0.18929 0.0
H3469 H 0.67789 0.01065 0.18718 0.0
H3470 H 0.64187 0.01225 0.21387 0.0
H3471 H 0.64507 0.03714 0.21661 0.0
C3472 C 0.65906 0.97367 0.2171 0.0
C3473 C 0.66381 0.9651 0.20633 0.0
C3474 C 0.65732 0.98785 0.21502 0.0
C3475 C 0.66014 0.99392 0.20205 0.0
C3476 C 0.66434 0.98525 0.19106 0.0
C3477 C 0.66616 0.97096 0.19318 0.0
C3478 C 0.6718 0.03075 0.19438 0.0
C3479 C 0.66308 0.03829 0.20328 0.0
C3480 C 0.67028 0.01634 0.19317 0.0
C3481 C 0.65987 0.00932 0.20065 0.0
C3482 C 0.65029 0.01721 0.20834 0.0
C3483 C 0.65202 0.03149 0.20982 0.0
H3484 H 0.03177 0.65548 0.2246 0.0
H3485 H 0.03738 0.66996 0.18257 0.0
H3486 H 0.00731 0.65234 0.2204 0.0
H3487 H 0.01261 0.66633 0.17811 0.0
H3488 H 0.96602 0.67951 0.18655 0.0
H3489 H 0.99119 0.67728 0.18462 0.0
H3490 H 0.98965 0.6399 0.20936 0.0
H3491 H 0.96468 0.6427 0.21193 0.0
C3492 C 0.02781 0.65773 0.21433 0.0
C3493 C 0.03652 0.66309 0.20396 0.0
C3494 C 0.01372 0.65578 0.21184 0.0
C3495 C 0.0079 0.65903 0.19887 0.0
C3496 C 0.01671 0.66384 0.18826 0.0
C3497 C 0.03091 0.66584 0.19078 0.0
C3498 C 0.97107 0.67063 0.19123 0.0
C3499 C 0.96351 0.6614 0.19957 0.0
C3500 C 0.9855 0.66931 0.19011 0.0
C3501 C 0.99253 0.6586 0.19714 0.0
C3502 C 0.98465 0.64854 0.2042 0.0
C3503 C 0.97033 0.65005 0.20558 0.0
H3504 H 0.32031 0.96673 0.81389 0.0
H3505 H 0.35652 0.96495 0.78769 0.0
H3506 H 0.32273 0.99191 0.81558 0.0
H3507 H 0.35959 0.98991 0.79007 0.0
H3508 H 0.34386 0.03189 0.77463 0.0
H3509 H 0.34722 0.00754 0.77916 0.0
H3510 H 0.33368 0.01337 0.82153 0.0
H3511 H 0.32978 0.03803 0.81672 0.0
C3512 C 0.32913 0.97169 0.80899 0.0
C3513 C 0.33812 0.96403 0.8005 0.0
C3514 C 0.33056 0.98613 0.80997 0.0
C3515 C 0.34117 0.99304 0.80265 0.0
C3516 C 0.35103 0.98503 0.79545 0.0
C3517 C 0.34937 0.97071 0.79418 0.0
C3518 C 0.34177 0.02808 0.78499 0.0
C3519 C 0.33641 0.03689 0.79527 0.0
C3520 C 0.34386 0.01405 0.78766 0.0
C3521 C 0.34075 0.00838 0.80075 0.0
C3522 C 0.33604 0.01734 0.81129 0.0
C3523 C 0.3339 0.03148 0.80858 0.0
H3524 H 0.03404 0.31883 0.81149 0.0
H3525 H 0.03633 0.35277 0.78245 0.0
H3526 H 0.00889 0.32165 0.81283 0.0
H3527 H 0.01139 0.35623 0.78437 0.0
H3528 H 0.96856 0.3411 0.77111 0.0
H3529 H 0.99318 0.34359 0.7748 0.0
H3530 H 0.98785 0.33365 0.81821 0.0
H3531 H 0.96291 0.33061 0.81431 0.0
C3532 C 0.0292 0.32722 0.8058 0.0
C3533 C 0.03704 0.33544 0.7967 0.0
C3534 C 0.01477 0.32888 0.80658 0.0
C3535 C 0.00801 0.33896 0.79844 0.0
C3536 C 0.01615 0.34805 0.79043 0.0
C3537 C 0.03047 0.34617 0.7894 0.0
C3538 C 0.97255 0.33961 0.78151 0.0
C3539 C 0.96376 0.33555 0.79239 0.0
C3540 C 0.98674 0.34118 0.78368 0.0
C3541 C 0.99261 0.33886 0.79684 0.0
C3542 C 0.98373 0.33537 0.80791 0.0
C3543 C 0.96943 0.33373 0.8057 0.0
H3544 H 0.65702 0.03134 0.77513 0.0
H3545 H 0.66914 0.03669 0.81793 0.0
H3546 H 0.65432 0.00676 0.77882 0.0
H3547 H 0.6659 0.01178 0.82186 0.0
H3548 H 0.67989 0.9654 0.81416 0.0
H3549 H 0.67743 0.99058 0.81588 0.0
H3550 H 0.64165 0.98878 0.78887 0.0
H3551 H 0.64474 0.96384 0.78653 0.0
C3552 C 0.65884 0.0273 0.78545 0.0
C3553 C 0.6634 0.03599 0.7962 0.0
C3554 C 0.65714 0.01313 0.78763 0.0
C3555 C 0.65983 0.00719 0.80068 0.0
C3556 C 0.66387 0.01597 0.81164 0.0
C3557 C 0.66563 0.03025 0.80942 0.0
C3558 C 0.67131 0.97041 0.80889 0.0
C3559 C 0.66263 0.96278 0.80004 0.0
C3560 C 0.66986 0.98484 0.80989 0.0
C3561 C 0.65954 0.9918 0.80223 0.0
C3562 C 0.65001 0.98386 0.79454 0.0
C3563 C 0.65168 0.96955 0.79328 0.0
H3564 H 0.96361 0.68007 0.81109 0.0
H3565 H 0.96313 0.64615 0.78193 0.0
H3566 H 0.9888 0.67802 0.81308 0.0
H3567 H 0.98811 0.6435 0.78445 0.0
H3568 H 0.03072 0.66009 0.77228 0.0
H3569 H 0.00607 0.65699 0.77532 0.0
H3570 H 0.01007 0.66651 0.81896 0.0
H3571 H 0.03503 0.67013 0.81574 0.0
C3572 C 0.96885 0.67184 0.80552 0.0
C3573 C 0.9615 0.6634 0.7962 0.0
C3574 C 0.98329 0.67063 0.80667 0.0
C3575 C 0.99058 0.66081 0.79866 0.0
C3576 C 0.98293 0.65148 0.79042 0.0
C3577 C 0.9686 0.6529 0.78906 0.0
C3578 C 0.02643 0.66137 0.78259 0.0
C3579 C 0.03486 0.66545 0.79375 0.0
C3580 C 0.01223 0.65945 0.78438 0.0
C3581 C 0.00599 0.66142 0.79742 0.0
C3582 C 0.01449 0.66502 0.80875 0.0
C3583 C 0.0288 0.66701 0.80693 0.0
H3584 H 0.18761 0.31717 0.03633 0.0
H3585 H 0.21553 0.35206 0.03816 0.0
H3586 H 0.18572 0.31998 0.0112 0.0
H3587 H 0.21304 0.35549 0.01327 0.0
H3588 H 0.22646 0.34046 0.97047 0.0
H3589 H 0.22292 0.34286 0.99511 0.0
H3590 H 0.17971 0.33186 0.99016 0.0
H3591 H 0.18348 0.32895 0.96518 0.0
C3592 C 0.1929 0.32577 0.0314 0.0
C3593 C 0.20188 0.33427 0.03908 0.0
C3594 C 0.19181 0.32742 0.017 0.0
C3595 C 0.19951 0.33776 0.01011 0.0
C3596 C 0.20733 0.34713 0.01813 0.0
C3597 C 0.20867 0.34526 0.03241 0.0
C3598 C 0.21613 0.33871 0.97455 0.0
C3599 C 0.20528 0.33442 0.96585 0.0
C3600 C 0.21405 0.34023 0.98875 0.0
C3601 C 0.20099 0.33762 0.99472 0.0
C3602 C 0.18993 0.33383 0.98594 0.0
C3603 C 0.19206 0.33225 0.97163 0.0
H3604 H 0.22775 0.65769 0.96865 0.0
H3605 H 0.18473 0.66874 0.96265 0.0
H3606 H 0.22367 0.65458 0.99314 0.0
H3607 H 0.18044 0.66514 0.98745 0.0
H3608 H 0.18724 0.67905 0.03406 0.0
H3609 H 0.18591 0.67672 0.00885 0.0
H3610 H 0.21349 0.64139 0.01079 0.0
H3611 H 0.21539 0.64431 0.0358 0.0
C3612 C 0.21731 0.65919 0.97253 0.0
C3613 C 0.20659 0.66358 0.9637 0.0
C3614 C 0.21491 0.65726 0.98664 0.0
C3615 C 0.20168 0.65955 0.99236 0.0
C3616 C 0.19078 0.6634 0.98343 0.0
C3617 C 0.19321 0.66538 0.96921 0.0
C3618 C 0.19271 0.67058 0.02908 0.0
C3619 C 0.20159 0.662 0.03678 0.0
C3620 C 0.19193 0.66921 0.01463 0.0
C3621 C 0.19987 0.65908 0.00771 0.0
C3622 C 0.20759 0.64961 0.0157 0.0
C3623 C 0.20861 0.65118 0.03004 0.0
H3624 H 0.33294 0.18454 0.03497 0.0
H3625 H 0.34521 0.22729 0.02947 0.0
H3626 H 0.33544 0.1807 0.00997 0.0
H3627 H 0.34715 0.22369 0.00481 0.0
H3628 H 0.35514 0.21629 0.96155 0.0
H3629 H 0.35908 0.21376 0.98635 0.0
H3630 H 0.32335 0.18677 0.98917 0.0
H3631 H 0.32008 0.18864 0.96409 0.0
C3632 C 0.33633 0.19305 0.02847 0.0
C3633 C 0.33881 0.20623 0.0342 0.0
C3634 C 0.33767 0.19089 0.01414 0.0
C3635 C 0.3415 0.20187 0.00529 0.0
C3636 C 0.34447 0.21487 0.01121 0.0
C3637 C 0.34321 0.21699 0.02544 0.0
C3638 C 0.3484 0.2095 0.96745 0.0
C3639 C 0.33724 0.20277 0.96101 0.0
C3640 C 0.35056 0.20814 0.98168 0.0
C3641 C 0.34129 0.2004 0.98989 0.0
C3642 C 0.33073 0.19279 0.98323 0.0
C3643 C 0.32881 0.19387 0.96886 0.0
H3644 H 0.81305 0.32019 0.9642 0.0
H3645 H 0.78406 0.35425 0.96312 0.0
H3646 H 0.81451 0.32221 0.98942 0.0
H3647 H 0.78609 0.3569 0.98815 0.0
H3648 H 0.77253 0.33971 0.03019 0.0
H3649 H 0.77638 0.34337 0.00575 0.0
H3650 H 0.81983 0.33348 0.01093 0.0
H3651 H 0.81577 0.32929 0.03567 0.0
C3652 C 0.80742 0.32846 0.96933 0.0
C3653 C 0.79827 0.33692 0.9618 0.0
C3654 C 0.80827 0.32966 0.98379 0.0
C3655 C 0.80014 0.3395 0.9909 0.0
C3656 C 0.79214 0.34889 0.98309 0.0
C3657 C 0.79105 0.34748 0.96873 0.0
C3658 C 0.78297 0.33848 0.02622 0.0
C3659 C 0.79382 0.33409 0.03488 0.0
C3660 C 0.78524 0.34073 0.01213 0.0
C3661 C 0.79845 0.33877 0.00627 0.0
C3662 C 0.80949 0.33496 0.01505 0.0
C3663 C 0.80719 0.33264 0.02924 0.0
H3664 H 0.6696 0.81624 0.03803 0.0
H3665 H 0.65884 0.77305 0.03278 0.0
H3666 H 0.66587 0.82009 0.01316 0.0
H3667 H 0.65559 0.77671 0.00824 0.0
H3668 H 0.64475 0.78427 0.96562 0.0
H3669 H 0.64205 0.78664 0.99061 0.0
H3670 H 0.67739 0.81423 0.99175 0.0
H3671 H 0.67952 0.81241 0.96655 0.0
C3672 C 0.66629 0.80763 0.03162 0.0
C3673 C 0.66459 0.79433 0.03736 0.0
C3674 C 0.66423 0.80981 0.01737 0.0
C3675 C 0.66039 0.79873 0.00865 0.0
C3676 C 0.65824 0.78559 0.01459 0.0
C3677 C 0.66026 0.78344 0.02873 0.0
C3678 C 0.65167 0.79116 0.97119 0.0
C3679 C 0.66244 0.79802 0.96424 0.0
C3680 C 0.65021 0.79244 0.98552 0.0
C3681 C 0.65976 0.80029 0.99328 0.0
C3682 C 0.66983 0.8081 0.98614 0.0
C3683 C 0.67109 0.80705 0.9717 0.0
H3684 H 0.77163 0.66273 0.02982 0.0
H3685 H 0.81553 0.66966 0.03559 0.0
H3686 H 0.77524 0.65952 0.00526 0.0
H3687 H 0.81928 0.66602 0.01068 0.0
H3688 H 0.81302 0.68057 0.96399 0.0
H3689 H 0.81444 0.67828 0.98921 0.0
H3690 H 0.78436 0.64506 0.98775 0.0
H3691 H 0.78246 0.64791 0.96274 0.0
C3692 C 0.78214 0.66333 0.02586 0.0
C3693 C 0.79328 0.66653 0.03467 0.0
C3694 C 0.78424 0.66134 0.01172 0.0
C3695 C 0.79759 0.66241 0.00593 0.0
C3696 C 0.80886 0.6652 0.01479 0.0
C3697 C 0.80673 0.66721 0.02905 0.0
C3698 C 0.80702 0.67254 0.96907 0.0
C3699 C 0.79747 0.66456 0.9615 0.0
C3700 C 0.80784 0.6712 0.98352 0.0
C3701 C 0.79924 0.66171 0.99057 0.0
C3702 C 0.7908 0.65277 0.98273 0.0
C3703 C 0.78978 0.65431 0.96838 0.0
H3704 H 0.34093 0.77308 0.03255 0.0
H3705 H 0.32879 0.81591 0.03767 0.0
H3706 H 0.34449 0.77688 0.00808 0.0
H3707 H 0.33283 0.81992 0.01288 0.0
H3708 H 0.31982 0.8118 0.96614 0.0
H3709 H 0.32171 0.81374 0.99135 0.0
H3710 H 0.35782 0.78714 0.99055 0.0
H3711 H 0.35535 0.78461 0.96555 0.0
C3712 C 0.33928 0.78343 0.02848 0.0
C3713 C 0.33445 0.79416 0.03705 0.0
C3714 C 0.34148 0.78566 0.01439 0.0
C3715 C 0.339 0.79874 0.00842 0.0
C3716 C 0.33472 0.80969 0.0171 0.0
C3717 C 0.33249 0.80742 0.03131 0.0
C3718 C 0.32836 0.80669 0.97137 0.0
C3719 C 0.33731 0.79788 0.964 0.0
C3720 C 0.32948 0.80782 0.98582 0.0
C3721 C 0.33972 0.80031 0.99306 0.0
C3722 C 0.34954 0.7927 0.98539 0.0
C3723 C 0.34821 0.79133 0.97105 0.0
H3724 H 0.67137 0.18192 0.9633 0.0
H3725 H 0.65704 0.22397 0.96918 0.0
H3726 H 0.66772 0.17731 0.98802 0.0
H3727 H 0.65392 0.21963 0.99361 0.0
H3728 H 0.64455 0.21101 0.0363 0.0
H3729 H 0.64163 0.20871 0.01132 0.0
H3730 H 0.67865 0.18344 0.00942 0.0
H3731 H 0.68096 0.18508 0.03459 0.0
C3732 C 0.66728 0.19011 0.96981 0.0
C3733 C 0.66458 0.20333 0.96429 0.0
C3734 C 0.66527 0.1875 0.98399 0.0
C3735 C 0.66053 0.19808 0.99289 0.0
C3736 C 0.65731 0.2111 0.98714 0.0
C3737 C 0.65925 0.21366 0.97307 0.0
C3738 C 0.65179 0.20461 0.03056 0.0
C3739 C 0.66305 0.19834 0.03729 0.0
C3740 C 0.65021 0.20338 0.01623 0.0
C3741 C 0.66014 0.19625 0.00825 0.0
C3742 C 0.67077 0.189 0.01518 0.0
C3743 C 0.67214 0.18995 0.02962 0.0
H3744 H 0.46481 0.68423 0.82935 0.0
H3745 H 0.47033 0.72752 0.83955 0.0
H3746 H 0.48974 0.68037 0.83267 0.0
H3747 H 0.49493 0.72384 0.84237 0.0
H3748 H 0.53764 0.71604 0.85313 0.0
H3749 H 0.51262 0.71403 0.85586 0.0
H3750 H 0.51113 0.68593 0.82094 0.0
H3751 H 0.53636 0.68739 0.81879 0.0
C3752 C 0.4713 0.69287 0.83244 0.0
C3753 C 0.4656 0.70619 0.83414 0.0
C3754 C 0.48558 0.69068 0.83426 0.0
C3755 C 0.49439 0.70177 0.83784 0.0
C3756 C 0.48851 0.71496 0.83993 0.0
C3757 C 0.47435 0.71712 0.83816 0.0
C3758 C 0.53198 0.70913 0.8463 0.0
C3759 C 0.53886 0.70199 0.83566 0.0
C3760 C 0.51763 0.70806 0.84777 0.0
C3761 C 0.50977 0.70014 0.83836 0.0
C3762 C 0.51681 0.69211 0.82839 0.0
C3763 C 0.53128 0.69295 0.82712 0.0
H3764 H 0.27517 0.53051 0.8426 0.0
H3765 H 0.31807 0.53545 0.83064 0.0
H3766 H 0.27872 0.50596 0.84571 0.0
H3767 H 0.32186 0.51057 0.83428 0.0
H3768 H 0.31368 0.46416 0.82051 0.0
H3769 H 0.31574 0.48932 0.82289 0.0
H3770 H 0.2886 0.48801 0.85858 0.0
H3771 H 0.28592 0.46308 0.85556 0.0
C3772 C 0.28548 0.52639 0.84091 0.0
C3773 C 0.2963 0.53494 0.83625 0.0
C3774 C 0.28758 0.51223 0.84285 0.0
C3775 C 0.30062 0.50618 0.8403 0.0
C3776 C 0.31165 0.51484 0.83621 0.0
C3777 C 0.30951 0.5291 0.83421 0.0
C3778 C 0.30847 0.46927 0.82906 0.0
C3779 C 0.29948 0.4618 0.83772 0.0
C3780 C 0.30967 0.48369 0.83047 0.0
C3781 C 0.30205 0.49079 0.84073 0.0
C3782 C 0.29424 0.48298 0.85028 0.0
C3783 C 0.29279 0.46868 0.84864 0.0
H3784 H 0.54005 0.2847 0.85359 0.0
H3785 H 0.53817 0.31305 0.81906 0.0
H3786 H 0.51515 0.28709 0.85705 0.0
H3787 H 0.51303 0.31482 0.82184 0.0
H3788 H 0.46701 0.31681 0.83057 0.0
H3789 H 0.49197 0.3206 0.83357 0.0
H3790 H 0.49695 0.27739 0.84455 0.0
H3791 H 0.47232 0.27383 0.84211 0.0
C3792 C 0.53428 0.29162 0.84687 0.0
C3793 C 0.54094 0.29858 0.83599 0.0
C3794 C 0.51999 0.29291 0.84875 0.0
C3795 C 0.51196 0.30081 0.83946 0.0
C3796 C 0.51883 0.30866 0.82922 0.0
C3797 C 0.53324 0.30764 0.82758 0.0
C3798 C 0.47346 0.30823 0.83389 0.0
C3799 C 0.46769 0.29501 0.83604 0.0
C3800 C 0.48777 0.31037 0.83552 0.0
C3801 C 0.49655 0.29932 0.83932 0.0
C3802 C 0.49059 0.28626 0.84192 0.0
C3803 C 0.47638 0.28416 0.84037 0.0
H3804 H 0.68498 0.46373 0.82939 0.0
H3805 H 0.72715 0.46959 0.84336 0.0
H3806 H 0.6803 0.48839 0.83343 0.0
H3807 H 0.72272 0.49396 0.84692 0.0
H3808 H 0.68833 0.53499 0.82011 0.0
H3809 H 0.6865 0.50984 0.82244 0.0
H3810 H 0.71174 0.51156 0.85949 0.0
H3811 H 0.71418 0.53654 0.85659 0.0
C3812 C 0.69317 0.47022 0.83351 0.0
C3813 C 0.70647 0.46474 0.83595 0.0
C3814 C 0.69053 0.48436 0.83574 0.0
C3815 C 0.70112 0.49324 0.84048 0.0
C3816 C 0.71419 0.4875 0.84352 0.0
C3817 C 0.7168 0.47347 0.84133 0.0
C3818 C 0.69314 0.52999 0.82896 0.0
C3819 C 0.70158 0.53761 0.83804 0.0
C3820 C 0.69208 0.51557 0.83033 0.0
C3821 C 0.69928 0.50859 0.84096 0.0
C3822 C 0.70643 0.51652 0.85091 0.0
C3823 C 0.70775 0.53084 0.84934 0.0
H3824 H 0.46551 0.31744 0.16884 0.0
H3825 H 0.46985 0.27368 0.16026 0.0
H3826 H 0.49051 0.32052 0.16523 0.0
H3827 H 0.4945 0.27659 0.15714 0.0
H3828 H 0.53741 0.28264 0.14633 0.0
H3829 H 0.51248 0.28538 0.14335 0.0
H3830 H 0.51172 0.3148 0.17718 0.0
H3831 H 0.53688 0.31259 0.17955 0.0
C3832 C 0.47175 0.30853 0.16603 0.0
C3833 C 0.46571 0.29531 0.1649 0.0
C3834 C 0.48607 0.31027 0.16404 0.0
C3835 C 0.49458 0.29883 0.16086 0.0
C3836 C 0.48834 0.28573 0.15928 0.0
C3837 C 0.47414 0.28402 0.16122 0.0
C3838 C 0.53194 0.28999 0.15284 0.0
C3839 C 0.53899 0.29729 0.16327 0.0
C3840 C 0.51764 0.29149 0.15123 0.0
C3841 C 0.50999 0.3 0.1603 0.0
C3842 C 0.51725 0.30817 0.17 0.0
C3843 C 0.53166 0.3069 0.17139 0.0
H3844 H 0.71613 0.46161 0.14383 0.0
H3845 H 0.6888 0.46308 0.17924 0.0
H3846 H 0.71376 0.48657 0.14086 0.0
H3847 H 0.68699 0.48825 0.1768 0.0
H3848 H 0.68473 0.53439 0.16829 0.0
H3849 H 0.68082 0.50948 0.16501 0.0
H3850 H 0.72399 0.50441 0.15392 0.0
H3851 H 0.7277 0.529 0.15675 0.0
C3852 C 0.70942 0.46728 0.15084 0.0
C3853 C 0.70279 0.46049 0.16186 0.0
C3854 C 0.70814 0.4816 0.14922 0.0
C3855 C 0.70051 0.48951 0.15883 0.0
C3856 C 0.69293 0.48252 0.16918 0.0
C3857 C 0.69399 0.4681 0.17062 0.0
C3858 C 0.69328 0.52794 0.1649 0.0
C3859 C 0.70654 0.53366 0.16285 0.0
C3860 C 0.69107 0.51366 0.1631 0.0
C3861 C 0.70207 0.50489 0.15918 0.0
C3862 C 0.71517 0.5108 0.15666 0.0
C3863 C 0.71735 0.52496 0.15843 0.0
H3864 H 0.53551 0.68228 0.17028 0.0
H3865 H 0.53073 0.72491 0.15732 0.0
H3866 H 0.51054 0.67862 0.16709 0.0
H3867 H 0.5061 0.72147 0.15461 0.0
H3868 H 0.46311 0.71404 0.14504 0.0
H3869 H 0.48802 0.71121 0.14202 0.0
H3870 H 0.48945 0.68536 0.17865 0.0
H3871 H 0.46431 0.6876 0.18111 0.0
C3872 C 0.52918 0.6908 0.16658 0.0
C3873 C 0.53509 0.70391 0.16413 0.0
C3874 C 0.51487 0.68873 0.16484 0.0
C3875 C 0.50625 0.69973 0.16057 0.0
C3876 C 0.51236 0.71265 0.15762 0.0
C3877 C 0.52655 0.71468 0.15933 0.0
C3878 C 0.46872 0.70743 0.1522 0.0
C3879 C 0.46187 0.70118 0.1634 0.0
C3880 C 0.48301 0.70589 0.15055 0.0
C3881 C 0.49084 0.69839 0.16032 0.0
C3882 C 0.48378 0.69119 0.1709 0.0
C3883 C 0.46938 0.69249 0.17235 0.0
H3884 H 0.31236 0.46572 0.17849 0.0
H3885 H 0.28498 0.46507 0.14311 0.0
H3886 H 0.31432 0.49091 0.17652 0.0
H3887 H 0.28752 0.49006 0.14057 0.0
H3888 H 0.27365 0.53217 0.15743 0.0
H3889 H 0.27736 0.50768 0.1539 0.0
H3890 H 0.32047 0.51238 0.16539 0.0
H3891 H 0.31654 0.53719 0.1694 0.0
C3892 C 0.30721 0.47092 0.16996 0.0
C3893 C 0.29834 0.46354 0.16109 0.0
C3894 C 0.30835 0.48537 0.1688 0.0
C3895 C 0.30079 0.4926 0.15859 0.0
C3896 C 0.29312 0.48491 0.14884 0.0
C3897 C 0.29175 0.47057 0.1502 0.0
C3898 C 0.28399 0.52808 0.15904 0.0
C3899 C 0.29476 0.53663 0.16381 0.0
C3900 C 0.28618 0.51397 0.15687 0.0
C3901 C 0.29925 0.50797 0.1593 0.0
C3902 C 0.31024 0.51663 0.16353 0.0
C3903 C 0.30801 0.53084 0.16575 0.0
H3904 H 0.81807 0.53474 0.68603 0.0
H3905 H 0.85495 0.53724 0.71122 0.0
H3906 H 0.82144 0.50976 0.68352 0.0
H3907 H 0.85894 0.51251 0.70801 0.0
H3908 H 0.84621 0.46901 0.7218 0.0
H3909 H 0.84816 0.49369 0.71834 0.0
H3910 H 0.83294 0.48918 0.67638 0.0
H3911 H 0.83042 0.46418 0.68015 0.0
C3912 C 0.8272 0.53 0.69056 0.0
C3913 C 0.83614 0.53781 0.69898 0.0
C3914 C 0.82919 0.51568 0.6891 0.0
C3915 C 0.8403 0.50899 0.69585 0.0
C3916 C 0.85001 0.51718 0.70306 0.0
C3917 C 0.84781 0.53138 0.7048 0.0
C3918 C 0.84346 0.47319 0.71174 0.0
C3919 C 0.83802 0.46462 0.7013 0.0
C3920 C 0.84471 0.48743 0.70968 0.0
C3921 C 0.84071 0.49356 0.69705 0.0
C3922 C 0.83595 0.48487 0.68631 0.0
C3923 C 0.8346 0.47053 0.68842 0.0
H3924 H 0.53577 0.81925 0.68736 0.0
H3925 H 0.53705 0.85214 0.71766 0.0
H3926 H 0.51056 0.82173 0.68574 0.0
H3927 H 0.51208 0.85521 0.71553 0.0
H3928 H 0.46425 0.83075 0.68426 0.0
H3929 H 0.48922 0.83413 0.68063 0.0
H3930 H 0.49441 0.84104 0.72464 0.0
H3931 H 0.4698 0.83811 0.72811 0.0
C3932 C 0.5307 0.82736 0.69326 0.0
C3933 C 0.53825 0.83535 0.7028 0.0
C3934 C 0.51626 0.82882 0.69232 0.0
C3935 C 0.50923 0.83845 0.70077 0.0
C3936 C 0.51709 0.84739 0.70921 0.0
C3937 C 0.53141 0.84572 0.71036 0.0
C3938 C 0.47075 0.83324 0.69307 0.0
C3939 C 0.46506 0.83411 0.70648 0.0
C3940 C 0.48505 0.8351 0.69102 0.0
C3941 C 0.49386 0.83791 0.70232 0.0
C3942 C 0.48799 0.83919 0.71561 0.0
C3943 C 0.47381 0.83736 0.71764 0.0
H3944 H 0.16925 0.53559 0.68604 0.0
H3945 H 0.15671 0.53014 0.7287 0.0
H3946 H 0.16632 0.51065 0.68207 0.0
H3947 H 0.15429 0.50552 0.72498 0.0
H3948 H 0.14548 0.46242 0.7172 0.0
H3949 H 0.14202 0.48731 0.71478 0.0
H3950 H 0.17811 0.48965 0.68825 0.0
H3951 H 0.18097 0.46453 0.69006 0.0
C3952 C 0.1657 0.52912 0.6945 0.0
C3953 C 0.16329 0.53483 0.7077 0.0
C3954 C 0.16411 0.51482 0.69227 0.0
C3955 C 0.16006 0.506 0.70319 0.0
C3956 C 0.15714 0.51192 0.7162 0.0
C3957 C 0.15867 0.52611 0.7184 0.0
C3958 C 0.15241 0.46823 0.71053 0.0
C3959 C 0.16357 0.46163 0.70394 0.0
C3960 C 0.15052 0.48252 0.70923 0.0
C3961 C 0.16003 0.4906 0.70165 0.0
C3962 C 0.17056 0.4838 0.69414 0.0
C3963 C 0.17224 0.46939 0.69519 0.0
H3964 H 0.46296 0.14696 0.71711 0.0
H3965 H 0.46453 0.18063 0.68771 0.0
H3966 H 0.48793 0.14387 0.71505 0.0
H3967 H 0.48972 0.17816 0.6862 0.0
H3968 H 0.53586 0.16951 0.68448 0.0
H3969 H 0.51091 0.16628 0.68081 0.0
H3970 H 0.50593 0.1571 0.72442 0.0
H3971 H 0.53056 0.1598 0.7279 0.0
C3972 C 0.46867 0.15356 0.71003 0.0
C3973 C 0.46189 0.16413 0.70269 0.0
C3974 C 0.483 0.15189 0.70893 0.0
C3975 C 0.49095 0.16102 0.70078 0.0
C3976 C 0.48398 0.1709 0.69256 0.0
C3977 C 0.46954 0.17236 0.69343 0.0
C3978 C 0.52942 0.16655 0.69319 0.0
C3979 C 0.53519 0.16497 0.70649 0.0
C3980 C 0.51511 0.16478 0.69111 0.0
C3981 C 0.50634 0.16139 0.7023 0.0
C3982 C 0.5123 0.15939 0.71546 0.0
C3983 C 0.52649 0.16109 0.71751 0.0
H3984 H 0.82029 0.46668 0.31148 0.0
H3985 H 0.8541 0.46649 0.28217 0.0
H3986 H 0.82207 0.49191 0.31339 0.0
H3987 H 0.85647 0.49151 0.28462 0.0
H3988 H 0.83883 0.5336 0.27206 0.0
H3989 H 0.84237 0.50905 0.27533 0.0
H3990 H 0.83358 0.51344 0.31909 0.0
H3991 H 0.82956 0.53832 0.31564 0.0
C3992 C 0.82844 0.472 0.30586 0.0
C3993 C 0.83691 0.46473 0.29651 0.0
C3994 C 0.8295 0.48646 0.30697 0.0
C3995 C 0.8392 0.49381 0.29889 0.0
C3996 C 0.84858 0.48625 0.29065 0.0
C3997 C 0.84731 0.47191 0.28932 0.0
C3998 C 0.8378 0.52943 0.28244 0.0
C3999 C 0.83381 0.53793 0.29357 0.0
C4000 C 0.83998 0.51529 0.28436 0.0
C4001 C 0.83834 0.50919 0.29751 0.0
C4002 C 0.83483 0.51777 0.3088 0.0
C4003 C 0.83261 0.53203 0.30685 0.0
H4004 H 0.53163 0.83955 0.2707 0.0
H4005 H 0.53647 0.8308 0.31437 0.0
H4006 H 0.50708 0.84312 0.274 0.0
H4007 H 0.5116 0.83486 0.31785 0.0
H4008 H 0.4645 0.85494 0.28089 0.0
H4009 H 0.48954 0.85729 0.28312 0.0
H4010 H 0.49005 0.82336 0.31244 0.0
H4011 H 0.46481 0.82161 0.31073 0.0
C4012 C 0.52749 0.83865 0.2811 0.0
C4013 C 0.53602 0.8348 0.29225 0.0
C4014 C 0.51335 0.84084 0.28304 0.0
C4015 C 0.50728 0.83936 0.29623 0.0
C4016 C 0.5159 0.83599 0.30753 0.0
C4017 C 0.53015 0.83374 0.30557 0.0
C4018 C 0.46995 0.84826 0.2881 0.0
C4019 C 0.46279 0.83799 0.29551 0.0
C4020 C 0.48431 0.84951 0.28931 0.0
C4021 C 0.49191 0.84025 0.29765 0.0
C4022 C 0.48458 0.83069 0.30593 0.0
C4023 C 0.47011 0.82965 0.30494 0.0
H4024 H 0.17113 0.46538 0.31707 0.0
H4025 H 0.1566 0.47159 0.27515 0.0
H4026 H 0.16793 0.49016 0.32176 0.0
H4027 H 0.15394 0.49605 0.27954 0.0
H4028 H 0.14617 0.53898 0.28779 0.0
H4029 H 0.14232 0.51416 0.29043 0.0
H4030 H 0.17939 0.51121 0.31554 0.0
H4031 H 0.18258 0.53628 0.31362 0.0
C4032 C 0.16706 0.47198 0.30894 0.0
C4033 C 0.16423 0.46655 0.29571 0.0
C4034 C 0.16532 0.48619 0.31159 0.0
C4035 C 0.1607 0.49519 0.30105 0.0
C4036 C 0.15726 0.48952 0.28805 0.0
C4037 C 0.15893 0.47542 0.28545 0.0
C4038 C 0.1532 0.53305 0.29425 0.0
C4039 C 0.16473 0.53943 0.3004 0.0
C4040 C 0.1511 0.51881 0.29567 0.0
C4041 C 0.16079 0.51056 0.30283 0.0
C4042 C 0.17169 0.51719 0.30997 0.0
C4043 C 0.17356 0.53155 0.30885 0.0
H4044 H 0.53448 0.14586 0.28619 0.0
H4045 H 0.53317 0.18174 0.31287 0.0
H4046 H 0.5095 0.14307 0.28856 0.0
H4047 H 0.50798 0.17954 0.31463 0.0
H4048 H 0.46182 0.17202 0.31664 0.0
H4049 H 0.48662 0.16835 0.32083 0.0
H4050 H 0.49172 0.15578 0.27807 0.0
H4051 H 0.46722 0.15895 0.27412 0.0
C4052 C 0.52883 0.15302 0.29276 0.0
C4053 C 0.53567 0.1641 0.29922 0.0
C4054 C 0.51449 0.15151 0.29403 0.0
C4055 C 0.50662 0.16132 0.30144 0.0
C4056 C 0.51366 0.17176 0.30885 0.0
C4057 C 0.5281 0.17307 0.30783 0.0
C4058 C 0.46824 0.1682 0.30826 0.0
C4059 C 0.46256 0.16586 0.29503 0.0
C4060 C 0.48247 0.16618 0.31062 0.0
C4061 C 0.49124 0.16177 0.2998 0.0
C4062 C 0.48535 0.15891 0.28677 0.0
C4063 C 0.47123 0.16087 0.28444 0.0
H4064 H 0.68277 0.83064 0.46447 0.0
H4065 H 0.72541 0.84366 0.46899 0.0
H4066 H 0.67909 0.83434 0.48935 0.0
H4067 H 0.72196 0.84685 0.49356 0.0
H4068 H 0.71483 0.85655 0.53652 0.0
H4069 H 0.71185 0.8595 0.51161 0.0
H4070 H 0.68578 0.82302 0.5105 0.0
H4071 H 0.68815 0.82065 0.53561 0.0
C4072 C 0.69128 0.83447 0.47072 0.0
C4073 C 0.7044 0.83677 0.46478 0.0
C4074 C 0.68921 0.8365 0.48498 0.0
C4075 C 0.70021 0.84089 0.49353 0.0
C4076 C 0.71313 0.84374 0.48737 0.0
C4077 C 0.71517 0.84176 0.47321 0.0
C4078 C 0.70813 0.84943 0.53097 0.0
C4079 C 0.70185 0.83829 0.5379 0.0
C4080 C 0.70651 0.85103 0.51669 0.0
C4081 C 0.69891 0.84127 0.50894 0.0
C4082 C 0.69168 0.83077 0.51609 0.0
C4083 C 0.69306 0.82937 0.53049 0.0
H4084 H 0.72826 0.16186 0.46903 0.0
H4085 H 0.68455 0.17057 0.46433 0.0
H4086 H 0.7251 0.15862 0.49364 0.0
H4087 H 0.68122 0.16683 0.48927 0.0
H4088 H 0.68859 0.18078 0.53579 0.0
H4089 H 0.68673 0.17863 0.5106 0.0
H4090 H 0.71611 0.14475 0.51147 0.0
H4091 H 0.7185 0.1475 0.53645 0.0
C4092 C 0.71788 0.16282 0.47323 0.0
C4093 C 0.70668 0.16657 0.46471 0.0
C4094 C 0.71602 0.16081 0.4874 0.0
C4095 C 0.70287 0.16238 0.49352 0.0
C4096 C 0.69151 0.16564 0.48493 0.0
C4097 C 0.6934 0.1677 0.47064 0.0
C4098 C 0.69436 0.17266 0.53059 0.0
C4099 C 0.70385 0.16446 0.53798 0.0
C4100 C 0.69328 0.17139 0.51615 0.0
C4101 C 0.70154 0.16173 0.50892 0.0
C4102 C 0.70994 0.1526 0.51661 0.0
C4103 C 0.71124 0.15409 0.53094 0.0
H4104 H 0.85443 0.71573 0.53771 0.0
H4105 H 0.81918 0.68828 0.53561 0.0
H4106 H 0.85797 0.71326 0.51283 0.0
H4107 H 0.82207 0.68646 0.51049 0.0
H4108 H 0.8306 0.68443 0.46457 0.0
H4109 H 0.83365 0.68044 0.48948 0.0
H4110 H 0.84589 0.7233 0.49456 0.0
H4111 H 0.84341 0.72702 0.46996 0.0
C4112 C 0.84757 0.70898 0.5319 0.0
C4113 C 0.83646 0.7023 0.53849 0.0
C4114 C 0.8495 0.70766 0.51762 0.0
C4115 C 0.84006 0.70001 0.50952 0.0
C4116 C 0.82958 0.69242 0.51634 0.0
C4117 C 0.82788 0.69347 0.53074 0.0
C4118 C 0.83423 0.69287 0.47103 0.0
C4119 C 0.83669 0.70606 0.4653 0.0
C4120 C 0.83588 0.69063 0.48531 0.0
C4121 C 0.84001 0.70153 0.49412 0.0
C4122 C 0.84298 0.71453 0.48819 0.0
C4123 C 0.84142 0.71673 0.474 0.0
H4124 H 0.313 0.8202 0.46493 0.0
H4125 H 0.28501 0.85507 0.46352 0.0
H4126 H 0.31419 0.82214 0.49017 0.0
H4127 H 0.28677 0.85762 0.48858 0.0
H4128 H 0.27241 0.84116 0.53059 0.0
H4129 H 0.27652 0.84442 0.50612 0.0
H4130 H 0.31962 0.83327 0.51171 0.0
H4131 H 0.31528 0.82948 0.53647 0.0
C4132 C 0.30754 0.82862 0.46999 0.0
C4133 C 0.29875 0.83735 0.46236 0.0
C4134 C 0.30823 0.82977 0.48447 0.0
C4135 C 0.30029 0.83983 0.4915 0.0
C4136 C 0.29266 0.84945 0.48359 0.0
C4137 C 0.29173 0.84809 0.46922 0.0
C4138 C 0.28283 0.83955 0.52669 0.0
C4139 C 0.29349 0.83496 0.53549 0.0
C4140 C 0.28525 0.84157 0.5126 0.0
C4141 C 0.29844 0.83918 0.50685 0.0
C4142 C 0.30929 0.83509 0.51574 0.0
C4143 C 0.30684 0.833 0.52994 0.0
H4144 H 0.16204 0.27501 0.46657 0.0
H4145 H 0.17127 0.31855 0.46143 0.0
H4146 H 0.15777 0.27866 0.49095 0.0
H4147 H 0.16656 0.32236 0.48615 0.0
H4148 H 0.1784 0.31502 0.53353 0.0
H4149 H 0.17752 0.31675 0.50823 0.0
H4150 H 0.14274 0.28844 0.50765 0.0
H4151 H 0.14418 0.28621 0.53275 0.0
C4152 C 0.16293 0.28545 0.47061 0.0
C4153 C 0.16708 0.29647 0.46205 0.0
C4154 C 0.16033 0.28759 0.48464 0.0
C4155 C 0.16171 0.30084 0.49057 0.0
C4156 C 0.16547 0.31201 0.48194 0.0
C4157 C 0.16809 0.30985 0.46778 0.0
C4158 C 0.17035 0.30948 0.52797 0.0
C4159 C 0.1615 0.3003 0.535 0.0
C4160 C 0.16981 0.31049 0.51348 0.0
C4161 C 0.16028 0.30246 0.50586 0.0
C4162 C 0.1505 0.29443 0.51314 0.0
C4163 C 0.15124 0.29322 0.52753 0.0
H4164 H 0.30884 0.1819 0.53757 0.0
H4165 H 0.27815 0.14939 0.53927 0.0
H4166 H 0.31055 0.17898 0.51243 0.0
H4167 H 0.28036 0.14588 0.51437 0.0
H4168 H 0.26879 0.16155 0.47129 0.0
H4169 H 0.27175 0.15937 0.49604 0.0
H4170 H 0.31585 0.16619 0.49155 0.0
H4171 H 0.31274 0.16886 0.46645 0.0
C4172 C 0.30284 0.1738 0.53261 0.0
C4173 C 0.2932 0.16602 0.54027 0.0
C4174 C 0.30383 0.17208 0.5182 0.0
C4175 C 0.29534 0.16241 0.51129 0.0
C4176 C 0.28672 0.15373 0.51926 0.0
C4177 C 0.28553 0.15566 0.53355 0.0
C4178 C 0.27917 0.16243 0.4755 0.0
C4179 C 0.29051 0.16546 0.46688 0.0
C4180 C 0.28091 0.16104 0.48976 0.0
C4181 C 0.29407 0.16252 0.49588 0.0
C4182 C 0.30555 0.1651 0.48721 0.0
C4183 C 0.30379 0.16654 0.47283 0.0
H4184 H 0.82988 0.31846 0.46273 0.0
H4185 H 0.8431 0.27592 0.46756 0.0
H4186 H 0.83329 0.32225 0.48764 0.0
H4187 H 0.84598 0.27946 0.49215 0.0
H4188 H 0.85549 0.2869 0.53512 0.0
H4189 H 0.85847 0.28964 0.5102 0.0
H4190 H 0.82202 0.31576 0.50881 0.0
H4191 H 0.81965 0.31365 0.53396 0.0
C4192 C 0.83367 0.30999 0.46906 0.0
C4193 C 0.83615 0.29687 0.46318 0.0
C4194 C 0.83554 0.31213 0.48334 0.0
C4195 C 0.83991 0.30118 0.49198 0.0
C4196 C 0.84288 0.28826 0.48589 0.0
C4197 C 0.84109 0.28616 0.47172 0.0
C4198 C 0.84838 0.29356 0.52951 0.0
C4199 C 0.83726 0.29994 0.53638 0.0
C4200 C 0.84999 0.29504 0.51521 0.0
C4201 C 0.84024 0.30258 0.50738 0.0
C4202 C 0.82975 0.3099 0.51446 0.0
C4203 C 0.82835 0.30867 0.52888 0.0
H4204 H 0.18041 0.68568 0.5356 0.0
H4205 H 0.1447 0.71257 0.53713 0.0
H4206 H 0.17807 0.68398 0.51042 0.0
H4207 H 0.14172 0.71022 0.51216 0.0
H4208 H 0.15801 0.72528 0.47027 0.0
H4209 H 0.15455 0.72089 0.49464 0.0
H4210 H 0.167 0.67818 0.48891 0.0
H4211 H 0.17099 0.68281 0.46422 0.0
C4212 C 0.17171 0.69073 0.53058 0.0
C4213 C 0.16285 0.69942 0.53818 0.0
C4214 C 0.17033 0.68975 0.51615 0.0
C4215 C 0.15991 0.69726 0.50917 0.0
C4216 C 0.15015 0.70467 0.51711 0.0
C4217 C 0.15175 0.70593 0.53142 0.0
C4218 C 0.15984 0.71487 0.4741 0.0
C4219 C 0.16491 0.70443 0.46531 0.0
C4220 C 0.1577 0.71229 0.48814 0.0
C4221 C 0.16045 0.69914 0.49383 0.0
C4222 C 0.16491 0.68846 0.48491 0.0
C4223 C 0.16711 0.69109 0.47076 0.0
H4224 H 0.17625 0.12569 0.28934 0.0
H4225 H 0.15851 0.10812 0.32646 0.0
H4226 H 0.15691 0.14177 0.28757 0.0
H4227 H 0.13942 0.12482 0.32524 0.0
H4228 H 0.1034 0.15439 0.31657 0.0
H4229 H 0.11916 0.13453 0.31454 0.0
H4230 H 0.15137 0.16195 0.29962 0.0
H4231 H 0.13566 0.18136 0.3011 0.0
C4232 C 0.16812 0.12523 0.29708 0.0
C4233 C 0.16893 0.11579 0.30812 0.0
C4234 C 0.15707 0.13452 0.29615 0.0
C4235 C 0.14674 0.13489 0.30647 0.0
C4236 C 0.14713 0.12484 0.31708 0.0
C4237 C 0.15808 0.11529 0.31782 0.0
C4238 C 0.1138 0.15607 0.31267 0.0
C4239 C 0.11825 0.16946 0.30897 0.0
C4240 C 0.12287 0.14472 0.31159 0.0
C4241 C 0.13656 0.14656 0.30683 0.0
C4242 C 0.14084 0.15997 0.30299 0.0
C4243 C 0.13182 0.1712 0.30396 0.0
H4244 H 0.89445 0.15516 0.31576 0.0
H4245 H 0.86106 0.18023 0.29946 0.0
H4246 H 0.87954 0.13458 0.31436 0.0
H4247 H 0.84624 0.16007 0.29847 0.0
H4248 H 0.82347 0.12245 0.28856 0.0
H4249 H 0.84233 0.13907 0.28654 0.0
H4250 H 0.85916 0.12472 0.32554 0.0
H4251 H 0.84053 0.10753 0.32715 0.0
C4252 C 0.88399 0.15627 0.31181 0.0
C4253 C 0.87895 0.16933 0.3077 0.0
C4254 C 0.87543 0.14451 0.31108 0.0
C4255 C 0.8617 0.14561 0.30619 0.0
C4256 C 0.85683 0.15869 0.30196 0.0
C4257 C 0.86533 0.17034 0.30265 0.0
C4258 C 0.83138 0.12265 0.29655 0.0
C4259 C 0.83047 0.11384 0.30809 0.0
C4260 C 0.84214 0.13224 0.29546 0.0
C4261 C 0.85207 0.13352 0.30606 0.0
C4262 C 0.85171 0.12402 0.31717 0.0
C4263 C 0.84103 0.11419 0.31812 0.0
H4264 H 0.89199 0.83861 0.32424 0.0
H4265 H 0.87512 0.82175 0.28638 0.0
H4266 H 0.8751 0.85757 0.32331 0.0
H4267 H 0.8588 0.84093 0.28498 0.0
H4268 H 0.84508 0.89348 0.31473 0.0
H4269 H 0.86523 0.87808 0.3126 0.0
H4270 H 0.8384 0.84546 0.29755 0.0
H4271 H 0.81866 0.86078 0.29924 0.0
C4272 C 0.88495 0.83921 0.31551 0.0
C4273 C 0.88468 0.82863 0.3055 0.0
C4274 C 0.87529 0.85008 0.31493 0.0
C4275 C 0.86535 0.85062 0.30423 0.0
C4276 C 0.86598 0.84062 0.29362 0.0
C4277 C 0.87541 0.82967 0.29434 0.0
C4278 C 0.84359 0.88307 0.31081 0.0
C4279 C 0.83027 0.87837 0.30713 0.0
C4280 C 0.8551 0.87422 0.30966 0.0
C4281 C 0.8535 0.86054 0.3048 0.0
C4282 C 0.84017 0.856 0.30101 0.0
C4283 C 0.82876 0.86479 0.30209 0.0
H4284 H 0.10507 0.8442 0.31587 0.0
H4285 H 0.13693 0.81849 0.29762 0.0
H4286 H 0.12026 0.86448 0.31355 0.0
H4287 H 0.15206 0.83835 0.29573 0.0
H4288 H 0.17542 0.8754 0.28526 0.0
H4289 H 0.15603 0.85932 0.28392 0.0
H4290 H 0.14132 0.87375 0.32375 0.0
H4291 H 0.16046 0.8904 0.32469 0.0
C4292 C 0.11524 0.84289 0.31127 0.0
C4293 C 0.11979 0.82973 0.30693 0.0
C4294 C 0.12397 0.85448 0.31002 0.0
C4295 C 0.13738 0.8531 0.30438 0.0
C4296 C 0.14172 0.83994 0.29983 0.0
C4297 C 0.13305 0.82846 0.30103 0.0
C4298 C 0.16787 0.87533 0.29358 0.0
C4299 C 0.16952 0.88399 0.30516 0.0
C4300 C 0.1568 0.86606 0.29287 0.0
C4301 C 0.1473 0.86495 0.30389 0.0
C4302 C 0.14841 0.87432 0.31505 0.0
C4303 C 0.15939 0.88384 0.31563 0.0
H4304 H 0.17853 0.87381 0.71321 0.0
H4305 H 0.16108 0.89228 0.67636 0.0
H4306 H 0.15949 0.85731 0.71407 0.0
H4307 H 0.14219 0.87528 0.67683 0.0
H4308 H 0.10629 0.84486 0.68548 0.0
H4309 H 0.12177 0.86493 0.68793 0.0
H4310 H 0.15506 0.8375 0.70014 0.0
H4311 H 0.13973 0.81779 0.69807 0.0
C4312 C 0.17051 0.87442 0.70537 0.0
C4313 C 0.17136 0.88419 0.69462 0.0
C4314 C 0.15964 0.8649 0.70579 0.0
C4315 C 0.14949 0.86472 0.69531 0.0
C4316 C 0.14981 0.87513 0.68507 0.0
C4317 C 0.16064 0.88485 0.68478 0.0
C4318 C 0.11689 0.8432 0.68882 0.0
C4319 C 0.12176 0.82973 0.69162 0.0
C4320 C 0.12576 0.85467 0.69016 0.0
C4321 C 0.13963 0.85286 0.69437 0.0
C4322 C 0.14438 0.83937 0.69721 0.0
C4323 C 0.13558 0.828 0.6959 0.0
H4324 H 0.15776 0.10752 0.67468 0.0
H4325 H 0.17346 0.12373 0.71335 0.0
H4326 H 0.13934 0.12503 0.67486 0.0
H4327 H 0.15489 0.14079 0.71383 0.0
H4328 H 0.13725 0.18159 0.69814 0.0
H4329 H 0.1519 0.16135 0.70033 0.0
H4330 H 0.11852 0.13537 0.68551 0.0
H4331 H 0.10375 0.15596 0.68299 0.0
C4332 C 0.15702 0.11456 0.68341 0.0
C4333 C 0.16716 0.11443 0.69388 0.0
C4334 C 0.14647 0.12457 0.68354 0.0
C4335 C 0.14582 0.13451 0.69422 0.0
C4336 C 0.15532 0.13356 0.70525 0.0
C4337 C 0.16592 0.12372 0.70502 0.0
C4338 C 0.13294 0.17158 0.69541 0.0
C4339 C 0.11931 0.17041 0.69038 0.0
C4340 C 0.14133 0.15991 0.69679 0.0
C4341 C 0.13636 0.14668 0.69324 0.0
C4342 C 0.12268 0.14542 0.68829 0.0
C4343 C 0.11421 0.15719 0.68691 0.0
H4344 H 0.86526 0.18057 0.70199 0.0
H4345 H 0.89675 0.1548 0.6832 0.0
H4346 H 0.85005 0.1608 0.70394 0.0
H4347 H 0.8815 0.13458 0.68562 0.0
H4348 H 0.84118 0.10873 0.675 0.0
H4349 H 0.86045 0.12525 0.67581 0.0
H4350 H 0.84595 0.13992 0.71564 0.0
H4351 H 0.8264 0.12403 0.71436 0.0
C4352 C 0.86905 0.17059 0.69848 0.0
C4353 C 0.88223 0.16929 0.69241 0.0
C4354 C 0.86033 0.15916 0.69972 0.0
C4355 C 0.86455 0.14599 0.69507 0.0
C4356 C 0.87788 0.14458 0.68924 0.0
C4357 C 0.88664 0.15613 0.68792 0.0
C4358 C 0.84234 0.11531 0.68403 0.0
C4359 C 0.83223 0.1153 0.69451 0.0
C4360 C 0.85339 0.12476 0.68454 0.0
C4361 C 0.85459 0.13418 0.69565 0.0
C4362 C 0.84511 0.13317 0.7067 0.0
C4363 C 0.83396 0.12399 0.70605 0.0
H4364 H 0.87651 0.82455 0.71402 0.0
H4365 H 0.8915 0.84183 0.67555 0.0
H4366 H 0.85994 0.84344 0.71616 0.0
H4367 H 0.87436 0.8605 0.67728 0.0
H4368 H 0.84419 0.89587 0.68716 0.0
H4369 H 0.86466 0.88081 0.68852 0.0
H4370 H 0.83895 0.8477 0.70444 0.0
H4371 H 0.8189 0.86269 0.70351 0.0
C4372 C 0.87633 0.8325 0.70608 0.0
C4373 C 0.88516 0.83165 0.69454 0.0
C4374 C 0.86676 0.84328 0.70724 0.0
C4375 C 0.86553 0.85331 0.69671 0.0
C4376 C 0.87502 0.85298 0.6856 0.0
C4377 C 0.88482 0.84228 0.68458 0.0
C4378 C 0.84301 0.88542 0.69112 0.0
C4379 C 0.82991 0.88049 0.69524 0.0
C4380 C 0.85471 0.87677 0.69182 0.0
C4381 C 0.85351 0.86305 0.69668 0.0
C4382 C 0.84041 0.85828 0.70096 0.0
C4383 C 0.82882 0.86688 0.7003 0.0
H4384 H 0.31896 0.15553 0.10211 0.0
H4385 H 0.30033 0.18173 0.13334 0.0
H4386 H 0.31613 0.13541 0.11746 0.0
H4387 H 0.29793 0.16205 0.14861 0.0
H4388 H 0.28649 0.12562 0.17218 0.0
H4389 H 0.28569 0.14128 0.15241 0.0
H4390 H 0.3257 0.12621 0.13888 0.0
H4391 H 0.32607 0.10994 0.15839 0.0
C4392 C 0.31419 0.15698 0.11218 0.0
C4393 C 0.30987 0.17022 0.1165 0.0
C4394 C 0.31263 0.14548 0.12099 0.0
C4395 C 0.3067 0.14705 0.13425 0.0
C4396 C 0.30223 0.16031 0.13838 0.0
C4397 C 0.30373 0.17168 0.12963 0.0
C4398 C 0.29495 0.12543 0.16478 0.0
C4399 C 0.30641 0.11673 0.16687 0.0
C4400 C 0.29456 0.13447 0.1535 0.0
C4401 C 0.30581 0.13531 0.14426 0.0
C4402 C 0.31684 0.12584 0.14578 0.0
C4403 C 0.31709 0.11654 0.15696 0.0
H4404 H 0.89562 0.31532 0.15398 0.0
H4405 H 0.86315 0.29998 0.18079 0.0
H4406 H 0.88011 0.3128 0.13395 0.0
H4407 H 0.84775 0.29789 0.16116 0.0
H4408 H 0.8402 0.32343 0.10724 0.0
H4409 H 0.85925 0.32315 0.12406 0.0
H4410 H 0.84356 0.28471 0.14096 0.0
H4411 H 0.8243 0.28541 0.12469 0.0
C4412 C 0.88523 0.31136 0.15559 0.0
C4413 C 0.88064 0.30781 0.16898 0.0
C4414 C 0.87633 0.30999 0.14414 0.0
C4415 C 0.86271 0.30501 0.14589 0.0
C4416 C 0.85825 0.30141 0.1593 0.0
C4417 C 0.86709 0.30273 0.17064 0.0
C4418 C 0.84103 0.31481 0.1144 0.0
C4419 C 0.83068 0.30456 0.11485 0.0
C4420 C 0.85195 0.31462 0.12401 0.0
C4421 C 0.85277 0.30407 0.13409 0.0
C4422 C 0.84302 0.29322 0.13365 0.0
C4423 C 0.83203 0.29356 0.12427 0.0
H4424 H 0.7128 0.87771 0.1746 0.0
H4425 H 0.67349 0.89252 0.15917 0.0
H4426 H 0.71429 0.86136 0.15545 0.0
H4427 H 0.67456 0.87557 0.14026 0.0
H4428 H 0.70064 0.82017 0.13734 0.0
H4429 H 0.7022 0.84034 0.15207 0.0
H4430 H 0.68505 0.8658 0.11939 0.0
H4431 H 0.68309 0.8452 0.10456 0.0
C4432 C 0.70455 0.87756 0.16697 0.0
C4433 C 0.69296 0.88622 0.16843 0.0
C4434 C 0.70533 0.86813 0.15605 0.0
C4435 C 0.69436 0.86686 0.14652 0.0
C4436 C 0.6832 0.87626 0.14739 0.0
C4437 C 0.68256 0.88595 0.15823 0.0
C4438 C 0.69729 0.83006 0.13318 0.0
C4439 C 0.69172 0.83105 0.11976 0.0
C4440 C 0.69831 0.84171 0.14162 0.0
C4441 C 0.69389 0.85478 0.1369 0.0
C4442 C 0.68849 0.85588 0.12337 0.0
C4443 C 0.68743 0.84411 0.11486 0.0
H4444 H 0.17273 0.71251 0.12254 0.0
H4445 H 0.15745 0.67278 0.10876 0.0
H4446 H 0.15343 0.71447 0.13866 0.0
H4447 H 0.13841 0.67431 0.1255 0.0
H4448 H 0.10246 0.68312 0.15513 0.0
H4449 H 0.11752 0.68474 0.13468 0.0
H4450 H 0.14947 0.70344 0.15998 0.0
H4451 H 0.13447 0.70227 0.17997 0.0
C4452 C 0.16512 0.70425 0.12289 0.0
C4453 C 0.16665 0.69243 0.11456 0.0
C4454 C 0.1541 0.70531 0.13219 0.0
C4455 C 0.14455 0.69438 0.13368 0.0
C4456 C 0.14554 0.68294 0.12463 0.0
C4457 C 0.15646 0.68203 0.11506 0.0
C4458 C 0.11264 0.68776 0.1562 0.0
C4459 C 0.11726 0.69256 0.16918 0.0
C4460 C 0.12129 0.68861 0.14452 0.0
C4461 C 0.13471 0.6943 0.14561 0.0
C4462 C 0.13912 0.6993 0.15858 0.0
C4463 C 0.13052 0.69851 0.17015 0.0
H4464 H 0.32781 0.89111 0.84318 0.0
H4465 H 0.29021 0.87471 0.82533 0.0
H4466 H 0.32603 0.87445 0.86226 0.0
H4467 H 0.28787 0.85871 0.84468 0.0
H4468 H 0.30059 0.81852 0.86535 0.0
H4469 H 0.29945 0.83817 0.84992 0.0
H4470 H 0.31507 0.86483 0.88244 0.0
H4471 H 0.31674 0.84472 0.89792 0.0
C4472 C 0.31894 0.88423 0.8436 0.0
C4473 C 0.30927 0.884 0.83272 0.0
C4474 C 0.31787 0.87471 0.85455 0.0
C4475 C 0.30697 0.86497 0.85487 0.0
C4476 C 0.29667 0.86569 0.84455 0.0
C4477 C 0.29792 0.87494 0.83351 0.0
C4478 C 0.30367 0.82857 0.86932 0.0
C4479 C 0.30878 0.83003 0.88288 0.0
C4480 C 0.3029 0.83994 0.86046 0.0
C4481 C 0.30704 0.8532 0.86491 0.0
C4482 C 0.31188 0.85476 0.87861 0.0
C4483 C 0.31276 0.84327 0.88751 0.0
H4484 H 0.15469 0.3154 0.89751 0.0
H4485 H 0.18069 0.29814 0.86534 0.0
H4486 H 0.13449 0.31334 0.88215 0.0
H4487 H 0.16092 0.2965 0.85007 0.0
H4488 H 0.12404 0.28576 0.82656 0.0
H4489 H 0.14011 0.28438 0.84596 0.0
H4490 H 0.12511 0.3238 0.86118 0.0
H4491 H 0.10846 0.32477 0.84201 0.0
C4492 C 0.15608 0.31109 0.88723 0.0
C4493 C 0.16929 0.30692 0.88266 0.0
C4494 C 0.14454 0.30998 0.87841 0.0
C4495 C 0.14602 0.30465 0.86489 0.0
C4496 C 0.15925 0.30034 0.8605 0.0
C4497 C 0.17067 0.3014 0.86926 0.0
C4498 C 0.12398 0.29398 0.83423 0.0
C4499 C 0.11516 0.30545 0.83272 0.0
C4500 C 0.13325 0.29325 0.8453 0.0
C4501 C 0.13419 0.30416 0.85494 0.0
C4502 C 0.12467 0.3152 0.85397 0.0
C4503 C 0.11515 0.31579 0.84298 0.0
H4504 H 0.71441 0.17453 0.87665 0.0
H4505 H 0.67562 0.15893 0.89262 0.0
H4506 H 0.71558 0.15528 0.8604 0.0
H4507 H 0.67636 0.13992 0.8758 0.0
H4508 H 0.68424 0.10377 0.84599 0.0
H4509 H 0.68654 0.11908 0.86619 0.0
H4510 H 0.70342 0.15109 0.83971 0.0
H4511 H 0.70157 0.13585 0.81994 0.0
C4512 C 0.70619 0.16687 0.87675 0.0
C4513 C 0.69485 0.16829 0.88575 0.0
C4514 C 0.70679 0.15588 0.86737 0.0
C4515 C 0.69588 0.14622 0.8665 0.0
C4516 C 0.68496 0.14713 0.87618 0.0
C4517 C 0.68451 0.15803 0.8858 0.0
C4518 C 0.6886 0.11403 0.84459 0.0
C4519 C 0.69273 0.11858 0.83136 0.0
C4520 C 0.68985 0.12282 0.85613 0.0
C4521 C 0.69526 0.13631 0.85464 0.0
C4522 C 0.69953 0.14069 0.8414 0.0
C4523 C 0.69834 0.13194 0.82997 0.0
H4524 H 0.86376 0.70334 0.81688 0.0
H4525 H 0.89549 0.68471 0.84246 0.0
H4526 H 0.84854 0.70492 0.83669 0.0
H4527 H 0.88024 0.68678 0.86271 0.0
H4528 H 0.84044 0.67594 0.88905 0.0
H4529 H 0.85941 0.67683 0.8722 0.0
H4530 H 0.84433 0.71647 0.8576 0.0
H4531 H 0.82507 0.71511 0.87383 0.0
C4532 C 0.8676 0.69978 0.82683 0.0
C4533 C 0.88086 0.69388 0.82806 0.0
C4534 C 0.85887 0.70081 0.83828 0.0
C4535 C 0.86316 0.69611 0.85141 0.0
C4536 C 0.87655 0.69042 0.85275 0.0
C4537 C 0.88532 0.68931 0.84118 0.0
C4538 C 0.84139 0.68494 0.88239 0.0
C4539 C 0.8312 0.69535 0.88256 0.0
C4540 C 0.85227 0.68549 0.87276 0.0
C4541 C 0.85324 0.69657 0.86328 0.0
C4542 C 0.84367 0.70754 0.86438 0.0
C4543 C 0.83268 0.70684 0.87377 0.0
H4544 H 0.1596 0.3229 0.11066 0.0
H4545 H 0.17562 0.28423 0.12648 0.0
H4546 H 0.14052 0.32184 0.12738 0.0
H4547 H 0.15628 0.28271 0.14261 0.0
H4548 H 0.13708 0.29678 0.18324 0.0
H4549 H 0.1521 0.29478 0.16332 0.0
H4550 H 0.11981 0.3115 0.13707 0.0
H4551 H 0.10473 0.31396 0.15742 0.0
C4552 C 0.15877 0.31396 0.11741 0.0
C4553 C 0.16917 0.30376 0.11748 0.0
C4554 C 0.14782 0.31331 0.12697 0.0
C4555 C 0.14702 0.30234 0.13659 0.0
C4556 C 0.1568 0.29154 0.13568 0.0
C4557 C 0.16783 0.29234 0.12638 0.0
C4558 C 0.13306 0.29992 0.17323 0.0
C4559 C 0.1197 0.30557 0.17195 0.0
C4560 C 0.14167 0.29865 0.16171 0.0
C4561 C 0.13717 0.30286 0.14849 0.0
C4562 C 0.12365 0.30824 0.14711 0.0
C4563 C 0.11498 0.30957 0.15873 0.0
H4564 H 0.18261 0.70043 0.86346 0.0
H4565 H 0.15693 0.68442 0.89651 0.0
H4566 H 0.16259 0.70203 0.84851 0.0
H4567 H 0.13649 0.68647 0.88148 0.0
H4568 H 0.10929 0.67478 0.84226 0.0
H4569 H 0.12641 0.67579 0.86101 0.0
H4570 H 0.14199 0.71444 0.84447 0.0
H4571 H 0.12546 0.71297 0.82548 0.0
C4572 C 0.17262 0.69744 0.86763 0.0
C4573 C 0.17139 0.69229 0.88119 0.0
C4574 C 0.16105 0.69849 0.85906 0.0
C4575 C 0.14783 0.69453 0.8638 0.0
C4576 C 0.14652 0.68955 0.87747 0.0
C4577 C 0.1582 0.68844 0.8861 0.0
C4578 C 0.11622 0.6836 0.84285 0.0
C4579 C 0.11624 0.69368 0.83234 0.0
C4580 C 0.12601 0.68421 0.8536 0.0
C4581 C 0.13582 0.69504 0.85408 0.0
C4582 C 0.13492 0.70572 0.84419 0.0
C4583 C 0.12538 0.70495 0.83335 0.0
H4584 H 0.30033 0.18215 0.86098 0.0
H4585 H 0.31563 0.15578 0.89383 0.0
H4586 H 0.29824 0.1623 0.84586 0.0
H4587 H 0.31311 0.13554 0.87861 0.0
H4588 H 0.32424 0.10855 0.83904 0.0
H4589 H 0.32366 0.12551 0.85794 0.0
H4590 H 0.28521 0.14197 0.8418 0.0
H4591 H 0.2862 0.12555 0.82269 0.0
C4592 C 0.30307 0.17205 0.86507 0.0
C4593 C 0.30816 0.17057 0.87863 0.0
C4594 C 0.30174 0.16059 0.85639 0.0
C4595 C 0.30536 0.14724 0.86103 0.0
C4596 C 0.31029 0.14568 0.87469 0.0
C4597 C 0.31167 0.15725 0.88342 0.0
C4598 C 0.31555 0.11563 0.83974 0.0
C4599 C 0.30539 0.11592 0.8293 0.0
C4600 C 0.31518 0.12533 0.85058 0.0
C4601 C 0.30455 0.13533 0.85122 0.0
C4602 C 0.29378 0.13472 0.8414 0.0
C4603 C 0.29429 0.12525 0.83049 0.0
H4604 H 0.89645 0.31619 0.84203 0.0
H4605 H 0.86387 0.29841 0.81691 0.0
H4606 H 0.88148 0.31438 0.86253 0.0
H4607 H 0.84897 0.29705 0.83697 0.0
H4608 H 0.82611 0.28681 0.87437 0.0
H4609 H 0.84519 0.28525 0.85794 0.0
H4610 H 0.86081 0.32474 0.87234 0.0
H4611 H 0.842 0.32585 0.88938 0.0
C4612 C 0.88615 0.31185 0.84089 0.0
C4613 C 0.88136 0.30742 0.82784 0.0
C4614 C 0.87756 0.31087 0.85261 0.0
C4615 C 0.86404 0.30545 0.85147 0.0
C4616 C 0.85941 0.30094 0.8384 0.0
C4617 C 0.86795 0.30185 0.82679 0.0
C4618 C 0.83382 0.29499 0.87423 0.0
C4619 C 0.83252 0.30652 0.883 0.0
C4620 C 0.84469 0.29417 0.86474 0.0
C4621 C 0.85434 0.30506 0.86351 0.0
C4622 C 0.8536 0.31615 0.87299 0.0
C4623 C 0.84281 0.31683 0.88274 0.0
H4624 H 0.70152 0.86509 0.82245 0.0
H4625 H 0.68196 0.89657 0.84765 0.0
H4626 H 0.70297 0.84992 0.8423 0.0
H4627 H 0.68385 0.88134 0.86795 0.0
H4628 H 0.71266 0.82656 0.87953 0.0
H4629 H 0.7142 0.84603 0.86357 0.0
H4630 H 0.67377 0.86015 0.87693 0.0
H4631 H 0.67265 0.84093 0.8935 0.0
C4632 C 0.69772 0.86889 0.83232 0.0
C4633 C 0.69159 0.88205 0.83344 0.0
C4634 C 0.69868 0.86019 0.8438 0.0
C4635 C 0.69365 0.86441 0.85683 0.0
C4636 C 0.68775 0.87772 0.85806 0.0
C4637 C 0.68674 0.88647 0.84647 0.0
C4638 C 0.70425 0.83401 0.87927 0.0
C4639 C 0.69247 0.83218 0.8876 0.0
C4640 C 0.70507 0.84512 0.87005 0.0
C4641 C 0.69394 0.85447 0.86866 0.0
C4642 C 0.68255 0.85318 0.87772 0.0
C4643 C 0.68187 0.84216 0.88719 0.0
H4644 H 0.81926 0.69789 0.13748 0.0
H4645 H 0.84489 0.68374 0.10353 0.0
H4646 H 0.8395 0.6997 0.15215 0.0
H4647 H 0.8655 0.68588 0.11834 0.0
H4648 H 0.8931 0.67362 0.15742 0.0
H4649 H 0.87583 0.6746 0.1388 0.0
H4650 H 0.86003 0.71302 0.15565 0.0
H4651 H 0.87681 0.71169 0.17444 0.0
C4652 C 0.82927 0.69531 0.13307 0.0
C4653 C 0.83044 0.69065 0.11932 0.0
C4654 C 0.84095 0.69648 0.14148 0.0
C4655 C 0.85419 0.69308 0.1364 0.0
C4656 C 0.85544 0.68854 0.12258 0.0
C4657 C 0.84366 0.68737 0.11409 0.0
C4658 C 0.88611 0.68241 0.15692 0.0
C4659 C 0.88611 0.69246 0.16747 0.0
C4660 C 0.87624 0.683 0.14625 0.0
C4661 C 0.86633 0.69373 0.14592 0.0
C4662 C 0.86723 0.70439 0.15583 0.0
C4663 C 0.8769 0.70369 0.16655 0.0
H4664 H 0.29723 0.81878 0.13681 0.0
H4665 H 0.31373 0.84376 0.10347 0.0
H4666 H 0.29629 0.83893 0.15162 0.0
H4667 H 0.31233 0.86436 0.11834 0.0
H4668 H 0.32505 0.89165 0.15707 0.0
H4669 H 0.32338 0.87437 0.13851 0.0
H4670 H 0.28461 0.85985 0.15576 0.0
H4671 H 0.28675 0.8765 0.17458 0.0
C4672 C 0.30046 0.82866 0.13254 0.0
C4673 C 0.30557 0.82963 0.11894 0.0
C4674 C 0.2998 0.84031 0.14104 0.0
C4675 C 0.30409 0.85337 0.13617 0.0
C4676 C 0.30901 0.85445 0.12245 0.0
C4677 C 0.30974 0.84268 0.11391 0.0
C4678 C 0.31607 0.8849 0.15668 0.0
C4679 C 0.30614 0.88521 0.16734 0.0
C4680 C 0.31508 0.87503 0.14604 0.0
C4681 C 0.30402 0.86547 0.14581 0.0
C4682 C 0.29351 0.86671 0.15585 0.0
C4683 C 0.29466 0.87632 0.16659 0.0
H4684 H 0.71374 0.17249 0.12393 0.0
H4685 H 0.67437 0.1566 0.10978 0.0
H4686 H 0.71549 0.15364 0.14059 0.0
H4687 H 0.67569 0.13802 0.12703 0.0
H4688 H 0.7027 0.13539 0.18207 0.0
H4689 H 0.70412 0.15001 0.1618 0.0
H4690 H 0.6861 0.11742 0.13682 0.0
H4691 H 0.68423 0.10277 0.15752 0.0
C4692 C 0.70551 0.16485 0.12431 0.0
C4693 C 0.69385 0.16608 0.11571 0.0
C4694 C 0.70645 0.15409 0.13393 0.0
C4695 C 0.69556 0.14449 0.13544 0.0
C4696 C 0.68429 0.14518 0.12615 0.0
C4697 C 0.6835 0.15585 0.11629 0.0
C4698 C 0.69914 0.13123 0.17226 0.0
C4699 C 0.69332 0.1179 0.17145 0.0
C4700 C 0.70008 0.13961 0.16054 0.0
C4701 C 0.69533 0.1349 0.14757 0.0
C4702 C 0.68977 0.12142 0.14665 0.0
C4703 C 0.68877 0.113 0.15848 0.0
H4704 H 0.60523 0.65451 0.81595 0.0
H4705 H 0.63711 0.67958 0.79689 0.0
H4706 H 0.62034 0.63412 0.81415 0.0
H4707 H 0.65217 0.65962 0.79552 0.0
H4708 H 0.66019 0.60801 0.82567 0.0
H4709 H 0.64125 0.62487 0.82441 0.0
H4710 H 0.65615 0.63836 0.78432 0.0
H4711 H 0.67535 0.62208 0.78599 0.0
C4712 C 0.6154 0.65565 0.8113 0.0
C4713 C 0.61996 0.66867 0.80656 0.0
C4714 C 0.62408 0.644 0.81034 0.0
C4715 C 0.63748 0.64516 0.80462 0.0
C4716 C 0.64184 0.65817 0.79969 0.0
C4717 C 0.63321 0.66972 0.80059 0.0
C4718 C 0.6592 0.61441 0.81649 0.0
C4719 C 0.66933 0.61392 0.80603 0.0
C4720 C 0.64834 0.62406 0.81573 0.0
C4721 C 0.64733 0.63323 0.8044 0.0
C4722 C 0.65683 0.6318 0.79341 0.0
C4723 C 0.66779 0.62239 0.7943 0.0
H4724 H 0.34293 0.60779 0.82562 0.0
H4725 H 0.32667 0.62365 0.78707 0.0
H4726 H 0.36198 0.62457 0.82448 0.0
H4727 H 0.34595 0.63983 0.78548 0.0
H4728 H 0.36487 0.6805 0.79951 0.0
H4729 H 0.34988 0.66053 0.79788 0.0
H4730 H 0.38267 0.63438 0.81376 0.0
H4731 H 0.39776 0.65478 0.81582 0.0
C4732 C 0.34371 0.61456 0.81669 0.0
C4733 C 0.33325 0.61462 0.80655 0.0
C4734 C 0.35462 0.62415 0.816 0.0
C4735 C 0.35532 0.6338 0.80505 0.0
C4736 C 0.3455 0.63288 0.79429 0.0
C4737 C 0.3345 0.62354 0.79513 0.0
C4738 C 0.369 0.67051 0.80257 0.0
C4739 C 0.38252 0.66926 0.80782 0.0
C4740 C 0.3604 0.65896 0.8015 0.0
C4741 C 0.36508 0.64576 0.80554 0.0
C4742 C 0.37872 0.64441 0.81061 0.0
C4743 C 0.38737 0.65607 0.81173 0.0
H4744 H 0.3936 0.34187 0.82566 0.0
H4745 H 0.37672 0.32417 0.78819 0.0
H4746 H 0.37626 0.36041 0.82469 0.0
H4747 H 0.35995 0.34294 0.78675 0.0
H4748 H 0.3196 0.36243 0.80086 0.0
H4749 H 0.33957 0.3474 0.79925 0.0
H4750 H 0.36595 0.38055 0.81392 0.0
H4751 H 0.34558 0.39565 0.81601 0.0
C4752 C 0.38645 0.3422 0.817 0.0
C4753 C 0.38634 0.3315 0.80712 0.0
C4754 C 0.37653 0.35283 0.81641 0.0
C4755 C 0.36648 0.35302 0.8058 0.0
C4756 C 0.36721 0.3429 0.79532 0.0
C4757 C 0.3769 0.33218 0.79607 0.0
C4758 C 0.32965 0.36662 0.80364 0.0
C4759 C 0.33098 0.38027 0.80857 0.0
C4760 C 0.34119 0.35799 0.8026 0.0
C4761 C 0.35446 0.36276 0.80632 0.0
C4762 C 0.35587 0.37651 0.81105 0.0
C4763 C 0.34423 0.38518 0.81217 0.0
H4764 H 0.60721 0.34556 0.81514 0.0
H4765 H 0.63968 0.32012 0.7976 0.0
H4766 H 0.62221 0.366 0.81301 0.0
H4767 H 0.65461 0.34014 0.7959 0.0
H4768 H 0.6776 0.37731 0.78531 0.0
H4769 H 0.65839 0.36103 0.78387 0.0
H4770 H 0.64303 0.37568 0.82338 0.0
H4771 H 0.662 0.39255 0.82438 0.0
C4772 C 0.61748 0.34434 0.81076 0.0
C4773 C 0.62224 0.33122 0.80653 0.0
C4774 C 0.6261 0.35603 0.8096 0.0
C4775 C 0.6396 0.35477 0.80418 0.0
C4776 C 0.64418 0.34164 0.7998 0.0
C4777 C 0.63562 0.33007 0.8009 0.0
C4778 C 0.66993 0.37726 0.79353 0.0
C4779 C 0.67135 0.38604 0.80503 0.0
C4780 C 0.65897 0.36786 0.79277 0.0
C4781 C 0.64936 0.36675 0.80369 0.0
C4782 C 0.65022 0.37625 0.81477 0.0
C4783 C 0.66109 0.38589 0.81538 0.0
H4784 H 0.6757 0.37546 0.21363 0.0
H4785 H 0.66009 0.38992 0.17426 0.0
H4786 H 0.65638 0.35934 0.21547 0.0
H4787 H 0.64104 0.3732 0.17568 0.0
H4788 H 0.60512 0.34353 0.18422 0.0
H4789 H 0.62023 0.3639 0.18609 0.0
H4790 H 0.65224 0.33821 0.20415 0.0
H4791 H 0.63717 0.31827 0.20273 0.0
C4792 C 0.66801 0.37528 0.20543 0.0
C4793 C 0.66945 0.3838 0.19373 0.0
C4794 C 0.65699 0.36596 0.20642 0.0
C4795 C 0.64733 0.36467 0.19555 0.0
C4796 C 0.64824 0.37391 0.18426 0.0
C4797 C 0.65917 0.38347 0.18342 0.0
C4798 C 0.61532 0.34234 0.18877 0.0
C4799 C 0.61993 0.32928 0.19332 0.0
C4800 C 0.62401 0.35399 0.18976 0.0
C4801 C 0.63746 0.35276 0.19534 0.0
C4802 C 0.64187 0.3397 0.2001 0.0
C4803 C 0.63323 0.32817 0.19916 0.0
H4804 H 0.60307 0.65336 0.1833 0.0
H4805 H 0.63546 0.67933 0.20019 0.0
H4806 H 0.61869 0.6333 0.18449 0.0
H4807 H 0.65099 0.65974 0.20089 0.0
H4808 H 0.67555 0.62311 0.20969 0.0
H4809 H 0.65605 0.63892 0.21218 0.0
H4810 H 0.63915 0.62413 0.17335 0.0
H4811 H 0.6584 0.60764 0.17138 0.0
C4812 C 0.61346 0.65477 0.18734 0.0
C4813 C 0.61801 0.66794 0.19167 0.0
C4814 C 0.62243 0.64331 0.18794 0.0
C4815 C 0.6361 0.64483 0.19288 0.0
C4816 C 0.64047 0.65801 0.19736 0.0
C4817 C 0.63155 0.66934 0.19684 0.0
C4818 C 0.66749 0.62304 0.20185 0.0
C4819 C 0.66852 0.61431 0.19027 0.0
C4820 C 0.65637 0.63217 0.2032 0.0
C4821 C 0.6462 0.63311 0.19277 0.0
C4822 C 0.64675 0.62369 0.1816 0.0
C4823 C 0.65779 0.61427 0.18043 0.0
H4824 H 0.39149 0.65915 0.17509 0.0
H4825 H 0.37608 0.67501 0.214 0.0
H4826 H 0.37466 0.64018 0.17617 0.0
H4827 H 0.35983 0.65579 0.21551 0.0
H4828 H 0.31909 0.63647 0.20208 0.0
H4829 H 0.33896 0.65163 0.20363 0.0
H4830 H 0.36509 0.61943 0.18655 0.0
H4831 H 0.3448 0.60421 0.18456 0.0
C4832 C 0.3848 0.65831 0.18408 0.0
C4833 C 0.38491 0.66864 0.19436 0.0
C4834 C 0.37517 0.64743 0.18474 0.0
C4835 C 0.36564 0.64661 0.19578 0.0
C4836 C 0.36668 0.65632 0.20663 0.0
C4837 C 0.37608 0.66729 0.20584 0.0
C4838 C 0.32907 0.63251 0.19875 0.0
C4839 C 0.33033 0.61912 0.19318 0.0
C4840 C 0.34056 0.64121 0.19976 0.0
C4841 C 0.35373 0.63675 0.19535 0.0
C4842 C 0.35509 0.62323 0.18997 0.0
C4843 C 0.34349 0.61449 0.1889 0.0
H4844 H 0.39607 0.34711 0.18335 0.0
H4845 H 0.36351 0.3212 0.19998 0.0
H4846 H 0.38073 0.36735 0.18514 0.0
H4847 H 0.34827 0.34104 0.20139 0.0
H4848 H 0.325 0.37819 0.21209 0.0
H4849 H 0.34423 0.36193 0.21361 0.0
H4850 H 0.35986 0.37672 0.17428 0.0
H4851 H 0.34083 0.3935 0.17312 0.0
C4852 C 0.38571 0.34575 0.18745 0.0
C4853 C 0.38102 0.33255 0.19153 0.0
C4854 C 0.3769 0.35731 0.18841 0.0
C4855 C 0.36329 0.35587 0.19352 0.0
C4856 C 0.35877 0.34266 0.19772 0.0
C4857 C 0.36751 0.3312 0.19679 0.0
C4858 C 0.33271 0.37816 0.20391 0.0
C4859 C 0.33134 0.38696 0.1924 0.0
C4860 C 0.34369 0.36879 0.20473 0.0
C4861 C 0.35341 0.36775 0.19389 0.0
C4862 C 0.35259 0.37724 0.18282 0.0
C4863 C 0.34167 0.38684 0.18213 0.0
H4864 H 0.81461 0.65603 0.60445 0.0
H4865 H 0.79665 0.68145 0.63669 0.0
H4866 H 0.81248 0.63562 0.61949 0.0
H4867 H 0.79496 0.66146 0.65168 0.0
H4868 H 0.82371 0.60895 0.65904 0.0
H4869 H 0.82275 0.626 0.64026 0.0
H4870 H 0.78319 0.64049 0.65563 0.0
H4871 H 0.78456 0.624 0.67467 0.0
C4872 C 0.81013 0.65725 0.61468 0.0
C4873 C 0.80579 0.67037 0.61936 0.0
C4874 C 0.80899 0.64558 0.62333 0.0
C4875 C 0.80347 0.64683 0.6368 0.0
C4876 C 0.79895 0.65995 0.64129 0.0
C4877 C 0.80004 0.67151 0.6327 0.0
C4878 C 0.81471 0.61562 0.6582 0.0
C4879 C 0.80432 0.61533 0.66841 0.0
C4880 C 0.81413 0.62538 0.64742 0.0
C4881 C 0.80304 0.63486 0.64659 0.0
C4882 C 0.7921 0.63367 0.65618 0.0
C4883 C 0.79282 0.62415 0.66705 0.0
H4884 H 0.32242 0.78747 0.6266 0.0
H4885 H 0.34018 0.82382 0.60742 0.0
H4886 H 0.34125 0.78701 0.64336 0.0
H4887 H 0.35888 0.82372 0.62464 0.0
H4888 H 0.39448 0.81538 0.65567 0.0
H4889 H 0.37919 0.81262 0.63549 0.0
H4890 H 0.34542 0.80163 0.66285 0.0
H4891 H 0.36056 0.80402 0.68268 0.0
C4892 C 0.33047 0.79528 0.62589 0.0
C4893 C 0.32975 0.80579 0.61584 0.0
C4894 C 0.34122 0.79508 0.63555 0.0
C4895 C 0.35139 0.80553 0.63558 0.0
C4896 C 0.35123 0.8155 0.62491 0.0
C4897 C 0.34051 0.81558 0.61506 0.0
C4898 C 0.38381 0.81226 0.6573 0.0
C4899 C 0.37875 0.80988 0.67078 0.0
C4900 C 0.37505 0.81073 0.64576 0.0
C4901 C 0.36111 0.80675 0.64752 0.0
C4902 C 0.35616 0.80437 0.66103 0.0
C4903 C 0.36485 0.80586 0.67246 0.0
H4904 H 0.18157 0.34729 0.60423 0.0
H4905 H 0.19768 0.31979 0.63573 0.0
H4906 H 0.1846 0.36701 0.62003 0.0
H4907 H 0.20029 0.33912 0.65144 0.0
H4908 H 0.21278 0.3751 0.67566 0.0
H4909 H 0.21335 0.35932 0.65599 0.0
H4910 H 0.17456 0.37631 0.64124 0.0
H4911 H 0.17439 0.39262 0.66071 0.0
C4912 C 0.18583 0.34547 0.61446 0.0
C4913 C 0.18939 0.33197 0.61871 0.0
C4914 C 0.18749 0.35674 0.62354 0.0
C4915 C 0.19278 0.3547 0.637 0.0
C4916 C 0.1965 0.3412 0.64108 0.0
C4917 C 0.19487 0.33003 0.63206 0.0
C4918 C 0.20453 0.37566 0.66805 0.0
C4919 C 0.19345 0.38495 0.66979 0.0
C4920 C 0.20479 0.36655 0.65682 0.0
C4921 C 0.19381 0.36627 0.64721 0.0
C4922 C 0.1832 0.37624 0.64842 0.0
C4923 C 0.18307 0.38557 0.65959 0.0
H4924 H 0.67632 0.21369 0.6261 0.0
H4925 H 0.66001 0.17557 0.6093 0.0
H4926 H 0.65689 0.21507 0.64212 0.0
H4927 H 0.6408 0.17649 0.6259 0.0
H4928 H 0.6044 0.18493 0.65534 0.0
H4929 H 0.62006 0.18706 0.63539 0.0
H4930 H 0.65215 0.20267 0.66255 0.0
H4931 H 0.63657 0.201 0.68208 0.0
C4932 C 0.66847 0.20566 0.62577 0.0
C4933 C 0.66973 0.19444 0.6166 0.0
C4934 C 0.65737 0.20638 0.63502 0.0
C4935 C 0.64745 0.1957 0.63559 0.0
C4936 C 0.64822 0.18492 0.62575 0.0
C4937 C 0.65923 0.18435 0.61626 0.0
C4938 C 0.61476 0.18897 0.65695 0.0
C4939 C 0.61922 0.19281 0.67029 0.0
C4940 C 0.62375 0.19013 0.64555 0.0
C4941 C 0.63736 0.19514 0.6473 0.0
C4942 C 0.64167 0.1991 0.66066 0.0
C4943 C 0.63273 0.19801 0.67195 0.0
H4944 H 0.78687 0.3277 0.37532 0.0
H4945 H 0.82593 0.34333 0.39055 0.0
H4946 H 0.78527 0.34704 0.35922 0.0
H4947 H 0.82479 0.36242 0.37383 0.0
H4948 H 0.81655 0.39841 0.34404 0.0
H4949 H 0.8144 0.38326 0.36437 0.0
H4950 H 0.79706 0.35115 0.33832 0.0
H4951 H 0.79876 0.36623 0.31842 0.0
C4952 C 0.79505 0.3354 0.3753 0.0
C4953 C 0.8066 0.33396 0.38403 0.0
C4954 C 0.79421 0.34644 0.366 0.0
C4955 C 0.80508 0.35611 0.36493 0.0
C4956 C 0.8162 0.3552 0.37437 0.0
C4957 C 0.8169 0.34425 0.38393 0.0
C4958 C 0.8121 0.38818 0.34276 0.0
C4959 C 0.80783 0.38353 0.32961 0.0
C4960 C 0.81094 0.37947 0.35438 0.0
C4961 C 0.80548 0.36599 0.35304 0.0
C4962 C 0.80101 0.36155 0.33989 0.0
C4963 C 0.80211 0.3702 0.32838 0.0
H4964 H 0.67444 0.78663 0.37611 0.0
H4965 H 0.65805 0.82535 0.39142 0.0
H4966 H 0.65534 0.7849 0.35973 0.0
H4967 H 0.63919 0.82407 0.37444 0.0
H4968 H 0.60365 0.81512 0.34406 0.0
H4969 H 0.61859 0.81328 0.36459 0.0
H4970 H 0.65153 0.79702 0.33887 0.0
H4971 H 0.63669 0.79844 0.31877 0.0
C4972 C 0.66662 0.7947 0.37605 0.0
C4973 C 0.66779 0.8062 0.38488 0.0
C4974 C 0.65573 0.79378 0.3666 0.0
C4975 C 0.64593 0.80454 0.36548 0.0
C4976 C 0.64653 0.81559 0.37502 0.0
C4977 C 0.65734 0.81636 0.38473 0.0
C4978 C 0.61404 0.81099 0.3429 0.0
C4979 C 0.61897 0.80691 0.32979 0.0
C4980 C 0.62261 0.81001 0.35463 0.0
C4981 C 0.63625 0.80489 0.35344 0.0
C4982 C 0.64101 0.80068 0.34031 0.0
C4983 C 0.6325 0.80162 0.3287 0.0
H4984 H 0.21493 0.67523 0.37805 0.0
H4985 H 0.17574 0.6596 0.39296 0.0
H4986 H 0.21659 0.65593 0.36189 0.0
H4987 H 0.17696 0.64057 0.37618 0.0
H4988 H 0.18534 0.60484 0.34605 0.0
H4989 H 0.18741 0.61976 0.36656 0.0
H4990 H 0.20472 0.6522 0.3409 0.0
H4991 H 0.20308 0.63736 0.32083 0.0
C4992 C 0.20674 0.66753 0.37796 0.0
C4993 C 0.19513 0.66896 0.3866 0.0
C4994 C 0.20762 0.65652 0.36863 0.0
C4995 C 0.19672 0.6469 0.36743 0.0
C4996 C 0.18555 0.64777 0.37682 0.0
C4997 C 0.18482 0.65868 0.38641 0.0
C4998 C 0.18976 0.6151 0.3449 0.0
C4999 C 0.19404 0.61991 0.33181 0.0
C5000 C 0.19088 0.62367 0.35662 0.0
C5001 C 0.19633 0.63717 0.35544 0.0
C5002 C 0.20079 0.64178 0.34235 0.0
C5003 C 0.19972 0.63327 0.33074 0.0
H5004 H 0.34407 0.18337 0.39627 0.0
H5005 H 0.3169 0.19714 0.36339 0.0
H5006 H 0.36407 0.18616 0.38075 0.0
H5007 H 0.33653 0.19956 0.34802 0.0
H5008 H 0.37276 0.21336 0.32486 0.0
H5009 H 0.3564 0.21363 0.34405 0.0
H5010 H 0.37422 0.17564 0.35982 0.0
H5011 H 0.39107 0.17574 0.34078 0.0
C5012 C 0.34237 0.18703 0.38578 0.0
C5013 C 0.32889 0.19007 0.38108 0.0
C5014 C 0.3538 0.18857 0.37689 0.0
C5015 C 0.35194 0.19323 0.36317 0.0
C5016 C 0.33844 0.19629 0.35859 0.0
C5017 C 0.32712 0.19478 0.36741 0.0
C5018 C 0.37336 0.20522 0.33258 0.0
C5019 C 0.38304 0.19443 0.33125 0.0
C5020 C 0.36393 0.20531 0.34354 0.0
C5021 C 0.36375 0.19446 0.35328 0.0
C5022 C 0.37408 0.18416 0.35251 0.0
C5023 C 0.38371 0.18419 0.3416 0.0
H5024 H 0.65939 0.82656 0.60836 0.0
H5025 H 0.6752 0.78717 0.62254 0.0
H5026 H 0.64042 0.82499 0.62518 0.0
H5027 H 0.65599 0.7852 0.63877 0.0
H5028 H 0.6373 0.79798 0.68009 0.0
H5029 H 0.65217 0.79668 0.65999 0.0
H5030 H 0.61966 0.81428 0.63459 0.0
H5031 H 0.60472 0.81598 0.65512 0.0
C5032 C 0.65853 0.81737 0.61476 0.0
C5033 C 0.66885 0.80709 0.61435 0.0
C5034 C 0.64765 0.81643 0.62438 0.0
C5035 C 0.64685 0.80511 0.63358 0.0
C5036 C 0.65652 0.79427 0.63218 0.0
C5037 C 0.66748 0.79534 0.62281 0.0
C5038 C 0.63321 0.80147 0.67023 0.0
C5039 C 0.61982 0.80712 0.66924 0.0
C5040 C 0.64173 0.8006 0.65861 0.0
C5041 C 0.63711 0.80526 0.64558 0.0
C5042 C 0.62358 0.81067 0.64448 0.0
C5043 C 0.615 0.81158 0.65621 0.0
H5044 H 0.62314 0.21395 0.32532 0.0
H5045 H 0.60742 0.17561 0.34223 0.0
H5046 H 0.63975 0.21559 0.34423 0.0
H5047 H 0.62458 0.17684 0.36092 0.0
H5048 H 0.65505 0.18597 0.39635 0.0
H5049 H 0.63456 0.1878 0.38136 0.0
H5050 H 0.6605 0.20324 0.3482 0.0
H5051 H 0.68058 0.20184 0.36311 0.0
C5052 C 0.62315 0.20594 0.3332 0.0
C5053 C 0.61413 0.19457 0.33224 0.0
C5054 C 0.63274 0.20681 0.34399 0.0
C5055 C 0.63377 0.19616 0.35391 0.0
C5056 C 0.62407 0.18524 0.35349 0.0
C5057 C 0.61426 0.18451 0.34277 0.0
C5058 C 0.65628 0.18991 0.3859 0.0
C5059 C 0.66944 0.19378 0.38094 0.0
C5060 C 0.64457 0.19089 0.3773 0.0
C5061 C 0.64583 0.19577 0.36359 0.0
C5062 C 0.65901 0.19976 0.35878 0.0
C5063 C 0.67061 0.19883 0.36733 0.0
H5064 H 0.81457 0.60578 0.34442 0.0
H5065 H 0.79826 0.63915 0.31932 0.0
H5066 H 0.81289 0.62062 0.36503 0.0
H5067 H 0.79699 0.65389 0.33952 0.0
H5068 H 0.82527 0.65975 0.3922 0.0
H5069 H 0.8239 0.64109 0.375 0.0
H5070 H 0.78482 0.65759 0.36045 0.0
H5071 H 0.7866 0.67646 0.37708 0.0
C5072 C 0.81056 0.61622 0.34331 0.0
C5073 C 0.80653 0.62127 0.33023 0.0
C5074 C 0.80967 0.62473 0.3551 0.0
C5075 C 0.8047 0.63843 0.35399 0.0
C5076 C 0.80055 0.64332 0.3409 0.0
C5077 C 0.8014 0.63486 0.32922 0.0
C5078 C 0.81627 0.65916 0.38549 0.0
C5079 C 0.80615 0.66964 0.38578 0.0
C5080 C 0.81546 0.64847 0.37566 0.0
C5081 C 0.80441 0.64802 0.36611 0.0
C5082 C 0.7937 0.65785 0.36733 0.0
C5083 C 0.79465 0.66862 0.37693 0.0
H5084 H 0.39657 0.81747 0.34326 0.0
H5085 H 0.36426 0.79938 0.31803 0.0
H5086 H 0.3817 0.81516 0.36378 0.0
H5087 H 0.34945 0.79749 0.33813 0.0
H5088 H 0.32679 0.7868 0.37564 0.0
H5089 H 0.34582 0.78558 0.35912 0.0
H5090 H 0.36084 0.8253 0.37351 0.0
H5091 H 0.34206 0.82612 0.39059 0.0
C5092 C 0.38637 0.81292 0.34211 0.0
C5093 C 0.38161 0.80861 0.32901 0.0
C5094 C 0.37782 0.81167 0.35384 0.0
C5095 C 0.36438 0.80606 0.35267 0.0
C5096 C 0.35982 0.80156 0.33956 0.0
C5097 C 0.36831 0.80277 0.32794 0.0
C5098 C 0.33434 0.79512 0.37547 0.0
C5099 C 0.33287 0.80663 0.38425 0.0
C5100 C 0.3452 0.79449 0.36593 0.0
C5101 C 0.35468 0.80551 0.3647 0.0
C5102 C 0.35376 0.8166 0.37417 0.0
C5103 C 0.34299 0.81711 0.38394 0.0
H5104 H 0.21448 0.37905 0.32372 0.0
H5105 H 0.1758 0.3945 0.34009 0.0
H5106 H 0.21604 0.36252 0.3427 0.0
H5107 H 0.17695 0.37741 0.35887 0.0
H5108 H 0.18583 0.3466 0.39418 0.0
H5109 H 0.18785 0.36728 0.37947 0.0
H5110 H 0.2034 0.34172 0.34608 0.0
H5111 H 0.20176 0.32145 0.36067 0.0
C5112 C 0.20639 0.37901 0.33152 0.0
C5113 C 0.19493 0.3879 0.33037 0.0
C5114 C 0.20722 0.36948 0.34235 0.0
C5115 C 0.19642 0.36836 0.3521 0.0
C5116 C 0.18545 0.37799 0.35155 0.0
C5117 C 0.18476 0.38776 0.34079 0.0
C5118 C 0.18983 0.3455 0.38374 0.0
C5119 C 0.19364 0.33238 0.3786 0.0
C5120 C 0.19092 0.35731 0.3753 0.0
C5121 C 0.19591 0.35621 0.36162 0.0
C5122 C 0.19984 0.34308 0.35664 0.0
C5123 C 0.19877 0.33137 0.36501 0.0
H5124 H 0.37501 0.21546 0.6748 0.0
H5125 H 0.38864 0.17591 0.65893 0.0
H5126 H 0.35851 0.21751 0.65584 0.0
H5127 H 0.3715 0.1775 0.64027 0.0
H5128 H 0.3409 0.18635 0.60514 0.0
H5129 H 0.3617 0.1879 0.6197 0.0
H5130 H 0.33716 0.20648 0.65232 0.0
H5131 H 0.31682 0.20538 0.6378 0.0
C5132 C 0.37456 0.20727 0.66712 0.0
C5133 C 0.38296 0.19547 0.66838 0.0
C5134 C 0.36502 0.20837 0.65631 0.0
C5135 C 0.36336 0.19749 0.64672 0.0
C5136 C 0.37249 0.1861 0.64743 0.0
C5137 C 0.38229 0.18515 0.65813 0.0
C5138 C 0.34006 0.19093 0.61536 0.0
C5139 C 0.3272 0.19575 0.6203 0.0
C5140 C 0.35195 0.19175 0.62373 0.0
C5141 C 0.35118 0.19741 0.63718 0.0
C5142 C 0.33832 0.20238 0.64193 0.0
C5143 C 0.32655 0.20163 0.6336 0.0
H5144 H 0.78728 0.37795 0.67234 0.0
H5145 H 0.82703 0.39201 0.65733 0.0
H5146 H 0.78567 0.3617 0.65312 0.0
H5147 H 0.82582 0.37517 0.63837 0.0
H5148 H 0.81727 0.34586 0.60211 0.0
H5149 H 0.81558 0.36612 0.61739 0.0
H5150 H 0.79673 0.34045 0.64896 0.0
H5151 H 0.79797 0.32063 0.63372 0.0
C5152 C 0.79564 0.37763 0.66482 0.0
C5153 C 0.80736 0.3861 0.6664 0.0
C5154 C 0.79477 0.36824 0.65385 0.0
C5155 C 0.80578 0.36684 0.64436 0.0
C5156 C 0.81713 0.37597 0.64544 0.0
C5157 C 0.81786 0.3856 0.65632 0.0
C5158 C 0.81259 0.34466 0.61225 0.0
C5159 C 0.80775 0.33163 0.61669 0.0
C5160 C 0.8117 0.35623 0.62104 0.0
C5161 C 0.80596 0.35499 0.63442 0.0
C5162 C 0.80093 0.34197 0.63866 0.0
C5163 C 0.80175 0.3305 0.62991 0.0
H5164 H 0.18374 0.60215 0.65721 0.0
H5165 H 0.20029 0.6346 0.68331 0.0
H5166 H 0.18548 0.61759 0.63708 0.0
H5167 H 0.20151 0.64998 0.66363 0.0
H5168 H 0.21108 0.67433 0.62704 0.0
H5169 H 0.2132 0.65494 0.64304 0.0
H5170 H 0.1747 0.63796 0.62749 0.0
H5171 H 0.17311 0.65707 0.61084 0.0
C5172 C 0.18781 0.61252 0.65864 0.0
C5173 C 0.19189 0.61713 0.67186 0.0
C5174 C 0.18874 0.62139 0.64713 0.0
C5175 C 0.19373 0.63504 0.64865 0.0
C5176 C 0.19795 0.63948 0.6619 0.0
C5177 C 0.19712 0.63064 0.67328 0.0
C5178 C 0.20324 0.66627 0.62685 0.0
C5179 C 0.19186 0.66724 0.61785 0.0
C5180 C 0.20437 0.65521 0.63609 0.0
C5181 C 0.19391 0.64506 0.63687 0.0
C5182 C 0.18297 0.64555 0.62718 0.0
C5183 C 0.18202 0.65651 0.61767 0.0
loop_
_geom_bond_atom_site_label_1
_geom_bond_atom_site_label_2
_geom_bond_distance
_geom_bond_site_symmetry_2
_ccdc_geom_bond_type
O0 Cd1 2.223 . S
O0 C8 1.315 . S
Cd1 O0 2.223 . S
Cd1 O4 2.297 . S
Cd1 O5 2.439 . S
Cd1 O11 2.240 . S
Cd2 O3 2.240 . S
Cd2 O10 2.223 . S
Cd2 O12 2.297 . S
Cd2 O13 2.439 . S
O3 Cd2 2.240 . S
O3 C8 1.279 . S
O4 Cd1 2.297 . S
O4 C6 1.247 . S
O5 Cd1 2.439 . S
O5 C6 1.208 . S
C6 O4 1.247 . S
C6 O5 1.208 . S
C7 O12 1.247 . S
C7 O13 1.208 . S
C8 O0 1.315 . S
C8 O3 1.279 . S
C9 O10 1.315 . S
C9 O11 1.279 . S
O10 Cd2 2.223 . S
O10 C9 1.315 . S
O11 Cd1 2.240 . S
O11 C9 1.279 . S
O12 Cd2 2.297 . S
O12 C7 1.247 . S
O13 Cd2 2.439 . S
O13 C7 1.208 . S
O14 Cd15 2.223 . S
O14 C22 1.315 . S
Cd15 O14 2.223 . S
Cd15 O18 2.297 . S
Cd15 O19 2.439 . S
Cd15 O25 2.240 . S
Cd16 O17 2.240 . S
Cd16 O24 2.223 . S
Cd16 O26 2.297 . S
Cd16 O27 2.439 . S
O17 Cd16 2.240 . S
O17 C22 1.279 . S
O18 Cd15 2.297 . S
O18 C20 1.247 . S
O19 Cd15 2.439 . S
O19 C20 1.208 . S
C20 O18 1.247 . S
C20 O19 1.208 . S
C21 O26 1.247 . S
C21 O27 1.208 . S
C22 O14 1.315 . S
C22 O17 1.279 . S
C23 O24 1.315 . S
C23 O25 1.279 . S
O24 Cd16 2.223 . S
O24 C23 1.315 . S
O25 Cd15 2.240 . S
O25 C23 1.279 . S
O26 Cd16 2.297 . S
O26 C21 1.247 . S
O27 Cd16 2.439 . S
O27 C21 1.208 . S
O28 Cd29 2.223 . S
O28 C36 1.315 . S
Cd29 O28 2.223 . S
Cd29 O32 2.297 . S
Cd29 O33 2.439 . S
Cd29 O39 2.240 . S
Cd30 O31 2.240 . S
Cd30 O38 2.223 . S
Cd30 O40 2.297 . S
Cd30 O41 2.439 . S
O31 Cd30 2.240 . S
O31 C36 1.279 . S
O32 Cd29 2.297 . S
O32 C34 1.247 . S
O33 Cd29 2.439 . S
O33 C34 1.208 . S
C34 O32 1.247 . S
C34 O33 1.208 . S
C35 O40 1.247 . S
C35 O41 1.208 . S
C36 O28 1.315 . S
C36 O31 1.279 . S
C37 O38 1.315 . S
C37 O39 1.279 . S
O38 Cd30 2.223 . S
O38 C37 1.315 . S
O39 Cd29 2.240 . S
O39 C37 1.279 . S
O40 Cd30 2.297 . S
O40 C35 1.247 . S
O41 Cd30 2.439 . S
O41 C35 1.208 . S
O42 Cd43 2.223 . S
O42 C50 1.315 . S
Cd43 O42 2.223 . S
Cd43 O46 2.297 . S
Cd43 O47 2.439 . S
Cd43 O53 2.240 . S
Cd44 O45 2.240 . S
Cd44 O52 2.223 . S
Cd44 O54 2.297 . S
Cd44 O55 2.439 . S
O45 Cd44 2.240 . S
O45 C50 1.279 . S
O46 Cd43 2.297 . S
O46 C48 1.247 . S
O47 Cd43 2.439 . S
O47 C48 1.208 . S
C48 O46 1.247 . S
C48 O47 1.208 . S
C49 O54 1.247 . S
C49 O55 1.208 . S
C50 O42 1.315 . S
C50 O45 1.279 . S
C51 O52 1.315 . S
C51 O53 1.279 . S
O52 Cd44 2.223 . S
O52 C51 1.315 . S
O53 Cd43 2.240 . S
O53 C51 1.279 . S
O54 Cd44 2.297 . S
O54 C49 1.247 . S
O55 Cd44 2.439 . S
O55 C49 1.208 . S
O56 Cd57 2.223 . S
O56 C64 1.315 . S
Cd57 O56 2.223 . S
Cd57 O60 2.297 . S
Cd57 O61 2.439 . S
Cd57 O67 2.240 . S
Cd58 O59 2.240 . S
Cd58 O66 2.223 . S
Cd58 O68 2.297 . S
Cd58 O69 2.439 . S
O59 Cd58 2.240 . S
O59 C64 1.279 . S
O60 Cd57 2.297 . S
O60 C62 1.247 . S
O61 Cd57 2.439 . S
O61 C62 1.208 . S
C62 O60 1.247 . S
C62 O61 1.208 . S
C63 O68 1.247 . S
C63 O69 1.208 . S
C64 O56 1.315 . S
C64 O59 1.279 . S
C65 O66 1.315 . S
C65 O67 1.279 . S
O66 Cd58 2.223 . S
O66 C65 1.315 . S
O67 Cd57 2.240 . S
O67 C65 1.279 . S
O68 Cd58 2.297 . S
O68 C63 1.247 . S
O69 Cd58 2.439 . S
O69 C63 1.208 . S
O70 Cd71 2.223 . S
O70 C78 1.315 . S
Cd71 O70 2.223 . S
Cd71 O74 2.297 . S
Cd71 O75 2.439 . S
Cd71 O81 2.240 . S
Cd72 O73 2.240 . S
Cd72 O80 2.223 . S
Cd72 O82 2.297 . S
Cd72 O83 2.439 . S
O73 Cd72 2.240 . S
O73 C78 1.279 . S
O74 Cd71 2.297 . S
O74 C76 1.247 . S
O75 Cd71 2.439 . S
O75 C76 1.208 . S
C76 O74 1.247 . S
C76 O75 1.208 . S
C77 O82 1.247 . S
C77 O83 1.208 . S
C78 O70 1.315 . S
C78 O73 1.279 . S
C79 O80 1.315 . S
C79 O81 1.279 . S
O80 Cd72 2.223 . S
O80 C79 1.315 . S
O81 Cd71 2.240 . S
O81 C79 1.279 . S
O82 Cd72 2.297 . S
O82 C77 1.247 . S
O83 Cd72 2.439 . S
O83 C77 1.208 . S
O84 Cd85 2.223 . S
O84 C92 1.315 . S
Cd85 O84 2.223 . S
Cd85 O88 2.297 . S
Cd85 O89 2.439 . S
Cd85 O95 2.240 . S
Cd86 O87 2.240 . S
Cd86 O94 2.223 . S
Cd86 O96 2.297 . S
Cd86 O97 2.439 . S
O87 Cd86 2.240 . S
O87 C92 1.279 . S
O88 Cd85 2.297 . S
O88 C90 1.247 . S
O89 Cd85 2.439 . S
O89 C90 1.208 . S
C90 O88 1.247 . S
C90 O89 1.208 . S
C91 O96 1.247 . S
C91 O97 1.208 . S
C92 O84 1.315 . S
C92 O87 1.279 . S
C93 O94 1.315 . S
C93 O95 1.279 . S
O94 Cd86 2.223 . S
O94 C93 1.315 . S
O95 Cd85 2.240 . S
O95 C93 1.279 . S
O96 Cd86 2.297 . S
O96 C91 1.247 . S
O97 Cd86 2.439 . S
O97 C91 1.208 . S
O98 Cd99 2.223 . S
O98 C106 1.315 . S
Cd99 O98 2.223 . S
Cd99 O102 2.297 . S
Cd99 O103 2.439 . S
Cd99 O109 2.240 . S
Cd100 O101 2.240 . S
Cd100 O108 2.223 . S
Cd100 O110 2.297 . S
Cd100 O111 2.439 . S
O101 Cd100 2.240 . S
O101 C106 1.279 . S
O102 Cd99 2.297 . S
O102 C104 1.247 . S
O103 Cd99 2.439 . S
O103 C104 1.208 . S
C104 O102 1.247 . S
C104 O103 1.208 . S
C105 O110 1.247 . S
C105 O111 1.208 . S
C106 O98 1.315 . S
C106 O101 1.279 . S
C107 O108 1.315 . S
C107 O109 1.279 . S
O108 Cd100 2.223 . S
O108 C107 1.315 . S
O109 Cd99 2.240 . S
O109 C107 1.279 . S
O110 Cd100 2.297 . S
O110 C105 1.247 . S
O111 Cd100 2.439 . S
O111 C105 1.208 . S
O112 Cd113 2.223 . S
O112 C120 1.315 . S
Cd113 O112 2.223 . S
Cd113 O116 2.297 . S
Cd113 O117 2.439 . S
Cd113 O123 2.240 . S
Cd114 O115 2.240 . S
Cd114 O122 2.223 . S
Cd114 O124 2.297 . S
Cd114 O125 2.439 . S
O115 Cd114 2.240 . S
O115 C120 1.279 . S
O116 Cd113 2.297 . S
O116 C118 1.247 . S
O117 Cd113 2.439 . S
O117 C118 1.208 . S
C118 O116 1.247 . S
C118 O117 1.208 . S
C119 O124 1.247 . S
C119 O125 1.208 . S
C120 O112 1.315 . S
C120 O115 1.279 . S
C121 O122 1.315 . S
C121 O123 1.279 . S
O122 Cd114 2.223 . S
O122 C121 1.315 . S
O123 Cd113 2.240 . S
O123 C121 1.279 . S
O124 Cd114 2.297 . S
O124 C119 1.247 . S
O125 Cd114 2.439 . S
O125 C119 1.208 . S
O126 Cd127 2.223 . S
O126 C134 1.315 . S
Cd127 O126 2.223 . S
Cd127 O130 2.297 . S
Cd127 O131 2.439 . S
Cd127 O137 2.240 . S
Cd128 O129 2.240 . S
Cd128 O136 2.223 . S
Cd128 O138 2.297 . S
Cd128 O139 2.439 . S
O129 Cd128 2.240 . S
O129 C134 1.279 . S
O130 Cd127 2.297 . S
O130 C132 1.247 . S
O131 Cd127 2.439 . S
O131 C132 1.208 . S
C132 O130 1.247 . S
C132 O131 1.208 . S
C133 O138 1.247 . S
C133 O139 1.208 . S
C134 O126 1.315 . S
C134 O129 1.279 . S
C135 O136 1.315 . S
C135 O137 1.279 . S
O136 Cd128 2.223 . S
O136 C135 1.315 . S
O137 Cd127 2.240 . S
O137 C135 1.279 . S
O138 Cd128 2.297 . S
O138 C133 1.247 . S
O139 Cd128 2.439 . S
O139 C133 1.208 . S
O140 Cd141 2.223 . S
O140 C148 1.315 . S
Cd141 O140 2.223 . S
Cd141 O144 2.297 . S
Cd141 O145 2.439 . S
Cd141 O151 2.240 . S
Cd142 O143 2.240 . S
Cd142 O150 2.223 . S
Cd142 O152 2.297 . S
Cd142 O153 2.439 . S
O143 Cd142 2.240 . S
O143 C148 1.279 . S
O144 Cd141 2.297 . S
O144 C146 1.247 . S
O145 Cd141 2.439 . S
O145 C146 1.208 . S
C146 O144 1.247 . S
C146 O145 1.208 . S
C147 O152 1.247 . S
C147 O153 1.208 . S
C148 O140 1.315 . S
C148 O143 1.279 . S
C149 O150 1.315 . S
C149 O151 1.279 . S
O150 Cd142 2.223 . S
O150 C149 1.315 . S
O151 Cd141 2.240 . S
O151 C149 1.279 . S
O152 Cd142 2.297 . S
O152 C147 1.247 . S
O153 Cd142 2.439 . S
O153 C147 1.208 . S
O154 Cd155 2.223 . S
O154 C162 1.315 . S
Cd155 O154 2.223 . S
Cd155 O158 2.297 . S
Cd155 O159 2.439 . S
Cd155 O165 2.240 . S
Cd156 O157 2.240 . S
Cd156 O164 2.223 . S
Cd156 O166 2.297 . S
Cd156 O167 2.439 . S
O157 Cd156 2.240 . S
O157 C162 1.279 . S
O158 Cd155 2.297 . S
O158 C160 1.247 . S
O159 Cd155 2.439 . S
O159 C160 1.208 . S
C160 O158 1.247 . S
C160 O159 1.208 . S
C161 O166 1.247 . S
C161 O167 1.208 . S
C162 O154 1.315 . S
C162 O157 1.279 . S
C163 O164 1.315 . S
C163 O165 1.279 . S
O164 Cd156 2.223 . S
O164 C163 1.315 . S
O165 Cd155 2.240 . S
O165 C163 1.279 . S
O166 Cd156 2.297 . S
O166 C161 1.247 . S
O167 Cd156 2.439 . S
O167 C161 1.208 . S
O168 Cd169 2.223 . S
O168 C176 1.315 . S
Cd169 O168 2.223 . S
Cd169 O172 2.297 . S
Cd169 O173 2.439 . S
Cd169 O179 2.240 . S
Cd170 O171 2.240 . S
Cd170 O178 2.223 . S
Cd170 O180 2.297 . S
Cd170 O181 2.439 . S
O171 Cd170 2.240 . S
O171 C176 1.279 . S
O172 Cd169 2.297 . S
O172 C174 1.247 . S
O173 Cd169 2.439 . S
O173 C174 1.208 . S
C174 O172 1.247 . S
C174 O173 1.208 . S
C175 O180 1.247 . S
C175 O181 1.208 . S
C176 O168 1.315 . S
C176 O171 1.279 . S
C177 O178 1.315 . S
C177 O179 1.279 . S
O178 Cd170 2.223 . S
O178 C177 1.315 . S
O179 Cd169 2.240 . S
O179 C177 1.279 . S
O180 Cd170 2.297 . S
O180 C175 1.247 . S
O181 Cd170 2.439 . S
O181 C175 1.208 . S
O182 Cd183 2.223 . S
O182 C190 1.315 . S
Cd183 O182 2.223 . S
Cd183 O186 2.297 . S
Cd183 O187 2.439 . S
Cd183 O193 2.240 . S
Cd184 O185 2.240 . S
Cd184 O192 2.223 . S
Cd184 O194 2.297 . S
Cd184 O195 2.439 . S
O185 Cd184 2.240 . S
O185 C190 1.279 . S
O186 Cd183 2.297 . S
O186 C188 1.247 . S
O187 Cd183 2.439 . S
O187 C188 1.208 . S
C188 O186 1.247 . S
C188 O187 1.208 . S
C189 O194 1.247 . S
C189 O195 1.208 . S
C190 O182 1.315 . S
C190 O185 1.279 . S
C191 O192 1.315 . S
C191 O193 1.279 . S
O192 Cd184 2.223 . S
O192 C191 1.315 . S
O193 Cd183 2.240 . S
O193 C191 1.279 . S
O194 Cd184 2.297 . S
O194 C189 1.247 . S
O195 Cd184 2.439 . S
O195 C189 1.208 . S
O196 Cd197 2.223 . S
O196 C204 1.315 . S
Cd197 O196 2.223 . S
Cd197 O200 2.297 . S
Cd197 O201 2.439 . S
Cd197 O207 2.240 . S
Cd198 O199 2.240 . S
Cd198 O206 2.223 . S
Cd198 O208 2.297 . S
Cd198 O209 2.439 . S
O199 Cd198 2.240 . S
O199 C204 1.279 . S
O200 Cd197 2.297 . S
O200 C202 1.247 . S
O201 Cd197 2.439 . S
O201 C202 1.208 . S
C202 O200 1.247 . S
C202 O201 1.208 . S
C203 O208 1.247 . S
C203 O209 1.208 . S
C204 O196 1.315 . S
C204 O199 1.279 . S
C205 O206 1.315 . S
C205 O207 1.279 . S
O206 Cd198 2.223 . S
O206 C205 1.315 . S
O207 Cd197 2.240 . S
O207 C205 1.279 . S
O208 Cd198 2.297 . S
O208 C203 1.247 . S
O209 Cd198 2.439 . S
O209 C203 1.208 . S
O210 Cd211 2.223 . S
O210 C218 1.315 . S
Cd211 O210 2.223 . S
Cd211 O214 2.297 . S
Cd211 O215 2.439 . S
Cd211 O221 2.240 . S
Cd212 O213 2.240 . S
Cd212 O220 2.223 . S
Cd212 O222 2.297 . S
Cd212 O223 2.439 . S
O213 Cd212 2.240 . S
O213 C218 1.279 . S
O214 Cd211 2.297 . S
O214 C216 1.247 . S
O215 Cd211 2.439 . S
O215 C216 1.208 . S
C216 O214 1.247 . S
C216 O215 1.208 . S
C217 O222 1.247 . S
C217 O223 1.208 . S
C218 O210 1.315 . S
C218 O213 1.279 . S
C219 O220 1.315 . S
C219 O221 1.279 . S
O220 Cd212 2.223 . S
O220 C219 1.315 . S
O221 Cd211 2.240 . S
O221 C219 1.279 . S
O222 Cd212 2.297 . S
O222 C217 1.247 . S
O223 Cd212 2.439 . S
O223 C217 1.208 . S
O224 Cd225 2.223 . S
O224 C232 1.315 . S
Cd225 O224 2.223 . S
Cd225 O228 2.297 . S
Cd225 O229 2.439 . S
Cd225 O235 2.240 . S
Cd226 O227 2.240 . S
Cd226 O234 2.223 . S
Cd226 O236 2.297 . S
Cd226 O237 2.439 . S
O227 Cd226 2.240 . S
O227 C232 1.279 . S
O228 Cd225 2.297 . S
O228 C230 1.247 . S
O229 Cd225 2.439 . S
O229 C230 1.208 . S
C230 O228 1.247 . S
C230 O229 1.208 . S
C231 O236 1.247 . S
C231 O237 1.208 . S
C232 O224 1.315 . S
C232 O227 1.279 . S
C233 O234 1.315 . S
C233 O235 1.279 . S
O234 Cd226 2.223 . S
O234 C233 1.315 . S
O235 Cd225 2.240 . S
O235 C233 1.279 . S
O236 Cd226 2.297 . S
O236 C231 1.247 . S
O237 Cd226 2.439 . S
O237 C231 1.208 . S
O238 Cd239 2.223 . S
O238 C246 1.315 . S
Cd239 O238 2.223 . S
Cd239 O242 2.297 . S
Cd239 O243 2.439 . S
Cd239 O249 2.240 . S
Cd240 O241 2.240 . S
Cd240 O248 2.223 . S
Cd240 O250 2.297 . S
Cd240 O251 2.439 . S
O241 Cd240 2.240 . S
O241 C246 1.279 . S
O242 Cd239 2.297 . S
O242 C244 1.247 . S
O243 Cd239 2.439 . S
O243 C244 1.208 . S
C244 O242 1.247 . S
C244 O243 1.208 . S
C245 O250 1.247 . S
C245 O251 1.208 . S
C246 O238 1.315 . S
C246 O241 1.279 . S
C247 O248 1.315 . S
C247 O249 1.279 . S
O248 Cd240 2.223 . S
O248 C247 1.315 . S
O249 Cd239 2.240 . S
O249 C247 1.279 . S
O250 Cd240 2.297 . S
O250 C245 1.247 . S
O251 Cd240 2.439 . S
O251 C245 1.208 . S
O252 Cd253 2.223 . S
O252 C260 1.315 . S
Cd253 O252 2.223 . S
Cd253 O256 2.297 . S
Cd253 O257 2.439 . S
Cd253 O263 2.240 . S
Cd254 O255 2.240 . S
Cd254 O262 2.223 . S
Cd254 O264 2.297 . S
Cd254 O265 2.439 . S
O255 Cd254 2.240 . S
O255 C260 1.279 . S
O256 Cd253 2.297 . S
O256 C258 1.247 . S
O257 Cd253 2.439 . S
O257 C258 1.208 . S
C258 O256 1.247 . S
C258 O257 1.208 . S
C259 O264 1.247 . S
C259 O265 1.208 . S
C260 O252 1.315 . S
C260 O255 1.279 . S
C261 O262 1.315 . S
C261 O263 1.279 . S
O262 Cd254 2.223 . S
O262 C261 1.315 . S
O263 Cd253 2.240 . S
O263 C261 1.279 . S
O264 Cd254 2.297 . S
O264 C259 1.247 . S
O265 Cd254 2.439 . S
O265 C259 1.208 . S
O266 Cd267 2.223 . S
O266 C274 1.315 . S
Cd267 O266 2.223 . S
Cd267 O270 2.297 . S
Cd267 O271 2.439 . S
Cd267 O277 2.240 . S
Cd268 O269 2.240 . S
Cd268 O276 2.223 . S
Cd268 O278 2.297 . S
Cd268 O279 2.439 . S
O269 Cd268 2.240 . S
O269 C274 1.279 . S
O270 Cd267 2.297 . S
O270 C272 1.247 . S
O271 Cd267 2.439 . S
O271 C272 1.208 . S
C272 O270 1.247 . S
C272 O271 1.208 . S
C273 O278 1.247 . S
C273 O279 1.208 . S
C274 O266 1.315 . S
C274 O269 1.279 . S
C275 O276 1.315 . S
C275 O277 1.279 . S
O276 Cd268 2.223 . S
O276 C275 1.315 . S
O277 Cd267 2.240 . S
O277 C275 1.279 . S
O278 Cd268 2.297 . S
O278 C273 1.247 . S
O279 Cd268 2.439 . S
O279 C273 1.208 . S
O280 Cd281 2.223 . S
O280 C288 1.315 . S
Cd281 O280 2.223 . S
Cd281 O284 2.297 . S
Cd281 O285 2.439 . S
Cd281 O291 2.240 . S
Cd282 O283 2.240 . S
Cd282 O290 2.223 . S
Cd282 O292 2.297 . S
Cd282 O293 2.439 . S
O283 Cd282 2.240 . S
O283 C288 1.279 . S
O284 Cd281 2.297 . S
O284 C286 1.247 . S
O285 Cd281 2.439 . S
O285 C286 1.208 . S
C286 O284 1.247 . S
C286 O285 1.208 . S
C287 O292 1.247 . S
C287 O293 1.208 . S
C288 O280 1.315 . S
C288 O283 1.279 . S
C289 O290 1.315 . S
C289 O291 1.279 . S
O290 Cd282 2.223 . S
O290 C289 1.315 . S
O291 Cd281 2.240 . S
O291 C289 1.279 . S
O292 Cd282 2.297 . S
O292 C287 1.247 . S
O293 Cd282 2.439 . S
O293 C287 1.208 . S
O294 Cd295 2.223 . S
O294 C302 1.315 . S
Cd295 O294 2.223 . S
Cd295 O298 2.297 . S
Cd295 O299 2.439 . S
Cd295 O305 2.240 . S
Cd296 O297 2.240 . S
Cd296 O304 2.223 . S
Cd296 O306 2.297 . S
Cd296 O307 2.439 . S
O297 Cd296 2.240 . S
O297 C302 1.279 . S
O298 Cd295 2.297 . S
O298 C300 1.247 . S
O299 Cd295 2.439 . S
O299 C300 1.208 . S
C300 O298 1.247 . S
C300 O299 1.208 . S
C301 O306 1.247 . S
C301 O307 1.208 . S
C302 O294 1.315 . S
C302 O297 1.279 . S
C303 O304 1.315 . S
C303 O305 1.279 . S
O304 Cd296 2.223 . S
O304 C303 1.315 . S
O305 Cd295 2.240 . S
O305 C303 1.279 . S
O306 Cd296 2.297 . S
O306 C301 1.247 . S
O307 Cd296 2.439 . S
O307 C301 1.208 . S
O308 Cd309 2.223 . S
O308 C316 1.315 . S
Cd309 O308 2.223 . S
Cd309 O312 2.297 . S
Cd309 O313 2.439 . S
Cd309 O319 2.240 . S
Cd310 O311 2.240 . S
Cd310 O318 2.223 . S
Cd310 O320 2.297 . S
Cd310 O321 2.439 . S
O311 Cd310 2.240 . S
O311 C316 1.279 . S
O312 Cd309 2.297 . S
O312 C314 1.247 . S
O313 Cd309 2.439 . S
O313 C314 1.208 . S
C314 O312 1.247 . S
C314 O313 1.208 . S
C315 O320 1.247 . S
C315 O321 1.208 . S
C316 O308 1.315 . S
C316 O311 1.279 . S
C317 O318 1.315 . S
C317 O319 1.279 . S
O318 Cd310 2.223 . S
O318 C317 1.315 . S
O319 Cd309 2.240 . S
O319 C317 1.279 . S
O320 Cd310 2.297 . S
O320 C315 1.247 . S
O321 Cd310 2.439 . S
O321 C315 1.208 . S
O322 Cd323 2.223 . S
O322 C330 1.315 . S
Cd323 O322 2.223 . S
Cd323 O326 2.297 . S
Cd323 O327 2.439 . S
Cd323 O333 2.240 . S
Cd324 O325 2.240 . S
Cd324 O332 2.223 . S
Cd324 O334 2.297 . S
Cd324 O335 2.439 . S
O325 Cd324 2.240 . S
O325 C330 1.279 . S
O326 Cd323 2.297 . S
O326 C328 1.247 . S
O327 Cd323 2.439 . S
O327 C328 1.208 . S
C328 O326 1.247 . S
C328 O327 1.208 . S
C329 O334 1.247 . S
C329 O335 1.208 . S
C330 O322 1.315 . S
C330 O325 1.279 . S
C331 O332 1.315 . S
C331 O333 1.279 . S
O332 Cd324 2.223 . S
O332 C331 1.315 . S
O333 Cd323 2.240 . S
O333 C331 1.279 . S
O334 Cd324 2.297 . S
O334 C329 1.247 . S
O335 Cd324 2.439 . S
O335 C329 1.208 . S
O336 Cd337 2.223 . S
O336 C344 1.315 . S
Cd337 O336 2.223 . S
Cd337 O340 2.297 . S
Cd337 O341 2.439 . S
Cd337 O347 2.240 . S
Cd338 O339 2.240 . S
Cd338 O346 2.223 . S
Cd338 O348 2.297 . S
Cd338 O349 2.439 . S
O339 Cd338 2.240 . S
O339 C344 1.279 . S
O340 Cd337 2.297 . S
O340 C342 1.247 . S
O341 Cd337 2.439 . S
O341 C342 1.208 . S
C342 O340 1.247 . S
C342 O341 1.208 . S
C343 O348 1.247 . S
C343 O349 1.208 . S
C344 O336 1.315 . S
C344 O339 1.279 . S
C345 O346 1.315 . S
C345 O347 1.279 . S
O346 Cd338 2.223 . S
O346 C345 1.315 . S
O347 Cd337 2.240 . S
O347 C345 1.279 . S
O348 Cd338 2.297 . S
O348 C343 1.247 . S
O349 Cd338 2.439 . S
O349 C343 1.208 . S
O350 Cd351 2.223 . S
O350 C358 1.315 . S
Cd351 O350 2.223 . S
Cd351 O354 2.297 . S
Cd351 O355 2.439 . S
Cd351 O361 2.240 . S
Cd352 O353 2.240 . S
Cd352 O360 2.223 . S
Cd352 O362 2.297 . S
Cd352 O363 2.439 . S
O353 Cd352 2.240 . S
O353 C358 1.279 . S
O354 Cd351 2.297 . S
O354 C356 1.247 . S
O355 Cd351 2.439 . S
O355 C356 1.208 . S
C356 O354 1.247 . S
C356 O355 1.208 . S
C357 O362 1.247 . S
C357 O363 1.208 . S
C358 O350 1.315 . S
C358 O353 1.279 . S
C359 O360 1.315 . S
C359 O361 1.279 . S
O360 Cd352 2.223 . S
O360 C359 1.315 . S
O361 Cd351 2.240 . S
O361 C359 1.279 . S
O362 Cd352 2.297 . S
O362 C357 1.247 . S
O363 Cd352 2.439 . S
O363 C357 1.208 . S
O364 Cd365 2.223 . S
O364 C372 1.315 . S
Cd365 O364 2.223 . S
Cd365 O368 2.297 . S
Cd365 O369 2.439 . S
Cd365 O375 2.240 . S
Cd366 O367 2.240 . S
Cd366 O374 2.223 . S
Cd366 O376 2.297 . S
Cd366 O377 2.439 . S
O367 Cd366 2.240 . S
O367 C372 1.279 . S
O368 Cd365 2.297 . S
O368 C370 1.247 . S
O369 Cd365 2.439 . S
O369 C370 1.208 . S
C370 O368 1.247 . S
C370 O369 1.208 . S
C371 O376 1.247 . S
C371 O377 1.208 . S
C372 O364 1.315 . S
C372 O367 1.279 . S
C373 O374 1.315 . S
C373 O375 1.279 . S
O374 Cd366 2.223 . S
O374 C373 1.315 . S
O375 Cd365 2.240 . S
O375 C373 1.279 . S
O376 Cd366 2.297 . S
O376 C371 1.247 . S
O377 Cd366 2.439 . S
O377 C371 1.208 . S
O378 Cd379 2.223 . S
O378 C386 1.315 . S
Cd379 O378 2.223 . S
Cd379 O382 2.297 . S
Cd379 O383 2.439 . S
Cd379 O389 2.240 . S
Cd380 O381 2.240 . S
Cd380 O388 2.223 . S
Cd380 O390 2.297 . S
Cd380 O391 2.439 . S
O381 Cd380 2.240 . S
O381 C386 1.279 . S
O382 Cd379 2.297 . S
O382 C384 1.247 . S
O383 Cd379 2.439 . S
O383 C384 1.208 . S
C384 O382 1.247 . S
C384 O383 1.208 . S
C385 O390 1.247 . S
C385 O391 1.208 . S
C386 O378 1.315 . S
C386 O381 1.279 . S
C387 O388 1.315 . S
C387 O389 1.279 . S
O388 Cd380 2.223 . S
O388 C387 1.315 . S
O389 Cd379 2.240 . S
O389 C387 1.279 . S
O390 Cd380 2.297 . S
O390 C385 1.247 . S
O391 Cd380 2.439 . S
O391 C385 1.208 . S
O392 Cd393 2.223 . S
O392 C400 1.315 . S
Cd393 O392 2.223 . S
Cd393 O396 2.297 . S
Cd393 O397 2.439 . S
Cd393 O403 2.240 . S
Cd394 O395 2.240 . S
Cd394 O402 2.223 . S
Cd394 O404 2.297 . S
Cd394 O405 2.439 . S
O395 Cd394 2.240 . S
O395 C400 1.279 . S
O396 Cd393 2.297 . S
O396 C398 1.247 . S
O397 Cd393 2.439 . S
O397 C398 1.208 . S
C398 O396 1.247 . S
C398 O397 1.208 . S
C399 O404 1.247 . S
C399 O405 1.208 . S
C400 O392 1.315 . S
C400 O395 1.279 . S
C401 O402 1.315 . S
C401 O403 1.279 . S
O402 Cd394 2.223 . S
O402 C401 1.315 . S
O403 Cd393 2.240 . S
O403 C401 1.279 . S
O404 Cd394 2.297 . S
O404 C399 1.247 . S
O405 Cd394 2.439 . S
O405 C399 1.208 . S
O406 Cd407 2.223 . S
O406 C414 1.315 . S
Cd407 O406 2.223 . S
Cd407 O410 2.297 . S
Cd407 O411 2.439 . S
Cd407 O417 2.240 . S
Cd408 O409 2.240 . S
Cd408 O416 2.223 . S
Cd408 O418 2.297 . S
Cd408 O419 2.439 . S
O409 Cd408 2.240 . S
O409 C414 1.279 . S
O410 Cd407 2.297 . S
O410 C412 1.247 . S
O411 Cd407 2.439 . S
O411 C412 1.208 . S
C412 O410 1.247 . S
C412 O411 1.208 . S
C413 O418 1.247 . S
C413 O419 1.208 . S
C414 O406 1.315 . S
C414 O409 1.279 . S
C415 O416 1.315 . S
C415 O417 1.279 . S
O416 Cd408 2.223 . S
O416 C415 1.315 . S
O417 Cd407 2.240 . S
O417 C415 1.279 . S
O418 Cd408 2.297 . S
O418 C413 1.247 . S
O419 Cd408 2.439 . S
O419 C413 1.208 . S
O420 Cd421 2.223 . S
O420 C428 1.315 . S
Cd421 O420 2.223 . S
Cd421 O424 2.297 . S
Cd421 O425 2.439 . S
Cd421 O431 2.240 . S
Cd422 O423 2.240 . S
Cd422 O430 2.223 . S
Cd422 O432 2.297 . S
Cd422 O433 2.439 . S
O423 Cd422 2.240 . S
O423 C428 1.279 . S
O424 Cd421 2.297 . S
O424 C426 1.247 . S
O425 Cd421 2.439 . S
O425 C426 1.208 . S
C426 O424 1.247 . S
C426 O425 1.208 . S
C427 O432 1.247 . S
C427 O433 1.208 . S
C428 O420 1.315 . S
C428 O423 1.279 . S
C429 O430 1.315 . S
C429 O431 1.279 . S
O430 Cd422 2.223 . S
O430 C429 1.315 . S
O431 Cd421 2.240 . S
O431 C429 1.279 . S
O432 Cd422 2.297 . S
O432 C427 1.247 . S
O433 Cd422 2.439 . S
O433 C427 1.208 . S
O434 Cd435 2.223 . S
O434 C442 1.315 . S
Cd435 O434 2.223 . S
Cd435 O438 2.297 . S
Cd435 O439 2.439 . S
Cd435 O445 2.240 . S
Cd436 O437 2.240 . S
Cd436 O444 2.223 . S
Cd436 O446 2.297 . S
Cd436 O447 2.439 . S
O437 Cd436 2.240 . S
O437 C442 1.279 . S
O438 Cd435 2.297 . S
O438 C440 1.247 . S
O439 Cd435 2.439 . S
O439 C440 1.208 . S
C440 O438 1.247 . S
C440 O439 1.208 . S
C441 O446 1.247 . S
C441 O447 1.208 . S
C442 O434 1.315 . S
C442 O437 1.279 . S
C443 O444 1.315 . S
C443 O445 1.279 . S
O444 Cd436 2.223 . S
O444 C443 1.315 . S
O445 Cd435 2.240 . S
O445 C443 1.279 . S
O446 Cd436 2.297 . S
O446 C441 1.247 . S
O447 Cd436 2.439 . S
O447 C441 1.208 . S
O448 Cd449 2.223 . S
O448 C456 1.315 . S
Cd449 O448 2.223 . S
Cd449 O452 2.297 . S
Cd449 O453 2.439 . S
Cd449 O459 2.240 . S
Cd450 O451 2.240 . S
Cd450 O458 2.223 . S
Cd450 O460 2.297 . S
Cd450 O461 2.439 . S
O451 Cd450 2.240 . S
O451 C456 1.279 . S
O452 Cd449 2.297 . S
O452 C454 1.247 . S
O453 Cd449 2.439 . S
O453 C454 1.208 . S
C454 O452 1.247 . S
C454 O453 1.208 . S
C455 O460 1.247 . S
C455 O461 1.208 . S
C456 O448 1.315 . S
C456 O451 1.279 . S
C457 O458 1.315 . S
C457 O459 1.279 . S
O458 Cd450 2.223 . S
O458 C457 1.315 . S
O459 Cd449 2.240 . S
O459 C457 1.279 . S
O460 Cd450 2.297 . S
O460 C455 1.247 . S
O461 Cd450 2.439 . S
O461 C455 1.208 . S
O462 Cd463 2.223 . S
O462 C470 1.315 . S
Cd463 O462 2.223 . S
Cd463 O466 2.297 . S
Cd463 O467 2.439 . S
Cd463 O473 2.240 . S
Cd464 O465 2.240 . S
Cd464 O472 2.223 . S
Cd464 O474 2.297 . S
Cd464 O475 2.439 . S
O465 Cd464 2.240 . S
O465 C470 1.279 . S
O466 Cd463 2.297 . S
O466 C468 1.247 . S
O467 Cd463 2.439 . S
O467 C468 1.208 . S
C468 O466 1.247 . S
C468 O467 1.208 . S
C469 O474 1.247 . S
C469 O475 1.208 . S
C470 O462 1.315 . S
C470 O465 1.279 . S
C471 O472 1.315 . S
C471 O473 1.279 . S
O472 Cd464 2.223 . S
O472 C471 1.315 . S
O473 Cd463 2.240 . S
O473 C471 1.279 . S
O474 Cd464 2.297 . S
O474 C469 1.247 . S
O475 Cd464 2.439 . S
O475 C469 1.208 . S
O476 Cd477 2.223 . S
O476 C484 1.315 . S
Cd477 O476 2.223 . S
Cd477 O480 2.297 . S
Cd477 O481 2.439 . S
Cd477 O487 2.240 . S
Cd478 O479 2.240 . S
Cd478 O486 2.223 . S
Cd478 O488 2.297 . S
Cd478 O489 2.439 . S
O479 Cd478 2.240 . S
O479 C484 1.279 . S
O480 Cd477 2.297 . S
O480 C482 1.247 . S
O481 Cd477 2.439 . S
O481 C482 1.208 . S
C482 O480 1.247 . S
C482 O481 1.208 . S
C483 O488 1.247 . S
C483 O489 1.208 . S
C484 O476 1.315 . S
C484 O479 1.279 . S
C485 O486 1.315 . S
C485 O487 1.279 . S
O486 Cd478 2.223 . S
O486 C485 1.315 . S
O487 Cd477 2.240 . S
O487 C485 1.279 . S
O488 Cd478 2.297 . S
O488 C483 1.247 . S
O489 Cd478 2.439 . S
O489 C483 1.208 . S
O490 Cd491 2.223 . S
O490 C498 1.315 . S
Cd491 O490 2.223 . S
Cd491 O494 2.297 . S
Cd491 O495 2.439 . S
Cd491 O501 2.240 . S
Cd492 O493 2.240 . S
Cd492 O500 2.223 . S
Cd492 O502 2.297 . S
Cd492 O503 2.439 . S
O493 Cd492 2.240 . S
O493 C498 1.279 . S
O494 Cd491 2.297 . S
O494 C496 1.247 . S
O495 Cd491 2.439 . S
O495 C496 1.208 . S
C496 O494 1.247 . S
C496 O495 1.208 . S
C497 O502 1.247 . S
C497 O503 1.208 . S
C498 O490 1.315 . S
C498 O493 1.279 . S
C499 O500 1.315 . S
C499 O501 1.279 . S
O500 Cd492 2.223 . S
O500 C499 1.315 . S
O501 Cd491 2.240 . S
O501 C499 1.279 . S
O502 Cd492 2.297 . S
O502 C497 1.247 . S
O503 Cd492 2.439 . S
O503 C497 1.208 . S
O504 Cd505 2.223 . S
O504 C512 1.315 . S
Cd505 O504 2.223 . S
Cd505 O508 2.297 . S
Cd505 O509 2.439 . S
Cd505 O515 2.240 . S
Cd506 O507 2.240 . S
Cd506 O514 2.223 . S
Cd506 O516 2.297 . S
Cd506 O517 2.439 . S
O507 Cd506 2.240 . S
O507 C512 1.279 . S
O508 Cd505 2.297 . S
O508 C510 1.247 . S
O509 Cd505 2.439 . S
O509 C510 1.208 . S
C510 O508 1.247 . S
C510 O509 1.208 . S
C511 O516 1.247 . S
C511 O517 1.208 . S
C512 O504 1.315 . S
C512 O507 1.279 . S
C513 O514 1.315 . S
C513 O515 1.279 . S
O514 Cd506 2.223 . S
O514 C513 1.315 . S
O515 Cd505 2.240 . S
O515 C513 1.279 . S
O516 Cd506 2.297 . S
O516 C511 1.247 . S
O517 Cd506 2.439 . S
O517 C511 1.208 . S
O518 Cd519 2.223 . S
O518 C526 1.315 . S
Cd519 O518 2.223 . S
Cd519 O522 2.297 . S
Cd519 O523 2.439 . S
Cd519 O529 2.240 . S
Cd520 O521 2.240 . S
Cd520 O528 2.223 . S
Cd520 O530 2.297 . S
Cd520 O531 2.439 . S
O521 Cd520 2.240 . S
O521 C526 1.279 . S
O522 Cd519 2.297 . S
O522 C524 1.247 . S
O523 Cd519 2.439 . S
O523 C524 1.208 . S
C524 O522 1.247 . S
C524 O523 1.208 . S
C525 O530 1.247 . S
C525 O531 1.208 . S
C526 O518 1.315 . S
C526 O521 1.279 . S
C527 O528 1.315 . S
C527 O529 1.279 . S
O528 Cd520 2.223 . S
O528 C527 1.315 . S
O529 Cd519 2.240 . S
O529 C527 1.279 . S
O530 Cd520 2.297 . S
O530 C525 1.247 . S
O531 Cd520 2.439 . S
O531 C525 1.208 . S
O532 Cd533 2.223 . S
O532 C540 1.315 . S
Cd533 O532 2.223 . S
Cd533 O536 2.297 . S
Cd533 O537 2.439 . S
Cd533 O543 2.240 . S
Cd534 O535 2.240 . S
Cd534 O542 2.223 . S
Cd534 O544 2.297 . S
Cd534 O545 2.439 . S
O535 Cd534 2.240 . S
O535 C540 1.279 . S
O536 Cd533 2.297 . S
O536 C538 1.247 . S
O537 Cd533 2.439 . S
O537 C538 1.208 . S
C538 O536 1.247 . S
C538 O537 1.208 . S
C539 O544 1.247 . S
C539 O545 1.208 . S
C540 O532 1.315 . S
C540 O535 1.279 . S
C541 O542 1.315 . S
C541 O543 1.279 . S
O542 Cd534 2.223 . S
O542 C541 1.315 . S
O543 Cd533 2.240 . S
O543 C541 1.279 . S
O544 Cd534 2.297 . S
O544 C539 1.247 . S
O545 Cd534 2.439 . S
O545 C539 1.208 . S
O546 Cd547 2.223 . S
O546 C554 1.315 . S
Cd547 O546 2.223 . S
Cd547 O550 2.297 . S
Cd547 O551 2.439 . S
Cd547 O557 2.240 . S
Cd548 O549 2.240 . S
Cd548 O556 2.223 . S
Cd548 O558 2.297 . S
Cd548 O559 2.439 . S
O549 Cd548 2.240 . S
O549 C554 1.279 . S
O550 Cd547 2.297 . S
O550 C552 1.247 . S
O551 Cd547 2.439 . S
O551 C552 1.208 . S
C552 O550 1.247 . S
C552 O551 1.208 . S
C553 O558 1.247 . S
C553 O559 1.208 . S
C554 O546 1.315 . S
C554 O549 1.279 . S
C555 O556 1.315 . S
C555 O557 1.279 . S
O556 Cd548 2.223 . S
O556 C555 1.315 . S
O557 Cd547 2.240 . S
O557 C555 1.279 . S
O558 Cd548 2.297 . S
O558 C553 1.247 . S
O559 Cd548 2.439 . S
O559 C553 1.208 . S
O560 Cd561 2.223 . S
O560 C568 1.315 . S
Cd561 O560 2.223 . S
Cd561 O564 2.297 . S
Cd561 O565 2.439 . S
Cd561 O571 2.240 . S
Cd562 O563 2.240 . S
Cd562 O570 2.223 . S
Cd562 O572 2.297 . S
Cd562 O573 2.439 . S
O563 Cd562 2.240 . S
O563 C568 1.279 . S
O564 Cd561 2.297 . S
O564 C566 1.247 . S
O565 Cd561 2.439 . S
O565 C566 1.208 . S
C566 O564 1.247 . S
C566 O565 1.208 . S
C567 O572 1.247 . S
C567 O573 1.208 . S
C568 O560 1.315 . S
C568 O563 1.279 . S
C569 O570 1.315 . S
C569 O571 1.279 . S
O570 Cd562 2.223 . S
O570 C569 1.315 . S
O571 Cd561 2.240 . S
O571 C569 1.279 . S
O572 Cd562 2.297 . S
O572 C567 1.247 . S
O573 Cd562 2.439 . S
O573 C567 1.208 . S
O574 Cd575 2.223 . S
O574 C582 1.315 . S
Cd575 O574 2.223 . S
Cd575 O578 2.297 . S
Cd575 O579 2.439 . S
Cd575 O585 2.240 . S
Cd576 O577 2.240 . S
Cd576 O584 2.223 . S
Cd576 O586 2.297 . S
Cd576 O587 2.439 . S
O577 Cd576 2.240 . S
O577 C582 1.279 . S
O578 Cd575 2.297 . S
O578 C580 1.247 . S
O579 Cd575 2.439 . S
O579 C580 1.208 . S
C580 O578 1.247 . S
C580 O579 1.208 . S
C581 O586 1.247 . S
C581 O587 1.208 . S
C582 O574 1.315 . S
C582 O577 1.279 . S
C583 O584 1.315 . S
C583 O585 1.279 . S
O584 Cd576 2.223 . S
O584 C583 1.315 . S
O585 Cd575 2.240 . S
O585 C583 1.279 . S
O586 Cd576 2.297 . S
O586 C581 1.247 . S
O587 Cd576 2.439 . S
O587 C581 1.208 . S
O588 Cd589 2.223 . S
O588 C596 1.315 . S
Cd589 O588 2.223 . S
Cd589 O592 2.297 . S
Cd589 O593 2.439 . S
Cd589 O599 2.240 . S
Cd590 O591 2.240 . S
Cd590 O598 2.223 . S
Cd590 O600 2.297 . S
Cd590 O601 2.439 . S
O591 Cd590 2.240 . S
O591 C596 1.279 . S
O592 Cd589 2.297 . S
O592 C594 1.247 . S
O593 Cd589 2.439 . S
O593 C594 1.208 . S
C594 O592 1.247 . S
C594 O593 1.208 . S
C595 O600 1.247 . S
C595 O601 1.208 . S
C596 O588 1.315 . S
C596 O591 1.279 . S
C597 O598 1.315 . S
C597 O599 1.279 . S
O598 Cd590 2.223 . S
O598 C597 1.315 . S
O599 Cd589 2.240 . S
O599 C597 1.279 . S
O600 Cd590 2.297 . S
O600 C595 1.247 . S
O601 Cd590 2.439 . S
O601 C595 1.208 . S
O602 Cd603 2.223 . S
O602 C610 1.315 . S
Cd603 O602 2.223 . S
Cd603 O606 2.297 . S
Cd603 O607 2.439 . S
Cd603 O613 2.240 . S
Cd604 O605 2.240 . S
Cd604 O612 2.223 . S
Cd604 O614 2.297 . S
Cd604 O615 2.439 . S
O605 Cd604 2.240 . S
O605 C610 1.279 . S
O606 Cd603 2.297 . S
O606 C608 1.247 . S
O607 Cd603 2.439 . S
O607 C608 1.208 . S
C608 O606 1.247 . S
C608 O607 1.208 . S
C609 O614 1.247 . S
C609 O615 1.208 . S
C610 O602 1.315 . S
C610 O605 1.279 . S
C611 O612 1.315 . S
C611 O613 1.279 . S
O612 Cd604 2.223 . S
O612 C611 1.315 . S
O613 Cd603 2.240 . S
O613 C611 1.279 . S
O614 Cd604 2.297 . S
O614 C609 1.247 . S
O615 Cd604 2.439 . S
O615 C609 1.208 . S
O616 Cd617 2.223 . S
O616 C624 1.315 . S
Cd617 O616 2.223 . S
Cd617 O620 2.297 . S
Cd617 O621 2.439 . S
Cd617 O627 2.240 . S
Cd618 O619 2.240 . S
Cd618 O626 2.223 . S
Cd618 O628 2.297 . S
Cd618 O629 2.439 . S
O619 Cd618 2.240 . S
O619 C624 1.279 . S
O620 Cd617 2.297 . S
O620 C622 1.247 . S
O621 Cd617 2.439 . S
O621 C622 1.208 . S
C622 O620 1.247 . S
C622 O621 1.208 . S
C623 O628 1.247 . S
C623 O629 1.208 . S
C624 O616 1.315 . S
C624 O619 1.279 . S
C625 O626 1.315 . S
C625 O627 1.279 . S
O626 Cd618 2.223 . S
O626 C625 1.315 . S
O627 Cd617 2.240 . S
O627 C625 1.279 . S
O628 Cd618 2.297 . S
O628 C623 1.247 . S
O629 Cd618 2.439 . S
O629 C623 1.208 . S
O630 Cd631 2.223 . S
O630 C638 1.315 . S
Cd631 O630 2.223 . S
Cd631 O634 2.297 . S
Cd631 O635 2.439 . S
Cd631 O641 2.240 . S
Cd632 O633 2.240 . S
Cd632 O640 2.223 . S
Cd632 O642 2.297 . S
Cd632 O643 2.439 . S
O633 Cd632 2.240 . S
O633 C638 1.279 . S
O634 Cd631 2.297 . S
O634 C636 1.247 . S
O635 Cd631 2.439 . S
O635 C636 1.208 . S
C636 O634 1.247 . S
C636 O635 1.208 . S
C637 O642 1.247 . S
C637 O643 1.208 . S
C638 O630 1.315 . S
C638 O633 1.279 . S
C639 O640 1.315 . S
C639 O641 1.279 . S
O640 Cd632 2.223 . S
O640 C639 1.315 . S
O641 Cd631 2.240 . S
O641 C639 1.279 . S
O642 Cd632 2.297 . S
O642 C637 1.247 . S
O643 Cd632 2.439 . S
O643 C637 1.208 . S
O644 Cd645 2.223 . S
O644 C652 1.315 . S
Cd645 O644 2.223 . S
Cd645 O648 2.297 . S
Cd645 O649 2.439 . S
Cd645 O655 2.240 . S
Cd646 O647 2.240 . S
Cd646 O654 2.223 . S
Cd646 O656 2.297 . S
Cd646 O657 2.439 . S
O647 Cd646 2.240 . S
O647 C652 1.279 . S
O648 Cd645 2.297 . S
O648 C650 1.247 . S
O649 Cd645 2.439 . S
O649 C650 1.208 . S
C650 O648 1.247 . S
C650 O649 1.208 . S
C651 O656 1.247 . S
C651 O657 1.208 . S
C652 O644 1.315 . S
C652 O647 1.279 . S
C653 O654 1.315 . S
C653 O655 1.279 . S
O654 Cd646 2.223 . S
O654 C653 1.315 . S
O655 Cd645 2.240 . S
O655 C653 1.279 . S
O656 Cd646 2.297 . S
O656 C651 1.247 . S
O657 Cd646 2.439 . S
O657 C651 1.208 . S
O658 Cd659 2.223 . S
O658 C666 1.315 . S
Cd659 O658 2.223 . S
Cd659 O662 2.297 . S
Cd659 O663 2.439 . S
Cd659 O669 2.240 . S
Cd660 O661 2.240 . S
Cd660 O668 2.223 . S
Cd660 O670 2.297 . S
Cd660 O671 2.439 . S
O661 Cd660 2.240 . S
O661 C666 1.279 . S
O662 Cd659 2.297 . S
O662 C664 1.247 . S
O663 Cd659 2.439 . S
O663 C664 1.208 . S
C664 O662 1.247 . S
C664 O663 1.208 . S
C665 O670 1.247 . S
C665 O671 1.208 . S
C666 O658 1.315 . S
C666 O661 1.279 . S
C667 O668 1.315 . S
C667 O669 1.279 . S
O668 Cd660 2.223 . S
O668 C667 1.315 . S
O669 Cd659 2.240 . S
O669 C667 1.279 . S
O670 Cd660 2.297 . S
O670 C665 1.247 . S
O671 Cd660 2.439 . S
O671 C665 1.208 . S
O672 Cd673 2.223 . S
O672 C680 1.315 . S
Cd673 O672 2.223 . S
Cd673 O676 2.297 . S
Cd673 O677 2.439 . S
Cd673 O683 2.240 . S
Cd674 O675 2.240 . S
Cd674 O682 2.223 . S
Cd674 O684 2.297 . S
Cd674 O685 2.439 . S
O675 Cd674 2.240 . S
O675 C680 1.279 . S
O676 Cd673 2.297 . S
O676 C678 1.247 . S
O677 Cd673 2.439 . S
O677 C678 1.208 . S
C678 O676 1.247 . S
C678 O677 1.208 . S
C679 O684 1.247 . S
C679 O685 1.208 . S
C680 O672 1.315 . S
C680 O675 1.279 . S
C681 O682 1.315 . S
C681 O683 1.279 . S
O682 Cd674 2.223 . S
O682 C681 1.315 . S
O683 Cd673 2.240 . S
O683 C681 1.279 . S
O684 Cd674 2.297 . S
O684 C679 1.247 . S
O685 Cd674 2.439 . S
O685 C679 1.208 . S
O686 Cd687 2.223 . S
O686 C694 1.315 . S
Cd687 O686 2.223 . S
Cd687 O690 2.297 . S
Cd687 O691 2.439 . S
Cd687 O697 2.240 . S
Cd688 O689 2.240 . S
Cd688 O696 2.223 . S
Cd688 O698 2.297 . S
Cd688 O699 2.439 . S
O689 Cd688 2.240 . S
O689 C694 1.279 . S
O690 Cd687 2.297 . S
O690 C692 1.247 . S
O691 Cd687 2.439 . S
O691 C692 1.208 . S
C692 O690 1.247 . S
C692 O691 1.208 . S
C693 O698 1.247 . S
C693 O699 1.208 . S
C694 O686 1.315 . S
C694 O689 1.279 . S
C695 O696 1.315 . S
C695 O697 1.279 . S
O696 Cd688 2.223 . S
O696 C695 1.315 . S
O697 Cd687 2.240 . S
O697 C695 1.279 . S
O698 Cd688 2.297 . S
O698 C693 1.247 . S
O699 Cd688 2.439 . S
O699 C693 1.208 . S
O700 Cd701 2.223 . S
O700 C708 1.315 . S
Cd701 O700 2.223 . S
Cd701 O704 2.297 . S
Cd701 O705 2.439 . S
Cd701 O711 2.240 . S
Cd702 O703 2.240 . S
Cd702 O710 2.223 . S
Cd702 O712 2.297 . S
Cd702 O713 2.439 . S
O703 Cd702 2.240 . S
O703 C708 1.279 . S
O704 Cd701 2.297 . S
O704 C706 1.247 . S
O705 Cd701 2.439 . S
O705 C706 1.208 . S
C706 O704 1.247 . S
C706 O705 1.208 . S
C707 O712 1.247 . S
C707 O713 1.208 . S
C708 O700 1.315 . S
C708 O703 1.279 . S
C709 O710 1.315 . S
C709 O711 1.279 . S
O710 Cd702 2.223 . S
O710 C709 1.315 . S
O711 Cd701 2.240 . S
O711 C709 1.279 . S
O712 Cd702 2.297 . S
O712 C707 1.247 . S
O713 Cd702 2.439 . S
O713 C707 1.208 . S
O714 Cd715 2.223 . S
O714 C722 1.315 . S
Cd715 O714 2.223 . S
Cd715 O718 2.297 . S
Cd715 O719 2.439 . S
Cd715 O725 2.240 . S
Cd716 O717 2.240 . S
Cd716 O724 2.223 . S
Cd716 O726 2.297 . S
Cd716 O727 2.439 . S
O717 Cd716 2.240 . S
O717 C722 1.279 . S
O718 Cd715 2.297 . S
O718 C720 1.247 . S
O719 Cd715 2.439 . S
O719 C720 1.208 . S
C720 O718 1.247 . S
C720 O719 1.208 . S
C721 O726 1.247 . S
C721 O727 1.208 . S
C722 O714 1.315 . S
C722 O717 1.279 . S
C723 O724 1.315 . S
C723 O725 1.279 . S
O724 Cd716 2.223 . S
O724 C723 1.315 . S
O725 Cd715 2.240 . S
O725 C723 1.279 . S
O726 Cd716 2.297 . S
O726 C721 1.247 . S
O727 Cd716 2.439 . S
O727 C721 1.208 . S
O728 Cd729 2.223 . S
O728 C736 1.315 . S
Cd729 O728 2.223 . S
Cd729 O732 2.297 . S
Cd729 O733 2.439 . S
Cd729 O739 2.240 . S
Cd730 O731 2.240 . S
Cd730 O738 2.223 . S
Cd730 O740 2.297 . S
Cd730 O741 2.439 . S
O731 Cd730 2.240 . S
O731 C736 1.279 . S
O732 Cd729 2.297 . S
O732 C734 1.247 . S
O733 Cd729 2.439 . S
O733 C734 1.208 . S
C734 O732 1.247 . S
C734 O733 1.208 . S
C735 O740 1.247 . S
C735 O741 1.208 . S
C736 O728 1.315 . S
C736 O731 1.279 . S
C737 O738 1.315 . S
C737 O739 1.279 . S
O738 Cd730 2.223 . S
O738 C737 1.315 . S
O739 Cd729 2.240 . S
O739 C737 1.279 . S
O740 Cd730 2.297 . S
O740 C735 1.247 . S
O741 Cd730 2.439 . S
O741 C735 1.208 . S
O742 Cd743 2.223 . S
O742 C750 1.315 . S
Cd743 O742 2.223 . S
Cd743 O746 2.297 . S
Cd743 O747 2.439 . S
Cd743 O753 2.240 . S
Cd744 O745 2.240 . S
Cd744 O752 2.223 . S
Cd744 O754 2.297 . S
Cd744 O755 2.439 . S
O745 Cd744 2.240 . S
O745 C750 1.279 . S
O746 Cd743 2.297 . S
O746 C748 1.247 . S
O747 Cd743 2.439 . S
O747 C748 1.208 . S
C748 O746 1.247 . S
C748 O747 1.208 . S
C749 O754 1.247 . S
C749 O755 1.208 . S
C750 O742 1.315 . S
C750 O745 1.279 . S
C751 O752 1.315 . S
C751 O753 1.279 . S
O752 Cd744 2.223 . S
O752 C751 1.315 . S
O753 Cd743 2.240 . S
O753 C751 1.279 . S
O754 Cd744 2.297 . S
O754 C749 1.247 . S
O755 Cd744 2.439 . S
O755 C749 1.208 . S
O756 Cd757 2.223 . S
O756 C764 1.315 . S
Cd757 O756 2.223 . S
Cd757 O760 2.297 . S
Cd757 O761 2.439 . S
Cd757 O767 2.240 . S
Cd758 O759 2.240 . S
Cd758 O766 2.223 . S
Cd758 O768 2.297 . S
Cd758 O769 2.439 . S
O759 Cd758 2.240 . S
O759 C764 1.279 . S
O760 Cd757 2.297 . S
O760 C762 1.247 . S
O761 Cd757 2.439 . S
O761 C762 1.208 . S
C762 O760 1.247 . S
C762 O761 1.208 . S
C763 O768 1.247 . S
C763 O769 1.208 . S
C764 O756 1.315 . S
C764 O759 1.279 . S
C765 O766 1.315 . S
C765 O767 1.279 . S
O766 Cd758 2.223 . S
O766 C765 1.315 . S
O767 Cd757 2.240 . S
O767 C765 1.279 . S
O768 Cd758 2.297 . S
O768 C763 1.247 . S
O769 Cd758 2.439 . S
O769 C763 1.208 . S
O770 Cd771 2.223 . S
O770 C778 1.315 . S
Cd771 O770 2.223 . S
Cd771 O774 2.297 . S
Cd771 O775 2.439 . S
Cd771 O781 2.240 . S
Cd772 O773 2.240 . S
Cd772 O780 2.223 . S
Cd772 O782 2.297 . S
Cd772 O783 2.439 . S
O773 Cd772 2.240 . S
O773 C778 1.279 . S
O774 Cd771 2.297 . S
O774 C776 1.247 . S
O775 Cd771 2.439 . S
O775 C776 1.208 . S
C776 O774 1.247 . S
C776 O775 1.208 . S
C777 O782 1.247 . S
C777 O783 1.208 . S
C778 O770 1.315 . S
C778 O773 1.279 . S
C779 O780 1.315 . S
C779 O781 1.279 . S
O780 Cd772 2.223 . S
O780 C779 1.315 . S
O781 Cd771 2.240 . S
O781 C779 1.279 . S
O782 Cd772 2.297 . S
O782 C777 1.247 . S
O783 Cd772 2.439 . S
O783 C777 1.208 . S
O784 Cd785 2.223 . S
O784 C792 1.315 . S
Cd785 O784 2.223 . S
Cd785 O788 2.297 . S
Cd785 O789 2.439 . S
Cd785 O795 2.240 . S
Cd786 O787 2.240 . S
Cd786 O794 2.223 . S
Cd786 O796 2.297 . S
Cd786 O797 2.439 . S
O787 Cd786 2.240 . S
O787 C792 1.279 . S
O788 Cd785 2.297 . S
O788 C790 1.247 . S
O789 Cd785 2.439 . S
O789 C790 1.208 . S
C790 O788 1.247 . S
C790 O789 1.208 . S
C791 O796 1.247 . S
C791 O797 1.208 . S
C792 O784 1.315 . S
C792 O787 1.279 . S
C793 O794 1.315 . S
C793 O795 1.279 . S
O794 Cd786 2.223 . S
O794 C793 1.315 . S
O795 Cd785 2.240 . S
O795 C793 1.279 . S
O796 Cd786 2.297 . S
O796 C791 1.247 . S
O797 Cd786 2.439 . S
O797 C791 1.208 . S
O798 Cd799 2.223 . S
O798 C806 1.315 . S
Cd799 O798 2.223 . S
Cd799 O802 2.297 . S
Cd799 O803 2.439 . S
Cd799 O809 2.240 . S
Cd800 O801 2.240 . S
Cd800 O808 2.223 . S
Cd800 O810 2.297 . S
Cd800 O811 2.439 . S
O801 Cd800 2.240 . S
O801 C806 1.279 . S
O802 Cd799 2.297 . S
O802 C804 1.247 . S
O803 Cd799 2.439 . S
O803 C804 1.208 . S
C804 O802 1.247 . S
C804 O803 1.208 . S
C805 O810 1.247 . S
C805 O811 1.208 . S
C806 O798 1.315 . S
C806 O801 1.279 . S
C807 O808 1.315 . S
C807 O809 1.279 . S
O808 Cd800 2.223 . S
O808 C807 1.315 . S
O809 Cd799 2.240 . S
O809 C807 1.279 . S
O810 Cd800 2.297 . S
O810 C805 1.247 . S
O811 Cd800 2.439 . S
O811 C805 1.208 . S
O812 Cd813 2.223 . S
O812 C820 1.315 . S
Cd813 O812 2.223 . S
Cd813 O816 2.297 . S
Cd813 O817 2.439 . S
Cd813 O823 2.240 . S
Cd814 O815 2.240 . S
Cd814 O822 2.223 . S
Cd814 O824 2.297 . S
Cd814 O825 2.439 . S
O815 Cd814 2.240 . S
O815 C820 1.279 . S
O816 Cd813 2.297 . S
O816 C818 1.247 . S
O817 Cd813 2.439 . S
O817 C818 1.208 . S
C818 O816 1.247 . S
C818 O817 1.208 . S
C819 O824 1.247 . S
C819 O825 1.208 . S
C820 O812 1.315 . S
C820 O815 1.279 . S
C821 O822 1.315 . S
C821 O823 1.279 . S
O822 Cd814 2.223 . S
O822 C821 1.315 . S
O823 Cd813 2.240 . S
O823 C821 1.279 . S
O824 Cd814 2.297 . S
O824 C819 1.247 . S
O825 Cd814 2.439 . S
O825 C819 1.208 . S
O826 Cd827 2.223 . S
O826 C834 1.315 . S
Cd827 O826 2.223 . S
Cd827 O830 2.297 . S
Cd827 O831 2.439 . S
Cd827 O837 2.240 . S
Cd828 O829 2.240 . S
Cd828 O836 2.223 . S
Cd828 O838 2.297 . S
Cd828 O839 2.439 . S
O829 Cd828 2.240 . S
O829 C834 1.279 . S
O830 Cd827 2.297 . S
O830 C832 1.247 . S
O831 Cd827 2.439 . S
O831 C832 1.208 . S
C832 O830 1.247 . S
C832 O831 1.208 . S
C833 O838 1.247 . S
C833 O839 1.208 . S
C834 O826 1.315 . S
C834 O829 1.279 . S
C835 O836 1.315 . S
C835 O837 1.279 . S
O836 Cd828 2.223 . S
O836 C835 1.315 . S
O837 Cd827 2.240 . S
O837 C835 1.279 . S
O838 Cd828 2.297 . S
O838 C833 1.247 . S
O839 Cd828 2.439 . S
O839 C833 1.208 . S
O840 Cd841 2.223 . S
O840 C848 1.315 . S
Cd841 O840 2.223 . S
Cd841 O844 2.297 . S
Cd841 O845 2.439 . S
Cd841 O851 2.240 . S
Cd842 O843 2.240 . S
Cd842 O850 2.223 . S
Cd842 O852 2.297 . S
Cd842 O853 2.439 . S
O843 Cd842 2.240 . S
O843 C848 1.279 . S
O844 Cd841 2.297 . S
O844 C846 1.247 . S
O845 Cd841 2.439 . S
O845 C846 1.208 . S
C846 O844 1.247 . S
C846 O845 1.208 . S
C847 O852 1.247 . S
C847 O853 1.208 . S
C848 O840 1.315 . S
C848 O843 1.279 . S
C849 O850 1.315 . S
C849 O851 1.279 . S
O850 Cd842 2.223 . S
O850 C849 1.315 . S
O851 Cd841 2.240 . S
O851 C849 1.279 . S
O852 Cd842 2.297 . S
O852 C847 1.247 . S
O853 Cd842 2.439 . S
O853 C847 1.208 . S
O854 Cd855 2.223 . S
O854 C862 1.315 . S
Cd855 O854 2.223 . S
Cd855 O858 2.297 . S
Cd855 O859 2.439 . S
Cd855 O865 2.240 . S
Cd856 O857 2.240 . S
Cd856 O864 2.223 . S
Cd856 O866 2.297 . S
Cd856 O867 2.439 . S
O857 Cd856 2.240 . S
O857 C862 1.279 . S
O858 Cd855 2.297 . S
O858 C860 1.247 . S
O859 Cd855 2.439 . S
O859 C860 1.208 . S
C860 O858 1.247 . S
C860 O859 1.208 . S
C861 O866 1.247 . S
C861 O867 1.208 . S
C862 O854 1.315 . S
C862 O857 1.279 . S
C863 O864 1.315 . S
C863 O865 1.279 . S
O864 Cd856 2.223 . S
O864 C863 1.315 . S
O865 Cd855 2.240 . S
O865 C863 1.279 . S
O866 Cd856 2.297 . S
O866 C861 1.247 . S
O867 Cd856 2.439 . S
O867 C861 1.208 . S
O868 Cd869 2.223 . S
O868 C876 1.315 . S
Cd869 O868 2.223 . S
Cd869 O872 2.297 . S
Cd869 O873 2.439 . S
Cd869 O879 2.240 . S
Cd870 O871 2.240 . S
Cd870 O878 2.223 . S
Cd870 O880 2.297 . S
Cd870 O881 2.439 . S
O871 Cd870 2.240 . S
O871 C876 1.279 . S
O872 Cd869 2.297 . S
O872 C874 1.247 . S
O873 Cd869 2.439 . S
O873 C874 1.208 . S
C874 O872 1.247 . S
C874 O873 1.208 . S
C875 O880 1.247 . S
C875 O881 1.208 . S
C876 O868 1.315 . S
C876 O871 1.279 . S
C877 O878 1.315 . S
C877 O879 1.279 . S
O878 Cd870 2.223 . S
O878 C877 1.315 . S
O879 Cd869 2.240 . S
O879 C877 1.279 . S
O880 Cd870 2.297 . S
O880 C875 1.247 . S
O881 Cd870 2.439 . S
O881 C875 1.208 . S
O882 Cd883 2.223 . S
O882 C890 1.315 . S
Cd883 O882 2.223 . S
Cd883 O886 2.297 . S
Cd883 O887 2.439 . S
Cd883 O893 2.240 . S
Cd884 O885 2.240 . S
Cd884 O892 2.223 . S
Cd884 O894 2.297 . S
Cd884 O895 2.439 . S
O885 Cd884 2.240 . S
O885 C890 1.279 . S
O886 Cd883 2.297 . S
O886 C888 1.247 . S
O887 Cd883 2.439 . S
O887 C888 1.208 . S
C888 O886 1.247 . S
C888 O887 1.208 . S
C889 O894 1.247 . S
C889 O895 1.208 . S
C890 O882 1.315 . S
C890 O885 1.279 . S
C891 O892 1.315 . S
C891 O893 1.279 . S
O892 Cd884 2.223 . S
O892 C891 1.315 . S
O893 Cd883 2.240 . S
O893 C891 1.279 . S
O894 Cd884 2.297 . S
O894 C889 1.247 . S
O895 Cd884 2.439 . S
O895 C889 1.208 . S
O896 Cd897 2.223 . S
O896 C904 1.315 . S
Cd897 O896 2.223 . S
Cd897 O900 2.297 . S
Cd897 O901 2.439 . S
Cd897 O907 2.240 . S
Cd898 O899 2.240 . S
Cd898 O906 2.223 . S
Cd898 O908 2.297 . S
Cd898 O909 2.439 . S
O899 Cd898 2.240 . S
O899 C904 1.279 . S
O900 Cd897 2.297 . S
O900 C902 1.247 . S
O901 Cd897 2.439 . S
O901 C902 1.208 . S
C902 O900 1.247 . S
C902 O901 1.208 . S
C903 O908 1.247 . S
C903 O909 1.208 . S
C904 O896 1.315 . S
C904 O899 1.279 . S
C905 O906 1.315 . S
C905 O907 1.279 . S
O906 Cd898 2.223 . S
O906 C905 1.315 . S
O907 Cd897 2.240 . S
O907 C905 1.279 . S
O908 Cd898 2.297 . S
O908 C903 1.247 . S
O909 Cd898 2.439 . S
O909 C903 1.208 . S
O910 Cd911 2.223 . S
O910 C918 1.315 . S
Cd911 O910 2.223 . S
Cd911 O914 2.297 . S
Cd911 O915 2.439 . S
Cd911 O921 2.240 . S
Cd912 O913 2.240 . S
Cd912 O920 2.223 . S
Cd912 O922 2.297 . S
Cd912 O923 2.439 . S
O913 Cd912 2.240 . S
O913 C918 1.279 . S
O914 Cd911 2.297 . S
O914 C916 1.247 . S
O915 Cd911 2.439 . S
O915 C916 1.208 . S
C916 O914 1.247 . S
C916 O915 1.208 . S
C917 O922 1.247 . S
C917 O923 1.208 . S
C918 O910 1.315 . S
C918 O913 1.279 . S
C919 O920 1.315 . S
C919 O921 1.279 . S
O920 Cd912 2.223 . S
O920 C919 1.315 . S
O921 Cd911 2.240 . S
O921 C919 1.279 . S
O922 Cd912 2.297 . S
O922 C917 1.247 . S
O923 Cd912 2.439 . S
O923 C917 1.208 . S
O924 Cd925 2.223 . S
O924 C932 1.315 . S
Cd925 O924 2.223 . S
Cd925 O928 2.297 . S
Cd925 O929 2.439 . S
Cd925 O935 2.240 . S
Cd926 O927 2.240 . S
Cd926 O934 2.223 . S
Cd926 O936 2.297 . S
Cd926 O937 2.439 . S
O927 Cd926 2.240 . S
O927 C932 1.279 . S
O928 Cd925 2.297 . S
O928 C930 1.247 . S
O929 Cd925 2.439 . S
O929 C930 1.208 . S
C930 O928 1.247 . S
C930 O929 1.208 . S
C931 O936 1.247 . S
C931 O937 1.208 . S
C932 O924 1.315 . S
C932 O927 1.279 . S
C933 O934 1.315 . S
C933 O935 1.279 . S
O934 Cd926 2.223 . S
O934 C933 1.315 . S
O935 Cd925 2.240 . S
O935 C933 1.279 . S
O936 Cd926 2.297 . S
O936 C931 1.247 . S
O937 Cd926 2.439 . S
O937 C931 1.208 . S
O938 Cd939 2.223 . S
O938 C946 1.315 . S
Cd939 O938 2.223 . S
Cd939 O942 2.297 . S
Cd939 O943 2.439 . S
Cd939 O949 2.240 . S
Cd940 O941 2.240 . S
Cd940 O948 2.223 . S
Cd940 O950 2.297 . S
Cd940 O951 2.439 . S
O941 Cd940 2.240 . S
O941 C946 1.279 . S
O942 Cd939 2.297 . S
O942 C944 1.247 . S
O943 Cd939 2.439 . S
O943 C944 1.208 . S
C944 O942 1.247 . S
C944 O943 1.208 . S
C945 O950 1.247 . S
C945 O951 1.208 . S
C946 O938 1.315 . S
C946 O941 1.279 . S
C947 O948 1.315 . S
C947 O949 1.279 . S
O948 Cd940 2.223 . S
O948 C947 1.315 . S
O949 Cd939 2.240 . S
O949 C947 1.279 . S
O950 Cd940 2.297 . S
O950 C945 1.247 . S
O951 Cd940 2.439 . S
O951 C945 1.208 . S
O952 Cd953 2.223 . S
O952 C960 1.315 . S
Cd953 O952 2.223 . S
Cd953 O956 2.297 . S
Cd953 O957 2.439 . S
Cd953 O963 2.240 . S
Cd954 O955 2.240 . S
Cd954 O962 2.223 . S
Cd954 O964 2.297 . S
Cd954 O965 2.439 . S
O955 Cd954 2.240 . S
O955 C960 1.279 . S
O956 Cd953 2.297 . S
O956 C958 1.247 . S
O957 Cd953 2.439 . S
O957 C958 1.208 . S
C958 O956 1.247 . S
C958 O957 1.208 . S
C959 O964 1.247 . S
C959 O965 1.208 . S
C960 O952 1.315 . S
C960 O955 1.279 . S
C961 O962 1.315 . S
C961 O963 1.279 . S
O962 Cd954 2.223 . S
O962 C961 1.315 . S
O963 Cd953 2.240 . S
O963 C961 1.279 . S
O964 Cd954 2.297 . S
O964 C959 1.247 . S
O965 Cd954 2.439 . S
O965 C959 1.208 . S
O966 Cd967 2.223 . S
O966 C974 1.315 . S
Cd967 O966 2.223 . S
Cd967 O970 2.297 . S
Cd967 O971 2.439 . S
Cd967 O977 2.240 . S
Cd968 O969 2.240 . S
Cd968 O976 2.223 . S
Cd968 O978 2.297 . S
Cd968 O979 2.439 . S
O969 Cd968 2.240 . S
O969 C974 1.279 . S
O970 Cd967 2.297 . S
O970 C972 1.247 . S
O971 Cd967 2.439 . S
O971 C972 1.208 . S
C972 O970 1.247 . S
C972 O971 1.208 . S
C973 O978 1.247 . S
C973 O979 1.208 . S
C974 O966 1.315 . S
C974 O969 1.279 . S
C975 O976 1.315 . S
C975 O977 1.279 . S
O976 Cd968 2.223 . S
O976 C975 1.315 . S
O977 Cd967 2.240 . S
O977 C975 1.279 . S
O978 Cd968 2.297 . S
O978 C973 1.247 . S
O979 Cd968 2.439 . S
O979 C973 1.208 . S
O980 Cd981 2.223 . S
O980 C988 1.315 . S
Cd981 O980 2.223 . S
Cd981 O984 2.297 . S
Cd981 O985 2.439 . S
Cd981 O991 2.240 . S
Cd982 O983 2.240 . S
Cd982 O990 2.223 . S
Cd982 O992 2.297 . S
Cd982 O993 2.439 . S
O983 Cd982 2.240 . S
O983 C988 1.279 . S
O984 Cd981 2.297 . S
O984 C986 1.247 . S
O985 Cd981 2.439 . S
O985 C986 1.208 . S
C986 O984 1.247 . S
C986 O985 1.208 . S
C987 O992 1.247 . S
C987 O993 1.208 . S
C988 O980 1.315 . S
C988 O983 1.279 . S
C989 O990 1.315 . S
C989 O991 1.279 . S
O990 Cd982 2.223 . S
O990 C989 1.315 . S
O991 Cd981 2.240 . S
O991 C989 1.279 . S
O992 Cd982 2.297 . S
O992 C987 1.247 . S
O993 Cd982 2.439 . S
O993 C987 1.208 . S
O994 Cd995 2.223 . S
O994 C1002 1.315 . S
Cd995 O994 2.223 . S
Cd995 O998 2.297 . S
Cd995 O999 2.439 . S
Cd995 O1005 2.240 . S
Cd996 O997 2.240 . S
Cd996 O1004 2.223 . S
Cd996 O1006 2.297 . S
Cd996 O1007 2.439 . S
O997 Cd996 2.240 . S
O997 C1002 1.279 . S
O998 Cd995 2.297 . S
O998 C1000 1.247 . S
O999 Cd995 2.439 . S
O999 C1000 1.208 . S
C1000 O998 1.247 . S
C1000 O999 1.208 . S
C1001 O1006 1.247 . S
C1001 O1007 1.208 . S
C1002 O994 1.315 . S
C1002 O997 1.279 . S
C1003 O1004 1.315 . S
C1003 O1005 1.279 . S
O1004 Cd996 2.223 . S
O1004 C1003 1.315 . S
O1005 Cd995 2.240 . S
O1005 C1003 1.279 . S
O1006 Cd996 2.297 . S
O1006 C1001 1.247 . S
O1007 Cd996 2.439 . S
O1007 C1001 1.208 . S
O1008 Cd1009 2.223 . S
O1008 C1016 1.315 . S
Cd1009 O1008 2.223 . S
Cd1009 O1012 2.297 . S
Cd1009 O1013 2.439 . S
Cd1009 O1019 2.240 . S
Cd1010 O1011 2.240 . S
Cd1010 O1018 2.223 . S
Cd1010 O1020 2.297 . S
Cd1010 O1021 2.439 . S
O1011 Cd1010 2.240 . S
O1011 C1016 1.279 . S
O1012 Cd1009 2.297 . S
O1012 C1014 1.247 . S
O1013 Cd1009 2.439 . S
O1013 C1014 1.208 . S
C1014 O1012 1.247 . S
C1014 O1013 1.208 . S
C1015 O1020 1.247 . S
C1015 O1021 1.208 . S
C1016 O1008 1.315 . S
C1016 O1011 1.279 . S
C1017 O1018 1.315 . S
C1017 O1019 1.279 . S
O1018 Cd1010 2.223 . S
O1018 C1017 1.315 . S
O1019 Cd1009 2.240 . S
O1019 C1017 1.279 . S
O1020 Cd1010 2.297 . S
O1020 C1015 1.247 . S
O1021 Cd1010 2.439 . S
O1021 C1015 1.208 . S
O1022 Cd1023 2.223 . S
O1022 C1030 1.315 . S
Cd1023 O1022 2.223 . S
Cd1023 O1026 2.297 . S
Cd1023 O1027 2.439 . S
Cd1023 O1033 2.240 . S
Cd1024 O1025 2.240 . S
Cd1024 O1032 2.223 . S
Cd1024 O1034 2.297 . S
Cd1024 O1035 2.439 . S
O1025 Cd1024 2.240 . S
O1025 C1030 1.279 . S
O1026 Cd1023 2.297 . S
O1026 C1028 1.247 . S
O1027 Cd1023 2.439 . S
O1027 C1028 1.208 . S
C1028 O1026 1.247 . S
C1028 O1027 1.208 . S
C1029 O1034 1.247 . S
C1029 O1035 1.208 . S
C1030 O1022 1.315 . S
C1030 O1025 1.279 . S
C1031 O1032 1.315 . S
C1031 O1033 1.279 . S
O1032 Cd1024 2.223 . S
O1032 C1031 1.315 . S
O1033 Cd1023 2.240 . S
O1033 C1031 1.279 . S
O1034 Cd1024 2.297 . S
O1034 C1029 1.247 . S
O1035 Cd1024 2.439 . S
O1035 C1029 1.208 . S
O1036 Cd1037 2.223 . S
O1036 C1044 1.315 . S
Cd1037 O1036 2.223 . S
Cd1037 O1040 2.297 . S
Cd1037 O1041 2.439 . S
Cd1037 O1047 2.240 . S
Cd1038 O1039 2.240 . S
Cd1038 O1046 2.223 . S
Cd1038 O1048 2.297 . S
Cd1038 O1049 2.439 . S
O1039 Cd1038 2.240 . S
O1039 C1044 1.279 . S
O1040 Cd1037 2.297 . S
O1040 C1042 1.247 . S
O1041 Cd1037 2.439 . S
O1041 C1042 1.208 . S
C1042 O1040 1.247 . S
C1042 O1041 1.208 . S
C1043 O1048 1.247 . S
C1043 O1049 1.208 . S
C1044 O1036 1.315 . S
C1044 O1039 1.279 . S
C1045 O1046 1.315 . S
C1045 O1047 1.279 . S
O1046 Cd1038 2.223 . S
O1046 C1045 1.315 . S
O1047 Cd1037 2.240 . S
O1047 C1045 1.279 . S
O1048 Cd1038 2.297 . S
O1048 C1043 1.247 . S
O1049 Cd1038 2.439 . S
O1049 C1043 1.208 . S
O1050 Cd1051 2.223 . S
O1050 C1058 1.315 . S
Cd1051 O1050 2.223 . S
Cd1051 O1054 2.297 . S
Cd1051 O1055 2.439 . S
Cd1051 O1061 2.240 . S
Cd1052 O1053 2.240 . S
Cd1052 O1060 2.223 . S
Cd1052 O1062 2.297 . S
Cd1052 O1063 2.439 . S
O1053 Cd1052 2.240 . S
O1053 C1058 1.279 . S
O1054 Cd1051 2.297 . S
O1054 C1056 1.247 . S
O1055 Cd1051 2.439 . S
O1055 C1056 1.208 . S
C1056 O1054 1.247 . S
C1056 O1055 1.208 . S
C1057 O1062 1.247 . S
C1057 O1063 1.208 . S
C1058 O1050 1.315 . S
C1058 O1053 1.279 . S
C1059 O1060 1.315 . S
C1059 O1061 1.279 . S
O1060 Cd1052 2.223 . S
O1060 C1059 1.315 . S
O1061 Cd1051 2.240 . S
O1061 C1059 1.279 . S
O1062 Cd1052 2.297 . S
O1062 C1057 1.247 . S
O1063 Cd1052 2.439 . S
O1063 C1057 1.208 . S
O1064 Cd1065 2.223 . S
O1064 C1072 1.315 . S
Cd1065 O1064 2.223 . S
Cd1065 O1068 2.297 . S
Cd1065 O1069 2.439 . S
Cd1065 O1075 2.240 . S
Cd1066 O1067 2.240 . S
Cd1066 O1074 2.223 . S
Cd1066 O1076 2.297 . S
Cd1066 O1077 2.439 . S
O1067 Cd1066 2.240 . S
O1067 C1072 1.279 . S
O1068 Cd1065 2.297 . S
O1068 C1070 1.247 . S
O1069 Cd1065 2.439 . S
O1069 C1070 1.208 . S
C1070 O1068 1.247 . S
C1070 O1069 1.208 . S
C1071 O1076 1.247 . S
C1071 O1077 1.208 . S
C1072 O1064 1.315 . S
C1072 O1067 1.279 . S
C1073 O1074 1.315 . S
C1073 O1075 1.279 . S
O1074 Cd1066 2.223 . S
O1074 C1073 1.315 . S
O1075 Cd1065 2.240 . S
O1075 C1073 1.279 . S
O1076 Cd1066 2.297 . S
O1076 C1071 1.247 . S
O1077 Cd1066 2.439 . S
O1077 C1071 1.208 . S
O1078 Cd1079 2.223 . S
O1078 C1086 1.315 . S
Cd1079 O1078 2.223 . S
Cd1079 O1082 2.297 . S
Cd1079 O1083 2.439 . S
Cd1079 O1089 2.240 . S
Cd1080 O1081 2.240 . S
Cd1080 O1088 2.223 . S
Cd1080 O1090 2.297 . S
Cd1080 O1091 2.439 . S
O1081 Cd1080 2.240 . S
O1081 C1086 1.279 . S
O1082 Cd1079 2.297 . S
O1082 C1084 1.247 . S
O1083 Cd1079 2.439 . S
O1083 C1084 1.208 . S
C1084 O1082 1.247 . S
C1084 O1083 1.208 . S
C1085 O1090 1.247 . S
C1085 O1091 1.208 . S
C1086 O1078 1.315 . S
C1086 O1081 1.279 . S
C1087 O1088 1.315 . S
C1087 O1089 1.279 . S
O1088 Cd1080 2.223 . S
O1088 C1087 1.315 . S
O1089 Cd1079 2.240 . S
O1089 C1087 1.279 . S
O1090 Cd1080 2.297 . S
O1090 C1085 1.247 . S
O1091 Cd1080 2.439 . S
O1091 C1085 1.208 . S
O1092 Cd1093 2.223 . S
O1092 C1100 1.315 . S
Cd1093 O1092 2.223 . S
Cd1093 O1096 2.297 . S
Cd1093 O1097 2.439 . S
Cd1093 O1103 2.240 . S
Cd1094 O1095 2.240 . S
Cd1094 O1102 2.223 . S
Cd1094 O1104 2.297 . S
Cd1094 O1105 2.439 . S
O1095 Cd1094 2.240 . S
O1095 C1100 1.279 . S
O1096 Cd1093 2.297 . S
O1096 C1098 1.247 . S
O1097 Cd1093 2.439 . S
O1097 C1098 1.208 . S
C1098 O1096 1.247 . S
C1098 O1097 1.208 . S
C1099 O1104 1.247 . S
C1099 O1105 1.208 . S
C1100 O1092 1.315 . S
C1100 O1095 1.279 . S
C1101 O1102 1.315 . S
C1101 O1103 1.279 . S
O1102 Cd1094 2.223 . S
O1102 C1101 1.315 . S
O1103 Cd1093 2.240 . S
O1103 C1101 1.279 . S
O1104 Cd1094 2.297 . S
O1104 C1099 1.247 . S
O1105 Cd1094 2.439 . S
O1105 C1099 1.208 . S
O1106 Cd1107 2.223 . S
O1106 C1114 1.315 . S
Cd1107 O1106 2.223 . S
Cd1107 O1110 2.297 . S
Cd1107 O1111 2.439 . S
Cd1107 O1117 2.240 . S
Cd1108 O1109 2.240 . S
Cd1108 O1116 2.223 . S
Cd1108 O1118 2.297 . S
Cd1108 O1119 2.439 . S
O1109 Cd1108 2.240 . S
O1109 C1114 1.279 . S
O1110 Cd1107 2.297 . S
O1110 C1112 1.247 . S
O1111 Cd1107 2.439 . S
O1111 C1112 1.208 . S
C1112 O1110 1.247 . S
C1112 O1111 1.208 . S
C1113 O1118 1.247 . S
C1113 O1119 1.208 . S
C1114 O1106 1.315 . S
C1114 O1109 1.279 . S
C1115 O1116 1.315 . S
C1115 O1117 1.279 . S
O1116 Cd1108 2.223 . S
O1116 C1115 1.315 . S
O1117 Cd1107 2.240 . S
O1117 C1115 1.279 . S
O1118 Cd1108 2.297 . S
O1118 C1113 1.247 . S
O1119 Cd1108 2.439 . S
O1119 C1113 1.208 . S
O1120 Cd1121 2.223 . S
O1120 C1128 1.315 . S
Cd1121 O1120 2.223 . S
Cd1121 O1124 2.297 . S
Cd1121 O1125 2.439 . S
Cd1121 O1131 2.240 . S
Cd1122 O1123 2.240 . S
Cd1122 O1130 2.223 . S
Cd1122 O1132 2.297 . S
Cd1122 O1133 2.439 . S
O1123 Cd1122 2.240 . S
O1123 C1128 1.279 . S
O1124 Cd1121 2.297 . S
O1124 C1126 1.247 . S
O1125 Cd1121 2.439 . S
O1125 C1126 1.208 . S
C1126 O1124 1.247 . S
C1126 O1125 1.208 . S
C1127 O1132 1.247 . S
C1127 O1133 1.208 . S
C1128 O1120 1.315 . S
C1128 O1123 1.279 . S
C1129 O1130 1.315 . S
C1129 O1131 1.279 . S
O1130 Cd1122 2.223 . S
O1130 C1129 1.315 . S
O1131 Cd1121 2.240 . S
O1131 C1129 1.279 . S
O1132 Cd1122 2.297 . S
O1132 C1127 1.247 . S
O1133 Cd1122 2.439 . S
O1133 C1127 1.208 . S
O1134 Cd1135 2.223 . S
O1134 C1142 1.315 . S
Cd1135 O1134 2.223 . S
Cd1135 O1138 2.297 . S
Cd1135 O1139 2.439 . S
Cd1135 O1145 2.240 . S
Cd1136 O1137 2.240 . S
Cd1136 O1144 2.223 . S
Cd1136 O1146 2.297 . S
Cd1136 O1147 2.439 . S
O1137 Cd1136 2.240 . S
O1137 C1142 1.279 . S
O1138 Cd1135 2.297 . S
O1138 C1140 1.247 . S
O1139 Cd1135 2.439 . S
O1139 C1140 1.208 . S
C1140 O1138 1.247 . S
C1140 O1139 1.208 . S
C1141 O1146 1.247 . S
C1141 O1147 1.208 . S
C1142 O1134 1.315 . S
C1142 O1137 1.279 . S
C1143 O1144 1.315 . S
C1143 O1145 1.279 . S
O1144 Cd1136 2.223 . S
O1144 C1143 1.315 . S
O1145 Cd1135 2.240 . S
O1145 C1143 1.279 . S
O1146 Cd1136 2.297 . S
O1146 C1141 1.247 . S
O1147 Cd1136 2.439 . S
O1147 C1141 1.208 . S
O1148 Cd1149 2.223 . S
O1148 C1156 1.315 . S
Cd1149 O1148 2.223 . S
Cd1149 O1152 2.297 . S
Cd1149 O1153 2.439 . S
Cd1149 O1159 2.240 . S
Cd1150 O1151 2.240 . S
Cd1150 O1158 2.223 . S
Cd1150 O1160 2.297 . S
Cd1150 O1161 2.439 . S
O1151 Cd1150 2.240 . S
O1151 C1156 1.279 . S
O1152 Cd1149 2.297 . S
O1152 C1154 1.247 . S
O1153 Cd1149 2.439 . S
O1153 C1154 1.208 . S
C1154 O1152 1.247 . S
C1154 O1153 1.208 . S
C1155 O1160 1.247 . S
C1155 O1161 1.208 . S
C1156 O1148 1.315 . S
C1156 O1151 1.279 . S
C1157 O1158 1.315 . S
C1157 O1159 1.279 . S
O1158 Cd1150 2.223 . S
O1158 C1157 1.315 . S
O1159 Cd1149 2.240 . S
O1159 C1157 1.279 . S
O1160 Cd1150 2.297 . S
O1160 C1155 1.247 . S
O1161 Cd1150 2.439 . S
O1161 C1155 1.208 . S
O1162 Cd1163 2.223 . S
O1162 C1170 1.315 . S
Cd1163 O1162 2.223 . S
Cd1163 O1166 2.297 . S
Cd1163 O1167 2.439 . S
Cd1163 O1173 2.240 . S
Cd1164 O1165 2.240 . S
Cd1164 O1172 2.223 . S
Cd1164 O1174 2.297 . S
Cd1164 O1175 2.439 . S
O1165 Cd1164 2.240 . S
O1165 C1170 1.279 . S
O1166 Cd1163 2.297 . S
O1166 C1168 1.247 . S
O1167 Cd1163 2.439 . S
O1167 C1168 1.208 . S
C1168 O1166 1.247 . S
C1168 O1167 1.208 . S
C1169 O1174 1.247 . S
C1169 O1175 1.208 . S
C1170 O1162 1.315 . S
C1170 O1165 1.279 . S
C1171 O1172 1.315 . S
C1171 O1173 1.279 . S
O1172 Cd1164 2.223 . S
O1172 C1171 1.315 . S
O1173 Cd1163 2.240 . S
O1173 C1171 1.279 . S
O1174 Cd1164 2.297 . S
O1174 C1169 1.247 . S
O1175 Cd1164 2.439 . S
O1175 C1169 1.208 . S
O1176 Cd1177 2.223 . S
O1176 C1184 1.315 . S
Cd1177 O1176 2.223 . S
Cd1177 O1180 2.297 . S
Cd1177 O1181 2.439 . S
Cd1177 O1187 2.240 . S
Cd1178 O1179 2.240 . S
Cd1178 O1186 2.223 . S
Cd1178 O1188 2.297 . S
Cd1178 O1189 2.439 . S
O1179 Cd1178 2.240 . S
O1179 C1184 1.279 . S
O1180 Cd1177 2.297 . S
O1180 C1182 1.247 . S
O1181 Cd1177 2.439 . S
O1181 C1182 1.208 . S
C1182 O1180 1.247 . S
C1182 O1181 1.208 . S
C1183 O1188 1.247 . S
C1183 O1189 1.208 . S
C1184 O1176 1.315 . S
C1184 O1179 1.279 . S
C1185 O1186 1.315 . S
C1185 O1187 1.279 . S
O1186 Cd1178 2.223 . S
O1186 C1185 1.315 . S
O1187 Cd1177 2.240 . S
O1187 C1185 1.279 . S
O1188 Cd1178 2.297 . S
O1188 C1183 1.247 . S
O1189 Cd1178 2.439 . S
O1189 C1183 1.208 . S
O1190 Cd1191 2.223 . S
O1190 C1198 1.315 . S
Cd1191 O1190 2.223 . S
Cd1191 O1194 2.297 . S
Cd1191 O1195 2.439 . S
Cd1191 O1201 2.240 . S
Cd1192 O1193 2.240 . S
Cd1192 O1200 2.223 . S
Cd1192 O1202 2.297 . S
Cd1192 O1203 2.439 . S
O1193 Cd1192 2.240 . S
O1193 C1198 1.279 . S
O1194 Cd1191 2.297 . S
O1194 C1196 1.247 . S
O1195 Cd1191 2.439 . S
O1195 C1196 1.208 . S
C1196 O1194 1.247 . S
C1196 O1195 1.208 . S
C1197 O1202 1.247 . S
C1197 O1203 1.208 . S
C1198 O1190 1.315 . S
C1198 O1193 1.279 . S
C1199 O1200 1.315 . S
C1199 O1201 1.279 . S
O1200 Cd1192 2.223 . S
O1200 C1199 1.315 . S
O1201 Cd1191 2.240 . S
O1201 C1199 1.279 . S
O1202 Cd1192 2.297 . S
O1202 C1197 1.247 . S
O1203 Cd1192 2.439 . S
O1203 C1197 1.208 . S
O1204 Cd1205 2.223 . S
O1204 C1212 1.315 . S
Cd1205 O1204 2.223 . S
Cd1205 O1208 2.297 . S
Cd1205 O1209 2.439 . S
Cd1205 O1215 2.240 . S
Cd1206 O1207 2.240 . S
Cd1206 O1214 2.223 . S
Cd1206 O1216 2.297 . S
Cd1206 O1217 2.439 . S
O1207 Cd1206 2.240 . S
O1207 C1212 1.279 . S
O1208 Cd1205 2.297 . S
O1208 C1210 1.247 . S
O1209 Cd1205 2.439 . S
O1209 C1210 1.208 . S
C1210 O1208 1.247 . S
C1210 O1209 1.208 . S
C1211 O1216 1.247 . S
C1211 O1217 1.208 . S
C1212 O1204 1.315 . S
C1212 O1207 1.279 . S
C1213 O1214 1.315 . S
C1213 O1215 1.279 . S
O1214 Cd1206 2.223 . S
O1214 C1213 1.315 . S
O1215 Cd1205 2.240 . S
O1215 C1213 1.279 . S
O1216 Cd1206 2.297 . S
O1216 C1211 1.247 . S
O1217 Cd1206 2.439 . S
O1217 C1211 1.208 . S
O1218 Cd1219 2.223 . S
O1218 C1226 1.315 . S
Cd1219 O1218 2.223 . S
Cd1219 O1222 2.297 . S
Cd1219 O1223 2.439 . S
Cd1219 O1229 2.240 . S
Cd1220 O1221 2.240 . S
Cd1220 O1228 2.223 . S
Cd1220 O1230 2.297 . S
Cd1220 O1231 2.439 . S
O1221 Cd1220 2.240 . S
O1221 C1226 1.279 . S
O1222 Cd1219 2.297 . S
O1222 C1224 1.247 . S
O1223 Cd1219 2.439 . S
O1223 C1224 1.208 . S
C1224 O1222 1.247 . S
C1224 O1223 1.208 . S
C1225 O1230 1.247 . S
C1225 O1231 1.208 . S
C1226 O1218 1.315 . S
C1226 O1221 1.279 . S
C1227 O1228 1.315 . S
C1227 O1229 1.279 . S
O1228 Cd1220 2.223 . S
O1228 C1227 1.315 . S
O1229 Cd1219 2.240 . S
O1229 C1227 1.279 . S
O1230 Cd1220 2.297 . S
O1230 C1225 1.247 . S
O1231 Cd1220 2.439 . S
O1231 C1225 1.208 . S
O1232 Cd1233 2.223 . S
O1232 C1240 1.315 . S
Cd1233 O1232 2.223 . S
Cd1233 O1236 2.297 . S
Cd1233 O1237 2.439 . S
Cd1233 O1243 2.240 . S
Cd1234 O1235 2.240 . S
Cd1234 O1242 2.223 . S
Cd1234 O1244 2.297 . S
Cd1234 O1245 2.439 . S
O1235 Cd1234 2.240 . S
O1235 C1240 1.279 . S
O1236 Cd1233 2.297 . S
O1236 C1238 1.247 . S
O1237 Cd1233 2.439 . S
O1237 C1238 1.208 . S
C1238 O1236 1.247 . S
C1238 O1237 1.208 . S
C1239 O1244 1.247 . S
C1239 O1245 1.208 . S
C1240 O1232 1.315 . S
C1240 O1235 1.279 . S
C1241 O1242 1.315 . S
C1241 O1243 1.279 . S
O1242 Cd1234 2.223 . S
O1242 C1241 1.315 . S
O1243 Cd1233 2.240 . S
O1243 C1241 1.279 . S
O1244 Cd1234 2.297 . S
O1244 C1239 1.247 . S
O1245 Cd1234 2.439 . S
O1245 C1239 1.208 . S
O1246 Cd1247 2.223 . S
O1246 C1254 1.315 . S
Cd1247 O1246 2.223 . S
Cd1247 O1250 2.297 . S
Cd1247 O1251 2.439 . S
Cd1247 O1257 2.240 . S
Cd1248 O1249 2.240 . S
Cd1248 O1256 2.223 . S
Cd1248 O1258 2.297 . S
Cd1248 O1259 2.439 . S
O1249 Cd1248 2.240 . S
O1249 C1254 1.279 . S
O1250 Cd1247 2.297 . S
O1250 C1252 1.247 . S
O1251 Cd1247 2.439 . S
O1251 C1252 1.208 . S
C1252 O1250 1.247 . S
C1252 O1251 1.208 . S
C1253 O1258 1.247 . S
C1253 O1259 1.208 . S
C1254 O1246 1.315 . S
C1254 O1249 1.279 . S
C1255 O1256 1.315 . S
C1255 O1257 1.279 . S
O1256 Cd1248 2.223 . S
O1256 C1255 1.315 . S
O1257 Cd1247 2.240 . S
O1257 C1255 1.279 . S
O1258 Cd1248 2.297 . S
O1258 C1253 1.247 . S
O1259 Cd1248 2.439 . S
O1259 C1253 1.208 . S
O1260 Cd1261 2.223 . S
O1260 C1268 1.315 . S
Cd1261 O1260 2.223 . S
Cd1261 O1264 2.297 . S
Cd1261 O1265 2.439 . S
Cd1261 O1271 2.240 . S
Cd1262 O1263 2.240 . S
Cd1262 O1270 2.223 . S
Cd1262 O1272 2.297 . S
Cd1262 O1273 2.439 . S
O1263 Cd1262 2.240 . S
O1263 C1268 1.279 . S
O1264 Cd1261 2.297 . S
O1264 C1266 1.247 . S
O1265 Cd1261 2.439 . S
O1265 C1266 1.208 . S
C1266 O1264 1.247 . S
C1266 O1265 1.208 . S
C1267 O1272 1.247 . S
C1267 O1273 1.208 . S
C1268 O1260 1.315 . S
C1268 O1263 1.279 . S
C1269 O1270 1.315 . S
C1269 O1271 1.279 . S
O1270 Cd1262 2.223 . S
O1270 C1269 1.315 . S
O1271 Cd1261 2.240 . S
O1271 C1269 1.279 . S
O1272 Cd1262 2.297 . S
O1272 C1267 1.247 . S
O1273 Cd1262 2.439 . S
O1273 C1267 1.208 . S
O1274 Cd1275 2.223 . S
O1274 C1282 1.315 . S
Cd1275 O1274 2.223 . S
Cd1275 O1278 2.297 . S
Cd1275 O1279 2.439 . S
Cd1275 O1285 2.240 . S
Cd1276 O1277 2.240 . S
Cd1276 O1284 2.223 . S
Cd1276 O1286 2.297 . S
Cd1276 O1287 2.439 . S
O1277 Cd1276 2.240 . S
O1277 C1282 1.279 . S
O1278 Cd1275 2.297 . S
O1278 C1280 1.247 . S
O1279 Cd1275 2.439 . S
O1279 C1280 1.208 . S
C1280 O1278 1.247 . S
C1280 O1279 1.208 . S
C1281 O1286 1.247 . S
C1281 O1287 1.208 . S
C1282 O1274 1.315 . S
C1282 O1277 1.279 . S
C1283 O1284 1.315 . S
C1283 O1285 1.279 . S
O1284 Cd1276 2.223 . S
O1284 C1283 1.315 . S
O1285 Cd1275 2.240 . S
O1285 C1283 1.279 . S
O1286 Cd1276 2.297 . S
O1286 C1281 1.247 . S
O1287 Cd1276 2.439 . S
O1287 C1281 1.208 . S
O1288 Cd1289 2.223 . S
O1288 C1296 1.315 . S
Cd1289 O1288 2.223 . S
Cd1289 O1292 2.297 . S
Cd1289 O1293 2.439 . S
Cd1289 O1299 2.240 . S
Cd1290 O1291 2.240 . S
Cd1290 O1298 2.223 . S
Cd1290 O1300 2.297 . S
Cd1290 O1301 2.439 . S
O1291 Cd1290 2.240 . S
O1291 C1296 1.279 . S
O1292 Cd1289 2.297 . S
O1292 C1294 1.247 . S
O1293 Cd1289 2.439 . S
O1293 C1294 1.208 . S
C1294 O1292 1.247 . S
C1294 O1293 1.208 . S
C1295 O1300 1.247 . S
C1295 O1301 1.208 . S
C1296 O1288 1.315 . S
C1296 O1291 1.279 . S
C1297 O1298 1.315 . S
C1297 O1299 1.279 . S
O1298 Cd1290 2.223 . S
O1298 C1297 1.315 . S
O1299 Cd1289 2.240 . S
O1299 C1297 1.279 . S
O1300 Cd1290 2.297 . S
O1300 C1295 1.247 . S
O1301 Cd1290 2.439 . S
O1301 C1295 1.208 . S
O1302 Cd1303 2.223 . S
O1302 C1310 1.315 . S
Cd1303 O1302 2.223 . S
Cd1303 O1306 2.297 . S
Cd1303 O1307 2.439 . S
Cd1303 O1313 2.240 . S
Cd1304 O1305 2.240 . S
Cd1304 O1312 2.223 . S
Cd1304 O1314 2.297 . S
Cd1304 O1315 2.439 . S
O1305 Cd1304 2.240 . S
O1305 C1310 1.279 . S
O1306 Cd1303 2.297 . S
O1306 C1308 1.247 . S
O1307 Cd1303 2.439 . S
O1307 C1308 1.208 . S
C1308 O1306 1.247 . S
C1308 O1307 1.208 . S
C1309 O1314 1.247 . S
C1309 O1315 1.208 . S
C1310 O1302 1.315 . S
C1310 O1305 1.279 . S
C1311 O1312 1.315 . S
C1311 O1313 1.279 . S
O1312 Cd1304 2.223 . S
O1312 C1311 1.315 . S
O1313 Cd1303 2.240 . S
O1313 C1311 1.279 . S
O1314 Cd1304 2.297 . S
O1314 C1309 1.247 . S
O1315 Cd1304 2.439 . S
O1315 C1309 1.208 . S
O1316 Cd1317 2.223 . S
O1316 C1324 1.315 . S
Cd1317 O1316 2.223 . S
Cd1317 O1320 2.297 . S
Cd1317 O1321 2.439 . S
Cd1317 O1327 2.240 . S
Cd1318 O1319 2.240 . S
Cd1318 O1326 2.223 . S
Cd1318 O1328 2.297 . S
Cd1318 O1329 2.439 . S
O1319 Cd1318 2.240 . S
O1319 C1324 1.279 . S
O1320 Cd1317 2.297 . S
O1320 C1322 1.247 . S
O1321 Cd1317 2.439 . S
O1321 C1322 1.208 . S
C1322 O1320 1.247 . S
C1322 O1321 1.208 . S
C1323 O1328 1.247 . S
C1323 O1329 1.208 . S
C1324 O1316 1.315 . S
C1324 O1319 1.279 . S
C1325 O1326 1.315 . S
C1325 O1327 1.279 . S
O1326 Cd1318 2.223 . S
O1326 C1325 1.315 . S
O1327 Cd1317 2.240 . S
O1327 C1325 1.279 . S
O1328 Cd1318 2.297 . S
O1328 C1323 1.247 . S
O1329 Cd1318 2.439 . S
O1329 C1323 1.208 . S
O1330 Cd1331 2.223 . S
O1330 C1338 1.315 . S
Cd1331 O1330 2.223 . S
Cd1331 O1334 2.297 . S
Cd1331 O1335 2.439 . S
Cd1331 O1341 2.240 . S
Cd1332 O1333 2.240 . S
Cd1332 O1340 2.223 . S
Cd1332 O1342 2.297 . S
Cd1332 O1343 2.439 . S
O1333 Cd1332 2.240 . S
O1333 C1338 1.279 . S
O1334 Cd1331 2.297 . S
O1334 C1336 1.247 . S
O1335 Cd1331 2.439 . S
O1335 C1336 1.208 . S
C1336 O1334 1.247 . S
C1336 O1335 1.208 . S
C1337 O1342 1.247 . S
C1337 O1343 1.208 . S
C1338 O1330 1.315 . S
C1338 O1333 1.279 . S
C1339 O1340 1.315 . S
C1339 O1341 1.279 . S
O1340 Cd1332 2.223 . S
O1340 C1339 1.315 . S
O1341 Cd1331 2.240 . S
O1341 C1339 1.279 . S
O1342 Cd1332 2.297 . S
O1342 C1337 1.247 . S
O1343 Cd1332 2.439 . S
O1343 C1337 1.208 . S
H1344 C1352 0.950 . S
H1345 C1357 0.950 . S
H1346 C1354 0.950 . S
H1347 C1356 0.950 . S
H1348 C1358 0.950 . S
H1349 C1360 0.950 . S
H1350 C1362 0.950 . S
H1351 C1363 0.950 . S
C1352 H1344 0.950 . S
C1352 C1353 1.386 . S
C1352 C1354 1.391 . S
C1353 C1352 1.386 . S
C1353 C1357 1.393 . S
C1354 H1346 0.950 . S
C1354 C1352 1.391 . S
C1354 C1355 1.400 . S
C1355 C1354 1.400 . S
C1355 C1356 1.398 . S
C1355 C1361 1.491 . S
C1356 H1347 0.950 . S
C1356 C1355 1.398 . S
C1356 C1357 1.391 . S
C1357 H1345 0.950 . S
C1357 C1353 1.393 . S
C1357 C1356 1.391 . S
C1358 H1348 0.950 . S
C1358 C1359 1.386 . S
C1358 C1360 1.391 . S
C1359 C1358 1.386 . S
C1359 C1363 1.393 . S
C1360 H1349 0.950 . S
C1360 C1358 1.391 . S
C1360 C1361 1.400 . S
C1361 C1355 1.491 . S
C1361 C1360 1.400 . S
C1361 C1362 1.398 . S
C1362 H1350 0.950 . S
C1362 C1361 1.398 . S
C1362 C1363 1.391 . S
C1363 H1351 0.950 . S
C1363 C1359 1.393 . S
C1363 C1362 1.391 . S
H1364 C1372 0.950 . S
H1365 C1377 0.950 . S
H1366 C1374 0.950 . S
H1367 C1376 0.950 . S
H1368 C1378 0.950 . S
H1369 C1380 0.950 . S
H1370 C1382 0.950 . S
H1371 C1383 0.950 . S
C1372 H1364 0.950 . S
C1372 C1373 1.386 . S
C1372 C1374 1.391 . S
C1373 C1372 1.386 . S
C1373 C1377 1.393 . S
C1374 H1366 0.950 . S
C1374 C1372 1.391 . S
C1374 C1375 1.400 . S
C1375 C1374 1.400 . S
C1375 C1376 1.398 . S
C1375 C1381 1.491 . S
C1376 H1367 0.950 . S
C1376 C1375 1.398 . S
C1376 C1377 1.391 . S
C1377 H1365 0.950 . S
C1377 C1373 1.393 . S
C1377 C1376 1.391 . S
C1378 H1368 0.950 . S
C1378 C1379 1.386 . S
C1378 C1380 1.391 . S
C1379 C1378 1.386 . S
C1379 C1383 1.393 . S
C1380 H1369 0.950 . S
C1380 C1378 1.391 . S
C1380 C1381 1.400 . S
C1381 C1375 1.491 . S
C1381 C1380 1.400 . S
C1381 C1382 1.398 . S
C1382 H1370 0.950 . S
C1382 C1381 1.398 . S
C1382 C1383 1.391 . S
C1383 H1371 0.950 . S
C1383 C1379 1.393 . S
C1383 C1382 1.391 . S
H1384 C1392 0.950 . S
H1385 C1397 0.950 . S
H1386 C1394 0.950 . S
H1387 C1396 0.950 . S
H1388 C1398 0.950 . S
H1389 C1400 0.950 . S
H1390 C1402 0.950 . S
H1391 C1403 0.950 . S
C1392 H1384 0.950 . S
C1392 C1393 1.386 . S
C1392 C1394 1.391 . S
C1393 C1392 1.386 . S
C1393 C1397 1.393 . S
C1394 H1386 0.950 . S
C1394 C1392 1.391 . S
C1394 C1395 1.400 . S
C1395 C1394 1.400 . S
C1395 C1396 1.398 . S
C1395 C1401 1.491 . S
C1396 H1387 0.950 . S
C1396 C1395 1.398 . S
C1396 C1397 1.391 . S
C1397 H1385 0.950 . S
C1397 C1393 1.393 . S
C1397 C1396 1.391 . S
C1398 H1388 0.950 . S
C1398 C1399 1.386 . S
C1398 C1400 1.391 . S
C1399 C1398 1.386 . S
C1399 C1403 1.393 . S
C1400 H1389 0.950 . S
C1400 C1398 1.391 . S
C1400 C1401 1.400 . S
C1401 C1395 1.491 . S
C1401 C1400 1.400 . S
C1401 C1402 1.398 . S
C1402 H1390 0.950 . S
C1402 C1401 1.398 . S
C1402 C1403 1.391 . S
C1403 H1391 0.950 . S
C1403 C1399 1.393 . S
C1403 C1402 1.391 . S
H1404 C1412 0.950 . S
H1405 C1417 0.950 . S
H1406 C1414 0.950 . S
H1407 C1416 0.950 . S
H1408 C1418 0.950 . S
H1409 C1420 0.950 . S
H1410 C1422 0.950 . S
H1411 C1423 0.950 . S
C1412 H1404 0.950 . S
C1412 C1413 1.386 . S
C1412 C1414 1.391 . S
C1413 C1412 1.386 . S
C1413 C1417 1.393 . S
C1414 H1406 0.950 . S
C1414 C1412 1.391 . S
C1414 C1415 1.400 . S
C1415 C1414 1.400 . S
C1415 C1416 1.398 . S
C1415 C1421 1.491 . S
C1416 H1407 0.950 . S
C1416 C1415 1.398 . S
C1416 C1417 1.391 . S
C1417 H1405 0.950 . S
C1417 C1413 1.393 . S
C1417 C1416 1.391 . S
C1418 H1408 0.950 . S
C1418 C1419 1.386 . S
C1418 C1420 1.391 . S
C1419 C1418 1.386 . S
C1419 C1423 1.393 . S
C1420 H1409 0.950 . S
C1420 C1418 1.391 . S
C1420 C1421 1.400 . S
C1421 C1415 1.491 . S
C1421 C1420 1.400 . S
C1421 C1422 1.398 . S
C1422 H1410 0.950 . S
C1422 C1421 1.398 . S
C1422 C1423 1.391 . S
C1423 H1411 0.950 . S
C1423 C1419 1.393 . S
C1423 C1422 1.391 . S
H1424 C1432 0.950 . S
H1425 C1437 0.950 . S
H1426 C1434 0.950 . S
H1427 C1436 0.950 . S
H1428 C1438 0.950 . S
H1429 C1440 0.950 . S
H1430 C1442 0.950 . S
H1431 C1443 0.950 . S
C1432 H1424 0.950 . S
C1432 C1433 1.386 . S
C1432 C1434 1.391 . S
C1433 C1432 1.386 . S
C1433 C1437 1.393 . S
C1434 H1426 0.950 . S
C1434 C1432 1.391 . S
C1434 C1435 1.400 . S
C1435 C1434 1.400 . S
C1435 C1436 1.398 . S
C1435 C1441 1.491 . S
C1436 H1427 0.950 . S
C1436 C1435 1.398 . S
C1436 C1437 1.391 . S
C1437 H1425 0.950 . S
C1437 C1433 1.393 . S
C1437 C1436 1.391 . S
C1438 H1428 0.950 . S
C1438 C1439 1.386 . S
C1438 C1440 1.391 . S
C1439 C1438 1.386 . S
C1439 C1443 1.393 . S
C1440 H1429 0.950 . S
C1440 C1438 1.391 . S
C1440 C1441 1.400 . S
C1441 C1435 1.491 . S
C1441 C1440 1.400 . S
C1441 C1442 1.398 . S
C1442 H1430 0.950 . S
C1442 C1441 1.398 . S
C1442 C1443 1.391 . S
C1443 H1431 0.950 . S
C1443 C1439 1.393 . S
C1443 C1442 1.391 . S
H1444 C1452 0.950 . S
H1445 C1457 0.950 . S
H1446 C1454 0.950 . S
H1447 C1456 0.950 . S
H1448 C1458 0.950 . S
H1449 C1460 0.950 . S
H1450 C1462 0.950 . S
H1451 C1463 0.950 . S
C1452 H1444 0.950 . S
C1452 C1453 1.386 . S
C1452 C1454 1.391 . S
C1453 C1452 1.386 . S
C1453 C1457 1.393 . S
C1454 H1446 0.950 . S
C1454 C1452 1.391 . S
C1454 C1455 1.400 . S
C1455 C1454 1.400 . S
C1455 C1456 1.398 . S
C1455 C1461 1.491 . S
C1456 H1447 0.950 . S
C1456 C1455 1.398 . S
C1456 C1457 1.391 . S
C1457 H1445 0.950 . S
C1457 C1453 1.393 . S
C1457 C1456 1.391 . S
C1458 H1448 0.950 . S
C1458 C1459 1.386 . S
C1458 C1460 1.391 . S
C1459 C1458 1.386 . S
C1459 C1463 1.393 . S
C1460 H1449 0.950 . S
C1460 C1458 1.391 . S
C1460 C1461 1.400 . S
C1461 C1455 1.491 . S
C1461 C1460 1.400 . S
C1461 C1462 1.398 . S
C1462 H1450 0.950 . S
C1462 C1461 1.398 . S
C1462 C1463 1.391 . S
C1463 H1451 0.950 . S
C1463 C1459 1.393 . S
C1463 C1462 1.391 . S
H1464 C1472 0.950 . S
H1465 C1477 0.950 . S
H1466 C1474 0.950 . S
H1467 C1476 0.950 . S
H1468 C1478 0.950 . S
H1469 C1480 0.950 . S
H1470 C1482 0.950 . S
H1471 C1483 0.950 . S
C1472 H1464 0.950 . S
C1472 C1473 1.386 . S
C1472 C1474 1.391 . S
C1473 C1472 1.386 . S
C1473 C1477 1.393 . S
C1474 H1466 0.950 . S
C1474 C1472 1.391 . S
C1474 C1475 1.400 . S
C1475 C1474 1.400 . S
C1475 C1476 1.398 . S
C1475 C1481 1.491 . S
C1476 H1467 0.950 . S
C1476 C1475 1.398 . S
C1476 C1477 1.391 . S
C1477 H1465 0.950 . S
C1477 C1473 1.393 . S
C1477 C1476 1.391 . S
C1478 H1468 0.950 . S
C1478 C1479 1.386 . S
C1478 C1480 1.391 . S
C1479 C1478 1.386 . S
C1479 C1483 1.393 . S
C1480 H1469 0.950 . S
C1480 C1478 1.391 . S
C1480 C1481 1.400 . S
C1481 C1475 1.491 . S
C1481 C1480 1.400 . S
C1481 C1482 1.398 . S
C1482 H1470 0.950 . S
C1482 C1481 1.398 . S
C1482 C1483 1.391 . S
C1483 H1471 0.950 . S
C1483 C1479 1.393 . S
C1483 C1482 1.391 . S
H1484 C1492 0.950 . S
H1485 C1497 0.950 . S
H1486 C1494 0.950 . S
H1487 C1496 0.950 . S
H1488 C1498 0.950 . S
H1489 C1500 0.950 . S
H1490 C1502 0.950 . S
H1491 C1503 0.950 . S
C1492 H1484 0.950 . S
C1492 C1493 1.386 . S
C1492 C1494 1.391 . S
C1493 C1492 1.386 . S
C1493 C1497 1.393 . S
C1494 H1486 0.950 . S
C1494 C1492 1.391 . S
C1494 C1495 1.400 . S
C1495 C1494 1.400 . S
C1495 C1496 1.398 . S
C1495 C1501 1.491 . S
C1496 H1487 0.950 . S
C1496 C1495 1.398 . S
C1496 C1497 1.391 . S
C1497 H1485 0.950 . S
C1497 C1493 1.393 . S
C1497 C1496 1.391 . S
C1498 H1488 0.950 . S
C1498 C1499 1.386 . S
C1498 C1500 1.391 . S
C1499 C1498 1.386 . S
C1499 C1503 1.393 . S
C1500 H1489 0.950 . S
C1500 C1498 1.391 . S
C1500 C1501 1.400 . S
C1501 C1495 1.491 . S
C1501 C1500 1.400 . S
C1501 C1502 1.398 . S
C1502 H1490 0.950 . S
C1502 C1501 1.398 . S
C1502 C1503 1.391 . S
C1503 H1491 0.950 . S
C1503 C1499 1.393 . S
C1503 C1502 1.391 . S
H1504 C1512 0.950 . S
H1505 C1517 0.950 . S
H1506 C1514 0.950 . S
H1507 C1516 0.950 . S
H1508 C1518 0.950 . S
H1509 C1520 0.950 . S
H1510 C1522 0.950 . S
H1511 C1523 0.950 . S
C1512 H1504 0.950 . S
C1512 C1513 1.386 . S
C1512 C1514 1.391 . S
C1513 C1512 1.386 . S
C1513 C1517 1.393 . S
C1514 H1506 0.950 . S
C1514 C1512 1.391 . S
C1514 C1515 1.400 . S
C1515 C1514 1.400 . S
C1515 C1516 1.398 . S
C1515 C1521 1.491 . S
C1516 H1507 0.950 . S
C1516 C1515 1.398 . S
C1516 C1517 1.391 . S
C1517 H1505 0.950 . S
C1517 C1513 1.393 . S
C1517 C1516 1.391 . S
C1518 H1508 0.950 . S
C1518 C1519 1.386 . S
C1518 C1520 1.391 . S
C1519 C1518 1.386 . S
C1519 C1523 1.393 . S
C1520 H1509 0.950 . S
C1520 C1518 1.391 . S
C1520 C1521 1.400 . S
C1521 C1515 1.491 . S
C1521 C1520 1.400 . S
C1521 C1522 1.398 . S
C1522 H1510 0.950 . S
C1522 C1521 1.398 . S
C1522 C1523 1.391 . S
C1523 H1511 0.950 . S
C1523 C1519 1.393 . S
C1523 C1522 1.391 . S
H1524 C1532 0.950 . S
H1525 C1537 0.950 . S
H1526 C1534 0.950 . S
H1527 C1536 0.950 . S
H1528 C1538 0.950 . S
H1529 C1540 0.950 . S
H1530 C1542 0.950 . S
H1531 C1543 0.950 . S
C1532 H1524 0.950 . S
C1532 C1533 1.386 . S
C1532 C1534 1.391 . S
C1533 C1532 1.386 . S
C1533 C1537 1.393 . S
C1534 H1526 0.950 . S
C1534 C1532 1.391 . S
C1534 C1535 1.400 . S
C1535 C1534 1.400 . S
C1535 C1536 1.398 . S
C1535 C1541 1.491 . S
C1536 H1527 0.950 . S
C1536 C1535 1.398 . S
C1536 C1537 1.391 . S
C1537 H1525 0.950 . S
C1537 C1533 1.393 . S
C1537 C1536 1.391 . S
C1538 H1528 0.950 . S
C1538 C1539 1.386 . S
C1538 C1540 1.391 . S
C1539 C1538 1.386 . S
C1539 C1543 1.393 . S
C1540 H1529 0.950 . S
C1540 C1538 1.391 . S
C1540 C1541 1.400 . S
C1541 C1535 1.491 . S
C1541 C1540 1.400 . S
C1541 C1542 1.398 . S
C1542 H1530 0.950 . S
C1542 C1541 1.398 . S
C1542 C1543 1.391 . S
C1543 H1531 0.950 . S
C1543 C1539 1.393 . S
C1543 C1542 1.391 . S
H1544 C1552 0.950 . S
H1545 C1557 0.950 . S
H1546 C1554 0.950 . S
H1547 C1556 0.950 . S
H1548 C1558 0.950 . S
H1549 C1560 0.950 . S
H1550 C1562 0.950 . S
H1551 C1563 0.950 . S
C1552 H1544 0.950 . S
C1552 C1553 1.386 . S
C1552 C1554 1.391 . S
C1553 C1552 1.386 . S
C1553 C1557 1.393 . S
C1554 H1546 0.950 . S
C1554 C1552 1.391 . S
C1554 C1555 1.400 . S
C1555 C1554 1.400 . S
C1555 C1556 1.398 . S
C1555 C1561 1.491 . S
C1556 H1547 0.950 . S
C1556 C1555 1.398 . S
C1556 C1557 1.391 . S
C1557 H1545 0.950 . S
C1557 C1553 1.393 . S
C1557 C1556 1.391 . S
C1558 H1548 0.950 . S
C1558 C1559 1.386 . S
C1558 C1560 1.391 . S
C1559 C1558 1.386 . S
C1559 C1563 1.393 . S
C1560 H1549 0.950 . S
C1560 C1558 1.391 . S
C1560 C1561 1.400 . S
C1561 C1555 1.491 . S
C1561 C1560 1.400 . S
C1561 C1562 1.398 . S
C1562 H1550 0.950 . S
C1562 C1561 1.398 . S
C1562 C1563 1.391 . S
C1563 H1551 0.950 . S
C1563 C1559 1.393 . S
C1563 C1562 1.391 . S
H1564 C1572 0.950 . S
H1565 C1577 0.950 . S
H1566 C1574 0.950 . S
H1567 C1576 0.950 . S
H1568 C1578 0.950 . S
H1569 C1580 0.950 . S
H1570 C1582 0.950 . S
H1571 C1583 0.950 . S
C1572 H1564 0.950 . S
C1572 C1573 1.386 . S
C1572 C1574 1.391 . S
C1573 C1572 1.386 . S
C1573 C1577 1.393 . S
C1574 H1566 0.950 . S
C1574 C1572 1.391 . S
C1574 C1575 1.400 . S
C1575 C1574 1.400 . S
C1575 C1576 1.398 . S
C1575 C1581 1.491 . S
C1576 H1567 0.950 . S
C1576 C1575 1.398 . S
C1576 C1577 1.391 . S
C1577 H1565 0.950 . S
C1577 C1573 1.393 . S
C1577 C1576 1.391 . S
C1578 H1568 0.950 . S
C1578 C1579 1.386 . S
C1578 C1580 1.391 . S
C1579 C1578 1.386 . S
C1579 C1583 1.393 . S
C1580 H1569 0.950 . S
C1580 C1578 1.391 . S
C1580 C1581 1.400 . S
C1581 C1575 1.491 . S
C1581 C1580 1.400 . S
C1581 C1582 1.398 . S
C1582 H1570 0.950 . S
C1582 C1581 1.398 . S
C1582 C1583 1.391 . S
C1583 H1571 0.950 . S
C1583 C1579 1.393 . S
C1583 C1582 1.391 . S
H1584 C1592 0.950 . S
H1585 C1597 0.950 . S
H1586 C1594 0.950 . S
H1587 C1596 0.950 . S
H1588 C1598 0.950 . S
H1589 C1600 0.950 . S
H1590 C1602 0.950 . S
H1591 C1603 0.950 . S
C1592 H1584 0.950 . S
C1592 C1593 1.386 . S
C1592 C1594 1.391 . S
C1593 C1592 1.386 . S
C1593 C1597 1.393 . S
C1594 H1586 0.950 . S
C1594 C1592 1.391 . S
C1594 C1595 1.400 . S
C1595 C1594 1.400 . S
C1595 C1596 1.398 . S
C1595 C1601 1.491 . S
C1596 H1587 0.950 . S
C1596 C1595 1.398 . S
C1596 C1597 1.391 . S
C1597 H1585 0.950 . S
C1597 C1593 1.393 . S
C1597 C1596 1.391 . S
C1598 H1588 0.950 . S
C1598 C1599 1.386 . S
C1598 C1600 1.391 . S
C1599 C1598 1.386 . S
C1599 C1603 1.393 . S
C1600 H1589 0.950 . S
C1600 C1598 1.391 . S
C1600 C1601 1.400 . S
C1601 C1595 1.491 . S
C1601 C1600 1.400 . S
C1601 C1602 1.398 . S
C1602 H1590 0.950 . S
C1602 C1601 1.398 . S
C1602 C1603 1.391 . S
C1603 H1591 0.950 . S
C1603 C1599 1.393 . S
C1603 C1602 1.391 . S
H1604 C1612 0.950 . S
H1605 C1617 0.950 . S
H1606 C1614 0.950 . S
H1607 C1616 0.950 . S
H1608 C1618 0.950 . S
H1609 C1620 0.950 . S
H1610 C1622 0.950 . S
H1611 C1623 0.950 . S
C1612 H1604 0.950 . S
C1612 C1613 1.386 . S
C1612 C1614 1.391 . S
C1613 C1612 1.386 . S
C1613 C1617 1.393 . S
C1614 H1606 0.950 . S
C1614 C1612 1.391 . S
C1614 C1615 1.400 . S
C1615 C1614 1.400 . S
C1615 C1616 1.398 . S
C1615 C1621 1.491 . S
C1616 H1607 0.950 . S
C1616 C1615 1.398 . S
C1616 C1617 1.391 . S
C1617 H1605 0.950 . S
C1617 C1613 1.393 . S
C1617 C1616 1.391 . S
C1618 H1608 0.950 . S
C1618 C1619 1.386 . S
C1618 C1620 1.391 . S
C1619 C1618 1.386 . S
C1619 C1623 1.393 . S
C1620 H1609 0.950 . S
C1620 C1618 1.391 . S
C1620 C1621 1.400 . S
C1621 C1615 1.491 . S
C1621 C1620 1.400 . S
C1621 C1622 1.398 . S
C1622 H1610 0.950 . S
C1622 C1621 1.398 . S
C1622 C1623 1.391 . S
C1623 H1611 0.950 . S
C1623 C1619 1.393 . S
C1623 C1622 1.391 . S
H1624 C1632 0.950 . S
H1625 C1637 0.950 . S
H1626 C1634 0.950 . S
H1627 C1636 0.950 . S
H1628 C1638 0.950 . S
H1629 C1640 0.950 . S
H1630 C1642 0.950 . S
H1631 C1643 0.950 . S
C1632 H1624 0.950 . S
C1632 C1633 1.386 . S
C1632 C1634 1.391 . S
C1633 C1632 1.386 . S
C1633 C1637 1.393 . S
C1634 H1626 0.950 . S
C1634 C1632 1.391 . S
C1634 C1635 1.400 . S
C1635 C1634 1.400 . S
C1635 C1636 1.398 . S
C1635 C1641 1.491 . S
C1636 H1627 0.950 . S
C1636 C1635 1.398 . S
C1636 C1637 1.391 . S
C1637 H1625 0.950 . S
C1637 C1633 1.393 . S
C1637 C1636 1.391 . S
C1638 H1628 0.950 . S
C1638 C1639 1.386 . S
C1638 C1640 1.391 . S
C1639 C1638 1.386 . S
C1639 C1643 1.393 . S
C1640 H1629 0.950 . S
C1640 C1638 1.391 . S
C1640 C1641 1.400 . S
C1641 C1635 1.491 . S
C1641 C1640 1.400 . S
C1641 C1642 1.398 . S
C1642 H1630 0.950 . S
C1642 C1641 1.398 . S
C1642 C1643 1.391 . S
C1643 H1631 0.950 . S
C1643 C1639 1.393 . S
C1643 C1642 1.391 . S
H1644 C1652 0.950 . S
H1645 C1657 0.950 . S
H1646 C1654 0.950 . S
H1647 C1656 0.950 . S
H1648 C1658 0.950 . S
H1649 C1660 0.950 . S
H1650 C1662 0.950 . S
H1651 C1663 0.950 . S
C1652 H1644 0.950 . S
C1652 C1653 1.386 . S
C1652 C1654 1.391 . S
C1653 C1652 1.386 . S
C1653 C1657 1.393 . S
C1654 H1646 0.950 . S
C1654 C1652 1.391 . S
C1654 C1655 1.400 . S
C1655 C1654 1.400 . S
C1655 C1656 1.398 . S
C1655 C1661 1.491 . S
C1656 H1647 0.950 . S
C1656 C1655 1.398 . S
C1656 C1657 1.391 . S
C1657 H1645 0.950 . S
C1657 C1653 1.393 . S
C1657 C1656 1.391 . S
C1658 H1648 0.950 . S
C1658 C1659 1.386 . S
C1658 C1660 1.391 . S
C1659 C1658 1.386 . S
C1659 C1663 1.393 . S
C1660 H1649 0.950 . S
C1660 C1658 1.391 . S
C1660 C1661 1.400 . S
C1661 C1655 1.491 . S
C1661 C1660 1.400 . S
C1661 C1662 1.398 . S
C1662 H1650 0.950 . S
C1662 C1661 1.398 . S
C1662 C1663 1.391 . S
C1663 H1651 0.950 . S
C1663 C1659 1.393 . S
C1663 C1662 1.391 . S
H1664 C1672 0.950 . S
H1665 C1677 0.950 . S
H1666 C1674 0.950 . S
H1667 C1676 0.950 . S
H1668 C1678 0.950 . S
H1669 C1680 0.950 . S
H1670 C1682 0.950 . S
H1671 C1683 0.950 . S
C1672 H1664 0.950 . S
C1672 C1673 1.386 . S
C1672 C1674 1.391 . S
C1673 C1672 1.386 . S
C1673 C1677 1.393 . S
C1674 H1666 0.950 . S
C1674 C1672 1.391 . S
C1674 C1675 1.400 . S
C1675 C1674 1.400 . S
C1675 C1676 1.398 . S
C1675 C1681 1.491 . S
C1676 H1667 0.950 . S
C1676 C1675 1.398 . S
C1676 C1677 1.391 . S
C1677 H1665 0.950 . S
C1677 C1673 1.393 . S
C1677 C1676 1.391 . S
C1678 H1668 0.950 . S
C1678 C1679 1.386 . S
C1678 C1680 1.391 . S
C1679 C1678 1.386 . S
C1679 C1683 1.393 . S
C1680 H1669 0.950 . S
C1680 C1678 1.391 . S
C1680 C1681 1.400 . S
C1681 C1675 1.491 . S
C1681 C1680 1.400 . S
C1681 C1682 1.398 . S
C1682 H1670 0.950 . S
C1682 C1681 1.398 . S
C1682 C1683 1.391 . S
C1683 H1671 0.950 . S
C1683 C1679 1.393 . S
C1683 C1682 1.391 . S
H1684 C1692 0.950 . S
H1685 C1697 0.950 . S
H1686 C1694 0.950 . S
H1687 C1696 0.950 . S
H1688 C1698 0.950 . S
H1689 C1700 0.950 . S
H1690 C1702 0.950 . S
H1691 C1703 0.950 . S
C1692 H1684 0.950 . S
C1692 C1693 1.386 . S
C1692 C1694 1.391 . S
C1693 C1692 1.386 . S
C1693 C1697 1.393 . S
C1694 H1686 0.950 . S
C1694 C1692 1.391 . S
C1694 C1695 1.400 . S
C1695 C1694 1.400 . S
C1695 C1696 1.398 . S
C1695 C1701 1.491 . S
C1696 H1687 0.950 . S
C1696 C1695 1.398 . S
C1696 C1697 1.391 . S
C1697 H1685 0.950 . S
C1697 C1693 1.393 . S
C1697 C1696 1.391 . S
C1698 H1688 0.950 . S
C1698 C1699 1.386 . S
C1698 C1700 1.391 . S
C1699 C1698 1.386 . S
C1699 C1703 1.393 . S
C1700 H1689 0.950 . S
C1700 C1698 1.391 . S
C1700 C1701 1.400 . S
C1701 C1695 1.491 . S
C1701 C1700 1.400 . S
C1701 C1702 1.398 . S
C1702 H1690 0.950 . S
C1702 C1701 1.398 . S
C1702 C1703 1.391 . S
C1703 H1691 0.950 . S
C1703 C1699 1.393 . S
C1703 C1702 1.391 . S
H1704 C1712 0.950 . S
H1705 C1717 0.950 . S
H1706 C1714 0.950 . S
H1707 C1716 0.950 . S
H1708 C1718 0.950 . S
H1709 C1720 0.950 . S
H1710 C1722 0.950 . S
H1711 C1723 0.950 . S
C1712 H1704 0.950 . S
C1712 C1713 1.386 . S
C1712 C1714 1.391 . S
C1713 C1712 1.386 . S
C1713 C1717 1.393 . S
C1714 H1706 0.950 . S
C1714 C1712 1.391 . S
C1714 C1715 1.400 . S
C1715 C1714 1.400 . S
C1715 C1716 1.398 . S
C1715 C1721 1.491 . S
C1716 H1707 0.950 . S
C1716 C1715 1.398 . S
C1716 C1717 1.391 . S
C1717 H1705 0.950 . S
C1717 C1713 1.393 . S
C1717 C1716 1.391 . S
C1718 H1708 0.950 . S
C1718 C1719 1.386 . S
C1718 C1720 1.391 . S
C1719 C1718 1.386 . S
C1719 C1723 1.393 . S
C1720 H1709 0.950 . S
C1720 C1718 1.391 . S
C1720 C1721 1.400 . S
C1721 C1715 1.491 . S
C1721 C1720 1.400 . S
C1721 C1722 1.398 . S
C1722 H1710 0.950 . S
C1722 C1721 1.398 . S
C1722 C1723 1.391 . S
C1723 H1711 0.950 . S
C1723 C1719 1.393 . S
C1723 C1722 1.391 . S
H1724 C1732 0.950 . S
H1725 C1737 0.950 . S
H1726 C1734 0.950 . S
H1727 C1736 0.950 . S
H1728 C1738 0.950 . S
H1729 C1740 0.950 . S
H1730 C1742 0.950 . S
H1731 C1743 0.950 . S
C1732 H1724 0.950 . S
C1732 C1733 1.386 . S
C1732 C1734 1.391 . S
C1733 C1732 1.386 . S
C1733 C1737 1.393 . S
C1734 H1726 0.950 . S
C1734 C1732 1.391 . S
C1734 C1735 1.400 . S
C1735 C1734 1.400 . S
C1735 C1736 1.398 . S
C1735 C1741 1.491 . S
C1736 H1727 0.950 . S
C1736 C1735 1.398 . S
C1736 C1737 1.391 . S
C1737 H1725 0.950 . S
C1737 C1733 1.393 . S
C1737 C1736 1.391 . S
C1738 H1728 0.950 . S
C1738 C1739 1.386 . S
C1738 C1740 1.391 . S
C1739 C1738 1.386 . S
C1739 C1743 1.393 . S
C1740 H1729 0.950 . S
C1740 C1738 1.391 . S
C1740 C1741 1.400 . S
C1741 C1735 1.491 . S
C1741 C1740 1.400 . S
C1741 C1742 1.398 . S
C1742 H1730 0.950 . S
C1742 C1741 1.398 . S
C1742 C1743 1.391 . S
C1743 H1731 0.950 . S
C1743 C1739 1.393 . S
C1743 C1742 1.391 . S
H1744 C1752 0.950 . S
H1745 C1757 0.950 . S
H1746 C1754 0.950 . S
H1747 C1756 0.950 . S
H1748 C1758 0.950 . S
H1749 C1760 0.950 . S
H1750 C1762 0.950 . S
H1751 C1763 0.950 . S
C1752 H1744 0.950 . S
C1752 C1753 1.386 . S
C1752 C1754 1.391 . S
C1753 C1752 1.386 . S
C1753 C1757 1.393 . S
C1754 H1746 0.950 . S
C1754 C1752 1.391 . S
C1754 C1755 1.400 . S
C1755 C1754 1.400 . S
C1755 C1756 1.398 . S
C1755 C1761 1.491 . S
C1756 H1747 0.950 . S
C1756 C1755 1.398 . S
C1756 C1757 1.391 . S
C1757 H1745 0.950 . S
C1757 C1753 1.393 . S
C1757 C1756 1.391 . S
C1758 H1748 0.950 . S
C1758 C1759 1.386 . S
C1758 C1760 1.391 . S
C1759 C1758 1.386 . S
C1759 C1763 1.393 . S
C1760 H1749 0.950 . S
C1760 C1758 1.391 . S
C1760 C1761 1.400 . S
C1761 C1755 1.491 . S
C1761 C1760 1.400 . S
C1761 C1762 1.398 . S
C1762 H1750 0.950 . S
C1762 C1761 1.398 . S
C1762 C1763 1.391 . S
C1763 H1751 0.950 . S
C1763 C1759 1.393 . S
C1763 C1762 1.391 . S
H1764 C1772 0.950 . S
H1765 C1777 0.950 . S
H1766 C1774 0.950 . S
H1767 C1776 0.950 . S
H1768 C1778 0.950 . S
H1769 C1780 0.950 . S
H1770 C1782 0.950 . S
H1771 C1783 0.950 . S
C1772 H1764 0.950 . S
C1772 C1773 1.386 . S
C1772 C1774 1.391 . S
C1773 C1772 1.386 . S
C1773 C1777 1.393 . S
C1774 H1766 0.950 . S
C1774 C1772 1.391 . S
C1774 C1775 1.400 . S
C1775 C1774 1.400 . S
C1775 C1776 1.398 . S
C1775 C1781 1.491 . S
C1776 H1767 0.950 . S
C1776 C1775 1.398 . S
C1776 C1777 1.391 . S
C1777 H1765 0.950 . S
C1777 C1773 1.393 . S
C1777 C1776 1.391 . S
C1778 H1768 0.950 . S
C1778 C1779 1.386 . S
C1778 C1780 1.391 . S
C1779 C1778 1.386 . S
C1779 C1783 1.393 . S
C1780 H1769 0.950 . S
C1780 C1778 1.391 . S
C1780 C1781 1.400 . S
C1781 C1775 1.491 . S
C1781 C1780 1.400 . S
C1781 C1782 1.398 . S
C1782 H1770 0.950 . S
C1782 C1781 1.398 . S
C1782 C1783 1.391 . S
C1783 H1771 0.950 . S
C1783 C1779 1.393 . S
C1783 C1782 1.391 . S
H1784 C1792 0.950 . S
H1785 C1797 0.950 . S
H1786 C1794 0.950 . S
H1787 C1796 0.950 . S
H1788 C1798 0.950 . S
H1789 C1800 0.950 . S
H1790 C1802 0.950 . S
H1791 C1803 0.950 . S
C1792 H1784 0.950 . S
C1792 C1793 1.386 . S
C1792 C1794 1.391 . S
C1793 C1792 1.386 . S
C1793 C1797 1.393 . S
C1794 H1786 0.950 . S
C1794 C1792 1.391 . S
C1794 C1795 1.400 . S
C1795 C1794 1.400 . S
C1795 C1796 1.398 . S
C1795 C1801 1.491 . S
C1796 H1787 0.950 . S
C1796 C1795 1.398 . S
C1796 C1797 1.391 . S
C1797 H1785 0.950 . S
C1797 C1793 1.393 . S
C1797 C1796 1.391 . S
C1798 H1788 0.950 . S
C1798 C1799 1.386 . S
C1798 C1800 1.391 . S
C1799 C1798 1.386 . S
C1799 C1803 1.393 . S
C1800 H1789 0.950 . S
C1800 C1798 1.391 . S
C1800 C1801 1.400 . S
C1801 C1795 1.491 . S
C1801 C1800 1.400 . S
C1801 C1802 1.398 . S
C1802 H1790 0.950 . S
C1802 C1801 1.398 . S
C1802 C1803 1.391 . S
C1803 H1791 0.950 . S
C1803 C1799 1.393 . S
C1803 C1802 1.391 . S
H1804 C1812 0.950 . S
H1805 C1817 0.950 . S
H1806 C1814 0.950 . S
H1807 C1816 0.950 . S
H1808 C1818 0.950 . S
H1809 C1820 0.950 . S
H1810 C1822 0.950 . S
H1811 C1823 0.950 . S
C1812 H1804 0.950 . S
C1812 C1813 1.386 . S
C1812 C1814 1.391 . S
C1813 C1812 1.386 . S
C1813 C1817 1.393 . S
C1814 H1806 0.950 . S
C1814 C1812 1.391 . S
C1814 C1815 1.400 . S
C1815 C1814 1.400 . S
C1815 C1816 1.398 . S
C1815 C1821 1.491 . S
C1816 H1807 0.950 . S
C1816 C1815 1.398 . S
C1816 C1817 1.391 . S
C1817 H1805 0.950 . S
C1817 C1813 1.393 . S
C1817 C1816 1.391 . S
C1818 H1808 0.950 . S
C1818 C1819 1.386 . S
C1818 C1820 1.391 . S
C1819 C1818 1.386 . S
C1819 C1823 1.393 . S
C1820 H1809 0.950 . S
C1820 C1818 1.391 . S
C1820 C1821 1.400 . S
C1821 C1815 1.491 . S
C1821 C1820 1.400 . S
C1821 C1822 1.398 . S
C1822 H1810 0.950 . S
C1822 C1821 1.398 . S
C1822 C1823 1.391 . S
C1823 H1811 0.950 . S
C1823 C1819 1.393 . S
C1823 C1822 1.391 . S
H1824 C1832 0.950 . S
H1825 C1837 0.950 . S
H1826 C1834 0.950 . S
H1827 C1836 0.950 . S
H1828 C1838 0.950 . S
H1829 C1840 0.950 . S
H1830 C1842 0.950 . S
H1831 C1843 0.950 . S
C1832 H1824 0.950 . S
C1832 C1833 1.386 . S
C1832 C1834 1.391 . S
C1833 C1832 1.386 . S
C1833 C1837 1.393 . S
C1834 H1826 0.950 . S
C1834 C1832 1.391 . S
C1834 C1835 1.400 . S
C1835 C1834 1.400 . S
C1835 C1836 1.398 . S
C1835 C1841 1.491 . S
C1836 H1827 0.950 . S
C1836 C1835 1.398 . S
C1836 C1837 1.391 . S
C1837 H1825 0.950 . S
C1837 C1833 1.393 . S
C1837 C1836 1.391 . S
C1838 H1828 0.950 . S
C1838 C1839 1.386 . S
C1838 C1840 1.391 . S
C1839 C1838 1.386 . S
C1839 C1843 1.393 . S
C1840 H1829 0.950 . S
C1840 C1838 1.391 . S
C1840 C1841 1.400 . S
C1841 C1835 1.491 . S
C1841 C1840 1.400 . S
C1841 C1842 1.398 . S
C1842 H1830 0.950 . S
C1842 C1841 1.398 . S
C1842 C1843 1.391 . S
C1843 H1831 0.950 . S
C1843 C1839 1.393 . S
C1843 C1842 1.391 . S
H1844 C1852 0.950 . S
H1845 C1857 0.950 . S
H1846 C1854 0.950 . S
H1847 C1856 0.950 . S
H1848 C1858 0.950 . S
H1849 C1860 0.950 . S
H1850 C1862 0.950 . S
H1851 C1863 0.950 . S
C1852 H1844 0.950 . S
C1852 C1853 1.386 . S
C1852 C1854 1.391 . S
C1853 C1852 1.386 . S
C1853 C1857 1.393 . S
C1854 H1846 0.950 . S
C1854 C1852 1.391 . S
C1854 C1855 1.400 . S
C1855 C1854 1.400 . S
C1855 C1856 1.398 . S
C1855 C1861 1.491 . S
C1856 H1847 0.950 . S
C1856 C1855 1.398 . S
C1856 C1857 1.391 . S
C1857 H1845 0.950 . S
C1857 C1853 1.393 . S
C1857 C1856 1.391 . S
C1858 H1848 0.950 . S
C1858 C1859 1.386 . S
C1858 C1860 1.391 . S
C1859 C1858 1.386 . S
C1859 C1863 1.393 . S
C1860 H1849 0.950 . S
C1860 C1858 1.391 . S
C1860 C1861 1.400 . S
C1861 C1855 1.491 . S
C1861 C1860 1.400 . S
C1861 C1862 1.398 . S
C1862 H1850 0.950 . S
C1862 C1861 1.398 . S
C1862 C1863 1.391 . S
C1863 H1851 0.950 . S
C1863 C1859 1.393 . S
C1863 C1862 1.391 . S
H1864 C1872 0.950 . S
H1865 C1877 0.950 . S
H1866 C1874 0.950 . S
H1867 C1876 0.950 . S
H1868 C1878 0.950 . S
H1869 C1880 0.950 . S
H1870 C1882 0.950 . S
H1871 C1883 0.950 . S
C1872 H1864 0.950 . S
C1872 C1873 1.386 . S
C1872 C1874 1.391 . S
C1873 C1872 1.386 . S
C1873 C1877 1.393 . S
C1874 H1866 0.950 . S
C1874 C1872 1.391 . S
C1874 C1875 1.400 . S
C1875 C1874 1.400 . S
C1875 C1876 1.398 . S
C1875 C1881 1.491 . S
C1876 H1867 0.950 . S
C1876 C1875 1.398 . S
C1876 C1877 1.391 . S
C1877 H1865 0.950 . S
C1877 C1873 1.393 . S
C1877 C1876 1.391 . S
C1878 H1868 0.950 . S
C1878 C1879 1.386 . S
C1878 C1880 1.391 . S
C1879 C1878 1.386 . S
C1879 C1883 1.393 . S
C1880 H1869 0.950 . S
C1880 C1878 1.391 . S
C1880 C1881 1.400 . S
C1881 C1875 1.491 . S
C1881 C1880 1.400 . S
C1881 C1882 1.398 . S
C1882 H1870 0.950 . S
C1882 C1881 1.398 . S
C1882 C1883 1.391 . S
C1883 H1871 0.950 . S
C1883 C1879 1.393 . S
C1883 C1882 1.391 . S
H1884 C1892 0.950 . S
H1885 C1897 0.950 . S
H1886 C1894 0.950 . S
H1887 C1896 0.950 . S
H1888 C1898 0.950 . S
H1889 C1900 0.950 . S
H1890 C1902 0.950 . S
H1891 C1903 0.950 . S
C1892 H1884 0.950 . S
C1892 C1893 1.386 . S
C1892 C1894 1.391 . S
C1893 C1892 1.386 . S
C1893 C1897 1.393 . S
C1894 H1886 0.950 . S
C1894 C1892 1.391 . S
C1894 C1895 1.400 . S
C1895 C1894 1.400 . S
C1895 C1896 1.398 . S
C1895 C1901 1.491 . S
C1896 H1887 0.950 . S
C1896 C1895 1.398 . S
C1896 C1897 1.391 . S
C1897 H1885 0.950 . S
C1897 C1893 1.393 . S
C1897 C1896 1.391 . S
C1898 H1888 0.950 . S
C1898 C1899 1.386 . S
C1898 C1900 1.391 . S
C1899 C1898 1.386 . S
C1899 C1903 1.393 . S
C1900 H1889 0.950 . S
C1900 C1898 1.391 . S
C1900 C1901 1.400 . S
C1901 C1895 1.491 . S
C1901 C1900 1.400 . S
C1901 C1902 1.398 . S
C1902 H1890 0.950 . S
C1902 C1901 1.398 . S
C1902 C1903 1.391 . S
C1903 H1891 0.950 . S
C1903 C1899 1.393 . S
C1903 C1902 1.391 . S
H1904 C1912 0.950 . S
H1905 C1917 0.950 . S
H1906 C1914 0.950 . S
H1907 C1916 0.950 . S
H1908 C1918 0.950 . S
H1909 C1920 0.950 . S
H1910 C1922 0.950 . S
H1911 C1923 0.950 . S
C1912 H1904 0.950 . S
C1912 C1913 1.386 . S
C1912 C1914 1.391 . S
C1913 C1912 1.386 . S
C1913 C1917 1.393 . S
C1914 H1906 0.950 . S
C1914 C1912 1.391 . S
C1914 C1915 1.400 . S
C1915 C1914 1.400 . S
C1915 C1916 1.398 . S
C1915 C1921 1.491 . S
C1916 H1907 0.950 . S
C1916 C1915 1.398 . S
C1916 C1917 1.391 . S
C1917 H1905 0.950 . S
C1917 C1913 1.393 . S
C1917 C1916 1.391 . S
C1918 H1908 0.950 . S
C1918 C1919 1.386 . S
C1918 C1920 1.391 . S
C1919 C1918 1.386 . S
C1919 C1923 1.393 . S
C1920 H1909 0.950 . S
C1920 C1918 1.391 . S
C1920 C1921 1.400 . S
C1921 C1915 1.491 . S
C1921 C1920 1.400 . S
C1921 C1922 1.398 . S
C1922 H1910 0.950 . S
C1922 C1921 1.398 . S
C1922 C1923 1.391 . S
C1923 H1911 0.950 . S
C1923 C1919 1.393 . S
C1923 C1922 1.391 . S
H1924 C1932 0.950 . S
H1925 C1937 0.950 . S
H1926 C1934 0.950 . S
H1927 C1936 0.950 . S
H1928 C1938 0.950 . S
H1929 C1940 0.950 . S
H1930 C1942 0.950 . S
H1931 C1943 0.950 . S
C1932 H1924 0.950 . S
C1932 C1933 1.386 . S
C1932 C1934 1.391 . S
C1933 C1932 1.386 . S
C1933 C1937 1.393 . S
C1934 H1926 0.950 . S
C1934 C1932 1.391 . S
C1934 C1935 1.400 . S
C1935 C1934 1.400 . S
C1935 C1936 1.398 . S
C1935 C1941 1.491 . S
C1936 H1927 0.950 . S
C1936 C1935 1.398 . S
C1936 C1937 1.391 . S
C1937 H1925 0.950 . S
C1937 C1933 1.393 . S
C1937 C1936 1.391 . S
C1938 H1928 0.950 . S
C1938 C1939 1.386 . S
C1938 C1940 1.391 . S
C1939 C1938 1.386 . S
C1939 C1943 1.393 . S
C1940 H1929 0.950 . S
C1940 C1938 1.391 . S
C1940 C1941 1.400 . S
C1941 C1935 1.491 . S
C1941 C1940 1.400 . S
C1941 C1942 1.398 . S
C1942 H1930 0.950 . S
C1942 C1941 1.398 . S
C1942 C1943 1.391 . S
C1943 H1931 0.950 . S
C1943 C1939 1.393 . S
C1943 C1942 1.391 . S
H1944 C1952 0.950 . S
H1945 C1957 0.950 . S
H1946 C1954 0.950 . S
H1947 C1956 0.950 . S
H1948 C1958 0.950 . S
H1949 C1960 0.950 . S
H1950 C1962 0.950 . S
H1951 C1963 0.950 . S
C1952 H1944 0.950 . S
C1952 C1953 1.386 . S
C1952 C1954 1.391 . S
C1953 C1952 1.386 . S
C1953 C1957 1.393 . S
C1954 H1946 0.950 . S
C1954 C1952 1.391 . S
C1954 C1955 1.400 . S
C1955 C1954 1.400 . S
C1955 C1956 1.398 . S
C1955 C1961 1.491 . S
C1956 H1947 0.950 . S
C1956 C1955 1.398 . S
C1956 C1957 1.391 . S
C1957 H1945 0.950 . S
C1957 C1953 1.393 . S
C1957 C1956 1.391 . S
C1958 H1948 0.950 . S
C1958 C1959 1.386 . S
C1958 C1960 1.391 . S
C1959 C1958 1.386 . S
C1959 C1963 1.393 . S
C1960 H1949 0.950 . S
C1960 C1958 1.391 . S
C1960 C1961 1.400 . S
C1961 C1955 1.491 . S
C1961 C1960 1.400 . S
C1961 C1962 1.398 . S
C1962 H1950 0.950 . S
C1962 C1961 1.398 . S
C1962 C1963 1.391 . S
C1963 H1951 0.950 . S
C1963 C1959 1.393 . S
C1963 C1962 1.391 . S
H1964 C1972 0.950 . S
H1965 C1977 0.950 . S
H1966 C1974 0.950 . S
H1967 C1976 0.950 . S
H1968 C1978 0.950 . S
H1969 C1980 0.950 . S
H1970 C1982 0.950 . S
H1971 C1983 0.950 . S
C1972 H1964 0.950 . S
C1972 C1973 1.386 . S
C1972 C1974 1.391 . S
C1973 C1972 1.386 . S
C1973 C1977 1.393 . S
C1974 H1966 0.950 . S
C1974 C1972 1.391 . S
C1974 C1975 1.400 . S
C1975 C1974 1.400 . S
C1975 C1976 1.398 . S
C1975 C1981 1.491 . S
C1976 H1967 0.950 . S
C1976 C1975 1.398 . S
C1976 C1977 1.391 . S
C1977 H1965 0.950 . S
C1977 C1973 1.393 . S
C1977 C1976 1.391 . S
C1978 H1968 0.950 . S
C1978 C1979 1.386 . S
C1978 C1980 1.391 . S
C1979 C1978 1.386 . S
C1979 C1983 1.393 . S
C1980 H1969 0.950 . S
C1980 C1978 1.391 . S
C1980 C1981 1.400 . S
C1981 C1975 1.491 . S
C1981 C1980 1.400 . S
C1981 C1982 1.398 . S
C1982 H1970 0.950 . S
C1982 C1981 1.398 . S
C1982 C1983 1.391 . S
C1983 H1971 0.950 . S
C1983 C1979 1.393 . S
C1983 C1982 1.391 . S
H1984 C1992 0.950 . S
H1985 C1997 0.950 . S
H1986 C1994 0.950 . S
H1987 C1996 0.950 . S
H1988 C1998 0.950 . S
H1989 C2000 0.950 . S
H1990 C2002 0.950 . S
H1991 C2003 0.950 . S
C1992 H1984 0.950 . S
C1992 C1993 1.386 . S
C1992 C1994 1.391 . S
C1993 C1992 1.386 . S
C1993 C1997 1.393 . S
C1994 H1986 0.950 . S
C1994 C1992 1.391 . S
C1994 C1995 1.400 . S
C1995 C1994 1.400 . S
C1995 C1996 1.398 . S
C1995 C2001 1.491 . S
C1996 H1987 0.950 . S
C1996 C1995 1.398 . S
C1996 C1997 1.391 . S
C1997 H1985 0.950 . S
C1997 C1993 1.393 . S
C1997 C1996 1.391 . S
C1998 H1988 0.950 . S
C1998 C1999 1.386 . S
C1998 C2000 1.391 . S
C1999 C1998 1.386 . S
C1999 C2003 1.393 . S
C2000 H1989 0.950 . S
C2000 C1998 1.391 . S
C2000 C2001 1.400 . S
C2001 C1995 1.491 . S
C2001 C2000 1.400 . S
C2001 C2002 1.398 . S
C2002 H1990 0.950 . S
C2002 C2001 1.398 . S
C2002 C2003 1.391 . S
C2003 H1991 0.950 . S
C2003 C1999 1.393 . S
C2003 C2002 1.391 . S
H2004 C2012 0.950 . S
H2005 C2017 0.950 . S
H2006 C2014 0.950 . S
H2007 C2016 0.950 . S
H2008 C2018 0.950 . S
H2009 C2020 0.950 . S
H2010 C2022 0.950 . S
H2011 C2023 0.950 . S
C2012 H2004 0.950 . S
C2012 C2013 1.386 . S
C2012 C2014 1.391 . S
C2013 C2012 1.386 . S
C2013 C2017 1.393 . S
C2014 H2006 0.950 . S
C2014 C2012 1.391 . S
C2014 C2015 1.400 . S
C2015 C2014 1.400 . S
C2015 C2016 1.398 . S
C2015 C2021 1.491 . S
C2016 H2007 0.950 . S
C2016 C2015 1.398 . S
C2016 C2017 1.391 . S
C2017 H2005 0.950 . S
C2017 C2013 1.393 . S
C2017 C2016 1.391 . S
C2018 H2008 0.950 . S
C2018 C2019 1.386 . S
C2018 C2020 1.391 . S
C2019 C2018 1.386 . S
C2019 C2023 1.393 . S
C2020 H2009 0.950 . S
C2020 C2018 1.391 . S
C2020 C2021 1.400 . S
C2021 C2015 1.491 . S
C2021 C2020 1.400 . S
C2021 C2022 1.398 . S
C2022 H2010 0.950 . S
C2022 C2021 1.398 . S
C2022 C2023 1.391 . S
C2023 H2011 0.950 . S
C2023 C2019 1.393 . S
C2023 C2022 1.391 . S
H2024 C2032 0.950 . S
H2025 C2037 0.950 . S
H2026 C2034 0.950 . S
H2027 C2036 0.950 . S
H2028 C2038 0.950 . S
H2029 C2040 0.950 . S
H2030 C2042 0.950 . S
H2031 C2043 0.950 . S
C2032 H2024 0.950 . S
C2032 C2033 1.386 . S
C2032 C2034 1.391 . S
C2033 C2032 1.386 . S
C2033 C2037 1.393 . S
C2034 H2026 0.950 . S
C2034 C2032 1.391 . S
C2034 C2035 1.400 . S
C2035 C2034 1.400 . S
C2035 C2036 1.398 . S
C2035 C2041 1.491 . S
C2036 H2027 0.950 . S
C2036 C2035 1.398 . S
C2036 C2037 1.391 . S
C2037 H2025 0.950 . S
C2037 C2033 1.393 . S
C2037 C2036 1.391 . S
C2038 H2028 0.950 . S
C2038 C2039 1.386 . S
C2038 C2040 1.391 . S
C2039 C2038 1.386 . S
C2039 C2043 1.393 . S
C2040 H2029 0.950 . S
C2040 C2038 1.391 . S
C2040 C2041 1.400 . S
C2041 C2035 1.491 . S
C2041 C2040 1.400 . S
C2041 C2042 1.398 . S
C2042 H2030 0.950 . S
C2042 C2041 1.398 . S
C2042 C2043 1.391 . S
C2043 H2031 0.950 . S
C2043 C2039 1.393 . S
C2043 C2042 1.391 . S
H2044 C2052 0.950 . S
H2045 C2057 0.950 . S
H2046 C2054 0.950 . S
H2047 C2056 0.950 . S
H2048 C2058 0.950 . S
H2049 C2060 0.950 . S
H2050 C2062 0.950 . S
H2051 C2063 0.950 . S
C2052 H2044 0.950 . S
C2052 C2053 1.386 . S
C2052 C2054 1.391 . S
C2053 C2052 1.386 . S
C2053 C2057 1.393 . S
C2054 H2046 0.950 . S
C2054 C2052 1.391 . S
C2054 C2055 1.400 . S
C2055 C2054 1.400 . S
C2055 C2056 1.398 . S
C2055 C2061 1.491 . S
C2056 H2047 0.950 . S
C2056 C2055 1.398 . S
C2056 C2057 1.391 . S
C2057 H2045 0.950 . S
C2057 C2053 1.393 . S
C2057 C2056 1.391 . S
C2058 H2048 0.950 . S
C2058 C2059 1.386 . S
C2058 C2060 1.391 . S
C2059 C2058 1.386 . S
C2059 C2063 1.393 . S
C2060 H2049 0.950 . S
C2060 C2058 1.391 . S
C2060 C2061 1.400 . S
C2061 C2055 1.491 . S
C2061 C2060 1.400 . S
C2061 C2062 1.398 . S
C2062 H2050 0.950 . S
C2062 C2061 1.398 . S
C2062 C2063 1.391 . S
C2063 H2051 0.950 . S
C2063 C2059 1.393 . S
C2063 C2062 1.391 . S
H2064 C2072 0.950 . S
H2065 C2077 0.950 . S
H2066 C2074 0.950 . S
H2067 C2076 0.950 . S
H2068 C2078 0.950 . S
H2069 C2080 0.950 . S
H2070 C2082 0.950 . S
H2071 C2083 0.950 . S
C2072 H2064 0.950 . S
C2072 C2073 1.386 . S
C2072 C2074 1.391 . S
C2073 C2072 1.386 . S
C2073 C2077 1.393 . S
C2074 H2066 0.950 . S
C2074 C2072 1.391 . S
C2074 C2075 1.400 . S
C2075 C2074 1.400 . S
C2075 C2076 1.398 . S
C2075 C2081 1.491 . S
C2076 H2067 0.950 . S
C2076 C2075 1.398 . S
C2076 C2077 1.391 . S
C2077 H2065 0.950 . S
C2077 C2073 1.393 . S
C2077 C2076 1.391 . S
C2078 H2068 0.950 . S
C2078 C2079 1.386 . S
C2078 C2080 1.391 . S
C2079 C2078 1.386 . S
C2079 C2083 1.393 . S
C2080 H2069 0.950 . S
C2080 C2078 1.391 . S
C2080 C2081 1.400 . S
C2081 C2075 1.491 . S
C2081 C2080 1.400 . S
C2081 C2082 1.398 . S
C2082 H2070 0.950 . S
C2082 C2081 1.398 . S
C2082 C2083 1.391 . S
C2083 H2071 0.950 . S
C2083 C2079 1.393 . S
C2083 C2082 1.391 . S
H2084 C2092 0.950 . S
H2085 C2097 0.950 . S
H2086 C2094 0.950 . S
H2087 C2096 0.950 . S
H2088 C2098 0.950 . S
H2089 C2100 0.950 . S
H2090 C2102 0.950 . S
H2091 C2103 0.950 . S
C2092 H2084 0.950 . S
C2092 C2093 1.386 . S
C2092 C2094 1.391 . S
C2093 C2092 1.386 . S
C2093 C2097 1.393 . S
C2094 H2086 0.950 . S
C2094 C2092 1.391 . S
C2094 C2095 1.400 . S
C2095 C2094 1.400 . S
C2095 C2096 1.398 . S
C2095 C2101 1.491 . S
C2096 H2087 0.950 . S
C2096 C2095 1.398 . S
C2096 C2097 1.391 . S
C2097 H2085 0.950 . S
C2097 C2093 1.393 . S
C2097 C2096 1.391 . S
C2098 H2088 0.950 . S
C2098 C2099 1.386 . S
C2098 C2100 1.391 . S
C2099 C2098 1.386 . S
C2099 C2103 1.393 . S
C2100 H2089 0.950 . S
C2100 C2098 1.391 . S
C2100 C2101 1.400 . S
C2101 C2095 1.491 . S
C2101 C2100 1.400 . S
C2101 C2102 1.398 . S
C2102 H2090 0.950 . S
C2102 C2101 1.398 . S
C2102 C2103 1.391 . S
C2103 H2091 0.950 . S
C2103 C2099 1.393 . S
C2103 C2102 1.391 . S
H2104 C2112 0.950 . S
H2105 C2117 0.950 . S
H2106 C2114 0.950 . S
H2107 C2116 0.950 . S
H2108 C2118 0.950 . S
H2109 C2120 0.950 . S
H2110 C2122 0.950 . S
H2111 C2123 0.950 . S
C2112 H2104 0.950 . S
C2112 C2113 1.386 . S
C2112 C2114 1.391 . S
C2113 C2112 1.386 . S
C2113 C2117 1.393 . S
C2114 H2106 0.950 . S
C2114 C2112 1.391 . S
C2114 C2115 1.400 . S
C2115 C2114 1.400 . S
C2115 C2116 1.398 . S
C2115 C2121 1.491 . S
C2116 H2107 0.950 . S
C2116 C2115 1.398 . S
C2116 C2117 1.391 . S
C2117 H2105 0.950 . S
C2117 C2113 1.393 . S
C2117 C2116 1.391 . S
C2118 H2108 0.950 . S
C2118 C2119 1.386 . S
C2118 C2120 1.391 . S
C2119 C2118 1.386 . S
C2119 C2123 1.393 . S
C2120 H2109 0.950 . S
C2120 C2118 1.391 . S
C2120 C2121 1.400 . S
C2121 C2115 1.491 . S
C2121 C2120 1.400 . S
C2121 C2122 1.398 . S
C2122 H2110 0.950 . S
C2122 C2121 1.398 . S
C2122 C2123 1.391 . S
C2123 H2111 0.950 . S
C2123 C2119 1.393 . S
C2123 C2122 1.391 . S
H2124 C2132 0.950 . S
H2125 C2137 0.950 . S
H2126 C2134 0.950 . S
H2127 C2136 0.950 . S
H2128 C2138 0.950 . S
H2129 C2140 0.950 . S
H2130 C2142 0.950 . S
H2131 C2143 0.950 . S
C2132 H2124 0.950 . S
C2132 C2133 1.386 . S
C2132 C2134 1.391 . S
C2133 C2132 1.386 . S
C2133 C2137 1.393 . S
C2134 H2126 0.950 . S
C2134 C2132 1.391 . S
C2134 C2135 1.400 . S
C2135 C2134 1.400 . S
C2135 C2136 1.398 . S
C2135 C2141 1.491 . S
C2136 H2127 0.950 . S
C2136 C2135 1.398 . S
C2136 C2137 1.391 . S
C2137 H2125 0.950 . S
C2137 C2133 1.393 . S
C2137 C2136 1.391 . S
C2138 H2128 0.950 . S
C2138 C2139 1.386 . S
C2138 C2140 1.391 . S
C2139 C2138 1.386 . S
C2139 C2143 1.393 . S
C2140 H2129 0.950 . S
C2140 C2138 1.391 . S
C2140 C2141 1.400 . S
C2141 C2135 1.491 . S
C2141 C2140 1.400 . S
C2141 C2142 1.398 . S
C2142 H2130 0.950 . S
C2142 C2141 1.398 . S
C2142 C2143 1.391 . S
C2143 H2131 0.950 . S
C2143 C2139 1.393 . S
C2143 C2142 1.391 . S
H2144 C2152 0.950 . S
H2145 C2157 0.950 . S
H2146 C2154 0.950 . S
H2147 C2156 0.950 . S
H2148 C2158 0.950 . S
H2149 C2160 0.950 . S
H2150 C2162 0.950 . S
H2151 C2163 0.950 . S
C2152 H2144 0.950 . S
C2152 C2153 1.386 . S
C2152 C2154 1.391 . S
C2153 C2152 1.386 . S
C2153 C2157 1.393 . S
C2154 H2146 0.950 . S
C2154 C2152 1.391 . S
C2154 C2155 1.400 . S
C2155 C2154 1.400 . S
C2155 C2156 1.398 . S
C2155 C2161 1.491 . S
C2156 H2147 0.950 . S
C2156 C2155 1.398 . S
C2156 C2157 1.391 . S
C2157 H2145 0.950 . S
C2157 C2153 1.393 . S
C2157 C2156 1.391 . S
C2158 H2148 0.950 . S
C2158 C2159 1.386 . S
C2158 C2160 1.391 . S
C2159 C2158 1.386 . S
C2159 C2163 1.393 . S
C2160 H2149 0.950 . S
C2160 C2158 1.391 . S
C2160 C2161 1.400 . S
C2161 C2155 1.491 . S
C2161 C2160 1.400 . S
C2161 C2162 1.398 . S
C2162 H2150 0.950 . S
C2162 C2161 1.398 . S
C2162 C2163 1.391 . S
C2163 H2151 0.950 . S
C2163 C2159 1.393 . S
C2163 C2162 1.391 . S
H2164 C2172 0.950 . S
H2165 C2177 0.950 . S
H2166 C2174 0.950 . S
H2167 C2176 0.950 . S
H2168 C2178 0.950 . S
H2169 C2180 0.950 . S
H2170 C2182 0.950 . S
H2171 C2183 0.950 . S
C2172 H2164 0.950 . S
C2172 C2173 1.386 . S
C2172 C2174 1.391 . S
C2173 C2172 1.386 . S
C2173 C2177 1.393 . S
C2174 H2166 0.950 . S
C2174 C2172 1.391 . S
C2174 C2175 1.400 . S
C2175 C2174 1.400 . S
C2175 C2176 1.398 . S
C2175 C2181 1.491 . S
C2176 H2167 0.950 . S
C2176 C2175 1.398 . S
C2176 C2177 1.391 . S
C2177 H2165 0.950 . S
C2177 C2173 1.393 . S
C2177 C2176 1.391 . S
C2178 H2168 0.950 . S
C2178 C2179 1.386 . S
C2178 C2180 1.391 . S
C2179 C2178 1.386 . S
C2179 C2183 1.393 . S
C2180 H2169 0.950 . S
C2180 C2178 1.391 . S
C2180 C2181 1.400 . S
C2181 C2175 1.491 . S
C2181 C2180 1.400 . S
C2181 C2182 1.398 . S
C2182 H2170 0.950 . S
C2182 C2181 1.398 . S
C2182 C2183 1.391 . S
C2183 H2171 0.950 . S
C2183 C2179 1.393 . S
C2183 C2182 1.391 . S
H2184 C2192 0.950 . S
H2185 C2197 0.950 . S
H2186 C2194 0.950 . S
H2187 C2196 0.950 . S
H2188 C2198 0.950 . S
H2189 C2200 0.950 . S
H2190 C2202 0.950 . S
H2191 C2203 0.950 . S
C2192 H2184 0.950 . S
C2192 C2193 1.386 . S
C2192 C2194 1.391 . S
C2193 C2192 1.386 . S
C2193 C2197 1.393 . S
C2194 H2186 0.950 . S
C2194 C2192 1.391 . S
C2194 C2195 1.400 . S
C2195 C2194 1.400 . S
C2195 C2196 1.398 . S
C2195 C2201 1.491 . S
C2196 H2187 0.950 . S
C2196 C2195 1.398 . S
C2196 C2197 1.391 . S
C2197 H2185 0.950 . S
C2197 C2193 1.393 . S
C2197 C2196 1.391 . S
C2198 H2188 0.950 . S
C2198 C2199 1.386 . S
C2198 C2200 1.391 . S
C2199 C2198 1.386 . S
C2199 C2203 1.393 . S
C2200 H2189 0.950 . S
C2200 C2198 1.391 . S
C2200 C2201 1.400 . S
C2201 C2195 1.491 . S
C2201 C2200 1.400 . S
C2201 C2202 1.398 . S
C2202 H2190 0.950 . S
C2202 C2201 1.398 . S
C2202 C2203 1.391 . S
C2203 H2191 0.950 . S
C2203 C2199 1.393 . S
C2203 C2202 1.391 . S
H2204 C2212 0.950 . S
H2205 C2217 0.950 . S
H2206 C2214 0.950 . S
H2207 C2216 0.950 . S
H2208 C2218 0.950 . S
H2209 C2220 0.950 . S
H2210 C2222 0.950 . S
H2211 C2223 0.950 . S
C2212 H2204 0.950 . S
C2212 C2213 1.386 . S
C2212 C2214 1.391 . S
C2213 C2212 1.386 . S
C2213 C2217 1.393 . S
C2214 H2206 0.950 . S
C2214 C2212 1.391 . S
C2214 C2215 1.400 . S
C2215 C2214 1.400 . S
C2215 C2216 1.398 . S
C2215 C2221 1.491 . S
C2216 H2207 0.950 . S
C2216 C2215 1.398 . S
C2216 C2217 1.391 . S
C2217 H2205 0.950 . S
C2217 C2213 1.393 . S
C2217 C2216 1.391 . S
C2218 H2208 0.950 . S
C2218 C2219 1.386 . S
C2218 C2220 1.391 . S
C2219 C2218 1.386 . S
C2219 C2223 1.393 . S
C2220 H2209 0.950 . S
C2220 C2218 1.391 . S
C2220 C2221 1.400 . S
C2221 C2215 1.491 . S
C2221 C2220 1.400 . S
C2221 C2222 1.398 . S
C2222 H2210 0.950 . S
C2222 C2221 1.398 . S
C2222 C2223 1.391 . S
C2223 H2211 0.950 . S
C2223 C2219 1.393 . S
C2223 C2222 1.391 . S
H2224 C2232 0.950 . S
H2225 C2237 0.950 . S
H2226 C2234 0.950 . S
H2227 C2236 0.950 . S
H2228 C2238 0.950 . S
H2229 C2240 0.950 . S
H2230 C2242 0.950 . S
H2231 C2243 0.950 . S
C2232 H2224 0.950 . S
C2232 C2233 1.386 . S
C2232 C2234 1.391 . S
C2233 C2232 1.386 . S
C2233 C2237 1.393 . S
C2234 H2226 0.950 . S
C2234 C2232 1.391 . S
C2234 C2235 1.400 . S
C2235 C2234 1.400 . S
C2235 C2236 1.398 . S
C2235 C2241 1.491 . S
C2236 H2227 0.950 . S
C2236 C2235 1.398 . S
C2236 C2237 1.391 . S
C2237 H2225 0.950 . S
C2237 C2233 1.393 . S
C2237 C2236 1.391 . S
C2238 H2228 0.950 . S
C2238 C2239 1.386 . S
C2238 C2240 1.391 . S
C2239 C2238 1.386 . S
C2239 C2243 1.393 . S
C2240 H2229 0.950 . S
C2240 C2238 1.391 . S
C2240 C2241 1.400 . S
C2241 C2235 1.491 . S
C2241 C2240 1.400 . S
C2241 C2242 1.398 . S
C2242 H2230 0.950 . S
C2242 C2241 1.398 . S
C2242 C2243 1.391 . S
C2243 H2231 0.950 . S
C2243 C2239 1.393 . S
C2243 C2242 1.391 . S
H2244 C2252 0.950 . S
H2245 C2257 0.950 . S
H2246 C2254 0.950 . S
H2247 C2256 0.950 . S
H2248 C2258 0.950 . S
H2249 C2260 0.950 . S
H2250 C2262 0.950 . S
H2251 C2263 0.950 . S
C2252 H2244 0.950 . S
C2252 C2253 1.386 . S
C2252 C2254 1.391 . S
C2253 C2252 1.386 . S
C2253 C2257 1.393 . S
C2254 H2246 0.950 . S
C2254 C2252 1.391 . S
C2254 C2255 1.400 . S
C2255 C2254 1.400 . S
C2255 C2256 1.398 . S
C2255 C2261 1.491 . S
C2256 H2247 0.950 . S
C2256 C2255 1.398 . S
C2256 C2257 1.391 . S
C2257 H2245 0.950 . S
C2257 C2253 1.393 . S
C2257 C2256 1.391 . S
C2258 H2248 0.950 . S
C2258 C2259 1.386 . S
C2258 C2260 1.391 . S
C2259 C2258 1.386 . S
C2259 C2263 1.393 . S
C2260 H2249 0.950 . S
C2260 C2258 1.391 . S
C2260 C2261 1.400 . S
C2261 C2255 1.491 . S
C2261 C2260 1.400 . S
C2261 C2262 1.398 . S
C2262 H2250 0.950 . S
C2262 C2261 1.398 . S
C2262 C2263 1.391 . S
C2263 H2251 0.950 . S
C2263 C2259 1.393 . S
C2263 C2262 1.391 . S
H2264 C2272 0.950 . S
H2265 C2277 0.950 . S
H2266 C2274 0.950 . S
H2267 C2276 0.950 . S
H2268 C2278 0.950 . S
H2269 C2280 0.950 . S
H2270 C2282 0.950 . S
H2271 C2283 0.950 . S
C2272 H2264 0.950 . S
C2272 C2273 1.386 . S
C2272 C2274 1.391 . S
C2273 C2272 1.386 . S
C2273 C2277 1.393 . S
C2274 H2266 0.950 . S
C2274 C2272 1.391 . S
C2274 C2275 1.400 . S
C2275 C2274 1.400 . S
C2275 C2276 1.398 . S
C2275 C2281 1.491 . S
C2276 H2267 0.950 . S
C2276 C2275 1.398 . S
C2276 C2277 1.391 . S
C2277 H2265 0.950 . S
C2277 C2273 1.393 . S
C2277 C2276 1.391 . S
C2278 H2268 0.950 . S
C2278 C2279 1.386 . S
C2278 C2280 1.391 . S
C2279 C2278 1.386 . S
C2279 C2283 1.393 . S
C2280 H2269 0.950 . S
C2280 C2278 1.391 . S
C2280 C2281 1.400 . S
C2281 C2275 1.491 . S
C2281 C2280 1.400 . S
C2281 C2282 1.398 . S
C2282 H2270 0.950 . S
C2282 C2281 1.398 . S
C2282 C2283 1.391 . S
C2283 H2271 0.950 . S
C2283 C2279 1.393 . S
C2283 C2282 1.391 . S
H2284 C2292 0.950 . S
H2285 C2297 0.950 . S
H2286 C2294 0.950 . S
H2287 C2296 0.950 . S
H2288 C2298 0.950 . S
H2289 C2300 0.950 . S
H2290 C2302 0.950 . S
H2291 C2303 0.950 . S
C2292 H2284 0.950 . S
C2292 C2293 1.386 . S
C2292 C2294 1.391 . S
C2293 C2292 1.386 . S
C2293 C2297 1.393 . S
C2294 H2286 0.950 . S
C2294 C2292 1.391 . S
C2294 C2295 1.400 . S
C2295 C2294 1.400 . S
C2295 C2296 1.398 . S
C2295 C2301 1.491 . S
C2296 H2287 0.950 . S
C2296 C2295 1.398 . S
C2296 C2297 1.391 . S
C2297 H2285 0.950 . S
C2297 C2293 1.393 . S
C2297 C2296 1.391 . S
C2298 H2288 0.950 . S
C2298 C2299 1.386 . S
C2298 C2300 1.391 . S
C2299 C2298 1.386 . S
C2299 C2303 1.393 . S
C2300 H2289 0.950 . S
C2300 C2298 1.391 . S
C2300 C2301 1.400 . S
C2301 C2295 1.491 . S
C2301 C2300 1.400 . S
C2301 C2302 1.398 . S
C2302 H2290 0.950 . S
C2302 C2301 1.398 . S
C2302 C2303 1.391 . S
C2303 H2291 0.950 . S
C2303 C2299 1.393 . S
C2303 C2302 1.391 . S
H2304 C2312 0.950 . S
H2305 C2317 0.950 . S
H2306 C2314 0.950 . S
H2307 C2316 0.950 . S
H2308 C2318 0.950 . S
H2309 C2320 0.950 . S
H2310 C2322 0.950 . S
H2311 C2323 0.950 . S
C2312 H2304 0.950 . S
C2312 C2313 1.386 . S
C2312 C2314 1.391 . S
C2313 C2312 1.386 . S
C2313 C2317 1.393 . S
C2314 H2306 0.950 . S
C2314 C2312 1.391 . S
C2314 C2315 1.400 . S
C2315 C2314 1.400 . S
C2315 C2316 1.398 . S
C2315 C2321 1.491 . S
C2316 H2307 0.950 . S
C2316 C2315 1.398 . S
C2316 C2317 1.391 . S
C2317 H2305 0.950 . S
C2317 C2313 1.393 . S
C2317 C2316 1.391 . S
C2318 H2308 0.950 . S
C2318 C2319 1.386 . S
C2318 C2320 1.391 . S
C2319 C2318 1.386 . S
C2319 C2323 1.393 . S
C2320 H2309 0.950 . S
C2320 C2318 1.391 . S
C2320 C2321 1.400 . S
C2321 C2315 1.491 . S
C2321 C2320 1.400 . S
C2321 C2322 1.398 . S
C2322 H2310 0.950 . S
C2322 C2321 1.398 . S
C2322 C2323 1.391 . S
C2323 H2311 0.950 . S
C2323 C2319 1.393 . S
C2323 C2322 1.391 . S
H2324 C2332 0.950 . S
H2325 C2337 0.950 . S
H2326 C2334 0.950 . S
H2327 C2336 0.950 . S
H2328 C2338 0.950 . S
H2329 C2340 0.950 . S
H2330 C2342 0.950 . S
H2331 C2343 0.950 . S
C2332 H2324 0.950 . S
C2332 C2333 1.386 . S
C2332 C2334 1.391 . S
C2333 C2332 1.386 . S
C2333 C2337 1.393 . S
C2334 H2326 0.950 . S
C2334 C2332 1.391 . S
C2334 C2335 1.400 . S
C2335 C2334 1.400 . S
C2335 C2336 1.398 . S
C2335 C2341 1.491 . S
C2336 H2327 0.950 . S
C2336 C2335 1.398 . S
C2336 C2337 1.391 . S
C2337 H2325 0.950 . S
C2337 C2333 1.393 . S
C2337 C2336 1.391 . S
C2338 H2328 0.950 . S
C2338 C2339 1.386 . S
C2338 C2340 1.391 . S
C2339 C2338 1.386 . S
C2339 C2343 1.393 . S
C2340 H2329 0.950 . S
C2340 C2338 1.391 . S
C2340 C2341 1.400 . S
C2341 C2335 1.491 . S
C2341 C2340 1.400 . S
C2341 C2342 1.398 . S
C2342 H2330 0.950 . S
C2342 C2341 1.398 . S
C2342 C2343 1.391 . S
C2343 H2331 0.950 . S
C2343 C2339 1.393 . S
C2343 C2342 1.391 . S
H2344 C2352 0.950 . S
H2345 C2357 0.950 . S
H2346 C2354 0.950 . S
H2347 C2356 0.950 . S
H2348 C2358 0.950 . S
H2349 C2360 0.950 . S
H2350 C2362 0.950 . S
H2351 C2363 0.950 . S
C2352 H2344 0.950 . S
C2352 C2353 1.386 . S
C2352 C2354 1.391 . S
C2353 C2352 1.386 . S
C2353 C2357 1.393 . S
C2354 H2346 0.950 . S
C2354 C2352 1.391 . S
C2354 C2355 1.400 . S
C2355 C2354 1.400 . S
C2355 C2356 1.398 . S
C2355 C2361 1.491 . S
C2356 H2347 0.950 . S
C2356 C2355 1.398 . S
C2356 C2357 1.391 . S
C2357 H2345 0.950 . S
C2357 C2353 1.393 . S
C2357 C2356 1.391 . S
C2358 H2348 0.950 . S
C2358 C2359 1.386 . S
C2358 C2360 1.391 . S
C2359 C2358 1.386 . S
C2359 C2363 1.393 . S
C2360 H2349 0.950 . S
C2360 C2358 1.391 . S
C2360 C2361 1.400 . S
C2361 C2355 1.491 . S
C2361 C2360 1.400 . S
C2361 C2362 1.398 . S
C2362 H2350 0.950 . S
C2362 C2361 1.398 . S
C2362 C2363 1.391 . S
C2363 H2351 0.950 . S
C2363 C2359 1.393 . S
C2363 C2362 1.391 . S
H2364 C2372 0.950 . S
H2365 C2377 0.950 . S
H2366 C2374 0.950 . S
H2367 C2376 0.950 . S
H2368 C2378 0.950 . S
H2369 C2380 0.950 . S
H2370 C2382 0.950 . S
H2371 C2383 0.950 . S
C2372 H2364 0.950 . S
C2372 C2373 1.386 . S
C2372 C2374 1.391 . S
C2373 C2372 1.386 . S
C2373 C2377 1.393 . S
C2374 H2366 0.950 . S
C2374 C2372 1.391 . S
C2374 C2375 1.400 . S
C2375 C2374 1.400 . S
C2375 C2376 1.398 . S
C2375 C2381 1.491 . S
C2376 H2367 0.950 . S
C2376 C2375 1.398 . S
C2376 C2377 1.391 . S
C2377 H2365 0.950 . S
C2377 C2373 1.393 . S
C2377 C2376 1.391 . S
C2378 H2368 0.950 . S
C2378 C2379 1.386 . S
C2378 C2380 1.391 . S
C2379 C2378 1.386 . S
C2379 C2383 1.393 . S
C2380 H2369 0.950 . S
C2380 C2378 1.391 . S
C2380 C2381 1.400 . S
C2381 C2375 1.491 . S
C2381 C2380 1.400 . S
C2381 C2382 1.398 . S
C2382 H2370 0.950 . S
C2382 C2381 1.398 . S
C2382 C2383 1.391 . S
C2383 H2371 0.950 . S
C2383 C2379 1.393 . S
C2383 C2382 1.391 . S
H2384 C2392 0.950 . S
H2385 C2397 0.950 . S
H2386 C2394 0.950 . S
H2387 C2396 0.950 . S
H2388 C2398 0.950 . S
H2389 C2400 0.950 . S
H2390 C2402 0.950 . S
H2391 C2403 0.950 . S
C2392 H2384 0.950 . S
C2392 C2393 1.386 . S
C2392 C2394 1.391 . S
C2393 C2392 1.386 . S
C2393 C2397 1.393 . S
C2394 H2386 0.950 . S
C2394 C2392 1.391 . S
C2394 C2395 1.400 . S
C2395 C2394 1.400 . S
C2395 C2396 1.398 . S
C2395 C2401 1.491 . S
C2396 H2387 0.950 . S
C2396 C2395 1.398 . S
C2396 C2397 1.391 . S
C2397 H2385 0.950 . S
C2397 C2393 1.393 . S
C2397 C2396 1.391 . S
C2398 H2388 0.950 . S
C2398 C2399 1.386 . S
C2398 C2400 1.391 . S
C2399 C2398 1.386 . S
C2399 C2403 1.393 . S
C2400 H2389 0.950 . S
C2400 C2398 1.391 . S
C2400 C2401 1.400 . S
C2401 C2395 1.491 . S
C2401 C2400 1.400 . S
C2401 C2402 1.398 . S
C2402 H2390 0.950 . S
C2402 C2401 1.398 . S
C2402 C2403 1.391 . S
C2403 H2391 0.950 . S
C2403 C2399 1.393 . S
C2403 C2402 1.391 . S
H2404 C2412 0.950 . S
H2405 C2417 0.950 . S
H2406 C2414 0.950 . S
H2407 C2416 0.950 . S
H2408 C2418 0.950 . S
H2409 C2420 0.950 . S
H2410 C2422 0.950 . S
H2411 C2423 0.950 . S
C2412 H2404 0.950 . S
C2412 C2413 1.386 . S
C2412 C2414 1.391 . S
C2413 C2412 1.386 . S
C2413 C2417 1.393 . S
C2414 H2406 0.950 . S
C2414 C2412 1.391 . S
C2414 C2415 1.400 . S
C2415 C2414 1.400 . S
C2415 C2416 1.398 . S
C2415 C2421 1.491 . S
C2416 H2407 0.950 . S
C2416 C2415 1.398 . S
C2416 C2417 1.391 . S
C2417 H2405 0.950 . S
C2417 C2413 1.393 . S
C2417 C2416 1.391 . S
C2418 H2408 0.950 . S
C2418 C2419 1.386 . S
C2418 C2420 1.391 . S
C2419 C2418 1.386 . S
C2419 C2423 1.393 . S
C2420 H2409 0.950 . S
C2420 C2418 1.391 . S
C2420 C2421 1.400 . S
C2421 C2415 1.491 . S
C2421 C2420 1.400 . S
C2421 C2422 1.398 . S
C2422 H2410 0.950 . S
C2422 C2421 1.398 . S
C2422 C2423 1.391 . S
C2423 H2411 0.950 . S
C2423 C2419 1.393 . S
C2423 C2422 1.391 . S
H2424 C2432 0.950 . S
H2425 C2437 0.950 . S
H2426 C2434 0.950 . S
H2427 C2436 0.950 . S
H2428 C2438 0.950 . S
H2429 C2440 0.950 . S
H2430 C2442 0.950 . S
H2431 C2443 0.950 . S
C2432 H2424 0.950 . S
C2432 C2433 1.386 . S
C2432 C2434 1.391 . S
C2433 C2432 1.386 . S
C2433 C2437 1.393 . S
C2434 H2426 0.950 . S
C2434 C2432 1.391 . S
C2434 C2435 1.400 . S
C2435 C2434 1.400 . S
C2435 C2436 1.398 . S
C2435 C2441 1.491 . S
C2436 H2427 0.950 . S
C2436 C2435 1.398 . S
C2436 C2437 1.391 . S
C2437 H2425 0.950 . S
C2437 C2433 1.393 . S
C2437 C2436 1.391 . S
C2438 H2428 0.950 . S
C2438 C2439 1.386 . S
C2438 C2440 1.391 . S
C2439 C2438 1.386 . S
C2439 C2443 1.393 . S
C2440 H2429 0.950 . S
C2440 C2438 1.391 . S
C2440 C2441 1.400 . S
C2441 C2435 1.491 . S
C2441 C2440 1.400 . S
C2441 C2442 1.398 . S
C2442 H2430 0.950 . S
C2442 C2441 1.398 . S
C2442 C2443 1.391 . S
C2443 H2431 0.950 . S
C2443 C2439 1.393 . S
C2443 C2442 1.391 . S
H2444 C2452 0.950 . S
H2445 C2457 0.950 . S
H2446 C2454 0.950 . S
H2447 C2456 0.950 . S
H2448 C2458 0.950 . S
H2449 C2460 0.950 . S
H2450 C2462 0.950 . S
H2451 C2463 0.950 . S
C2452 H2444 0.950 . S
C2452 C2453 1.386 . S
C2452 C2454 1.391 . S
C2453 C2452 1.386 . S
C2453 C2457 1.393 . S
C2454 H2446 0.950 . S
C2454 C2452 1.391 . S
C2454 C2455 1.400 . S
C2455 C2454 1.400 . S
C2455 C2456 1.398 . S
C2455 C2461 1.491 . S
C2456 H2447 0.950 . S
C2456 C2455 1.398 . S
C2456 C2457 1.391 . S
C2457 H2445 0.950 . S
C2457 C2453 1.393 . S
C2457 C2456 1.391 . S
C2458 H2448 0.950 . S
C2458 C2459 1.386 . S
C2458 C2460 1.391 . S
C2459 C2458 1.386 . S
C2459 C2463 1.393 . S
C2460 H2449 0.950 . S
C2460 C2458 1.391 . S
C2460 C2461 1.400 . S
C2461 C2455 1.491 . S
C2461 C2460 1.400 . S
C2461 C2462 1.398 . S
C2462 H2450 0.950 . S
C2462 C2461 1.398 . S
C2462 C2463 1.391 . S
C2463 H2451 0.950 . S
C2463 C2459 1.393 . S
C2463 C2462 1.391 . S
H2464 C2472 0.950 . S
H2465 C2477 0.950 . S
H2466 C2474 0.950 . S
H2467 C2476 0.950 . S
H2468 C2478 0.950 . S
H2469 C2480 0.950 . S
H2470 C2482 0.950 . S
H2471 C2483 0.950 . S
C2472 H2464 0.950 . S
C2472 C2473 1.386 . S
C2472 C2474 1.391 . S
C2473 C2472 1.386 . S
C2473 C2477 1.393 . S
C2474 H2466 0.950 . S
C2474 C2472 1.391 . S
C2474 C2475 1.400 . S
C2475 C2474 1.400 . S
C2475 C2476 1.398 . S
C2475 C2481 1.491 . S
C2476 H2467 0.950 . S
C2476 C2475 1.398 . S
C2476 C2477 1.391 . S
C2477 H2465 0.950 . S
C2477 C2473 1.393 . S
C2477 C2476 1.391 . S
C2478 H2468 0.950 . S
C2478 C2479 1.386 . S
C2478 C2480 1.391 . S
C2479 C2478 1.386 . S
C2479 C2483 1.393 . S
C2480 H2469 0.950 . S
C2480 C2478 1.391 . S
C2480 C2481 1.400 . S
C2481 C2475 1.491 . S
C2481 C2480 1.400 . S
C2481 C2482 1.398 . S
C2482 H2470 0.950 . S
C2482 C2481 1.398 . S
C2482 C2483 1.391 . S
C2483 H2471 0.950 . S
C2483 C2479 1.393 . S
C2483 C2482 1.391 . S
H2484 C2492 0.950 . S
H2485 C2497 0.950 . S
H2486 C2494 0.950 . S
H2487 C2496 0.950 . S
H2488 C2498 0.950 . S
H2489 C2500 0.950 . S
H2490 C2502 0.950 . S
H2491 C2503 0.950 . S
C2492 H2484 0.950 . S
C2492 C2493 1.386 . S
C2492 C2494 1.391 . S
C2493 C2492 1.386 . S
C2493 C2497 1.393 . S
C2494 H2486 0.950 . S
C2494 C2492 1.391 . S
C2494 C2495 1.400 . S
C2495 C2494 1.400 . S
C2495 C2496 1.398 . S
C2495 C2501 1.491 . S
C2496 H2487 0.950 . S
C2496 C2495 1.398 . S
C2496 C2497 1.391 . S
C2497 H2485 0.950 . S
C2497 C2493 1.393 . S
C2497 C2496 1.391 . S
C2498 H2488 0.950 . S
C2498 C2499 1.386 . S
C2498 C2500 1.391 . S
C2499 C2498 1.386 . S
C2499 C2503 1.393 . S
C2500 H2489 0.950 . S
C2500 C2498 1.391 . S
C2500 C2501 1.400 . S
C2501 C2495 1.491 . S
C2501 C2500 1.400 . S
C2501 C2502 1.398 . S
C2502 H2490 0.950 . S
C2502 C2501 1.398 . S
C2502 C2503 1.391 . S
C2503 H2491 0.950 . S
C2503 C2499 1.393 . S
C2503 C2502 1.391 . S
H2504 C2512 0.950 . S
H2505 C2517 0.950 . S
H2506 C2514 0.950 . S
H2507 C2516 0.950 . S
H2508 C2518 0.950 . S
H2509 C2520 0.950 . S
H2510 C2522 0.950 . S
H2511 C2523 0.950 . S
C2512 H2504 0.950 . S
C2512 C2513 1.386 . S
C2512 C2514 1.391 . S
C2513 C2512 1.386 . S
C2513 C2517 1.393 . S
C2514 H2506 0.950 . S
C2514 C2512 1.391 . S
C2514 C2515 1.400 . S
C2515 C2514 1.400 . S
C2515 C2516 1.398 . S
C2515 C2521 1.491 . S
C2516 H2507 0.950 . S
C2516 C2515 1.398 . S
C2516 C2517 1.391 . S
C2517 H2505 0.950 . S
C2517 C2513 1.393 . S
C2517 C2516 1.391 . S
C2518 H2508 0.950 . S
C2518 C2519 1.386 . S
C2518 C2520 1.391 . S
C2519 C2518 1.386 . S
C2519 C2523 1.393 . S
C2520 H2509 0.950 . S
C2520 C2518 1.391 . S
C2520 C2521 1.400 . S
C2521 C2515 1.491 . S
C2521 C2520 1.400 . S
C2521 C2522 1.398 . S
C2522 H2510 0.950 . S
C2522 C2521 1.398 . S
C2522 C2523 1.391 . S
C2523 H2511 0.950 . S
C2523 C2519 1.393 . S
C2523 C2522 1.391 . S
H2524 C2532 0.950 . S
H2525 C2537 0.950 . S
H2526 C2534 0.950 . S
H2527 C2536 0.950 . S
H2528 C2538 0.950 . S
H2529 C2540 0.950 . S
H2530 C2542 0.950 . S
H2531 C2543 0.950 . S
C2532 H2524 0.950 . S
C2532 C2533 1.386 . S
C2532 C2534 1.391 . S
C2533 C2532 1.386 . S
C2533 C2537 1.393 . S
C2534 H2526 0.950 . S
C2534 C2532 1.391 . S
C2534 C2535 1.400 . S
C2535 C2534 1.400 . S
C2535 C2536 1.398 . S
C2535 C2541 1.491 . S
C2536 H2527 0.950 . S
C2536 C2535 1.398 . S
C2536 C2537 1.391 . S
C2537 H2525 0.950 . S
C2537 C2533 1.393 . S
C2537 C2536 1.391 . S
C2538 H2528 0.950 . S
C2538 C2539 1.386 . S
C2538 C2540 1.391 . S
C2539 C2538 1.386 . S
C2539 C2543 1.393 . S
C2540 H2529 0.950 . S
C2540 C2538 1.391 . S
C2540 C2541 1.400 . S
C2541 C2535 1.491 . S
C2541 C2540 1.400 . S
C2541 C2542 1.398 . S
C2542 H2530 0.950 . S
C2542 C2541 1.398 . S
C2542 C2543 1.391 . S
C2543 H2531 0.950 . S
C2543 C2539 1.393 . S
C2543 C2542 1.391 . S
H2544 C2552 0.950 . S
H2545 C2557 0.950 . S
H2546 C2554 0.950 . S
H2547 C2556 0.950 . S
H2548 C2558 0.950 . S
H2549 C2560 0.950 . S
H2550 C2562 0.950 . S
H2551 C2563 0.950 . S
C2552 H2544 0.950 . S
C2552 C2553 1.386 . S
C2552 C2554 1.391 . S
C2553 C2552 1.386 . S
C2553 C2557 1.393 . S
C2554 H2546 0.950 . S
C2554 C2552 1.391 . S
C2554 C2555 1.400 . S
C2555 C2554 1.400 . S
C2555 C2556 1.398 . S
C2555 C2561 1.491 . S
C2556 H2547 0.950 . S
C2556 C2555 1.398 . S
C2556 C2557 1.391 . S
C2557 H2545 0.950 . S
C2557 C2553 1.393 . S
C2557 C2556 1.391 . S
C2558 H2548 0.950 . S
C2558 C2559 1.386 . S
C2558 C2560 1.391 . S
C2559 C2558 1.386 . S
C2559 C2563 1.393 . S
C2560 H2549 0.950 . S
C2560 C2558 1.391 . S
C2560 C2561 1.400 . S
C2561 C2555 1.491 . S
C2561 C2560 1.400 . S
C2561 C2562 1.398 . S
C2562 H2550 0.950 . S
C2562 C2561 1.398 . S
C2562 C2563 1.391 . S
C2563 H2551 0.950 . S
C2563 C2559 1.393 . S
C2563 C2562 1.391 . S
H2564 C2572 0.950 . S
H2565 C2577 0.950 . S
H2566 C2574 0.950 . S
H2567 C2576 0.950 . S
H2568 C2578 0.950 . S
H2569 C2580 0.950 . S
H2570 C2582 0.950 . S
H2571 C2583 0.950 . S
C2572 H2564 0.950 . S
C2572 C2573 1.386 . S
C2572 C2574 1.391 . S
C2573 C2572 1.386 . S
C2573 C2577 1.393 . S
C2574 H2566 0.950 . S
C2574 C2572 1.391 . S
C2574 C2575 1.400 . S
C2575 C2574 1.400 . S
C2575 C2576 1.398 . S
C2575 C2581 1.491 . S
C2576 H2567 0.950 . S
C2576 C2575 1.398 . S
C2576 C2577 1.391 . S
C2577 H2565 0.950 . S
C2577 C2573 1.393 . S
C2577 C2576 1.391 . S
C2578 H2568 0.950 . S
C2578 C2579 1.386 . S
C2578 C2580 1.391 . S
C2579 C2578 1.386 . S
C2579 C2583 1.393 . S
C2580 H2569 0.950 . S
C2580 C2578 1.391 . S
C2580 C2581 1.400 . S
C2581 C2575 1.491 . S
C2581 C2580 1.400 . S
C2581 C2582 1.398 . S
C2582 H2570 0.950 . S
C2582 C2581 1.398 . S
C2582 C2583 1.391 . S
C2583 H2571 0.950 . S
C2583 C2579 1.393 . S
C2583 C2582 1.391 . S
H2584 C2592 0.950 . S
H2585 C2597 0.950 . S
H2586 C2594 0.950 . S
H2587 C2596 0.950 . S
H2588 C2598 0.950 . S
H2589 C2600 0.950 . S
H2590 C2602 0.950 . S
H2591 C2603 0.950 . S
C2592 H2584 0.950 . S
C2592 C2593 1.386 . S
C2592 C2594 1.391 . S
C2593 C2592 1.386 . S
C2593 C2597 1.393 . S
C2594 H2586 0.950 . S
C2594 C2592 1.391 . S
C2594 C2595 1.400 . S
C2595 C2594 1.400 . S
C2595 C2596 1.398 . S
C2595 C2601 1.491 . S
C2596 H2587 0.950 . S
C2596 C2595 1.398 . S
C2596 C2597 1.391 . S
C2597 H2585 0.950 . S
C2597 C2593 1.393 . S
C2597 C2596 1.391 . S
C2598 H2588 0.950 . S
C2598 C2599 1.386 . S
C2598 C2600 1.391 . S
C2599 C2598 1.386 . S
C2599 C2603 1.393 . S
C2600 H2589 0.950 . S
C2600 C2598 1.391 . S
C2600 C2601 1.400 . S
C2601 C2595 1.491 . S
C2601 C2600 1.400 . S
C2601 C2602 1.398 . S
C2602 H2590 0.950 . S
C2602 C2601 1.398 . S
C2602 C2603 1.391 . S
C2603 H2591 0.950 . S
C2603 C2599 1.393 . S
C2603 C2602 1.391 . S
H2604 C2612 0.950 . S
H2605 C2617 0.950 . S
H2606 C2614 0.950 . S
H2607 C2616 0.950 . S
H2608 C2618 0.950 . S
H2609 C2620 0.950 . S
H2610 C2622 0.950 . S
H2611 C2623 0.950 . S
C2612 H2604 0.950 . S
C2612 C2613 1.386 . S
C2612 C2614 1.391 . S
C2613 C2612 1.386 . S
C2613 C2617 1.393 . S
C2614 H2606 0.950 . S
C2614 C2612 1.391 . S
C2614 C2615 1.400 . S
C2615 C2614 1.400 . S
C2615 C2616 1.398 . S
C2615 C2621 1.491 . S
C2616 H2607 0.950 . S
C2616 C2615 1.398 . S
C2616 C2617 1.391 . S
C2617 H2605 0.950 . S
C2617 C2613 1.393 . S
C2617 C2616 1.391 . S
C2618 H2608 0.950 . S
C2618 C2619 1.386 . S
C2618 C2620 1.391 . S
C2619 C2618 1.386 . S
C2619 C2623 1.393 . S
C2620 H2609 0.950 . S
C2620 C2618 1.391 . S
C2620 C2621 1.400 . S
C2621 C2615 1.491 . S
C2621 C2620 1.400 . S
C2621 C2622 1.398 . S
C2622 H2610 0.950 . S
C2622 C2621 1.398 . S
C2622 C2623 1.391 . S
C2623 H2611 0.950 . S
C2623 C2619 1.393 . S
C2623 C2622 1.391 . S
H2624 C2632 0.950 . S
H2625 C2637 0.950 . S
H2626 C2634 0.950 . S
H2627 C2636 0.950 . S
H2628 C2638 0.950 . S
H2629 C2640 0.950 . S
H2630 C2642 0.950 . S
H2631 C2643 0.950 . S
C2632 H2624 0.950 . S
C2632 C2633 1.386 . S
C2632 C2634 1.391 . S
C2633 C2632 1.386 . S
C2633 C2637 1.393 . S
C2634 H2626 0.950 . S
C2634 C2632 1.391 . S
C2634 C2635 1.400 . S
C2635 C2634 1.400 . S
C2635 C2636 1.398 . S
C2635 C2641 1.491 . S
C2636 H2627 0.950 . S
C2636 C2635 1.398 . S
C2636 C2637 1.391 . S
C2637 H2625 0.950 . S
C2637 C2633 1.393 . S
C2637 C2636 1.391 . S
C2638 H2628 0.950 . S
C2638 C2639 1.386 . S
C2638 C2640 1.391 . S
C2639 C2638 1.386 . S
C2639 C2643 1.393 . S
C2640 H2629 0.950 . S
C2640 C2638 1.391 . S
C2640 C2641 1.400 . S
C2641 C2635 1.491 . S
C2641 C2640 1.400 . S
C2641 C2642 1.398 . S
C2642 H2630 0.950 . S
C2642 C2641 1.398 . S
C2642 C2643 1.391 . S
C2643 H2631 0.950 . S
C2643 C2639 1.393 . S
C2643 C2642 1.391 . S
H2644 C2652 0.950 . S
H2645 C2657 0.950 . S
H2646 C2654 0.950 . S
H2647 C2656 0.950 . S
H2648 C2658 0.950 . S
H2649 C2660 0.950 . S
H2650 C2662 0.950 . S
H2651 C2663 0.950 . S
C2652 H2644 0.950 . S
C2652 C2653 1.386 . S
C2652 C2654 1.391 . S
C2653 C2652 1.386 . S
C2653 C2657 1.393 . S
C2654 H2646 0.950 . S
C2654 C2652 1.391 . S
C2654 C2655 1.400 . S
C2655 C2654 1.400 . S
C2655 C2656 1.398 . S
C2655 C2661 1.491 . S
C2656 H2647 0.950 . S
C2656 C2655 1.398 . S
C2656 C2657 1.391 . S
C2657 H2645 0.950 . S
C2657 C2653 1.393 . S
C2657 C2656 1.391 . S
C2658 H2648 0.950 . S
C2658 C2659 1.386 . S
C2658 C2660 1.391 . S
C2659 C2658 1.386 . S
C2659 C2663 1.393 . S
C2660 H2649 0.950 . S
C2660 C2658 1.391 . S
C2660 C2661 1.400 . S
C2661 C2655 1.491 . S
C2661 C2660 1.400 . S
C2661 C2662 1.398 . S
C2662 H2650 0.950 . S
C2662 C2661 1.398 . S
C2662 C2663 1.391 . S
C2663 H2651 0.950 . S
C2663 C2659 1.393 . S
C2663 C2662 1.391 . S
H2664 C2672 0.950 . S
H2665 C2677 0.950 . S
H2666 C2674 0.950 . S
H2667 C2676 0.950 . S
H2668 C2678 0.950 . S
H2669 C2680 0.950 . S
H2670 C2682 0.950 . S
H2671 C2683 0.950 . S
C2672 H2664 0.950 . S
C2672 C2673 1.386 . S
C2672 C2674 1.391 . S
C2673 C2672 1.386 . S
C2673 C2677 1.393 . S
C2674 H2666 0.950 . S
C2674 C2672 1.391 . S
C2674 C2675 1.400 . S
C2675 C2674 1.400 . S
C2675 C2676 1.398 . S
C2675 C2681 1.491 . S
C2676 H2667 0.950 . S
C2676 C2675 1.398 . S
C2676 C2677 1.391 . S
C2677 H2665 0.950 . S
C2677 C2673 1.393 . S
C2677 C2676 1.391 . S
C2678 H2668 0.950 . S
C2678 C2679 1.386 . S
C2678 C2680 1.391 . S
C2679 C2678 1.386 . S
C2679 C2683 1.393 . S
C2680 H2669 0.950 . S
C2680 C2678 1.391 . S
C2680 C2681 1.400 . S
C2681 C2675 1.491 . S
C2681 C2680 1.400 . S
C2681 C2682 1.398 . S
C2682 H2670 0.950 . S
C2682 C2681 1.398 . S
C2682 C2683 1.391 . S
C2683 H2671 0.950 . S
C2683 C2679 1.393 . S
C2683 C2682 1.391 . S
H2684 C2692 0.950 . S
H2685 C2697 0.950 . S
H2686 C2694 0.950 . S
H2687 C2696 0.950 . S
H2688 C2698 0.950 . S
H2689 C2700 0.950 . S
H2690 C2702 0.950 . S
H2691 C2703 0.950 . S
C2692 H2684 0.950 . S
C2692 C2693 1.386 . S
C2692 C2694 1.391 . S
C2693 C2692 1.386 . S
C2693 C2697 1.393 . S
C2694 H2686 0.950 . S
C2694 C2692 1.391 . S
C2694 C2695 1.400 . S
C2695 C2694 1.400 . S
C2695 C2696 1.398 . S
C2695 C2701 1.491 . S
C2696 H2687 0.950 . S
C2696 C2695 1.398 . S
C2696 C2697 1.391 . S
C2697 H2685 0.950 . S
C2697 C2693 1.393 . S
C2697 C2696 1.391 . S
C2698 H2688 0.950 . S
C2698 C2699 1.386 . S
C2698 C2700 1.391 . S
C2699 C2698 1.386 . S
C2699 C2703 1.393 . S
C2700 H2689 0.950 . S
C2700 C2698 1.391 . S
C2700 C2701 1.400 . S
C2701 C2695 1.491 . S
C2701 C2700 1.400 . S
C2701 C2702 1.398 . S
C2702 H2690 0.950 . S
C2702 C2701 1.398 . S
C2702 C2703 1.391 . S
C2703 H2691 0.950 . S
C2703 C2699 1.393 . S
C2703 C2702 1.391 . S
H2704 C2712 0.950 . S
H2705 C2717 0.950 . S
H2706 C2714 0.950 . S
H2707 C2716 0.950 . S
H2708 C2718 0.950 . S
H2709 C2720 0.950 . S
H2710 C2722 0.950 . S
H2711 C2723 0.950 . S
C2712 H2704 0.950 . S
C2712 C2713 1.386 . S
C2712 C2714 1.391 . S
C2713 C2712 1.386 . S
C2713 C2717 1.393 . S
C2714 H2706 0.950 . S
C2714 C2712 1.391 . S
C2714 C2715 1.400 . S
C2715 C2714 1.400 . S
C2715 C2716 1.398 . S
C2715 C2721 1.491 . S
C2716 H2707 0.950 . S
C2716 C2715 1.398 . S
C2716 C2717 1.391 . S
C2717 H2705 0.950 . S
C2717 C2713 1.393 . S
C2717 C2716 1.391 . S
C2718 H2708 0.950 . S
C2718 C2719 1.386 . S
C2718 C2720 1.391 . S
C2719 C2718 1.386 . S
C2719 C2723 1.393 . S
C2720 H2709 0.950 . S
C2720 C2718 1.391 . S
C2720 C2721 1.400 . S
C2721 C2715 1.491 . S
C2721 C2720 1.400 . S
C2721 C2722 1.398 . S
C2722 H2710 0.950 . S
C2722 C2721 1.398 . S
C2722 C2723 1.391 . S
C2723 H2711 0.950 . S
C2723 C2719 1.393 . S
C2723 C2722 1.391 . S
H2724 C2732 0.950 . S
H2725 C2737 0.950 . S
H2726 C2734 0.950 . S
H2727 C2736 0.950 . S
H2728 C2738 0.950 . S
H2729 C2740 0.950 . S
H2730 C2742 0.950 . S
H2731 C2743 0.950 . S
C2732 H2724 0.950 . S
C2732 C2733 1.386 . S
C2732 C2734 1.391 . S
C2733 C2732 1.386 . S
C2733 C2737 1.393 . S
C2734 H2726 0.950 . S
C2734 C2732 1.391 . S
C2734 C2735 1.400 . S
C2735 C2734 1.400 . S
C2735 C2736 1.398 . S
C2735 C2741 1.491 . S
C2736 H2727 0.950 . S
C2736 C2735 1.398 . S
C2736 C2737 1.391 . S
C2737 H2725 0.950 . S
C2737 C2733 1.393 . S
C2737 C2736 1.391 . S
C2738 H2728 0.950 . S
C2738 C2739 1.386 . S
C2738 C2740 1.391 . S
C2739 C2738 1.386 . S
C2739 C2743 1.393 . S
C2740 H2729 0.950 . S
C2740 C2738 1.391 . S
C2740 C2741 1.400 . S
C2741 C2735 1.491 . S
C2741 C2740 1.400 . S
C2741 C2742 1.398 . S
C2742 H2730 0.950 . S
C2742 C2741 1.398 . S
C2742 C2743 1.391 . S
C2743 H2731 0.950 . S
C2743 C2739 1.393 . S
C2743 C2742 1.391 . S
H2744 C2752 0.950 . S
H2745 C2757 0.950 . S
H2746 C2754 0.950 . S
H2747 C2756 0.950 . S
H2748 C2758 0.950 . S
H2749 C2760 0.950 . S
H2750 C2762 0.950 . S
H2751 C2763 0.950 . S
C2752 H2744 0.950 . S
C2752 C2753 1.386 . S
C2752 C2754 1.391 . S
C2753 C2752 1.386 . S
C2753 C2757 1.393 . S
C2754 H2746 0.950 . S
C2754 C2752 1.391 . S
C2754 C2755 1.400 . S
C2755 C2754 1.400 . S
C2755 C2756 1.398 . S
C2755 C2761 1.491 . S
C2756 H2747 0.950 . S
C2756 C2755 1.398 . S
C2756 C2757 1.391 . S
C2757 H2745 0.950 . S
C2757 C2753 1.393 . S
C2757 C2756 1.391 . S
C2758 H2748 0.950 . S
C2758 C2759 1.386 . S
C2758 C2760 1.391 . S
C2759 C2758 1.386 . S
C2759 C2763 1.393 . S
C2760 H2749 0.950 . S
C2760 C2758 1.391 . S
C2760 C2761 1.400 . S
C2761 C2755 1.491 . S
C2761 C2760 1.400 . S
C2761 C2762 1.398 . S
C2762 H2750 0.950 . S
C2762 C2761 1.398 . S
C2762 C2763 1.391 . S
C2763 H2751 0.950 . S
C2763 C2759 1.393 . S
C2763 C2762 1.391 . S
H2764 C2772 0.950 . S
H2765 C2777 0.950 . S
H2766 C2774 0.950 . S
H2767 C2776 0.950 . S
H2768 C2778 0.950 . S
H2769 C2780 0.950 . S
H2770 C2782 0.950 . S
H2771 C2783 0.950 . S
C2772 H2764 0.950 . S
C2772 C2773 1.386 . S
C2772 C2774 1.391 . S
C2773 C2772 1.386 . S
C2773 C2777 1.393 . S
C2774 H2766 0.950 . S
C2774 C2772 1.391 . S
C2774 C2775 1.400 . S
C2775 C2774 1.400 . S
C2775 C2776 1.398 . S
C2775 C2781 1.491 . S
C2776 H2767 0.950 . S
C2776 C2775 1.398 . S
C2776 C2777 1.391 . S
C2777 H2765 0.950 . S
C2777 C2773 1.393 . S
C2777 C2776 1.391 . S
C2778 H2768 0.950 . S
C2778 C2779 1.386 . S
C2778 C2780 1.391 . S
C2779 C2778 1.386 . S
C2779 C2783 1.393 . S
C2780 H2769 0.950 . S
C2780 C2778 1.391 . S
C2780 C2781 1.400 . S
C2781 C2775 1.491 . S
C2781 C2780 1.400 . S
C2781 C2782 1.398 . S
C2782 H2770 0.950 . S
C2782 C2781 1.398 . S
C2782 C2783 1.391 . S
C2783 H2771 0.950 . S
C2783 C2779 1.393 . S
C2783 C2782 1.391 . S
H2784 C2792 0.950 . S
H2785 C2797 0.950 . S
H2786 C2794 0.950 . S
H2787 C2796 0.950 . S
H2788 C2798 0.950 . S
H2789 C2800 0.950 . S
H2790 C2802 0.950 . S
H2791 C2803 0.950 . S
C2792 H2784 0.950 . S
C2792 C2793 1.386 . S
C2792 C2794 1.391 . S
C2793 C2792 1.386 . S
C2793 C2797 1.393 . S
C2794 H2786 0.950 . S
C2794 C2792 1.391 . S
C2794 C2795 1.400 . S
C2795 C2794 1.400 . S
C2795 C2796 1.398 . S
C2795 C2801 1.491 . S
C2796 H2787 0.950 . S
C2796 C2795 1.398 . S
C2796 C2797 1.391 . S
C2797 H2785 0.950 . S
C2797 C2793 1.393 . S
C2797 C2796 1.391 . S
C2798 H2788 0.950 . S
C2798 C2799 1.386 . S
C2798 C2800 1.391 . S
C2799 C2798 1.386 . S
C2799 C2803 1.393 . S
C2800 H2789 0.950 . S
C2800 C2798 1.391 . S
C2800 C2801 1.400 . S
C2801 C2795 1.491 . S
C2801 C2800 1.400 . S
C2801 C2802 1.398 . S
C2802 H2790 0.950 . S
C2802 C2801 1.398 . S
C2802 C2803 1.391 . S
C2803 H2791 0.950 . S
C2803 C2799 1.393 . S
C2803 C2802 1.391 . S
H2804 C2812 0.950 . S
H2805 C2817 0.950 . S
H2806 C2814 0.950 . S
H2807 C2816 0.950 . S
H2808 C2818 0.950 . S
H2809 C2820 0.950 . S
H2810 C2822 0.950 . S
H2811 C2823 0.950 . S
C2812 H2804 0.950 . S
C2812 C2813 1.386 . S
C2812 C2814 1.391 . S
C2813 C2812 1.386 . S
C2813 C2817 1.393 . S
C2814 H2806 0.950 . S
C2814 C2812 1.391 . S
C2814 C2815 1.400 . S
C2815 C2814 1.400 . S
C2815 C2816 1.398 . S
C2815 C2821 1.491 . S
C2816 H2807 0.950 . S
C2816 C2815 1.398 . S
C2816 C2817 1.391 . S
C2817 H2805 0.950 . S
C2817 C2813 1.393 . S
C2817 C2816 1.391 . S
C2818 H2808 0.950 . S
C2818 C2819 1.386 . S
C2818 C2820 1.391 . S
C2819 C2818 1.386 . S
C2819 C2823 1.393 . S
C2820 H2809 0.950 . S
C2820 C2818 1.391 . S
C2820 C2821 1.400 . S
C2821 C2815 1.491 . S
C2821 C2820 1.400 . S
C2821 C2822 1.398 . S
C2822 H2810 0.950 . S
C2822 C2821 1.398 . S
C2822 C2823 1.391 . S
C2823 H2811 0.950 . S
C2823 C2819 1.393 . S
C2823 C2822 1.391 . S
H2824 C2832 0.950 . S
H2825 C2837 0.950 . S
H2826 C2834 0.950 . S
H2827 C2836 0.950 . S
H2828 C2838 0.950 . S
H2829 C2840 0.950 . S
H2830 C2842 0.950 . S
H2831 C2843 0.950 . S
C2832 H2824 0.950 . S
C2832 C2833 1.386 . S
C2832 C2834 1.391 . S
C2833 C2832 1.386 . S
C2833 C2837 1.393 . S
C2834 H2826 0.950 . S
C2834 C2832 1.391 . S
C2834 C2835 1.400 . S
C2835 C2834 1.400 . S
C2835 C2836 1.398 . S
C2835 C2841 1.491 . S
C2836 H2827 0.950 . S
C2836 C2835 1.398 . S
C2836 C2837 1.391 . S
C2837 H2825 0.950 . S
C2837 C2833 1.393 . S
C2837 C2836 1.391 . S
C2838 H2828 0.950 . S
C2838 C2839 1.386 . S
C2838 C2840 1.391 . S
C2839 C2838 1.386 . S
C2839 C2843 1.393 . S
C2840 H2829 0.950 . S
C2840 C2838 1.391 . S
C2840 C2841 1.400 . S
C2841 C2835 1.491 . S
C2841 C2840 1.400 . S
C2841 C2842 1.398 . S
C2842 H2830 0.950 . S
C2842 C2841 1.398 . S
C2842 C2843 1.391 . S
C2843 H2831 0.950 . S
C2843 C2839 1.393 . S
C2843 C2842 1.391 . S
H2844 C2852 0.950 . S
H2845 C2857 0.950 . S
H2846 C2854 0.950 . S
H2847 C2856 0.950 . S
H2848 C2858 0.950 . S
H2849 C2860 0.950 . S
H2850 C2862 0.950 . S
H2851 C2863 0.950 . S
C2852 H2844 0.950 . S
C2852 C2853 1.386 . S
C2852 C2854 1.391 . S
C2853 C2852 1.386 . S
C2853 C2857 1.393 . S
C2854 H2846 0.950 . S
C2854 C2852 1.391 . S
C2854 C2855 1.400 . S
C2855 C2854 1.400 . S
C2855 C2856 1.398 . S
C2855 C2861 1.491 . S
C2856 H2847 0.950 . S
C2856 C2855 1.398 . S
C2856 C2857 1.391 . S
C2857 H2845 0.950 . S
C2857 C2853 1.393 . S
C2857 C2856 1.391 . S
C2858 H2848 0.950 . S
C2858 C2859 1.386 . S
C2858 C2860 1.391 . S
C2859 C2858 1.386 . S
C2859 C2863 1.393 . S
C2860 H2849 0.950 . S
C2860 C2858 1.391 . S
C2860 C2861 1.400 . S
C2861 C2855 1.491 . S
C2861 C2860 1.400 . S
C2861 C2862 1.398 . S
C2862 H2850 0.950 . S
C2862 C2861 1.398 . S
C2862 C2863 1.391 . S
C2863 H2851 0.950 . S
C2863 C2859 1.393 . S
C2863 C2862 1.391 . S
H2864 C2872 0.950 . S
H2865 C2877 0.950 . S
H2866 C2874 0.950 . S
H2867 C2876 0.950 . S
H2868 C2878 0.950 . S
H2869 C2880 0.950 . S
H2870 C2882 0.950 . S
H2871 C2883 0.950 . S
C2872 H2864 0.950 . S
C2872 C2873 1.386 . S
C2872 C2874 1.391 . S
C2873 C2872 1.386 . S
C2873 C2877 1.393 . S
C2874 H2866 0.950 . S
C2874 C2872 1.391 . S
C2874 C2875 1.400 . S
C2875 C2874 1.400 . S
C2875 C2876 1.398 . S
C2875 C2881 1.491 . S
C2876 H2867 0.950 . S
C2876 C2875 1.398 . S
C2876 C2877 1.391 . S
C2877 H2865 0.950 . S
C2877 C2873 1.393 . S
C2877 C2876 1.391 . S
C2878 H2868 0.950 . S
C2878 C2879 1.386 . S
C2878 C2880 1.391 . S
C2879 C2878 1.386 . S
C2879 C2883 1.393 . S
C2880 H2869 0.950 . S
C2880 C2878 1.391 . S
C2880 C2881 1.400 . S
C2881 C2875 1.491 . S
C2881 C2880 1.400 . S
C2881 C2882 1.398 . S
C2882 H2870 0.950 . S
C2882 C2881 1.398 . S
C2882 C2883 1.391 . S
C2883 H2871 0.950 . S
C2883 C2879 1.393 . S
C2883 C2882 1.391 . S
H2884 C2892 0.950 . S
H2885 C2897 0.950 . S
H2886 C2894 0.950 . S
H2887 C2896 0.950 . S
H2888 C2898 0.950 . S
H2889 C2900 0.950 . S
H2890 C2902 0.950 . S
H2891 C2903 0.950 . S
C2892 H2884 0.950 . S
C2892 C2893 1.386 . S
C2892 C2894 1.391 . S
C2893 C2892 1.386 . S
C2893 C2897 1.393 . S
C2894 H2886 0.950 . S
C2894 C2892 1.391 . S
C2894 C2895 1.400 . S
C2895 C2894 1.400 . S
C2895 C2896 1.398 . S
C2895 C2901 1.491 . S
C2896 H2887 0.950 . S
C2896 C2895 1.398 . S
C2896 C2897 1.391 . S
C2897 H2885 0.950 . S
C2897 C2893 1.393 . S
C2897 C2896 1.391 . S
C2898 H2888 0.950 . S
C2898 C2899 1.386 . S
C2898 C2900 1.391 . S
C2899 C2898 1.386 . S
C2899 C2903 1.393 . S
C2900 H2889 0.950 . S
C2900 C2898 1.391 . S
C2900 C2901 1.400 . S
C2901 C2895 1.491 . S
C2901 C2900 1.400 . S
C2901 C2902 1.398 . S
C2902 H2890 0.950 . S
C2902 C2901 1.398 . S
C2902 C2903 1.391 . S
C2903 H2891 0.950 . S
C2903 C2899 1.393 . S
C2903 C2902 1.391 . S
H2904 C2912 0.950 . S
H2905 C2917 0.950 . S
H2906 C2914 0.950 . S
H2907 C2916 0.950 . S
H2908 C2918 0.950 . S
H2909 C2920 0.950 . S
H2910 C2922 0.950 . S
H2911 C2923 0.950 . S
C2912 H2904 0.950 . S
C2912 C2913 1.386 . S
C2912 C2914 1.391 . S
C2913 C2912 1.386 . S
C2913 C2917 1.393 . S
C2914 H2906 0.950 . S
C2914 C2912 1.391 . S
C2914 C2915 1.400 . S
C2915 C2914 1.400 . S
C2915 C2916 1.398 . S
C2915 C2921 1.491 . S
C2916 H2907 0.950 . S
C2916 C2915 1.398 . S
C2916 C2917 1.391 . S
C2917 H2905 0.950 . S
C2917 C2913 1.393 . S
C2917 C2916 1.391 . S
C2918 H2908 0.950 . S
C2918 C2919 1.386 . S
C2918 C2920 1.391 . S
C2919 C2918 1.386 . S
C2919 C2923 1.393 . S
C2920 H2909 0.950 . S
C2920 C2918 1.391 . S
C2920 C2921 1.400 . S
C2921 C2915 1.491 . S
C2921 C2920 1.400 . S
C2921 C2922 1.398 . S
C2922 H2910 0.950 . S
C2922 C2921 1.398 . S
C2922 C2923 1.391 . S
C2923 H2911 0.950 . S
C2923 C2919 1.393 . S
C2923 C2922 1.391 . S
H2924 C2932 0.950 . S
H2925 C2937 0.950 . S
H2926 C2934 0.950 . S
H2927 C2936 0.950 . S
H2928 C2938 0.950 . S
H2929 C2940 0.950 . S
H2930 C2942 0.950 . S
H2931 C2943 0.950 . S
C2932 H2924 0.950 . S
C2932 C2933 1.386 . S
C2932 C2934 1.391 . S
C2933 C2932 1.386 . S
C2933 C2937 1.393 . S
C2934 H2926 0.950 . S
C2934 C2932 1.391 . S
C2934 C2935 1.400 . S
C2935 C2934 1.400 . S
C2935 C2936 1.398 . S
C2935 C2941 1.491 . S
C2936 H2927 0.950 . S
C2936 C2935 1.398 . S
C2936 C2937 1.391 . S
C2937 H2925 0.950 . S
C2937 C2933 1.393 . S
C2937 C2936 1.391 . S
C2938 H2928 0.950 . S
C2938 C2939 1.386 . S
C2938 C2940 1.391 . S
C2939 C2938 1.386 . S
C2939 C2943 1.393 . S
C2940 H2929 0.950 . S
C2940 C2938 1.391 . S
C2940 C2941 1.400 . S
C2941 C2935 1.491 . S
C2941 C2940 1.400 . S
C2941 C2942 1.398 . S
C2942 H2930 0.950 . S
C2942 C2941 1.398 . S
C2942 C2943 1.391 . S
C2943 H2931 0.950 . S
C2943 C2939 1.393 . S
C2943 C2942 1.391 . S
H2944 C2952 0.950 . S
H2945 C2957 0.950 . S
H2946 C2954 0.950 . S
H2947 C2956 0.950 . S
H2948 C2958 0.950 . S
H2949 C2960 0.950 . S
H2950 C2962 0.950 . S
H2951 C2963 0.950 . S
C2952 H2944 0.950 . S
C2952 C2953 1.386 . S
C2952 C2954 1.391 . S
C2953 C2952 1.386 . S
C2953 C2957 1.393 . S
C2954 H2946 0.950 . S
C2954 C2952 1.391 . S
C2954 C2955 1.400 . S
C2955 C2954 1.400 . S
C2955 C2956 1.398 . S
C2955 C2961 1.491 . S
C2956 H2947 0.950 . S
C2956 C2955 1.398 . S
C2956 C2957 1.391 . S
C2957 H2945 0.950 . S
C2957 C2953 1.393 . S
C2957 C2956 1.391 . S
C2958 H2948 0.950 . S
C2958 C2959 1.386 . S
C2958 C2960 1.391 . S
C2959 C2958 1.386 . S
C2959 C2963 1.393 . S
C2960 H2949 0.950 . S
C2960 C2958 1.391 . S
C2960 C2961 1.400 . S
C2961 C2955 1.491 . S
C2961 C2960 1.400 . S
C2961 C2962 1.398 . S
C2962 H2950 0.950 . S
C2962 C2961 1.398 . S
C2962 C2963 1.391 . S
C2963 H2951 0.950 . S
C2963 C2959 1.393 . S
C2963 C2962 1.391 . S
H2964 C2972 0.950 . S
H2965 C2977 0.950 . S
H2966 C2974 0.950 . S
H2967 C2976 0.950 . S
H2968 C2978 0.950 . S
H2969 C2980 0.950 . S
H2970 C2982 0.950 . S
H2971 C2983 0.950 . S
C2972 H2964 0.950 . S
C2972 C2973 1.386 . S
C2972 C2974 1.391 . S
C2973 C2972 1.386 . S
C2973 C2977 1.393 . S
C2974 H2966 0.950 . S
C2974 C2972 1.391 . S
C2974 C2975 1.400 . S
C2975 C2974 1.400 . S
C2975 C2976 1.398 . S
C2975 C2981 1.491 . S
C2976 H2967 0.950 . S
C2976 C2975 1.398 . S
C2976 C2977 1.391 . S
C2977 H2965 0.950 . S
C2977 C2973 1.393 . S
C2977 C2976 1.391 . S
C2978 H2968 0.950 . S
C2978 C2979 1.386 . S
C2978 C2980 1.391 . S
C2979 C2978 1.386 . S
C2979 C2983 1.393 . S
C2980 H2969 0.950 . S
C2980 C2978 1.391 . S
C2980 C2981 1.400 . S
C2981 C2975 1.491 . S
C2981 C2980 1.400 . S
C2981 C2982 1.398 . S
C2982 H2970 0.950 . S
C2982 C2981 1.398 . S
C2982 C2983 1.391 . S
C2983 H2971 0.950 . S
C2983 C2979 1.393 . S
C2983 C2982 1.391 . S
H2984 C2992 0.950 . S
H2985 C2997 0.950 . S
H2986 C2994 0.950 . S
H2987 C2996 0.950 . S
H2988 C2998 0.950 . S
H2989 C3000 0.950 . S
H2990 C3002 0.950 . S
H2991 C3003 0.950 . S
C2992 H2984 0.950 . S
C2992 C2993 1.386 . S
C2992 C2994 1.391 . S
C2993 C2992 1.386 . S
C2993 C2997 1.393 . S
C2994 H2986 0.950 . S
C2994 C2992 1.391 . S
C2994 C2995 1.400 . S
C2995 C2994 1.400 . S
C2995 C2996 1.398 . S
C2995 C3001 1.491 . S
C2996 H2987 0.950 . S
C2996 C2995 1.398 . S
C2996 C2997 1.391 . S
C2997 H2985 0.950 . S
C2997 C2993 1.393 . S
C2997 C2996 1.391 . S
C2998 H2988 0.950 . S
C2998 C2999 1.386 . S
C2998 C3000 1.391 . S
C2999 C2998 1.386 . S
C2999 C3003 1.393 . S
C3000 H2989 0.950 . S
C3000 C2998 1.391 . S
C3000 C3001 1.400 . S
C3001 C2995 1.491 . S
C3001 C3000 1.400 . S
C3001 C3002 1.398 . S
C3002 H2990 0.950 . S
C3002 C3001 1.398 . S
C3002 C3003 1.391 . S
C3003 H2991 0.950 . S
C3003 C2999 1.393 . S
C3003 C3002 1.391 . S
H3004 C3012 0.950 . S
H3005 C3017 0.950 . S
H3006 C3014 0.950 . S
H3007 C3016 0.950 . S
H3008 C3018 0.950 . S
H3009 C3020 0.950 . S
H3010 C3022 0.950 . S
H3011 C3023 0.950 . S
C3012 H3004 0.950 . S
C3012 C3013 1.386 . S
C3012 C3014 1.391 . S
C3013 C3012 1.386 . S
C3013 C3017 1.393 . S
C3014 H3006 0.950 . S
C3014 C3012 1.391 . S
C3014 C3015 1.400 . S
C3015 C3014 1.400 . S
C3015 C3016 1.398 . S
C3015 C3021 1.491 . S
C3016 H3007 0.950 . S
C3016 C3015 1.398 . S
C3016 C3017 1.391 . S
C3017 H3005 0.950 . S
C3017 C3013 1.393 . S
C3017 C3016 1.391 . S
C3018 H3008 0.950 . S
C3018 C3019 1.386 . S
C3018 C3020 1.391 . S
C3019 C3018 1.386 . S
C3019 C3023 1.393 . S
C3020 H3009 0.950 . S
C3020 C3018 1.391 . S
C3020 C3021 1.400 . S
C3021 C3015 1.491 . S
C3021 C3020 1.400 . S
C3021 C3022 1.398 . S
C3022 H3010 0.950 . S
C3022 C3021 1.398 . S
C3022 C3023 1.391 . S
C3023 H3011 0.950 . S
C3023 C3019 1.393 . S
C3023 C3022 1.391 . S
H3024 C3032 0.950 . S
H3025 C3037 0.950 . S
H3026 C3034 0.950 . S
H3027 C3036 0.950 . S
H3028 C3038 0.950 . S
H3029 C3040 0.950 . S
H3030 C3042 0.950 . S
H3031 C3043 0.950 . S
C3032 H3024 0.950 . S
C3032 C3033 1.386 . S
C3032 C3034 1.391 . S
C3033 C3032 1.386 . S
C3033 C3037 1.393 . S
C3034 H3026 0.950 . S
C3034 C3032 1.391 . S
C3034 C3035 1.400 . S
C3035 C3034 1.400 . S
C3035 C3036 1.398 . S
C3035 C3041 1.491 . S
C3036 H3027 0.950 . S
C3036 C3035 1.398 . S
C3036 C3037 1.391 . S
C3037 H3025 0.950 . S
C3037 C3033 1.393 . S
C3037 C3036 1.391 . S
C3038 H3028 0.950 . S
C3038 C3039 1.386 . S
C3038 C3040 1.391 . S
C3039 C3038 1.386 . S
C3039 C3043 1.393 . S
C3040 H3029 0.950 . S
C3040 C3038 1.391 . S
C3040 C3041 1.400 . S
C3041 C3035 1.491 . S
C3041 C3040 1.400 . S
C3041 C3042 1.398 . S
C3042 H3030 0.950 . S
C3042 C3041 1.398 . S
C3042 C3043 1.391 . S
C3043 H3031 0.950 . S
C3043 C3039 1.393 . S
C3043 C3042 1.391 . S
H3044 C3052 0.950 . S
H3045 C3057 0.950 . S
H3046 C3054 0.950 . S
H3047 C3056 0.950 . S
H3048 C3058 0.950 . S
H3049 C3060 0.950 . S
H3050 C3062 0.950 . S
H3051 C3063 0.950 . S
C3052 H3044 0.950 . S
C3052 C3053 1.386 . S
C3052 C3054 1.391 . S
C3053 C3052 1.386 . S
C3053 C3057 1.393 . S
C3054 H3046 0.950 . S
C3054 C3052 1.391 . S
C3054 C3055 1.400 . S
C3055 C3054 1.400 . S
C3055 C3056 1.398 . S
C3055 C3061 1.491 . S
C3056 H3047 0.950 . S
C3056 C3055 1.398 . S
C3056 C3057 1.391 . S
C3057 H3045 0.950 . S
C3057 C3053 1.393 . S
C3057 C3056 1.391 . S
C3058 H3048 0.950 . S
C3058 C3059 1.386 . S
C3058 C3060 1.391 . S
C3059 C3058 1.386 . S
C3059 C3063 1.393 . S
C3060 H3049 0.950 . S
C3060 C3058 1.391 . S
C3060 C3061 1.400 . S
C3061 C3055 1.491 . S
C3061 C3060 1.400 . S
C3061 C3062 1.398 . S
C3062 H3050 0.950 . S
C3062 C3061 1.398 . S
C3062 C3063 1.391 . S
C3063 H3051 0.950 . S
C3063 C3059 1.393 . S
C3063 C3062 1.391 . S
H3064 C3072 0.950 . S
H3065 C3077 0.950 . S
H3066 C3074 0.950 . S
H3067 C3076 0.950 . S
H3068 C3078 0.950 . S
H3069 C3080 0.950 . S
H3070 C3082 0.950 . S
H3071 C3083 0.950 . S
C3072 H3064 0.950 . S
C3072 C3073 1.386 . S
C3072 C3074 1.391 . S
C3073 C3072 1.386 . S
C3073 C3077 1.393 . S
C3074 H3066 0.950 . S
C3074 C3072 1.391 . S
C3074 C3075 1.400 . S
C3075 C3074 1.400 . S
C3075 C3076 1.398 . S
C3075 C3081 1.491 . S
C3076 H3067 0.950 . S
C3076 C3075 1.398 . S
C3076 C3077 1.391 . S
C3077 H3065 0.950 . S
C3077 C3073 1.393 . S
C3077 C3076 1.391 . S
C3078 H3068 0.950 . S
C3078 C3079 1.386 . S
C3078 C3080 1.391 . S
C3079 C3078 1.386 . S
C3079 C3083 1.393 . S
C3080 H3069 0.950 . S
C3080 C3078 1.391 . S
C3080 C3081 1.400 . S
C3081 C3075 1.491 . S
C3081 C3080 1.400 . S
C3081 C3082 1.398 . S
C3082 H3070 0.950 . S
C3082 C3081 1.398 . S
C3082 C3083 1.391 . S
C3083 H3071 0.950 . S
C3083 C3079 1.393 . S
C3083 C3082 1.391 . S
H3084 C3092 0.950 . S
H3085 C3097 0.950 . S
H3086 C3094 0.950 . S
H3087 C3096 0.950 . S
H3088 C3098 0.950 . S
H3089 C3100 0.950 . S
H3090 C3102 0.950 . S
H3091 C3103 0.950 . S
C3092 H3084 0.950 . S
C3092 C3093 1.386 . S
C3092 C3094 1.391 . S
C3093 C3092 1.386 . S
C3093 C3097 1.393 . S
C3094 H3086 0.950 . S
C3094 C3092 1.391 . S
C3094 C3095 1.400 . S
C3095 C3094 1.400 . S
C3095 C3096 1.398 . S
C3095 C3101 1.491 . S
C3096 H3087 0.950 . S
C3096 C3095 1.398 . S
C3096 C3097 1.391 . S
C3097 H3085 0.950 . S
C3097 C3093 1.393 . S
C3097 C3096 1.391 . S
C3098 H3088 0.950 . S
C3098 C3099 1.386 . S
C3098 C3100 1.391 . S
C3099 C3098 1.386 . S
C3099 C3103 1.393 . S
C3100 H3089 0.950 . S
C3100 C3098 1.391 . S
C3100 C3101 1.400 . S
C3101 C3095 1.491 . S
C3101 C3100 1.400 . S
C3101 C3102 1.398 . S
C3102 H3090 0.950 . S
C3102 C3101 1.398 . S
C3102 C3103 1.391 . S
C3103 H3091 0.950 . S
C3103 C3099 1.393 . S
C3103 C3102 1.391 . S
H3104 C3112 0.950 . S
H3105 C3117 0.950 . S
H3106 C3114 0.950 . S
H3107 C3116 0.950 . S
H3108 C3118 0.950 . S
H3109 C3120 0.950 . S
H3110 C3122 0.950 . S
H3111 C3123 0.950 . S
C3112 H3104 0.950 . S
C3112 C3113 1.386 . S
C3112 C3114 1.391 . S
C3113 C3112 1.386 . S
C3113 C3117 1.393 . S
C3114 H3106 0.950 . S
C3114 C3112 1.391 . S
C3114 C3115 1.400 . S
C3115 C3114 1.400 . S
C3115 C3116 1.398 . S
C3115 C3121 1.491 . S
C3116 H3107 0.950 . S
C3116 C3115 1.398 . S
C3116 C3117 1.391 . S
C3117 H3105 0.950 . S
C3117 C3113 1.393 . S
C3117 C3116 1.391 . S
C3118 H3108 0.950 . S
C3118 C3119 1.386 . S
C3118 C3120 1.391 . S
C3119 C3118 1.386 . S
C3119 C3123 1.393 . S
C3120 H3109 0.950 . S
C3120 C3118 1.391 . S
C3120 C3121 1.400 . S
C3121 C3115 1.491 . S
C3121 C3120 1.400 . S
C3121 C3122 1.398 . S
C3122 H3110 0.950 . S
C3122 C3121 1.398 . S
C3122 C3123 1.391 . S
C3123 H3111 0.950 . S
C3123 C3119 1.393 . S
C3123 C3122 1.391 . S
H3124 C3132 0.950 . S
H3125 C3137 0.950 . S
H3126 C3134 0.950 . S
H3127 C3136 0.950 . S
H3128 C3138 0.950 . S
H3129 C3140 0.950 . S
H3130 C3142 0.950 . S
H3131 C3143 0.950 . S
C3132 H3124 0.950 . S
C3132 C3133 1.386 . S
C3132 C3134 1.391 . S
C3133 C3132 1.386 . S
C3133 C3137 1.393 . S
C3134 H3126 0.950 . S
C3134 C3132 1.391 . S
C3134 C3135 1.400 . S
C3135 C3134 1.400 . S
C3135 C3136 1.398 . S
C3135 C3141 1.491 . S
C3136 H3127 0.950 . S
C3136 C3135 1.398 . S
C3136 C3137 1.391 . S
C3137 H3125 0.950 . S
C3137 C3133 1.393 . S
C3137 C3136 1.391 . S
C3138 H3128 0.950 . S
C3138 C3139 1.386 . S
C3138 C3140 1.391 . S
C3139 C3138 1.386 . S
C3139 C3143 1.393 . S
C3140 H3129 0.950 . S
C3140 C3138 1.391 . S
C3140 C3141 1.400 . S
C3141 C3135 1.491 . S
C3141 C3140 1.400 . S
C3141 C3142 1.398 . S
C3142 H3130 0.950 . S
C3142 C3141 1.398 . S
C3142 C3143 1.391 . S
C3143 H3131 0.950 . S
C3143 C3139 1.393 . S
C3143 C3142 1.391 . S
H3144 C3152 0.950 . S
H3145 C3157 0.950 . S
H3146 C3154 0.950 . S
H3147 C3156 0.950 . S
H3148 C3158 0.950 . S
H3149 C3160 0.950 . S
H3150 C3162 0.950 . S
H3151 C3163 0.950 . S
C3152 H3144 0.950 . S
C3152 C3153 1.386 . S
C3152 C3154 1.391 . S
C3153 C3152 1.386 . S
C3153 C3157 1.393 . S
C3154 H3146 0.950 . S
C3154 C3152 1.391 . S
C3154 C3155 1.400 . S
C3155 C3154 1.400 . S
C3155 C3156 1.398 . S
C3155 C3161 1.491 . S
C3156 H3147 0.950 . S
C3156 C3155 1.398 . S
C3156 C3157 1.391 . S
C3157 H3145 0.950 . S
C3157 C3153 1.393 . S
C3157 C3156 1.391 . S
C3158 H3148 0.950 . S
C3158 C3159 1.386 . S
C3158 C3160 1.391 . S
C3159 C3158 1.386 . S
C3159 C3163 1.393 . S
C3160 H3149 0.950 . S
C3160 C3158 1.391 . S
C3160 C3161 1.400 . S
C3161 C3155 1.491 . S
C3161 C3160 1.400 . S
C3161 C3162 1.398 . S
C3162 H3150 0.950 . S
C3162 C3161 1.398 . S
C3162 C3163 1.391 . S
C3163 H3151 0.950 . S
C3163 C3159 1.393 . S
C3163 C3162 1.391 . S
H3164 C3172 0.950 . S
H3165 C3177 0.950 . S
H3166 C3174 0.950 . S
H3167 C3176 0.950 . S
H3168 C3178 0.950 . S
H3169 C3180 0.950 . S
H3170 C3182 0.950 . S
H3171 C3183 0.950 . S
C3172 H3164 0.950 . S
C3172 C3173 1.386 . S
C3172 C3174 1.391 . S
C3173 C3172 1.386 . S
C3173 C3177 1.393 . S
C3174 H3166 0.950 . S
C3174 C3172 1.391 . S
C3174 C3175 1.400 . S
C3175 C3174 1.400 . S
C3175 C3176 1.398 . S
C3175 C3181 1.491 . S
C3176 H3167 0.950 . S
C3176 C3175 1.398 . S
C3176 C3177 1.391 . S
C3177 H3165 0.950 . S
C3177 C3173 1.393 . S
C3177 C3176 1.391 . S
C3178 H3168 0.950 . S
C3178 C3179 1.386 . S
C3178 C3180 1.391 . S
C3179 C3178 1.386 . S
C3179 C3183 1.393 . S
C3180 H3169 0.950 . S
C3180 C3178 1.391 . S
C3180 C3181 1.400 . S
C3181 C3175 1.491 . S
C3181 C3180 1.400 . S
C3181 C3182 1.398 . S
C3182 H3170 0.950 . S
C3182 C3181 1.398 . S
C3182 C3183 1.391 . S
C3183 H3171 0.950 . S
C3183 C3179 1.393 . S
C3183 C3182 1.391 . S
H3184 C3192 0.950 . S
H3185 C3197 0.950 . S
H3186 C3194 0.950 . S
H3187 C3196 0.950 . S
H3188 C3198 0.950 . S
H3189 C3200 0.950 . S
H3190 C3202 0.950 . S
H3191 C3203 0.950 . S
C3192 H3184 0.950 . S
C3192 C3193 1.386 . S
C3192 C3194 1.391 . S
C3193 C3192 1.386 . S
C3193 C3197 1.393 . S
C3194 H3186 0.950 . S
C3194 C3192 1.391 . S
C3194 C3195 1.400 . S
C3195 C3194 1.400 . S
C3195 C3196 1.398 . S
C3195 C3201 1.491 . S
C3196 H3187 0.950 . S
C3196 C3195 1.398 . S
C3196 C3197 1.391 . S
C3197 H3185 0.950 . S
C3197 C3193 1.393 . S
C3197 C3196 1.391 . S
C3198 H3188 0.950 . S
C3198 C3199 1.386 . S
C3198 C3200 1.391 . S
C3199 C3198 1.386 . S
C3199 C3203 1.393 . S
C3200 H3189 0.950 . S
C3200 C3198 1.391 . S
C3200 C3201 1.400 . S
C3201 C3195 1.491 . S
C3201 C3200 1.400 . S
C3201 C3202 1.398 . S
C3202 H3190 0.950 . S
C3202 C3201 1.398 . S
C3202 C3203 1.391 . S
C3203 H3191 0.950 . S
C3203 C3199 1.393 . S
C3203 C3202 1.391 . S
H3204 C3212 0.950 . S
H3205 C3217 0.950 . S
H3206 C3214 0.950 . S
H3207 C3216 0.950 . S
H3208 C3218 0.950 . S
H3209 C3220 0.950 . S
H3210 C3222 0.950 . S
H3211 C3223 0.950 . S
C3212 H3204 0.950 . S
C3212 C3213 1.386 . S
C3212 C3214 1.391 . S
C3213 C3212 1.386 . S
C3213 C3217 1.393 . S
C3214 H3206 0.950 . S
C3214 C3212 1.391 . S
C3214 C3215 1.400 . S
C3215 C3214 1.400 . S
C3215 C3216 1.398 . S
C3215 C3221 1.491 . S
C3216 H3207 0.950 . S
C3216 C3215 1.398 . S
C3216 C3217 1.391 . S
C3217 H3205 0.950 . S
C3217 C3213 1.393 . S
C3217 C3216 1.391 . S
C3218 H3208 0.950 . S
C3218 C3219 1.386 . S
C3218 C3220 1.391 . S
C3219 C3218 1.386 . S
C3219 C3223 1.393 . S
C3220 H3209 0.950 . S
C3220 C3218 1.391 . S
C3220 C3221 1.400 . S
C3221 C3215 1.491 . S
C3221 C3220 1.400 . S
C3221 C3222 1.398 . S
C3222 H3210 0.950 . S
C3222 C3221 1.398 . S
C3222 C3223 1.391 . S
C3223 H3211 0.950 . S
C3223 C3219 1.393 . S
C3223 C3222 1.391 . S
H3224 C3232 0.950 . S
H3225 C3237 0.950 . S
H3226 C3234 0.950 . S
H3227 C3236 0.950 . S
H3228 C3238 0.950 . S
H3229 C3240 0.950 . S
H3230 C3242 0.950 . S
H3231 C3243 0.950 . S
C3232 H3224 0.950 . S
C3232 C3233 1.386 . S
C3232 C3234 1.391 . S
C3233 C3232 1.386 . S
C3233 C3237 1.393 . S
C3234 H3226 0.950 . S
C3234 C3232 1.391 . S
C3234 C3235 1.400 . S
C3235 C3234 1.400 . S
C3235 C3236 1.398 . S
C3235 C3241 1.491 . S
C3236 H3227 0.950 . S
C3236 C3235 1.398 . S
C3236 C3237 1.391 . S
C3237 H3225 0.950 . S
C3237 C3233 1.393 . S
C3237 C3236 1.391 . S
C3238 H3228 0.950 . S
C3238 C3239 1.386 . S
C3238 C3240 1.391 . S
C3239 C3238 1.386 . S
C3239 C3243 1.393 . S
C3240 H3229 0.950 . S
C3240 C3238 1.391 . S
C3240 C3241 1.400 . S
C3241 C3235 1.491 . S
C3241 C3240 1.400 . S
C3241 C3242 1.398 . S
C3242 H3230 0.950 . S
C3242 C3241 1.398 . S
C3242 C3243 1.391 . S
C3243 H3231 0.950 . S
C3243 C3239 1.393 . S
C3243 C3242 1.391 . S
H3244 C3252 0.950 . S
H3245 C3257 0.950 . S
H3246 C3254 0.950 . S
H3247 C3256 0.950 . S
H3248 C3258 0.950 . S
H3249 C3260 0.950 . S
H3250 C3262 0.950 . S
H3251 C3263 0.950 . S
C3252 H3244 0.950 . S
C3252 C3253 1.386 . S
C3252 C3254 1.391 . S
C3253 C3252 1.386 . S
C3253 C3257 1.393 . S
C3254 H3246 0.950 . S
C3254 C3252 1.391 . S
C3254 C3255 1.400 . S
C3255 C3254 1.400 . S
C3255 C3256 1.398 . S
C3255 C3261 1.491 . S
C3256 H3247 0.950 . S
C3256 C3255 1.398 . S
C3256 C3257 1.391 . S
C3257 H3245 0.950 . S
C3257 C3253 1.393 . S
C3257 C3256 1.391 . S
C3258 H3248 0.950 . S
C3258 C3259 1.386 . S
C3258 C3260 1.391 . S
C3259 C3258 1.386 . S
C3259 C3263 1.393 . S
C3260 H3249 0.950 . S
C3260 C3258 1.391 . S
C3260 C3261 1.400 . S
C3261 C3255 1.491 . S
C3261 C3260 1.400 . S
C3261 C3262 1.398 . S
C3262 H3250 0.950 . S
C3262 C3261 1.398 . S
C3262 C3263 1.391 . S
C3263 H3251 0.950 . S
C3263 C3259 1.393 . S
C3263 C3262 1.391 . S
H3264 C3272 0.950 . S
H3265 C3277 0.950 . S
H3266 C3274 0.950 . S
H3267 C3276 0.950 . S
H3268 C3278 0.950 . S
H3269 C3280 0.950 . S
H3270 C3282 0.950 . S
H3271 C3283 0.950 . S
C3272 H3264 0.950 . S
C3272 C3273 1.386 . S
C3272 C3274 1.391 . S
C3273 C3272 1.386 . S
C3273 C3277 1.393 . S
C3274 H3266 0.950 . S
C3274 C3272 1.391 . S
C3274 C3275 1.400 . S
C3275 C3274 1.400 . S
C3275 C3276 1.398 . S
C3275 C3281 1.491 1_455 S
C3276 H3267 0.950 . S
C3276 C3275 1.398 . S
C3276 C3277 1.391 . S
C3277 H3265 0.950 . S
C3277 C3273 1.393 . S
C3277 C3276 1.391 . S
C3278 H3268 0.950 . S
C3278 C3279 1.386 . S
C3278 C3280 1.391 . S
C3279 C3278 1.386 . S
C3279 C3283 1.393 . S
C3280 H3269 0.950 . S
C3280 C3278 1.391 . S
C3280 C3281 1.400 . S
C3281 C3275 1.491 1_655 S
C3281 C3280 1.400 . S
C3281 C3282 1.398 . S
C3282 H3270 0.950 . S
C3282 C3281 1.398 . S
C3282 C3283 1.391 . S
C3283 H3271 0.950 . S
C3283 C3279 1.393 . S
C3283 C3282 1.391 . S
H3284 C3292 0.950 . S
H3285 C3297 0.950 . S
H3286 C3294 0.950 . S
H3287 C3296 0.950 . S
H3288 C3298 0.950 . S
H3289 C3300 0.950 . S
H3290 C3302 0.950 . S
H3291 C3303 0.950 . S
C3292 H3284 0.950 . S
C3292 C3293 1.386 . S
C3292 C3294 1.391 . S
C3293 C3292 1.386 . S
C3293 C3297 1.393 . S
C3294 H3286 0.950 . S
C3294 C3292 1.391 . S
C3294 C3295 1.400 . S
C3295 C3294 1.400 . S
C3295 C3296 1.398 . S
C3295 C3301 1.491 1_565 S
C3296 H3287 0.950 . S
C3296 C3295 1.398 . S
C3296 C3297 1.391 . S
C3297 H3285 0.950 . S
C3297 C3293 1.393 . S
C3297 C3296 1.391 . S
C3298 H3288 0.950 . S
C3298 C3299 1.386 . S
C3298 C3300 1.391 . S
C3299 C3298 1.386 . S
C3299 C3303 1.393 . S
C3300 H3289 0.950 . S
C3300 C3298 1.391 . S
C3300 C3301 1.400 . S
C3301 C3295 1.491 1_545 S
C3301 C3300 1.400 . S
C3301 C3302 1.398 . S
C3302 H3290 0.950 . S
C3302 C3301 1.398 . S
C3302 C3303 1.391 . S
C3303 H3291 0.950 . S
C3303 C3299 1.393 . S
C3303 C3302 1.391 . S
H3304 C3312 0.950 . S
H3305 C3317 0.950 . S
H3306 C3314 0.950 . S
H3307 C3316 0.950 . S
H3308 C3318 0.950 . S
H3309 C3320 0.950 . S
H3310 C3322 0.950 . S
H3311 C3323 0.950 . S
C3312 H3304 0.950 . S
C3312 C3313 1.386 . S
C3312 C3314 1.391 . S
C3313 C3312 1.386 . S
C3313 C3317 1.393 . S
C3314 H3306 0.950 . S
C3314 C3312 1.391 . S
C3314 C3315 1.400 . S
C3315 C3314 1.400 . S
C3315 C3316 1.398 . S
C3315 C3321 1.491 1_655 S
C3316 H3307 0.950 . S
C3316 C3315 1.398 . S
C3316 C3317 1.391 . S
C3317 H3305 0.950 . S
C3317 C3313 1.393 . S
C3317 C3316 1.391 . S
C3318 H3308 0.950 . S
C3318 C3319 1.386 . S
C3318 C3320 1.391 . S
C3319 C3318 1.386 . S
C3319 C3323 1.393 . S
C3320 H3309 0.950 . S
C3320 C3318 1.391 . S
C3320 C3321 1.400 . S
C3321 C3315 1.491 1_455 S
C3321 C3320 1.400 . S
C3321 C3322 1.398 . S
C3322 H3310 0.950 . S
C3322 C3321 1.398 . S
C3322 C3323 1.391 . S
C3323 H3311 0.950 . S
C3323 C3319 1.393 . S
C3323 C3322 1.391 . S
H3324 C3332 0.950 . S
H3325 C3337 0.950 . S
H3326 C3334 0.950 . S
H3327 C3336 0.950 . S
H3328 C3338 0.950 . S
H3329 C3340 0.950 . S
H3330 C3342 0.950 . S
H3331 C3343 0.950 . S
C3332 H3324 0.950 . S
C3332 C3333 1.386 . S
C3332 C3334 1.391 . S
C3333 C3332 1.386 . S
C3333 C3337 1.393 . S
C3334 H3326 0.950 . S
C3334 C3332 1.391 . S
C3334 C3335 1.400 . S
C3335 C3334 1.400 . S
C3335 C3336 1.398 . S
C3335 C3341 1.491 1_545 S
C3336 H3327 0.950 . S
C3336 C3335 1.398 . S
C3336 C3337 1.391 . S
C3337 H3325 0.950 . S
C3337 C3333 1.393 . S
C3337 C3336 1.391 . S
C3338 H3328 0.950 . S
C3338 C3339 1.386 . S
C3338 C3340 1.391 . S
C3339 C3338 1.386 . S
C3339 C3343 1.393 . S
C3340 H3329 0.950 . S
C3340 C3338 1.391 . S
C3340 C3341 1.400 . S
C3341 C3335 1.491 1_565 S
C3341 C3340 1.400 . S
C3341 C3342 1.398 . S
C3342 H3330 0.950 . S
C3342 C3341 1.398 . S
C3342 C3343 1.391 . S
C3343 H3331 0.950 . S
C3343 C3339 1.393 . S
C3343 C3342 1.391 . S
H3344 C3352 0.950 . S
H3345 C3357 0.950 . S
H3346 C3354 0.950 . S
H3347 C3356 0.950 . S
H3348 C3358 0.950 . S
H3349 C3360 0.950 . S
H3350 C3362 0.950 . S
H3351 C3363 0.950 . S
C3352 H3344 0.950 . S
C3352 C3353 1.386 . S
C3352 C3354 1.391 . S
C3353 C3352 1.386 . S
C3353 C3357 1.393 . S
C3354 H3346 0.950 . S
C3354 C3352 1.391 . S
C3354 C3355 1.400 . S
C3355 C3354 1.400 . S
C3355 C3356 1.398 . S
C3355 C3361 1.491 1_455 S
C3356 H3347 0.950 . S
C3356 C3355 1.398 . S
C3356 C3357 1.391 . S
C3357 H3345 0.950 . S
C3357 C3353 1.393 . S
C3357 C3356 1.391 . S
C3358 H3348 0.950 . S
C3358 C3359 1.386 . S
C3358 C3360 1.391 . S
C3359 C3358 1.386 . S
C3359 C3363 1.393 . S
C3360 H3349 0.950 . S
C3360 C3358 1.391 . S
C3360 C3361 1.400 . S
C3361 C3355 1.491 1_655 S
C3361 C3360 1.400 . S
C3361 C3362 1.398 . S
C3362 H3350 0.950 . S
C3362 C3361 1.398 . S
C3362 C3363 1.391 . S
C3363 H3351 0.950 . S
C3363 C3359 1.393 . S
C3363 C3362 1.391 . S
H3364 C3372 0.950 . S
H3365 C3377 0.950 . S
H3366 C3374 0.950 . S
H3367 C3376 0.950 . S
H3368 C3378 0.950 . S
H3369 C3380 0.950 . S
H3370 C3382 0.950 . S
H3371 C3383 0.950 . S
C3372 H3364 0.950 . S
C3372 C3373 1.386 . S
C3372 C3374 1.391 . S
C3373 C3372 1.386 . S
C3373 C3377 1.393 . S
C3374 H3366 0.950 . S
C3374 C3372 1.391 . S
C3374 C3375 1.400 . S
C3375 C3374 1.400 . S
C3375 C3376 1.398 . S
C3375 C3381 1.491 1_545 S
C3376 H3367 0.950 . S
C3376 C3375 1.398 . S
C3376 C3377 1.391 . S
C3377 H3365 0.950 . S
C3377 C3373 1.393 . S
C3377 C3376 1.391 . S
C3378 H3368 0.950 . S
C3378 C3379 1.386 . S
C3378 C3380 1.391 . S
C3379 C3378 1.386 . S
C3379 C3383 1.393 . S
C3380 H3369 0.950 . S
C3380 C3378 1.391 . S
C3380 C3381 1.400 . S
C3381 C3375 1.491 1_565 S
C3381 C3380 1.400 . S
C3381 C3382 1.398 . S
C3382 H3370 0.950 . S
C3382 C3381 1.398 . S
C3382 C3383 1.391 . S
C3383 H3371 0.950 . S
C3383 C3379 1.393 . S
C3383 C3382 1.391 . S
H3384 C3392 0.950 . S
H3385 C3397 0.950 . S
H3386 C3394 0.950 . S
H3387 C3396 0.950 . S
H3388 C3398 0.950 . S
H3389 C3400 0.950 . S
H3390 C3402 0.950 . S
H3391 C3403 0.950 . S
C3392 H3384 0.950 . S
C3392 C3393 1.386 . S
C3392 C3394 1.391 . S
C3393 C3392 1.386 . S
C3393 C3397 1.393 . S
C3394 H3386 0.950 . S
C3394 C3392 1.391 . S
C3394 C3395 1.400 . S
C3395 C3394 1.400 . S
C3395 C3396 1.398 . S
C3395 C3401 1.491 1_655 S
C3396 H3387 0.950 . S
C3396 C3395 1.398 . S
C3396 C3397 1.391 . S
C3397 H3385 0.950 . S
C3397 C3393 1.393 . S
C3397 C3396 1.391 . S
C3398 H3388 0.950 . S
C3398 C3399 1.386 . S
C3398 C3400 1.391 . S
C3399 C3398 1.386 . S
C3399 C3403 1.393 . S
C3400 H3389 0.950 . S
C3400 C3398 1.391 . S
C3400 C3401 1.400 . S
C3401 C3395 1.491 1_455 S
C3401 C3400 1.400 . S
C3401 C3402 1.398 . S
C3402 H3390 0.950 . S
C3402 C3401 1.398 . S
C3402 C3403 1.391 . S
C3403 H3391 0.950 . S
C3403 C3399 1.393 . S
C3403 C3402 1.391 . S
H3404 C3412 0.950 . S
H3405 C3417 0.950 . S
H3406 C3414 0.950 . S
H3407 C3416 0.950 . S
H3408 C3418 0.950 . S
H3409 C3420 0.950 . S
H3410 C3422 0.950 . S
H3411 C3423 0.950 . S
C3412 H3404 0.950 . S
C3412 C3413 1.386 . S
C3412 C3414 1.391 . S
C3413 C3412 1.386 . S
C3413 C3417 1.393 . S
C3414 H3406 0.950 . S
C3414 C3412 1.391 . S
C3414 C3415 1.400 . S
C3415 C3414 1.400 . S
C3415 C3416 1.398 . S
C3415 C3421 1.491 1_545 S
C3416 H3407 0.950 . S
C3416 C3415 1.398 . S
C3416 C3417 1.391 . S
C3417 H3405 0.950 . S
C3417 C3413 1.393 . S
C3417 C3416 1.391 . S
C3418 H3408 0.950 . S
C3418 C3419 1.386 . S
C3418 C3420 1.391 . S
C3419 C3418 1.386 . S
C3419 C3423 1.393 . S
C3420 H3409 0.950 . S
C3420 C3418 1.391 . S
C3420 C3421 1.400 . S
C3421 C3415 1.491 1_565 S
C3421 C3420 1.400 . S
C3421 C3422 1.398 . S
C3422 H3410 0.950 . S
C3422 C3421 1.398 . S
C3422 C3423 1.391 . S
C3423 H3411 0.950 . S
C3423 C3419 1.393 . S
C3423 C3422 1.391 . S
H3424 C3432 0.950 . S
H3425 C3437 0.950 . S
H3426 C3434 0.950 . S
H3427 C3436 0.950 . S
H3428 C3438 0.950 . S
H3429 C3440 0.950 . S
H3430 C3442 0.950 . S
H3431 C3443 0.950 . S
C3432 H3424 0.950 . S
C3432 C3433 1.386 . S
C3432 C3434 1.391 . S
C3433 C3432 1.386 . S
C3433 C3437 1.393 . S
C3434 H3426 0.950 . S
C3434 C3432 1.391 . S
C3434 C3435 1.400 . S
C3435 C3434 1.400 . S
C3435 C3436 1.398 . S
C3435 C3441 1.491 1_565 S
C3436 H3427 0.950 . S
C3436 C3435 1.398 . S
C3436 C3437 1.391 . S
C3437 H3425 0.950 . S
C3437 C3433 1.393 . S
C3437 C3436 1.391 . S
C3438 H3428 0.950 . S
C3438 C3439 1.386 . S
C3438 C3440 1.391 . S
C3439 C3438 1.386 . S
C3439 C3443 1.393 . S
C3440 H3429 0.950 . S
C3440 C3438 1.391 . S
C3440 C3441 1.400 . S
C3441 C3435 1.491 1_545 S
C3441 C3440 1.400 . S
C3441 C3442 1.398 . S
C3442 H3430 0.950 . S
C3442 C3441 1.398 . S
C3442 C3443 1.391 . S
C3443 H3431 0.950 . S
C3443 C3439 1.393 . S
C3443 C3442 1.391 . S
H3444 C3452 0.950 . S
H3445 C3457 0.950 . S
H3446 C3454 0.950 . S
H3447 C3456 0.950 . S
H3448 C3458 0.950 . S
H3449 C3460 0.950 . S
H3450 C3462 0.950 . S
H3451 C3463 0.950 . S
C3452 H3444 0.950 . S
C3452 C3453 1.386 . S
C3452 C3454 1.391 . S
C3453 C3452 1.386 . S
C3453 C3457 1.393 . S
C3454 H3446 0.950 . S
C3454 C3452 1.391 . S
C3454 C3455 1.400 . S
C3455 C3454 1.400 . S
C3455 C3456 1.398 . S
C3455 C3461 1.491 1_655 S
C3456 H3447 0.950 . S
C3456 C3455 1.398 . S
C3456 C3457 1.391 . S
C3457 H3445 0.950 . S
C3457 C3453 1.393 . S
C3457 C3456 1.391 . S
C3458 H3448 0.950 . S
C3458 C3459 1.386 . S
C3458 C3460 1.391 . S
C3459 C3458 1.386 . S
C3459 C3463 1.393 . S
C3460 H3449 0.950 . S
C3460 C3458 1.391 . S
C3460 C3461 1.400 . S
C3461 C3455 1.491 1_455 S
C3461 C3460 1.400 . S
C3461 C3462 1.398 . S
C3462 H3450 0.950 . S
C3462 C3461 1.398 . S
C3462 C3463 1.391 . S
C3463 H3451 0.950 . S
C3463 C3459 1.393 . S
C3463 C3462 1.391 . S
H3464 C3472 0.950 . S
H3465 C3477 0.950 . S
H3466 C3474 0.950 . S
H3467 C3476 0.950 . S
H3468 C3478 0.950 . S
H3469 C3480 0.950 . S
H3470 C3482 0.950 . S
H3471 C3483 0.950 . S
C3472 H3464 0.950 . S
C3472 C3473 1.386 . S
C3472 C3474 1.391 . S
C3473 C3472 1.386 . S
C3473 C3477 1.393 . S
C3474 H3466 0.950 . S
C3474 C3472 1.391 . S
C3474 C3475 1.400 . S
C3475 C3474 1.400 . S
C3475 C3476 1.398 . S
C3475 C3481 1.491 1_565 S
C3476 H3467 0.950 . S
C3476 C3475 1.398 . S
C3476 C3477 1.391 . S
C3477 H3465 0.950 . S
C3477 C3473 1.393 . S
C3477 C3476 1.391 . S
C3478 H3468 0.950 . S
C3478 C3479 1.386 . S
C3478 C3480 1.391 . S
C3479 C3478 1.386 . S
C3479 C3483 1.393 . S
C3480 H3469 0.950 . S
C3480 C3478 1.391 . S
C3480 C3481 1.400 . S
C3481 C3475 1.491 1_545 S
C3481 C3480 1.400 . S
C3481 C3482 1.398 . S
C3482 H3470 0.950 . S
C3482 C3481 1.398 . S
C3482 C3483 1.391 . S
C3483 H3471 0.950 . S
C3483 C3479 1.393 . S
C3483 C3482 1.391 . S
H3484 C3492 0.950 . S
H3485 C3497 0.950 . S
H3486 C3494 0.950 . S
H3487 C3496 0.950 . S
H3488 C3498 0.950 . S
H3489 C3500 0.950 . S
H3490 C3502 0.950 . S
H3491 C3503 0.950 . S
C3492 H3484 0.950 . S
C3492 C3493 1.386 . S
C3492 C3494 1.391 . S
C3493 C3492 1.386 . S
C3493 C3497 1.393 . S
C3494 H3486 0.950 . S
C3494 C3492 1.391 . S
C3494 C3495 1.400 . S
C3495 C3494 1.400 . S
C3495 C3496 1.398 . S
C3495 C3501 1.491 1_455 S
C3496 H3487 0.950 . S
C3496 C3495 1.398 . S
C3496 C3497 1.391 . S
C3497 H3485 0.950 . S
C3497 C3493 1.393 . S
C3497 C3496 1.391 . S
C3498 H3488 0.950 . S
C3498 C3499 1.386 . S
C3498 C3500 1.391 . S
C3499 C3498 1.386 . S
C3499 C3503 1.393 . S
C3500 H3489 0.950 . S
C3500 C3498 1.391 . S
C3500 C3501 1.400 . S
C3501 C3495 1.491 1_655 S
C3501 C3500 1.400 . S
C3501 C3502 1.398 . S
C3502 H3490 0.950 . S
C3502 C3501 1.398 . S
C3502 C3503 1.391 . S
C3503 H3491 0.950 . S
C3503 C3499 1.393 . S
C3503 C3502 1.391 . S
H3504 C3512 0.950 . S
H3505 C3517 0.950 . S
H3506 C3514 0.950 . S
H3507 C3516 0.950 . S
H3508 C3518 0.950 . S
H3509 C3520 0.950 . S
H3510 C3522 0.950 . S
H3511 C3523 0.950 . S
C3512 H3504 0.950 . S
C3512 C3513 1.386 . S
C3512 C3514 1.391 . S
C3513 C3512 1.386 . S
C3513 C3517 1.393 . S
C3514 H3506 0.950 . S
C3514 C3512 1.391 . S
C3514 C3515 1.400 . S
C3515 C3514 1.400 . S
C3515 C3516 1.398 . S
C3515 C3521 1.491 1_565 S
C3516 H3507 0.950 . S
C3516 C3515 1.398 . S
C3516 C3517 1.391 . S
C3517 H3505 0.950 . S
C3517 C3513 1.393 . S
C3517 C3516 1.391 . S
C3518 H3508 0.950 . S
C3518 C3519 1.386 . S
C3518 C3520 1.391 . S
C3519 C3518 1.386 . S
C3519 C3523 1.393 . S
C3520 H3509 0.950 . S
C3520 C3518 1.391 . S
C3520 C3521 1.400 . S
C3521 C3515 1.491 1_545 S
C3521 C3520 1.400 . S
C3521 C3522 1.398 . S
C3522 H3510 0.950 . S
C3522 C3521 1.398 . S
C3522 C3523 1.391 . S
C3523 H3511 0.950 . S
C3523 C3519 1.393 . S
C3523 C3522 1.391 . S
H3524 C3532 0.950 . S
H3525 C3537 0.950 . S
H3526 C3534 0.950 . S
H3527 C3536 0.950 . S
H3528 C3538 0.950 . S
H3529 C3540 0.950 . S
H3530 C3542 0.950 . S
H3531 C3543 0.950 . S
C3532 H3524 0.950 . S
C3532 C3533 1.386 . S
C3532 C3534 1.391 . S
C3533 C3532 1.386 . S
C3533 C3537 1.393 . S
C3534 H3526 0.950 . S
C3534 C3532 1.391 . S
C3534 C3535 1.400 . S
C3535 C3534 1.400 . S
C3535 C3536 1.398 . S
C3535 C3541 1.491 1_455 S
C3536 H3527 0.950 . S
C3536 C3535 1.398 . S
C3536 C3537 1.391 . S
C3537 H3525 0.950 . S
C3537 C3533 1.393 . S
C3537 C3536 1.391 . S
C3538 H3528 0.950 . S
C3538 C3539 1.386 . S
C3538 C3540 1.391 . S
C3539 C3538 1.386 . S
C3539 C3543 1.393 . S
C3540 H3529 0.950 . S
C3540 C3538 1.391 . S
C3540 C3541 1.400 . S
C3541 C3535 1.491 1_655 S
C3541 C3540 1.400 . S
C3541 C3542 1.398 . S
C3542 H3530 0.950 . S
C3542 C3541 1.398 . S
C3542 C3543 1.391 . S
C3543 H3531 0.950 . S
C3543 C3539 1.393 . S
C3543 C3542 1.391 . S
H3544 C3552 0.950 . S
H3545 C3557 0.950 . S
H3546 C3554 0.950 . S
H3547 C3556 0.950 . S
H3548 C3558 0.950 . S
H3549 C3560 0.950 . S
H3550 C3562 0.950 . S
H3551 C3563 0.950 . S
C3552 H3544 0.950 . S
C3552 C3553 1.386 . S
C3552 C3554 1.391 . S
C3553 C3552 1.386 . S
C3553 C3557 1.393 . S
C3554 H3546 0.950 . S
C3554 C3552 1.391 . S
C3554 C3555 1.400 . S
C3555 C3554 1.400 . S
C3555 C3556 1.398 . S
C3555 C3561 1.491 1_545 S
C3556 H3547 0.950 . S
C3556 C3555 1.398 . S
C3556 C3557 1.391 . S
C3557 H3545 0.950 . S
C3557 C3553 1.393 . S
C3557 C3556 1.391 . S
C3558 H3548 0.950 . S
C3558 C3559 1.386 . S
C3558 C3560 1.391 . S
C3559 C3558 1.386 . S
C3559 C3563 1.393 . S
C3560 H3549 0.950 . S
C3560 C3558 1.391 . S
C3560 C3561 1.400 . S
C3561 C3555 1.491 1_565 S
C3561 C3560 1.400 . S
C3561 C3562 1.398 . S
C3562 H3550 0.950 . S
C3562 C3561 1.398 . S
C3562 C3563 1.391 . S
C3563 H3551 0.950 . S
C3563 C3559 1.393 . S
C3563 C3562 1.391 . S
H3564 C3572 0.950 . S
H3565 C3577 0.950 . S
H3566 C3574 0.950 . S
H3567 C3576 0.950 . S
H3568 C3578 0.950 . S
H3569 C3580 0.950 . S
H3570 C3582 0.950 . S
H3571 C3583 0.950 . S
C3572 H3564 0.950 . S
C3572 C3573 1.386 . S
C3572 C3574 1.391 . S
C3573 C3572 1.386 . S
C3573 C3577 1.393 . S
C3574 H3566 0.950 . S
C3574 C3572 1.391 . S
C3574 C3575 1.400 . S
C3575 C3574 1.400 . S
C3575 C3576 1.398 . S
C3575 C3581 1.491 1_655 S
C3576 H3567 0.950 . S
C3576 C3575 1.398 . S
C3576 C3577 1.391 . S
C3577 H3565 0.950 . S
C3577 C3573 1.393 . S
C3577 C3576 1.391 . S
C3578 H3568 0.950 . S
C3578 C3579 1.386 . S
C3578 C3580 1.391 . S
C3579 C3578 1.386 . S
C3579 C3583 1.393 . S
C3580 H3569 0.950 . S
C3580 C3578 1.391 . S
C3580 C3581 1.400 . S
C3581 C3575 1.491 1_455 S
C3581 C3580 1.400 . S
C3581 C3582 1.398 . S
C3582 H3570 0.950 . S
C3582 C3581 1.398 . S
C3582 C3583 1.391 . S
C3583 H3571 0.950 . S
C3583 C3579 1.393 . S
C3583 C3582 1.391 . S
H3584 C3592 0.950 . S
H3585 C3597 0.950 . S
H3586 C3594 0.950 . S
H3587 C3596 0.950 . S
H3588 C3598 0.950 . S
H3589 C3600 0.950 . S
H3590 C3602 0.950 . S
H3591 C3603 0.950 . S
C3592 H3584 0.950 . S
C3592 C3593 1.386 . S
C3592 C3594 1.391 . S
C3593 C3592 1.386 . S
C3593 C3597 1.393 . S
C3594 H3586 0.950 . S
C3594 C3592 1.391 . S
C3594 C3595 1.400 . S
C3595 C3594 1.400 . S
C3595 C3596 1.398 . S
C3595 C3601 1.491 1_554 S
C3596 H3587 0.950 . S
C3596 C3595 1.398 . S
C3596 C3597 1.391 . S
C3597 H3585 0.950 . S
C3597 C3593 1.393 . S
C3597 C3596 1.391 . S
C3598 H3588 0.950 . S
C3598 C3599 1.386 . S
C3598 C3600 1.391 . S
C3599 C3598 1.386 . S
C3599 C3603 1.393 . S
C3600 H3589 0.950 . S
C3600 C3598 1.391 . S
C3600 C3601 1.400 . S
C3601 C3595 1.491 1_556 S
C3601 C3600 1.400 . S
C3601 C3602 1.398 . S
C3602 H3590 0.950 . S
C3602 C3601 1.398 . S
C3602 C3603 1.391 . S
C3603 H3591 0.950 . S
C3603 C3599 1.393 . S
C3603 C3602 1.391 . S
H3604 C3612 0.950 . S
H3605 C3617 0.950 . S
H3606 C3614 0.950 . S
H3607 C3616 0.950 . S
H3608 C3618 0.950 . S
H3609 C3620 0.950 . S
H3610 C3622 0.950 . S
H3611 C3623 0.950 . S
C3612 H3604 0.950 . S
C3612 C3613 1.386 . S
C3612 C3614 1.391 . S
C3613 C3612 1.386 . S
C3613 C3617 1.393 . S
C3614 H3606 0.950 . S
C3614 C3612 1.391 . S
C3614 C3615 1.400 . S
C3615 C3614 1.400 . S
C3615 C3616 1.398 . S
C3615 C3621 1.491 1_556 S
C3616 H3607 0.950 . S
C3616 C3615 1.398 . S
C3616 C3617 1.391 . S
C3617 H3605 0.950 . S
C3617 C3613 1.393 . S
C3617 C3616 1.391 . S
C3618 H3608 0.950 . S
C3618 C3619 1.386 . S
C3618 C3620 1.391 . S
C3619 C3618 1.386 . S
C3619 C3623 1.393 . S
C3620 H3609 0.950 . S
C3620 C3618 1.391 . S
C3620 C3621 1.400 . S
C3621 C3615 1.491 1_554 S
C3621 C3620 1.400 . S
C3621 C3622 1.398 . S
C3622 H3610 0.950 . S
C3622 C3621 1.398 . S
C3622 C3623 1.391 . S
C3623 H3611 0.950 . S
C3623 C3619 1.393 . S
C3623 C3622 1.391 . S
H3624 C3632 0.950 . S
H3625 C3637 0.950 . S
H3626 C3634 0.950 . S
H3627 C3636 0.950 . S
H3628 C3638 0.950 . S
H3629 C3640 0.950 . S
H3630 C3642 0.950 . S
H3631 C3643 0.950 . S
C3632 H3624 0.950 . S
C3632 C3633 1.386 . S
C3632 C3634 1.391 . S
C3633 C3632 1.386 . S
C3633 C3637 1.393 . S
C3634 H3626 0.950 . S
C3634 C3632 1.391 . S
C3634 C3635 1.400 . S
C3635 C3634 1.400 . S
C3635 C3636 1.398 . S
C3635 C3641 1.491 1_554 S
C3636 H3627 0.950 . S
C3636 C3635 1.398 . S
C3636 C3637 1.391 . S
C3637 H3625 0.950 . S
C3637 C3633 1.393 . S
C3637 C3636 1.391 . S
C3638 H3628 0.950 . S
C3638 C3639 1.386 . S
C3638 C3640 1.391 . S
C3639 C3638 1.386 . S
C3639 C3643 1.393 . S
C3640 H3629 0.950 . S
C3640 C3638 1.391 . S
C3640 C3641 1.400 . S
C3641 C3635 1.491 1_556 S
C3641 C3640 1.400 . S
C3641 C3642 1.398 . S
C3642 H3630 0.950 . S
C3642 C3641 1.398 . S
C3642 C3643 1.391 . S
C3643 H3631 0.950 . S
C3643 C3639 1.393 . S
C3643 C3642 1.391 . S
H3644 C3652 0.950 . S
H3645 C3657 0.950 . S
H3646 C3654 0.950 . S
H3647 C3656 0.950 . S
H3648 C3658 0.950 . S
H3649 C3660 0.950 . S
H3650 C3662 0.950 . S
H3651 C3663 0.950 . S
C3652 H3644 0.950 . S
C3652 C3653 1.386 . S
C3652 C3654 1.391 . S
C3653 C3652 1.386 . S
C3653 C3657 1.393 . S
C3654 H3646 0.950 . S
C3654 C3652 1.391 . S
C3654 C3655 1.400 . S
C3655 C3654 1.400 . S
C3655 C3656 1.398 . S
C3655 C3661 1.491 1_556 S
C3656 H3647 0.950 . S
C3656 C3655 1.398 . S
C3656 C3657 1.391 . S
C3657 H3645 0.950 . S
C3657 C3653 1.393 . S
C3657 C3656 1.391 . S
C3658 H3648 0.950 . S
C3658 C3659 1.386 . S
C3658 C3660 1.391 . S
C3659 C3658 1.386 . S
C3659 C3663 1.393 . S
C3660 H3649 0.950 . S
C3660 C3658 1.391 . S
C3660 C3661 1.400 . S
C3661 C3655 1.491 1_554 S
C3661 C3660 1.400 . S
C3661 C3662 1.398 . S
C3662 H3650 0.950 . S
C3662 C3661 1.398 . S
C3662 C3663 1.391 . S
C3663 H3651 0.950 . S
C3663 C3659 1.393 . S
C3663 C3662 1.391 . S
H3664 C3672 0.950 . S
H3665 C3677 0.950 . S
H3666 C3674 0.950 . S
H3667 C3676 0.950 . S
H3668 C3678 0.950 . S
H3669 C3680 0.950 . S
H3670 C3682 0.950 . S
H3671 C3683 0.950 . S
C3672 H3664 0.950 . S
C3672 C3673 1.386 . S
C3672 C3674 1.391 . S
C3673 C3672 1.386 . S
C3673 C3677 1.393 . S
C3674 H3666 0.950 . S
C3674 C3672 1.391 . S
C3674 C3675 1.400 . S
C3675 C3674 1.400 . S
C3675 C3676 1.398 . S
C3675 C3681 1.491 1_554 S
C3676 H3667 0.950 . S
C3676 C3675 1.398 . S
C3676 C3677 1.391 . S
C3677 H3665 0.950 . S
C3677 C3673 1.393 . S
C3677 C3676 1.391 . S
C3678 H3668 0.950 . S
C3678 C3679 1.386 . S
C3678 C3680 1.391 . S
C3679 C3678 1.386 . S
C3679 C3683 1.393 . S
C3680 H3669 0.950 . S
C3680 C3678 1.391 . S
C3680 C3681 1.400 . S
C3681 C3675 1.491 1_556 S
C3681 C3680 1.400 . S
C3681 C3682 1.398 . S
C3682 H3670 0.950 . S
C3682 C3681 1.398 . S
C3682 C3683 1.391 . S
C3683 H3671 0.950 . S
C3683 C3679 1.393 . S
C3683 C3682 1.391 . S
H3684 C3692 0.950 . S
H3685 C3697 0.950 . S
H3686 C3694 0.950 . S
H3687 C3696 0.950 . S
H3688 C3698 0.950 . S
H3689 C3700 0.950 . S
H3690 C3702 0.950 . S
H3691 C3703 0.950 . S
C3692 H3684 0.950 . S
C3692 C3693 1.386 . S
C3692 C3694 1.391 . S
C3693 C3692 1.386 . S
C3693 C3697 1.393 . S
C3694 H3686 0.950 . S
C3694 C3692 1.391 . S
C3694 C3695 1.400 . S
C3695 C3694 1.400 . S
C3695 C3696 1.398 . S
C3695 C3701 1.491 1_554 S
C3696 H3687 0.950 . S
C3696 C3695 1.398 . S
C3696 C3697 1.391 . S
C3697 H3685 0.950 . S
C3697 C3693 1.393 . S
C3697 C3696 1.391 . S
C3698 H3688 0.950 . S
C3698 C3699 1.386 . S
C3698 C3700 1.391 . S
C3699 C3698 1.386 . S
C3699 C3703 1.393 . S
C3700 H3689 0.950 . S
C3700 C3698 1.391 . S
C3700 C3701 1.400 . S
C3701 C3695 1.491 1_556 S
C3701 C3700 1.400 . S
C3701 C3702 1.398 . S
C3702 H3690 0.950 . S
C3702 C3701 1.398 . S
C3702 C3703 1.391 . S
C3703 H3691 0.950 . S
C3703 C3699 1.393 . S
C3703 C3702 1.391 . S
H3704 C3712 0.950 . S
H3705 C3717 0.950 . S
H3706 C3714 0.950 . S
H3707 C3716 0.950 . S
H3708 C3718 0.950 . S
H3709 C3720 0.950 . S
H3710 C3722 0.950 . S
H3711 C3723 0.950 . S
C3712 H3704 0.950 . S
C3712 C3713 1.386 . S
C3712 C3714 1.391 . S
C3713 C3712 1.386 . S
C3713 C3717 1.393 . S
C3714 H3706 0.950 . S
C3714 C3712 1.391 . S
C3714 C3715 1.400 . S
C3715 C3714 1.400 . S
C3715 C3716 1.398 . S
C3715 C3721 1.491 1_554 S
C3716 H3707 0.950 . S
C3716 C3715 1.398 . S
C3716 C3717 1.391 . S
C3717 H3705 0.950 . S
C3717 C3713 1.393 . S
C3717 C3716 1.391 . S
C3718 H3708 0.950 . S
C3718 C3719 1.386 . S
C3718 C3720 1.391 . S
C3719 C3718 1.386 . S
C3719 C3723 1.393 . S
C3720 H3709 0.950 . S
C3720 C3718 1.391 . S
C3720 C3721 1.400 . S
C3721 C3715 1.491 1_556 S
C3721 C3720 1.400 . S
C3721 C3722 1.398 . S
C3722 H3710 0.950 . S
C3722 C3721 1.398 . S
C3722 C3723 1.391 . S
C3723 H3711 0.950 . S
C3723 C3719 1.393 . S
C3723 C3722 1.391 . S
H3724 C3732 0.950 . S
H3725 C3737 0.950 . S
H3726 C3734 0.950 . S
H3727 C3736 0.950 . S
H3728 C3738 0.950 . S
H3729 C3740 0.950 . S
H3730 C3742 0.950 . S
H3731 C3743 0.950 . S
C3732 H3724 0.950 . S
C3732 C3733 1.386 . S
C3732 C3734 1.391 . S
C3733 C3732 1.386 . S
C3733 C3737 1.393 . S
C3734 H3726 0.950 . S
C3734 C3732 1.391 . S
C3734 C3735 1.400 . S
C3735 C3734 1.400 . S
C3735 C3736 1.398 . S
C3735 C3741 1.491 1_556 S
C3736 H3727 0.950 . S
C3736 C3735 1.398 . S
C3736 C3737 1.391 . S
C3737 H3725 0.950 . S
C3737 C3733 1.393 . S
C3737 C3736 1.391 . S
C3738 H3728 0.950 . S
C3738 C3739 1.386 . S
C3738 C3740 1.391 . S
C3739 C3738 1.386 . S
C3739 C3743 1.393 . S
C3740 H3729 0.950 . S
C3740 C3738 1.391 . S
C3740 C3741 1.400 . S
C3741 C3735 1.491 1_554 S
C3741 C3740 1.400 . S
C3741 C3742 1.398 . S
C3742 H3730 0.950 . S
C3742 C3741 1.398 . S
C3742 C3743 1.391 . S
C3743 H3731 0.950 . S
C3743 C3739 1.393 . S
C3743 C3742 1.391 . S
H3744 C3752 0.950 . S
H3745 C3757 0.950 . S
H3746 C3754 0.950 . S
H3747 C3756 0.950 . S
H3748 C3758 0.950 . S
H3749 C3760 0.950 . S
H3750 C3762 0.950 . S
H3751 C3763 0.950 . S
C3752 H3744 0.950 . S
C3752 C3753 1.386 . S
C3752 C3754 1.391 . S
C3753 C3752 1.386 . S
C3753 C3757 1.393 . S
C3754 H3746 0.950 . S
C3754 C3752 1.391 . S
C3754 C3755 1.400 . S
C3755 C3754 1.400 . S
C3755 C3756 1.398 . S
C3755 C3761 1.491 . S
C3756 H3747 0.950 . S
C3756 C3755 1.398 . S
C3756 C3757 1.391 . S
C3757 H3745 0.950 . S
C3757 C3753 1.393 . S
C3757 C3756 1.391 . S
C3758 H3748 0.950 . S
C3758 C3759 1.386 . S
C3758 C3760 1.391 . S
C3759 C3758 1.386 . S
C3759 C3763 1.393 . S
C3760 H3749 0.950 . S
C3760 C3758 1.391 . S
C3760 C3761 1.400 . S
C3761 C3755 1.491 . S
C3761 C3760 1.400 . S
C3761 C3762 1.398 . S
C3762 H3750 0.950 . S
C3762 C3761 1.398 . S
C3762 C3763 1.391 . S
C3763 H3751 0.950 . S
C3763 C3759 1.393 . S
C3763 C3762 1.391 . S
H3764 C3772 0.950 . S
H3765 C3777 0.950 . S
H3766 C3774 0.950 . S
H3767 C3776 0.950 . S
H3768 C3778 0.950 . S
H3769 C3780 0.950 . S
H3770 C3782 0.950 . S
H3771 C3783 0.950 . S
C3772 H3764 0.950 . S
C3772 C3773 1.386 . S
C3772 C3774 1.391 . S
C3773 C3772 1.386 . S
C3773 C3777 1.393 . S
C3774 H3766 0.950 . S
C3774 C3772 1.391 . S
C3774 C3775 1.400 . S
C3775 C3774 1.400 . S
C3775 C3776 1.398 . S
C3775 C3781 1.491 . S
C3776 H3767 0.950 . S
C3776 C3775 1.398 . S
C3776 C3777 1.391 . S
C3777 H3765 0.950 . S
C3777 C3773 1.393 . S
C3777 C3776 1.391 . S
C3778 H3768 0.950 . S
C3778 C3779 1.386 . S
C3778 C3780 1.391 . S
C3779 C3778 1.386 . S
C3779 C3783 1.393 . S
C3780 H3769 0.950 . S
C3780 C3778 1.391 . S
C3780 C3781 1.400 . S
C3781 C3775 1.491 . S
C3781 C3780 1.400 . S
C3781 C3782 1.398 . S
C3782 H3770 0.950 . S
C3782 C3781 1.398 . S
C3782 C3783 1.391 . S
C3783 H3771 0.950 . S
C3783 C3779 1.393 . S
C3783 C3782 1.391 . S
H3784 C3792 0.950 . S
H3785 C3797 0.950 . S
H3786 C3794 0.950 . S
H3787 C3796 0.950 . S
H3788 C3798 0.950 . S
H3789 C3800 0.950 . S
H3790 C3802 0.950 . S
H3791 C3803 0.950 . S
C3792 H3784 0.950 . S
C3792 C3793 1.386 . S
C3792 C3794 1.391 . S
C3793 C3792 1.386 . S
C3793 C3797 1.393 . S
C3794 H3786 0.950 . S
C3794 C3792 1.391 . S
C3794 C3795 1.400 . S
C3795 C3794 1.400 . S
C3795 C3796 1.398 . S
C3795 C3801 1.491 . S
C3796 H3787 0.950 . S
C3796 C3795 1.398 . S
C3796 C3797 1.391 . S
C3797 H3785 0.950 . S
C3797 C3793 1.393 . S
C3797 C3796 1.391 . S
C3798 H3788 0.950 . S
C3798 C3799 1.386 . S
C3798 C3800 1.391 . S
C3799 C3798 1.386 . S
C3799 C3803 1.393 . S
C3800 H3789 0.950 . S
C3800 C3798 1.391 . S
C3800 C3801 1.400 . S
C3801 C3795 1.491 . S
C3801 C3800 1.400 . S
C3801 C3802 1.398 . S
C3802 H3790 0.950 . S
C3802 C3801 1.398 . S
C3802 C3803 1.391 . S
C3803 H3791 0.950 . S
C3803 C3799 1.393 . S
C3803 C3802 1.391 . S
H3804 C3812 0.950 . S
H3805 C3817 0.950 . S
H3806 C3814 0.950 . S
H3807 C3816 0.950 . S
H3808 C3818 0.950 . S
H3809 C3820 0.950 . S
H3810 C3822 0.950 . S
H3811 C3823 0.950 . S
C3812 H3804 0.950 . S
C3812 C3813 1.386 . S
C3812 C3814 1.391 . S
C3813 C3812 1.386 . S
C3813 C3817 1.393 . S
C3814 H3806 0.950 . S
C3814 C3812 1.391 . S
C3814 C3815 1.400 . S
C3815 C3814 1.400 . S
C3815 C3816 1.398 . S
C3815 C3821 1.491 . S
C3816 H3807 0.950 . S
C3816 C3815 1.398 . S
C3816 C3817 1.391 . S
C3817 H3805 0.950 . S
C3817 C3813 1.393 . S
C3817 C3816 1.391 . S
C3818 H3808 0.950 . S
C3818 C3819 1.386 . S
C3818 C3820 1.391 . S
C3819 C3818 1.386 . S
C3819 C3823 1.393 . S
C3820 H3809 0.950 . S
C3820 C3818 1.391 . S
C3820 C3821 1.400 . S
C3821 C3815 1.491 . S
C3821 C3820 1.400 . S
C3821 C3822 1.398 . S
C3822 H3810 0.950 . S
C3822 C3821 1.398 . S
C3822 C3823 1.391 . S
C3823 H3811 0.950 . S
C3823 C3819 1.393 . S
C3823 C3822 1.391 . S
H3824 C3832 0.950 . S
H3825 C3837 0.950 . S
H3826 C3834 0.950 . S
H3827 C3836 0.950 . S
H3828 C3838 0.950 . S
H3829 C3840 0.950 . S
H3830 C3842 0.950 . S
H3831 C3843 0.950 . S
C3832 H3824 0.950 . S
C3832 C3833 1.386 . S
C3832 C3834 1.391 . S
C3833 C3832 1.386 . S
C3833 C3837 1.393 . S
C3834 H3826 0.950 . S
C3834 C3832 1.391 . S
C3834 C3835 1.400 . S
C3835 C3834 1.400 . S
C3835 C3836 1.398 . S
C3835 C3841 1.491 . S
C3836 H3827 0.950 . S
C3836 C3835 1.398 . S
C3836 C3837 1.391 . S
C3837 H3825 0.950 . S
C3837 C3833 1.393 . S
C3837 C3836 1.391 . S
C3838 H3828 0.950 . S
C3838 C3839 1.386 . S
C3838 C3840 1.391 . S
C3839 C3838 1.386 . S
C3839 C3843 1.393 . S
C3840 H3829 0.950 . S
C3840 C3838 1.391 . S
C3840 C3841 1.400 . S
C3841 C3835 1.491 . S
C3841 C3840 1.400 . S
C3841 C3842 1.398 . S
C3842 H3830 0.950 . S
C3842 C3841 1.398 . S
C3842 C3843 1.391 . S
C3843 H3831 0.950 . S
C3843 C3839 1.393 . S
C3843 C3842 1.391 . S
H3844 C3852 0.950 . S
H3845 C3857 0.950 . S
H3846 C3854 0.950 . S
H3847 C3856 0.950 . S
H3848 C3858 0.950 . S
H3849 C3860 0.950 . S
H3850 C3862 0.950 . S
H3851 C3863 0.950 . S
C3852 H3844 0.950 . S
C3852 C3853 1.386 . S
C3852 C3854 1.391 . S
C3853 C3852 1.386 . S
C3853 C3857 1.393 . S
C3854 H3846 0.950 . S
C3854 C3852 1.391 . S
C3854 C3855 1.400 . S
C3855 C3854 1.400 . S
C3855 C3856 1.398 . S
C3855 C3861 1.491 . S
C3856 H3847 0.950 . S
C3856 C3855 1.398 . S
C3856 C3857 1.391 . S
C3857 H3845 0.950 . S
C3857 C3853 1.393 . S
C3857 C3856 1.391 . S
C3858 H3848 0.950 . S
C3858 C3859 1.386 . S
C3858 C3860 1.391 . S
C3859 C3858 1.386 . S
C3859 C3863 1.393 . S
C3860 H3849 0.950 . S
C3860 C3858 1.391 . S
C3860 C3861 1.400 . S
C3861 C3855 1.491 . S
C3861 C3860 1.400 . S
C3861 C3862 1.398 . S
C3862 H3850 0.950 . S
C3862 C3861 1.398 . S
C3862 C3863 1.391 . S
C3863 H3851 0.950 . S
C3863 C3859 1.393 . S
C3863 C3862 1.391 . S
H3864 C3872 0.950 . S
H3865 C3877 0.950 . S
H3866 C3874 0.950 . S
H3867 C3876 0.950 . S
H3868 C3878 0.950 . S
H3869 C3880 0.950 . S
H3870 C3882 0.950 . S
H3871 C3883 0.950 . S
C3872 H3864 0.950 . S
C3872 C3873 1.386 . S
C3872 C3874 1.391 . S
C3873 C3872 1.386 . S
C3873 C3877 1.393 . S
C3874 H3866 0.950 . S
C3874 C3872 1.391 . S
C3874 C3875 1.400 . S
C3875 C3874 1.400 . S
C3875 C3876 1.398 . S
C3875 C3881 1.491 . S
C3876 H3867 0.950 . S
C3876 C3875 1.398 . S
C3876 C3877 1.391 . S
C3877 H3865 0.950 . S
C3877 C3873 1.393 . S
C3877 C3876 1.391 . S
C3878 H3868 0.950 . S
C3878 C3879 1.386 . S
C3878 C3880 1.391 . S
C3879 C3878 1.386 . S
C3879 C3883 1.393 . S
C3880 H3869 0.950 . S
C3880 C3878 1.391 . S
C3880 C3881 1.400 . S
C3881 C3875 1.491 . S
C3881 C3880 1.400 . S
C3881 C3882 1.398 . S
C3882 H3870 0.950 . S
C3882 C3881 1.398 . S
C3882 C3883 1.391 . S
C3883 H3871 0.950 . S
C3883 C3879 1.393 . S
C3883 C3882 1.391 . S
H3884 C3892 0.950 . S
H3885 C3897 0.950 . S
H3886 C3894 0.950 . S
H3887 C3896 0.950 . S
H3888 C3898 0.950 . S
H3889 C3900 0.950 . S
H3890 C3902 0.950 . S
H3891 C3903 0.950 . S
C3892 H3884 0.950 . S
C3892 C3893 1.386 . S
C3892 C3894 1.391 . S
C3893 C3892 1.386 . S
C3893 C3897 1.393 . S
C3894 H3886 0.950 . S
C3894 C3892 1.391 . S
C3894 C3895 1.400 . S
C3895 C3894 1.400 . S
C3895 C3896 1.398 . S
C3895 C3901 1.491 . S
C3896 H3887 0.950 . S
C3896 C3895 1.398 . S
C3896 C3897 1.391 . S
C3897 H3885 0.950 . S
C3897 C3893 1.393 . S
C3897 C3896 1.391 . S
C3898 H3888 0.950 . S
C3898 C3899 1.386 . S
C3898 C3900 1.391 . S
C3899 C3898 1.386 . S
C3899 C3903 1.393 . S
C3900 H3889 0.950 . S
C3900 C3898 1.391 . S
C3900 C3901 1.400 . S
C3901 C3895 1.491 . S
C3901 C3900 1.400 . S
C3901 C3902 1.398 . S
C3902 H3890 0.950 . S
C3902 C3901 1.398 . S
C3902 C3903 1.391 . S
C3903 H3891 0.950 . S
C3903 C3899 1.393 . S
C3903 C3902 1.391 . S
H3904 C3912 0.950 . S
H3905 C3917 0.950 . S
H3906 C3914 0.950 . S
H3907 C3916 0.950 . S
H3908 C3918 0.950 . S
H3909 C3920 0.950 . S
H3910 C3922 0.950 . S
H3911 C3923 0.950 . S
C3912 H3904 0.950 . S
C3912 C3913 1.386 . S
C3912 C3914 1.391 . S
C3913 C3912 1.386 . S
C3913 C3917 1.393 . S
C3914 H3906 0.950 . S
C3914 C3912 1.391 . S
C3914 C3915 1.400 . S
C3915 C3914 1.400 . S
C3915 C3916 1.398 . S
C3915 C3921 1.491 . S
C3916 H3907 0.950 . S
C3916 C3915 1.398 . S
C3916 C3917 1.391 . S
C3917 H3905 0.950 . S
C3917 C3913 1.393 . S
C3917 C3916 1.391 . S
C3918 H3908 0.950 . S
C3918 C3919 1.386 . S
C3918 C3920 1.391 . S
C3919 C3918 1.386 . S
C3919 C3923 1.393 . S
C3920 H3909 0.950 . S
C3920 C3918 1.391 . S
C3920 C3921 1.400 . S
C3921 C3915 1.491 . S
C3921 C3920 1.400 . S
C3921 C3922 1.398 . S
C3922 H3910 0.950 . S
C3922 C3921 1.398 . S
C3922 C3923 1.391 . S
C3923 H3911 0.950 . S
C3923 C3919 1.393 . S
C3923 C3922 1.391 . S
H3924 C3932 0.950 . S
H3925 C3937 0.950 . S
H3926 C3934 0.950 . S
H3927 C3936 0.950 . S
H3928 C3938 0.950 . S
H3929 C3940 0.950 . S
H3930 C3942 0.950 . S
H3931 C3943 0.950 . S
C3932 H3924 0.950 . S
C3932 C3933 1.386 . S
C3932 C3934 1.391 . S
C3933 C3932 1.386 . S
C3933 C3937 1.393 . S
C3934 H3926 0.950 . S
C3934 C3932 1.391 . S
C3934 C3935 1.400 . S
C3935 C3934 1.400 . S
C3935 C3936 1.398 . S
C3935 C3941 1.491 . S
C3936 H3927 0.950 . S
C3936 C3935 1.398 . S
C3936 C3937 1.391 . S
C3937 H3925 0.950 . S
C3937 C3933 1.393 . S
C3937 C3936 1.391 . S
C3938 H3928 0.950 . S
C3938 C3939 1.386 . S
C3938 C3940 1.391 . S
C3939 C3938 1.386 . S
C3939 C3943 1.393 . S
C3940 H3929 0.950 . S
C3940 C3938 1.391 . S
C3940 C3941 1.400 . S
C3941 C3935 1.491 . S
C3941 C3940 1.400 . S
C3941 C3942 1.398 . S
C3942 H3930 0.950 . S
C3942 C3941 1.398 . S
C3942 C3943 1.391 . S
C3943 H3931 0.950 . S
C3943 C3939 1.393 . S
C3943 C3942 1.391 . S
H3944 C3952 0.950 . S
H3945 C3957 0.950 . S
H3946 C3954 0.950 . S
H3947 C3956 0.950 . S
H3948 C3958 0.950 . S
H3949 C3960 0.950 . S
H3950 C3962 0.950 . S
H3951 C3963 0.950 . S
C3952 H3944 0.950 . S
C3952 C3953 1.386 . S
C3952 C3954 1.391 . S
C3953 C3952 1.386 . S
C3953 C3957 1.393 . S
C3954 H3946 0.950 . S
C3954 C3952 1.391 . S
C3954 C3955 1.400 . S
C3955 C3954 1.400 . S
C3955 C3956 1.398 . S
C3955 C3961 1.491 . S
C3956 H3947 0.950 . S
C3956 C3955 1.398 . S
C3956 C3957 1.391 . S
C3957 H3945 0.950 . S
C3957 C3953 1.393 . S
C3957 C3956 1.391 . S
C3958 H3948 0.950 . S
C3958 C3959 1.386 . S
C3958 C3960 1.391 . S
C3959 C3958 1.386 . S
C3959 C3963 1.393 . S
C3960 H3949 0.950 . S
C3960 C3958 1.391 . S
C3960 C3961 1.400 . S
C3961 C3955 1.491 . S
C3961 C3960 1.400 . S
C3961 C3962 1.398 . S
C3962 H3950 0.950 . S
C3962 C3961 1.398 . S
C3962 C3963 1.391 . S
C3963 H3951 0.950 . S
C3963 C3959 1.393 . S
C3963 C3962 1.391 . S
H3964 C3972 0.950 . S
H3965 C3977 0.950 . S
H3966 C3974 0.950 . S
H3967 C3976 0.950 . S
H3968 C3978 0.950 . S
H3969 C3980 0.950 . S
H3970 C3982 0.950 . S
H3971 C3983 0.950 . S
C3972 H3964 0.950 . S
C3972 C3973 1.386 . S
C3972 C3974 1.391 . S
C3973 C3972 1.386 . S
C3973 C3977 1.393 . S
C3974 H3966 0.950 . S
C3974 C3972 1.391 . S
C3974 C3975 1.400 . S
C3975 C3974 1.400 . S
C3975 C3976 1.398 . S
C3975 C3981 1.491 . S
C3976 H3967 0.950 . S
C3976 C3975 1.398 . S
C3976 C3977 1.391 . S
C3977 H3965 0.950 . S
C3977 C3973 1.393 . S
C3977 C3976 1.391 . S
C3978 H3968 0.950 . S
C3978 C3979 1.386 . S
C3978 C3980 1.391 . S
C3979 C3978 1.386 . S
C3979 C3983 1.393 . S
C3980 H3969 0.950 . S
C3980 C3978 1.391 . S
C3980 C3981 1.400 . S
C3981 C3975 1.491 . S
C3981 C3980 1.400 . S
C3981 C3982 1.398 . S
C3982 H3970 0.950 . S
C3982 C3981 1.398 . S
C3982 C3983 1.391 . S
C3983 H3971 0.950 . S
C3983 C3979 1.393 . S
C3983 C3982 1.391 . S
H3984 C3992 0.950 . S
H3985 C3997 0.950 . S
H3986 C3994 0.950 . S
H3987 C3996 0.950 . S
H3988 C3998 0.950 . S
H3989 C4000 0.950 . S
H3990 C4002 0.950 . S
H3991 C4003 0.950 . S
C3992 H3984 0.950 . S
C3992 C3993 1.386 . S
C3992 C3994 1.391 . S
C3993 C3992 1.386 . S
C3993 C3997 1.393 . S
C3994 H3986 0.950 . S
C3994 C3992 1.391 . S
C3994 C3995 1.400 . S
C3995 C3994 1.400 . S
C3995 C3996 1.398 . S
C3995 C4001 1.491 . S
C3996 H3987 0.950 . S
C3996 C3995 1.398 . S
C3996 C3997 1.391 . S
C3997 H3985 0.950 . S
C3997 C3993 1.393 . S
C3997 C3996 1.391 . S
C3998 H3988 0.950 . S
C3998 C3999 1.386 . S
C3998 C4000 1.391 . S
C3999 C3998 1.386 . S
C3999 C4003 1.393 . S
C4000 H3989 0.950 . S
C4000 C3998 1.391 . S
C4000 C4001 1.400 . S
C4001 C3995 1.491 . S
C4001 C4000 1.400 . S
C4001 C4002 1.398 . S
C4002 H3990 0.950 . S
C4002 C4001 1.398 . S
C4002 C4003 1.391 . S
C4003 H3991 0.950 . S
C4003 C3999 1.393 . S
C4003 C4002 1.391 . S
H4004 C4012 0.950 . S
H4005 C4017 0.950 . S
H4006 C4014 0.950 . S
H4007 C4016 0.950 . S
H4008 C4018 0.950 . S
H4009 C4020 0.950 . S
H4010 C4022 0.950 . S
H4011 C4023 0.950 . S
C4012 H4004 0.950 . S
C4012 C4013 1.386 . S
C4012 C4014 1.391 . S
C4013 C4012 1.386 . S
C4013 C4017 1.393 . S
C4014 H4006 0.950 . S
C4014 C4012 1.391 . S
C4014 C4015 1.400 . S
C4015 C4014 1.400 . S
C4015 C4016 1.398 . S
C4015 C4021 1.491 . S
C4016 H4007 0.950 . S
C4016 C4015 1.398 . S
C4016 C4017 1.391 . S
C4017 H4005 0.950 . S
C4017 C4013 1.393 . S
C4017 C4016 1.391 . S
C4018 H4008 0.950 . S
C4018 C4019 1.386 . S
C4018 C4020 1.391 . S
C4019 C4018 1.386 . S
C4019 C4023 1.393 . S
C4020 H4009 0.950 . S
C4020 C4018 1.391 . S
C4020 C4021 1.400 . S
C4021 C4015 1.491 . S
C4021 C4020 1.400 . S
C4021 C4022 1.398 . S
C4022 H4010 0.950 . S
C4022 C4021 1.398 . S
C4022 C4023 1.391 . S
C4023 H4011 0.950 . S
C4023 C4019 1.393 . S
C4023 C4022 1.391 . S
H4024 C4032 0.950 . S
H4025 C4037 0.950 . S
H4026 C4034 0.950 . S
H4027 C4036 0.950 . S
H4028 C4038 0.950 . S
H4029 C4040 0.950 . S
H4030 C4042 0.950 . S
H4031 C4043 0.950 . S
C4032 H4024 0.950 . S
C4032 C4033 1.386 . S
C4032 C4034 1.391 . S
C4033 C4032 1.386 . S
C4033 C4037 1.393 . S
C4034 H4026 0.950 . S
C4034 C4032 1.391 . S
C4034 C4035 1.400 . S
C4035 C4034 1.400 . S
C4035 C4036 1.398 . S
C4035 C4041 1.491 . S
C4036 H4027 0.950 . S
C4036 C4035 1.398 . S
C4036 C4037 1.391 . S
C4037 H4025 0.950 . S
C4037 C4033 1.393 . S
C4037 C4036 1.391 . S
C4038 H4028 0.950 . S
C4038 C4039 1.386 . S
C4038 C4040 1.391 . S
C4039 C4038 1.386 . S
C4039 C4043 1.393 . S
C4040 H4029 0.950 . S
C4040 C4038 1.391 . S
C4040 C4041 1.400 . S
C4041 C4035 1.491 . S
C4041 C4040 1.400 . S
C4041 C4042 1.398 . S
C4042 H4030 0.950 . S
C4042 C4041 1.398 . S
C4042 C4043 1.391 . S
C4043 H4031 0.950 . S
C4043 C4039 1.393 . S
C4043 C4042 1.391 . S
H4044 C4052 0.950 . S
H4045 C4057 0.950 . S
H4046 C4054 0.950 . S
H4047 C4056 0.950 . S
H4048 C4058 0.950 . S
H4049 C4060 0.950 . S
H4050 C4062 0.950 . S
H4051 C4063 0.950 . S
C4052 H4044 0.950 . S
C4052 C4053 1.386 . S
C4052 C4054 1.391 . S
C4053 C4052 1.386 . S
C4053 C4057 1.393 . S
C4054 H4046 0.950 . S
C4054 C4052 1.391 . S
C4054 C4055 1.400 . S
C4055 C4054 1.400 . S
C4055 C4056 1.398 . S
C4055 C4061 1.491 . S
C4056 H4047 0.950 . S
C4056 C4055 1.398 . S
C4056 C4057 1.391 . S
C4057 H4045 0.950 . S
C4057 C4053 1.393 . S
C4057 C4056 1.391 . S
C4058 H4048 0.950 . S
C4058 C4059 1.386 . S
C4058 C4060 1.391 . S
C4059 C4058 1.386 . S
C4059 C4063 1.393 . S
C4060 H4049 0.950 . S
C4060 C4058 1.391 . S
C4060 C4061 1.400 . S
C4061 C4055 1.491 . S
C4061 C4060 1.400 . S
C4061 C4062 1.398 . S
C4062 H4050 0.950 . S
C4062 C4061 1.398 . S
C4062 C4063 1.391 . S
C4063 H4051 0.950 . S
C4063 C4059 1.393 . S
C4063 C4062 1.391 . S
H4064 C4072 0.950 . S
H4065 C4077 0.950 . S
H4066 C4074 0.950 . S
H4067 C4076 0.950 . S
H4068 C4078 0.950 . S
H4069 C4080 0.950 . S
H4070 C4082 0.950 . S
H4071 C4083 0.950 . S
C4072 H4064 0.950 . S
C4072 C4073 1.386 . S
C4072 C4074 1.391 . S
C4073 C4072 1.386 . S
C4073 C4077 1.393 . S
C4074 H4066 0.950 . S
C4074 C4072 1.391 . S
C4074 C4075 1.400 . S
C4075 C4074 1.400 . S
C4075 C4076 1.398 . S
C4075 C4081 1.491 . S
C4076 H4067 0.950 . S
C4076 C4075 1.398 . S
C4076 C4077 1.391 . S
C4077 H4065 0.950 . S
C4077 C4073 1.393 . S
C4077 C4076 1.391 . S
C4078 H4068 0.950 . S
C4078 C4079 1.386 . S
C4078 C4080 1.391 . S
C4079 C4078 1.386 . S
C4079 C4083 1.393 . S
C4080 H4069 0.950 . S
C4080 C4078 1.391 . S
C4080 C4081 1.400 . S
C4081 C4075 1.491 . S
C4081 C4080 1.400 . S
C4081 C4082 1.398 . S
C4082 H4070 0.950 . S
C4082 C4081 1.398 . S
C4082 C4083 1.391 . S
C4083 H4071 0.950 . S
C4083 C4079 1.393 . S
C4083 C4082 1.391 . S
H4084 C4092 0.950 . S
H4085 C4097 0.950 . S
H4086 C4094 0.950 . S
H4087 C4096 0.950 . S
H4088 C4098 0.950 . S
H4089 C4100 0.950 . S
H4090 C4102 0.950 . S
H4091 C4103 0.950 . S
C4092 H4084 0.950 . S
C4092 C4093 1.386 . S
C4092 C4094 1.391 . S
C4093 C4092 1.386 . S
C4093 C4097 1.393 . S
C4094 H4086 0.950 . S
C4094 C4092 1.391 . S
C4094 C4095 1.400 . S
C4095 C4094 1.400 . S
C4095 C4096 1.398 . S
C4095 C4101 1.491 . S
C4096 H4087 0.950 . S
C4096 C4095 1.398 . S
C4096 C4097 1.391 . S
C4097 H4085 0.950 . S
C4097 C4093 1.393 . S
C4097 C4096 1.391 . S
C4098 H4088 0.950 . S
C4098 C4099 1.386 . S
C4098 C4100 1.391 . S
C4099 C4098 1.386 . S
C4099 C4103 1.393 . S
C4100 H4089 0.950 . S
C4100 C4098 1.391 . S
C4100 C4101 1.400 . S
C4101 C4095 1.491 . S
C4101 C4100 1.400 . S
C4101 C4102 1.398 . S
C4102 H4090 0.950 . S
C4102 C4101 1.398 . S
C4102 C4103 1.391 . S
C4103 H4091 0.950 . S
C4103 C4099 1.393 . S
C4103 C4102 1.391 . S
H4104 C4112 0.950 . S
H4105 C4117 0.950 . S
H4106 C4114 0.950 . S
H4107 C4116 0.950 . S
H4108 C4118 0.950 . S
H4109 C4120 0.950 . S
H4110 C4122 0.950 . S
H4111 C4123 0.950 . S
C4112 H4104 0.950 . S
C4112 C4113 1.386 . S
C4112 C4114 1.391 . S
C4113 C4112 1.386 . S
C4113 C4117 1.393 . S
C4114 H4106 0.950 . S
C4114 C4112 1.391 . S
C4114 C4115 1.400 . S
C4115 C4114 1.400 . S
C4115 C4116 1.398 . S
C4115 C4121 1.491 . S
C4116 H4107 0.950 . S
C4116 C4115 1.398 . S
C4116 C4117 1.391 . S
C4117 H4105 0.950 . S
C4117 C4113 1.393 . S
C4117 C4116 1.391 . S
C4118 H4108 0.950 . S
C4118 C4119 1.386 . S
C4118 C4120 1.391 . S
C4119 C4118 1.386 . S
C4119 C4123 1.393 . S
C4120 H4109 0.950 . S
C4120 C4118 1.391 . S
C4120 C4121 1.400 . S
C4121 C4115 1.491 . S
C4121 C4120 1.400 . S
C4121 C4122 1.398 . S
C4122 H4110 0.950 . S
C4122 C4121 1.398 . S
C4122 C4123 1.391 . S
C4123 H4111 0.950 . S
C4123 C4119 1.393 . S
C4123 C4122 1.391 . S
H4124 C4132 0.950 . S
H4125 C4137 0.950 . S
H4126 C4134 0.950 . S
H4127 C4136 0.950 . S
H4128 C4138 0.950 . S
H4129 C4140 0.950 . S
H4130 C4142 0.950 . S
H4131 C4143 0.950 . S
C4132 H4124 0.950 . S
C4132 C4133 1.386 . S
C4132 C4134 1.391 . S
C4133 C4132 1.386 . S
C4133 C4137 1.393 . S
C4134 H4126 0.950 . S
C4134 C4132 1.391 . S
C4134 C4135 1.400 . S
C4135 C4134 1.400 . S
C4135 C4136 1.398 . S
C4135 C4141 1.491 . S
C4136 H4127 0.950 . S
C4136 C4135 1.398 . S
C4136 C4137 1.391 . S
C4137 H4125 0.950 . S
C4137 C4133 1.393 . S
C4137 C4136 1.391 . S
C4138 H4128 0.950 . S
C4138 C4139 1.386 . S
C4138 C4140 1.391 . S
C4139 C4138 1.386 . S
C4139 C4143 1.393 . S
C4140 H4129 0.950 . S
C4140 C4138 1.391 . S
C4140 C4141 1.400 . S
C4141 C4135 1.491 . S
C4141 C4140 1.400 . S
C4141 C4142 1.398 . S
C4142 H4130 0.950 . S
C4142 C4141 1.398 . S
C4142 C4143 1.391 . S
C4143 H4131 0.950 . S
C4143 C4139 1.393 . S
C4143 C4142 1.391 . S
H4144 C4152 0.950 . S
H4145 C4157 0.950 . S
H4146 C4154 0.950 . S
H4147 C4156 0.950 . S
H4148 C4158 0.950 . S
H4149 C4160 0.950 . S
H4150 C4162 0.950 . S
H4151 C4163 0.950 . S
C4152 H4144 0.950 . S
C4152 C4153 1.386 . S
C4152 C4154 1.391 . S
C4153 C4152 1.386 . S
C4153 C4157 1.393 . S
C4154 H4146 0.950 . S
C4154 C4152 1.391 . S
C4154 C4155 1.400 . S
C4155 C4154 1.400 . S
C4155 C4156 1.398 . S
C4155 C4161 1.491 . S
C4156 H4147 0.950 . S
C4156 C4155 1.398 . S
C4156 C4157 1.391 . S
C4157 H4145 0.950 . S
C4157 C4153 1.393 . S
C4157 C4156 1.391 . S
C4158 H4148 0.950 . S
C4158 C4159 1.386 . S
C4158 C4160 1.391 . S
C4159 C4158 1.386 . S
C4159 C4163 1.393 . S
C4160 H4149 0.950 . S
C4160 C4158 1.391 . S
C4160 C4161 1.400 . S
C4161 C4155 1.491 . S
C4161 C4160 1.400 . S
C4161 C4162 1.398 . S
C4162 H4150 0.950 . S
C4162 C4161 1.398 . S
C4162 C4163 1.391 . S
C4163 H4151 0.950 . S
C4163 C4159 1.393 . S
C4163 C4162 1.391 . S
H4164 C4172 0.950 . S
H4165 C4177 0.950 . S
H4166 C4174 0.950 . S
H4167 C4176 0.950 . S
H4168 C4178 0.950 . S
H4169 C4180 0.950 . S
H4170 C4182 0.950 . S
H4171 C4183 0.950 . S
C4172 H4164 0.950 . S
C4172 C4173 1.386 . S
C4172 C4174 1.391 . S
C4173 C4172 1.386 . S
C4173 C4177 1.393 . S
C4174 H4166 0.950 . S
C4174 C4172 1.391 . S
C4174 C4175 1.400 . S
C4175 C4174 1.400 . S
C4175 C4176 1.398 . S
C4175 C4181 1.491 . S
C4176 H4167 0.950 . S
C4176 C4175 1.398 . S
C4176 C4177 1.391 . S
C4177 H4165 0.950 . S
C4177 C4173 1.393 . S
C4177 C4176 1.391 . S
C4178 H4168 0.950 . S
C4178 C4179 1.386 . S
C4178 C4180 1.391 . S
C4179 C4178 1.386 . S
C4179 C4183 1.393 . S
C4180 H4169 0.950 . S
C4180 C4178 1.391 . S
C4180 C4181 1.400 . S
C4181 C4175 1.491 . S
C4181 C4180 1.400 . S
C4181 C4182 1.398 . S
C4182 H4170 0.950 . S
C4182 C4181 1.398 . S
C4182 C4183 1.391 . S
C4183 H4171 0.950 . S
C4183 C4179 1.393 . S
C4183 C4182 1.391 . S
H4184 C4192 0.950 . S
H4185 C4197 0.950 . S
H4186 C4194 0.950 . S
H4187 C4196 0.950 . S
H4188 C4198 0.950 . S
H4189 C4200 0.950 . S
H4190 C4202 0.950 . S
H4191 C4203 0.950 . S
C4192 H4184 0.950 . S
C4192 C4193 1.386 . S
C4192 C4194 1.391 . S
C4193 C4192 1.386 . S
C4193 C4197 1.393 . S
C4194 H4186 0.950 . S
C4194 C4192 1.391 . S
C4194 C4195 1.400 . S
C4195 C4194 1.400 . S
C4195 C4196 1.398 . S
C4195 C4201 1.491 . S
C4196 H4187 0.950 . S
C4196 C4195 1.398 . S
C4196 C4197 1.391 . S
C4197 H4185 0.950 . S
C4197 C4193 1.393 . S
C4197 C4196 1.391 . S
C4198 H4188 0.950 . S
C4198 C4199 1.386 . S
C4198 C4200 1.391 . S
C4199 C4198 1.386 . S
C4199 C4203 1.393 . S
C4200 H4189 0.950 . S
C4200 C4198 1.391 . S
C4200 C4201 1.400 . S
C4201 C4195 1.491 . S
C4201 C4200 1.400 . S
C4201 C4202 1.398 . S
C4202 H4190 0.950 . S
C4202 C4201 1.398 . S
C4202 C4203 1.391 . S
C4203 H4191 0.950 . S
C4203 C4199 1.393 . S
C4203 C4202 1.391 . S
H4204 C4212 0.950 . S
H4205 C4217 0.950 . S
H4206 C4214 0.950 . S
H4207 C4216 0.950 . S
H4208 C4218 0.950 . S
H4209 C4220 0.950 . S
H4210 C4222 0.950 . S
H4211 C4223 0.950 . S
C4212 H4204 0.950 . S
C4212 C4213 1.386 . S
C4212 C4214 1.391 . S
C4213 C4212 1.386 . S
C4213 C4217 1.393 . S
C4214 H4206 0.950 . S
C4214 C4212 1.391 . S
C4214 C4215 1.400 . S
C4215 C4214 1.400 . S
C4215 C4216 1.398 . S
C4215 C4221 1.491 . S
C4216 H4207 0.950 . S
C4216 C4215 1.398 . S
C4216 C4217 1.391 . S
C4217 H4205 0.950 . S
C4217 C4213 1.393 . S
C4217 C4216 1.391 . S
C4218 H4208 0.950 . S
C4218 C4219 1.386 . S
C4218 C4220 1.391 . S
C4219 C4218 1.386 . S
C4219 C4223 1.393 . S
C4220 H4209 0.950 . S
C4220 C4218 1.391 . S
C4220 C4221 1.400 . S
C4221 C4215 1.491 . S
C4221 C4220 1.400 . S
C4221 C4222 1.398 . S
C4222 H4210 0.950 . S
C4222 C4221 1.398 . S
C4222 C4223 1.391 . S
C4223 H4211 0.950 . S
C4223 C4219 1.393 . S
C4223 C4222 1.391 . S
H4224 C4232 0.950 . S
H4225 C4237 0.950 . S
H4226 C4234 0.950 . S
H4227 C4236 0.950 . S
H4228 C4238 0.950 . S
H4229 C4240 0.950 . S
H4230 C4242 0.950 . S
H4231 C4243 0.950 . S
C4232 H4224 0.950 . S
C4232 C4233 1.386 . S
C4232 C4234 1.391 . S
C4233 C4232 1.386 . S
C4233 C4237 1.393 . S
C4234 H4226 0.950 . S
C4234 C4232 1.391 . S
C4234 C4235 1.400 . S
C4235 C4234 1.400 . S
C4235 C4236 1.398 . S
C4235 C4241 1.491 . S
C4236 H4227 0.950 . S
C4236 C4235 1.398 . S
C4236 C4237 1.391 . S
C4237 H4225 0.950 . S
C4237 C4233 1.393 . S
C4237 C4236 1.391 . S
C4238 H4228 0.950 . S
C4238 C4239 1.386 . S
C4238 C4240 1.391 . S
C4239 C4238 1.386 . S
C4239 C4243 1.393 . S
C4240 H4229 0.950 . S
C4240 C4238 1.391 . S
C4240 C4241 1.400 . S
C4241 C4235 1.491 . S
C4241 C4240 1.400 . S
C4241 C4242 1.398 . S
C4242 H4230 0.950 . S
C4242 C4241 1.398 . S
C4242 C4243 1.391 . S
C4243 H4231 0.950 . S
C4243 C4239 1.393 . S
C4243 C4242 1.391 . S
H4244 C4252 0.950 . S
H4245 C4257 0.950 . S
H4246 C4254 0.950 . S
H4247 C4256 0.950 . S
H4248 C4258 0.950 . S
H4249 C4260 0.950 . S
H4250 C4262 0.950 . S
H4251 C4263 0.950 . S
C4252 H4244 0.950 . S
C4252 C4253 1.386 . S
C4252 C4254 1.391 . S
C4253 C4252 1.386 . S
C4253 C4257 1.393 . S
C4254 H4246 0.950 . S
C4254 C4252 1.391 . S
C4254 C4255 1.400 . S
C4255 C4254 1.400 . S
C4255 C4256 1.398 . S
C4255 C4261 1.491 . S
C4256 H4247 0.950 . S
C4256 C4255 1.398 . S
C4256 C4257 1.391 . S
C4257 H4245 0.950 . S
C4257 C4253 1.393 . S
C4257 C4256 1.391 . S
C4258 H4248 0.950 . S
C4258 C4259 1.386 . S
C4258 C4260 1.391 . S
C4259 C4258 1.386 . S
C4259 C4263 1.393 . S
C4260 H4249 0.950 . S
C4260 C4258 1.391 . S
C4260 C4261 1.400 . S
C4261 C4255 1.491 . S
C4261 C4260 1.400 . S
C4261 C4262 1.398 . S
C4262 H4250 0.950 . S
C4262 C4261 1.398 . S
C4262 C4263 1.391 . S
C4263 H4251 0.950 . S
C4263 C4259 1.393 . S
C4263 C4262 1.391 . S
H4264 C4272 0.950 . S
H4265 C4277 0.950 . S
H4266 C4274 0.950 . S
H4267 C4276 0.950 . S
H4268 C4278 0.950 . S
H4269 C4280 0.950 . S
H4270 C4282 0.950 . S
H4271 C4283 0.950 . S
C4272 H4264 0.950 . S
C4272 C4273 1.386 . S
C4272 C4274 1.391 . S
C4273 C4272 1.386 . S
C4273 C4277 1.393 . S
C4274 H4266 0.950 . S
C4274 C4272 1.391 . S
C4274 C4275 1.400 . S
C4275 C4274 1.400 . S
C4275 C4276 1.398 . S
C4275 C4281 1.491 . S
C4276 H4267 0.950 . S
C4276 C4275 1.398 . S
C4276 C4277 1.391 . S
C4277 H4265 0.950 . S
C4277 C4273 1.393 . S
C4277 C4276 1.391 . S
C4278 H4268 0.950 . S
C4278 C4279 1.386 . S
C4278 C4280 1.391 . S
C4279 C4278 1.386 . S
C4279 C4283 1.393 . S
C4280 H4269 0.950 . S
C4280 C4278 1.391 . S
C4280 C4281 1.400 . S
C4281 C4275 1.491 . S
C4281 C4280 1.400 . S
C4281 C4282 1.398 . S
C4282 H4270 0.950 . S
C4282 C4281 1.398 . S
C4282 C4283 1.391 . S
C4283 H4271 0.950 . S
C4283 C4279 1.393 . S
C4283 C4282 1.391 . S
H4284 C4292 0.950 . S
H4285 C4297 0.950 . S
H4286 C4294 0.950 . S
H4287 C4296 0.950 . S
H4288 C4298 0.950 . S
H4289 C4300 0.950 . S
H4290 C4302 0.950 . S
H4291 C4303 0.950 . S
C4292 H4284 0.950 . S
C4292 C4293 1.386 . S
C4292 C4294 1.391 . S
C4293 C4292 1.386 . S
C4293 C4297 1.393 . S
C4294 H4286 0.950 . S
C4294 C4292 1.391 . S
C4294 C4295 1.400 . S
C4295 C4294 1.400 . S
C4295 C4296 1.398 . S
C4295 C4301 1.491 . S
C4296 H4287 0.950 . S
C4296 C4295 1.398 . S
C4296 C4297 1.391 . S
C4297 H4285 0.950 . S
C4297 C4293 1.393 . S
C4297 C4296 1.391 . S
C4298 H4288 0.950 . S
C4298 C4299 1.386 . S
C4298 C4300 1.391 . S
C4299 C4298 1.386 . S
C4299 C4303 1.393 . S
C4300 H4289 0.950 . S
C4300 C4298 1.391 . S
C4300 C4301 1.400 . S
C4301 C4295 1.491 . S
C4301 C4300 1.400 . S
C4301 C4302 1.398 . S
C4302 H4290 0.950 . S
C4302 C4301 1.398 . S
C4302 C4303 1.391 . S
C4303 H4291 0.950 . S
C4303 C4299 1.393 . S
C4303 C4302 1.391 . S
H4304 C4312 0.950 . S
H4305 C4317 0.950 . S
H4306 C4314 0.950 . S
H4307 C4316 0.950 . S
H4308 C4318 0.950 . S
H4309 C4320 0.950 . S
H4310 C4322 0.950 . S
H4311 C4323 0.950 . S
C4312 H4304 0.950 . S
C4312 C4313 1.386 . S
C4312 C4314 1.391 . S
C4313 C4312 1.386 . S
C4313 C4317 1.393 . S
C4314 H4306 0.950 . S
C4314 C4312 1.391 . S
C4314 C4315 1.400 . S
C4315 C4314 1.400 . S
C4315 C4316 1.398 . S
C4315 C4321 1.491 . S
C4316 H4307 0.950 . S
C4316 C4315 1.398 . S
C4316 C4317 1.391 . S
C4317 H4305 0.950 . S
C4317 C4313 1.393 . S
C4317 C4316 1.391 . S
C4318 H4308 0.950 . S
C4318 C4319 1.386 . S
C4318 C4320 1.391 . S
C4319 C4318 1.386 . S
C4319 C4323 1.393 . S
C4320 H4309 0.950 . S
C4320 C4318 1.391 . S
C4320 C4321 1.400 . S
C4321 C4315 1.491 . S
C4321 C4320 1.400 . S
C4321 C4322 1.398 . S
C4322 H4310 0.950 . S
C4322 C4321 1.398 . S
C4322 C4323 1.391 . S
C4323 H4311 0.950 . S
C4323 C4319 1.393 . S
C4323 C4322 1.391 . S
H4324 C4332 0.950 . S
H4325 C4337 0.950 . S
H4326 C4334 0.950 . S
H4327 C4336 0.950 . S
H4328 C4338 0.950 . S
H4329 C4340 0.950 . S
H4330 C4342 0.950 . S
H4331 C4343 0.950 . S
C4332 H4324 0.950 . S
C4332 C4333 1.386 . S
C4332 C4334 1.391 . S
C4333 C4332 1.386 . S
C4333 C4337 1.393 . S
C4334 H4326 0.950 . S
C4334 C4332 1.391 . S
C4334 C4335 1.400 . S
C4335 C4334 1.400 . S
C4335 C4336 1.398 . S
C4335 C4341 1.491 . S
C4336 H4327 0.950 . S
C4336 C4335 1.398 . S
C4336 C4337 1.391 . S
C4337 H4325 0.950 . S
C4337 C4333 1.393 . S
C4337 C4336 1.391 . S
C4338 H4328 0.950 . S
C4338 C4339 1.386 . S
C4338 C4340 1.391 . S
C4339 C4338 1.386 . S
C4339 C4343 1.393 . S
C4340 H4329 0.950 . S
C4340 C4338 1.391 . S
C4340 C4341 1.400 . S
C4341 C4335 1.491 . S
C4341 C4340 1.400 . S
C4341 C4342 1.398 . S
C4342 H4330 0.950 . S
C4342 C4341 1.398 . S
C4342 C4343 1.391 . S
C4343 H4331 0.950 . S
C4343 C4339 1.393 . S
C4343 C4342 1.391 . S
H4344 C4352 0.950 . S
H4345 C4357 0.950 . S
H4346 C4354 0.950 . S
H4347 C4356 0.950 . S
H4348 C4358 0.950 . S
H4349 C4360 0.950 . S
H4350 C4362 0.950 . S
H4351 C4363 0.950 . S
C4352 H4344 0.950 . S
C4352 C4353 1.386 . S
C4352 C4354 1.391 . S
C4353 C4352 1.386 . S
C4353 C4357 1.393 . S
C4354 H4346 0.950 . S
C4354 C4352 1.391 . S
C4354 C4355 1.400 . S
C4355 C4354 1.400 . S
C4355 C4356 1.398 . S
C4355 C4361 1.491 . S
C4356 H4347 0.950 . S
C4356 C4355 1.398 . S
C4356 C4357 1.391 . S
C4357 H4345 0.950 . S
C4357 C4353 1.393 . S
C4357 C4356 1.391 . S
C4358 H4348 0.950 . S
C4358 C4359 1.386 . S
C4358 C4360 1.391 . S
C4359 C4358 1.386 . S
C4359 C4363 1.393 . S
C4360 H4349 0.950 . S
C4360 C4358 1.391 . S
C4360 C4361 1.400 . S
C4361 C4355 1.491 . S
C4361 C4360 1.400 . S
C4361 C4362 1.398 . S
C4362 H4350 0.950 . S
C4362 C4361 1.398 . S
C4362 C4363 1.391 . S
C4363 H4351 0.950 . S
C4363 C4359 1.393 . S
C4363 C4362 1.391 . S
H4364 C4372 0.950 . S
H4365 C4377 0.950 . S
H4366 C4374 0.950 . S
H4367 C4376 0.950 . S
H4368 C4378 0.950 . S
H4369 C4380 0.950 . S
H4370 C4382 0.950 . S
H4371 C4383 0.950 . S
C4372 H4364 0.950 . S
C4372 C4373 1.386 . S
C4372 C4374 1.391 . S
C4373 C4372 1.386 . S
C4373 C4377 1.393 . S
C4374 H4366 0.950 . S
C4374 C4372 1.391 . S
C4374 C4375 1.400 . S
C4375 C4374 1.400 . S
C4375 C4376 1.398 . S
C4375 C4381 1.491 . S
C4376 H4367 0.950 . S
C4376 C4375 1.398 . S
C4376 C4377 1.391 . S
C4377 H4365 0.950 . S
C4377 C4373 1.393 . S
C4377 C4376 1.391 . S
C4378 H4368 0.950 . S
C4378 C4379 1.386 . S
C4378 C4380 1.391 . S
C4379 C4378 1.386 . S
C4379 C4383 1.393 . S
C4380 H4369 0.950 . S
C4380 C4378 1.391 . S
C4380 C4381 1.400 . S
C4381 C4375 1.491 . S
C4381 C4380 1.400 . S
C4381 C4382 1.398 . S
C4382 H4370 0.950 . S
C4382 C4381 1.398 . S
C4382 C4383 1.391 . S
C4383 H4371 0.950 . S
C4383 C4379 1.393 . S
C4383 C4382 1.391 . S
H4384 C4392 0.950 . S
H4385 C4397 0.950 . S
H4386 C4394 0.950 . S
H4387 C4396 0.950 . S
H4388 C4398 0.950 . S
H4389 C4400 0.950 . S
H4390 C4402 0.950 . S
H4391 C4403 0.950 . S
C4392 H4384 0.950 . S
C4392 C4393 1.386 . S
C4392 C4394 1.391 . S
C4393 C4392 1.386 . S
C4393 C4397 1.393 . S
C4394 H4386 0.950 . S
C4394 C4392 1.391 . S
C4394 C4395 1.400 . S
C4395 C4394 1.400 . S
C4395 C4396 1.398 . S
C4395 C4401 1.491 . S
C4396 H4387 0.950 . S
C4396 C4395 1.398 . S
C4396 C4397 1.391 . S
C4397 H4385 0.950 . S
C4397 C4393 1.393 . S
C4397 C4396 1.391 . S
C4398 H4388 0.950 . S
C4398 C4399 1.386 . S
C4398 C4400 1.391 . S
C4399 C4398 1.386 . S
C4399 C4403 1.393 . S
C4400 H4389 0.950 . S
C4400 C4398 1.391 . S
C4400 C4401 1.400 . S
C4401 C4395 1.491 . S
C4401 C4400 1.400 . S
C4401 C4402 1.398 . S
C4402 H4390 0.950 . S
C4402 C4401 1.398 . S
C4402 C4403 1.391 . S
C4403 H4391 0.950 . S
C4403 C4399 1.393 . S
C4403 C4402 1.391 . S
H4404 C4412 0.950 . S
H4405 C4417 0.950 . S
H4406 C4414 0.950 . S
H4407 C4416 0.950 . S
H4408 C4418 0.950 . S
H4409 C4420 0.950 . S
H4410 C4422 0.950 . S
H4411 C4423 0.950 . S
C4412 H4404 0.950 . S
C4412 C4413 1.386 . S
C4412 C4414 1.391 . S
C4413 C4412 1.386 . S
C4413 C4417 1.393 . S
C4414 H4406 0.950 . S
C4414 C4412 1.391 . S
C4414 C4415 1.400 . S
C4415 C4414 1.400 . S
C4415 C4416 1.398 . S
C4415 C4421 1.491 . S
C4416 H4407 0.950 . S
C4416 C4415 1.398 . S
C4416 C4417 1.391 . S
C4417 H4405 0.950 . S
C4417 C4413 1.393 . S
C4417 C4416 1.391 . S
C4418 H4408 0.950 . S
C4418 C4419 1.386 . S
C4418 C4420 1.391 . S
C4419 C4418 1.386 . S
C4419 C4423 1.393 . S
C4420 H4409 0.950 . S
C4420 C4418 1.391 . S
C4420 C4421 1.400 . S
C4421 C4415 1.491 . S
C4421 C4420 1.400 . S
C4421 C4422 1.398 . S
C4422 H4410 0.950 . S
C4422 C4421 1.398 . S
C4422 C4423 1.391 . S
C4423 H4411 0.950 . S
C4423 C4419 1.393 . S
C4423 C4422 1.391 . S
H4424 C4432 0.950 . S
H4425 C4437 0.950 . S
H4426 C4434 0.950 . S
H4427 C4436 0.950 . S
H4428 C4438 0.950 . S
H4429 C4440 0.950 . S
H4430 C4442 0.950 . S
H4431 C4443 0.950 . S
C4432 H4424 0.950 . S
C4432 C4433 1.386 . S
C4432 C4434 1.391 . S
C4433 C4432 1.386 . S
C4433 C4437 1.393 . S
C4434 H4426 0.950 . S
C4434 C4432 1.391 . S
C4434 C4435 1.400 . S
C4435 C4434 1.400 . S
C4435 C4436 1.398 . S
C4435 C4441 1.491 . S
C4436 H4427 0.950 . S
C4436 C4435 1.398 . S
C4436 C4437 1.391 . S
C4437 H4425 0.950 . S
C4437 C4433 1.393 . S
C4437 C4436 1.391 . S
C4438 H4428 0.950 . S
C4438 C4439 1.386 . S
C4438 C4440 1.391 . S
C4439 C4438 1.386 . S
C4439 C4443 1.393 . S
C4440 H4429 0.950 . S
C4440 C4438 1.391 . S
C4440 C4441 1.400 . S
C4441 C4435 1.491 . S
C4441 C4440 1.400 . S
C4441 C4442 1.398 . S
C4442 H4430 0.950 . S
C4442 C4441 1.398 . S
C4442 C4443 1.391 . S
C4443 H4431 0.950 . S
C4443 C4439 1.393 . S
C4443 C4442 1.391 . S
H4444 C4452 0.950 . S
H4445 C4457 0.950 . S
H4446 C4454 0.950 . S
H4447 C4456 0.950 . S
H4448 C4458 0.950 . S
H4449 C4460 0.950 . S
H4450 C4462 0.950 . S
H4451 C4463 0.950 . S
C4452 H4444 0.950 . S
C4452 C4453 1.386 . S
C4452 C4454 1.391 . S
C4453 C4452 1.386 . S
C4453 C4457 1.393 . S
C4454 H4446 0.950 . S
C4454 C4452 1.391 . S
C4454 C4455 1.400 . S
C4455 C4454 1.400 . S
C4455 C4456 1.398 . S
C4455 C4461 1.491 . S
C4456 H4447 0.950 . S
C4456 C4455 1.398 . S
C4456 C4457 1.391 . S
C4457 H4445 0.950 . S
C4457 C4453 1.393 . S
C4457 C4456 1.391 . S
C4458 H4448 0.950 . S
C4458 C4459 1.386 . S
C4458 C4460 1.391 . S
C4459 C4458 1.386 . S
C4459 C4463 1.393 . S
C4460 H4449 0.950 . S
C4460 C4458 1.391 . S
C4460 C4461 1.400 . S
C4461 C4455 1.491 . S
C4461 C4460 1.400 . S
C4461 C4462 1.398 . S
C4462 H4450 0.950 . S
C4462 C4461 1.398 . S
C4462 C4463 1.391 . S
C4463 H4451 0.950 . S
C4463 C4459 1.393 . S
C4463 C4462 1.391 . S
H4464 C4472 0.950 . S
H4465 C4477 0.950 . S
H4466 C4474 0.950 . S
H4467 C4476 0.950 . S
H4468 C4478 0.950 . S
H4469 C4480 0.950 . S
H4470 C4482 0.950 . S
H4471 C4483 0.950 . S
C4472 H4464 0.950 . S
C4472 C4473 1.386 . S
C4472 C4474 1.391 . S
C4473 C4472 1.386 . S
C4473 C4477 1.393 . S
C4474 H4466 0.950 . S
C4474 C4472 1.391 . S
C4474 C4475 1.400 . S
C4475 C4474 1.400 . S
C4475 C4476 1.398 . S
C4475 C4481 1.491 . S
C4476 H4467 0.950 . S
C4476 C4475 1.398 . S
C4476 C4477 1.391 . S
C4477 H4465 0.950 . S
C4477 C4473 1.393 . S
C4477 C4476 1.391 . S
C4478 H4468 0.950 . S
C4478 C4479 1.386 . S
C4478 C4480 1.391 . S
C4479 C4478 1.386 . S
C4479 C4483 1.393 . S
C4480 H4469 0.950 . S
C4480 C4478 1.391 . S
C4480 C4481 1.400 . S
C4481 C4475 1.491 . S
C4481 C4480 1.400 . S
C4481 C4482 1.398 . S
C4482 H4470 0.950 . S
C4482 C4481 1.398 . S
C4482 C4483 1.391 . S
C4483 H4471 0.950 . S
C4483 C4479 1.393 . S
C4483 C4482 1.391 . S
H4484 C4492 0.950 . S
H4485 C4497 0.950 . S
H4486 C4494 0.950 . S
H4487 C4496 0.950 . S
H4488 C4498 0.950 . S
H4489 C4500 0.950 . S
H4490 C4502 0.950 . S
H4491 C4503 0.950 . S
C4492 H4484 0.950 . S
C4492 C4493 1.386 . S
C4492 C4494 1.391 . S
C4493 C4492 1.386 . S
C4493 C4497 1.393 . S
C4494 H4486 0.950 . S
C4494 C4492 1.391 . S
C4494 C4495 1.400 . S
C4495 C4494 1.400 . S
C4495 C4496 1.398 . S
C4495 C4501 1.491 . S
C4496 H4487 0.950 . S
C4496 C4495 1.398 . S
C4496 C4497 1.391 . S
C4497 H4485 0.950 . S
C4497 C4493 1.393 . S
C4497 C4496 1.391 . S
C4498 H4488 0.950 . S
C4498 C4499 1.386 . S
C4498 C4500 1.391 . S
C4499 C4498 1.386 . S
C4499 C4503 1.393 . S
C4500 H4489 0.950 . S
C4500 C4498 1.391 . S
C4500 C4501 1.400 . S
C4501 C4495 1.491 . S
C4501 C4500 1.400 . S
C4501 C4502 1.398 . S
C4502 H4490 0.950 . S
C4502 C4501 1.398 . S
C4502 C4503 1.391 . S
C4503 H4491 0.950 . S
C4503 C4499 1.393 . S
C4503 C4502 1.391 . S
H4504 C4512 0.950 . S
H4505 C4517 0.950 . S
H4506 C4514 0.950 . S
H4507 C4516 0.950 . S
H4508 C4518 0.950 . S
H4509 C4520 0.950 . S
H4510 C4522 0.950 . S
H4511 C4523 0.950 . S
C4512 H4504 0.950 . S
C4512 C4513 1.386 . S
C4512 C4514 1.391 . S
C4513 C4512 1.386 . S
C4513 C4517 1.393 . S
C4514 H4506 0.950 . S
C4514 C4512 1.391 . S
C4514 C4515 1.400 . S
C4515 C4514 1.400 . S
C4515 C4516 1.398 . S
C4515 C4521 1.491 . S
C4516 H4507 0.950 . S
C4516 C4515 1.398 . S
C4516 C4517 1.391 . S
C4517 H4505 0.950 . S
C4517 C4513 1.393 . S
C4517 C4516 1.391 . S
C4518 H4508 0.950 . S
C4518 C4519 1.386 . S
C4518 C4520 1.391 . S
C4519 C4518 1.386 . S
C4519 C4523 1.393 . S
C4520 H4509 0.950 . S
C4520 C4518 1.391 . S
C4520 C4521 1.400 . S
C4521 C4515 1.491 . S
C4521 C4520 1.400 . S
C4521 C4522 1.398 . S
C4522 H4510 0.950 . S
C4522 C4521 1.398 . S
C4522 C4523 1.391 . S
C4523 H4511 0.950 . S
C4523 C4519 1.393 . S
C4523 C4522 1.391 . S
H4524 C4532 0.950 . S
H4525 C4537 0.950 . S
H4526 C4534 0.950 . S
H4527 C4536 0.950 . S
H4528 C4538 0.950 . S
H4529 C4540 0.950 . S
H4530 C4542 0.950 . S
H4531 C4543 0.950 . S
C4532 H4524 0.950 . S
C4532 C4533 1.386 . S
C4532 C4534 1.391 . S
C4533 C4532 1.386 . S
C4533 C4537 1.393 . S
C4534 H4526 0.950 . S
C4534 C4532 1.391 . S
C4534 C4535 1.400 . S
C4535 C4534 1.400 . S
C4535 C4536 1.398 . S
C4535 C4541 1.491 . S
C4536 H4527 0.950 . S
C4536 C4535 1.398 . S
C4536 C4537 1.391 . S
C4537 H4525 0.950 . S
C4537 C4533 1.393 . S
C4537 C4536 1.391 . S
C4538 H4528 0.950 . S
C4538 C4539 1.386 . S
C4538 C4540 1.391 . S
C4539 C4538 1.386 . S
C4539 C4543 1.393 . S
C4540 H4529 0.950 . S
C4540 C4538 1.391 . S
C4540 C4541 1.400 . S
C4541 C4535 1.491 . S
C4541 C4540 1.400 . S
C4541 C4542 1.398 . S
C4542 H4530 0.950 . S
C4542 C4541 1.398 . S
C4542 C4543 1.391 . S
C4543 H4531 0.950 . S
C4543 C4539 1.393 . S
C4543 C4542 1.391 . S
H4544 C4552 0.950 . S
H4545 C4557 0.950 . S
H4546 C4554 0.950 . S
H4547 C4556 0.950 . S
H4548 C4558 0.950 . S
H4549 C4560 0.950 . S
H4550 C4562 0.950 . S
H4551 C4563 0.950 . S
C4552 H4544 0.950 . S
C4552 C4553 1.386 . S
C4552 C4554 1.391 . S
C4553 C4552 1.386 . S
C4553 C4557 1.393 . S
C4554 H4546 0.950 . S
C4554 C4552 1.391 . S
C4554 C4555 1.400 . S
C4555 C4554 1.400 . S
C4555 C4556 1.398 . S
C4555 C4561 1.491 . S
C4556 H4547 0.950 . S
C4556 C4555 1.398 . S
C4556 C4557 1.391 . S
C4557 H4545 0.950 . S
C4557 C4553 1.393 . S
C4557 C4556 1.391 . S
C4558 H4548 0.950 . S
C4558 C4559 1.386 . S
C4558 C4560 1.391 . S
C4559 C4558 1.386 . S
C4559 C4563 1.393 . S
C4560 H4549 0.950 . S
C4560 C4558 1.391 . S
C4560 C4561 1.400 . S
C4561 C4555 1.491 . S
C4561 C4560 1.400 . S
C4561 C4562 1.398 . S
C4562 H4550 0.950 . S
C4562 C4561 1.398 . S
C4562 C4563 1.391 . S
C4563 H4551 0.950 . S
C4563 C4559 1.393 . S
C4563 C4562 1.391 . S
H4564 C4572 0.950 . S
H4565 C4577 0.950 . S
H4566 C4574 0.950 . S
H4567 C4576 0.950 . S
H4568 C4578 0.950 . S
H4569 C4580 0.950 . S
H4570 C4582 0.950 . S
H4571 C4583 0.950 . S
C4572 H4564 0.950 . S
C4572 C4573 1.386 . S
C4572 C4574 1.391 . S
C4573 C4572 1.386 . S
C4573 C4577 1.393 . S
C4574 H4566 0.950 . S
C4574 C4572 1.391 . S
C4574 C4575 1.400 . S
C4575 C4574 1.400 . S
C4575 C4576 1.398 . S
C4575 C4581 1.491 . S
C4576 H4567 0.950 . S
C4576 C4575 1.398 . S
C4576 C4577 1.391 . S
C4577 H4565 0.950 . S
C4577 C4573 1.393 . S
C4577 C4576 1.391 . S
C4578 H4568 0.950 . S
C4578 C4579 1.386 . S
C4578 C4580 1.391 . S
C4579 C4578 1.386 . S
C4579 C4583 1.393 . S
C4580 H4569 0.950 . S
C4580 C4578 1.391 . S
C4580 C4581 1.400 . S
C4581 C4575 1.491 . S
C4581 C4580 1.400 . S
C4581 C4582 1.398 . S
C4582 H4570 0.950 . S
C4582 C4581 1.398 . S
C4582 C4583 1.391 . S
C4583 H4571 0.950 . S
C4583 C4579 1.393 . S
C4583 C4582 1.391 . S
H4584 C4592 0.950 . S
H4585 C4597 0.950 . S
H4586 C4594 0.950 . S
H4587 C4596 0.950 . S
H4588 C4598 0.950 . S
H4589 C4600 0.950 . S
H4590 C4602 0.950 . S
H4591 C4603 0.950 . S
C4592 H4584 0.950 . S
C4592 C4593 1.386 . S
C4592 C4594 1.391 . S
C4593 C4592 1.386 . S
C4593 C4597 1.393 . S
C4594 H4586 0.950 . S
C4594 C4592 1.391 . S
C4594 C4595 1.400 . S
C4595 C4594 1.400 . S
C4595 C4596 1.398 . S
C4595 C4601 1.491 . S
C4596 H4587 0.950 . S
C4596 C4595 1.398 . S
C4596 C4597 1.391 . S
C4597 H4585 0.950 . S
C4597 C4593 1.393 . S
C4597 C4596 1.391 . S
C4598 H4588 0.950 . S
C4598 C4599 1.386 . S
C4598 C4600 1.391 . S
C4599 C4598 1.386 . S
C4599 C4603 1.393 . S
C4600 H4589 0.950 . S
C4600 C4598 1.391 . S
C4600 C4601 1.400 . S
C4601 C4595 1.491 . S
C4601 C4600 1.400 . S
C4601 C4602 1.398 . S
C4602 H4590 0.950 . S
C4602 C4601 1.398 . S
C4602 C4603 1.391 . S
C4603 H4591 0.950 . S
C4603 C4599 1.393 . S
C4603 C4602 1.391 . S
H4604 C4612 0.950 . S
H4605 C4617 0.950 . S
H4606 C4614 0.950 . S
H4607 C4616 0.950 . S
H4608 C4618 0.950 . S
H4609 C4620 0.950 . S
H4610 C4622 0.950 . S
H4611 C4623 0.950 . S
C4612 H4604 0.950 . S
C4612 C4613 1.386 . S
C4612 C4614 1.391 . S
C4613 C4612 1.386 . S
C4613 C4617 1.393 . S
C4614 H4606 0.950 . S
C4614 C4612 1.391 . S
C4614 C4615 1.400 . S
C4615 C4614 1.400 . S
C4615 C4616 1.398 . S
C4615 C4621 1.491 . S
C4616 H4607 0.950 . S
C4616 C4615 1.398 . S
C4616 C4617 1.391 . S
C4617 H4605 0.950 . S
C4617 C4613 1.393 . S
C4617 C4616 1.391 . S
C4618 H4608 0.950 . S
C4618 C4619 1.386 . S
C4618 C4620 1.391 . S
C4619 C4618 1.386 . S
C4619 C4623 1.393 . S
C4620 H4609 0.950 . S
C4620 C4618 1.391 . S
C4620 C4621 1.400 . S
C4621 C4615 1.491 . S
C4621 C4620 1.400 . S
C4621 C4622 1.398 . S
C4622 H4610 0.950 . S
C4622 C4621 1.398 . S
C4622 C4623 1.391 . S
C4623 H4611 0.950 . S
C4623 C4619 1.393 . S
C4623 C4622 1.391 . S
H4624 C4632 0.950 . S
H4625 C4637 0.950 . S
H4626 C4634 0.950 . S
H4627 C4636 0.950 . S
H4628 C4638 0.950 . S
H4629 C4640 0.950 . S
H4630 C4642 0.950 . S
H4631 C4643 0.950 . S
C4632 H4624 0.950 . S
C4632 C4633 1.386 . S
C4632 C4634 1.391 . S
C4633 C4632 1.386 . S
C4633 C4637 1.393 . S
C4634 H4626 0.950 . S
C4634 C4632 1.391 . S
C4634 C4635 1.400 . S
C4635 C4634 1.400 . S
C4635 C4636 1.398 . S
C4635 C4641 1.491 . S
C4636 H4627 0.950 . S
C4636 C4635 1.398 . S
C4636 C4637 1.391 . S
C4637 H4625 0.950 . S
C4637 C4633 1.393 . S
C4637 C4636 1.391 . S
C4638 H4628 0.950 . S
C4638 C4639 1.386 . S
C4638 C4640 1.391 . S
C4639 C4638 1.386 . S
C4639 C4643 1.393 . S
C4640 H4629 0.950 . S
C4640 C4638 1.391 . S
C4640 C4641 1.400 . S
C4641 C4635 1.491 . S
C4641 C4640 1.400 . S
C4641 C4642 1.398 . S
C4642 H4630 0.950 . S
C4642 C4641 1.398 . S
C4642 C4643 1.391 . S
C4643 H4631 0.950 . S
C4643 C4639 1.393 . S
C4643 C4642 1.391 . S
H4644 C4652 0.950 . S
H4645 C4657 0.950 . S
H4646 C4654 0.950 . S
H4647 C4656 0.950 . S
H4648 C4658 0.950 . S
H4649 C4660 0.950 . S
H4650 C4662 0.950 . S
H4651 C4663 0.950 . S
C4652 H4644 0.950 . S
C4652 C4653 1.386 . S
C4652 C4654 1.391 . S
C4653 C4652 1.386 . S
C4653 C4657 1.393 . S
C4654 H4646 0.950 . S
C4654 C4652 1.391 . S
C4654 C4655 1.400 . S
C4655 C4654 1.400 . S
C4655 C4656 1.398 . S
C4655 C4661 1.491 . S
C4656 H4647 0.950 . S
C4656 C4655 1.398 . S
C4656 C4657 1.391 . S
C4657 H4645 0.950 . S
C4657 C4653 1.393 . S
C4657 C4656 1.391 . S
C4658 H4648 0.950 . S
C4658 C4659 1.386 . S
C4658 C4660 1.391 . S
C4659 C4658 1.386 . S
C4659 C4663 1.393 . S
C4660 H4649 0.950 . S
C4660 C4658 1.391 . S
C4660 C4661 1.400 . S
C4661 C4655 1.491 . S
C4661 C4660 1.400 . S
C4661 C4662 1.398 . S
C4662 H4650 0.950 . S
C4662 C4661 1.398 . S
C4662 C4663 1.391 . S
C4663 H4651 0.950 . S
C4663 C4659 1.393 . S
C4663 C4662 1.391 . S
H4664 C4672 0.950 . S
H4665 C4677 0.950 . S
H4666 C4674 0.950 . S
H4667 C4676 0.950 . S
H4668 C4678 0.950 . S
H4669 C4680 0.950 . S
H4670 C4682 0.950 . S
H4671 C4683 0.950 . S
C4672 H4664 0.950 . S
C4672 C4673 1.386 . S
C4672 C4674 1.391 . S
C4673 C4672 1.386 . S
C4673 C4677 1.393 . S
C4674 H4666 0.950 . S
C4674 C4672 1.391 . S
C4674 C4675 1.400 . S
C4675 C4674 1.400 . S
C4675 C4676 1.398 . S
C4675 C4681 1.491 . S
C4676 H4667 0.950 . S
C4676 C4675 1.398 . S
C4676 C4677 1.391 . S
C4677 H4665 0.950 . S
C4677 C4673 1.393 . S
C4677 C4676 1.391 . S
C4678 H4668 0.950 . S
C4678 C4679 1.386 . S
C4678 C4680 1.391 . S
C4679 C4678 1.386 . S
C4679 C4683 1.393 . S
C4680 H4669 0.950 . S
C4680 C4678 1.391 . S
C4680 C4681 1.400 . S
C4681 C4675 1.491 . S
C4681 C4680 1.400 . S
C4681 C4682 1.398 . S
C4682 H4670 0.950 . S
C4682 C4681 1.398 . S
C4682 C4683 1.391 . S
C4683 H4671 0.950 . S
C4683 C4679 1.393 . S
C4683 C4682 1.391 . S
H4684 C4692 0.950 . S
H4685 C4697 0.950 . S
H4686 C4694 0.950 . S
H4687 C4696 0.950 . S
H4688 C4698 0.950 . S
H4689 C4700 0.950 . S
H4690 C4702 0.950 . S
H4691 C4703 0.950 . S
C4692 H4684 0.950 . S
C4692 C4693 1.386 . S
C4692 C4694 1.391 . S
C4693 C4692 1.386 . S
C4693 C4697 1.393 . S
C4694 H4686 0.950 . S
C4694 C4692 1.391 . S
C4694 C4695 1.400 . S
C4695 C4694 1.400 . S
C4695 C4696 1.398 . S
C4695 C4701 1.491 . S
C4696 H4687 0.950 . S
C4696 C4695 1.398 . S
C4696 C4697 1.391 . S
C4697 H4685 0.950 . S
C4697 C4693 1.393 . S
C4697 C4696 1.391 . S
C4698 H4688 0.950 . S
C4698 C4699 1.386 . S
C4698 C4700 1.391 . S
C4699 C4698 1.386 . S
C4699 C4703 1.393 . S
C4700 H4689 0.950 . S
C4700 C4698 1.391 . S
C4700 C4701 1.400 . S
C4701 C4695 1.491 . S
C4701 C4700 1.400 . S
C4701 C4702 1.398 . S
C4702 H4690 0.950 . S
C4702 C4701 1.398 . S
C4702 C4703 1.391 . S
C4703 H4691 0.950 . S
C4703 C4699 1.393 . S
C4703 C4702 1.391 . S
H4704 C4712 0.950 . S
H4705 C4717 0.950 . S
H4706 C4714 0.950 . S
H4707 C4716 0.950 . S
H4708 C4718 0.950 . S
H4709 C4720 0.950 . S
H4710 C4722 0.950 . S
H4711 C4723 0.950 . S
C4712 H4704 0.950 . S
C4712 C4713 1.386 . S
C4712 C4714 1.391 . S
C4713 C4712 1.386 . S
C4713 C4717 1.393 . S
C4714 H4706 0.950 . S
C4714 C4712 1.391 . S
C4714 C4715 1.400 . S
C4715 C4714 1.400 . S
C4715 C4716 1.398 . S
C4715 C4721 1.491 . S
C4716 H4707 0.950 . S
C4716 C4715 1.398 . S
C4716 C4717 1.391 . S
C4717 H4705 0.950 . S
C4717 C4713 1.393 . S
C4717 C4716 1.391 . S
C4718 H4708 0.950 . S
C4718 C4719 1.386 . S
C4718 C4720 1.391 . S
C4719 C4718 1.386 . S
C4719 C4723 1.393 . S
C4720 H4709 0.950 . S
C4720 C4718 1.391 . S
C4720 C4721 1.400 . S
C4721 C4715 1.491 . S
C4721 C4720 1.400 . S
C4721 C4722 1.398 . S
C4722 H4710 0.950 . S
C4722 C4721 1.398 . S
C4722 C4723 1.391 . S
C4723 H4711 0.950 . S
C4723 C4719 1.393 . S
C4723 C4722 1.391 . S
H4724 C4732 0.950 . S
H4725 C4737 0.950 . S
H4726 C4734 0.950 . S
H4727 C4736 0.950 . S
H4728 C4738 0.950 . S
H4729 C4740 0.950 . S
H4730 C4742 0.950 . S
H4731 C4743 0.950 . S
C4732 H4724 0.950 . S
C4732 C4733 1.386 . S
C4732 C4734 1.391 . S
C4733 C4732 1.386 . S
C4733 C4737 1.393 . S
C4734 H4726 0.950 . S
C4734 C4732 1.391 . S
C4734 C4735 1.400 . S
C4735 C4734 1.400 . S
C4735 C4736 1.398 . S
C4735 C4741 1.491 . S
C4736 H4727 0.950 . S
C4736 C4735 1.398 . S
C4736 C4737 1.391 . S
C4737 H4725 0.950 . S
C4737 C4733 1.393 . S
C4737 C4736 1.391 . S
C4738 H4728 0.950 . S
C4738 C4739 1.386 . S
C4738 C4740 1.391 . S
C4739 C4738 1.386 . S
C4739 C4743 1.393 . S
C4740 H4729 0.950 . S
C4740 C4738 1.391 . S
C4740 C4741 1.400 . S
C4741 C4735 1.491 . S
C4741 C4740 1.400 . S
C4741 C4742 1.398 . S
C4742 H4730 0.950 . S
C4742 C4741 1.398 . S
C4742 C4743 1.391 . S
C4743 H4731 0.950 . S
C4743 C4739 1.393 . S
C4743 C4742 1.391 . S
H4744 C4752 0.950 . S
H4745 C4757 0.950 . S
H4746 C4754 0.950 . S
H4747 C4756 0.950 . S
H4748 C4758 0.950 . S
H4749 C4760 0.950 . S
H4750 C4762 0.950 . S
H4751 C4763 0.950 . S
C4752 H4744 0.950 . S
C4752 C4753 1.386 . S
C4752 C4754 1.391 . S
C4753 C4752 1.386 . S
C4753 C4757 1.393 . S
C4754 H4746 0.950 . S
C4754 C4752 1.391 . S
C4754 C4755 1.400 . S
C4755 C4754 1.400 . S
C4755 C4756 1.398 . S
C4755 C4761 1.491 . S
C4756 H4747 0.950 . S
C4756 C4755 1.398 . S
C4756 C4757 1.391 . S
C4757 H4745 0.950 . S
C4757 C4753 1.393 . S
C4757 C4756 1.391 . S
C4758 H4748 0.950 . S
C4758 C4759 1.386 . S
C4758 C4760 1.391 . S
C4759 C4758 1.386 . S
C4759 C4763 1.393 . S
C4760 H4749 0.950 . S
C4760 C4758 1.391 . S
C4760 C4761 1.400 . S
C4761 C4755 1.491 . S
C4761 C4760 1.400 . S
C4761 C4762 1.398 . S
C4762 H4750 0.950 . S
C4762 C4761 1.398 . S
C4762 C4763 1.391 . S
C4763 H4751 0.950 . S
C4763 C4759 1.393 . S
C4763 C4762 1.391 . S
H4764 C4772 0.950 . S
H4765 C4777 0.950 . S
H4766 C4774 0.950 . S
H4767 C4776 0.950 . S
H4768 C4778 0.950 . S
H4769 C4780 0.950 . S
H4770 C4782 0.950 . S
H4771 C4783 0.950 . S
C4772 H4764 0.950 . S
C4772 C4773 1.386 . S
C4772 C4774 1.391 . S
C4773 C4772 1.386 . S
C4773 C4777 1.393 . S
C4774 H4766 0.950 . S
C4774 C4772 1.391 . S
C4774 C4775 1.400 . S
C4775 C4774 1.400 . S
C4775 C4776 1.398 . S
C4775 C4781 1.491 . S
C4776 H4767 0.950 . S
C4776 C4775 1.398 . S
C4776 C4777 1.391 . S
C4777 H4765 0.950 . S
C4777 C4773 1.393 . S
C4777 C4776 1.391 . S
C4778 H4768 0.950 . S
C4778 C4779 1.386 . S
C4778 C4780 1.391 . S
C4779 C4778 1.386 . S
C4779 C4783 1.393 . S
C4780 H4769 0.950 . S
C4780 C4778 1.391 . S
C4780 C4781 1.400 . S
C4781 C4775 1.491 . S
C4781 C4780 1.400 . S
C4781 C4782 1.398 . S
C4782 H4770 0.950 . S
C4782 C4781 1.398 . S
C4782 C4783 1.391 . S
C4783 H4771 0.950 . S
C4783 C4779 1.393 . S
C4783 C4782 1.391 . S
H4784 C4792 0.950 . S
H4785 C4797 0.950 . S
H4786 C4794 0.950 . S
H4787 C4796 0.950 . S
H4788 C4798 0.950 . S
H4789 C4800 0.950 . S
H4790 C4802 0.950 . S
H4791 C4803 0.950 . S
C4792 H4784 0.950 . S
C4792 C4793 1.386 . S
C4792 C4794 1.391 . S
C4793 C4792 1.386 . S
C4793 C4797 1.393 . S
C4794 H4786 0.950 . S
C4794 C4792 1.391 . S
C4794 C4795 1.400 . S
C4795 C4794 1.400 . S
C4795 C4796 1.398 . S
C4795 C4801 1.491 . S
C4796 H4787 0.950 . S
C4796 C4795 1.398 . S
C4796 C4797 1.391 . S
C4797 H4785 0.950 . S
C4797 C4793 1.393 . S
C4797 C4796 1.391 . S
C4798 H4788 0.950 . S
C4798 C4799 1.386 . S
C4798 C4800 1.391 . S
C4799 C4798 1.386 . S
C4799 C4803 1.393 . S
C4800 H4789 0.950 . S
C4800 C4798 1.391 . S
C4800 C4801 1.400 . S
C4801 C4795 1.491 . S
C4801 C4800 1.400 . S
C4801 C4802 1.398 . S
C4802 H4790 0.950 . S
C4802 C4801 1.398 . S
C4802 C4803 1.391 . S
C4803 H4791 0.950 . S
C4803 C4799 1.393 . S
C4803 C4802 1.391 . S
H4804 C4812 0.950 . S
H4805 C4817 0.950 . S
H4806 C4814 0.950 . S
H4807 C4816 0.950 . S
H4808 C4818 0.950 . S
H4809 C4820 0.950 . S
H4810 C4822 0.950 . S
H4811 C4823 0.950 . S
C4812 H4804 0.950 . S
C4812 C4813 1.386 . S
C4812 C4814 1.391 . S
C4813 C4812 1.386 . S
C4813 C4817 1.393 . S
C4814 H4806 0.950 . S
C4814 C4812 1.391 . S
C4814 C4815 1.400 . S
C4815 C4814 1.400 . S
C4815 C4816 1.398 . S
C4815 C4821 1.491 . S
C4816 H4807 0.950 . S
C4816 C4815 1.398 . S
C4816 C4817 1.391 . S
C4817 H4805 0.950 . S
C4817 C4813 1.393 . S
C4817 C4816 1.391 . S
C4818 H4808 0.950 . S
C4818 C4819 1.386 . S
C4818 C4820 1.391 . S
C4819 C4818 1.386 . S
C4819 C4823 1.393 . S
C4820 H4809 0.950 . S
C4820 C4818 1.391 . S
C4820 C4821 1.400 . S
C4821 C4815 1.491 . S
C4821 C4820 1.400 . S
C4821 C4822 1.398 . S
C4822 H4810 0.950 . S
C4822 C4821 1.398 . S
C4822 C4823 1.391 . S
C4823 H4811 0.950 . S
C4823 C4819 1.393 . S
C4823 C4822 1.391 . S
H4824 C4832 0.950 . S
H4825 C4837 0.950 . S
H4826 C4834 0.950 . S
H4827 C4836 0.950 . S
H4828 C4838 0.950 . S
H4829 C4840 0.950 . S
H4830 C4842 0.950 . S
H4831 C4843 0.950 . S
C4832 H4824 0.950 . S
C4832 C4833 1.386 . S
C4832 C4834 1.391 . S
C4833 C4832 1.386 . S
C4833 C4837 1.393 . S
C4834 H4826 0.950 . S
C4834 C4832 1.391 . S
C4834 C4835 1.400 . S
C4835 C4834 1.400 . S
C4835 C4836 1.398 . S
C4835 C4841 1.491 . S
C4836 H4827 0.950 . S
C4836 C4835 1.398 . S
C4836 C4837 1.391 . S
C4837 H4825 0.950 . S
C4837 C4833 1.393 . S
C4837 C4836 1.391 . S
C4838 H4828 0.950 . S
C4838 C4839 1.386 . S
C4838 C4840 1.391 . S
C4839 C4838 1.386 . S
C4839 C4843 1.393 . S
C4840 H4829 0.950 . S
C4840 C4838 1.391 . S
C4840 C4841 1.400 . S
C4841 C4835 1.491 . S
C4841 C4840 1.400 . S
C4841 C4842 1.398 . S
C4842 H4830 0.950 . S
C4842 C4841 1.398 . S
C4842 C4843 1.391 . S
C4843 H4831 0.950 . S
C4843 C4839 1.393 . S
C4843 C4842 1.391 . S
H4844 C4852 0.950 . S
H4845 C4857 0.950 . S
H4846 C4854 0.950 . S
H4847 C4856 0.950 . S
H4848 C4858 0.950 . S
H4849 C4860 0.950 . S
H4850 C4862 0.950 . S
H4851 C4863 0.950 . S
C4852 H4844 0.950 . S
C4852 C4853 1.386 . S
C4852 C4854 1.391 . S
C4853 C4852 1.386 . S
C4853 C4857 1.393 . S
C4854 H4846 0.950 . S
C4854 C4852 1.391 . S
C4854 C4855 1.400 . S
C4855 C4854 1.400 . S
C4855 C4856 1.398 . S
C4855 C4861 1.491 . S
C4856 H4847 0.950 . S
C4856 C4855 1.398 . S
C4856 C4857 1.391 . S
C4857 H4845 0.950 . S
C4857 C4853 1.393 . S
C4857 C4856 1.391 . S
C4858 H4848 0.950 . S
C4858 C4859 1.386 . S
C4858 C4860 1.391 . S
C4859 C4858 1.386 . S
C4859 C4863 1.393 . S
C4860 H4849 0.950 . S
C4860 C4858 1.391 . S
C4860 C4861 1.400 . S
C4861 C4855 1.491 . S
C4861 C4860 1.400 . S
C4861 C4862 1.398 . S
C4862 H4850 0.950 . S
C4862 C4861 1.398 . S
C4862 C4863 1.391 . S
C4863 H4851 0.950 . S
C4863 C4859 1.393 . S
C4863 C4862 1.391 . S
H4864 C4872 0.950 . S
H4865 C4877 0.950 . S
H4866 C4874 0.950 . S
H4867 C4876 0.950 . S
H4868 C4878 0.950 . S
H4869 C4880 0.950 . S
H4870 C4882 0.950 . S
H4871 C4883 0.950 . S
C4872 H4864 0.950 . S
C4872 C4873 1.386 . S
C4872 C4874 1.391 . S
C4873 C4872 1.386 . S
C4873 C4877 1.393 . S
C4874 H4866 0.950 . S
C4874 C4872 1.391 . S
C4874 C4875 1.400 . S
C4875 C4874 1.400 . S
C4875 C4876 1.398 . S
C4875 C4881 1.491 . S
C4876 H4867 0.950 . S
C4876 C4875 1.398 . S
C4876 C4877 1.391 . S
C4877 H4865 0.950 . S
C4877 C4873 1.393 . S
C4877 C4876 1.391 . S
C4878 H4868 0.950 . S
C4878 C4879 1.386 . S
C4878 C4880 1.391 . S
C4879 C4878 1.386 . S
C4879 C4883 1.393 . S
C4880 H4869 0.950 . S
C4880 C4878 1.391 . S
C4880 C4881 1.400 . S
C4881 C4875 1.491 . S
C4881 C4880 1.400 . S
C4881 C4882 1.398 . S
C4882 H4870 0.950 . S
C4882 C4881 1.398 . S
C4882 C4883 1.391 . S
C4883 H4871 0.950 . S
C4883 C4879 1.393 . S
C4883 C4882 1.391 . S
H4884 C4892 0.950 . S
H4885 C4897 0.950 . S
H4886 C4894 0.950 . S
H4887 C4896 0.950 . S
H4888 C4898 0.950 . S
H4889 C4900 0.950 . S
H4890 C4902 0.950 . S
H4891 C4903 0.950 . S
C4892 H4884 0.950 . S
C4892 C4893 1.386 . S
C4892 C4894 1.391 . S
C4893 C4892 1.386 . S
C4893 C4897 1.393 . S
C4894 H4886 0.950 . S
C4894 C4892 1.391 . S
C4894 C4895 1.400 . S
C4895 C4894 1.400 . S
C4895 C4896 1.398 . S
C4895 C4901 1.491 . S
C4896 H4887 0.950 . S
C4896 C4895 1.398 . S
C4896 C4897 1.391 . S
C4897 H4885 0.950 . S
C4897 C4893 1.393 . S
C4897 C4896 1.391 . S
C4898 H4888 0.950 . S
C4898 C4899 1.386 . S
C4898 C4900 1.391 . S
C4899 C4898 1.386 . S
C4899 C4903 1.393 . S
C4900 H4889 0.950 . S
C4900 C4898 1.391 . S
C4900 C4901 1.400 . S
C4901 C4895 1.491 . S
C4901 C4900 1.400 . S
C4901 C4902 1.398 . S
C4902 H4890 0.950 . S
C4902 C4901 1.398 . S
C4902 C4903 1.391 . S
C4903 H4891 0.950 . S
C4903 C4899 1.393 . S
C4903 C4902 1.391 . S
H4904 C4912 0.950 . S
H4905 C4917 0.950 . S
H4906 C4914 0.950 . S
H4907 C4916 0.950 . S
H4908 C4918 0.950 . S
H4909 C4920 0.950 . S
H4910 C4922 0.950 . S
H4911 C4923 0.950 . S
C4912 H4904 0.950 . S
C4912 C4913 1.386 . S
C4912 C4914 1.391 . S
C4913 C4912 1.386 . S
C4913 C4917 1.393 . S
C4914 H4906 0.950 . S
C4914 C4912 1.391 . S
C4914 C4915 1.400 . S
C4915 C4914 1.400 . S
C4915 C4916 1.398 . S
C4915 C4921 1.491 . S
C4916 H4907 0.950 . S
C4916 C4915 1.398 . S
C4916 C4917 1.391 . S
C4917 H4905 0.950 . S
C4917 C4913 1.393 . S
C4917 C4916 1.391 . S
C4918 H4908 0.950 . S
C4918 C4919 1.386 . S
C4918 C4920 1.391 . S
C4919 C4918 1.386 . S
C4919 C4923 1.393 . S
C4920 H4909 0.950 . S
C4920 C4918 1.391 . S
C4920 C4921 1.400 . S
C4921 C4915 1.491 . S
C4921 C4920 1.400 . S
C4921 C4922 1.398 . S
C4922 H4910 0.950 . S
C4922 C4921 1.398 . S
C4922 C4923 1.391 . S
C4923 H4911 0.950 . S
C4923 C4919 1.393 . S
C4923 C4922 1.391 . S
H4924 C4932 0.950 . S
H4925 C4937 0.950 . S
H4926 C4934 0.950 . S
H4927 C4936 0.950 . S
H4928 C4938 0.950 . S
H4929 C4940 0.950 . S
H4930 C4942 0.950 . S
H4931 C4943 0.950 . S
C4932 H4924 0.950 . S
C4932 C4933 1.386 . S
C4932 C4934 1.391 . S
C4933 C4932 1.386 . S
C4933 C4937 1.393 . S
C4934 H4926 0.950 . S
C4934 C4932 1.391 . S
C4934 C4935 1.400 . S
C4935 C4934 1.400 . S
C4935 C4936 1.398 . S
C4935 C4941 1.491 . S
C4936 H4927 0.950 . S
C4936 C4935 1.398 . S
C4936 C4937 1.391 . S
C4937 H4925 0.950 . S
C4937 C4933 1.393 . S
C4937 C4936 1.391 . S
C4938 H4928 0.950 . S
C4938 C4939 1.386 . S
C4938 C4940 1.391 . S
C4939 C4938 1.386 . S
C4939 C4943 1.393 . S
C4940 H4929 0.950 . S
C4940 C4938 1.391 . S
C4940 C4941 1.400 . S
C4941 C4935 1.491 . S
C4941 C4940 1.400 . S
C4941 C4942 1.398 . S
C4942 H4930 0.950 . S
C4942 C4941 1.398 . S
C4942 C4943 1.391 . S
C4943 H4931 0.950 . S
C4943 C4939 1.393 . S
C4943 C4942 1.391 . S
H4944 C4952 0.950 . S
H4945 C4957 0.950 . S
H4946 C4954 0.950 . S
H4947 C4956 0.950 . S
H4948 C4958 0.950 . S
H4949 C4960 0.950 . S
H4950 C4962 0.950 . S
H4951 C4963 0.950 . S
C4952 H4944 0.950 . S
C4952 C4953 1.386 . S
C4952 C4954 1.391 . S
C4953 C4952 1.386 . S
C4953 C4957 1.393 . S
C4954 H4946 0.950 . S
C4954 C4952 1.391 . S
C4954 C4955 1.400 . S
C4955 C4954 1.400 . S
C4955 C4956 1.398 . S
C4955 C4961 1.491 . S
C4956 H4947 0.950 . S
C4956 C4955 1.398 . S
C4956 C4957 1.391 . S
C4957 H4945 0.950 . S
C4957 C4953 1.393 . S
C4957 C4956 1.391 . S
C4958 H4948 0.950 . S
C4958 C4959 1.386 . S
C4958 C4960 1.391 . S
C4959 C4958 1.386 . S
C4959 C4963 1.393 . S
C4960 H4949 0.950 . S
C4960 C4958 1.391 . S
C4960 C4961 1.400 . S
C4961 C4955 1.491 . S
C4961 C4960 1.400 . S
C4961 C4962 1.398 . S
C4962 H4950 0.950 . S
C4962 C4961 1.398 . S
C4962 C4963 1.391 . S
C4963 H4951 0.950 . S
C4963 C4959 1.393 . S
C4963 C4962 1.391 . S
H4964 C4972 0.950 . S
H4965 C4977 0.950 . S
H4966 C4974 0.950 . S
H4967 C4976 0.950 . S
H4968 C4978 0.950 . S
H4969 C4980 0.950 . S
H4970 C4982 0.950 . S
H4971 C4983 0.950 . S
C4972 H4964 0.950 . S
C4972 C4973 1.386 . S
C4972 C4974 1.391 . S
C4973 C4972 1.386 . S
C4973 C4977 1.393 . S
C4974 H4966 0.950 . S
C4974 C4972 1.391 . S
C4974 C4975 1.400 . S
C4975 C4974 1.400 . S
C4975 C4976 1.398 . S
C4975 C4981 1.491 . S
C4976 H4967 0.950 . S
C4976 C4975 1.398 . S
C4976 C4977 1.391 . S
C4977 H4965 0.950 . S
C4977 C4973 1.393 . S
C4977 C4976 1.391 . S
C4978 H4968 0.950 . S
C4978 C4979 1.386 . S
C4978 C4980 1.391 . S
C4979 C4978 1.386 . S
C4979 C4983 1.393 . S
C4980 H4969 0.950 . S
C4980 C4978 1.391 . S
C4980 C4981 1.400 . S
C4981 C4975 1.491 . S
C4981 C4980 1.400 . S
C4981 C4982 1.398 . S
C4982 H4970 0.950 . S
C4982 C4981 1.398 . S
C4982 C4983 1.391 . S
C4983 H4971 0.950 . S
C4983 C4979 1.393 . S
C4983 C4982 1.391 . S
H4984 C4992 0.950 . S
H4985 C4997 0.950 . S
H4986 C4994 0.950 . S
H4987 C4996 0.950 . S
H4988 C4998 0.950 . S
H4989 C5000 0.950 . S
H4990 C5002 0.950 . S
H4991 C5003 0.950 . S
C4992 H4984 0.950 . S
C4992 C4993 1.386 . S
C4992 C4994 1.391 . S
C4993 C4992 1.386 . S
C4993 C4997 1.393 . S
C4994 H4986 0.950 . S
C4994 C4992 1.391 . S
C4994 C4995 1.400 . S
C4995 C4994 1.400 . S
C4995 C4996 1.398 . S
C4995 C5001 1.491 . S
C4996 H4987 0.950 . S
C4996 C4995 1.398 . S
C4996 C4997 1.391 . S
C4997 H4985 0.950 . S
C4997 C4993 1.393 . S
C4997 C4996 1.391 . S
C4998 H4988 0.950 . S
C4998 C4999 1.386 . S
C4998 C5000 1.391 . S
C4999 C4998 1.386 . S
C4999 C5003 1.393 . S
C5000 H4989 0.950 . S
C5000 C4998 1.391 . S
C5000 C5001 1.400 . S
C5001 C4995 1.491 . S
C5001 C5000 1.400 . S
C5001 C5002 1.398 . S
C5002 H4990 0.950 . S
C5002 C5001 1.398 . S
C5002 C5003 1.391 . S
C5003 H4991 0.950 . S
C5003 C4999 1.393 . S
C5003 C5002 1.391 . S
H5004 C5012 0.950 . S
H5005 C5017 0.950 . S
H5006 C5014 0.950 . S
H5007 C5016 0.950 . S
H5008 C5018 0.950 . S
H5009 C5020 0.950 . S
H5010 C5022 0.950 . S
H5011 C5023 0.950 . S
C5012 H5004 0.950 . S
C5012 C5013 1.386 . S
C5012 C5014 1.391 . S
C5013 C5012 1.386 . S
C5013 C5017 1.393 . S
C5014 H5006 0.950 . S
C5014 C5012 1.391 . S
C5014 C5015 1.400 . S
C5015 C5014 1.400 . S
C5015 C5016 1.398 . S
C5015 C5021 1.491 . S
C5016 H5007 0.950 . S
C5016 C5015 1.398 . S
C5016 C5017 1.391 . S
C5017 H5005 0.950 . S
C5017 C5013 1.393 . S
C5017 C5016 1.391 . S
C5018 H5008 0.950 . S
C5018 C5019 1.386 . S
C5018 C5020 1.391 . S
C5019 C5018 1.386 . S
C5019 C5023 1.393 . S
C5020 H5009 0.950 . S
C5020 C5018 1.391 . S
C5020 C5021 1.400 . S
C5021 C5015 1.491 . S
C5021 C5020 1.400 . S
C5021 C5022 1.398 . S
C5022 H5010 0.950 . S
C5022 C5021 1.398 . S
C5022 C5023 1.391 . S
C5023 H5011 0.950 . S
C5023 C5019 1.393 . S
C5023 C5022 1.391 . S
H5024 C5032 0.950 . S
H5025 C5037 0.950 . S
H5026 C5034 0.950 . S
H5027 C5036 0.950 . S
H5028 C5038 0.950 . S
H5029 C5040 0.950 . S
H5030 C5042 0.950 . S
H5031 C5043 0.950 . S
C5032 H5024 0.950 . S
C5032 C5033 1.386 . S
C5032 C5034 1.391 . S
C5033 C5032 1.386 . S
C5033 C5037 1.393 . S
C5034 H5026 0.950 . S
C5034 C5032 1.391 . S
C5034 C5035 1.400 . S
C5035 C5034 1.400 . S
C5035 C5036 1.398 . S
C5035 C5041 1.491 . S
C5036 H5027 0.950 . S
C5036 C5035 1.398 . S
C5036 C5037 1.391 . S
C5037 H5025 0.950 . S
C5037 C5033 1.393 . S
C5037 C5036 1.391 . S
C5038 H5028 0.950 . S
C5038 C5039 1.386 . S
C5038 C5040 1.391 . S
C5039 C5038 1.386 . S
C5039 C5043 1.393 . S
C5040 H5029 0.950 . S
C5040 C5038 1.391 . S
C5040 C5041 1.400 . S
C5041 C5035 1.491 . S
C5041 C5040 1.400 . S
C5041 C5042 1.398 . S
C5042 H5030 0.950 . S
C5042 C5041 1.398 . S
C5042 C5043 1.391 . S
C5043 H5031 0.950 . S
C5043 C5039 1.393 . S
C5043 C5042 1.391 . S
H5044 C5052 0.950 . S
H5045 C5057 0.950 . S
H5046 C5054 0.950 . S
H5047 C5056 0.950 . S
H5048 C5058 0.950 . S
H5049 C5060 0.950 . S
H5050 C5062 0.950 . S
H5051 C5063 0.950 . S
C5052 H5044 0.950 . S
C5052 C5053 1.386 . S
C5052 C5054 1.391 . S
C5053 C5052 1.386 . S
C5053 C5057 1.393 . S
C5054 H5046 0.950 . S
C5054 C5052 1.391 . S
C5054 C5055 1.400 . S
C5055 C5054 1.400 . S
C5055 C5056 1.398 . S
C5055 C5061 1.491 . S
C5056 H5047 0.950 . S
C5056 C5055 1.398 . S
C5056 C5057 1.391 . S
C5057 H5045 0.950 . S
C5057 C5053 1.393 . S
C5057 C5056 1.391 . S
C5058 H5048 0.950 . S
C5058 C5059 1.386 . S
C5058 C5060 1.391 . S
C5059 C5058 1.386 . S
C5059 C5063 1.393 . S
C5060 H5049 0.950 . S
C5060 C5058 1.391 . S
C5060 C5061 1.400 . S
C5061 C5055 1.491 . S
C5061 C5060 1.400 . S
C5061 C5062 1.398 . S
C5062 H5050 0.950 . S
C5062 C5061 1.398 . S
C5062 C5063 1.391 . S
C5063 H5051 0.950 . S
C5063 C5059 1.393 . S
C5063 C5062 1.391 . S
H5064 C5072 0.950 . S
H5065 C5077 0.950 . S
H5066 C5074 0.950 . S
H5067 C5076 0.950 . S
H5068 C5078 0.950 . S
H5069 C5080 0.950 . S
H5070 C5082 0.950 . S
H5071 C5083 0.950 . S
C5072 H5064 0.950 . S
C5072 C5073 1.386 . S
C5072 C5074 1.391 . S
C5073 C5072 1.386 . S
C5073 C5077 1.393 . S
C5074 H5066 0.950 . S
C5074 C5072 1.391 . S
C5074 C5075 1.400 . S
C5075 C5074 1.400 . S
C5075 C5076 1.398 . S
C5075 C5081 1.491 . S
C5076 H5067 0.950 . S
C5076 C5075 1.398 . S
C5076 C5077 1.391 . S
C5077 H5065 0.950 . S
C5077 C5073 1.393 . S
C5077 C5076 1.391 . S
C5078 H5068 0.950 . S
C5078 C5079 1.386 . S
C5078 C5080 1.391 . S
C5079 C5078 1.386 . S
C5079 C5083 1.393 . S
C5080 H5069 0.950 . S
C5080 C5078 1.391 . S
C5080 C5081 1.400 . S
C5081 C5075 1.491 . S
C5081 C5080 1.400 . S
C5081 C5082 1.398 . S
C5082 H5070 0.950 . S
C5082 C5081 1.398 . S
C5082 C5083 1.391 . S
C5083 H5071 0.950 . S
C5083 C5079 1.393 . S
C5083 C5082 1.391 . S
H5084 C5092 0.950 . S
H5085 C5097 0.950 . S
H5086 C5094 0.950 . S
H5087 C5096 0.950 . S
H5088 C5098 0.950 . S
H5089 C5100 0.950 . S
H5090 C5102 0.950 . S
H5091 C5103 0.950 . S
C5092 H5084 0.950 . S
C5092 C5093 1.386 . S
C5092 C5094 1.391 . S
C5093 C5092 1.386 . S
C5093 C5097 1.393 . S
C5094 H5086 0.950 . S
C5094 C5092 1.391 . S
C5094 C5095 1.400 . S
C5095 C5094 1.400 . S
C5095 C5096 1.398 . S
C5095 C5101 1.491 . S
C5096 H5087 0.950 . S
C5096 C5095 1.398 . S
C5096 C5097 1.391 . S
C5097 H5085 0.950 . S
C5097 C5093 1.393 . S
C5097 C5096 1.391 . S
C5098 H5088 0.950 . S
C5098 C5099 1.386 . S
C5098 C5100 1.391 . S
C5099 C5098 1.386 . S
C5099 C5103 1.393 . S
C5100 H5089 0.950 . S
C5100 C5098 1.391 . S
C5100 C5101 1.400 . S
C5101 C5095 1.491 . S
C5101 C5100 1.400 . S
C5101 C5102 1.398 . S
C5102 H5090 0.950 . S
C5102 C5101 1.398 . S
C5102 C5103 1.391 . S
C5103 H5091 0.950 . S
C5103 C5099 1.393 . S
C5103 C5102 1.391 . S
H5104 C5112 0.950 . S
H5105 C5117 0.950 . S
H5106 C5114 0.950 . S
H5107 C5116 0.950 . S
H5108 C5118 0.950 . S
H5109 C5120 0.950 . S
H5110 C5122 0.950 . S
H5111 C5123 0.950 . S
C5112 H5104 0.950 . S
C5112 C5113 1.386 . S
C5112 C5114 1.391 . S
C5113 C5112 1.386 . S
C5113 C5117 1.393 . S
C5114 H5106 0.950 . S
C5114 C5112 1.391 . S
C5114 C5115 1.400 . S
C5115 C5114 1.400 . S
C5115 C5116 1.398 . S
C5115 C5121 1.491 . S
C5116 H5107 0.950 . S
C5116 C5115 1.398 . S
C5116 C5117 1.391 . S
C5117 H5105 0.950 . S
C5117 C5113 1.393 . S
C5117 C5116 1.391 . S
C5118 H5108 0.950 . S
C5118 C5119 1.386 . S
C5118 C5120 1.391 . S
C5119 C5118 1.386 . S
C5119 C5123 1.393 . S
C5120 H5109 0.950 . S
C5120 C5118 1.391 . S
C5120 C5121 1.400 . S
C5121 C5115 1.491 . S
C5121 C5120 1.400 . S
C5121 C5122 1.398 . S
C5122 H5110 0.950 . S
C5122 C5121 1.398 . S
C5122 C5123 1.391 . S
C5123 H5111 0.950 . S
C5123 C5119 1.393 . S
C5123 C5122 1.391 . S
H5124 C5132 0.950 . S
H5125 C5137 0.950 . S
H5126 C5134 0.950 . S
H5127 C5136 0.950 . S
H5128 C5138 0.950 . S
H5129 C5140 0.950 . S
H5130 C5142 0.950 . S
H5131 C5143 0.950 . S
C5132 H5124 0.950 . S
C5132 C5133 1.386 . S
C5132 C5134 1.391 . S
C5133 C5132 1.386 . S
C5133 C5137 1.393 . S
C5134 H5126 0.950 . S
C5134 C5132 1.391 . S
C5134 C5135 1.400 . S
C5135 C5134 1.400 . S
C5135 C5136 1.398 . S
C5135 C5141 1.491 . S
C5136 H5127 0.950 . S
C5136 C5135 1.398 . S
C5136 C5137 1.391 . S
C5137 H5125 0.950 . S
C5137 C5133 1.393 . S
C5137 C5136 1.391 . S
C5138 H5128 0.950 . S
C5138 C5139 1.386 . S
C5138 C5140 1.391 . S
C5139 C5138 1.386 . S
C5139 C5143 1.393 . S
C5140 H5129 0.950 . S
C5140 C5138 1.391 . S
C5140 C5141 1.400 . S
C5141 C5135 1.491 . S
C5141 C5140 1.400 . S
C5141 C5142 1.398 . S
C5142 H5130 0.950 . S
C5142 C5141 1.398 . S
C5142 C5143 1.391 . S
C5143 H5131 0.950 . S
C5143 C5139 1.393 . S
C5143 C5142 1.391 . S
H5144 C5152 0.950 . S
H5145 C5157 0.950 . S
H5146 C5154 0.950 . S
H5147 C5156 0.950 . S
H5148 C5158 0.950 . S
H5149 C5160 0.950 . S
H5150 C5162 0.950 . S
H5151 C5163 0.950 . S
C5152 H5144 0.950 . S
C5152 C5153 1.386 . S
C5152 C5154 1.391 . S
C5153 C5152 1.386 . S
C5153 C5157 1.393 . S
C5154 H5146 0.950 . S
C5154 C5152 1.391 . S
C5154 C5155 1.400 . S
C5155 C5154 1.400 . S
C5155 C5156 1.398 . S
C5155 C5161 1.491 . S
C5156 H5147 0.950 . S
C5156 C5155 1.398 . S
C5156 C5157 1.391 . S
C5157 H5145 0.950 . S
C5157 C5153 1.393 . S
C5157 C5156 1.391 . S
C5158 H5148 0.950 . S
C5158 C5159 1.386 . S
C5158 C5160 1.391 . S
C5159 C5158 1.386 . S
C5159 C5163 1.393 . S
C5160 H5149 0.950 . S
C5160 C5158 1.391 . S
C5160 C5161 1.400 . S
C5161 C5155 1.491 . S
C5161 C5160 1.400 . S
C5161 C5162 1.398 . S
C5162 H5150 0.950 . S
C5162 C5161 1.398 . S
C5162 C5163 1.391 . S
C5163 H5151 0.950 . S
C5163 C5159 1.393 . S
C5163 C5162 1.391 . S
H5164 C5172 0.950 . S
H5165 C5177 0.950 . S
H5166 C5174 0.950 . S
H5167 C5176 0.950 . S
H5168 C5178 0.950 . S
H5169 C5180 0.950 . S
H5170 C5182 0.950 . S
H5171 C5183 0.950 . S
C5172 H5164 0.950 . S
C5172 C5173 1.386 . S
C5172 C5174 1.391 . S
C5173 C5172 1.386 . S
C5173 C5177 1.393 . S
C5174 H5166 0.950 . S
C5174 C5172 1.391 . S
C5174 C5175 1.400 . S
C5175 C5174 1.400 . S
C5175 C5176 1.398 . S
C5175 C5181 1.491 . S
C5176 H5167 0.950 . S
C5176 C5175 1.398 . S
C5176 C5177 1.391 . S
C5177 H5165 0.950 . S
C5177 C5173 1.393 . S
C5177 C5176 1.391 . S
C5178 H5168 0.950 . S
C5178 C5179 1.386 . S
C5178 C5180 1.391 . S
C5179 C5178 1.386 . S
C5179 C5183 1.393 . S
C5180 H5169 0.950 . S
C5180 C5178 1.391 . S
C5180 C5181 1.400 . S
C5181 C5175 1.491 . S
C5181 C5180 1.400 . S
C5181 C5182 1.398 . S
C5182 H5170 0.950 . S
C5182 C5181 1.398 . S
C5182 C5183 1.391 . S
C5183 H5171 0.950 . S
C5183 C5179 1.393 . S
C5183 C5182 1.391 . S
C1353 C8 1.671 . S
C1359 C960 1.668 . S
C1373 C918 1.671 . S
C1379 C22 1.680 . S
C1393 C932 1.666 . S
C1399 C36 1.675 . S
C1413 C50 1.679 . S
C1419 C946 1.675 . S
C1433 C1002 1.680 . S
C1439 C64 1.669 . S
C1453 C974 1.676 . S
C1459 C78 1.666 . S
C1473 C988 1.671 . S
C1479 C92 1.668 . S
C1493 C106 1.674 . S
C1499 C904 1.667 . S
C1513 C120 1.680 . S
C1519 C890 1.673 . S
C1533 C134 1.680 . S
C1539 C848 1.673 . S
C1553 C148 1.667 . S
C1559 C862 1.674 . S
C1573 C162 1.680 . S
C1579 C876 1.672 . S
C1593 C176 1.669 . S
C1599 C806 1.680 . S
C1613 C820 1.673 . S
C1619 C190 1.680 . S
C1633 C834 1.668 . S
C1639 C204 1.680 . S
C1653 C218 1.676 . S
C1659 C792 1.666 . S
C1673 C232 1.673 . S
C1679 C778 1.680 . S
C1693 C246 1.667 . S
C1699 C694 1.672 . S
C1713 C708 1.668 . S
C1719 C260 1.680 . S
C1733 C722 1.667 . S
C1739 C274 1.673 . S
C1753 C680 1.678 . S
C1759 C288 1.676 . S
C1773 C302 1.677 . S
C1779 C750 1.666 . S
C1793 C316 1.673 . S
C1799 C764 1.680 . S
C1813 C330 1.680 . S
C1819 C736 1.673 . S
C1833 C344 1.680 . S
C1839 C1296 1.672 . S
C1853 C358 1.680 . S
C1859 C1254 1.669 . S
C1873 C372 1.679 . S
C1879 C1268 1.667 . S
C1893 C386 1.667 . S
C1899 C1282 1.674 . S
C1913 C400 1.671 . S
C1919 C1338 1.680 . S
C1933 C414 1.680 . S
C1939 C1310 1.673 . S
C1953 C1324 1.666 . S
C1959 C428 1.676 . S
C1973 C442 1.679 . S
C1979 C1240 1.668 . S
C1993 C456 1.677 . S
C1999 C1226 1.666 . S
C2013 C1184 1.671 . S
C2019 C470 1.668 . S
C2033 C484 1.668 . S
C2039 C1198 1.671 . S
C2053 C498 1.678 . S
C2059 C1212 1.667 . S
C2073 C512 1.680 . S
C2079 C1142 1.673 . S
C2093 C526 1.676 . S
C2099 C1156 1.678 . S
C2113 C540 1.674 . S
C2119 C1170 1.679 . S
C2133 C1128 1.667 . S
C2139 C554 1.673 . S
C2153 C568 1.676 . S
C2159 C1114 1.666 . S
C2173 C582 1.670 . S
C2179 C1030 1.680 . S
C2193 C596 1.677 . S
C2199 C1044 1.666 . S
C2213 C1058 1.680 . S
C2219 C610 1.674 . S
C2233 C624 1.668 . S
C2239 C1016 1.680 . S
C2253 C1086 1.669 . S
C2259 C638 1.670 . S
C2273 C652 1.670 . S
C2279 C1100 1.680 . S
C2293 C666 1.673 . S
C2299 C1072 1.667 . S
C2313 C9 1.851 . S
C2319 C555 1.857 . S
C2333 C23 1.859 . S
C2339 C513 1.849 . S
C2353 C527 1.853 . S
C2359 C37 1.855 . S
C2373 C51 1.856 . S
C2379 C541 1.852 . S
C2393 C471 1.850 . S
C2399 C65 1.857 . S
C2413 C485 1.849 . S
C2419 C79 1.859 . S
C2433 C499 1.857 . S
C2439 C93 1.851 . S
C2453 C457 1.851 . S
C2459 C107 1.857 . S
C2473 C443 1.849 . S
C2479 C121 1.858 . S
C2493 C135 1.855 . S
C2499 C401 1.853 . S
C2513 C415 1.854 . S
C2519 C149 1.854 . S
C2533 C163 1.852 . S
C2539 C429 1.856 . S
C2553 C359 1.854 . S
C2559 C177 1.854 . S
C2573 C373 1.858 . S
C2579 C191 1.850 . S
C2593 C205 1.849 . S
C2599 C387 1.859 . S
C2613 C219 1.859 . S
C2619 C345 1.849 . S
C2633 C233 1.859 . S
C2639 C625 1.849 . S
C2653 C247 1.849 . S
C2659 C667 1.859 . S
C2673 C639 1.856 . S
C2679 C261 1.852 . S
C2693 C653 1.849 . S
C2699 C275 1.859 . S
C2713 C289 1.849 . S
C2719 C569 1.859 . S
C2733 C303 1.856 . S
C2739 C597 1.852 . S
C2753 C611 1.850 . S
C2759 C317 1.858 . S
C2773 C331 1.855 . S
C2779 C583 1.853 . S
C2793 C1227 1.856 . S
C2799 C681 1.852 . S
C2813 C1185 1.851 . S
C2819 C695 1.857 . S
C2833 C1199 1.854 . S
C2839 C709 1.854 . S
C2853 C723 1.859 . S
C2859 C1213 1.849 . S
C2873 C1143 1.850 . S
C2879 C737 1.858 . S
C2893 C1157 1.854 . S
C2899 C751 1.853 . S
C2913 C765 1.849 . S
C2919 C1171 1.859 . S
C2933 C779 1.852 . S
C2939 C1129 1.856 . S
C2953 C1115 1.849 . S
C2959 C793 1.859 . S
C2973 C807 1.859 . S
C2979 C1073 1.849 . S
C2993 C1087 1.859 . S
C2999 C821 1.849 . S
C3013 C1101 1.859 . S
C3019 C835 1.849 . S
C3033 C849 1.859 . S
C3039 C1031 1.849 . S
C3053 C863 1.854 . S
C3059 C1045 1.854 . S
C3073 C1059 1.852 . S
C3079 C877 1.856 . S
C3093 C891 1.849 . S
C3099 C1017 1.859 . S
C3113 C1297 1.858 . S
C3119 C905 1.850 . S
C3133 C1339 1.856 . S
C3139 C919 1.852 . S
C3153 C933 1.850 . S
C3159 C1311 1.858 . S
C3173 C1325 1.858 . S
C3179 C947 1.850 . S
C3193 C1241 1.858 . S
C3199 C961 1.850 . S
C3213 C1269 1.850 . S
C3219 C975 1.858 . S
C3233 C989 1.850 . S
C3239 C1283 1.858 . S
C3253 C1255 1.853 . S
C3259 C1003 1.855 . S
C3273 C7 1.262 . S
C3279 C399 1.256 . S
C3293 C413 1.262 . S
C3299 C21 1.255 . S
C3313 C35 1.255 . S
C3319 C427 1.263 . S
C3333 C441 1.260 . S
C3339 C49 1.257 . S
C3353 C63 1.244 . S
C3359 C343 1.274 . S
C3373 C77 1.256 . S
C3379 C357 1.261 . S
C3393 C91 1.270 . S
C3399 C371 1.248 . S
C3413 C385 1.258 . S
C3419 C105 1.260 . S
C3433 C539 1.272 . S
C3439 C119 1.246 . S
C3453 C133 1.273 . S
C3459 C553 1.245 . S
C3473 C147 1.257 . S
C3479 C511 1.261 . S
C3493 C161 1.245 . S
C3499 C525 1.272 . S
C3513 C175 1.272 . S
C3519 C483 1.245 . S
C3533 C189 1.273 . S
C3539 C497 1.244 . S
C3553 C203 1.254 . S
C3559 C455 1.264 . S
C3573 C217 1.258 . S
C3579 C469 1.259 . S
C3593 C231 1.267 . S
C3599 C637 1.251 . S
C3613 C245 1.257 . S
C3619 C609 1.261 . S
C3633 C623 1.253 . S
C3639 C259 1.265 . S
C3653 C273 1.259 . S
C3659 C581 1.259 . S
C3673 C595 1.265 . S
C3679 C287 1.253 . S
C3693 C301 1.250 . S
C3699 C567 1.267 . S
C3713 C315 1.244 . S
C3719 C665 1.274 . S
C3733 C651 1.267 . S
C3739 C329 1.250 . S
C3753 C1071 1.244 . S
C3759 C679 1.273 . S
C3773 C693 1.255 . S
C3779 C1085 1.262 . S
C3793 C1099 1.263 . S
C3799 C707 1.255 . S
C3813 C721 1.243 . S
C3819 C1113 1.274 . S
C3833 C1015 1.255 . S
C3839 C735 1.263 . S
C3853 C1029 1.255 . S
C3859 C749 1.262 . S
C3873 C1043 1.261 . S
C3879 C763 1.257 . S
C3893 C777 1.248 . S
C3899 C1057 1.270 . S
C3913 C791 1.273 . S
C3919 C1211 1.245 . S
C3933 C1225 1.243 . S
C3939 C805 1.274 . S
C3953 C1183 1.245 . S
C3959 C819 1.272 . S
C3973 C1197 1.253 . S
C3979 C833 1.265 . S
C3993 C847 1.272 . S
C3999 C1155 1.245 . S
C4013 C861 1.274 . S
C4019 C1169 1.243 . S
C4033 C1127 1.243 . S
C4039 C875 1.274 . S
C4053 C1141 1.273 . S
C4059 C889 1.244 . S
C4073 C1309 1.253 . S
C4079 C903 1.264 . S
C4093 C917 1.257 . S
C4099 C1281 1.260 . S
C4113 C1295 1.246 . S
C4119 C931 1.271 . S
C4133 C945 1.251 . S
C4139 C1253 1.267 . S
C4153 C959 1.249 . S
C4159 C1267 1.269 . S
C4173 C973 1.249 . S
C4179 C1239 1.268 . S
C4193 C1337 1.251 . S
C4199 C987 1.267 . S
C4213 C1001 1.254 . S
C4219 C1323 1.263 . S
C4233 C440 1.233 . S
C4239 C6 1.227 . S
C4253 C398 1.244 . S
C4259 C20 1.216 . S
C4273 C34 1.247 . S
C4279 C412 1.213 . S
C4293 C426 1.229 . S
C4299 C48 1.231 . S
C4313 C356 1.221 . S
C4319 C62 1.239 . S
C4333 C76 1.230 . S
C4339 C370 1.231 . S
C4353 C90 1.237 . S
C4359 C384 1.223 . S
C4373 C342 1.228 . S
C4379 C104 1.232 . S
C4393 C622 1.213 . S
C4399 C118 1.246 . S
C4413 C132 1.213 . S
C4419 C580 1.247 . S
C4433 C146 1.214 . S
C4439 C594 1.246 . S
C4453 C608 1.247 . S
C4459 C160 1.213 . S
C4473 C174 1.213 . S
C4479 C664 1.247 . S
C4493 C636 1.226 . S
C4499 C188 1.234 . S
C4513 C650 1.246 . S
C4519 C202 1.213 . S
C4533 C216 1.242 . S
C4539 C566 1.218 . S
C4553 C230 1.230 . S
C4559 C552 1.230 . S
C4573 C244 1.239 . S
C4579 C468 1.221 . S
C4593 C258 1.245 . S
C4599 C482 1.215 . S
C4613 C496 1.222 . S
C4619 C272 1.238 . S
C4633 C454 1.215 . S
C4639 C286 1.245 . S
C4653 C300 1.243 . S
C4659 C524 1.217 . S
C4673 C314 1.218 . S
C4679 C538 1.242 . S
C4693 C328 1.213 . S
C4699 C510 1.246 . S
C4713 C678 1.213 . S
C4719 C1112 1.247 . S
C4733 C692 1.238 . S
C4739 C1070 1.222 . S
C4753 C706 1.220 . S
C4759 C1084 1.240 . S
C4773 C1098 1.245 . S
C4779 C720 1.215 . S
C4793 C1028 1.240 . S
C4799 C734 1.220 . S
C4813 C1042 1.214 . S
C4819 C748 1.246 . S
C4833 C762 1.213 . S
C4839 C1056 1.247 . S
C4853 C1014 1.216 . S
C4859 C776 1.244 . S
C4873 C1294 1.247 . S
C4879 C790 1.213 . S
C4893 C1252 1.231 . S
C4899 C804 1.229 . S
C4913 C1266 1.223 . S
C4919 C818 1.237 . S
C4933 C1280 1.239 . S
C4939 C832 1.221 . S
C4953 C1336 1.239 . S
C4959 C846 1.221 . S
C4973 C1308 1.241 . S
C4979 C860 1.219 . S
C4993 C1322 1.224 . S
C4999 C874 1.236 . S
C5013 C1238 1.245 . S
C5019 C888 1.215 . S
C5033 C902 1.218 . S
C5039 C1224 1.242 . S
C5053 C1140 1.227 . S
C5059 C916 1.233 . S
C5073 C1154 1.247 . S
C5079 C930 1.213 . S
C5093 C1168 1.213 . S
C5099 C944 1.247 . S
C5113 C1126 1.246 . S
C5119 C958 1.214 . S
C5133 C1196 1.226 . S
C5139 C972 1.234 . S
C5153 C1210 1.244 . S
C5159 C986 1.216 . S
C5173 C1182 1.217 . S
C5179 C1000 1.243 . S
