# Generated by pormake.
# Topology ulj, (4)-cn, num edge types: 1
# Building blocks:
#     Node 0, Type 0, BuildingBlock: ESEHIV_clean_sbu_0, # of connection points: 4
#     Node 1, Type 0, BuildingBlock: ESEHIV_clean_sbu_0, # of connection points: 4
#     Node 2, Type 0, BuildingBlock: ESEHIV_clean_sbu_0, # of connection points: 4
#     Node 3, Type 0, BuildingBlock: ESEHIV_clean_sbu_0, # of connection points: 4
#     Node 4, Type 0, BuildingBlock: ESEHIV_clean_sbu_0, # of connection points: 4
#     Node 5, Type 0, BuildingBlock: ESEHIV_clean_sbu_0, # of connection points: 4
#     Node 6, Type 0, BuildingBlock: ESEHIV_clean_sbu_0, # of connection points: 4
#     Node 7, Type 0, BuildingBlock: ESEHIV_clean_sbu_0, # of connection points: 4
#     Node 8, Type 0, BuildingBlock: ESEHIV_clean_sbu_0, # of connection points: 4
#     Node 9, Type 0, BuildingBlock: ESEHIV_clean_sbu_0, # of connection points: 4
#     Node 10, Type 0, BuildingBlock: ESEHIV_clean_sbu_0, # of connection points: 4
#     Node 11, Type 0, BuildingBlock: ESEHIV_clean_sbu_0, # of connection points: 4
#     Node 12, Type 0, BuildingBlock: ESEHIV_clean_sbu_0, # of connection points: 4
#     Node 13, Type 0, BuildingBlock: ESEHIV_clean_sbu_0, # of connection points: 4
#     Node 14, Type 0, BuildingBlock: ESEHIV_clean_sbu_0, # of connection points: 4
#     Node 15, Type 0, BuildingBlock: ESEHIV_clean_sbu_0, # of connection points: 4
#     Node 16, Type 0, BuildingBlock: ESEHIV_clean_sbu_0, # of connection points: 4
#     Node 17, Type 0, BuildingBlock: ESEHIV_clean_sbu_0, # of connection points: 4
#     Node 18, Type 0, BuildingBlock: ESEHIV_clean_sbu_0, # of connection points: 4
#     Node 19, Type 0, BuildingBlock: ESEHIV_clean_sbu_0, # of connection points: 4
#     Node 20, Type 0, BuildingBlock: ESEHIV_clean_sbu_0, # of connection points: 4
#     Node 21, Type 0, BuildingBlock: ESEHIV_clean_sbu_0, # of connection points: 4
#     Node 22, Type 0, BuildingBlock: ESEHIV_clean_sbu_0, # of connection points: 4
#     Node 23, Type 0, BuildingBlock: ESEHIV_clean_sbu_0, # of connection points: 4
#     Node 24, Type 0, BuildingBlock: ESEHIV_clean_sbu_0, # of connection points: 4
#     Node 25, Type 0, BuildingBlock: ESEHIV_clean_sbu_0, # of connection points: 4
#     Node 26, Type 0, BuildingBlock: ESEHIV_clean_sbu_0, # of connection points: 4
#     Node 27, Type 0, BuildingBlock: ESEHIV_clean_sbu_0, # of connection points: 4
#     Node 28, Type 0, BuildingBlock: ESEHIV_clean_sbu_0, # of connection points: 4
#     Node 29, Type 0, BuildingBlock: ESEHIV_clean_sbu_0, # of connection points: 4
#     Node 30, Type 0, BuildingBlock: ESEHIV_clean_sbu_0, # of connection points: 4
#     Node 31, Type 0, BuildingBlock: ESEHIV_clean_sbu_0, # of connection points: 4
#     Node 32, Type 0, BuildingBlock: ESEHIV_clean_sbu_0, # of connection points: 4
#     Node 33, Type 0, BuildingBlock: ESEHIV_clean_sbu_0, # of connection points: 4
#     Node 34, Type 0, BuildingBlock: ESEHIV_clean_sbu_0, # of connection points: 4
#     Node 35, Type 0, BuildingBlock: ESEHIV_clean_sbu_0, # of connection points: 4
#     Node 36, Type 0, BuildingBlock: ESEHIV_clean_sbu_0, # of connection points: 4
#     Node 37, Type 0, BuildingBlock: ESEHIV_clean_sbu_0, # of connection points: 4
#     Node 38, Type 0, BuildingBlock: ESEHIV_clean_sbu_0, # of connection points: 4
#     Node 39, Type 0, BuildingBlock: ESEHIV_clean_sbu_0, # of connection points: 4
#     Node 40, Type 0, BuildingBlock: ESEHIV_clean_sbu_0, # of connection points: 4
#     Node 41, Type 0, BuildingBlock: ESEHIV_clean_sbu_0, # of connection points: 4
#     Node 42, Type 0, BuildingBlock: ESEHIV_clean_sbu_0, # of connection points: 4
#     Node 43, Type 0, BuildingBlock: ESEHIV_clean_sbu_0, # of connection points: 4
#     Node 44, Type 0, BuildingBlock: ESEHIV_clean_sbu_0, # of connection points: 4
#     Node 45, Type 0, BuildingBlock: ESEHIV_clean_sbu_0, # of connection points: 4
#     Node 46, Type 0, BuildingBlock: ESEHIV_clean_sbu_0, # of connection points: 4
#     Node 47, Type 0, BuildingBlock: ESEHIV_clean_sbu_0, # of connection points: 4
#     Edge 48, Type (0, 0), BuildingBlock: AJUNOK_clean_linker_0, # of connection points: 2
#     Edge 49, Type (0, 0), BuildingBlock: AJUNOK_clean_linker_0, # of connection points: 2
#     Edge 50, Type (0, 0), BuildingBlock: AJUNOK_clean_linker_0, # of connection points: 2
#     Edge 51, Type (0, 0), BuildingBlock: AJUNOK_clean_linker_0, # of connection points: 2
#     Edge 52, Type (0, 0), BuildingBlock: AJUNOK_clean_linker_0, # of connection points: 2
#     Edge 53, Type (0, 0), BuildingBlock: AJUNOK_clean_linker_0, # of connection points: 2
#     Edge 54, Type (0, 0), BuildingBlock: AJUNOK_clean_linker_0, # of connection points: 2
#     Edge 55, Type (0, 0), BuildingBlock: AJUNOK_clean_linker_0, # of connection points: 2
#     Edge 56, Type (0, 0), BuildingBlock: AJUNOK_clean_linker_0, # of connection points: 2
#     Edge 57, Type (0, 0), BuildingBlock: AJUNOK_clean_linker_0, # of connection points: 2
#     Edge 58, Type (0, 0), BuildingBlock: AJUNOK_clean_linker_0, # of connection points: 2
#     Edge 59, Type (0, 0), BuildingBlock: AJUNOK_clean_linker_0, # of connection points: 2
#     Edge 60, Type (0, 0), BuildingBlock: AJUNOK_clean_linker_0, # of connection points: 2
#     Edge 61, Type (0, 0), BuildingBlock: AJUNOK_clean_linker_0, # of connection points: 2
#     Edge 62, Type (0, 0), BuildingBlock: AJUNOK_clean_linker_0, # of connection points: 2
#     Edge 63, Type (0, 0), BuildingBlock: AJUNOK_clean_linker_0, # of connection points: 2
#     Edge 64, Type (0, 0), BuildingBlock: AJUNOK_clean_linker_0, # of connection points: 2
#     Edge 65, Type (0, 0), BuildingBlock: AJUNOK_clean_linker_0, # of connection points: 2
#     Edge 66, Type (0, 0), BuildingBlock: AJUNOK_clean_linker_0, # of connection points: 2
#     Edge 67, Type (0, 0), BuildingBlock: AJUNOK_clean_linker_0, # of connection points: 2
#     Edge 68, Type (0, 0), BuildingBlock: AJUNOK_clean_linker_0, # of connection points: 2
#     Edge 69, Type (0, 0), BuildingBlock: AJUNOK_clean_linker_0, # of connection points: 2
#     Edge 70, Type (0, 0), BuildingBlock: AJUNOK_clean_linker_0, # of connection points: 2
#     Edge 71, Type (0, 0), BuildingBlock: AJUNOK_clean_linker_0, # of connection points: 2
#     Edge 72, Type (0, 0), BuildingBlock: AJUNOK_clean_linker_0, # of connection points: 2
#     Edge 73, Type (0, 0), BuildingBlock: AJUNOK_clean_linker_0, # of connection points: 2
#     Edge 74, Type (0, 0), BuildingBlock: AJUNOK_clean_linker_0, # of connection points: 2
#     Edge 75, Type (0, 0), BuildingBlock: AJUNOK_clean_linker_0, # of connection points: 2
#     Edge 76, Type (0, 0), BuildingBlock: AJUNOK_clean_linker_0, # of connection points: 2
#     Edge 77, Type (0, 0), BuildingBlock: AJUNOK_clean_linker_0, # of connection points: 2
#     Edge 78, Type (0, 0), BuildingBlock: AJUNOK_clean_linker_0, # of connection points: 2
#     Edge 79, Type (0, 0), BuildingBlock: AJUNOK_clean_linker_0, # of connection points: 2
#     Edge 80, Type (0, 0), BuildingBlock: AJUNOK_clean_linker_0, # of connection points: 2
#     Edge 81, Type (0, 0), BuildingBlock: AJUNOK_clean_linker_0, # of connection points: 2
#     Edge 82, Type (0, 0), BuildingBlock: AJUNOK_clean_linker_0, # of connection points: 2
#     Edge 83, Type (0, 0), BuildingBlock: AJUNOK_clean_linker_0, # of connection points: 2
#     Edge 84, Type (0, 0), BuildingBlock: AJUNOK_clean_linker_0, # of connection points: 2
#     Edge 85, Type (0, 0), BuildingBlock: AJUNOK_clean_linker_0, # of connection points: 2
#     Edge 86, Type (0, 0), BuildingBlock: AJUNOK_clean_linker_0, # of connection points: 2
#     Edge 87, Type (0, 0), BuildingBlock: AJUNOK_clean_linker_0, # of connection points: 2
#     Edge 88, Type (0, 0), BuildingBlock: AJUNOK_clean_linker_0, # of connection points: 2
#     Edge 89, Type (0, 0), BuildingBlock: AJUNOK_clean_linker_0, # of connection points: 2
#     Edge 90, Type (0, 0), BuildingBlock: AJUNOK_clean_linker_0, # of connection points: 2
#     Edge 91, Type (0, 0), BuildingBlock: AJUNOK_clean_linker_0, # of connection points: 2
#     Edge 92, Type (0, 0), BuildingBlock: AJUNOK_clean_linker_0, # of connection points: 2
#     Edge 93, Type (0, 0), BuildingBlock: AJUNOK_clean_linker_0, # of connection points: 2
#     Edge 94, Type (0, 0), BuildingBlock: AJUNOK_clean_linker_0, # of connection points: 2
#     Edge 95, Type (0, 0), BuildingBlock: AJUNOK_clean_linker_0, # of connection points: 2
#     Edge 96, Type (0, 0), BuildingBlock: AJUNOK_clean_linker_0, # of connection points: 2
#     Edge 97, Type (0, 0), BuildingBlock: AJUNOK_clean_linker_0, # of connection points: 2
#     Edge 98, Type (0, 0), BuildingBlock: AJUNOK_clean_linker_0, # of connection points: 2
#     Edge 99, Type (0, 0), BuildingBlock: AJUNOK_clean_linker_0, # of connection points: 2
#     Edge 100, Type (0, 0), BuildingBlock: AJUNOK_clean_linker_0, # of connection points: 2
#     Edge 101, Type (0, 0), BuildingBlock: AJUNOK_clean_linker_0, # of connection points: 2
#     Edge 102, Type (0, 0), BuildingBlock: AJUNOK_clean_linker_0, # of connection points: 2
#     Edge 103, Type (0, 0), BuildingBlock: AJUNOK_clean_linker_0, # of connection points: 2
#     Edge 104, Type (0, 0), BuildingBlock: AJUNOK_clean_linker_0, # of connection points: 2
#     Edge 105, Type (0, 0), BuildingBlock: AJUNOK_clean_linker_0, # of connection points: 2
#     Edge 106, Type (0, 0), BuildingBlock: AJUNOK_clean_linker_0, # of connection points: 2
#     Edge 107, Type (0, 0), BuildingBlock: AJUNOK_clean_linker_0, # of connection points: 2
#     Edge 108, Type (0, 0), BuildingBlock: AJUNOK_clean_linker_0, # of connection points: 2
#     Edge 109, Type (0, 0), BuildingBlock: AJUNOK_clean_linker_0, # of connection points: 2
#     Edge 110, Type (0, 0), BuildingBlock: AJUNOK_clean_linker_0, # of connection points: 2
#     Edge 111, Type (0, 0), BuildingBlock: AJUNOK_clean_linker_0, # of connection points: 2
#     Edge 112, Type (0, 0), BuildingBlock: AJUNOK_clean_linker_0, # of connection points: 2
#     Edge 113, Type (0, 0), BuildingBlock: AJUNOK_clean_linker_0, # of connection points: 2
#     Edge 114, Type (0, 0), BuildingBlock: AJUNOK_clean_linker_0, # of connection points: 2
#     Edge 115, Type (0, 0), BuildingBlock: AJUNOK_clean_linker_0, # of connection points: 2
#     Edge 116, Type (0, 0), BuildingBlock: AJUNOK_clean_linker_0, # of connection points: 2
#     Edge 117, Type (0, 0), BuildingBlock: AJUNOK_clean_linker_0, # of connection points: 2
#     Edge 118, Type (0, 0), BuildingBlock: AJUNOK_clean_linker_0, # of connection points: 2
#     Edge 119, Type (0, 0), BuildingBlock: AJUNOK_clean_linker_0, # of connection points: 2
#     Edge 120, Type (0, 0), BuildingBlock: AJUNOK_clean_linker_0, # of connection points: 2
#     Edge 121, Type (0, 0), BuildingBlock: AJUNOK_clean_linker_0, # of connection points: 2
#     Edge 122, Type (0, 0), BuildingBlock: AJUNOK_clean_linker_0, # of connection points: 2
#     Edge 123, Type (0, 0), BuildingBlock: AJUNOK_clean_linker_0, # of connection points: 2
#     Edge 124, Type (0, 0), BuildingBlock: AJUNOK_clean_linker_0, # of connection points: 2
#     Edge 125, Type (0, 0), BuildingBlock: AJUNOK_clean_linker_0, # of connection points: 2
#     Edge 126, Type (0, 0), BuildingBlock: AJUNOK_clean_linker_0, # of connection points: 2
#     Edge 127, Type (0, 0), BuildingBlock: AJUNOK_clean_linker_0, # of connection points: 2
#     Edge 128, Type (0, 0), BuildingBlock: AJUNOK_clean_linker_0, # of connection points: 2
#     Edge 129, Type (0, 0), BuildingBlock: AJUNOK_clean_linker_0, # of connection points: 2
#     Edge 130, Type (0, 0), BuildingBlock: AJUNOK_clean_linker_0, # of connection points: 2
#     Edge 131, Type (0, 0), BuildingBlock: AJUNOK_clean_linker_0, # of connection points: 2
#     Edge 132, Type (0, 0), BuildingBlock: AJUNOK_clean_linker_0, # of connection points: 2
#     Edge 133, Type (0, 0), BuildingBlock: AJUNOK_clean_linker_0, # of connection points: 2
#     Edge 134, Type (0, 0), BuildingBlock: AJUNOK_clean_linker_0, # of connection points: 2
#     Edge 135, Type (0, 0), BuildingBlock: AJUNOK_clean_linker_0, # of connection points: 2
#     Edge 136, Type (0, 0), BuildingBlock: AJUNOK_clean_linker_0, # of connection points: 2
#     Edge 137, Type (0, 0), BuildingBlock: AJUNOK_clean_linker_0, # of connection points: 2
#     Edge 138, Type (0, 0), BuildingBlock: AJUNOK_clean_linker_0, # of connection points: 2
#     Edge 139, Type (0, 0), BuildingBlock: AJUNOK_clean_linker_0, # of connection points: 2
#     Edge 140, Type (0, 0), BuildingBlock: AJUNOK_clean_linker_0, # of connection points: 2
#     Edge 141, Type (0, 0), BuildingBlock: AJUNOK_clean_linker_0, # of connection points: 2
#     Edge 142, Type (0, 0), BuildingBlock: AJUNOK_clean_linker_0, # of connection points: 2
#     Edge 143, Type (0, 0), BuildingBlock: AJUNOK_clean_linker_0, # of connection points: 2
# Relax obj value: 0.037
# Max RMSD: 0.127
# Mean RMSD: 0.127
data_MOF--net-ulj--node1-ESEHIV_clean_sbu_0--edge1-AJUNOK_clean_linker_0
_symmetry_space_group_name_H-M    P1
_symmetry_Int_Tables_number       1
_symmetry_cell_setting            triclinic
loop_
_symmetry_equiv_pos_as_xyz
'x, y, z'
_cell_length_a     52.505035
_cell_length_b     52.556059
_cell_length_c     52.449026
_cell_angle_alpha  90.006708
_cell_angle_beta   90.317856
_cell_angle_gamma 90.429987
loop_
_atom_site_label
_atom_site_type_symbol
_atom_site_fract_x
_atom_site_fract_y
_atom_site_fract_z
_atom_type_partial_charge
Cu0 Cu 0.15669 0.27686 0.32219 0.0
N1 N 0.12969 0.25338 0.32116 0.0
N2 N 0.10604 0.21974 0.33281 0.0
C3 C 0.12632 0.2347 0.33839 0.0
C4 C 0.09642 0.22928 0.31087 0.0
C5 C 0.11109 0.25003 0.30372 0.0
O6 O 0.14794 0.30348 0.34668 0.0
C7 C 0.18946 0.23774 0.31418 0.0
O8 O 0.17203 0.23369 0.29656 0.0
H9 H 0.13856 0.2322 0.35484 0.0
H10 H 0.1086 0.26159 0.28685 0.0
N11 N 0.16149 0.29321 0.29095 0.0
N12 N 0.18203 0.31195 0.25859 0.0
C13 C 0.18374 0.29564 0.27845 0.0
C14 C 0.14514 0.30863 0.27877 0.0
C15 C 0.15772 0.3202 0.25881 0.0
C16 C 0.13959 0.29953 0.36911 0.0
O17 O 0.13985 0.27631 0.3783 0.0
H18 H 0.20105 0.28618 0.2843 0.0
H19 H 0.12582 0.3122 0.28481 0.0
O20 O 0.18736 0.25701 0.32882 0.0
H21 H 0.08029 0.22162 0.30042 0.0
H22 H 0.14985 0.33459 0.24637 0.0
Cu23 Cu 0.53431 0.64126 0.93663 0.0
N24 N 0.53434 0.64769 0.90152 0.0
N25 N 0.51654 0.66333 0.8659 0.0
C26 C 0.51279 0.65532 0.89003 0.0
C27 C 0.54175 0.66029 0.86183 0.0
C28 C 0.55272 0.65054 0.88392 0.0
O29 O 0.52135 0.67158 0.95335 0.0
C30 C 0.51438 0.59175 0.93236 0.0
O31 O 0.53202 0.58973 0.91484 0.0
H32 H 0.4949 0.65683 0.90007 0.0
H33 H 0.57276 0.64725 0.88732 0.0
N34 N 0.56445 0.63175 0.95308 0.0
N35 N 0.5831 0.61835 0.98929 0.0
C36 C 0.56636 0.6346 0.97852 0.0
C37 C 0.581 0.61325 0.94722 0.0
C38 C 0.59264 0.60504 0.96952 0.0
C39 C 0.52655 0.69458 0.94739 0.0
O40 O 0.51458 0.71306 0.95903 0.0
H41 H 0.55359 0.64661 0.98915 0.0
H42 H 0.58228 0.60425 0.92873 0.0
O43 O 0.5112 0.61315 0.94324 0.0
H44 H 0.55173 0.66548 0.8446 0.0
H45 H 0.6049 0.58866 0.97121 0.0
Cu46 Cu 0.87523 0.29163 0.36215 0.0
N47 N 0.87881 0.29947 0.39674 0.0
N48 N 0.90353 0.31478 0.42828 0.0
C49 C 0.89466 0.31829 0.40434 0.0
C50 C 0.89253 0.29294 0.43631 0.0
C51 C 0.87742 0.28344 0.41673 0.0
O52 O 0.90747 0.27467 0.35599 0.0
C53 C 0.85161 0.33722 0.3515 0.0
O54 O 0.84247 0.33263 0.37432 0.0
H55 H 0.90207 0.33255 0.39139 0.0
H56 H 0.86849 0.26484 0.41615 0.0
N57 N 0.84806 0.27002 0.35342 0.0
N58 N 0.82235 0.24802 0.32715 0.0
C59 C 0.84354 0.26254 0.32926 0.0
C60 C 0.829 0.25994 0.36729 0.0
C61 C 0.8131 0.24625 0.35109 0.0
C62 C 0.90832 0.251 0.36126 0.0
O63 O 0.88681 0.23847 0.36411 0.0
H64 H 0.85537 0.2682 0.31336 0.0
H65 H 0.82672 0.26251 0.3876 0.0
O66 O 0.86856 0.32245 0.34259 0.0
H67 H 0.8964 0.28364 0.45431 0.0
H68 H 0.79622 0.23571 0.35658 0.0
Cu69 Cu 0.53718 0.88664 0.98127 0.0
N70 N 0.56285 0.86215 0.97942 0.0
N71 N 0.59067 0.83598 0.96095 0.0
C72 C 0.56916 0.84957 0.95807 0.0
C73 C 0.59844 0.84026 0.98513 0.0
C74 C 0.58112 0.85634 0.99655 0.0
O75 O 0.51041 0.87738 0.95689 0.0
C76 C 0.56606 0.9278 0.9966 0.0
O77 O 0.56693 0.91351 1.01711 0.0
H78 H 0.55902 0.85147 0.94024 0.0
H79 H 0.58238 0.86406 1.01563 0.0
N80 N 0.52105 0.88669 1.0129 0.0
N81 N 0.49883 0.90158 0.04588 0.0
C82 C 0.5093 0.90695 1.02305 0.0
C83 C 0.51793 0.86769 0.02979 0.0
C84 C 0.50436 0.87689 0.05028 0.0
C85 C 0.51163 0.87665 0.93267 0.0
O86 O 0.53178 0.88603 0.92118 0.0
H87 H 0.50929 0.92551 1.01413 0.0
H88 H 0.52511 0.84861 1.02741 0.0
O89 O 0.55355 0.91996 0.97715 0.0
H90 H 0.61564 0.83282 0.9937 0.0
H91 H 0.49901 0.86625 0.06712 0.0
Cu92 Cu 0.15762 0.80249 0.23034 0.0
N93 N 0.16013 0.8292 0.20654 0.0
N94 N 0.14485 0.85765 0.17848 0.0
C95 C 0.1393 0.84106 0.19735 0.0
C96 C 0.17036 0.85624 0.17567 0.0
C97 C 0.17974 0.83864 0.19296 0.0
O98 O 0.14024 0.77421 0.21174 0.0
C99 C 0.14537 0.83165 0.27527 0.0
O100 O 0.12995 0.83791 0.29382 0.0
H101 H 0.12018 0.83684 0.20383 0.0
H102 H 0.19931 0.83271 0.19491 0.0
N103 N 0.18763 0.79137 0.24685 0.0
N104 N 0.20991 0.77642 0.28044 0.0
C105 C 0.18693 0.77775 0.2687 0.0
C106 C 0.21214 0.79867 0.2444 0.0
C107 C 0.22594 0.78931 0.26494 0.0
C108 C 0.14846 0.76886 0.18945 0.0
O109 O 0.16906 0.78072 0.18152 0.0
H110 H 0.1694 0.77051 0.27679 0.0
H111 H 0.21929 0.81105 0.2296 0.0
O112 O 0.13743 0.81598 0.2582 0.0
H113 H 0.18148 0.86706 0.16209 0.0
H114 H 0.24606 0.79233 0.26838 0.0
Cu115 Cu 0.05228 0.65171 0.07752 0.0
N116 N 0.07928 0.67219 0.09084 0.0
N117 N 0.10338 0.69892 0.11479 0.0
C118 C 0.08066 0.68644 0.11247 0.0
C119 C 0.11653 0.69208 0.09383 0.0
C120 C 0.10177 0.67592 0.07925 0.0
O121 O 1.01987 0.66705 0.08738 0.0
C122 C 0.07637 0.60531 0.07888 0.0
O123 O 0.09293 0.61964 0.06679 0.0
H124 H 0.06507 0.68818 0.12574 0.0
H125 H 0.10703 0.66767 0.06116 0.0
N126 N 0.05281 0.65125 0.04136 0.0
N127 N 0.04696 0.63823 1.00079 0.0
C128 C 0.04579 0.6318 1.02581 0.0
C129 C 0.05856 0.67063 1.02559 0.0
C130 C 0.05485 0.66274 1.00068 0.0
C131 C 1.00853 0.66417 0.1086 0.0
O132 O 1.01823 0.64858 0.1256 0.0
H133 H 0.03891 0.61363 0.03276 0.0
H134 H 0.06441 0.68942 0.0318 0.0
O135 O 0.05648 0.61589 0.08774 0.0
H136 H 0.13563 0.69837 0.08922 0.0
H137 H 0.05731 0.6743 0.98378 0.0
Cu138 Cu 0.89609 0.76579 0.19722 0.0
N139 N 0.89931 0.74881 0.16601 0.0
N140 N 0.92148 0.72502 0.1385 0.0
C141 C 0.9174 0.731 0.16315 0.0
C142 C 0.90488 0.73954 0.12521 0.0
C143 C 0.89137 0.75437 0.14224 0.0
O144 O 0.92847 0.78494 0.19762 0.0
C145 C 0.86658 0.72857 0.21627 0.0
O146 O 0.85624 0.73485 0.1943 0.0
H147 H 0.92891 0.72415 0.17886 0.0
H148 H 0.87802 0.76922 0.13749 0.0
N149 N 0.86901 0.78856 0.20165 0.0
N150 N 0.84296 0.81281 0.22498 0.0
C151 C 0.86451 0.79899 0.22465 0.0
C152 C 0.84936 0.79571 0.18676 0.0
C153 C 0.83319 0.81065 0.20118 0.0
C154 C 0.92866 0.80836 0.19086 0.0
O155 O 0.90754 0.82139 0.19265 0.0
H156 H 0.87633 0.7954 0.2412 0.0
H157 H 0.84648 0.78979 0.16721 0.0
O158 O 0.88776 0.73925 0.22239 0.0
H159 H 0.90314 0.74011 0.10466 0.0
H160 H 0.81542 0.81886 0.19479 0.0
Cu161 Cu 0.03202 0.90907 0.07693 0.0
N162 N 1.0126 0.88044 0.08729 0.0
N163 N 0.99232 0.85219 0.11241 0.0
C164 C 1.00276 0.87578 0.11063 0.0
C165 C 0.99526 0.84185 0.08905 0.0
C166 C 1.00783 0.85917 0.07374 0.0
O167 O 0.0637 0.90763 0.09709 0.0
C168 C 0.99067 0.93936 0.06691 0.0
O169 O 0.98436 0.91778 0.05583 0.0
H170 H 1.00354 0.88926 0.12619 0.0
H171 H 1.01329 0.85633 0.05411 0.0
N172 N 0.04121 0.90669 0.04223 0.0
N173 N 0.04893 0.91721 1.00134 0.0
C174 C 0.03851 0.92452 1.02376 0.0
C175 C 0.0541 0.88767 0.03122 0.0
C176 C 0.0589 0.89405 1.00619 0.0
C177 C 0.06474 0.90847 0.12138 0.0
O178 O 0.04427 0.91513 0.13393 0.0
H179 H 0.02952 0.94271 1.02685 0.0
H180 H 0.06036 0.87069 0.04101 0.0
O181 O 1.01155 0.94011 0.07952 0.0
H182 H 0.98843 0.82326 0.0832 0.0
H183 H 0.07008 0.88295 0.99304 0.0
Cu184 Cu 0.33195 0.14244 0.26269 0.0
N185 N 0.32791 0.11306 0.24318 0.0
N186 N 0.33876 0.08184 0.21649 0.0
C187 C 0.3468 0.10242 0.22975 0.0
C188 C 0.31381 0.07923 0.22214 0.0
C189 C 0.3071 0.09869 0.2385 0.0
O190 O 0.36177 0.13584 0.28396 0.0
C191 C 0.33518 0.19351 0.24156 0.0
O192 O 0.33618 0.20208 0.26508 0.0
H193 H 0.36623 0.10943 0.23019 0.0
H194 H 0.28844 0.10214 0.24636 0.0
N195 N 0.30352 0.14765 0.28346 0.0
N196 N 0.27037 0.16583 0.30269 0.0
C197 C 0.28801 0.16799 0.28415 0.0
C198 C 0.29539 0.13216 0.3022 0.0
C199 C 0.27493 0.14329 0.31408 0.0
C200 C 0.36452 0.14344 0.30686 0.0
O201 O 0.34878 0.16046 0.31594 0.0
H202 H 0.28939 0.18396 0.27123 0.0
H203 H 0.30408 0.11421 0.30714 0.0
O204 O 0.33504 0.16963 0.23768 0.0
H205 H 0.3013 0.06443 0.21486 0.0
H206 H 0.26454 0.13564 0.33015 0.0
Cu207 Cu 0.41433 0.47718 1.02512 0.0
N208 N 0.41231 0.44624 0.04275 0.0
N209 N 0.39632 0.41968 0.07203 0.0
C210 C 0.3935 0.4419 0.05951 0.0
C211 C 0.41761 0.40929 0.06227 0.0
C212 C 0.42757 0.42582 0.04429 0.0
O213 O 0.3813 0.47951 1.00707 0.0
C214 C 0.44844 0.49516 0.05924 0.0
O215 O 0.45827 0.47432 0.04977 0.0
H216 H 0.37785 0.45488 0.06214 0.0
H217 H 0.44491 0.42332 0.03361 0.0
N218 N 0.43902 0.48009 0.99975 0.0
N219 N 0.46452 0.50243 0.97398 0.0
C220 C 0.44427 0.50297 0.9896 0.0
C221 C 0.45643 0.46415 0.99007 0.0
C222 C 0.47228 0.47797 0.97409 0.0
C223 C 0.37903 0.46074 0.99162 0.0
O224 O 0.39842 0.44525 0.98947 0.0
H225 H 0.43384 0.51997 0.99443 0.0
H226 H 0.45824 0.4443 0.99507 0.0
O227 O 0.42639 0.50181 0.05107 0.0
H228 H 0.42565 0.39126 0.06801 0.0
H229 H 0.48899 0.47083 0.96456 0.0
Cu230 Cu 0.71914 0.41446 0.25925 0.0
N231 N 0.71607 0.44104 0.23548 0.0
N232 N 0.69923 0.46997 0.20895 0.0
C233 C 0.69455 0.44991 0.22451 0.0
C234 C 0.72469 0.47365 0.21018 0.0
C235 C 0.73496 0.45593 0.22655 0.0
O236 O 0.69162 0.41896 0.28397 0.0
C237 C 0.73581 0.37946 0.22354 0.0
O238 O 0.75046 0.39912 0.21831 0.0
H239 H 0.67593 0.44162 0.22776 0.0
H240 H 0.75482 0.45413 0.23176 0.0
N241 N 0.75043 0.41711 0.27643 0.0
N242 N 0.78646 0.40578 0.29629 0.0
C243 C 0.76618 0.39781 0.28236 0.0
C244 C 0.76103 0.43799 0.28701 0.0
C245 C 0.78319 0.43105 0.29936 0.0
C246 C 0.69275 0.41151 0.30708 0.0
O247 O 0.71198 0.39735 0.31437 0.0
H248 H 0.76215 0.37813 0.27765 0.0
H249 H 0.75283 0.4568 0.28636 0.0
O250 O 0.7194 0.38168 0.24127 0.0
H251 H 0.73515 0.48847 0.20033 0.0
H252 H 0.79565 0.44349 0.31027 0.0
Cu253 Cu 0.64503 0.0827 0.04696 0.0
N254 N 0.67141 0.08717 0.07094 0.0
N255 N 0.69674 0.10671 0.09953 0.0
C256 C 0.6773 0.10928 0.08272 0.0
C257 C 0.70349 0.08202 0.09802 0.0
C258 C 0.68776 0.06999 0.08051 0.0
O259 O 0.65027 0.10848 1.02005 0.0
C260 C 0.61058 0.06349 0.08125 0.0
O261 O 0.63011 0.04819 0.08374 0.0
H262 H 0.66769 0.12698 0.07867 0.0
H263 H 0.68809 0.05009 0.07532 0.0
N264 N 0.64561 0.05077 0.03076 0.0
N265 N 0.63005 1.01535 1.01253 0.0
C266 C 0.62451 0.03782 1.02352 0.0
C267 C 0.66526 0.03585 1.02414 0.0
C268 C 0.65569 1.01397 1.01289 0.0
C269 C 0.67143 0.10642 1.00825 0.0
O270 O 0.68726 0.08861 1.01556 0.0
H271 H 0.60536 0.04455 1.02675 0.0
H272 H 0.6851 0.0402 1.02777 0.0
O273 O 0.61272 0.08245 0.06605 0.0
H274 H 0.7185 0.0732 0.10907 0.0
H275 H 0.66667 0.99781 1.00661 0.0
Cu276 Cu 0.32112 0.87979 0.30543 0.0
N277 N 0.32292 0.89846 0.33618 0.0
N278 N 0.33801 0.92299 0.36806 0.0
C279 C 0.3406 0.91599 0.34337 0.0
C280 C 0.31774 0.90963 0.37661 0.0
C281 C 0.30852 0.89458 0.35699 0.0
O282 O 0.34647 0.8943 0.2821 0.0
C283 C 0.31954 0.82566 0.29852 0.0
O284 O 0.30844 0.83135 0.27678 0.0
H285 H 0.35579 0.92265 0.33115 0.0
H286 H 0.29293 0.88105 0.35805 0.0
N287 N 0.28872 0.88237 0.28969 0.0
N288 N 0.24775 0.87521 0.27825 0.0
C289 C 0.26572 0.87308 0.29696 0.0
C290 C 0.28523 0.89044 0.26564 0.0
C291 C 0.26035 0.88594 0.25852 0.0
C292 C 0.37045 0.8942 0.28611 0.0
O293 O 0.37926 0.88209 0.30619 0.0
H294 H 0.26259 0.86409 0.31524 0.0
H295 H 0.30023 0.89769 0.25352 0.0
O296 O 0.32728 0.84372 0.31298 0.0
H297 H 0.31035 0.91036 0.39582 0.0
H298 H 0.25286 0.88887 0.23952 0.0
Cu299 Cu 0.1292 0.44588 0.03636 0.0
N300 N 0.12921 0.4106 0.03131 0.0
N301 N 0.15457 0.38611 1.0071 0.0
C302 C 0.13592 0.40376 1.00748 0.0
C303 C 0.15816 0.37987 0.03177 0.0
C304 C 0.14246 0.39481 0.04659 0.0
O305 O 0.16607 0.45171 0.03867 0.0
C306 C 0.08745 0.4531 1.00574 0.0
O307 O 0.08019 0.43356 1.01956 0.0
H308 H 0.13143 0.4155 0.99113 0.0
H309 H 0.14469 0.39759 0.06691 0.0
N310 N 0.11307 0.46025 0.06481 0.0
N311 N 0.09602 0.49652 0.07957 0.0
C312 C 0.11621 0.48546 0.06834 0.0
C313 C 0.09029 0.45476 0.07524 0.0
C314 C 0.07991 0.47706 0.08469 0.0
C315 C 0.17638 0.4508 0.06075 0.0
O316 O 0.16377 0.46019 0.08008 0.0
H317 H 0.13194 0.49588 0.06003 0.0
H318 H 0.08038 0.43677 0.07304 0.0
O319 O 0.11023 0.46152 1.00826 0.0
H320 H 0.17389 0.36863 0.03884 0.0
H321 H 0.06069 0.47922 0.09171 0.0
Cu322 Cu 0.73244 0.65088 0.3093 0.0
N323 N 0.72562 0.62614 0.33459 0.0
N324 N 0.70438 0.59923 0.36038 0.0
C325 C 0.70301 0.61484 0.33984 0.0
C326 C 0.72881 0.60105 0.36842 0.0
C327 C 0.74179 0.61739 0.35248 0.0
O328 O 0.70994 0.64451 0.28002 0.0
C329 C 0.74342 0.69024 0.34259 0.0
O330 O 0.75889 0.67262 0.35106 0.0
H331 H 0.68582 0.61814 0.3289 0.0
H332 H 0.76155 0.62302 0.35435 0.0
N333 N 0.76641 0.65018 0.298 0.0
N334 N 0.80254 0.66471 0.2803 0.0
C335 C 0.77755 0.66901 0.28449 0.0
C336 C 0.78503 0.63321 0.30242 0.0
C337 C 0.80734 0.64213 0.29149 0.0
C338 C 0.68623 0.64952 0.27974 0.0
O339 O 0.67629 0.66084 0.29965 0.0
H340 H 0.7675 0.68577 0.27809 0.0
H341 H 0.78262 0.61559 0.31279 0.0
O342 O 0.72866 0.68489 0.32392 0.0
H343 H 0.73668 0.59208 0.38523 0.0
H344 H 0.82545 0.63243 0.29124 0.0
Cu345 Cu 0.93128 0.10497 1.02038 0.0
N346 N 0.91121 0.11333 0.99143 0.0
N347 N 0.88339 0.13291 0.96519 0.0
C348 C 0.89716 0.13449 0.98715 0.0
C349 C 0.8892 0.10989 0.95541 0.0
C350 C 0.90608 0.09791 0.97158 0.0
O351 O 0.92058 0.12739 0.04836 0.0
C352 C 0.97856 0.10595 0.99179 0.0
O353 O 0.96418 0.11045 0.97176 0.0
H354 H 0.89699 0.15063 0.99995 0.0
H355 H 0.91373 0.07899 0.96931 0.0
N356 N 0.9253 0.07095 0.03013 0.0
N357 N 0.93322 0.03083 0.04255 0.0
C358 C 0.94325 0.05403 0.03733 0.0
C359 C 0.90312 0.05802 0.03094 0.0
C360 C 0.90788 0.03346 0.03881 0.0
C361 C 0.89708 0.1267 0.05454 0.0
O362 O 0.88162 0.1116 0.04177 0.0
H363 H 0.96338 0.05849 0.03813 0.0
H364 H 0.88475 0.06572 1.02587 0.0
O365 O 0.96836 0.10544 1.01384 0.0
H366 H 0.88124 0.10191 0.93806 0.0
H367 H 0.89362 1.01879 0.04167 0.0
Cu368 Cu 0.28573 0.33304 0.14001 0.0
N369 N 0.26805 0.34228 0.11038 0.0
N370 N 0.24434 0.36762 0.08555 0.0
C371 C 0.2522 0.36226 0.1095 0.0
C372 C 0.25552 0.34996 0.0707 0.0
C373 C 0.27028 0.33443 0.08608 0.0
O374 O 0.31719 0.35254 0.13962 0.0
C375 C 0.26606 0.33743 0.19163 0.0
O376 O 0.28949 0.33494 0.20014 0.0
H377 H 0.24744 0.37341 0.12614 0.0
H378 H 0.28229 0.31903 0.07987 0.0
N379 N 0.29535 0.29883 0.14104 0.0
N380 N 0.30969 0.26314 0.15944 0.0
C381 C 0.29536 0.28419 0.16216 0.0
C382 C 0.31009 0.28651 0.12423 0.0
C383 C 0.31888 0.26446 0.13547 0.0
C384 C 0.31813 0.37637 0.13566 0.0
O385 O 0.29712 0.38967 0.13719 0.0
H386 H 0.28627 0.28958 0.17975 0.0
H387 H 0.31583 0.2941 0.10596 0.0
O388 O 0.26211 0.33892 0.16775 0.0
H389 H 0.25328 0.3483 0.05025 0.0
H390 H 0.33263 0.2516 0.12733 0.0
Cu391 Cu 0.27209 0.70044 0.40122 0.0
N392 N 0.25232 0.67152 0.40983 0.0
N393 N 0.22612 0.64722 0.4336 0.0
C394 C 0.23612 0.67074 0.42975 0.0
C395 C 0.23626 0.63272 0.41501 0.0
C396 C 0.25251 0.64766 0.40052 0.0
O397 O 0.29743 0.70392 0.42901 0.0
C398 C 0.23314 0.72178 0.37406 0.0
O399 O 0.22794 0.69742 0.37162 0.0
H400 H 0.23192 0.68727 0.44122 0.0
H401 H 0.26415 0.64141 0.38481 0.0
N402 N 0.29106 0.69982 0.37117 0.0
N403 N 0.30763 0.72411 0.33999 0.0
C404 C 0.30406 0.72121 0.3653 0.0
C405 C 0.28629 0.68836 0.34869 0.0
C406 C 0.29664 0.70321 0.32946 0.0
C407 C 0.31421 0.68637 0.42823 0.0
O408 O 0.31266 0.66967 0.40963 0.0
H409 H 0.30703 0.73628 0.37909 0.0
H410 H 0.27346 0.67236 0.34612 0.0
O411 O 0.24959 0.72842 0.391 0.0
H412 H 0.23286 0.61252 0.41256 0.0
H413 H 0.29406 0.70005 0.30922 0.0
Cu414 Cu 0.97175 0.53883 0.90146 0.0
N415 N 0.94284 0.55918 0.89673 0.0
N416 N 0.91844 0.58725 0.87582 0.0
C417 C 0.93934 0.57247 0.87507 0.0
C418 C 0.9083 0.58299 0.8991 0.0
C419 C 0.92333 0.56557 0.91192 0.0
O420 O 0.96911 0.51288 0.87403 0.0
C421 C 0.99592 0.57844 0.92505 0.0
O422 O 0.97334 0.57796 0.93559 0.0
H423 H 0.95211 0.57126 0.859 0.0
H424 H 0.92061 0.55873 0.93115 0.0
N425 N 0.97504 0.51992 0.93138 0.0
N426 N 0.9991 0.49966 0.96019 0.0
C427 C 0.99722 0.5081 0.93604 0.0
C428 C 0.962 0.51876 0.95336 0.0
C429 C 0.97681 0.50608 0.97119 0.0
C430 C 0.9491 0.49905 0.87711 0.0
O431 O 0.93449 0.50436 0.89662 0.0
H432 H 1.01258 0.50747 0.92236 0.0
H433 H 0.9438 0.5276 0.95665 0.0
O434 O 1.00049 0.56285 0.90679 0.0
H435 H 0.89174 0.59232 0.90678 0.0
H436 H 0.97176 0.50252 0.99085 0.0
Cu437 Cu 0.79941 0.86035 0.37234 0.0
N438 N 0.82751 0.8653 0.39405 0.0
N439 N 0.85279 0.88381 0.42339 0.0
C440 C 0.82937 0.8831 0.41249 0.0
C441 C 0.86601 0.86531 0.41162 0.0
C442 C 0.85042 0.85402 0.39345 0.0
O443 O 0.7777 0.88983 0.37845 0.0
C444 C 0.79786 0.85146 0.31806 0.0
O445 O 0.77309 0.84957 0.3211 0.0
H446 H 0.81377 0.89536 0.41765 0.0
H447 H 0.85563 0.83914 0.38026 0.0
N448 N 0.78227 0.83036 0.38163 0.0
N449 N 0.76466 0.79146 0.38044 0.0
C450 C 0.77825 0.80917 0.36758 0.0
C451 C 0.77083 0.82586 0.4041 0.0
C452 C 0.7599 0.80194 0.4034 0.0
C453 C 0.75357 0.88891 0.38087 0.0
O454 O 0.74145 0.8677 0.3752 0.0
H455 H 0.78549 0.80655 0.34849 0.0
H456 H 0.77027 0.83922 0.41977 0.0
O457 O 0.81178 0.85712 0.33728 0.0
H458 H 0.88579 0.86084 0.41525 0.0
H459 H 0.749 0.79311 0.41851 0.0
Cu460 Cu 0.59966 0.50129 0.43571 0.0
N461 N 0.60699 0.4726 0.41568 0.0
N462 N 0.62477 0.44742 0.38626 0.0
C463 C 0.62219 0.47151 0.39498 0.0
C464 C 0.61073 0.43287 0.40216 0.0
C465 C 0.59973 0.44842 0.42016 0.0
O466 O 0.62432 0.52752 0.4256 0.0
C467 C 0.60328 0.50863 0.48982 0.0
O468 O 0.60389 0.53286 0.48372 0.0
H469 H 0.63199 0.48789 0.38712 0.0
H470 H 0.58776 0.44247 0.43581 0.0
N471 N 0.56554 0.51094 0.43044 0.0
N472 N 0.52644 0.52574 0.43864 0.0
C473 C 0.55136 0.5262 0.44536 0.0
C474 C 0.54897 0.50066 0.41359 0.0
C475 C 0.52488 0.50978 0.41855 0.0
C476 C 0.62105 0.5424 0.40667 0.0
O477 O 0.59888 0.54263 0.39497 0.0
H478 H 0.55889 0.53656 0.46158 0.0
H479 H 0.55392 0.48676 0.39927 0.0
O480 O 0.6029 0.49215 0.47194 0.0
H481 H 0.60881 0.41237 0.40102 0.0
H482 H 0.50756 0.50488 0.40833 0.0
Cu483 Cu 0.27581 0.69946 0.66551 0.0
N484 N 0.29614 0.69204 0.6369 0.0
N485 N 0.31717 0.66804 0.60849 0.0
C486 C 0.30924 0.67036 0.63292 0.0
C487 C 0.30938 0.68957 0.59685 0.0
C488 C 0.29631 0.70417 0.61431 0.0
O489 O 0.24534 0.67843 0.66186 0.0
C490 C 0.28399 0.69556 0.71863 0.0
O491 O 0.25908 0.69766 0.71927 0.0
H492 H 0.31184 0.65591 0.64735 0.0
H493 H 0.28664 0.72186 0.61045 0.0
N494 N 0.265 0.73359 0.6663 0.0
N495 N 0.25298 0.77112 0.68277 0.0
C496 C 0.26701 0.74986 0.68621 0.0
C497 C 0.24942 0.74514 0.64954 0.0
C498 C 0.24217 0.76831 0.65951 0.0
C499 C 0.24611 0.65447 0.65848 0.0
O500 O 0.26781 0.6426 0.6615 0.0
H501 H 0.27814 0.74593 0.70312 0.0
H502 H 0.24273 0.73672 0.63189 0.0
O503 O 0.29476 0.69375 0.697 0.0
H504 H 0.31257 0.69442 0.57708 0.0
H505 H 0.22894 0.78148 0.65085 0.0
Cu506 Cu 0.94141 0.52946 0.63243 0.0
N507 N 0.90759 0.52436 0.64287 0.0
N508 N 0.87732 0.50285 0.66417 0.0
C509 C 0.90095 0.50235 0.65421 0.0
C510 C 0.86849 0.52633 0.65873 0.0
C511 C 0.88722 0.53957 0.64546 0.0
O512 O 0.96277 0.52419 0.66222 0.0
C513 C 0.94248 0.50977 0.58332 0.0
O514 O 0.9273 0.52918 0.57955 0.0
H515 H 0.914 0.48664 0.65639 0.0
H516 H 0.88646 0.55919 0.6393 0.0
N517 N 0.95235 0.56011 0.61782 0.0
N518 N 0.98064 0.58185 0.59438 0.0
C519 C 0.97628 0.56115 0.60884 0.0
C520 C 0.94097 0.58129 0.60903 0.0
C521 C 0.95862 0.59496 0.5947 0.0
C522 C 0.95831 0.53155 0.68496 0.0
O523 O 0.97428 0.52504 0.70314 0.0
H524 H 0.98995 0.54611 0.61186 0.0
H525 H 0.92106 0.58572 0.61153 0.0
O526 O 0.94955 0.50464 0.60605 0.0
H527 H 0.85007 0.53358 0.66417 0.0
H528 H 0.95509 0.6123 0.58416 0.0
Cu529 Cu 0.10758 0.05703 0.64176 0.0
N530 N 0.10422 0.08044 0.66842 0.0
N531 N 0.11458 0.11055 0.69692 0.0
C532 C 0.1227 0.09612 0.6773 0.0
C533 C 0.09009 0.10343 0.70063 0.0
C534 C 0.08375 0.08493 0.68297 0.0
O535 O 0.13762 0.0364 0.6495 0.0
C536 C 0.11059 0.06979 0.58804 0.0
O537 O 0.11337 0.04535 0.58363 0.0
H538 H 0.14173 0.09691 0.66949 0.0
H539 H 0.06562 0.07517 0.68112 0.0
N540 N 0.07884 0.03546 0.63927 0.0
N541 N 0.04649 1.01256 0.62271 0.0
C542 C 0.06421 0.03089 0.61846 0.0
C543 C 0.06973 1.01975 0.65737 0.0
C544 C 0.0498 1.00572 0.64729 0.0
C545 C 0.13965 0.02847 0.67244 0.0
O546 O 0.12189 0.03475 0.68876 0.0
H547 H 0.06631 0.041 0.60066 0.0
H548 H 0.07723 1.01826 0.67653 0.0
O549 O 0.10965 0.0776 0.61097 0.0
H550 H 0.07782 0.11052 0.71549 0.0
H551 H 0.03894 0.9912 0.65714 0.0
Cu552 Cu 0.65989 0.75667 0.84362 0.0
N553 N 0.62924 0.73871 0.84671 0.0
N554 N 0.59597 0.72132 0.86673 0.0
C555 C 0.61838 0.73365 0.86936 0.0
C556 C 0.59258 0.71827 0.8414 0.0
C557 C 0.61331 0.72885 0.82905 0.0
O558 O 0.65957 0.77863 0.87356 0.0
C559 C 0.71016 0.73494 0.84147 0.0
O560 O 0.71906 0.75773 0.84688 0.0
H561 H 0.62646 0.73953 0.88748 0.0
H562 H 0.61647 0.72931 0.8087 0.0
N563 N 0.6615 0.77589 0.81344 0.0
N564 N 0.67863 0.79649 0.78015 0.0
C565 C 0.68274 0.78646 0.80354 0.0
C566 C 0.64311 0.77991 0.79596 0.0
C567 C 0.65358 0.79261 0.77548 0.0
C568 C 0.6405 0.7935 0.87335 0.0
O569 O 0.62752 0.79593 0.85202 0.0
H570 H 0.70085 0.78674 0.81333 0.0
H571 H 0.62357 0.77357 0.79767 0.0
O572 O 0.68625 0.73103 0.84172 0.0
H573 H 0.57653 0.70879 0.83251 0.0
H574 H 0.6437 0.79772 0.75807 0.0
Cu575 Cu 0.02979 0.14664 0.44554 0.0
N576 N 1.01082 0.17636 0.44264 0.0
N577 N 0.98546 0.20461 0.42342 0.0
C578 C 0.99733 0.18201 0.42156 0.0
C579 C 0.99205 0.21368 0.44667 0.0
C580 C 1.00773 0.19618 0.45852 0.0
O581 O 0.04652 0.14506 0.41248 0.0
C582 C 0.99154 0.12128 0.47126 0.0
O583 O 0.99321 0.14241 0.48458 0.0
H584 H 0.9967 0.16974 0.40505 0.0
H585 H 1.01616 0.19775 0.47732 0.0
N586 N 0.05311 0.14815 0.47267 0.0
N587 N 0.07646 0.13584 0.50627 0.0
C588 C 0.059 0.12885 0.48853 0.0
C589 C 0.06737 0.16804 0.48055 0.0
C590 C 0.08188 0.16049 0.50118 0.0
C591 C 0.07005 0.15003 0.40928 0.0
O592 O 0.08553 0.14911 0.429 0.0
H593 H 0.05035 0.11013 0.48728 0.0
H594 H 0.06741 0.18663 0.47169 0.0
O595 O 1.00617 0.11863 0.45214 0.0
H596 H 0.9856 0.23142 0.45477 0.0
H597 H 0.09568 0.17215 0.51128 0.0
Cu598 Cu 0.40829 0.76995 0.82486 0.0
N599 N 0.41619 0.78492 0.8565 0.0
N600 N 0.43765 0.80965 0.88421 0.0
C601 C 0.43277 0.80446 0.85941 0.0
C602 C 0.42332 0.79283 0.8974 0.0
C603 C 0.4103 0.77748 0.8803 0.0
O604 O 0.43634 0.74652 0.81805 0.0
C605 C 0.38461 0.81225 0.8087 0.0
O606 O 0.37435 0.8078 0.83104 0.0
H607 H 0.44137 0.81434 0.84351 0.0
H608 H 0.39836 0.76136 0.88501 0.0
N609 N 0.37769 0.75113 0.8233 0.0
N610 N 0.34578 0.72967 0.80419 0.0
C611 C 0.36717 0.74374 0.80101 0.0
C612 C 0.36234 0.74155 0.84145 0.0
C613 C 0.34276 0.72816 0.82973 0.0
C614 C 0.43536 0.7262 0.83139 0.0
O615 O 0.41578 0.72286 0.84651 0.0
H616 H 0.37513 0.74881 0.7827 0.0
H617 H 0.36533 0.74358 0.86172 0.0
O618 O 0.40226 0.79767 0.80089 0.0
H619 H 0.42316 0.79099 0.91796 0.0
H620 H 0.32802 0.71754 0.83946 0.0
Cu621 Cu 0.03305 0.39891 0.47643 0.0
N622 N 0.05281 0.39557 0.44691 0.0
N623 N 0.07992 0.37698 0.4199 0.0
C624 C 0.06273 0.37345 0.43871 0.0
C625 C 0.08025 0.40233 0.41567 0.0
C626 C 0.06366 0.41377 0.43247 0.0
O627 O 1.00693 0.37203 0.47618 0.0
C628 C 0.0796 0.40482 0.50372 0.0
O629 O 0.09078 0.39399 0.48425 0.0
H630 H 0.05795 0.35523 0.44708 0.0
H631 H 0.06072 0.43397 0.43489 0.0
N632 N 1.01496 0.42931 0.47862 0.0
N633 N 0.99144 0.45852 0.49873 0.0
C634 C 1.00636 0.43784 0.50114 0.0
C635 C 1.00528 0.44513 0.46099 0.0
C636 C 0.99063 0.46308 0.47331 0.0
C637 C 0.99146 0.37425 0.45744 0.0
O638 O 0.9958 0.39221 0.44058 0.0
H639 H 1.01064 0.42848 0.51898 0.0
H640 H 1.00779 0.44316 0.44064 0.0
O641 O 0.05557 0.40214 0.50613 0.0
H642 H 0.09255 0.41205 0.40227 0.0
H643 H 0.97937 0.47746 0.46392 0.0
Cu644 Cu 0.66828 0.27131 0.74063 0.0
N645 N 0.64339 0.29521 0.73045 0.0
N646 N 0.61758 0.3185 0.70542 0.0
C647 C 0.64015 0.30626 0.70733 0.0
C648 C 0.6065 0.31553 0.72837 0.0
C649 C 0.62231 0.30116 0.74362 0.0
O650 O 0.65714 0.23905 0.72486 0.0
C651 C 0.72282 0.2717 0.73809 0.0
O652 O 0.72036 0.24917 0.74867 0.0
H653 H 0.65363 0.30463 0.69189 0.0
H654 H 0.61829 0.29491 0.76281 0.0
N655 N 0.66716 0.26645 0.77643 0.0
N656 N 0.67747 0.26203 0.81797 0.0
C657 C 0.68548 0.26955 0.79455 0.0
C658 C 0.64695 0.25692 0.78894 0.0
C659 C 0.65307 0.25447 0.81437 0.0
C660 C 0.65243 0.23653 0.70109 0.0
O661 O 0.65951 0.25479 0.68551 0.0
H662 H 0.70446 0.27665 0.79062 0.0
H663 H 0.62897 0.25188 0.78007 0.0
O664 O 0.70266 0.28355 0.73156 0.0
H665 H 0.58829 0.3233 0.73384 0.0
H666 H 0.64022 0.24796 0.82908 0.0
Cu667 Cu 0.5308 0.14471 0.60314 0.0
N668 N 0.55145 0.14562 0.63276 0.0
N669 N 0.58093 0.16158 0.65982 0.0
C670 C 0.56704 0.16543 0.63837 0.0
C671 C 0.57379 0.13821 0.66799 0.0
C672 C 0.55563 0.12844 0.65132 0.0
O673 O 0.50897 0.17507 0.606 0.0
C674 C 0.56637 0.11902 0.57697 0.0
O675 O 0.56177 0.10477 0.597 0.0
H676 H 0.56818 0.18242 0.62676 0.0
H677 H 0.54668 0.10989 0.65235 0.0
N678 N 0.50864 0.11656 0.59849 0.0
N679 N 0.48476 0.08877 0.57589 0.0
C680 C 0.49867 0.11052 0.57544 0.0
C681 C 0.50084 0.09786 0.61422 0.0
C682 C 0.48622 0.08066 0.60031 0.0
C683 C 0.4944 0.17382 0.62548 0.0
O684 O 0.49553 0.15318 0.63957 0.0
H685 H 0.5026 0.12141 0.55839 0.0
H686 H 0.50578 0.09651 0.6342 0.0
O687 O 0.55478 0.14028 0.57481 0.0
H688 H 0.58168 0.12841 0.68433 0.0
H689 H 0.47751 0.06342 0.60758 0.0
Cu690 Cu 0.40396 0.28755 0.73035 0.0
N691 N 0.40974 0.27602 0.69664 0.0
N692 N 0.42916 0.2533 0.66609 0.0
C693 C 0.42522 0.25632 0.69138 0.0
C694 C 0.41541 0.27185 0.65487 0.0
C695 C 0.40351 0.28586 0.67374 0.0
O696 O 0.43415 0.30926 0.73796 0.0
C697 C 0.37405 0.24678 0.73994 0.0
O698 O 0.36676 0.25496 0.71741 0.0
H699 H 0.43415 0.24486 0.70601 0.0
H700 H 0.39168 0.30238 0.67091 0.0
N701 N 0.37562 0.30812 0.73716 0.0
N702 N 0.34794 0.32798 0.76259 0.0
C703 C 0.36788 0.31208 0.76135 0.0
C704 C 0.3597 0.32176 0.72242 0.0
C705 C 0.34274 0.33426 0.73814 0.0
C706 C 0.43384 0.32958 0.72441 0.0
O707 O 0.41428 0.33296 0.70912 0.0
H708 H 0.37729 0.30404 0.77788 0.0
H709 H 0.36066 0.32299 0.70187 0.0
O710 O 0.39354 0.25751 0.75034 0.0
H711 H 0.41391 0.27502 0.63454 0.0
H712 H 0.32796 0.34723 0.73211 0.0
Cu713 Cu 0.54175 0.42792 0.63483 0.0
N714 N 0.53403 0.42464 0.66967 0.0
N715 N 0.51355 0.40209 0.69995 0.0
C716 C 0.51203 0.4133 0.67676 0.0
C717 C 0.53758 0.40689 0.70803 0.0
C718 C 0.5502 0.42056 0.68925 0.0
O719 O 0.5541 0.39325 0.6285 0.0
C720 C 0.50531 0.46373 0.62743 0.0
O721 O 0.51606 0.47044 0.64911 0.0
H722 H 0.49619 0.41057 0.66372 0.0
H723 H 0.57042 0.42467 0.68876 0.0
N724 N 0.56674 0.4512 0.62411 0.0
N725 N 0.58625 0.47443 0.59397 0.0
C726 C 0.57144 0.45401 0.59901 0.0
C727 C 0.57903 0.47064 0.63561 0.0
C728 C 0.59123 0.48497 0.61702 0.0
C729 C 0.57801 0.38925 0.63112 0.0
O730 O 0.59381 0.40834 0.6274 0.0
H731 H 0.56274 0.44207 0.58452 0.0
H732 H 0.57816 0.47483 0.65578 0.0
O733 O 0.51185 0.44251 0.61744 0.0
H734 H 0.54598 0.39984 0.7255 0.0
H735 H 0.60235 0.5021 0.62022 0.0
Cu736 Cu 0.8407 0.65059 0.75365 0.0
N737 N 0.84841 0.62114 0.73452 0.0
N738 N 0.87081 0.59013 0.71587 0.0
C739 C 0.87108 0.61438 0.72448 0.0
C740 C 0.84693 0.58152 0.71992 0.0
C741 C 0.83318 0.60065 0.73125 0.0
O742 O 0.86175 0.65109 0.78448 0.0
C743 C 0.82336 0.67979 0.71375 0.0
O744 O 0.81071 0.65833 0.71075 0.0
H745 H 0.8878 0.62649 0.72448 0.0
H746 H 0.81365 0.59931 0.73753 0.0
N747 N 0.80837 0.64821 0.76819 0.0
N748 N 0.77561 0.66227 0.79131 0.0
C749 C 0.79421 0.66846 0.77467 0.0
C750 C 0.79856 0.62852 0.78138 0.0
C751 C 0.77825 0.63708 0.7955 0.0
C752 C 0.88475 0.6442 0.78742 0.0
O753 O 0.89959 0.64244 0.76747 0.0
H754 H 0.79863 0.6877 0.76869 0.0
H755 H 0.80703 0.60987 0.7826 0.0
O756 O 0.83965 0.68107 0.73192 0.0
H757 H 0.84014 0.5625 0.71569 0.0
H758 H 0.76775 0.62605 0.8094 0.0
Cu759 Cu 0.9136 0.97443 0.5434 0.0
N760 N 0.88824 0.9692 0.56783 0.0
N761 N 0.86122 0.94836 0.59355 0.0
C762 C 0.87494 0.94755 0.57178 0.0
C763 C 0.86624 0.97152 0.60365 0.0
C764 C 0.88288 0.98428 0.58778 0.0
O765 O 0.90825 0.94969 0.51587 0.0
C766 C 0.96817 0.97475 0.55344 0.0
O767 O 0.97161 0.9731 0.52872 0.0
H768 H 0.87605 0.93118 0.55932 0.0
H769 H 0.89157 1.00269 0.59124 0.0
N770 N 0.9116 1.00725 0.52955 0.0
N771 N 0.92341 0.04339 0.51017 0.0
C772 C 0.93007 1.01945 0.5165 0.0
C773 C 0.89252 1.02407 0.53153 0.0
C774 C 0.89979 0.04642 0.5197 0.0
C775 C 0.88761 0.95258 0.50324 0.0
O776 O 0.87227 0.97099 0.50999 0.0
H777 H 0.94847 1.01134 0.51265 0.0
H778 H 0.87478 1.0205 0.54134 0.0
O779 O 0.94569 0.97306 0.56228 0.0
H780 H 0.85972 0.97828 0.62194 0.0
H781 H 0.88874 0.0637 0.51857 0.0
Cu782 Cu 0.24432 0.90988 0.76068 0.0
N783 N 0.23978 0.936 0.7368 0.0
N784 N 0.22064 0.96465 0.71169 0.0
C785 C 0.21754 0.94667 0.72987 0.0
C786 C 0.24589 0.96538 0.70706 0.0
C787 C 0.25763 0.94763 0.72252 0.0
O788 O 0.2262 0.91921 0.79228 0.0
C789 C 0.23961 0.856 0.75265 0.0
O790 O 0.24826 0.85416 0.77612 0.0
H791 H 0.19936 0.94127 0.73786 0.0
H792 H 0.27778 0.94358 0.72341 0.0
N793 N 0.27898 0.90705 0.7689 0.0
N794 N 0.317 0.88876 0.77527 0.0
C795 C 0.29505 0.88854 0.76156 0.0
C796 C 0.2914 0.91996 0.7873 0.0
C797 C 0.31477 0.90883 0.79122 0.0
C798 C 0.20209 0.92017 0.79505 0.0
O799 O 0.18743 0.91206 0.77633 0.0
H800 H 0.29019 0.87463 0.74715 0.0
H801 H 0.28329 0.93527 0.79831 0.0
O802 O 0.23439 0.87797 0.74384 0.0
H803 H 0.25533 0.97826 0.694 0.0
H804 H 0.3282 0.91394 0.80613 0.0
Cu805 Cu 0.12918 0.57462 0.54205 0.0
N806 N 0.14031 0.58681 0.57386 0.0
N807 N 0.16297 0.60434 0.60558 0.0
C808 C 0.16298 0.59692 0.5809 0.0
C809 C 0.13974 0.59817 0.61455 0.0
C810 C 0.1259 0.58723 0.59502 0.0
O811 O 0.14805 0.59044 0.51352 0.0
C812 C 0.07993 0.59753 0.54961 0.0
O813 O 0.09269 0.61805 0.55645 0.0
H814 H 0.17896 0.59929 0.56813 0.0
H815 H 0.10653 0.58019 0.59611 0.0
N816 N 0.13511 0.53951 0.54143 0.0
N817 N 0.12893 0.49739 0.53819 0.0
C818 C 0.118 0.52062 0.53731 0.0
C819 C 0.15756 0.52786 0.54504 0.0
C820 C 0.15385 0.50193 0.54289 0.0
C821 C 0.15713 0.61305 0.5138 0.0
O822 O 0.15185 0.62794 0.53314 0.0
H823 H 0.09812 0.52391 0.53299 0.0
H824 H 0.17541 0.53761 0.54876 0.0
O825 O 0.09213 0.57862 0.54073 0.0
H826 H 0.13333 0.60117 0.63389 0.0
H827 H 0.16839 0.48751 0.54451 0.0
Cu828 Cu 0.84688 0.39022 0.77289 0.0
N829 N 0.87969 0.39866 0.78581 0.0
N830 N 0.90907 0.42197 0.80714 0.0
C831 C 0.8841 0.41555 0.80483 0.0
C832 C 0.92084 0.40872 0.78864 0.0
C833 C 0.90275 0.3944 0.77556 0.0
O834 O 0.83819 0.41898 0.75048 0.0
C835 C 0.83368 0.36201 0.8145 0.0
O836 O 0.8583 0.35802 0.81324 0.0
H837 H 0.86901 0.42407 0.81583 0.0
H838 H 0.90604 0.38268 0.75897 0.0
N839 N 0.84335 0.36045 0.75334 0.0
N840 N 0.8193 0.32721 0.74055 0.0
C841 C 0.81985 0.35214 0.7467 0.0
C842 C 0.85853 0.3401 0.7509 0.0
C843 C 0.84378 0.31963 0.74277 0.0
C844 C 0.85101 0.41876 0.7298 0.0
O845 O 0.8659 0.39922 0.72569 0.0
H846 H 0.80295 0.36354 0.7492 0.0
H847 H 0.87829 0.33953 0.75679 0.0
O848 O 0.8243 0.37982 0.80077 0.0
H849 H 0.94102 0.40965 0.78459 0.0
H850 H 0.85042 0.30037 0.74016 0.0
Cu851 Cu 0.65345 0.98407 0.49702 0.0
N852 N 0.67848 0.98244 0.47176 0.0
N853 N 0.70353 0.96594 0.44159 0.0
C854 C 0.68406 0.96166 0.45786 0.0
C855 C 0.71062 0.99037 0.44568 0.0
C856 C 0.69506 1.00053 0.46421 0.0
O857 O 0.66069 0.95713 0.52196 0.0
C858 C 0.59999 0.97938 0.49294 0.0
O859 O 0.6012 0.98108 0.51791 0.0
H860 H 0.67451 0.94351 0.46029 0.0
H861 H 0.69598 1.01962 0.47187 0.0
N862 N 0.65212 1.01644 0.51269 0.0
N863 N 0.63557 0.05304 0.52739 0.0
C864 C 0.63291 0.03339 0.51078 0.0
C865 C 0.66779 1.02599 0.53071 0.0
C866 C 0.65773 0.04843 0.53971 0.0
C867 C 0.68297 0.95524 0.53161 0.0
O868 O 0.70058 0.97177 0.52491 0.0
H869 H 0.61704 0.03092 0.4978 0.0
H870 H 0.6847 1.01673 0.53779 0.0
O871 O 0.62067 0.97877 0.48044 0.0
H872 H 0.72598 1.00017 0.436 0.0
H873 H 0.66544 0.05963 0.5553 0.0
Cu874 Cu 0.2123 0.19388 0.79436 0.0
N875 N 0.19685 0.17933 0.82322 0.0
N876 N 0.17541 0.15246 0.84871 0.0
C877 C 0.18463 0.15663 0.82499 0.0
C878 C 0.18226 0.17332 0.86224 0.0
C879 C 0.19539 0.18976 0.84655 0.0
O880 O 0.19652 0.17759 0.76463 0.0
C881 C 0.19061 0.24411 0.8041 0.0
O882 O 0.17085 0.2324 0.81404 0.0
H883 H 0.18316 0.14321 0.80939 0.0
H884 H 0.20341 0.20806 0.85178 0.0
N885 N 0.24785 0.18887 0.79563 0.0
N886 N 0.28946 0.19608 0.7885 0.0
C887 C 0.2654 0.19825 0.77929 0.0
C888 C 0.26136 0.18059 0.81586 0.0
C889 C 0.28695 0.18506 0.81156 0.0
C890 C 0.17242 0.1792 0.76198 0.0
O891 O 0.15977 0.19322 0.77821 0.0
H892 H 0.26053 0.20802 0.76177 0.0
H893 H 0.25306 0.17317 0.8332 0.0
O894 O 0.20841 0.23098 0.79432 0.0
H895 H 0.17818 0.17645 0.8822 0.0
H896 H 0.30246 0.18122 0.82466 0.0
Cu897 Cu 0.41322 0.58899 0.53097 0.0
N898 N 0.41066 0.62374 0.52288 0.0
N899 N 0.38919 0.65511 0.50313 0.0
C900 C 0.39828 0.63114 0.50154 0.0
C901 C 0.39649 0.66333 0.52648 0.0
C902 C 0.40946 0.64389 0.53868 0.0
O903 O 0.37824 0.58262 0.54188 0.0
C904 C 0.4493 0.57963 0.49555 0.0
O905 O 0.45787 0.59986 0.50768 0.0
H906 H 0.39346 0.61806 0.48627 0.0
H907 H 0.41523 0.64367 0.5585 0.0
N908 N 0.43568 0.57919 0.55724 0.0
N909 N 0.45771 0.55175 0.58153 0.0
C910 C 0.44379 0.55497 0.56006 0.0
C911 C 0.44496 0.59187 0.57759 0.0
C912 C 0.45842 0.57496 0.59265 0.0
C913 C 0.37352 0.58316 0.56574 0.0
O914 O 0.38942 0.57173 0.58129 0.0
H915 H 0.43843 0.53973 0.54718 0.0
H916 H 0.44142 0.61168 0.58169 0.0
O917 O 0.42711 0.57129 0.5013 0.0
H918 H 0.39173 0.68152 0.53476 0.0
H919 H 0.46765 0.5793 0.61066 0.0
Cu920 Cu 0.75828 0.83841 0.65071 0.0
N921 N 0.73491 0.84663 0.62473 0.0
N922 N 0.7131 0.87124 0.59725 0.0
C923 C 0.73506 0.86811 0.6106 0.0
C924 C 0.69886 0.8505 0.60298 0.0
C925 C 0.71224 0.83552 0.61996 0.0
O926 O 0.78471 0.86476 0.64927 0.0
C927 C 0.74873 0.83518 0.70443 0.0
O928 O 0.77361 0.83559 0.70718 0.0
H929 H 0.75088 0.88137 0.61068 0.0
H930 H 0.70537 0.81845 0.62926 0.0
N931 N 0.77229 0.80563 0.64646 0.0
N932 N 0.78939 0.76742 0.65501 0.0
C933 C 0.78058 0.78948 0.66479 0.0
C934 C 0.77599 0.79327 0.62435 0.0
C935 C 0.78668 0.76991 0.6295 0.0
C936 C 0.80071 0.86388 0.63109 0.0
O937 O 0.8004 0.84405 0.61588 0.0
H938 H 0.7797 0.79346 0.68495 0.0
H939 H 0.77134 0.80079 0.60572 0.0
O940 O 0.73904 0.83806 0.68234 0.0
H941 H 0.67959 0.84697 0.59639 0.0
H942 H 0.7923 0.75603 0.61542 0.0
Cu943 Cu 0.76192 0.22533 0.90916 0.0
N944 N 0.73891 0.19782 0.90956 0.0
N945 N 0.71324 0.16826 0.92692 0.0
C946 C 0.72628 0.19022 0.93064 0.0
C947 C 0.71827 0.16153 0.90261 0.0
C948 C 0.73405 0.1798 0.89193 0.0
O949 O 0.79258 0.21307 0.92742 0.0
C950 C 0.72853 0.26843 0.91641 0.0
O951 O 0.72079 0.28789 0.92994 0.0
H952 H 0.72772 0.19998 0.94877 0.0
H953 H 0.74227 0.17934 0.87309 0.0
N954 N 0.77074 0.23904 0.87723 0.0
N955 N 0.78299 0.27074 0.85112 0.0
C956 C 0.78387 0.26111 0.87501 0.0
C957 C 0.76134 0.2343 0.85377 0.0
C958 C 0.769 0.25371 0.8376 0.0
C959 C 0.80639 0.19634 0.91659 0.0
O960 O 0.8006 0.18976 0.89307 0.0
H961 H 0.79235 0.27088 0.89116 0.0
H962 H 0.74843 0.21887 0.84906 0.0
O963 O 0.74525 0.25358 0.92614 0.0
H964 H 0.71165 0.14423 0.89345 0.0
H965 H 0.76391 0.25542 0.81769 0.0
Cu966 Cu 0.4381 0.03402 0.43177 0.0
N967 N 0.43895 0.06227 0.41001 0.0
N968 N 0.42764 0.09115 0.38077 0.0
C969 C 0.42322 0.06762 0.39031 0.0
C970 C 0.44676 0.10096 0.39506 0.0
C971 C 0.45376 0.08307 0.41297 0.0
O972 O 0.40931 1.0123 0.42071 0.0
C973 C 0.44358 0.03571 0.48695 0.0
O974 O 0.44676 1.01098 0.48558 0.0
H975 H 0.40802 0.05506 0.38396 0.0
H976 H 0.46802 0.0854 0.42778 0.0
N977 N 0.46848 1.01593 0.4283 0.0
N978 N 0.50621 0.99897 0.43807 0.0
C979 C 0.48832 1.016 0.4447 0.0
C980 C 0.47432 0.99869 0.41031 0.0
C981 C 0.49769 0.98826 0.41624 0.0
C982 C 0.40748 0.98854 0.42543 0.0
O983 O 0.42426 0.97806 0.44074 0.0
H984 H 0.48959 1.02819 0.46127 0.0
H985 H 0.4621 0.99356 0.39443 0.0
O986 O 0.43733 0.04779 0.46675 0.0
H987 H 0.45471 0.11991 0.39303 0.0
H988 H 0.50726 0.97337 0.40582 0.0
Cu989 Cu 0.26002 0.37683 0.88615 0.0
N990 N 0.27279 0.40928 0.89571 0.0
N991 N 0.29758 0.43408 0.92085 0.0
C992 C 0.28435 0.41199 0.91858 0.0
C993 C 0.29313 0.44639 0.89865 0.0
C994 C 0.27789 0.43108 0.88317 0.0
O995 O 0.24276 0.36525 0.91754 0.0
C996 C 0.29514 0.36986 0.84944 0.0
O997 O 0.28326 0.39093 0.84347 0.0
H998 H 0.28369 0.39725 0.93291 0.0
H999 H 0.27237 0.435 0.86368 0.0
N1000 N 0.23535 0.3727 0.86035 0.0
N1001 N 0.21333 0.34732 0.83377 0.0
C1002 C 0.23355 0.34961 0.84941 0.0
C1003 C 0.21541 0.38589 0.85107 0.0
C1004 C 0.2016 0.37009 0.83471 0.0
C1005 C 0.22497 0.38098 0.92265 0.0
O1006 O 0.22065 0.39932 0.90623 0.0
H1007 H 0.2462 0.33409 0.85408 0.0
H1008 H 0.21058 0.40509 0.85655 0.0
O1009 O 0.28885 0.35873 0.87029 0.0
H1010 H 0.30172 0.46437 0.89323 0.0
H1011 H 0.18411 0.37476 0.82482 0.0
Cu1012 Cu 0.1055 1.0203 0.91046 0.0
N1013 N 0.13375 0.99876 0.90539 0.0
N1014 N 0.15948 0.97335 0.88269 0.0
C1015 C 0.13999 0.99001 0.88202 0.0
C1016 C 0.16628 0.97205 0.90754 0.0
C1017 C 0.15028 0.98761 0.92153 0.0
O1018 O 0.111 0.04885 0.88669 0.0
C1019 C 0.0755 0.97497 0.91131 0.0
O1020 O 0.09362 0.96338 0.89881 0.0
H1021 H 0.12995 0.99549 0.86482 0.0
H1022 H 0.15035 0.9901 0.94199 0.0
N1023 N 0.10071 0.0368 0.94185 0.0
N1024 N 0.07557 0.05956 0.96789 0.0
C1025 C 0.08199 0.05416 0.94357 0.0
C1026 C 0.10645 0.03065 0.9661 0.0
C1027 C 0.09104 0.04474 0.98218 0.0
C1028 C 0.13132 0.06091 0.89317 0.0
O1029 O 0.14434 0.05219 0.91274 0.0
H1030 H 0.0714 0.06051 0.92703 0.0
H1031 H 0.11917 1.01552 0.97165 0.0
O1032 O 0.07448 0.99924 0.91041 0.0
H1033 H 0.18116 0.96005 0.91515 0.0
H1034 H 0.09027 0.043 1.00272 0.0
Cu1035 Cu 0.79165 0.21361 0.17455 0.0
N1036 N 0.82186 0.21014 0.1559 0.0
N1037 N 0.85078 0.19254 0.13001 0.0
C1038 C 0.82604 0.19302 0.13724 0.0
C1039 C 0.86242 0.21052 0.14443 0.0
C1040 C 0.84461 0.2212 0.16044 0.0
O1041 O 0.76966 0.18536 0.16354 0.0
C1042 C 0.78421 0.2153 0.22844 0.0
O1043 O 0.75995 0.21646 0.22234 0.0
H1044 H 0.81115 0.18097 0.12944 0.0
H1045 H 0.84819 0.23531 0.17507 0.0
N1046 N 0.77648 0.24527 0.16796 0.0
N1047 N 0.76037 0.28426 0.17362 0.0
C1048 C 0.77212 0.26428 0.18472 0.0
C1049 C 0.76714 0.25354 0.14554 0.0
C1050 C 0.75716 0.27751 0.14896 0.0
C1051 C 0.74583 0.18668 0.15905 0.0
O1052 O 0.73382 0.20783 0.16439 0.0
H1053 H 0.77777 0.26372 0.20457 0.0
H1054 H 0.76733 0.24272 0.12799 0.0
O1055 O 0.80045 0.21247 0.21072 0.0
H1056 H 0.88259 0.21491 0.14423 0.0
H1057 H 0.74789 0.2889 0.13449 0.0
Cu1058 Cu 0.45986 0.99849 0.16542 0.0
N1059 N 0.45769 0.98192 0.19713 0.0
N1060 N 0.44034 0.95785 0.22794 0.0
C1061 C 0.44097 0.96311 0.20272 0.0
C1062 C 0.4579 0.97354 0.23856 0.0
C1063 C 0.46842 0.98847 0.21956 0.0
O1064 O 0.43056 1.02088 0.16373 0.0
C1065 C 0.45894 0.97641 0.11566 0.0
O1066 O 0.45377 0.99949 0.10764 0.0
H1067 H 0.42899 0.95389 0.1886 0.0
H1068 H 0.48199 1.00386 0.22213 0.0
N1069 N 0.48924 1.01905 0.16196 0.0
N1070 N 0.52301 0.03844 0.14402 0.0
C1071 C 0.50628 1.01871 0.14272 0.0
C1072 C 0.49534 0.03981 0.1758 0.0
C1073 C 0.5161 0.05175 0.16484 0.0
C1074 C 0.40769 1.01322 0.16656 0.0
O1075 O 0.40281 0.98869 0.16634 0.0
H1076 H 0.50568 1.0049 0.12743 0.0
H1077 H 0.48485 0.0463 0.19223 0.0
O1078 O 0.46079 0.9723 0.13947 0.0
H1079 H 0.46184 0.97507 0.25879 0.0
H1080 H 0.5253 0.069 0.17157 0.0
Cu1081 Cu 0.59061 0.56956 0.14354 0.0
N1082 N 0.59865 0.59645 0.16601 0.0
N1083 N 0.61858 0.61906 0.19661 0.0
C1084 C 0.61798 0.59709 0.18313 0.0
C1085 C 0.5987 0.63264 0.18771 0.0
C1086 C 0.58654 0.61874 0.16886 0.0
O1087 O 0.60933 0.53995 0.15592 0.0
C1088 C 0.58479 0.59505 0.09764 0.0
O1089 O 0.56672 0.60545 0.11128 0.0
H1090 H 0.63092 0.58143 0.18609 0.0
H1091 H 0.56987 0.62443 0.15818 0.0
N1092 N 0.55534 0.56242 0.14307 0.0
N1093 N 0.51749 0.54955 0.1274 0.0
C1094 C 0.54312 0.54858 0.12505 0.0
C1095 C 0.53675 0.5724 0.15748 0.0
C1096 C 0.51339 0.56444 0.14791 0.0
C1097 C 0.63301 0.53727 0.15161 0.0
O1098 O 0.64441 0.55351 0.13634 0.0
H1099 H 0.55286 0.5387 0.10988 0.0
H1100 H 0.5399 0.58507 0.17346 0.0
O1101 O 0.59932 0.57888 0.10839 0.0
H1102 H 0.59337 0.65137 0.1943 0.0
H1103 H 0.4949 0.56911 0.15555 0.0
C1104 C 0.24804 0.32795 0.23497 0.0
C1105 C 0.24395 0.33372 0.20906 0.0
C1106 C 0.22775 0.32124 0.25105 0.0
C1107 C 0.20247 0.32001 0.24195 0.0
H1108 H 0.26714 0.328 0.24286 0.0
H1109 H 0.23197 0.31687 0.27078 0.0
S1110 S 0.18116 0.33384 0.17581 0.0
N1111 N 0.21225 0.33856 0.17529 0.0
N1112 N 0.17448 0.32533 0.20532 0.0
C1113 C 0.19799 0.32629 0.21625 0.0
C1114 C 0.2186 0.33328 0.19989 0.0
C1115 C 0.5637 0.6101 0.05786 0.0
C1116 C 0.58567 0.60045 0.06977 0.0
C1117 C 0.56311 0.61566 0.03181 0.0
C1118 C 0.58459 0.61223 1.01624 0.0
H1119 H 0.54646 0.6131 0.06867 0.0
H1120 H 0.54534 0.62234 1.02383 0.0
S1121 S 0.64725 0.58786 0.03799 0.0
N1122 N 0.62962 0.58755 0.064 0.0
N1123 N 0.62877 0.59872 1.01489 0.0
C1124 C 0.60679 0.60251 1.02781 0.0
C1125 C 0.60729 0.5965 0.05454 0.0
C1126 C 0.82856 0.22904 0.28456 0.0
C1127 C 0.81204 0.23751 0.30376 0.0
C1128 C 0.8193 0.22094 0.26073 0.0
C1129 C 0.79306 0.22106 0.25495 0.0
H1130 H 0.84893 0.22898 0.28789 0.0
H1131 H 0.83299 0.21514 0.24653 0.0
S1132 S 0.74165 0.24111 0.29892 0.0
N1133 N 0.76812 0.24518 0.3156 0.0
N1134 N 0.75056 0.22982 0.27101 0.0
C1135 C 0.77622 0.2288 0.2743 0.0
C1136 C 0.78572 0.23703 0.29863 0.0
C1137 C 0.49018 0.91695 0.08947 0.0
C1138 C 0.48663 0.91919 0.06299 0.0
C1139 C 0.48035 0.93504 0.10634 0.0
C1140 C 0.46661 0.95622 0.09744 0.0
H1141 H 0.50145 0.90158 0.09721 0.0
H1142 H 0.48437 0.93277 0.12649 0.0
S1143 S 0.44908 0.96909 0.03005 0.0
N1144 N 0.46608 0.94283 1.02882 0.0
N1145 N 0.4481 0.97715 0.06045 0.0
C1146 C 0.462 0.95814 0.07107 0.0
C1147 C 0.47189 0.93959 0.05388 0.0
C1148 C 0.20649 0.73005 0.33528 0.0
C1149 C 0.22531 0.73882 0.35255 0.0
C1150 C 0.20156 0.74254 0.31214 0.0
C1151 C 0.21527 0.76443 0.30488 0.0
H1152 H 0.19585 0.71277 0.33926 0.0
H1153 H 0.18734 0.73446 0.29943 0.0
S1154 S 0.26423 0.79746 0.34461 0.0
N1155 N 0.25615 0.77232 0.3617 0.0
N1156 N 0.24707 0.79574 0.31816 0.0
C1157 C 0.23348 0.77411 0.32238 0.0
C1158 C 0.23835 0.76143 0.34621 0.0
C1159 C 1.02355 0.63492 0.95965 0.0
C1160 C 0.03828 0.62344 0.97896 0.0
C1161 C 1.01214 0.62039 0.94006 0.0
C1162 C 1.01562 0.5939 0.93843 0.0
H1163 H 1.01941 0.65504 0.96063 0.0
H1164 H 0.99911 0.62972 0.92705 0.0
S1165 S 0.05488 0.55507 0.98226 0.0
N1166 N 0.05743 0.58422 0.99385 0.0
N1167 N 0.03635 0.55711 0.95681 0.0
C1168 C 0.03171 0.58249 0.95654 0.0
C1169 C 0.04292 0.59718 0.97684 0.0
C1170 C 0.80533 0.82356 0.2512 0.0
C1171 C 0.83176 0.82484 0.24706 0.0
C1172 C 0.7945 0.8329 0.27381 0.0
C1173 C 0.80962 0.84403 0.29323 0.0
H1174 H 0.79303 0.8144 0.23728 0.0
H1175 H 0.77414 0.83069 0.27632 0.0
S1176 S 0.87956 0.85483 0.2902 0.0
N1177 N 0.8725 0.84024 0.26316 0.0
N1178 N 0.85237 0.85757 0.30558 0.0
C1179 C 0.83598 0.84641 0.28876 0.0
C1180 C 0.84697 0.83688 0.26575 0.0
C1181 C 0.05988 0.97287 0.9567 0.0
C1182 C 0.0634 0.96092 0.93291 0.0
C1183 C 0.05413 0.95867 0.97879 0.0
C1184 C 0.05149 0.93194 0.978 0.0
H1185 H 0.06307 0.99316 0.95865 0.0
H1186 H 0.05304 0.96862 0.99681 0.0
S1187 S 0.05393 0.8922 0.91947 0.0
N1188 N 0.06073 0.92121 0.90941 0.0
N1189 N 0.04907 0.89476 0.95044 0.0
C1190 C 0.053 0.9201 0.95393 0.0
C1191 C 0.05912 0.9345 0.93156 0.0
C1192 C 0.25555 0.2101 0.30852 0.0
C1193 C 0.25052 0.18371 0.30858 0.0
C1194 C 0.23598 0.22782 0.31242 0.0
C1195 C 0.21072 0.21965 0.31607 0.0
H1196 H 0.27468 0.21704 0.30498 0.0
H1197 H 0.24037 0.24796 0.31119 0.0
S1198 S 0.18758 0.15291 0.31853 0.0
N1199 N 0.21849 0.15049 0.31347 0.0
N1200 N 0.18179 0.18369 0.32031 0.0
C1201 C 0.2056 0.1934 0.31687 0.0
C1202 C 0.22548 0.17543 0.31329 0.0
C1203 C 0.48821 0.56958 0.96538 0.0
C1204 C 0.50067 0.56877 0.94173 0.0
C1205 C 0.47663 0.54787 0.97569 0.0
C1206 C 0.4768 0.52438 0.96277 0.0
H1207 H 0.48785 0.58701 0.9764 0.0
H1208 H 0.46787 0.54945 0.99425 0.0
S1209 S 0.5053 0.51229 0.89944 0.0
N1210 N 0.51167 0.54259 0.90515 0.0
N1211 N 0.48941 0.50187 0.92449 0.0
C1212 C 0.4888 0.52331 0.93892 0.0
C1213 C 0.50077 0.54547 0.9284 0.0
C1214 C 0.82873 0.37838 0.34727 0.0
C1215 C 0.83883 0.35663 0.33552 0.0
C1216 C 0.81256 0.39493 0.33399 0.0
C1217 C 0.80538 0.3901 0.30856 0.0
H1218 H 0.83273 0.38223 0.3672 0.0
H1219 H 0.80463 0.41097 0.3441 0.0
S1220 S 0.82753 0.33649 0.26859 0.0
N1221 N 0.84144 0.33181 0.29652 0.0
N1222 N 0.81077 0.36279 0.27163 0.0
C1223 C 0.81601 0.36891 0.29627 0.0
C1224 C 0.83286 0.35224 0.3097 0.0
C1225 C 0.57624 0.96839 1.01854 0.0
C1226 C 0.57955 0.95251 0.99725 0.0
C1227 C 0.59204 0.9896 1.02268 0.0
C1228 C 0.61224 0.9953 1.0061 0.0
H1229 H 0.5618 0.9639 0.03256 0.0
H1230 H 0.58922 1.0009 0.03966 0.0
S1231 S 0.62803 0.96051 0.94682 0.0
N1232 N 0.60345 0.94467 0.9586 0.0
N1233 N 0.63373 0.98428 0.96675 0.0
C1234 C 0.61523 0.98008 0.98427 0.0
C1235 C 0.5987 0.95876 0.97973 0.0
C1236 C 0.18942 0.83509 0.2938 0.0
C1237 C 0.17155 0.84266 0.27528 0.0
C1238 C 0.21396 0.84609 0.29499 0.0
C1239 C 0.22163 0.86544 0.27799 0.0
H1240 H 0.1845 0.8203 0.30733 0.0
H1241 H 0.22702 0.8392 0.30928 0.0
S1242 S 0.17867 0.89732 0.23133 0.0
N1243 N 0.16111 0.87406 0.24323 0.0
N1244 N 0.20675 0.89507 0.24543 0.0
C1245 C 0.20296 0.87458 0.26076 0.0
C1246 C 0.17806 0.86318 0.25949 0.0
C1247 C 0.07647 0.53506 0.09897 0.0
C1248 C 0.09006 0.52346 0.07901 0.0
C1249 C 0.07137 0.56146 0.09881 0.0
C1250 C 0.07989 0.57717 0.07876 0.0
H1251 H 0.07018 0.52372 0.11501 0.0
H1252 H 0.06134 0.5697 0.11476 0.0
S1253 S 0.11261 0.55563 1.02005 0.0
N1254 N 0.10872 0.52953 0.03704 0.0
N1255 N 0.10037 0.57865 0.03733 0.0
C1256 C 0.09254 0.56555 0.05828 0.0
C1257 C 0.09732 0.53887 0.05824 0.0
C1258 C 0.82578 0.70669 0.22725 0.0
C1259 C 0.85152 0.71166 0.23357 0.0
C1260 C 0.81017 0.69148 0.24258 0.0
C1261 C 0.81947 0.68014 0.26493 0.0
H1262 H 0.81726 0.71482 0.21028 0.0
H1263 H 0.79059 0.68832 0.2367 0.0
S1264 S 0.88518 0.68696 0.29069 0.0
N1265 N 0.88552 0.70402 0.26421 0.0
N1266 N 0.85606 0.67503 0.29304 0.0
C1267 C 0.84517 0.68468 0.27163 0.0
C1268 C 0.86116 0.70056 0.25602 0.0
C1269 C 0.96932 1.00898 0.06422 0.0
C1270 C 0.94689 1.00785 0.0493 0.0
C1271 C 0.98306 0.98684 0.07047 0.0
C1272 C 0.97501 0.96261 0.06196 0.0
H1273 H 0.97628 1.02715 0.07118 0.0
H1274 H 1.0003 0.9888 0.08174 0.0
S1275 S 0.91795 0.94935 1.02149 0.0
N1276 N 0.91787 0.98047 1.02548 0.0
N1277 N 0.94292 0.93912 0.03758 0.0
C1278 C 0.95249 0.96129 0.04713 0.0
C1279 C 0.93865 0.98378 0.04072 0.0
C1280 C 0.31984 0.25405 0.20473 0.0
C1281 C 0.31696 0.24555 0.17938 0.0
C1282 C 0.32654 0.23731 0.22448 0.0
C1283 C 0.33059 0.21127 0.21981 0.0
H1284 H 0.31701 0.27389 0.20938 0.0
H1285 H 0.32811 0.24486 0.24364 0.0
S1286 S 0.32569 0.17938 0.15662 0.0
N1287 N 0.31878 0.2094 0.15067 0.0
N1288 N 0.33168 0.17794 0.18751 0.0
C1289 C 0.32821 0.2026 0.19441 0.0
C1290 C 0.32136 0.2197 0.1743 0.0
C1291 C 0.30455 0.78017 0.29506 0.0
C1292 C 0.31995 0.79861 0.30738 0.0
C1293 C 0.30158 0.75547 0.305 0.0
C1294 C 0.31422 0.74793 0.3275 0.0
H1295 H 0.29354 0.7852 0.27831 0.0
H1296 H 0.28818 0.74274 0.29569 0.0
S1297 S 0.36058 0.78724 0.36433 0.0
N1298 N 0.35037 0.80647 0.34164 0.0
N1299 N 0.3456 0.75989 0.35967 0.0
C1300 C 0.33122 0.76554 0.33884 0.0
C1301 C 0.33392 0.79083 0.32896 0.0
C1302 C 0.03741 0.47254 0.9574 0.0
C1303 C 1.02167 0.48883 0.97168 0.0
C1304 C 0.0597 0.46206 0.96796 0.0
C1305 C 0.06738 0.46801 0.99294 0.0
H1306 H 0.03207 0.46733 0.93813 0.0
H1307 H 0.07057 0.44869 0.95678 0.0
S1308 S 0.03416 0.51075 0.03785 0.0
N1309 N 1.01622 0.51107 1.0119 0.0
N1310 N 0.05809 0.49161 0.03143 0.0
C1311 C 0.05225 0.48469 1.00716 0.0
C1312 C 0.0294 0.49504 0.99663 0.0
C1313 C 0.74909 0.76238 0.34645 0.0
C1314 C 0.75749 0.76634 0.37172 0.0
C1315 C 0.74305 0.73782 0.33741 0.0
C1316 C 0.7457 0.71634 0.3532 0.0
H1317 H 0.74735 0.77838 0.33358 0.0
H1318 H 0.73732 0.73555 0.31766 0.0
S1319 S 0.76649 0.71653 0.42097 0.0
N1320 N 0.7676 0.74674 0.41242 0.0
N1321 N 0.75648 0.70079 0.39553 0.0
C1322 C 0.75357 0.72017 0.37862 0.0
C1323 C 0.7594 0.7451 0.38786 0.0
C1324 C 0.49058 0.57746 0.47212 0.0
C1325 C 0.46714 0.56577 0.47843 0.0
C1326 C 0.50956 0.56437 0.4589 0.0
C1327 C 0.50595 0.53909 0.45102 0.0
H1328 H 0.49468 0.59684 0.47794 0.0
H1329 H 0.52736 0.57409 0.45489 0.0
S1330 S 0.44831 0.49946 0.46238 0.0
N1331 N 0.44148 0.52716 0.47548 0.0
N1332 N 0.47715 0.50267 0.45031 0.0
C1333 C 0.48244 0.52724 0.45651 0.0
C1334 C 0.46306 0.54054 0.47025 0.0
C1335 C 0.24521 0.81678 0.69162 0.0
C1336 C 0.24881 0.7918 0.70059 0.0
C1337 C 0.24133 0.83721 0.70847 0.0
C1338 C 0.24082 0.83359 0.73511 0.0
H1339 H 0.24596 0.82069 0.67137 0.0
H1340 H 0.23942 0.85612 0.7005 0.0
S1341 S 0.24622 0.7715 0.76835 0.0
N1342 N 0.24937 0.76434 0.7379 0.0
N1343 N 0.24242 0.80262 0.76947 0.0
C1344 C 0.24358 0.80857 0.74429 0.0
C1345 C 0.24752 0.78775 0.72712 0.0
C1346 C 0.03991 0.61436 0.5699 0.0
C1347 C 0.05261 0.59449 0.55715 0.0
C1348 C 1.01571 0.61062 0.58089 0.0
C1349 C 1.00345 0.5868 0.57981 0.0
H1350 H 0.0491 0.63273 0.57232 0.0
H1351 H 1.00713 0.62605 0.5914 0.0
S1352 S 1.02643 0.52953 0.54587 0.0
N1353 N 0.04932 0.55081 0.54186 0.0
N1354 N 1.00442 0.54387 0.56286 0.0
C1355 C 1.01519 0.56726 0.56594 0.0
C1356 C 0.03957 0.57108 0.5545 0.0
C1357 C 0.98491 0.98508 0.59721 0.0
C1358 C 0.98948 0.98245 0.57087 0.0
C1359 C 1.00362 0.9947 0.6139 0.0
C1360 C 1.02776 1.00227 0.60506 0.0
H1361 H 0.9665 0.98012 0.60508 0.0
H1362 H 0.99889 0.99679 0.63385 0.0
S1363 S 0.05044 0.99764 0.53831 0.0
N1364 N 1.02071 0.98721 0.53702 0.0
N1365 N 0.05586 1.00496 0.56847 0.0
C1366 C 0.03293 0.99917 0.57893 0.0
C1367 C 1.01386 0.9893 0.56187 0.0
C1368 C 0.70671 0.83559 0.72681 0.0
C1369 C 0.73204 0.82713 0.72576 0.0
C1370 C 0.68968 0.82606 0.74508 0.0
C1371 C 0.69713 0.80738 0.76283 0.0
H1372 H 0.6999 0.84949 0.71318 0.0
H1373 H 0.67039 0.83319 0.74511 0.0
S1374 S 0.76105 0.77761 0.7669 0.0
N1375 N 0.76368 0.79864 0.74367 0.0
N1376 N 0.73156 0.78004 0.77731 0.0
C1377 C 0.72251 0.79881 0.76201 0.0
C1378 C 0.73996 0.80884 0.74365 0.0
C1379 C 0.09067 0.09397 0.52242 0.0
C1380 C 0.08671 0.12012 0.52646 0.0
C1381 C 0.09939 0.07806 0.5421 0.0
C1382 C 0.10438 0.08759 0.56676 0.0
H1383 H 0.08685 0.08568 0.50388 0.0
H1384 H 0.10157 0.05799 0.53805 0.0
S1385 S 0.09722 0.15489 0.58727 0.0
N1386 N 0.08852 0.15487 0.55699 0.0
N1387 N 0.10522 0.12529 0.59382 0.0
C1388 C 0.10101 0.11389 0.57089 0.0
C1389 C 0.09213 0.13005 0.55082 0.0
C1390 C 0.34109 0.71238 0.76047 0.0
C1391 C 0.33013 0.71867 0.78409 0.0
C1392 C 0.32622 0.70373 0.73988 0.0
C1393 C 0.29962 0.70089 0.74191 0.0
H1394 H 0.36141 0.71443 0.75768 0.0
H1395 H 0.33568 0.69998 0.72198 0.0
S1396 S 0.26157 0.71238 0.80029 0.0
N1397 N 0.29098 0.72006 0.80863 0.0
N1398 N 0.26315 0.70313 0.77027 0.0
C1399 C 0.2885 0.70588 0.7658 0.0
C1400 C 0.30368 0.7149 0.78677 0.0
C1401 C 0.97353 0.45891 0.54256 0.0
C1402 C 0.97839 0.47155 0.51926 0.0
C1403 C 0.96187 0.47126 0.56312 0.0
C1404 C 0.95391 0.4966 0.56113 0.0
H1405 H 0.97867 0.43919 0.54509 0.0
H1406 H 0.95888 0.46078 0.58065 0.0
S1407 S 0.96306 0.53909 0.50528 0.0
N1408 N 0.97538 0.51172 0.49637 0.0
N1409 N 0.95215 0.53432 0.53434 0.0
C1410 C 0.95825 0.50948 0.53797 0.0
C1411 C 0.97076 0.49713 0.51723 0.0
C1412 C 0.70938 0.28165 0.84741 0.0
C1413 C 0.69164 0.26213 0.8419 0.0
C1414 C 0.72189 0.28308 0.87126 0.0
C1415 C 0.71752 0.2648 0.89043 0.0
H1416 H 0.71288 0.29646 0.83354 0.0
H1417 H 0.73489 0.2988 0.87484 0.0
S1418 S 0.67178 0.21091 0.88662 0.0
N1419 N 0.6704 0.22415 0.85811 0.0
N1420 N 0.69258 0.22805 0.9031 0.0
C1421 C 0.69966 0.24546 0.88534 0.0
C1422 C 0.68713 0.24378 0.86105 0.0
C1423 C 0.46255 0.03643 0.53129 0.0
C1424 C 0.45168 0.04978 0.5106 0.0
C1425 C 0.47278 0.04918 0.55267 0.0
C1426 C 0.47273 0.07592 0.5544 0.0
H1427 H 0.46377 1.01587 0.53077 0.0
H1428 H 0.48152 0.03801 0.56764 0.0
S1429 S 0.4446 0.12 0.50681 0.0
N1430 N 0.44024 0.0915 0.4942 0.0
N1431 N 0.45917 0.11526 0.53436 0.0
C1432 C 0.46122 0.08951 0.5343 0.0
C1433 C 0.45076 0.07654 0.51251 0.0
C1434 C 0.32705 0.3222 0.80474 0.0
C1435 C 0.33666 0.33825 0.78542 0.0
C1436 C 0.31486 0.33229 0.82649 0.0
C1437 C 0.31232 0.35877 0.82977 0.0
H1438 H 0.32815 0.30176 0.80252 0.0
H1439 H 0.30643 0.31931 0.84013 0.0
S1440 S 0.33821 0.40863 0.78648 0.0
N1441 N 0.34519 0.38157 0.77226 0.0
N1442 N 0.3233 0.40065 0.81296 0.0
C1443 C 0.32343 0.37483 0.81122 0.0
C1444 C 0.3353 0.36457 0.7891 0.0
C1445 C 0.60187 0.47463 0.52376 0.0
C1446 C 0.60085 0.50059 0.51714 0.0
C1447 C 0.59783 0.4664 0.54896 0.0
C1448 C 0.59267 0.48371 0.56875 0.0
H1449 H 0.60546 0.4604 0.5093 0.0
H1450 H 0.59851 0.44621 0.55297 0.0
S1451 S 0.58717 0.5537 0.56181 0.0
N1452 N 0.59404 0.54363 0.53286 0.0
N1453 N 0.58628 0.52801 0.5799 0.0
C1454 C 0.59191 0.50973 0.56257 0.0
C1455 C 0.59601 0.51817 0.53689 0.0
C1456 C 0.75247 0.72151 0.82418 0.0
C1457 C 0.72727 0.71512 0.83084 0.0
C1458 C 0.76811 0.70418 0.81141 0.0
C1459 C 0.75929 0.67966 0.80484 0.0
H1460 H 0.76007 0.74029 0.82828 0.0
H1461 H 0.78731 0.71007 0.80671 0.0
S1462 S 0.69512 0.65306 0.81825 0.0
N1463 N 0.69449 0.68204 0.83035 0.0
N1464 N 0.72385 0.64977 0.8061 0.0
C1465 C 0.73437 0.67278 0.8118 0.0
C1466 C 0.71839 0.69041 0.82482 0.0
C1467 C 0.93864 0.08786 0.50775 0.0
C1468 C 0.93947 0.06268 0.49879 0.0
C1469 C 0.95526 0.10657 0.49836 0.0
C1470 C 0.97335 0.10102 0.47942 0.0
H1471 H 0.92554 0.093 0.52272 0.0
H1472 H 0.95403 0.12553 0.50632 0.0
S1473 S 0.98195 0.03832 0.44816 0.0
N1474 N 0.95883 0.03341 0.46886 0.0
N1475 N 0.99021 0.06856 0.45121 0.0
C1476 C 0.97389 0.07605 0.46972 0.0
C1477 C 0.95698 0.05691 0.47943 0.0
C1478 C 0.36085 0.87554 0.78645 0.0
C1479 C 0.33634 0.86924 0.77708 0.0
C1480 C 0.37812 0.85667 0.79409 0.0
C1481 C 0.37177 0.83078 0.79207 0.0
H1482 H 0.36616 0.89527 0.78939 0.0
H1483 H 0.39575 0.8624 0.80335 0.0
S1484 S 0.31176 0.80346 0.76633 0.0
N1485 N 0.30777 0.83453 0.76449 0.0
N1486 N 0.34063 0.79947 0.77818 0.0
C1487 C 0.3484 0.82407 0.7808 0.0
C1488 C 0.3306 0.84318 0.77334 0.0
C1489 C 0.13026 0.45494 0.51798 0.0
C1490 C 0.11719 0.47303 0.53258 0.0
C1491 C 0.11848 0.43213 0.51027 0.0
C1492 C 0.0931 0.42629 0.51691 0.0
H1493 H 0.14941 0.45895 0.51147 0.0
H1494 H 0.12911 0.4195 0.49803 0.0
S1495 S 0.05213 0.46545 0.55885 0.0
N1496 N 0.07864 0.48232 0.55606 0.0
N1497 N 0.05649 0.43938 0.5419 0.0
C1498 C 0.08045 0.44347 0.53309 0.0
C1499 C 0.09243 0.46687 0.54074 0.0
C1500 C 0.77472 0.32167 0.72538 0.0
C1501 C 0.7964 0.31175 0.73773 0.0
C1502 C 0.75135 0.30832 0.72483 0.0
C1503 C 0.74851 0.28439 0.73669 0.0
H1504 H 0.77575 0.34021 0.71641 0.0
H1505 H 0.73524 0.31713 0.71547 0.0
S1506 S 0.79939 0.25006 0.77204 0.0
N1507 N 0.81332 0.27658 0.76243 0.0
N1508 N 0.7699 0.2513 0.76107 0.0
C1509 C 0.77025 0.274 0.74867 0.0
C1510 C 0.79401 0.28767 0.74927 0.0
C1511 C 0.62579 0.09564 0.54538 0.0
C1512 C 0.61731 0.07265 0.53404 0.0
C1513 C 0.6087 0.11274 0.55674 0.0
C1514 C 0.58239 0.10778 0.55684 0.0
H1515 H 0.64597 0.09981 0.54673 0.0
H1516 H 0.61631 0.1289 0.56719 0.0
S1517 S 0.54954 0.05221 0.5278 0.0
N1518 N 0.58003 0.04721 0.52225 0.0
N1519 N 0.5483 0.07962 0.54307 0.0
C1520 C 0.57343 0.08605 0.54393 0.0
C1521 C 0.59073 0.06847 0.53258 0.0
C1522 C 0.3515 0.2323 0.78 0.0
C1523 C 0.35613 0.22948 0.75372 0.0
C1524 C 0.3302 0.22054 0.79157 0.0
C1525 C 0.31264 0.20586 0.7772 0.0
H1526 H 0.36347 0.24482 0.79136 0.0
H1527 H 0.32671 0.22399 0.81159 0.0
S1528 S 0.31814 0.18952 0.70881 0.0
N1529 N 0.34286 0.20832 0.7145 0.0
N1530 N 0.30292 0.18696 0.73616 0.0
C1531 C 0.31791 0.20176 0.75138 0.0
C1532 C 0.33963 0.21333 0.73971 0.0
C1533 C 0.4768 0.50143 0.62901 0.0
C1534 C 0.48947 0.48319 0.6141 0.0
C1535 C 0.46612 0.52336 0.61818 0.0
C1536 C 0.46751 0.52813 0.59186 0.0
H1537 H 0.47585 0.49921 0.64953 0.0
H1538 H 0.45697 0.53692 0.63062 0.0
S1539 S 0.49848 0.4866 0.54407 0.0
N1540 N 0.50257 0.4714 0.57136 0.0
N1541 N 0.48229 0.51254 0.55093 0.0
C1542 C 0.47932 0.50968 0.57647 0.0
C1543 C 0.49032 0.48724 0.58758 0.0
C1544 C 0.82181 0.72733 0.70565 0.0
C1545 C 0.81649 0.70224 0.6976 0.0
C1546 C 0.81299 0.74852 0.69169 0.0
C1547 C 0.79876 0.7455 0.66896 0.0
H1548 H 0.83229 0.73065 0.72319 0.0
H1549 H 0.81736 0.76742 0.69872 0.0
S1550 S 0.77969 0.68393 0.63955 0.0
N1551 N 0.79627 0.67582 0.66505 0.0
N1552 N 0.77955 0.71531 0.63939 0.0
C1553 C 0.79361 0.72054 0.6606 0.0
C1554 C 0.8025 0.69905 0.67475 0.0
C1555 C 0.82865 0.32623 0.84543 0.0
C1556 C 0.81772 0.34155 0.82629 0.0
C1557 C 0.81699 0.30354 0.85359 0.0
C1558 C 0.79396 0.29478 0.84277 0.0
H1559 H 0.84693 0.33139 0.85368 0.0
H1560 H 0.82662 0.29227 0.86792 0.0
S1561 S 0.75616 0.3287 0.79343 0.0
N1562 N 0.78148 0.34705 0.79783 0.0
N1563 N 0.7597 0.30429 0.81292 0.0
C1564 C 0.7823 0.31029 0.82416 0.0
C1565 C 0.79406 0.3337 0.81608 0.0
C1566 C 0.57468 0.98365 0.4524 0.0
C1567 C 0.57523 0.9822 0.47925 0.0
C1568 C 0.55202 0.98868 0.43905 0.0
C1569 C 0.52906 0.99272 0.45201 0.0
H1570 H 0.59199 0.98139 0.44152 0.0
H1571 H 0.55257 0.99012 0.41847 0.0
S1572 S 0.51922 0.98818 0.52184 0.0
N1573 N 0.55 0.98325 0.51809 0.0
N1574 N 0.50763 0.99281 0.49291 0.0
C1575 C 0.52906 0.9905 0.47872 0.0
C1576 C 0.55206 0.98518 0.49234 0.0
C1577 C 0.22384 0.3084 0.81014 0.0
C1578 C 0.20546 0.32381 0.82177 0.0
C1579 C 0.21836 0.28319 0.80309 0.0
C1580 C 0.1943 0.27211 0.80773 0.0
H1581 H 0.24302 0.31564 0.80747 0.0
H1582 H 0.23361 0.27198 0.79513 0.0
S1583 S 0.13876 0.3053 0.8357 0.0
N1584 N 0.16173 0.32695 0.83597 0.0
N1585 N 0.1512 0.27954 0.82287 0.0
C1586 C 0.17526 0.28785 0.81806 0.0
C1587 C 0.18087 0.31368 0.82501 0.0
C1588 C 0.03915 0.06636 0.99747 0.0
C1589 C 0.05337 0.07388 0.97595 0.0
C1590 C 1.01572 0.07789 1.00345 0.0
C1591 C 1.00534 0.09722 0.988 0.0
H1592 H 0.04551 0.05066 1.00916 0.0
H1593 H 1.00507 0.07063 1.01953 0.0
S1594 S 0.03678 0.12687 0.93211 0.0
N1595 N 0.05675 0.10453 0.94135 0.0
N1596 N 1.01248 0.12521 0.95191 0.0
C1597 C 1.01999 0.10585 0.96732 0.0
C1598 C 0.044 0.09446 0.96148 0.0
C1599 C 0.74269 0.30836 0.21016 0.0
C1600 C 0.75324 0.308 0.18551 0.0
C1601 C 0.73599 0.33142 0.22206 0.0
C1602 C 0.74009 0.35499 0.20991 0.0
H1603 H 0.73955 0.29067 0.22029 0.0
H1604 H 0.72831 0.33082 0.24117 0.0
S1605 S 0.76734 0.3644 0.14534 0.0
N1606 N 0.76741 0.33326 0.14947 0.0
N1607 N 0.75508 0.37635 0.17162 0.0
C1608 C 0.75047 0.35478 0.18519 0.0
C1609 C 0.75696 0.33138 0.17304 0.0
C1610 C 0.57085 0.07624 0.10514 0.0
C1611 C 0.58666 0.05718 0.09522 0.0
C1612 C 0.54994 0.07001 0.12084 0.0
C1613 C 0.54372 0.04449 0.12678 0.0
H1614 H 0.57518 0.09609 0.10152 0.0
H1615 H 0.5386 0.0853 0.12849 0.0
S1616 S 0.57816 0.98745 0.10419 0.0
N1617 N 0.59389 1.01164 0.09162 0.0
N1618 N 0.55478 1.00015 0.12068 0.0
C1619 C 0.55888 1.02531 0.11621 0.0
C1620 C 0.58027 0.03161 0.10059 0.0
C1621 C 0.50411 0.51182 0.10288 0.0
C1622 C 0.49889 0.53643 0.11159 0.0
C1623 C 0.48722 0.49881 0.08672 0.0
C1624 C 0.46423 0.50979 0.07811 0.0
H1625 H 0.5215 0.50245 0.10867 0.0
H1626 H 0.49261 0.4799 0.08071 0.0
S1627 S 0.44145 0.57411 0.09543 0.0
N1628 N 0.46893 0.57151 0.11071 0.0
N1629 N 0.43708 0.54698 0.08 0.0
C1630 C 0.45847 0.53434 0.08699 0.0
C1631 C 0.47578 0.54765 0.10377 0.0
C1632 C 0.11742 0.34184 0.36996 0.0
C1633 C 0.12624 0.3202 0.38313 0.0
C1634 C 0.10257 0.36034 0.38213 0.0
C1635 C 0.09589 0.35806 0.40799 0.0
H1636 H 0.12136 0.34419 0.34984 0.0
H1637 H 0.09571 0.37627 0.37102 0.0
S1638 S 0.11693 0.30687 0.45199 0.0
N1639 N 0.12885 0.29874 0.42412 0.0
N1640 N 0.10151 0.33369 0.44701 0.0
C1641 C 0.10545 0.33708 0.42166 0.0
C1642 C 0.12047 0.31816 0.40925 0.0
C1643 C 0.55299 0.72069 0.88551 0.0
C1644 C 0.57886 0.71418 0.88688 0.0
C1645 C 0.53611 0.71423 0.90519 0.0
C1646 C 0.54461 0.70095 0.92686 0.0
H1647 H 0.54599 0.73147 0.86944 0.0
H1648 H 0.51627 0.7195 0.90338 0.0
S1649 S 0.61113 0.68256 0.94115 0.0
N1650 N 0.6125 0.69536 0.91242 0.0
N1651 N 0.58101 0.68423 0.94987 0.0
C1652 C 0.57061 0.69534 0.92896 0.0
C1653 C 0.58772 0.70175 0.90887 0.0
C1654 C 0.94854 0.2543 0.38706 0.0
C1655 C 0.93163 0.2395 0.37219 0.0
C1656 C 0.96659 0.2428 0.40318 0.0
C1657 C 0.96846 0.21611 0.40498 0.0
H1658 H 0.94678 0.27483 0.38751 0.0
H1659 H 0.97872 0.25489 0.41482 0.0
S1660 S 0.92958 0.16907 0.36847 0.0
N1661 N 0.91908 0.19699 0.35885 0.0
N1662 N 0.95228 0.17537 0.38947 0.0
C1663 C 0.95245 0.20122 0.3892 0.0
C1664 C 0.93425 0.21293 0.37274 0.0
C1665 C 0.46813 0.85675 0.92943 0.0
C1666 C 0.49204 0.86168 0.91831 0.0
C1667 C 0.45033 0.84026 0.91788 0.0
C1668 C 0.45563 0.82791 0.89473 0.0
H1669 H 0.46325 0.86537 0.9475 0.0
H1670 H 0.43231 0.83694 0.9273 0.0
S1671 S 0.51578 0.83343 0.85813 0.0
N1672 N 0.52012 0.85253 0.88278 0.0
N1673 N 0.48688 0.82132 0.86136 0.0
C1674 C 0.47932 0.83289 0.88318 0.0
C1675 C 0.49744 0.84981 0.89489 0.0
C1676 C 0.14038 0.75305 0.14507 0.0
C1677 C 0.1348 0.75123 0.17128 0.0
C1678 C 0.12938 0.73656 0.12702 0.0
C1679 C 0.11227 0.71702 0.13403 0.0
H1680 H 0.15354 0.76743 0.13823 0.0
H1681 H 0.13453 0.73915 0.10724 0.0
S1682 S 0.09044 0.70415 0.20009 0.0
N1683 N 0.1101 0.72867 0.20328 0.0
N1684 N 0.08977 0.69721 0.16935 0.0
C1685 C 0.10587 0.71525 0.1601 0.0
C1686 C 0.11705 0.73237 0.17866 0.0
C1687 C 0.9495 0.68764 0.14344 0.0
C1688 C 0.9418 0.70899 0.12919 0.0
C1689 C 0.97067 0.67308 0.13636 0.0
C1690 C 0.98519 0.67915 0.11466 0.0
H1691 H 0.93918 0.68226 0.16044 0.0
H1692 H 0.97582 0.65704 0.14824 0.0
S1693 S 0.97351 0.73361 0.071 0.0
N1694 N 0.95073 0.7357 0.09244 0.0
N1695 N 0.99022 0.7083 0.07893 0.0
C1696 C 0.97746 0.70026 0.09995 0.0
C1697 C 0.95587 0.71513 0.10722 0.0
C1698 C 0.95009 0.84562 0.17005 0.0
C1699 C 0.94925 0.81913 0.17439 0.0
C1700 C 0.96494 0.85631 0.15051 0.0
C1701 C 0.9795 0.841 0.13421 0.0
H1702 H 0.93826 0.85822 0.18115 0.0
H1703 H 0.96398 0.87663 0.14737 0.0
S1704 S 0.98676 0.77089 0.1394 0.0
N1705 N 0.96631 0.77806 0.16205 0.0
N1706 N 0.99438 0.79813 0.1256 0.0
C1707 C 0.9801 0.81463 0.13927 0.0
C1708 C 0.96504 0.80373 0.15932 0.0
C1709 C 0.08619 0.8956 0.16239 0.0
C1710 C 0.08724 0.89811 0.13563 0.0
C1711 C 0.10535 0.88301 0.1762 0.0
C1712 C 0.12665 0.87253 0.164 0.0
H1713 H 0.07 0.90273 0.17284 0.0
H1714 H 0.10333 0.88115 0.19665 0.0
S1715 S 0.13946 0.87452 0.09452 0.0
N1716 N 0.11217 0.8896 0.0976 0.0
N1717 N 0.14803 0.86602 0.12361 0.0
C1718 C 0.12852 0.87562 0.13741 0.0
C1719 C 0.10889 0.88835 0.12325 0.0
C1720 C 0.39038 0.14234 0.34725 0.0
C1721 C 0.38271 0.13046 0.32436 0.0
C1722 C 0.40554 0.1296 0.36527 0.0
C1723 C 0.41318 0.10429 0.3614 0.0
H1724 H 0.38438 0.16156 0.35144 0.0
H1725 H 0.4107 0.13937 0.38275 0.0
S1726 S 0.39914 0.06471 0.3045 0.0
N1727 N 0.38483 0.09197 0.29856 0.0
N1728 N 0.41287 0.06811 0.33272 0.0
C1729 C 0.40603 0.09229 0.33852 0.0
C1730 C 0.39098 0.10536 0.31992 0.0
C1731 C 0.34085 0.47329 0.9644 0.0
C1732 C 0.35547 0.45455 0.97671 0.0
C1733 C 0.32157 0.46653 0.94658 0.0
C1734 C 0.31609 0.44082 0.94056 0.0
H1735 H 0.34507 0.49324 0.96763 0.0
H1736 H 0.31117 0.48156 0.93712 0.0
S1737 S 0.34848 0.3846 0.9688 0.0
N1738 N 0.36208 0.40927 0.98286 0.0
N1739 N 0.32727 0.39669 0.94905 0.0
C1740 C 0.33022 0.42202 0.95349 0.0
C1741 C 0.34948 0.42888 0.97162 0.0
C1742 C 0.67159 0.40749 0.34977 0.0
C1743 C 0.67391 0.4204 0.32633 0.0
C1744 C 0.65528 0.41622 0.369 0.0
C1745 C 0.64091 0.43852 0.36587 0.0
H1746 H 0.68258 0.3905 0.35341 0.0
H1747 H 0.65436 0.40574 0.38674 0.0
S1748 S 0.63934 0.47917 0.30808 0.0
N1749 N 0.65971 0.45647 0.30097 0.0
N1750 N 0.62943 0.47294 0.33728 0.0
C1751 C 0.64282 0.45154 0.34253 0.0
C1752 C 0.65915 0.44245 0.32273 0.0
C1753 C 0.69415 0.1119 0.96696 0.0
C1754 C 0.67886 0.12262 0.98614 0.0
C1755 C 0.70445 0.12673 0.94725 0.0
C1756 C 0.70038 0.15309 0.94606 0.0
H1757 H 0.69862 0.09181 0.96742 0.0
H1758 H 0.71658 0.11763 0.93339 0.0
S1759 S 0.66066 0.19048 0.99057 0.0
N1760 N 0.65909 0.16115 1.00186 0.0
N1761 N 0.67886 0.18919 0.96499 0.0
C1762 C 0.68456 0.16405 0.96465 0.0
C1763 C 0.67365 0.14878 0.98458 0.0
C1764 C 0.41427 0.91132 0.27623 0.0
C1765 C 0.38818 0.90953 0.2698 0.0
C1766 C 0.43116 0.92688 0.26236 0.0
C1767 C 0.42283 0.94113 0.24126 0.0
H1768 H 0.42176 0.90093 0.29241 0.0
H1769 H 0.45096 0.92778 0.26821 0.0
S1770 S 0.35649 0.94393 0.21658 0.0
N1771 N 0.35492 0.92383 0.24072 0.0
N1772 N 0.3866 0.95298 0.21492 0.0
C1773 C 0.39689 0.93943 0.23442 0.0
C1774 C 0.37962 0.92369 0.2486 0.0
C1775 C 0.20909 0.39665 0.09544 0.0
C1776 C 0.22775 0.38832 0.07829 0.0
C1777 C 0.19338 0.41728 0.08976 0.0
C1778 C 0.19527 0.43051 0.06647 0.0
H1779 H 0.20634 0.38693 0.11342 0.0
H1780 H 0.17909 0.42236 0.10364 0.0
S1781 S 0.24215 0.41769 1.01554 0.0
N1782 N 0.24816 0.3959 0.0374 0.0
N1783 N 0.21814 0.43453 1.02657 0.0
C1784 C 0.21393 0.4226 0.04912 0.0
C1785 C 0.23021 0.40155 0.05501 0.0
C1786 C 0.64355 0.64817 0.25771 0.0
C1787 C 0.66958 0.64174 0.25778 0.0
C1788 C 0.62717 0.64075 0.23774 0.0
C1789 C 0.63595 0.62638 0.21695 0.0
H1790 H 0.63562 0.65901 0.27329 0.0
H1791 H 0.60731 0.64602 0.23879 0.0
S1792 S 0.70246 0.60521 0.20713 0.0
N1793 N 0.7034 0.62042 0.23467 0.0
N1794 N 0.67262 0.6067 0.1972 0.0
C1795 C 0.66191 0.6199 0.21661 0.0
C1796 C 0.67869 0.62755 0.23693 0.0
C1797 C 0.88432 0.18353 0.09794 0.0
C1798 C 0.86277 0.17555 0.11192 0.0
C1799 C 0.89601 0.16745 0.08002 0.0
C1800 C 0.88647 0.14282 0.07522 0.0
H1801 H 0.89192 0.20257 0.10047 0.0
H1802 H 0.91211 0.17464 0.06931 0.0
S1803 S 0.83268 0.11138 0.10878 0.0
N1804 N 0.83421 0.14015 0.12133 0.0
N1805 N 0.85548 0.11049 0.08727 0.0
C1806 C 0.86546 0.13434 0.08955 0.0
C1807 C 0.85378 0.15053 0.10795 0.0
C1808 C 0.375 0.3825 0.09172 0.0
C1809 C 0.37923 0.40894 0.09075 0.0
C1810 C 0.35623 0.37196 0.10757 0.0
C1811 C 0.34081 0.38747 0.12295 0.0
H1812 H 0.38542 0.36995 0.07925 0.0
H1813 H 0.35289 0.35161 0.10667 0.0
S1814 S 0.34728 0.45729 0.13091 0.0
N1815 N 0.36893 0.44997 0.10946 0.0
N1816 N 0.33303 0.43022 0.13842 0.0
C1817 C 0.34586 0.41373 0.12332 0.0
C1818 C 0.3652 0.42445 0.10744 0.0
C1819 C 0.35665 0.6692 0.44069 0.0
C1820 C 0.33483 0.68296 0.44769 0.0
C1821 C 0.37477 0.66142 0.45874 0.0
C1822 C 0.37208 0.66692 0.48481 0.0
H1823 H 0.35945 0.66361 0.42102 0.0
H1824 H 0.39076 0.6503 0.45227 0.0
S1825 S 0.31931 0.70409 0.51321 0.0
N1826 N 0.3123 0.70315 0.48247 0.0
N1827 N 0.34634 0.6885 0.51659 0.0
C1828 C 0.35104 0.68189 0.49205 0.0
C1829 C 0.33246 0.6899 0.47348 0.0
C1830 C 0.94956 0.47606 0.83418 0.0
C1831 C 0.94093 0.47784 0.85954 0.0
C1832 C 0.93954 0.45747 0.81722 0.0
C1833 C 0.9204 0.44007 0.8249 0.0
H1834 H 0.96356 0.48953 0.82718 0.0
H1835 H 0.94625 0.45721 0.79775 0.0
S1836 S 0.89366 0.4343 0.88989 0.0
N1837 N 0.91369 0.45857 0.89186 0.0
N1838 N 0.89512 0.42439 0.8601 0.0
C1839 C 0.91243 0.44104 0.85035 0.0
C1840 C 0.92263 0.45967 0.86759 0.0
C1841 C 0.74196 0.94806 0.42127 0.0
C1842 C 0.71539 0.9478 0.42471 0.0
C1843 C 0.75402 0.92958 0.40627 0.0
C1844 C 0.74001 0.91007 0.39398 0.0
H1845 H 0.75364 0.96215 0.43095 0.0
H1846 H 0.7746 0.9302 0.40502 0.0
S1847 S 0.66954 0.90295 0.39429 0.0
N1848 N 0.67521 0.92789 0.41266 0.0
N1849 N 0.6977 0.89311 0.38469 0.0
C1850 C 0.71328 0.9103 0.39641 0.0
C1851 C 0.70104 0.92912 0.41171 0.0
C1852 C 0.63845 0.57994 0.38241 0.0
C1853 C 0.64281 0.55723 0.39594 0.0
C1854 C 0.65855 0.59352 0.37091 0.0
C1855 C 0.68386 0.58479 0.37212 0.0
H1856 H 0.61933 0.5874 0.3808 0.0
H1857 H 0.65421 0.61114 0.36118 0.0
S1858 S 0.70495 0.52467 0.40276 0.0
N1859 N 0.67413 0.52582 0.40862 0.0
N1860 N 0.7116 0.55066 0.38636 0.0
C1861 C 0.68834 0.56174 0.38513 0.0
C1862 C 0.66793 0.54815 0.39717 0.0
C1863 C 0.20825 0.60744 0.61804 0.0
C1864 C 0.18329 0.61669 0.61949 0.0
C1865 C 0.22824 0.61918 0.6316 0.0
C1866 C 0.22409 0.64096 0.64668 0.0
H1867 H 0.21227 0.59091 0.60645 0.0
H1868 H 0.24723 0.61153 0.62961 0.0
S1869 S 0.16205 0.6728 0.65633 0.0
N1870 N 0.15536 0.64876 0.63708 0.0
N1871 N 0.19293 0.67118 0.66221 0.0
C1872 C 0.19913 0.65035 0.64827 0.0
C1873 C 0.17874 0.63813 0.63477 0.0
C1874 C 0.90875 0.58414 0.68858 0.0
C1875 C 0.89237 0.57529 0.70785 0.0
C1876 C 0.92976 0.56964 0.68062 0.0
C1877 C 0.93513 0.54592 0.69182 0.0
H1878 H 0.90516 0.6023 0.67954 0.0
H1879 H 0.94215 0.57727 0.66605 0.0
S1880 S 0.89973 0.51564 0.74484 0.0
N1881 N 0.88413 0.54224 0.73913 0.0
N1882 N 0.9233 0.51506 0.72415 0.0
C1883 C 0.91925 0.53725 0.7115 0.0
C1884 C 0.8979 0.55185 0.71946 0.0
C1885 C 0.18104 0.98895 0.71669 0.0
C1886 C 0.20105 0.98077 0.70113 0.0
C1887 C 0.16161 1.00439 0.70712 0.0
C1888 C 0.16114 1.01233 0.68143 0.0
H1889 H 0.18052 0.9836 0.73662 0.0
H1890 H 0.14679 1.01007 0.72017 0.0
S1891 S 0.2088 0.99544 0.63236 0.0
N1892 N 0.21906 0.98123 0.65853 0.0
N1893 N 0.18251 1.01044 0.64044 0.0
C1894 C 0.18105 1.00426 0.66554 0.0
C1895 C 0.201 0.9885 0.6754 0.0
C1896 C 0.64261 0.81413 0.91675 0.0
C1897 C 0.62851 0.80201 0.89732 0.0
C1898 C 0.63032 0.82434 0.93825 0.0
C1899 C 0.60367 0.82244 0.94101 0.0
H1900 H 0.663 0.81668 0.91481 0.0
H1901 H 0.64157 0.83471 0.95221 0.0
S1902 S 0.55902 0.78824 0.89778 0.0
N1903 N 0.58698 0.786 0.88376 0.0
N1904 N 0.56429 0.80446 0.92425 0.0
C1905 C 0.58977 0.8088 0.92253 0.0
C1906 C 0.6021 0.79876 0.90067 0.0
C1907 C 0.10482 0.1674 0.38169 0.0
C1908 C 0.07862 0.16345 0.38577 0.0
C1909 C 0.11359 0.18468 0.36329 0.0
C1910 C 0.09656 0.19899 0.34831 0.0
H1911 H 0.11874 0.15789 0.39358 0.0
H1912 H 0.13393 0.18752 0.36142 0.0
S1913 S 1.02599 0.19422 0.34978 0.0
N1914 N 0.03568 0.17365 0.37146 0.0
N1915 N 0.05217 0.20677 0.33767 0.0
C1916 C 0.07033 0.1941 0.35103 0.0
C1917 C 0.06137 0.17618 0.36955 0.0
C1918 C 0.47174 0.66856 0.85331 0.0
C1919 C 0.49737 0.67593 0.85056 0.0
C1920 C 0.4519 0.68412 0.84495 0.0
C1921 C 0.45672 0.70785 0.83341 0.0
H1922 H 0.46693 0.65124 0.86344 0.0
H1923 H 0.43257 0.67807 0.84897 0.0
S1924 S 0.52033 0.73332 0.81607 0.0
N1925 N 0.52642 0.70633 0.83097 0.0
N1926 N 0.48901 0.73604 0.81578 0.0
C1927 C 0.48216 0.71423 0.82791 0.0
C1928 C 0.50252 0.69813 0.83632 0.0
C1929 C 0.94638 0.37007 0.44351 0.0
C1930 C 0.96797 0.35861 0.45447 0.0
C1931 C 0.92492 0.35573 0.43643 0.0
C1932 C 0.92407 0.32924 0.43984 0.0
H1933 H 0.94631 0.39033 0.43965 0.0
H1934 H 0.9091 0.36534 0.42735 0.0
S1935 S 0.97543 0.28994 0.46824 0.0
N1936 N 0.98693 0.31928 0.4693 0.0
N1937 N 0.94666 0.29205 0.4555 0.0
C1938 C 0.94512 0.31755 0.45175 0.0
C1939 C 0.96705 0.33231 0.45919 0.0
C1940 C 0.63213 0.21237 0.66475 0.0
C1941 C 0.63595 0.21521 0.69124 0.0
C1942 C 0.61459 0.19458 0.65475 0.0
C1943 C 0.59996 0.1787 0.67071 0.0
H1944 H 0.64246 0.22433 0.65148 0.0
H1945 H 0.6124 0.19337 0.63425 0.0
S1946 S 0.60246 0.17825 0.74149 0.0
N1947 N 0.62363 0.20011 0.73329 0.0
N1948 N 0.59057 0.16701 0.71451 0.0
C1949 C 0.60392 0.18089 0.69723 0.0
C1950 C 0.62188 0.19902 0.70746 0.0
C1951 C 0.44508 0.20925 0.66471 0.0
C1952 C 0.4446 0.23382 0.65423 0.0
C1953 C 0.46071 0.19022 0.65471 0.0
C1954 C 0.47694 0.19472 0.63376 0.0
H1955 H 0.43321 0.20464 0.6809 0.0
H1956 H 0.46017 0.17176 0.66389 0.0
S1957 S 0.48303 0.25607 0.5992 0.0
N1958 N 0.46172 0.2618 0.62151 0.0
N1959 N 0.49124 0.22596 0.6027 0.0
C1960 C 0.47642 0.21917 0.62275 0.0
C1961 C 0.46026 0.23868 0.63295 0.0
C1962 C 0.46847 0.39048 0.70631 0.0
C1963 C 0.49431 0.38527 0.71076 0.0
C1964 C 0.4493 0.37292 0.71251 0.0
C1965 C 0.45484 0.34902 0.72339 0.0
H1966 H 0.46304 0.40809 0.69713 0.0
H1967 H 0.42986 0.37789 0.70774 0.0
S1968 S 0.51922 0.32695 0.74207 0.0
N1969 N 0.52435 0.35525 0.72927 0.0
N1970 N 0.48811 0.32206 0.74065 0.0
C1971 C 0.48045 0.3441 0.72962 0.0
C1972 C 0.5002 0.36223 0.72338 0.0
C1973 C 0.61416 0.36542 0.6513 0.0
C1974 C 0.58776 0.36707 0.64612 0.0
C1975 C 0.62387 0.34868 0.66977 0.0
C1976 C 0.60766 0.33282 0.68398 0.0
H1977 H 0.62748 0.37808 0.64189 0.0
H1978 H 0.64409 0.34913 0.67391 0.0
S1979 S 0.53789 0.32541 0.67417 0.0
N1980 N 0.54609 0.3484 0.65432 0.0
N1981 N 0.5644 0.31677 0.6888 0.0
C1982 C 0.58151 0.3327 0.67765 0.0
C1983 C 0.57158 0.34976 0.65875 0.0
C1984 C 0.92711 0.61474 0.83838 0.0
C1985 C 0.90959 0.60394 0.85565 0.0
C1986 C 0.919 0.62877 0.81708 0.0
C1987 C 0.893 0.63294 0.81222 0.0
H1988 H 0.94735 0.61197 0.84105 0.0
H1989 H 0.93325 0.63588 0.80398 0.0
S1990 S 0.8392 0.60955 0.85188 0.0
N1991 N 0.86489 0.59886 0.86651 0.0
N1992 N 0.84965 0.6258 0.82709 0.0
C1993 C 0.87526 0.62323 0.82994 0.0
C1994 C 0.88353 0.60863 0.85148 0.0
C1995 C 0.889 0.91037 0.48021 0.0
C1996 C 0.88005 0.9355 0.48176 0.0
C1997 C 0.88021 0.89364 0.46101 0.0
C1998 C 0.86219 0.90142 0.44259 0.0
H1999 H 0.90236 0.90335 0.49431 0.0
H2000 H 0.88713 0.87429 0.46093 0.0
S2001 S 0.83542 0.96632 0.4362 0.0
N2002 N 0.85373 0.96791 0.46183 0.0
N2003 N 0.83779 0.93683 0.42576 0.0
C2004 C 0.85391 0.92681 0.44338 0.0
C2005 C 0.8627 0.94373 0.46293 0.0
C2006 C 0.20643 0.9425 0.83779 0.0
C2007 C 0.19069 0.93235 0.81828 0.0
C2008 C 0.19617 0.95539 0.85898 0.0
C2009 C 0.16975 0.959 0.86146 0.0
H2010 H 0.22693 0.9408 0.83658 0.0
H2011 H 0.20906 0.96316 0.87321 0.0
S2012 S 0.11988 0.93441 0.8173 0.0
N2013 N 0.1469 0.92567 0.80409 0.0
N2014 N 0.12797 0.94976 0.84361 0.0
C2015 C 0.15377 0.94842 0.84255 0.0
C2016 C 0.16413 0.93515 0.82111 0.0
C2017 C 0.17426 0.61115 0.46881 0.0
C2018 C 0.17482 0.62212 0.49334 0.0
C2019 C 0.19093 0.61946 0.44946 0.0
C2020 C 0.20905 0.63898 0.4538 0.0
H2021 H 0.16064 0.59617 0.46442 0.0
H2022 H 0.18944 0.61068 0.43083 0.0
S2023 S 0.22052 0.67179 0.51561 0.0
N2024 N 0.19632 0.65242 0.52128 0.0
N2025 N 0.22785 0.66741 0.48538 0.0
C2026 C 0.21023 0.64962 0.47845 0.0
C2027 C 0.19312 0.64135 0.49805 0.0
C2028 C 0.86489 0.43676 0.68817 0.0
C2029 C 0.85246 0.4406 0.7116 0.0
C2030 C 0.87143 0.45707 0.67222 0.0
C2031 C 0.86579 0.48234 0.6787 0.0
H2032 H 0.87068 0.41788 0.68242 0.0
H2033 H 0.88188 0.453 0.65497 0.0
S2034 S 0.82956 0.5027 0.73569 0.0
N2035 N 0.83203 0.47154 0.73905 0.0
N2036 N 0.84401 0.50986 0.70868 0.0
C2037 C 0.85142 0.48643 0.70095 0.0
C2038 C 0.84486 0.46556 0.71749 0.0
C2039 C 0.67944 0.90968 0.54618 0.0
C2040 C 0.68969 0.93426 0.54944 0.0
C2041 C 0.68728 0.8893 0.56173 0.0
C2042 C 0.70542 0.89268 0.58147 0.0
H2043 H 0.66582 0.90598 0.53102 0.0
H2044 H 0.67932 0.87062 0.55791 0.0
S2045 S 0.73548 0.95441 0.59974 0.0
N2046 N 0.71763 0.96134 0.57475 0.0
N2047 N 0.73144 0.92363 0.60465 0.0
C2048 C 0.71507 0.91752 0.58544 0.0
C2049 C 0.70741 0.93811 0.56929 0.0
C2050 C 0.15518 0.12442 0.71719 0.0
C2051 C 0.12931 0.12882 0.71157 0.0
C2052 C 0.16936 0.14125 0.7327 0.0
C2053 C 0.1582 0.16316 0.74318 0.0
H2054 H 0.16432 0.1074 0.71022 0.0
H2055 H 0.18893 0.13658 0.73718 0.0
S2056 S 0.09206 0.18508 0.73137 0.0
N2057 N 0.09393 0.15798 0.71562 0.0
N2058 N 0.12025 0.18941 0.74484 0.0
C2059 C 0.13264 0.16829 0.73678 0.0
C2060 C 0.11828 0.15118 0.721 0.0
C2061 C 0.35998 0.61104 0.6021 0.0
C2062 C 0.35697 0.60364 0.57638 0.0
C2063 C 0.34695 0.63191 0.61228 0.0
C2064 C 0.33012 0.64641 0.59735 0.0
H2065 H 0.37311 0.60108 0.61451 0.0
H2066 H 0.35056 0.63705 0.63196 0.0
S2067 S 0.3129 0.63333 0.5297 0.0
N2068 N 0.33444 0.61164 0.53662 0.0
N2069 N 0.30935 0.65033 0.55592 0.0
C2070 C 0.32616 0.63875 0.57181 0.0
C2071 C 0.33966 0.61753 0.56134 0.0
C2072 C 0.85335 0.90231 0.59985 0.0
C2073 C 0.8466 0.92772 0.60471 0.0
C2074 C 0.83895 0.88192 0.60941 0.0
C2075 C 0.81728 0.88594 0.6245 0.0
H2076 H 0.86988 0.89803 0.58846 0.0
H2077 H 0.84471 0.86277 0.60458 0.0
S2078 S 0.7914 0.94865 0.64327 0.0
N2079 N 0.81657 0.95569 0.62583 0.0
N2080 N 0.78993 0.91728 0.64431 0.0
C2081 C 0.81066 0.91118 0.63023 0.0
C2082 C 0.8252 0.93206 0.62023 0.0
C2083 C 0.86325 0.1527 0.9273 0.0
C2084 C 0.86572 0.15105 0.95401 0.0
C2085 C 0.84473 0.16807 0.91569 0.0
C2086 C 0.82761 0.18271 0.9301 0.0
H2087 H 0.87561 0.1417 0.91516 0.0
H2088 H 0.84359 0.16805 0.89506 0.0
S2089 S 0.82613 0.1858 1.00084 0.0
N2090 N 0.84953 0.16592 0.99467 0.0
N2091 N 0.8149 0.195 0.97285 0.0
C2092 C 0.83033 0.18196 0.95688 0.0
C2093 C 0.84929 0.16614 0.96879 0.0
C2094 C 0.36282 0.96315 0.37316 0.0
C2095 C 0.35471 0.93948 0.38285 0.0
C2096 C 0.37909 0.97934 0.3874 0.0
C2097 C 0.38839 0.97222 0.41165 0.0
H2098 H 0.35639 0.96924 0.3545 0.0
H2099 H 0.38495 0.99727 0.37901 0.0
S2100 S 0.37322 0.91185 0.44529 0.0
N2101 N 0.35731 0.90971 0.41812 0.0
N2102 N 0.38805 0.93965 0.44457 0.0
C2103 C 0.3804 0.94853 0.42145 0.0
C2104 C 0.36354 0.93231 0.40717 0.0
C2105 C 0.20053 0.35914 0.9585 0.0
C2106 C 0.21021 0.38136 0.94686 0.0
C2107 C 0.18268 0.36064 0.97863 0.0
C2108 C 0.17381 0.38434 0.98745 0.0
H2109 H 0.20586 0.34063 0.95131 0.0
H2110 H 0.17512 0.34325 0.98677 0.0
S2111 S 0.19635 0.44792 0.96598 0.0
N2112 N 0.21187 0.4276 0.94796 0.0
N2113 N 0.17841 0.43028 0.9848 0.0
C2114 C 0.18451 0.40649 0.97682 0.0
C2115 C 0.20267 0.40501 0.95682 0.0
C2116 C 0.15795 0.10027 0.89455 0.0
C2117 C 0.14066 0.08479 0.88077 0.0
C2118 C 0.16893 0.12211 0.88393 0.0
C2119 C 0.16337 0.12971 0.85885 0.0
H2120 H 0.16331 0.09546 0.91393 0.0
H2121 H 0.18236 0.13291 0.89542 0.0
S2122 S 0.1187 0.09668 0.81451 0.0
N2123 N 0.11799 0.07907 0.84062 0.0
N2124 N 0.1387 0.12041 0.82052 0.0
C2125 C 0.1459 0.1147 0.84473 0.0
C2126 C 0.13446 0.0923 0.85574 0.0
C2127 C 0.7348 0.12627 0.11995 0.0
C2128 C 0.70836 0.12622 0.11536 0.0
C2129 C 0.74661 0.14548 0.13456 0.0
C2130 C 0.73248 0.16548 0.14533 0.0
H2131 H 0.74658 0.11166 0.11164 0.0
H2132 H 0.76711 0.14488 0.13693 0.0
S2133 S 0.6622 0.1726 0.14119 0.0
N2134 N 0.66812 0.14677 0.1244 0.0
N2135 N 0.69015 0.18294 0.1516 0.0
C2136 C 0.70587 0.1652 0.14149 0.0
C2137 C 0.69387 0.14562 0.12658 0.0
C2138 C 0.36672 1.02212 0.1891 0.0
C2139 C 0.38807 0.03131 0.17564 0.0
C2140 C 0.35012 0.03876 0.2016 0.0
C2141 C 0.35417 0.06524 0.20109 0.0
H2142 H 0.36341 1.00185 0.19107 0.0
H2143 H 0.33469 0.03077 0.2127 0.0
S2144 S 0.40455 0.09927 0.16494 0.0
N2145 N 0.41054 0.06884 0.16019 0.0
N2146 N 0.37909 0.10002 0.18326 0.0
C2147 C 0.37442 0.07476 0.18634 0.0
C2148 C 0.39139 0.05783 0.17371 0.0
C2149 C 0.68894 0.49559 0.17072 0.0
C2150 C 0.68138 0.48491 0.19414 0.0
C2151 C 0.67287 0.51178 0.15683 0.0
C2152 C 0.64839 0.51796 0.16561 0.0
H2153 H 0.70761 0.49158 0.16312 0.0
H2154 H 0.67989 0.51978 0.13916 0.0
S2155 S 0.61937 0.49535 0.22604 0.0
N2156 N 0.64771 0.48196 0.22566 0.0
N2157 N 0.61732 0.51194 0.19938 0.0
C2158 C 0.64029 0.50695 0.18874 0.0
C2159 C 0.65678 0.49055 0.20301 0.0
loop_
_geom_bond_atom_site_label_1
_geom_bond_atom_site_label_2
_geom_bond_distance
_geom_bond_site_symmetry_2
_ccdc_geom_bond_type
Cu0 N1 1.999 . S
Cu0 O6 1.974 . S
Cu0 N11 1.985 . S
Cu0 O20 1.959 . S
N1 Cu0 1.999 . S
N1 C3 1.263 . S
N1 C5 1.389 . S
N2 C3 1.358 . S
N2 C4 1.400 . S
C3 N1 1.263 . S
C3 N2 1.358 . S
C3 H9 0.930 . S
C4 N2 1.400 . S
C4 C5 1.351 . S
C4 H21 0.930 . S
C5 N1 1.389 . S
C5 C4 1.351 . S
C5 H10 0.930 . S
O6 Cu0 1.974 . S
O6 C16 1.282 . S
C7 O8 1.261 . S
C7 O20 1.251 . S
O8 C7 1.261 . S
H9 C3 0.930 . S
H10 C5 0.930 . S
N11 Cu0 1.985 . S
N11 C13 1.335 . S
N11 C14 1.390 . S
N12 C13 1.345 . S
N12 C15 1.336 . S
C13 N11 1.335 . S
C13 N12 1.345 . S
C13 H18 0.930 . S
C14 N11 1.390 . S
C14 C15 1.346 . S
C14 H19 0.930 . S
C15 N12 1.336 . S
C15 C14 1.346 . S
C15 H22 0.929 . S
C16 O6 1.282 . S
C16 O17 1.216 . S
O17 C16 1.216 . S
H18 C13 0.930 . S
H19 C14 0.930 . S
O20 Cu0 1.959 . S
O20 C7 1.251 . S
H21 C4 0.930 . S
H22 C15 0.929 . S
Cu23 N24 1.999 . S
Cu23 O29 1.974 . S
Cu23 N34 1.985 . S
Cu23 O43 1.959 . S
N24 Cu23 1.999 . S
N24 C26 1.263 . S
N24 C28 1.389 . S
N25 C26 1.358 . S
N25 C27 1.400 . S
C26 N24 1.263 . S
C26 N25 1.358 . S
C26 H32 0.930 . S
C27 N25 1.400 . S
C27 C28 1.351 . S
C27 H44 0.930 . S
C28 N24 1.389 . S
C28 C27 1.351 . S
C28 H33 0.930 . S
O29 Cu23 1.974 . S
O29 C39 1.282 . S
C30 O31 1.261 . S
C30 O43 1.251 . S
O31 C30 1.261 . S
H32 C26 0.930 . S
H33 C28 0.930 . S
N34 Cu23 1.985 . S
N34 C36 1.335 . S
N34 C37 1.390 . S
N35 C36 1.345 . S
N35 C38 1.336 . S
C36 N34 1.335 . S
C36 N35 1.345 . S
C36 H41 0.930 . S
C37 N34 1.390 . S
C37 C38 1.346 . S
C37 H42 0.930 . S
C38 N35 1.336 . S
C38 C37 1.346 . S
C38 H45 0.929 . S
C39 O29 1.282 . S
C39 O40 1.216 . S
O40 C39 1.216 . S
H41 C36 0.930 . S
H42 C37 0.930 . S
O43 Cu23 1.959 . S
O43 C30 1.251 . S
H44 C27 0.930 . S
H45 C38 0.929 . S
Cu46 N47 1.999 . S
Cu46 O52 1.974 . S
Cu46 N57 1.985 . S
Cu46 O66 1.959 . S
N47 Cu46 1.999 . S
N47 C49 1.263 . S
N47 C51 1.389 . S
N48 C49 1.358 . S
N48 C50 1.400 . S
C49 N47 1.263 . S
C49 N48 1.358 . S
C49 H55 0.930 . S
C50 N48 1.400 . S
C50 C51 1.351 . S
C50 H67 0.930 . S
C51 N47 1.389 . S
C51 C50 1.351 . S
C51 H56 0.930 . S
O52 Cu46 1.974 . S
O52 C62 1.282 . S
C53 O54 1.261 . S
C53 O66 1.251 . S
O54 C53 1.261 . S
H55 C49 0.930 . S
H56 C51 0.930 . S
N57 Cu46 1.985 . S
N57 C59 1.335 . S
N57 C60 1.390 . S
N58 C59 1.345 . S
N58 C61 1.336 . S
C59 N57 1.335 . S
C59 N58 1.345 . S
C59 H64 0.930 . S
C60 N57 1.390 . S
C60 C61 1.346 . S
C60 H65 0.930 . S
C61 N58 1.336 . S
C61 C60 1.346 . S
C61 H68 0.929 . S
C62 O52 1.282 . S
C62 O63 1.216 . S
O63 C62 1.216 . S
H64 C59 0.930 . S
H65 C60 0.930 . S
O66 Cu46 1.959 . S
O66 C53 1.251 . S
H67 C50 0.930 . S
H68 C61 0.929 . S
Cu69 N70 1.999 . S
Cu69 O75 1.974 . S
Cu69 N80 1.985 . S
Cu69 O89 1.959 . S
N70 Cu69 1.999 . S
N70 C72 1.263 . S
N70 C74 1.389 . S
N71 C72 1.358 . S
N71 C73 1.400 . S
C72 N70 1.263 . S
C72 N71 1.358 . S
C72 H78 0.930 . S
C73 N71 1.400 . S
C73 C74 1.351 . S
C73 H90 0.930 . S
C74 N70 1.389 . S
C74 C73 1.351 . S
C74 H79 0.930 . S
O75 Cu69 1.974 . S
O75 C85 1.282 . S
C76 O77 1.261 . S
C76 O89 1.251 . S
O77 C76 1.261 . S
H78 C72 0.930 . S
H79 C74 0.930 . S
N80 Cu69 1.985 . S
N80 C82 1.335 . S
N80 C83 1.390 . S
N81 C82 1.345 . S
N81 C84 1.336 . S
C82 N80 1.335 . S
C82 N81 1.345 . S
C82 H87 0.930 . S
C83 N80 1.390 . S
C83 C84 1.346 . S
C83 H88 0.930 . S
C84 N81 1.336 . S
C84 C83 1.346 . S
C84 H91 0.929 . S
C85 O75 1.282 . S
C85 O86 1.216 . S
O86 C85 1.216 . S
H87 C82 0.930 . S
H88 C83 0.930 . S
O89 Cu69 1.959 . S
O89 C76 1.251 . S
H90 C73 0.930 . S
H91 C84 0.929 . S
Cu92 N93 1.999 . S
Cu92 O98 1.974 . S
Cu92 N103 1.985 . S
Cu92 O112 1.959 . S
N93 Cu92 1.999 . S
N93 C95 1.263 . S
N93 C97 1.389 . S
N94 C95 1.358 . S
N94 C96 1.400 . S
C95 N93 1.263 . S
C95 N94 1.358 . S
C95 H101 0.930 . S
C96 N94 1.400 . S
C96 C97 1.351 . S
C96 H113 0.930 . S
C97 N93 1.389 . S
C97 C96 1.351 . S
C97 H102 0.930 . S
O98 Cu92 1.974 . S
O98 C108 1.282 . S
C99 O100 1.261 . S
C99 O112 1.251 . S
O100 C99 1.261 . S
H101 C95 0.930 . S
H102 C97 0.930 . S
N103 Cu92 1.985 . S
N103 C105 1.335 . S
N103 C106 1.390 . S
N104 C105 1.345 . S
N104 C107 1.336 . S
C105 N103 1.335 . S
C105 N104 1.345 . S
C105 H110 0.930 . S
C106 N103 1.390 . S
C106 C107 1.346 . S
C106 H111 0.930 . S
C107 N104 1.336 . S
C107 C106 1.346 . S
C107 H114 0.929 . S
C108 O98 1.282 . S
C108 O109 1.216 . S
O109 C108 1.216 . S
H110 C105 0.930 . S
H111 C106 0.930 . S
O112 Cu92 1.959 . S
O112 C99 1.251 . S
H113 C96 0.930 . S
H114 C107 0.929 . S
Cu115 N116 1.999 . S
Cu115 O121 1.974 1_455 S
Cu115 N126 1.985 1_455 S
Cu115 O135 1.959 . S
N116 Cu115 1.999 . S
N116 C118 1.263 . S
N116 C120 1.389 . S
N117 C118 1.358 . S
N117 C119 1.400 . S
C118 N116 1.263 . S
C118 N117 1.358 . S
C118 H124 0.930 . S
C119 N117 1.400 . S
C119 C120 1.351 . S
C119 H136 0.930 . S
C120 N116 1.389 . S
C120 C119 1.351 . S
C120 H125 0.930 . S
O121 Cu115 1.974 1_655 S
O121 C131 1.282 . S
C122 O123 1.261 . S
C122 O135 1.251 . S
O123 C122 1.261 . S
H124 C118 0.930 . S
H125 C120 0.930 . S
N126 Cu115 1.985 1_655 S
N126 C128 1.335 . S
N126 C129 1.390 . S
N127 C128 1.345 . S
N127 C130 1.336 . S
C128 N126 1.335 . S
C128 N127 1.345 . S
C128 H133 0.930 . S
C129 N126 1.390 . S
C129 C130 1.346 . S
C129 H134 0.930 . S
C130 N127 1.336 . S
C130 C129 1.346 . S
C130 H137 0.929 . S
C131 O121 1.282 . S
C131 O132 1.216 . S
O132 C131 1.216 . S
H133 C128 0.930 . S
H134 C129 0.930 . S
O135 Cu115 1.959 . S
O135 C122 1.251 . S
H136 C119 0.930 . S
H137 C130 0.929 . S
Cu138 N139 1.999 . S
Cu138 O144 1.974 . S
Cu138 N149 1.985 . S
Cu138 O158 1.959 . S
N139 Cu138 1.999 . S
N139 C141 1.263 . S
N139 C143 1.389 . S
N140 C141 1.358 . S
N140 C142 1.400 . S
C141 N139 1.263 . S
C141 N140 1.358 . S
C141 H147 0.930 . S
C142 N140 1.400 . S
C142 C143 1.351 . S
C142 H159 0.930 . S
C143 N139 1.389 . S
C143 C142 1.351 . S
C143 H148 0.930 . S
O144 Cu138 1.974 . S
O144 C154 1.282 . S
C145 O146 1.261 . S
C145 O158 1.251 . S
O146 C145 1.261 . S
H147 C141 0.930 . S
H148 C143 0.930 . S
N149 Cu138 1.985 . S
N149 C151 1.335 . S
N149 C152 1.390 . S
N150 C151 1.345 . S
N150 C153 1.336 . S
C151 N149 1.335 . S
C151 N150 1.345 . S
C151 H156 0.930 . S
C152 N149 1.390 . S
C152 C153 1.346 . S
C152 H157 0.930 . S
C153 N150 1.336 . S
C153 C152 1.346 . S
C153 H160 0.929 . S
C154 O144 1.282 . S
C154 O155 1.216 . S
O155 C154 1.216 . S
H156 C151 0.930 . S
H157 C152 0.930 . S
O158 Cu138 1.959 . S
O158 C145 1.251 . S
H159 C142 0.930 . S
H160 C153 0.929 . S
Cu161 N162 1.999 . S
Cu161 O167 1.974 1_655 S
Cu161 N172 1.985 1_655 S
Cu161 O181 1.959 . S
N162 Cu161 1.999 . S
N162 C164 1.263 . S
N162 C166 1.389 . S
N163 C164 1.358 . S
N163 C165 1.400 . S
C164 N162 1.263 . S
C164 N163 1.358 . S
C164 H170 0.930 . S
C165 N163 1.400 . S
C165 C166 1.351 . S
C165 H182 0.930 . S
C166 N162 1.389 . S
C166 C165 1.351 . S
C166 H171 0.930 . S
O167 Cu161 1.974 1_455 S
O167 C177 1.282 . S
C168 O169 1.261 . S
C168 O181 1.251 . S
O169 C168 1.261 . S
H170 C164 0.930 . S
H171 C166 0.930 . S
N172 Cu161 1.985 1_455 S
N172 C174 1.335 . S
N172 C175 1.390 . S
N173 C174 1.345 . S
N173 C176 1.336 . S
C174 N172 1.335 . S
C174 N173 1.345 . S
C174 H179 0.930 . S
C175 N172 1.390 . S
C175 C176 1.346 . S
C175 H180 0.930 . S
C176 N173 1.336 . S
C176 C175 1.346 . S
C176 H183 0.929 . S
C177 O167 1.282 . S
C177 O178 1.216 . S
O178 C177 1.216 . S
H179 C174 0.930 . S
H180 C175 0.930 . S
O181 Cu161 1.959 . S
O181 C168 1.251 . S
H182 C165 0.930 . S
H183 C176 0.929 . S
Cu184 N185 1.999 . S
Cu184 O190 1.974 . S
Cu184 N195 1.985 . S
Cu184 O204 1.959 . S
N185 Cu184 1.999 . S
N185 C187 1.263 . S
N185 C189 1.389 . S
N186 C187 1.358 . S
N186 C188 1.400 . S
C187 N185 1.263 . S
C187 N186 1.358 . S
C187 H193 0.930 . S
C188 N186 1.400 . S
C188 C189 1.351 . S
C188 H205 0.930 . S
C189 N185 1.389 . S
C189 C188 1.351 . S
C189 H194 0.930 . S
O190 Cu184 1.974 . S
O190 C200 1.282 . S
C191 O192 1.261 . S
C191 O204 1.251 . S
O192 C191 1.261 . S
H193 C187 0.930 . S
H194 C189 0.930 . S
N195 Cu184 1.985 . S
N195 C197 1.335 . S
N195 C198 1.390 . S
N196 C197 1.345 . S
N196 C199 1.336 . S
C197 N195 1.335 . S
C197 N196 1.345 . S
C197 H202 0.930 . S
C198 N195 1.390 . S
C198 C199 1.346 . S
C198 H203 0.930 . S
C199 N196 1.336 . S
C199 C198 1.346 . S
C199 H206 0.929 . S
C200 O190 1.282 . S
C200 O201 1.216 . S
O201 C200 1.216 . S
H202 C197 0.930 . S
H203 C198 0.930 . S
O204 Cu184 1.959 . S
O204 C191 1.251 . S
H205 C188 0.930 . S
H206 C199 0.929 . S
Cu207 N208 1.999 . S
Cu207 O213 1.974 1_554 S
Cu207 N218 1.985 1_554 S
Cu207 O227 1.959 . S
N208 Cu207 1.999 . S
N208 C210 1.263 . S
N208 C212 1.389 . S
N209 C210 1.358 . S
N209 C211 1.400 . S
C210 N208 1.263 . S
C210 N209 1.358 . S
C210 H216 0.930 . S
C211 N209 1.400 . S
C211 C212 1.351 . S
C211 H228 0.930 . S
C212 N208 1.389 . S
C212 C211 1.351 . S
C212 H217 0.930 . S
O213 Cu207 1.974 1_556 S
O213 C223 1.282 . S
C214 O215 1.261 . S
C214 O227 1.251 . S
O215 C214 1.261 . S
H216 C210 0.930 . S
H217 C212 0.930 . S
N218 Cu207 1.985 1_556 S
N218 C220 1.335 . S
N218 C221 1.390 . S
N219 C220 1.345 . S
N219 C222 1.336 . S
C220 N218 1.335 . S
C220 N219 1.345 . S
C220 H225 0.930 . S
C221 N218 1.390 . S
C221 C222 1.346 . S
C221 H226 0.930 . S
C222 N219 1.336 . S
C222 C221 1.346 . S
C222 H229 0.929 . S
C223 O213 1.282 . S
C223 O224 1.216 . S
O224 C223 1.216 . S
H225 C220 0.930 . S
H226 C221 0.930 . S
O227 Cu207 1.959 . S
O227 C214 1.251 . S
H228 C211 0.930 . S
H229 C222 0.929 . S
Cu230 N231 1.999 . S
Cu230 O236 1.974 . S
Cu230 N241 1.985 . S
Cu230 O250 1.959 . S
N231 Cu230 1.999 . S
N231 C233 1.263 . S
N231 C235 1.389 . S
N232 C233 1.358 . S
N232 C234 1.400 . S
C233 N231 1.263 . S
C233 N232 1.358 . S
C233 H239 0.930 . S
C234 N232 1.400 . S
C234 C235 1.351 . S
C234 H251 0.930 . S
C235 N231 1.389 . S
C235 C234 1.351 . S
C235 H240 0.930 . S
O236 Cu230 1.974 . S
O236 C246 1.282 . S
C237 O238 1.261 . S
C237 O250 1.251 . S
O238 C237 1.261 . S
H239 C233 0.930 . S
H240 C235 0.930 . S
N241 Cu230 1.985 . S
N241 C243 1.335 . S
N241 C244 1.390 . S
N242 C243 1.345 . S
N242 C245 1.336 . S
C243 N241 1.335 . S
C243 N242 1.345 . S
C243 H248 0.930 . S
C244 N241 1.390 . S
C244 C245 1.346 . S
C244 H249 0.930 . S
C245 N242 1.336 . S
C245 C244 1.346 . S
C245 H252 0.929 . S
C246 O236 1.282 . S
C246 O247 1.216 . S
O247 C246 1.216 . S
H248 C243 0.930 . S
H249 C244 0.930 . S
O250 Cu230 1.959 . S
O250 C237 1.251 . S
H251 C234 0.930 . S
H252 C245 0.929 . S
Cu253 N254 1.999 . S
Cu253 O259 1.974 1_554 S
Cu253 N264 1.985 1_554 S
Cu253 O273 1.959 . S
N254 Cu253 1.999 . S
N254 C256 1.263 . S
N254 C258 1.389 . S
N255 C256 1.358 . S
N255 C257 1.400 . S
C256 N254 1.263 . S
C256 N255 1.358 . S
C256 H262 0.930 . S
C257 N255 1.400 . S
C257 C258 1.351 . S
C257 H274 0.930 . S
C258 N254 1.389 . S
C258 C257 1.351 . S
C258 H263 0.930 . S
O259 Cu253 1.974 1_556 S
O259 C269 1.282 . S
C260 O261 1.261 . S
C260 O273 1.251 . S
O261 C260 1.261 . S
H262 C256 0.930 . S
H263 C258 0.930 . S
N264 Cu253 1.985 1_556 S
N264 C266 1.335 . S
N264 C267 1.390 . S
N265 C266 1.345 . S
N265 C268 1.336 . S
C266 N264 1.335 . S
C266 N265 1.345 . S
C266 H271 0.930 . S
C267 N264 1.390 . S
C267 C268 1.346 . S
C267 H272 0.930 . S
C268 N265 1.336 . S
C268 C267 1.346 . S
C268 H275 0.929 . S
C269 O259 1.282 . S
C269 O270 1.216 . S
O270 C269 1.216 . S
H271 C266 0.930 . S
H272 C267 0.930 . S
O273 Cu253 1.959 . S
O273 C260 1.251 . S
H274 C257 0.930 . S
H275 C268 0.929 . S
Cu276 N277 1.999 . S
Cu276 O282 1.974 . S
Cu276 N287 1.985 . S
Cu276 O296 1.959 . S
N277 Cu276 1.999 . S
N277 C279 1.263 . S
N277 C281 1.389 . S
N278 C279 1.358 . S
N278 C280 1.400 . S
C279 N277 1.263 . S
C279 N278 1.358 . S
C279 H285 0.930 . S
C280 N278 1.400 . S
C280 C281 1.351 . S
C280 H297 0.930 . S
C281 N277 1.389 . S
C281 C280 1.351 . S
C281 H286 0.930 . S
O282 Cu276 1.974 . S
O282 C292 1.282 . S
C283 O284 1.261 . S
C283 O296 1.251 . S
O284 C283 1.261 . S
H285 C279 0.930 . S
H286 C281 0.930 . S
N287 Cu276 1.985 . S
N287 C289 1.335 . S
N287 C290 1.390 . S
N288 C289 1.345 . S
N288 C291 1.336 . S
C289 N287 1.335 . S
C289 N288 1.345 . S
C289 H294 0.930 . S
C290 N287 1.390 . S
C290 C291 1.346 . S
C290 H295 0.930 . S
C291 N288 1.336 . S
C291 C290 1.346 . S
C291 H298 0.929 . S
C292 O282 1.282 . S
C292 O293 1.216 . S
O293 C292 1.216 . S
H294 C289 0.930 . S
H295 C290 0.930 . S
O296 Cu276 1.959 . S
O296 C283 1.251 . S
H297 C280 0.930 . S
H298 C291 0.929 . S
Cu299 N300 1.999 . S
Cu299 O305 1.974 1_556 S
Cu299 N310 1.985 1_556 S
Cu299 O319 1.959 . S
N300 Cu299 1.999 . S
N300 C302 1.263 . S
N300 C304 1.389 . S
N301 C302 1.358 . S
N301 C303 1.400 . S
C302 N300 1.263 . S
C302 N301 1.358 . S
C302 H308 0.930 . S
C303 N301 1.400 . S
C303 C304 1.351 . S
C303 H320 0.930 . S
C304 N300 1.389 . S
C304 C303 1.351 . S
C304 H309 0.930 . S
O305 Cu299 1.974 1_554 S
O305 C315 1.282 . S
C306 O307 1.261 . S
C306 O319 1.251 . S
O307 C306 1.261 . S
H308 C302 0.930 . S
H309 C304 0.930 . S
N310 Cu299 1.985 1_554 S
N310 C312 1.335 . S
N310 C313 1.390 . S
N311 C312 1.345 . S
N311 C314 1.336 . S
C312 N310 1.335 . S
C312 N311 1.345 . S
C312 H317 0.930 . S
C313 N310 1.390 . S
C313 C314 1.346 . S
C313 H318 0.930 . S
C314 N311 1.336 . S
C314 C313 1.346 . S
C314 H321 0.929 . S
C315 O305 1.282 . S
C315 O316 1.216 . S
O316 C315 1.216 . S
H317 C312 0.930 . S
H318 C313 0.930 . S
O319 Cu299 1.959 . S
O319 C306 1.251 . S
H320 C303 0.930 . S
H321 C314 0.929 . S
Cu322 N323 1.999 . S
Cu322 O328 1.974 . S
Cu322 N333 1.985 . S
Cu322 O342 1.959 . S
N323 Cu322 1.999 . S
N323 C325 1.263 . S
N323 C327 1.389 . S
N324 C325 1.358 . S
N324 C326 1.400 . S
C325 N323 1.263 . S
C325 N324 1.358 . S
C325 H331 0.930 . S
C326 N324 1.400 . S
C326 C327 1.351 . S
C326 H343 0.930 . S
C327 N323 1.389 . S
C327 C326 1.351 . S
C327 H332 0.930 . S
O328 Cu322 1.974 . S
O328 C338 1.282 . S
C329 O330 1.261 . S
C329 O342 1.251 . S
O330 C329 1.261 . S
H331 C325 0.930 . S
H332 C327 0.930 . S
N333 Cu322 1.985 . S
N333 C335 1.335 . S
N333 C336 1.390 . S
N334 C335 1.345 . S
N334 C337 1.336 . S
C335 N333 1.335 . S
C335 N334 1.345 . S
C335 H340 0.930 . S
C336 N333 1.390 . S
C336 C337 1.346 . S
C336 H341 0.930 . S
C337 N334 1.336 . S
C337 C336 1.346 . S
C337 H344 0.929 . S
C338 O328 1.282 . S
C338 O339 1.216 . S
O339 C338 1.216 . S
H340 C335 0.930 . S
H341 C336 0.930 . S
O342 Cu322 1.959 . S
O342 C329 1.251 . S
H343 C326 0.930 . S
H344 C337 0.929 . S
Cu345 N346 1.999 . S
Cu345 O351 1.974 1_556 S
Cu345 N356 1.985 1_556 S
Cu345 O365 1.959 . S
N346 Cu345 1.999 . S
N346 C348 1.263 . S
N346 C350 1.389 . S
N347 C348 1.358 . S
N347 C349 1.400 . S
C348 N346 1.263 . S
C348 N347 1.358 . S
C348 H354 0.930 . S
C349 N347 1.400 . S
C349 C350 1.351 . S
C349 H366 0.930 . S
C350 N346 1.389 . S
C350 C349 1.351 . S
C350 H355 0.930 . S
O351 Cu345 1.974 1_554 S
O351 C361 1.282 . S
C352 O353 1.261 . S
C352 O365 1.251 . S
O353 C352 1.261 . S
H354 C348 0.930 . S
H355 C350 0.930 . S
N356 Cu345 1.985 1_554 S
N356 C358 1.335 . S
N356 C359 1.390 . S
N357 C358 1.345 . S
N357 C360 1.336 . S
C358 N356 1.335 . S
C358 N357 1.345 . S
C358 H363 0.930 . S
C359 N356 1.390 . S
C359 C360 1.346 . S
C359 H364 0.930 . S
C360 N357 1.336 . S
C360 C359 1.346 . S
C360 H367 0.929 . S
C361 O351 1.282 . S
C361 O362 1.216 . S
O362 C361 1.216 . S
H363 C358 0.930 . S
H364 C359 0.930 . S
O365 Cu345 1.959 . S
O365 C352 1.251 . S
H366 C349 0.930 . S
H367 C360 0.929 . S
Cu368 N369 1.999 . S
Cu368 O374 1.974 . S
Cu368 N379 1.985 . S
Cu368 O388 1.959 . S
N369 Cu368 1.999 . S
N369 C371 1.263 . S
N369 C373 1.389 . S
N370 C371 1.358 . S
N370 C372 1.400 . S
C371 N369 1.263 . S
C371 N370 1.358 . S
C371 H377 0.930 . S
C372 N370 1.400 . S
C372 C373 1.351 . S
C372 H389 0.930 . S
C373 N369 1.389 . S
C373 C372 1.351 . S
C373 H378 0.930 . S
O374 Cu368 1.974 . S
O374 C384 1.282 . S
C375 O376 1.261 . S
C375 O388 1.251 . S
O376 C375 1.261 . S
H377 C371 0.930 . S
H378 C373 0.930 . S
N379 Cu368 1.985 . S
N379 C381 1.335 . S
N379 C382 1.390 . S
N380 C381 1.345 . S
N380 C383 1.336 . S
C381 N379 1.335 . S
C381 N380 1.345 . S
C381 H386 0.930 . S
C382 N379 1.390 . S
C382 C383 1.346 . S
C382 H387 0.930 . S
C383 N380 1.336 . S
C383 C382 1.346 . S
C383 H390 0.929 . S
C384 O374 1.282 . S
C384 O385 1.216 . S
O385 C384 1.216 . S
H386 C381 0.930 . S
H387 C382 0.930 . S
O388 Cu368 1.959 . S
O388 C375 1.251 . S
H389 C372 0.930 . S
H390 C383 0.929 . S
Cu391 N392 1.999 . S
Cu391 O397 1.974 . S
Cu391 N402 1.985 . S
Cu391 O411 1.959 . S
N392 Cu391 1.999 . S
N392 C394 1.263 . S
N392 C396 1.389 . S
N393 C394 1.358 . S
N393 C395 1.400 . S
C394 N392 1.263 . S
C394 N393 1.358 . S
C394 H400 0.930 . S
C395 N393 1.400 . S
C395 C396 1.351 . S
C395 H412 0.930 . S
C396 N392 1.389 . S
C396 C395 1.351 . S
C396 H401 0.930 . S
O397 Cu391 1.974 . S
O397 C407 1.282 . S
C398 O399 1.261 . S
C398 O411 1.251 . S
O399 C398 1.261 . S
H400 C394 0.930 . S
H401 C396 0.930 . S
N402 Cu391 1.985 . S
N402 C404 1.335 . S
N402 C405 1.390 . S
N403 C404 1.345 . S
N403 C406 1.336 . S
C404 N402 1.335 . S
C404 N403 1.345 . S
C404 H409 0.930 . S
C405 N402 1.390 . S
C405 C406 1.346 . S
C405 H410 0.930 . S
C406 N403 1.336 . S
C406 C405 1.346 . S
C406 H413 0.929 . S
C407 O397 1.282 . S
C407 O408 1.216 . S
O408 C407 1.216 . S
H409 C404 0.930 . S
H410 C405 0.930 . S
O411 Cu391 1.959 . S
O411 C398 1.251 . S
H412 C395 0.930 . S
H413 C406 0.929 . S
Cu414 N415 1.999 . S
Cu414 O420 1.974 . S
Cu414 N425 1.985 . S
Cu414 O434 1.959 . S
N415 Cu414 1.999 . S
N415 C417 1.263 . S
N415 C419 1.389 . S
N416 C417 1.358 . S
N416 C418 1.400 . S
C417 N415 1.263 . S
C417 N416 1.358 . S
C417 H423 0.930 . S
C418 N416 1.400 . S
C418 C419 1.351 . S
C418 H435 0.930 . S
C419 N415 1.389 . S
C419 C418 1.351 . S
C419 H424 0.930 . S
O420 Cu414 1.974 . S
O420 C430 1.282 . S
C421 O422 1.261 . S
C421 O434 1.251 . S
O422 C421 1.261 . S
H423 C417 0.930 . S
H424 C419 0.930 . S
N425 Cu414 1.985 . S
N425 C427 1.335 . S
N425 C428 1.390 . S
N426 C427 1.345 . S
N426 C429 1.336 . S
C427 N425 1.335 . S
C427 N426 1.345 . S
C427 H432 0.930 . S
C428 N425 1.390 . S
C428 C429 1.346 . S
C428 H433 0.930 . S
C429 N426 1.336 . S
C429 C428 1.346 . S
C429 H436 0.929 . S
C430 O420 1.282 . S
C430 O431 1.216 . S
O431 C430 1.216 . S
H432 C427 0.930 . S
H433 C428 0.930 . S
O434 Cu414 1.959 . S
O434 C421 1.251 . S
H435 C418 0.930 . S
H436 C429 0.929 . S
Cu437 N438 1.999 . S
Cu437 O443 1.974 . S
Cu437 N448 1.985 . S
Cu437 O457 1.959 . S
N438 Cu437 1.999 . S
N438 C440 1.263 . S
N438 C442 1.389 . S
N439 C440 1.358 . S
N439 C441 1.400 . S
C440 N438 1.263 . S
C440 N439 1.358 . S
C440 H446 0.930 . S
C441 N439 1.400 . S
C441 C442 1.351 . S
C441 H458 0.930 . S
C442 N438 1.389 . S
C442 C441 1.351 . S
C442 H447 0.930 . S
O443 Cu437 1.974 . S
O443 C453 1.282 . S
C444 O445 1.261 . S
C444 O457 1.251 . S
O445 C444 1.261 . S
H446 C440 0.930 . S
H447 C442 0.930 . S
N448 Cu437 1.985 . S
N448 C450 1.335 . S
N448 C451 1.390 . S
N449 C450 1.345 . S
N449 C452 1.336 . S
C450 N448 1.335 . S
C450 N449 1.345 . S
C450 H455 0.930 . S
C451 N448 1.390 . S
C451 C452 1.346 . S
C451 H456 0.930 . S
C452 N449 1.336 . S
C452 C451 1.346 . S
C452 H459 0.929 . S
C453 O443 1.282 . S
C453 O454 1.216 . S
O454 C453 1.216 . S
H455 C450 0.930 . S
H456 C451 0.930 . S
O457 Cu437 1.959 . S
O457 C444 1.251 . S
H458 C441 0.930 . S
H459 C452 0.929 . S
Cu460 N461 1.999 . S
Cu460 O466 1.974 . S
Cu460 N471 1.985 . S
Cu460 O480 1.959 . S
N461 Cu460 1.999 . S
N461 C463 1.263 . S
N461 C465 1.389 . S
N462 C463 1.358 . S
N462 C464 1.400 . S
C463 N461 1.263 . S
C463 N462 1.358 . S
C463 H469 0.930 . S
C464 N462 1.400 . S
C464 C465 1.351 . S
C464 H481 0.930 . S
C465 N461 1.389 . S
C465 C464 1.351 . S
C465 H470 0.930 . S
O466 Cu460 1.974 . S
O466 C476 1.282 . S
C467 O468 1.261 . S
C467 O480 1.251 . S
O468 C467 1.261 . S
H469 C463 0.930 . S
H470 C465 0.930 . S
N471 Cu460 1.985 . S
N471 C473 1.335 . S
N471 C474 1.390 . S
N472 C473 1.345 . S
N472 C475 1.336 . S
C473 N471 1.335 . S
C473 N472 1.345 . S
C473 H478 0.930 . S
C474 N471 1.390 . S
C474 C475 1.346 . S
C474 H479 0.930 . S
C475 N472 1.336 . S
C475 C474 1.346 . S
C475 H482 0.929 . S
C476 O466 1.282 . S
C476 O477 1.216 . S
O477 C476 1.216 . S
H478 C473 0.930 . S
H479 C474 0.930 . S
O480 Cu460 1.959 . S
O480 C467 1.251 . S
H481 C464 0.930 . S
H482 C475 0.929 . S
Cu483 N484 1.999 . S
Cu483 O489 1.974 . S
Cu483 N494 1.985 . S
Cu483 O503 1.959 . S
N484 Cu483 1.999 . S
N484 C486 1.263 . S
N484 C488 1.389 . S
N485 C486 1.358 . S
N485 C487 1.400 . S
C486 N484 1.263 . S
C486 N485 1.358 . S
C486 H492 0.930 . S
C487 N485 1.400 . S
C487 C488 1.351 . S
C487 H504 0.930 . S
C488 N484 1.389 . S
C488 C487 1.351 . S
C488 H493 0.930 . S
O489 Cu483 1.974 . S
O489 C499 1.282 . S
C490 O491 1.261 . S
C490 O503 1.251 . S
O491 C490 1.261 . S
H492 C486 0.930 . S
H493 C488 0.930 . S
N494 Cu483 1.985 . S
N494 C496 1.335 . S
N494 C497 1.390 . S
N495 C496 1.345 . S
N495 C498 1.336 . S
C496 N494 1.335 . S
C496 N495 1.345 . S
C496 H501 0.930 . S
C497 N494 1.390 . S
C497 C498 1.346 . S
C497 H502 0.930 . S
C498 N495 1.336 . S
C498 C497 1.346 . S
C498 H505 0.929 . S
C499 O489 1.282 . S
C499 O500 1.216 . S
O500 C499 1.216 . S
H501 C496 0.930 . S
H502 C497 0.930 . S
O503 Cu483 1.959 . S
O503 C490 1.251 . S
H504 C487 0.930 . S
H505 C498 0.929 . S
Cu506 N507 1.999 . S
Cu506 O512 1.974 . S
Cu506 N517 1.985 . S
Cu506 O526 1.959 . S
N507 Cu506 1.999 . S
N507 C509 1.263 . S
N507 C511 1.389 . S
N508 C509 1.358 . S
N508 C510 1.400 . S
C509 N507 1.263 . S
C509 N508 1.358 . S
C509 H515 0.930 . S
C510 N508 1.400 . S
C510 C511 1.351 . S
C510 H527 0.930 . S
C511 N507 1.389 . S
C511 C510 1.351 . S
C511 H516 0.930 . S
O512 Cu506 1.974 . S
O512 C522 1.282 . S
C513 O514 1.261 . S
C513 O526 1.251 . S
O514 C513 1.261 . S
H515 C509 0.930 . S
H516 C511 0.930 . S
N517 Cu506 1.985 . S
N517 C519 1.335 . S
N517 C520 1.390 . S
N518 C519 1.345 . S
N518 C521 1.336 . S
C519 N517 1.335 . S
C519 N518 1.345 . S
C519 H524 0.930 . S
C520 N517 1.390 . S
C520 C521 1.346 . S
C520 H525 0.930 . S
C521 N518 1.336 . S
C521 C520 1.346 . S
C521 H528 0.929 . S
C522 O512 1.282 . S
C522 O523 1.216 . S
O523 C522 1.216 . S
H524 C519 0.930 . S
H525 C520 0.930 . S
O526 Cu506 1.959 . S
O526 C513 1.251 . S
H527 C510 0.930 . S
H528 C521 0.929 . S
Cu529 N530 1.999 . S
Cu529 O535 1.974 1_545 S
Cu529 N540 1.985 1_545 S
Cu529 O549 1.959 . S
N530 Cu529 1.999 . S
N530 C532 1.263 . S
N530 C534 1.389 . S
N531 C532 1.358 . S
N531 C533 1.400 . S
C532 N530 1.263 . S
C532 N531 1.358 . S
C532 H538 0.930 . S
C533 N531 1.400 . S
C533 C534 1.351 . S
C533 H550 0.930 . S
C534 N530 1.389 . S
C534 C533 1.351 . S
C534 H539 0.930 . S
O535 Cu529 1.974 1_565 S
O535 C545 1.282 . S
C536 O537 1.261 . S
C536 O549 1.251 . S
O537 C536 1.261 . S
H538 C532 0.930 . S
H539 C534 0.930 . S
N540 Cu529 1.985 1_565 S
N540 C542 1.335 . S
N540 C543 1.390 . S
N541 C542 1.345 . S
N541 C544 1.336 . S
C542 N540 1.335 . S
C542 N541 1.345 . S
C542 H547 0.930 . S
C543 N540 1.390 . S
C543 C544 1.346 . S
C543 H548 0.930 . S
C544 N541 1.336 . S
C544 C543 1.346 . S
C544 H551 0.929 . S
C545 O535 1.282 . S
C545 O546 1.216 . S
O546 C545 1.216 . S
H547 C542 0.930 . S
H548 C543 0.930 . S
O549 Cu529 1.959 . S
O549 C536 1.251 . S
H550 C533 0.930 . S
H551 C544 0.929 . S
Cu552 N553 1.999 . S
Cu552 O558 1.974 . S
Cu552 N563 1.985 . S
Cu552 O572 1.959 . S
N553 Cu552 1.999 . S
N553 C555 1.263 . S
N553 C557 1.389 . S
N554 C555 1.358 . S
N554 C556 1.400 . S
C555 N553 1.263 . S
C555 N554 1.358 . S
C555 H561 0.930 . S
C556 N554 1.400 . S
C556 C557 1.351 . S
C556 H573 0.930 . S
C557 N553 1.389 . S
C557 C556 1.351 . S
C557 H562 0.930 . S
O558 Cu552 1.974 . S
O558 C568 1.282 . S
C559 O560 1.261 . S
C559 O572 1.251 . S
O560 C559 1.261 . S
H561 C555 0.930 . S
H562 C557 0.930 . S
N563 Cu552 1.985 . S
N563 C565 1.335 . S
N563 C566 1.390 . S
N564 C565 1.345 . S
N564 C567 1.336 . S
C565 N563 1.335 . S
C565 N564 1.345 . S
C565 H570 0.930 . S
C566 N563 1.390 . S
C566 C567 1.346 . S
C566 H571 0.930 . S
C567 N564 1.336 . S
C567 C566 1.346 . S
C567 H574 0.929 . S
C568 O558 1.282 . S
C568 O569 1.216 . S
O569 C568 1.216 . S
H570 C565 0.930 . S
H571 C566 0.930 . S
O572 Cu552 1.959 . S
O572 C559 1.251 . S
H573 C556 0.930 . S
H574 C567 0.929 . S
Cu575 N576 1.999 . S
Cu575 O581 1.974 1_655 S
Cu575 N586 1.985 1_655 S
Cu575 O595 1.959 . S
N576 Cu575 1.999 . S
N576 C578 1.263 . S
N576 C580 1.389 . S
N577 C578 1.358 . S
N577 C579 1.400 . S
C578 N576 1.263 . S
C578 N577 1.358 . S
C578 H584 0.930 . S
C579 N577 1.400 . S
C579 C580 1.351 . S
C579 H596 0.930 . S
C580 N576 1.389 . S
C580 C579 1.351 . S
C580 H585 0.930 . S
O581 Cu575 1.974 1_455 S
O581 C591 1.282 . S
C582 O583 1.261 . S
C582 O595 1.251 . S
O583 C582 1.261 . S
H584 C578 0.930 . S
H585 C580 0.930 . S
N586 Cu575 1.985 1_455 S
N586 C588 1.335 . S
N586 C589 1.390 . S
N587 C588 1.345 . S
N587 C590 1.336 . S
C588 N586 1.335 . S
C588 N587 1.345 . S
C588 H593 0.930 . S
C589 N586 1.390 . S
C589 C590 1.346 . S
C589 H594 0.930 . S
C590 N587 1.336 . S
C590 C589 1.346 . S
C590 H597 0.929 . S
C591 O581 1.282 . S
C591 O592 1.216 . S
O592 C591 1.216 . S
H593 C588 0.930 . S
H594 C589 0.930 . S
O595 Cu575 1.959 . S
O595 C582 1.251 . S
H596 C579 0.930 . S
H597 C590 0.929 . S
Cu598 N599 1.999 . S
Cu598 O604 1.974 . S
Cu598 N609 1.985 . S
Cu598 O618 1.959 . S
N599 Cu598 1.999 . S
N599 C601 1.263 . S
N599 C603 1.389 . S
N600 C601 1.358 . S
N600 C602 1.400 . S
C601 N599 1.263 . S
C601 N600 1.358 . S
C601 H607 0.930 . S
C602 N600 1.400 . S
C602 C603 1.351 . S
C602 H619 0.930 . S
C603 N599 1.389 . S
C603 C602 1.351 . S
C603 H608 0.930 . S
O604 Cu598 1.974 . S
O604 C614 1.282 . S
C605 O606 1.261 . S
C605 O618 1.251 . S
O606 C605 1.261 . S
H607 C601 0.930 . S
H608 C603 0.930 . S
N609 Cu598 1.985 . S
N609 C611 1.335 . S
N609 C612 1.390 . S
N610 C611 1.345 . S
N610 C613 1.336 . S
C611 N609 1.335 . S
C611 N610 1.345 . S
C611 H616 0.930 . S
C612 N609 1.390 . S
C612 C613 1.346 . S
C612 H617 0.930 . S
C613 N610 1.336 . S
C613 C612 1.346 . S
C613 H620 0.929 . S
C614 O604 1.282 . S
C614 O615 1.216 . S
O615 C614 1.216 . S
H616 C611 0.930 . S
H617 C612 0.930 . S
O618 Cu598 1.959 . S
O618 C605 1.251 . S
H619 C602 0.930 . S
H620 C613 0.929 . S
Cu621 N622 1.999 . S
Cu621 O627 1.974 1_455 S
Cu621 N632 1.985 1_455 S
Cu621 O641 1.959 . S
N622 Cu621 1.999 . S
N622 C624 1.263 . S
N622 C626 1.389 . S
N623 C624 1.358 . S
N623 C625 1.400 . S
C624 N622 1.263 . S
C624 N623 1.358 . S
C624 H630 0.930 . S
C625 N623 1.400 . S
C625 C626 1.351 . S
C625 H642 0.930 . S
C626 N622 1.389 . S
C626 C625 1.351 . S
C626 H631 0.930 . S
O627 Cu621 1.974 1_655 S
O627 C637 1.282 . S
C628 O629 1.261 . S
C628 O641 1.251 . S
O629 C628 1.261 . S
H630 C624 0.930 . S
H631 C626 0.930 . S
N632 Cu621 1.985 1_655 S
N632 C634 1.335 . S
N632 C635 1.390 . S
N633 C634 1.345 . S
N633 C636 1.336 . S
C634 N632 1.335 . S
C634 N633 1.345 . S
C634 H639 0.930 . S
C635 N632 1.390 . S
C635 C636 1.346 . S
C635 H640 0.930 . S
C636 N633 1.336 . S
C636 C635 1.346 . S
C636 H643 0.929 . S
C637 O627 1.282 . S
C637 O638 1.216 . S
O638 C637 1.216 . S
H639 C634 0.930 . S
H640 C635 0.930 . S
O641 Cu621 1.959 . S
O641 C628 1.251 . S
H642 C625 0.930 . S
H643 C636 0.929 . S
Cu644 N645 1.999 . S
Cu644 O650 1.974 . S
Cu644 N655 1.985 . S
Cu644 O664 1.959 . S
N645 Cu644 1.999 . S
N645 C647 1.263 . S
N645 C649 1.389 . S
N646 C647 1.358 . S
N646 C648 1.400 . S
C647 N645 1.263 . S
C647 N646 1.358 . S
C647 H653 0.930 . S
C648 N646 1.400 . S
C648 C649 1.351 . S
C648 H665 0.930 . S
C649 N645 1.389 . S
C649 C648 1.351 . S
C649 H654 0.930 . S
O650 Cu644 1.974 . S
O650 C660 1.282 . S
C651 O652 1.261 . S
C651 O664 1.251 . S
O652 C651 1.261 . S
H653 C647 0.930 . S
H654 C649 0.930 . S
N655 Cu644 1.985 . S
N655 C657 1.335 . S
N655 C658 1.390 . S
N656 C657 1.345 . S
N656 C659 1.336 . S
C657 N655 1.335 . S
C657 N656 1.345 . S
C657 H662 0.930 . S
C658 N655 1.390 . S
C658 C659 1.346 . S
C658 H663 0.930 . S
C659 N656 1.336 . S
C659 C658 1.346 . S
C659 H666 0.929 . S
C660 O650 1.282 . S
C660 O661 1.216 . S
O661 C660 1.216 . S
H662 C657 0.930 . S
H663 C658 0.930 . S
O664 Cu644 1.959 . S
O664 C651 1.251 . S
H665 C648 0.930 . S
H666 C659 0.929 . S
Cu667 N668 1.999 . S
Cu667 O673 1.974 . S
Cu667 N678 1.985 . S
Cu667 O687 1.959 . S
N668 Cu667 1.999 . S
N668 C670 1.263 . S
N668 C672 1.389 . S
N669 C670 1.358 . S
N669 C671 1.400 . S
C670 N668 1.263 . S
C670 N669 1.358 . S
C670 H676 0.930 . S
C671 N669 1.400 . S
C671 C672 1.351 . S
C671 H688 0.930 . S
C672 N668 1.389 . S
C672 C671 1.351 . S
C672 H677 0.930 . S
O673 Cu667 1.974 . S
O673 C683 1.282 . S
C674 O675 1.261 . S
C674 O687 1.251 . S
O675 C674 1.261 . S
H676 C670 0.930 . S
H677 C672 0.930 . S
N678 Cu667 1.985 . S
N678 C680 1.335 . S
N678 C681 1.390 . S
N679 C680 1.345 . S
N679 C682 1.336 . S
C680 N678 1.335 . S
C680 N679 1.345 . S
C680 H685 0.930 . S
C681 N678 1.390 . S
C681 C682 1.346 . S
C681 H686 0.930 . S
C682 N679 1.336 . S
C682 C681 1.346 . S
C682 H689 0.929 . S
C683 O673 1.282 . S
C683 O684 1.216 . S
O684 C683 1.216 . S
H685 C680 0.930 . S
H686 C681 0.930 . S
O687 Cu667 1.959 . S
O687 C674 1.251 . S
H688 C671 0.930 . S
H689 C682 0.929 . S
Cu690 N691 1.999 . S
Cu690 O696 1.974 . S
Cu690 N701 1.985 . S
Cu690 O710 1.959 . S
N691 Cu690 1.999 . S
N691 C693 1.263 . S
N691 C695 1.389 . S
N692 C693 1.358 . S
N692 C694 1.400 . S
C693 N691 1.263 . S
C693 N692 1.358 . S
C693 H699 0.930 . S
C694 N692 1.400 . S
C694 C695 1.351 . S
C694 H711 0.930 . S
C695 N691 1.389 . S
C695 C694 1.351 . S
C695 H700 0.930 . S
O696 Cu690 1.974 . S
O696 C706 1.282 . S
C697 O698 1.261 . S
C697 O710 1.251 . S
O698 C697 1.261 . S
H699 C693 0.930 . S
H700 C695 0.930 . S
N701 Cu690 1.985 . S
N701 C703 1.335 . S
N701 C704 1.390 . S
N702 C703 1.345 . S
N702 C705 1.336 . S
C703 N701 1.335 . S
C703 N702 1.345 . S
C703 H708 0.930 . S
C704 N701 1.390 . S
C704 C705 1.346 . S
C704 H709 0.930 . S
C705 N702 1.336 . S
C705 C704 1.346 . S
C705 H712 0.929 . S
C706 O696 1.282 . S
C706 O707 1.216 . S
O707 C706 1.216 . S
H708 C703 0.930 . S
H709 C704 0.930 . S
O710 Cu690 1.959 . S
O710 C697 1.251 . S
H711 C694 0.930 . S
H712 C705 0.929 . S
Cu713 N714 1.999 . S
Cu713 O719 1.974 . S
Cu713 N724 1.985 . S
Cu713 O733 1.959 . S
N714 Cu713 1.999 . S
N714 C716 1.263 . S
N714 C718 1.389 . S
N715 C716 1.358 . S
N715 C717 1.400 . S
C716 N714 1.263 . S
C716 N715 1.358 . S
C716 H722 0.930 . S
C717 N715 1.400 . S
C717 C718 1.351 . S
C717 H734 0.930 . S
C718 N714 1.389 . S
C718 C717 1.351 . S
C718 H723 0.930 . S
O719 Cu713 1.974 . S
O719 C729 1.282 . S
C720 O721 1.261 . S
C720 O733 1.251 . S
O721 C720 1.261 . S
H722 C716 0.930 . S
H723 C718 0.930 . S
N724 Cu713 1.985 . S
N724 C726 1.335 . S
N724 C727 1.390 . S
N725 C726 1.345 . S
N725 C728 1.336 . S
C726 N724 1.335 . S
C726 N725 1.345 . S
C726 H731 0.930 . S
C727 N724 1.390 . S
C727 C728 1.346 . S
C727 H732 0.930 . S
C728 N725 1.336 . S
C728 C727 1.346 . S
C728 H735 0.929 . S
C729 O719 1.282 . S
C729 O730 1.216 . S
O730 C729 1.216 . S
H731 C726 0.930 . S
H732 C727 0.930 . S
O733 Cu713 1.959 . S
O733 C720 1.251 . S
H734 C717 0.930 . S
H735 C728 0.929 . S
Cu736 N737 1.999 . S
Cu736 O742 1.974 . S
Cu736 N747 1.985 . S
Cu736 O756 1.959 . S
N737 Cu736 1.999 . S
N737 C739 1.263 . S
N737 C741 1.389 . S
N738 C739 1.358 . S
N738 C740 1.400 . S
C739 N737 1.263 . S
C739 N738 1.358 . S
C739 H745 0.930 . S
C740 N738 1.400 . S
C740 C741 1.351 . S
C740 H757 0.930 . S
C741 N737 1.389 . S
C741 C740 1.351 . S
C741 H746 0.930 . S
O742 Cu736 1.974 . S
O742 C752 1.282 . S
C743 O744 1.261 . S
C743 O756 1.251 . S
O744 C743 1.261 . S
H745 C739 0.930 . S
H746 C741 0.930 . S
N747 Cu736 1.985 . S
N747 C749 1.335 . S
N747 C750 1.390 . S
N748 C749 1.345 . S
N748 C751 1.336 . S
C749 N747 1.335 . S
C749 N748 1.345 . S
C749 H754 0.930 . S
C750 N747 1.390 . S
C750 C751 1.346 . S
C750 H755 0.930 . S
C751 N748 1.336 . S
C751 C750 1.346 . S
C751 H758 0.929 . S
C752 O742 1.282 . S
C752 O753 1.216 . S
O753 C752 1.216 . S
H754 C749 0.930 . S
H755 C750 0.930 . S
O756 Cu736 1.959 . S
O756 C743 1.251 . S
H757 C740 0.930 . S
H758 C751 0.929 . S
Cu759 N760 1.999 . S
Cu759 O765 1.974 . S
Cu759 N770 1.985 . S
Cu759 O779 1.959 . S
N760 Cu759 1.999 . S
N760 C762 1.263 . S
N760 C764 1.389 . S
N761 C762 1.358 . S
N761 C763 1.400 . S
C762 N760 1.263 . S
C762 N761 1.358 . S
C762 H768 0.930 . S
C763 N761 1.400 . S
C763 C764 1.351 . S
C763 H780 0.930 . S
C764 N760 1.389 . S
C764 C763 1.351 . S
C764 H769 0.930 . S
O765 Cu759 1.974 . S
O765 C775 1.282 . S
C766 O767 1.261 . S
C766 O779 1.251 . S
O767 C766 1.261 . S
H768 C762 0.930 . S
H769 C764 0.930 . S
N770 Cu759 1.985 . S
N770 C772 1.335 . S
N770 C773 1.390 . S
N771 C772 1.345 . S
N771 C774 1.336 . S
C772 N770 1.335 . S
C772 N771 1.345 . S
C772 H777 0.930 . S
C773 N770 1.390 . S
C773 C774 1.346 . S
C773 H778 0.930 . S
C774 N771 1.336 . S
C774 C773 1.346 . S
C774 H781 0.929 . S
C775 O765 1.282 . S
C775 O776 1.216 . S
O776 C775 1.216 . S
H777 C772 0.930 . S
H778 C773 0.930 . S
O779 Cu759 1.959 . S
O779 C766 1.251 . S
H780 C763 0.930 . S
H781 C774 0.929 . S
Cu782 N783 1.999 . S
Cu782 O788 1.974 . S
Cu782 N793 1.985 . S
Cu782 O802 1.959 . S
N783 Cu782 1.999 . S
N783 C785 1.263 . S
N783 C787 1.389 . S
N784 C785 1.358 . S
N784 C786 1.400 . S
C785 N783 1.263 . S
C785 N784 1.358 . S
C785 H791 0.930 . S
C786 N784 1.400 . S
C786 C787 1.351 . S
C786 H803 0.930 . S
C787 N783 1.389 . S
C787 C786 1.351 . S
C787 H792 0.930 . S
O788 Cu782 1.974 . S
O788 C798 1.282 . S
C789 O790 1.261 . S
C789 O802 1.251 . S
O790 C789 1.261 . S
H791 C785 0.930 . S
H792 C787 0.930 . S
N793 Cu782 1.985 . S
N793 C795 1.335 . S
N793 C796 1.390 . S
N794 C795 1.345 . S
N794 C797 1.336 . S
C795 N793 1.335 . S
C795 N794 1.345 . S
C795 H800 0.930 . S
C796 N793 1.390 . S
C796 C797 1.346 . S
C796 H801 0.930 . S
C797 N794 1.336 . S
C797 C796 1.346 . S
C797 H804 0.929 . S
C798 O788 1.282 . S
C798 O799 1.216 . S
O799 C798 1.216 . S
H800 C795 0.930 . S
H801 C796 0.930 . S
O802 Cu782 1.959 . S
O802 C789 1.251 . S
H803 C786 0.930 . S
H804 C797 0.929 . S
Cu805 N806 1.999 . S
Cu805 O811 1.974 . S
Cu805 N816 1.985 . S
Cu805 O825 1.959 . S
N806 Cu805 1.999 . S
N806 C808 1.263 . S
N806 C810 1.389 . S
N807 C808 1.358 . S
N807 C809 1.400 . S
C808 N806 1.263 . S
C808 N807 1.358 . S
C808 H814 0.930 . S
C809 N807 1.400 . S
C809 C810 1.351 . S
C809 H826 0.930 . S
C810 N806 1.389 . S
C810 C809 1.351 . S
C810 H815 0.930 . S
O811 Cu805 1.974 . S
O811 C821 1.282 . S
C812 O813 1.261 . S
C812 O825 1.251 . S
O813 C812 1.261 . S
H814 C808 0.930 . S
H815 C810 0.930 . S
N816 Cu805 1.985 . S
N816 C818 1.335 . S
N816 C819 1.390 . S
N817 C818 1.345 . S
N817 C820 1.336 . S
C818 N816 1.335 . S
C818 N817 1.345 . S
C818 H823 0.930 . S
C819 N816 1.390 . S
C819 C820 1.346 . S
C819 H824 0.930 . S
C820 N817 1.336 . S
C820 C819 1.346 . S
C820 H827 0.929 . S
C821 O811 1.282 . S
C821 O822 1.216 . S
O822 C821 1.216 . S
H823 C818 0.930 . S
H824 C819 0.930 . S
O825 Cu805 1.959 . S
O825 C812 1.251 . S
H826 C809 0.930 . S
H827 C820 0.929 . S
Cu828 N829 1.999 . S
Cu828 O834 1.974 . S
Cu828 N839 1.985 . S
Cu828 O848 1.959 . S
N829 Cu828 1.999 . S
N829 C831 1.263 . S
N829 C833 1.389 . S
N830 C831 1.358 . S
N830 C832 1.400 . S
C831 N829 1.263 . S
C831 N830 1.358 . S
C831 H837 0.930 . S
C832 N830 1.400 . S
C832 C833 1.351 . S
C832 H849 0.930 . S
C833 N829 1.389 . S
C833 C832 1.351 . S
C833 H838 0.930 . S
O834 Cu828 1.974 . S
O834 C844 1.282 . S
C835 O836 1.261 . S
C835 O848 1.251 . S
O836 C835 1.261 . S
H837 C831 0.930 . S
H838 C833 0.930 . S
N839 Cu828 1.985 . S
N839 C841 1.335 . S
N839 C842 1.390 . S
N840 C841 1.345 . S
N840 C843 1.336 . S
C841 N839 1.335 . S
C841 N840 1.345 . S
C841 H846 0.930 . S
C842 N839 1.390 . S
C842 C843 1.346 . S
C842 H847 0.930 . S
C843 N840 1.336 . S
C843 C842 1.346 . S
C843 H850 0.929 . S
C844 O834 1.282 . S
C844 O845 1.216 . S
O845 C844 1.216 . S
H846 C841 0.930 . S
H847 C842 0.930 . S
O848 Cu828 1.959 . S
O848 C835 1.251 . S
H849 C832 0.930 . S
H850 C843 0.929 . S
Cu851 N852 1.999 . S
Cu851 O857 1.974 . S
Cu851 N862 1.985 . S
Cu851 O871 1.959 . S
N852 Cu851 1.999 . S
N852 C854 1.263 . S
N852 C856 1.389 . S
N853 C854 1.358 . S
N853 C855 1.400 . S
C854 N852 1.263 . S
C854 N853 1.358 . S
C854 H860 0.930 . S
C855 N853 1.400 . S
C855 C856 1.351 . S
C855 H872 0.930 . S
C856 N852 1.389 . S
C856 C855 1.351 . S
C856 H861 0.930 . S
O857 Cu851 1.974 . S
O857 C867 1.282 . S
C858 O859 1.261 . S
C858 O871 1.251 . S
O859 C858 1.261 . S
H860 C854 0.930 . S
H861 C856 0.930 . S
N862 Cu851 1.985 . S
N862 C864 1.335 . S
N862 C865 1.390 . S
N863 C864 1.345 . S
N863 C866 1.336 . S
C864 N862 1.335 . S
C864 N863 1.345 . S
C864 H869 0.930 . S
C865 N862 1.390 . S
C865 C866 1.346 . S
C865 H870 0.930 . S
C866 N863 1.336 . S
C866 C865 1.346 . S
C866 H873 0.929 . S
C867 O857 1.282 . S
C867 O868 1.216 . S
O868 C867 1.216 . S
H869 C864 0.930 . S
H870 C865 0.930 . S
O871 Cu851 1.959 . S
O871 C858 1.251 . S
H872 C855 0.930 . S
H873 C866 0.929 . S
Cu874 N875 1.999 . S
Cu874 O880 1.974 . S
Cu874 N885 1.985 . S
Cu874 O894 1.959 . S
N875 Cu874 1.999 . S
N875 C877 1.263 . S
N875 C879 1.389 . S
N876 C877 1.358 . S
N876 C878 1.400 . S
C877 N875 1.263 . S
C877 N876 1.358 . S
C877 H883 0.930 . S
C878 N876 1.400 . S
C878 C879 1.351 . S
C878 H895 0.930 . S
C879 N875 1.389 . S
C879 C878 1.351 . S
C879 H884 0.930 . S
O880 Cu874 1.974 . S
O880 C890 1.282 . S
C881 O882 1.261 . S
C881 O894 1.251 . S
O882 C881 1.261 . S
H883 C877 0.930 . S
H884 C879 0.930 . S
N885 Cu874 1.985 . S
N885 C887 1.335 . S
N885 C888 1.390 . S
N886 C887 1.345 . S
N886 C889 1.336 . S
C887 N885 1.335 . S
C887 N886 1.345 . S
C887 H892 0.930 . S
C888 N885 1.390 . S
C888 C889 1.346 . S
C888 H893 0.930 . S
C889 N886 1.336 . S
C889 C888 1.346 . S
C889 H896 0.929 . S
C890 O880 1.282 . S
C890 O891 1.216 . S
O891 C890 1.216 . S
H892 C887 0.930 . S
H893 C888 0.930 . S
O894 Cu874 1.959 . S
O894 C881 1.251 . S
H895 C878 0.930 . S
H896 C889 0.929 . S
Cu897 N898 1.999 . S
Cu897 O903 1.974 . S
Cu897 N908 1.985 . S
Cu897 O917 1.959 . S
N898 Cu897 1.999 . S
N898 C900 1.263 . S
N898 C902 1.389 . S
N899 C900 1.358 . S
N899 C901 1.400 . S
C900 N898 1.263 . S
C900 N899 1.358 . S
C900 H906 0.930 . S
C901 N899 1.400 . S
C901 C902 1.351 . S
C901 H918 0.930 . S
C902 N898 1.389 . S
C902 C901 1.351 . S
C902 H907 0.930 . S
O903 Cu897 1.974 . S
O903 C913 1.282 . S
C904 O905 1.261 . S
C904 O917 1.251 . S
O905 C904 1.261 . S
H906 C900 0.930 . S
H907 C902 0.930 . S
N908 Cu897 1.985 . S
N908 C910 1.335 . S
N908 C911 1.390 . S
N909 C910 1.345 . S
N909 C912 1.336 . S
C910 N908 1.335 . S
C910 N909 1.345 . S
C910 H915 0.930 . S
C911 N908 1.390 . S
C911 C912 1.346 . S
C911 H916 0.930 . S
C912 N909 1.336 . S
C912 C911 1.346 . S
C912 H919 0.929 . S
C913 O903 1.282 . S
C913 O914 1.216 . S
O914 C913 1.216 . S
H915 C910 0.930 . S
H916 C911 0.930 . S
O917 Cu897 1.959 . S
O917 C904 1.251 . S
H918 C901 0.930 . S
H919 C912 0.929 . S
Cu920 N921 1.999 . S
Cu920 O926 1.974 . S
Cu920 N931 1.985 . S
Cu920 O940 1.959 . S
N921 Cu920 1.999 . S
N921 C923 1.263 . S
N921 C925 1.389 . S
N922 C923 1.358 . S
N922 C924 1.400 . S
C923 N921 1.263 . S
C923 N922 1.358 . S
C923 H929 0.930 . S
C924 N922 1.400 . S
C924 C925 1.351 . S
C924 H941 0.930 . S
C925 N921 1.389 . S
C925 C924 1.351 . S
C925 H930 0.930 . S
O926 Cu920 1.974 . S
O926 C936 1.282 . S
C927 O928 1.261 . S
C927 O940 1.251 . S
O928 C927 1.261 . S
H929 C923 0.930 . S
H930 C925 0.930 . S
N931 Cu920 1.985 . S
N931 C933 1.335 . S
N931 C934 1.390 . S
N932 C933 1.345 . S
N932 C935 1.336 . S
C933 N931 1.335 . S
C933 N932 1.345 . S
C933 H938 0.930 . S
C934 N931 1.390 . S
C934 C935 1.346 . S
C934 H939 0.930 . S
C935 N932 1.336 . S
C935 C934 1.346 . S
C935 H942 0.929 . S
C936 O926 1.282 . S
C936 O937 1.216 . S
O937 C936 1.216 . S
H938 C933 0.930 . S
H939 C934 0.930 . S
O940 Cu920 1.959 . S
O940 C927 1.251 . S
H941 C924 0.930 . S
H942 C935 0.929 . S
Cu943 N944 1.999 . S
Cu943 O949 1.974 . S
Cu943 N954 1.985 . S
Cu943 O963 1.959 . S
N944 Cu943 1.999 . S
N944 C946 1.263 . S
N944 C948 1.389 . S
N945 C946 1.358 . S
N945 C947 1.400 . S
C946 N944 1.263 . S
C946 N945 1.358 . S
C946 H952 0.930 . S
C947 N945 1.400 . S
C947 C948 1.351 . S
C947 H964 0.930 . S
C948 N944 1.389 . S
C948 C947 1.351 . S
C948 H953 0.930 . S
O949 Cu943 1.974 . S
O949 C959 1.282 . S
C950 O951 1.261 . S
C950 O963 1.251 . S
O951 C950 1.261 . S
H952 C946 0.930 . S
H953 C948 0.930 . S
N954 Cu943 1.985 . S
N954 C956 1.335 . S
N954 C957 1.390 . S
N955 C956 1.345 . S
N955 C958 1.336 . S
C956 N954 1.335 . S
C956 N955 1.345 . S
C956 H961 0.930 . S
C957 N954 1.390 . S
C957 C958 1.346 . S
C957 H962 0.930 . S
C958 N955 1.336 . S
C958 C957 1.346 . S
C958 H965 0.929 . S
C959 O949 1.282 . S
C959 O960 1.216 . S
O960 C959 1.216 . S
H961 C956 0.930 . S
H962 C957 0.930 . S
O963 Cu943 1.959 . S
O963 C950 1.251 . S
H964 C947 0.930 . S
H965 C958 0.929 . S
Cu966 N967 1.999 . S
Cu966 O972 1.974 1_545 S
Cu966 N977 1.985 1_545 S
Cu966 O986 1.959 . S
N967 Cu966 1.999 . S
N967 C969 1.263 . S
N967 C971 1.389 . S
N968 C969 1.358 . S
N968 C970 1.400 . S
C969 N967 1.263 . S
C969 N968 1.358 . S
C969 H975 0.930 . S
C970 N968 1.400 . S
C970 C971 1.351 . S
C970 H987 0.930 . S
C971 N967 1.389 . S
C971 C970 1.351 . S
C971 H976 0.930 . S
O972 Cu966 1.974 1_565 S
O972 C982 1.282 . S
C973 O974 1.261 . S
C973 O986 1.251 . S
O974 C973 1.261 . S
H975 C969 0.930 . S
H976 C971 0.930 . S
N977 Cu966 1.985 1_565 S
N977 C979 1.335 . S
N977 C980 1.390 . S
N978 C979 1.345 . S
N978 C981 1.336 . S
C979 N977 1.335 . S
C979 N978 1.345 . S
C979 H984 0.930 . S
C980 N977 1.390 . S
C980 C981 1.346 . S
C980 H985 0.930 . S
C981 N978 1.336 . S
C981 C980 1.346 . S
C981 H988 0.929 . S
C982 O972 1.282 . S
C982 O983 1.216 . S
O983 C982 1.216 . S
H984 C979 0.930 . S
H985 C980 0.930 . S
O986 Cu966 1.959 . S
O986 C973 1.251 . S
H987 C970 0.930 . S
H988 C981 0.929 . S
Cu989 N990 1.999 . S
Cu989 O995 1.974 . S
Cu989 N1000 1.985 . S
Cu989 O1009 1.959 . S
N990 Cu989 1.999 . S
N990 C992 1.263 . S
N990 C994 1.389 . S
N991 C992 1.358 . S
N991 C993 1.400 . S
C992 N990 1.263 . S
C992 N991 1.358 . S
C992 H998 0.930 . S
C993 N991 1.400 . S
C993 C994 1.351 . S
C993 H1010 0.930 . S
C994 N990 1.389 . S
C994 C993 1.351 . S
C994 H999 0.930 . S
O995 Cu989 1.974 . S
O995 C1005 1.282 . S
C996 O997 1.261 . S
C996 O1009 1.251 . S
O997 C996 1.261 . S
H998 C992 0.930 . S
H999 C994 0.930 . S
N1000 Cu989 1.985 . S
N1000 C1002 1.335 . S
N1000 C1003 1.390 . S
N1001 C1002 1.345 . S
N1001 C1004 1.336 . S
C1002 N1000 1.335 . S
C1002 N1001 1.345 . S
C1002 H1007 0.930 . S
C1003 N1000 1.390 . S
C1003 C1004 1.346 . S
C1003 H1008 0.930 . S
C1004 N1001 1.336 . S
C1004 C1003 1.346 . S
C1004 H1011 0.929 . S
C1005 O995 1.282 . S
C1005 O1006 1.216 . S
O1006 C1005 1.216 . S
H1007 C1002 0.930 . S
H1008 C1003 0.930 . S
O1009 Cu989 1.959 . S
O1009 C996 1.251 . S
H1010 C993 0.930 . S
H1011 C1004 0.929 . S
Cu1012 N1013 1.999 . S
Cu1012 O1018 1.974 1_565 S
Cu1012 N1023 1.985 1_565 S
Cu1012 O1032 1.959 . S
N1013 Cu1012 1.999 . S
N1013 C1015 1.263 . S
N1013 C1017 1.389 . S
N1014 C1015 1.358 . S
N1014 C1016 1.400 . S
C1015 N1013 1.263 . S
C1015 N1014 1.358 . S
C1015 H1021 0.930 . S
C1016 N1014 1.400 . S
C1016 C1017 1.351 . S
C1016 H1033 0.930 . S
C1017 N1013 1.389 . S
C1017 C1016 1.351 . S
C1017 H1022 0.930 . S
O1018 Cu1012 1.974 1_545 S
O1018 C1028 1.282 . S
C1019 O1020 1.261 . S
C1019 O1032 1.251 . S
O1020 C1019 1.261 . S
H1021 C1015 0.930 . S
H1022 C1017 0.930 . S
N1023 Cu1012 1.985 1_545 S
N1023 C1025 1.335 . S
N1023 C1026 1.390 . S
N1024 C1025 1.345 . S
N1024 C1027 1.336 . S
C1025 N1023 1.335 . S
C1025 N1024 1.345 . S
C1025 H1030 0.930 . S
C1026 N1023 1.390 . S
C1026 C1027 1.346 . S
C1026 H1031 0.930 . S
C1027 N1024 1.336 . S
C1027 C1026 1.346 . S
C1027 H1034 0.929 . S
C1028 O1018 1.282 . S
C1028 O1029 1.216 . S
O1029 C1028 1.216 . S
H1030 C1025 0.930 . S
H1031 C1026 0.930 . S
O1032 Cu1012 1.959 . S
O1032 C1019 1.251 . S
H1033 C1016 0.930 . S
H1034 C1027 0.929 . S
Cu1035 N1036 1.999 . S
Cu1035 O1041 1.974 . S
Cu1035 N1046 1.985 . S
Cu1035 O1055 1.959 . S
N1036 Cu1035 1.999 . S
N1036 C1038 1.263 . S
N1036 C1040 1.389 . S
N1037 C1038 1.358 . S
N1037 C1039 1.400 . S
C1038 N1036 1.263 . S
C1038 N1037 1.358 . S
C1038 H1044 0.930 . S
C1039 N1037 1.400 . S
C1039 C1040 1.351 . S
C1039 H1056 0.930 . S
C1040 N1036 1.389 . S
C1040 C1039 1.351 . S
C1040 H1045 0.930 . S
O1041 Cu1035 1.974 . S
O1041 C1051 1.282 . S
C1042 O1043 1.261 . S
C1042 O1055 1.251 . S
O1043 C1042 1.261 . S
H1044 C1038 0.930 . S
H1045 C1040 0.930 . S
N1046 Cu1035 1.985 . S
N1046 C1048 1.335 . S
N1046 C1049 1.390 . S
N1047 C1048 1.345 . S
N1047 C1050 1.336 . S
C1048 N1046 1.335 . S
C1048 N1047 1.345 . S
C1048 H1053 0.930 . S
C1049 N1046 1.390 . S
C1049 C1050 1.346 . S
C1049 H1054 0.930 . S
C1050 N1047 1.336 . S
C1050 C1049 1.346 . S
C1050 H1057 0.929 . S
C1051 O1041 1.282 . S
C1051 O1052 1.216 . S
O1052 C1051 1.216 . S
H1053 C1048 0.930 . S
H1054 C1049 0.930 . S
O1055 Cu1035 1.959 . S
O1055 C1042 1.251 . S
H1056 C1039 0.930 . S
H1057 C1050 0.929 . S
Cu1058 N1059 1.999 . S
Cu1058 O1064 1.974 1_565 S
Cu1058 N1069 1.985 1_565 S
Cu1058 O1078 1.959 . S
N1059 Cu1058 1.999 . S
N1059 C1061 1.263 . S
N1059 C1063 1.389 . S
N1060 C1061 1.358 . S
N1060 C1062 1.400 . S
C1061 N1059 1.263 . S
C1061 N1060 1.358 . S
C1061 H1067 0.930 . S
C1062 N1060 1.400 . S
C1062 C1063 1.351 . S
C1062 H1079 0.930 . S
C1063 N1059 1.389 . S
C1063 C1062 1.351 . S
C1063 H1068 0.930 . S
O1064 Cu1058 1.974 1_545 S
O1064 C1074 1.282 . S
C1065 O1066 1.261 . S
C1065 O1078 1.251 . S
O1066 C1065 1.261 . S
H1067 C1061 0.930 . S
H1068 C1063 0.930 . S
N1069 Cu1058 1.985 1_545 S
N1069 C1071 1.335 . S
N1069 C1072 1.390 . S
N1070 C1071 1.345 . S
N1070 C1073 1.336 . S
C1071 N1069 1.335 . S
C1071 N1070 1.345 . S
C1071 H1076 0.930 . S
C1072 N1069 1.390 . S
C1072 C1073 1.346 . S
C1072 H1077 0.930 . S
C1073 N1070 1.336 . S
C1073 C1072 1.346 . S
C1073 H1080 0.929 . S
C1074 O1064 1.282 . S
C1074 O1075 1.216 . S
O1075 C1074 1.216 . S
H1076 C1071 0.930 . S
H1077 C1072 0.930 . S
O1078 Cu1058 1.959 . S
O1078 C1065 1.251 . S
H1079 C1062 0.930 . S
H1080 C1073 0.929 . S
Cu1081 N1082 1.999 . S
Cu1081 O1087 1.974 . S
Cu1081 N1092 1.985 . S
Cu1081 O1101 1.959 . S
N1082 Cu1081 1.999 . S
N1082 C1084 1.263 . S
N1082 C1086 1.389 . S
N1083 C1084 1.358 . S
N1083 C1085 1.400 . S
C1084 N1082 1.263 . S
C1084 N1083 1.358 . S
C1084 H1090 0.930 . S
C1085 N1083 1.400 . S
C1085 C1086 1.351 . S
C1085 H1102 0.930 . S
C1086 N1082 1.389 . S
C1086 C1085 1.351 . S
C1086 H1091 0.930 . S
O1087 Cu1081 1.974 . S
O1087 C1097 1.282 . S
C1088 O1089 1.261 . S
C1088 O1101 1.251 . S
O1089 C1088 1.261 . S
H1090 C1084 0.930 . S
H1091 C1086 0.930 . S
N1092 Cu1081 1.985 . S
N1092 C1094 1.335 . S
N1092 C1095 1.390 . S
N1093 C1094 1.345 . S
N1093 C1096 1.336 . S
C1094 N1092 1.335 . S
C1094 N1093 1.345 . S
C1094 H1099 0.930 . S
C1095 N1092 1.390 . S
C1095 C1096 1.346 . S
C1095 H1100 0.930 . S
C1096 N1093 1.336 . S
C1096 C1095 1.346 . S
C1096 H1103 0.929 . S
C1097 O1087 1.282 . S
C1097 O1098 1.216 . S
O1098 C1097 1.216 . S
H1099 C1094 0.930 . S
H1100 C1095 0.930 . S
O1101 Cu1081 1.959 . S
O1101 C1088 1.251 . S
H1102 C1085 0.930 . S
H1103 C1096 0.929 . S
C1104 C1105 1.369 . S
C1104 C1106 1.419 . S
C1104 H1108 0.930 . S
C1105 C1104 1.369 . S
C1105 C1114 1.429 . S
C1106 C1104 1.419 . S
C1106 C1107 1.363 . S
C1106 H1109 0.929 . S
C1107 C1106 1.363 . S
C1107 C1113 1.428 . S
H1108 C1104 0.930 . S
H1109 C1106 0.929 . S
S1110 N1111 1.613 . S
S1110 N1112 1.610 . S
N1111 S1110 1.613 . S
N1111 C1114 1.350 . S
N1112 S1110 1.610 . S
N1112 C1113 1.351 . S
C1113 C1107 1.428 . S
C1113 N1112 1.351 . S
C1113 C1114 1.434 . S
C1114 C1105 1.429 . S
C1114 N1111 1.350 . S
C1114 C1113 1.434 . S
C1115 C1116 1.369 . S
C1115 C1117 1.419 . S
C1115 H1119 0.930 . S
C1116 C1115 1.369 . S
C1116 C1125 1.429 . S
C1117 C1115 1.419 . S
C1117 C1118 1.363 1_554 S
C1117 H1120 0.929 1_554 S
C1118 C1117 1.363 1_556 S
C1118 C1124 1.428 1_556 S
H1119 C1115 0.930 . S
H1120 C1117 0.929 1_556 S
S1121 N1122 1.613 . S
S1121 N1123 1.610 . S
N1122 S1121 1.613 . S
N1122 C1125 1.350 . S
N1123 S1121 1.610 . S
N1123 C1124 1.351 . S
C1124 C1118 1.428 1_554 S
C1124 N1123 1.351 . S
C1124 C1125 1.434 . S
C1125 C1116 1.429 . S
C1125 N1122 1.350 . S
C1125 C1124 1.434 . S
C1126 C1127 1.369 . S
C1126 C1128 1.419 . S
C1126 H1130 0.930 . S
C1127 C1126 1.369 . S
C1127 C1136 1.429 . S
C1128 C1126 1.419 . S
C1128 C1129 1.363 . S
C1128 H1131 0.929 . S
C1129 C1128 1.363 . S
C1129 C1135 1.428 . S
H1130 C1126 0.930 . S
H1131 C1128 0.929 . S
S1132 N1133 1.613 . S
S1132 N1134 1.610 . S
N1133 S1132 1.613 . S
N1133 C1136 1.350 . S
N1134 S1132 1.610 . S
N1134 C1135 1.351 . S
C1135 C1129 1.428 . S
C1135 N1134 1.351 . S
C1135 C1136 1.434 . S
C1136 C1127 1.429 . S
C1136 N1133 1.350 . S
C1136 C1135 1.434 . S
C1137 C1138 1.369 1_554 S
C1137 C1139 1.419 . S
C1137 H1141 0.930 . S
C1138 C1137 1.369 1_556 S
C1138 C1147 1.423 1_556 S
C1139 C1137 1.419 . S
C1139 C1140 1.363 . S
C1139 H1142 0.929 . S
C1140 C1139 1.363 . S
C1140 C1146 1.428 . S
H1141 C1137 0.930 . S
H1142 C1139 0.929 . S
S1143 N1144 1.596 1_554 S
S1143 N1145 1.640 . S
N1144 S1143 1.596 1_556 S
N1144 C1147 1.334 1_556 S
N1145 S1143 1.640 . S
N1145 C1146 1.351 . S
C1146 C1140 1.428 . S
C1146 N1145 1.351 . S
C1146 C1147 1.458 . S
C1147 C1138 1.423 1_554 S
C1147 N1144 1.334 1_554 S
C1147 C1146 1.458 . S
C1148 C1149 1.369 . S
C1148 C1150 1.419 . S
C1148 H1152 0.930 . S
C1149 C1148 1.369 . S
C1149 C1158 1.429 . S
C1150 C1148 1.419 . S
C1150 C1151 1.363 . S
C1150 H1153 0.929 . S
C1151 C1150 1.363 . S
C1151 C1157 1.428 . S
H1152 C1148 0.930 . S
H1153 C1150 0.929 . S
S1154 N1155 1.613 . S
S1154 N1156 1.610 . S
N1155 S1154 1.613 . S
N1155 C1158 1.350 . S
N1156 S1154 1.610 . S
N1156 C1157 1.351 . S
C1157 C1151 1.428 . S
C1157 N1156 1.351 . S
C1157 C1158 1.434 . S
C1158 C1149 1.429 . S
C1158 N1155 1.350 . S
C1158 C1157 1.434 . S
C1159 C1160 1.369 1_556 S
C1159 C1161 1.419 . S
C1159 H1163 0.930 . S
C1160 C1159 1.369 1_554 S
C1160 C1169 1.429 . S
C1161 C1159 1.419 . S
C1161 C1162 1.363 . S
C1161 H1164 0.929 . S
C1162 C1161 1.363 . S
C1162 C1168 1.428 . S
H1163 C1159 0.930 . S
H1164 C1161 0.929 . S
S1165 N1166 1.613 . S
S1165 N1167 1.610 1_554 S
N1166 S1165 1.613 . S
N1166 C1169 1.350 . S
N1167 S1165 1.610 1_556 S
N1167 C1168 1.351 . S
C1168 C1162 1.428 . S
C1168 N1167 1.351 . S
C1168 C1169 1.434 1_556 S
C1169 C1160 1.429 . S
C1169 N1166 1.350 . S
C1169 C1168 1.434 1_554 S
C1170 C1171 1.369 . S
C1170 C1172 1.419 . S
C1170 H1174 0.930 . S
C1171 C1170 1.369 . S
C1171 C1180 1.429 . S
C1172 C1170 1.419 . S
C1172 C1173 1.363 . S
C1172 H1175 0.929 . S
C1173 C1172 1.363 . S
C1173 C1179 1.428 . S
H1174 C1170 0.930 . S
H1175 C1172 0.929 . S
S1176 N1177 1.613 . S
S1176 N1178 1.610 . S
N1177 S1176 1.613 . S
N1177 C1180 1.350 . S
N1178 S1176 1.610 . S
N1178 C1179 1.351 . S
C1179 C1173 1.428 . S
C1179 N1178 1.351 . S
C1179 C1180 1.434 . S
C1180 C1171 1.429 . S
C1180 N1177 1.350 . S
C1180 C1179 1.434 . S
C1181 C1182 1.369 . S
C1181 C1183 1.419 . S
C1181 H1185 0.930 . S
C1182 C1181 1.369 . S
C1182 C1191 1.429 . S
C1183 C1181 1.419 . S
C1183 C1184 1.363 1_556 S
C1183 H1186 0.929 1_556 S
C1184 C1183 1.363 1_554 S
C1184 C1190 1.428 1_554 S
H1185 C1181 0.930 . S
H1186 C1183 0.929 1_554 S
S1187 N1188 1.613 . S
S1187 N1189 1.610 . S
N1188 S1187 1.613 . S
N1188 C1191 1.350 . S
N1189 S1187 1.610 . S
N1189 C1190 1.351 . S
C1190 C1184 1.428 1_556 S
C1190 N1189 1.351 . S
C1190 C1191 1.434 . S
C1191 C1182 1.429 . S
C1191 N1188 1.350 . S
C1191 C1190 1.434 . S
C1192 C1193 1.369 . S
C1192 C1194 1.419 . S
C1192 H1196 0.930 . S
C1193 C1192 1.369 . S
C1193 C1202 1.429 . S
C1194 C1192 1.419 . S
C1194 C1195 1.363 . S
C1194 H1197 0.929 . S
C1195 C1194 1.363 . S
C1195 C1201 1.428 . S
H1196 C1192 0.930 . S
H1197 C1194 0.929 . S
S1198 N1199 1.613 . S
S1198 N1200 1.610 . S
N1199 S1198 1.613 . S
N1199 C1202 1.350 . S
N1200 S1198 1.610 . S
N1200 C1201 1.351 . S
C1201 C1195 1.428 . S
C1201 N1200 1.351 . S
C1201 C1202 1.434 . S
C1202 C1193 1.429 . S
C1202 N1199 1.350 . S
C1202 C1201 1.434 . S
C1203 C1204 1.369 . S
C1203 C1205 1.419 . S
C1203 H1207 0.930 . S
C1204 C1203 1.369 . S
C1204 C1213 1.429 . S
C1205 C1203 1.419 . S
C1205 C1206 1.363 . S
C1205 H1208 0.929 . S
C1206 C1205 1.363 . S
C1206 C1212 1.428 . S
H1207 C1203 0.930 . S
H1208 C1205 0.929 . S
S1209 N1210 1.613 . S
S1209 N1211 1.610 . S
N1210 S1209 1.613 . S
N1210 C1213 1.350 . S
N1211 S1209 1.610 . S
N1211 C1212 1.351 . S
C1212 C1206 1.428 . S
C1212 N1211 1.351 . S
C1212 C1213 1.434 . S
C1213 C1204 1.429 . S
C1213 N1210 1.350 . S
C1213 C1212 1.434 . S
C1214 C1215 1.369 . S
C1214 C1216 1.419 . S
C1214 H1218 0.930 . S
C1215 C1214 1.369 . S
C1215 C1224 1.429 . S
C1216 C1214 1.419 . S
C1216 C1217 1.363 . S
C1216 H1219 0.929 . S
C1217 C1216 1.363 . S
C1217 C1223 1.428 . S
H1218 C1214 0.930 . S
H1219 C1216 0.929 . S
S1220 N1221 1.613 . S
S1220 N1222 1.610 . S
N1221 S1220 1.613 . S
N1221 C1224 1.350 . S
N1222 S1220 1.610 . S
N1222 C1223 1.351 . S
C1223 C1217 1.428 . S
C1223 N1222 1.351 . S
C1223 C1224 1.434 . S
C1224 C1215 1.429 . S
C1224 N1221 1.350 . S
C1224 C1223 1.434 . S
C1225 C1226 1.369 . S
C1225 C1227 1.419 . S
C1225 H1229 0.930 . S
C1226 C1225 1.369 . S
C1226 C1235 1.429 . S
C1227 C1225 1.419 . S
C1227 C1228 1.363 1_565 S
C1227 H1230 0.929 . S
C1228 C1227 1.363 1_545 S
C1228 C1234 1.428 1_545 S
H1229 C1225 0.930 . S
H1230 C1227 0.929 . S
S1231 N1232 1.613 . S
S1231 N1233 1.610 1_565 S
N1232 S1231 1.613 . S
N1232 C1235 1.350 . S
N1233 S1231 1.610 1_545 S
N1233 C1234 1.351 1_545 S
C1234 C1228 1.428 1_565 S
C1234 N1233 1.351 1_565 S
C1234 C1235 1.434 . S
C1235 C1226 1.429 . S
C1235 N1232 1.350 . S
C1235 C1234 1.434 . S
C1236 C1237 1.369 . S
C1236 C1238 1.419 . S
C1236 H1240 0.930 . S
C1237 C1236 1.369 . S
C1237 C1246 1.429 . S
C1238 C1236 1.419 . S
C1238 C1239 1.363 . S
C1238 H1241 0.929 . S
C1239 C1238 1.363 . S
C1239 C1245 1.428 . S
H1240 C1236 0.930 . S
H1241 C1238 0.929 . S
S1242 N1243 1.613 . S
S1242 N1244 1.610 . S
N1243 S1242 1.613 . S
N1243 C1246 1.350 . S
N1244 S1242 1.610 . S
N1244 C1245 1.351 . S
C1245 C1239 1.428 . S
C1245 N1244 1.351 . S
C1245 C1246 1.434 . S
C1246 C1237 1.429 . S
C1246 N1243 1.350 . S
C1246 C1245 1.434 . S
C1247 C1248 1.369 . S
C1247 C1249 1.419 . S
C1247 H1251 0.930 . S
C1248 C1247 1.369 . S
C1248 C1257 1.429 . S
C1249 C1247 1.419 . S
C1249 C1250 1.363 . S
C1249 H1252 0.929 . S
C1250 C1249 1.363 . S
C1250 C1256 1.428 . S
H1251 C1247 0.930 . S
H1252 C1249 0.929 . S
S1253 N1254 1.613 . S
S1253 N1255 1.610 . S
N1254 S1253 1.613 . S
N1254 C1257 1.350 . S
N1255 S1253 1.610 . S
N1255 C1256 1.351 . S
C1256 C1250 1.428 . S
C1256 N1255 1.351 . S
C1256 C1257 1.434 . S
C1257 C1248 1.429 . S
C1257 N1254 1.350 . S
C1257 C1256 1.434 . S
C1258 C1259 1.369 . S
C1258 C1260 1.419 . S
C1258 H1262 0.930 . S
C1259 C1258 1.369 . S
C1259 C1268 1.429 . S
C1260 C1258 1.419 . S
C1260 C1261 1.363 . S
C1260 H1263 0.929 . S
C1261 C1260 1.363 . S
C1261 C1267 1.428 . S
H1262 C1258 0.930 . S
H1263 C1260 0.929 . S
S1264 N1265 1.613 . S
S1264 N1266 1.610 . S
N1265 S1264 1.613 . S
N1265 C1268 1.350 . S
N1266 S1264 1.610 . S
N1266 C1267 1.351 . S
C1267 C1261 1.428 . S
C1267 N1266 1.351 . S
C1267 C1268 1.434 . S
C1268 C1259 1.429 . S
C1268 N1265 1.350 . S
C1268 C1267 1.434 . S
C1269 C1270 1.369 1_565 S
C1269 C1271 1.419 . S
C1269 H1273 0.930 1_565 S
C1270 C1269 1.369 1_545 S
C1270 C1279 1.429 1_545 S
C1271 C1269 1.419 . S
C1271 C1272 1.363 . S
C1271 H1274 0.929 . S
C1272 C1271 1.363 . S
C1272 C1278 1.428 . S
H1273 C1269 0.930 1_545 S
H1274 C1271 0.929 . S
S1275 N1276 1.613 . S
S1275 N1277 1.610 . S
N1276 S1275 1.613 . S
N1276 C1279 1.350 . S
N1277 S1275 1.610 . S
N1277 C1278 1.351 . S
C1278 C1272 1.428 . S
C1278 N1277 1.351 . S
C1278 C1279 1.434 . S
C1279 C1270 1.429 1_565 S
C1279 N1276 1.350 . S
C1279 C1278 1.434 . S
C1280 C1281 1.369 . S
C1280 C1282 1.419 . S
C1280 H1284 0.930 . S
C1281 C1280 1.369 . S
C1281 C1290 1.429 . S
C1282 C1280 1.419 . S
C1282 C1283 1.363 . S
C1282 H1285 0.929 . S
C1283 C1282 1.363 . S
C1283 C1289 1.428 . S
H1284 C1280 0.930 . S
H1285 C1282 0.929 . S
S1286 N1287 1.613 . S
S1286 N1288 1.610 . S
N1287 S1286 1.613 . S
N1287 C1290 1.350 . S
N1288 S1286 1.610 . S
N1288 C1289 1.351 . S
C1289 C1283 1.428 . S
C1289 N1288 1.351 . S
C1289 C1290 1.434 . S
C1290 C1281 1.429 . S
C1290 N1287 1.350 . S
C1290 C1289 1.434 . S
C1291 C1292 1.369 . S
C1291 C1293 1.419 . S
C1291 H1295 0.930 . S
C1292 C1291 1.369 . S
C1292 C1301 1.429 . S
C1293 C1291 1.419 . S
C1293 C1294 1.363 . S
C1293 H1296 0.929 . S
C1294 C1293 1.363 . S
C1294 C1300 1.428 . S
H1295 C1291 0.930 . S
H1296 C1293 0.929 . S
S1297 N1298 1.613 . S
S1297 N1299 1.610 . S
N1298 S1297 1.613 . S
N1298 C1301 1.350 . S
N1299 S1297 1.610 . S
N1299 C1300 1.351 . S
C1300 C1294 1.428 . S
C1300 N1299 1.351 . S
C1300 C1301 1.434 . S
C1301 C1292 1.429 . S
C1301 N1298 1.350 . S
C1301 C1300 1.434 . S
C1302 C1303 1.369 1_455 S
C1302 C1304 1.419 . S
C1302 H1306 0.930 . S
C1303 C1302 1.369 1_655 S
C1303 C1312 1.429 . S
C1304 C1302 1.419 . S
C1304 C1305 1.363 . S
C1304 H1307 0.929 . S
C1305 C1304 1.363 . S
C1305 C1311 1.428 . S
H1306 C1302 0.930 . S
H1307 C1304 0.929 . S
S1308 N1309 1.613 . S
S1308 N1310 1.610 1_655 S
N1309 S1308 1.613 . S
N1309 C1312 1.350 . S
N1310 S1308 1.610 1_455 S
N1310 C1311 1.351 . S
C1311 C1305 1.428 . S
C1311 N1310 1.351 . S
C1311 C1312 1.434 1_455 S
C1312 C1303 1.429 . S
C1312 N1309 1.350 . S
C1312 C1311 1.434 1_655 S
C1313 C1314 1.369 . S
C1313 C1315 1.419 . S
C1313 H1317 0.930 . S
C1314 C1313 1.369 . S
C1314 C1323 1.429 . S
C1315 C1313 1.419 . S
C1315 C1316 1.363 . S
C1315 H1318 0.929 . S
C1316 C1315 1.363 . S
C1316 C1322 1.428 . S
H1317 C1313 0.930 . S
H1318 C1315 0.929 . S
S1319 N1320 1.613 . S
S1319 N1321 1.610 . S
N1320 S1319 1.613 . S
N1320 C1323 1.350 . S
N1321 S1319 1.610 . S
N1321 C1322 1.351 . S
C1322 C1316 1.428 . S
C1322 N1321 1.351 . S
C1322 C1323 1.434 . S
C1323 C1314 1.429 . S
C1323 N1320 1.350 . S
C1323 C1322 1.434 . S
C1324 C1325 1.369 . S
C1324 C1326 1.419 . S
C1324 H1328 0.930 . S
C1325 C1324 1.369 . S
C1325 C1334 1.429 . S
C1326 C1324 1.419 . S
C1326 C1327 1.363 . S
C1326 H1329 0.929 . S
C1327 C1326 1.363 . S
C1327 C1333 1.428 . S
H1328 C1324 0.930 . S
H1329 C1326 0.929 . S
S1330 N1331 1.613 . S
S1330 N1332 1.610 . S
N1331 S1330 1.613 . S
N1331 C1334 1.350 . S
N1332 S1330 1.610 . S
N1332 C1333 1.351 . S
C1333 C1327 1.428 . S
C1333 N1332 1.351 . S
C1333 C1334 1.434 . S
C1334 C1325 1.429 . S
C1334 N1331 1.350 . S
C1334 C1333 1.434 . S
C1335 C1336 1.369 . S
C1335 C1337 1.419 . S
C1335 H1339 0.930 . S
C1336 C1335 1.369 . S
C1336 C1345 1.429 . S
C1337 C1335 1.419 . S
C1337 C1338 1.363 . S
C1337 H1340 0.929 . S
C1338 C1337 1.363 . S
C1338 C1344 1.428 . S
H1339 C1335 0.930 . S
H1340 C1337 0.929 . S
S1341 N1342 1.613 . S
S1341 N1343 1.610 . S
N1342 S1341 1.613 . S
N1342 C1345 1.350 . S
N1343 S1341 1.610 . S
N1343 C1344 1.351 . S
C1344 C1338 1.428 . S
C1344 N1343 1.351 . S
C1344 C1345 1.434 . S
C1345 C1336 1.429 . S
C1345 N1342 1.350 . S
C1345 C1344 1.434 . S
C1346 C1347 1.369 . S
C1346 C1348 1.419 . S
C1346 H1350 0.930 . S
C1347 C1346 1.369 . S
C1347 C1356 1.429 . S
C1348 C1346 1.419 . S
C1348 C1349 1.363 1_455 S
C1348 H1351 0.929 1_455 S
C1349 C1348 1.363 1_655 S
C1349 C1355 1.428 1_655 S
H1350 C1346 0.930 . S
H1351 C1348 0.929 1_655 S
S1352 N1353 1.613 . S
S1352 N1354 1.610 . S
N1353 S1352 1.613 . S
N1353 C1356 1.350 . S
N1354 S1352 1.610 . S
N1354 C1355 1.351 . S
C1355 C1349 1.428 1_455 S
C1355 N1354 1.351 . S
C1355 C1356 1.434 . S
C1356 C1347 1.429 . S
C1356 N1353 1.350 . S
C1356 C1355 1.434 . S
C1357 C1358 1.369 . S
C1357 C1359 1.419 . S
C1357 H1361 0.930 . S
C1358 C1357 1.369 . S
C1358 C1367 1.429 . S
C1359 C1357 1.419 . S
C1359 C1360 1.363 1_655 S
C1359 H1362 0.929 . S
C1360 C1359 1.363 1_455 S
C1360 C1366 1.430 . S
H1361 C1357 0.930 . S
H1362 C1359 0.929 . S
S1363 N1364 1.613 1_455 S
S1363 N1365 1.610 . S
N1364 S1363 1.613 1_655 S
N1364 C1367 1.350 . S
N1365 S1363 1.610 . S
N1365 C1366 1.357 . S
C1366 C1360 1.430 . S
C1366 N1365 1.357 . S
C1366 C1367 1.426 1_455 S
C1367 C1358 1.429 . S
C1367 N1364 1.350 . S
C1367 C1366 1.426 1_655 S
C1368 C1369 1.369 . S
C1368 C1370 1.419 . S
C1368 H1372 0.930 . S
C1369 C1368 1.369 . S
C1369 C1378 1.429 . S
C1370 C1368 1.419 . S
C1370 C1371 1.363 . S
C1370 H1373 0.929 . S
C1371 C1370 1.363 . S
C1371 C1377 1.428 . S
H1372 C1368 0.930 . S
H1373 C1370 0.929 . S
S1374 N1375 1.613 . S
S1374 N1376 1.610 . S
N1375 S1374 1.613 . S
N1375 C1378 1.350 . S
N1376 S1374 1.610 . S
N1376 C1377 1.351 . S
C1377 C1371 1.428 . S
C1377 N1376 1.351 . S
C1377 C1378 1.434 . S
C1378 C1369 1.429 . S
C1378 N1375 1.350 . S
C1378 C1377 1.434 . S
C1379 C1380 1.369 . S
C1379 C1381 1.419 . S
C1379 H1383 0.930 . S
C1380 C1379 1.369 . S
C1380 C1389 1.429 . S
C1381 C1379 1.419 . S
C1381 C1382 1.363 . S
C1381 H1384 0.929 . S
C1382 C1381 1.363 . S
C1382 C1388 1.428 . S
H1383 C1379 0.930 . S
H1384 C1381 0.929 . S
S1385 N1386 1.613 . S
S1385 N1387 1.610 . S
N1386 S1385 1.613 . S
N1386 C1389 1.350 . S
N1387 S1385 1.610 . S
N1387 C1388 1.351 . S
C1388 C1382 1.428 . S
C1388 N1387 1.351 . S
C1388 C1389 1.434 . S
C1389 C1380 1.429 . S
C1389 N1386 1.350 . S
C1389 C1388 1.434 . S
C1390 C1391 1.369 . S
C1390 C1392 1.419 . S
C1390 H1394 0.930 . S
C1391 C1390 1.369 . S
C1391 C1400 1.429 . S
C1392 C1390 1.419 . S
C1392 C1393 1.363 . S
C1392 H1395 0.929 . S
C1393 C1392 1.363 . S
C1393 C1399 1.428 . S
H1394 C1390 0.930 . S
H1395 C1392 0.929 . S
S1396 N1397 1.613 . S
S1396 N1398 1.610 . S
N1397 S1396 1.613 . S
N1397 C1400 1.350 . S
N1398 S1396 1.610 . S
N1398 C1399 1.351 . S
C1399 C1393 1.428 . S
C1399 N1398 1.351 . S
C1399 C1400 1.434 . S
C1400 C1391 1.429 . S
C1400 N1397 1.350 . S
C1400 C1399 1.434 . S
C1401 C1402 1.369 . S
C1401 C1403 1.419 . S
C1401 H1405 0.930 . S
C1402 C1401 1.369 . S
C1402 C1411 1.429 . S
C1403 C1401 1.419 . S
C1403 C1404 1.363 . S
C1403 H1406 0.929 . S
C1404 C1403 1.363 . S
C1404 C1410 1.428 . S
H1405 C1401 0.930 . S
H1406 C1403 0.929 . S
S1407 N1408 1.613 . S
S1407 N1409 1.610 . S
N1408 S1407 1.613 . S
N1408 C1411 1.350 . S
N1409 S1407 1.610 . S
N1409 C1410 1.351 . S
C1410 C1404 1.428 . S
C1410 N1409 1.351 . S
C1410 C1411 1.434 . S
C1411 C1402 1.429 . S
C1411 N1408 1.350 . S
C1411 C1410 1.434 . S
C1412 C1413 1.369 . S
C1412 C1414 1.419 . S
C1412 H1416 0.930 . S
C1413 C1412 1.369 . S
C1413 C1422 1.429 . S
C1414 C1412 1.419 . S
C1414 C1415 1.363 . S
C1414 H1417 0.929 . S
C1415 C1414 1.363 . S
C1415 C1421 1.428 . S
H1416 C1412 0.930 . S
H1417 C1414 0.929 . S
S1418 N1419 1.613 . S
S1418 N1420 1.610 . S
N1419 S1418 1.613 . S
N1419 C1422 1.350 . S
N1420 S1418 1.610 . S
N1420 C1421 1.351 . S
C1421 C1415 1.428 . S
C1421 N1420 1.351 . S
C1421 C1422 1.434 . S
C1422 C1413 1.429 . S
C1422 N1419 1.350 . S
C1422 C1421 1.434 . S
C1423 C1424 1.369 . S
C1423 C1425 1.419 . S
C1423 H1427 0.930 . S
C1424 C1423 1.369 . S
C1424 C1433 1.429 . S
C1425 C1423 1.419 . S
C1425 C1426 1.363 . S
C1425 H1428 0.929 . S
C1426 C1425 1.363 . S
C1426 C1432 1.428 . S
H1427 C1423 0.930 . S
H1428 C1425 0.929 . S
S1429 N1430 1.613 . S
S1429 N1431 1.610 . S
N1430 S1429 1.613 . S
N1430 C1433 1.350 . S
N1431 S1429 1.610 . S
N1431 C1432 1.351 . S
C1432 C1426 1.428 . S
C1432 N1431 1.351 . S
C1432 C1433 1.434 . S
C1433 C1424 1.429 . S
C1433 N1430 1.350 . S
C1433 C1432 1.434 . S
C1434 C1435 1.369 . S
C1434 C1436 1.419 . S
C1434 H1438 0.930 . S
C1435 C1434 1.369 . S
C1435 C1444 1.429 . S
C1436 C1434 1.419 . S
C1436 C1437 1.363 . S
C1436 H1439 0.929 . S
C1437 C1436 1.363 . S
C1437 C1443 1.428 . S
H1438 C1434 0.930 . S
H1439 C1436 0.929 . S
S1440 N1441 1.613 . S
S1440 N1442 1.610 . S
N1441 S1440 1.613 . S
N1441 C1444 1.350 . S
N1442 S1440 1.610 . S
N1442 C1443 1.351 . S
C1443 C1437 1.428 . S
C1443 N1442 1.351 . S
C1443 C1444 1.434 . S
C1444 C1435 1.429 . S
C1444 N1441 1.350 . S
C1444 C1443 1.434 . S
C1445 C1446 1.369 . S
C1445 C1447 1.419 . S
C1445 H1449 0.930 . S
C1446 C1445 1.369 . S
C1446 C1455 1.429 . S
C1447 C1445 1.419 . S
C1447 C1448 1.363 . S
C1447 H1450 0.929 . S
C1448 C1447 1.363 . S
C1448 C1454 1.428 . S
H1449 C1445 0.930 . S
H1450 C1447 0.929 . S
S1451 N1452 1.613 . S
S1451 N1453 1.610 . S
N1452 S1451 1.613 . S
N1452 C1455 1.350 . S
N1453 S1451 1.610 . S
N1453 C1454 1.351 . S
C1454 C1448 1.428 . S
C1454 N1453 1.351 . S
C1454 C1455 1.434 . S
C1455 C1446 1.429 . S
C1455 N1452 1.350 . S
C1455 C1454 1.434 . S
C1456 C1457 1.369 . S
C1456 C1458 1.419 . S
C1456 H1460 0.930 . S
C1457 C1456 1.369 . S
C1457 C1466 1.429 . S
C1458 C1456 1.419 . S
C1458 C1459 1.363 . S
C1458 H1461 0.929 . S
C1459 C1458 1.363 . S
C1459 C1465 1.428 . S
H1460 C1456 0.930 . S
H1461 C1458 0.929 . S
S1462 N1463 1.613 . S
S1462 N1464 1.610 . S
N1463 S1462 1.613 . S
N1463 C1466 1.350 . S
N1464 S1462 1.610 . S
N1464 C1465 1.351 . S
C1465 C1459 1.428 . S
C1465 N1464 1.351 . S
C1465 C1466 1.434 . S
C1466 C1457 1.429 . S
C1466 N1463 1.350 . S
C1466 C1465 1.434 . S
C1467 C1468 1.369 1_545 S
C1467 C1469 1.419 . S
C1467 H1471 0.930 . S
C1468 C1467 1.369 1_565 S
C1468 C1477 1.429 1_565 S
C1469 C1467 1.419 . S
C1469 C1470 1.363 . S
C1469 H1472 0.929 . S
C1470 C1469 1.363 . S
C1470 C1476 1.428 . S
H1471 C1467 0.930 . S
H1472 C1469 0.929 . S
S1473 N1474 1.613 1_545 S
S1473 N1475 1.610 . S
N1474 S1473 1.613 1_565 S
N1474 C1477 1.350 1_565 S
N1475 S1473 1.610 . S
N1475 C1476 1.351 . S
C1476 C1470 1.428 . S
C1476 N1475 1.351 . S
C1476 C1477 1.434 . S
C1477 C1468 1.429 1_545 S
C1477 N1474 1.350 1_545 S
C1477 C1476 1.434 . S
C1478 C1479 1.369 . S
C1478 C1480 1.419 . S
C1478 H1482 0.930 . S
C1479 C1478 1.369 . S
C1479 C1488 1.429 . S
C1480 C1478 1.419 . S
C1480 C1481 1.363 . S
C1480 H1483 0.929 . S
C1481 C1480 1.363 . S
C1481 C1487 1.428 . S
H1482 C1478 0.930 . S
H1483 C1480 0.929 . S
S1484 N1485 1.613 . S
S1484 N1486 1.610 . S
N1485 S1484 1.613 . S
N1485 C1488 1.350 . S
N1486 S1484 1.610 . S
N1486 C1487 1.351 . S
C1487 C1481 1.428 . S
C1487 N1486 1.351 . S
C1487 C1488 1.434 . S
C1488 C1479 1.429 . S
C1488 N1485 1.350 . S
C1488 C1487 1.434 . S
C1489 C1490 1.369 . S
C1489 C1491 1.419 . S
C1489 H1493 0.930 . S
C1490 C1489 1.369 . S
C1490 C1499 1.429 . S
C1491 C1489 1.419 . S
C1491 C1492 1.363 . S
C1491 H1494 0.929 . S
C1492 C1491 1.363 . S
C1492 C1498 1.428 . S
H1493 C1489 0.930 . S
H1494 C1491 0.929 . S
S1495 N1496 1.613 1_655 S
S1495 N1497 1.610 1_655 S
N1496 S1495 1.613 1_455 S
N1496 C1499 1.350 . S
N1497 S1495 1.610 1_455 S
N1497 C1498 1.351 . S
C1498 C1492 1.428 . S
C1498 N1497 1.351 . S
C1498 C1499 1.434 . S
C1499 C1490 1.429 . S
C1499 N1496 1.350 . S
C1499 C1498 1.434 . S
C1500 C1501 1.369 . S
C1500 C1502 1.419 . S
C1500 H1504 0.930 . S
C1501 C1500 1.369 . S
C1501 C1510 1.429 . S
C1502 C1500 1.419 . S
C1502 C1503 1.363 . S
C1502 H1505 0.929 . S
C1503 C1502 1.363 . S
C1503 C1509 1.428 . S
H1504 C1500 0.930 . S
H1505 C1502 0.929 . S
S1506 N1507 1.613 . S
S1506 N1508 1.610 . S
N1507 S1506 1.613 . S
N1507 C1510 1.350 . S
N1508 S1506 1.610 . S
N1508 C1509 1.351 . S
C1509 C1503 1.428 . S
C1509 N1508 1.351 . S
C1509 C1510 1.434 . S
C1510 C1501 1.429 . S
C1510 N1507 1.350 . S
C1510 C1509 1.434 . S
C1511 C1512 1.369 1_545 S
C1511 C1513 1.419 . S
C1511 H1515 0.930 . S
C1512 C1511 1.369 1_565 S
C1512 C1521 1.433 . S
C1513 C1511 1.419 . S
C1513 C1514 1.363 . S
C1513 H1516 0.929 . S
C1514 C1513 1.363 . S
C1514 C1520 1.428 . S
H1515 C1511 0.930 . S
H1516 C1513 0.929 . S
S1517 N1518 1.613 . S
S1517 N1519 1.610 1_565 S
N1518 S1517 1.613 . S
N1518 C1521 1.364 . S
N1519 S1517 1.610 1_545 S
N1519 C1520 1.351 . S
C1520 C1514 1.428 . S
C1520 N1519 1.351 . S
C1520 C1521 1.413 1_545 S
C1521 C1512 1.433 . S
C1521 N1518 1.364 . S
C1521 C1520 1.413 1_565 S
C1522 C1523 1.369 . S
C1522 C1524 1.419 . S
C1522 H1526 0.930 . S
C1523 C1522 1.369 . S
C1523 C1532 1.429 . S
C1524 C1522 1.419 . S
C1524 C1525 1.363 . S
C1524 H1527 0.929 . S
C1525 C1524 1.363 . S
C1525 C1531 1.428 . S
H1526 C1522 0.930 . S
H1527 C1524 0.929 . S
S1528 N1529 1.613 . S
S1528 N1530 1.610 . S
N1529 S1528 1.613 . S
N1529 C1532 1.350 . S
N1530 S1528 1.610 . S
N1530 C1531 1.351 . S
C1531 C1525 1.428 . S
C1531 N1530 1.351 . S
C1531 C1532 1.434 . S
C1532 C1523 1.429 . S
C1532 N1529 1.350 . S
C1532 C1531 1.434 . S
C1533 C1534 1.369 . S
C1533 C1535 1.419 . S
C1533 H1537 0.930 . S
C1534 C1533 1.369 . S
C1534 C1543 1.429 . S
C1535 C1533 1.419 . S
C1535 C1536 1.363 . S
C1535 H1538 0.929 . S
C1536 C1535 1.363 . S
C1536 C1542 1.428 . S
H1537 C1533 0.930 . S
H1538 C1535 0.929 . S
S1539 N1540 1.613 . S
S1539 N1541 1.610 . S
N1540 S1539 1.613 . S
N1540 C1543 1.350 . S
N1541 S1539 1.610 . S
N1541 C1542 1.351 . S
C1542 C1536 1.428 . S
C1542 N1541 1.351 . S
C1542 C1543 1.434 . S
C1543 C1534 1.429 . S
C1543 N1540 1.350 . S
C1543 C1542 1.434 . S
C1544 C1545 1.369 . S
C1544 C1546 1.419 . S
C1544 H1548 0.930 . S
C1545 C1544 1.369 . S
C1545 C1554 1.429 . S
C1546 C1544 1.419 . S
C1546 C1547 1.363 . S
C1546 H1549 0.929 . S
C1547 C1546 1.363 . S
C1547 C1553 1.428 . S
H1548 C1544 0.930 . S
H1549 C1546 0.929 . S
S1550 N1551 1.613 . S
S1550 N1552 1.610 . S
N1551 S1550 1.613 . S
N1551 C1554 1.350 . S
N1552 S1550 1.610 . S
N1552 C1553 1.351 . S
C1553 C1547 1.428 . S
C1553 N1552 1.351 . S
C1553 C1554 1.434 . S
C1554 C1545 1.429 . S
C1554 N1551 1.350 . S
C1554 C1553 1.434 . S
C1555 C1556 1.369 . S
C1555 C1557 1.419 . S
C1555 H1559 0.930 . S
C1556 C1555 1.369 . S
C1556 C1565 1.429 . S
C1557 C1555 1.419 . S
C1557 C1558 1.363 . S
C1557 H1560 0.929 . S
C1558 C1557 1.363 . S
C1558 C1564 1.428 . S
H1559 C1555 0.930 . S
H1560 C1557 0.929 . S
S1561 N1562 1.613 . S
S1561 N1563 1.610 . S
N1562 S1561 1.613 . S
N1562 C1565 1.350 . S
N1563 S1561 1.610 . S
N1563 C1564 1.351 . S
C1564 C1558 1.428 . S
C1564 N1563 1.351 . S
C1564 C1565 1.434 . S
C1565 C1556 1.429 . S
C1565 N1562 1.350 . S
C1565 C1564 1.434 . S
C1566 C1567 1.369 . S
C1566 C1568 1.419 . S
C1566 H1570 0.930 . S
C1567 C1566 1.369 . S
C1567 C1576 1.429 . S
C1568 C1566 1.419 . S
C1568 C1569 1.363 . S
C1568 H1571 0.929 . S
C1569 C1568 1.363 . S
C1569 C1575 1.428 . S
H1570 C1566 0.930 . S
H1571 C1568 0.929 . S
S1572 N1573 1.613 . S
S1572 N1574 1.610 . S
N1573 S1572 1.613 . S
N1573 C1576 1.350 . S
N1574 S1572 1.610 . S
N1574 C1575 1.351 . S
C1575 C1569 1.428 . S
C1575 N1574 1.351 . S
C1575 C1576 1.434 . S
C1576 C1567 1.429 . S
C1576 N1573 1.350 . S
C1576 C1575 1.434 . S
C1577 C1578 1.369 . S
C1577 C1579 1.419 . S
C1577 H1581 0.930 . S
C1578 C1577 1.369 . S
C1578 C1587 1.429 . S
C1579 C1577 1.419 . S
C1579 C1580 1.363 . S
C1579 H1582 0.929 . S
C1580 C1579 1.363 . S
C1580 C1586 1.428 . S
H1581 C1577 0.930 . S
H1582 C1579 0.929 . S
S1583 N1584 1.613 . S
S1583 N1585 1.610 . S
N1584 S1583 1.613 . S
N1584 C1587 1.350 . S
N1585 S1583 1.610 . S
N1585 C1586 1.351 . S
C1586 C1580 1.428 . S
C1586 N1585 1.351 . S
C1586 C1587 1.434 . S
C1587 C1578 1.429 . S
C1587 N1584 1.350 . S
C1587 C1586 1.434 . S
C1588 C1589 1.369 1_655 S
C1588 C1590 1.419 . S
C1588 H1592 0.930 1_655 S
C1589 C1588 1.369 1_455 S
C1589 C1598 1.429 1_455 S
C1590 C1588 1.419 . S
C1590 C1591 1.363 . S
C1590 H1593 0.929 . S
C1591 C1590 1.363 . S
C1591 C1597 1.428 . S
H1592 C1588 0.930 1_455 S
H1593 C1590 0.929 . S
S1594 N1595 1.613 . S
S1594 N1596 1.610 . S
N1595 S1594 1.613 . S
N1595 C1598 1.350 . S
N1596 S1594 1.610 . S
N1596 C1597 1.351 . S
C1597 C1591 1.428 . S
C1597 N1596 1.351 . S
C1597 C1598 1.434 . S
C1598 C1589 1.429 1_655 S
C1598 N1595 1.350 . S
C1598 C1597 1.434 . S
C1599 C1600 1.369 . S
C1599 C1601 1.419 . S
C1599 H1603 0.930 . S
C1600 C1599 1.369 . S
C1600 C1609 1.429 . S
C1601 C1599 1.419 . S
C1601 C1602 1.363 . S
C1601 H1604 0.929 . S
C1602 C1601 1.363 . S
C1602 C1608 1.428 . S
H1603 C1599 0.930 . S
H1604 C1601 0.929 . S
S1605 N1606 1.613 . S
S1605 N1607 1.610 . S
N1606 S1605 1.613 . S
N1606 C1609 1.350 . S
N1607 S1605 1.610 . S
N1607 C1608 1.351 . S
C1608 C1602 1.428 . S
C1608 N1607 1.351 . S
C1608 C1609 1.434 . S
C1609 C1600 1.429 . S
C1609 N1606 1.350 . S
C1609 C1608 1.434 . S
C1610 C1611 1.369 . S
C1610 C1612 1.419 . S
C1610 H1614 0.930 . S
C1611 C1610 1.369 . S
C1611 C1620 1.429 . S
C1612 C1610 1.419 . S
C1612 C1613 1.363 . S
C1612 H1615 0.929 . S
C1613 C1612 1.363 . S
C1613 C1619 1.428 . S
H1614 C1610 0.930 . S
H1615 C1612 0.929 . S
S1616 N1617 1.613 1_565 S
S1616 N1618 1.610 1_565 S
N1617 S1616 1.613 1_545 S
N1617 C1620 1.350 . S
N1618 S1616 1.610 1_545 S
N1618 C1619 1.351 . S
C1619 C1613 1.428 . S
C1619 N1618 1.351 . S
C1619 C1620 1.434 . S
C1620 C1611 1.429 . S
C1620 N1617 1.350 . S
C1620 C1619 1.434 . S
C1621 C1622 1.369 . S
C1621 C1623 1.419 . S
C1621 H1625 0.930 . S
C1622 C1621 1.369 . S
C1622 C1631 1.429 . S
C1623 C1621 1.419 . S
C1623 C1624 1.363 . S
C1623 H1626 0.929 . S
C1624 C1623 1.363 . S
C1624 C1630 1.428 . S
H1625 C1621 0.930 . S
H1626 C1623 0.929 . S
S1627 N1628 1.613 . S
S1627 N1629 1.610 . S
N1628 S1627 1.613 . S
N1628 C1631 1.350 . S
N1629 S1627 1.610 . S
N1629 C1630 1.351 . S
C1630 C1624 1.428 . S
C1630 N1629 1.351 . S
C1630 C1631 1.434 . S
C1631 C1622 1.429 . S
C1631 N1628 1.350 . S
C1631 C1630 1.434 . S
C1632 C1633 1.369 . S
C1632 C1634 1.419 . S
C1632 H1636 0.930 . S
C1633 C1632 1.369 . S
C1633 C1642 1.429 . S
C1634 C1632 1.419 . S
C1634 C1635 1.363 . S
C1634 H1637 0.929 . S
C1635 C1634 1.363 . S
C1635 C1641 1.428 . S
H1636 C1632 0.930 . S
H1637 C1634 0.929 . S
S1638 N1639 1.613 . S
S1638 N1640 1.610 . S
N1639 S1638 1.613 . S
N1639 C1642 1.350 . S
N1640 S1638 1.610 . S
N1640 C1641 1.351 . S
C1641 C1635 1.428 . S
C1641 N1640 1.351 . S
C1641 C1642 1.434 . S
C1642 C1633 1.429 . S
C1642 N1639 1.350 . S
C1642 C1641 1.434 . S
C1643 C1644 1.369 . S
C1643 C1645 1.419 . S
C1643 H1647 0.930 . S
C1644 C1643 1.369 . S
C1644 C1653 1.429 . S
C1645 C1643 1.419 . S
C1645 C1646 1.363 . S
C1645 H1648 0.929 . S
C1646 C1645 1.363 . S
C1646 C1652 1.428 . S
H1647 C1643 0.930 . S
H1648 C1645 0.929 . S
S1649 N1650 1.613 . S
S1649 N1651 1.610 . S
N1650 S1649 1.613 . S
N1650 C1653 1.350 . S
N1651 S1649 1.610 . S
N1651 C1652 1.351 . S
C1652 C1646 1.428 . S
C1652 N1651 1.351 . S
C1652 C1653 1.434 . S
C1653 C1644 1.429 . S
C1653 N1650 1.350 . S
C1653 C1652 1.434 . S
C1654 C1655 1.369 . S
C1654 C1656 1.419 . S
C1654 H1658 0.930 . S
C1655 C1654 1.369 . S
C1655 C1664 1.429 . S
C1656 C1654 1.419 . S
C1656 C1657 1.363 . S
C1656 H1659 0.929 . S
C1657 C1656 1.363 . S
C1657 C1663 1.428 . S
H1658 C1654 0.930 . S
H1659 C1656 0.929 . S
S1660 N1661 1.613 . S
S1660 N1662 1.610 . S
N1661 S1660 1.613 . S
N1661 C1664 1.350 . S
N1662 S1660 1.610 . S
N1662 C1663 1.351 . S
C1663 C1657 1.428 . S
C1663 N1662 1.351 . S
C1663 C1664 1.434 . S
C1664 C1655 1.429 . S
C1664 N1661 1.350 . S
C1664 C1663 1.434 . S
C1665 C1666 1.369 . S
C1665 C1667 1.419 . S
C1665 H1669 0.930 . S
C1666 C1665 1.369 . S
C1666 C1675 1.429 . S
C1667 C1665 1.419 . S
C1667 C1668 1.363 . S
C1667 H1670 0.929 . S
C1668 C1667 1.363 . S
C1668 C1674 1.428 . S
H1669 C1665 0.930 . S
H1670 C1667 0.929 . S
S1671 N1672 1.613 . S
S1671 N1673 1.610 . S
N1672 S1671 1.613 . S
N1672 C1675 1.350 . S
N1673 S1671 1.610 . S
N1673 C1674 1.351 . S
C1674 C1668 1.428 . S
C1674 N1673 1.351 . S
C1674 C1675 1.434 . S
C1675 C1666 1.429 . S
C1675 N1672 1.350 . S
C1675 C1674 1.434 . S
C1676 C1677 1.369 . S
C1676 C1678 1.419 . S
C1676 H1680 0.930 . S
C1677 C1676 1.369 . S
C1677 C1686 1.429 . S
C1678 C1676 1.419 . S
C1678 C1679 1.363 . S
C1678 H1681 0.929 . S
C1679 C1678 1.363 . S
C1679 C1685 1.428 . S
H1680 C1676 0.930 . S
H1681 C1678 0.929 . S
S1682 N1683 1.613 . S
S1682 N1684 1.610 . S
N1683 S1682 1.613 . S
N1683 C1686 1.350 . S
N1684 S1682 1.610 . S
N1684 C1685 1.351 . S
C1685 C1679 1.428 . S
C1685 N1684 1.351 . S
C1685 C1686 1.434 . S
C1686 C1677 1.429 . S
C1686 N1683 1.350 . S
C1686 C1685 1.434 . S
C1687 C1688 1.369 . S
C1687 C1689 1.419 . S
C1687 H1691 0.930 . S
C1688 C1687 1.369 . S
C1688 C1697 1.429 . S
C1689 C1687 1.419 . S
C1689 C1690 1.363 . S
C1689 H1692 0.929 . S
C1690 C1689 1.363 . S
C1690 C1696 1.428 . S
H1691 C1687 0.930 . S
H1692 C1689 0.929 . S
S1693 N1694 1.613 . S
S1693 N1695 1.610 . S
N1694 S1693 1.613 . S
N1694 C1697 1.350 . S
N1695 S1693 1.610 . S
N1695 C1696 1.351 . S
C1696 C1690 1.428 . S
C1696 N1695 1.351 . S
C1696 C1697 1.434 . S
C1697 C1688 1.429 . S
C1697 N1694 1.350 . S
C1697 C1696 1.434 . S
C1698 C1699 1.369 . S
C1698 C1700 1.419 . S
C1698 H1702 0.930 . S
C1699 C1698 1.369 . S
C1699 C1708 1.429 . S
C1700 C1698 1.419 . S
C1700 C1701 1.363 . S
C1700 H1703 0.929 . S
C1701 C1700 1.363 . S
C1701 C1707 1.428 . S
H1702 C1698 0.930 . S
H1703 C1700 0.929 . S
S1704 N1705 1.613 . S
S1704 N1706 1.610 . S
N1705 S1704 1.613 . S
N1705 C1708 1.350 . S
N1706 S1704 1.610 . S
N1706 C1707 1.351 . S
C1707 C1701 1.428 . S
C1707 N1706 1.351 . S
C1707 C1708 1.434 . S
C1708 C1699 1.429 . S
C1708 N1705 1.350 . S
C1708 C1707 1.434 . S
C1709 C1710 1.369 . S
C1709 C1711 1.419 . S
C1709 H1713 0.930 . S
C1710 C1709 1.369 . S
C1710 C1719 1.429 . S
C1711 C1709 1.419 . S
C1711 C1712 1.363 . S
C1711 H1714 0.929 . S
C1712 C1711 1.363 . S
C1712 C1718 1.428 . S
H1713 C1709 0.930 . S
H1714 C1711 0.929 . S
S1715 N1716 1.613 . S
S1715 N1717 1.610 . S
N1716 S1715 1.613 . S
N1716 C1719 1.350 . S
N1717 S1715 1.610 . S
N1717 C1718 1.351 . S
C1718 C1712 1.428 . S
C1718 N1717 1.351 . S
C1718 C1719 1.434 . S
C1719 C1710 1.429 . S
C1719 N1716 1.350 . S
C1719 C1718 1.434 . S
C1720 C1721 1.369 . S
C1720 C1722 1.419 . S
C1720 H1724 0.930 . S
C1721 C1720 1.369 . S
C1721 C1730 1.429 . S
C1722 C1720 1.419 . S
C1722 C1723 1.363 . S
C1722 H1725 0.929 . S
C1723 C1722 1.363 . S
C1723 C1729 1.428 . S
H1724 C1720 0.930 . S
H1725 C1722 0.929 . S
S1726 N1727 1.613 . S
S1726 N1728 1.610 . S
N1727 S1726 1.613 . S
N1727 C1730 1.350 . S
N1728 S1726 1.610 . S
N1728 C1729 1.351 . S
C1729 C1723 1.428 . S
C1729 N1728 1.351 . S
C1729 C1730 1.434 . S
C1730 C1721 1.429 . S
C1730 N1727 1.350 . S
C1730 C1729 1.434 . S
C1731 C1732 1.369 . S
C1731 C1733 1.419 . S
C1731 H1735 0.930 . S
C1732 C1731 1.369 . S
C1732 C1741 1.429 . S
C1733 C1731 1.419 . S
C1733 C1734 1.363 . S
C1733 H1736 0.929 . S
C1734 C1733 1.363 . S
C1734 C1740 1.428 . S
H1735 C1731 0.930 . S
H1736 C1733 0.929 . S
S1737 N1738 1.613 . S
S1737 N1739 1.610 . S
N1738 S1737 1.613 . S
N1738 C1741 1.350 . S
N1739 S1737 1.610 . S
N1739 C1740 1.351 . S
C1740 C1734 1.428 . S
C1740 N1739 1.351 . S
C1740 C1741 1.434 . S
C1741 C1732 1.429 . S
C1741 N1738 1.350 . S
C1741 C1740 1.434 . S
C1742 C1743 1.369 . S
C1742 C1744 1.419 . S
C1742 H1746 0.930 . S
C1743 C1742 1.369 . S
C1743 C1752 1.429 . S
C1744 C1742 1.419 . S
C1744 C1745 1.363 . S
C1744 H1747 0.929 . S
C1745 C1744 1.363 . S
C1745 C1751 1.428 . S
H1746 C1742 0.930 . S
H1747 C1744 0.929 . S
S1748 N1749 1.613 . S
S1748 N1750 1.610 . S
N1749 S1748 1.613 . S
N1749 C1752 1.350 . S
N1750 S1748 1.610 . S
N1750 C1751 1.351 . S
C1751 C1745 1.428 . S
C1751 N1750 1.351 . S
C1751 C1752 1.434 . S
C1752 C1743 1.429 . S
C1752 N1749 1.350 . S
C1752 C1751 1.434 . S
C1753 C1754 1.369 . S
C1753 C1755 1.419 . S
C1753 H1757 0.930 . S
C1754 C1753 1.369 . S
C1754 C1763 1.429 . S
C1755 C1753 1.419 . S
C1755 C1756 1.363 . S
C1755 H1758 0.929 . S
C1756 C1755 1.363 . S
C1756 C1762 1.428 . S
H1757 C1753 0.930 . S
H1758 C1755 0.929 . S
S1759 N1760 1.613 . S
S1759 N1761 1.610 . S
N1760 S1759 1.613 . S
N1760 C1763 1.350 . S
N1761 S1759 1.610 . S
N1761 C1762 1.351 . S
C1762 C1756 1.428 . S
C1762 N1761 1.351 . S
C1762 C1763 1.434 . S
C1763 C1754 1.429 . S
C1763 N1760 1.350 . S
C1763 C1762 1.434 . S
C1764 C1765 1.369 . S
C1764 C1766 1.419 . S
C1764 H1768 0.930 . S
C1765 C1764 1.369 . S
C1765 C1774 1.429 . S
C1766 C1764 1.419 . S
C1766 C1767 1.363 . S
C1766 H1769 0.929 . S
C1767 C1766 1.363 . S
C1767 C1773 1.428 . S
H1768 C1764 0.930 . S
H1769 C1766 0.929 . S
S1770 N1771 1.613 . S
S1770 N1772 1.610 . S
N1771 S1770 1.613 . S
N1771 C1774 1.350 . S
N1772 S1770 1.610 . S
N1772 C1773 1.351 . S
C1773 C1767 1.428 . S
C1773 N1772 1.351 . S
C1773 C1774 1.434 . S
C1774 C1765 1.429 . S
C1774 N1771 1.350 . S
C1774 C1773 1.434 . S
C1775 C1776 1.369 . S
C1775 C1777 1.419 . S
C1775 H1779 0.930 . S
C1776 C1775 1.369 . S
C1776 C1785 1.429 . S
C1777 C1775 1.419 . S
C1777 C1778 1.363 . S
C1777 H1780 0.929 . S
C1778 C1777 1.363 . S
C1778 C1784 1.428 . S
H1779 C1775 0.930 . S
H1780 C1777 0.929 . S
S1781 N1782 1.613 . S
S1781 N1783 1.610 . S
N1782 S1781 1.613 . S
N1782 C1785 1.350 . S
N1783 S1781 1.610 . S
N1783 C1784 1.351 . S
C1784 C1778 1.428 . S
C1784 N1783 1.351 . S
C1784 C1785 1.434 . S
C1785 C1776 1.429 . S
C1785 N1782 1.350 . S
C1785 C1784 1.434 . S
C1786 C1787 1.369 . S
C1786 C1788 1.419 . S
C1786 H1790 0.930 . S
C1787 C1786 1.369 . S
C1787 C1796 1.429 . S
C1788 C1786 1.419 . S
C1788 C1789 1.363 . S
C1788 H1791 0.929 . S
C1789 C1788 1.363 . S
C1789 C1795 1.428 . S
H1790 C1786 0.930 . S
H1791 C1788 0.929 . S
S1792 N1793 1.613 . S
S1792 N1794 1.610 . S
N1793 S1792 1.613 . S
N1793 C1796 1.350 . S
N1794 S1792 1.610 . S
N1794 C1795 1.351 . S
C1795 C1789 1.428 . S
C1795 N1794 1.351 . S
C1795 C1796 1.434 . S
C1796 C1787 1.429 . S
C1796 N1793 1.350 . S
C1796 C1795 1.434 . S
C1797 C1798 1.369 . S
C1797 C1799 1.419 . S
C1797 H1801 0.930 . S
C1798 C1797 1.369 . S
C1798 C1807 1.429 . S
C1799 C1797 1.419 . S
C1799 C1800 1.363 . S
C1799 H1802 0.929 . S
C1800 C1799 1.363 . S
C1800 C1806 1.428 . S
H1801 C1797 0.930 . S
H1802 C1799 0.929 . S
S1803 N1804 1.613 . S
S1803 N1805 1.610 . S
N1804 S1803 1.613 . S
N1804 C1807 1.350 . S
N1805 S1803 1.610 . S
N1805 C1806 1.351 . S
C1806 C1800 1.428 . S
C1806 N1805 1.351 . S
C1806 C1807 1.434 . S
C1807 C1798 1.429 . S
C1807 N1804 1.350 . S
C1807 C1806 1.434 . S
C1808 C1809 1.369 . S
C1808 C1810 1.419 . S
C1808 H1812 0.930 . S
C1809 C1808 1.369 . S
C1809 C1818 1.429 . S
C1810 C1808 1.419 . S
C1810 C1811 1.363 . S
C1810 H1813 0.929 . S
C1811 C1810 1.363 . S
C1811 C1817 1.428 . S
H1812 C1808 0.930 . S
H1813 C1810 0.929 . S
S1814 N1815 1.613 . S
S1814 N1816 1.610 . S
N1815 S1814 1.613 . S
N1815 C1818 1.350 . S
N1816 S1814 1.610 . S
N1816 C1817 1.351 . S
C1817 C1811 1.428 . S
C1817 N1816 1.351 . S
C1817 C1818 1.434 . S
C1818 C1809 1.429 . S
C1818 N1815 1.350 . S
C1818 C1817 1.434 . S
C1819 C1820 1.369 . S
C1819 C1821 1.419 . S
C1819 H1823 0.930 . S
C1820 C1819 1.369 . S
C1820 C1829 1.429 . S
C1821 C1819 1.419 . S
C1821 C1822 1.363 . S
C1821 H1824 0.929 . S
C1822 C1821 1.363 . S
C1822 C1828 1.428 . S
H1823 C1819 0.930 . S
H1824 C1821 0.929 . S
S1825 N1826 1.613 . S
S1825 N1827 1.610 . S
N1826 S1825 1.613 . S
N1826 C1829 1.350 . S
N1827 S1825 1.610 . S
N1827 C1828 1.351 . S
C1828 C1822 1.428 . S
C1828 N1827 1.351 . S
C1828 C1829 1.434 . S
C1829 C1820 1.429 . S
C1829 N1826 1.350 . S
C1829 C1828 1.434 . S
C1830 C1831 1.369 . S
C1830 C1832 1.419 . S
C1830 H1834 0.930 . S
C1831 C1830 1.369 . S
C1831 C1840 1.429 . S
C1832 C1830 1.419 . S
C1832 C1833 1.363 . S
C1832 H1835 0.929 . S
C1833 C1832 1.363 . S
C1833 C1839 1.428 . S
H1834 C1830 0.930 . S
H1835 C1832 0.929 . S
S1836 N1837 1.613 . S
S1836 N1838 1.610 . S
N1837 S1836 1.613 . S
N1837 C1840 1.350 . S
N1838 S1836 1.610 . S
N1838 C1839 1.351 . S
C1839 C1833 1.428 . S
C1839 N1838 1.351 . S
C1839 C1840 1.434 . S
C1840 C1831 1.429 . S
C1840 N1837 1.350 . S
C1840 C1839 1.434 . S
C1841 C1842 1.369 . S
C1841 C1843 1.419 . S
C1841 H1845 0.930 . S
C1842 C1841 1.369 . S
C1842 C1851 1.429 . S
C1843 C1841 1.419 . S
C1843 C1844 1.363 . S
C1843 H1846 0.929 . S
C1844 C1843 1.363 . S
C1844 C1850 1.428 . S
H1845 C1841 0.930 . S
H1846 C1843 0.929 . S
S1847 N1848 1.613 . S
S1847 N1849 1.610 . S
N1848 S1847 1.613 . S
N1848 C1851 1.350 . S
N1849 S1847 1.610 . S
N1849 C1850 1.351 . S
C1850 C1844 1.428 . S
C1850 N1849 1.351 . S
C1850 C1851 1.434 . S
C1851 C1842 1.429 . S
C1851 N1848 1.350 . S
C1851 C1850 1.434 . S
C1852 C1853 1.369 . S
C1852 C1854 1.419 . S
C1852 H1856 0.930 . S
C1853 C1852 1.369 . S
C1853 C1862 1.429 . S
C1854 C1852 1.419 . S
C1854 C1855 1.363 . S
C1854 H1857 0.929 . S
C1855 C1854 1.363 . S
C1855 C1861 1.428 . S
H1856 C1852 0.930 . S
H1857 C1854 0.929 . S
S1858 N1859 1.613 . S
S1858 N1860 1.610 . S
N1859 S1858 1.613 . S
N1859 C1862 1.350 . S
N1860 S1858 1.610 . S
N1860 C1861 1.351 . S
C1861 C1855 1.428 . S
C1861 N1860 1.351 . S
C1861 C1862 1.434 . S
C1862 C1853 1.429 . S
C1862 N1859 1.350 . S
C1862 C1861 1.434 . S
C1863 C1864 1.369 . S
C1863 C1865 1.419 . S
C1863 H1867 0.930 . S
C1864 C1863 1.369 . S
C1864 C1873 1.429 . S
C1865 C1863 1.419 . S
C1865 C1866 1.363 . S
C1865 H1868 0.929 . S
C1866 C1865 1.363 . S
C1866 C1872 1.428 . S
H1867 C1863 0.930 . S
H1868 C1865 0.929 . S
S1869 N1870 1.613 . S
S1869 N1871 1.610 . S
N1870 S1869 1.613 . S
N1870 C1873 1.350 . S
N1871 S1869 1.610 . S
N1871 C1872 1.351 . S
C1872 C1866 1.428 . S
C1872 N1871 1.351 . S
C1872 C1873 1.434 . S
C1873 C1864 1.429 . S
C1873 N1870 1.350 . S
C1873 C1872 1.434 . S
C1874 C1875 1.369 . S
C1874 C1876 1.419 . S
C1874 H1878 0.930 . S
C1875 C1874 1.369 . S
C1875 C1884 1.429 . S
C1876 C1874 1.419 . S
C1876 C1877 1.363 . S
C1876 H1879 0.929 . S
C1877 C1876 1.363 . S
C1877 C1883 1.428 . S
H1878 C1874 0.930 . S
H1879 C1876 0.929 . S
S1880 N1881 1.613 . S
S1880 N1882 1.610 . S
N1881 S1880 1.613 . S
N1881 C1884 1.350 . S
N1882 S1880 1.610 . S
N1882 C1883 1.351 . S
C1883 C1877 1.428 . S
C1883 N1882 1.351 . S
C1883 C1884 1.434 . S
C1884 C1875 1.429 . S
C1884 N1881 1.350 . S
C1884 C1883 1.434 . S
C1885 C1886 1.369 . S
C1885 C1887 1.419 . S
C1885 H1889 0.930 . S
C1886 C1885 1.369 . S
C1886 C1895 1.429 . S
C1887 C1885 1.419 . S
C1887 C1888 1.363 . S
C1887 H1890 0.929 . S
C1888 C1887 1.363 . S
C1888 C1894 1.428 . S
H1889 C1885 0.930 . S
H1890 C1887 0.929 . S
S1891 N1892 1.613 . S
S1891 N1893 1.610 . S
N1892 S1891 1.613 . S
N1892 C1895 1.350 . S
N1893 S1891 1.610 . S
N1893 C1894 1.351 . S
C1894 C1888 1.428 . S
C1894 N1893 1.351 . S
C1894 C1895 1.434 . S
C1895 C1886 1.429 . S
C1895 N1892 1.350 . S
C1895 C1894 1.434 . S
C1896 C1897 1.369 . S
C1896 C1898 1.419 . S
C1896 H1900 0.930 . S
C1897 C1896 1.369 . S
C1897 C1906 1.429 . S
C1898 C1896 1.419 . S
C1898 C1899 1.363 . S
C1898 H1901 0.929 . S
C1899 C1898 1.363 . S
C1899 C1905 1.428 . S
H1900 C1896 0.930 . S
H1901 C1898 0.929 . S
S1902 N1903 1.613 . S
S1902 N1904 1.610 . S
N1903 S1902 1.613 . S
N1903 C1906 1.350 . S
N1904 S1902 1.610 . S
N1904 C1905 1.351 . S
C1905 C1899 1.428 . S
C1905 N1904 1.351 . S
C1905 C1906 1.434 . S
C1906 C1897 1.429 . S
C1906 N1903 1.350 . S
C1906 C1905 1.434 . S
C1907 C1908 1.369 . S
C1907 C1909 1.419 . S
C1907 H1911 0.930 . S
C1908 C1907 1.369 . S
C1908 C1917 1.429 . S
C1909 C1907 1.419 . S
C1909 C1910 1.363 . S
C1909 H1912 0.929 . S
C1910 C1909 1.363 . S
C1910 C1916 1.428 . S
H1911 C1907 0.930 . S
H1912 C1909 0.929 . S
S1913 N1914 1.613 . S
S1913 N1915 1.610 . S
N1914 S1913 1.613 . S
N1914 C1917 1.350 . S
N1915 S1913 1.610 . S
N1915 C1916 1.351 . S
C1916 C1910 1.428 . S
C1916 N1915 1.351 . S
C1916 C1917 1.434 . S
C1917 C1908 1.429 . S
C1917 N1914 1.350 . S
C1917 C1916 1.434 . S
C1918 C1919 1.369 . S
C1918 C1920 1.419 . S
C1918 H1922 0.930 . S
C1919 C1918 1.369 . S
C1919 C1928 1.429 . S
C1920 C1918 1.419 . S
C1920 C1921 1.363 . S
C1920 H1923 0.929 . S
C1921 C1920 1.363 . S
C1921 C1927 1.428 . S
H1922 C1918 0.930 . S
H1923 C1920 0.929 . S
S1924 N1925 1.613 . S
S1924 N1926 1.610 . S
N1925 S1924 1.613 . S
N1925 C1928 1.350 . S
N1926 S1924 1.610 . S
N1926 C1927 1.351 . S
C1927 C1921 1.428 . S
C1927 N1926 1.351 . S
C1927 C1928 1.434 . S
C1928 C1919 1.429 . S
C1928 N1925 1.350 . S
C1928 C1927 1.434 . S
C1929 C1930 1.369 . S
C1929 C1931 1.419 . S
C1929 H1933 0.930 . S
C1930 C1929 1.369 . S
C1930 C1939 1.429 . S
C1931 C1929 1.419 . S
C1931 C1932 1.363 . S
C1931 H1934 0.929 . S
C1932 C1931 1.363 . S
C1932 C1938 1.428 . S
H1933 C1929 0.930 . S
H1934 C1931 0.929 . S
S1935 N1936 1.613 . S
S1935 N1937 1.610 . S
N1936 S1935 1.613 . S
N1936 C1939 1.350 . S
N1937 S1935 1.610 . S
N1937 C1938 1.351 . S
C1938 C1932 1.428 . S
C1938 N1937 1.351 . S
C1938 C1939 1.434 . S
C1939 C1930 1.429 . S
C1939 N1936 1.350 . S
C1939 C1938 1.434 . S
C1940 C1941 1.369 . S
C1940 C1942 1.419 . S
C1940 H1944 0.930 . S
C1941 C1940 1.369 . S
C1941 C1950 1.429 . S
C1942 C1940 1.419 . S
C1942 C1943 1.363 . S
C1942 H1945 0.929 . S
C1943 C1942 1.363 . S
C1943 C1949 1.428 . S
H1944 C1940 0.930 . S
H1945 C1942 0.929 . S
S1946 N1947 1.613 . S
S1946 N1948 1.610 . S
N1947 S1946 1.613 . S
N1947 C1950 1.350 . S
N1948 S1946 1.610 . S
N1948 C1949 1.351 . S
C1949 C1943 1.428 . S
C1949 N1948 1.351 . S
C1949 C1950 1.434 . S
C1950 C1941 1.429 . S
C1950 N1947 1.350 . S
C1950 C1949 1.434 . S
C1951 C1952 1.369 . S
C1951 C1953 1.419 . S
C1951 H1955 0.930 . S
C1952 C1951 1.369 . S
C1952 C1961 1.429 . S
C1953 C1951 1.419 . S
C1953 C1954 1.363 . S
C1953 H1956 0.929 . S
C1954 C1953 1.363 . S
C1954 C1960 1.428 . S
H1955 C1951 0.930 . S
H1956 C1953 0.929 . S
S1957 N1958 1.613 . S
S1957 N1959 1.610 . S
N1958 S1957 1.613 . S
N1958 C1961 1.350 . S
N1959 S1957 1.610 . S
N1959 C1960 1.351 . S
C1960 C1954 1.428 . S
C1960 N1959 1.351 . S
C1960 C1961 1.434 . S
C1961 C1952 1.429 . S
C1961 N1958 1.350 . S
C1961 C1960 1.434 . S
C1962 C1963 1.369 . S
C1962 C1964 1.419 . S
C1962 H1966 0.930 . S
C1963 C1962 1.369 . S
C1963 C1972 1.429 . S
C1964 C1962 1.419 . S
C1964 C1965 1.363 . S
C1964 H1967 0.929 . S
C1965 C1964 1.363 . S
C1965 C1971 1.428 . S
H1966 C1962 0.930 . S
H1967 C1964 0.929 . S
S1968 N1969 1.613 . S
S1968 N1970 1.610 . S
N1969 S1968 1.613 . S
N1969 C1972 1.350 . S
N1970 S1968 1.610 . S
N1970 C1971 1.351 . S
C1971 C1965 1.428 . S
C1971 N1970 1.351 . S
C1971 C1972 1.434 . S
C1972 C1963 1.429 . S
C1972 N1969 1.350 . S
C1972 C1971 1.434 . S
C1973 C1974 1.369 . S
C1973 C1975 1.419 . S
C1973 H1977 0.930 . S
C1974 C1973 1.369 . S
C1974 C1983 1.429 . S
C1975 C1973 1.419 . S
C1975 C1976 1.363 . S
C1975 H1978 0.929 . S
C1976 C1975 1.363 . S
C1976 C1982 1.428 . S
H1977 C1973 0.930 . S
H1978 C1975 0.929 . S
S1979 N1980 1.613 . S
S1979 N1981 1.610 . S
N1980 S1979 1.613 . S
N1980 C1983 1.350 . S
N1981 S1979 1.610 . S
N1981 C1982 1.351 . S
C1982 C1976 1.428 . S
C1982 N1981 1.351 . S
C1982 C1983 1.434 . S
C1983 C1974 1.429 . S
C1983 N1980 1.350 . S
C1983 C1982 1.434 . S
C1984 C1985 1.369 . S
C1984 C1986 1.419 . S
C1984 H1988 0.930 . S
C1985 C1984 1.369 . S
C1985 C1994 1.429 . S
C1986 C1984 1.419 . S
C1986 C1987 1.363 . S
C1986 H1989 0.929 . S
C1987 C1986 1.363 . S
C1987 C1993 1.428 . S
H1988 C1984 0.930 . S
H1989 C1986 0.929 . S
S1990 N1991 1.613 . S
S1990 N1992 1.610 . S
N1991 S1990 1.613 . S
N1991 C1994 1.350 . S
N1992 S1990 1.610 . S
N1992 C1993 1.351 . S
C1993 C1987 1.428 . S
C1993 N1992 1.351 . S
C1993 C1994 1.434 . S
C1994 C1985 1.429 . S
C1994 N1991 1.350 . S
C1994 C1993 1.434 . S
C1995 C1996 1.369 . S
C1995 C1997 1.419 . S
C1995 H1999 0.930 . S
C1996 C1995 1.369 . S
C1996 C2005 1.429 . S
C1997 C1995 1.419 . S
C1997 C1998 1.363 . S
C1997 H2000 0.929 . S
C1998 C1997 1.363 . S
C1998 C2004 1.428 . S
H1999 C1995 0.930 . S
H2000 C1997 0.929 . S
S2001 N2002 1.613 . S
S2001 N2003 1.610 . S
N2002 S2001 1.613 . S
N2002 C2005 1.350 . S
N2003 S2001 1.610 . S
N2003 C2004 1.351 . S
C2004 C1998 1.428 . S
C2004 N2003 1.351 . S
C2004 C2005 1.434 . S
C2005 C1996 1.429 . S
C2005 N2002 1.350 . S
C2005 C2004 1.434 . S
C2006 C2007 1.369 . S
C2006 C2008 1.419 . S
C2006 H2010 0.930 . S
C2007 C2006 1.369 . S
C2007 C2016 1.429 . S
C2008 C2006 1.419 . S
C2008 C2009 1.363 . S
C2008 H2011 0.929 . S
C2009 C2008 1.363 . S
C2009 C2015 1.428 . S
H2010 C2006 0.930 . S
H2011 C2008 0.929 . S
S2012 N2013 1.613 . S
S2012 N2014 1.610 . S
N2013 S2012 1.613 . S
N2013 C2016 1.350 . S
N2014 S2012 1.610 . S
N2014 C2015 1.351 . S
C2015 C2009 1.428 . S
C2015 N2014 1.351 . S
C2015 C2016 1.434 . S
C2016 C2007 1.429 . S
C2016 N2013 1.350 . S
C2016 C2015 1.434 . S
C2017 C2018 1.369 . S
C2017 C2019 1.419 . S
C2017 H2021 0.930 . S
C2018 C2017 1.369 . S
C2018 C2027 1.429 . S
C2019 C2017 1.419 . S
C2019 C2020 1.363 . S
C2019 H2022 0.929 . S
C2020 C2019 1.363 . S
C2020 C2026 1.428 . S
H2021 C2017 0.930 . S
H2022 C2019 0.929 . S
S2023 N2024 1.613 . S
S2023 N2025 1.610 . S
N2024 S2023 1.613 . S
N2024 C2027 1.350 . S
N2025 S2023 1.610 . S
N2025 C2026 1.351 . S
C2026 C2020 1.428 . S
C2026 N2025 1.351 . S
C2026 C2027 1.434 . S
C2027 C2018 1.429 . S
C2027 N2024 1.350 . S
C2027 C2026 1.434 . S
C2028 C2029 1.369 . S
C2028 C2030 1.419 . S
C2028 H2032 0.930 . S
C2029 C2028 1.369 . S
C2029 C2038 1.429 . S
C2030 C2028 1.419 . S
C2030 C2031 1.363 . S
C2030 H2033 0.929 . S
C2031 C2030 1.363 . S
C2031 C2037 1.428 . S
H2032 C2028 0.930 . S
H2033 C2030 0.929 . S
S2034 N2035 1.613 . S
S2034 N2036 1.610 . S
N2035 S2034 1.613 . S
N2035 C2038 1.350 . S
N2036 S2034 1.610 . S
N2036 C2037 1.351 . S
C2037 C2031 1.428 . S
C2037 N2036 1.351 . S
C2037 C2038 1.434 . S
C2038 C2029 1.429 . S
C2038 N2035 1.350 . S
C2038 C2037 1.434 . S
C2039 C2040 1.369 . S
C2039 C2041 1.419 . S
C2039 H2043 0.930 . S
C2040 C2039 1.369 . S
C2040 C2049 1.429 . S
C2041 C2039 1.419 . S
C2041 C2042 1.363 . S
C2041 H2044 0.929 . S
C2042 C2041 1.363 . S
C2042 C2048 1.428 . S
H2043 C2039 0.930 . S
H2044 C2041 0.929 . S
S2045 N2046 1.613 . S
S2045 N2047 1.610 . S
N2046 S2045 1.613 . S
N2046 C2049 1.350 . S
N2047 S2045 1.610 . S
N2047 C2048 1.351 . S
C2048 C2042 1.428 . S
C2048 N2047 1.351 . S
C2048 C2049 1.434 . S
C2049 C2040 1.429 . S
C2049 N2046 1.350 . S
C2049 C2048 1.434 . S
C2050 C2051 1.369 . S
C2050 C2052 1.419 . S
C2050 H2054 0.930 . S
C2051 C2050 1.369 . S
C2051 C2060 1.429 . S
C2052 C2050 1.419 . S
C2052 C2053 1.363 . S
C2052 H2055 0.929 . S
C2053 C2052 1.363 . S
C2053 C2059 1.428 . S
H2054 C2050 0.930 . S
H2055 C2052 0.929 . S
S2056 N2057 1.613 . S
S2056 N2058 1.610 . S
N2057 S2056 1.613 . S
N2057 C2060 1.350 . S
N2058 S2056 1.610 . S
N2058 C2059 1.351 . S
C2059 C2053 1.428 . S
C2059 N2058 1.351 . S
C2059 C2060 1.434 . S
C2060 C2051 1.429 . S
C2060 N2057 1.350 . S
C2060 C2059 1.434 . S
C2061 C2062 1.369 . S
C2061 C2063 1.419 . S
C2061 H2065 0.930 . S
C2062 C2061 1.369 . S
C2062 C2071 1.429 . S
C2063 C2061 1.419 . S
C2063 C2064 1.363 . S
C2063 H2066 0.929 . S
C2064 C2063 1.363 . S
C2064 C2070 1.428 . S
H2065 C2061 0.930 . S
H2066 C2063 0.929 . S
S2067 N2068 1.613 . S
S2067 N2069 1.610 . S
N2068 S2067 1.613 . S
N2068 C2071 1.350 . S
N2069 S2067 1.610 . S
N2069 C2070 1.351 . S
C2070 C2064 1.428 . S
C2070 N2069 1.351 . S
C2070 C2071 1.434 . S
C2071 C2062 1.429 . S
C2071 N2068 1.350 . S
C2071 C2070 1.434 . S
C2072 C2073 1.369 . S
C2072 C2074 1.419 . S
C2072 H2076 0.930 . S
C2073 C2072 1.369 . S
C2073 C2082 1.429 . S
C2074 C2072 1.419 . S
C2074 C2075 1.363 . S
C2074 H2077 0.929 . S
C2075 C2074 1.363 . S
C2075 C2081 1.428 . S
H2076 C2072 0.930 . S
H2077 C2074 0.929 . S
S2078 N2079 1.613 . S
S2078 N2080 1.610 . S
N2079 S2078 1.613 . S
N2079 C2082 1.350 . S
N2080 S2078 1.610 . S
N2080 C2081 1.351 . S
C2081 C2075 1.428 . S
C2081 N2080 1.351 . S
C2081 C2082 1.434 . S
C2082 C2073 1.429 . S
C2082 N2079 1.350 . S
C2082 C2081 1.434 . S
C2083 C2084 1.369 . S
C2083 C2085 1.419 . S
C2083 H2087 0.930 . S
C2084 C2083 1.369 . S
C2084 C2093 1.429 . S
C2085 C2083 1.419 . S
C2085 C2086 1.363 . S
C2085 H2088 0.929 . S
C2086 C2085 1.363 . S
C2086 C2092 1.428 . S
H2087 C2083 0.930 . S
H2088 C2085 0.929 . S
S2089 N2090 1.613 . S
S2089 N2091 1.610 . S
N2090 S2089 1.613 . S
N2090 C2093 1.350 . S
N2091 S2089 1.610 . S
N2091 C2092 1.351 . S
C2092 C2086 1.428 . S
C2092 N2091 1.351 . S
C2092 C2093 1.434 . S
C2093 C2084 1.429 . S
C2093 N2090 1.350 . S
C2093 C2092 1.434 . S
C2094 C2095 1.369 . S
C2094 C2096 1.419 . S
C2094 H2098 0.930 . S
C2095 C2094 1.369 . S
C2095 C2104 1.429 . S
C2096 C2094 1.419 . S
C2096 C2097 1.363 . S
C2096 H2099 0.929 . S
C2097 C2096 1.363 . S
C2097 C2103 1.428 . S
H2098 C2094 0.930 . S
H2099 C2096 0.929 . S
S2100 N2101 1.613 . S
S2100 N2102 1.610 . S
N2101 S2100 1.613 . S
N2101 C2104 1.350 . S
N2102 S2100 1.610 . S
N2102 C2103 1.351 . S
C2103 C2097 1.428 . S
C2103 N2102 1.351 . S
C2103 C2104 1.434 . S
C2104 C2095 1.429 . S
C2104 N2101 1.350 . S
C2104 C2103 1.434 . S
C2105 C2106 1.369 . S
C2105 C2107 1.419 . S
C2105 H2109 0.930 . S
C2106 C2105 1.369 . S
C2106 C2115 1.429 . S
C2107 C2105 1.419 . S
C2107 C2108 1.363 . S
C2107 H2110 0.929 . S
C2108 C2107 1.363 . S
C2108 C2114 1.428 . S
H2109 C2105 0.930 . S
H2110 C2107 0.929 . S
S2111 N2112 1.613 . S
S2111 N2113 1.610 . S
N2112 S2111 1.613 . S
N2112 C2115 1.350 . S
N2113 S2111 1.610 . S
N2113 C2114 1.351 . S
C2114 C2108 1.428 . S
C2114 N2113 1.351 . S
C2114 C2115 1.434 . S
C2115 C2106 1.429 . S
C2115 N2112 1.350 . S
C2115 C2114 1.434 . S
C2116 C2117 1.369 . S
C2116 C2118 1.419 . S
C2116 H2120 0.930 . S
C2117 C2116 1.369 . S
C2117 C2126 1.429 . S
C2118 C2116 1.419 . S
C2118 C2119 1.363 . S
C2118 H2121 0.929 . S
C2119 C2118 1.363 . S
C2119 C2125 1.428 . S
H2120 C2116 0.930 . S
H2121 C2118 0.929 . S
S2122 N2123 1.613 . S
S2122 N2124 1.610 . S
N2123 S2122 1.613 . S
N2123 C2126 1.350 . S
N2124 S2122 1.610 . S
N2124 C2125 1.351 . S
C2125 C2119 1.428 . S
C2125 N2124 1.351 . S
C2125 C2126 1.434 . S
C2126 C2117 1.429 . S
C2126 N2123 1.350 . S
C2126 C2125 1.434 . S
C2127 C2128 1.369 . S
C2127 C2129 1.419 . S
C2127 H2131 0.930 . S
C2128 C2127 1.369 . S
C2128 C2137 1.429 . S
C2129 C2127 1.419 . S
C2129 C2130 1.363 . S
C2129 H2132 0.929 . S
C2130 C2129 1.363 . S
C2130 C2136 1.428 . S
H2131 C2127 0.930 . S
H2132 C2129 0.929 . S
S2133 N2134 1.613 . S
S2133 N2135 1.610 . S
N2134 S2133 1.613 . S
N2134 C2137 1.350 . S
N2135 S2133 1.610 . S
N2135 C2136 1.351 . S
C2136 C2130 1.428 . S
C2136 N2135 1.351 . S
C2136 C2137 1.434 . S
C2137 C2128 1.429 . S
C2137 N2134 1.350 . S
C2137 C2136 1.434 . S
C2138 C2139 1.369 . S
C2138 C2140 1.419 . S
C2138 H2142 0.930 . S
C2139 C2138 1.369 . S
C2139 C2148 1.429 . S
C2140 C2138 1.419 . S
C2140 C2141 1.363 . S
C2140 H2143 0.929 . S
C2141 C2140 1.363 . S
C2141 C2147 1.428 . S
H2142 C2138 0.930 . S
H2143 C2140 0.929 . S
S2144 N2145 1.613 . S
S2144 N2146 1.610 . S
N2145 S2144 1.613 . S
N2145 C2148 1.350 . S
N2146 S2144 1.610 . S
N2146 C2147 1.351 . S
C2147 C2141 1.428 . S
C2147 N2146 1.351 . S
C2147 C2148 1.434 . S
C2148 C2139 1.429 . S
C2148 N2145 1.350 . S
C2148 C2147 1.434 . S
C2149 C2150 1.369 . S
C2149 C2151 1.419 . S
C2149 H2153 0.930 . S
C2150 C2149 1.369 . S
C2150 C2159 1.429 . S
C2151 C2149 1.419 . S
C2151 C2152 1.363 . S
C2151 H2154 0.929 . S
C2152 C2151 1.363 . S
C2152 C2158 1.428 . S
H2153 C2149 0.930 . S
H2154 C2151 0.929 . S
S2155 N2156 1.613 . S
S2155 N2157 1.610 . S
N2156 S2155 1.613 . S
N2156 C2159 1.350 . S
N2157 S2155 1.610 . S
N2157 C2158 1.351 . S
C2158 C2152 1.428 . S
C2158 N2157 1.351 . S
C2158 C2159 1.434 . S
C2159 C2150 1.429 . S
C2159 N2156 1.350 . S
C2159 C2158 1.434 . S
C1105 C375 1.471 . S
C1107 N12 1.464 . S
C1116 C1088 1.476 . S
C1118 N35 1.466 . S
C1127 N58 1.466 . S
C1129 C1042 1.469 . S
C1138 N81 1.467 . S
C1140 C1065 1.466 . S
C1149 C398 1.475 . S
C1151 N104 1.469 . S
C1160 N127 1.471 . S
C1162 C421 1.473 . S
C1171 N150 1.468 . S
C1173 C444 1.475 . S
C1182 C1019 1.472 . S
C1184 N173 1.461 . S
C1193 N196 1.462 . S
C1195 C7 1.472 . S
C1204 C30 1.473 . S
C1206 N219 1.465 . S
C1215 C53 1.473 . S
C1217 N242 1.464 . S
C1226 C76 1.474 . S
C1228 N265 1.468 . S
C1237 C99 1.470 . S
C1239 N288 1.465 . S
C1248 N311 1.464 . S
C1250 C122 1.468 . S
C1259 C145 1.472 . S
C1261 N334 1.463 . S
C1270 N357 1.463 . S
C1272 C168 1.469 . S
C1281 N380 1.462 . S
C1283 C191 1.473 . S
C1292 C283 1.473 . S
C1294 N403 1.463 . S
C1303 N426 1.468 . S
C1305 C306 1.466 . S
C1314 N449 1.465 . S
C1316 C329 1.474 . S
C1325 C904 1.475 . S
C1327 N472 1.464 . S
C1336 N495 1.469 . S
C1338 C789 1.469 . S
C1347 C812 1.475 . S
C1349 N518 1.469 . S
C1358 C766 1.471 . S
C1360 N541 1.472 . S
C1369 C927 1.476 . S
C1371 N564 1.467 . S
C1380 N587 1.459 . S
C1382 C536 1.469 . S
C1391 N610 1.470 . S
C1393 C490 1.471 . S
C1402 N633 1.469 . S
C1404 C513 1.472 . S
C1413 N656 1.463 . S
C1415 C950 1.471 . S
C1424 C973 1.471 . S
C1426 N679 1.458 . S
C1435 N702 1.462 . S
C1437 C996 1.471 . S
C1446 C467 1.471 . S
C1448 N725 1.467 . S
C1457 C559 1.474 . S
C1459 N748 1.466 . S
C1468 N771 1.466 . S
C1470 C582 1.468 . S
C1479 N794 1.467 . S
C1481 C605 1.473 . S
C1490 N817 1.465 . S
C1492 C628 1.466 . S
C1501 N840 1.468 . S
C1503 C651 1.472 . S
C1512 N863 1.472 . S
C1514 C674 1.473 . S
C1523 C697 1.471 . S
C1525 N886 1.469 . S
C1534 C720 1.473 . S
C1536 N909 1.467 . S
C1545 C743 1.472 . S
C1547 N932 1.467 . S
C1556 C835 1.471 . S
C1558 N955 1.470 . S
C1567 C858 1.469 . S
C1569 N978 1.469 . S
C1578 N1001 1.463 . S
C1580 C881 1.472 . S
C1589 N1024 1.463 . S
C1591 C352 1.469 . S
C1600 N1047 1.465 . S
C1602 C237 1.475 . S
C1611 C260 1.469 . S
C1613 N1070 1.462 . S
C1622 N1093 1.460 . S
C1624 C214 1.468 . S
C1633 C16 1.621 . S
C1635 N623 1.484 . S
C1644 N554 1.496 . S
C1646 C39 1.634 . S
C1655 C62 1.615 . S
C1657 N577 1.484 . S
C1666 C85 1.637 . S
C1668 N600 1.503 . S
C1677 C108 1.624 . S
C1679 N117 1.497 . S
C1688 N140 1.511 . S
C1690 C131 1.642 . S
C1699 C154 1.622 . S
C1701 N163 1.493 . S
C1710 C177 1.638 . S
C1712 N94 1.516 . S
C1721 C200 1.623 . S
C1723 N968 1.490 . S
C1732 C223 1.635 . S
C1734 N991 1.506 . S
C1743 C246 1.635 . S
C1745 N462 1.504 . S
C1754 C269 1.639 . S
C1756 N945 1.509 . S
C1765 C292 1.619 . S
C1767 N1060 1.491 . S
C1776 N370 1.510 . S
C1778 C315 1.641 . S
C1787 C338 1.628 . S
C1789 N1083 1.501 . S
C1798 N1037 1.504 . S
C1800 C361 1.642 . S
C1809 N209 1.486 . S
C1811 C384 1.617 . S
C1820 C407 1.633 . S
C1822 N899 1.507 . S
C1831 C430 1.634 . S
C1833 N830 1.497 . S
C1842 N853 1.506 . S
C1844 C453 1.634 . S
C1853 C476 1.633 . S
C1855 N324 1.502 . S
C1864 N807 1.504 . S
C1866 C499 1.629 . S
C1875 N738 1.509 . S
C1877 C522 1.636 . S
C1886 N784 1.511 . S
C1888 C545 1.642 . S
C1897 C568 1.634 . S
C1899 N71 1.506 . S
C1908 C591 1.638 . S
C1910 N2 1.508 . S
C1919 N25 1.508 . S
C1921 C614 1.638 . S
C1930 C637 1.636 . S
C1932 N48 1.515 . S
C1941 C660 1.629 . S
C1943 N669 1.503 . S
C1952 N692 1.505 . S
C1954 C683 1.630 . S
C1963 N715 1.506 . S
C1965 C706 1.632 . S
C1974 C729 1.633 . S
C1976 N646 1.498 . S
C1985 N416 1.508 . S
C1987 C752 1.633 . S
C1996 C775 1.632 . S
C1998 N439 1.504 . S
C2007 C798 1.623 . S
C2009 N1014 1.486 . S
C2018 C821 1.632 . S
C2020 N393 1.495 . S
C2029 C844 1.635 . S
C2031 N508 1.508 . S
C2040 C867 1.632 . S
C2042 N922 1.502 . S
C2051 N531 1.491 . S
C2053 C890 1.618 . S
C2062 C913 1.633 . S
C2064 N485 1.497 . S
C2073 N761 1.503 . S
C2075 C936 1.635 . S
C2084 N347 1.490 . S
C2086 C959 1.619 . S
C2095 N278 1.501 . S
C2097 C982 1.639 . S
C2106 C1005 1.618 . S
C2108 N301 1.481 . S
C2117 C1028 1.642 . S
C2119 N876 1.516 . S
C2128 N255 1.494 . S
C2130 C1051 1.618 . S
C2139 C1074 1.638 . S
C2141 N186 1.513 . S
C2150 N232 1.497 . S
C2152 C1097 1.632 . S
