# Generated by pormake.
# Topology ukg, (4)-cn, num edge types: 1
# Building blocks:
#     Node 0, Type 0, BuildingBlock: NAWXER_clean_sbu_0, # of connection points: 4
#     Node 1, Type 0, BuildingBlock: NAWXER_clean_sbu_0, # of connection points: 4
#     Node 2, Type 0, BuildingBlock: NAWXER_clean_sbu_0, # of connection points: 4
#     Node 3, Type 0, BuildingBlock: NAWXER_clean_sbu_0, # of connection points: 4
#     Node 4, Type 0, BuildingBlock: NAWXER_clean_sbu_0, # of connection points: 4
#     Node 5, Type 0, BuildingBlock: NAWXER_clean_sbu_0, # of connection points: 4
#     Node 6, Type 0, BuildingBlock: NAWXER_clean_sbu_0, # of connection points: 4
#     Node 7, Type 0, BuildingBlock: NAWXER_clean_sbu_0, # of connection points: 4
#     Edge 8, Type (0, 0), BuildingBlock: ZUJKAS_clean_linker_0, # of connection points: 2
#     Edge 9, Type (0, 0), BuildingBlock: ZUJKAS_clean_linker_0, # of connection points: 2
#     Edge 10, Type (0, 0), BuildingBlock: ZUJKAS_clean_linker_0, # of connection points: 2
#     Edge 11, Type (0, 0), BuildingBlock: ZUJKAS_clean_linker_0, # of connection points: 2
#     Edge 12, Type (0, 0), BuildingBlock: ZUJKAS_clean_linker_0, # of connection points: 2
#     Edge 13, Type (0, 0), BuildingBlock: ZUJKAS_clean_linker_0, # of connection points: 2
#     Edge 14, Type (0, 0), BuildingBlock: ZUJKAS_clean_linker_0, # of connection points: 2
#     Edge 15, Type (0, 0), BuildingBlock: ZUJKAS_clean_linker_0, # of connection points: 2
#     Edge 16, Type (0, 0), BuildingBlock: ZUJKAS_clean_linker_0, # of connection points: 2
#     Edge 17, Type (0, 0), BuildingBlock: ZUJKAS_clean_linker_0, # of connection points: 2
#     Edge 18, Type (0, 0), BuildingBlock: ZUJKAS_clean_linker_0, # of connection points: 2
#     Edge 19, Type (0, 0), BuildingBlock: ZUJKAS_clean_linker_0, # of connection points: 2
#     Edge 20, Type (0, 0), BuildingBlock: ZUJKAS_clean_linker_0, # of connection points: 2
#     Edge 21, Type (0, 0), BuildingBlock: ZUJKAS_clean_linker_0, # of connection points: 2
#     Edge 22, Type (0, 0), BuildingBlock: ZUJKAS_clean_linker_0, # of connection points: 2
#     Edge 23, Type (0, 0), BuildingBlock: ZUJKAS_clean_linker_0, # of connection points: 2
# Relax obj value: 0.100
# Max RMSD: 0.242
# Mean RMSD: 0.242
data_MOF--net-ukg--node1-NAWXER_clean_sbu_0--edge1-ZUJKAS_clean_linker_0
_symmetry_space_group_name_H-M    P1
_symmetry_Int_Tables_number       1
_symmetry_cell_setting            triclinic
loop_
_symmetry_equiv_pos_as_xyz
'x, y, z'
_cell_length_a     40.216706
_cell_length_b     40.222756
_cell_length_c     50.046304
_cell_angle_alpha  89.998142
_cell_angle_beta   89.986127
_cell_angle_gamma 90.007178
loop_
_atom_site_label
_atom_site_type_symbol
_atom_site_fract_x
_atom_site_fract_y
_atom_site_fract_z
_atom_type_partial_charge
C0 C 0.09352 0.67306 0.14943 0.0
C1 C 0.99155 0.62179 0.18147 0.0
O2 O 0.0894 0.65127 0.16745 0.0
Zn3 Zn 0.04213 0.64656 0.16433 0.0
O4 O 0.06826 0.68342 0.13615 0.0
Zn5 Zn 0.01536 0.67375 0.13603 0.0
O6 O 0.99709 0.7167 0.14363 0.0
O7 O 0.02341 0.69435 0.17787 0.0
O8 O 0.98589 0.642 0.16211 0.0
O9 O 0.02126 0.61683 0.18905 0.0
O10 O 0.03468 0.62138 0.12659 0.0
O11 O 0.0067 0.65619 0.10113 0.0
C12 C 0.00653 0.7184 0.1678 0.0
C13 C 0.0205 0.62811 0.10425 0.0
C14 C 0.33264 0.59335 0.64911 0.0
C15 C 0.38383 0.49149 0.68127 0.0
O16 O 0.35458 0.58927 0.66701 0.0
Zn17 Zn 0.35911 0.54198 0.66404 0.0
O18 O 0.3221 0.56805 0.63597 0.0
Zn19 Zn 0.3316 0.51511 0.63603 0.0
O20 O 0.28865 0.49714 0.64373 0.0
O21 O 0.31123 0.52344 0.6779 0.0
O22 O 0.3631 0.48567 0.6623 0.0
O23 O 0.3894 0.52126 0.68842 0.0
O24 O 0.38397 0.53427 0.62626 0.0
O25 O 0.34906 0.50604 0.6011 0.0
C26 C 0.28706 0.50665 0.66789 0.0
C27 C 0.37716 0.51986 0.60404 0.0
C28 C 0.49888 0.78601 0.16704 0.0
C29 C 0.48469 0.87703 0.10422 0.0
O30 O 0.50814 0.78797 0.14283 0.0
Zn31 Zn 0.48993 0.83104 0.13563 0.0
O32 O 0.48216 0.80998 0.17738 0.0
Zn33 Zn 0.46347 0.85796 0.1643 0.0
O34 O 0.4162 0.85335 0.16764 0.0
O35 O 0.43701 0.82156 0.13595 0.0
O36 O 0.4707 0.88356 0.12669 0.0
O37 O 0.49835 0.84893 0.10081 0.0
O38 O 0.51967 0.86253 0.16167 0.0
O39 O 0.48466 0.8874 0.1891 0.0
C40 C 0.41188 0.83181 0.14946 0.0
C41 C 0.51427 0.88254 0.1812 0.0
C42 C 0.1275 0.98385 0.60516 0.0
C43 C 0.2188 0.99837 0.66764 0.0
O44 O 0.1555 0.99771 0.6017 0.0
Zn45 Zn 0.17358 0.98936 0.63644 0.0
O46 O 0.12113 0.96979 0.62763 0.0
Zn47 Zn 0.14695 0.96269 0.66517 0.0
O48 O 0.11758 0.98376 0.69014 0.0
O49 O 0.14209 0.01889 0.6626 0.0
O50 O 0.19499 0.98147 0.67805 0.0
O51 O 0.21659 0.00779 0.6435 0.0
O52 O 0.18332 0.93648 0.63665 0.0
O53 O 0.15179 0.91543 0.66841 0.0
C54 C 0.12224 0.01339 0.68223 0.0
C55 C 0.17326 0.91127 0.65014 0.0
C56 C 0.01437 0.3835 0.82433 0.0
C57 C 0.91211 0.33237 0.85589 0.0
O58 O 0.01985 0.36326 0.8437 0.0
Zn59 Zn 0.99018 0.33148 0.86959 0.0
O60 O 0.98472 0.38849 0.81659 0.0
Zn61 Zn 0.96363 0.35887 0.8413 0.0
O62 O 0.97117 0.38403 0.87898 0.0
O63 O 0.99851 0.34894 0.90462 0.0
O64 O 0.91628 0.35475 0.83836 0.0
O65 O 0.93734 0.32151 0.86895 0.0
O66 O 0.00857 0.28865 0.86206 0.0
O67 O 0.98214 0.31083 0.82779 0.0
C68 C 0.98507 0.37718 0.9014 0.0
C69 C 0.99904 0.28682 0.83792 0.0
C70 C 0.71866 0.49793 0.33766 0.0
C71 C 0.62778 0.48446 0.40074 0.0
O72 O 0.69469 0.48104 0.32744 0.0
Zn73 Zn 0.64649 0.46266 0.34082 0.0
O74 O 0.71665 0.50758 0.36177 0.0
Zn75 Zn 0.67374 0.48932 0.36911 0.0
O76 O 0.68376 0.43651 0.36859 0.0
O77 O 0.65058 0.41529 0.33803 0.0
O78 O 0.65603 0.49785 0.40403 0.0
O79 O 0.62106 0.47044 0.37834 0.0
O80 O 0.61708 0.48362 0.3159 0.0
O81 O 0.64228 0.51889 0.34293 0.0
C82 C 0.67296 0.41122 0.35558 0.0
C83 C 0.62215 0.51332 0.3235 0.0
C84 C 0.51879 0.12838 0.90141 0.0
C85 C 0.50605 0.21928 0.83834 0.0
O86 O 0.53317 0.12173 0.87915 0.0
Zn87 Zn 0.54147 0.14726 0.84172 0.0
O88 O 0.50521 0.15656 0.90458 0.0
Zn89 Zn 0.51416 0.17427 0.86973 0.0
O90 O 0.48522 0.14258 0.84337 0.0
O91 O 0.52096 0.11797 0.81643 0.0
O92 O 0.49534 0.21684 0.86212 0.0
O93 O 0.52366 0.19567 0.82837 0.0
O94 O 0.58878 0.15117 0.83953 0.0
O95 O 0.5671 0.1846 0.86973 0.0
C96 C 0.49116 0.12264 0.82389 0.0
C97 C 0.59259 0.17365 0.85702 0.0
C98 C 0.87576 0.0184 0.40294 0.0
C99 C 0.78627 0.00521 0.33857 0.0
O100 O 0.88299 0.0324 0.38064 0.0
Zn101 Zn 0.85844 0.04027 0.34278 0.0
O102 O 0.84741 0.00506 0.40584 0.0
Zn103 Zn 0.83047 0.01371 0.37068 0.0
O104 O 0.8624 0.98402 0.34489 0.0
O105 O 0.88833 0.01926 0.31828 0.0
O106 O 0.78766 0.9956 0.36271 0.0
O107 O 0.81052 0.02204 0.32872 0.0
O108 O 0.85467 0.08761 0.33996 0.0
O109 O 0.82073 0.06661 0.37009 0.0
C110 C 0.88297 0.98957 0.32574 0.0
C111 C 0.83199 0.09183 0.35723 0.0
H112 H 0.01304 0.37086 0.95098 0.0
H113 H 0.01829 0.41355 0.9855 0.0
H114 H 0.96729 0.48364 0.93482 0.0
H115 H 0.96154 0.44104 0.90027 0.0
H116 H 0.05075 0.47479 0.98092 0.0
H117 H 0.91728 0.49189 0.0058 0.0
H118 H 0.93238 0.45642 0.9873 0.0
H119 H 0.92681 0.49577 0.97088 0.0
C120 C 1.00263 0.39525 0.94724 0.0
C121 C 0.98675 0.40249 0.92288 0.0
C122 C 0.00573 0.41963 0.96699 0.0
C123 C 0.99285 0.45163 0.96285 0.0
C124 C 0.97684 0.45892 0.93863 0.0
H125 H 0.99245 0.63442 0.05471 0.0
H126 H 0.98735 0.59182 0.02012 0.0
C127 C 0.97371 0.43455 0.91886 0.0
C128 C 0.99738 0.47771 0.98345 0.0
H129 H 0.95512 0.53065 0.02457 0.0
C130 C 0.02987 0.48691 0.99058 0.0
C131 C 0.97007 0.49353 0.99593 0.0
C132 C 0.93465 0.48376 0.98981 0.0
C133 C 0.0358 0.51193 0.00956 0.0
C134 C 0.00849 0.52773 0.02205 0.0
C135 C 0.97601 0.51853 0.01491 0.0
C136 C 0.013 0.55379 0.04267 0.0
C137 C 0.07122 0.52173 0.01564 0.0
C138 C 0.02911 0.54652 0.06686 0.0
C139 C 0.03216 0.57084 0.08667 0.0
C140 C 0.01893 0.60285 0.08273 0.0
C141 C 0.00298 0.61007 0.0584 0.0
C142 C 0.99998 0.58574 0.03861 0.0
H143 H 0.08856 0.51368 0.99961 0.0
H144 H 0.07347 0.54906 0.01821 0.0
H145 H 0.07913 0.50965 0.03454 0.0
H146 H 0.03877 0.52182 0.07062 0.0
H147 H 0.04439 0.56437 0.10523 0.0
H148 H 0.37099 0.49074 0.55487 0.0
H149 H 0.41386 0.48464 0.52054 0.0
H150 H 0.48318 0.53855 0.56994 0.0
H151 H 0.44062 0.5445 0.60455 0.0
H152 H 0.45043 0.53361 0.49292 0.0
H153 H 0.53272 0.45164 0.55296 0.0
H154 H 0.49004 0.4598 0.56205 0.0
H155 H 0.52174 0.49013 0.56889 0.0
C156 C 0.39532 0.50139 0.55844 0.0
C157 C 0.40243 0.51794 0.58255 0.0
C158 C 0.41978 0.49787 0.53879 0.0
C159 C 0.45182 0.51063 0.54291 0.0
C160 C 0.45878 0.52792 0.56661 0.0
H161 H 0.63362 0.51326 0.45005 0.0
H162 H 0.59052 0.51929 0.48417 0.0
C163 C 0.43435 0.53148 0.58629 0.0
C164 C 0.47791 0.50591 0.52234 0.0
H165 H 0.5539 0.47049 0.51143 0.0
C166 C 0.47301 0.51971 0.4969 0.0
C167 C 0.50731 0.48774 0.52764 0.0
C168 C 0.51327 0.4712 0.55427 0.0
C169 C 0.49703 0.51637 0.47671 0.0
C170 C 0.52643 0.49822 0.48201 0.0
C171 C 0.53132 0.48439 0.50745 0.0
C172 C 0.55262 0.49362 0.46149 0.0
C173 C 0.49108 0.53296 0.45009 0.0
C174 C 0.54577 0.47655 0.43766 0.0
C175 C 0.57034 0.47305 0.41809 0.0
C176 C 0.60229 0.48641 0.42207 0.0
C177 C 0.60927 0.50275 0.44629 0.0
C178 C 0.58468 0.50623 0.46583 0.0
H179 H 0.47165 0.55253 0.45143 0.0
H180 H 0.51431 0.54434 0.44232 0.0
H181 H 0.48258 0.51406 0.43545 0.0
H182 H 0.52137 0.46602 0.43417 0.0
H183 H 0.56417 0.46018 0.39974 0.0
H184 H 0.51298 0.87143 0.05471 0.0
H185 H 0.51854 0.91462 0.02063 0.0
H186 H 0.46554 0.98345 0.07111 0.0
H187 H 0.46016 0.94054 0.1055 0.0
H188 H 0.46933 0.95125 0.99376 0.0
H189 H 0.55195 0.03331 0.05345 0.0
H190 H 0.54391 0.9906 0.06246 0.0
H191 H 0.51364 0.02224 0.06962 0.0
C192 C 0.50242 0.89572 0.05858 0.0
C193 C 0.4863 0.90258 0.08293 0.0
C194 C 0.50563 0.92036 0.03907 0.0
C195 C 0.49296 0.95237 0.04355 0.0
C196 C 0.4761 0.9591 0.0675 0.0
H197 H 0.48984 0.13432 0.95067 0.0
H198 H 0.48372 0.0913 0.98484 0.0
C199 C 0.47287 0.93446 0.08705 0.0
C200 C 0.49735 0.97862 0.02306 0.0
H201 H 0.53277 0.05458 0.01207 0.0
C202 C 0.48328 0.97381 0.9977 0.0
C203 C 0.51559 0.00798 0.02831 0.0
C204 C 0.53242 0.01385 0.05484 0.0
C205 C 0.4865 0.99786 0.97753 0.0
C206 C 0.50476 0.02721 0.98277 0.0
C207 C 0.51879 0.03204 0.00814 0.0
C208 C 0.50937 0.05334 0.96222 0.0
C209 C 0.46972 0.99198 0.95098 0.0
C210 C 0.52645 0.04642 0.9384 0.0
C211 C 0.53002 0.07095 0.9188 0.0
C212 C 0.5167 0.10292 0.92275 0.0
C213 C 0.50032 0.10995 0.94694 0.0
C214 C 0.49678 0.08541 0.96651 0.0
H215 H 0.45013 0.97258 0.95238 0.0
H216 H 0.45832 0.01524 0.9433 0.0
H217 H 0.48851 0.98349 0.93624 0.0
H218 H 0.53694 0.022 0.93494 0.0
H219 H 0.54291 0.06472 0.90047 0.0
H220 H 0.86888 0.98957 0.45218 0.0
H221 H 0.91121 0.98364 0.48688 0.0
H222 H 0.98153 0.03659 0.43767 0.0
H223 H 0.93947 0.04234 0.40266 0.0
H224 H 0.00629 0.97696 0.45888 0.0
H225 H 0.94789 0.0545 0.53779 0.0
H226 H 0.92133 0.02275 0.52433 0.0
H227 H 0.93504 0.05624 0.50325 0.0
C228 C 0.89324 1.00025 0.44879 0.0
C229 C 0.90075 0.01651 0.42464 0.0
C230 C 0.91737 0.99696 0.46872 0.0
C231 C 0.94937 0.01003 0.46498 0.0
C232 C 0.95691 0.02645 0.44099 0.0
H233 H 0.13292 0.01206 0.55563 0.0
H234 H 0.08983 0.017 0.52147 0.0
C235 C 0.93281 0.02977 0.42103 0.0
C236 C 0.97541 0.00537 0.4856 0.0
H237 H 0.99512 0.02288 0.55045 0.0
C238 C 0.00395 0.98711 0.47888 0.0
C239 C 0.97216 0.01851 0.51168 0.0
C240 C 0.94261 0.03935 0.51972 0.0
C241 C 0.0292 0.98126 0.49766 0.0
C242 C 0.02603 0.99452 0.52371 0.0
C243 C 0.99742 0.01267 0.53047 0.0
C244 C 0.05243 0.99049 0.54411 0.0
C245 C 0.05875 0.96043 0.48961 0.0
C246 C 0.04556 0.97437 0.56836 0.0
C247 C 0.07011 0.97162 0.58803 0.0
C248 C 0.10195 0.98516 0.58385 0.0
C249 C 0.10875 1.00117 0.55946 0.0
C250 C 0.0842 0.00389 0.53983 0.0
H251 H 0.05325 0.9449 0.47179 0.0
H252 H 0.07984 0.97705 0.48454 0.0
H253 H 0.06669 0.94391 0.5062 0.0
H254 H 0.02112 0.96401 0.5721 0.0
H255 H 0.064 0.95925 0.60661 0.0
H256 H 0.11276 0.71525 0.1093 0.0
H257 H 0.16729 0.74121 0.10312 0.0
H258 H 0.20359 0.69096 0.17345 0.0
H259 H 0.14966 0.66423 0.1793 0.0
H260 H 0.19908 0.78333 0.13504 0.0
H261 H 0.27749 0.67173 0.12198 0.0
H262 H 0.23269 0.67002 0.12052 0.0
H263 H 0.25381 0.6695 0.15227 0.0
C264 C 0.1325 0.70939 0.12324 0.0
C265 C 0.1269 0.68752 0.14471 0.0
C266 C 0.16365 0.72428 0.1197 0.0
C267 C 0.18976 0.71762 0.13754 0.0
C268 C 0.18419 0.69577 0.15896 0.0
H269 H 0.35604 0.84011 0.17982 0.0
H270 H 0.30201 0.81358 0.17397 0.0
C271 C 0.1532 0.68066 0.16239 0.0
C272 C 0.22219 0.735 0.13484 0.0
H273 H 0.30608 0.72204 0.13421 0.0
C274 C 0.22247 0.76991 0.1345 0.0
C275 C 0.25273 0.71756 0.13362 0.0
C276 C 0.25419 0.68014 0.13181 0.0
C277 C 0.25243 0.78783 0.13415 0.0
C278 C 0.28298 0.77037 0.13489 0.0
C279 C 0.28269 0.73547 0.13403 0.0
C280 C 0.31544 0.78768 0.13761 0.0
C281 C 0.25095 0.82529 0.13291 0.0
C282 C 0.34137 0.78137 0.1195 0.0
C283 C 0.37257 0.79613 0.12304 0.0
C284 C 0.37842 0.81753 0.14477 0.0
C285 C 0.3523 0.82405 0.16271 0.0
C286 C 0.32126 0.80906 0.15929 0.0
H287 H 0.22755 0.83392 0.12337 0.0
H288 H 0.25154 0.83545 0.15352 0.0
H289 H 0.27234 0.83567 0.12163 0.0
H290 H 0.33754 0.7648 0.10271 0.0
H291 H 0.39216 0.79054 0.10889 0.0
H292 H 0.29042 0.61261 0.60901 0.0
H293 H 0.26444 0.66714 0.6029 0.0
H294 H 0.31481 0.7034 0.67318 0.0
H295 H 0.34158 0.64949 0.67895 0.0
H296 H 0.22235 0.69877 0.63479 0.0
H297 H 0.33377 0.77749 0.62195 0.0
H298 H 0.33562 0.73271 0.62043 0.0
H299 H 0.33608 0.75377 0.65221 0.0
C300 C 0.29631 0.63235 0.62295 0.0
C301 C 0.31822 0.62674 0.64439 0.0
C302 C 0.28141 0.66349 0.61945 0.0
C303 C 0.28809 0.68959 0.6373 0.0
C304 C 0.30999 0.68401 0.65868 0.0
H305 H 0.16517 0.85521 0.68028 0.0
H306 H 0.19188 0.80132 0.67418 0.0
C307 C 0.32512 0.65304 0.66206 0.0
C308 C 0.27065 0.72199 0.63468 0.0
H309 H 0.28341 0.80591 0.63439 0.0
C310 C 0.23573 0.72219 0.63434 0.0
C311 C 0.28801 0.75258 0.63357 0.0
C312 C 0.32543 0.75415 0.63176 0.0
C313 C 0.21773 0.7521 0.63411 0.0
C314 C 0.23512 0.78268 0.63499 0.0
C315 C 0.27003 0.78249 0.63412 0.0
C316 C 0.21773 0.81508 0.63787 0.0
C317 C 0.18028 0.75054 0.63285 0.0
C318 C 0.22395 0.84115 0.61987 0.0
C319 C 0.20908 0.87226 0.62355 0.0
C320 C 0.18767 0.8779 0.64532 0.0
C321 C 0.18124 0.85165 0.66315 0.0
C322 C 0.19634 0.82068 0.65958 0.0
H323 H 0.1717 0.72719 0.6232 0.0
H324 H 0.1701 0.75096 0.65346 0.0
H325 H 0.16985 0.77197 0.62166 0.0
H326 H 0.24053 0.83748 0.60306 0.0
H327 H 0.2146 0.89196 0.60948 0.0
H328 H 0.65247 0.14945 0.84026 0.0
H329 H 0.70701 0.17556 0.84462 0.0
H330 H 0.66267 0.25761 0.8872 0.0
H331 H 0.60808 0.23113 0.88359 0.0
H332 H 0.72556 0.23338 0.82381 0.0
H333 H 0.74228 0.23862 0.93362 0.0
H334 H 0.7104 0.21372 0.91801 0.0
H335 H 0.70432 0.25767 0.92265 0.0
C336 C 0.65436 0.17283 0.8509 0.0
C337 C 0.62593 0.18821 0.8616 0.0
C338 C 0.68557 0.18773 0.85337 0.0
C339 C 0.68906 0.21839 0.86649 0.0
C340 C 0.66078 0.23359 0.87756 0.0
H341 H 0.8527 0.3541 0.83589 0.0
H342 H 0.79838 0.32736 0.83991 0.0
C343 C 0.62954 0.2185 0.87534 0.0
C344 C 0.72182 0.23544 0.86671 0.0
H345 H 0.78027 0.2706 0.90743 0.0
C346 C 0.73757 0.24135 0.84213 0.0
C347 C 0.73768 0.24556 0.89062 0.0
C348 C 0.72298 0.23829 0.91774 0.0
C349 C 0.7685 0.25736 0.84072 0.0
C350 C 0.78376 0.26864 0.86453 0.0
C351 C 0.76831 0.26233 0.88918 0.0
C352 C 0.81607 0.28645 0.86413 0.0
C353 C 0.78482 0.26139 0.81374 0.0
C354 C 0.84376 0.27318 0.87745 0.0
C355 C 0.87482 0.28864 0.87547 0.0
C356 C 0.87874 0.31766 0.86009 0.0
C357 C 0.85064 0.33158 0.84765 0.0
C358 C 0.81959 0.31624 0.84981 0.0
H359 H 0.77468 0.24355 0.79888 0.0
H360 H 0.78006 0.28689 0.80618 0.0
H361 H 0.81213 0.25773 0.81509 0.0
H362 H 0.84154 0.25031 0.88876 0.0
H363 H 0.89593 0.27732 0.88537 0.0
H364 H 0.72864 0.39548 0.38439 0.0
H365 H 0.75595 0.34126 0.38764 0.0
H366 H 0.678 0.29741 0.34011 0.0
H367 H 0.65098 0.35159 0.3362 0.0
H368 H 0.73661 0.28037 0.40695 0.0
H369 H 0.76068 0.27326 0.29801 0.0
H370 H 0.74666 0.31086 0.3141 0.0
H371 H 0.71749 0.27848 0.30597 0.0
C372 C 0.71718 0.37426 0.37476 0.0
C373 C 0.68782 0.37794 0.35977 0.0
C374 C 0.73283 0.34328 0.37665 0.0
C375 C 0.71939 0.31545 0.36364 0.0
C376 C 0.68927 0.31873 0.34973 0.0
H377 H 0.77508 0.10802 0.38429 0.0
H378 H 0.74882 0.1627 0.38759 0.0
C379 C 0.67376 0.34971 0.34764 0.0
C380 C 0.73731 0.2832 0.36399 0.0
H381 H 0.77152 0.22445 0.32318 0.0
C382 C 0.74437 0.26815 0.38866 0.0
C383 C 0.74796 0.26761 0.34012 0.0
C384 C 0.74314 0.28351 0.31307 0.0
C385 C 0.76125 0.2376 0.39008 0.0
C386 C 0.77068 0.22138 0.36614 0.0
C387 C 0.76406 0.23674 0.34152 0.0
C388 C 0.78761 0.18856 0.36594 0.0
C389 C 0.76935 0.22335 0.4172 0.0
C390 C 0.81793 0.18475 0.35236 0.0
C391 C 0.83272 0.15345 0.35009 0.0
C392 C 0.81754 0.12529 0.36142 0.0
C393 C 0.78756 0.12925 0.37554 0.0
C394 C 0.7726 0.16056 0.37759 0.0
H395 H 0.76954 0.24292 0.43287 0.0
H396 H 0.75011 0.20481 0.42271 0.0
H397 H 0.79391 0.21074 0.41711 0.0
H398 H 0.82993 0.20597 0.34316 0.0
H399 H 0.85585 0.15129 0.33912 0.0
H400 H 0.72951 0.48453 0.2847 0.0
H401 H 0.77644 0.50255 0.25716 0.0
H402 H 0.82072 0.55013 0.32568 0.0
H403 H 0.77378 0.53263 0.3533 0.0
H404 H 0.81789 0.59075 0.28103 0.0
H405 H 0.87226 0.46781 0.25575 0.0
H406 H 0.82872 0.47176 0.24839 0.0
H407 H 0.84262 0.47335 0.28249 0.0
C408 C 0.74938 0.49856 0.29399 0.0
C409 C 0.74789 0.50712 0.32122 0.0
C410 C 0.77627 0.50869 0.27823 0.0
C411 C 0.80224 0.52733 0.28946 0.0
C412 C 0.80097 0.53564 0.31666 0.0
H413 H 0.9946 0.57897 0.22392 0.0
H414 H 0.94813 0.55547 0.24917 0.0
C415 C 0.77412 0.52558 0.33242 0.0
C416 C 0.82997 0.53966 0.27266 0.0
H417 H 0.89445 0.51467 0.23302 0.0
C418 C 0.83466 0.57413 0.27055 0.0
C419 C 0.85195 0.51788 0.25921 0.0
C420 C 0.84893 0.48062 0.2617 0.0
C421 C 0.86062 0.58748 0.25521 0.0
C422 C 0.88214 0.56574 0.24125 0.0
C423 C 0.87767 0.53125 0.24353 0.0
C424 C 0.91006 0.57845 0.22487 0.0
C425 C 0.86523 0.62471 0.25452 0.0
C426 C 0.904 0.59855 0.20248 0.0
C427 C 0.93048 0.61209 0.18802 0.0
C428 C 0.96353 0.60562 0.19563 0.0
C429 C 0.96947 0.58457 0.21757 0.0
C430 C 0.94296 0.57106 0.23201 0.0
H431 H 0.85182 0.63721 0.27114 0.0
H432 H 0.89198 0.63138 0.25573 0.0
H433 H 0.85529 0.63455 0.23541 0.0
H434 H 0.87876 0.60405 0.19636 0.0
H435 H 0.92501 0.62802 0.17114 0.0
H436 H 0.44135 0.49326 0.71022 0.0
H437 H 0.46763 0.44745 0.73447 0.0
H438 H 0.38856 0.38179 0.70966 0.0
H439 H 0.36316 0.42705 0.68434 0.0
H440 H 0.44719 0.41414 0.77512 0.0
H441 H 0.46575 0.32423 0.69311 0.0
H442 H 0.45381 0.36676 0.687 0.0
H443 H 0.42291 0.33602 0.69549 0.0
C444 C 0.42983 0.46892 0.70968 0.0
C445 C 0.40033 0.46365 0.69524 0.0
C446 C 0.44485 0.44276 0.72355 0.0
C447 C 0.43048 0.41092 0.72352 0.0
C448 C 0.40081 0.40575 0.70928 0.0
H449 H 0.45553 0.26323 0.84669 0.0
H450 H 0.43948 0.31022 0.81873 0.0
C451 C 0.38614 0.43173 0.69497 0.0
C452 C 0.44537 0.38371 0.73969 0.0
H453 H 0.46795 0.30192 0.73767 0.0
C454 C 0.45211 0.38973 0.76681 0.0
C455 C 0.45247 0.35197 0.72885 0.0
C456 C 0.44871 0.34449 0.69945 0.0
C457 C 0.46469 0.36471 0.78352 0.0
C458 C 0.46947 0.33232 0.77311 0.0
C459 C 0.46381 0.32657 0.7458 0.0
C460 C 0.47958 0.3039 0.79027 0.0
C461 C 0.47311 0.37351 0.81205 0.0
C462 C 0.50673 0.28379 0.78311 0.0
C463 C 0.51547 0.25633 0.79875 0.0
C464 C 0.49739 0.24864 0.82199 0.0
C465 C 0.47027 0.2688 0.82913 0.0
C466 C 0.4612 0.29586 0.81324 0.0
H467 H 0.47933 0.40031 0.81403 0.0
H468 H 0.45121 0.36855 0.82493 0.0
H469 H 0.49443 0.35867 0.81955 0.0
H470 H 0.52117 0.28934 0.76538 0.0
H471 H 0.53647 0.24122 0.79273 0.0
H472 H 0.51185 0.92506 0.22388 0.0
H473 H 0.55865 0.94906 0.24833 0.0
H474 H 0.62723 0.90091 0.19458 0.0
H475 H 0.58061 0.87643 0.17015 0.0
H476 H 0.64222 0.89071 0.24786 0.0
H477 H 0.62166 0.02473 0.22765 0.0
H478 H 0.58576 0.00369 0.24068 0.0
H479 H 0.60184 0.9923 0.20844 0.0
C480 C 0.53686 0.91982 0.21706 0.0
C481 C 0.54247 0.89881 0.19504 0.0
C482 C 0.56359 0.93374 0.23098 0.0
C483 C 0.59639 0.92712 0.22305 0.0
C484 C 0.60208 0.90647 0.20092 0.0
H485 H 0.77627 0.01965 0.28569 0.0
H486 H 0.73038 1.00112 0.2572 0.0
C487 C 0.57539 0.89253 0.18699 0.0
C488 C 0.62477 0.94005 0.23882 0.0
H489 H 0.66085 0.01142 0.2618 0.0
C490 C 0.64642 0.9171 0.25078 0.0
C491 C 0.63038 0.9745 0.24235 0.0
C492 C 0.60889 1.00028 0.22891 0.0
C493 C 0.67311 0.92764 0.26671 0.0
C494 C 0.67794 0.96204 0.27111 0.0
C495 C 0.65681 0.98505 0.25862 0.0
C496 C 0.70485 0.97449 0.28865 0.0
C497 C 0.69609 0.90186 0.27849 0.0
C498 C 0.70525 0.96626 0.31589 0.0
C499 C 0.73139 0.97676 0.33221 0.0
C500 C 0.75757 0.99586 0.32162 0.0
C501 C 0.75657 0.00489 0.29447 0.0
C502 C 0.73037 0.99435 0.27815 0.0
H503 H 0.69421 0.87772 0.2678 0.0
H504 H 0.72234 0.91039 0.27784 0.0
H505 H 0.68926 0.89758 0.2997 0.0
H506 H 0.68543 0.95148 0.32448 0.0
H507 H 0.73125 0.96954 0.35306 0.0
H508 H 0.03576 0.23267 0.85282 0.0
H509 H 0.0539 0.18639 0.82475 0.0
H510 H 1.0024 0.22895 0.7574 0.0
H511 H 0.98382 0.27532 0.78537 0.0
H512 H 0.99309 0.15919 0.7635 0.0
H513 H 0.12638 0.19492 0.76676 0.0
H514 H 0.10722 0.19067 0.79901 0.0
H515 H 0.09346 0.22284 0.77667 0.0
C516 C 0.02815 0.23219 0.83207 0.0
C517 C 0.00852 0.25785 0.8213 0.0
C518 C 0.03868 0.20578 0.81604 0.0
C519 C 0.02993 0.20457 0.78893 0.0
C520 C 0.00956 0.22957 0.77826 0.0
H521 H 0.12707 0.07965 0.67054 0.0
H522 H 0.10248 0.12622 0.69494 0.0
C523 C 0.99901 0.25605 0.79428 0.0
C524 C 0.0424 0.17739 0.77166 0.0
H525 H 0.11373 0.14237 0.74773 0.0
C526 C 0.01944 0.15554 0.75993 0.0
C527 C 0.07676 0.17304 0.76675 0.0
C528 C 0.10242 0.19676 0.77773 0.0
C529 C 0.03003 0.12889 0.7439 0.0
C530 C 0.06447 0.12382 0.73982 0.0
C531 C 0.08735 0.14615 0.75106 0.0
C532 C 0.07749 0.09539 0.72414 0.0
C533 C 0.00427 0.10663 0.73125 0.0
C534 C 0.07159 0.06261 0.73247 0.0
C535 C 0.08556 0.03591 0.71854 0.0
C536 C 0.10591 0.04152 0.69612 0.0
C537 C 0.1115 0.07442 0.68769 0.0
C538 C 0.09749 0.10108 0.70162 0.0
H539 H 0.97956 0.11893 0.73025 0.0
H540 H 0.01181 0.09924 0.71074 0.0
H541 H 1.0016 0.08374 0.74343 0.0
H542 H 0.05681 0.05768 0.75012 0.0
H543 H 0.08089 0.01091 0.72567 0.0
H544 H 0.08066 0.37827 0.8358 0.0
H545 H 0.12723 0.40294 0.81142 0.0
H546 H 0.05861 0.44951 0.75681 0.0
H547 H 0.01186 0.42537 0.78125 0.0
H548 H 0.14304 0.39212 0.75858 0.0
H549 H 0.12034 0.52623 0.77681 0.0
H550 H 0.10054 0.49394 0.79619 0.0
H551 H 0.08495 0.50452 0.76362 0.0
C552 C 0.07542 0.39406 0.81878 0.0
C553 C 0.04251 0.39988 0.8105 0.0
C554 C 0.10208 0.40812 0.80487 0.0
C555 C 0.09637 0.42839 0.78252 0.0
C556 C 0.06356 0.43452 0.77434 0.0
H557 H 0.23258 0.47029 0.65322 0.0
H558 H 0.1865 0.45222 0.68154 0.0
C559 C 0.03687 0.42051 0.78826 0.0
C560 C 0.12476 0.44139 0.7668 0.0
H561 H 0.16021 0.51277 0.74319 0.0
C562 C 0.14691 0.41851 0.75534 0.0
C563 C 0.12994 0.47584 0.76283 0.0
C564 C 0.10789 0.50161 0.77571 0.0
C565 C 0.1737 0.42909 0.73954 0.0
C566 C 0.17813 0.46345 0.73473 0.0
C567 C 0.15648 0.48642 0.74668 0.0
C568 C 0.20518 0.47591 0.71733 0.0
C569 C 0.19722 0.4034 0.72831 0.0
C570 C 0.23038 0.49611 0.72789 0.0
C571 C 0.25674 0.50662 0.71173 0.0
C572 C 0.25822 0.49724 0.68467 0.0
C573 C 0.23235 0.47779 0.674 0.0
C574 C 0.20606 0.4673 0.69018 0.0
H575 H 0.19541 0.3794 0.73921 0.0
H576 H 0.1909 0.39874 0.70706 0.0
H577 H 0.22335 0.41227 0.72923 0.0
H578 H 0.23002 0.50316 0.74878 0.0
H579 H 0.27619 0.52167 0.72056 0.0
H580 H 0.62857 0.57976 0.33396 0.0
H581 H 0.60421 0.62614 0.30918 0.0
H582 H 0.55569 0.55706 0.25607 0.0
H583 H 0.57957 0.51049 0.28088 0.0
H584 H 0.61419 0.64048 0.25567 0.0
H585 H 0.48023 0.62038 0.27671 0.0
H586 H 0.51277 0.60073 0.29591 0.0
H587 H 0.50119 0.58436 0.26381 0.0
C588 C 0.61243 0.57438 0.31719 0.0
C589 C 0.60599 0.54139 0.30943 0.0
C590 C 0.59856 0.60093 0.30304 0.0
C591 C 0.57783 0.59503 0.281 0.0
C592 C 0.57108 0.56216 0.27335 0.0
H593 H 0.5344 0.73125 0.15158 0.0
H594 H 0.55274 0.68488 0.17949 0.0
C595 C 0.58492 0.53557 0.28748 0.0
C596 C 0.56486 0.62326 0.2651 0.0
H597 H 0.49339 0.65955 0.24258 0.0
C598 C 0.58778 0.64476 0.25291 0.0
C599 C 0.5304 0.62895 0.26176 0.0
C600 C 0.50467 0.6076 0.27543 0.0
C601 C 0.57718 0.67148 0.23703 0.0
C602 C 0.54275 0.67646 0.23291 0.0
C603 C 0.51979 0.6554 0.24554 0.0
C604 C 0.53017 0.70367 0.21572 0.0
C605 C 0.60293 0.69437 0.22508 0.0
C606 C 0.51047 0.72901 0.22667 0.0
C607 C 0.49978 0.75549 0.21074 0.0
C608 C 0.50848 0.75699 0.18353 0.0
C609 C 0.52744 0.731 0.17249 0.0
C610 C 0.53809 0.70455 0.18843 0.0
H611 H 0.62723 0.69229 0.23552 0.0
H612 H 0.60685 0.68765 0.20381 0.0
H613 H 0.59457 0.72066 0.22592 0.0
H614 H 0.50395 0.72866 0.24767 0.0
H615 H 0.48514 0.77503 0.21988 0.0
H616 H 0.4248 0.12603 0.83553 0.0
H617 H 0.37875 0.10119 0.81067 0.0
H618 H 0.44825 0.05819 0.75489 0.0
H619 H 0.49451 0.08246 0.77982 0.0
H620 H 0.36231 0.11341 0.75831 0.0
H621 H 0.38866 0.97932 0.77321 0.0
H622 H 0.40786 0.01139 0.79319 0.0
H623 H 0.42331 1.00241 0.76026 0.0
C624 C 0.43035 0.111 0.81814 0.0
C625 C 0.46336 0.1062 0.80969 0.0
C626 C 0.40399 0.09684 0.80396 0.0
C627 C 0.4101 0.07751 0.78114 0.0
C628 C 0.44301 0.07242 0.77277 0.0
H629 H 0.27215 0.0362 0.65255 0.0
H630 H 0.31864 0.05451 0.68036 0.0
C631 C 0.46941 0.0865 0.78697 0.0
C632 C 0.38194 0.06435 0.76523 0.0
H633 H 0.34793 0.99295 0.74036 0.0
C634 C 0.35907 0.08706 0.75449 0.0
C635 C 0.3776 0.02994 0.76051 0.0
C636 C 0.40046 0.00429 0.7726 0.0
C637 C 0.33231 0.07636 0.73873 0.0
C638 C 0.32865 0.04207 0.73322 0.0
C639 C 0.35108 0.01926 0.74439 0.0
C640 C 0.30144 0.02951 0.71605 0.0
C641 C 0.30794 0.1018 0.72835 0.0
C642 C 0.27693 0.00855 0.72672 0.0
C643 C 0.25035 0.99793 0.71087 0.0
C644 C 0.24795 0.00795 0.684 0.0
C645 C 0.27312 0.02817 0.67319 0.0
C646 C 0.29964 0.0388 0.68907 0.0
H647 H 0.30952 0.12556 0.7396 0.0
H648 H 0.31356 0.10713 0.70706 0.0
H649 H 0.28205 0.09233 0.72958 0.0
H650 H 0.27801 1.00098 0.74748 0.0
H651 H 0.23147 0.98227 0.7198 0.0
H652 H 0.02037 0.72861 0.22071 0.0
H653 H 1.00151 0.77451 0.24899 0.0
H654 H 0.95253 0.81923 0.18132 0.0
H655 H 0.9709 0.77332 0.15293 0.0
H656 H 0.01195 0.84356 0.24468 0.0
H657 H 0.87813 0.81103 0.23728 0.0
H658 H 0.91077 0.78283 0.22733 0.0
H659 H 0.89844 0.8162 0.20559 0.0
C660 C 0.00568 0.74825 0.21179 0.0
C661 C 0.99693 0.74716 0.18459 0.0
C662 C 0.99495 0.77446 0.22799 0.0
C663 C 0.97518 0.79993 0.21733 0.0
C664 C 0.96722 0.79945 0.19004 0.0
H665 H 0.9262 0.99242 0.28356 0.0
H666 H 0.95015 0.94591 0.25875 0.0
C667 C 0.9779 0.77326 0.17382 0.0
C668 C 0.9626 0.82687 0.23479 0.0
H669 H 0.89116 0.86268 0.25774 0.0
C670 C 0.98556 0.84771 0.24765 0.0
C671 C 0.92816 0.83184 0.23894 0.0
C672 C 0.9024 0.80913 0.22678 0.0
C673 C 0.97494 0.87397 0.26407 0.0
C674 C 0.94048 0.8797 0.26738 0.0
C675 C 0.91757 0.85837 0.255 0.0
C676 C 0.92752 0.90788 0.28335 0.0
C677 C 1.00068 0.89509 0.27795 0.0
C678 C 0.90649 0.90195 0.30522 0.0
C679 C 0.89256 0.92848 0.31936 0.0
C680 C 0.89926 0.96149 0.31177 0.0
C681 C 0.92065 0.96733 0.29002 0.0
C682 C 0.93454 0.94077 0.27589 0.0
H683 H 0.02503 0.88213 0.27932 0.0
H684 H 0.00444 0.91835 0.26641 0.0
H685 H 0.99246 0.90191 0.29841 0.0
H686 H 0.90063 0.87673 0.3112 0.0
H687 H 0.87616 0.92309 0.33597 0.0
loop_
_geom_bond_atom_site_label_1
_geom_bond_atom_site_label_2
_geom_bond_distance
_geom_bond_site_symmetry_2
_ccdc_geom_bond_type
C0 O2 1.247 . S
C0 O4 1.258 . S
C1 O8 1.247 . S
C1 O9 1.258 . S
O2 C0 1.247 . S
O2 Zn3 2.028 . S
Zn3 O2 2.028 . S
Zn3 O7 2.035 . S
Zn3 O9 2.035 1_455 S
Zn3 O10 2.028 . S
O4 C0 1.258 . S
O4 Zn5 2.035 1_455 S
Zn5 O4 2.035 1_655 S
Zn5 O6 2.028 . S
Zn5 O8 2.028 . S
Zn5 O11 2.033 1_655 S
O6 Zn5 2.028 . S
O6 C12 1.247 . S
O7 Zn3 2.035 . S
O7 C12 1.258 1_455 S
O8 C1 1.247 . S
O8 Zn5 2.028 . S
O9 C1 1.258 . S
O9 Zn3 2.035 1_655 S
O10 Zn3 2.028 . S
O10 C13 1.247 . S
O11 Zn5 2.033 1_455 S
O11 C13 1.264 . S
C12 O6 1.247 . S
C12 O7 1.258 1_655 S
C13 O10 1.247 . S
C13 O11 1.264 . S
C14 O16 1.247 . S
C14 O18 1.258 . S
C15 O22 1.247 . S
C15 O23 1.258 . S
O16 C14 1.247 . S
O16 Zn17 2.028 . S
Zn17 O16 2.028 . S
Zn17 O21 2.035 . S
Zn17 O23 2.035 . S
Zn17 O24 2.028 . S
O18 C14 1.258 . S
O18 Zn19 2.035 . S
Zn19 O18 2.035 . S
Zn19 O20 2.028 . S
Zn19 O22 2.028 . S
Zn19 O25 2.035 . S
O20 Zn19 2.028 . S
O20 C26 1.247 . S
O21 Zn17 2.035 . S
O21 C26 1.258 . S
O22 C15 1.247 . S
O22 Zn19 2.028 . S
O23 C15 1.258 . S
O23 Zn17 2.035 . S
O24 Zn17 2.028 . S
O24 C27 1.247 . S
O25 Zn19 2.035 . S
O25 C27 1.258 . S
C26 O20 1.247 . S
C26 O21 1.258 . S
C27 O24 1.247 . S
C27 O25 1.258 . S
C28 O30 1.247 . S
C28 O32 1.258 . S
C29 O36 1.247 . S
C29 O37 1.258 . S
O30 C28 1.247 . S
O30 Zn31 2.028 . S
Zn31 O30 2.028 . S
Zn31 O35 2.035 . S
Zn31 O37 2.035 . S
Zn31 O38 2.028 . S
O32 C28 1.258 . S
O32 Zn33 2.035 . S
Zn33 O32 2.035 . S
Zn33 O34 2.028 . S
Zn33 O36 2.028 . S
Zn33 O39 2.035 . S
O34 Zn33 2.028 . S
O34 C40 1.247 . S
O35 Zn31 2.035 . S
O35 C40 1.258 . S
O36 C29 1.247 . S
O36 Zn33 2.028 . S
O37 C29 1.258 . S
O37 Zn31 2.035 . S
O38 Zn31 2.028 . S
O38 C41 1.247 . S
O39 Zn33 2.035 . S
O39 C41 1.258 . S
C40 O34 1.247 . S
C40 O35 1.258 . S
C41 O38 1.247 . S
C41 O39 1.258 . S
C42 O44 1.248 . S
C42 O46 1.258 . S
C43 O50 1.247 1_545 S
C43 O51 1.258 . S
O44 C42 1.248 . S
O44 Zn45 2.028 1_565 S
Zn45 O44 2.028 1_545 S
Zn45 O49 2.035 . S
Zn45 O51 2.035 . S
Zn45 O52 2.028 1_545 S
O46 C42 1.258 . S
O46 Zn47 2.035 . S
Zn47 O46 2.035 . S
Zn47 O48 2.028 1_565 S
Zn47 O50 2.028 . S
Zn47 O53 2.035 . S
O48 Zn47 2.028 1_545 S
O48 C54 1.247 . S
O49 Zn45 2.035 . S
O49 C54 1.258 . S
O50 C43 1.247 1_565 S
O50 Zn47 2.028 . S
O51 C43 1.258 . S
O51 Zn45 2.035 . S
O52 Zn45 2.028 1_565 S
O52 C55 1.247 . S
O53 Zn47 2.035 . S
O53 C55 1.258 . S
C54 O48 1.247 . S
C54 O49 1.258 . S
C55 O52 1.247 . S
C55 O53 1.258 . S
C56 O58 1.247 . S
C56 O60 1.258 . S
C57 O64 1.247 . S
C57 O65 1.258 . S
O58 C56 1.247 . S
O58 Zn59 2.028 . S
Zn59 O58 2.028 . S
Zn59 O63 2.033 1_455 S
Zn59 O65 2.035 1_455 S
Zn59 O66 2.028 . S
O60 C56 1.258 . S
O60 Zn61 2.035 1_455 S
Zn61 O60 2.035 1_655 S
Zn61 O62 2.028 . S
Zn61 O64 2.028 . S
Zn61 O67 2.035 . S
O62 Zn61 2.028 . S
O62 C68 1.247 . S
O63 Zn59 2.033 1_655 S
O63 C68 1.264 . S
O64 C57 1.247 . S
O64 Zn61 2.028 . S
O65 C57 1.258 . S
O65 Zn59 2.035 1_655 S
O66 Zn59 2.028 . S
O66 C69 1.247 . S
O67 Zn61 2.035 . S
O67 C69 1.258 1_655 S
C68 O62 1.247 . S
C68 O63 1.264 . S
C69 O66 1.247 . S
C69 O67 1.258 1_455 S
C70 O72 1.247 . S
C70 O74 1.258 . S
C71 O78 1.247 . S
C71 O79 1.258 . S
O72 C70 1.247 . S
O72 Zn73 2.028 . S
Zn73 O72 2.028 . S
Zn73 O77 2.035 . S
Zn73 O79 2.035 . S
Zn73 O80 2.028 . S
O74 C70 1.258 . S
O74 Zn75 2.035 . S
Zn75 O74 2.035 . S
Zn75 O76 2.028 . S
Zn75 O78 2.028 . S
Zn75 O81 2.035 . S
O76 Zn75 2.028 . S
O76 C82 1.247 . S
O77 Zn73 2.035 . S
O77 C82 1.258 . S
O78 C71 1.247 . S
O78 Zn75 2.028 . S
O79 C71 1.258 . S
O79 Zn73 2.035 . S
O80 Zn73 2.028 . S
O80 C83 1.247 . S
O81 Zn75 2.035 . S
O81 C83 1.258 . S
C82 O76 1.247 . S
C82 O77 1.258 . S
C83 O80 1.247 . S
C83 O81 1.258 . S
C84 O86 1.247 . S
C84 O88 1.258 . S
C85 O92 1.247 . S
C85 O93 1.258 . S
O86 C84 1.247 . S
O86 Zn87 2.028 . S
Zn87 O86 2.028 . S
Zn87 O91 2.035 . S
Zn87 O93 2.035 . S
Zn87 O94 2.028 . S
O88 C84 1.258 . S
O88 Zn89 2.035 . S
Zn89 O88 2.035 . S
Zn89 O90 2.028 . S
Zn89 O92 2.028 . S
Zn89 O95 2.035 . S
O90 Zn89 2.028 . S
O90 C96 1.247 . S
O91 Zn87 2.035 . S
O91 C96 1.258 . S
O92 C85 1.247 . S
O92 Zn89 2.028 . S
O93 C85 1.258 . S
O93 Zn87 2.035 . S
O94 Zn87 2.028 . S
O94 C97 1.247 . S
O95 Zn89 2.035 . S
O95 C97 1.258 . S
C96 O90 1.247 . S
C96 O91 1.258 . S
C97 O94 1.247 . S
C97 O95 1.258 . S
C98 O100 1.247 . S
C98 O102 1.264 . S
C99 O106 1.247 . S
C99 O107 1.258 1_565 S
O100 C98 1.247 . S
O100 Zn101 2.028 . S
Zn101 O100 2.028 . S
Zn101 O105 2.035 1_545 S
Zn101 O107 2.035 . S
Zn101 O108 2.028 . S
O102 C98 1.264 . S
O102 Zn103 2.033 1_545 S
Zn103 O102 2.033 1_565 S
Zn103 O104 2.028 . S
Zn103 O106 2.028 . S
Zn103 O109 2.035 1_565 S
O104 Zn103 2.028 . S
O104 C110 1.247 . S
O105 Zn101 2.035 1_565 S
O105 C110 1.258 . S
O106 C99 1.247 . S
O106 Zn103 2.028 . S
O107 C99 1.258 1_545 S
O107 Zn101 2.035 . S
O108 Zn101 2.028 . S
O108 C111 1.247 . S
O109 Zn103 2.035 1_545 S
O109 C111 1.258 . S
C110 O104 1.247 . S
C110 O105 1.258 . S
C111 O108 1.247 . S
C111 O109 1.258 . S
H112 C120 0.929 . S
H113 C122 0.930 . S
H114 C124 0.930 1_455 S
H115 C127 0.929 . S
H116 C130 0.931 . S
H117 C132 0.960 . S
H118 C132 0.960 . S
H119 C132 0.960 . S
C120 H112 0.929 . S
C120 C121 1.377 . S
C120 C122 1.384 . S
C121 C120 1.377 . S
C121 C127 1.390 . S
C122 H113 0.930 . S
C122 C120 1.384 . S
C122 C123 1.372 . S
C123 C122 1.372 . S
C123 C124 1.400 . S
C123 C128 1.490 . S
C124 H114 0.930 1_655 S
C124 C123 1.400 . S
C124 C127 1.386 . S
H125 C141 0.930 . S
H126 C142 0.931 . S
C127 H115 0.929 . S
C127 C121 1.390 . S
C127 C124 1.386 . S
C128 C123 1.490 . S
C128 C130 1.395 1_656 S
C128 C131 1.403 . S
H129 C135 0.930 . S
C130 H116 0.931 . S
C130 C128 1.395 1_454 S
C130 C133 1.403 . S
C131 C128 1.403 . S
C131 C132 1.524 . S
C131 C135 1.400 1_556 S
C132 H117 0.960 . S
C132 H118 0.960 . S
C132 H119 0.960 . S
C132 C131 1.524 . S
C133 C130 1.403 . S
C133 C134 1.392 . S
C133 C137 1.495 . S
C134 C133 1.392 . S
C134 C135 1.385 1_455 S
C134 C136 1.478 . S
C135 H129 0.930 . S
C135 C131 1.400 1_554 S
C135 C134 1.385 1_655 S
C136 C134 1.478 . S
C136 C138 1.381 . S
C136 C142 1.383 . S
C137 C133 1.495 . S
C137 H143 0.959 . S
C137 H144 0.961 . S
C137 H145 0.960 . S
C138 C136 1.381 . S
C138 C139 1.394 . S
C138 H146 0.930 1_455 S
C139 C138 1.394 . S
C139 C140 1.383 . S
C139 H147 0.929 . S
C140 C139 1.383 . S
C140 C141 1.377 . S
C141 H125 0.930 . S
C141 C140 1.377 . S
C141 C142 1.379 . S
C142 H126 0.931 . S
C142 C136 1.383 . S
C142 C141 1.379 . S
H143 C137 0.959 . S
H144 C137 0.961 . S
H145 C137 0.960 . S
H146 C138 0.930 1_655 S
H147 C139 0.929 . S
H148 C156 0.929 . S
H149 C158 0.930 . S
H150 C160 0.930 . S
H151 C163 0.929 . S
H152 C166 0.930 . S
H153 C168 0.960 . S
H154 C168 0.960 . S
H155 C168 0.960 . S
C156 H148 0.929 . S
C156 C157 1.377 . S
C156 C158 1.384 . S
C157 C156 1.377 . S
C157 C163 1.390 . S
C158 H149 0.930 . S
C158 C156 1.384 . S
C158 C159 1.372 . S
C159 C158 1.372 . S
C159 C160 1.400 . S
C159 C164 1.490 . S
C160 H150 0.930 . S
C160 C159 1.400 . S
C160 C163 1.386 . S
H161 C177 0.930 . S
H162 C178 0.931 . S
C163 H151 0.929 . S
C163 C157 1.390 . S
C163 C160 1.386 . S
C164 C159 1.490 . S
C164 C166 1.395 . S
C164 C167 1.403 . S
H165 C171 0.930 . S
C166 H152 0.930 . S
C166 C164 1.395 . S
C166 C169 1.403 . S
C167 C164 1.403 . S
C167 C168 1.524 . S
C167 C171 1.400 . S
C168 H153 0.960 . S
C168 H154 0.960 . S
C168 H155 0.960 . S
C168 C167 1.524 . S
C169 C166 1.403 . S
C169 C170 1.392 . S
C169 C173 1.495 . S
C170 C169 1.392 . S
C170 C171 1.385 . S
C170 C172 1.478 . S
C171 H165 0.930 . S
C171 C167 1.400 . S
C171 C170 1.385 . S
C172 C170 1.478 . S
C172 C174 1.381 . S
C172 C178 1.383 . S
C173 C169 1.495 . S
C173 H179 0.959 . S
C173 H180 0.961 . S
C173 H181 0.960 . S
C174 C172 1.381 . S
C174 C175 1.394 . S
C174 H182 0.930 . S
C175 C174 1.394 . S
C175 C176 1.383 . S
C175 H183 0.929 . S
C176 C175 1.383 . S
C176 C177 1.377 . S
C177 H161 0.930 . S
C177 C176 1.377 . S
C177 C178 1.379 . S
C178 H162 0.931 . S
C178 C172 1.383 . S
C178 C177 1.379 . S
H179 C173 0.959 . S
H180 C173 0.961 . S
H181 C173 0.960 . S
H182 C174 0.930 . S
H183 C175 0.929 . S
H184 C192 0.929 . S
H185 C194 0.930 . S
H186 C196 0.930 . S
H187 C199 0.929 . S
H188 C202 0.930 . S
H189 C204 0.960 . S
H190 C204 0.960 . S
H191 C204 0.960 . S
C192 H184 0.929 . S
C192 C193 1.377 . S
C192 C194 1.384 . S
C193 C192 1.377 . S
C193 C199 1.390 . S
C194 H185 0.930 . S
C194 C192 1.384 . S
C194 C195 1.372 . S
C195 C194 1.372 . S
C195 C196 1.400 . S
C195 C200 1.490 . S
C196 H186 0.930 . S
C196 C195 1.400 . S
C196 C199 1.386 . S
H197 C213 0.930 . S
H198 C214 0.931 . S
C199 H187 0.929 . S
C199 C193 1.390 . S
C199 C196 1.386 . S
C200 C195 1.490 . S
C200 C202 1.395 . S
C200 C203 1.403 . S
H201 C207 0.930 . S
C202 H188 0.930 . S
C202 C200 1.395 . S
C202 C205 1.403 1_564 S
C203 C200 1.403 . S
C203 C204 1.524 . S
C203 C207 1.400 1_564 S
C204 H189 0.960 . S
C204 H190 0.960 . S
C204 H191 0.960 . S
C204 C203 1.524 . S
C205 C202 1.403 1_546 S
C205 C206 1.392 . S
C205 C209 1.495 . S
C206 C205 1.392 . S
C206 C207 1.385 . S
C206 C208 1.478 . S
C207 H201 0.930 . S
C207 C203 1.400 1_546 S
C207 C206 1.385 . S
C208 C206 1.478 . S
C208 C210 1.381 . S
C208 C214 1.383 . S
C209 C205 1.495 . S
C209 H215 0.959 . S
C209 H216 0.961 . S
C209 H217 0.960 . S
C210 C208 1.381 . S
C210 C211 1.394 . S
C210 H218 0.930 . S
C211 C210 1.394 . S
C211 C212 1.383 . S
C211 H219 0.929 . S
C212 C211 1.383 . S
C212 C213 1.377 . S
C213 H197 0.930 . S
C213 C212 1.377 . S
C213 C214 1.379 . S
C214 H198 0.931 . S
C214 C208 1.383 . S
C214 C213 1.379 . S
H215 C209 0.959 . S
H216 C209 0.961 . S
H217 C209 0.960 . S
H218 C210 0.930 . S
H219 C211 0.929 . S
H220 C228 0.929 . S
H221 C230 0.930 . S
H222 C232 0.930 . S
H223 C235 0.929 . S
H224 C238 0.930 . S
H225 C240 0.960 . S
H226 C240 0.960 . S
H227 C240 0.960 . S
C228 H220 0.929 . S
C228 C229 1.377 1_565 S
C228 C230 1.384 . S
C229 C228 1.377 1_545 S
C229 C235 1.390 . S
C230 H221 0.930 . S
C230 C228 1.384 . S
C230 C231 1.372 1_565 S
C231 C230 1.372 1_545 S
C231 C232 1.400 . S
C231 C236 1.490 . S
C232 H222 0.930 . S
C232 C231 1.400 . S
C232 C235 1.386 . S
H233 C249 0.930 . S
H234 C250 0.931 . S
C235 H223 0.929 . S
C235 C229 1.390 . S
C235 C232 1.386 . S
C236 C231 1.490 . S
C236 C238 1.395 1_645 S
C236 C239 1.403 . S
H237 C243 0.930 . S
C238 H224 0.930 . S
C238 C236 1.395 1_465 S
C238 C241 1.403 . S
C239 C236 1.403 . S
C239 C240 1.524 . S
C239 C243 1.400 . S
C240 H225 0.960 . S
C240 H226 0.960 . S
C240 H227 0.960 . S
C240 C239 1.524 . S
C241 C238 1.403 . S
C241 C242 1.392 . S
C241 C245 1.495 . S
C242 C241 1.392 . S
C242 C243 1.385 1_465 S
C242 C244 1.478 . S
C243 H237 0.930 . S
C243 C239 1.400 . S
C243 C242 1.385 1_645 S
C244 C242 1.478 . S
C244 C246 1.381 . S
C244 C250 1.383 1_565 S
C245 C241 1.495 . S
C245 H251 0.959 . S
C245 H252 0.961 . S
C245 H253 0.960 . S
C246 C244 1.381 . S
C246 C247 1.394 . S
C246 H254 0.930 . S
C247 C246 1.394 . S
C247 C248 1.383 . S
C247 H255 0.929 . S
C248 C247 1.383 . S
C248 C249 1.377 1_565 S
C249 H233 0.930 . S
C249 C248 1.377 1_545 S
C249 C250 1.379 . S
C250 H234 0.931 . S
C250 C244 1.383 1_545 S
C250 C249 1.379 . S
H251 C245 0.959 . S
H252 C245 0.961 . S
H253 C245 0.960 . S
H254 C246 0.930 . S
H255 C247 0.929 . S
H256 C264 0.929 . S
H257 C266 0.930 . S
H258 C268 0.930 . S
H259 C271 0.929 . S
H260 C274 0.930 . S
H261 C276 0.960 . S
H262 C276 0.960 . S
H263 C276 0.960 . S
C264 H256 0.929 . S
C264 C265 1.377 . S
C264 C266 1.384 . S
C265 C264 1.377 . S
C265 C271 1.390 . S
C266 H257 0.930 . S
C266 C264 1.384 . S
C266 C267 1.372 . S
C267 C266 1.372 . S
C267 C268 1.400 . S
C267 C272 1.490 . S
C268 H258 0.930 . S
C268 C267 1.400 . S
C268 C271 1.386 . S
H269 C285 0.930 . S
H270 C286 0.931 . S
C271 H259 0.929 . S
C271 C265 1.390 . S
C271 C268 1.386 . S
C272 C267 1.490 . S
C272 C274 1.395 . S
C272 C275 1.403 . S
H273 C279 0.930 . S
C274 H260 0.930 . S
C274 C272 1.395 . S
C274 C277 1.403 . S
C275 C272 1.403 . S
C275 C276 1.524 . S
C275 C279 1.400 . S
C276 H261 0.960 . S
C276 H262 0.960 . S
C276 H263 0.960 . S
C276 C275 1.524 . S
C277 C274 1.403 . S
C277 C278 1.392 . S
C277 C281 1.495 . S
C278 C277 1.392 . S
C278 C279 1.385 . S
C278 C280 1.478 . S
C279 H273 0.930 . S
C279 C275 1.400 . S
C279 C278 1.385 . S
C280 C278 1.478 . S
C280 C282 1.381 . S
C280 C286 1.383 . S
C281 C277 1.495 . S
C281 H287 0.959 . S
C281 H288 0.961 . S
C281 H289 0.960 . S
C282 C280 1.381 . S
C282 C283 1.394 . S
C282 H290 0.930 . S
C283 C282 1.394 . S
C283 C284 1.383 . S
C283 H291 0.929 . S
C284 C283 1.383 . S
C284 C285 1.377 . S
C285 H269 0.930 . S
C285 C284 1.377 . S
C285 C286 1.379 . S
C286 H270 0.931 . S
C286 C280 1.383 . S
C286 C285 1.379 . S
H287 C281 0.959 . S
H288 C281 0.961 . S
H289 C281 0.960 . S
H290 C282 0.930 . S
H291 C283 0.929 . S
H292 C300 0.929 . S
H293 C302 0.930 . S
H294 C304 0.930 . S
H295 C307 0.929 . S
H296 C310 0.930 . S
H297 C312 0.960 . S
H298 C312 0.960 . S
H299 C312 0.960 . S
C300 H292 0.929 . S
C300 C301 1.377 . S
C300 C302 1.384 . S
C301 C300 1.377 . S
C301 C307 1.390 . S
C302 H293 0.930 . S
C302 C300 1.384 . S
C302 C303 1.372 . S
C303 C302 1.372 . S
C303 C304 1.400 . S
C303 C308 1.490 . S
C304 H294 0.930 . S
C304 C303 1.400 . S
C304 C307 1.386 . S
H305 C321 0.930 . S
H306 C322 0.931 . S
C307 H295 0.929 . S
C307 C301 1.390 . S
C307 C304 1.386 . S
C308 C303 1.490 . S
C308 C310 1.395 . S
C308 C311 1.403 . S
H309 C315 0.930 . S
C310 H296 0.930 . S
C310 C308 1.395 . S
C310 C313 1.403 . S
C311 C308 1.403 . S
C311 C312 1.524 . S
C311 C315 1.400 . S
C312 H297 0.960 . S
C312 H298 0.960 . S
C312 H299 0.960 . S
C312 C311 1.524 . S
C313 C310 1.403 . S
C313 C314 1.392 . S
C313 C317 1.495 . S
C314 C313 1.392 . S
C314 C315 1.385 . S
C314 C316 1.478 . S
C315 H309 0.930 . S
C315 C311 1.400 . S
C315 C314 1.385 . S
C316 C314 1.478 . S
C316 C318 1.381 . S
C316 C322 1.383 . S
C317 C313 1.495 . S
C317 H323 0.959 . S
C317 H324 0.961 . S
C317 H325 0.960 . S
C318 C316 1.381 . S
C318 C319 1.394 . S
C318 H326 0.930 . S
C319 C318 1.394 . S
C319 C320 1.383 . S
C319 H327 0.929 . S
C320 C319 1.383 . S
C320 C321 1.377 . S
C321 H305 0.930 . S
C321 C320 1.377 . S
C321 C322 1.379 . S
C322 H306 0.931 . S
C322 C316 1.383 . S
C322 C321 1.379 . S
H323 C317 0.959 . S
H324 C317 0.961 . S
H325 C317 0.960 . S
H326 C318 0.930 . S
H327 C319 0.929 . S
H328 C336 0.929 . S
H329 C338 0.930 . S
H330 C340 0.930 . S
H331 C343 0.929 . S
H332 C346 0.930 . S
H333 C348 0.960 . S
H334 C348 0.960 . S
H335 C348 0.960 . S
C336 H328 0.929 . S
C336 C337 1.377 . S
C336 C338 1.384 . S
C337 C336 1.377 . S
C337 C343 1.390 . S
C338 H329 0.930 . S
C338 C336 1.384 . S
C338 C339 1.372 . S
C339 C338 1.372 . S
C339 C340 1.400 . S
C339 C344 1.490 . S
C340 H330 0.930 . S
C340 C339 1.400 . S
C340 C343 1.386 . S
H341 C357 0.930 . S
H342 C358 0.931 . S
C343 H331 0.929 . S
C343 C337 1.390 . S
C343 C340 1.386 . S
C344 C339 1.490 . S
C344 C346 1.395 . S
C344 C347 1.403 . S
H345 C351 0.930 . S
C346 H332 0.930 . S
C346 C344 1.395 . S
C346 C349 1.403 . S
C347 C344 1.403 . S
C347 C348 1.524 . S
C347 C351 1.400 . S
C348 H333 0.960 . S
C348 H334 0.960 . S
C348 H335 0.960 . S
C348 C347 1.524 . S
C349 C346 1.403 . S
C349 C350 1.392 . S
C349 C353 1.495 . S
C350 C349 1.392 . S
C350 C351 1.385 . S
C350 C352 1.478 . S
C351 H345 0.930 . S
C351 C347 1.400 . S
C351 C350 1.385 . S
C352 C350 1.478 . S
C352 C354 1.381 . S
C352 C358 1.383 . S
C353 C349 1.495 . S
C353 H359 0.959 . S
C353 H360 0.961 . S
C353 H361 0.960 . S
C354 C352 1.381 . S
C354 C355 1.394 . S
C354 H362 0.930 . S
C355 C354 1.394 . S
C355 C356 1.383 . S
C355 H363 0.929 . S
C356 C355 1.383 . S
C356 C357 1.377 . S
C357 H341 0.930 . S
C357 C356 1.377 . S
C357 C358 1.379 . S
C358 H342 0.931 . S
C358 C352 1.383 . S
C358 C357 1.379 . S
H359 C353 0.959 . S
H360 C353 0.961 . S
H361 C353 0.960 . S
H362 C354 0.930 . S
H363 C355 0.929 . S
H364 C372 0.929 . S
H365 C374 0.930 . S
H366 C376 0.930 . S
H367 C379 0.929 . S
H368 C382 0.930 . S
H369 C384 0.960 . S
H370 C384 0.960 . S
H371 C384 0.960 . S
C372 H364 0.929 . S
C372 C373 1.377 . S
C372 C374 1.384 . S
C373 C372 1.377 . S
C373 C379 1.390 . S
C374 H365 0.930 . S
C374 C372 1.384 . S
C374 C375 1.372 . S
C375 C374 1.372 . S
C375 C376 1.400 . S
C375 C380 1.490 . S
C376 H366 0.930 . S
C376 C375 1.400 . S
C376 C379 1.386 . S
H377 C393 0.930 . S
H378 C394 0.931 . S
C379 H367 0.929 . S
C379 C373 1.390 . S
C379 C376 1.386 . S
C380 C375 1.490 . S
C380 C382 1.395 . S
C380 C383 1.403 . S
H381 C387 0.930 . S
C382 H368 0.930 . S
C382 C380 1.395 . S
C382 C385 1.403 . S
C383 C380 1.403 . S
C383 C384 1.524 . S
C383 C387 1.400 . S
C384 H369 0.960 . S
C384 H370 0.960 . S
C384 H371 0.960 . S
C384 C383 1.524 . S
C385 C382 1.403 . S
C385 C386 1.392 . S
C385 C389 1.495 . S
C386 C385 1.392 . S
C386 C387 1.385 . S
C386 C388 1.478 . S
C387 H381 0.930 . S
C387 C383 1.400 . S
C387 C386 1.385 . S
C388 C386 1.478 . S
C388 C390 1.381 . S
C388 C394 1.383 . S
C389 C385 1.495 . S
C389 H395 0.959 . S
C389 H396 0.961 . S
C389 H397 0.960 . S
C390 C388 1.381 . S
C390 C391 1.394 . S
C390 H398 0.930 . S
C391 C390 1.394 . S
C391 C392 1.383 . S
C391 H399 0.929 . S
C392 C391 1.383 . S
C392 C393 1.377 . S
C393 H377 0.930 . S
C393 C392 1.377 . S
C393 C394 1.379 . S
C394 H378 0.931 . S
C394 C388 1.383 . S
C394 C393 1.379 . S
H395 C389 0.959 . S
H396 C389 0.961 . S
H397 C389 0.960 . S
H398 C390 0.930 . S
H399 C391 0.929 . S
H400 C408 0.929 . S
H401 C410 0.930 . S
H402 C412 0.930 . S
H403 C415 0.929 . S
H404 C418 0.930 . S
H405 C420 0.960 . S
H406 C420 0.960 . S
H407 C420 0.960 . S
C408 H400 0.929 . S
C408 C409 1.377 . S
C408 C410 1.384 . S
C409 C408 1.377 . S
C409 C415 1.390 . S
C410 H401 0.930 . S
C410 C408 1.384 . S
C410 C411 1.372 . S
C411 C410 1.372 . S
C411 C412 1.400 . S
C411 C416 1.490 . S
C412 H402 0.930 . S
C412 C411 1.400 . S
C412 C415 1.386 . S
H413 C429 0.930 . S
H414 C430 0.931 . S
C415 H403 0.929 . S
C415 C409 1.390 . S
C415 C412 1.386 . S
C416 C411 1.490 . S
C416 C418 1.395 . S
C416 C419 1.403 . S
H417 C423 0.930 . S
C418 H404 0.930 . S
C418 C416 1.395 . S
C418 C421 1.403 . S
C419 C416 1.403 . S
C419 C420 1.524 . S
C419 C423 1.400 . S
C420 H405 0.960 . S
C420 H406 0.960 . S
C420 H407 0.960 . S
C420 C419 1.524 . S
C421 C418 1.403 . S
C421 C422 1.392 . S
C421 C425 1.495 . S
C422 C421 1.392 . S
C422 C423 1.385 . S
C422 C424 1.478 . S
C423 H417 0.930 . S
C423 C419 1.400 . S
C423 C422 1.385 . S
C424 C422 1.478 . S
C424 C426 1.381 . S
C424 C430 1.383 . S
C425 C421 1.495 . S
C425 H431 0.959 . S
C425 H432 0.961 . S
C425 H433 0.960 . S
C426 C424 1.381 . S
C426 C427 1.394 . S
C426 H434 0.930 . S
C427 C426 1.394 . S
C427 C428 1.383 . S
C427 H435 0.929 . S
C428 C427 1.383 . S
C428 C429 1.377 . S
C429 H413 0.930 . S
C429 C428 1.377 . S
C429 C430 1.379 . S
C430 H414 0.931 . S
C430 C424 1.383 . S
C430 C429 1.379 . S
H431 C425 0.959 . S
H432 C425 0.961 . S
H433 C425 0.960 . S
H434 C426 0.930 . S
H435 C427 0.929 . S
H436 C444 0.929 . S
H437 C446 0.930 . S
H438 C448 0.930 . S
H439 C451 0.929 . S
H440 C454 0.930 . S
H441 C456 0.960 . S
H442 C456 0.960 . S
H443 C456 0.960 . S
C444 H436 0.929 . S
C444 C445 1.377 . S
C444 C446 1.384 . S
C445 C444 1.377 . S
C445 C451 1.390 . S
C446 H437 0.930 . S
C446 C444 1.384 . S
C446 C447 1.372 . S
C447 C446 1.372 . S
C447 C448 1.400 . S
C447 C452 1.490 . S
C448 H438 0.930 . S
C448 C447 1.400 . S
C448 C451 1.386 . S
H449 C465 0.930 . S
H450 C466 0.931 . S
C451 H439 0.929 . S
C451 C445 1.390 . S
C451 C448 1.386 . S
C452 C447 1.490 . S
C452 C454 1.395 . S
C452 C455 1.403 . S
H453 C459 0.930 . S
C454 H440 0.930 . S
C454 C452 1.395 . S
C454 C457 1.403 . S
C455 C452 1.403 . S
C455 C456 1.524 . S
C455 C459 1.400 . S
C456 H441 0.960 . S
C456 H442 0.960 . S
C456 H443 0.960 . S
C456 C455 1.524 . S
C457 C454 1.403 . S
C457 C458 1.392 . S
C457 C461 1.495 . S
C458 C457 1.392 . S
C458 C459 1.385 . S
C458 C460 1.478 . S
C459 H453 0.930 . S
C459 C455 1.400 . S
C459 C458 1.385 . S
C460 C458 1.478 . S
C460 C462 1.381 . S
C460 C466 1.383 . S
C461 C457 1.495 . S
C461 H467 0.959 . S
C461 H468 0.961 . S
C461 H469 0.960 . S
C462 C460 1.381 . S
C462 C463 1.394 . S
C462 H470 0.930 . S
C463 C462 1.394 . S
C463 C464 1.383 . S
C463 H471 0.929 . S
C464 C463 1.383 . S
C464 C465 1.377 . S
C465 H449 0.930 . S
C465 C464 1.377 . S
C465 C466 1.379 . S
C466 H450 0.931 . S
C466 C460 1.383 . S
C466 C465 1.379 . S
H467 C461 0.959 . S
H468 C461 0.961 . S
H469 C461 0.960 . S
H470 C462 0.930 . S
H471 C463 0.929 . S
H472 C480 0.929 . S
H473 C482 0.930 . S
H474 C484 0.930 . S
H475 C487 0.929 . S
H476 C490 0.930 . S
H477 C492 0.960 . S
H478 C492 0.960 . S
H479 C492 0.960 . S
C480 H472 0.929 . S
C480 C481 1.377 . S
C480 C482 1.384 . S
C481 C480 1.377 . S
C481 C487 1.390 . S
C482 H473 0.930 . S
C482 C480 1.384 . S
C482 C483 1.372 . S
C483 C482 1.372 . S
C483 C484 1.400 . S
C483 C488 1.490 . S
C484 H474 0.930 . S
C484 C483 1.400 . S
C484 C487 1.386 . S
H485 C501 0.930 . S
H486 C502 0.931 . S
C487 H475 0.929 . S
C487 C481 1.390 . S
C487 C484 1.386 . S
C488 C483 1.490 . S
C488 C490 1.395 . S
C488 C491 1.403 . S
H489 C495 0.930 . S
C490 H476 0.930 . S
C490 C488 1.395 . S
C490 C493 1.403 . S
C491 C488 1.403 . S
C491 C492 1.524 . S
C491 C495 1.400 . S
C492 H477 0.960 . S
C492 H478 0.960 . S
C492 H479 0.960 . S
C492 C491 1.524 . S
C493 C490 1.403 . S
C493 C494 1.392 . S
C493 C497 1.495 . S
C494 C493 1.392 . S
C494 C495 1.385 . S
C494 C496 1.478 . S
C495 H489 0.930 . S
C495 C491 1.400 . S
C495 C494 1.385 . S
C496 C494 1.478 . S
C496 C498 1.381 . S
C496 C502 1.383 . S
C497 C493 1.495 . S
C497 H503 0.959 . S
C497 H504 0.961 . S
C497 H505 0.960 . S
C498 C496 1.381 . S
C498 C499 1.394 . S
C498 H506 0.930 . S
C499 C498 1.394 . S
C499 C500 1.383 . S
C499 H507 0.929 . S
C500 C499 1.383 . S
C500 C501 1.377 . S
C501 H485 0.930 . S
C501 C500 1.377 . S
C501 C502 1.379 . S
C502 H486 0.931 . S
C502 C496 1.383 . S
C502 C501 1.379 . S
H503 C497 0.959 . S
H504 C497 0.961 . S
H505 C497 0.960 . S
H506 C498 0.930 . S
H507 C499 0.929 . S
H508 C516 0.929 . S
H509 C518 0.930 . S
H510 C520 0.930 . S
H511 C523 0.929 . S
H512 C526 0.930 . S
H513 C528 0.960 . S
H514 C528 0.960 . S
H515 C528 0.960 . S
C516 H508 0.929 . S
C516 C517 1.377 . S
C516 C518 1.384 . S
C517 C516 1.377 . S
C517 C523 1.390 . S
C518 H509 0.930 . S
C518 C516 1.384 . S
C518 C519 1.372 . S
C519 C518 1.372 . S
C519 C520 1.400 . S
C519 C524 1.490 . S
C520 H510 0.930 . S
C520 C519 1.400 . S
C520 C523 1.386 . S
H521 C537 0.930 . S
H522 C538 0.931 . S
C523 H511 0.929 . S
C523 C517 1.390 . S
C523 C520 1.386 . S
C524 C519 1.490 . S
C524 C526 1.395 . S
C524 C527 1.403 . S
H525 C531 0.930 . S
C526 H512 0.930 . S
C526 C524 1.395 . S
C526 C529 1.403 . S
C527 C524 1.403 . S
C527 C528 1.524 . S
C527 C531 1.400 . S
C528 H513 0.960 . S
C528 H514 0.960 . S
C528 H515 0.960 . S
C528 C527 1.524 . S
C529 C526 1.403 . S
C529 C530 1.392 . S
C529 C533 1.495 . S
C530 C529 1.392 . S
C530 C531 1.385 . S
C530 C532 1.478 . S
C531 H525 0.930 . S
C531 C527 1.400 . S
C531 C530 1.385 . S
C532 C530 1.478 . S
C532 C534 1.381 . S
C532 C538 1.383 . S
C533 C529 1.495 . S
C533 H539 0.959 . S
C533 H540 0.961 . S
C533 H541 0.960 . S
C534 C532 1.381 . S
C534 C535 1.394 . S
C534 H542 0.930 . S
C535 C534 1.394 . S
C535 C536 1.383 . S
C535 H543 0.929 . S
C536 C535 1.383 . S
C536 C537 1.377 . S
C537 H521 0.930 . S
C537 C536 1.377 . S
C537 C538 1.379 . S
C538 H522 0.931 . S
C538 C532 1.383 . S
C538 C537 1.379 . S
H539 C533 0.959 . S
H540 C533 0.961 . S
H541 C533 0.960 . S
H542 C534 0.930 . S
H543 C535 0.929 . S
H544 C552 0.929 . S
H545 C554 0.930 . S
H546 C556 0.930 . S
H547 C559 0.929 . S
H548 C562 0.930 . S
H549 C564 0.960 . S
H550 C564 0.960 . S
H551 C564 0.960 . S
C552 H544 0.929 . S
C552 C553 1.377 . S
C552 C554 1.384 . S
C553 C552 1.377 . S
C553 C559 1.390 . S
C554 H545 0.930 . S
C554 C552 1.384 . S
C554 C555 1.372 . S
C555 C554 1.372 . S
C555 C556 1.400 . S
C555 C560 1.490 . S
C556 H546 0.930 . S
C556 C555 1.400 . S
C556 C559 1.386 . S
H557 C573 0.930 . S
H558 C574 0.931 . S
C559 H547 0.929 . S
C559 C553 1.390 . S
C559 C556 1.386 . S
C560 C555 1.490 . S
C560 C562 1.395 . S
C560 C563 1.403 . S
H561 C567 0.930 . S
C562 H548 0.930 . S
C562 C560 1.395 . S
C562 C565 1.403 . S
C563 C560 1.403 . S
C563 C564 1.524 . S
C563 C567 1.400 . S
C564 H549 0.960 . S
C564 H550 0.960 . S
C564 H551 0.960 . S
C564 C563 1.524 . S
C565 C562 1.403 . S
C565 C566 1.392 . S
C565 C569 1.495 . S
C566 C565 1.392 . S
C566 C567 1.385 . S
C566 C568 1.478 . S
C567 H561 0.930 . S
C567 C563 1.400 . S
C567 C566 1.385 . S
C568 C566 1.478 . S
C568 C570 1.381 . S
C568 C574 1.383 . S
C569 C565 1.495 . S
C569 H575 0.959 . S
C569 H576 0.961 . S
C569 H577 0.960 . S
C570 C568 1.381 . S
C570 C571 1.394 . S
C570 H578 0.930 . S
C571 C570 1.394 . S
C571 C572 1.383 . S
C571 H579 0.929 . S
C572 C571 1.383 . S
C572 C573 1.377 . S
C573 H557 0.930 . S
C573 C572 1.377 . S
C573 C574 1.379 . S
C574 H558 0.931 . S
C574 C568 1.383 . S
C574 C573 1.379 . S
H575 C569 0.959 . S
H576 C569 0.961 . S
H577 C569 0.960 . S
H578 C570 0.930 . S
H579 C571 0.929 . S
H580 C588 0.929 . S
H581 C590 0.930 . S
H582 C592 0.930 . S
H583 C595 0.929 . S
H584 C598 0.930 . S
H585 C600 0.960 . S
H586 C600 0.960 . S
H587 C600 0.960 . S
C588 H580 0.929 . S
C588 C589 1.377 . S
C588 C590 1.384 . S
C589 C588 1.377 . S
C589 C595 1.390 . S
C590 H581 0.930 . S
C590 C588 1.384 . S
C590 C591 1.372 . S
C591 C590 1.372 . S
C591 C592 1.400 . S
C591 C596 1.490 . S
C592 H582 0.930 . S
C592 C591 1.400 . S
C592 C595 1.386 . S
H593 C609 0.930 . S
H594 C610 0.931 . S
C595 H583 0.929 . S
C595 C589 1.390 . S
C595 C592 1.386 . S
C596 C591 1.490 . S
C596 C598 1.395 . S
C596 C599 1.403 . S
H597 C603 0.930 . S
C598 H584 0.930 . S
C598 C596 1.395 . S
C598 C601 1.403 . S
C599 C596 1.403 . S
C599 C600 1.524 . S
C599 C603 1.400 . S
C600 H585 0.960 . S
C600 H586 0.960 . S
C600 H587 0.960 . S
C600 C599 1.524 . S
C601 C598 1.403 . S
C601 C602 1.392 . S
C601 C605 1.495 . S
C602 C601 1.392 . S
C602 C603 1.385 . S
C602 C604 1.478 . S
C603 H597 0.930 . S
C603 C599 1.400 . S
C603 C602 1.385 . S
C604 C602 1.478 . S
C604 C606 1.381 . S
C604 C610 1.383 . S
C605 C601 1.495 . S
C605 H611 0.959 . S
C605 H612 0.961 . S
C605 H613 0.960 . S
C606 C604 1.381 . S
C606 C607 1.394 . S
C606 H614 0.930 . S
C607 C606 1.394 . S
C607 C608 1.383 . S
C607 H615 0.929 . S
C608 C607 1.383 . S
C608 C609 1.377 . S
C609 H593 0.930 . S
C609 C608 1.377 . S
C609 C610 1.379 . S
C610 H594 0.931 . S
C610 C604 1.383 . S
C610 C609 1.379 . S
H611 C605 0.959 . S
H612 C605 0.961 . S
H613 C605 0.960 . S
H614 C606 0.930 . S
H615 C607 0.929 . S
H616 C624 0.929 . S
H617 C626 0.930 . S
H618 C628 0.930 . S
H619 C631 0.929 . S
H620 C634 0.930 . S
H621 C636 0.960 . S
H622 C636 0.960 . S
H623 C636 0.960 . S
C624 H616 0.929 . S
C624 C625 1.377 . S
C624 C626 1.384 . S
C625 C624 1.377 . S
C625 C631 1.390 . S
C626 H617 0.930 . S
C626 C624 1.384 . S
C626 C627 1.372 . S
C627 C626 1.372 . S
C627 C628 1.400 . S
C627 C632 1.490 . S
C628 H618 0.930 . S
C628 C627 1.400 . S
C628 C631 1.386 . S
H629 C645 0.930 . S
H630 C646 0.931 . S
C631 H619 0.929 . S
C631 C625 1.390 . S
C631 C628 1.386 . S
C632 C627 1.490 . S
C632 C634 1.395 . S
C632 C635 1.403 . S
H633 C639 0.930 . S
C634 H620 0.930 . S
C634 C632 1.395 . S
C634 C637 1.403 . S
C635 C632 1.403 . S
C635 C636 1.524 . S
C635 C639 1.400 . S
C636 H621 0.960 . S
C636 H622 0.960 . S
C636 H623 0.960 . S
C636 C635 1.524 . S
C637 C634 1.403 . S
C637 C638 1.392 . S
C637 C641 1.495 . S
C638 C637 1.392 . S
C638 C639 1.385 . S
C638 C640 1.478 . S
C639 H633 0.930 . S
C639 C635 1.400 . S
C639 C638 1.385 . S
C640 C638 1.478 . S
C640 C642 1.381 . S
C640 C646 1.383 . S
C641 C637 1.495 . S
C641 H647 0.959 . S
C641 H648 0.961 . S
C641 H649 0.960 . S
C642 C640 1.381 . S
C642 C643 1.394 . S
C642 H650 0.930 . S
C643 C642 1.394 . S
C643 C644 1.383 . S
C643 H651 0.929 1_545 S
C644 C643 1.383 . S
C644 C645 1.377 . S
C645 H629 0.930 . S
C645 C644 1.377 . S
C645 C646 1.379 . S
C646 H630 0.931 . S
C646 C640 1.383 . S
C646 C645 1.379 . S
H647 C641 0.959 . S
H648 C641 0.961 . S
H649 C641 0.960 . S
H650 C642 0.930 . S
H651 C643 0.929 1_565 S
H652 C660 0.929 . S
H653 C662 0.930 . S
H654 C664 0.930 . S
H655 C667 0.929 . S
H656 C670 0.930 . S
H657 C672 0.960 . S
H658 C672 0.960 . S
H659 C672 0.960 . S
C660 H652 0.929 . S
C660 C661 1.377 . S
C660 C662 1.384 . S
C661 C660 1.377 . S
C661 C667 1.390 . S
C662 H653 0.930 . S
C662 C660 1.384 . S
C662 C663 1.372 . S
C663 C662 1.372 . S
C663 C664 1.400 . S
C663 C668 1.490 . S
C664 H654 0.930 . S
C664 C663 1.400 . S
C664 C667 1.386 . S
H665 C681 0.930 . S
H666 C682 0.931 . S
C667 H655 0.929 . S
C667 C661 1.390 . S
C667 C664 1.386 . S
C668 C663 1.490 . S
C668 C670 1.395 . S
C668 C671 1.403 . S
H669 C675 0.930 . S
C670 H656 0.930 . S
C670 C668 1.395 . S
C670 C673 1.403 . S
C671 C668 1.403 . S
C671 C672 1.524 . S
C671 C675 1.400 . S
C672 H657 0.960 . S
C672 H658 0.960 . S
C672 H659 0.960 . S
C672 C671 1.524 . S
C673 C670 1.403 . S
C673 C674 1.392 . S
C673 C677 1.495 . S
C674 C673 1.392 . S
C674 C675 1.385 . S
C674 C676 1.478 . S
C675 H669 0.930 . S
C675 C671 1.400 . S
C675 C674 1.385 . S
C676 C674 1.478 . S
C676 C678 1.381 . S
C676 C682 1.383 . S
C677 C673 1.495 . S
C677 H683 0.959 . S
C677 H684 0.961 . S
C677 H685 0.960 . S
C678 C676 1.381 . S
C678 C679 1.394 . S
C678 H686 0.930 . S
C679 C678 1.394 . S
C679 C680 1.383 . S
C679 H687 0.929 . S
C680 C679 1.383 . S
C680 C681 1.377 . S
C681 H665 0.930 . S
C681 C680 1.377 . S
C681 C682 1.379 . S
C682 H666 0.931 . S
C682 C676 1.383 . S
C682 C681 1.379 . S
H683 C677 0.959 . S
H684 C677 0.961 . S
H685 C677 0.960 . S
H686 C678 0.930 . S
H687 C679 0.929 . S
C121 C68 1.801 . S
C140 C13 1.808 . S
C157 C27 1.795 . S
C176 C71 1.778 . S
C193 C29 1.796 . S
C212 C84 1.777 . S
C229 C98 1.796 . S
C248 C42 1.798 . S
C265 C0 2.275 . S
C284 C40 2.265 . S
C301 C14 2.274 . S
C320 C55 2.275 . S
C337 C97 2.275 . S
C356 C57 2.264 . S
C373 C82 2.273 . S
C392 C111 2.281 . S
C409 C70 1.327 . S
C428 C1 1.305 . S
C445 C15 1.312 . S
C464 C85 1.329 . S
C481 C41 1.305 . S
C500 C99 1.314 . S
C517 C69 1.324 . S
C536 C54 1.284 . S
C553 C56 1.308 . S
C572 C26 1.318 . S
C589 C83 1.311 . S
C608 C28 1.314 . S
C625 C96 1.306 . S
C644 C43 1.322 . S
C661 C12 1.325 . S
C680 C110 1.304 . S
