# Generated by pormake.
# Topology vcb, (5)-cn, num edge types: 1
# Building blocks:
#     Node 0, Type 0, BuildingBlock: XOMCOT_clean_sbu_1, # of connection points: 5
#     Node 1, Type 0, BuildingBlock: XOMCOT_clean_sbu_1, # of connection points: 5
#     Node 2, Type 0, BuildingBlock: XOMCOT_clean_sbu_1, # of connection points: 5
#     Node 3, Type 0, BuildingBlock: XOMCOT_clean_sbu_1, # of connection points: 5
#     Node 4, Type 0, BuildingBlock: XOMCOT_clean_sbu_1, # of connection points: 5
#     Node 5, Type 0, BuildingBlock: XOMCOT_clean_sbu_1, # of connection points: 5
#     Node 6, Type 0, BuildingBlock: XOMCOT_clean_sbu_1, # of connection points: 5
#     Node 7, Type 0, BuildingBlock: XOMCOT_clean_sbu_1, # of connection points: 5
#     Node 8, Type 0, BuildingBlock: XOMCOT_clean_sbu_1, # of connection points: 5
#     Node 9, Type 0, BuildingBlock: XOMCOT_clean_sbu_1, # of connection points: 5
#     Node 10, Type 0, BuildingBlock: XOMCOT_clean_sbu_1, # of connection points: 5
#     Node 11, Type 0, BuildingBlock: XOMCOT_clean_sbu_1, # of connection points: 5
#     Node 12, Type 0, BuildingBlock: XOMCOT_clean_sbu_1, # of connection points: 5
#     Node 13, Type 0, BuildingBlock: XOMCOT_clean_sbu_1, # of connection points: 5
#     Node 14, Type 0, BuildingBlock: XOMCOT_clean_sbu_1, # of connection points: 5
#     Node 15, Type 0, BuildingBlock: XOMCOT_clean_sbu_1, # of connection points: 5
#     Node 16, Type 0, BuildingBlock: XOMCOT_clean_sbu_1, # of connection points: 5
#     Node 17, Type 0, BuildingBlock: XOMCOT_clean_sbu_1, # of connection points: 5
#     Node 18, Type 0, BuildingBlock: XOMCOT_clean_sbu_1, # of connection points: 5
#     Node 19, Type 0, BuildingBlock: XOMCOT_clean_sbu_1, # of connection points: 5
#     Node 20, Type 0, BuildingBlock: XOMCOT_clean_sbu_1, # of connection points: 5
#     Node 21, Type 0, BuildingBlock: XOMCOT_clean_sbu_1, # of connection points: 5
#     Node 22, Type 0, BuildingBlock: XOMCOT_clean_sbu_1, # of connection points: 5
#     Node 23, Type 0, BuildingBlock: XOMCOT_clean_sbu_1, # of connection points: 5
#     Node 24, Type 0, BuildingBlock: XOMCOT_clean_sbu_1, # of connection points: 5
#     Node 25, Type 0, BuildingBlock: XOMCOT_clean_sbu_1, # of connection points: 5
#     Node 26, Type 0, BuildingBlock: XOMCOT_clean_sbu_1, # of connection points: 5
#     Node 27, Type 0, BuildingBlock: XOMCOT_clean_sbu_1, # of connection points: 5
#     Node 28, Type 0, BuildingBlock: XOMCOT_clean_sbu_1, # of connection points: 5
#     Node 29, Type 0, BuildingBlock: XOMCOT_clean_sbu_1, # of connection points: 5
#     Node 30, Type 0, BuildingBlock: XOMCOT_clean_sbu_1, # of connection points: 5
#     Node 31, Type 0, BuildingBlock: XOMCOT_clean_sbu_1, # of connection points: 5
#     Edge 32, Type (0, 0), BuildingBlock: CIFDUS_clean_linker_0, # of connection points: 2
#     Edge 33, Type (0, 0), BuildingBlock: CIFDUS_clean_linker_0, # of connection points: 2
#     Edge 34, Type (0, 0), BuildingBlock: CIFDUS_clean_linker_0, # of connection points: 2
#     Edge 35, Type (0, 0), BuildingBlock: CIFDUS_clean_linker_0, # of connection points: 2
#     Edge 36, Type (0, 0), BuildingBlock: CIFDUS_clean_linker_0, # of connection points: 2
#     Edge 37, Type (0, 0), BuildingBlock: CIFDUS_clean_linker_0, # of connection points: 2
#     Edge 38, Type (0, 0), BuildingBlock: CIFDUS_clean_linker_0, # of connection points: 2
#     Edge 39, Type (0, 0), BuildingBlock: CIFDUS_clean_linker_0, # of connection points: 2
#     Edge 40, Type (0, 0), BuildingBlock: CIFDUS_clean_linker_0, # of connection points: 2
#     Edge 41, Type (0, 0), BuildingBlock: CIFDUS_clean_linker_0, # of connection points: 2
#     Edge 42, Type (0, 0), BuildingBlock: CIFDUS_clean_linker_0, # of connection points: 2
#     Edge 43, Type (0, 0), BuildingBlock: CIFDUS_clean_linker_0, # of connection points: 2
#     Edge 44, Type (0, 0), BuildingBlock: CIFDUS_clean_linker_0, # of connection points: 2
#     Edge 45, Type (0, 0), BuildingBlock: CIFDUS_clean_linker_0, # of connection points: 2
#     Edge 46, Type (0, 0), BuildingBlock: CIFDUS_clean_linker_0, # of connection points: 2
#     Edge 47, Type (0, 0), BuildingBlock: CIFDUS_clean_linker_0, # of connection points: 2
#     Edge 48, Type (0, 0), BuildingBlock: CIFDUS_clean_linker_0, # of connection points: 2
#     Edge 49, Type (0, 0), BuildingBlock: CIFDUS_clean_linker_0, # of connection points: 2
#     Edge 50, Type (0, 0), BuildingBlock: CIFDUS_clean_linker_0, # of connection points: 2
#     Edge 51, Type (0, 0), BuildingBlock: CIFDUS_clean_linker_0, # of connection points: 2
#     Edge 52, Type (0, 0), BuildingBlock: CIFDUS_clean_linker_0, # of connection points: 2
#     Edge 53, Type (0, 0), BuildingBlock: CIFDUS_clean_linker_0, # of connection points: 2
#     Edge 54, Type (0, 0), BuildingBlock: CIFDUS_clean_linker_0, # of connection points: 2
#     Edge 55, Type (0, 0), BuildingBlock: CIFDUS_clean_linker_0, # of connection points: 2
#     Edge 56, Type (0, 0), BuildingBlock: CIFDUS_clean_linker_0, # of connection points: 2
#     Edge 57, Type (0, 0), BuildingBlock: CIFDUS_clean_linker_0, # of connection points: 2
#     Edge 58, Type (0, 0), BuildingBlock: CIFDUS_clean_linker_0, # of connection points: 2
#     Edge 59, Type (0, 0), BuildingBlock: CIFDUS_clean_linker_0, # of connection points: 2
#     Edge 60, Type (0, 0), BuildingBlock: CIFDUS_clean_linker_0, # of connection points: 2
#     Edge 61, Type (0, 0), BuildingBlock: CIFDUS_clean_linker_0, # of connection points: 2
#     Edge 62, Type (0, 0), BuildingBlock: CIFDUS_clean_linker_0, # of connection points: 2
#     Edge 63, Type (0, 0), BuildingBlock: CIFDUS_clean_linker_0, # of connection points: 2
#     Edge 64, Type (0, 0), BuildingBlock: CIFDUS_clean_linker_0, # of connection points: 2
#     Edge 65, Type (0, 0), BuildingBlock: CIFDUS_clean_linker_0, # of connection points: 2
#     Edge 66, Type (0, 0), BuildingBlock: CIFDUS_clean_linker_0, # of connection points: 2
#     Edge 67, Type (0, 0), BuildingBlock: CIFDUS_clean_linker_0, # of connection points: 2
#     Edge 68, Type (0, 0), BuildingBlock: CIFDUS_clean_linker_0, # of connection points: 2
#     Edge 69, Type (0, 0), BuildingBlock: CIFDUS_clean_linker_0, # of connection points: 2
#     Edge 70, Type (0, 0), BuildingBlock: CIFDUS_clean_linker_0, # of connection points: 2
#     Edge 71, Type (0, 0), BuildingBlock: CIFDUS_clean_linker_0, # of connection points: 2
#     Edge 72, Type (0, 0), BuildingBlock: CIFDUS_clean_linker_0, # of connection points: 2
#     Edge 73, Type (0, 0), BuildingBlock: CIFDUS_clean_linker_0, # of connection points: 2
#     Edge 74, Type (0, 0), BuildingBlock: CIFDUS_clean_linker_0, # of connection points: 2
#     Edge 75, Type (0, 0), BuildingBlock: CIFDUS_clean_linker_0, # of connection points: 2
#     Edge 76, Type (0, 0), BuildingBlock: CIFDUS_clean_linker_0, # of connection points: 2
#     Edge 77, Type (0, 0), BuildingBlock: CIFDUS_clean_linker_0, # of connection points: 2
#     Edge 78, Type (0, 0), BuildingBlock: CIFDUS_clean_linker_0, # of connection points: 2
#     Edge 79, Type (0, 0), BuildingBlock: CIFDUS_clean_linker_0, # of connection points: 2
#     Edge 80, Type (0, 0), BuildingBlock: CIFDUS_clean_linker_0, # of connection points: 2
#     Edge 81, Type (0, 0), BuildingBlock: CIFDUS_clean_linker_0, # of connection points: 2
#     Edge 82, Type (0, 0), BuildingBlock: CIFDUS_clean_linker_0, # of connection points: 2
#     Edge 83, Type (0, 0), BuildingBlock: CIFDUS_clean_linker_0, # of connection points: 2
#     Edge 84, Type (0, 0), BuildingBlock: CIFDUS_clean_linker_0, # of connection points: 2
#     Edge 85, Type (0, 0), BuildingBlock: CIFDUS_clean_linker_0, # of connection points: 2
#     Edge 86, Type (0, 0), BuildingBlock: CIFDUS_clean_linker_0, # of connection points: 2
#     Edge 87, Type (0, 0), BuildingBlock: CIFDUS_clean_linker_0, # of connection points: 2
#     Edge 88, Type (0, 0), BuildingBlock: CIFDUS_clean_linker_0, # of connection points: 2
#     Edge 89, Type (0, 0), BuildingBlock: CIFDUS_clean_linker_0, # of connection points: 2
#     Edge 90, Type (0, 0), BuildingBlock: CIFDUS_clean_linker_0, # of connection points: 2
#     Edge 91, Type (0, 0), BuildingBlock: CIFDUS_clean_linker_0, # of connection points: 2
#     Edge 92, Type (0, 0), BuildingBlock: CIFDUS_clean_linker_0, # of connection points: 2
#     Edge 93, Type (0, 0), BuildingBlock: CIFDUS_clean_linker_0, # of connection points: 2
#     Edge 94, Type (0, 0), BuildingBlock: CIFDUS_clean_linker_0, # of connection points: 2
#     Edge 95, Type (0, 0), BuildingBlock: CIFDUS_clean_linker_0, # of connection points: 2
#     Edge 96, Type (0, 0), BuildingBlock: CIFDUS_clean_linker_0, # of connection points: 2
#     Edge 97, Type (0, 0), BuildingBlock: CIFDUS_clean_linker_0, # of connection points: 2
#     Edge 98, Type (0, 0), BuildingBlock: CIFDUS_clean_linker_0, # of connection points: 2
#     Edge 99, Type (0, 0), BuildingBlock: CIFDUS_clean_linker_0, # of connection points: 2
#     Edge 100, Type (0, 0), BuildingBlock: CIFDUS_clean_linker_0, # of connection points: 2
#     Edge 101, Type (0, 0), BuildingBlock: CIFDUS_clean_linker_0, # of connection points: 2
#     Edge 102, Type (0, 0), BuildingBlock: CIFDUS_clean_linker_0, # of connection points: 2
#     Edge 103, Type (0, 0), BuildingBlock: CIFDUS_clean_linker_0, # of connection points: 2
#     Edge 104, Type (0, 0), BuildingBlock: CIFDUS_clean_linker_0, # of connection points: 2
#     Edge 105, Type (0, 0), BuildingBlock: CIFDUS_clean_linker_0, # of connection points: 2
#     Edge 106, Type (0, 0), BuildingBlock: CIFDUS_clean_linker_0, # of connection points: 2
#     Edge 107, Type (0, 0), BuildingBlock: CIFDUS_clean_linker_0, # of connection points: 2
#     Edge 108, Type (0, 0), BuildingBlock: CIFDUS_clean_linker_0, # of connection points: 2
#     Edge 109, Type (0, 0), BuildingBlock: CIFDUS_clean_linker_0, # of connection points: 2
#     Edge 110, Type (0, 0), BuildingBlock: CIFDUS_clean_linker_0, # of connection points: 2
#     Edge 111, Type (0, 0), BuildingBlock: CIFDUS_clean_linker_0, # of connection points: 2
# Relax obj value: 0.107
# Max RMSD: 0.133
# Mean RMSD: 0.133
data_MOF--net-vcb--node1-XOMCOT_clean_sbu_1--edge1-CIFDUS_clean_linker_0
_symmetry_space_group_name_H-M    P1
_symmetry_Int_Tables_number       1
_symmetry_cell_setting            triclinic
loop_
_symmetry_equiv_pos_as_xyz
'x, y, z'
_cell_length_a     60.837383
_cell_length_b     86.123232
_cell_length_c     23.849942
_cell_angle_alpha  89.818401
_cell_angle_beta   90.021091
_cell_angle_gamma 90.04762
loop_
_atom_site_label
_atom_site_type_symbol
_atom_site_fract_x
_atom_site_fract_y
_atom_site_fract_z
_atom_type_partial_charge
C0 C 1.00127 0.08075 0.28547 0.0
C1 C 0.97891 0.08263 0.28629 0.0
N2 N 0.97307 0.0884 0.33661 0.0
N3 N 1.00977 0.08534 0.33482 0.0
C4 C 0.9922 0.08994 0.36537 0.0
H5 H 1.01067 0.07574 0.25162 0.0
Co6 Co 0.03956 0.08292 0.35047 0.0
C7 C 0.04747 0.09611 0.46264 0.0
O8 O 0.06057 0.0843 0.47263 0.0
N9 N 0.07028 0.08033 0.36325 0.0
C10 C 0.10435 0.07087 0.36688 0.0
C11 C 0.08243 0.06718 0.36489 0.0
C12 C 0.08549 0.09187 0.36437 0.0
N13 N 0.10632 0.08641 0.36612 0.0
O14 O 0.04592 0.09963 0.30084 0.0
H15 H 0.07627 0.05548 0.36284 0.0
H16 H 0.08137 0.10407 0.36155 0.0
O17 O 0.03765 0.09723 0.41515 0.0
C18 C 0.05151 0.09436 0.25303 0.0
O19 O 0.05361 0.07926 0.24705 0.0
N20 N 0.03245 0.06553 0.39383 0.0
C21 C 1.02494 0.03697 0.44466 0.0
C22 C 1.01937 0.05076 0.47232 0.0
C23 C 1.02268 0.06499 0.44539 0.0
C24 C 0.03508 0.05225 0.36385 0.0
C25 C 0.03206 0.03781 0.38886 0.0
H26 H 1.01733 0.0754 0.46622 0.0
H27 H 0.04074 0.05292 0.32091 0.0
H28 H 0.99339 0.09394 0.4082 0.0
H29 H 0.96776 0.0792 0.25322 0.0
H30 H 0.11784 0.06269 0.36803 0.0
H31 H 1.01261 0.05057 0.51431 0.0
H32 H 0.03616 0.02748 0.36532 0.0
C33 C 0.31305 0.16635 0.34605 0.0
C34 C 0.33523 0.16497 0.33626 0.0
N35 N 0.34156 0.15057 0.35136 0.0
N36 N 0.30531 0.15298 0.36815 0.0
C37 C 0.32296 0.14342 0.36894 0.0
H38 H 0.30334 0.17665 0.33861 0.0
Co39 Co 0.27592 0.1492 0.38991 0.0
C40 C 0.30082 0.13662 0.49341 0.0
O41 O 0.31922 0.14422 0.48449 0.0
N42 N 0.24654 0.14549 0.41156 0.0
C43 C 0.21673 0.14487 0.4656 0.0
C44 C 0.23853 0.1488 0.463 0.0
C45 C 0.22919 0.1393 0.38377 0.0
N46 N 0.21083 0.13889 0.41584 0.0
O47 O 0.27594 0.13076 0.34521 0.0
H48 H 0.24801 0.15362 0.49712 0.0
H49 H 0.22991 0.13519 0.341 0.0
O50 O 0.28474 0.13799 0.45899 0.0
C51 C 0.27247 0.13617 0.29591 0.0
O52 O 0.26939 0.1512 0.29043 0.0
N53 N 0.27484 0.16838 0.42566 0.0
C54 C 0.27142 0.19945 0.45434 0.0
C55 C 0.28225 0.189 0.49004 0.0
C56 C 0.28392 0.1734 0.47471 0.0
C57 C 0.26346 0.17834 0.39201 0.0
C58 C 0.26168 0.19396 0.40527 0.0
H59 H 0.29259 0.16566 0.50217 0.0
H60 H 0.2562 0.17415 0.35356 0.0
H61 H 0.32233 0.13157 0.38414 0.0
H62 H 0.34606 0.17416 0.32219 0.0
H63 H 0.20618 0.14588 0.50195 0.0
H64 H 0.28992 0.19294 0.52845 0.0
H65 H 0.25297 0.20171 0.37712 0.0
C66 C 0.99636 0.14906 0.94098 0.0
C67 C 0.97391 0.14766 0.94149 0.0
N68 N 0.96693 0.14625 0.8882 0.0
N69 N 1.00365 0.1484 0.88767 0.0
C70 C 0.9853 0.14669 0.85631 0.0
H71 H 1.00662 0.15105 0.97724 0.0
Co72 Co 0.03302 0.1511 0.86853 0.0
C73 C 0.03783 0.1417 0.75051 0.0
O74 O 0.04966 0.1543 0.7429 0.0
N75 N 0.06318 0.15362 0.85119 0.0
C76 C 0.09804 0.1613 0.84419 0.0
C77 C 0.07671 0.16608 0.85269 0.0
C78 C 0.07675 0.1415 0.84135 0.0
N79 N 0.09799 0.14579 0.8373 0.0
O80 O 0.04009 0.13294 0.91107 0.0
H81 H 0.07189 0.17784 0.86174 0.0
H82 H 0.07121 0.12956 0.84025 0.0
O83 O 0.02936 0.13884 0.7988 0.0
C84 C 0.04761 0.13754 0.95817 0.0
O85 O 0.05047 0.15253 0.96561 0.0
N86 N 1.02564 0.16988 0.83436 0.0
C87 C 1.01739 0.2004 0.80341 0.0
C88 C 1.01066 0.18816 0.76872 0.0
C89 C 1.01455 0.17285 0.78564 0.0
C90 C 0.02992 0.18159 0.87093 0.0
C91 C 1.02638 0.19696 0.85594 0.0
H92 H 1.00868 0.16355 0.75942 0.0
H93 H 0.03685 0.17893 0.9116 0.0
H94 H 0.98531 0.14617 0.81101 0.0
H95 H 0.96343 0.14854 0.97802 0.0
H96 H 0.11251 0.16861 0.84484 0.0
H97 H 1.00299 0.19039 0.72852 0.0
H98 H 0.03092 0.20608 0.88491 0.0
C99 C 0.31004 0.08375 0.95612 0.0
C100 C 0.3324 0.08503 0.95087 0.0
N101 N 0.33703 0.08815 0.89689 0.0
N102 N 0.30054 0.08626 0.90581 0.0
C103 C 0.31748 0.08876 0.87018 0.0
H104 H 0.30132 0.08093 -0.00576 0.0
Co105 Co 0.27033 0.08583 0.8954 0.0
C106 C 0.26115 0.0974 0.78101 0.0
O107 O 0.24601 0.08655 0.77819 0.0
N108 N 0.23939 0.0856 0.88728 0.0
C109 C 0.20371 0.0801 0.88021 0.0
C110 C 0.22447 0.07395 0.88609 0.0
C111 C 0.22717 0.09866 0.88302 0.0
N112 N 0.20551 0.09567 0.87837 0.0
O113 O 0.26787 0.10363 0.94307 0.0
H114 H 0.22809 0.06173 0.88935 0.0
H115 H 0.23417 0.11021 0.88198 0.0
O116 O 0.27295 0.09866 0.82554 0.0
C117 C 0.26271 0.09845 0.99166 0.0
O118 O 0.25809 0.0836 -0.00327 0.0
N119 N 0.27354 0.06726 0.85643 0.0
C120 C 0.28288 0.03712 0.82239 0.0
C121 C 0.28751 0.04976 0.78708 0.0
C122 C 0.28311 0.06483 0.80536 0.0
C123 C 0.26975 0.05512 0.89179 0.0
C124 C 0.27385 0.03995 0.87532 0.0
H125 H 0.28841 0.07438 0.77942 0.0
H126 H 0.2637 0.05731 0.93366 0.0
H127 H 0.31564 0.09093 0.82573 0.0
H128 H 0.34444 0.08325 0.98374 0.0
H129 H 0.18847 0.07363 0.87848 0.0
H130 H 0.29523 0.04807 0.74665 0.0
H131 H 0.27009 0.03055 0.90402 0.0
C132 C 0.0659 0.90541 0.70267 0.0
C133 C 0.08837 0.90472 0.69806 0.0
N134 N 0.09348 0.90135 0.64459 0.0
N135 N 0.05665 0.90232 0.65255 0.0
C136 C 0.07395 0.90003 0.61762 0.0
H137 H 0.05691 0.90818 0.74037 0.0
Co138 Co 1.02609 0.90177 0.64177 0.0
C139 C 1.01849 0.88787 0.53081 0.0
O140 O 1.00188 0.89746 0.52444 0.0
N141 N 0.99478 0.90105 0.63334 0.0
C142 C 0.95899 0.9065 0.62851 0.0
C143 C 0.97978 0.91263 0.63318 0.0
C144 C 0.9824 0.88795 0.62997 0.0
N145 N 0.96059 0.89094 0.62633 0.0
O146 O 1.02429 0.88444 0.69086 0.0
H147 H 0.98322 0.92483 0.63731 0.0
H148 H 0.98938 0.8764 0.62941 0.0
O149 O 0.02982 0.88823 0.57611 0.0
C150 C 1.01855 0.88947 0.73888 0.0
O151 O 1.01412 0.90434 0.74419 0.0
N152 N 1.02828 0.91987 0.5989 0.0
C153 C 1.0282 0.94917 0.54984 0.0
C154 C 0.03557 0.93623 0.51966 0.0
C155 C 0.03598 0.92167 0.54547 0.0
C156 C 1.02348 0.93255 0.63047 0.0
C157 C 1.02274 0.94727 0.6065 0.0
H158 H 0.04268 0.91204 0.52239 0.0
H159 H 1.01917 0.93107 0.67416 0.0
H160 H 0.07233 0.8974 0.57348 0.0
H161 H 0.10011 0.90698 0.73118 0.0
H162 H 0.94383 0.91306 0.62837 0.0
H163 H 0.04112 0.93736 0.47668 0.0
H164 H 1.01731 0.95695 0.63182 0.0
C165 C 0.74465 0.8326 0.67931 0.0
C166 C 0.72214 0.83309 0.67608 0.0
N167 N 0.71636 0.83697 0.6233 0.0
N168 N 0.75333 0.83621 0.629 0.0
C169 C 0.73569 0.8388 0.59554 0.0
H170 H 0.75409 0.82921 0.71574 0.0
Co171 Co 0.78362 0.83515 0.61522 0.0
C172 C 0.79061 0.84578 0.49935 0.0
O173 O 0.80407 0.834 0.49279 0.0
N174 N 0.81469 0.83417 0.60336 0.0
C175 C 0.84997 0.82724 0.59918 0.0
C176 C 0.82866 0.82196 0.60327 0.0
C177 C 0.82811 0.84671 0.59901 0.0
N178 N 0.84964 0.84285 0.5968 0.0
O179 O 0.78783 0.85319 0.65968 0.0
H180 H 0.82409 0.80992 0.60722 0.0
H181 H 0.82215 0.85854 0.59956 0.0
O182 O 0.78065 0.84771 0.54621 0.0
C183 C 0.794 0.84831 0.70773 0.0
O184 O 0.79702 0.83331 0.71468 0.0
N185 N 0.77891 0.81637 0.57888 0.0
C186 C 0.77165 0.7858 0.54753 0.0
C187 C 0.76613 0.798 0.51105 0.0
C188 C 0.76925 0.81334 0.52835 0.0
C189 C 0.78266 0.80466 0.61609 0.0
C190 C 0.77951 0.78928 0.60107 0.0
H191 H 0.76353 0.8226 0.50154 0.0
H192 H 0.78859 0.80734 0.65769 0.0
H193 H 0.73703 0.84161 0.55144 0.0
H194 H 0.71096 0.83005 0.70962 0.0
H195 H 0.86457 0.82007 0.59858 0.0
H196 H 0.75916 0.79569 0.47012 0.0
H197 H 0.78367 0.78018 0.63072 0.0
C198 C 0.0559 0.81709 0.0878 0.0
C199 C 0.07824 0.81808 0.07949 0.0
N200 N 0.085 0.83233 0.09506 0.0
N201 N 0.04855 0.83058 0.10937 0.0
C202 C 0.06653 0.83978 0.11154 0.0
H203 H 0.04577 0.80698 0.08041 0.0
Co204 Co 1.01954 0.83484 0.13142 0.0
C205 C 0.04362 0.8494 0.23375 0.0
O206 O 0.06331 0.84323 0.23053 0.0
N207 N 0.99048 0.83921 0.15424 0.0
C208 C 0.96141 0.84088 0.21051 0.0
C209 C 0.98288 0.83626 0.20647 0.0
C210 C 0.97326 0.84595 0.12751 0.0
N211 N 0.95535 0.84699 0.16095 0.0
O212 O 1.02007 0.85305 0.08679 0.0
H213 H 0.99248 0.83123 0.24009 0.0
H214 H 0.97378 0.85004 0.0846 0.0
O215 O 0.02887 0.84611 0.19761 0.0
C216 C 1.01611 0.84812 0.03743 0.0
O217 O 1.01179 0.83327 0.03085 0.0
N218 N 1.01833 0.81602 0.16939 0.0
C219 C 1.0159 0.78538 0.20461 0.0
C220 C 0.03066 0.79567 0.23013 0.0
C221 C 0.03167 0.81103 0.21172 0.0
C222 C 1.00371 0.80618 0.14478 0.0
C223 C 1.00202 0.79084 0.16218 0.0
H224 H 0.04381 0.81854 0.22972 0.0
H225 H 0.99378 0.81021 0.11004 0.0
H226 H 0.06616 0.85165 0.12626 0.0
H227 H 0.08883 0.80871 0.06606 0.0
H228 H 0.9512 0.84024 0.24762 0.0
H229 H 0.04173 0.79176 0.26283 0.0
H230 H 0.99076 0.78313 0.14069 0.0
C231 C 0.74779 0.89955 0.02674 0.0
C232 C 0.72548 0.89736 0.02807 0.0
N233 N 0.71916 0.89617 0.08196 0.0
N234 N 0.75577 0.89957 0.0795 0.0
C235 C 0.73784 0.89759 0.11247 0.0
H236 H 0.75743 0.90154 0.9894 0.0
Co237 Co 0.78547 0.9031 0.0953 0.0
C238 C 0.79348 0.89159 0.21013 0.0
O239 O 0.80597 0.90381 0.21875 0.0
N240 N 0.81595 0.90661 0.10877 0.0
C241 C 0.84973 0.91661 0.11232 0.0
C242 C 0.82768 0.91996 0.10888 0.0
C243 C 0.83144 0.89534 0.11245 0.0
N244 N 0.85211 0.90109 0.11417 0.0
O245 O 0.79293 0.88582 0.04973 0.0
H246 H 0.82107 0.93151 0.10481 0.0
H247 H 0.82764 0.88307 0.1114 0.0
O248 O 0.78382 0.88979 0.16278 0.0
C249 C 0.79932 0.8909 0.00216 0.0
O250 O 0.80132 0.90599 -0.00478 0.0
N251 N 0.77753 0.92107 0.13363 0.0
C252 C 0.76949 0.95076 0.17303 0.0
C253 C 0.76497 0.93781 0.20689 0.0
C254 C 0.76868 0.92293 0.18582 0.0
C255 C 0.77929 0.93342 0.09823 0.0
C256 C 0.77582 0.94843 0.11733 0.0
H257 H 0.7645 0.9131 0.21175 0.0
H258 H 0.78457 0.93161 0.05546 0.0
H259 H 0.73835 0.89746 0.1578 0.0
H260 H 0.71457 0.89744 0.99219 0.0
H261 H 0.86299 0.925 0.1126 0.0
H262 H 0.7593 0.93915 0.24964 0.0
H263 H 0.77858 0.95814 0.08918 0.0
C264 C 0.98752 0.56264 0.7979 0.0
C265 C 0.96498 0.563 0.80192 0.0
N266 N 0.95911 0.57622 0.82803 0.0
N267 N 0.99597 0.57553 0.82147 0.0
C268 C 0.97826 0.58362 0.83948 0.0
H269 H 0.99723 0.55356 0.77881 0.0
Co270 Co 1.02605 0.58028 0.82175 0.0
C271 C 0.03218 0.59286 0.93542 0.0
O272 O 0.04909 0.58349 0.94143 0.0
N273 N 0.05662 0.58529 0.818 0.0
C274 C 0.09064 0.58582 0.78305 0.0
C275 C 0.07011 0.57931 0.77867 0.0
C276 C 0.06918 0.59633 0.843 0.0
N277 N 0.09018 0.59654 0.82395 0.0
O278 O 1.02067 0.59717 0.77327 0.0
H279 H 0.06522 0.57099 0.74719 0.0
H280 H 0.06291 0.60464 0.87272 0.0
O281 O 1.02188 0.59332 0.88859 0.0
C282 C 1.02006 0.59186 0.72352 0.0
O283 O 1.02203 0.5768 0.7163 0.0
N284 N 0.03117 0.56247 0.86627 0.0
C285 C 0.03642 0.53433 0.92251 0.0
C286 C 1.02149 0.5454 0.94221 0.0
C287 C 1.01884 0.5593 0.91292 0.0
C288 C 0.04502 0.55146 0.84551 0.0
C289 C 0.04827 0.53748 0.87359 0.0
H290 H 1.0065 0.5674 0.92719 0.0
H291 H 0.05281 0.55299 0.80555 0.0
H292 H 0.97936 0.59484 0.85957 0.0
H293 H 0.95381 0.55409 0.78746 0.0
H294 H 0.10474 0.5828 0.75775 0.0
H295 H 1.01165 0.54322 0.97925 0.0
H296 H 0.05914 0.52888 0.85553 0.0
C297 C 0.30613 0.66645 0.87788 0.0
C298 C 0.32847 0.6658 0.86995 0.0
N299 N 0.33545 0.65152 0.88437 0.0
N300 N 0.29883 0.65272 0.89812 0.0
C301 C 0.31712 0.64374 0.90037 0.0
H302 H 0.29591 0.67635 0.86837 0.0
Co303 Co 0.2689 0.64771 0.9107 0.0
C304 C 0.28996 0.63212 0.01315 0.0
O305 O 0.30724 0.64123 0.0166 0.0
N306 N 0.23912 0.64274 0.92212 0.0
C307 C 0.20782 0.63636 0.96445 0.0
C308 C 0.22913 0.64117 0.97231 0.0
C309 C 0.2234 0.63895 0.88431 0.0
N310 N 0.20413 0.6349 0.90897 0.0
O311 O 0.27156 0.63086 0.86046 0.0
H312 H 0.23701 0.64292 0.01243 0.0
H313 H 0.22617 0.63895 0.83956 0.0
O314 O 0.27584 0.63421 0.97417 0.0
C315 C 0.27031 0.63618 0.81065 0.0
O316 O 0.26821 0.65125 0.80364 0.0
N317 N 0.26546 0.66528 0.95541 0.0
C318 C 0.26308 0.69498 0.00013 0.0
C319 C 0.26858 0.68227 0.03426 0.0
C320 C 0.26953 0.66743 0.01114 0.0
C321 C 0.25809 0.67725 0.92315 0.0
C322 C 0.25705 0.69225 0.94434 0.0
H323 H 0.2736 0.65796 0.03845 0.0
H324 H 0.25424 0.67523 0.87948 0.0
H325 H 0.317 0.63166 0.91302 0.0
H326 H 0.33884 0.67524 0.85576 0.0
H327 H 0.19631 0.63354 -0.00249 0.0
H328 H 0.27253 0.68382 0.07818 0.0
H329 H 0.25268 0.70168 0.91636 0.0
C330 C 0.99373 0.66653 0.36946 0.0
C331 C 0.97136 0.6664 0.37804 0.0
N332 N 0.96364 0.65221 0.36477 0.0
N333 N 1.00019 0.65256 0.35006 0.0
C334 C 0.98155 0.64397 0.34914 0.0
H335 H 1.00458 0.67631 0.37609 0.0
Co336 Co 0.02937 0.64701 0.33241 0.0
C337 C 1.00576 0.63228 0.23004 0.0
O338 O 0.98644 0.63907 0.23181 0.0
N339 N 0.05859 0.64147 0.31483 0.0
C340 C 0.08877 0.6381 0.26366 0.0
C341 C 0.06698 0.64212 0.26244 0.0
C342 C 0.07573 0.63688 0.34729 0.0
N343 N 0.09435 0.63483 0.317 0.0
O344 O 1.02645 0.62925 0.37826 0.0
H345 H 0.05785 0.64549 0.22545 0.0
H346 H 0.0747 0.63533 0.39225 0.0
O347 O 1.02046 0.63539 0.26653 0.0
C348 C 0.02926 0.63404 0.42821 0.0
O349 O 0.03447 0.64871 0.43582 0.0
N350 N 0.03286 0.66532 0.29222 0.0
C351 C 0.0374 0.69558 0.25433 0.0
C352 C 1.02265 0.68543 0.22805 0.0
C353 C 1.02059 0.67026 0.24778 0.0
C354 C 0.04773 0.67493 0.31705 0.0
C355 C 0.05047 0.69009 0.29833 0.0
H356 H 1.00831 0.66294 0.22933 0.0
H357 H 0.05682 0.67096 0.35333 0.0
H358 H 0.98108 0.6319 0.33677 0.0
H359 H 0.96143 0.67619 0.39082 0.0
H360 H 0.09961 0.63742 0.22777 0.0
H361 H 1.0122 0.68938 0.19411 0.0
H362 H 0.0617 0.69771 0.32032 0.0
C363 C 0.30546 0.57532 0.47936 0.0
C364 C 0.3279 0.57633 0.47525 0.0
N365 N 0.33305 0.58233 0.42466 0.0
N366 N 0.29622 0.58068 0.4318 0.0
C367 C 0.31344 0.58481 0.39895 0.0
H368 H 0.29641 0.5706 0.51451 0.0
Co369 Co 0.26579 0.58052 0.42115 0.0
C370 C 0.25784 0.59426 0.30835 0.0
O371 O 0.24064 0.5852 0.30195 0.0
N372 N 0.23456 0.58015 0.41353 0.0
C373 C 0.19972 0.57228 0.41971 0.0
C374 C 0.22127 0.56771 0.42111 0.0
C375 C 0.22035 0.59226 0.40839 0.0
N376 N 0.19906 0.58773 0.41188 0.0
O377 O 0.26344 0.59827 0.46725 0.0
H378 H 0.22649 0.556 0.42939 0.0
H379 H 0.22556 0.60422 0.40378 0.0
O380 O 0.26901 0.59356 0.35382 0.0
C381 C 0.2588 0.59365 0.51663 0.0
O382 O 0.2546 0.57883 0.52453 0.0
N383 N 0.26879 0.56206 0.38119 0.0
C384 C 0.27042 0.53209 0.33906 0.0
C385 C 0.27504 0.54484 0.30425 0.0
C386 C 0.27463 0.5598 0.32655 0.0
C387 C 0.26674 0.54971 0.41657 0.0
C388 C 0.26697 0.53461 0.39627 0.0
H389 H 0.2793 0.5693 0.29975 0.0
H390 H 0.26396 0.55169 0.46078 0.0
H391 H 0.31165 0.5894 0.35693 0.0
H392 H 0.33952 0.57239 0.50656 0.0
H393 H 0.18556 0.56477 0.42447 0.0
H394 H 0.27863 0.5433 0.26014 0.0
H395 H 0.26437 0.52503 0.42502 0.0
C396 C 0.06836 0.41779 0.16072 0.0
C397 C 0.09072 0.41683 0.16839 0.0
N398 N 0.09723 0.40231 0.15582 0.0
N399 N 0.06063 0.40402 0.14232 0.0
C400 C 0.07853 0.39468 0.14173 0.0
H401 H 0.05844 0.42805 0.16686 0.0
Co402 Co 0.03082 0.39997 0.12444 0.0
C403 C 0.05267 0.38468 0.02056 0.0
O404 O 0.07316 0.38905 0.02735 0.0
N405 N 1.00086 0.39584 0.10632 0.0
C406 C 0.97021 0.3944 0.05535 0.0
C407 C 0.99119 0.40015 0.05764 0.0
C408 C 0.98523 0.38723 0.13266 0.0
N409 N 0.96638 0.38622 0.10245 0.0
O410 O 0.0319 0.38186 0.1698 0.0
H411 H 0.99917 0.40655 0.0243 0.0
H412 H 0.98771 0.38151 0.17257 0.0
O413 O 0.03802 0.38862 0.05614 0.0
C414 C 0.02882 0.38723 0.21901 0.0
O415 O 1.02535 0.40223 0.22442 0.0
N416 N 0.02931 0.41874 0.08593 0.0
C417 C 1.02539 0.44864 0.04367 0.0
C418 C 0.03975 0.438 0.01857 0.0
C419 C 0.04157 0.42304 0.0406 0.0
C420 C 1.01556 0.42903 0.1113 0.0
C421 C 1.01314 0.44401 0.09046 0.0
H422 H 0.05324 0.41522 0.02218 0.0
H423 H 1.00655 0.42554 0.14836 0.0
H424 H 0.07793 0.38254 0.1302 0.0
H425 H 0.10148 0.42633 0.17964 0.0
H426 H 0.95906 0.3955 0.02018 0.0
H427 H 0.04957 0.44124 0.98252 0.0
H428 H 1.00224 0.45202 0.11166 0.0
C429 C 0.74911 0.32747 0.18467 0.0
C430 C 0.72665 0.3287 0.18536 0.0
N431 N 0.72011 0.33598 0.13809 0.0
N432 N 0.75703 0.33394 0.13737 0.0
C433 C 0.73897 0.33906 0.1096 0.0
H434 H 0.75903 0.32166 0.21591 0.0
Co435 Co 0.78707 0.33291 0.12113 0.0
C436 C 0.79328 0.34479 0.00744 0.0
O437 O 0.80579 0.33259 -0.00121 0.0
N438 N 0.81808 0.33191 0.10779 0.0
C439 C 0.85354 0.32527 0.10599 0.0
C440 C 0.8323 0.31983 0.10932 0.0
C441 C 0.83134 0.34454 0.1033 0.0
N442 N 0.85293 0.34085 0.10253 0.0
O443 O 0.79198 0.35002 0.1688 0.0
H444 H 0.82805 0.30778 0.11449 0.0
H445 H 0.82523 0.35634 0.10311 0.0
O446 O 0.78394 0.34669 0.05516 0.0
C447 C 0.79798 0.34474 0.21634 0.0
O448 O 0.80067 0.32968 0.2222 0.0
N449 N 0.78138 0.31503 0.07978 0.0
C450 C 0.7704 0.28606 0.03681 0.0
C451 C 0.76338 0.29967 0.00979 0.0
C452 C 0.76862 0.31408 0.03272 0.0
C453 C 0.78655 0.30195 0.10899 0.0
C454 C 0.78192 0.28735 0.08748 0.0
H455 H 0.7618 0.32435 0.01346 0.0
H456 H 0.79419 0.3029 0.14978 0.0
H457 H 0.73962 0.34457 0.06881 0.0
H458 H 0.71594 0.32387 0.21715 0.0
H459 H 0.8683 0.31827 0.10681 0.0
H460 H 0.75345 0.2992 0.97212 0.0
H461 H 0.78739 0.2772 0.11046 0.0
C462 C 0.06769 0.32277 0.55863 0.0
C463 C 0.09032 0.32331 0.55694 0.0
N464 N 0.09731 0.33416 0.59349 0.0
N465 N 0.06029 0.33324 0.59597 0.0
C466 C 0.07871 0.34006 0.61623 0.0
H467 H 0.05731 0.31482 0.53561 0.0
Co468 Co 0.03074 0.33563 0.61743 0.0
C469 C 0.03156 0.36011 0.70303 0.0
O470 O 1.01422 0.36679 0.68079 0.0
N471 N 1.00076 0.33783 0.63988 0.0
C472 C 0.97083 0.33668 0.69369 0.0
C473 C 0.99277 0.33325 0.69025 0.0
C474 C 0.98311 0.3443 0.61378 0.0
N475 N 0.9647 0.34367 0.64573 0.0
O476 O 1.02862 0.35321 0.56976 0.0
H477 H 1.00238 0.32811 0.72354 0.0
H478 H 0.98369 0.34954 0.57254 0.0
O479 O 0.03975 0.34802 0.68077 0.0
C480 C 1.02446 0.34783 0.52113 0.0
O481 O 1.0206 0.33287 0.51625 0.0
N482 N 0.0329 0.31752 0.65862 0.0
C483 C 0.03309 0.28825 0.7075 0.0
C484 C 0.04418 0.30068 0.73311 0.0
C485 C 0.04412 0.31529 0.70752 0.0
C486 C 1.02251 0.30558 0.6326 0.0
C487 C 1.02239 0.29084 0.65624 0.0
H488 H 0.05298 0.3247 0.72707 0.0
H489 H 1.01426 0.30759 0.59307 0.0
H490 H 0.07853 0.34901 0.64782 0.0
H491 H 0.10078 0.31575 0.53255 0.0
H492 H 0.96034 0.33475 0.72971 0.0
H493 H 0.0527 0.29917 0.77262 0.0
H494 H 1.01425 0.28152 0.63401 0.0
C495 C 0.75315 0.40415 0.53667 0.0
C496 C 0.73069 0.40277 0.53692 0.0
N497 N 0.72431 0.39709 0.5871 0.0
N498 N 0.76127 0.39937 0.5863 0.0
C499 C 0.7433 0.39517 0.61645 0.0
H500 H 0.76294 0.40882 0.50278 0.0
Co501 Co 0.79143 0.40076 0.60187 0.0
C502 C 0.79785 0.38989 0.71801 0.0
O503 O 0.81196 0.40125 0.72545 0.0
N504 N 0.82262 0.4023 0.61523 0.0
C505 C 0.85676 0.41137 0.62571 0.0
C506 C 0.83488 0.41516 0.62499 0.0
C507 C 0.83783 0.39077 0.61125 0.0
N508 N 0.8587 0.39605 0.61659 0.0
O509 O 0.79612 0.38264 0.55886 0.0
H510 H 0.82875 0.42674 0.63117 0.0
H511 H 0.83377 0.37879 0.60256 0.0
O512 O 0.788 0.38837 0.67083 0.0
C513 C 0.80207 0.38735 0.51049 0.0
O514 O 0.80544 0.4023 0.50301 0.0
N515 N 0.78609 0.41955 0.6371 0.0
C516 C 0.78257 0.45015 0.67128 0.0
C517 C 0.77626 0.43802 0.70739 0.0
C518 C 0.77758 0.42268 0.68877 0.0
C519 C 0.78952 0.43124 0.59953 0.0
C520 C 0.78826 0.44664 0.61596 0.0
H521 H 0.77193 0.41351 0.71605 0.0
H522 H 0.79455 0.4285 0.55724 0.0
H523 H 0.74416 0.39103 0.65925 0.0
H524 H 0.71991 0.40633 0.50317 0.0
H525 H 0.87027 0.41934 0.63239 0.0
H526 H 0.77092 0.4403 0.74987 0.0
H527 H 0.79217 0.4557 0.58595 0.0
C528 C 0.49193 0.06654 0.87006 0.0
C529 C 0.46993 0.06776 0.8577 0.0
N530 N 0.46397 0.08272 0.86357 0.0
N531 N 0.49977 0.08061 0.88478 0.0
C532 C 0.4825 0.0903 0.87847 0.0
H533 H 0.5015 0.05597 0.86911 0.0
Co534 Co 0.52896 0.08536 0.90316 0.0
C535 C 0.50434 0.10063 0.00252 0.0
O536 O 0.48499 0.09448 0.99268 0.0
N537 N 0.55817 0.09002 0.9204 0.0
C538 C 0.58893 0.09431 0.96792 0.0
C539 C 0.5674 0.08966 0.97177 0.0
C540 C 0.57451 0.09462 0.88585 0.0
N541 N 0.59348 0.09747 0.9137 0.0
O542 O 0.52768 0.10289 0.85368 0.0
H543 H 0.55895 0.08631 0.00981 0.0
H544 H 0.57247 0.09584 0.8411 0.0
O545 O 0.52054 0.09773 0.9698 0.0
C546 C 0.52994 0.09728 0.8044 0.0
O547 O 0.53255 0.08218 0.79947 0.0
N548 N 0.53109 0.06722 0.9452 0.0
C549 C 0.53237 0.03662 0.98141 0.0
C550 C 0.51955 0.04756 0.00995 0.0
C551 C 0.51905 0.0629 0.99093 0.0
C552 C 0.54454 0.0569 0.91909 0.0
C553 C 0.54558 0.04156 0.93676 0.0
H554 H 0.50799 0.07083 0.01096 0.0
H555 H 0.55365 0.06046 0.88229 0.0
H556 H 0.48336 0.10267 0.88629 0.0
H557 H 0.45895 0.05825 0.84795 0.0
H558 H 0.60008 0.09558 0.00292 0.0
H559 H 0.50896 0.04411 0.0443 0.0
H560 H 0.5559 0.03347 0.91411 0.0
C561 C 0.81033 0.17094 0.84321 0.0
C562 C 0.83285 0.17052 0.84527 0.0
N563 N 0.83898 0.15638 0.86375 0.0
N564 N 0.80225 0.15714 0.86045 0.0
C565 C 0.82011 0.14848 0.87293 0.0
H566 H 0.80039 0.18054 0.82858 0.0
Co567 Co 0.77266 0.15181 0.85592 0.0
C568 C 0.76555 0.13832 0.9697 0.0
O569 O 0.74903 0.14797 0.97611 0.0
N570 N 0.74286 0.14643 0.8471 0.0
C571 C 0.71039 0.14527 0.80436 0.0
C572 C 0.73092 0.15182 0.80357 0.0
C573 C 0.72957 0.13575 0.87152 0.0
N574 N 0.70944 0.13513 0.84741 0.0
O575 O 0.77966 0.13572 0.80388 0.0
H576 H 0.73691 0.15993 0.77241 0.0
H577 H 0.73478 0.12799 0.90441 0.0
O578 O 0.77589 0.13778 0.92266 0.0
C579 C 0.78304 0.14209 0.75616 0.0
O580 O 0.78236 0.15731 0.75238 0.0
N581 N 0.76582 0.16897 0.902 0.0
C582 C 0.75934 0.19712 0.9566 0.0
C583 C 0.77415 0.18622 0.97819 0.0
C584 C 0.77752 0.17233 0.94953 0.0
C585 C 0.75154 0.17965 0.88055 0.0
C586 C 0.74775 0.19364 0.90766 0.0
H587 H 0.79009 0.16449 0.96454 0.0
H588 H 0.74394 0.17794 0.84044 0.0
H589 H 0.81933 0.13646 0.88612 0.0
H590 H 0.8439 0.17986 0.83379 0.0
H591 H 0.69729 0.1479 0.77523 0.0
H592 H 0.78398 0.18877 0.01491 0.0
H593 H 0.73657 0.20198 0.88905 0.0
C594 C 0.49531 0.15241 0.45955 0.0
C595 C 0.47299 0.15134 0.45271 0.0
N596 N 0.46886 0.14778 0.39887 0.0
N597 N 0.50539 0.14934 0.41049 0.0
C598 C 0.48877 0.14677 0.3738 0.0
H599 H 0.50364 0.15535 0.49808 0.0
Co600 Co 0.53598 0.14901 0.40449 0.0
C601 C 0.54706 0.13691 0.29175 0.0
O602 O 0.56353 0.14679 0.29123 0.0
N603 N 0.56729 0.14858 0.40133 0.0
C604 C 0.60302 0.15427 0.40313 0.0
C605 C 0.58212 0.16021 0.40623 0.0
C606 C 0.57981 0.13562 0.39686 0.0
N607 N 0.60159 0.13878 0.39699 0.0
O608 O 0.5366 0.13102 0.452 0.0
H609 H 0.57844 0.17229 0.41265 0.0
H610 H 0.57297 0.12409 0.39232 0.0
O611 O 0.53416 0.13638 0.33444 0.0
C612 C 0.54103 0.13597 0.50123 0.0
O613 O 0.54597 0.15074 0.50715 0.0
N614 N 0.53472 0.16771 0.36495 0.0
C615 C 0.53601 0.19776 0.32278 0.0
C616 C 0.52959 0.18537 0.28835 0.0
C617 C 0.52855 0.17039 0.31071 0.0
C618 C 0.53839 0.17984 0.40017 0.0
C619 C 0.53969 0.19494 0.37978 0.0
H620 H 0.5227 0.16113 0.28432 0.0
H621 H 0.54128 0.17764 0.44423 0.0
H622 H 0.49114 0.14412 0.3299 0.0
H623 H 0.46067 0.1534 0.48457 0.0
H624 H 0.61811 0.16086 0.40647 0.0
H625 H 0.52575 0.1872 0.24447 0.0
H626 H 0.54363 0.2043 0.40832 0.0
C627 C 0.8166 0.07738 0.43861 0.0
C628 C 0.83902 0.07896 0.43832 0.0
N629 N 0.84497 0.08655 0.39117 0.0
N630 N 0.80821 0.08392 0.392 0.0
C631 C 0.82585 0.08942 0.36366 0.0
H632 H 0.80697 0.07149 0.4703 0.0
Co633 Co 0.77822 0.08328 0.37768 0.0
C634 C 0.77101 0.0964 0.26498 0.0
O635 O 0.75749 0.08473 0.25672 0.0
N636 N 0.74723 0.08261 0.36569 0.0
C637 C 0.71192 0.07595 0.35859 0.0
C638 C 0.73311 0.07051 0.36186 0.0
C639 C 0.73399 0.09526 0.36467 0.0
N640 N 0.71246 0.09155 0.36064 0.0
O641 O 0.77426 0.09987 0.42997 0.0
H642 H 0.73742 0.05839 0.36258 0.0
H643 H 0.74009 0.10701 0.36874 0.0
O644 O 0.78109 0.09773 0.31222 0.0
C645 C 0.76743 0.0937 0.4756 0.0
O646 O 0.76284 0.07878 0.47586 0.0
N647 N 0.78297 0.06572 0.33388 0.0
C648 C 0.78762 0.0367 0.28512 0.0
C649 C 0.79509 0.05005 0.25706 0.0
C650 C 0.79327 0.06449 0.28317 0.0
C651 C 0.77837 0.05272 0.3642 0.0
C652 C 0.78013 0.0381 0.34035 0.0
H653 H 0.80006 0.07456 0.26243 0.0
H654 H 0.77255 0.0538 0.40685 0.0
H655 H 0.8247 0.09522 0.32349 0.0
H656 H 0.85011 0.07429 0.46959 0.0
H657 H 0.69724 0.06889 0.35544 0.0
H658 H 0.80191 0.0494 0.21521 0.0
H659 H 0.77546 0.02801 0.36484 0.0
C660 C 0.56078 0.91494 0.10647 0.0
C661 C 0.5831 0.91452 0.11522 0.0
N662 N 0.59041 0.90023 0.10215 0.0
N663 N 0.55394 0.90104 0.08714 0.0
C664 C 0.57232 0.89221 0.0862 0.0
H665 H 0.55019 0.92482 0.11357 0.0
Co666 Co 0.52445 0.89595 0.07205 0.0
C667 C 0.54582 0.88041 0.96823 0.0
O668 O 0.56564 0.88647 0.96895 0.0
N669 N 0.49489 0.89081 0.05726 0.0
C670 C 0.46378 0.88687 0.01034 0.0
C671 C 0.48489 0.89243 0.007 0.0
C672 C 0.47947 0.88414 0.09044 0.0
N673 N 0.46037 0.8816 0.06281 0.0
O674 O 0.5271 0.8783 0.11897 0.0
H675 H 0.49265 0.89703 0.96968 0.0
H676 H 0.48218 0.88102 0.13384 0.0
O677 O 0.53178 0.88401 0.00572 0.0
C678 C 0.52496 0.88348 0.1687 0.0
O679 O 0.52174 0.89845 0.17542 0.0
N680 N 0.52127 0.91421 0.03132 0.0
C681 C 0.51913 0.94486 -0.00402 0.0
C682 C 0.53227 0.93416 0.96718 0.0
C683 C 0.53323 0.91881 0.98583 0.0
C684 C 0.5076 0.92429 0.05792 0.0
C685 C 0.50613 0.93966 0.04066 0.0
H686 H 0.54461 0.91107 0.96594 0.0
H687 H 0.49865 0.92052 0.09472 0.0
H688 H 0.57243 0.8801 0.07427 0.0
H689 H 0.59326 0.92417 0.12843 0.0
H690 H 0.45213 0.88619 0.97612 0.0
H691 H 0.54278 0.93783 0.93296 0.0
H692 H 0.49563 0.94756 0.0636 0.0
C693 C 0.24035 0.83536 0.2006 0.0
C694 C 0.21793 0.83646 0.19597 0.0
N695 N 0.21278 0.83769 0.14127 0.0
N696 N 0.24946 0.83606 0.14912 0.0
C697 C 0.23218 0.83737 0.11361 0.0
H698 H 0.24936 0.83375 0.23921 0.0
Co699 Co 0.27963 0.83447 0.136 0.0
C700 C 0.28705 0.84623 0.02076 0.0
O701 O 0.30215 0.83548 0.01418 0.0
N702 N 0.31045 0.83298 0.12501 0.0
C703 C 0.34548 0.82544 0.12398 0.0
C704 C 0.32403 0.82067 0.13085 0.0
C705 C 0.32417 0.84511 0.1155 0.0
N706 N 0.3455 0.84083 0.11415 0.0
O707 O 0.28432 0.85241 0.18088 0.0
H708 H 0.31901 0.80896 0.14061 0.0
H709 H 0.31855 0.85695 0.11034 0.0
O710 O 0.27659 0.84711 0.06731 0.0
C711 C 0.29022 0.8476 0.22927 0.0
O712 O 0.29339 0.83263 0.23643 0.0
N713 N 0.27451 0.81585 0.09857 0.0
C714 C 0.26514 0.78556 0.06613 0.0
C715 C 0.2617 0.79797 0.02889 0.0
C716 C 0.2661 0.81314 0.04635 0.0
C717 C 0.27662 0.804 0.13603 0.0
C718 C 0.27232 0.78878 0.12063 0.0
H719 H 0.26199 0.82251 0.01832 0.0
H720 H 0.28167 0.80647 0.17856 0.0
H721 H 0.2337 0.83794 0.06846 0.0
H722 H 0.20622 0.83577 0.23008 0.0
H723 H 0.35991 0.81811 0.12565 0.0
H724 H 0.25564 0.79601 0.98681 0.0
H725 H 0.2743 0.77964 0.1515 0.0
C726 C 0.56106 0.82118 0.50698 0.0
C727 C 0.58352 0.8224 0.51008 0.0
N728 N 0.58879 0.83046 0.55657 0.0
N729 N 0.55191 0.82841 0.55117 0.0
C730 C 0.56922 0.83392 0.58091 0.0
H731 H 0.55192 0.81514 0.47485 0.0
Co732 Co 0.52141 0.82886 0.56169 0.0
C733 C 0.51351 0.84332 0.67267 0.0
O734 O 0.49581 0.83474 0.67887 0.0
N735 N 0.49008 0.82916 0.56931 0.0
C736 C 0.45488 0.82192 0.56943 0.0
C737 C 0.47624 0.81686 0.56934 0.0
C738 C 0.47639 0.84166 0.56906 0.0
N739 N 0.45489 0.83753 0.56905 0.0
O740 O 0.51978 0.8464 0.51416 0.0
H741 H 0.48094 0.80482 0.56818 0.0
H742 H 0.4821 0.85356 0.56761 0.0
O743 O 0.52501 0.84211 0.62795 0.0
C744 C 0.51562 0.8415 0.46497 0.0
O745 O 0.51153 0.82663 0.45818 0.0
N746 N 0.52378 0.81054 0.60311 0.0
C747 C 0.52723 0.78058 0.64586 0.0
C748 C 0.53131 0.79345 0.68022 0.0
C749 C 0.53002 0.80841 0.65762 0.0
C750 C 0.52148 0.79812 0.56841 0.0
C751 C 0.5227 0.78305 0.58901 0.0
H752 H 0.53459 0.81802 0.68385 0.0
H753 H 0.51793 0.80002 0.52448 0.0
H754 H 0.56752 0.84029 0.61962 0.0
H755 H 0.59505 0.8173 0.48097 0.0
H756 H 0.4404 0.81461 0.56979 0.0
H757 H 0.53585 0.79196 0.72383 0.0
H758 H 0.51965 0.77344 0.56084 0.0
C759 C 0.25054 0.91964 0.57991 0.0
C760 C 0.22808 0.91866 0.57429 0.0
N761 N 0.22147 0.90478 0.59419 0.0
N762 N 0.25826 0.90654 0.60404 0.0
C763 C 0.24016 0.89751 0.61056 0.0
H764 H 0.26051 0.92947 0.5678 0.0
Co765 Co 0.28824 0.90274 0.62111 0.0
C766 C 0.26657 0.8887 0.72666 0.0
O767 O 0.24851 0.89706 0.72673 0.0
N768 N 0.31821 0.89895 0.63804 0.0
C769 C 0.34895 0.89726 0.68839 0.0
C770 C 0.32723 0.90146 0.68899 0.0
C771 C 0.33493 0.89293 0.60726 0.0
N772 N 0.35388 0.89186 0.63705 0.0
O773 O 0.28729 0.88472 0.57564 0.0
H774 H 0.31845 0.90575 0.72512 0.0
H775 H 0.3333 0.88931 0.56408 0.0
O776 O 0.28101 0.89065 0.68829 0.0
C777 C 0.28976 0.88979 0.52568 0.0
O778 O 0.29267 0.90478 0.51827 0.0
N779 N 0.28986 0.92157 0.65936 0.0
C780 C 0.29138 0.95251 0.69156 0.0
C781 C 0.28323 0.94115 0.72833 0.0
C782 C 0.28263 0.92566 0.71142 0.0
C783 C 0.29905 0.93236 0.62469 0.0
C784 C 0.29983 0.94793 0.6397 0.0
H785 H 0.27629 0.91725 0.74033 0.0
H786 H 0.30504 0.92888 0.58395 0.0
H787 H 0.2406 0.88589 0.6279 0.0
H788 H 0.21734 0.92778 0.5592 0.0
H789 H 0.36008 0.89759 0.7238 0.0
H790 H 0.2767 0.94426 0.76901 0.0
H791 H 0.30666 0.95634 0.61061 0.0
C792 C 0.48855 0.576 0.30288 0.0
C793 C 0.46604 0.57667 0.30592 0.0
N794 N 0.46039 0.58364 0.35435 0.0
N795 N 0.49731 0.58254 0.34897 0.0
C796 C 0.47976 0.58709 0.37976 0.0
H797 H 0.49797 0.57064 0.26978 0.0
Co798 Co 0.52761 0.58289 0.3617 0.0
C799 C 0.53423 0.59468 0.47562 0.0
O800 O 0.54841 0.58335 0.48302 0.0
N801 N 0.55871 0.5834 0.37244 0.0
C802 C 0.59464 0.57845 0.37763 0.0
C803 C 0.57402 0.57201 0.37305 0.0
C804 C 0.57069 0.59664 0.3764 0.0
N805 N 0.59256 0.59399 0.37951 0.0
O806 O 0.53011 0.60052 0.3141 0.0
H807 H 0.5709 0.55976 0.36887 0.0
H808 H 0.56339 0.6081 0.37661 0.0
O809 O 0.52404 0.59607 0.42876 0.0
C810 C 0.53573 0.59546 0.266 0.0
O811 O 0.53895 0.58047 0.26005 0.0
N812 N 0.52459 0.56444 0.40203 0.0
C813 C 0.52131 0.53447 0.4446 0.0
C814 C 0.51309 0.54711 0.47516 0.0
C815 C 0.5143 0.56204 0.45223 0.0
C816 C 0.53031 0.55214 0.36955 0.0
C817 C 0.52927 0.53708 0.39033 0.0
H818 H 0.50688 0.57152 0.47479 0.0
H819 H 0.53617 0.55411 0.32731 0.0
H820 H 0.48117 0.59257 0.42033 0.0
H821 H 0.45475 0.57177 0.27569 0.0
H822 H 0.61002 0.57215 0.37724 0.0
H823 H 0.50601 0.54553 0.51642 0.0
H824 H 0.5346 0.52758 0.36401 0.0
C825 C 0.80532 0.65038 0.28649 0.0
C826 C 0.82782 0.64925 0.28717 0.0
N827 N 0.83446 0.64809 0.34082 0.0
N828 N 0.79758 0.64973 0.33943 0.0
C829 C 0.81582 0.64846 0.37184 0.0
H830 H 0.79531 0.65193 0.24949 0.0
Co831 Co 0.76756 0.65129 0.35642 0.0
C832 C 0.76233 0.64117 0.4734 0.0
O833 O 0.74933 0.65316 0.48097 0.0
N834 N 0.73686 0.6526 0.37183 0.0
C835 C 0.70167 0.65946 0.37983 0.0
C836 C 0.72279 0.66475 0.37133 0.0
C837 C 0.72373 0.64011 0.38072 0.0
N838 N 0.70227 0.64391 0.38559 0.0
O839 O 0.76218 0.63311 0.31327 0.0
H840 H 0.72718 0.67671 0.36396 0.0
H841 H 0.72982 0.62831 0.38171 0.0
O842 O 0.77146 0.63896 0.42562 0.0
C843 C 0.75494 0.63789 0.26604 0.0
O844 O 0.75146 0.65285 0.25943 0.0
N845 N 0.7732 0.6702 0.39114 0.0
C846 C 0.78024 0.70095 0.42046 0.0
C847 C 0.78624 0.68894 0.45727 0.0
C848 C 0.78321 0.67352 0.44098 0.0
C849 C 0.769 0.68173 0.35348 0.0
C850 C 0.77208 0.6972 0.36746 0.0
H851 H 0.78913 0.66443 0.46822 0.0
H852 H 0.76269 0.67884 0.31245 0.0
H853 H 0.8155 0.64792 0.41716 0.0
H854 H 0.83855 0.64988 0.25103 0.0
H855 H 0.68701 0.66656 0.38111 0.0
H856 H 0.79341 0.69148 0.4978 0.0
H857 H 0.76754 0.70615 0.3376 0.0
C858 C 0.49406 0.64909 0.951 0.0
C859 C 0.47164 0.6474 0.95181 0.0
N860 N 0.46452 0.64601 0.89865 0.0
N861 N 0.50132 0.6486 0.89762 0.0
C862 C 0.48285 0.64681 0.86644 0.0
H863 H 0.50431 0.65105 0.98726 0.0
Co864 Co 0.53105 0.65124 0.87909 0.0
C865 C 0.53668 0.6401 0.76339 0.0
O866 O 0.54944 0.65215 0.75394 0.0
N867 N 0.56158 0.65379 0.86261 0.0
C868 C 0.59568 0.66279 0.85163 0.0
C869 C 0.57403 0.66678 0.85988 0.0
C870 C 0.57627 0.64208 0.85617 0.0
N871 N 0.59714 0.64721 0.8495 0.0
O872 O 0.53799 0.63354 0.92356 0.0
H873 H 0.56823 0.6785 0.86504 0.0
H874 H 0.57165 0.62994 0.85673 0.0
O875 O 0.52766 0.63825 0.81156 0.0
C876 C 0.54513 0.63816 0.97094 0.0
O877 O 0.54856 0.6531 0.97797 0.0
N878 N 0.52364 0.66962 0.84187 0.0
C879 C 0.51538 0.69952 0.80375 0.0
C880 C 0.5101 0.68668 0.77036 0.0
C881 C 0.51374 0.67173 0.79099 0.0
C882 C 0.52663 0.68191 0.87683 0.0
C883 C 0.52295 0.69702 0.85838 0.0
H884 H 0.50851 0.66203 0.76589 0.0
H885 H 0.53286 0.67994 0.91875 0.0
H886 H 0.48275 0.64633 0.82113 0.0
H887 H 0.46125 0.64792 0.9886 0.0
H888 H 0.60937 0.6708 0.8496 0.0
H889 H 0.50327 0.68822 0.72875 0.0
H890 H 0.52685 0.70665 0.88579 0.0
C891 C 0.80356 0.58523 0.9421 0.0
C892 C 0.82606 0.58574 0.93813 0.0
N893 N 0.8316 0.58622 0.88351 0.0
N894 N 0.79468 0.58556 0.89029 0.0
C895 C 0.81224 0.5861 0.85531 0.0
H896 H 0.79435 0.58409 0.9806 0.0
Co897 Co 0.76441 0.58362 0.87623 0.0
C898 C 0.75683 0.59559 0.76181 0.0
O899 O 0.74266 0.5843 0.75366 0.0
N900 N 0.73343 0.58169 0.86386 0.0
C901 C 0.69915 0.57274 0.85664 0.0
C902 C 0.72094 0.56872 0.86 0.0
C903 C 0.71855 0.59345 0.86238 0.0
N904 N 0.69758 0.5883 0.85847 0.0
O905 O 0.7591 0.60129 0.92176 0.0
H906 H 0.72686 0.55695 0.86059 0.0
H907 H 0.72298 0.60557 0.86614 0.0
O908 O 0.76708 0.59667 0.80859 0.0
C909 C 0.75294 0.59618 0.96953 0.0
O910 O 0.75023 0.58113 0.97587 0.0
N911 N 0.77007 0.56519 0.83849 0.0
C912 C 0.77334 0.53479 0.80203 0.0
C913 C 0.77839 0.54711 0.76559 0.0
C914 C 0.7771 0.56235 0.78513 0.0
C915 C 0.76792 0.55331 0.87587 0.0
C916 C 0.76902 0.53799 0.85836 0.0
H917 H 0.78162 0.57166 0.75716 0.0
H918 H 0.76395 0.55582 0.91908 0.0
H919 H 0.81087 0.58607 0.81009 0.0
H920 H 0.83748 0.58497 0.97285 0.0
H921 H 0.68547 0.56474 0.85366 0.0
H922 H 0.78266 0.54502 0.72218 0.0
H923 H 0.76601 0.52875 0.88833 0.0
C924 C 0.56611 0.40181 0.68874 0.0
C925 C 0.58859 0.40066 0.68871 0.0
N926 N 0.59518 0.39537 0.6383 0.0
N927 N 0.55817 0.39723 0.63876 0.0
C928 C 0.57627 0.3934 0.60864 0.0
H929 H 0.5562 0.4063 0.72259 0.0
Co930 Co 0.52812 0.39891 0.62218 0.0
C931 C 0.52166 0.38755 0.50742 0.0
O932 O 0.50874 0.39952 0.49879 0.0
N933 N 0.49709 0.40069 0.60776 0.0
C934 C 0.46294 0.40955 0.59569 0.0
C935 C 0.48476 0.41353 0.5985 0.0
C936 C 0.48203 0.389 0.60956 0.0
N937 N 0.46115 0.39412 0.60305 0.0
O938 O 0.52259 0.38131 0.66814 0.0
H939 H 0.49077 0.42523 0.59438 0.0
H940 H 0.48622 0.37699 0.61758 0.0
O941 O 0.53121 0.38576 0.55498 0.0
C942 C 0.51644 0.38632 0.71588 0.0
O943 O 0.51361 0.40135 0.72214 0.0
N944 N 0.53433 0.41725 0.58387 0.0
C945 C 0.54066 0.44729 0.54493 0.0
C946 C 0.54711 0.43457 0.51218 0.0
C947 C 0.54433 0.41953 0.53323 0.0
C948 C 0.5307 0.42948 0.61862 0.0
C949 C 0.53329 0.44462 0.59968 0.0
H950 H 0.55016 0.40987 0.5087 0.0
H951 H 0.52465 0.42741 0.66062 0.0
H952 H 0.57557 0.38961 0.56549 0.0
H953 H 0.59922 0.40422 0.72268 0.0
H954 H 0.44939 0.41748 0.58912 0.0
H955 H 0.55372 0.4362 0.47042 0.0
H956 H 0.52916 0.45415 0.62729 0.0
C957 C 0.25428 0.33523 0.70477 0.0
C958 C 0.2318 0.33651 0.70233 0.0
N959 N 0.22584 0.33877 0.6485 0.0
N960 N 0.26273 0.33677 0.65284 0.0
C961 C 0.24498 0.33895 0.61934 0.0
H962 H 0.26377 0.33263 0.74193 0.0
Co963 Co 0.29258 0.33359 0.63669 0.0
C964 C 0.2992 0.34356 0.52016 0.0
O965 O 0.31095 0.33095 0.51239 0.0
N966 N 0.32317 0.33046 0.62202 0.0
C967 C 0.35701 0.32085 0.61336 0.0
C968 C 0.33521 0.31727 0.6216 0.0
C969 C 0.33828 0.34188 0.6142 0.0
N970 N 0.35902 0.33637 0.60882 0.0
O971 O 0.29982 0.35135 0.68003 0.0
H972 H 0.32899 0.3057 0.62815 0.0
H973 H 0.33404 0.35407 0.61268 0.0
O974 O 0.29029 0.34614 0.56791 0.0
C975 C 0.30608 0.34633 0.72781 0.0
O976 O 0.30798 0.33125 0.73495 0.0
N977 N 0.28476 0.31514 0.60144 0.0
C978 C 0.27156 0.28526 0.57341 0.0
C979 C 0.26768 0.29769 0.53656 0.0
C980 C 0.27397 0.31269 0.55198 0.0
C981 C 0.28709 0.30336 0.63911 0.0
C982 C 0.28107 0.28829 0.62565 0.0
H983 H 0.26956 0.32219 0.52474 0.0
H984 H 0.29404 0.30571 0.67994 0.0
H985 H 0.24602 0.3402 0.5743 0.0
H986 H 0.22065 0.335 0.73729 0.0
H987 H 0.37041 0.3126 0.61277 0.0
H988 H 0.25957 0.29588 0.49667 0.0
H989 H 0.28426 0.27908 0.65557 0.0
C990 C 0.56253 0.3269 0.03908 0.0
C991 C 0.58497 0.32845 0.03915 0.0
N992 N 0.59127 0.33425 0.08908 0.0
N993 N 0.55441 0.33171 0.08857 0.0
C994 C 0.57232 0.33608 0.11846 0.0
H995 H 0.55275 0.32215 0.0054 0.0
Co996 Co 0.52438 0.33048 0.10467 0.0
C997 C 0.51831 0.34185 0.22001 0.0
O998 O 0.50433 0.33045 0.22846 0.0
N999 N 0.49342 0.32919 0.11877 0.0
C1000 C 0.45893 0.32095 0.12976 0.0
C1001 C 0.48052 0.31652 0.12561 0.0
C1002 C 0.47898 0.34122 0.11947 0.0
N1003 N 0.45789 0.3365 0.12553 0.0
O1004 O 0.51963 0.34838 0.05972 0.0
H1005 H 0.48597 0.30464 0.12703 0.0
H1006 H 0.48377 0.35323 0.11374 0.0
O1007 O 0.52803 0.34326 0.17256 0.0
C1008 C 0.51354 0.34359 0.01161 0.0
O1009 O 0.51011 0.32864 0.00486 0.0
N1010 N 0.5297 0.31183 0.14184 0.0
C1011 C 0.53264 0.2814 0.17935 0.0
C1012 C 0.53931 0.29369 0.21401 0.0
C1013 C 0.53831 0.30893 0.19371 0.0
C1014 C 0.52611 0.29994 0.10552 0.0
C1015 C 0.52707 0.28462 0.1236 0.0
H1016 H 0.54419 0.31821 0.21995 0.0
H1017 H 0.52112 0.30245 0.06294 0.0
H1018 H 0.57147 0.34032 0.16104 0.0
H1019 H 0.59582 0.32496 0.00557 0.0
H1020 H 0.44502 0.31324 0.13513 0.0
H1021 H 0.5446 0.29164 0.25675 0.0
H1022 H 0.52292 0.27542 0.09458 0.0
C1023 C 0.2531 0.39762 0.05275 0.0
C1024 C 0.2307 0.39622 0.05741 0.0
N1025 N 0.22541 0.39612 0.11219 0.0
N1026 N 0.26218 0.39822 0.10432 0.0
C1027 C 0.24479 0.39736 0.13985 0.0
H1028 H 0.26209 0.39859 0.01386 0.0
Co1029 Co 0.29247 0.40089 0.11696 0.0
C1030 C 0.30127 0.38933 0.23119 0.0
O1031 O 0.31467 0.40112 0.23863 0.0
N1032 N 0.32337 0.40342 0.12787 0.0
C1033 C 0.35775 0.4123 0.13256 0.0
C1034 C 0.33599 0.41636 0.12727 0.0
C1035 C 0.33808 0.39167 0.13306 0.0
N1036 N 0.35911 0.39673 0.13604 0.0
O1037 O 0.29836 0.38332 0.07113 0.0
H1038 H 0.33016 0.42807 0.1218 0.0
H1039 H 0.33334 0.37956 0.13451 0.0
O1040 O 0.29089 0.3878 0.18476 0.0
C1041 C 0.30444 0.38848 0.02336 0.0
O1042 O 0.30627 0.40358 0.01661 0.0
N1043 N 0.2863 0.4192 0.15526 0.0
C1044 C 0.28151 0.44939 0.19352 0.0
C1045 C 0.27687 0.43677 0.229 0.0
C1046 C 0.27887 0.42166 0.20853 0.0
C1047 C 0.28825 0.4313 0.11879 0.0
C1048 C 0.28633 0.44652 0.13716 0.0
H1049 H 0.27456 0.41215 0.2358 0.0
H1050 H 0.29246 0.42908 0.07551 0.0
H1051 H 0.24624 0.39783 0.185 0.0
H1052 H 0.21908 0.39604 0.02302 0.0
H1053 H 0.37155 0.42023 0.13179 0.0
H1054 H 0.27234 0.43851 0.27243 0.0
H1055 H 0.28902 0.45594 0.10775 0.0
H1056 H 0.04243 0.08828 0.57157 0.0
H1057 H 0.04032 0.12742 0.45862 0.0
H1058 H 0.03554 0.14503 0.53843 0.0
H1059 H 0.03507 0.14931 0.6407 0.0
H1060 H 0.03532 0.11004 0.75325 0.0
H1061 H 0.0374 0.09233 0.67308 0.0
C1062 C 0.04077 0.10067 0.56448 0.0
C1063 C 0.04209 0.10663 0.5095 0.0
C1064 C 0.03769 0.11062 0.6104 0.0
C1065 C 0.03943 0.12262 0.50061 0.0
C1066 C 0.03678 0.13266 0.54621 0.0
C1067 C 0.03528 0.13685 0.64757 0.0
C1068 C 0.03525 0.13094 0.70274 0.0
C1069 C 0.03633 0.1268 0.60132 0.0
C1070 C 0.03523 0.11482 0.71119 0.0
C1071 C 0.0366 0.10473 0.66538 0.0
H1072 H 0.26204 0.1273 0.53998 0.0
H1073 H 0.33173 0.12927 0.57273 0.0
H1074 H 0.32578 0.11858 0.66665 0.0
H1075 H 0.30058 0.10817 0.73973 0.0
H1076 H 0.23103 0.10653 0.70516 0.0
H1077 H 0.23709 0.11789 0.61278 0.0
C1078 C 0.27598 0.12535 0.56744 0.0
C1079 C 0.29731 0.12905 0.54893 0.0
C1080 C 0.27243 0.11944 0.62174 0.0
C1081 C 0.3151 0.1265 0.58561 0.0
C1082 C 0.31172 0.12044 0.63956 0.0
C1083 C 0.28678 0.1106 0.71231 0.0
C1084 C 0.26537 0.10657 0.72943 0.0
C1085 C 0.29042 0.11691 0.6583 0.0
C1086 C 0.24767 0.10953 0.693 0.0
C1087 C 0.25111 0.11595 0.63997 0.0
H1088 H 0.99859 0.88607 0.42988 0.0
H1089 H 0.05578 0.87004 0.5202 0.0
H1090 H 0.06925 0.85725 0.43525 0.0
H1091 H 0.06472 0.85084 0.33486 0.0
H1092 H 1.00723 0.86727 0.24646 0.0
H1093 H 0.99415 0.87992 0.3312 0.0
C1094 C 1.01399 0.87975 0.4313 0.0
C1095 C 1.02613 0.87901 0.48143 0.0
C1096 C 1.02171 0.87264 0.38244 0.0
C1097 C 0.04603 0.87072 0.48226 0.0
C1098 C 0.0538 0.86349 0.43361 0.0
C1099 C 0.04946 0.85733 0.33403 0.0
C1100 C 0.03701 0.85813 0.28429 0.0
C1101 C 0.04183 0.86447 0.38332 0.0
C1102 C 1.01714 0.86645 0.28411 0.0
C1103 C 1.00959 0.87366 0.33261 0.0
H1104 H 0.7886 0.838 0.38988 0.0
H1105 H 0.78481 0.87718 0.50145 0.0
H1106 H 0.78436 0.89493 0.42081 0.0
H1107 H 0.78818 0.89923 0.31895 0.0
H1108 H 0.78975 0.86003 0.20712 0.0
H1109 H 0.78774 0.84224 0.28753 0.0
C1110 C 0.78741 0.85043 0.3964 0.0
C1111 C 0.78699 0.85635 0.45136 0.0
C1112 C 0.78689 0.86048 0.34991 0.0
C1113 C 0.78512 0.87241 0.45948 0.0
C1114 C 0.785 0.88253 0.41343 0.0
C1115 C 0.78787 0.88678 0.31228 0.0
C1116 C 0.78942 0.88088 0.25744 0.0
C1117 C 0.78637 0.8767 0.35855 0.0
C1118 C 0.7886 0.86478 0.24903 0.0
C1119 C 0.78756 0.85464 0.29496 0.0
H1120 H 0.98588 0.63141 0.12736 0.0
H1121 H 0.04046 0.61263 0.22145 0.0
H1122 H 0.05353 0.59917 0.13827 0.0
H1123 H 0.05013 0.59321 0.03903 0.0
H1124 H 0.99599 0.61183 0.94309 0.0
H1125 H 0.9822 0.62502 0.02682 0.0
C1126 C 1.00048 0.62422 0.12978 0.0
C1127 C 1.01216 0.62302 0.1806 0.0
C1128 C 1.00814 0.61665 0.0814 0.0
C1129 C 0.03118 0.61379 0.18287 0.0
C1130 C 0.03872 0.60612 0.13529 0.0
C1131 C 0.03533 0.60018 0.03615 0.0
C1132 C 1.02417 0.60157 0.98474 0.0
C1133 C 1.02747 0.6076 0.08429 0.0
C1134 C 1.00498 0.61063 0.98206 0.0
C1135 C 0.99704 0.61812 0.02999 0.0
H1136 H 0.307 0.63263 0.11926 0.0
H1137 H 0.25762 0.61028 0.01733 0.0
H1138 H 0.24315 0.59699 0.0998 0.0
H1139 H 0.24344 0.59247 0.2009 0.0
H1140 H 0.29259 0.6146 0.30402 0.0
H1141 H 0.30804 0.62734 0.22102 0.0
C1142 C 0.29329 0.62466 0.11491 0.0
C1143 C 0.28344 0.62246 0.06201 0.0
C1144 C 0.28477 0.61721 0.16283 0.0
C1145 C 0.26555 0.6122 0.05741 0.0
C1146 C 0.25716 0.60465 0.10464 0.0
C1147 C 0.25748 0.60014 0.20549 0.0
C1148 C 0.2667 0.60267 0.25884 0.0
C1149 C 0.26641 0.60726 0.15763 0.0
C1150 C 0.28505 0.61252 0.26358 0.0
C1151 C 0.29396 0.61975 0.21607 0.0
H1152 H 0.07833 0.37693 0.93092 0.0
H1153 H 1.01075 0.37844 0.98589 0.0
H1154 H 0.99835 0.37206 0.89178 0.0
H1155 H 1.0065 0.3668 0.79274 0.0
H1156 H 0.07385 0.36294 0.73891 0.0
H1157 H 0.08657 0.36958 0.83338 0.0
C1158 C 0.0609 0.37573 0.92251 0.0
C1159 C 0.04552 0.37851 0.96544 0.0
C1160 C 0.05382 0.37182 0.8682 0.0
C1161 C 1.02299 0.37667 0.95371 0.0
C1162 C 1.01584 0.37302 0.89973 0.0
C1163 C 1.02395 0.36759 0.80175 0.0
C1164 C 0.03926 0.36478 0.759 0.0
C1165 C 0.03107 0.37084 0.85646 0.0
C1166 C 0.06182 0.36529 0.77124 0.0
C1167 C 0.06906 0.36901 0.82521 0.0
H1168 H 0.78689 0.33727 0.89923 0.0
H1169 H 0.79218 0.37645 0.01037 0.0
H1170 H 0.79284 0.39416 0.92951 0.0
H1171 H 0.79556 0.39807 0.82715 0.0
H1172 H 0.78838 0.35895 0.71624 0.0
H1173 H 0.7846 0.34152 0.79717 0.0
C1174 C 0.78785 0.34972 0.90562 0.0
C1175 C 0.78971 0.35562 0.96037 0.0
C1176 C 0.78806 0.35974 0.8591 0.0
C1177 C 0.79066 0.37172 0.9685 0.0
C1178 C 0.7912 0.38179 0.92232 0.0
C1179 C 0.79295 0.38573 0.82081 0.0
C1180 C 0.7926 0.3797 0.76602 0.0
C1181 C 0.7905 0.37588 0.86745 0.0
C1182 C 0.78877 0.3638 0.75809 0.0
C1183 C 0.7867 0.35386 0.80431 0.0
H1184 H 0.50706 0.12722 0.25065 0.0
H1185 H 0.57639 0.12846 0.21277 0.0
H1186 H 0.5693 0.11829 0.11936 0.0
H1187 H 0.54355 0.10994 0.04697 0.0
H1188 H 0.47417 0.10796 0.0836 0.0
H1189 H 0.48107 0.11791 0.17783 0.0
C1190 C 0.5206 0.125 0.22225 0.0
C1191 C 0.54223 0.12856 0.23884 0.0
C1192 C 0.51639 0.11932 0.16777 0.0
C1193 C 0.55957 0.12584 0.20113 0.0
C1194 C 0.55555 0.12009 0.14749 0.0
C1195 C 0.5299 0.1116 0.07542 0.0
C1196 C 0.5084 0.10807 0.0579 0.0
C1197 C 0.53402 0.117 0.13003 0.0
C1198 C 0.49094 0.11055 0.09565 0.0
C1199 C 0.49487 0.11616 0.14983 0.0
H1200 H 0.77897 0.08791 0.15826 0.0
H1201 H 0.77199 0.12815 0.26362 0.0
H1202 H 0.7713 0.14496 0.18021 0.0
H1203 H 0.76841 0.14768 0.07722 0.0
H1204 H 0.777 0.10758 0.9719 0.0
H1205 H 0.78159 0.09113 0.05542 0.0
C1206 C 0.77776 0.10041 0.16288 0.0
C1207 C 0.77539 0.10684 0.21685 0.0
C1208 C 0.77746 0.10992 0.11481 0.0
C1209 C 0.77398 0.123 0.22255 0.0
C1210 C 0.77339 0.13256 0.17485 0.0
C1211 C 0.77163 0.13536 0.07265 0.0
C1212 C 0.7721 0.12876 0.01862 0.0
C1213 C 0.77446 0.12608 0.12078 0.0
C1214 C 0.77659 0.11288 0.01302 0.0
C1215 C 0.77908 0.10349 0.06077 0.0
H1216 H 0.5644 0.87933 0.86399 0.0
H1217 H 0.50931 0.86233 0.96049 0.0
H1218 H 0.4942 0.84994 0.87725 0.0
H1219 H 0.49618 0.84424 0.7773 0.0
H1220 H 0.5508 0.86127 0.67925 0.0
H1221 H 0.56639 0.87347 0.76279 0.0
C1222 C 0.54924 0.87276 0.86692 0.0
C1223 C 0.53807 0.87172 0.91852 0.0
C1224 C 0.5404 0.86582 0.81852 0.0
C1225 C 0.51827 0.86332 0.92137 0.0
C1226 C 0.50956 0.85626 0.87373 0.0
C1227 C 0.51145 0.85068 0.7739 0.0
C1228 C 0.52228 0.8518 0.72191 0.0
C1229 C 0.52037 0.85756 0.82204 0.0
C1230 C 0.54209 0.86019 0.71865 0.0
C1231 C 0.55106 0.86713 0.76649 0.0
H1232 H 0.2459 0.88787 0.82838 0.0
H1233 H 0.30037 0.86815 0.73692 0.0
H1234 H 0.31159 0.85367 0.82007 0.0
H1235 H 0.30646 0.8469 0.91862 0.0
H1236 H 0.25244 0.86658 0.01162 0.0
H1237 H 0.24071 0.88094 0.92803 0.0
C1238 C 0.26011 0.8803 0.82646 0.0
C1239 C 0.27221 0.87907 0.77626 0.0
C1240 C 0.26671 0.87213 0.87483 0.0
C1241 C 0.29071 0.86931 0.77483 0.0
C1242 C 0.2972 0.86105 0.82246 0.0
C1243 C 0.29212 0.85434 0.92085 0.0
C1244 C 0.28037 0.85566 0.97146 0.0
C1245 C 0.28543 0.86246 0.87271 0.0
C1246 C 0.26186 0.8654 0.97335 0.0
C1247 C 0.25508 0.87356 0.92546 0.0
H1248 H 0.5308 0.64792 0.65478 0.0
H1249 H 0.5322 0.60861 0.76707 0.0
H1250 H 0.52993 0.59089 0.68692 0.0
H1251 H 0.5312 0.58676 0.58471 0.0
H1252 H 0.5279 0.62602 0.47252 0.0
H1253 H 0.52697 0.64372 0.55295 0.0
C1254 C 0.53034 0.63546 0.6616 0.0
C1255 C 0.53197 0.62949 0.71647 0.0
C1256 C 0.52877 0.62543 0.61547 0.0
C1257 C 0.53097 0.6134 0.72513 0.0
C1258 C 0.5298 0.60331 0.67934 0.0
C1259 C 0.52997 0.5992 0.57802 0.0
C1260 C 0.52989 0.60517 0.52303 0.0
C1261 C 0.52924 0.6092 0.62434 0.0
C1262 C 0.52795 0.62123 0.51457 0.0
C1263 C 0.52756 0.63131 0.56049 0.0
H1264 H 0.76095 0.58768 0.65298 0.0
H1265 H 0.76427 0.62678 0.76499 0.0
H1266 H 0.76791 0.64446 0.68464 0.0
H1267 H 0.76667 0.6488 0.58241 0.0
H1268 H 0.76539 0.60961 0.47052 0.0
H1269 H 0.76474 0.59181 0.55102 0.0
C1270 C 0.7627 0.60007 0.65967 0.0
C1271 C 0.76202 0.60603 0.71452 0.0
C1272 C 0.76511 0.61006 0.61343 0.0
C1273 C 0.76472 0.62201 0.72303 0.0
C1274 C 0.7667 0.63209 0.67715 0.0
C1275 C 0.76658 0.63634 0.5758 0.0
C1276 C 0.76586 0.63045 0.52087 0.0
C1277 C 0.76641 0.62626 0.62218 0.0
C1278 C 0.76603 0.61434 0.51252 0.0
C1279 C 0.7655 0.60421 0.55849 0.0
H1280 H 0.52213 0.33396 0.32921 0.0
H1281 H 0.52569 0.37307 0.21633 0.0
H1282 H 0.52864 0.39077 0.29638 0.0
H1283 H 0.52659 0.39512 0.3984 0.0
H1284 H 0.52504 0.35597 0.51133 0.0
H1285 H 0.5252 0.33814 0.43125 0.0
C1286 C 0.52382 0.34636 0.32225 0.0
C1287 C 0.52339 0.3523 0.26719 0.0
C1288 C 0.52578 0.35638 0.36836 0.0
C1289 C 0.52597 0.3683 0.25842 0.0
C1290 C 0.52753 0.37839 0.30413 0.0
C1291 C 0.5266 0.38267 0.40536 0.0
C1292 C 0.52554 0.37679 0.46044 0.0
C1293 C 0.52692 0.37257 0.35925 0.0
C1294 C 0.52589 0.36069 0.46923 0.0
C1295 C 0.52584 0.35054 0.42349 0.0
H1296 H 0.29506 0.3359 0.411 0.0
H1297 H 0.29633 0.37512 0.52284 0.0
H1298 H 0.29603 0.39291 0.44236 0.0
H1299 H 0.29843 0.3971 0.34032 0.0
H1300 H 0.295 0.35798 0.22837 0.0
H1301 H 0.29291 0.34023 0.30888 0.0
C1302 C 0.29506 0.34836 0.41763 0.0
C1303 C 0.29601 0.35427 0.47252 0.0
C1304 C 0.29459 0.35845 0.37128 0.0
C1305 C 0.2956 0.37037 0.48087 0.0
C1306 C 0.29555 0.38051 0.43492 0.0
C1307 C 0.29703 0.38468 0.33368 0.0
C1308 C 0.29718 0.37876 0.27877 0.0
C1309 C 0.29552 0.37465 0.38 0.0
C1310 C 0.29494 0.36273 0.27038 0.0
C1311 C 0.29385 0.35262 0.31633 0.0
H1312 H 0.11363 0.11489 0.40903 0.0
H1313 H 0.14479 0.07751 0.3194 0.0
H1314 H 0.17988 0.09121 0.32231 0.0
H1315 H 0.20243 0.11307 0.35607 0.0
H1316 H 0.17152 0.15006 0.44802 0.0
H1317 H 0.1357 0.13749 0.43773 0.0
C1318 C 0.12803 0.10987 0.38949 0.0
C1319 C 0.1266 0.09512 0.36464 0.0
C1320 C 0.14828 0.11776 0.39178 0.0
C1321 C 0.1455 0.0887 0.33984 0.0
C1322 C 0.16558 0.09657 0.34117 0.0
C1323 C 0.18776 0.11849 0.37281 0.0
C1324 C 0.18958 0.13242 0.40289 0.0
C1325 C 0.16728 0.111 0.36783 0.0
C1326 C 0.1705 0.13924 0.42513 0.0
C1327 C 0.15004 0.13206 0.41929 0.0
H1328 H 0.1379 0.15052 0.88312 0.0
H1329 H 0.0999 0.11776 0.78693 0.0
H1330 H 0.13016 0.09915 0.79083 0.0
H1331 H 0.16703 0.09192 0.82422 0.0
H1332 H 0.20479 0.12472 0.92087 0.0
H1333 H 0.17519 0.14371 0.9133 0.0
C1334 C 0.13637 0.13943 0.86215 0.0
C1335 C 0.11663 0.13552 0.83496 0.0
C1336 C 0.15378 0.12878 0.86483 0.0
C1337 C 0.11482 0.12097 0.80875 0.0
C1338 C 0.13213 0.11034 0.81087 0.0
C1339 C 0.1687 0.10319 0.84385 0.0
C1340 C 0.18805 0.10687 0.87318 0.0
C1341 C 0.15156 0.11404 0.8395 0.0
C1342 C 0.19016 0.12164 0.89758 0.0
C1343 C 0.17319 0.13248 0.89349 0.0
H1344 H 0.8907 0.83707 0.63575 0.0
H1345 H 0.85094 0.87227 0.55604 0.0
H1346 H 0.882 0.89022 0.55744 0.0
H1347 H 0.92034 0.89603 0.58181 0.0
H1348 H 0.96009 0.86095 0.66212 0.0
H1349 H 0.92934 0.84273 0.65842 0.0
C1350 C 0.88884 0.84859 0.61803 0.0
C1351 C 0.86835 0.85326 0.59596 0.0
C1352 C 0.90684 0.85888 0.61884 0.0
C1353 C 0.86632 0.86837 0.57402 0.0
C1354 C 0.88415 0.87864 0.57452 0.0
C1355 C 0.92229 0.88445 0.59893 0.0
C1356 C 0.9426 0.87996 0.62247 0.0
C1357 C 0.90444 0.87406 0.59716 0.0
C1358 C 0.94482 0.86474 0.64328 0.0
C1359 C 0.92715 0.85432 0.64151 0.0
H1360 H 0.94786 0.87355 0.10414 0.0
H1361 H 0.91583 0.83634 0.19335 0.0
H1362 H 0.88046 0.84959 0.18487 0.0
H1363 H 0.8591 0.87258 0.15762 0.0
H1364 H 0.89118 0.91022 0.07042 0.0
H1365 H 0.92597 0.89615 0.07297 0.0
C1366 C 0.93302 0.86827 0.1207 0.0
C1367 C 0.93437 0.85401 0.14928 0.0
C1368 C 0.91281 0.87616 0.11682 0.0
C1369 C 0.91513 0.84736 0.17145 0.0
C1370 C 0.89494 0.85494 0.1667 0.0
C1371 C 0.87363 0.87762 0.13858 0.0
C1372 C 0.87249 0.8925 0.11427 0.0
C1373 C 0.89364 0.86948 0.14039 0.0
C1374 C 0.89161 0.89893 0.09036 0.0
C1375 C 0.91152 0.89083 0.09141 0.0
H1376 H 0.16317 0.63366 0.95356 0.0
H1377 H 0.20014 0.62235 0.80463 0.0
H1378 H 0.16754 0.61056 0.76347 0.0
H1379 H 0.12915 0.60213 0.77159 0.0
H1380 H 0.09309 0.61172 0.92364 0.0
H1381 H 0.12471 0.62551 0.96123 0.0
C1382 C 0.16427 0.62855 0.91225 0.0
C1383 C 0.18438 0.62886 0.88277 0.0
C1384 C 0.14553 0.62142 0.88918 0.0
C1385 C 0.18504 0.62247 0.82852 0.0
C1386 C 0.16636 0.61558 0.80496 0.0
C1387 C 0.12809 0.60713 0.81306 0.0
C1388 C 0.10851 0.6057 0.84452 0.0
C1389 C 0.1466 0.61477 0.83525 0.0
C1390 C 0.10764 0.61266 0.89783 0.0
C1391 C 0.12586 0.6205 0.91971 0.0
H1392 H 0.10334 0.61452 0.4004 0.0
H1393 H 0.13368 0.64349 0.27475 0.0
H1394 H 0.16962 0.63243 0.29664 0.0
H1395 H 0.19204 0.61271 0.34564 0.0
H1396 H 0.16146 0.58334 0.46968 0.0
H1397 H 0.12631 0.59638 0.45497 0.0
C1398 C 0.11788 0.6186 0.37865 0.0
C1399 C 0.11576 0.62968 0.33559 0.0
C1400 C 0.13854 0.612 0.39089 0.0
C1401 C 0.13479 0.63477 0.30741 0.0
C1402 C 0.15539 0.62848 0.32 0.0
C1403 C 0.17776 0.60941 0.37013 0.0
C1404 C 0.17932 0.59697 0.40822 0.0
C1405 C 0.15742 0.61681 0.36074 0.0
C1406 C 0.16061 0.59271 0.4394 0.0
C1407 C 0.14049 0.60019 0.43111 0.0
H1408 H 0.92513 0.39216 0.06724 0.0
H1409 H 0.96374 0.35938 0.16232 0.0
H1410 H 0.9316 0.34249 0.1722 0.0
H1411 H 0.89296 0.3364 0.14938 0.0
H1412 H 0.85472 0.36908 0.05281 0.0
H1413 H 0.88629 0.3866 0.04767 0.0
C1414 C 0.92655 0.38131 0.09009 0.0
C1415 C 0.94694 0.37701 0.11354 0.0
C1416 C 0.90807 0.37158 0.09498 0.0
C1417 C 0.94829 0.36306 0.14415 0.0
C1418 C 0.92993 0.35333 0.14939 0.0
C1419 C 0.89156 0.34731 0.12694 0.0
C1420 C 0.87149 0.35134 0.10107 0.0
C1421 C 0.90983 0.35735 0.12417 0.0
C1422 C 0.86988 0.36571 0.0733 0.0
C1423 C 0.88796 0.37571 0.07018 0.0
H1424 H 0.95546 0.37102 0.59561 0.0
H1425 H 0.92568 0.33104 0.67344 0.0
H1426 H 0.88949 0.34329 0.6678 0.0
H1427 H 0.86665 0.36635 0.64762 0.0
H1428 H 0.89681 0.40672 0.57305 0.0
H1429 H 0.93224 0.39348 0.57036 0.0
C1430 C 0.94096 0.36491 0.61021 0.0
C1431 C 0.94324 0.35016 0.63493 0.0
C1432 C 0.92023 0.37222 0.6081 0.0
C1433 C 0.92434 0.34245 0.65457 0.0
C1434 C 0.90364 0.34946 0.65142 0.0
C1435 C 0.88092 0.37213 0.63011 0.0
C1436 C 0.87908 0.38756 0.61116 0.0
C1437 C 0.90142 0.36449 0.62938 0.0
C1438 C 0.89782 0.39495 0.58891 0.0
C1439 C 0.9181 0.38735 0.58708 0.0
H1440 H 0.63331 0.09826 0.96489 0.0
H1441 H 0.6001 0.11059 0.81073 0.0
H1442 H 0.63374 0.12204 0.77501 0.0
H1443 H 0.67186 0.12985 0.78899 0.0
H1444 H 0.704 0.1198 0.94671 0.0
H1445 H 0.67146 0.10611 0.97892 0.0
C1446 C 0.6332 0.10353 0.92365 0.0
C1447 C 0.61384 0.10355 0.89113 0.0
C1448 C 0.65251 0.11055 0.9037 0.0
C1449 C 0.61454 0.11018 0.83706 0.0
C1450 C 0.63385 0.11687 0.8165 0.0
C1451 C 0.67189 0.12481 0.83058 0.0
C1452 C 0.69061 0.12607 0.86515 0.0
C1453 C 0.65282 0.11733 0.8498 0.0
C1454 C 0.69013 0.11902 0.91852 0.0
C1455 C 0.67138 0.11124 0.93735 0.0
H1456 H 0.67139 0.08509 0.39715 0.0
H1457 H 0.71157 0.12165 0.32728 0.0
H1458 H 0.68053 0.13955 0.33198 0.0
H1459 H 0.64206 0.14483 0.35613 0.0
H1460 H 0.6019 0.10832 0.42624 0.0
H1461 H 0.63271 0.09025 0.41969 0.0
C1462 C 0.67334 0.09691 0.38227 0.0
C1463 C 0.69389 0.10199 0.36198 0.0
C1464 C 0.65538 0.10713 0.38491 0.0
C1465 C 0.6961 0.11746 0.34381 0.0
C1466 C 0.6783 0.12769 0.3462 0.0
C1467 C 0.64006 0.13297 0.37043 0.0
C1468 C 0.61965 0.128 0.39191 0.0
C1469 C 0.65791 0.12267 0.36696 0.0
C1470 C 0.61729 0.11245 0.40907 0.0
C1471 C 0.63497 0.10213 0.40565 0.0
H1472 H 0.38643 0.83761 0.15623 0.0
H1473 H 0.3469 0.86595 0.04622 0.0
H1474 H 0.37902 0.88173 0.02276 0.0
H1475 H 0.41867 0.88675 0.03029 0.0
H1476 H 0.45839 0.85848 0.14001 0.0
H1477 H 0.42591 0.8435 0.16734 0.0
C1478 C 0.38489 0.84723 0.12707 0.0
C1479 C 0.36432 0.85054 0.10275 0.0
C1480 C 0.40346 0.85627 0.11384 0.0
C1481 C 0.36248 0.86323 0.06583 0.0
C1482 C 0.38088 0.8722 0.05217 0.0
C1483 C 0.4202 0.87731 0.06018 0.0
C1484 C 0.44096 0.87367 0.08271 0.0
C1485 C 0.40148 0.86872 0.07545 0.0
C1486 C 0.44261 0.8616 0.12231 0.0
C1487 C 0.42406 0.85295 0.13763 0.0
H1488 H 0.44984 0.86548 0.61883 0.0
H1489 H 0.41616 0.83146 0.51827 0.0
H1490 H 0.38197 0.84609 0.52605 0.0
H1491 H 0.36071 0.86745 0.56824 0.0
H1492 H 0.39412 0.90116 0.67063 0.0
H1493 H 0.42912 0.888 0.65495 0.0
C1494 C 0.43511 0.86145 0.59786 0.0
C1495 C 0.43555 0.8473 0.56857 0.0
C1496 C 0.41531 0.86985 0.60316 0.0
C1497 C 0.41621 0.84216 0.54194 0.0
C1498 C 0.39663 0.85055 0.54621 0.0
C1499 C 0.37573 0.87207 0.58612 0.0
C1500 C 0.37474 0.88521 0.62089 0.0
C1501 C 0.39582 0.86425 0.57772 0.0
C1502 C 0.39437 0.89095 0.6443 0.0
C1503 C 0.41442 0.88343 0.63532 0.0
H1504 H 0.63357 0.59017 0.42087 0.0
H1505 H 0.59137 0.62346 0.33879 0.0
H1506 H 0.62147 0.64217 0.33559 0.0
H1507 H 0.6603 0.64866 0.35192 0.0
H1508 H 0.7026 0.6153 0.43332 0.0
H1509 H 0.67211 0.59696 0.43977 0.0
C1510 C 0.63095 0.60148 0.40205 0.0
C1511 C 0.61014 0.60532 0.38003 0.0
C1512 C 0.64845 0.61216 0.39974 0.0
C1513 C 0.60704 0.62019 0.35672 0.0
C1514 C 0.62434 0.63088 0.35447 0.0
C1515 C 0.66283 0.63748 0.37175 0.0
C1516 C 0.68386 0.6334 0.39179 0.0
C1517 C 0.64517 0.62696 0.37544 0.0
C1518 C 0.68676 0.61871 0.41668 0.0
C1519 C 0.66927 0.60822 0.42068 0.0
H1520 H 0.6038 0.61783 0.88656 0.0
H1521 H 0.63581 0.65606 0.80234 0.0
H1522 H 0.67002 0.64135 0.79863 0.0
H1523 H 0.69111 0.61749 0.81948 0.0
H1524 H 0.65865 0.57928 0.90244 0.0
H1525 H 0.62447 0.59397 0.90554 0.0
C1526 C 0.61812 0.62291 0.86671 0.0
C1527 C 0.61708 0.63811 0.84496 0.0
C1528 C 0.6378 0.61434 0.86442 0.0
C1529 C 0.63608 0.6445 0.8202 0.0
C1530 C 0.6557 0.63605 0.81781 0.0
C1531 C 0.67658 0.61244 0.83847 0.0
C1532 C 0.67751 0.59726 0.86045 0.0
C1533 C 0.65682 0.62098 0.84008 0.0
C1534 C 0.6584 0.59083 0.88442 0.0
C1535 C 0.63882 0.59926 0.8865 0.0
H1536 H 0.45405 0.36422 0.57309 0.0
H1537 H 0.4224 0.4044 0.64392 0.0
H1538 H 0.38783 0.39022 0.65084 0.0
H1539 H 0.36651 0.36631 0.6382 0.0
H1540 H 0.39766 0.32615 0.56536 0.0
H1541 H 0.4323 0.34027 0.55862 0.0
C1542 C 0.43961 0.36981 0.5903 0.0
C1543 C 0.44088 0.3854 0.60767 0.0
C1544 C 0.41959 0.36157 0.59399 0.0
C1545 C 0.42189 0.39252 0.6294 0.0
C1546 C 0.40208 0.38438 0.63367 0.0
C1547 C 0.38074 0.36066 0.6202 0.0
C1548 C 0.37929 0.34509 0.60262 0.0
C1549 C 0.40069 0.36891 0.61597 0.0
C1550 C 0.3982 0.33801 0.58014 0.0
C1551 C 0.41809 0.34612 0.57597 0.0
H1552 H 0.36461 0.36708 0.10153 0.0
H1553 H 0.39876 0.40559 0.17734 0.0
H1554 H 0.43269 0.39051 0.17958 0.0
H1555 H 0.45283 0.36617 0.16043 0.0
H1556 H 0.41819 0.32771 0.08585 0.0
H1557 H 0.38439 0.34284 0.08365 0.0
C1558 C 0.37935 0.37215 0.11921 0.0
C1559 C 0.37898 0.38752 0.13913 0.0
C1560 C 0.39885 0.36337 0.1207 0.0
C1561 C 0.39851 0.39389 0.16098 0.0
C1562 C 0.41796 0.38523 0.16253 0.0
C1563 C 0.43791 0.36116 0.14341 0.0
C1564 C 0.4381 0.34577 0.12365 0.0
C1565 C 0.41837 0.36996 0.14231 0.0
C1566 C 0.41851 0.33941 0.1022 0.0
C1567 C 0.39915 0.3481 0.10063 0.0
H1568 H 0.03874 0.97734 0.59323 0.0
H1569 H 1.01232 0.95544 0.44519 0.0
H1570 H 1.00771 0.9808 0.40076 0.0
H1571 H 1.01132 0.00911 0.40395 0.0
H1572 H 0.03813 0.03092 0.55172 0.0
H1573 H 0.04138 0.00565 0.59745 0.0
C1574 C 0.03176 0.97811 0.55148 0.0
C1575 C 1.02595 0.96453 0.5225 0.0
C1576 C 0.02889 -0.0073 0.52652 0.0
C1577 C 1.01727 0.96572 0.46803 0.0
C1578 C 1.01442 0.98021 0.44281 0.0
C1579 C 1.01791 0.00833 0.44613 0.0
C1580 C 1.02455 0.02186 0.47429 0.0
C1581 C 1.02023 -0.00624 0.47164 0.0
C1582 C 0.03264 0.0207 0.52936 0.0
C1583 C 0.03474 0.00625 0.55531 0.0
H1584 H 0.25802 0.21315 0.55024 0.0
H1585 H 0.28372 0.22295 0.38545 0.0
H1586 H 0.28424 0.25073 0.4061 0.0
H1587 H 0.27966 0.2719 0.47314 0.0
H1588 H 0.25319 0.26229 0.63751 0.0
H1589 H 0.25061 0.23471 0.61491 0.0
C1590 C 0.2637 0.22143 0.51905 0.0
C1591 C 0.27098 0.21616 0.46674 0.0
C1592 C 0.2638 0.23734 0.53108 0.0
C1593 C 0.27802 0.22687 0.42603 0.0
C1594 C 0.27834 0.2427 0.43781 0.0
C1595 C 0.27286 0.26383 0.50356 0.0
C1596 C 0.26684 0.26907 0.55702 0.0
C1597 C 0.27149 0.24804 0.49039 0.0
C1598 C 0.25829 0.25845 0.59631 0.0
C1599 C 0.25679 0.24271 0.58345 0.0
H1600 H 0.99926 0.26763 0.71019 0.0
H1601 H 0.06688 0.27349 0.76133 0.0
H1602 H 0.06744 0.24699 0.7976 0.0
H1603 H 0.04949 0.2218 0.80984 0.0
H1604 H 0.98265 0.2153 0.7542 0.0
H1605 H 0.98124 0.24239 0.72258 0.0
C1606 C 1.01419 0.26308 0.72884 0.0
C1607 C 0.03303 0.27252 0.73278 0.0
C1608 C 1.01461 0.24772 0.74806 0.0
C1609 C 0.05207 0.26656 0.75836 0.0
C1610 C 0.05248 0.25136 0.77862 0.0
C1611 C 0.03454 0.22638 0.7913 0.0
C1612 C 1.01616 0.21669 0.78448 0.0
C1613 C 0.03394 0.24181 0.77305 0.0
C1614 C 0.99702 0.22259 0.75948 0.0
C1615 C 0.99619 0.23805 0.74172 0.0
H1616 H 0.3028 0.96595 0.78996 0.0
H1617 H 0.27708 0.97622 0.62541 0.0
H1618 H 0.27325 0.00356 0.65038 0.0
H1619 H 0.27532 0.0242 0.72067 0.0
H1620 H 0.30128 0.01396 0.88511 0.0
H1621 H 0.30664 0.98689 0.85873 0.0
C1622 C 0.29635 0.9742 0.7597 0.0
C1623 C 0.29018 0.96913 0.70612 0.0
C1624 C 0.2941 0.98984 0.77439 0.0
C1625 C 0.28212 0.97992 0.66684 0.0
C1626 C 0.27982 -0.00449 0.68114 0.0
C1627 C 0.28246 0.01609 0.75041 0.0
C1628 C 0.28768 0.02102 0.80485 0.0
C1629 C 0.28555 0.00057 0.73497 0.0
C1630 C 0.29673 0.01036 0.84321 0.0
C1631 C 0.2999 -0.00509 0.82813 0.0
H1632 H 0.76438 0.71351 0.51549 0.0
H1633 H 0.79833 0.725 0.36219 0.0
H1634 H 0.79749 0.75257 0.3866 0.0
H1635 H 0.78712 0.7733 0.45181 0.0
H1636 H 0.75304 0.76178 0.60492 0.0
H1637 H 0.75373 0.73426 0.58025 0.0
C1638 C 0.77184 0.72207 0.48794 0.0
C1639 C 0.78152 0.71734 0.43746 0.0
C1640 C 0.77103 0.73783 0.50187 0.0
C1641 C 0.79079 0.72847 0.40134 0.0
C1642 C 0.79026 0.74419 0.41517 0.0
C1643 C 0.77957 0.76476 0.47923 0.0
C1644 C 0.77 0.76946 0.52988 0.0
C1645 C 0.78028 0.749 0.46512 0.0
C1646 C 0.76057 0.75833 0.56573 0.0
C1647 C 0.76101 0.74264 0.55176 0.0
H1648 H 1.00191 0.71403 0.24704 0.0
H1649 H 0.07262 0.71441 0.23448 0.0
H1650 H 0.07223 0.7426 0.22056 0.0
H1651 H 0.05162 0.76697 0.21192 0.0
H1652 H 0.98091 0.7665 0.2253 0.0
H1653 H 0.98137 0.73835 0.23907 0.0
C1654 C 1.01718 0.72028 0.24032 0.0
C1655 C 0.03724 0.71227 0.24102 0.0
C1656 C 1.01681 0.73639 0.23319 0.0
C1657 C 0.05701 0.72045 0.23379 0.0
C1658 C 0.05678 0.7365 0.22604 0.0
C1659 C 0.03637 0.7607 0.21876 0.0
C1660 C 1.01628 0.76869 0.21803 0.0
C1661 C 0.03678 0.74458 0.22607 0.0
C1662 C 0.99655 0.76049 0.2257 0.0
C1663 C 0.99681 0.74445 0.23342 0.0
H1664 H 0.80034 0.97296 0.16046 0.0
H1665 H 0.73754 0.96388 0.23794 0.0
H1666 H 0.73745 0.99001 0.27803 0.0
H1667 H 0.75539 0.01515 0.29126 0.0
H1668 H 0.81886 0.02391 0.21659 0.0
H1669 H 0.81823 -0.0018 0.17342 0.0
C1670 C 0.78651 0.97679 0.18557 0.0
C1671 C 0.76891 0.96662 0.19612 0.0
C1672 C 0.78667 0.99171 0.20859 0.0
C1673 C 0.75129 0.97153 0.22961 0.0
C1674 C 0.75122 0.98645 0.25228 0.0
C1675 C 0.7692 0.01139 0.26598 0.0
C1676 C 0.78723 0.02136 0.25745 0.0
C1677 C 0.76889 -0.00343 0.24227 0.0
C1678 C 0.80473 0.01648 0.22344 0.0
C1679 C 0.80444 0.00177 0.19908 0.0
H1680 H 0.05889 0.46789 0.01665 0.0
H1681 H 0.98814 0.46534 0.02458 0.0
H1682 H 0.98538 0.49211 0.99094 0.0
H1683 H 1.00308 0.5158 0.95625 0.0
H1684 H 0.07382 0.51834 0.94747 0.0
H1685 H 0.07665 0.49187 0.98426 0.0
C1686 C 0.04289 0.47319 0.01052 0.0
C1687 C 1.02375 0.46471 0.02261 0.0
C1688 C 0.04145 0.48851 0.99125 0.0
C1689 C 1.00309 0.47173 0.01566 0.0
C1690 C 1.00151 0.48698 -0.00361 0.0
C1691 C 1.01911 0.51064 0.96335 0.0
C1692 C 0.03821 0.51894 0.94944 0.0
C1693 C 1.02058 0.49545 0.98393 0.0
C1694 C 0.0589 0.51207 0.9577 0.0
C1695 C 0.06051 0.49698 0.97867 0.0
H1696 H 0.2359 0.71951 0.97989 0.0
H1697 H 0.29562 0.70662 0.06615 0.0
H1698 H 0.30133 0.73348 0.09414 0.0
H1699 H 0.29047 0.7607 0.09025 0.0
H1700 H 0.23104 0.77398 0.00373 0.0
H1701 H 0.22458 0.74691 0.97762 0.0
C1702 C 0.25017 0.7226 0.00475 0.0
C1703 C 0.26527 0.71107 0.02101 0.0
C1704 C 0.25361 0.73813 0.01976 0.0
C1705 C 0.28353 0.7152 0.05389 0.0
C1706 C 0.28695 0.73059 0.06939 0.0
C1707 C 0.27595 0.75766 0.06622 0.0
C1708 C 0.26123 0.7693 0.04905 0.0
C1709 C 0.27223 0.74214 0.05207 0.0
C1710 C 0.24276 0.76524 0.01689 0.0
C1711 C 0.23896 0.74976 0.00238 0.0
H1712 H 0.29851 0.51863 0.26569 0.0
H1713 H 0.2396 0.51002 0.36157 0.0
H1714 H 0.2377 0.4836 0.32496 0.0
H1715 H 0.25272 0.46302 0.26529 0.0
H1716 H 0.31191 0.47166 0.17038 0.0
H1717 H 0.31345 0.49813 0.206 0.0
C1718 C 0.28515 0.511 0.2781 0.0
C1719 C 0.26925 0.5162 0.31621 0.0
C1720 C 0.28414 0.49589 0.25687 0.0
C1721 C 0.25219 0.50616 0.3327 0.0
C1722 C 0.25103 0.4911 0.31162 0.0
C1723 C 0.26602 0.47068 0.25276 0.0
C1724 C 0.28209 0.46544 0.21514 0.0
C1725 C 0.26695 0.48583 0.2738 0.0
C1726 C 0.29912 0.47553 0.19866 0.0
C1727 C 0.30011 0.49062 0.21926 0.0
H1728 H 0.76302 0.22404 0.90018 0.0
H1729 H 0.75368 0.20524 0.06627 0.0
H1730 H 0.75433 0.23151 0.10553 0.0
H1731 H 0.75924 0.25953 0.09238 0.0
H1732 H 0.77146 0.27786 0.92642 0.0
H1733 H 0.76707 0.252 0.88683 0.0
C1734 C 0.76074 0.22573 0.94487 0.0
C1735 C 0.75817 0.21285 0.98044 0.0
C1736 C 0.76155 0.24072 0.96693 0.0
C1737 C 0.75572 0.21508 0.03834 0.0
C1738 C 0.75607 0.23004 0.06063 0.0
C1739 C 0.7611 0.25787 0.04759 0.0
C1740 C 0.76587 0.2706 0.0125 0.0
C1741 C 0.75931 0.24291 0.02533 0.0
C1742 C 0.76759 0.2683 0.95435 0.0
C1743 C 0.76528 0.2535 0.93171 0.0
H1744 H 0.8022 0.51974 0.73483 0.0
H1745 H 0.741 0.51389 0.82373 0.0
H1746 H 0.73838 0.48709 0.79137 0.0
H1747 H 0.75336 0.46542 0.73727 0.0
H1748 H 0.81493 0.47114 0.64969 0.0
H1749 H 0.81731 0.49799 0.68118 0.0
C1750 C 0.78825 0.5126 0.74669 0.0
C1751 C 0.77188 0.51869 0.78162 0.0
C1752 C 0.78685 0.49723 0.72803 0.0
C1753 C 0.75396 0.50933 0.79735 0.0
C1754 C 0.75238 0.49406 0.77871 0.0
C1755 C 0.76737 0.47251 0.72551 0.0
C1756 C 0.78385 0.46636 0.69105 0.0
C1757 C 0.76877 0.48788 0.74416 0.0
C1758 C 0.80182 0.47572 0.67551 0.0
C1759 C 0.80328 0.49103 0.69373 0.0
H1760 H 0.52732 0.01343 0.90683 0.0
H1761 H 0.53227 0.0225 0.08424 0.0
H1762 H 0.528 -0.00524 0.10419 0.0
H1763 H 0.52358 0.96808 0.0708 0.0
H1764 H 0.51874 0.95903 0.89335 0.0
H1765 H 0.52274 0.98679 0.87348 0.0
C1766 C 0.52776 0.0093 0.94985 0.0
C1767 C 0.53034 0.0199 -0.00594 0.0
C1768 C 0.52533 -0.00655 0.96082 0.0
C1769 C 0.53028 0.0145 0.04964 0.0
C1770 C 0.5279 -0.00131 0.06098 0.0
C1771 C 0.52307 0.97222 0.02781 0.0
C1772 C 0.52067 0.96161 0.98353 0.0
C1773 C 0.52541 0.98809 0.01686 0.0
C1774 C 0.52062 0.96703 0.92799 0.0
C1775 C 0.52286 0.98286 0.91669 0.0
H1776 H 0.50867 0.21309 0.2521 0.0
H1777 H 0.5697 0.21783 0.34256 0.0
H1778 H 0.5742 0.2442 0.30627 0.0
H1779 H 0.56077 0.26587 0.24847 0.0
H1780 H 0.49934 0.2611 0.15951 0.0
H1781 H 0.49525 0.23467 0.19465 0.0
C1782 C 0.52304 0.21986 0.26339 0.0
C1783 C 0.5388 0.21358 0.29986 0.0
C1784 C 0.5255 0.23497 0.24248 0.0
C1785 C 0.55721 0.22253 0.31492 0.0
C1786 C 0.55985 0.23756 0.29405 0.0
C1787 C 0.54645 0.25907 0.23714 0.0
C1788 C 0.5305 0.26538 0.20118 0.0
C1789 C 0.54405 0.24392 0.25793 0.0
C1790 C 0.51208 0.25639 0.18636 0.0
C1791 C 0.50963 0.24132 0.20669 0.0
H1792 H 0.53247 0.70942 0.70599 0.0
H1793 H 0.49679 0.72515 0.85123 0.0
H1794 H 0.49778 0.75185 0.81565 0.0
H1795 H 0.509 0.77061 0.74323 0.0
H1796 H 0.5457 0.75479 0.59952 0.0
H1797 H 0.54403 0.72814 0.63439 0.0
C1798 C 0.52466 0.71869 0.72936 0.0
C1799 C 0.51441 0.71541 0.78073 0.0
C1800 C 0.52561 0.73394 0.70915 0.0
C1801 C 0.50475 0.72749 0.81146 0.0
C1802 C 0.50535 0.74271 0.79122 0.0
C1803 C 0.51685 0.76134 0.71996 0.0
C1804 C 0.52741 0.76463 0.66889 0.0
C1805 C 0.51588 0.74608 0.7403 0.0
C1806 C 0.53725 0.7525 0.63867 0.0
C1807 C 0.53635 0.73728 0.65859 0.0
H1808 H 0.55404 0.51335 0.43617 0.0
H1809 H 0.48939 0.52004 0.50668 0.0
H1810 H 0.48998 0.49363 0.54436 0.0
H1811 H 0.50845 0.46857 0.55502 0.0
H1812 H 0.57278 0.46163 0.48326 0.0
H1813 H 0.57245 0.48821 0.44649 0.0
C1814 C 0.53998 0.50898 0.45933 0.0
C1815 C 0.52166 0.51861 0.4685 0.0
C1816 C 0.54032 0.49377 0.48011 0.0
C1817 C 0.50377 0.51291 0.49958 0.0
C1818 C 0.50404 0.4978 0.52077 0.0
C1819 C 0.5225 0.47294 0.53181 0.0
C1820 C 0.54068 0.46325 0.52211 0.0
C1821 C 0.52219 0.48814 0.51111 0.0
C1822 C 0.55856 0.46889 0.49092 0.0
C1823 C 0.55842 0.48407 0.47021 0.0
H1824 H 0.93672 0.09311 0.2735 0.0
H1825 H 0.9588 0.08838 0.44477 0.0
H1826 H 0.92078 0.08895 0.4771 0.0
H1827 H 0.88129 0.08866 0.45628 0.0
H1828 H 0.85927 0.09126 0.28439 0.0
H1829 H 0.89725 0.09375 0.25295 0.0
C1830 C 0.93331 0.09213 0.31793 0.0
C1831 C 0.95078 0.09047 0.35643 0.0
C1832 C 0.91135 0.09203 0.33616 0.0
C1833 C 0.94587 0.08972 0.41401 0.0
C1834 C 0.92405 0.08993 0.43256 0.0
C1835 C 0.88471 0.08968 0.41187 0.0
C1836 C 0.86726 0.08954 0.37283 0.0
C1837 C 0.90666 0.09071 0.3939 0.0
C1838 C 0.87218 0.09138 0.31557 0.0
C1839 C 0.89397 0.0927 0.29746 0.0
H1840 H 0.43439 0.13294 0.44326 0.0
H1841 H 0.45489 0.15999 0.30056 0.0
H1842 H 0.41656 0.16197 0.26887 0.0
H1843 H 0.37687 0.15855 0.28879 0.0
H1844 H 0.35696 0.13135 0.43224 0.0
H1845 H 0.39531 0.12661 0.45614 0.0
C1846 C 0.43042 0.13904 0.40474 0.0
C1847 C 0.44728 0.14647 0.37454 0.0
C1848 C 0.40844 0.14016 0.38722 0.0
C1849 C 0.44212 0.15417 0.32428 0.0
C1850 C 0.42022 0.15539 0.30652 0.0
C1851 C 0.38096 0.15142 0.32483 0.0
C1852 C 0.36399 0.1455 0.35906 0.0
C1853 C 0.40317 0.14884 0.33867 0.0
C1854 C 0.36957 0.13603 0.40504 0.0
C1855 C 0.39155 0.13341 0.41905 0.0
H1856 H 0.93202 0.13397 0.94119 0.0
H1857 H 0.95111 0.16023 0.79489 0.0
H1858 H 0.91249 0.16474 0.77182 0.0
H1859 H 0.8735 0.1633 0.79835 0.0
H1860 H 0.85424 0.13733 0.945 0.0
H1861 H 0.89271 0.13052 0.96296 0.0
C1862 C 0.92766 0.14056 0.90403 0.0
C1863 C 0.94437 0.14688 0.87009 0.0
C1864 C 0.90545 0.14326 0.89147 0.0
C1865 C 0.93857 0.15516 0.82146 0.0
C1866 C 0.9165 0.15787 0.80856 0.0
C1867 C 0.87778 0.15611 0.83411 0.0
C1868 C 0.86119 0.15101 0.87087 0.0
C1869 C 0.89985 0.15231 0.84407 0.0
C1870 C 0.86678 0.14138 0.91625 0.0
C1871 C 0.88875 0.13756 0.92661 0.0
H1872 H 0.37079 0.10439 0.93682 0.0
H1873 H 0.35167 0.07308 0.80535 0.0
H1874 H 0.3903 0.06987 0.77795 0.0
H1875 H 0.42967 0.07334 0.80072 0.0
H1876 H 0.44826 0.10489 0.93259 0.0
H1877 H 0.40976 0.11095 0.94996 0.0
C1878 C 0.37518 0.09715 0.90144 0.0
C1879 C 0.35869 0.08885 0.87338 0.0
C1880 C 0.39729 0.09534 0.88643 0.0
C1881 C 0.36425 0.07959 0.82723 0.0
C1882 C 0.38629 0.07767 0.812 0.0
C1883 C 0.42524 0.08171 0.83261 0.0
C1884 C 0.44177 0.08845 0.8659 0.0
C1885 C 0.40299 0.08506 0.84266 0.0
C1886 C 0.4359 0.09953 0.90638 0.0
C1887 C 0.41385 0.10292 0.91665 0.0
H1888 H 0.18558 0.91185 0.53223 0.0
H1889 H 0.20652 0.88766 0.6815 0.0
H1890 H 0.16826 0.88335 0.70821 0.0
H1891 H 0.12888 0.88868 0.69392 0.0
H1892 H 0.10752 0.9125 0.54459 0.0
H1893 H 0.14576 0.91465 0.51275 0.0
C1894 C 0.18173 0.9055 0.5703 0.0
C1895 C 0.19897 0.90022 0.60507 0.0
C1896 C 0.15959 0.9031 0.58553 0.0
C1897 C 0.19369 0.89179 0.6538 0.0
C1898 C 0.17177 0.88942 0.66934 0.0
C1899 C 0.13263 0.89419 0.65414 0.0
C1900 C 0.11545 0.90058 0.6219 0.0
C1901 C 0.15461 0.89536 0.63628 0.0
C1902 C 0.12045 0.90746 0.56998 0.0
C1903 C 0.14232 0.90878 0.55204 0.0
H1904 H 0.67856 0.84107 0.6817 0.0
H1905 H 0.70359 0.83371 0.5145 0.0
H1906 H 0.66611 0.83218 0.47864 0.0
H1907 H 0.62633 0.8314 0.49534 0.0
H1908 H 0.60136 0.83709 0.66346 0.0
H1909 H 0.63872 0.84085 0.69809 0.0
C1910 C 0.67594 0.83904 0.63743 0.0
C1911 C 0.69414 0.83735 0.60116 0.0
C1912 C 0.65427 0.83782 0.61716 0.0
C1913 C 0.69013 0.83515 0.54361 0.0
C1914 C 0.66861 0.83416 0.52305 0.0
C1915 C 0.62895 0.83334 0.53966 0.0
C1916 C 0.61082 0.83375 0.57665 0.0
C1917 C 0.65057 0.83521 0.55957 0.0
C1918 C 0.61477 0.83676 0.63374 0.0
C1919 C 0.63623 0.83882 0.65372 0.0
H1920 H 0.17766 0.85228 0.18339 0.0
H1921 H 0.19865 0.82276 0.04827 0.0
H1922 H 0.16038 0.81949 0.01812 0.0
H1923 H 0.12069 0.82307 0.03638 0.0
H1924 H 0.10024 0.85264 0.17244 0.0
H1925 H 0.13844 0.85803 0.1955 0.0
C1926 C 0.17381 0.84526 0.14702 0.0
C1927 C 0.19085 0.83763 0.11845 0.0
C1928 C 0.15184 0.8434 0.13029 0.0
C1929 C 0.18579 0.82879 0.07077 0.0
C1930 C 0.16391 0.82683 0.05384 0.0
C1931 C 0.12461 0.83078 0.07079 0.0
C1932 C 0.1075 0.83725 0.10302 0.0
C1933 C 0.14675 0.83377 0.08421 0.0
C1934 C 0.11291 0.8475 0.14675 0.0
C1935 C 0.13483 0.85052 0.1603 0.0
H1936 H 0.68579 0.88071 0.03433 0.0
H1937 H 0.70195 0.91093 0.17188 0.0
H1938 H 0.66283 0.9138 0.19406 0.0
H1939 H 0.62395 0.90988 0.16757 0.0
H1940 H 0.60811 0.8799 0.02881 0.0
H1941 H 0.6471 0.87461 0.01416 0.0
C1942 C 0.6807 0.88777 0.06955 0.0
C1943 C 0.69668 0.89573 0.10105 0.0
C1944 C 0.65824 0.88949 0.08151 0.0
C1945 C 0.68997 0.90464 0.1472 0.0
C1946 C 0.6676 0.90639 0.15953 0.0
C1947 C 0.62905 0.9021 0.13442 0.0
C1948 C 0.61311 0.89545 0.09891 0.0
C1949 C 0.65157 0.89922 0.12593 0.0
C1950 C 0.61996 0.88513 0.05687 0.0
C1951 C 0.64229 0.88218 0.0482 0.0
H1952 H 0.92189 0.5695 0.77124 0.0
H1953 H 0.94636 0.59367 0.91656 0.0
H1954 H 0.90874 0.59994 0.94454 0.0
H1955 H 0.8688 0.59712 0.93087 0.0
H1956 H 0.84432 0.57254 0.78648 0.0
H1957 H 0.88197 0.56801 0.75465 0.0
C1958 C 0.919 0.57612 0.80907 0.0
C1959 C 0.93699 0.58096 0.84206 0.0
C1960 C 0.89729 0.57961 0.82504 0.0
C1961 C 0.93291 0.58986 0.89026 0.0
C1962 C 0.91136 0.59336 0.90645 0.0
C1963 C 0.8717 0.59079 0.89237 0.0
C1964 C 0.85368 0.58506 0.86141 0.0
C1965 C 0.89342 0.58809 0.87465 0.0
C1966 C 0.85777 0.57718 0.81097 0.0
C1967 C 0.87934 0.57447 0.79298 0.0
H1968 H 0.36876 0.66012 0.81624 0.0
H1969 H 0.35323 0.63183 0.96033 0.0
H1970 H 0.39229 0.62635 0.97443 0.0
H1971 H 0.43103 0.63175 0.95136 0.0
H1972 H 0.44673 0.66014 0.8078 0.0
H1973 H 0.40751 0.66332 0.7874 0.0
C1974 C 0.37394 0.65266 0.85045 0.0
C1975 C 0.35809 0.64653 0.88759 0.0
C1976 C 0.39647 0.64964 0.85847 0.0
C1977 C 0.36503 0.63663 0.93104 0.0
C1978 C 0.38739 0.63359 0.93936 0.0
C1979 C 0.42583 0.6385 0.91529 0.0
C1980 C 0.44176 0.64584 0.88147 0.0
C1981 C 0.40327 0.64035 0.9042 0.0
C1982 C 0.43483 0.65432 0.83428 0.0
C1983 C 0.41239 0.65624 0.82293 0.0
H1984 H 0.92966 0.66224 0.42823 0.0
H1985 H 0.94596 0.63232 0.28967 0.0
H1986 H 0.90703 0.62735 0.273 0.0
H1987 H 0.86825 0.63334 0.29225 0.0
H1988 H 0.85147 0.66304 0.43066 0.0
H1989 H 0.89056 0.66616 0.45342 0.0
C1990 C 0.92467 0.65455 0.39467 0.0
C1991 C 0.94078 0.64779 0.35993 0.0
C1992 C 0.90214 0.65176 0.38519 0.0
C1993 C 0.93402 0.63762 0.31724 0.0
C1994 C 0.91171 0.63485 0.30741 0.0
C1995 C 0.87319 0.64037 0.32772 0.0
C1996 C 0.85704 0.64807 0.35942 0.0
C1997 C 0.89563 0.64213 0.34028 0.0
C1998 C 0.86359 0.65694 0.40585 0.0
C1999 C 0.88594 0.65882 0.41853 0.0
H2000 H 0.37058 0.58632 0.48384 0.0
H2001 H 0.34539 0.5832 0.31504 0.0
H2002 H 0.38277 0.58458 0.27817 0.0
H2003 H 0.42269 0.58502 0.29405 0.0
H2004 H 0.44783 0.58656 0.46324 0.0
H2005 H 0.41039 0.58755 0.49958 0.0
C2006 C 0.37318 0.58585 0.43897 0.0
C2007 C 0.35501 0.58445 0.40245 0.0
C2008 C 0.39478 0.58635 0.41805 0.0
C2009 C 0.35888 0.58433 0.3443 0.0
C2010 C 0.38033 0.58501 0.32315 0.0
C2011 C 0.42007 0.58549 0.33891 0.0
C2012 C 0.43826 0.58554 0.37572 0.0
C2013 C 0.39842 0.58574 0.35968 0.0
C2014 C 0.43434 0.58659 0.4337 0.0
C2015 C 0.41285 0.58705 0.45461 0.0
H2016 H 0.13299 0.41223 0.21306 0.0
H2017 H 0.11244 0.38095 0.08219 0.0
H2018 H 0.15072 0.37522 0.0603 0.0
H2019 H 0.19009 0.38104 0.07196 0.0
H2020 H 0.21098 0.41232 0.20212 0.0
H2021 H 0.17268 0.41603 0.23098 0.0
C2022 C 0.13689 0.40407 0.18004 0.0
C2023 C 0.11973 0.39719 0.14892 0.0
C2024 C 0.15907 0.4009 0.16732 0.0
C2025 C 0.12516 0.3864 0.10702 0.0
C2026 C 0.14712 0.38319 0.09414 0.0
C2027 C 0.18623 0.38855 0.10697 0.0
C2028 C 0.20333 0.39652 0.13448 0.0
C2029 C 0.16419 0.39068 0.12303 0.0
C2030 C 0.19815 0.40601 0.18044 0.0
C2031 C 0.17623 0.40821 0.19663 0.0
H2032 H 0.62716 0.33878 0.02367 0.0
H2033 H 0.60648 0.33515 0.19638 0.0
H2034 H 0.64469 0.33685 0.22683 0.0
H2035 H 0.68404 0.33756 0.20437 0.0
H2036 H 0.70483 0.33932 0.03142 0.0
H2037 H 0.6665 0.34029 0.00133 0.0
C2038 C 0.63091 0.33826 0.06802 0.0
C2039 C 0.61374 0.33662 0.10751 0.0
C2040 C 0.65302 0.3389 0.08526 0.0
C2041 C 0.61913 0.33646 0.16487 0.0
C2042 C 0.64107 0.33733 0.18236 0.0
C2043 C 0.68029 0.33808 0.16002 0.0
C2044 C 0.69753 0.33816 0.12031 0.0
C2045 C 0.65816 0.33825 0.14289 0.0
C2046 C 0.69212 0.33931 0.0631 0.0
C2047 C 0.67012 0.33975 0.04579 0.0
H2048 H 0.18924 0.3477 0.70372 0.0
H2049 H 0.21185 0.32995 0.54499 0.0
H2050 H 0.17387 0.3278 0.5125 0.0
H2051 H 0.13406 0.3295 0.53127 0.0
H2052 H 0.1118 0.34619 0.69206 0.0
H2053 H 0.14969 0.35022 0.7213 0.0
C2054 C 0.18592 0.34333 0.66203 0.0
C2055 C 0.20353 0.33888 0.62716 0.0
C2056 C 0.16399 0.34188 0.64394 0.0
C2057 C 0.19878 0.33358 0.57273 0.0
C2058 C 0.17698 0.33222 0.55425 0.0
C2059 C 0.13744 0.33398 0.57277 0.0
C2060 C 0.11986 0.33745 0.60929 0.0
C2061 C 0.15943 0.33609 0.58983 0.0
C2062 C 0.12476 0.34354 0.66257 0.0
C2063 C 0.14653 0.34576 0.67961 0.0
H2064 H 0.63169 0.39291 0.70349 0.0
H2065 H 0.61034 0.39411 0.53077 0.0
H2066 H 0.64854 0.39348 0.49998 0.0
H2067 H 0.68793 0.39411 0.52178 0.0
H2068 H 0.70923 0.39497 0.69453 0.0
H2069 H 0.67108 0.39321 0.72529 0.0
C2070 C 0.63522 0.39317 0.65904 0.0
C2071 C 0.61781 0.39376 0.61972 0.0
C2072 C 0.65732 0.3932 0.64149 0.0
C2073 C 0.6231 0.3936 0.56228 0.0
C2074 C 0.64506 0.39334 0.54454 0.0
C2075 C 0.68439 0.39406 0.56624 0.0
C2076 C 0.70176 0.39489 0.60559 0.0
C2077 C 0.6623 0.39342 0.58377 0.0
C2078 C 0.69649 0.39429 0.66301 0.0
C2079 C 0.67456 0.39339 0.68072 0.0
H2080 H 0.05098 0.08553 0.14432 0.0
H2081 H 0.05556 0.12595 0.25034 0.0
H2082 H 0.0563 0.14272 0.16733 0.0
H2083 H 0.05386 0.14584 0.06587 0.0
H2084 H 0.04701 0.10565 0.95949 0.0
H2085 H 0.0491 0.08868 0.04207 0.0
C2086 C 0.05236 0.09801 0.14933 0.0
C2087 C 0.05325 0.10453 0.20338 0.0
C2088 C 0.05229 0.10754 0.10158 0.0
C2089 C 0.0548 0.12069 0.20918 0.0
C2090 C 0.05522 0.13025 0.16179 0.0
C2091 C 0.05302 0.13335 0.06045 0.0
C2092 C 0.05031 0.12698 0.00656 0.0
C2093 C 0.05372 0.12379 0.10794 0.0
C2094 C 0.04908 0.11081 0.00051 0.0
C2095 C 0.05024 0.10114 0.04767 0.0
H2096 H 0.26249 0.08799 0.09878 0.0
H2097 H 0.26767 0.13004 0.00048 0.0
H2098 H 0.27168 0.14518 0.08671 0.0
H2099 H 0.27355 0.14635 0.189 0.0
H2100 H 0.26906 0.10435 0.28768 0.0
H2101 H 0.26519 0.08912 0.20139 0.0
C2102 C 0.26437 0.10049 0.09601 0.0
C2103 C 0.26459 0.10793 0.04313 0.0
C2104 C 0.26695 0.10903 0.14558 0.0
C2105 C 0.26735 0.12408 0.04052 0.0
C2106 C 0.26968 0.1327 0.08979 0.0
C2107 C 0.27173 0.13385 0.1919 0.0
C2108 C 0.27146 0.12647 0.24484 0.0
C2109 C 0.2695 0.12528 0.1424 0.0
C2110 C 0.26935 0.11028 0.24756 0.0
C2111 C 0.26705 0.10161 0.19826 0.0
H2112 H 1.01746 0.83893 0.92968 0.0
H2113 H 1.01666 0.87994 0.03333 0.0
H2114 H 1.01711 0.89633 0.94911 0.0
H2115 H 1.01744 0.8988 0.84673 0.0
H2116 H 1.01923 0.85773 0.74346 0.0
H2117 H 1.01863 0.84139 0.82765 0.0
C2118 C 1.01732 0.85147 0.93401 0.0
C2119 C 1.01687 0.85826 0.98761 0.0
C2120 C 1.01773 0.86071 0.88571 0.0
C2121 C 1.017 0.87448 0.99249 0.0
C2122 C 1.01721 0.88381 0.94442 0.0
C2123 C 1.01761 0.88627 0.84254 0.0
C2124 C 1.01823 0.87944 0.78898 0.0
C2125 C 1.0175 0.87703 0.89092 0.0
C2126 C 1.01874 0.86322 0.78424 0.0
C2127 C 1.01838 0.85391 0.83229 0.0
H2128 H 0.79842 0.83959 0.81569 0.0
H2129 H 0.79498 0.88015 0.7091 0.0
H2130 H 0.79802 0.89689 0.79165 0.0
H2131 H 0.80008 0.8998 0.89358 0.0
H2132 H 0.80143 0.85918 0.00016 0.0
H2133 H 0.80099 0.84248 0.91726 0.0
C2134 C 0.79848 0.8521 0.81029 0.0
C2135 C 0.79649 0.85866 0.75637 0.0
C2136 C 0.79986 0.86155 0.85771 0.0
C2137 C 0.79643 0.87486 0.75021 0.0
C2138 C 0.79819 0.8844 0.79732 0.0
C2139 C 0.80052 0.88729 0.8988 0.0
C2140 C 0.80084 0.88069 0.95291 0.0
C2141 C 0.79972 0.87784 0.85121 0.0
C2142 C 0.80117 0.86449 0.95893 0.0
C2143 C 0.80088 0.85498 0.91162 0.0
H2144 H 1.01714 0.58314 0.61517 0.0
H2145 H 1.02194 0.6236 0.72102 0.0
H2146 H 1.02467 0.64021 0.63796 0.0
H2147 H 1.02756 0.64296 0.5363 0.0
H2148 H 1.02315 0.60253 0.43024 0.0
H2149 H 1.01846 0.58602 0.51314 0.0
C2150 C 1.01865 0.5956 0.62019 0.0
C2151 C 1.01949 0.60215 0.67414 0.0
C2152 C 1.02046 0.605 0.57247 0.0
C2153 C 1.02127 0.61831 0.67992 0.0
C2154 C 1.02292 0.62778 0.6325 0.0
C2155 C 1.02559 0.63053 0.53117 0.0
C2156 C 1.02592 0.62392 0.47731 0.0
C2157 C 1.02288 0.6212 0.57873 0.0
C2158 C 1.02305 0.60785 0.47133 0.0
C2159 C 1.02036 0.59844 0.51864 0.0
H2160 H 0.27065 0.64489 0.70175 0.0
H2161 H 0.26688 0.6045 0.80915 0.0
H2162 H 0.26234 0.58791 0.72691 0.0
H2163 H 0.25897 0.58503 0.62543 0.0
H2164 H 0.26331 0.6253 0.51766 0.0
H2165 H 0.26789 0.64195 0.5999 0.0
C2166 C 0.2689 0.63245 0.70728 0.0
C2167 C 0.26906 0.62591 0.76146 0.0
C2168 C 0.26623 0.62304 0.66001 0.0
C2169 C 0.26689 0.60978 0.76786 0.0
C2170 C 0.26419 0.60032 0.72093 0.0
C2171 C 0.26078 0.59747 0.61978 0.0
C2172 C 0.26066 0.60397 0.56556 0.0
C2173 C 0.26369 0.60686 0.66695 0.0
C2174 C 0.26328 0.62006 0.559 0.0
C2175 C 0.26594 0.62954 0.60593 0.0
H2176 H 1.02452 0.33783 0.41392 0.0
H2177 H 1.02654 0.37954 0.51386 0.0
H2178 H 1.02839 0.39528 0.42832 0.0
H2179 H 0.02932 0.39706 0.32611 0.0
H2180 H 1.02792 0.35541 0.22586 0.0
H2181 H 1.02611 0.33961 0.31143 0.0
C2182 C 1.02526 0.35038 0.41713 0.0
C2183 C 1.02524 0.35755 0.47017 0.0
C2184 C 1.02654 0.35928 0.36799 0.0
C2185 C 1.02648 0.37378 0.47355 0.0
C2186 C 1.02755 0.38275 0.42471 0.0
C2187 C 1.0286 0.38451 0.32278 0.0
C2188 C 1.02865 0.37738 0.2697 0.0
C2189 C 1.02759 0.3756 0.37185 0.0
C2190 C 1.02794 0.36114 0.26623 0.0
C2191 C 1.02684 0.35214 0.31507 0.0
H2192 H 0.79994 0.33577 0.32467 0.0
H2193 H 0.80132 0.37637 0.21797 0.0
H2194 H 0.80408 0.39302 0.30059 0.0
H2195 H 0.80465 0.39594 0.40217 0.0
H2196 H 0.80131 0.35553 0.50948 0.0
H2197 H 0.80089 0.33871 0.42677 0.0
C2198 C 0.80101 0.34826 0.31941 0.0
C2199 C 0.80045 0.35488 0.2654 0.0
C2200 C 0.80219 0.3577 0.36692 0.0
C2201 C 0.80165 0.37105 0.25919 0.0
C2202 C 0.80324 0.38054 0.30632 0.0
C2203 C 0.80402 0.38344 0.40767 0.0
C2204 C 0.80306 0.37694 0.4618 0.0
C2205 C 0.80333 0.37398 0.36027 0.0
C2206 C 0.80205 0.36076 0.46816 0.0
C2207 C 0.80179 0.35119 0.42098 0.0
H2208 H 0.52881 0.0873 0.69709 0.0
H2209 H 0.53346 0.129 0.79646 0.0
H2210 H 0.53751 0.14448 0.71068 0.0
H2211 H 0.54054 0.14597 0.60848 0.0
H2212 H 0.53541 0.10435 0.5088 0.0
H2213 H 0.53086 0.08888 0.59452 0.0
C2214 C 0.53067 0.09979 0.70017 0.0
C2215 C 0.53093 0.10701 0.75322 0.0
C2216 C 0.53303 0.10854 0.65085 0.0
C2217 C 0.53315 0.12319 0.75625 0.0
C2218 C 0.53556 0.13201 0.70725 0.0
C2219 C 0.53853 0.13349 0.60526 0.0
C2220 C 0.53851 0.12628 0.5522 0.0
C2221 C 0.53571 0.12477 0.65447 0.0
C2222 C 0.53557 0.11015 0.54903 0.0
C2223 C 0.53295 0.10134 0.598 0.0
H2224 H 0.75985 0.11657 0.72568 0.0
H2225 H 0.80941 0.14863 0.6683 0.0
H2226 H 0.80823 0.13724 0.57459 0.0
H2227 H 0.79219 0.11857 0.50783 0.0
H2228 H 0.74192 0.08695 0.56513 0.0
H2229 H 0.74389 0.09791 0.65912 0.0
C2230 C 0.77072 0.12076 0.6929 0.0
C2231 C 0.78495 0.13319 0.70384 0.0
C2232 C 0.76941 0.1145 0.6386 0.0
C2233 C 0.79851 0.1389 0.66074 0.0
C2234 C 0.79769 0.13251 0.60707 0.0
C2235 C 0.78145 0.11429 0.54073 0.0
C2236 C 0.76683 0.10208 0.52947 0.0
C2237 C 0.78292 0.12047 0.59517 0.0
C2238 C 0.75328 0.09641 0.57275 0.0
C2239 C 0.75449 0.10258 0.62666 0.0
H2240 H 0.51628 0.8325 0.3567 0.0
H2241 H 0.51927 0.87316 0.46197 0.0
H2242 H 0.52313 0.88963 0.37874 0.0
H2243 H 0.52544 0.89234 0.27692 0.0
H2244 H 0.52284 0.8517 0.17155 0.0
H2245 H 0.51931 0.83518 0.25482 0.0
C2246 C 0.51766 0.84498 0.36156 0.0
C2247 C 0.51734 0.85165 0.41537 0.0
C2248 C 0.52011 0.85429 0.31379 0.0
C2249 C 0.51941 0.86779 0.42096 0.0
C2250 C 0.52165 0.87718 0.37347 0.0
C2251 C 0.52414 0.87986 0.27203 0.0
C2252 C 0.52432 0.87322 0.21818 0.0
C2253 C 0.52203 0.87053 0.3198 0.0
C2254 C 0.52281 0.85705 0.21259 0.0
C2255 C 0.52068 0.84763 0.26011 0.0
H2256 H 0.28816 0.89869 0.41726 0.0
H2257 H 0.29149 0.85797 0.52309 0.0
H2258 H 0.29269 0.84144 0.43974 0.0
H2259 H 0.29275 0.83872 0.3377 0.0
H2260 H 0.2884 0.8794 0.2319 0.0
H2261 H 0.28784 0.89596 0.31522 0.0
C2262 C 0.28918 0.88619 0.42227 0.0
C2263 C 0.28981 0.87953 0.47629 0.0
C2264 C 0.28978 0.87684 0.37442 0.0
C2265 C 0.29094 0.86334 0.48197 0.0
C2266 C 0.29169 0.85392 0.43439 0.0
C2267 C 0.29182 0.85122 0.33265 0.0
C2268 C 0.29075 0.85786 0.27864 0.0
C2269 C 0.29117 0.86057 0.38052 0.0
C2270 C 0.2893 0.87404 0.27299 0.0
C2271 C 0.28894 0.88348 0.32056 0.0
H2272 H 0.54609 0.64682 0.07956 0.0
H2273 H 0.5443 0.60637 0.97313 0.0
H2274 H 0.54184 0.58962 0.05608 0.0
H2275 H 0.53874 0.58669 0.15785 0.0
H2276 H 0.53869 0.62721 0.26399 0.0
H2277 H 0.5432 0.64388 0.18137 0.0
C2278 C 0.54541 0.63432 0.07438 0.0
C2279 C 0.54548 0.6278 0.02028 0.0
C2280 C 0.54345 0.62487 0.12197 0.0
C2281 C 0.5443 0.61163 0.01434 0.0
C2282 C 0.54284 0.60208 0.06168 0.0
C2283 C 0.53981 0.59917 0.16306 0.0
C2284 C 0.53838 0.60574 0.21693 0.0
C2285 C 0.54215 0.60861 0.11555 0.0
C2286 C 0.53962 0.62192 0.22292 0.0
C2287 C 0.54227 0.63141 0.17577 0.0
H2288 H 0.7511 0.64689 0.15827 0.0
H2289 H 0.755 0.60605 0.2633 0.0
H2290 H 0.75349 0.58955 0.1798 0.0
H2291 H 0.75244 0.58698 0.07766 0.0
H2292 H 0.75068 0.62791 0.97274 0.0
H2293 H 0.74992 0.64433 0.05642 0.0
C2294 C 0.75144 0.63437 0.16313 0.0
C2295 C 0.75308 0.62765 0.2169 0.0
C2296 C 0.75103 0.62507 0.11519 0.0
C2297 C 0.75375 0.61145 0.22234 0.0
C2298 C 0.7529 0.60205 0.17469 0.0
C2299 C 0.7517 0.59949 0.07296 0.0
C2300 C 0.75153 0.60627 0.01913 0.0
C2301 C 0.75172 0.60878 0.121 0.0
C2302 C 0.75084 0.62248 0.01376 0.0
C2303 C 0.75041 0.63182 0.0615 0.0
H2304 H 0.5116 0.3349 0.90324 0.0
H2305 H 0.5135 0.37541 0.00937 0.0
H2306 H 0.51344 0.39218 0.9262 0.0
H2307 H 0.5142 0.39513 0.82414 0.0
H2308 H 0.51424 0.35457 0.71817 0.0
H2309 H 0.51213 0.33785 0.80127 0.0
C2310 C 0.51182 0.34741 0.90835 0.0
C2311 C 0.51249 0.35394 0.96237 0.0
C2312 C 0.51221 0.35688 0.86059 0.0
C2313 C 0.513 0.37014 0.9682 0.0
C2314 C 0.51297 0.3797 0.92073 0.0
C2315 C 0.51358 0.38263 0.81906 0.0
C2316 C 0.51432 0.37605 0.7651 0.0
C2317 C 0.51278 0.37316 0.86683 0.0
C2318 C 0.51373 0.35986 0.75929 0.0
C2319 C 0.51251 0.35033 0.80672 0.0
H2320 H 0.30908 0.33742 0.83604 0.0
H2321 H 0.30745 0.37814 0.72999 0.0
H2322 H 0.30826 0.39474 0.81319 0.0
H2323 H 0.30741 0.39748 0.91519 0.0
H2324 H 0.30685 0.35672 0.0211 0.0
H2325 H 0.30898 0.34016 0.93797 0.0
C2326 C 0.30912 0.34993 0.83091 0.0
C2327 C 0.30821 0.35658 0.7769 0.0
C2328 C 0.30906 0.35931 0.87869 0.0
C2329 C 0.3081 0.37279 0.77112 0.0
C2330 C 0.30854 0.38225 0.81861 0.0
C2331 C 0.30794 0.38497 0.92029 0.0
C2332 C 0.30696 0.3783 0.97423 0.0
C2333 C 0.30871 0.37561 0.8725 0.0
C2334 C 0.30751 0.36209 0.98001 0.0
C2335 C 0.30873 0.35266 0.93256 0.0
loop_
_geom_bond_atom_site_label_1
_geom_bond_atom_site_label_2
_geom_bond_distance
_geom_bond_site_symmetry_2
_ccdc_geom_bond_type
C0 C1 1.351 . S
C0 N3 1.368 . S
C0 H5 0.931 . S
C1 C0 1.351 . S
C1 N2 1.373 . S
C1 H29 0.930 . S
N2 C1 1.373 . S
N2 C4 1.340 . S
N3 C0 1.368 . S
N3 C4 1.321 . S
N3 Co6 2.135 . S
C4 N2 1.340 . S
C4 N3 1.321 . S
C4 H28 0.930 . S
H5 C0 0.931 . S
Co6 N3 2.135 . S
Co6 N9 2.121 1_655 S
Co6 O14 2.055 . S
Co6 O17 2.039 . S
Co6 N20 2.140 1_655 S
C7 O8 1.227 . S
C7 O17 1.265 . S
O8 C7 1.227 . S
N9 Co6 2.121 1_455 S
N9 C11 1.375 . S
N9 C12 1.313 . S
C10 C11 1.338 . S
C10 N13 1.377 . S
C10 H30 0.930 . S
C11 N9 1.375 . S
C11 C10 1.338 . S
C11 H15 0.931 . S
C12 N9 1.313 . S
C12 N13 1.344 . S
C12 H16 0.930 . S
N13 C10 1.377 . S
N13 C12 1.344 . S
O14 Co6 2.055 . S
O14 C18 1.250 1_655 S
H15 C11 0.931 . S
H16 C12 0.930 . S
O17 Co6 2.039 . S
O17 C7 1.265 . S
C18 O14 1.250 1_455 S
C18 O19 1.227 . S
O19 C18 1.227 . S
N20 Co6 2.140 1_455 S
N20 C23 1.346 1_455 S
N20 C24 1.345 . S
C21 C22 1.387 1_455 S
C21 C25 1.391 . S
C22 C21 1.387 1_655 S
C22 C23 1.369 . S
C22 H31 0.929 . S
C23 N20 1.346 1_655 S
C23 C22 1.369 . S
C23 H26 0.928 . S
C24 N20 1.345 . S
C24 C25 1.371 . S
C24 H27 0.931 . S
C25 C21 1.391 . S
C25 C24 1.371 . S
C25 H32 0.930 . S
H26 C23 0.928 . S
H27 C24 0.931 . S
H28 C4 0.930 . S
H29 C1 0.930 . S
H30 C10 0.930 . S
H31 C22 0.929 . S
H32 C25 0.930 . S
C33 C34 1.351 . S
C33 N36 1.368 . S
C33 H38 0.931 . S
C34 C33 1.351 . S
C34 N35 1.373 . S
C34 H62 0.930 . S
N35 C34 1.373 . S
N35 C37 1.340 . S
N36 C33 1.368 . S
N36 C37 1.321 . S
N36 Co39 2.135 . S
C37 N35 1.340 . S
C37 N36 1.321 . S
C37 H61 0.930 . S
H38 C33 0.931 . S
Co39 N36 2.135 . S
Co39 N42 2.121 . S
Co39 O47 2.055 . S
Co39 O50 2.039 . S
Co39 N53 2.140 . S
C40 O41 1.227 . S
C40 O50 1.265 . S
O41 C40 1.227 . S
N42 Co39 2.121 . S
N42 C44 1.375 . S
N42 C45 1.313 . S
C43 C44 1.338 . S
C43 N46 1.377 . S
C43 H63 0.930 . S
C44 N42 1.375 . S
C44 C43 1.338 . S
C44 H48 0.931 . S
C45 N42 1.313 . S
C45 N46 1.344 . S
C45 H49 0.930 . S
N46 C43 1.377 . S
N46 C45 1.344 . S
O47 Co39 2.055 . S
O47 C51 1.253 . S
H48 C44 0.931 . S
H49 C45 0.930 . S
O50 Co39 2.039 . S
O50 C40 1.265 . S
C51 O47 1.253 . S
C51 O52 1.227 . S
O52 C51 1.227 . S
N53 Co39 2.140 . S
N53 C56 1.346 . S
N53 C57 1.345 . S
C54 C55 1.387 . S
C54 C58 1.391 . S
C55 C54 1.387 . S
C55 C56 1.369 . S
C55 H64 0.929 . S
C56 N53 1.346 . S
C56 C55 1.369 . S
C56 H59 0.928 . S
C57 N53 1.345 . S
C57 C58 1.371 . S
C57 H60 0.931 . S
C58 C54 1.391 . S
C58 C57 1.371 . S
C58 H65 0.930 . S
H59 C56 0.928 . S
H60 C57 0.931 . S
H61 C37 0.930 . S
H62 C34 0.930 . S
H63 C43 0.930 . S
H64 C55 0.929 . S
H65 C58 0.930 . S
C66 C67 1.351 . S
C66 N69 1.368 . S
C66 H71 0.931 . S
C67 C66 1.351 . S
C67 N68 1.373 . S
C67 H95 0.930 . S
N68 C67 1.373 . S
N68 C70 1.340 . S
N69 C66 1.368 . S
N69 C70 1.321 . S
N69 Co72 2.135 . S
C70 N68 1.340 . S
C70 N69 1.321 . S
C70 H94 0.930 . S
H71 C66 0.931 . S
Co72 N69 2.135 . S
Co72 N75 2.121 1_655 S
Co72 O80 2.055 . S
Co72 O83 2.039 . S
Co72 N86 2.140 1_655 S
C73 O74 1.227 . S
C73 O83 1.265 . S
O74 C73 1.227 . S
N75 Co72 2.121 1_455 S
N75 C77 1.375 . S
N75 C78 1.313 . S
C76 C77 1.338 . S
C76 N79 1.377 . S
C76 H96 0.930 . S
C77 N75 1.375 . S
C77 C76 1.338 . S
C77 H81 0.931 . S
C78 N75 1.313 . S
C78 N79 1.344 . S
C78 H82 0.930 . S
N79 C76 1.377 . S
N79 C78 1.344 . S
O80 Co72 2.055 . S
O80 C84 1.250 1_655 S
H81 C77 0.931 . S
H82 C78 0.930 . S
O83 Co72 2.039 . S
O83 C73 1.265 . S
C84 O80 1.250 1_455 S
C84 O85 1.227 . S
O85 C84 1.227 . S
N86 Co72 2.140 1_455 S
N86 C89 1.346 1_455 S
N86 C90 1.345 . S
C87 C88 1.387 1_455 S
C87 C91 1.391 . S
C88 C87 1.387 1_655 S
C88 C89 1.369 . S
C88 H97 0.929 . S
C89 N86 1.346 1_655 S
C89 C88 1.369 . S
C89 H92 0.928 . S
C90 N86 1.345 . S
C90 C91 1.371 . S
C90 H93 0.931 . S
C91 C87 1.391 . S
C91 C90 1.371 . S
C91 H98 0.930 . S
H92 C89 0.928 . S
H93 C90 0.931 . S
H94 C70 0.930 . S
H95 C67 0.930 . S
H96 C76 0.930 . S
H97 C88 0.929 . S
H98 C91 0.930 . S
C99 C100 1.351 . S
C99 N102 1.368 . S
C99 H104 0.931 . S
C100 C99 1.351 . S
C100 N101 1.373 . S
C100 H128 0.930 . S
N101 C100 1.373 . S
N101 C103 1.340 . S
N102 C99 1.368 . S
N102 C103 1.321 . S
N102 Co105 2.135 . S
C103 N101 1.340 . S
C103 N102 1.321 . S
C103 H127 0.930 . S
H104 C99 0.931 . S
Co105 N102 2.135 . S
Co105 N108 2.121 . S
Co105 O113 2.055 . S
Co105 O116 2.039 . S
Co105 N119 2.140 . S
C106 O107 1.227 . S
C106 O116 1.265 . S
O107 C106 1.227 . S
N108 Co105 2.121 . S
N108 C110 1.375 . S
N108 C111 1.313 . S
C109 C110 1.338 . S
C109 N112 1.377 . S
C109 H129 0.930 . S
C110 N108 1.375 . S
C110 C109 1.338 . S
C110 H114 0.931 . S
C111 N108 1.313 . S
C111 N112 1.344 . S
C111 H115 0.930 . S
N112 C109 1.377 . S
N112 C111 1.344 . S
O113 Co105 2.055 . S
O113 C117 1.253 . S
H114 C110 0.931 . S
H115 C111 0.930 . S
O116 Co105 2.039 . S
O116 C106 1.265 . S
C117 O113 1.253 . S
C117 O118 1.227 . S
O118 C117 1.227 . S
N119 Co105 2.140 . S
N119 C122 1.346 . S
N119 C123 1.345 . S
C120 C121 1.387 . S
C120 C124 1.391 . S
C121 C120 1.387 . S
C121 C122 1.369 . S
C121 H130 0.929 . S
C122 N119 1.346 . S
C122 C121 1.369 . S
C122 H125 0.928 . S
C123 N119 1.345 . S
C123 C124 1.371 . S
C123 H126 0.931 . S
C124 C120 1.391 . S
C124 C123 1.371 . S
C124 H131 0.930 . S
H125 C122 0.928 . S
H126 C123 0.931 . S
H127 C103 0.930 . S
H128 C100 0.930 . S
H129 C109 0.930 . S
H130 C121 0.929 . S
H131 C124 0.930 . S
C132 C133 1.351 . S
C132 N135 1.368 . S
C132 H137 0.931 . S
C133 C132 1.351 . S
C133 N134 1.373 . S
C133 H161 0.930 . S
N134 C133 1.373 . S
N134 C136 1.340 . S
N135 C132 1.368 . S
N135 C136 1.321 . S
N135 Co138 2.135 . S
C136 N134 1.340 . S
C136 N135 1.321 . S
C136 H160 0.930 . S
H137 C132 0.931 . S
Co138 N135 2.135 . S
Co138 N141 2.121 1_455 S
Co138 O146 2.055 . S
Co138 O149 2.039 . S
Co138 N152 2.140 1_455 S
C139 O140 1.227 . S
C139 O149 1.265 . S
O140 C139 1.227 . S
N141 Co138 2.121 1_655 S
N141 C143 1.375 . S
N141 C144 1.313 . S
C142 C143 1.338 . S
C142 N145 1.377 . S
C142 H162 0.930 . S
C143 N141 1.375 . S
C143 C142 1.338 . S
C143 H147 0.931 . S
C144 N141 1.313 . S
C144 N145 1.344 . S
C144 H148 0.930 . S
N145 C142 1.377 . S
N145 C144 1.344 . S
O146 Co138 2.055 . S
O146 C150 1.250 1_455 S
H147 C143 0.931 . S
H148 C144 0.930 . S
O149 Co138 2.039 . S
O149 C139 1.265 . S
C150 O146 1.250 1_655 S
C150 O151 1.227 . S
O151 C150 1.227 . S
N152 Co138 2.140 1_655 S
N152 C155 1.346 1_655 S
N152 C156 1.345 . S
C153 C154 1.387 1_655 S
C153 C157 1.391 . S
C154 C153 1.387 1_455 S
C154 C155 1.369 . S
C154 H163 0.929 . S
C155 N152 1.346 1_455 S
C155 C154 1.369 . S
C155 H158 0.928 . S
C156 N152 1.345 . S
C156 C157 1.371 . S
C156 H159 0.931 . S
C157 C153 1.391 . S
C157 C156 1.371 . S
C157 H164 0.930 . S
H158 C155 0.928 . S
H159 C156 0.931 . S
H160 C136 0.930 . S
H161 C133 0.930 . S
H162 C142 0.930 . S
H163 C154 0.929 . S
H164 C157 0.930 . S
C165 C166 1.351 . S
C165 N168 1.368 . S
C165 H170 0.931 . S
C166 C165 1.351 . S
C166 N167 1.373 . S
C166 H194 0.930 . S
N167 C166 1.373 . S
N167 C169 1.340 . S
N168 C165 1.368 . S
N168 C169 1.321 . S
N168 Co171 2.135 . S
C169 N167 1.340 . S
C169 N168 1.321 . S
C169 H193 0.930 . S
H170 C165 0.931 . S
Co171 N168 2.135 . S
Co171 N174 2.121 . S
Co171 O179 2.055 . S
Co171 O182 2.039 . S
Co171 N185 2.140 . S
C172 O173 1.227 . S
C172 O182 1.265 . S
O173 C172 1.227 . S
N174 Co171 2.121 . S
N174 C176 1.375 . S
N174 C177 1.313 . S
C175 C176 1.338 . S
C175 N178 1.377 . S
C175 H195 0.930 . S
C176 N174 1.375 . S
C176 C175 1.338 . S
C176 H180 0.931 . S
C177 N174 1.313 . S
C177 N178 1.344 . S
C177 H181 0.930 . S
N178 C175 1.377 . S
N178 C177 1.344 . S
O179 Co171 2.055 . S
O179 C183 1.253 . S
H180 C176 0.931 . S
H181 C177 0.930 . S
O182 Co171 2.039 . S
O182 C172 1.265 . S
C183 O179 1.253 . S
C183 O184 1.227 . S
O184 C183 1.227 . S
N185 Co171 2.140 . S
N185 C188 1.346 . S
N185 C189 1.345 . S
C186 C187 1.387 . S
C186 C190 1.391 . S
C187 C186 1.387 . S
C187 C188 1.369 . S
C187 H196 0.929 . S
C188 N185 1.346 . S
C188 C187 1.369 . S
C188 H191 0.928 . S
C189 N185 1.345 . S
C189 C190 1.371 . S
C189 H192 0.931 . S
C190 C186 1.391 . S
C190 C189 1.371 . S
C190 H197 0.930 . S
H191 C188 0.928 . S
H192 C189 0.931 . S
H193 C169 0.930 . S
H194 C166 0.930 . S
H195 C175 0.930 . S
H196 C187 0.929 . S
H197 C190 0.930 . S
C198 C199 1.351 . S
C198 N201 1.368 . S
C198 H203 0.931 . S
C199 C198 1.351 . S
C199 N200 1.373 . S
C199 H227 0.930 . S
N200 C199 1.373 . S
N200 C202 1.340 . S
N201 C198 1.368 . S
N201 C202 1.321 . S
N201 Co204 2.135 . S
C202 N200 1.340 . S
C202 N201 1.321 . S
C202 H226 0.930 . S
H203 C198 0.931 . S
Co204 N201 2.135 . S
Co204 N207 2.121 1_455 S
Co204 O212 2.055 . S
Co204 O215 2.039 . S
Co204 N218 2.140 1_455 S
C205 O206 1.227 . S
C205 O215 1.265 . S
O206 C205 1.227 . S
N207 Co204 2.121 1_655 S
N207 C209 1.375 . S
N207 C210 1.313 . S
C208 C209 1.338 . S
C208 N211 1.377 . S
C208 H228 0.930 . S
C209 N207 1.375 . S
C209 C208 1.338 . S
C209 H213 0.931 . S
C210 N207 1.313 . S
C210 N211 1.344 . S
C210 H214 0.930 . S
N211 C208 1.377 . S
N211 C210 1.344 . S
O212 Co204 2.055 . S
O212 C216 1.250 1_455 S
H213 C209 0.931 . S
H214 C210 0.930 . S
O215 Co204 2.039 . S
O215 C205 1.265 . S
C216 O212 1.250 1_655 S
C216 O217 1.227 . S
O217 C216 1.227 . S
N218 Co204 2.140 1_655 S
N218 C221 1.346 1_655 S
N218 C222 1.345 . S
C219 C220 1.387 1_655 S
C219 C223 1.391 . S
C220 C219 1.387 1_455 S
C220 C221 1.369 . S
C220 H229 0.929 . S
C221 N218 1.346 1_455 S
C221 C220 1.369 . S
C221 H224 0.928 . S
C222 N218 1.345 . S
C222 C223 1.371 . S
C222 H225 0.931 . S
C223 C219 1.391 . S
C223 C222 1.371 . S
C223 H230 0.930 . S
H224 C221 0.928 . S
H225 C222 0.931 . S
H226 C202 0.930 . S
H227 C199 0.930 . S
H228 C208 0.930 . S
H229 C220 0.929 . S
H230 C223 0.930 . S
C231 C232 1.351 . S
C231 N234 1.368 . S
C231 H236 0.931 . S
C232 C231 1.351 . S
C232 N233 1.373 . S
C232 H260 0.930 . S
N233 C232 1.373 . S
N233 C235 1.340 . S
N234 C231 1.368 . S
N234 C235 1.321 . S
N234 Co237 2.135 . S
C235 N233 1.340 . S
C235 N234 1.321 . S
C235 H259 0.930 . S
H236 C231 0.931 . S
Co237 N234 2.135 . S
Co237 N240 2.121 . S
Co237 O245 2.055 . S
Co237 O248 2.039 . S
Co237 N251 2.140 . S
C238 O239 1.227 . S
C238 O248 1.265 . S
O239 C238 1.227 . S
N240 Co237 2.121 . S
N240 C242 1.375 . S
N240 C243 1.313 . S
C241 C242 1.338 . S
C241 N244 1.377 . S
C241 H261 0.930 . S
C242 N240 1.375 . S
C242 C241 1.338 . S
C242 H246 0.931 . S
C243 N240 1.313 . S
C243 N244 1.344 . S
C243 H247 0.930 . S
N244 C241 1.377 . S
N244 C243 1.344 . S
O245 Co237 2.055 . S
O245 C249 1.253 . S
H246 C242 0.931 . S
H247 C243 0.930 . S
O248 Co237 2.039 . S
O248 C238 1.265 . S
C249 O245 1.253 . S
C249 O250 1.227 . S
O250 C249 1.227 . S
N251 Co237 2.140 . S
N251 C254 1.346 . S
N251 C255 1.345 . S
C252 C253 1.387 . S
C252 C256 1.391 . S
C253 C252 1.387 . S
C253 C254 1.369 . S
C253 H262 0.929 . S
C254 N251 1.346 . S
C254 C253 1.369 . S
C254 H257 0.928 . S
C255 N251 1.345 . S
C255 C256 1.371 . S
C255 H258 0.931 . S
C256 C252 1.391 . S
C256 C255 1.371 . S
C256 H263 0.930 . S
H257 C254 0.928 . S
H258 C255 0.931 . S
H259 C235 0.930 . S
H260 C232 0.930 . S
H261 C241 0.930 . S
H262 C253 0.929 . S
H263 C256 0.930 . S
C264 C265 1.351 . S
C264 N267 1.368 . S
C264 H269 0.931 . S
C265 C264 1.351 . S
C265 N266 1.373 . S
C265 H293 0.930 . S
N266 C265 1.373 . S
N266 C268 1.340 . S
N267 C264 1.368 . S
N267 C268 1.321 . S
N267 Co270 2.135 . S
C268 N266 1.340 . S
C268 N267 1.321 . S
C268 H292 0.930 . S
H269 C264 0.931 . S
Co270 N267 2.135 . S
Co270 N273 2.121 1_655 S
Co270 O278 2.055 . S
Co270 O281 2.039 . S
Co270 N284 2.140 1_655 S
C271 O272 1.227 1_556 S
C271 O281 1.265 . S
O272 C271 1.227 1_554 S
N273 Co270 2.121 1_455 S
N273 C275 1.375 . S
N273 C276 1.313 . S
C274 C275 1.338 . S
C274 N277 1.377 . S
C274 H294 0.930 . S
C275 N273 1.375 . S
C275 C274 1.338 . S
C275 H279 0.931 . S
C276 N273 1.313 . S
C276 N277 1.344 . S
C276 H280 0.930 . S
N277 C274 1.377 . S
N277 C276 1.344 . S
O278 Co270 2.055 . S
O278 C282 1.250 1_655 S
H279 C275 0.931 . S
H280 C276 0.930 . S
O281 Co270 2.039 . S
O281 C271 1.265 . S
C282 O278 1.250 1_455 S
C282 O283 1.227 . S
O283 C282 1.227 . S
N284 Co270 2.140 1_455 S
N284 C287 1.346 1_455 S
N284 C288 1.345 . S
C285 C286 1.387 1_455 S
C285 C289 1.391 . S
C286 C285 1.387 1_655 S
C286 C287 1.369 . S
C286 H295 0.929 . S
C287 N284 1.346 1_655 S
C287 C286 1.369 . S
C287 H290 0.928 . S
C288 N284 1.345 . S
C288 C289 1.371 . S
C288 H291 0.931 . S
C289 C285 1.391 . S
C289 C288 1.371 . S
C289 H296 0.930 . S
H290 C287 0.928 . S
H291 C288 0.931 . S
H292 C268 0.930 . S
H293 C265 0.930 . S
H294 C274 0.930 . S
H295 C286 0.929 . S
H296 C289 0.930 . S
C297 C298 1.351 . S
C297 N300 1.368 . S
C297 H302 0.931 . S
C298 C297 1.351 . S
C298 N299 1.373 . S
C298 H326 0.930 . S
N299 C298 1.373 . S
N299 C301 1.340 . S
N300 C297 1.368 . S
N300 C301 1.321 . S
N300 Co303 2.135 . S
C301 N299 1.340 . S
C301 N300 1.321 . S
C301 H325 0.930 . S
H302 C297 0.931 . S
Co303 N300 2.135 . S
Co303 N306 2.121 . S
Co303 O311 2.055 . S
Co303 O314 2.039 . S
Co303 N317 2.140 . S
C304 O305 1.227 1_556 S
C304 O314 1.265 . S
O305 C304 1.227 1_554 S
N306 Co303 2.121 . S
N306 C308 1.375 . S
N306 C309 1.313 . S
C307 C308 1.338 . S
C307 N310 1.377 . S
C307 H327 0.930 . S
C308 N306 1.375 . S
C308 C307 1.338 . S
C308 H312 0.931 . S
C309 N306 1.313 . S
C309 N310 1.344 . S
C309 H313 0.930 . S
N310 C307 1.377 . S
N310 C309 1.344 . S
O311 Co303 2.055 . S
O311 C315 1.253 . S
H312 C308 0.931 . S
H313 C309 0.930 . S
O314 Co303 2.039 . S
O314 C304 1.265 . S
C315 O311 1.253 . S
C315 O316 1.227 . S
O316 C315 1.227 . S
N317 Co303 2.140 . S
N317 C320 1.346 . S
N317 C321 1.345 . S
C318 C319 1.387 . S
C318 C322 1.391 . S
C319 C318 1.387 . S
C319 C320 1.369 . S
C319 H328 0.929 . S
C320 N317 1.346 . S
C320 C319 1.369 . S
C320 H323 0.928 . S
C321 N317 1.345 . S
C321 C322 1.371 . S
C321 H324 0.931 . S
C322 C318 1.391 . S
C322 C321 1.371 . S
C322 H329 0.930 . S
H323 C320 0.928 . S
H324 C321 0.931 . S
H325 C301 0.930 . S
H326 C298 0.930 . S
H327 C307 0.930 . S
H328 C319 0.929 . S
H329 C322 0.930 . S
C330 C331 1.351 . S
C330 N333 1.368 . S
C330 H335 0.931 . S
C331 C330 1.351 . S
C331 N332 1.373 . S
C331 H359 0.930 . S
N332 C331 1.373 . S
N332 C334 1.340 . S
N333 C330 1.368 . S
N333 C334 1.321 . S
N333 Co336 2.135 . S
C334 N332 1.340 . S
C334 N333 1.321 . S
C334 H358 0.930 . S
H335 C330 0.931 . S
Co336 N333 2.135 . S
Co336 N339 2.121 1_655 S
Co336 O344 2.055 . S
Co336 O347 2.039 . S
Co336 N350 2.140 1_655 S
C337 O338 1.227 . S
C337 O347 1.265 . S
O338 C337 1.227 . S
N339 Co336 2.121 1_455 S
N339 C341 1.375 . S
N339 C342 1.313 . S
C340 C341 1.338 . S
C340 N343 1.377 . S
C340 H360 0.930 . S
C341 N339 1.375 . S
C341 C340 1.338 . S
C341 H345 0.931 . S
C342 N339 1.313 . S
C342 N343 1.344 . S
C342 H346 0.930 . S
N343 C340 1.377 . S
N343 C342 1.344 . S
O344 Co336 2.055 . S
O344 C348 1.250 1_655 S
H345 C341 0.931 . S
H346 C342 0.930 . S
O347 Co336 2.039 . S
O347 C337 1.265 . S
C348 O344 1.250 1_455 S
C348 O349 1.227 . S
O349 C348 1.227 . S
N350 Co336 2.140 1_455 S
N350 C353 1.346 1_455 S
N350 C354 1.345 . S
C351 C352 1.387 1_455 S
C351 C355 1.391 . S
C352 C351 1.387 1_655 S
C352 C353 1.369 . S
C352 H361 0.929 . S
C353 N350 1.346 1_655 S
C353 C352 1.369 . S
C353 H356 0.928 . S
C354 N350 1.345 . S
C354 C355 1.371 . S
C354 H357 0.931 . S
C355 C351 1.391 . S
C355 C354 1.371 . S
C355 H362 0.930 . S
H356 C353 0.928 . S
H357 C354 0.931 . S
H358 C334 0.930 . S
H359 C331 0.930 . S
H360 C340 0.930 . S
H361 C352 0.929 . S
H362 C355 0.930 . S
C363 C364 1.351 . S
C363 N366 1.368 . S
C363 H368 0.931 . S
C364 C363 1.351 . S
C364 N365 1.373 . S
C364 H392 0.930 . S
N365 C364 1.373 . S
N365 C367 1.340 . S
N366 C363 1.368 . S
N366 C367 1.321 . S
N366 Co369 2.135 . S
C367 N365 1.340 . S
C367 N366 1.321 . S
C367 H391 0.930 . S
H368 C363 0.931 . S
Co369 N366 2.135 . S
Co369 N372 2.121 . S
Co369 O377 2.055 . S
Co369 O380 2.039 . S
Co369 N383 2.140 . S
C370 O371 1.227 . S
C370 O380 1.265 . S
O371 C370 1.227 . S
N372 Co369 2.121 . S
N372 C374 1.375 . S
N372 C375 1.313 . S
C373 C374 1.338 . S
C373 N376 1.377 . S
C373 H393 0.930 . S
C374 N372 1.375 . S
C374 C373 1.338 . S
C374 H378 0.931 . S
C375 N372 1.313 . S
C375 N376 1.344 . S
C375 H379 0.930 . S
N376 C373 1.377 . S
N376 C375 1.344 . S
O377 Co369 2.055 . S
O377 C381 1.253 . S
H378 C374 0.931 . S
H379 C375 0.930 . S
O380 Co369 2.039 . S
O380 C370 1.265 . S
C381 O377 1.253 . S
C381 O382 1.227 . S
O382 C381 1.227 . S
N383 Co369 2.140 . S
N383 C386 1.346 . S
N383 C387 1.345 . S
C384 C385 1.387 . S
C384 C388 1.391 . S
C385 C384 1.387 . S
C385 C386 1.369 . S
C385 H394 0.929 . S
C386 N383 1.346 . S
C386 C385 1.369 . S
C386 H389 0.928 . S
C387 N383 1.345 . S
C387 C388 1.371 . S
C387 H390 0.931 . S
C388 C384 1.391 . S
C388 C387 1.371 . S
C388 H395 0.930 . S
H389 C386 0.928 . S
H390 C387 0.931 . S
H391 C367 0.930 . S
H392 C364 0.930 . S
H393 C373 0.930 . S
H394 C385 0.929 . S
H395 C388 0.930 . S
C396 C397 1.351 . S
C396 N399 1.368 . S
C396 H401 0.931 . S
C397 C396 1.351 . S
C397 N398 1.373 . S
C397 H425 0.930 . S
N398 C397 1.373 . S
N398 C400 1.340 . S
N399 C396 1.368 . S
N399 C400 1.321 . S
N399 Co402 2.135 . S
C400 N398 1.340 . S
C400 N399 1.321 . S
C400 H424 0.930 . S
H401 C396 0.931 . S
Co402 N399 2.135 . S
Co402 N405 2.121 1_455 S
Co402 O410 2.055 . S
Co402 O413 2.039 . S
Co402 N416 2.140 1_455 S
C403 O404 1.227 1_554 S
C403 O413 1.265 . S
O404 C403 1.227 1_556 S
N405 Co402 2.121 1_655 S
N405 C407 1.375 . S
N405 C408 1.313 . S
C406 C407 1.338 . S
C406 N409 1.377 . S
C406 H426 0.930 . S
C407 N405 1.375 . S
C407 C406 1.338 . S
C407 H411 0.931 . S
C408 N405 1.313 . S
C408 N409 1.344 . S
C408 H412 0.930 . S
N409 C406 1.377 . S
N409 C408 1.344 . S
O410 Co402 2.055 . S
O410 C414 1.250 1_455 S
H411 C407 0.931 . S
H412 C408 0.930 . S
O413 Co402 2.039 . S
O413 C403 1.265 . S
C414 O410 1.250 1_655 S
C414 O415 1.227 . S
O415 C414 1.227 . S
N416 Co402 2.140 1_655 S
N416 C419 1.346 1_655 S
N416 C420 1.345 . S
C417 C418 1.387 1_655 S
C417 C421 1.391 . S
C418 C417 1.387 1_455 S
C418 C419 1.369 . S
C418 H427 0.929 . S
C419 N416 1.346 1_455 S
C419 C418 1.369 . S
C419 H422 0.928 . S
C420 N416 1.345 . S
C420 C421 1.371 . S
C420 H423 0.931 . S
C421 C417 1.391 . S
C421 C420 1.371 . S
C421 H428 0.930 . S
H422 C419 0.928 . S
H423 C420 0.931 . S
H424 C400 0.930 . S
H425 C397 0.930 . S
H426 C406 0.930 . S
H427 C418 0.929 . S
H428 C421 0.930 . S
C429 C430 1.351 . S
C429 N432 1.368 . S
C429 H434 0.931 . S
C430 C429 1.351 . S
C430 N431 1.373 . S
C430 H458 0.930 . S
N431 C430 1.373 . S
N431 C433 1.340 . S
N432 C429 1.368 . S
N432 C433 1.321 . S
N432 Co435 2.135 . S
C433 N431 1.340 . S
C433 N432 1.321 . S
C433 H457 0.930 . S
H434 C429 0.931 . S
Co435 N432 2.135 . S
Co435 N438 2.121 . S
Co435 O443 2.055 . S
Co435 O446 2.039 . S
Co435 N449 2.140 . S
C436 O437 1.227 1_554 S
C436 O446 1.265 . S
O437 C436 1.227 1_556 S
N438 Co435 2.121 . S
N438 C440 1.375 . S
N438 C441 1.313 . S
C439 C440 1.338 . S
C439 N442 1.377 . S
C439 H459 0.930 . S
C440 N438 1.375 . S
C440 C439 1.338 . S
C440 H444 0.931 . S
C441 N438 1.313 . S
C441 N442 1.344 . S
C441 H445 0.930 . S
N442 C439 1.377 . S
N442 C441 1.344 . S
O443 Co435 2.055 . S
O443 C447 1.253 . S
H444 C440 0.931 . S
H445 C441 0.930 . S
O446 Co435 2.039 . S
O446 C436 1.265 . S
C447 O443 1.253 . S
C447 O448 1.227 . S
O448 C447 1.227 . S
N449 Co435 2.140 . S
N449 C452 1.346 . S
N449 C453 1.345 . S
C450 C451 1.387 . S
C450 C454 1.391 . S
C451 C450 1.387 . S
C451 C452 1.369 . S
C451 H460 0.929 . S
C452 N449 1.346 . S
C452 C451 1.369 . S
C452 H455 0.928 . S
C453 N449 1.345 . S
C453 C454 1.371 . S
C453 H456 0.931 . S
C454 C450 1.391 . S
C454 C453 1.371 . S
C454 H461 0.930 . S
H455 C452 0.928 . S
H456 C453 0.931 . S
H457 C433 0.930 . S
H458 C430 0.930 . S
H459 C439 0.930 . S
H460 C451 0.929 . S
H461 C454 0.930 . S
C462 C463 1.351 . S
C462 N465 1.368 . S
C462 H467 0.931 . S
C463 C462 1.351 . S
C463 N464 1.373 . S
C463 H491 0.930 . S
N464 C463 1.373 . S
N464 C466 1.340 . S
N465 C462 1.368 . S
N465 C466 1.321 . S
N465 Co468 2.135 . S
C466 N464 1.340 . S
C466 N465 1.321 . S
C466 H490 0.930 . S
H467 C462 0.931 . S
Co468 N465 2.135 . S
Co468 N471 2.121 1_455 S
Co468 O476 2.055 . S
Co468 O479 2.039 . S
Co468 N482 2.140 1_455 S
C469 O470 1.227 . S
C469 O479 1.265 . S
O470 C469 1.227 . S
N471 Co468 2.121 1_655 S
N471 C473 1.375 . S
N471 C474 1.313 . S
C472 C473 1.338 . S
C472 N475 1.377 . S
C472 H492 0.930 . S
C473 N471 1.375 . S
C473 C472 1.338 . S
C473 H477 0.931 . S
C474 N471 1.313 . S
C474 N475 1.344 . S
C474 H478 0.930 . S
N475 C472 1.377 . S
N475 C474 1.344 . S
O476 Co468 2.055 . S
O476 C480 1.250 1_455 S
H477 C473 0.931 . S
H478 C474 0.930 . S
O479 Co468 2.039 . S
O479 C469 1.265 . S
C480 O476 1.250 1_655 S
C480 O481 1.227 . S
O481 C480 1.227 . S
N482 Co468 2.140 1_655 S
N482 C485 1.346 1_655 S
N482 C486 1.345 . S
C483 C484 1.387 1_655 S
C483 C487 1.391 . S
C484 C483 1.387 1_455 S
C484 C485 1.369 . S
C484 H493 0.929 . S
C485 N482 1.346 1_455 S
C485 C484 1.369 . S
C485 H488 0.928 . S
C486 N482 1.345 . S
C486 C487 1.371 . S
C486 H489 0.931 . S
C487 C483 1.391 . S
C487 C486 1.371 . S
C487 H494 0.930 . S
H488 C485 0.928 . S
H489 C486 0.931 . S
H490 C466 0.930 . S
H491 C463 0.930 . S
H492 C472 0.930 . S
H493 C484 0.929 . S
H494 C487 0.930 . S
C495 C496 1.351 . S
C495 N498 1.368 . S
C495 H500 0.931 . S
C496 C495 1.351 . S
C496 N497 1.373 . S
C496 H524 0.930 . S
N497 C496 1.373 . S
N497 C499 1.340 . S
N498 C495 1.368 . S
N498 C499 1.321 . S
N498 Co501 2.135 . S
C499 N497 1.340 . S
C499 N498 1.321 . S
C499 H523 0.930 . S
H500 C495 0.931 . S
Co501 N498 2.135 . S
Co501 N504 2.121 . S
Co501 O509 2.055 . S
Co501 O512 2.039 . S
Co501 N515 2.140 . S
C502 O503 1.227 . S
C502 O512 1.265 . S
O503 C502 1.227 . S
N504 Co501 2.121 . S
N504 C506 1.375 . S
N504 C507 1.313 . S
C505 C506 1.338 . S
C505 N508 1.377 . S
C505 H525 0.930 . S
C506 N504 1.375 . S
C506 C505 1.338 . S
C506 H510 0.931 . S
C507 N504 1.313 . S
C507 N508 1.344 . S
C507 H511 0.930 . S
N508 C505 1.377 . S
N508 C507 1.344 . S
O509 Co501 2.055 . S
O509 C513 1.253 . S
H510 C506 0.931 . S
H511 C507 0.930 . S
O512 Co501 2.039 . S
O512 C502 1.265 . S
C513 O509 1.253 . S
C513 O514 1.227 . S
O514 C513 1.227 . S
N515 Co501 2.140 . S
N515 C518 1.346 . S
N515 C519 1.345 . S
C516 C517 1.387 . S
C516 C520 1.391 . S
C517 C516 1.387 . S
C517 C518 1.369 . S
C517 H526 0.929 . S
C518 N515 1.346 . S
C518 C517 1.369 . S
C518 H521 0.928 . S
C519 N515 1.345 . S
C519 C520 1.371 . S
C519 H522 0.931 . S
C520 C516 1.391 . S
C520 C519 1.371 . S
C520 H527 0.930 . S
H521 C518 0.928 . S
H522 C519 0.931 . S
H523 C499 0.930 . S
H524 C496 0.930 . S
H525 C505 0.930 . S
H526 C517 0.929 . S
H527 C520 0.930 . S
C528 C529 1.351 . S
C528 N531 1.368 . S
C528 H533 0.931 . S
C529 C528 1.351 . S
C529 N530 1.373 . S
C529 H557 0.930 . S
N530 C529 1.373 . S
N530 C532 1.340 . S
N531 C528 1.368 . S
N531 C532 1.321 . S
N531 Co534 2.135 . S
C532 N530 1.340 . S
C532 N531 1.321 . S
C532 H556 0.930 . S
H533 C528 0.931 . S
Co534 N531 2.135 . S
Co534 N537 2.121 . S
Co534 O542 2.055 . S
Co534 O545 2.039 . S
Co534 N548 2.140 . S
C535 O536 1.227 1_556 S
C535 O545 1.265 . S
O536 C535 1.227 1_554 S
N537 Co534 2.121 . S
N537 C539 1.375 . S
N537 C540 1.313 . S
C538 C539 1.338 . S
C538 N541 1.377 . S
C538 H558 0.930 . S
C539 N537 1.375 . S
C539 C538 1.338 . S
C539 H543 0.931 . S
C540 N537 1.313 . S
C540 N541 1.344 . S
C540 H544 0.930 . S
N541 C538 1.377 . S
N541 C540 1.344 . S
O542 Co534 2.055 . S
O542 C546 1.253 . S
H543 C539 0.931 . S
H544 C540 0.930 . S
O545 Co534 2.039 . S
O545 C535 1.265 . S
C546 O542 1.253 . S
C546 O547 1.227 . S
O547 C546 1.227 . S
N548 Co534 2.140 . S
N548 C551 1.346 . S
N548 C552 1.345 . S
C549 C550 1.387 . S
C549 C553 1.391 . S
C550 C549 1.387 . S
C550 C551 1.369 . S
C550 H559 0.929 . S
C551 N548 1.346 . S
C551 C550 1.369 . S
C551 H554 0.928 . S
C552 N548 1.345 . S
C552 C553 1.371 . S
C552 H555 0.931 . S
C553 C549 1.391 . S
C553 C552 1.371 . S
C553 H560 0.930 . S
H554 C551 0.928 . S
H555 C552 0.931 . S
H556 C532 0.930 . S
H557 C529 0.930 . S
H558 C538 0.930 . S
H559 C550 0.929 . S
H560 C553 0.930 . S
C561 C562 1.351 . S
C561 N564 1.368 . S
C561 H566 0.931 . S
C562 C561 1.351 . S
C562 N563 1.373 . S
C562 H590 0.930 . S
N563 C562 1.373 . S
N563 C565 1.340 . S
N564 C561 1.368 . S
N564 C565 1.321 . S
N564 Co567 2.135 . S
C565 N563 1.340 . S
C565 N564 1.321 . S
C565 H589 0.930 . S
H566 C561 0.931 . S
Co567 N564 2.135 . S
Co567 N570 2.121 . S
Co567 O575 2.055 . S
Co567 O578 2.039 . S
Co567 N581 2.140 . S
C568 O569 1.227 1_556 S
C568 O578 1.265 . S
O569 C568 1.227 1_554 S
N570 Co567 2.121 . S
N570 C572 1.375 . S
N570 C573 1.313 . S
C571 C572 1.338 . S
C571 N574 1.377 . S
C571 H591 0.930 . S
C572 N570 1.375 . S
C572 C571 1.338 . S
C572 H576 0.931 . S
C573 N570 1.313 . S
C573 N574 1.344 . S
C573 H577 0.930 . S
N574 C571 1.377 . S
N574 C573 1.344 . S
O575 Co567 2.055 . S
O575 C579 1.253 . S
H576 C572 0.931 . S
H577 C573 0.930 . S
O578 Co567 2.039 . S
O578 C568 1.265 . S
C579 O575 1.253 . S
C579 O580 1.227 . S
O580 C579 1.227 . S
N581 Co567 2.140 . S
N581 C584 1.346 . S
N581 C585 1.345 . S
C582 C583 1.387 . S
C582 C586 1.391 . S
C583 C582 1.387 . S
C583 C584 1.369 . S
C583 H592 0.929 . S
C584 N581 1.346 . S
C584 C583 1.369 . S
C584 H587 0.928 . S
C585 N581 1.345 . S
C585 C586 1.371 . S
C585 H588 0.931 . S
C586 C582 1.391 . S
C586 C585 1.371 . S
C586 H593 0.930 . S
H587 C584 0.928 . S
H588 C585 0.931 . S
H589 C565 0.930 . S
H590 C562 0.930 . S
H591 C571 0.930 . S
H592 C583 0.929 . S
H593 C586 0.930 . S
C594 C595 1.351 . S
C594 N597 1.368 . S
C594 H599 0.931 . S
C595 C594 1.351 . S
C595 N596 1.373 . S
C595 H623 0.930 . S
N596 C595 1.373 . S
N596 C598 1.340 . S
N597 C594 1.368 . S
N597 C598 1.321 . S
N597 Co600 2.135 . S
C598 N596 1.340 . S
C598 N597 1.321 . S
C598 H622 0.930 . S
H599 C594 0.931 . S
Co600 N597 2.135 . S
Co600 N603 2.121 . S
Co600 O608 2.055 . S
Co600 O611 2.039 . S
Co600 N614 2.140 . S
C601 O602 1.227 . S
C601 O611 1.265 . S
O602 C601 1.227 . S
N603 Co600 2.121 . S
N603 C605 1.375 . S
N603 C606 1.313 . S
C604 C605 1.338 . S
C604 N607 1.377 . S
C604 H624 0.930 . S
C605 N603 1.375 . S
C605 C604 1.338 . S
C605 H609 0.931 . S
C606 N603 1.313 . S
C606 N607 1.344 . S
C606 H610 0.930 . S
N607 C604 1.377 . S
N607 C606 1.344 . S
O608 Co600 2.055 . S
O608 C612 1.253 . S
H609 C605 0.931 . S
H610 C606 0.930 . S
O611 Co600 2.039 . S
O611 C601 1.265 . S
C612 O608 1.253 . S
C612 O613 1.227 . S
O613 C612 1.227 . S
N614 Co600 2.140 . S
N614 C617 1.346 . S
N614 C618 1.345 . S
C615 C616 1.387 . S
C615 C619 1.391 . S
C616 C615 1.387 . S
C616 C617 1.369 . S
C616 H625 0.929 . S
C617 N614 1.346 . S
C617 C616 1.369 . S
C617 H620 0.928 . S
C618 N614 1.345 . S
C618 C619 1.371 . S
C618 H621 0.931 . S
C619 C615 1.391 . S
C619 C618 1.371 . S
C619 H626 0.930 . S
H620 C617 0.928 . S
H621 C618 0.931 . S
H622 C598 0.930 . S
H623 C595 0.930 . S
H624 C604 0.930 . S
H625 C616 0.929 . S
H626 C619 0.930 . S
C627 C628 1.351 . S
C627 N630 1.368 . S
C627 H632 0.931 . S
C628 C627 1.351 . S
C628 N629 1.373 . S
C628 H656 0.930 . S
N629 C628 1.373 . S
N629 C631 1.340 . S
N630 C627 1.368 . S
N630 C631 1.321 . S
N630 Co633 2.135 . S
C631 N629 1.340 . S
C631 N630 1.321 . S
C631 H655 0.930 . S
H632 C627 0.931 . S
Co633 N630 2.135 . S
Co633 N636 2.121 . S
Co633 O641 2.055 . S
Co633 O644 2.039 . S
Co633 N647 2.140 . S
C634 O635 1.227 . S
C634 O644 1.265 . S
O635 C634 1.227 . S
N636 Co633 2.121 . S
N636 C638 1.375 . S
N636 C639 1.313 . S
C637 C638 1.338 . S
C637 N640 1.377 . S
C637 H657 0.930 . S
C638 N636 1.375 . S
C638 C637 1.338 . S
C638 H642 0.931 . S
C639 N636 1.313 . S
C639 N640 1.344 . S
C639 H643 0.930 . S
N640 C637 1.377 . S
N640 C639 1.344 . S
O641 Co633 2.055 . S
O641 C645 1.253 . S
H642 C638 0.931 . S
H643 C639 0.930 . S
O644 Co633 2.039 . S
O644 C634 1.265 . S
C645 O641 1.253 . S
C645 O646 1.227 . S
O646 C645 1.227 . S
N647 Co633 2.140 . S
N647 C650 1.346 . S
N647 C651 1.345 . S
C648 C649 1.387 . S
C648 C652 1.391 . S
C649 C648 1.387 . S
C649 C650 1.369 . S
C649 H658 0.929 . S
C650 N647 1.346 . S
C650 C649 1.369 . S
C650 H653 0.928 . S
C651 N647 1.345 . S
C651 C652 1.371 . S
C651 H654 0.931 . S
C652 C648 1.391 . S
C652 C651 1.371 . S
C652 H659 0.930 . S
H653 C650 0.928 . S
H654 C651 0.931 . S
H655 C631 0.930 . S
H656 C628 0.930 . S
H657 C637 0.930 . S
H658 C649 0.929 . S
H659 C652 0.930 . S
C660 C661 1.351 . S
C660 N663 1.368 . S
C660 H665 0.931 . S
C661 C660 1.351 . S
C661 N662 1.373 . S
C661 H689 0.930 . S
N662 C661 1.373 . S
N662 C664 1.340 . S
N663 C660 1.368 . S
N663 C664 1.321 . S
N663 Co666 2.135 . S
C664 N662 1.340 . S
C664 N663 1.321 . S
C664 H688 0.930 . S
H665 C660 0.931 . S
Co666 N663 2.135 . S
Co666 N669 2.121 . S
Co666 O674 2.055 . S
Co666 O677 2.039 . S
Co666 N680 2.140 . S
C667 O668 1.227 1_554 S
C667 O677 1.265 . S
O668 C667 1.227 1_556 S
N669 Co666 2.121 . S
N669 C671 1.375 . S
N669 C672 1.313 . S
C670 C671 1.338 . S
C670 N673 1.377 . S
C670 H690 0.930 . S
C671 N669 1.375 . S
C671 C670 1.338 . S
C671 H675 0.931 . S
C672 N669 1.313 . S
C672 N673 1.344 . S
C672 H676 0.930 . S
N673 C670 1.377 . S
N673 C672 1.344 . S
O674 Co666 2.055 . S
O674 C678 1.253 . S
H675 C671 0.931 . S
H676 C672 0.930 . S
O677 Co666 2.039 . S
O677 C667 1.265 . S
C678 O674 1.253 . S
C678 O679 1.227 . S
O679 C678 1.227 . S
N680 Co666 2.140 . S
N680 C683 1.346 . S
N680 C684 1.345 . S
C681 C682 1.387 . S
C681 C685 1.391 . S
C682 C681 1.387 . S
C682 C683 1.369 . S
C682 H691 0.929 . S
C683 N680 1.346 . S
C683 C682 1.369 . S
C683 H686 0.928 . S
C684 N680 1.345 . S
C684 C685 1.371 . S
C684 H687 0.931 . S
C685 C681 1.391 . S
C685 C684 1.371 . S
C685 H692 0.930 . S
H686 C683 0.928 . S
H687 C684 0.931 . S
H688 C664 0.930 . S
H689 C661 0.930 . S
H690 C670 0.930 . S
H691 C682 0.929 . S
H692 C685 0.930 . S
C693 C694 1.351 . S
C693 N696 1.368 . S
C693 H698 0.931 . S
C694 C693 1.351 . S
C694 N695 1.373 . S
C694 H722 0.930 . S
N695 C694 1.373 . S
N695 C697 1.340 . S
N696 C693 1.368 . S
N696 C697 1.321 . S
N696 Co699 2.135 . S
C697 N695 1.340 . S
C697 N696 1.321 . S
C697 H721 0.930 . S
H698 C693 0.931 . S
Co699 N696 2.135 . S
Co699 N702 2.121 . S
Co699 O707 2.055 . S
Co699 O710 2.039 . S
Co699 N713 2.140 . S
C700 O701 1.227 1_554 S
C700 O710 1.265 . S
O701 C700 1.227 1_556 S
N702 Co699 2.121 . S
N702 C704 1.375 . S
N702 C705 1.313 . S
C703 C704 1.338 . S
C703 N706 1.377 . S
C703 H723 0.930 . S
C704 N702 1.375 . S
C704 C703 1.338 . S
C704 H708 0.931 . S
C705 N702 1.313 . S
C705 N706 1.344 . S
C705 H709 0.930 . S
N706 C703 1.377 . S
N706 C705 1.344 . S
O707 Co699 2.055 . S
O707 C711 1.253 . S
H708 C704 0.931 . S
H709 C705 0.930 . S
O710 Co699 2.039 . S
O710 C700 1.265 . S
C711 O707 1.253 . S
C711 O712 1.227 . S
O712 C711 1.227 . S
N713 Co699 2.140 . S
N713 C716 1.346 . S
N713 C717 1.345 . S
C714 C715 1.387 . S
C714 C718 1.391 . S
C715 C714 1.387 . S
C715 C716 1.369 . S
C715 H724 0.929 . S
C716 N713 1.346 . S
C716 C715 1.369 . S
C716 H719 0.928 . S
C717 N713 1.345 . S
C717 C718 1.371 . S
C717 H720 0.931 . S
C718 C714 1.391 . S
C718 C717 1.371 . S
C718 H725 0.930 . S
H719 C716 0.928 . S
H720 C717 0.931 . S
H721 C697 0.930 . S
H722 C694 0.930 . S
H723 C703 0.930 . S
H724 C715 0.929 . S
H725 C718 0.930 . S
C726 C727 1.351 . S
C726 N729 1.368 . S
C726 H731 0.931 . S
C727 C726 1.351 . S
C727 N728 1.373 . S
C727 H755 0.930 . S
N728 C727 1.373 . S
N728 C730 1.340 . S
N729 C726 1.368 . S
N729 C730 1.321 . S
N729 Co732 2.135 . S
C730 N728 1.340 . S
C730 N729 1.321 . S
C730 H754 0.930 . S
H731 C726 0.931 . S
Co732 N729 2.135 . S
Co732 N735 2.121 . S
Co732 O740 2.055 . S
Co732 O743 2.039 . S
Co732 N746 2.140 . S
C733 O734 1.227 . S
C733 O743 1.265 . S
O734 C733 1.227 . S
N735 Co732 2.121 . S
N735 C737 1.375 . S
N735 C738 1.313 . S
C736 C737 1.338 . S
C736 N739 1.377 . S
C736 H756 0.930 . S
C737 N735 1.375 . S
C737 C736 1.338 . S
C737 H741 0.931 . S
C738 N735 1.313 . S
C738 N739 1.344 . S
C738 H742 0.930 . S
N739 C736 1.377 . S
N739 C738 1.344 . S
O740 Co732 2.055 . S
O740 C744 1.253 . S
H741 C737 0.931 . S
H742 C738 0.930 . S
O743 Co732 2.039 . S
O743 C733 1.265 . S
C744 O740 1.253 . S
C744 O745 1.227 . S
O745 C744 1.227 . S
N746 Co732 2.140 . S
N746 C749 1.346 . S
N746 C750 1.345 . S
C747 C748 1.387 . S
C747 C751 1.391 . S
C748 C747 1.387 . S
C748 C749 1.369 . S
C748 H757 0.929 . S
C749 N746 1.346 . S
C749 C748 1.369 . S
C749 H752 0.928 . S
C750 N746 1.345 . S
C750 C751 1.371 . S
C750 H753 0.931 . S
C751 C747 1.391 . S
C751 C750 1.371 . S
C751 H758 0.930 . S
H752 C749 0.928 . S
H753 C750 0.931 . S
H754 C730 0.930 . S
H755 C727 0.930 . S
H756 C736 0.930 . S
H757 C748 0.929 . S
H758 C751 0.930 . S
C759 C760 1.351 . S
C759 N762 1.368 . S
C759 H764 0.931 . S
C760 C759 1.351 . S
C760 N761 1.373 . S
C760 H788 0.930 . S
N761 C760 1.373 . S
N761 C763 1.340 . S
N762 C759 1.368 . S
N762 C763 1.321 . S
N762 Co765 2.135 . S
C763 N761 1.340 . S
C763 N762 1.321 . S
C763 H787 0.930 . S
H764 C759 0.931 . S
Co765 N762 2.135 . S
Co765 N768 2.121 . S
Co765 O773 2.055 . S
Co765 O776 2.039 . S
Co765 N779 2.140 . S
C766 O767 1.227 . S
C766 O776 1.265 . S
O767 C766 1.227 . S
N768 Co765 2.121 . S
N768 C770 1.375 . S
N768 C771 1.313 . S
C769 C770 1.338 . S
C769 N772 1.377 . S
C769 H789 0.930 . S
C770 N768 1.375 . S
C770 C769 1.338 . S
C770 H774 0.931 . S
C771 N768 1.313 . S
C771 N772 1.344 . S
C771 H775 0.930 . S
N772 C769 1.377 . S
N772 C771 1.344 . S
O773 Co765 2.055 . S
O773 C777 1.253 . S
H774 C770 0.931 . S
H775 C771 0.930 . S
O776 Co765 2.039 . S
O776 C766 1.265 . S
C777 O773 1.253 . S
C777 O778 1.227 . S
O778 C777 1.227 . S
N779 Co765 2.140 . S
N779 C782 1.346 . S
N779 C783 1.345 . S
C780 C781 1.387 . S
C780 C784 1.391 . S
C781 C780 1.387 . S
C781 C782 1.369 . S
C781 H790 0.929 . S
C782 N779 1.346 . S
C782 C781 1.369 . S
C782 H785 0.928 . S
C783 N779 1.345 . S
C783 C784 1.371 . S
C783 H786 0.931 . S
C784 C780 1.391 . S
C784 C783 1.371 . S
C784 H791 0.930 . S
H785 C782 0.928 . S
H786 C783 0.931 . S
H787 C763 0.930 . S
H788 C760 0.930 . S
H789 C769 0.930 . S
H790 C781 0.929 . S
H791 C784 0.930 . S
C792 C793 1.351 . S
C792 N795 1.368 . S
C792 H797 0.931 . S
C793 C792 1.351 . S
C793 N794 1.373 . S
C793 H821 0.930 . S
N794 C793 1.373 . S
N794 C796 1.340 . S
N795 C792 1.368 . S
N795 C796 1.321 . S
N795 Co798 2.135 . S
C796 N794 1.340 . S
C796 N795 1.321 . S
C796 H820 0.930 . S
H797 C792 0.931 . S
Co798 N795 2.135 . S
Co798 N801 2.121 . S
Co798 O806 2.055 . S
Co798 O809 2.039 . S
Co798 N812 2.140 . S
C799 O800 1.227 . S
C799 O809 1.265 . S
O800 C799 1.227 . S
N801 Co798 2.121 . S
N801 C803 1.375 . S
N801 C804 1.313 . S
C802 C803 1.338 . S
C802 N805 1.377 . S
C802 H822 0.930 . S
C803 N801 1.375 . S
C803 C802 1.338 . S
C803 H807 0.931 . S
C804 N801 1.313 . S
C804 N805 1.344 . S
C804 H808 0.930 . S
N805 C802 1.377 . S
N805 C804 1.344 . S
O806 Co798 2.055 . S
O806 C810 1.253 . S
H807 C803 0.931 . S
H808 C804 0.930 . S
O809 Co798 2.039 . S
O809 C799 1.265 . S
C810 O806 1.253 . S
C810 O811 1.227 . S
O811 C810 1.227 . S
N812 Co798 2.140 . S
N812 C815 1.346 . S
N812 C816 1.345 . S
C813 C814 1.387 . S
C813 C817 1.391 . S
C814 C813 1.387 . S
C814 C815 1.369 . S
C814 H823 0.929 . S
C815 N812 1.346 . S
C815 C814 1.369 . S
C815 H818 0.928 . S
C816 N812 1.345 . S
C816 C817 1.371 . S
C816 H819 0.931 . S
C817 C813 1.391 . S
C817 C816 1.371 . S
C817 H824 0.930 . S
H818 C815 0.928 . S
H819 C816 0.931 . S
H820 C796 0.930 . S
H821 C793 0.930 . S
H822 C802 0.930 . S
H823 C814 0.929 . S
H824 C817 0.930 . S
C825 C826 1.351 . S
C825 N828 1.368 . S
C825 H830 0.931 . S
C826 C825 1.351 . S
C826 N827 1.373 . S
C826 H854 0.930 . S
N827 C826 1.373 . S
N827 C829 1.340 . S
N828 C825 1.368 . S
N828 C829 1.321 . S
N828 Co831 2.135 . S
C829 N827 1.340 . S
C829 N828 1.321 . S
C829 H853 0.930 . S
H830 C825 0.931 . S
Co831 N828 2.135 . S
Co831 N834 2.121 . S
Co831 O839 2.055 . S
Co831 O842 2.039 . S
Co831 N845 2.140 . S
C832 O833 1.227 . S
C832 O842 1.265 . S
O833 C832 1.227 . S
N834 Co831 2.121 . S
N834 C836 1.375 . S
N834 C837 1.313 . S
C835 C836 1.338 . S
C835 N838 1.377 . S
C835 H855 0.930 . S
C836 N834 1.375 . S
C836 C835 1.338 . S
C836 H840 0.931 . S
C837 N834 1.313 . S
C837 N838 1.344 . S
C837 H841 0.930 . S
N838 C835 1.377 . S
N838 C837 1.344 . S
O839 Co831 2.055 . S
O839 C843 1.253 . S
H840 C836 0.931 . S
H841 C837 0.930 . S
O842 Co831 2.039 . S
O842 C832 1.265 . S
C843 O839 1.253 . S
C843 O844 1.227 . S
O844 C843 1.227 . S
N845 Co831 2.140 . S
N845 C848 1.346 . S
N845 C849 1.345 . S
C846 C847 1.387 . S
C846 C850 1.391 . S
C847 C846 1.387 . S
C847 C848 1.369 . S
C847 H856 0.929 . S
C848 N845 1.346 . S
C848 C847 1.369 . S
C848 H851 0.928 . S
C849 N845 1.345 . S
C849 C850 1.371 . S
C849 H852 0.931 . S
C850 C846 1.391 . S
C850 C849 1.371 . S
C850 H857 0.930 . S
H851 C848 0.928 . S
H852 C849 0.931 . S
H853 C829 0.930 . S
H854 C826 0.930 . S
H855 C835 0.930 . S
H856 C847 0.929 . S
H857 C850 0.930 . S
C858 C859 1.351 . S
C858 N861 1.368 . S
C858 H863 0.931 . S
C859 C858 1.351 . S
C859 N860 1.373 . S
C859 H887 0.930 . S
N860 C859 1.373 . S
N860 C862 1.340 . S
N861 C858 1.368 . S
N861 C862 1.321 . S
N861 Co864 2.135 . S
C862 N860 1.340 . S
C862 N861 1.321 . S
C862 H886 0.930 . S
H863 C858 0.931 . S
Co864 N861 2.135 . S
Co864 N867 2.121 . S
Co864 O872 2.055 . S
Co864 O875 2.039 . S
Co864 N878 2.140 . S
C865 O866 1.227 . S
C865 O875 1.265 . S
O866 C865 1.227 . S
N867 Co864 2.121 . S
N867 C869 1.375 . S
N867 C870 1.313 . S
C868 C869 1.338 . S
C868 N871 1.377 . S
C868 H888 0.930 . S
C869 N867 1.375 . S
C869 C868 1.338 . S
C869 H873 0.931 . S
C870 N867 1.313 . S
C870 N871 1.344 . S
C870 H874 0.930 . S
N871 C868 1.377 . S
N871 C870 1.344 . S
O872 Co864 2.055 . S
O872 C876 1.253 . S
H873 C869 0.931 . S
H874 C870 0.930 . S
O875 Co864 2.039 . S
O875 C865 1.265 . S
C876 O872 1.253 . S
C876 O877 1.227 . S
O877 C876 1.227 . S
N878 Co864 2.140 . S
N878 C881 1.346 . S
N878 C882 1.345 . S
C879 C880 1.387 . S
C879 C883 1.391 . S
C880 C879 1.387 . S
C880 C881 1.369 . S
C880 H889 0.929 . S
C881 N878 1.346 . S
C881 C880 1.369 . S
C881 H884 0.928 . S
C882 N878 1.345 . S
C882 C883 1.371 . S
C882 H885 0.931 . S
C883 C879 1.391 . S
C883 C882 1.371 . S
C883 H890 0.930 . S
H884 C881 0.928 . S
H885 C882 0.931 . S
H886 C862 0.930 . S
H887 C859 0.930 . S
H888 C868 0.930 . S
H889 C880 0.929 . S
H890 C883 0.930 . S
C891 C892 1.351 . S
C891 N894 1.368 . S
C891 H896 0.931 . S
C892 C891 1.351 . S
C892 N893 1.373 . S
C892 H920 0.930 . S
N893 C892 1.373 . S
N893 C895 1.340 . S
N894 C891 1.368 . S
N894 C895 1.321 . S
N894 Co897 2.135 . S
C895 N893 1.340 . S
C895 N894 1.321 . S
C895 H919 0.930 . S
H896 C891 0.931 . S
Co897 N894 2.135 . S
Co897 N900 2.121 . S
Co897 O905 2.055 . S
Co897 O908 2.039 . S
Co897 N911 2.140 . S
C898 O899 1.227 . S
C898 O908 1.265 . S
O899 C898 1.227 . S
N900 Co897 2.121 . S
N900 C902 1.375 . S
N900 C903 1.313 . S
C901 C902 1.338 . S
C901 N904 1.377 . S
C901 H921 0.930 . S
C902 N900 1.375 . S
C902 C901 1.338 . S
C902 H906 0.931 . S
C903 N900 1.313 . S
C903 N904 1.344 . S
C903 H907 0.930 . S
N904 C901 1.377 . S
N904 C903 1.344 . S
O905 Co897 2.055 . S
O905 C909 1.253 . S
H906 C902 0.931 . S
H907 C903 0.930 . S
O908 Co897 2.039 . S
O908 C898 1.265 . S
C909 O905 1.253 . S
C909 O910 1.227 . S
O910 C909 1.227 . S
N911 Co897 2.140 . S
N911 C914 1.346 . S
N911 C915 1.345 . S
C912 C913 1.387 . S
C912 C916 1.391 . S
C913 C912 1.387 . S
C913 C914 1.369 . S
C913 H922 0.929 . S
C914 N911 1.346 . S
C914 C913 1.369 . S
C914 H917 0.928 . S
C915 N911 1.345 . S
C915 C916 1.371 . S
C915 H918 0.931 . S
C916 C912 1.391 . S
C916 C915 1.371 . S
C916 H923 0.930 . S
H917 C914 0.928 . S
H918 C915 0.931 . S
H919 C895 0.930 . S
H920 C892 0.930 . S
H921 C901 0.930 . S
H922 C913 0.929 . S
H923 C916 0.930 . S
C924 C925 1.351 . S
C924 N927 1.368 . S
C924 H929 0.931 . S
C925 C924 1.351 . S
C925 N926 1.373 . S
C925 H953 0.930 . S
N926 C925 1.373 . S
N926 C928 1.340 . S
N927 C924 1.368 . S
N927 C928 1.321 . S
N927 Co930 2.135 . S
C928 N926 1.340 . S
C928 N927 1.321 . S
C928 H952 0.930 . S
H929 C924 0.931 . S
Co930 N927 2.135 . S
Co930 N933 2.121 . S
Co930 O938 2.055 . S
Co930 O941 2.039 . S
Co930 N944 2.140 . S
C931 O932 1.227 . S
C931 O941 1.265 . S
O932 C931 1.227 . S
N933 Co930 2.121 . S
N933 C935 1.375 . S
N933 C936 1.313 . S
C934 C935 1.338 . S
C934 N937 1.377 . S
C934 H954 0.930 . S
C935 N933 1.375 . S
C935 C934 1.338 . S
C935 H939 0.931 . S
C936 N933 1.313 . S
C936 N937 1.344 . S
C936 H940 0.930 . S
N937 C934 1.377 . S
N937 C936 1.344 . S
O938 Co930 2.055 . S
O938 C942 1.253 . S
H939 C935 0.931 . S
H940 C936 0.930 . S
O941 Co930 2.039 . S
O941 C931 1.265 . S
C942 O938 1.253 . S
C942 O943 1.227 . S
O943 C942 1.227 . S
N944 Co930 2.140 . S
N944 C947 1.346 . S
N944 C948 1.345 . S
C945 C946 1.387 . S
C945 C949 1.391 . S
C946 C945 1.387 . S
C946 C947 1.369 . S
C946 H955 0.929 . S
C947 N944 1.346 . S
C947 C946 1.369 . S
C947 H950 0.928 . S
C948 N944 1.345 . S
C948 C949 1.371 . S
C948 H951 0.931 . S
C949 C945 1.391 . S
C949 C948 1.371 . S
C949 H956 0.930 . S
H950 C947 0.928 . S
H951 C948 0.931 . S
H952 C928 0.930 . S
H953 C925 0.930 . S
H954 C934 0.930 . S
H955 C946 0.929 . S
H956 C949 0.930 . S
C957 C958 1.351 . S
C957 N960 1.368 . S
C957 H962 0.931 . S
C958 C957 1.351 . S
C958 N959 1.373 . S
C958 H986 0.930 . S
N959 C958 1.373 . S
N959 C961 1.340 . S
N960 C957 1.368 . S
N960 C961 1.321 . S
N960 Co963 2.135 . S
C961 N959 1.340 . S
C961 N960 1.321 . S
C961 H985 0.930 . S
H962 C957 0.931 . S
Co963 N960 2.135 . S
Co963 N966 2.121 . S
Co963 O971 2.055 . S
Co963 O974 2.039 . S
Co963 N977 2.140 . S
C964 O965 1.227 . S
C964 O974 1.265 . S
O965 C964 1.227 . S
N966 Co963 2.121 . S
N966 C968 1.375 . S
N966 C969 1.313 . S
C967 C968 1.338 . S
C967 N970 1.377 . S
C967 H987 0.930 . S
C968 N966 1.375 . S
C968 C967 1.338 . S
C968 H972 0.931 . S
C969 N966 1.313 . S
C969 N970 1.344 . S
C969 H973 0.930 . S
N970 C967 1.377 . S
N970 C969 1.344 . S
O971 Co963 2.055 . S
O971 C975 1.253 . S
H972 C968 0.931 . S
H973 C969 0.930 . S
O974 Co963 2.039 . S
O974 C964 1.265 . S
C975 O971 1.253 . S
C975 O976 1.227 . S
O976 C975 1.227 . S
N977 Co963 2.140 . S
N977 C980 1.346 . S
N977 C981 1.345 . S
C978 C979 1.387 . S
C978 C982 1.391 . S
C979 C978 1.387 . S
C979 C980 1.369 . S
C979 H988 0.929 . S
C980 N977 1.346 . S
C980 C979 1.369 . S
C980 H983 0.928 . S
C981 N977 1.345 . S
C981 C982 1.371 . S
C981 H984 0.931 . S
C982 C978 1.391 . S
C982 C981 1.371 . S
C982 H989 0.930 . S
H983 C980 0.928 . S
H984 C981 0.931 . S
H985 C961 0.930 . S
H986 C958 0.930 . S
H987 C967 0.930 . S
H988 C979 0.929 . S
H989 C982 0.930 . S
C990 C991 1.351 . S
C990 N993 1.368 . S
C990 H995 0.931 . S
C991 C990 1.351 . S
C991 N992 1.373 . S
C991 H1019 0.930 . S
N992 C991 1.373 . S
N992 C994 1.340 . S
N993 C990 1.368 . S
N993 C994 1.321 . S
N993 Co996 2.135 . S
C994 N992 1.340 . S
C994 N993 1.321 . S
C994 H1018 0.930 . S
H995 C990 0.931 . S
Co996 N993 2.135 . S
Co996 N999 2.121 . S
Co996 O1004 2.055 . S
Co996 O1007 2.039 . S
Co996 N1010 2.140 . S
C997 O998 1.227 . S
C997 O1007 1.265 . S
O998 C997 1.227 . S
N999 Co996 2.121 . S
N999 C1001 1.375 . S
N999 C1002 1.313 . S
C1000 C1001 1.338 . S
C1000 N1003 1.377 . S
C1000 H1020 0.930 . S
C1001 N999 1.375 . S
C1001 C1000 1.338 . S
C1001 H1005 0.931 . S
C1002 N999 1.313 . S
C1002 N1003 1.344 . S
C1002 H1006 0.930 . S
N1003 C1000 1.377 . S
N1003 C1002 1.344 . S
O1004 Co996 2.055 . S
O1004 C1008 1.253 . S
H1005 C1001 0.931 . S
H1006 C1002 0.930 . S
O1007 Co996 2.039 . S
O1007 C997 1.265 . S
C1008 O1004 1.253 . S
C1008 O1009 1.227 . S
O1009 C1008 1.227 . S
N1010 Co996 2.140 . S
N1010 C1013 1.346 . S
N1010 C1014 1.345 . S
C1011 C1012 1.387 . S
C1011 C1015 1.391 . S
C1012 C1011 1.387 . S
C1012 C1013 1.369 . S
C1012 H1021 0.929 . S
C1013 N1010 1.346 . S
C1013 C1012 1.369 . S
C1013 H1016 0.928 . S
C1014 N1010 1.345 . S
C1014 C1015 1.371 . S
C1014 H1017 0.931 . S
C1015 C1011 1.391 . S
C1015 C1014 1.371 . S
C1015 H1022 0.930 . S
H1016 C1013 0.928 . S
H1017 C1014 0.931 . S
H1018 C994 0.930 . S
H1019 C991 0.930 . S
H1020 C1000 0.930 . S
H1021 C1012 0.929 . S
H1022 C1015 0.930 . S
C1023 C1024 1.351 . S
C1023 N1026 1.368 . S
C1023 H1028 0.931 . S
C1024 C1023 1.351 . S
C1024 N1025 1.373 . S
C1024 H1052 0.930 . S
N1025 C1024 1.373 . S
N1025 C1027 1.340 . S
N1026 C1023 1.368 . S
N1026 C1027 1.321 . S
N1026 Co1029 2.135 . S
C1027 N1025 1.340 . S
C1027 N1026 1.321 . S
C1027 H1051 0.930 . S
H1028 C1023 0.931 . S
Co1029 N1026 2.135 . S
Co1029 N1032 2.121 . S
Co1029 O1037 2.055 . S
Co1029 O1040 2.039 . S
Co1029 N1043 2.140 . S
C1030 O1031 1.227 . S
C1030 O1040 1.265 . S
O1031 C1030 1.227 . S
N1032 Co1029 2.121 . S
N1032 C1034 1.375 . S
N1032 C1035 1.313 . S
C1033 C1034 1.338 . S
C1033 N1036 1.377 . S
C1033 H1053 0.930 . S
C1034 N1032 1.375 . S
C1034 C1033 1.338 . S
C1034 H1038 0.931 . S
C1035 N1032 1.313 . S
C1035 N1036 1.344 . S
C1035 H1039 0.930 . S
N1036 C1033 1.377 . S
N1036 C1035 1.344 . S
O1037 Co1029 2.055 . S
O1037 C1041 1.253 . S
H1038 C1034 0.931 . S
H1039 C1035 0.930 . S
O1040 Co1029 2.039 . S
O1040 C1030 1.265 . S
C1041 O1037 1.253 . S
C1041 O1042 1.227 . S
O1042 C1041 1.227 . S
N1043 Co1029 2.140 . S
N1043 C1046 1.346 . S
N1043 C1047 1.345 . S
C1044 C1045 1.387 . S
C1044 C1048 1.391 . S
C1045 C1044 1.387 . S
C1045 C1046 1.369 . S
C1045 H1054 0.929 . S
C1046 N1043 1.346 . S
C1046 C1045 1.369 . S
C1046 H1049 0.928 . S
C1047 N1043 1.345 . S
C1047 C1048 1.371 . S
C1047 H1050 0.931 . S
C1048 C1044 1.391 . S
C1048 C1047 1.371 . S
C1048 H1055 0.930 . S
H1049 C1046 0.928 . S
H1050 C1047 0.931 . S
H1051 C1027 0.930 . S
H1052 C1024 0.930 . S
H1053 C1033 0.930 . S
H1054 C1045 0.929 . S
H1055 C1048 0.930 . S
H1056 C1062 0.930 . S
H1057 C1065 0.930 . S
H1058 C1066 0.930 . S
H1059 C1067 0.930 . S
H1060 C1070 0.930 . S
H1061 C1071 0.928 1_455 S
C1062 H1056 0.930 . S
C1062 C1063 1.355 . S
C1062 C1064 1.415 . S
C1063 C1062 1.355 . S
C1063 C1065 1.419 . S
C1064 C1062 1.415 . S
C1064 C1069 1.425 . S
C1064 C1071 1.409 . S
C1065 H1057 0.930 . S
C1065 C1063 1.419 . S
C1065 C1066 1.362 . S
C1066 H1058 0.930 . S
C1066 C1065 1.362 . S
C1066 C1069 1.409 . S
C1067 H1059 0.930 . S
C1067 C1068 1.355 . S
C1067 C1069 1.415 . S
C1068 C1067 1.355 . S
C1068 C1070 1.419 . S
C1069 C1064 1.425 . S
C1069 C1066 1.409 . S
C1069 C1067 1.415 . S
C1070 H1060 0.930 . S
C1070 C1068 1.419 . S
C1070 C1071 1.362 . S
C1071 H1061 0.928 1_655 S
C1071 C1064 1.409 . S
C1071 C1070 1.362 . S
H1072 C1078 0.930 . S
H1073 C1081 0.930 . S
H1074 C1082 0.930 . S
H1075 C1083 0.930 . S
H1076 C1086 0.930 . S
H1077 C1087 0.930 . S
C1078 H1072 0.930 . S
C1078 C1079 1.355 . S
C1078 C1080 1.415 . S
C1079 C1078 1.355 . S
C1079 C1081 1.419 . S
C1080 C1078 1.415 . S
C1080 C1085 1.425 . S
C1080 C1087 1.409 . S
C1081 H1073 0.930 . S
C1081 C1079 1.419 . S
C1081 C1082 1.362 . S
C1082 H1074 0.930 . S
C1082 C1081 1.362 . S
C1082 C1085 1.409 . S
C1083 H1075 0.930 . S
C1083 C1084 1.355 . S
C1083 C1085 1.415 . S
C1084 C1083 1.355 . S
C1084 C1086 1.419 . S
C1085 C1080 1.425 . S
C1085 C1082 1.409 . S
C1085 C1083 1.415 . S
C1086 H1076 0.930 . S
C1086 C1084 1.419 . S
C1086 C1087 1.362 . S
C1087 H1077 0.930 . S
C1087 C1080 1.409 . S
C1087 C1086 1.362 . S
H1088 C1094 0.930 . S
H1089 C1097 0.930 . S
H1090 C1098 0.930 . S
H1091 C1099 0.930 . S
H1092 C1102 0.930 . S
H1093 C1103 0.930 . S
C1094 H1088 0.930 . S
C1094 C1095 1.355 1_655 S
C1094 C1096 1.422 . S
C1095 C1094 1.355 1_455 S
C1095 C1097 1.419 . S
C1096 C1094 1.422 . S
C1096 C1101 1.385 1_655 S
C1096 C1103 1.442 . S
C1097 H1089 0.930 . S
C1097 C1095 1.419 . S
C1097 C1098 1.362 . S
C1098 H1090 0.930 . S
C1098 C1097 1.362 . S
C1098 C1101 1.409 . S
C1099 H1091 0.930 . S
C1099 C1100 1.355 . S
C1099 C1101 1.415 . S
C1100 C1099 1.355 . S
C1100 C1102 1.419 1_455 S
C1101 C1096 1.385 1_455 S
C1101 C1098 1.409 . S
C1101 C1099 1.415 . S
C1102 H1092 0.930 . S
C1102 C1100 1.419 1_655 S
C1102 C1103 1.362 . S
C1103 H1093 0.930 . S
C1103 C1096 1.442 . S
C1103 C1102 1.362 . S
H1104 C1110 0.930 . S
H1105 C1113 0.930 . S
H1106 C1114 0.930 . S
H1107 C1115 0.930 . S
H1108 C1118 0.930 . S
H1109 C1119 0.930 . S
C1110 H1104 0.930 . S
C1110 C1111 1.355 . S
C1110 C1112 1.415 . S
C1111 C1110 1.355 . S
C1111 C1113 1.419 . S
C1112 C1110 1.415 . S
C1112 C1117 1.425 . S
C1112 C1119 1.409 . S
C1113 H1105 0.930 . S
C1113 C1111 1.419 . S
C1113 C1114 1.362 . S
C1114 H1106 0.930 . S
C1114 C1113 1.362 . S
C1114 C1117 1.409 . S
C1115 H1107 0.930 . S
C1115 C1116 1.355 . S
C1115 C1117 1.415 . S
C1116 C1115 1.355 . S
C1116 C1118 1.419 . S
C1117 C1112 1.425 . S
C1117 C1114 1.409 . S
C1117 C1115 1.415 . S
C1118 H1108 0.930 . S
C1118 C1116 1.419 . S
C1118 C1119 1.362 . S
C1119 H1109 0.930 . S
C1119 C1112 1.409 . S
C1119 C1118 1.362 . S
H1120 C1126 0.930 . S
H1121 C1129 0.930 . S
H1122 C1130 0.930 . S
H1123 C1131 0.930 . S
H1124 C1134 0.930 . S
H1125 C1135 0.930 . S
C1126 H1120 0.930 . S
C1126 C1127 1.355 . S
C1126 C1128 1.415 . S
C1127 C1126 1.355 . S
C1127 C1129 1.419 1_655 S
C1128 C1126 1.415 . S
C1128 C1133 1.384 1_655 S
C1128 C1135 1.409 . S
C1129 H1121 0.930 . S
C1129 C1127 1.419 1_455 S
C1129 C1130 1.362 . S
C1130 H1122 0.930 . S
C1130 C1129 1.362 . S
C1130 C1133 1.443 . S
C1131 H1123 0.930 . S
C1131 C1132 1.355 1_455 S
C1131 C1133 1.422 . S
C1132 C1131 1.355 1_655 S
C1132 C1134 1.419 . S
C1133 C1128 1.384 1_455 S
C1133 C1130 1.443 . S
C1133 C1131 1.422 . S
C1134 H1124 0.930 . S
C1134 C1132 1.419 . S
C1134 C1135 1.362 . S
C1135 H1125 0.930 . S
C1135 C1128 1.409 . S
C1135 C1134 1.362 . S
H1136 C1142 0.930 . S
H1137 C1145 0.930 . S
H1138 C1146 0.930 . S
H1139 C1147 0.930 . S
H1140 C1150 0.930 . S
H1141 C1151 0.930 . S
C1142 H1136 0.930 . S
C1142 C1143 1.355 . S
C1142 C1144 1.415 . S
C1143 C1142 1.355 . S
C1143 C1145 1.419 . S
C1144 C1142 1.415 . S
C1144 C1149 1.425 . S
C1144 C1151 1.409 . S
C1145 H1137 0.930 . S
C1145 C1143 1.419 . S
C1145 C1146 1.362 . S
C1146 H1138 0.930 . S
C1146 C1145 1.362 . S
C1146 C1149 1.409 . S
C1147 H1139 0.930 . S
C1147 C1148 1.355 . S
C1147 C1149 1.415 . S
C1148 C1147 1.355 . S
C1148 C1150 1.419 . S
C1149 C1144 1.425 . S
C1149 C1146 1.409 . S
C1149 C1147 1.415 . S
C1150 H1140 0.930 . S
C1150 C1148 1.419 . S
C1150 C1151 1.362 . S
C1151 H1141 0.930 . S
C1151 C1144 1.409 . S
C1151 C1150 1.362 . S
H1152 C1158 0.930 . S
H1153 C1161 0.930 . S
H1154 C1162 0.930 . S
H1155 C1163 0.930 . S
H1156 C1166 0.930 . S
H1157 C1167 0.930 . S
C1158 H1152 0.930 . S
C1158 C1159 1.355 . S
C1158 C1160 1.415 . S
C1159 C1158 1.355 . S
C1159 C1161 1.419 1_455 S
C1160 C1158 1.415 . S
C1160 C1165 1.425 1_455 S
C1160 C1167 1.409 . S
C1161 H1153 0.930 . S
C1161 C1159 1.419 1_655 S
C1161 C1162 1.362 . S
C1162 H1154 0.930 . S
C1162 C1161 1.362 . S
C1162 C1165 1.409 . S
C1163 H1155 0.930 . S
C1163 C1164 1.355 1_655 S
C1163 C1165 1.415 . S
C1164 C1163 1.355 1_455 S
C1164 C1166 1.419 . S
C1165 C1160 1.425 1_655 S
C1165 C1162 1.409 . S
C1165 C1163 1.415 . S
C1166 H1156 0.930 . S
C1166 C1164 1.419 . S
C1166 C1167 1.362 . S
C1167 H1157 0.930 . S
C1167 C1160 1.409 . S
C1167 C1166 1.362 . S
H1168 C1174 0.930 . S
H1169 C1177 0.930 1_554 S
H1170 C1178 0.930 . S
H1171 C1179 0.930 . S
H1172 C1182 0.930 . S
H1173 C1183 0.930 . S
C1174 H1168 0.930 . S
C1174 C1175 1.355 . S
C1174 C1176 1.415 . S
C1175 C1174 1.355 . S
C1175 C1177 1.419 . S
C1176 C1174 1.415 . S
C1176 C1181 1.425 . S
C1176 C1183 1.409 . S
C1177 H1169 0.930 1_556 S
C1177 C1175 1.419 . S
C1177 C1178 1.362 . S
C1178 H1170 0.930 . S
C1178 C1177 1.362 . S
C1178 C1181 1.409 . S
C1179 H1171 0.930 . S
C1179 C1180 1.355 . S
C1179 C1181 1.415 . S
C1180 C1179 1.355 . S
C1180 C1182 1.419 . S
C1181 C1176 1.425 . S
C1181 C1178 1.409 . S
C1181 C1179 1.415 . S
C1182 H1172 0.930 . S
C1182 C1180 1.419 . S
C1182 C1183 1.362 . S
C1183 H1173 0.930 . S
C1183 C1176 1.409 . S
C1183 C1182 1.362 . S
H1184 C1190 0.930 . S
H1185 C1193 0.930 . S
H1186 C1194 0.930 . S
H1187 C1195 0.930 . S
H1188 C1198 0.930 . S
H1189 C1199 0.930 . S
C1190 H1184 0.930 . S
C1190 C1191 1.355 . S
C1190 C1192 1.415 . S
C1191 C1190 1.355 . S
C1191 C1193 1.419 . S
C1192 C1190 1.415 . S
C1192 C1197 1.425 . S
C1192 C1199 1.409 . S
C1193 H1185 0.930 . S
C1193 C1191 1.419 . S
C1193 C1194 1.362 . S
C1194 H1186 0.930 . S
C1194 C1193 1.362 . S
C1194 C1197 1.409 . S
C1195 H1187 0.930 . S
C1195 C1196 1.355 . S
C1195 C1197 1.415 . S
C1196 C1195 1.355 . S
C1196 C1198 1.419 . S
C1197 C1192 1.425 . S
C1197 C1194 1.409 . S
C1197 C1195 1.415 . S
C1198 H1188 0.930 . S
C1198 C1196 1.419 . S
C1198 C1199 1.362 . S
C1199 H1189 0.930 . S
C1199 C1192 1.409 . S
C1199 C1198 1.362 . S
H1200 C1206 0.930 . S
H1201 C1209 0.930 . S
H1202 C1210 0.930 . S
H1203 C1211 0.930 . S
H1204 C1214 0.915 1_556 S
H1205 C1215 0.930 . S
C1206 H1200 0.930 . S
C1206 C1207 1.355 . S
C1206 C1208 1.415 . S
C1207 C1206 1.355 . S
C1207 C1209 1.419 . S
C1208 C1206 1.415 . S
C1208 C1213 1.425 . S
C1208 C1215 1.409 . S
C1209 H1201 0.930 . S
C1209 C1207 1.419 . S
C1209 C1210 1.362 . S
C1210 H1202 0.930 . S
C1210 C1209 1.362 . S
C1210 C1213 1.409 . S
C1211 H1203 0.930 . S
C1211 C1212 1.355 . S
C1211 C1213 1.415 . S
C1212 C1211 1.355 . S
C1212 C1214 1.419 . S
C1213 C1208 1.425 . S
C1213 C1210 1.409 . S
C1213 C1211 1.415 . S
C1214 H1204 0.915 1_554 S
C1214 C1212 1.419 . S
C1214 C1215 1.362 . S
C1215 H1205 0.930 . S
C1215 C1208 1.409 . S
C1215 C1214 1.362 . S
H1216 C1222 0.930 . S
H1217 C1225 0.930 . S
H1218 C1226 0.930 . S
H1219 C1227 0.930 . S
H1220 C1230 0.930 . S
H1221 C1231 0.930 . S
C1222 H1216 0.930 . S
C1222 C1223 1.355 . S
C1222 C1224 1.415 . S
C1223 C1222 1.355 . S
C1223 C1225 1.419 . S
C1224 C1222 1.415 . S
C1224 C1229 1.425 . S
C1224 C1231 1.409 . S
C1225 H1217 0.930 . S
C1225 C1223 1.419 . S
C1225 C1226 1.362 . S
C1226 H1218 0.930 . S
C1226 C1225 1.362 . S
C1226 C1229 1.409 . S
C1227 H1219 0.930 . S
C1227 C1228 1.355 . S
C1227 C1229 1.415 . S
C1228 C1227 1.355 . S
C1228 C1230 1.419 . S
C1229 C1224 1.425 . S
C1229 C1226 1.409 . S
C1229 C1227 1.415 . S
C1230 H1220 0.930 . S
C1230 C1228 1.419 . S
C1230 C1231 1.362 . S
C1231 H1221 0.930 . S
C1231 C1224 1.409 . S
C1231 C1230 1.362 . S
H1232 C1238 0.930 . S
H1233 C1241 0.930 . S
H1234 C1242 0.930 . S
H1235 C1243 0.930 . S
H1236 C1246 0.930 1_554 S
H1237 C1247 0.930 . S
C1238 H1232 0.930 . S
C1238 C1239 1.355 . S
C1238 C1240 1.415 . S
C1239 C1238 1.355 . S
C1239 C1241 1.419 . S
C1240 C1238 1.415 . S
C1240 C1245 1.425 . S
C1240 C1247 1.409 . S
C1241 H1233 0.930 . S
C1241 C1239 1.419 . S
C1241 C1242 1.362 . S
C1242 H1234 0.930 . S
C1242 C1241 1.362 . S
C1242 C1245 1.409 . S
C1243 H1235 0.930 . S
C1243 C1244 1.355 . S
C1243 C1245 1.415 . S
C1244 C1243 1.355 . S
C1244 C1246 1.419 . S
C1245 C1240 1.425 . S
C1245 C1242 1.409 . S
C1245 C1243 1.415 . S
C1246 H1236 0.930 1_556 S
C1246 C1244 1.419 . S
C1246 C1247 1.362 . S
C1247 H1237 0.930 . S
C1247 C1240 1.409 . S
C1247 C1246 1.362 . S
H1248 C1254 0.930 . S
H1249 C1257 0.930 . S
H1250 C1258 0.930 . S
H1251 C1259 0.930 . S
H1252 C1262 0.930 . S
H1253 C1263 0.930 . S
C1254 H1248 0.930 . S
C1254 C1255 1.355 . S
C1254 C1256 1.415 . S
C1255 C1254 1.355 . S
C1255 C1257 1.419 . S
C1256 C1254 1.415 . S
C1256 C1261 1.425 . S
C1256 C1263 1.409 . S
C1257 H1249 0.930 . S
C1257 C1255 1.419 . S
C1257 C1258 1.362 . S
C1258 H1250 0.930 . S
C1258 C1257 1.362 . S
C1258 C1261 1.409 . S
C1259 H1251 0.930 . S
C1259 C1260 1.355 . S
C1259 C1261 1.415 . S
C1260 C1259 1.355 . S
C1260 C1262 1.419 . S
C1261 C1256 1.425 . S
C1261 C1258 1.409 . S
C1261 C1259 1.415 . S
C1262 H1252 0.930 . S
C1262 C1260 1.419 . S
C1262 C1263 1.362 . S
C1263 H1253 0.930 . S
C1263 C1256 1.409 . S
C1263 C1262 1.362 . S
H1264 C1270 0.930 . S
H1265 C1273 0.930 . S
H1266 C1274 0.930 . S
H1267 C1275 0.930 . S
H1268 C1278 0.930 . S
H1269 C1279 0.930 . S
C1270 H1264 0.930 . S
C1270 C1271 1.355 . S
C1270 C1272 1.415 . S
C1271 C1270 1.355 . S
C1271 C1273 1.419 . S
C1272 C1270 1.415 . S
C1272 C1277 1.425 . S
C1272 C1279 1.409 . S
C1273 H1265 0.930 . S
C1273 C1271 1.419 . S
C1273 C1274 1.362 . S
C1274 H1266 0.930 . S
C1274 C1273 1.362 . S
C1274 C1277 1.409 . S
C1275 H1267 0.930 . S
C1275 C1276 1.355 . S
C1275 C1277 1.415 . S
C1276 C1275 1.355 . S
C1276 C1278 1.419 . S
C1277 C1272 1.425 . S
C1277 C1274 1.409 . S
C1277 C1275 1.415 . S
C1278 H1268 0.930 . S
C1278 C1276 1.419 . S
C1278 C1279 1.362 . S
C1279 H1269 0.930 . S
C1279 C1272 1.409 . S
C1279 C1278 1.362 . S
H1280 C1286 0.930 . S
H1281 C1289 0.930 . S
H1282 C1290 0.930 . S
H1283 C1291 0.930 . S
H1284 C1294 0.930 . S
H1285 C1295 0.930 . S
C1286 H1280 0.930 . S
C1286 C1287 1.355 . S
C1286 C1288 1.415 . S
C1287 C1286 1.355 . S
C1287 C1289 1.419 . S
C1288 C1286 1.415 . S
C1288 C1293 1.425 . S
C1288 C1295 1.409 . S
C1289 H1281 0.930 . S
C1289 C1287 1.419 . S
C1289 C1290 1.362 . S
C1290 H1282 0.930 . S
C1290 C1289 1.362 . S
C1290 C1293 1.409 . S
C1291 H1283 0.930 . S
C1291 C1292 1.355 . S
C1291 C1293 1.415 . S
C1292 C1291 1.355 . S
C1292 C1294 1.419 . S
C1293 C1288 1.425 . S
C1293 C1290 1.409 . S
C1293 C1291 1.415 . S
C1294 H1284 0.930 . S
C1294 C1292 1.419 . S
C1294 C1295 1.362 . S
C1295 H1285 0.930 . S
C1295 C1288 1.409 . S
C1295 C1294 1.362 . S
H1296 C1302 0.930 . S
H1297 C1305 0.930 . S
H1298 C1306 0.930 . S
H1299 C1307 0.930 . S
H1300 C1310 0.930 . S
H1301 C1311 0.930 . S
C1302 H1296 0.930 . S
C1302 C1303 1.355 . S
C1302 C1304 1.415 . S
C1303 C1302 1.355 . S
C1303 C1305 1.419 . S
C1304 C1302 1.415 . S
C1304 C1309 1.425 . S
C1304 C1311 1.409 . S
C1305 H1297 0.930 . S
C1305 C1303 1.419 . S
C1305 C1306 1.362 . S
C1306 H1298 0.930 . S
C1306 C1305 1.362 . S
C1306 C1309 1.409 . S
C1307 H1299 0.930 . S
C1307 C1308 1.355 . S
C1307 C1309 1.415 . S
C1308 C1307 1.355 . S
C1308 C1310 1.419 . S
C1309 C1304 1.425 . S
C1309 C1306 1.409 . S
C1309 C1307 1.415 . S
C1310 H1300 0.930 . S
C1310 C1308 1.419 . S
C1310 C1311 1.362 . S
C1311 H1301 0.930 . S
C1311 C1304 1.409 . S
C1311 C1310 1.362 . S
H1312 C1318 0.930 . S
H1313 C1321 0.930 . S
H1314 C1322 0.930 . S
H1315 C1323 0.930 . S
H1316 C1326 0.930 . S
H1317 C1327 0.930 . S
C1318 H1312 0.930 . S
C1318 C1319 1.355 . S
C1318 C1320 1.415 . S
C1319 C1318 1.355 . S
C1319 C1321 1.419 . S
C1320 C1318 1.415 . S
C1320 C1325 1.425 . S
C1320 C1327 1.409 . S
C1321 H1313 0.930 . S
C1321 C1319 1.419 . S
C1321 C1322 1.362 . S
C1322 H1314 0.930 . S
C1322 C1321 1.362 . S
C1322 C1325 1.409 . S
C1323 H1315 0.930 . S
C1323 C1324 1.355 . S
C1323 C1325 1.415 . S
C1324 C1323 1.355 . S
C1324 C1326 1.419 . S
C1325 C1320 1.425 . S
C1325 C1322 1.409 . S
C1325 C1323 1.415 . S
C1326 H1316 0.930 . S
C1326 C1324 1.419 . S
C1326 C1327 1.362 . S
C1327 H1317 0.930 . S
C1327 C1320 1.409 . S
C1327 C1326 1.362 . S
H1328 C1334 0.930 . S
H1329 C1337 0.930 . S
H1330 C1338 0.930 . S
H1331 C1339 0.930 . S
H1332 C1342 0.930 . S
H1333 C1343 0.930 . S
C1334 H1328 0.930 . S
C1334 C1335 1.355 . S
C1334 C1336 1.415 . S
C1335 C1334 1.355 . S
C1335 C1337 1.419 . S
C1336 C1334 1.415 . S
C1336 C1341 1.425 . S
C1336 C1343 1.409 . S
C1337 H1329 0.930 . S
C1337 C1335 1.419 . S
C1337 C1338 1.362 . S
C1338 H1330 0.930 . S
C1338 C1337 1.362 . S
C1338 C1341 1.409 . S
C1339 H1331 0.930 . S
C1339 C1340 1.355 . S
C1339 C1341 1.415 . S
C1340 C1339 1.355 . S
C1340 C1342 1.419 . S
C1341 C1336 1.425 . S
C1341 C1338 1.409 . S
C1341 C1339 1.415 . S
C1342 H1332 0.930 . S
C1342 C1340 1.419 . S
C1342 C1343 1.362 . S
C1343 H1333 0.930 . S
C1343 C1336 1.409 . S
C1343 C1342 1.362 . S
H1344 C1350 0.930 . S
H1345 C1353 0.930 . S
H1346 C1354 0.930 . S
H1347 C1355 0.930 . S
H1348 C1358 0.930 . S
H1349 C1359 0.930 . S
C1350 H1344 0.930 . S
C1350 C1351 1.355 . S
C1350 C1352 1.415 . S
C1351 C1350 1.355 . S
C1351 C1353 1.419 . S
C1352 C1350 1.415 . S
C1352 C1357 1.425 . S
C1352 C1359 1.409 . S
C1353 H1345 0.930 . S
C1353 C1351 1.419 . S
C1353 C1354 1.362 . S
C1354 H1346 0.930 . S
C1354 C1353 1.362 . S
C1354 C1357 1.409 . S
C1355 H1347 0.930 . S
C1355 C1356 1.355 . S
C1355 C1357 1.415 . S
C1356 C1355 1.355 . S
C1356 C1358 1.419 . S
C1357 C1352 1.425 . S
C1357 C1354 1.409 . S
C1357 C1355 1.415 . S
C1358 H1348 0.930 . S
C1358 C1356 1.419 . S
C1358 C1359 1.362 . S
C1359 H1349 0.930 . S
C1359 C1352 1.409 . S
C1359 C1358 1.362 . S
H1360 C1366 0.930 . S
H1361 C1369 0.930 . S
H1362 C1370 0.930 . S
H1363 C1371 0.930 . S
H1364 C1374 0.930 . S
H1365 C1375 0.930 . S
C1366 H1360 0.930 . S
C1366 C1367 1.355 . S
C1366 C1368 1.415 . S
C1367 C1366 1.355 . S
C1367 C1369 1.419 . S
C1368 C1366 1.415 . S
C1368 C1373 1.425 . S
C1368 C1375 1.409 . S
C1369 H1361 0.930 . S
C1369 C1367 1.419 . S
C1369 C1370 1.362 . S
C1370 H1362 0.930 . S
C1370 C1369 1.362 . S
C1370 C1373 1.409 . S
C1371 H1363 0.930 . S
C1371 C1372 1.355 . S
C1371 C1373 1.415 . S
C1372 C1371 1.355 . S
C1372 C1374 1.419 . S
C1373 C1368 1.425 . S
C1373 C1370 1.409 . S
C1373 C1371 1.415 . S
C1374 H1364 0.930 . S
C1374 C1372 1.419 . S
C1374 C1375 1.362 . S
C1375 H1365 0.930 . S
C1375 C1368 1.409 . S
C1375 C1374 1.362 . S
H1376 C1382 0.930 . S
H1377 C1385 0.930 . S
H1378 C1386 0.930 . S
H1379 C1387 0.930 . S
H1380 C1390 0.930 . S
H1381 C1391 0.930 . S
C1382 H1376 0.930 . S
C1382 C1383 1.355 . S
C1382 C1384 1.415 . S
C1383 C1382 1.355 . S
C1383 C1385 1.419 . S
C1384 C1382 1.415 . S
C1384 C1389 1.425 . S
C1384 C1391 1.409 . S
C1385 H1377 0.930 . S
C1385 C1383 1.419 . S
C1385 C1386 1.362 . S
C1386 H1378 0.930 . S
C1386 C1385 1.362 . S
C1386 C1389 1.409 . S
C1387 H1379 0.930 . S
C1387 C1388 1.355 . S
C1387 C1389 1.415 . S
C1388 C1387 1.355 . S
C1388 C1390 1.419 . S
C1389 C1384 1.425 . S
C1389 C1386 1.409 . S
C1389 C1387 1.415 . S
C1390 H1380 0.930 . S
C1390 C1388 1.419 . S
C1390 C1391 1.362 . S
C1391 H1381 0.930 . S
C1391 C1384 1.409 . S
C1391 C1390 1.362 . S
H1392 C1398 0.930 . S
H1393 C1401 0.930 . S
H1394 C1402 0.930 . S
H1395 C1403 0.930 . S
H1396 C1406 0.930 . S
H1397 C1407 0.930 . S
C1398 H1392 0.930 . S
C1398 C1399 1.355 . S
C1398 C1400 1.415 . S
C1399 C1398 1.355 . S
C1399 C1401 1.419 . S
C1400 C1398 1.415 . S
C1400 C1405 1.425 . S
C1400 C1407 1.409 . S
C1401 H1393 0.930 . S
C1401 C1399 1.419 . S
C1401 C1402 1.362 . S
C1402 H1394 0.930 . S
C1402 C1401 1.362 . S
C1402 C1405 1.409 . S
C1403 H1395 0.930 . S
C1403 C1404 1.355 . S
C1403 C1405 1.415 . S
C1404 C1403 1.355 . S
C1404 C1406 1.419 . S
C1405 C1400 1.425 . S
C1405 C1402 1.409 . S
C1405 C1403 1.415 . S
C1406 H1396 0.930 . S
C1406 C1404 1.419 . S
C1406 C1407 1.362 . S
C1407 H1397 0.930 . S
C1407 C1400 1.409 . S
C1407 C1406 1.362 . S
H1408 C1414 0.930 . S
H1409 C1417 0.930 . S
H1410 C1418 0.930 . S
H1411 C1419 0.930 . S
H1412 C1422 0.930 . S
H1413 C1423 0.930 . S
C1414 H1408 0.930 . S
C1414 C1415 1.355 . S
C1414 C1416 1.415 . S
C1415 C1414 1.355 . S
C1415 C1417 1.419 . S
C1416 C1414 1.415 . S
C1416 C1421 1.425 . S
C1416 C1423 1.409 . S
C1417 H1409 0.930 . S
C1417 C1415 1.419 . S
C1417 C1418 1.362 . S
C1418 H1410 0.930 . S
C1418 C1417 1.362 . S
C1418 C1421 1.409 . S
C1419 H1411 0.930 . S
C1419 C1420 1.355 . S
C1419 C1421 1.415 . S
C1420 C1419 1.355 . S
C1420 C1422 1.419 . S
C1421 C1416 1.425 . S
C1421 C1418 1.409 . S
C1421 C1419 1.415 . S
C1422 H1412 0.930 . S
C1422 C1420 1.419 . S
C1422 C1423 1.362 . S
C1423 H1413 0.930 . S
C1423 C1416 1.409 . S
C1423 C1422 1.362 . S
H1424 C1430 0.930 . S
H1425 C1433 0.930 . S
H1426 C1434 0.930 . S
H1427 C1435 0.930 . S
H1428 C1438 0.930 . S
H1429 C1439 0.930 . S
C1430 H1424 0.930 . S
C1430 C1431 1.355 . S
C1430 C1432 1.415 . S
C1431 C1430 1.355 . S
C1431 C1433 1.419 . S
C1432 C1430 1.415 . S
C1432 C1437 1.425 . S
C1432 C1439 1.409 . S
C1433 H1425 0.930 . S
C1433 C1431 1.419 . S
C1433 C1434 1.362 . S
C1434 H1426 0.930 . S
C1434 C1433 1.362 . S
C1434 C1437 1.409 . S
C1435 H1427 0.930 . S
C1435 C1436 1.355 . S
C1435 C1437 1.415 . S
C1436 C1435 1.355 . S
C1436 C1438 1.419 . S
C1437 C1432 1.425 . S
C1437 C1434 1.409 . S
C1437 C1435 1.415 . S
C1438 H1428 0.930 . S
C1438 C1436 1.419 . S
C1438 C1439 1.362 . S
C1439 H1429 0.930 . S
C1439 C1432 1.409 . S
C1439 C1438 1.362 . S
H1440 C1446 0.930 . S
H1441 C1449 0.930 . S
H1442 C1450 0.930 . S
H1443 C1451 0.930 . S
H1444 C1454 0.930 . S
H1445 C1455 0.930 . S
C1446 H1440 0.930 . S
C1446 C1447 1.355 . S
C1446 C1448 1.415 . S
C1447 C1446 1.355 . S
C1447 C1449 1.419 . S
C1448 C1446 1.415 . S
C1448 C1453 1.425 . S
C1448 C1455 1.409 . S
C1449 H1441 0.930 . S
C1449 C1447 1.419 . S
C1449 C1450 1.362 . S
C1450 H1442 0.930 . S
C1450 C1449 1.362 . S
C1450 C1453 1.409 . S
C1451 H1443 0.930 . S
C1451 C1452 1.355 . S
C1451 C1453 1.415 . S
C1452 C1451 1.355 . S
C1452 C1454 1.419 . S
C1453 C1448 1.425 . S
C1453 C1450 1.409 . S
C1453 C1451 1.415 . S
C1454 H1444 0.930 . S
C1454 C1452 1.419 . S
C1454 C1455 1.362 . S
C1455 H1445 0.930 . S
C1455 C1448 1.409 . S
C1455 C1454 1.362 . S
H1456 C1462 0.930 . S
H1457 C1465 0.930 . S
H1458 C1466 0.930 . S
H1459 C1467 0.930 . S
H1460 C1470 0.930 . S
H1461 C1471 0.930 . S
C1462 H1456 0.930 . S
C1462 C1463 1.355 . S
C1462 C1464 1.415 . S
C1463 C1462 1.355 . S
C1463 C1465 1.419 . S
C1464 C1462 1.415 . S
C1464 C1469 1.425 . S
C1464 C1471 1.409 . S
C1465 H1457 0.930 . S
C1465 C1463 1.419 . S
C1465 C1466 1.362 . S
C1466 H1458 0.930 . S
C1466 C1465 1.362 . S
C1466 C1469 1.409 . S
C1467 H1459 0.930 . S
C1467 C1468 1.355 . S
C1467 C1469 1.415 . S
C1468 C1467 1.355 . S
C1468 C1470 1.419 . S
C1469 C1464 1.425 . S
C1469 C1466 1.409 . S
C1469 C1467 1.415 . S
C1470 H1460 0.930 . S
C1470 C1468 1.419 . S
C1470 C1471 1.362 . S
C1471 H1461 0.930 . S
C1471 C1464 1.409 . S
C1471 C1470 1.362 . S
H1472 C1478 0.930 . S
H1473 C1481 0.930 . S
H1474 C1482 0.930 . S
H1475 C1483 0.930 . S
H1476 C1486 0.930 . S
H1477 C1487 0.930 . S
C1478 H1472 0.930 . S
C1478 C1479 1.355 . S
C1478 C1480 1.415 . S
C1479 C1478 1.355 . S
C1479 C1481 1.419 . S
C1480 C1478 1.415 . S
C1480 C1485 1.425 . S
C1480 C1487 1.409 . S
C1481 H1473 0.930 . S
C1481 C1479 1.419 . S
C1481 C1482 1.362 . S
C1482 H1474 0.930 . S
C1482 C1481 1.362 . S
C1482 C1485 1.409 . S
C1483 H1475 0.930 . S
C1483 C1484 1.355 . S
C1483 C1485 1.415 . S
C1484 C1483 1.355 . S
C1484 C1486 1.419 . S
C1485 C1480 1.425 . S
C1485 C1482 1.409 . S
C1485 C1483 1.415 . S
C1486 H1476 0.930 . S
C1486 C1484 1.419 . S
C1486 C1487 1.362 . S
C1487 H1477 0.930 . S
C1487 C1480 1.409 . S
C1487 C1486 1.362 . S
H1488 C1494 0.930 . S
H1489 C1497 0.930 . S
H1490 C1498 0.930 . S
H1491 C1499 0.930 . S
H1492 C1502 0.930 . S
H1493 C1503 0.930 . S
C1494 H1488 0.930 . S
C1494 C1495 1.355 . S
C1494 C1496 1.415 . S
C1495 C1494 1.355 . S
C1495 C1497 1.419 . S
C1496 C1494 1.415 . S
C1496 C1501 1.425 . S
C1496 C1503 1.409 . S
C1497 H1489 0.930 . S
C1497 C1495 1.419 . S
C1497 C1498 1.362 . S
C1498 H1490 0.930 . S
C1498 C1497 1.362 . S
C1498 C1501 1.409 . S
C1499 H1491 0.930 . S
C1499 C1500 1.355 . S
C1499 C1501 1.415 . S
C1500 C1499 1.355 . S
C1500 C1502 1.419 . S
C1501 C1496 1.425 . S
C1501 C1498 1.409 . S
C1501 C1499 1.415 . S
C1502 H1492 0.930 . S
C1502 C1500 1.419 . S
C1502 C1503 1.362 . S
C1503 H1493 0.930 . S
C1503 C1496 1.409 . S
C1503 C1502 1.362 . S
H1504 C1510 0.930 . S
H1505 C1513 0.930 . S
H1506 C1514 0.930 . S
H1507 C1515 0.930 . S
H1508 C1518 0.930 . S
H1509 C1519 0.930 . S
C1510 H1504 0.930 . S
C1510 C1511 1.355 . S
C1510 C1512 1.415 . S
C1511 C1510 1.355 . S
C1511 C1513 1.419 . S
C1512 C1510 1.415 . S
C1512 C1517 1.425 . S
C1512 C1519 1.409 . S
C1513 H1505 0.930 . S
C1513 C1511 1.419 . S
C1513 C1514 1.362 . S
C1514 H1506 0.930 . S
C1514 C1513 1.362 . S
C1514 C1517 1.409 . S
C1515 H1507 0.930 . S
C1515 C1516 1.355 . S
C1515 C1517 1.415 . S
C1516 C1515 1.355 . S
C1516 C1518 1.419 . S
C1517 C1512 1.425 . S
C1517 C1514 1.409 . S
C1517 C1515 1.415 . S
C1518 H1508 0.930 . S
C1518 C1516 1.419 . S
C1518 C1519 1.362 . S
C1519 H1509 0.930 . S
C1519 C1512 1.409 . S
C1519 C1518 1.362 . S
H1520 C1526 0.930 . S
H1521 C1529 0.930 . S
H1522 C1530 0.930 . S
H1523 C1531 0.930 . S
H1524 C1534 0.930 . S
H1525 C1535 0.930 . S
C1526 H1520 0.930 . S
C1526 C1527 1.355 . S
C1526 C1528 1.415 . S
C1527 C1526 1.355 . S
C1527 C1529 1.419 . S
C1528 C1526 1.415 . S
C1528 C1533 1.425 . S
C1528 C1535 1.409 . S
C1529 H1521 0.930 . S
C1529 C1527 1.419 . S
C1529 C1530 1.362 . S
C1530 H1522 0.930 . S
C1530 C1529 1.362 . S
C1530 C1533 1.409 . S
C1531 H1523 0.930 . S
C1531 C1532 1.355 . S
C1531 C1533 1.415 . S
C1532 C1531 1.355 . S
C1532 C1534 1.419 . S
C1533 C1528 1.425 . S
C1533 C1530 1.409 . S
C1533 C1531 1.415 . S
C1534 H1524 0.930 . S
C1534 C1532 1.419 . S
C1534 C1535 1.362 . S
C1535 H1525 0.930 . S
C1535 C1528 1.409 . S
C1535 C1534 1.362 . S
H1536 C1542 0.930 . S
H1537 C1545 0.930 . S
H1538 C1546 0.930 . S
H1539 C1547 0.930 . S
H1540 C1550 0.930 . S
H1541 C1551 0.930 . S
C1542 H1536 0.930 . S
C1542 C1543 1.355 . S
C1542 C1544 1.415 . S
C1543 C1542 1.355 . S
C1543 C1545 1.419 . S
C1544 C1542 1.415 . S
C1544 C1549 1.425 . S
C1544 C1551 1.409 . S
C1545 H1537 0.930 . S
C1545 C1543 1.419 . S
C1545 C1546 1.362 . S
C1546 H1538 0.930 . S
C1546 C1545 1.362 . S
C1546 C1549 1.409 . S
C1547 H1539 0.930 . S
C1547 C1548 1.355 . S
C1547 C1549 1.415 . S
C1548 C1547 1.355 . S
C1548 C1550 1.419 . S
C1549 C1544 1.425 . S
C1549 C1546 1.409 . S
C1549 C1547 1.415 . S
C1550 H1540 0.930 . S
C1550 C1548 1.419 . S
C1550 C1551 1.362 . S
C1551 H1541 0.930 . S
C1551 C1544 1.409 . S
C1551 C1550 1.362 . S
H1552 C1558 0.930 . S
H1553 C1561 0.930 . S
H1554 C1562 0.930 . S
H1555 C1563 0.930 . S
H1556 C1566 0.930 . S
H1557 C1567 0.930 . S
C1558 H1552 0.930 . S
C1558 C1559 1.355 . S
C1558 C1560 1.415 . S
C1559 C1558 1.355 . S
C1559 C1561 1.419 . S
C1560 C1558 1.415 . S
C1560 C1565 1.425 . S
C1560 C1567 1.409 . S
C1561 H1553 0.930 . S
C1561 C1559 1.419 . S
C1561 C1562 1.362 . S
C1562 H1554 0.930 . S
C1562 C1561 1.362 . S
C1562 C1565 1.409 . S
C1563 H1555 0.930 . S
C1563 C1564 1.355 . S
C1563 C1565 1.415 . S
C1564 C1563 1.355 . S
C1564 C1566 1.419 . S
C1565 C1560 1.425 . S
C1565 C1562 1.409 . S
C1565 C1563 1.415 . S
C1566 H1556 0.930 . S
C1566 C1564 1.419 . S
C1566 C1567 1.362 . S
C1567 H1557 0.930 . S
C1567 C1560 1.409 . S
C1567 C1566 1.362 . S
H1568 C1574 0.930 . S
H1569 C1577 0.930 . S
H1570 C1578 0.930 . S
H1571 C1579 0.930 . S
H1572 C1582 0.930 . S
H1573 C1583 0.930 . S
C1574 H1568 0.930 . S
C1574 C1575 1.355 1_455 S
C1574 C1576 1.369 1_565 S
C1575 C1574 1.355 1_655 S
C1575 C1577 1.419 . S
C1576 C1574 1.369 1_545 S
C1576 C1581 1.418 1_445 S
C1576 C1583 1.461 . S
C1577 H1569 0.930 . S
C1577 C1575 1.419 . S
C1577 C1578 1.362 . S
C1578 H1570 0.930 . S
C1578 C1577 1.362 . S
C1578 C1581 1.461 . S
C1579 H1571 0.930 . S
C1579 C1580 1.355 1_655 S
C1579 C1581 1.369 1_545 S
C1580 C1579 1.355 1_455 S
C1580 C1582 1.419 . S
C1581 C1576 1.418 1_665 S
C1581 C1578 1.461 . S
C1581 C1579 1.369 1_565 S
C1582 H1572 0.930 . S
C1582 C1580 1.419 . S
C1582 C1583 1.362 . S
C1583 H1573 0.930 . S
C1583 C1576 1.461 . S
C1583 C1582 1.362 . S
H1584 C1590 0.930 . S
H1585 C1593 0.930 . S
H1586 C1594 0.930 . S
H1587 C1595 0.930 . S
H1588 C1598 0.930 . S
H1589 C1599 0.930 . S
C1590 H1584 0.930 . S
C1590 C1591 1.355 . S
C1590 C1592 1.415 . S
C1591 C1590 1.355 . S
C1591 C1593 1.419 . S
C1592 C1590 1.415 . S
C1592 C1597 1.425 . S
C1592 C1599 1.409 . S
C1593 H1585 0.930 . S
C1593 C1591 1.419 . S
C1593 C1594 1.362 . S
C1594 H1586 0.930 . S
C1594 C1593 1.362 . S
C1594 C1597 1.409 . S
C1595 H1587 0.930 . S
C1595 C1596 1.355 . S
C1595 C1597 1.415 . S
C1596 C1595 1.355 . S
C1596 C1598 1.419 . S
C1597 C1592 1.425 . S
C1597 C1594 1.409 . S
C1597 C1595 1.415 . S
C1598 H1588 0.930 . S
C1598 C1596 1.419 . S
C1598 C1599 1.362 . S
C1599 H1589 0.930 . S
C1599 C1592 1.409 . S
C1599 C1598 1.362 . S
H1600 C1606 0.930 . S
H1601 C1609 0.930 . S
H1602 C1610 0.930 . S
H1603 C1611 0.930 . S
H1604 C1614 0.930 . S
H1605 C1615 0.930 . S
C1606 H1600 0.930 . S
C1606 C1607 1.355 . S
C1606 C1608 1.415 . S
C1607 C1606 1.355 . S
C1607 C1609 1.419 1_655 S
C1608 C1606 1.415 . S
C1608 C1613 1.425 1_655 S
C1608 C1615 1.409 . S
C1609 H1601 0.930 . S
C1609 C1607 1.419 1_455 S
C1609 C1610 1.362 . S
C1610 H1602 0.930 . S
C1610 C1609 1.362 . S
C1610 C1613 1.409 . S
C1611 H1603 0.930 . S
C1611 C1612 1.355 . S
C1611 C1613 1.415 . S
C1612 C1611 1.355 . S
C1612 C1614 1.419 1_455 S
C1613 C1608 1.425 1_455 S
C1613 C1610 1.409 . S
C1613 C1611 1.415 . S
C1614 H1604 0.930 . S
C1614 C1612 1.419 1_655 S
C1614 C1615 1.362 . S
C1615 H1605 0.930 . S
C1615 C1608 1.409 . S
C1615 C1614 1.362 . S
H1616 C1622 0.930 . S
H1617 C1625 0.930 . S
H1618 C1626 0.930 . S
H1619 C1627 0.930 . S
H1620 C1630 0.930 . S
H1621 C1631 0.930 . S
C1622 H1616 0.930 . S
C1622 C1623 1.355 . S
C1622 C1624 1.415 . S
C1623 C1622 1.355 . S
C1623 C1625 1.419 . S
C1624 C1622 1.415 . S
C1624 C1629 1.425 1_565 S
C1624 C1631 1.409 . S
C1625 H1617 0.930 . S
C1625 C1623 1.419 . S
C1625 C1626 1.362 1_565 S
C1626 H1618 0.930 . S
C1626 C1625 1.362 1_545 S
C1626 C1629 1.409 . S
C1627 H1619 0.930 . S
C1627 C1628 1.355 . S
C1627 C1629 1.415 . S
C1628 C1627 1.355 . S
C1628 C1630 1.419 . S
C1629 C1624 1.425 1_545 S
C1629 C1626 1.409 . S
C1629 C1627 1.415 . S
C1630 H1620 0.930 . S
C1630 C1628 1.419 . S
C1630 C1631 1.362 1_545 S
C1631 H1621 0.930 . S
C1631 C1624 1.409 . S
C1631 C1630 1.362 1_565 S
H1632 C1638 0.930 . S
H1633 C1641 0.930 . S
H1634 C1642 0.930 . S
H1635 C1643 0.930 . S
H1636 C1646 0.930 . S
H1637 C1647 0.930 . S
C1638 H1632 0.930 . S
C1638 C1639 1.355 . S
C1638 C1640 1.415 . S
C1639 C1638 1.355 . S
C1639 C1641 1.419 . S
C1640 C1638 1.415 . S
C1640 C1645 1.425 . S
C1640 C1647 1.409 . S
C1641 H1633 0.930 . S
C1641 C1639 1.419 . S
C1641 C1642 1.362 . S
C1642 H1634 0.930 . S
C1642 C1641 1.362 . S
C1642 C1645 1.409 . S
C1643 H1635 0.930 . S
C1643 C1644 1.355 . S
C1643 C1645 1.415 . S
C1644 C1643 1.355 . S
C1644 C1646 1.419 . S
C1645 C1640 1.425 . S
C1645 C1642 1.409 . S
C1645 C1643 1.415 . S
C1646 H1636 0.930 . S
C1646 C1644 1.419 . S
C1646 C1647 1.362 . S
C1647 H1637 0.930 . S
C1647 C1640 1.409 . S
C1647 C1646 1.362 . S
H1648 C1654 0.930 . S
H1649 C1657 0.930 . S
H1650 C1658 0.930 . S
H1651 C1659 0.930 . S
H1652 C1662 0.930 . S
H1653 C1663 0.930 . S
C1654 H1648 0.930 . S
C1654 C1655 1.355 1_655 S
C1654 C1656 1.415 . S
C1655 C1654 1.355 1_455 S
C1655 C1657 1.419 . S
C1656 C1654 1.415 . S
C1656 C1661 1.425 1_655 S
C1656 C1663 1.409 . S
C1657 H1649 0.930 . S
C1657 C1655 1.419 . S
C1657 C1658 1.362 . S
C1658 H1650 0.930 . S
C1658 C1657 1.362 . S
C1658 C1661 1.409 . S
C1659 H1651 0.930 . S
C1659 C1660 1.355 1_455 S
C1659 C1661 1.415 . S
C1660 C1659 1.355 1_655 S
C1660 C1662 1.419 . S
C1661 C1656 1.425 1_455 S
C1661 C1658 1.409 . S
C1661 C1659 1.415 . S
C1662 H1652 0.930 . S
C1662 C1660 1.419 . S
C1662 C1663 1.362 . S
C1663 H1653 0.930 . S
C1663 C1656 1.409 . S
C1663 C1662 1.362 . S
H1664 C1670 0.930 . S
H1665 C1673 0.930 . S
H1666 C1674 0.930 . S
H1667 C1675 0.930 . S
H1668 C1678 0.930 . S
H1669 C1679 0.930 . S
C1670 H1664 0.930 . S
C1670 C1671 1.355 . S
C1670 C1672 1.415 . S
C1671 C1670 1.355 . S
C1671 C1673 1.419 . S
C1672 C1670 1.415 . S
C1672 C1677 1.425 1_565 S
C1672 C1679 1.409 1_565 S
C1673 H1665 0.930 . S
C1673 C1671 1.419 . S
C1673 C1674 1.362 . S
C1674 H1666 0.930 . S
C1674 C1673 1.362 . S
C1674 C1677 1.409 1_565 S
C1675 H1667 0.930 . S
C1675 C1676 1.355 . S
C1675 C1677 1.415 . S
C1676 C1675 1.355 . S
C1676 C1678 1.419 . S
C1677 C1672 1.425 1_545 S
C1677 C1674 1.409 1_545 S
C1677 C1675 1.415 . S
C1678 H1668 0.930 . S
C1678 C1676 1.419 . S
C1678 C1679 1.362 . S
C1679 H1669 0.930 . S
C1679 C1672 1.409 1_545 S
C1679 C1678 1.362 . S
H1680 C1686 0.930 . S
H1681 C1689 0.930 . S
H1682 C1690 0.930 1_556 S
H1683 C1691 0.930 . S
H1684 C1694 0.930 . S
H1685 C1695 0.930 1_554 S
C1686 H1680 0.930 . S
C1686 C1687 1.355 1_455 S
C1686 C1688 1.415 . S
C1687 C1686 1.355 1_655 S
C1687 C1689 1.419 . S
C1688 C1686 1.415 . S
C1688 C1693 1.425 1_454 S
C1688 C1695 1.409 1_554 S
C1689 H1681 0.930 . S
C1689 C1687 1.419 . S
C1689 C1690 1.362 . S
C1690 H1682 0.930 1_554 S
C1690 C1689 1.362 . S
C1690 C1693 1.409 1_554 S
C1691 H1683 0.930 . S
C1691 C1692 1.355 1_655 S
C1691 C1693 1.415 . S
C1692 C1691 1.355 1_455 S
C1692 C1694 1.419 . S
C1693 C1688 1.425 1_656 S
C1693 C1690 1.409 1_556 S
C1693 C1691 1.415 . S
C1694 H1684 0.930 . S
C1694 C1692 1.419 . S
C1694 C1695 1.362 . S
C1695 H1685 0.930 1_556 S
C1695 C1688 1.409 1_556 S
C1695 C1694 1.362 . S
H1696 C1702 0.930 . S
H1697 C1705 0.930 . S
H1698 C1706 0.930 . S
H1699 C1707 0.930 . S
H1700 C1710 0.930 . S
H1701 C1711 0.930 . S
C1702 H1696 0.930 . S
C1702 C1703 1.355 . S
C1702 C1704 1.415 . S
C1703 C1702 1.355 . S
C1703 C1705 1.419 . S
C1704 C1702 1.415 . S
C1704 C1709 1.425 1_556 S
C1704 C1711 1.409 . S
C1705 H1697 0.930 . S
C1705 C1703 1.419 . S
C1705 C1706 1.362 1_556 S
C1706 H1698 0.930 . S
C1706 C1705 1.362 1_554 S
C1706 C1709 1.409 . S
C1707 H1699 0.930 . S
C1707 C1708 1.355 . S
C1707 C1709 1.415 . S
C1708 C1707 1.355 . S
C1708 C1710 1.419 . S
C1709 C1704 1.425 1_554 S
C1709 C1706 1.409 . S
C1709 C1707 1.415 . S
C1710 H1700 0.930 . S
C1710 C1708 1.419 . S
C1710 C1711 1.362 1_554 S
C1711 H1701 0.930 . S
C1711 C1704 1.409 . S
C1711 C1710 1.362 1_556 S
H1712 C1718 0.930 . S
H1713 C1721 0.930 . S
H1714 C1722 0.930 . S
H1715 C1723 0.930 . S
H1716 C1726 0.930 . S
H1717 C1727 0.930 . S
C1718 H1712 0.930 . S
C1718 C1719 1.355 . S
C1718 C1720 1.415 . S
C1719 C1718 1.355 . S
C1719 C1721 1.419 . S
C1720 C1718 1.415 . S
C1720 C1725 1.425 . S
C1720 C1727 1.409 . S
C1721 H1713 0.930 . S
C1721 C1719 1.419 . S
C1721 C1722 1.362 . S
C1722 H1714 0.930 . S
C1722 C1721 1.362 . S
C1722 C1725 1.409 . S
C1723 H1715 0.930 . S
C1723 C1724 1.355 . S
C1723 C1725 1.415 . S
C1724 C1723 1.355 . S
C1724 C1726 1.419 . S
C1725 C1720 1.425 . S
C1725 C1722 1.409 . S
C1725 C1723 1.415 . S
C1726 H1716 0.930 . S
C1726 C1724 1.419 . S
C1726 C1727 1.362 . S
C1727 H1717 0.930 . S
C1727 C1720 1.409 . S
C1727 C1726 1.362 . S
H1728 C1734 0.930 . S
H1729 C1737 0.930 . S
H1730 C1738 0.930 . S
H1731 C1739 0.930 . S
H1732 C1742 0.930 . S
H1733 C1743 0.930 . S
C1734 H1728 0.930 . S
C1734 C1735 1.355 . S
C1734 C1736 1.415 . S
C1735 C1734 1.355 . S
C1735 C1737 1.419 1_556 S
C1736 C1734 1.415 . S
C1736 C1741 1.425 1_556 S
C1736 C1743 1.409 . S
C1737 H1729 0.930 . S
C1737 C1735 1.419 1_554 S
C1737 C1738 1.362 . S
C1738 H1730 0.930 . S
C1738 C1737 1.362 . S
C1738 C1741 1.409 . S
C1739 H1731 0.930 . S
C1739 C1740 1.355 . S
C1739 C1741 1.415 . S
C1740 C1739 1.355 . S
C1740 C1742 1.419 1_554 S
C1741 C1736 1.425 1_554 S
C1741 C1738 1.409 . S
C1741 C1739 1.415 . S
C1742 H1732 0.930 . S
C1742 C1740 1.419 1_556 S
C1742 C1743 1.362 . S
C1743 H1733 0.930 . S
C1743 C1736 1.409 . S
C1743 C1742 1.362 . S
H1744 C1750 0.930 . S
H1745 C1753 0.930 . S
H1746 C1754 0.930 . S
H1747 C1755 0.930 . S
H1748 C1758 0.930 . S
H1749 C1759 0.930 . S
C1750 H1744 0.930 . S
C1750 C1751 1.355 . S
C1750 C1752 1.415 . S
C1751 C1750 1.355 . S
C1751 C1753 1.419 . S
C1752 C1750 1.415 . S
C1752 C1757 1.425 . S
C1752 C1759 1.409 . S
C1753 H1745 0.930 . S
C1753 C1751 1.419 . S
C1753 C1754 1.362 . S
C1754 H1746 0.930 . S
C1754 C1753 1.362 . S
C1754 C1757 1.409 . S
C1755 H1747 0.930 . S
C1755 C1756 1.355 . S
C1755 C1757 1.415 . S
C1756 C1755 1.355 . S
C1756 C1758 1.419 . S
C1757 C1752 1.425 . S
C1757 C1754 1.409 . S
C1757 C1755 1.415 . S
C1758 H1748 0.930 . S
C1758 C1756 1.419 . S
C1758 C1759 1.362 . S
C1759 H1749 0.930 . S
C1759 C1752 1.409 . S
C1759 C1758 1.362 . S
H1760 C1766 0.930 . S
H1761 C1769 0.930 . S
H1762 C1770 0.930 . S
H1763 C1771 0.930 . S
H1764 C1774 0.930 . S
H1765 C1775 0.930 . S
C1766 H1760 0.930 . S
C1766 C1767 1.355 . S
C1766 C1768 1.415 1_545 S
C1767 C1766 1.355 . S
C1767 C1769 1.419 . S
C1768 C1766 1.415 1_565 S
C1768 C1773 1.425 1_566 S
C1768 C1775 1.409 . S
C1769 H1761 0.930 . S
C1769 C1767 1.419 . S
C1769 C1770 1.362 1_556 S
C1770 H1762 0.930 . S
C1770 C1769 1.362 1_554 S
C1770 C1773 1.409 . S
C1771 H1763 0.930 . S
C1771 C1772 1.355 . S
C1771 C1773 1.415 1_565 S
C1772 C1771 1.355 . S
C1772 C1774 1.419 . S
C1773 C1768 1.425 1_544 S
C1773 C1770 1.409 . S
C1773 C1771 1.415 1_545 S
C1774 H1764 0.930 . S
C1774 C1772 1.419 . S
C1774 C1775 1.362 1_554 S
C1775 H1765 0.930 . S
C1775 C1768 1.409 . S
C1775 C1774 1.362 1_556 S
H1776 C1782 0.930 . S
H1777 C1785 0.930 . S
H1778 C1786 0.930 . S
H1779 C1787 0.930 . S
H1780 C1790 0.930 . S
H1781 C1791 0.930 . S
C1782 H1776 0.930 . S
C1782 C1783 1.355 . S
C1782 C1784 1.415 . S
C1783 C1782 1.355 . S
C1783 C1785 1.419 . S
C1784 C1782 1.415 . S
C1784 C1789 1.425 . S
C1784 C1791 1.409 . S
C1785 H1777 0.930 . S
C1785 C1783 1.419 . S
C1785 C1786 1.362 . S
C1786 H1778 0.930 . S
C1786 C1785 1.362 . S
C1786 C1789 1.409 . S
C1787 H1779 0.930 . S
C1787 C1788 1.355 . S
C1787 C1789 1.415 . S
C1788 C1787 1.355 . S
C1788 C1790 1.419 . S
C1789 C1784 1.425 . S
C1789 C1786 1.409 . S
C1789 C1787 1.415 . S
C1790 H1780 0.930 . S
C1790 C1788 1.419 . S
C1790 C1791 1.362 . S
C1791 H1781 0.930 . S
C1791 C1784 1.409 . S
C1791 C1790 1.362 . S
H1792 C1798 0.930 . S
H1793 C1801 0.930 . S
H1794 C1802 0.930 . S
H1795 C1803 0.930 . S
H1796 C1806 0.930 . S
H1797 C1807 0.930 . S
C1798 H1792 0.930 . S
C1798 C1799 1.355 . S
C1798 C1800 1.415 . S
C1799 C1798 1.355 . S
C1799 C1801 1.419 . S
C1800 C1798 1.415 . S
C1800 C1805 1.425 . S
C1800 C1807 1.409 . S
C1801 H1793 0.930 . S
C1801 C1799 1.419 . S
C1801 C1802 1.362 . S
C1802 H1794 0.930 . S
C1802 C1801 1.362 . S
C1802 C1805 1.409 . S
C1803 H1795 0.930 . S
C1803 C1804 1.355 . S
C1803 C1805 1.415 . S
C1804 C1803 1.355 . S
C1804 C1806 1.419 . S
C1805 C1800 1.425 . S
C1805 C1802 1.409 . S
C1805 C1803 1.415 . S
C1806 H1796 0.930 . S
C1806 C1804 1.419 . S
C1806 C1807 1.362 . S
C1807 H1797 0.930 . S
C1807 C1800 1.409 . S
C1807 C1806 1.362 . S
H1808 C1814 0.930 . S
H1809 C1817 0.930 . S
H1810 C1818 0.930 . S
H1811 C1819 0.930 . S
H1812 C1822 0.930 . S
H1813 C1823 0.930 . S
C1814 H1808 0.930 . S
C1814 C1815 1.355 . S
C1814 C1816 1.415 . S
C1815 C1814 1.355 . S
C1815 C1817 1.419 . S
C1816 C1814 1.415 . S
C1816 C1821 1.425 . S
C1816 C1823 1.409 . S
C1817 H1809 0.930 . S
C1817 C1815 1.419 . S
C1817 C1818 1.362 . S
C1818 H1810 0.930 . S
C1818 C1817 1.362 . S
C1818 C1821 1.409 . S
C1819 H1811 0.930 . S
C1819 C1820 1.355 . S
C1819 C1821 1.415 . S
C1820 C1819 1.355 . S
C1820 C1822 1.419 . S
C1821 C1816 1.425 . S
C1821 C1818 1.409 . S
C1821 C1819 1.415 . S
C1822 H1812 0.930 . S
C1822 C1820 1.419 . S
C1822 C1823 1.362 . S
C1823 H1813 0.930 . S
C1823 C1816 1.409 . S
C1823 C1822 1.362 . S
H1824 C1830 0.930 . S
H1825 C1833 0.930 . S
H1826 C1834 0.930 . S
H1827 C1835 0.930 . S
H1828 C1838 0.930 . S
H1829 C1839 0.930 . S
C1830 H1824 0.930 . S
C1830 C1831 1.355 . S
C1830 C1832 1.415 . S
C1831 C1830 1.355 . S
C1831 C1833 1.419 . S
C1832 C1830 1.415 . S
C1832 C1837 1.425 . S
C1832 C1839 1.409 . S
C1833 H1825 0.930 . S
C1833 C1831 1.419 . S
C1833 C1834 1.362 . S
C1834 H1826 0.930 . S
C1834 C1833 1.362 . S
C1834 C1837 1.409 . S
C1835 H1827 0.930 . S
C1835 C1836 1.355 . S
C1835 C1837 1.415 . S
C1836 C1835 1.355 . S
C1836 C1838 1.419 . S
C1837 C1832 1.425 . S
C1837 C1834 1.409 . S
C1837 C1835 1.415 . S
C1838 H1828 0.930 . S
C1838 C1836 1.419 . S
C1838 C1839 1.362 . S
C1839 H1829 0.930 . S
C1839 C1832 1.409 . S
C1839 C1838 1.362 . S
H1840 C1846 0.930 . S
H1841 C1849 0.930 . S
H1842 C1850 0.930 . S
H1843 C1851 0.930 . S
H1844 C1854 0.930 . S
H1845 C1855 0.930 . S
C1846 H1840 0.930 . S
C1846 C1847 1.355 . S
C1846 C1848 1.415 . S
C1847 C1846 1.355 . S
C1847 C1849 1.419 . S
C1848 C1846 1.415 . S
C1848 C1853 1.425 . S
C1848 C1855 1.409 . S
C1849 H1841 0.930 . S
C1849 C1847 1.419 . S
C1849 C1850 1.362 . S
C1850 H1842 0.930 . S
C1850 C1849 1.362 . S
C1850 C1853 1.409 . S
C1851 H1843 0.930 . S
C1851 C1852 1.355 . S
C1851 C1853 1.415 . S
C1852 C1851 1.355 . S
C1852 C1854 1.419 . S
C1853 C1848 1.425 . S
C1853 C1850 1.409 . S
C1853 C1851 1.415 . S
C1854 H1844 0.930 . S
C1854 C1852 1.419 . S
C1854 C1855 1.362 . S
C1855 H1845 0.930 . S
C1855 C1848 1.409 . S
C1855 C1854 1.362 . S
H1856 C1862 0.930 . S
H1857 C1865 0.930 . S
H1858 C1866 0.930 . S
H1859 C1867 0.930 . S
H1860 C1870 0.930 . S
H1861 C1871 0.930 . S
C1862 H1856 0.930 . S
C1862 C1863 1.355 . S
C1862 C1864 1.415 . S
C1863 C1862 1.355 . S
C1863 C1865 1.419 . S
C1864 C1862 1.415 . S
C1864 C1869 1.425 . S
C1864 C1871 1.409 . S
C1865 H1857 0.930 . S
C1865 C1863 1.419 . S
C1865 C1866 1.362 . S
C1866 H1858 0.930 . S
C1866 C1865 1.362 . S
C1866 C1869 1.409 . S
C1867 H1859 0.930 . S
C1867 C1868 1.355 . S
C1867 C1869 1.415 . S
C1868 C1867 1.355 . S
C1868 C1870 1.419 . S
C1869 C1864 1.425 . S
C1869 C1866 1.409 . S
C1869 C1867 1.415 . S
C1870 H1860 0.930 . S
C1870 C1868 1.419 . S
C1870 C1871 1.362 . S
C1871 H1861 0.930 . S
C1871 C1864 1.409 . S
C1871 C1870 1.362 . S
H1872 C1878 0.930 . S
H1873 C1881 0.930 . S
H1874 C1882 0.930 . S
H1875 C1883 0.930 . S
H1876 C1886 0.930 . S
H1877 C1887 0.930 . S
C1878 H1872 0.930 . S
C1878 C1879 1.355 . S
C1878 C1880 1.415 . S
C1879 C1878 1.355 . S
C1879 C1881 1.419 . S
C1880 C1878 1.415 . S
C1880 C1885 1.425 . S
C1880 C1887 1.409 . S
C1881 H1873 0.930 . S
C1881 C1879 1.419 . S
C1881 C1882 1.362 . S
C1882 H1874 0.930 . S
C1882 C1881 1.362 . S
C1882 C1885 1.409 . S
C1883 H1875 0.930 . S
C1883 C1884 1.355 . S
C1883 C1885 1.415 . S
C1884 C1883 1.355 . S
C1884 C1886 1.419 . S
C1885 C1880 1.425 . S
C1885 C1882 1.409 . S
C1885 C1883 1.415 . S
C1886 H1876 0.930 . S
C1886 C1884 1.419 . S
C1886 C1887 1.362 . S
C1887 H1877 0.930 . S
C1887 C1880 1.409 . S
C1887 C1886 1.362 . S
H1888 C1894 0.930 . S
H1889 C1897 0.930 . S
H1890 C1898 0.930 . S
H1891 C1899 0.930 . S
H1892 C1902 0.930 . S
H1893 C1903 0.930 . S
C1894 H1888 0.930 . S
C1894 C1895 1.355 . S
C1894 C1896 1.415 . S
C1895 C1894 1.355 . S
C1895 C1897 1.419 . S
C1896 C1894 1.415 . S
C1896 C1901 1.425 . S
C1896 C1903 1.409 . S
C1897 H1889 0.930 . S
C1897 C1895 1.419 . S
C1897 C1898 1.362 . S
C1898 H1890 0.930 . S
C1898 C1897 1.362 . S
C1898 C1901 1.409 . S
C1899 H1891 0.930 . S
C1899 C1900 1.355 . S
C1899 C1901 1.415 . S
C1900 C1899 1.355 . S
C1900 C1902 1.419 . S
C1901 C1896 1.425 . S
C1901 C1898 1.409 . S
C1901 C1899 1.415 . S
C1902 H1892 0.930 . S
C1902 C1900 1.419 . S
C1902 C1903 1.362 . S
C1903 H1893 0.930 . S
C1903 C1896 1.409 . S
C1903 C1902 1.362 . S
H1904 C1910 0.930 . S
H1905 C1913 0.930 . S
H1906 C1914 0.930 . S
H1907 C1915 0.930 . S
H1908 C1918 0.930 . S
H1909 C1919 0.930 . S
C1910 H1904 0.930 . S
C1910 C1911 1.355 . S
C1910 C1912 1.415 . S
C1911 C1910 1.355 . S
C1911 C1913 1.419 . S
C1912 C1910 1.415 . S
C1912 C1917 1.425 . S
C1912 C1919 1.409 . S
C1913 H1905 0.930 . S
C1913 C1911 1.419 . S
C1913 C1914 1.362 . S
C1914 H1906 0.930 . S
C1914 C1913 1.362 . S
C1914 C1917 1.409 . S
C1915 H1907 0.930 . S
C1915 C1916 1.355 . S
C1915 C1917 1.415 . S
C1916 C1915 1.355 . S
C1916 C1918 1.419 . S
C1917 C1912 1.425 . S
C1917 C1914 1.409 . S
C1917 C1915 1.415 . S
C1918 H1908 0.930 . S
C1918 C1916 1.419 . S
C1918 C1919 1.362 . S
C1919 H1909 0.930 . S
C1919 C1912 1.409 . S
C1919 C1918 1.362 . S
H1920 C1926 0.930 . S
H1921 C1929 0.930 . S
H1922 C1930 0.930 . S
H1923 C1931 0.930 . S
H1924 C1934 0.930 . S
H1925 C1935 0.930 . S
C1926 H1920 0.930 . S
C1926 C1927 1.355 . S
C1926 C1928 1.415 . S
C1927 C1926 1.355 . S
C1927 C1929 1.419 . S
C1928 C1926 1.415 . S
C1928 C1933 1.425 . S
C1928 C1935 1.409 . S
C1929 H1921 0.930 . S
C1929 C1927 1.419 . S
C1929 C1930 1.362 . S
C1930 H1922 0.930 . S
C1930 C1929 1.362 . S
C1930 C1933 1.409 . S
C1931 H1923 0.930 . S
C1931 C1932 1.355 . S
C1931 C1933 1.415 . S
C1932 C1931 1.355 . S
C1932 C1934 1.419 . S
C1933 C1928 1.425 . S
C1933 C1930 1.409 . S
C1933 C1931 1.415 . S
C1934 H1924 0.930 . S
C1934 C1932 1.419 . S
C1934 C1935 1.362 . S
C1935 H1925 0.930 . S
C1935 C1928 1.409 . S
C1935 C1934 1.362 . S
H1936 C1942 0.930 . S
H1937 C1945 0.930 . S
H1938 C1946 0.930 . S
H1939 C1947 0.930 . S
H1940 C1950 0.930 . S
H1941 C1951 0.930 . S
C1942 H1936 0.930 . S
C1942 C1943 1.355 . S
C1942 C1944 1.415 . S
C1943 C1942 1.355 . S
C1943 C1945 1.419 . S
C1944 C1942 1.415 . S
C1944 C1949 1.425 . S
C1944 C1951 1.409 . S
C1945 H1937 0.930 . S
C1945 C1943 1.419 . S
C1945 C1946 1.362 . S
C1946 H1938 0.930 . S
C1946 C1945 1.362 . S
C1946 C1949 1.409 . S
C1947 H1939 0.930 . S
C1947 C1948 1.355 . S
C1947 C1949 1.415 . S
C1948 C1947 1.355 . S
C1948 C1950 1.419 . S
C1949 C1944 1.425 . S
C1949 C1946 1.409 . S
C1949 C1947 1.415 . S
C1950 H1940 0.930 . S
C1950 C1948 1.419 . S
C1950 C1951 1.362 . S
C1951 H1941 0.930 . S
C1951 C1944 1.409 . S
C1951 C1950 1.362 . S
H1952 C1958 0.930 . S
H1953 C1961 0.930 . S
H1954 C1962 0.930 . S
H1955 C1963 0.930 . S
H1956 C1966 0.930 . S
H1957 C1967 0.930 . S
C1958 H1952 0.930 . S
C1958 C1959 1.355 . S
C1958 C1960 1.415 . S
C1959 C1958 1.355 . S
C1959 C1961 1.419 . S
C1960 C1958 1.415 . S
C1960 C1965 1.425 . S
C1960 C1967 1.409 . S
C1961 H1953 0.930 . S
C1961 C1959 1.419 . S
C1961 C1962 1.362 . S
C1962 H1954 0.930 . S
C1962 C1961 1.362 . S
C1962 C1965 1.409 . S
C1963 H1955 0.930 . S
C1963 C1964 1.355 . S
C1963 C1965 1.415 . S
C1964 C1963 1.355 . S
C1964 C1966 1.419 . S
C1965 C1960 1.425 . S
C1965 C1962 1.409 . S
C1965 C1963 1.415 . S
C1966 H1956 0.930 . S
C1966 C1964 1.419 . S
C1966 C1967 1.362 . S
C1967 H1957 0.930 . S
C1967 C1960 1.409 . S
C1967 C1966 1.362 . S
H1968 C1974 0.930 . S
H1969 C1977 0.930 . S
H1970 C1978 0.930 . S
H1971 C1979 0.930 . S
H1972 C1982 0.930 . S
H1973 C1983 0.930 . S
C1974 H1968 0.930 . S
C1974 C1975 1.355 . S
C1974 C1976 1.415 . S
C1975 C1974 1.355 . S
C1975 C1977 1.419 . S
C1976 C1974 1.415 . S
C1976 C1981 1.425 . S
C1976 C1983 1.409 . S
C1977 H1969 0.930 . S
C1977 C1975 1.419 . S
C1977 C1978 1.362 . S
C1978 H1970 0.930 . S
C1978 C1977 1.362 . S
C1978 C1981 1.409 . S
C1979 H1971 0.930 . S
C1979 C1980 1.355 . S
C1979 C1981 1.415 . S
C1980 C1979 1.355 . S
C1980 C1982 1.419 . S
C1981 C1976 1.425 . S
C1981 C1978 1.409 . S
C1981 C1979 1.415 . S
C1982 H1972 0.930 . S
C1982 C1980 1.419 . S
C1982 C1983 1.362 . S
C1983 H1973 0.930 . S
C1983 C1976 1.409 . S
C1983 C1982 1.362 . S
H1984 C1990 0.930 . S
H1985 C1993 0.930 . S
H1986 C1994 0.930 . S
H1987 C1995 0.930 . S
H1988 C1998 0.930 . S
H1989 C1999 0.930 . S
C1990 H1984 0.930 . S
C1990 C1991 1.355 . S
C1990 C1992 1.415 . S
C1991 C1990 1.355 . S
C1991 C1993 1.419 . S
C1992 C1990 1.415 . S
C1992 C1997 1.425 . S
C1992 C1999 1.409 . S
C1993 H1985 0.930 . S
C1993 C1991 1.419 . S
C1993 C1994 1.362 . S
C1994 H1986 0.930 . S
C1994 C1993 1.362 . S
C1994 C1997 1.409 . S
C1995 H1987 0.930 . S
C1995 C1996 1.355 . S
C1995 C1997 1.415 . S
C1996 C1995 1.355 . S
C1996 C1998 1.419 . S
C1997 C1992 1.425 . S
C1997 C1994 1.409 . S
C1997 C1995 1.415 . S
C1998 H1988 0.930 . S
C1998 C1996 1.419 . S
C1998 C1999 1.362 . S
C1999 H1989 0.930 . S
C1999 C1992 1.409 . S
C1999 C1998 1.362 . S
H2000 C2006 0.930 . S
H2001 C2009 0.930 . S
H2002 C2010 0.930 . S
H2003 C2011 0.930 . S
H2004 C2014 0.930 . S
H2005 C2015 0.930 . S
C2006 H2000 0.930 . S
C2006 C2007 1.355 . S
C2006 C2008 1.415 . S
C2007 C2006 1.355 . S
C2007 C2009 1.419 . S
C2008 C2006 1.415 . S
C2008 C2013 1.425 . S
C2008 C2015 1.409 . S
C2009 H2001 0.930 . S
C2009 C2007 1.419 . S
C2009 C2010 1.362 . S
C2010 H2002 0.930 . S
C2010 C2009 1.362 . S
C2010 C2013 1.409 . S
C2011 H2003 0.930 . S
C2011 C2012 1.355 . S
C2011 C2013 1.415 . S
C2012 C2011 1.355 . S
C2012 C2014 1.419 . S
C2013 C2008 1.425 . S
C2013 C2010 1.409 . S
C2013 C2011 1.415 . S
C2014 H2004 0.930 . S
C2014 C2012 1.419 . S
C2014 C2015 1.362 . S
C2015 H2005 0.930 . S
C2015 C2008 1.409 . S
C2015 C2014 1.362 . S
H2016 C2022 0.930 . S
H2017 C2025 0.930 . S
H2018 C2026 0.930 . S
H2019 C2027 0.930 . S
H2020 C2030 0.930 . S
H2021 C2031 0.930 . S
C2022 H2016 0.930 . S
C2022 C2023 1.355 . S
C2022 C2024 1.415 . S
C2023 C2022 1.355 . S
C2023 C2025 1.419 . S
C2024 C2022 1.415 . S
C2024 C2029 1.425 . S
C2024 C2031 1.409 . S
C2025 H2017 0.930 . S
C2025 C2023 1.419 . S
C2025 C2026 1.362 . S
C2026 H2018 0.930 . S
C2026 C2025 1.362 . S
C2026 C2029 1.409 . S
C2027 H2019 0.930 . S
C2027 C2028 1.355 . S
C2027 C2029 1.415 . S
C2028 C2027 1.355 . S
C2028 C2030 1.419 . S
C2029 C2024 1.425 . S
C2029 C2026 1.409 . S
C2029 C2027 1.415 . S
C2030 H2020 0.930 . S
C2030 C2028 1.419 . S
C2030 C2031 1.362 . S
C2031 H2021 0.930 . S
C2031 C2024 1.409 . S
C2031 C2030 1.362 . S
H2032 C2038 0.930 . S
H2033 C2041 0.930 . S
H2034 C2042 0.930 . S
H2035 C2043 0.930 . S
H2036 C2046 0.930 . S
H2037 C2047 0.930 . S
C2038 H2032 0.930 . S
C2038 C2039 1.355 . S
C2038 C2040 1.415 . S
C2039 C2038 1.355 . S
C2039 C2041 1.419 . S
C2040 C2038 1.415 . S
C2040 C2045 1.425 . S
C2040 C2047 1.409 . S
C2041 H2033 0.930 . S
C2041 C2039 1.419 . S
C2041 C2042 1.362 . S
C2042 H2034 0.930 . S
C2042 C2041 1.362 . S
C2042 C2045 1.409 . S
C2043 H2035 0.930 . S
C2043 C2044 1.355 . S
C2043 C2045 1.415 . S
C2044 C2043 1.355 . S
C2044 C2046 1.419 . S
C2045 C2040 1.425 . S
C2045 C2042 1.409 . S
C2045 C2043 1.415 . S
C2046 H2036 0.930 . S
C2046 C2044 1.419 . S
C2046 C2047 1.362 . S
C2047 H2037 0.930 . S
C2047 C2040 1.409 . S
C2047 C2046 1.362 . S
H2048 C2054 0.930 . S
H2049 C2057 0.930 . S
H2050 C2058 0.930 . S
H2051 C2059 0.930 . S
H2052 C2062 0.930 . S
H2053 C2063 0.930 . S
C2054 H2048 0.930 . S
C2054 C2055 1.355 . S
C2054 C2056 1.415 . S
C2055 C2054 1.355 . S
C2055 C2057 1.419 . S
C2056 C2054 1.415 . S
C2056 C2061 1.425 . S
C2056 C2063 1.409 . S
C2057 H2049 0.930 . S
C2057 C2055 1.419 . S
C2057 C2058 1.362 . S
C2058 H2050 0.930 . S
C2058 C2057 1.362 . S
C2058 C2061 1.409 . S
C2059 H2051 0.930 . S
C2059 C2060 1.355 . S
C2059 C2061 1.415 . S
C2060 C2059 1.355 . S
C2060 C2062 1.419 . S
C2061 C2056 1.425 . S
C2061 C2058 1.409 . S
C2061 C2059 1.415 . S
C2062 H2052 0.930 . S
C2062 C2060 1.419 . S
C2062 C2063 1.362 . S
C2063 H2053 0.930 . S
C2063 C2056 1.409 . S
C2063 C2062 1.362 . S
H2064 C2070 0.930 . S
H2065 C2073 0.930 . S
H2066 C2074 0.930 . S
H2067 C2075 0.930 . S
H2068 C2078 0.930 . S
H2069 C2079 0.930 . S
C2070 H2064 0.930 . S
C2070 C2071 1.355 . S
C2070 C2072 1.415 . S
C2071 C2070 1.355 . S
C2071 C2073 1.419 . S
C2072 C2070 1.415 . S
C2072 C2077 1.425 . S
C2072 C2079 1.409 . S
C2073 H2065 0.930 . S
C2073 C2071 1.419 . S
C2073 C2074 1.362 . S
C2074 H2066 0.930 . S
C2074 C2073 1.362 . S
C2074 C2077 1.409 . S
C2075 H2067 0.930 . S
C2075 C2076 1.355 . S
C2075 C2077 1.415 . S
C2076 C2075 1.355 . S
C2076 C2078 1.419 . S
C2077 C2072 1.425 . S
C2077 C2074 1.409 . S
C2077 C2075 1.415 . S
C2078 H2068 0.930 . S
C2078 C2076 1.419 . S
C2078 C2079 1.362 . S
C2079 H2069 0.930 . S
C2079 C2072 1.409 . S
C2079 C2078 1.362 . S
H2080 C2086 0.930 . S
H2081 C2089 0.930 . S
H2082 C2090 0.930 . S
H2083 C2091 0.930 . S
H2084 C2094 0.930 . S
H2085 C2095 0.930 . S
C2086 H2080 0.930 . S
C2086 C2087 1.355 . S
C2086 C2088 1.415 . S
C2087 C2086 1.355 . S
C2087 C2089 1.419 1_455 S
C2088 C2086 1.415 . S
C2088 C2093 1.425 1_455 S
C2088 C2095 1.409 . S
C2089 H2081 0.930 . S
C2089 C2087 1.419 1_655 S
C2089 C2090 1.362 . S
C2090 H2082 0.930 . S
C2090 C2089 1.362 . S
C2090 C2093 1.409 . S
C2091 H2083 0.930 . S
C2091 C2092 1.355 1_655 S
C2091 C2093 1.415 . S
C2092 C2091 1.355 1_455 S
C2092 C2094 1.419 . S
C2093 C2088 1.425 1_655 S
C2093 C2090 1.409 . S
C2093 C2091 1.415 . S
C2094 H2084 0.930 . S
C2094 C2092 1.419 . S
C2094 C2095 1.362 . S
C2095 H2085 0.930 . S
C2095 C2088 1.409 . S
C2095 C2094 1.362 . S
H2096 C2102 0.930 . S
H2097 C2105 0.930 . S
H2098 C2106 0.930 . S
H2099 C2107 0.930 . S
H2100 C2110 0.930 . S
H2101 C2111 0.930 . S
C2102 H2096 0.930 . S
C2102 C2103 1.355 . S
C2102 C2104 1.415 . S
C2103 C2102 1.355 . S
C2103 C2105 1.419 . S
C2104 C2102 1.415 . S
C2104 C2109 1.425 . S
C2104 C2111 1.409 . S
C2105 H2097 0.930 . S
C2105 C2103 1.419 . S
C2105 C2106 1.362 . S
C2106 H2098 0.930 . S
C2106 C2105 1.362 . S
C2106 C2109 1.409 . S
C2107 H2099 0.930 . S
C2107 C2108 1.355 . S
C2107 C2109 1.415 . S
C2108 C2107 1.355 . S
C2108 C2110 1.419 . S
C2109 C2104 1.425 . S
C2109 C2106 1.409 . S
C2109 C2107 1.415 . S
C2110 H2100 0.930 . S
C2110 C2108 1.419 . S
C2110 C2111 1.362 . S
C2111 H2101 0.930 . S
C2111 C2104 1.409 . S
C2111 C2110 1.362 . S
H2112 C2118 0.930 . S
H2113 C2121 0.930 . S
H2114 C2122 0.930 . S
H2115 C2123 0.930 . S
H2116 C2126 0.930 . S
H2117 C2127 0.930 . S
C2118 H2112 0.930 . S
C2118 C2119 1.355 . S
C2118 C2120 1.415 . S
C2119 C2118 1.355 . S
C2119 C2121 1.419 1_655 S
C2120 C2118 1.415 . S
C2120 C2125 1.425 1_655 S
C2120 C2127 1.409 . S
C2121 H2113 0.930 . S
C2121 C2119 1.419 1_455 S
C2121 C2122 1.362 . S
C2122 H2114 0.930 . S
C2122 C2121 1.362 . S
C2122 C2125 1.409 . S
C2123 H2115 0.930 . S
C2123 C2124 1.355 1_455 S
C2123 C2125 1.415 . S
C2124 C2123 1.355 1_655 S
C2124 C2126 1.419 . S
C2125 C2120 1.425 1_455 S
C2125 C2122 1.409 . S
C2125 C2123 1.415 . S
C2126 H2116 0.930 . S
C2126 C2124 1.419 . S
C2126 C2127 1.362 . S
C2127 H2117 0.930 . S
C2127 C2120 1.409 . S
C2127 C2126 1.362 . S
H2128 C2134 0.930 . S
H2129 C2137 0.930 . S
H2130 C2138 0.930 . S
H2131 C2139 0.930 . S
H2132 C2142 0.930 1_554 S
H2133 C2143 0.930 . S
C2134 H2128 0.930 . S
C2134 C2135 1.355 . S
C2134 C2136 1.415 . S
C2135 C2134 1.355 . S
C2135 C2137 1.419 . S
C2136 C2134 1.415 . S
C2136 C2141 1.425 . S
C2136 C2143 1.409 . S
C2137 H2129 0.930 . S
C2137 C2135 1.419 . S
C2137 C2138 1.362 . S
C2138 H2130 0.930 . S
C2138 C2137 1.362 . S
C2138 C2141 1.409 . S
C2139 H2131 0.930 . S
C2139 C2140 1.355 . S
C2139 C2141 1.415 . S
C2140 C2139 1.355 . S
C2140 C2142 1.419 . S
C2141 C2136 1.425 . S
C2141 C2138 1.409 . S
C2141 C2139 1.415 . S
C2142 H2132 0.930 1_556 S
C2142 C2140 1.419 . S
C2142 C2143 1.362 . S
C2143 H2133 0.930 . S
C2143 C2136 1.409 . S
C2143 C2142 1.362 . S
H2144 C2150 0.930 . S
H2145 C2153 0.930 . S
H2146 C2154 0.930 . S
H2147 C2155 0.930 . S
H2148 C2158 0.930 . S
H2149 C2159 0.930 . S
C2150 H2144 0.930 . S
C2150 C2151 1.355 1_655 S
C2150 C2152 1.415 . S
C2151 C2150 1.355 1_455 S
C2151 C2153 1.419 . S
C2152 C2150 1.415 . S
C2152 C2157 1.425 1_655 S
C2152 C2159 1.409 . S
C2153 H2145 0.930 . S
C2153 C2151 1.419 . S
C2153 C2154 1.362 . S
C2154 H2146 0.930 . S
C2154 C2153 1.362 . S
C2154 C2157 1.409 . S
C2155 H2147 0.930 . S
C2155 C2156 1.355 . S
C2155 C2157 1.415 . S
C2156 C2155 1.355 . S
C2156 C2158 1.419 1_455 S
C2157 C2152 1.425 1_455 S
C2157 C2154 1.409 . S
C2157 C2155 1.415 . S
C2158 H2148 0.930 . S
C2158 C2156 1.419 1_655 S
C2158 C2159 1.362 . S
C2159 H2149 0.930 . S
C2159 C2152 1.409 . S
C2159 C2158 1.362 . S
H2160 C2166 0.930 . S
H2161 C2169 0.930 . S
H2162 C2170 0.930 . S
H2163 C2171 0.930 . S
H2164 C2174 0.930 . S
H2165 C2175 0.930 . S
C2166 H2160 0.930 . S
C2166 C2167 1.355 . S
C2166 C2168 1.415 . S
C2167 C2166 1.355 . S
C2167 C2169 1.419 . S
C2168 C2166 1.415 . S
C2168 C2173 1.425 . S
C2168 C2175 1.409 . S
C2169 H2161 0.930 . S
C2169 C2167 1.419 . S
C2169 C2170 1.362 . S
C2170 H2162 0.930 . S
C2170 C2169 1.362 . S
C2170 C2173 1.409 . S
C2171 H2163 0.930 . S
C2171 C2172 1.355 . S
C2171 C2173 1.415 . S
C2172 C2171 1.355 . S
C2172 C2174 1.419 . S
C2173 C2168 1.425 . S
C2173 C2170 1.409 . S
C2173 C2171 1.415 . S
C2174 H2164 0.930 . S
C2174 C2172 1.419 . S
C2174 C2175 1.362 . S
C2175 H2165 0.930 . S
C2175 C2168 1.409 . S
C2175 C2174 1.362 . S
H2176 C2182 0.930 . S
H2177 C2185 0.930 . S
H2178 C2186 0.930 . S
H2179 C2187 0.930 . S
H2180 C2190 0.930 . S
H2181 C2191 0.930 . S
C2182 H2176 0.930 . S
C2182 C2183 1.355 1_455 S
C2182 C2184 1.415 . S
C2183 C2182 1.355 1_655 S
C2183 C2185 1.419 . S
C2184 C2182 1.415 . S
C2184 C2189 1.425 1_455 S
C2184 C2191 1.409 . S
C2185 H2177 0.930 . S
C2185 C2183 1.419 . S
C2185 C2186 1.362 . S
C2186 H2178 0.930 . S
C2186 C2185 1.362 . S
C2186 C2189 1.409 . S
C2187 H2179 0.930 . S
C2187 C2188 1.355 . S
C2187 C2189 1.415 . S
C2188 C2187 1.355 . S
C2188 C2190 1.419 1_655 S
C2189 C2184 1.425 1_655 S
C2189 C2186 1.409 . S
C2189 C2187 1.415 . S
C2190 H2180 0.930 . S
C2190 C2188 1.419 1_455 S
C2190 C2191 1.362 . S
C2191 H2181 0.930 . S
C2191 C2184 1.409 . S
C2191 C2190 1.362 . S
H2192 C2198 0.930 . S
H2193 C2201 0.930 . S
H2194 C2202 0.930 . S
H2195 C2203 0.930 . S
H2196 C2206 0.930 . S
H2197 C2207 0.930 . S
C2198 H2192 0.930 . S
C2198 C2199 1.355 . S
C2198 C2200 1.415 . S
C2199 C2198 1.355 . S
C2199 C2201 1.419 . S
C2200 C2198 1.415 . S
C2200 C2205 1.425 . S
C2200 C2207 1.409 . S
C2201 H2193 0.930 . S
C2201 C2199 1.419 . S
C2201 C2202 1.362 . S
C2202 H2194 0.930 . S
C2202 C2201 1.362 . S
C2202 C2205 1.409 . S
C2203 H2195 0.930 . S
C2203 C2204 1.355 . S
C2203 C2205 1.415 . S
C2204 C2203 1.355 . S
C2204 C2206 1.419 . S
C2205 C2200 1.425 . S
C2205 C2202 1.409 . S
C2205 C2203 1.415 . S
C2206 H2196 0.930 . S
C2206 C2204 1.419 . S
C2206 C2207 1.362 . S
C2207 H2197 0.930 . S
C2207 C2200 1.409 . S
C2207 C2206 1.362 . S
H2208 C2214 0.930 . S
H2209 C2217 0.930 . S
H2210 C2218 0.930 . S
H2211 C2219 0.930 . S
H2212 C2222 0.930 . S
H2213 C2223 0.930 . S
C2214 H2208 0.930 . S
C2214 C2215 1.355 . S
C2214 C2216 1.415 . S
C2215 C2214 1.355 . S
C2215 C2217 1.419 . S
C2216 C2214 1.415 . S
C2216 C2221 1.425 . S
C2216 C2223 1.409 . S
C2217 H2209 0.930 . S
C2217 C2215 1.419 . S
C2217 C2218 1.362 . S
C2218 H2210 0.930 . S
C2218 C2217 1.362 . S
C2218 C2221 1.409 . S
C2219 H2211 0.930 . S
C2219 C2220 1.355 . S
C2219 C2221 1.415 . S
C2220 C2219 1.355 . S
C2220 C2222 1.419 . S
C2221 C2216 1.425 . S
C2221 C2218 1.409 . S
C2221 C2219 1.415 . S
C2222 H2212 0.930 . S
C2222 C2220 1.419 . S
C2222 C2223 1.362 . S
C2223 H2213 0.930 . S
C2223 C2216 1.409 . S
C2223 C2222 1.362 . S
H2224 C2230 0.930 . S
H2225 C2233 0.930 . S
H2226 C2234 0.930 . S
H2227 C2235 0.930 . S
H2228 C2238 0.930 . S
H2229 C2239 0.930 . S
C2230 H2224 0.930 . S
C2230 C2231 1.355 . S
C2230 C2232 1.415 . S
C2231 C2230 1.355 . S
C2231 C2233 1.419 . S
C2232 C2230 1.415 . S
C2232 C2237 1.425 . S
C2232 C2239 1.409 . S
C2233 H2225 0.930 . S
C2233 C2231 1.419 . S
C2233 C2234 1.362 . S
C2234 H2226 0.930 . S
C2234 C2233 1.362 . S
C2234 C2237 1.409 . S
C2235 H2227 0.930 . S
C2235 C2236 1.355 . S
C2235 C2237 1.415 . S
C2236 C2235 1.355 . S
C2236 C2238 1.419 . S
C2237 C2232 1.425 . S
C2237 C2234 1.409 . S
C2237 C2235 1.415 . S
C2238 H2228 0.930 . S
C2238 C2236 1.419 . S
C2238 C2239 1.362 . S
C2239 H2229 0.930 . S
C2239 C2232 1.409 . S
C2239 C2238 1.362 . S
H2240 C2246 0.930 . S
H2241 C2249 0.930 . S
H2242 C2250 0.930 . S
H2243 C2251 0.930 . S
H2244 C2254 0.930 . S
H2245 C2255 0.930 . S
C2246 H2240 0.930 . S
C2246 C2247 1.355 . S
C2246 C2248 1.415 . S
C2247 C2246 1.355 . S
C2247 C2249 1.419 . S
C2248 C2246 1.415 . S
C2248 C2253 1.425 . S
C2248 C2255 1.409 . S
C2249 H2241 0.930 . S
C2249 C2247 1.419 . S
C2249 C2250 1.362 . S
C2250 H2242 0.930 . S
C2250 C2249 1.362 . S
C2250 C2253 1.409 . S
C2251 H2243 0.930 . S
C2251 C2252 1.355 . S
C2251 C2253 1.415 . S
C2252 C2251 1.355 . S
C2252 C2254 1.419 . S
C2253 C2248 1.425 . S
C2253 C2250 1.409 . S
C2253 C2251 1.415 . S
C2254 H2244 0.930 . S
C2254 C2252 1.419 . S
C2254 C2255 1.362 . S
C2255 H2245 0.930 . S
C2255 C2248 1.409 . S
C2255 C2254 1.362 . S
H2256 C2262 0.930 . S
H2257 C2265 0.930 . S
H2258 C2266 0.930 . S
H2259 C2267 0.930 . S
H2260 C2270 0.930 . S
H2261 C2271 0.930 . S
C2262 H2256 0.930 . S
C2262 C2263 1.355 . S
C2262 C2264 1.415 . S
C2263 C2262 1.355 . S
C2263 C2265 1.419 . S
C2264 C2262 1.415 . S
C2264 C2269 1.425 . S
C2264 C2271 1.409 . S
C2265 H2257 0.930 . S
C2265 C2263 1.419 . S
C2265 C2266 1.362 . S
C2266 H2258 0.930 . S
C2266 C2265 1.362 . S
C2266 C2269 1.409 . S
C2267 H2259 0.930 . S
C2267 C2268 1.355 . S
C2267 C2269 1.415 . S
C2268 C2267 1.355 . S
C2268 C2270 1.419 . S
C2269 C2264 1.425 . S
C2269 C2266 1.409 . S
C2269 C2267 1.415 . S
C2270 H2260 0.930 . S
C2270 C2268 1.419 . S
C2270 C2271 1.362 . S
C2271 H2261 0.930 . S
C2271 C2264 1.409 . S
C2271 C2270 1.362 . S
H2272 C2278 0.930 . S
H2273 C2281 0.930 . S
H2274 C2282 0.930 . S
H2275 C2283 0.930 . S
H2276 C2286 0.930 . S
H2277 C2287 0.930 . S
C2278 H2272 0.930 . S
C2278 C2279 1.355 . S
C2278 C2280 1.415 . S
C2279 C2278 1.355 . S
C2279 C2281 1.419 . S
C2280 C2278 1.415 . S
C2280 C2285 1.425 . S
C2280 C2287 1.409 . S
C2281 H2273 0.930 . S
C2281 C2279 1.419 . S
C2281 C2282 1.362 . S
C2282 H2274 0.930 . S
C2282 C2281 1.362 . S
C2282 C2285 1.409 . S
C2283 H2275 0.930 . S
C2283 C2284 1.355 . S
C2283 C2285 1.415 . S
C2284 C2283 1.355 . S
C2284 C2286 1.419 . S
C2285 C2280 1.425 . S
C2285 C2282 1.409 . S
C2285 C2283 1.415 . S
C2286 H2276 0.930 . S
C2286 C2284 1.419 . S
C2286 C2287 1.362 . S
C2287 H2277 0.930 . S
C2287 C2280 1.409 . S
C2287 C2286 1.362 . S
H2288 C2294 0.930 . S
H2289 C2297 0.930 . S
H2290 C2298 0.930 . S
H2291 C2299 0.930 . S
H2292 C2302 0.930 . S
H2293 C2303 0.930 . S
C2294 H2288 0.930 . S
C2294 C2295 1.355 . S
C2294 C2296 1.415 . S
C2295 C2294 1.355 . S
C2295 C2297 1.419 . S
C2296 C2294 1.415 . S
C2296 C2301 1.425 . S
C2296 C2303 1.409 . S
C2297 H2289 0.930 . S
C2297 C2295 1.419 . S
C2297 C2298 1.362 . S
C2298 H2290 0.930 . S
C2298 C2297 1.362 . S
C2298 C2301 1.409 . S
C2299 H2291 0.930 . S
C2299 C2300 1.355 . S
C2299 C2301 1.415 . S
C2300 C2299 1.355 . S
C2300 C2302 1.419 . S
C2301 C2296 1.425 . S
C2301 C2298 1.409 . S
C2301 C2299 1.415 . S
C2302 H2292 0.930 . S
C2302 C2300 1.419 . S
C2302 C2303 1.362 . S
C2303 H2293 0.930 . S
C2303 C2296 1.409 . S
C2303 C2302 1.362 . S
H2304 C2310 0.930 . S
H2305 C2313 0.930 1_554 S
H2306 C2314 0.930 . S
H2307 C2315 0.930 . S
H2308 C2318 0.930 . S
H2309 C2319 0.930 . S
C2310 H2304 0.930 . S
C2310 C2311 1.355 . S
C2310 C2312 1.415 . S
C2311 C2310 1.355 . S
C2311 C2313 1.419 . S
C2312 C2310 1.415 . S
C2312 C2317 1.425 . S
C2312 C2319 1.409 . S
C2313 H2305 0.930 1_556 S
C2313 C2311 1.419 . S
C2313 C2314 1.362 . S
C2314 H2306 0.930 . S
C2314 C2313 1.362 . S
C2314 C2317 1.409 . S
C2315 H2307 0.930 . S
C2315 C2316 1.355 . S
C2315 C2317 1.415 . S
C2316 C2315 1.355 . S
C2316 C2318 1.419 . S
C2317 C2312 1.425 . S
C2317 C2314 1.409 . S
C2317 C2315 1.415 . S
C2318 H2308 0.930 . S
C2318 C2316 1.419 . S
C2318 C2319 1.362 . S
C2319 H2309 0.930 . S
C2319 C2312 1.409 . S
C2319 C2318 1.362 . S
H2320 C2326 0.930 . S
H2321 C2329 0.930 . S
H2322 C2330 0.930 . S
H2323 C2331 0.930 . S
H2324 C2334 0.930 . S
H2325 C2335 0.930 . S
C2326 H2320 0.930 . S
C2326 C2327 1.355 . S
C2326 C2328 1.415 . S
C2327 C2326 1.355 . S
C2327 C2329 1.419 . S
C2328 C2326 1.415 . S
C2328 C2333 1.425 . S
C2328 C2335 1.409 . S
C2329 H2321 0.930 . S
C2329 C2327 1.419 . S
C2329 C2330 1.362 . S
C2330 H2322 0.930 . S
C2330 C2329 1.362 . S
C2330 C2333 1.409 . S
C2331 H2323 0.930 . S
C2331 C2332 1.355 . S
C2331 C2333 1.415 . S
C2332 C2331 1.355 . S
C2332 C2334 1.419 . S
C2333 C2328 1.425 . S
C2333 C2330 1.409 . S
C2333 C2331 1.415 . S
C2334 H2324 0.930 . S
C2334 C2332 1.419 . S
C2334 C2335 1.362 . S
C2335 H2325 0.930 . S
C2335 C2328 1.409 . S
C2335 C2334 1.362 . S
C1063 C7 0.910 . S
C1068 C73 0.911 . S
C1079 C40 0.828 . S
C1084 C106 0.828 . S
C1095 C139 0.865 . S
C1100 C205 0.866 . S
C1111 C172 0.886 . S
C1116 C238 0.885 . S
C1127 C337 0.866 . S
C1132 C271 0.865 1_554 S
C1143 C304 0.860 1_554 S
C1148 C370 0.859 . S
C1159 C403 0.845 1_556 S
C1164 C469 0.844 . S
C1175 C436 0.906 1_556 S
C1180 C502 0.906 . S
C1191 C601 0.830 . S
C1196 C535 0.830 1_554 S
C1207 C634 0.909 . S
C1212 C568 0.908 1_554 S
C1223 C667 0.839 1_556 S
C1228 C733 0.838 . S
C1239 C766 0.913 . S
C1244 C700 0.913 1_556 S
C1255 C865 0.880 . S
C1260 C799 0.881 . S
C1271 C898 0.912 . S
C1276 C832 0.912 . S
C1287 C997 0.901 . S
C1292 C931 0.900 . S
C1303 C964 0.898 . S
C1308 C1030 0.897 . S
C1319 N13 1.793 . S
C1324 N46 1.768 . S
C1335 N79 1.737 . S
C1340 N112 1.761 . S
C1351 N178 1.768 . S
C1356 N145 1.731 . S
C1367 N211 1.797 . S
C1372 N244 1.758 . S
C1383 N310 1.741 . S
C1388 N277 1.754 . S
C1399 N343 1.795 . S
C1404 N376 1.765 . S
C1415 N409 1.739 . S
C1420 N442 1.758 . S
C1431 N475 1.781 . S
C1436 N508 1.782 . S
C1447 N541 1.739 . S
C1452 N574 1.778 . S
C1463 N640 1.741 . S
C1468 N607 1.773 . S
C1479 N706 1.740 . S
C1484 N673 1.792 . S
C1495 N739 1.794 . S
C1500 N772 1.782 . S
C1511 N805 1.742 . S
C1516 N838 1.770 . S
C1527 N871 1.783 . S
C1532 N904 1.793 . S
C1543 N937 1.774 . S
C1548 N970 1.799 . S
C1559 N1036 1.788 . S
C1564 N1003 1.790 . S
C1575 C153 1.640 . S
C1580 C21 1.639 . S
C1591 C54 1.669 . S
C1596 C978 1.669 . S
C1607 C483 1.629 . S
C1612 C87 1.631 . S
C1623 C780 1.665 . S
C1628 C120 1.665 . S
C1639 C846 1.672 . S
C1644 C186 1.672 . S
C1655 C351 1.643 . S
C1660 C219 1.642 . S
C1671 C252 1.631 . S
C1676 C648 1.631 . S
C1687 C417 1.664 . S
C1692 C285 1.663 . S
C1703 C318 1.631 . S
C1708 C714 1.631 . S
C1719 C384 1.659 . S
C1724 C1044 1.659 . S
C1735 C582 1.621 . S
C1740 C450 1.621 . S
C1751 C912 1.649 . S
C1756 C516 1.649 . S
C1767 C549 1.624 . S
C1772 C681 1.624 . S
C1783 C615 1.624 . S
C1788 C1011 1.624 . S
C1799 C879 1.670 . S
C1804 C747 1.670 . S
C1815 C813 1.651 . S
C1820 C945 1.651 . S
C1831 N2 1.270 . S
C1836 N629 1.290 . S
C1847 N596 1.295 . S
C1852 N35 1.292 . S
C1863 N68 1.263 . S
C1868 N563 1.251 . S
C1879 N101 1.289 . S
C1884 N530 1.294 . S
C1895 N761 1.299 . S
C1900 N134 1.303 . S
C1911 N167 1.234 . S
C1916 N728 1.252 . S
C1927 N695 1.299 . S
C1932 N200 1.303 . S
C1943 N233 1.252 . S
C1948 N662 1.234 . S
C1959 N266 1.282 . S
C1964 N893 1.299 . S
C1975 N299 1.289 . S
C1980 N860 1.295 . S
C1991 N332 1.297 . S
C1996 N827 1.296 . S
C2007 N365 1.289 . S
C2012 N794 1.278 . S
C2023 N398 1.282 . S
C2028 N1025 1.272 . S
C2039 N992 1.292 . S
C2044 N431 1.295 . S
C2055 N959 1.298 . S
C2060 N464 1.297 . S
C2071 N926 1.293 . S
C2076 N497 1.286 . S
C2087 C18 1.291 . S
C2092 C84 1.295 1_554 S
C2103 C117 1.294 1_554 S
C2108 C51 1.291 . S
C2119 C216 1.293 1_556 S
C2124 C150 1.296 . S
C2135 C183 1.288 . S
C2140 C249 1.291 1_556 S
C2151 C282 1.293 . S
C2156 C348 1.290 . S
C2167 C315 1.288 . S
C2172 C381 1.289 . S
C2183 C480 1.294 . S
C2188 C414 1.291 . S
C2199 C447 1.294 . S
C2204 C513 1.291 . S
C2215 C546 1.292 . S
C2220 C612 1.289 . S
C2231 C579 1.293 . S
C2236 C645 1.295 . S
C2247 C744 1.289 . S
C2252 C678 1.291 . S
C2263 C777 1.293 . S
C2268 C711 1.295 . S
C2279 C876 1.296 1_554 S
C2284 C810 1.296 . S
C2295 C843 1.290 . S
C2300 C909 1.293 1_554 S
C2311 C1008 1.289 1_556 S
C2316 C942 1.292 . S
C2327 C975 1.295 . S
C2332 C1041 1.292 1_556 S
