# Generated by pormake.
# Topology yfs, (5)-cn, num edge types: 1
# Building blocks:
#     Node 0, Type 0, BuildingBlock: BEQFEK_clean_sbu_0, # of connection points: 5
#     Node 1, Type 0, BuildingBlock: BEQFEK_clean_sbu_0, # of connection points: 5
#     Node 2, Type 0, BuildingBlock: BEQFEK_clean_sbu_0, # of connection points: 5
#     Node 3, Type 0, BuildingBlock: BEQFEK_clean_sbu_0, # of connection points: 5
#     Node 4, Type 0, BuildingBlock: BEQFEK_clean_sbu_0, # of connection points: 5
#     Node 5, Type 0, BuildingBlock: BEQFEK_clean_sbu_0, # of connection points: 5
#     Node 6, Type 0, BuildingBlock: BEQFEK_clean_sbu_0, # of connection points: 5
#     Node 7, Type 0, BuildingBlock: BEQFEK_clean_sbu_0, # of connection points: 5
#     Node 8, Type 0, BuildingBlock: BEQFEK_clean_sbu_0, # of connection points: 5
#     Node 9, Type 0, BuildingBlock: BEQFEK_clean_sbu_0, # of connection points: 5
#     Node 10, Type 0, BuildingBlock: BEQFEK_clean_sbu_0, # of connection points: 5
#     Node 11, Type 0, BuildingBlock: BEQFEK_clean_sbu_0, # of connection points: 5
#     Node 12, Type 0, BuildingBlock: BEQFEK_clean_sbu_0, # of connection points: 5
#     Node 13, Type 0, BuildingBlock: BEQFEK_clean_sbu_0, # of connection points: 5
#     Node 14, Type 0, BuildingBlock: BEQFEK_clean_sbu_0, # of connection points: 5
#     Node 15, Type 0, BuildingBlock: BEQFEK_clean_sbu_0, # of connection points: 5
#     Node 16, Type 0, BuildingBlock: BEQFEK_clean_sbu_0, # of connection points: 5
#     Node 17, Type 0, BuildingBlock: BEQFEK_clean_sbu_0, # of connection points: 5
#     Node 18, Type 0, BuildingBlock: BEQFEK_clean_sbu_0, # of connection points: 5
#     Node 19, Type 0, BuildingBlock: BEQFEK_clean_sbu_0, # of connection points: 5
#     Node 20, Type 0, BuildingBlock: BEQFEK_clean_sbu_0, # of connection points: 5
#     Node 21, Type 0, BuildingBlock: BEQFEK_clean_sbu_0, # of connection points: 5
#     Node 22, Type 0, BuildingBlock: BEQFEK_clean_sbu_0, # of connection points: 5
#     Node 23, Type 0, BuildingBlock: BEQFEK_clean_sbu_0, # of connection points: 5
#     Node 24, Type 0, BuildingBlock: BEQFEK_clean_sbu_0, # of connection points: 5
#     Node 25, Type 0, BuildingBlock: BEQFEK_clean_sbu_0, # of connection points: 5
#     Node 26, Type 0, BuildingBlock: BEQFEK_clean_sbu_0, # of connection points: 5
#     Node 27, Type 0, BuildingBlock: BEQFEK_clean_sbu_0, # of connection points: 5
#     Node 28, Type 0, BuildingBlock: BEQFEK_clean_sbu_0, # of connection points: 5
#     Node 29, Type 0, BuildingBlock: BEQFEK_clean_sbu_0, # of connection points: 5
#     Node 30, Type 0, BuildingBlock: BEQFEK_clean_sbu_0, # of connection points: 5
#     Node 31, Type 0, BuildingBlock: BEQFEK_clean_sbu_0, # of connection points: 5
#     Edge 32, Type (0, 0), BuildingBlock: KIFKEQ_clean_linker_1, # of connection points: 2
#     Edge 33, Type (0, 0), BuildingBlock: KIFKEQ_clean_linker_1, # of connection points: 2
#     Edge 34, Type (0, 0), BuildingBlock: KIFKEQ_clean_linker_1, # of connection points: 2
#     Edge 35, Type (0, 0), BuildingBlock: KIFKEQ_clean_linker_1, # of connection points: 2
#     Edge 36, Type (0, 0), BuildingBlock: KIFKEQ_clean_linker_1, # of connection points: 2
#     Edge 37, Type (0, 0), BuildingBlock: KIFKEQ_clean_linker_1, # of connection points: 2
#     Edge 38, Type (0, 0), BuildingBlock: KIFKEQ_clean_linker_1, # of connection points: 2
#     Edge 39, Type (0, 0), BuildingBlock: KIFKEQ_clean_linker_1, # of connection points: 2
#     Edge 40, Type (0, 0), BuildingBlock: KIFKEQ_clean_linker_1, # of connection points: 2
#     Edge 41, Type (0, 0), BuildingBlock: KIFKEQ_clean_linker_1, # of connection points: 2
#     Edge 42, Type (0, 0), BuildingBlock: KIFKEQ_clean_linker_1, # of connection points: 2
#     Edge 43, Type (0, 0), BuildingBlock: KIFKEQ_clean_linker_1, # of connection points: 2
#     Edge 44, Type (0, 0), BuildingBlock: KIFKEQ_clean_linker_1, # of connection points: 2
#     Edge 45, Type (0, 0), BuildingBlock: KIFKEQ_clean_linker_1, # of connection points: 2
#     Edge 46, Type (0, 0), BuildingBlock: KIFKEQ_clean_linker_1, # of connection points: 2
#     Edge 47, Type (0, 0), BuildingBlock: KIFKEQ_clean_linker_1, # of connection points: 2
#     Edge 48, Type (0, 0), BuildingBlock: KIFKEQ_clean_linker_1, # of connection points: 2
#     Edge 49, Type (0, 0), BuildingBlock: KIFKEQ_clean_linker_1, # of connection points: 2
#     Edge 50, Type (0, 0), BuildingBlock: KIFKEQ_clean_linker_1, # of connection points: 2
#     Edge 51, Type (0, 0), BuildingBlock: KIFKEQ_clean_linker_1, # of connection points: 2
#     Edge 52, Type (0, 0), BuildingBlock: KIFKEQ_clean_linker_1, # of connection points: 2
#     Edge 53, Type (0, 0), BuildingBlock: KIFKEQ_clean_linker_1, # of connection points: 2
#     Edge 54, Type (0, 0), BuildingBlock: KIFKEQ_clean_linker_1, # of connection points: 2
#     Edge 55, Type (0, 0), BuildingBlock: KIFKEQ_clean_linker_1, # of connection points: 2
#     Edge 56, Type (0, 0), BuildingBlock: KIFKEQ_clean_linker_1, # of connection points: 2
#     Edge 57, Type (0, 0), BuildingBlock: KIFKEQ_clean_linker_1, # of connection points: 2
#     Edge 58, Type (0, 0), BuildingBlock: KIFKEQ_clean_linker_1, # of connection points: 2
#     Edge 59, Type (0, 0), BuildingBlock: KIFKEQ_clean_linker_1, # of connection points: 2
#     Edge 60, Type (0, 0), BuildingBlock: KIFKEQ_clean_linker_1, # of connection points: 2
#     Edge 61, Type (0, 0), BuildingBlock: KIFKEQ_clean_linker_1, # of connection points: 2
#     Edge 62, Type (0, 0), BuildingBlock: KIFKEQ_clean_linker_1, # of connection points: 2
#     Edge 63, Type (0, 0), BuildingBlock: KIFKEQ_clean_linker_1, # of connection points: 2
#     Edge 64, Type (0, 0), BuildingBlock: KIFKEQ_clean_linker_1, # of connection points: 2
#     Edge 65, Type (0, 0), BuildingBlock: KIFKEQ_clean_linker_1, # of connection points: 2
#     Edge 66, Type (0, 0), BuildingBlock: KIFKEQ_clean_linker_1, # of connection points: 2
#     Edge 67, Type (0, 0), BuildingBlock: KIFKEQ_clean_linker_1, # of connection points: 2
#     Edge 68, Type (0, 0), BuildingBlock: KIFKEQ_clean_linker_1, # of connection points: 2
#     Edge 69, Type (0, 0), BuildingBlock: KIFKEQ_clean_linker_1, # of connection points: 2
#     Edge 70, Type (0, 0), BuildingBlock: KIFKEQ_clean_linker_1, # of connection points: 2
#     Edge 71, Type (0, 0), BuildingBlock: KIFKEQ_clean_linker_1, # of connection points: 2
#     Edge 72, Type (0, 0), BuildingBlock: KIFKEQ_clean_linker_1, # of connection points: 2
#     Edge 73, Type (0, 0), BuildingBlock: KIFKEQ_clean_linker_1, # of connection points: 2
#     Edge 74, Type (0, 0), BuildingBlock: KIFKEQ_clean_linker_1, # of connection points: 2
#     Edge 75, Type (0, 0), BuildingBlock: KIFKEQ_clean_linker_1, # of connection points: 2
#     Edge 76, Type (0, 0), BuildingBlock: KIFKEQ_clean_linker_1, # of connection points: 2
#     Edge 77, Type (0, 0), BuildingBlock: KIFKEQ_clean_linker_1, # of connection points: 2
#     Edge 78, Type (0, 0), BuildingBlock: KIFKEQ_clean_linker_1, # of connection points: 2
#     Edge 79, Type (0, 0), BuildingBlock: KIFKEQ_clean_linker_1, # of connection points: 2
#     Edge 80, Type (0, 0), BuildingBlock: KIFKEQ_clean_linker_1, # of connection points: 2
#     Edge 81, Type (0, 0), BuildingBlock: KIFKEQ_clean_linker_1, # of connection points: 2
#     Edge 82, Type (0, 0), BuildingBlock: KIFKEQ_clean_linker_1, # of connection points: 2
#     Edge 83, Type (0, 0), BuildingBlock: KIFKEQ_clean_linker_1, # of connection points: 2
#     Edge 84, Type (0, 0), BuildingBlock: KIFKEQ_clean_linker_1, # of connection points: 2
#     Edge 85, Type (0, 0), BuildingBlock: KIFKEQ_clean_linker_1, # of connection points: 2
#     Edge 86, Type (0, 0), BuildingBlock: KIFKEQ_clean_linker_1, # of connection points: 2
#     Edge 87, Type (0, 0), BuildingBlock: KIFKEQ_clean_linker_1, # of connection points: 2
#     Edge 88, Type (0, 0), BuildingBlock: KIFKEQ_clean_linker_1, # of connection points: 2
#     Edge 89, Type (0, 0), BuildingBlock: KIFKEQ_clean_linker_1, # of connection points: 2
#     Edge 90, Type (0, 0), BuildingBlock: KIFKEQ_clean_linker_1, # of connection points: 2
#     Edge 91, Type (0, 0), BuildingBlock: KIFKEQ_clean_linker_1, # of connection points: 2
#     Edge 92, Type (0, 0), BuildingBlock: KIFKEQ_clean_linker_1, # of connection points: 2
#     Edge 93, Type (0, 0), BuildingBlock: KIFKEQ_clean_linker_1, # of connection points: 2
#     Edge 94, Type (0, 0), BuildingBlock: KIFKEQ_clean_linker_1, # of connection points: 2
#     Edge 95, Type (0, 0), BuildingBlock: KIFKEQ_clean_linker_1, # of connection points: 2
#     Edge 96, Type (0, 0), BuildingBlock: KIFKEQ_clean_linker_1, # of connection points: 2
#     Edge 97, Type (0, 0), BuildingBlock: KIFKEQ_clean_linker_1, # of connection points: 2
#     Edge 98, Type (0, 0), BuildingBlock: KIFKEQ_clean_linker_1, # of connection points: 2
#     Edge 99, Type (0, 0), BuildingBlock: KIFKEQ_clean_linker_1, # of connection points: 2
#     Edge 100, Type (0, 0), BuildingBlock: KIFKEQ_clean_linker_1, # of connection points: 2
#     Edge 101, Type (0, 0), BuildingBlock: KIFKEQ_clean_linker_1, # of connection points: 2
#     Edge 102, Type (0, 0), BuildingBlock: KIFKEQ_clean_linker_1, # of connection points: 2
#     Edge 103, Type (0, 0), BuildingBlock: KIFKEQ_clean_linker_1, # of connection points: 2
#     Edge 104, Type (0, 0), BuildingBlock: KIFKEQ_clean_linker_1, # of connection points: 2
#     Edge 105, Type (0, 0), BuildingBlock: KIFKEQ_clean_linker_1, # of connection points: 2
#     Edge 106, Type (0, 0), BuildingBlock: KIFKEQ_clean_linker_1, # of connection points: 2
#     Edge 107, Type (0, 0), BuildingBlock: KIFKEQ_clean_linker_1, # of connection points: 2
#     Edge 108, Type (0, 0), BuildingBlock: KIFKEQ_clean_linker_1, # of connection points: 2
#     Edge 109, Type (0, 0), BuildingBlock: KIFKEQ_clean_linker_1, # of connection points: 2
#     Edge 110, Type (0, 0), BuildingBlock: KIFKEQ_clean_linker_1, # of connection points: 2
#     Edge 111, Type (0, 0), BuildingBlock: KIFKEQ_clean_linker_1, # of connection points: 2
# Relax obj value: 0.319
# Max RMSD: 0.166
# Mean RMSD: 0.166
data_MOF--net-yfs--node1-BEQFEK_clean_sbu_0--edge1-KIFKEQ_clean_linker_1
_symmetry_space_group_name_H-M    P1
_symmetry_Int_Tables_number       1
_symmetry_cell_setting            triclinic
loop_
_symmetry_equiv_pos_as_xyz
'x, y, z'
_cell_length_a     50.235909
_cell_length_b     50.231468
_cell_length_c     86.141433
_cell_angle_alpha  89.989787
_cell_angle_beta   89.979558
_cell_angle_gamma 89.984137
loop_
_atom_site_label
_atom_site_type_symbol
_atom_site_fract_x
_atom_site_fract_y
_atom_site_fract_z
_atom_type_partial_charge
Co0 Co 0.41572 0.12858 0.18071 0.0
Co1 Co 0.38148 0.15779 0.20607 0.0
C2 C 0.37157 0.16528 0.17185 0.0
O3 O 0.38931 0.14836 0.16803 0.0
O4 O 0.36696 0.17085 0.18602 0.0
C5 C 0.43457 0.10329 0.1527 0.0
O6 O 0.41099 0.10944 0.14718 0.0
C7 C 0.33818 0.18526 0.22231 0.0
C8 C 0.35303 0.1857 0.24647 0.0
C9 C 0.33259 0.19466 0.23707 0.0
N10 N 0.36106 0.17148 0.22289 0.0
N11 N 0.36981 0.17178 0.23737 0.0
C12 C 0.32209 0.18934 0.2079 0.0
H13 H 0.3221 0.17086 0.20085 0.0
H14 H 0.30127 0.19492 0.21072 0.0
H15 H 0.33121 0.20551 0.20092 0.0
C16 C 0.40089 0.08198 0.19991 0.0
N17 N 0.39894 0.10796 0.19625 0.0
N18 N 0.38405 0.12008 0.20667 0.0
C19 C 0.37583 0.10207 0.21721 0.0
C20 C 0.38642 0.07746 0.21339 0.0
C21 C 0.41864 0.06282 0.19157 0.0
H22 H 0.43935 0.07049 0.19172 0.0
H23 H 0.41235 0.06151 0.17924 0.0
H24 H 0.41814 0.04272 0.19689 0.0
O25 O 0.44006 0.15482 0.19012 0.0
O26 O 0.41666 0.17398 0.20881 0.0
H27 H 0.37151 0.11673 0.24033 0.0
H28 H 0.34912 0.09001 0.23554 0.0
C29 C 0.35885 0.10827 0.23101 0.0
H30 H 0.34334 0.123 0.22785 0.0
H31 H 0.38774 0.16326 0.24093 0.0
O32 O 0.43948 0.10756 0.16695 0.0
C33 C 0.43819 0.17132 0.20126 0.0
Co34 Co 0.11259 0.16883 0.43219 0.0
Co35 Co 0.08901 0.12511 0.45422 0.0
C36 C 0.07888 0.12331 0.42021 0.0
O37 O 0.09244 0.14449 0.41817 0.0
O38 O 0.0762 0.11312 0.43366 0.0
C39 C 0.13931 0.1907 0.40561 0.0
O40 O 0.13735 0.16635 0.40015 0.0
C41 C 0.06467 0.0783 0.46887 0.0
C42 C 0.06783 0.08874 0.49373 0.0
C43 C 0.05747 0.07003 0.48362 0.0
N44 N 0.07851 0.10106 0.47015 0.0
N45 N 0.0804 0.10713 0.48505 0.0
C46 C 0.05813 0.06511 0.4538 0.0
H47 H 0.07545 0.06634 0.44584 0.0
H48 H 0.05272 0.0439 0.45553 0.0
H49 H 0.0411 0.07565 0.44838 0.0
C50 C 0.16181 0.15378 0.44882 0.0
N51 N 0.13598 0.14998 0.44538 0.0
N52 N 0.12644 0.13077 0.45416 0.0
C53 C 0.14624 0.1211 0.46309 0.0
C54 C 0.1692 0.13561 0.46015 0.0
C55 C 0.17847 0.17558 0.44206 0.0
H56 H 0.1691 0.19509 0.44465 0.0
H57 H 0.17912 0.17332 0.42925 0.0
H58 H 0.19909 0.17521 0.44667 0.0
O59 O 0.08684 0.18938 0.44453 0.0
O60 O 0.06959 0.15803 0.45952 0.0
H61 H 0.13573 0.10994 0.4862 0.0
H62 H 0.16168 0.08999 0.47791 0.0
C63 C 0.14268 0.1003 0.47535 0.0
H64 H 0.12781 0.08537 0.47158 0.0
H65 H 0.08929 0.12446 0.48925 0.0
O66 O 0.13135 0.19552 0.41932 0.0
C67 C 0.07057 0.18208 0.45499 0.0
Co68 Co 0.0689 0.86035 0.68281 0.0
Co69 Co 0.11065 0.83477 0.70546 0.0
C70 C 0.1144 0.8265 0.67121 0.0
O71 O 0.09369 0.84061 0.66889 0.0
O72 O 0.12351 0.8229 0.68484 0.0
C73 C 0.04837 0.888 0.65613 0.0
O74 O 0.07277 0.88541 0.65084 0.0
C75 C 0.1579 0.8112 0.72007 0.0
C76 C 0.14598 0.81064 0.74476 0.0
C77 C 0.16589 0.8028 0.73465 0.0
N78 N 0.13417 0.82326 0.72143 0.0
N79 N 0.1272 0.82295 0.73623 0.0
C80 C 0.17248 0.80764 0.70509 0.0
H81 H 0.16425 0.79002 0.699 0.0
H82 H 0.16968 0.82541 0.69762 0.0
H83 H 0.19406 0.80443 0.7071 0.0
C84 C 0.08381 0.9085 0.70058 0.0
N85 N 0.08731 0.88272 0.69681 0.0
N86 N 0.10519 0.87214 0.70613 0.0
C87 C 0.1139 0.89101 0.71599 0.0
C88 C 0.10047 0.91453 0.71294 0.0
C89 C 0.06269 0.92581 0.69366 0.0
H90 H 0.0432 0.91548 0.69435 0.0
H91 H 0.06721 0.92907 0.68119 0.0
H92 H 0.0613 0.94533 0.69962 0.0
O93 O 0.04739 0.83411 0.69434 0.0
O94 O 0.07728 0.81567 0.70988 0.0
H95 H 0.12406 0.87761 0.73875 0.0
H96 H 0.1432 0.90568 0.73217 0.0
C97 C 0.13403 0.88658 0.72853 0.0
H98 H 0.14983 0.8729 0.7244 0.0
H99 H 0.10916 0.83032 0.74044 0.0
O100 O 0.04306 0.88011 0.6698 0.0
C101 C 0.05362 0.8173 0.70476 0.0
Co102 Co 0.37701 0.82716 0.92827 0.0
Co103 Co 0.40371 0.86525 0.95243 0.0
C104 C 0.41027 0.87321 0.91799 0.0
O105 O 0.395 0.85371 0.91469 0.0
O106 O 0.41489 0.87971 0.93203 0.0
C107 C 0.34228 0.80232 0.9042 0.0
O108 O 0.33414 0.82593 0.89967 0.0
C109 C 0.42227 0.91369 0.96771 0.0
C110 C 0.43521 0.89795 0.99044 0.0
C111 C 0.43495 0.92082 0.98144 0.0
N112 N 0.41595 0.88778 0.96852 0.0
N113 N 0.42343 0.87855 0.9822 0.0
C114 C 0.41531 0.931 0.95418 0.0
H115 H 0.43185 0.93059 0.94566 0.0
H116 H 0.39716 0.92334 0.94835 0.0
H117 H 0.41198 0.95186 0.95797 0.0
C118 C 0.32982 0.8391 0.94803 0.0
N119 N 0.35529 0.84312 0.94371 0.0
N120 N 0.36664 0.85946 0.95365 0.0
C121 C 0.34877 0.86653 0.96452 0.0
C122 C 0.32494 0.85375 0.96141 0.0
C123 C 0.31171 0.81928 0.94052 0.0
H124 H 0.32242 0.80016 0.93892 0.0
H125 H 0.30595 0.82672 0.92888 0.0
H126 H 0.29348 0.81584 0.94751 0.0
O127 O 0.40531 0.80576 0.93798 0.0
O128 O 0.42329 0.83195 0.95573 0.0
H129 H 0.36767 0.87354 0.98635 0.0
H130 H 0.3363 0.89071 0.98403 0.0
C131 C 0.35476 0.88433 0.97801 0.0
H132 H 0.36559 0.90223 0.97391 0.0
H133 H 0.42136 0.85875 0.98567 0.0
O134 O 0.35822 0.80033 0.91557 0.0
C135 C 0.42212 0.80977 0.94873 0.0
Co136 Co 0.41957 0.86208 0.31278 0.0
Co137 Co 0.37525 0.83742 0.29147 0.0
C138 C 0.37282 0.83096 0.32571 0.0
O139 O 0.39461 0.8437 0.32727 0.0
O140 O 0.36229 0.82766 0.3124 0.0
C141 C 0.44207 0.89007 0.33881 0.0
O142 O 0.41771 0.88903 0.34432 0.0
C143 C 0.33006 0.80986 0.27695 0.0
C144 C 0.3375 0.81769 0.25206 0.0
C145 C 0.32049 0.80458 0.26213 0.0
N146 N 0.35126 0.82603 0.27566 0.0
N147 N 0.35577 0.83034 0.26075 0.0
C148 C 0.32233 0.79638 0.29178 0.0
H149 H 0.3405 0.79 0.29806 0.0
H150 H 0.31133 0.81069 0.29921 0.0
H151 H 0.30988 0.77851 0.28977 0.0
C152 C 0.40538 0.91024 0.2948 0.0
N153 N 0.4014 0.88462 0.29877 0.0
N154 N 0.3821 0.87464 0.29022 0.0
C155 C 0.37262 0.89397 0.28089 0.0
C156 C 0.38733 0.91693 0.28326 0.0
C157 C 0.42767 0.92691 0.30095 0.0
H158 H 0.44647 0.91533 0.30063 0.0
H159 H 0.42352 0.93192 0.31327 0.0
H160 H 0.43014 0.94558 0.29422 0.0
O161 O 0.43957 0.83475 0.30133 0.0
O162 O 0.40764 0.81646 0.28721 0.0
H163 H 0.35659 0.8854 0.25844 0.0
H164 H 0.33881 0.91045 0.26896 0.0
C165 C 0.3494 0.89115 0.27014 0.0
H166 H 0.33533 0.87592 0.27452 0.0
H167 H 0.37201 0.84102 0.25648 0.0
O168 O 0.44662 0.88123 0.32525 0.0
C169 C 0.43175 0.81743 0.29161 0.0
Co170 Co 0.37702 0.1677 0.56449 0.0
Co171 Co 0.40144 0.12447 0.54248 0.0
C172 C 0.41097 0.12241 0.57653 0.0
O173 O 0.39716 0.14343 0.57854 0.0
O174 O 0.414 0.11233 0.56308 0.0
C175 C 0.35064 0.18964 0.59117 0.0
O176 O 0.35314 0.16542 0.59674 0.0
C177 C 0.42146 0.07533 0.52825 0.0
C178 C 0.42764 0.08853 0.50404 0.0
C179 C 0.43164 0.06725 0.514 0.0
N180 N 0.41237 0.10034 0.52678 0.0
N181 N 0.41587 0.10801 0.51225 0.0
C182 C 0.41983 0.05967 0.54298 0.0
H183 H 0.40201 0.06577 0.54972 0.0
H184 H 0.41887 0.038 0.54053 0.0
H185 H 0.43773 0.06381 0.55011 0.0
C186 C 0.32833 0.15248 0.54732 0.0
N187 N 0.35404 0.14875 0.5511 0.0
N188 N 0.36413 0.13004 0.54216 0.0
C189 C 0.34499 0.12086 0.53262 0.0
C190 C 0.32171 0.13493 0.53548 0.0
C191 C 0.31117 0.1738 0.55416 0.0
H192 H 0.31112 0.17185 0.56699 0.0
H193 H 0.29041 0.17261 0.54981 0.0
H194 H 0.3197 0.19357 0.55127 0.0
O195 O 0.40283 0.18853 0.55228 0.0
O196 O 0.42065 0.15749 0.53729 0.0
H197 H 0.33112 0.09393 0.51467 0.0
H198 H 0.36197 0.08466 0.52395 0.0
C199 C 0.34992 0.10163 0.51966 0.0
H200 H 0.36121 0.11183 0.51034 0.0
H201 H 0.41115 0.12695 0.50809 0.0
O202 O 0.35799 0.19431 0.57732 0.0
C203 C 0.41931 0.18149 0.54186 0.0
Co204 Co 0.07587 0.12874 0.81524 0.0
Co205 Co 0.11382 0.15441 0.79046 0.0
C206 C 0.12264 0.16074 0.82498 0.0
O207 O 0.10353 0.14522 0.82859 0.0
O208 O 0.12817 0.16592 0.81086 0.0
C209 C 0.05067 0.09634 0.8401 0.0
O210 O 0.0743 0.08816 0.84455 0.0
C211 C 0.15969 0.17899 0.77504 0.0
C212 C 0.14649 0.17939 0.75057 0.0
C213 C 0.16661 0.18779 0.76035 0.0
N214 N 0.13637 0.16605 0.77405 0.0
N215 N 0.12863 0.16629 0.75937 0.0
C216 C 0.17468 0.18331 0.78982 0.0
H217 H 0.16528 0.19985 0.79636 0.0
H218 H 0.17383 0.16507 0.79707 0.0
H219 H 0.1958 0.18846 0.7875 0.0
C220 C 0.08648 0.08085 0.79594 0.0
N221 N 0.09079 0.1065 0.79976 0.0
N222 N 0.10742 0.11713 0.78968 0.0
C223 C 0.11456 0.0984 0.7793 0.0
C224 C 0.10132 0.07498 0.78279 0.0
C225 C 0.06659 0.06334 0.80386 0.0
H226 H 0.04762 0.07434 0.80541 0.0
H227 H 0.07418 0.05804 0.81555 0.0
H228 H 0.06284 0.04482 0.79719 0.0
O229 O 0.05543 0.15788 0.8057 0.0
O230 O 0.0808 0.17442 0.78707 0.0
H231 H 0.12271 0.11158 0.75622 0.0
H232 H 0.14232 0.08352 0.76226 0.0
C233 C 0.13354 0.10268 0.76615 0.0
H234 H 0.14978 0.11628 0.76974 0.0
H235 H 0.11055 0.15856 0.75548 0.0
O236 O 0.04854 0.11125 0.82827 0.0
C237 C 0.05914 0.17418 0.79464 0.0
Co238 Co 0.11471 0.82262 0.06448 0.0
Co239 Co 0.08892 0.86411 0.04183 0.0
C240 C 0.07949 0.86736 0.07592 0.0
O241 O 0.09397 0.84689 0.07829 0.0
O242 O 0.07619 0.87668 0.0623 0.0
C243 C 0.14178 0.80135 0.0913 0.0
O244 O 0.13809 0.8252 0.09718 0.0
C245 C 0.06699 0.91161 0.02654 0.0
C246 C 0.05999 0.89578 0.00293 0.0
C247 C 0.05583 0.91778 0.01228 0.0
N248 N 0.07727 0.88697 0.02566 0.0
N249 N 0.07345 0.87784 0.01144 0.0
C250 C 0.06449 0.92706 0.0413 0.0
H251 H 0.08178 0.923 0.04895 0.0
H252 H 0.06313 0.94873 0.039 0.0
H253 H 0.04606 0.92076 0.04736 0.0
C254 C 0.16271 0.83801 0.04666 0.0
N255 N 0.13703 0.84152 0.05065 0.0
N256 N 0.12623 0.85926 0.04133 0.0
C257 C 0.14476 0.86781 0.03122 0.0
C258 C 0.16839 0.85447 0.03414 0.0
C259 C 0.18006 0.8167 0.05337 0.0
H260 H 0.16988 0.79718 0.05229 0.0
H261 H 0.18302 0.82063 0.06592 0.0
H262 H 0.1997 0.81572 0.04751 0.0
O263 O 0.08925 0.80057 0.0527 0.0
O264 O 0.07066 0.83046 0.03726 0.0
H265 H 0.12874 0.87677 0.00886 0.0
H266 H 0.15842 0.89524 0.0136 0.0
C267 C 0.13955 0.88709 0.01833 0.0
H268 H 0.12702 0.90372 0.02261 0.0
H269 H 0.07867 0.8587 0.00783 0.0
O270 O 0.13472 0.79685 0.07739 0.0
C271 C 0.07259 0.80673 0.04219 0.0
Co272 Co 0.57936 0.86323 0.81721 0.0
Co273 Co 0.61456 0.83452 0.79213 0.0
C274 C 0.62449 0.82741 0.82633 0.0
O275 O 0.60585 0.84348 0.83 0.0
O276 O 0.63003 0.82256 0.81217 0.0
C277 C 0.55881 0.88865 0.84491 0.0
O278 O 0.58123 0.88091 0.85134 0.0
C279 C 0.65976 0.81194 0.77488 0.0
C280 C 0.64036 0.80235 0.75252 0.0
C281 C 0.66395 0.79968 0.76066 0.0
N282 N 0.63473 0.82135 0.77512 0.0
N283 N 0.62342 0.81597 0.76163 0.0
C284 C 0.67765 0.81144 0.78875 0.0
H285 H 0.67336 0.82866 0.7964 0.0
H286 H 0.69889 0.81188 0.78531 0.0
H287 H 0.67404 0.79278 0.7953 0.0
C288 C 0.59269 0.90967 0.79743 0.0
N289 N 0.59558 0.88392 0.80146 0.0
N290 N 0.61056 0.87189 0.79106 0.0
C291 C 0.61777 0.88961 0.78013 0.0
C292 C 0.60656 0.91406 0.78372 0.0
C293 C 0.57448 0.92858 0.80564 0.0
H294 H 0.55398 0.92035 0.80559 0.0
H295 H 0.58079 0.93042 0.81793 0.0
H296 H 0.57437 0.94853 0.80012 0.0
O297 O 0.55551 0.83628 0.80811 0.0
O298 O 0.57993 0.81678 0.78999 0.0
H299 H 0.62189 0.87146 0.75784 0.0
H300 H 0.64149 0.90129 0.76029 0.0
C301 C 0.63418 0.88302 0.76615 0.0
H302 H 0.65146 0.87065 0.76961 0.0
H303 H 0.60365 0.82039 0.75895 0.0
O304 O 0.55523 0.88465 0.83051 0.0
C305 C 0.5582 0.81913 0.79738 0.0
Co306 Co 0.87692 0.82252 0.5642 0.0
Co307 Co 0.90321 0.86412 0.54192 0.0
C308 C 0.91016 0.86825 0.57616 0.0
O309 O 0.89603 0.84748 0.57833 0.0
O310 O 0.91419 0.87738 0.56256 0.0
C311 C 0.84929 0.80051 0.59059 0.0
O312 O 0.85226 0.82438 0.59659 0.0
C313 C 0.92268 0.91301 0.52733 0.0
C314 C 0.93396 0.8981 0.5041 0.0
C315 C 0.93487 0.92048 0.51349 0.0
N316 N 0.91547 0.88737 0.52617 0.0
N317 N 0.922 0.87865 0.51221 0.0
C318 C 0.91718 0.92975 0.54132 0.0
H319 H 0.89899 0.92254 0.54731 0.0
H320 H 0.9146 0.95096 0.53803 0.0
H321 H 0.93411 0.92805 0.54952 0.0
C322 C 0.82947 0.83737 0.54569 0.0
N323 N 0.85505 0.84078 0.54985 0.0
N324 N 0.86602 0.85861 0.54066 0.0
C325 C 0.8477 0.86738 0.53048 0.0
C326 C 0.82394 0.85411 0.53327 0.0
C327 C 0.81128 0.81736 0.55296 0.0
H328 H 0.81872 0.79703 0.55036 0.0
H329 H 0.81148 0.81992 0.56574 0.0
H330 H 0.79058 0.81945 0.54864 0.0
O331 O 0.90378 0.80098 0.55317 0.0
O332 O 0.92276 0.83093 0.53794 0.0
H333 H 0.8675 0.87496 0.509 0.0
H334 H 0.83587 0.8915 0.51068 0.0
C335 C 0.85395 0.88543 0.51713 0.0
H336 H 0.86431 0.90345 0.52146 0.0
H337 H 0.91915 0.85912 0.50844 0.0
O338 O 0.85686 0.79631 0.57674 0.0
C339 C 0.92108 0.80729 0.54306 0.0
Co340 Co 0.91814 0.12606 0.3141 0.0
Co341 Co 0.87615 0.15185 0.29177 0.0
C342 C 0.87328 0.16088 0.32586 0.0
O343 O 0.89394 0.14658 0.32799 0.0
O344 O 0.86362 0.16429 0.31233 0.0
C345 C 0.93924 0.09933 0.34096 0.0
O346 O 0.91504 0.10227 0.34648 0.0
C347 C 0.82863 0.17424 0.27666 0.0
C348 C 0.84399 0.18018 0.25285 0.0
C349 C 0.8223 0.18504 0.26232 0.0
N350 N 0.85306 0.16347 0.27569 0.0
N351 N 0.8619 0.16668 0.26135 0.0
C352 C 0.81359 0.17752 0.29151 0.0
H353 H 0.81679 0.15994 0.29908 0.0
H354 H 0.792 0.18018 0.28937 0.0
H355 H 0.82112 0.19545 0.29761 0.0
C356 C 0.90249 0.07799 0.29645 0.0
N357 N 0.89913 0.10372 0.30037 0.0
N358 N 0.88122 0.1145 0.29115 0.0
C359 C 0.87242 0.09588 0.28117 0.0
C360 C 0.88574 0.07223 0.28408 0.0
C361 C 0.92379 0.06061 0.30313 0.0
H362 H 0.94327 0.0709 0.30222 0.0
H363 H 0.91969 0.05738 0.31565 0.0
H364 H 0.92495 0.04109 0.29715 0.0
O365 O 0.9399 0.1516 0.30224 0.0
O366 O 0.90969 0.17043 0.28711 0.0
H367 H 0.86276 0.11144 0.2588 0.0
H368 H 0.84425 0.08203 0.26403 0.0
C369 C 0.8527 0.10095 0.26849 0.0
H370 H 0.83633 0.11372 0.27287 0.0
H371 H 0.88085 0.16101 0.25763 0.0
O372 O 0.94407 0.10641 0.32708 0.0
C373 C 0.93352 0.16844 0.29187 0.0
Co374 Co 0.60883 0.1733 0.06142 0.0
Co375 Co 0.58454 0.13032 0.03922 0.0
C376 C 0.57466 0.12837 0.07342 0.0
O377 O 0.58883 0.1491 0.07564 0.0
O378 O 0.57158 0.11871 0.05987 0.0
C379 C 0.64265 0.19765 0.08551 0.0
O380 O 0.65039 0.1736 0.08946 0.0
C381 C 0.5612 0.08265 0.02497 0.0
C382 C 0.56219 0.0935 0.00011 0.0
C383 C 0.55342 0.07421 0.01035 0.0
N384 N 0.57382 0.10606 0.02348 0.0
N385 N 0.57443 0.11238 0.00858 0.0
C386 C 0.55637 0.06892 0.0401 0.0
H387 H 0.53853 0.07779 0.04565 0.0
H388 H 0.57368 0.07176 0.04791 0.0
H389 H 0.55286 0.04731 0.03838 0.0
C390 C 0.65785 0.1582 0.04416 0.0
N391 N 0.6321 0.15449 0.048 0.0
N392 N 0.62195 0.13581 0.03905 0.0
C393 C 0.64111 0.12663 0.02952 0.0
C394 C 0.66432 0.14067 0.0323 0.0
C395 C 0.67476 0.1803 0.05034 0.0
H396 H 0.66282 0.19882 0.05122 0.0
H397 H 0.68168 0.17494 0.06216 0.0
H398 H 0.6924 0.18389 0.04288 0.0
O399 O 0.58302 0.19385 0.04909 0.0
O400 O 0.5656 0.16327 0.03366 0.0
H401 H 0.62889 0.1148 0.00681 0.0
H402 H 0.6565 0.09613 0.01436 0.0
C403 C 0.63723 0.10559 0.01744 0.0
H404 H 0.62333 0.09012 0.02172 0.0
H405 H 0.58229 0.13012 0.00426 0.0
O406 O 0.62689 0.20066 0.07412 0.0
C407 C 0.56692 0.18716 0.03841 0.0
Co408 Co 0.57096 0.1275 0.683 0.0
Co409 Co 0.61463 0.15262 0.70451 0.0
C410 C 0.61633 0.16071 0.67031 0.0
O411 O 0.59519 0.14698 0.66861 0.0
O412 O 0.62664 0.16415 0.68367 0.0
C413 C 0.54935 0.09986 0.65672 0.0
O414 O 0.57382 0.10151 0.65142 0.0
C415 C 0.66213 0.17675 0.7186 0.0
C416 C 0.6516 0.17551 0.7435 0.0
C417 C 0.67072 0.18447 0.7332 0.0
N418 N 0.63883 0.16393 0.72016 0.0
N419 N 0.63268 0.16322 0.73508 0.0
C420 C 0.67566 0.18165 0.7034 0.0
H421 H 0.67356 0.16393 0.69582 0.0
H422 H 0.69711 0.18611 0.70505 0.0
H423 H 0.666 0.19883 0.6976 0.0
C424 C 0.58614 0.0793 0.70071 0.0
N425 N 0.58984 0.10494 0.69669 0.0
N426 N 0.60869 0.11529 0.70543 0.0
C427 C 0.61794 0.09633 0.71508 0.0
C428 C 0.60376 0.07306 0.71258 0.0
C429 C 0.56409 0.06236 0.6945 0.0
H430 H 0.54507 0.07355 0.69508 0.0
H431 H 0.56809 0.05789 0.6821 0.0
H432 H 0.56211 0.04342 0.70102 0.0
O433 O 0.55041 0.15401 0.69485 0.0
O434 O 0.58178 0.17238 0.70938 0.0
H435 H 0.63091 0.10872 0.73756 0.0
H436 H 0.64925 0.08112 0.72972 0.0
C437 C 0.63958 0.10035 0.72678 0.0
H438 H 0.65478 0.11429 0.72221 0.0
H439 H 0.61507 0.15517 0.73947 0.0
O440 O 0.54434 0.10814 0.67034 0.0
C441 C 0.55772 0.17102 0.70491 0.0
Co442 Co 0.61188 0.82215 0.43157 0.0
Co443 Co 0.59085 0.86865 0.45245 0.0
C444 C 0.58121 0.86912 0.41849 0.0
O445 O 0.59321 0.84686 0.41708 0.0
O446 O 0.5793 0.88061 0.43162 0.0
C447 C 0.64247 0.79621 0.40703 0.0
O448 O 0.64975 0.82016 0.40259 0.0
C449 C 0.56375 0.91377 0.46721 0.0
C450 C 0.57506 0.90825 0.4918 0.0
C451 C 0.55966 0.92381 0.48205 0.0
N452 N 0.58138 0.8937 0.46814 0.0
N453 N 0.58782 0.89035 0.48289 0.0
C454 C 0.54783 0.91965 0.45291 0.0
H455 H 0.54207 0.90074 0.44721 0.0
H456 H 0.56026 0.93127 0.4447 0.0
H457 H 0.5294 0.9309 0.45555 0.0
C458 C 0.66194 0.83509 0.44799 0.0
N459 N 0.63636 0.84017 0.44445 0.0
N460 N 0.62814 0.86093 0.45247 0.0
C461 C 0.64886 0.87062 0.46067 0.0
C462 C 0.67074 0.85426 0.45836 0.0
C463 C 0.67713 0.81156 0.44207 0.0
H464 H 0.68156 0.81459 0.42959 0.0
H465 H 0.69622 0.80882 0.44835 0.0
H466 H 0.66477 0.79335 0.44315 0.0
O467 O 0.58531 0.80385 0.44428 0.0
O468 O 0.56934 0.83714 0.45826 0.0
H469 H 0.64479 0.88761 0.4833 0.0
H470 H 0.66669 0.90553 0.47073 0.0
C471 C 0.64769 0.89434 0.47116 0.0
H472 H 0.63135 0.90787 0.46768 0.0
H473 H 0.59978 0.87489 0.48699 0.0
O474 O 0.6282 0.79351 0.41909 0.0
C475 C 0.56927 0.81273 0.45441 0.0
Co476 Co 0.91686 0.86049 0.18136 0.0
Co477 Co 0.87781 0.83365 0.20508 0.0
C478 C 0.87091 0.8264 0.17092 0.0
O479 O 0.89073 0.84142 0.16793 0.0
O480 O 0.86367 0.82175 0.18482 0.0
C481 C 0.93726 0.88703 0.15411 0.0
O482 O 0.91333 0.88288 0.14846 0.0
C483 C 0.83057 0.81259 0.22083 0.0
C484 C 0.84738 0.80268 0.24385 0.0
C485 C 0.82464 0.80057 0.23488 0.0
N486 N 0.85576 0.82144 0.22147 0.0
N487 N 0.86553 0.81587 0.23534 0.0
C488 C 0.81403 0.81253 0.20639 0.0
H489 H 0.81988 0.79527 0.19911 0.0
H490 H 0.81771 0.83101 0.19967 0.0
H491 H 0.79253 0.81081 0.20913 0.0
C492 C 0.90278 0.90794 0.20015 0.0
N493 N 0.89954 0.88221 0.19619 0.0
N494 N 0.88286 0.87093 0.20598 0.0
C495 C 0.87486 0.88913 0.21643 0.0
C496 C 0.88732 0.91311 0.21318 0.0
C497 C 0.9226 0.92603 0.19263 0.0
H498 H 0.94257 0.91659 0.19297 0.0
H499 H 0.91719 0.92875 0.18024 0.0
H500 H 0.92349 0.94572 0.19843 0.0
O501 O 0.93948 0.83372 0.19191 0.0
O502 O 0.91153 0.81505 0.20852 0.0
H503 H 0.8674 0.87173 0.23863 0.0
H504 H 0.84903 0.90202 0.23509 0.0
C505 C 0.85654 0.88339 0.22972 0.0
H506 H 0.83941 0.8714 0.22561 0.0
H507 H 0.88511 0.81979 0.23869 0.0
O508 O 0.94207 0.88069 0.16811 0.0
C509 C 0.93453 0.81684 0.20253 0.0
Co510 Co 0.88072 0.16709 0.93252 0.0
Co511 Co 0.90357 0.12455 0.9557 0.0
C512 C 0.91334 0.12069 0.92145 0.0
O513 O 0.89939 0.14135 0.91864 0.0
O514 O 0.91645 0.11206 0.93523 0.0
C515 C 0.84899 0.19194 0.90767 0.0
O516 O 0.84147 0.16796 0.90345 0.0
C517 C 0.92721 0.07755 0.97067 0.0
C518 C 0.92134 0.08706 0.99551 0.0
C519 C 0.93232 0.06837 0.98559 0.0
N520 N 0.91326 0.1003 0.97177 0.0
N521 N 0.90999 0.10594 0.98664 0.0
C522 C 0.93917 0.06786 0.95578 0.0
H523 H 0.95018 0.08447 0.95027 0.0
H524 H 0.92305 0.06163 0.94776 0.0
H525 H 0.95335 0.05125 0.95746 0.0
C526 C 0.83109 0.15443 0.9497 0.0
N527 N 0.85684 0.14984 0.94622 0.0
N528 N 0.86619 0.13119 0.95551 0.0
C529 C 0.84635 0.12281 0.96483 0.0
C530 C 0.82369 0.13746 0.96164 0.0
C531 C 0.81498 0.17665 0.94296 0.0
H532 H 0.82718 0.19504 0.94243 0.0
H533 H 0.80919 0.17133 0.93093 0.0
H534 H 0.79669 0.18045 0.94983 0.0
O535 O 0.90752 0.187 0.94453 0.0
O536 O 0.92348 0.15702 0.9609 0.0
H537 H 0.85543 0.11059 0.98799 0.0
H538 H 0.82919 0.09198 0.97902 0.0
C539 C 0.84879 0.10155 0.97691 0.0
H540 H 0.86328 0.08618 0.9732 0.0
H541 H 0.90096 0.12329 0.99073 0.0
O542 O 0.86375 0.19479 0.91952 0.0
C543 C 0.92315 0.18052 0.95549 0.0
Co544 Co 0.9156 0.62537 0.68004 0.0
Co545 Co 0.87095 0.64827 0.70177 0.0
C546 C 0.86928 0.6578 0.66775 0.0
O547 O 0.89097 0.64497 0.66589 0.0
O548 O 0.85867 0.66015 0.6811 0.0
C549 C 0.93846 0.59896 0.65357 0.0
O550 O 0.91432 0.60092 0.64782 0.0
C551 C 0.82439 0.67321 0.71649 0.0
C552 C 0.8327 0.66599 0.74135 0.0
C553 C 0.81485 0.6781 0.73135 0.0
N554 N 0.84651 0.65831 0.71767 0.0
N555 N 0.85145 0.65424 0.73255 0.0
C556 C 0.8155 0.68593 0.70165 0.0
H557 H 0.83286 0.69548 0.69598 0.0
H558 H 0.80769 0.67035 0.69374 0.0
H559 H 0.80013 0.70141 0.70349 0.0
C560 C 0.90144 0.57606 0.69676 0.0
N561 N 0.89715 0.6018 0.69326 0.0
N562 N 0.87738 0.6109 0.70179 0.0
C563 C 0.86768 0.59076 0.71045 0.0
C564 C 0.88286 0.56819 0.70775 0.0
C565 C 0.924 0.55996 0.69041 0.0
H566 H 0.94307 0.57031 0.69283 0.0
H567 H 0.92187 0.55842 0.67763 0.0
H568 H 0.92448 0.53964 0.69547 0.0
O569 O 0.93544 0.65158 0.69235 0.0
O570 O 0.90345 0.66857 0.70699 0.0
H571 H 0.85414 0.59868 0.7335 0.0
H572 H 0.83487 0.57423 0.72339 0.0
C573 C 0.84563 0.59335 0.72204 0.0
H574 H 0.83129 0.60885 0.71834 0.0
H575 H 0.86823 0.64431 0.73673 0.0
O576 O 0.94278 0.60689 0.66734 0.0
C577 C 0.92761 0.66792 0.70263 0.0
Co578 Co 0.61542 0.66013 0.92823 0.0
Co579 Co 0.58674 0.62538 0.95359 0.0
C580 C 0.57798 0.6161 0.91949 0.0
O581 O 0.59433 0.6344 0.91566 0.0
O582 O 0.57355 0.61054 0.93369 0.0
C583 C 0.64034 0.67962 0.90013 0.0
O584 O 0.63201 0.65717 0.89401 0.0
C585 C 0.56397 0.5803 0.97082 0.0
C586 C 0.55394 0.59981 0.99308 0.0
C587 C 0.55133 0.57621 0.98494 0.0
N588 N 0.5735 0.60528 0.97062 0.0
N589 N 0.56789 0.61664 0.98407 0.0
C590 C 0.56371 0.56232 0.95699 0.0
H591 H 0.58046 0.56721 0.94909 0.0
H592 H 0.56521 0.54116 0.9605 0.0
H593 H 0.54465 0.56501 0.95069 0.0
C594 C 0.66204 0.64579 0.94755 0.0
N595 N 0.63624 0.64307 0.94363 0.0
N596 N 0.6242 0.62829 0.95412 0.0
C597 C 0.64196 0.62105 0.96501 0.0
C598 C 0.66644 0.63203 0.9613 0.0
C599 C 0.68088 0.66411 0.93938 0.0
H600 H 0.67293 0.68471 0.93985 0.0
H601 H 0.6822 0.65832 0.92697 0.0
H602 H 0.70102 0.66369 0.94465 0.0
O603 O 0.58985 0.68477 0.93796 0.0
O604 O 0.57037 0.66056 0.95619 0.0
H605 H 0.6237 0.61818 0.98734 0.0
H606 H 0.65344 0.59828 0.98526 0.0
C607 C 0.63523 0.60541 0.97927 0.0
H608 H 0.62277 0.58803 0.97608 0.0
H609 H 0.57229 0.63642 0.98675 0.0
O610 O 0.63691 0.68363 0.91456 0.0
C611 C 0.5732 0.68242 0.94899 0.0
Co612 Co 0.58173 0.3665 0.17735 0.0
Co613 Co 0.62125 0.34105 0.20148 0.0
C614 C 0.62836 0.33381 0.16709 0.0
O615 O 0.60857 0.34874 0.1639 0.0
O616 O 0.63526 0.32919 0.18107 0.0
C617 C 0.55838 0.3913 0.15025 0.0
O618 O 0.58172 0.38724 0.14378 0.0
C619 C 0.66591 0.31485 0.21745 0.0
C620 C 0.65491 0.32075 0.24208 0.0
C621 C 0.67386 0.3092 0.23255 0.0
N622 N 0.64368 0.32969 0.21809 0.0
N623 N 0.63709 0.3329 0.23283 0.0
C624 C 0.67624 0.30281 0.20273 0.0
H625 H 0.65945 0.29354 0.1964 0.0
H626 H 0.68477 0.3187 0.19529 0.0
H627 H 0.69135 0.28717 0.20481 0.0
C628 C 0.5938 0.41443 0.19588 0.0
N629 N 0.59791 0.38872 0.19226 0.0
N630 N 0.61577 0.37861 0.20178 0.0
C631 C 0.62442 0.39805 0.21132 0.0
C632 C 0.61048 0.42121 0.20807 0.0
C633 C 0.57328 0.43164 0.18829 0.0
H634 H 0.55328 0.42287 0.1902 0.0
H635 H 0.57691 0.43208 0.17559 0.0
H636 H 0.57373 0.45227 0.19291 0.0
O637 O 0.56073 0.33851 0.18747 0.0
O638 O 0.58779 0.32164 0.20518 0.0
H639 H 0.63362 0.38823 0.23484 0.0
H640 H 0.65498 0.41302 0.22662 0.0
C641 C 0.64422 0.39425 0.22411 0.0
H642 H 0.65895 0.3788 0.22089 0.0
H643 H 0.61987 0.34261 0.23657 0.0
O644 O 0.55517 0.38557 0.16448 0.0
C645 C 0.56535 0.32223 0.19842 0.0
Co646 Co 0.87929 0.3222 0.43261 0.0
Co647 Co 0.90294 0.36467 0.45562 0.0
C648 C 0.91269 0.36813 0.42146 0.0
O649 O 0.89862 0.34752 0.41881 0.0
O650 O 0.91597 0.37698 0.43517 0.0
C651 C 0.8534 0.30062 0.40562 0.0
O652 O 0.85564 0.32502 0.40028 0.0
C653 C 0.92792 0.41106 0.47048 0.0
C654 C 0.92145 0.40219 0.49535 0.0
C655 C 0.93311 0.42037 0.48536 0.0
N656 N 0.91328 0.38875 0.47166 0.0
N657 N 0.90966 0.38349 0.48655 0.0
C658 C 0.94022 0.42025 0.45557 0.0
H659 H 0.95065 0.40325 0.45009 0.0
H660 H 0.92434 0.42705 0.44755 0.0
H661 H 0.95496 0.43636 0.45725 0.0
C662 C 0.82998 0.33644 0.44938 0.0
N663 N 0.85591 0.34025 0.44619 0.0
N664 N 0.86536 0.35907 0.4553 0.0
C665 C 0.84532 0.36853 0.46415 0.0
C666 C 0.82238 0.35422 0.46087 0.0
C667 C 0.81332 0.31517 0.44209 0.0
H668 H 0.82237 0.29543 0.44449 0.0
H669 H 0.81316 0.31801 0.42932 0.0
H670 H 0.79255 0.31557 0.44647 0.0
O671 O 0.90558 0.30151 0.44458 0.0
O672 O 0.9221 0.33158 0.46071 0.0
H673 H 0.85419 0.37951 0.48753 0.0
H674 H 0.8295 0.40005 0.47851 0.0
C675 C 0.84843 0.38928 0.47649 0.0
H676 H 0.8639 0.40388 0.4731 0.0
H677 H 0.9 0.36654 0.49071 0.0
O678 O 0.86076 0.29565 0.41943 0.0
C679 C 0.92141 0.30797 0.45546 0.0
Co680 Co 0.91094 0.36774 0.81754 0.0
Co681 Co 0.87548 0.33906 0.79274 0.0
C682 C 0.86728 0.33063 0.82694 0.0
O683 O 0.88527 0.34742 0.83056 0.0
O684 O 0.86182 0.32551 0.81282 0.0
C685 C 0.93148 0.39235 0.84532 0.0
O686 O 0.90852 0.38543 0.85141 0.0
C687 C 0.82858 0.31762 0.77722 0.0
C688 C 0.84513 0.30618 0.7544 0.0
C689 C 0.82226 0.30481 0.76339 0.0
N690 N 0.85402 0.32562 0.77646 0.0
N691 N 0.86375 0.31897 0.76276 0.0
C692 C 0.81094 0.32304 0.79086 0.0
H693 H 0.81731 0.34163 0.79675 0.0
H694 H 0.78985 0.3249 0.78719 0.0
H695 H 0.81275 0.30645 0.79931 0.0
C696 C 0.89575 0.41441 0.79844 0.0
N697 N 0.8934 0.38862 0.8024 0.0
N698 N 0.87782 0.37662 0.7923 0.0
C699 C 0.86943 0.39446 0.78173 0.0
C700 C 0.8806 0.41899 0.78523 0.0
C701 C 0.91385 0.43362 0.80646 0.0
H702 H 0.91041 0.43268 0.81917 0.0
H703 H 0.91063 0.45429 0.8023 0.0
H704 H 0.93482 0.42775 0.80427 0.0
O705 O 0.93497 0.34189 0.8075 0.0
O706 O 0.91052 0.32303 0.78919 0.0
H707 H 0.8668 0.3742 0.76 0.0
H708 H 0.84838 0.40497 0.76057 0.0
C709 C 0.85424 0.38721 0.76739 0.0
H710 H 0.83612 0.37591 0.77067 0.0
H711 H 0.88339 0.32233 0.75932 0.0
O712 O 0.93534 0.38866 0.8309 0.0
C713 C 0.9325 0.32564 0.79628 0.0
Co714 Co 0.87943 0.66881 0.06292 0.0
Co715 Co 0.90303 0.62461 0.04117 0.0
C716 C 0.91091 0.62207 0.07535 0.0
O717 O 0.89784 0.64361 0.07725 0.0
O718 O 0.91406 0.61199 0.06191 0.0
C719 C 0.84697 0.69397 0.08728 0.0
O720 O 0.83895 0.67004 0.0913 0.0
C721 C 0.92827 0.57822 0.02659 0.0
C722 C 0.92496 0.58856 0.00173 0.0
C723 C 0.93577 0.57014 0.01185 0.0
N724 N 0.91376 0.60055 0.02529 0.0
N725 N 0.91182 0.60659 0.01039 0.0
C726 C 0.93539 0.5654 0.0417 0.0
H727 H 0.95146 0.5771 0.0473 0.0
H728 H 0.91781 0.56539 0.04949 0.0
H729 H 0.9423 0.54462 0.04 0.0
C730 C 0.83064 0.65554 0.04499 0.0
N731 N 0.85614 0.65107 0.04908 0.0
N732 N 0.8659 0.6318 0.04039 0.0
C733 C 0.84664 0.6229 0.03086 0.0
C734 C 0.82387 0.63788 0.03325 0.0
C735 C 0.81424 0.67814 0.05104 0.0
H736 H 0.82675 0.69625 0.0521 0.0
H737 H 0.80681 0.67295 0.06279 0.0
H738 H 0.79697 0.68235 0.0434 0.0
O739 O 0.90667 0.68832 0.05115 0.0
O740 O 0.924 0.65669 0.03642 0.0
H741 H 0.85718 0.60843 0.00835 0.0
H742 H 0.83023 0.5908 0.01733 0.0
C743 C 0.84972 0.60051 0.01954 0.0
H744 H 0.86392 0.5855 0.02405 0.0
H745 H 0.90264 0.62377 0.00617 0.0
O746 O 0.86211 0.69674 0.07558 0.0
C747 C 0.9234 0.68067 0.04104 0.0
Co748 Co 0.57459 0.62626 0.31423 0.0
Co749 Co 0.61533 0.65112 0.29069 0.0
C750 C 0.61975 0.66115 0.32473 0.0
O751 O 0.59989 0.6462 0.3277 0.0
O752 O 0.62771 0.66493 0.31089 0.0
C753 C 0.55412 0.60093 0.34165 0.0
O754 O 0.57851 0.60406 0.34682 0.0
C755 C 0.66243 0.67444 0.27599 0.0
C756 C 0.6511 0.67376 0.2512 0.0
C757 C 0.6707 0.68219 0.26134 0.0
N758 N 0.63885 0.6621 0.27463 0.0
N759 N 0.63222 0.6617 0.25977 0.0
C760 C 0.67664 0.67871 0.29104 0.0
H761 H 0.66752 0.69586 0.29718 0.0
H762 H 0.67456 0.6608 0.29848 0.0
H763 H 0.69809 0.6829 0.28913 0.0
C764 C 0.58954 0.57744 0.29708 0.0
N765 N 0.5928 0.60339 0.30044 0.0
N766 N 0.61086 0.61356 0.29108 0.0
C767 C 0.62028 0.59414 0.2818 0.0
C768 C 0.60688 0.5707 0.28518 0.0
C769 C 0.56889 0.56009 0.30443 0.0
H770 H 0.57169 0.56016 0.31721 0.0
H771 H 0.57004 0.53933 0.30008 0.0
H772 H 0.54885 0.56841 0.302 0.0
O773 O 0.55283 0.65211 0.30252 0.0
O774 O 0.58165 0.66918 0.28581 0.0
H775 H 0.62852 0.60686 0.25865 0.0
H776 H 0.64903 0.57974 0.26505 0.0
C777 C 0.63943 0.59857 0.26874 0.0
H778 H 0.65508 0.61284 0.27232 0.0
H779 H 0.61434 0.65401 0.25555 0.0
O780 O 0.54884 0.60728 0.32771 0.0
C781 C 0.55833 0.66795 0.29146 0.0
Co782 Co 0.611 0.3206 0.56287 0.0
Co783 Co 0.58697 0.36425 0.54081 0.0
C784 C 0.57778 0.36644 0.57492 0.0
O785 O 0.59129 0.34522 0.57691 0.0
O786 O 0.57476 0.37649 0.56146 0.0
C787 C 0.63726 0.29867 0.58961 0.0
O788 O 0.63531 0.32307 0.59498 0.0
C789 C 0.56211 0.411 0.52628 0.0
C790 C 0.56503 0.40071 0.5014 0.0
C791 C 0.5547 0.41934 0.51158 0.0
N792 N 0.57605 0.38831 0.52492 0.0
N793 N 0.57777 0.38231 0.51 0.0
C794 C 0.55569 0.42412 0.54141 0.0
H795 H 0.57319 0.42314 0.54923 0.0
H796 H 0.54993 0.44526 0.53972 0.0
H797 H 0.53893 0.41334 0.54696 0.0
C798 C 0.65991 0.33544 0.54585 0.0
N799 N 0.63412 0.33925 0.5494 0.0
N800 N 0.62442 0.35835 0.54058 0.0
C801 C 0.64408 0.36789 0.5315 0.0
C802 C 0.66711 0.35345 0.53438 0.0
C803 C 0.67675 0.31388 0.55273 0.0
H804 H 0.67703 0.31608 0.56554 0.0
H805 H 0.69746 0.31458 0.54827 0.0
H806 H 0.66776 0.29424 0.55003 0.0
O807 O 0.58487 0.30013 0.55079 0.0
O808 O 0.56732 0.33134 0.5358 0.0
H809 H 0.63319 0.37885 0.50842 0.0
H810 H 0.65925 0.39889 0.51649 0.0
C811 C 0.64031 0.38859 0.51919 0.0
H812 H 0.62549 0.40355 0.52301 0.0
H813 H 0.58668 0.36503 0.50573 0.0
O814 O 0.62969 0.29383 0.57583 0.0
C815 C 0.56838 0.30735 0.54043 0.0
Co816 Co 0.07186 0.36085 0.31356 0.0
Co817 Co 0.11612 0.33741 0.29195 0.0
C818 C 0.11831 0.32958 0.32619 0.0
O819 O 0.09685 0.34276 0.32808 0.0
O820 O 0.12834 0.32628 0.31275 0.0
C821 C 0.04644 0.39178 0.33821 0.0
O822 O 0.07052 0.39817 0.34286 0.0
C823 C 0.16756 0.32203 0.27866 0.0
C824 C 0.15545 0.3096 0.2551 0.0
C825 C 0.17712 0.31055 0.26505 0.0
N826 N 0.1415 0.32705 0.27682 0.0
N827 N 0.13444 0.31985 0.26267 0.0
C828 C 0.18265 0.32903 0.29306 0.0
H829 H 0.17317 0.34629 0.29891 0.0
H830 H 0.20368 0.33385 0.29028 0.0
H831 H 0.18215 0.3119 0.30118 0.0
C832 C 0.08522 0.40965 0.29574 0.0
N833 N 0.08972 0.38419 0.29985 0.0
N834 N 0.10878 0.37438 0.29104 0.0
C835 C 0.11739 0.39342 0.28127 0.0
C836 C 0.10269 0.41638 0.28388 0.0
C837 C 0.06355 0.42652 0.30247 0.0
H838 H 0.04418 0.41616 0.30113 0.0
H839 H 0.06719 0.42915 0.31507 0.0
H840 H 0.06261 0.44639 0.29688 0.0
O841 O 0.05278 0.33345 0.30164 0.0
O842 O 0.08431 0.3163 0.28674 0.0
H843 H 0.12804 0.37446 0.25998 0.0
H844 H 0.14221 0.40715 0.26221 0.0
C845 C 0.13688 0.38858 0.26842 0.0
H846 H 0.15518 0.37941 0.27323 0.0
H847 H 0.11506 0.32109 0.25838 0.0
O848 O 0.04353 0.37809 0.32594 0.0
C849 C 0.06034 0.31689 0.2914 0.0
Co850 Co 0.37803 0.32366 0.06376 0.0
Co851 Co 0.39913 0.36896 0.04186 0.0
C852 C 0.41084 0.36976 0.07576 0.0
O853 O 0.39809 0.34808 0.07777 0.0
O854 O 0.41236 0.38056 0.06242 0.0
C855 C 0.34829 0.29934 0.08913 0.0
O856 O 0.34238 0.32372 0.09345 0.0
C857 C 0.42266 0.41648 0.02738 0.0
C858 C 0.41553 0.40845 0.00249 0.0
C859 C 0.42736 0.42634 0.01256 0.0
N860 N 0.40816 0.39412 0.0261 0.0
N861 N 0.4041 0.38937 0.01119 0.0
C862 C 0.43544 0.4252 0.04222 0.0
H863 H 0.44637 0.40811 0.0473 0.0
H864 H 0.41975 0.43136 0.05056 0.0
H865 H 0.44979 0.44167 0.04058 0.0
C866 C 0.32773 0.33692 0.04766 0.0
N867 N 0.35337 0.34198 0.05108 0.0
N868 N 0.36178 0.362 0.04251 0.0
C869 C 0.34127 0.37112 0.03393 0.0
C870 C 0.31919 0.35523 0.03668 0.0
C871 C 0.31244 0.31377 0.05399 0.0
H872 H 0.32424 0.29526 0.05251 0.0
H873 H 0.30923 0.31679 0.0666 0.0
H874 H 0.29279 0.31157 0.04827 0.0
O875 O 0.40363 0.30457 0.05067 0.0
O876 O 0.41928 0.33683 0.03573 0.0
H877 H 0.34858 0.38436 0.01075 0.0
H878 H 0.32395 0.40341 0.02085 0.0
C879 C 0.34326 0.39299 0.02218 0.0
H880 H 0.35851 0.4077 0.02572 0.0
H881 H 0.39454 0.37245 0.00692 0.0
O882 O 0.36156 0.29567 0.07676 0.0
C883 C 0.41907 0.31261 0.03997 0.0
Co884 Co 0.40823 0.62427 0.81874 0.0
Co885 Co 0.37393 0.65213 0.79306 0.0
C886 C 0.36281 0.65957 0.82715 0.0
O887 O 0.38082 0.64316 0.83132 0.0
O888 O 0.35861 0.66469 0.81289 0.0
C889 C 0.42858 0.5996 0.84668 0.0
O890 O 0.40597 0.60729 0.8529 0.0
C891 C 0.32689 0.67194 0.77715 0.0
C892 C 0.34372 0.68554 0.75482 0.0
C893 C 0.32051 0.68537 0.76354 0.0
N894 N 0.35268 0.66511 0.77656 0.0
N895 N 0.36259 0.673 0.76313 0.0
C896 C 0.30904 0.66493 0.79044 0.0
H897 H 0.30987 0.68098 0.79927 0.0
H898 H 0.31595 0.64621 0.796 0.0
H899 H 0.28816 0.66248 0.78647 0.0
C900 C 0.39575 0.57734 0.79916 0.0
N901 N 0.39271 0.60314 0.80296 0.0
N902 N 0.37762 0.61478 0.79247 0.0
C903 C 0.37027 0.59671 0.78178 0.0
C904 C 0.38156 0.5724 0.78564 0.0
C905 C 0.41325 0.55836 0.8078 0.0
H906 H 0.40826 0.55903 0.82034 0.0
H907 H 0.41098 0.5377 0.80343 0.0
H908 H 0.4343 0.5647 0.80651 0.0
O909 O 0.43178 0.6517 0.80966 0.0
O910 O 0.40851 0.6696 0.79048 0.0
H911 H 0.36773 0.6174 0.76017 0.0
H912 H 0.35112 0.58556 0.76013 0.0
C913 C 0.35554 0.60347 0.7672 0.0
H914 H 0.33664 0.61365 0.7702 0.0
H915 H 0.38249 0.67076 0.7599 0.0
O916 O 0.43244 0.60337 0.83227 0.0
C917 C 0.42973 0.66801 0.79843 0.0
Co918 Co 0.11425 0.66558 0.56516 0.0
Co919 Co 0.08988 0.6234 0.54239 0.0
C920 C 0.08116 0.61904 0.57642 0.0
O921 O 0.09472 0.64012 0.57878 0.0
O922 O 0.07803 0.60972 0.56279 0.0
C923 C 0.14012 0.68704 0.59223 0.0
O924 O 0.13739 0.66281 0.59775 0.0
C925 C 0.06867 0.57591 0.52672 0.0
C926 C 0.06224 0.59196 0.50311 0.0
C927 C 0.05786 0.56987 0.51234 0.0
N928 N 0.07896 0.60056 0.52601 0.0
N929 N 0.07548 0.60983 0.51179 0.0
C930 C 0.06567 0.5604 0.54143 0.0
H931 H 0.08317 0.56371 0.54903 0.0
H932 H 0.06344 0.53882 0.5391 0.0
H933 H 0.04758 0.56742 0.54758 0.0
C934 C 0.16278 0.65198 0.54738 0.0
N935 N 0.13711 0.64789 0.55114 0.0
N936 N 0.12709 0.6296 0.5419 0.0
C937 C 0.14625 0.62101 0.53218 0.0
C938 C 0.16944 0.63504 0.53526 0.0
C939 C 0.1799 0.67293 0.55461 0.0
H940 H 0.18021 0.67006 0.56737 0.0
H941 H 0.20056 0.67223 0.55007 0.0
H942 H 0.17113 0.69281 0.55227 0.0
O943 O 0.08774 0.68677 0.55376 0.0
O944 O 0.06985 0.65641 0.53834 0.0
H945 H 0.13044 0.61257 0.50973 0.0
H946 H 0.16049 0.59459 0.51409 0.0
C947 C 0.14155 0.60212 0.51903 0.0
H948 H 0.12941 0.58505 0.52309 0.0
H949 H 0.0807 0.62902 0.50829 0.0
O950 O 0.13317 0.69178 0.57832 0.0
C951 C 0.07092 0.68009 0.54346 0.0
Co952 Co 0.07635 0.62528 0.17939 0.0
Co953 Co 0.11941 0.64843 0.20201 0.0
C954 C 0.12319 0.6579 0.16802 0.0
O955 O 0.10185 0.64471 0.16571 0.0
O956 O 0.13288 0.66052 0.18161 0.0
C957 C 0.05333 0.59979 0.15253 0.0
O958 O 0.07728 0.60212 0.14655 0.0
C959 C 0.16688 0.66955 0.2178 0.0
C960 C 0.15165 0.67269 0.24183 0.0
C961 C 0.17324 0.67876 0.23251 0.0
N962 N 0.14256 0.65849 0.21843 0.0
N963 N 0.13377 0.66007 0.23286 0.0
C964 C 0.18154 0.67486 0.20301 0.0
H965 H 0.17245 0.69238 0.19723 0.0
H966 H 0.17969 0.65748 0.19514 0.0
H967 H 0.20286 0.67915 0.20511 0.0
C968 C 0.08935 0.57616 0.19669 0.0
N969 N 0.0939 0.60181 0.19308 0.0
N970 N 0.11262 0.61126 0.20223 0.0
C971 C 0.1211 0.59166 0.21169 0.0
C972 C 0.10645 0.56886 0.2086 0.0
C973 C 0.06783 0.55966 0.18953 0.0
H974 H 0.07045 0.55943 0.17675 0.0
H975 H 0.06811 0.53892 0.19397 0.0
H976 H 0.04822 0.56889 0.19205 0.0
O977 O 0.0559 0.65182 0.19116 0.0
O978 O 0.08686 0.66902 0.20642 0.0
H979 H 0.13034 0.60544 0.2345 0.0
H980 H 0.14874 0.57638 0.22883 0.0
C981 C 0.14056 0.59557 0.22465 0.0
H982 H 0.15719 0.60841 0.22072 0.0
H983 H 0.11487 0.65393 0.23639 0.0
O984 O 0.0494 0.607 0.16648 0.0
C985 C 0.06306 0.66837 0.20148 0.0
Co986 Co 0.11199 0.32192 0.9312 0.0
Co987 Co 0.08904 0.36433 0.95422 0.0
C988 C 0.07781 0.3676 0.92025 0.0
O989 O 0.09166 0.34682 0.9175 0.0
O990 O 0.07551 0.37676 0.93397 0.0
C991 C 0.1432 0.2975 0.90598 0.0
O992 O 0.14958 0.32161 0.9014 0.0
C993 C 0.07227 0.41441 0.96852 0.0
C994 C 0.06233 0.40096 0.99225 0.0
C995 C 0.06119 0.42287 0.98248 0.0
N996 N 0.079 0.38867 0.96997 0.0
N997 N 0.07333 0.38084 0.98423 0.0
C998 C 0.07714 0.43027 0.95411 0.0
H999 H 0.05959 0.42862 0.94637 0.0
H1000 H 0.09467 0.42226 0.9478 0.0
H1001 H 0.08048 0.45156 0.95695 0.0
C1002 C 0.1617 0.33588 0.94812 0.0
N1003 N 0.13592 0.34001 0.94457 0.0
N1004 N 0.12623 0.35838 0.95389 0.0
C1005 C 0.14561 0.36694 0.96344 0.0
C1006 C 0.16872 0.35289 0.96016 0.0
C1007 C 0.17856 0.31474 0.94085 0.0
H1008 H 0.18092 0.31915 0.92832 0.0
H1009 H 0.19857 0.31364 0.94625 0.0
H1010 H 0.1684 0.2952 0.94189 0.0
O1011 O 0.08625 0.30138 0.94364 0.0
O1012 O 0.06977 0.33159 0.95967 0.0
H1013 H 0.128 0.37533 0.98546 0.0
H1014 H 0.15969 0.39127 0.98263 0.0
C1015 C 0.14093 0.38538 0.97683 0.0
H1016 H 0.13051 0.40351 0.97269 0.0
H1017 H 0.07597 0.36143 0.98828 0.0
O1018 O 0.12926 0.29445 0.91816 0.0
C1019 C 0.07058 0.30789 0.95458 0.0
Co1020 Co 0.41849 0.36382 0.6817 0.0
Co1021 Co 0.37557 0.33947 0.70388 0.0
C1022 C 0.37286 0.33018 0.66986 0.0
O1023 O 0.3939 0.3439 0.66771 0.0
O1024 O 0.36307 0.32716 0.68338 0.0
C1025 C 0.43995 0.39069 0.65506 0.0
O1026 O 0.41553 0.38872 0.64972 0.0
C1027 C 0.3257 0.32164 0.718 0.0
C1028 C 0.3393 0.31095 0.74158 0.0
C1029 C 0.31736 0.30998 0.73183 0.0
N1030 N 0.35139 0.32852 0.71951 0.0
N1031 N 0.35931 0.32239 0.73368 0.0
C1032 C 0.30976 0.32705 0.70368 0.0
H1033 H 0.31777 0.34478 0.69756 0.0
H1034 H 0.28851 0.3304 0.70661 0.0
H1035 H 0.31133 0.30976 0.69573 0.0
C1036 C 0.40358 0.41251 0.69906 0.0
N1037 N 0.39989 0.38679 0.69528 0.0
N1038 N 0.38128 0.37667 0.70428 0.0
C1039 C 0.37212 0.39578 0.71383 0.0
C1040 C 0.38601 0.41908 0.71088 0.0
C1041 C 0.42489 0.42971 0.69225 0.0
H1042 H 0.44461 0.42053 0.69452 0.0
H1043 H 0.42224 0.43073 0.67948 0.0
H1044 H 0.4244 0.45014 0.69715 0.0
O1045 O 0.43937 0.33772 0.69368 0.0
O1046 O 0.40852 0.31998 0.70884 0.0
H1047 H 0.36249 0.37819 0.73569 0.0
H1048 H 0.34634 0.40973 0.73232 0.0
C1049 C 0.35286 0.3909 0.72678 0.0
H1050 H 0.33521 0.38016 0.72226 0.0
H1051 H 0.37869 0.32508 0.73774 0.0
O1052 O 0.44492 0.38286 0.66877 0.0
C1053 C 0.43243 0.32118 0.70409 0.0
Co1054 Co 0.37965 0.67198 0.43281 0.0
Co1055 Co 0.40468 0.63027 0.45556 0.0
C1056 C 0.41517 0.62758 0.42151 0.0
O1057 O 0.40067 0.64798 0.41902 0.0
O1058 O 0.41819 0.61831 0.43515 0.0
C1059 C 0.35297 0.69317 0.40593 0.0
O1060 O 0.3558 0.66895 0.40042 0.0
C1061 C 0.42277 0.58036 0.46952 0.0
C1062 C 0.43331 0.59362 0.49319 0.0
C1063 C 0.43431 0.57181 0.48334 0.0
N1064 N 0.41588 0.60603 0.47113 0.0
N1065 N 0.42194 0.61376 0.48535 0.0
C1066 C 0.41746 0.56458 0.45513 0.0
H1067 H 0.39977 0.57267 0.44901 0.0
H1068 H 0.41411 0.54329 0.45797 0.0
H1069 H 0.4348 0.56621 0.44723 0.0
C1070 C 0.33088 0.65561 0.44961 0.0
N1071 N 0.35683 0.65268 0.44616 0.0
N1072 N 0.36727 0.6347 0.45546 0.0
C1073 C 0.3482 0.62528 0.46496 0.0
C1074 C 0.32452 0.6383 0.46162 0.0
C1075 C 0.3132 0.67604 0.44232 0.0
H1076 H 0.32102 0.6962 0.44496 0.0
H1077 H 0.31352 0.67352 0.42953 0.0
H1078 H 0.2924 0.67436 0.44655 0.0
O1079 O 0.40465 0.69365 0.44511 0.0
O1080 O 0.42261 0.66391 0.46092 0.0
H1081 H 0.3663 0.61724 0.48689 0.0
H1082 H 0.33487 0.60061 0.48415 0.0
C1083 C 0.35348 0.60694 0.47831 0.0
H1084 H 0.36429 0.58909 0.4741 0.0
H1085 H 0.4192 0.63308 0.48951 0.0
O1086 O 0.36028 0.69804 0.41976 0.0
C1087 C 0.42074 0.68764 0.45595 0.0
H1088 H 0.31981 0.24151 0.22329 0.0
H1089 H 0.29891 0.19021 0.26154 0.0
H1090 H 0.28509 0.27276 0.23091 0.0
H1091 H 0.26314 0.22065 0.26884 0.0
H1092 H 0.21206 0.28669 0.28557 0.0
H1093 H 0.252 0.26201 0.27937 0.0
H1094 H 0.23885 0.27701 0.23054 0.0
H1095 H 0.20015 0.30377 0.23689 0.0
C1096 C 0.30742 0.23682 0.23321 0.0
C1097 C 0.31153 0.21335 0.2417 0.0
C1098 C 0.28752 0.25467 0.23759 0.0
C1099 C 0.27109 0.24921 0.25043 0.0
C1100 C 0.27563 0.22579 0.25904 0.0
C1101 C 0.29589 0.20819 0.25481 0.0
C1102 C 0.21824 0.28589 0.27358 0.0
C1103 C 0.20314 0.29789 0.26176 0.0
C1104 C 0.24091 0.27104 0.26997 0.0
C1105 C 0.24865 0.26726 0.25444 0.0
C1106 C 0.23385 0.27977 0.24265 0.0
C1107 C 0.21147 0.29498 0.24629 0.0
H1108 H 0.9422 0.94188 0.48494 0.0
H1109 H 0.963 0.95337 0.53314 0.0
H1110 H 0.97151 0.97837 0.47773 0.0
H1111 H 0.99055 0.99102 0.52612 0.0
H1112 H 0.06332 0.03375 0.50669 0.0
H1113 H 0.03217 -0.0013 0.51417 0.0
H1114 H 0.97768 0.02503 0.47844 0.0
H1115 H 0.00931 0.0593 0.47072 0.0
C1116 C 0.95246 0.95265 0.49404 0.0
C1117 C 0.94971 0.94503 0.50964 0.0
C1118 C 0.96914 0.97369 0.48993 0.0
C1119 C 0.98341 0.98768 0.50135 0.0
C1120 C 0.9801 0.9805 0.517 0.0
C1121 C 0.96366 0.95924 0.52109 0.0
C1122 C 0.04472 0.03179 0.50042 0.0
C1123 C 0.03891 0.04865 0.48792 0.0
C1124 C 0.02676 0.01194 0.50477 0.0
C1125 C 0.00238 0.009 0.49688 0.0
C1126 C -0.00352 0.02633 0.48454 0.0
C1127 C 0.0146 0.04591 0.48008 0.0
H1128 H 0.30132 0.69537 0.73468 0.0
H1129 H 0.28561 0.71105 0.78314 0.0
H1130 H 0.26417 0.72395 0.72754 0.0
H1131 H 0.24735 0.73765 0.77612 0.0
H1132 H 0.20053 0.80878 0.75854 0.0
H1133 H 0.23755 0.7796 0.76549 0.0
H1134 H 0.21731 0.7275 0.72728 0.0
H1135 H 0.18111 0.75729 0.72011 0.0
C1136 C 0.28954 0.70436 0.74383 0.0
C1137 C 0.29606 0.70025 0.75949 0.0
C1138 C 0.26812 0.72061 0.73974 0.0
C1139 C 0.25266 0.73308 0.75125 0.0
C1140 C 0.25896 0.7286 0.76693 0.0
C1141 C 0.28059 0.71266 0.771 0.0
C1142 C 0.20426 0.79116 0.75161 0.0
C1143 C 0.18849 0.7855 0.73863 0.0
C1144 C 0.22526 0.7743 0.75564 0.0
C1145 C 0.23046 0.75114 0.74693 0.0
C1146 C 0.2143 0.74542 0.73404 0.0
C1147 C 0.19358 0.76248 0.7299 0.0
H1148 H 0.46086 0.95541 0.96176 0.0
H1149 H 0.44347 0.9411 0.01018 0.0
H1150 H 0.48749 0.99367 0.96874 0.0
H1151 H 0.47199 0.97829 0.0173 0.0
H1152 H 0.50684 0.06077 0.02437 0.0
H1153 H 0.47634 0.02524 0.0171 0.0
H1154 H 0.52949 0.00239 0.97987 0.0
H1155 H 0.55946 0.03868 0.98694 0.0
C1156 C 0.46206 0.96076 0.97387 0.0
C1157 C 0.4493 0.9456 0.98538 0.0
C1158 C 0.47801 0.98239 0.97792 0.0
C1159 C 0.48206 0.98901 0.99359 0.0
C1160 C 0.46902 0.97404 0.0051 0.0
C1161 C 0.4528 0.95261 0.00103 0.0
C1162 C 0.51212 0.04785 0.01479 0.0
C1163 C 0.53568 0.05197 0.00638 0.0
C1164 C 0.49464 0.02755 0.01059 0.0
C1165 C 0.50046 0.01087 -0.00207 0.0
C1166 C 0.52413 0.01512 0.98953 0.0
C1167 C 0.54144 0.03568 0.99363 0.0
H1168 H 0.22665 0.6704 0.22997 0.0
H1169 H 0.16816 0.72787 0.24481 0.0
H1170 H 0.26233 0.70122 0.23709 0.0
H1171 H 0.20346 0.75914 0.2514 0.0
H1172 H 0.27243 0.79792 0.27651 0.0
H1173 H 0.23743 0.7666 0.26969 0.0
H1174 H 0.2826 0.74208 0.22939 0.0
H1175 H 0.31842 0.77218 0.2369 0.0
C1176 C 0.22155 0.68978 0.23461 0.0
C1177 C 0.19488 0.69697 0.23681 0.0
C1178 C 0.24187 0.70747 0.23863 0.0
C1179 C 0.23577 0.73272 0.24479 0.0
C1180 C 0.20892 0.73973 0.24695 0.0
C1181 C 0.1887 0.72193 0.24312 0.0
C1182 C 0.2751 0.78541 0.26639 0.0
C1183 C 0.29848 0.78682 0.25752 0.0
C1184 C 0.25484 0.76778 0.26231 0.0
C1185 C 0.25726 0.75162 0.24904 0.0
C1186 C 0.28033 0.75376 0.23987 0.0
C1187 C 0.30072 0.77121 0.24407 0.0
H1188 H 0.54757 0.97076 0.46765 0.0
H1189 H 0.52936 0.92353 0.50818 0.0
H1190 H 0.51442 0.00362 0.4756 0.0
H1191 H 0.49654 0.95666 0.5163 0.0
H1192 H 0.46695 0.04032 0.53262 0.0
H1193 H 0.49668 0.00443 0.52513 0.0
H1194 H 0.4645 0.00613 0.47867 0.0
H1195 H 0.43407 0.04178 0.48628 0.0
C1196 C 0.53621 0.96726 0.47814 0.0
C1197 C 0.54049 0.94431 0.4871 0.0
C1198 C 0.51731 0.98605 0.4827 0.0
C1199 C 0.50269 0.98245 0.49645 0.0
C1200 C 0.50755 0.95989 0.50565 0.0
C1201 C 0.52631 0.94099 0.50101 0.0
C1202 C 0.46534 0.03241 0.521 0.0
C1203 C 0.4476 0.04344 0.51015 0.0
C1204 C 0.48267 0.01201 0.51666 0.0
C1205 C 0.4829 0.00256 0.50133 0.0
C1206 C 0.46487 0.01324 0.49054 0.0
C1207 C 0.4474 0.0335 0.49491 0.0
H1208 H 0.2018 0.18314 0.73663 0.0
H1209 H 0.17841 0.2348 0.77421 0.0
H1210 H 0.23705 0.21428 0.72947 0.0
H1211 H 0.21261 0.26667 0.76674 0.0
H1212 H 0.29546 0.30219 0.76023 0.0
H1213 H 0.25869 0.27308 0.76705 0.0
H1214 H 0.24599 0.2558 0.71843 0.0
H1215 H 0.28409 0.28284 0.7118 0.0
C1216 C 0.20424 0.20128 0.74329 0.0
C1217 C 0.18796 0.20642 0.75613 0.0
C1218 C 0.22419 0.21927 0.73913 0.0
C1219 C 0.22775 0.24307 0.74753 0.0
C1220 C 0.21091 0.24833 0.76021 0.0
C1221 C 0.19132 0.2301 0.76452 0.0
C1222 C 0.28465 0.29235 0.75098 0.0
C1223 C 0.29248 0.29543 0.73543 0.0
C1224 C 0.2634 0.27578 0.75488 0.0
C1225 C 0.24928 0.26202 0.7433 0.0
C1226 C 0.25659 0.26578 0.7277 0.0
C1227 C 0.27814 0.282 0.72383 0.0
H1228 H 0.06611 0.97095 0.01313 0.0
H1229 H 0.00452 0.91354 0.00345 0.0
H1230 H 0.03522 0.00717 0.00717 0.0
H1231 H 0.97319 0.94946 -0.00188 0.0
H1232 H 0.93303 0.01837 0.97317 0.0
H1233 H 0.9633 0.98216 0.97958 0.0
H1234 H -0.00305 0.02976 0.01653 0.0
H1235 H 0.96789 0.0666 0.00929 0.0
C1236 C 0.04582 0.96622 0.00988 0.0
C1237 C 0.03751 0.9397 0.00874 0.0
C1238 C 0.02808 0.98686 0.00656 0.0
C1239 C 0.00165 0.98125 0.0022 0.0
C1240 C 0.99347 0.95454 0.00117 0.0
C1241 C 0.01132 0.93397 0.00427 0.0
C1242 C 0.94725 0.02119 0.98247 0.0
C1243 C 0.94884 0.04553 0.99037 0.0
C1244 C 0.9643 0.0003 0.98634 0.0
C1245 C 0.98283 0.00312 -0.00153 0.0
C1246 C 0.98343 0.02713 0.00687 0.0
C1247 C 0.96659 0.04812 0.00285 0.0
H1248 H 0.66035 0.74849 0.75137 0.0
H1249 H 0.71695 0.81143 0.75975 0.0
H1250 H 0.69659 0.7182 0.74483 0.0
H1251 H 0.75342 0.78134 0.75293 0.0
H1252 H 0.81314 0.71322 0.75528 0.0
H1253 H 0.77638 0.74242 0.76263 0.0
H1254 H 0.72908 0.71029 0.72512 0.0
H1255 H 0.76537 0.68021 0.71837 0.0
C1256 C 0.68063 0.75582 0.7517 0.0
C1257 C 0.68605 0.78205 0.75625 0.0
C1258 C 0.70136 0.73855 0.74791 0.0
C1259 C 0.72791 0.74732 0.74842 0.0
C1260 C 0.73323 0.77381 0.75275 0.0
C1261 C 0.71244 0.79103 0.75664 0.0
C1262 C 0.79478 0.71234 0.74871 0.0
C1263 C 0.79224 0.695 0.73603 0.0
C1264 C 0.77385 0.72922 0.7528 0.0
C1265 C 0.74993 0.72895 0.74433 0.0
C1266 C 0.7472 0.71098 0.73192 0.0
C1267 C 0.76808 0.69402 0.7279 0.0
H1268 H 0.8271 0.2361 0.25312 0.0
H1269 H 0.769 0.17543 0.26337 0.0
H1270 H 0.79159 0.26753 0.24718 0.0
H1271 H 0.73315 0.20638 0.25674 0.0
H1272 H 0.67409 0.27437 0.25669 0.0
H1273 H 0.71028 0.24522 0.26491 0.0
H1274 H 0.75978 0.27669 0.22812 0.0
H1275 H 0.72428 0.30707 0.22077 0.0
C1276 C 0.80661 0.22954 0.25396 0.0
C1277 C 0.80057 0.20356 0.25871 0.0
C1278 C 0.78626 0.24743 0.25049 0.0
C1279 C 0.75945 0.2395 0.25141 0.0
C1280 C 0.75353 0.21333 0.25617 0.0
C1281 C 0.77396 0.19555 0.25987 0.0
C1282 C 0.69284 0.27515 0.25049 0.0
C1283 C 0.69617 0.29235 0.23779 0.0
C1284 C 0.71347 0.25826 0.25507 0.0
C1285 C 0.73785 0.25827 0.24704 0.0
C1286 C 0.74136 0.27617 0.23464 0.0
C1287 C 0.72085 0.29326 0.23021 0.0
H1288 H 0.80275 0.29615 0.73447 0.0
H1289 H 0.78864 0.27674 0.78265 0.0
H1290 H 0.76646 0.26682 0.72692 0.0
H1291 H 0.75117 0.24931 0.77526 0.0
H1292 H 0.70642 0.17792 0.75647 0.0
H1293 H 0.74267 0.20778 0.76373 0.0
H1294 H 0.71976 0.26162 0.72686 0.0
H1295 H 0.68432 0.23117 0.71935 0.0
C1296 C 0.79149 0.28616 0.74348 0.0
C1297 C 0.79822 0.28942 0.75919 0.0
C1298 C 0.77056 0.26947 0.73917 0.0
C1299 C 0.7558 0.25571 0.75048 0.0
C1300 C 0.76226 0.25935 0.76621 0.0
C1301 C 0.78342 0.27575 0.7705 0.0
C1302 C 0.70942 0.19606 0.74988 0.0
C1303 C 0.69309 0.20205 0.73718 0.0
C1304 C 0.72997 0.2133 0.7541 0.0
C1305 C 0.73416 0.23718 0.74588 0.0
C1306 C 0.71751 0.24318 0.73324 0.0
C1307 C 0.69723 0.22574 0.7289 0.0
H1308 H 0.82559 0.74801 0.24127 0.0
H1309 H 0.77256 0.8151 0.23659 0.0
H1310 H 0.78765 0.71906 0.24712 0.0
H1311 H 0.73449 0.78621 0.24271 0.0
H1312 H 0.68431 0.72907 0.27481 0.0
H1313 H 0.72139 0.75832 0.26785 0.0
H1314 H 0.74441 0.70372 0.23154 0.0
H1315 H 0.707 0.67454 0.23842 0.0
C1316 C 0.80575 0.75647 0.24154 0.0
C1317 C 0.80173 0.78358 0.23847 0.0
C1318 C 0.78415 0.73996 0.24478 0.0
C1319 C 0.7583 0.7505 0.2453 0.0
C1320 C 0.75432 0.77773 0.24238 0.0
C1321 C 0.77592 0.79415 0.23885 0.0
C1322 C 0.69747 0.72326 0.26545 0.0
C1323 C 0.69328 0.69943 0.2573 0.0
C1324 C 0.71842 0.74007 0.26137 0.0
C1325 C 0.73564 0.73313 0.24921 0.0
C1326 C 0.73141 0.70932 0.24103 0.0
C1327 C 0.71012 0.69273 0.24493 0.0
H1328 H 0.49987 0.58046 0.99365 0.0
H1329 H 0.56235 0.52304 0.98593 0.0
H1330 H 0.46885 0.54459 -0.00031 0.0
H1331 H 0.53155 0.48695 0.99226 0.0
H1332 H 0.46324 0.42792 0.98901 0.0
H1333 H 0.49291 0.46449 0.98204 0.0
H1334 H 0.45948 0.51206 0.01907 0.0
H1335 H 0.42892 0.47595 0.02542 0.0
C1336 C 0.50694 0.56008 0.99337 0.0
C1337 C 0.53328 0.55434 0.98914 0.0
C1338 C 0.48925 0.53956 0.99686 0.0
C1339 C 0.49767 0.51288 0.99639 0.0
C1340 C 0.52427 0.50724 0.9924 0.0
C1341 C 0.54191 0.52782 0.9888 0.0
C1342 C 0.46215 0.44631 0.99554 0.0
C1343 C 0.44432 0.44897 0.00799 0.0
C1344 C 0.47931 0.46714 0.99168 0.0
C1345 C 0.47885 0.49106 0.00015 0.0
C1346 C 0.46033 0.49394 0.01228 0.0
C1347 C 0.44308 0.47317 0.01607 0.0
H1348 H 0.00678 0.57444 0.50309 0.0
H1349 H 0.0678 0.5166 0.5132 0.0
H1350 H 0.97533 0.53876 0.49756 0.0
H1351 H 0.03676 0.48059 0.50706 0.0
H1352 H 0.96856 0.42189 0.50914 0.0
H1353 H -0.00192 0.45842 0.51631 0.0
H1354 H 0.96552 0.50598 0.479 0.0
H1355 H 0.93486 0.4701 0.47262 0.0
C1356 C 0.01344 0.55397 0.50396 0.0
C1357 C 0.0395 0.54806 0.50862 0.0
C1358 C -0.00449 0.53353 0.50074 0.0
C1359 C 0.00348 0.50675 0.50185 0.0
C1360 C 0.02979 0.50096 0.50638 0.0
C1361 C 0.04761 0.52147 0.50981 0.0
C1362 C 0.96761 0.44029 0.5026 0.0
C1363 C 0.95003 0.44297 0.49005 0.0
C1364 C 0.98471 0.4611 0.50658 0.0
C1365 C 0.98452 0.48501 0.49808 0.0
C1366 C 0.9662 0.48791 0.48584 0.0
C1367 C 0.94892 0.46721 0.482 0.0
H1368 H 0.05508 0.44573 0.01076 0.0
H1369 H 0.03236 0.45495 0.96268 0.0
H1370 H 0.02543 0.48205 0.0178 0.0
H1371 H 0.00455 0.49245 0.96949 0.0
H1372 H 0.93086 0.53321 0.98912 0.0
H1373 H 0.96314 0.49918 0.98167 0.0
H1374 H 0.01739 0.52834 0.01677 0.0
H1375 H 0.98458 0.56154 0.02449 0.0
C1376 C 0.04438 0.456 0.00163 0.0
C1377 C 0.0466 0.44769 0.98612 0.0
C1378 C 0.02749 0.47695 0.00565 0.0
C1379 C 0.0125 0.49017 0.99422 0.0
C1380 C 0.0155 0.48249 0.97863 0.0
C1381 C 0.03211 0.46131 0.97465 0.0
C1382 C 0.94966 0.53209 0.99525 0.0
C1383 C 0.95508 0.54941 0.00758 0.0
C1384 C 0.96828 0.51284 0.99092 0.0
C1385 C 0.99292 0.51099 -0.00137 0.0
C1386 C -0.00157 0.52881 0.0108 0.0
C1387 C 0.97965 0.54778 0.01526 0.0
H1388 H 0.5065 0.43012 0.52448 0.0
H1389 H 0.56083 0.45605 0.48877 0.0
H1390 H 0.47521 0.46492 0.51706 0.0
H1391 H 0.5301 0.49168 0.48163 0.0
H1392 H 0.46222 0.53931 0.46329 0.0
H1393 H 0.48892 0.50082 0.4698 0.0
H1394 H 0.46933 0.51144 0.51828 0.0
H1395 H 0.44078 0.54879 0.51156 0.0
C1396 C 0.51191 0.44368 0.51523 0.0
C1397 C 0.53623 0.4409 0.50738 0.0
C1398 C 0.494 0.46359 0.51095 0.0
C1399 C 0.50013 0.48124 0.49879 0.0
C1400 C 0.52449 0.47821 0.49088 0.0
C1401 C 0.54223 0.45802 0.49504 0.0
C1402 C 0.46255 0.53285 0.47524 0.0
C1403 C 0.44866 0.54678 0.48684 0.0
C1404 C 0.47852 0.51107 0.47905 0.0
C1405 C 0.48148 0.50306 0.49459 0.0
C1406 C 0.46725 0.51674 0.50616 0.0
C1407 C 0.451 0.5383 0.50232 0.0
H1408 H 0.36336 0.15183 0.14145 0.0
H1409 H 0.35154 0.21539 0.17446 0.0
H1410 H 0.34944 0.18129 0.12048 0.0
H1411 H 0.33937 0.24529 0.15359 0.0
H1412 H 0.31564 0.29724 0.11465 0.0
H1413 H 0.31294 0.26161 0.13385 0.0
H1414 H 0.36926 0.21539 0.10702 0.0
H1415 H 0.37054 0.25001 0.0876 0.0
C1416 C 0.35751 0.17204 0.14423 0.0
C1417 C 0.35877 0.18136 0.15957 0.0
C1418 C 0.34975 0.18906 0.1322 0.0
C1419 C 0.3438 0.216 0.13519 0.0
C1420 C 0.34346 0.22472 0.15072 0.0
C1421 C 0.35061 0.20754 0.16276 0.0
C1422 C 0.32697 0.27917 0.11276 0.0
C1423 C 0.34351 0.27659 0.0997 0.0
C1424 C 0.32561 0.25878 0.12382 0.0
C1425 C 0.34118 0.23559 0.12222 0.0
C1426 C 0.35661 0.23259 0.10869 0.0
C1427 C 0.35755 0.25269 0.09753 0.0
H1428 H 0.99223 0.09613 0.33377 0.0
H1429 H 0.93719 0.08942 0.37215 0.0
H1430 H 0.02948 0.09517 0.35189 0.0
H1431 H 0.97439 0.08884 0.39023 0.0
H1432 H 0.04579 0.07988 0.42027 0.0
H1433 H 0.01443 0.06678 0.40011 0.0
H1434 H 0.04502 0.1288 0.3703 0.0
H1435 H 0.07653 0.14173 0.39033 0.0
C1436 C 0.98806 0.09395 0.34604 0.0
C1437 C 0.96169 0.09328 0.35154 0.0
C1438 C 0.00944 0.09353 0.35642 0.0
C1439 C 0.00491 0.09232 0.37251 0.0
C1440 C 0.97862 0.08963 0.37791 0.0
C1441 C 0.95723 0.09009 0.36753 0.0
C1442 C 0.04618 0.09044 0.40933 0.0
C1443 C 0.0634 0.11219 0.40706 0.0
C1444 C 0.02811 0.08296 0.39779 0.0
C1445 C 0.02698 0.09694 0.38368 0.0
C1446 C 0.04547 0.11746 0.38099 0.0
C1447 C 0.06347 0.12499 0.39254 0.0
H1448 H 0.15796 0.79357 0.67158 0.0
H1449 H 0.09714 0.82467 0.64109 0.0
H1450 H 0.17166 0.76233 0.65149 0.0
H1451 H 0.11064 0.79327 0.62112 0.0
H1452 H 0.14362 0.73997 0.58495 0.0
H1453 H 0.14444 0.77734 0.603 0.0
H1454 H 0.14978 0.72245 0.64148 0.0
H1455 H 0.14938 0.68514 0.62348 0.0
C1456 C 0.14775 0.79406 0.66054 0.0
C1457 C 0.12609 0.81131 0.6581 0.0
C1458 C 0.15558 0.77607 0.64903 0.0
C1459 C 0.14201 0.77503 0.63479 0.0
C1460 C 0.12166 0.79363 0.63192 0.0
C1461 C 0.1138 0.81158 0.64343 0.0
C1462 C 0.14555 0.73587 0.59725 0.0
C1463 C 0.14599 0.70953 0.6028 0.0
C1464 C 0.14589 0.75731 0.60758 0.0
C1465 C 0.14678 0.75288 0.62368 0.0
C1466 C 0.14925 0.7266 0.62915 0.0
C1467 C 0.14888 0.70516 0.61882 0.0
H1468 H 0.55776 0.89484 0.87643 0.0
H1469 H 0.50794 0.90025 0.83566 0.0
H1470 H 0.51863 0.89905 0.89286 0.0
H1471 H 0.46874 0.90483 0.85216 0.0
H1472 H 0.44694 0.91328 0.92077 0.0
H1473 H 0.4811 0.92544 0.90204 0.0
H1474 H 0.44581 0.87228 0.86846 0.0
H1475 H 0.41135 0.86046 0.88704 0.0
C1476 C 0.53855 0.8976 0.87096 0.0
C1477 C 0.53598 0.89676 0.85473 0.0
C1478 C 0.51606 0.90018 0.8804 0.0
C1479 C 0.49048 0.90199 0.87382 0.0
C1480 C 0.48811 0.90306 0.85758 0.0
C1481 C 0.51063 0.90055 0.84813 0.0
C1482 C 0.44596 0.90473 0.90926 0.0
C1483 C 0.4266 0.88551 0.90554 0.0
C1484 C 0.46571 0.91159 0.89855 0.0
C1485 C 0.46651 0.89946 0.88387 0.0
C1486 C 0.44577 0.88209 0.87965 0.0
C1487 C 0.426 0.87522 0.89036 0.0
H1488 H 0.39165 0.83022 0.35551 0.0
H1489 H 0.32888 0.79854 0.32661 0.0
H1490 H 0.37945 0.79929 0.376 0.0
H1491 H 0.31652 0.76774 0.34723 0.0
H1492 H 0.34951 0.74615 0.4131 0.0
H1493 H 0.347 0.78335 0.39497 0.0
H1494 H 0.33958 0.72806 0.35682 0.0
H1495 H 0.3417 0.69092 0.37491 0.0
C1496 C 0.37482 0.81714 0.35364 0.0
C1497 C 0.36163 0.81653 0.33925 0.0
C1498 C 0.36771 0.79945 0.36545 0.0
C1499 C 0.34724 0.78076 0.36316 0.0
C1500 C 0.3327 0.78157 0.34924 0.0
C1501 C 0.33975 0.79932 0.33743 0.0
C1502 C 0.34677 0.74192 0.40087 0.0
C1503 C 0.34624 0.71553 0.39542 0.0
C1504 C 0.34544 0.76327 0.39049 0.0
C1505 C 0.34345 0.75868 0.37444 0.0
C1506 C 0.34093 0.73233 0.36912 0.0
C1507 C 0.3423 0.71098 0.37949 0.0
H1508 H 0.41212 0.14038 0.60651 0.0
H1509 H 0.44507 0.07975 0.57652 0.0
H1510 H 0.44334 0.12785 0.62675 0.0
H1511 H 0.47597 0.06681 0.59696 0.0
H1512 H 0.55198 0.08938 0.62562 0.0
H1513 H 0.51519 0.08844 0.60731 0.0
H1514 H 0.45931 0.09532 0.64524 0.0
H1515 H 0.49622 0.09684 0.66359 0.0
C1516 C 0.42558 0.12395 0.60434 0.0
C1517 C 0.42633 0.11139 0.58976 0.0
C1518 C 0.44342 0.11662 0.61602 0.0
C1519 C 0.4624 0.0965 0.61343 0.0
C1520 C 0.46192 0.08271 0.59923 0.0
C1521 C 0.44408 0.09005 0.58754 0.0
C1522 C 0.53185 0.09012 0.63011 0.0
C1523 C 0.52709 0.09366 0.64605 0.0
C1524 C 0.51069 0.08944 0.61959 0.0
C1525 C 0.48427 0.09217 0.62479 0.0
C1526 C 0.47944 0.09369 0.64084 0.0
C1527 C 0.50062 0.09442 0.65136 0.0
H1528 H 0.11978 0.24879 0.90764 0.0
H1529 H 0.17797 0.29344 0.88149 0.0
H1530 H 0.1221 0.2131 0.88896 0.0
H1531 H 0.18176 0.25667 0.8631 0.0
H1532 H 0.14556 0.20949 0.8222 0.0
H1533 H 0.15722 0.23979 0.84288 0.0
H1534 H 0.14176 0.17786 0.87665 0.0
H1535 H 0.1283 0.14803 0.85575 0.0
C1536 C 0.13369 0.25067 0.89809 0.0
C1537 C 0.14838 0.27418 0.89591 0.0
C1538 C 0.13525 0.22993 0.88737 0.0
C1539 C 0.15196 0.23184 0.8743 0.0
C1540 C 0.16812 0.25466 0.87275 0.0
C1541 C 0.16613 0.27572 0.88335 0.0
C1542 C 0.14526 0.2021 0.83401 0.0
C1543 C 0.13567 0.17646 0.83735 0.0
C1544 C 0.1521 0.21954 0.84597 0.0
C1545 C 0.15001 0.21164 0.8616 0.0
C1546 C 0.14279 0.18507 0.86482 0.0
C1547 C 0.13532 0.1678 0.85284 0.0
H1548 H 0.93547 0.89561 0.12277 0.0
H1549 H 0.9899 0.89303 0.16159 0.0
H1550 H 0.97298 0.89746 0.10495 0.0
H1551 H 0.02747 0.89534 0.14371 0.0
H1552 H 0.07812 0.85049 0.10614 0.0
H1553 H 0.04561 0.86243 0.12585 0.0
H1554 H 0.01172 0.92105 0.09494 0.0
H1555 H 0.044 0.90883 0.07508 0.0
C1556 C 0.95542 0.89611 0.12754 0.0
C1557 C 0.95965 0.89372 0.1436 0.0
C1558 C 0.97698 0.89732 0.1173 0.0
C1559 C 0.00327 0.89621 0.1229 0.0
C1560 C 0.00747 0.89576 0.13902 0.0
C1561 C 0.98591 0.89457 0.14927 0.0
C1562 C 0.06412 0.86632 0.10363 0.0
C1563 C 0.06344 0.87836 0.08889 0.0
C1564 C 0.04552 0.87329 0.11499 0.0
C1565 C 0.02582 0.89249 0.11191 0.0
C1566 C 0.02633 0.90586 0.09758 0.0
C1567 C 0.04496 0.89891 0.08621 0.0
H1568 H 0.64507 0.6798 0.86852 0.0
H1569 H 0.65335 0.73049 0.90876 0.0
H1570 H 0.64918 0.71844 0.85169 0.0
H1571 H 0.65789 0.76919 0.89186 0.0
H1572 H 0.61325 0.8269 0.85746 0.0
H1573 H 0.62515 0.79244 0.876 0.0
H1574 H 0.67556 0.75522 0.84165 0.0
H1575 H 0.66331 0.78947 0.82297 0.0
C1576 C 0.64844 0.69909 0.87378 0.0
C1577 C 0.64842 0.70207 0.88999 0.0
C1578 C 0.65097 0.72129 0.86411 0.0
C1579 C 0.65356 0.747 0.87043 0.0
C1580 C 0.65548 0.74972 0.88663 0.0
C1581 C 0.653 0.7275 0.89631 0.0
C1582 C 0.62741 0.8118 0.85394 0.0
C1583 C 0.63688 0.81072 0.83859 0.0
C1584 C 0.63435 0.79203 0.86463 0.0
C1585 C 0.65097 0.77078 0.86023 0.0
C1586 C 0.66228 0.77101 0.84531 0.0
C1587 C 0.65535 0.79078 0.83462 0.0
H1588 H -0.0045 0.8937 0.6631 0.0
H1589 H 0.05125 0.89762 0.62494 0.0
H1590 H 0.95855 0.8966 0.64483 0.0
H1591 H 0.0144 0.89993 0.60672 0.0
H1592 H 0.90968 0.85201 0.60649 0.0
H1593 H 0.94101 0.86434 0.6267 0.0
H1594 H 0.97612 0.92293 0.59621 0.0
H1595 H 0.94511 0.91017 0.57579 0.0
C1596 C -0.0001 0.89564 0.65084 0.0
C1597 C 0.02634 0.89499 0.64546 0.0
C1598 C 0.9787 0.89717 0.64037 0.0
C1599 C 0.98347 0.89809 0.62429 0.0
C1600 C 0.00995 0.89944 0.61902 0.0
C1601 C 0.03114 0.89796 0.62948 0.0
C1602 C 0.92368 0.86793 0.60416 0.0
C1603 C 0.92514 0.87974 0.58939 0.0
C1604 C 0.9416 0.87514 0.61583 0.0
C1605 C 0.96135 0.89439 0.61301 0.0
C1606 C 0.96147 0.90767 0.59865 0.0
C1607 C 0.94356 0.90044 0.58697 0.0
H1608 H 0.83141 0.19598 0.32567 0.0
H1609 H 0.89086 0.16161 0.35591 0.0
H1610 H 0.81927 0.22749 0.34598 0.0
H1611 H 0.87908 0.19336 0.37603 0.0
H1612 H 0.84922 0.24761 0.41261 0.0
H1613 H 0.84694 0.21055 0.39439 0.0
H1614 H 0.8421 0.26618 0.35623 0.0
H1615 H 0.84381 0.30315 0.37442 0.0
C1616 C 0.84161 0.19482 0.33672 0.0
C1617 C 0.86243 0.1765 0.33904 0.0
C1618 C 0.83472 0.213 0.34834 0.0
C1619 C 0.84844 0.21322 0.36256 0.0
C1620 C 0.86794 0.19367 0.36527 0.0
C1621 C 0.87482 0.17551 0.35366 0.0
C1622 C 0.84712 0.25193 0.40036 0.0
C1623 C 0.84711 0.27836 0.39495 0.0
C1624 C 0.84594 0.23067 0.38991 0.0
C1625 C 0.84472 0.23536 0.37383 0.0
C1626 C 0.84284 0.26179 0.36853 0.0
C1627 C 0.84397 0.28305 0.37898 0.0
H1628 H 0.54063 0.08571 0.07294 0.0
H1629 H 0.57256 0.14591 0.10353 0.0
H1630 H 0.50895 0.0726 0.09291 0.0
H1631 H 0.54076 0.13286 0.12345 0.0
H1632 H 0.48755 0.09838 0.15966 0.0
H1633 H 0.5247 0.09808 0.14142 0.0
H1634 H 0.46931 0.09562 0.10312 0.0
H1635 H 0.43219 0.0957 0.12129 0.0
C1636 C 0.54122 0.0959 0.08398 0.0
C1637 C 0.5589 0.1172 0.08648 0.0
C1638 C 0.52297 0.08841 0.09542 0.0
C1639 C 0.5221 0.10188 0.1097 0.0
C1640 C 0.541 0.12193 0.11262 0.0
C1641 C 0.55918 0.12952 0.10114 0.0
C1642 C 0.48327 0.09716 0.14736 0.0
C1643 C 0.45685 0.09744 0.14193 0.0
C1644 C 0.50459 0.09715 0.13691 0.0
C1645 C 0.49997 0.09718 0.12083 0.0
C1646 C 0.47359 0.09545 0.11544 0.0
C1647 C 0.45227 0.09561 0.12587 0.0
H1648 H 0.64838 0.30116 0.62064 0.0
H1649 H 0.63937 0.24547 0.58276 0.0
H1650 H 0.64965 0.26432 0.63894 0.0
H1651 H 0.64114 0.20853 0.6011 0.0
H1652 H 0.65966 0.19394 0.6695 0.0
H1653 H 0.67186 0.22477 0.64886 0.0
H1654 H 0.60905 0.19288 0.62012 0.0
H1655 H 0.59711 0.16184 0.6406 0.0
C1656 C 0.64732 0.28103 0.61617 0.0
C1657 C 0.64333 0.27631 0.60026 0.0
C1658 C 0.64821 0.25985 0.62667 0.0
C1659 C 0.64518 0.23345 0.62151 0.0
C1660 C 0.64306 0.22865 0.60548 0.0
C1661 C 0.64218 0.24984 0.59496 0.0
C1662 C 0.64876 0.19313 0.65869 0.0
C1663 C 0.62707 0.17569 0.65685 0.0
C1664 C 0.65571 0.21091 0.64687 0.0
C1665 C 0.64121 0.21158 0.63292 0.0
C1666 C 0.62079 0.19282 0.63067 0.0
C1667 C 0.61382 0.17507 0.64248 0.0
H1668 H 0.4404 0.9025 0.3697 0.0
H1669 H 0.49507 0.89156 0.33148 0.0
H1670 H 0.47769 0.90393 0.38768 0.0
H1671 H 0.53246 0.89348 0.34948 0.0
H1672 H 0.57898 0.84923 0.38896 0.0
H1673 H 0.54776 0.8614 0.36864 0.0
H1674 H 0.51798 0.92567 0.39709 0.0
H1675 H 0.54901 0.91325 0.41759 0.0
C1676 C 0.4604 0.90108 0.36507 0.0
C1677 C 0.4647 0.89644 0.34919 0.0
C1678 C 0.48185 0.90205 0.37539 0.0
C1679 C 0.50807 0.89846 0.37004 0.0
C1680 C 0.51247 0.89581 0.354 0.0
C1681 C 0.49102 0.89484 0.34368 0.0
C1682 C 0.56619 0.86631 0.3908 0.0
C1683 C 0.56623 0.87994 0.40505 0.0
C1684 C 0.54834 0.87341 0.37907 0.0
C1685 C 0.53012 0.89433 0.38131 0.0
C1686 C 0.53145 0.90916 0.39512 0.0
C1687 C 0.54936 0.9021 0.40684 0.0
H1688 H 0.86788 0.83998 0.14021 0.0
H1689 H 0.84625 0.77831 0.17275 0.0
H1690 H 0.85404 0.81157 0.11877 0.0
H1691 H 0.83434 0.74917 0.15147 0.0
H1692 H 0.81186 0.69851 0.11162 0.0
H1693 H 0.80972 0.73432 0.13073 0.0
H1694 H 0.87212 0.77609 0.10607 0.0
H1695 H 0.87283 0.7415 0.0867 0.0
C1696 C 0.85995 0.8204 0.14277 0.0
C1697 C 0.85843 0.81126 0.15813 0.0
C1698 C 0.85225 0.80394 0.13047 0.0
C1699 C 0.84364 0.77764 0.13323 0.0
C1700 C 0.84057 0.76924 0.14873 0.0
C1701 C 0.8476 0.78597 0.16102 0.0
C1702 C 0.82465 0.71568 0.11016 0.0
C1703 C 0.84268 0.717 0.09773 0.0
C1704 C 0.82363 0.73617 0.12119 0.0
C1705 C 0.84101 0.75815 0.1202 0.0
C1706 C 0.85804 0.75992 0.10726 0.0
C1707 C 0.85865 0.73979 0.09612 0.0
H1708 H 0.96127 0.096 0.92391 0.0
H1709 H 0.90184 0.11921 0.89039 0.0
H1710 H 0.99152 0.08427 0.90319 0.0
H1711 H 0.93146 0.10569 0.86939 0.0
H1712 H 0.00376 0.12324 0.83877 0.0
H1713 H 0.96805 0.12305 0.85745 0.0
H1714 H 0.00718 0.05965 0.88271 0.0
H1715 H 0.04416 0.06128 0.86433 0.0
C1716 C 0.95429 0.09767 0.91207 0.0
C1717 C 0.92925 0.10876 0.90879 0.0
C1718 C 0.97169 0.0908 0.90008 0.0
C1719 C 0.96431 0.09432 0.88445 0.0
C1720 C 0.93832 0.10345 0.88123 0.0
C1721 C 0.92116 0.11098 0.89325 0.0
C1722 C 0.00467 0.10897 0.84819 0.0
C1723 C 0.02706 0.09253 0.85018 0.0
C1724 C 0.98388 0.10866 0.85891 0.0
C1725 C 0.98455 0.09149 0.87182 0.0
C1726 C 0.00617 0.07369 0.8732 0.0
C1727 C 0.02733 0.07442 0.86259 0.0
H1728 H 0.8454 0.74807 0.58233 0.0
H1729 H 0.838 0.80099 0.62166 0.0
H1730 H 0.84302 0.70981 0.59969 0.0
H1731 H 0.83593 0.76276 0.63898 0.0
H1732 H 0.82521 0.69009 0.66755 0.0
H1733 H 0.81277 0.72224 0.64767 0.0
H1734 H 0.87608 0.69314 0.61828 0.0
H1735 H 0.88845 0.66092 0.63805 0.0
C1736 C 0.84275 0.75157 0.59464 0.0
C1737 C 0.84235 0.77761 0.60064 0.0
C1738 C 0.84149 0.72961 0.60458 0.0
C1739 C 0.83967 0.73324 0.62071 0.0
C1740 C 0.83718 0.75925 0.62659 0.0
C1741 C 0.8385 0.78121 0.61666 0.0
C1742 C 0.83619 0.69017 0.65675 0.0
C1743 C 0.85821 0.67324 0.65456 0.0
C1744 C 0.82907 0.70867 0.64537 0.0
C1745 C 0.84366 0.71051 0.6315 0.0
C1746 C 0.86431 0.69217 0.6288 0.0
C1747 C 0.87151 0.67375 0.6402 0.0
H1748 H 0.42926 0.5951 0.8783 0.0
H1749 H 0.4794 0.58696 0.83779 0.0
H1750 H 0.46817 0.59136 0.89492 0.0
H1751 H 0.51837 0.58277 0.85449 0.0
H1752 H 0.57655 0.62756 0.8884 0.0
H1753 H 0.54169 0.61564 0.87014 0.0
H1754 H 0.50521 0.56533 0.90481 0.0
H1755 H 0.53984 0.57764 0.92322 0.0
C1756 C 0.44849 0.59183 0.87294 0.0
C1757 C 0.45123 0.59179 0.85671 0.0
C1758 C 0.47085 0.58953 0.88249 0.0
C1759 C 0.49647 0.58708 0.87603 0.0
C1760 C 0.49898 0.58509 0.85982 0.0
C1761 C 0.4766 0.58736 0.85026 0.0
C1762 C 0.5615 0.61344 0.89205 0.0
C1763 C 0.56077 0.60398 0.90741 0.0
C1764 C 0.54151 0.60649 0.88152 0.0
C1765 C 0.52038 0.58985 0.88609 0.0
C1766 C 0.5209 0.57862 0.90103 0.0
C1767 C 0.54088 0.58558 0.91156 0.0
H1768 H 0.61916 0.24639 0.08471 0.0
H1769 H 0.67952 0.20145 0.10896 0.0
H1770 H 0.62316 0.28193 0.10335 0.0
H1771 H 0.6849 0.23809 0.12732 0.0
H1772 H 0.65157 0.28505 0.16928 0.0
H1773 H 0.66184 0.25487 0.14827 0.0
H1774 H 0.64419 0.31705 0.11505 0.0
H1775 H 0.63214 0.34674 0.1363 0.0
C1776 C 0.63388 0.2444 0.09382 0.0
C1777 C 0.64871 0.22086 0.09549 0.0
C1778 C 0.63641 0.26506 0.10451 0.0
C1779 C 0.65424 0.26304 0.11706 0.0
C1780 C 0.67047 0.24019 0.11808 0.0
C1781 C 0.66755 0.21921 0.10749 0.0
C1782 C 0.65052 0.29253 0.15751 0.0
C1783 C 0.6407 0.31817 0.15445 0.0
C1784 C 0.65655 0.27515 0.14536 0.0
C1785 C 0.65338 0.28317 0.12982 0.0
C1786 C 0.64601 0.30977 0.12682 0.0
C1787 C 0.63935 0.32695 0.139 0.0
H1788 H 0.96121 0.39173 0.42331 0.0
H1789 H 0.89972 0.37036 0.39066 0.0
H1790 H 0.99062 0.40337 0.40214 0.0
H1791 H 0.92846 0.38388 0.36925 0.0
H1792 H -0.00113 0.36609 0.33716 0.0
H1793 H 0.96402 0.36642 0.35641 0.0
H1794 H 0.00558 0.42824 0.38166 0.0
H1795 H 0.04166 0.42637 0.36271 0.0
C1796 C 0.95364 0.39044 0.41157 0.0
C1797 C 0.92826 0.3799 0.40863 0.0
C1798 C 0.97053 0.39728 0.39933 0.0
C1799 C 0.96226 0.39429 0.38381 0.0
C1800 C 0.93598 0.38569 0.38097 0.0
C1801 C 0.91933 0.37816 0.39324 0.0
C1802 C 0.00045 0.38006 0.34669 0.0
C1803 C 0.02325 0.39593 0.34853 0.0
C1804 C 0.98019 0.38044 0.35776 0.0
C1805 C 0.98185 0.39716 0.37084 0.0
C1806 C 0.00384 0.41451 0.37204 0.0
C1807 C 0.02447 0.41366 0.3611 0.0
H1808 H 0.81415 0.1961 0.8832 0.0
H1809 H 0.87288 0.24045 0.9091 0.0
H1810 H 0.81044 0.23287 0.86478 0.0
H1811 H 0.87055 0.27614 0.89042 0.0
H1812 H 0.86256 0.3421 0.85789 0.0
H1813 H 0.85012 0.3115 0.8786 0.0
H1814 H 0.83474 0.25024 0.84444 0.0
H1815 H 0.84531 0.28138 0.82388 0.0
C1816 C 0.82613 0.21375 0.88501 0.0
C1817 C 0.84398 0.21521 0.89752 0.0
C1818 C 0.82418 0.2348 0.87439 0.0
C1819 C 0.84041 0.25756 0.8759 0.0
C1820 C 0.85732 0.25935 0.88888 0.0
C1821 C 0.85887 0.23861 0.8996 0.0
C1822 C 0.85586 0.32227 0.85484 0.0
C1823 C 0.85525 0.31405 0.83928 0.0
C1824 C 0.84896 0.30458 0.86672 0.0
C1825 C 0.84203 0.27801 0.86332 0.0
C1826 C 0.83972 0.27047 0.84764 0.0
C1827 C 0.84598 0.28836 0.83577 0.0
H1828 H 0.94253 0.57755 0.07565 0.0
H1829 H 0.91382 0.64106 0.10509 0.0
H1830 H 0.97445 0.56479 0.09558 0.0
H1831 H 0.94585 0.62841 0.1249 0.0
H1832 H 0.05343 0.58889 0.12143 0.0
H1833 H 0.01512 0.58751 0.10417 0.0
H1834 H 0.96244 0.5955 0.14355 0.0
H1835 H 0.00081 0.59723 0.16084 0.0
C1836 C 0.94265 0.58852 0.08646 0.0
C1837 C 0.92594 0.6107 0.08861 0.0
C1838 C 0.96103 0.58122 0.09786 0.0
C1839 C 0.96299 0.59583 0.11172 0.0
C1840 C 0.9448 0.61663 0.11439 0.0
C1841 C 0.92647 0.62397 0.10297 0.0
C1842 C 0.03369 0.58978 0.12646 0.0
C1843 C 0.03023 0.59363 0.14248 0.0
C1844 C 0.01167 0.58883 0.11656 0.0
C1845 C 0.98572 0.59171 0.12248 0.0
C1846 C 0.9822 0.59367 0.13862 0.0
C1847 C 0.00421 0.59455 0.14852 0.0
H1848 H 0.67743 0.79126 0.3827 0.0
H1849 H 0.61686 0.74861 0.40815 0.0
H1850 H 0.67977 0.75489 0.36397 0.0
H1851 H 0.61775 0.71343 0.38913 0.0
H1852 H 0.62262 0.64856 0.35556 0.0
H1853 H 0.63615 0.67771 0.37675 0.0
H1854 H 0.6549 0.73951 0.34346 0.0
H1855 H 0.64327 0.70968 0.32246 0.0
C1856 C 0.66476 0.77405 0.38434 0.0
C1857 C 0.64679 0.77295 0.39681 0.0
C1858 C 0.66591 0.75324 0.37354 0.0
C1859 C 0.64868 0.73118 0.37479 0.0
C1860 C 0.63171 0.72967 0.38776 0.0
C1861 C 0.63099 0.75011 0.39869 0.0
C1862 C 0.63025 0.66819 0.35284 0.0
C1863 C 0.63166 0.67695 0.33739 0.0
C1864 C 0.63779 0.68505 0.36497 0.0
C1865 C 0.64611 0.71136 0.36195 0.0
C1866 C 0.64895 0.71943 0.34638 0.0
C1867 C 0.64209 0.70232 0.33426 0.0
H1868 H 0.5761 0.34817 0.60482 0.0
H1869 H 0.54503 0.41017 0.57511 0.0
H1870 H 0.54516 0.36131 0.6251 0.0
H1871 H 0.51426 0.42353 0.59554 0.0
H1872 H 0.43746 0.4012 0.62395 0.0
H1873 H 0.47437 0.40191 0.60567 0.0
H1874 H 0.53003 0.39462 0.64365 0.0
H1875 H 0.49305 0.39345 0.66197 0.0
C1876 C 0.56311 0.365 0.60271 0.0
C1877 C 0.56274 0.37776 0.58819 0.0
C1878 C 0.54543 0.37266 0.61441 0.0
C1879 C 0.527 0.39329 0.61187 0.0
C1880 C 0.5279 0.40726 0.59775 0.0
C1881 C 0.54562 0.39963 0.58605 0.0
C1882 C 0.45757 0.40034 0.62845 0.0
C1883 C 0.46226 0.39678 0.64439 0.0
C1884 C 0.47879 0.40089 0.61796 0.0
C1885 C 0.50515 0.39795 0.62319 0.0
C1886 C 0.50992 0.39643 0.63924 0.0
C1887 C 0.48871 0.39589 0.64973 0.0
H1888 H 0.14329 0.24355 0.41294 0.0
H1889 H 0.14987 0.18864 0.3745 0.0
H1890 H 0.14572 0.28091 0.39492 0.0
H1891 H 0.15177 0.22591 0.35652 0.0
H1892 H 0.16143 0.29613 0.32624 0.0
H1893 H 0.17436 0.26516 0.34664 0.0
H1894 H 0.11329 0.29764 0.37647 0.0
H1895 H 0.10074 0.32893 0.35626 0.0
C1896 C 0.14571 0.23943 0.40068 0.0
C1897 C 0.14594 0.2131 0.39512 0.0
C1898 C 0.14699 0.26087 0.39035 0.0
C1899 C 0.14856 0.25642 0.37427 0.0
C1900 C 0.15077 0.2301 0.36884 0.0
C1901 C 0.14952 0.20867 0.37916 0.0
C1902 C 0.15117 0.29714 0.33727 0.0
C1903 C 0.12974 0.31477 0.3395 0.0
C1904 C 0.15851 0.27925 0.34894 0.0
C1905 C 0.14461 0.27863 0.3631 0.0
C1906 C 0.12456 0.29765 0.36575 0.0
C1907 C 0.11723 0.31554 0.3541 0.0
H1908 H 0.55698 0.40133 0.11904 0.0
H1909 H 0.50628 0.39427 0.15938 0.0
H1910 H 0.51779 0.40247 0.10241 0.0
H1911 H 0.46708 0.39561 0.14271 0.0
H1912 H 0.44302 0.41391 0.07553 0.0
H1913 H 0.47652 0.426 0.09469 0.0
H1914 H 0.44971 0.36205 0.12432 0.0
H1915 H 0.41618 0.34992 0.10522 0.0
C1916 C 0.53749 0.40065 0.1244 0.0
C1917 C 0.53481 0.3973 0.14052 0.0
C1918 C 0.51499 0.40144 0.11487 0.0
C1919 C 0.48933 0.39883 0.12125 0.0
C1920 C 0.4866 0.39727 0.13745 0.0
C1921 C 0.50909 0.39663 0.14699 0.0
C1922 C 0.44391 0.40267 0.08622 0.0
C1923 C 0.4272 0.38057 0.08865 0.0
C1924 C 0.46319 0.4096 0.09719 0.0
C1925 C 0.46602 0.39476 0.11091 0.0
C1926 C 0.44797 0.37398 0.11389 0.0
C1927 C 0.42879 0.36695 0.10288 0.0
H1928 H 0.36532 0.75359 0.90706 0.0
H1929 H 0.30692 0.79645 0.88003 0.0
H1930 H 0.36259 0.71653 0.88944 0.0
H1931 H 0.30277 0.75823 0.86267 0.0
H1932 H 0.33916 0.70778 0.82298 0.0
H1933 H 0.32713 0.7396 0.84283 0.0
H1934 H 0.3427 0.68045 0.87822 0.0
H1935 H 0.3567 0.64917 0.8582 0.0
C1936 C 0.35128 0.75484 0.89754 0.0
C1937 C 0.33669 0.77825 0.8948 0.0
C1938 C 0.34947 0.73327 0.88744 0.0
C1939 C 0.3326 0.7342 0.87441 0.0
C1940 C 0.3165 0.75694 0.87232 0.0
C1941 C 0.31871 0.77883 0.88233 0.0
C1942 C 0.33955 0.70136 0.83499 0.0
C1943 C 0.34945 0.67613 0.83904 0.0
C1944 C 0.33242 0.71966 0.84646 0.0
C1945 C 0.33447 0.713 0.86228 0.0
C1946 C 0.34178 0.68674 0.86622 0.0
C1947 C 0.34957 0.66864 0.85474 0.0
H1948 H 0.07967 0.63572 0.60664 0.0
H1949 H 0.0471 0.57637 0.57568 0.0
H1950 H 0.04729 0.62333 0.62628 0.0
H1951 H 0.01495 0.56363 0.59551 0.0
H1952 H 0.93767 0.58906 0.62237 0.0
H1953 H 0.9757 0.58673 0.60496 0.0
H1954 H 0.02902 0.59106 0.64423 0.0
H1955 H 0.99089 0.59395 0.66167 0.0
C1956 C 0.06607 0.61954 0.60414 0.0
C1957 C 0.06567 0.60743 0.58943 0.0
C1958 C 0.04754 0.6123 0.61547 0.0
C1959 C 0.02824 0.59273 0.61238 0.0
C1960 C 0.02922 0.57914 0.59813 0.0
C1961 C 0.04777 0.58638 0.58679 0.0
C1962 C 0.95747 0.58895 0.62734 0.0
C1963 C 0.96123 0.59219 0.64339 0.0
C1964 C 0.97934 0.58745 0.61735 0.0
C1965 C 0.00545 0.58904 0.62319 0.0
C1966 C 0.00917 0.59027 0.63935 0.0
C1967 C 0.9873 0.59182 0.64934 0.0
H1968 H 0.16557 0.69229 0.16892 0.0
H1969 H 0.10653 0.65963 0.1378 0.0
H1970 H 0.178 0.72487 0.14926 0.0
H1971 H 0.11872 0.69236 0.11829 0.0
H1972 H 0.15119 0.80219 0.12256 0.0
H1973 H 0.15397 0.76406 0.1399 0.0
H1974 H 0.15155 0.71095 0.10049 0.0
H1975 H 0.14834 0.74912 0.08311 0.0
C1976 C 0.15558 0.69168 0.1578 0.0
C1977 C 0.13469 0.67362 0.15507 0.0
C1978 C 0.16265 0.71046 0.14655 0.0
C1979 C 0.14909 0.71149 0.1323 0.0
C1980 C 0.1297 0.69206 0.12911 0.0
C1981 C 0.12259 0.67333 0.14036 0.0
C1982 C 0.15185 0.78242 0.11755 0.0
C1983 C 0.14905 0.77871 0.10147 0.0
C1984 C 0.1536 0.76051 0.1275 0.0
C1985 C 0.15264 0.73442 0.12159 0.0
C1986 C 0.15187 0.73078 0.10542 0.0
C1987 C 0.15014 0.75269 0.09546 0.0
H1988 H 0.93151 0.39846 0.87685 0.0
H1989 H 0.98359 0.39941 0.8369 0.0
H1990 H 0.97008 0.39899 0.89392 0.0
H1991 H 0.02222 0.40021 0.85404 0.0
H1992 H 0.04272 0.40916 0.92243 0.0
H1993 H 0.00952 0.42264 0.90343 0.0
H1994 H 0.04109 0.36536 0.87089 0.0
H1995 H 0.07462 0.35209 0.88978 0.0
C1996 C 0.95116 0.39945 0.8717 0.0
C1997 C 0.95443 0.39849 0.85551 0.0
C1998 C 0.97332 0.39988 0.88149 0.0
C1999 C -0.00075 0.39932 0.87533 0.0
C2000 C 0.0025 0.40023 0.85914 0.0
C2001 C 0.98033 0.39993 0.84933 0.0
C2002 C 0.04305 0.39983 0.91111 0.0
C2003 C 0.06119 0.37926 0.90773 0.0
C2004 C 0.02387 0.40749 0.90025 0.0
C2005 C 0.02242 0.39484 0.88574 0.0
C2006 C 0.04175 0.37563 0.88194 0.0
C2007 C 0.06092 0.36792 0.89281 0.0
H2008 H 0.34099 0.18788 0.62238 0.0
H2009 H 0.34656 0.24247 0.58373 0.0
H2010 H 0.33972 0.22528 0.64027 0.0
H2011 H 0.34477 0.27998 0.60166 0.0
H2012 H 0.39016 0.32879 0.63974 0.0
H2013 H 0.37755 0.29699 0.61981 0.0
H2014 H 0.31735 0.26453 0.65023 0.0
H2015 H 0.33035 0.296 0.67035 0.0
C2016 C 0.34126 0.20787 0.61766 0.0
C2017 C 0.34434 0.21216 0.60164 0.0
C2018 C 0.34038 0.22937 0.62793 0.0
C2019 C 0.34248 0.25565 0.62241 0.0
C2020 C 0.34359 0.25997 0.6063 0.0
C2021 C 0.34449 0.23845 0.59602 0.0
C2022 C 0.37387 0.31526 0.6421 0.0
C2023 C 0.36159 0.3147 0.65676 0.0
C2024 C 0.3665 0.29708 0.6306 0.0
C2025 C 0.34664 0.27797 0.63349 0.0
C2026 C 0.33305 0.27869 0.64774 0.0
C2027 C 0.34042 0.29686 0.65925 0.0
H2028 H 0.41621 0.6435 0.39111 0.0
H2029 H 0.45071 0.58623 0.42271 0.0
H2030 H 0.44782 0.63015 0.37121 0.0
H2031 H 0.48195 0.57246 0.40263 0.0
H2032 H 0.50097 0.59635 0.33513 0.0
H2033 H 0.46427 0.59613 0.35366 0.0
H2034 H 0.52062 0.59406 0.39152 0.0
H2035 H 0.55722 0.59375 0.37305 0.0
C2036 C 0.43012 0.62764 0.39372 0.0
C2037 C 0.43111 0.61622 0.40861 0.0
C2038 C 0.44818 0.61983 0.38224 0.0
C2039 C 0.46762 0.60039 0.38537 0.0
C2040 C 0.46751 0.58779 0.39994 0.0
C2041 C 0.44946 0.5956 0.41142 0.0
C2042 C 0.50552 0.59526 0.3474 0.0
C2043 C 0.53206 0.59547 0.35262 0.0
C2044 C 0.48447 0.59529 0.35802 0.0
C2045 C 0.48948 0.59549 0.37407 0.0
C2046 C 0.51599 0.59375 0.37924 0.0
C2047 C 0.53704 0.5937 0.36863 0.0
H2048 H 0.52088 0.31015 0.18184 0.0
H2049 H 0.56515 0.28698 0.22278 0.0
H2050 H 0.49214 0.27155 0.18506 0.0
H2051 H 0.53567 0.24841 0.22603 0.0
H2052 H 0.44414 0.20563 0.22574 0.0
H2053 H 0.47589 0.24254 0.22756 0.0
H2054 H 0.51272 0.21717 0.18483 0.0
H2055 H 0.48157 0.18013 0.18299 0.0
C2056 C 0.52418 0.29718 0.1917 0.0
C2057 C 0.54546 0.30149 0.20198 0.0
C2058 C 0.5078 0.27506 0.19346 0.0
C2059 C 0.51209 0.25712 0.20566 0.0
C2060 C 0.53222 0.2621 0.21652 0.0
C2061 C 0.54897 0.2841 0.21464 0.0
C2062 C 0.45942 0.20755 0.21693 0.0
C2063 C 0.46016 0.19017 0.20411 0.0
C2064 C 0.47752 0.22857 0.21803 0.0
C2065 C 0.49633 0.23256 0.20625 0.0
C2066 C 0.49817 0.21435 0.19398 0.0
C2067 C 0.48039 0.19317 0.19298 0.0
H2068 H 0.9219 0.25426 0.45054 0.0
H2069 H 0.96635 0.31774 0.47238 0.0
H2070 H 0.95868 0.22374 0.45533 0.0
H2071 H 0.00318 0.28708 0.47709 0.0
H2072 H 0.07045 0.23614 0.45165 0.0
H2073 H 0.03343 0.26629 0.45662 0.0
H2074 H 0.98777 0.20131 0.4758 0.0
H2075 H 0.02483 0.17102 0.4709 0.0
C2076 C 0.93927 0.26156 0.45665 0.0
C2077 C 0.94137 0.28848 0.46088 0.0
C2078 C 0.96025 0.24403 0.4595 0.0
C2079 C 0.9838 0.25316 0.46649 0.0
C2080 C 0.98528 0.27965 0.47159 0.0
C2081 C 0.96416 0.29713 0.46892 0.0
C2082 C 0.05276 0.22838 0.45724 0.0
C2083 C 0.05042 0.20114 0.46067 0.0
C2084 C 0.03164 0.24569 0.46019 0.0
C2085 C 0.00771 0.23603 0.46648 0.0
C2086 C 0.00597 0.20916 0.47083 0.0
C2087 C 0.02722 0.19189 0.46806 0.0
H2088 H 0.98174 0.66823 0.70008 0.0
H2089 H 0.91557 0.71414 0.71783 0.0
H2090 H 0.01155 0.70538 0.70528 0.0
H2091 H 0.94556 0.75136 0.72299 0.0
H2092 H 0.0623 0.77218 0.72175 0.0
H2093 H 0.03127 0.73553 0.72591 0.0
H2094 H 0.96924 0.78044 0.70314 0.0
H2095 H 0.00014 0.81711 0.69893 0.0
C2096 C 0.97366 0.68604 0.70538 0.0
C2097 C 0.94627 0.68839 0.70835 0.0
C2098 C 0.99077 0.70724 0.70847 0.0
C2099 C 0.98077 0.73127 0.71444 0.0
C2100 C 0.95368 0.73309 0.71828 0.0
C2101 C 0.93659 0.71175 0.71536 0.0
C2102 C 0.04189 0.77451 0.71793 0.0
C2103 C 0.03377 0.79739 0.70978 0.0
C2104 C 0.02419 0.75349 0.72029 0.0
C2105 C -0.00202 0.75511 0.71474 0.0
C2106 C 0.98931 0.77875 0.70764 0.0
C2107 C 0.00706 0.79967 0.70513 0.0
H2108 H 0.53948 0.68789 0.97377 0.0
H2109 H 0.56368 0.72592 0.93095 0.0
H2110 H 0.50245 0.71943 0.97606 0.0
H2111 H 0.52651 0.75685 0.93324 0.0
H2112 H 0.4341 0.76663 0.93098 0.0
H2113 H 0.47272 0.73763 0.9334 0.0
H2114 H 0.49587 0.77793 0.97548 0.0
H2115 H 0.45732 0.80765 0.97303 0.0
C2116 C 0.53723 0.70325 0.96504 0.0
C2117 C 0.5543 0.70425 0.95208 0.0
C2118 C 0.51613 0.72123 0.96639 0.0
C2119 C 0.51172 0.74013 0.95472 0.0
C2120 C 0.52961 0.7422 0.9423 0.0
C2121 C 0.55089 0.72457 0.94105 0.0
C2122 C 0.44709 0.76913 0.94091 0.0
C2123 C 0.44279 0.78959 0.95174 0.0
C2124 C 0.46922 0.75263 0.94221 0.0
C2125 C 0.48718 0.75597 0.9545 0.0
C2126 C 0.48219 0.77523 0.96589 0.0
C2127 C 0.4602 0.79212 0.96447 0.0
H2128 H 0.4859 0.81708 0.29423 0.0
H2129 H 0.41957 0.77007 0.27775 0.0
H2130 H 0.51567 0.77958 0.28971 0.0
H2131 H 0.4495 0.73252 0.27332 0.0
H2132 H 0.56606 0.71201 0.27343 0.0
H2133 H 0.53475 0.74838 0.2691 0.0
H2134 H 0.47394 0.7047 0.29372 0.0
H2135 H 0.50514 0.66832 0.29813 0.0
C2136 C 0.47777 0.79893 0.28938 0.0
C2137 C 0.45036 0.79643 0.28652 0.0
C2138 C 0.49485 0.77753 0.28668 0.0
C2139 C 0.48479 0.75317 0.28124 0.0
C2140 C 0.45765 0.75108 0.2776 0.0
C2141 C 0.4406 0.7726 0.28011 0.0
C2142 C 0.54584 0.70987 0.27763 0.0
C2143 C 0.53816 0.68745 0.28633 0.0
C2144 C 0.52799 0.73073 0.27517 0.0
C2145 C 0.50207 0.72938 0.28119 0.0
C2146 C 0.49379 0.70615 0.28887 0.0
C2147 C 0.51171 0.68541 0.29148 0.0
H2148 H 0.52229 0.3182 0.52481 0.0
H2149 H 0.56834 0.25336 0.54405 0.0
H2150 H 0.48515 0.28784 0.52035 0.0
H2151 H 0.53124 0.22315 0.53953 0.0
H2152 H 0.46408 0.17134 0.52482 0.0
H2153 H 0.50071 0.20192 0.51959 0.0
H2154 H 0.45634 0.26581 0.54094 0.0
H2155 H 0.41971 0.23537 0.54621 0.0
C2156 C 0.52475 0.29737 0.52774 0.0
C2157 C 0.5481 0.28822 0.535 0.0
C2158 C 0.50345 0.28006 0.52522 0.0
C2159 C 0.50529 0.25326 0.5297 0.0
C2160 C 0.52935 0.2437 0.53586 0.0
C2161 C 0.55053 0.26104 0.53855 0.0
C2162 C 0.46186 0.19204 0.5281 0.0
C2163 C 0.43916 0.20086 0.53617 0.0
C2164 C 0.48287 0.20948 0.52512 0.0
C2165 C 0.4814 0.23611 0.52996 0.0
C2166 C 0.45791 0.2454 0.53697 0.0
C2167 C 0.43702 0.22792 0.5401 0.0
H2168 H 0.01689 0.18693 0.81292 0.0
H2169 H 0.05683 0.20958 0.77039 0.0
H2170 H 0.98839 0.22593 0.81084 0.0
H2171 H 0.02758 0.24858 0.76829 0.0
H2172 H 0.93714 0.29216 0.77133 0.0
H2173 H 0.96885 0.25541 0.76848 0.0
H2174 H 0.00815 0.27964 0.81067 0.0
H2175 H 0.97702 0.31653 0.81353 0.0
C2176 C 0.01928 0.1999 0.80297 0.0
C2177 C 0.03928 0.19529 0.79188 0.0
C2178 C 0.00306 0.22226 0.80186 0.0
C2179 C 0.00623 0.24017 0.78953 0.0
C2180 C 0.02504 0.23494 0.77792 0.0
C2181 C 0.04165 0.21269 0.77914 0.0
C2182 C 0.95294 0.29003 0.7798 0.0
C2183 C 0.95438 0.30701 0.79277 0.0
C2184 C 0.97104 0.2691 0.77811 0.0
C2185 C 0.99052 0.2648 0.78946 0.0
C2186 C 0.99307 0.28268 0.80185 0.0
C2187 C 0.97529 0.30378 0.80344 0.0
H2188 H 0.9237 0.73476 0.0437 0.0
H2189 H 0.97052 0.66851 0.02689 0.0
H2190 H 0.96125 0.76448 0.03931 0.0
H2191 H 0.00816 0.69838 0.02258 0.0
H2192 H 0.07209 0.7533 0.04834 0.0
H2193 H 0.03584 0.72225 0.04331 0.0
H2194 H 0.99271 0.78383 0.019 0.0
H2195 H 0.02891 0.81499 0.02395 0.0
C2196 C 0.94182 0.72665 0.03878 0.0
C2197 C 0.94428 0.69927 0.03583 0.0
C2198 C 0.96325 0.7437 0.03616 0.0
C2199 C 0.9876 0.73363 0.03069 0.0
C2200 C 0.98961 0.70654 0.02689 0.0
C2201 C 0.96804 0.68952 0.02932 0.0
C2202 C 0.05516 0.76009 0.04163 0.0
C2203 C 0.05318 0.78672 0.03678 0.0
C2204 C 0.03449 0.74225 0.03866 0.0
C2205 C 0.01144 0.75079 0.03088 0.0
C2206 C 0.01021 0.77688 0.02514 0.0
C2207 C 0.03097 0.79465 0.02797 0.0
H2208 H 0.4703 0.68074 0.818 0.0
H2209 H 0.4367 0.7005 0.77322 0.0
H2210 H 0.50054 0.71848 0.81587 0.0
H2211 H 0.46751 0.73814 0.77109 0.0
H2212 H 0.55298 0.78416 0.77317 0.0
H2213 H 0.52227 0.74635 0.77163 0.0
H2214 H 0.48593 0.77065 0.81474 0.0
H2215 H 0.51605 0.80855 0.81627 0.0
C2216 C 0.46973 0.69276 0.80756 0.0
C2217 C 0.45095 0.6878 0.79583 0.0
C2218 C 0.4869 0.71443 0.80642 0.0
C2219 C 0.48593 0.73123 0.79343 0.0
C2220 C 0.46843 0.7254 0.78123 0.0
C2221 C 0.45088 0.70393 0.78247 0.0
C2222 C 0.53809 0.78171 0.78216 0.0
C2223 C 0.53706 0.7992 0.79491 0.0
C2224 C 0.5206 0.76013 0.78125 0.0
C2225 C 0.50221 0.75557 0.79319 0.0
C2226 C 0.50027 0.77371 0.80551 0.0
C2227 C 0.51739 0.79547 0.8063 0.0
H2228 H 0.92132 0.75372 0.54869 0.0
H2229 H 0.9671 0.81652 0.52706 0.0
H2230 H 0.95821 0.72292 0.54466 0.0
H2231 H 0.00396 0.78563 0.52314 0.0
H2232 H 0.0245 0.66983 0.52809 0.0
H2233 H 0.98738 0.70039 0.52401 0.0
H2234 H 0.03352 0.76432 0.54394 0.0
H2235 H 0.07062 0.73387 0.54813 0.0
C2236 C 0.93902 0.76082 0.54282 0.0
C2237 C 0.94141 0.78763 0.53837 0.0
C2238 C 0.96006 0.74315 0.54043 0.0
C2239 C 0.98393 0.75202 0.53368 0.0
C2240 C 0.9858 0.77841 0.52847 0.0
C2241 C 0.96466 0.79602 0.53069 0.0
C2242 C 0.02696 0.69053 0.53131 0.0
C2243 C 0.05039 0.6994 0.5386 0.0
C2244 C 0.00566 0.70794 0.52902 0.0
C2245 C 0.0076 0.73459 0.53374 0.0
C2246 C 0.03161 0.74388 0.54009 0.0
C2247 C 0.05278 0.72642 0.54257 0.0
H2248 H 0.98712 0.1684 0.29741 0.0
H2249 H 0.92498 0.2128 0.2742 0.0
H2250 H 0.01824 0.2046 0.29246 0.0
H2251 H 0.95624 0.24895 0.26931 0.0
H2252 H 0.00629 0.31685 0.29423 0.0
H2253 H 0.97628 0.27967 0.28957 0.0
H2254 H 0.04186 0.23284 0.27209 0.0
H2255 H 0.07205 0.27013 0.2767 0.0
C2256 C 0.98024 0.1856 0.29097 0.0
C2257 C 0.95348 0.18792 0.28644 0.0
C2258 C -0.00187 0.20624 0.28804 0.0
C2259 C 0.98952 0.22962 0.28062 0.0
C2260 C 0.96326 0.2312 0.27517 0.0
C2261 C 0.94542 0.21047 0.27796 0.0
C2262 C 0.01423 0.29884 0.28909 0.0
C2263 C 0.04157 0.29628 0.28603 0.0
C2264 C -0.00299 0.27762 0.28631 0.0
C2265 C 0.00684 0.25337 0.28056 0.0
C2266 C 0.03388 0.2513 0.27663 0.0
C2267 C 0.05108 0.27267 0.27923 0.0
H2268 H 0.56695 0.24091 0.04311 0.0
H2269 H 0.52265 0.17781 0.02079 0.0
H2270 H 0.5306 0.2717 0.03799 0.0
H2271 H 0.48627 0.20879 0.01567 0.0
H2272 H 0.46447 0.32489 0.02401 0.0
H2273 H 0.50146 0.29492 0.01819 0.0
H2274 H 0.45593 0.22867 0.03598 0.0
H2275 H 0.41906 0.25844 0.04181 0.0
C2276 C 0.54973 0.23376 0.0368 0.0
C2277 C 0.54746 0.20682 0.03262 0.0
C2278 C 0.529 0.25146 0.03374 0.0
C2279 C 0.50556 0.24252 0.02655 0.0
C2280 C 0.50408 0.21608 0.02135 0.0
C2281 C 0.52493 0.19841 0.02427 0.0
C2282 C 0.4621 0.30382 0.02631 0.0
C2283 C 0.43905 0.29405 0.03361 0.0
C2284 C 0.4833 0.28673 0.02301 0.0
C2285 C 0.48159 0.25958 0.02674 0.0
C2286 C 0.45771 0.24949 0.03286 0.0
C2287 C 0.43668 0.26659 0.03632 0.0
H2288 H 0.4222 0.27613 0.72084 0.0
H2289 H 0.48623 0.32044 0.69941 0.0
H2290 H 0.45259 0.23916 0.72567 0.0
H2291 H 0.51649 0.28348 0.70431 0.0
H2292 H 0.56864 0.21715 0.72046 0.0
H2293 H 0.53844 0.25444 0.72486 0.0
H2294 H 0.47368 0.2087 0.70552 0.0
H2295 H 0.50374 0.17142 0.70106 0.0
C2296 C 0.44286 0.27825 0.71747 0.0
C2297 C 0.45174 0.30106 0.70953 0.0
C2298 C 0.46019 0.25705 0.72021 0.0
C2299 C 0.48677 0.25843 0.71526 0.0
C2300 C 0.49612 0.28197 0.70835 0.0
C2301 C 0.47874 0.30306 0.70545 0.0
C2302 C 0.54783 0.2148 0.71746 0.0
C2303 C 0.53863 0.19147 0.71019 0.0
C2304 C 0.53061 0.23619 0.71995 0.0
C2305 C 0.50384 0.23448 0.71542 0.0
C2306 C 0.49421 0.21048 0.70922 0.0
C2307 C 0.51147 0.1892 0.70657 0.0
H2308 H 0.52253 0.82665 0.46852 0.0
H2309 H 0.56886 0.75853 0.45399 0.0
H2310 H 0.48487 0.79739 0.47417 0.0
H2311 H 0.53136 0.72948 0.45963 0.0
H2312 H 0.46382 0.68007 0.47484 0.0
H2313 H 0.49978 0.71154 0.47978 0.0
H2314 H 0.45681 0.7723 0.45467 0.0
H2315 H 0.42082 0.74101 0.44973 0.0
C2316 C 0.52491 0.80539 0.4669 0.0
C2317 C 0.54849 0.79489 0.46059 0.0
C2318 C 0.50334 0.78871 0.47009 0.0
C2319 C 0.50518 0.76125 0.46725 0.0
C2320 C 0.52945 0.75055 0.46207 0.0
C2321 C 0.55086 0.76722 0.45871 0.0
C2322 C 0.46172 0.70032 0.47068 0.0
C2323 C 0.43971 0.70791 0.46161 0.0
C2324 C 0.48235 0.71829 0.47351 0.0
C2325 C 0.48118 0.74422 0.46747 0.0
C2326 C 0.45817 0.75247 0.45955 0.0
C2327 C 0.43764 0.73446 0.45661 0.0
H2328 H 0.98734 0.8166 0.1947 0.0
H2329 H 0.92787 0.77228 0.22024 0.0
H2330 H 0.01907 0.78044 0.19869 0.0
H2331 H 0.95963 0.73619 0.22407 0.0
H2332 H 0.00899 0.66803 0.19866 0.0
H2333 H 0.97873 0.70525 0.203 0.0
H2334 H 0.04418 0.75311 0.21958 0.0
H2335 H 0.07457 0.7158 0.2154 0.0
C2336 C 0.98119 0.7994 0.2014 0.0
C2337 C 0.955 0.79716 0.20696 0.0
C2338 C -0.0006 0.77881 0.20376 0.0
C2339 C 0.99164 0.75554 0.2116 0.0
C2340 C 0.96596 0.75389 0.2179 0.0
C2341 C 0.94785 0.77459 0.21571 0.0
C2342 C 0.01684 0.68629 0.20354 0.0
C2343 C 0.04416 0.68909 0.20655 0.0
C2344 C -0.00049 0.70752 0.2061 0.0
C2345 C 0.00924 0.73201 0.21153 0.0
C2346 C 0.03629 0.73443 0.2153 0.0
C2347 C 0.05359 0.71305 0.21296 0.0
H2348 H 0.92301 0.23433 0.95125 0.0
H2349 H 0.96877 0.17037 0.97169 0.0
H2350 H 0.95966 0.26498 0.95605 0.0
H2351 H 0.00551 0.20116 0.97637 0.0
H2352 H 0.07087 0.25406 0.95025 0.0
H2353 H 0.03453 0.22322 0.95547 0.0
H2354 H 0.98935 0.28662 0.97672 0.0
H2355 H 0.02574 0.3176 0.9716 0.0
C2356 C 0.94066 0.22695 0.95706 0.0
C2357 C 0.94316 0.19989 0.96089 0.0
C2358 C 0.96155 0.24454 0.95991 0.0
C2359 C 0.98541 0.23533 0.9665 0.0
C2360 C 0.98733 0.20865 0.97121 0.0
C2361 C 0.96628 0.19111 0.96855 0.0
C2362 C 0.05345 0.26131 0.95635 0.0
C2363 C 0.05099 0.28833 0.96029 0.0
C2364 C 0.03274 0.2436 0.95944 0.0
C2365 C 0.00913 0.25266 0.9664 0.0
C2366 C 0.00733 0.27926 0.97126 0.0
C2367 C 0.02819 0.29691 0.96834 0.0
H2368 H 0.37993 0.96864 0.29177 0.0
H2369 H 0.39517 0.91821 0.25228 0.0
H2370 H 0.37899 0.00765 0.27473 0.0
H2371 H 0.39536 0.95694 0.23526 0.0
H2372 H 0.36786 0.02791 0.2067 0.0
H2373 H 0.36727 0.98911 0.22389 0.0
H2374 H 0.40671 0.03527 0.25951 0.0
H2375 H 0.40612 0.07406 0.24248 0.0
C2376 C 0.38328 0.96607 0.27944 0.0
C2377 C 0.38745 0.94066 0.27324 0.0
C2378 C 0.38289 0.98831 0.26967 0.0
C2379 C 0.38703 0.98546 0.25357 0.0
C2380 C 0.39152 0.95987 0.24751 0.0
C2381 C 0.39157 0.9377 0.25724 0.0
C2382 C 0.37637 0.02953 0.21822 0.0
C2383 C 0.38697 0.05372 0.22338 0.0
C2384 C 0.37618 0.00739 0.22805 0.0
C2385 C 0.38692 0.00904 0.24314 0.0
C2386 C 0.39779 0.03337 0.24813 0.0
C2387 C 0.39766 0.05552 0.23837 0.0
H2388 H 0.30512 0.17672 0.51819 0.0
H2389 H 0.28628 0.09533 0.52966 0.0
H2390 H 0.26893 0.17746 0.49925 0.0
H2391 H 0.2496 0.09599 0.51096 0.0
H2392 H 0.2062 0.09682 0.46454 0.0
H2393 H 0.24311 0.09711 0.48311 0.0
H2394 H 0.22116 0.17676 0.49724 0.0
H2395 H 0.18476 0.17642 0.47846 0.0
C2396 C 0.29282 0.15916 0.5168 0.0
C2397 C 0.29821 0.136 0.52531 0.0
C2398 C 0.27215 0.15953 0.50598 0.0
C2399 C 0.25648 0.13672 0.50353 0.0
C2400 C 0.26161 0.11372 0.51237 0.0
C2401 C 0.28236 0.11337 0.52315 0.0
C2402 C 0.20959 0.11439 0.47156 0.0
C2403 C 0.19293 0.13661 0.47014 0.0
C2404 C 0.23048 0.11453 0.48225 0.0
C2405 C 0.23494 0.1369 0.49175 0.0
C2406 C 0.21848 0.15935 0.49001 0.0
C2407 C 0.19768 0.1592 0.47928 0.0
H2408 H 0.11239 0.96565 0.70519 0.0
H2409 H 0.0865 0.9162 0.7432 0.0
H2410 H 0.1125 0.00447 0.72235 0.0
H2411 H 0.0854 0.9549 0.76029 0.0
H2412 H 0.11359 0.02393 0.79058 0.0
H2413 H 0.11345 0.98499 0.77351 0.0
H2414 H 0.08424 0.03399 0.73586 0.0
H2415 H 0.08557 0.07281 0.75283 0.0
C2416 C 0.10648 0.96328 0.71721 0.0
C2417 C 0.09958 0.93818 0.72299 0.0
C2418 C 0.10637 0.98543 0.72703 0.0
C2419 C 0.09899 0.98284 0.74275 0.0
C2420 C 0.09171 0.95759 0.74837 0.0
C2421 C 0.09216 0.93546 0.7386 0.0
C2422 C 0.1071 0.02613 0.77865 0.0
C2423 C 0.09974 0.05114 0.77291 0.0
C2424 C 0.10687 0.00392 0.76888 0.0
C2425 C 0.09893 0.00633 0.75325 0.0
C2426 C 0.09103 0.03145 0.7477 0.0
C2427 C 0.09159 0.05364 0.75741 0.0
H2428 H 0.16844 0.83965 0.00399 0.0
H2429 H 0.22001 0.86594 0.04091 0.0
H2430 H 0.20622 0.83801 0.98622 0.0
H2431 H 0.25796 0.86528 0.02307 0.0
H2432 H 0.32424 0.83712 0.99126 0.0
H2433 H 0.28635 0.83599 0.00899 0.0
H2434 H 0.2357 0.86667 0.97252 0.0
H2435 H 0.2737 0.86682 0.95472 0.0
C2436 C 0.18797 0.84524 0.00821 0.0
C2437 C 0.19153 0.85303 0.0237 0.0
C2438 C 0.20956 0.84446 -0.00195 0.0
C2439 C 0.23513 0.85167 0.00317 0.0
C2440 C 0.23862 0.85926 0.01879 0.0
C2441 C 0.21698 0.85979 0.02899 0.0
C2442 C 0.30491 0.84351 0.98711 0.0
C2443 C 0.30167 0.85216 0.97175 0.0
C2444 C 0.28327 0.84305 0.99724 0.0
C2445 C 0.25799 0.85143 0.99223 0.0
C2446 C 0.2548 0.85977 0.97672 0.0
C2447 C 0.27647 0.85998 0.96654 0.0
H2448 H 0.6235 0.96429 0.79006 0.0
H2449 H 0.58689 0.9163 0.75452 0.0
H2450 H 0.62309 0.00273 0.77261 0.0
H2451 H 0.58543 0.9547 0.73718 0.0
H2452 H 0.61225 0.02128 0.70459 0.0
H2453 H 0.61314 0.98266 0.72194 0.0
H2454 H 0.59412 0.03388 0.76077 0.0
H2455 H 0.59424 0.07225 0.74345 0.0
C2456 C 0.61512 0.96218 0.77854 0.0
C2457 C 0.6053 0.93757 0.77353 0.0
C2458 C 0.61475 0.98412 0.76855 0.0
C2459 C 0.60425 0.98183 0.75344 0.0
C2460 C 0.59412 0.9571 0.74859 0.0
C2461 C 0.59476 0.93516 0.75853 0.0
C2462 C 0.60827 0.02405 0.71684 0.0
C2463 C 0.60338 0.04953 0.72278 0.0
C2464 C 0.60863 0.00203 0.72678 0.0
C2465 C 0.6038 0.00514 0.7428 0.0
C2466 C 0.5985 0.03077 0.74859 0.0
C2467 C 0.59842 0.05273 0.73869 0.0
H2468 H 0.71064 0.89073 0.46066 0.0
H2469 H 0.68346 0.81544 0.47873 0.0
H2470 H 0.74775 0.89039 0.4791 0.0
H2471 H 0.72016 0.81506 0.49731 0.0
H2472 H 0.80447 0.81156 0.51766 0.0
H2473 H 0.76806 0.811 0.49886 0.0
H2474 H 0.75464 0.89489 0.50698 0.0
H2475 H 0.79143 0.8953 0.52562 0.0
C2476 C 0.71279 0.87409 0.46856 0.0
C2477 C 0.6945 0.85306 0.46832 0.0
C2478 C 0.73383 0.87394 0.47917 0.0
C2479 C 0.7368 0.85276 0.48973 0.0
C2480 C 0.71864 0.83149 0.48922 0.0
C2481 C 0.69767 0.83167 0.47861 0.0
C2482 C 0.79343 0.82973 0.51552 0.0
C2483 C 0.80051 0.85346 0.52301 0.0
C2484 C 0.77266 0.82946 0.50477 0.0
C2485 C 0.75857 0.85294 0.50136 0.0
C2486 C 0.76542 0.87659 0.50915 0.0
C2487 C 0.78624 0.87682 0.51988 0.0
H2488 H 0.8745 0.02084 0.29154 0.0
H2489 H 0.89916 0.07127 0.25369 0.0
H2490 H 0.87476 0.98228 0.27417 0.0
H2491 H 0.90048 0.03288 0.23638 0.0
H2492 H 0.87301 0.9638 0.2059 0.0
H2493 H 0.87236 0.00242 0.22322 0.0
H2494 H 0.90386 0.95364 0.26033 0.0
H2495 H 0.90344 0.91511 0.24309 0.0
C2496 C 0.88017 0.02349 0.27951 0.0
C2497 C 0.88665 0.04879 0.27384 0.0
C2498 C 0.88049 0.0015 0.26957 0.0
C2499 C 0.8876 0.00446 0.25383 0.0
C2500 C 0.8944 0.02991 0.24831 0.0
C2501 C 0.8938 0.05186 0.25821 0.0
C2502 C 0.87982 0.96157 0.21776 0.0
C2503 C 0.88815 0.93672 0.22327 0.0
C2504 C 0.87958 0.9836 0.22768 0.0
C2505 C 0.88798 0.98114 0.24322 0.0
C2506 C 0.89674 0.95617 0.24856 0.0
C2507 C 0.8967 0.93417 0.23869 0.0
H2508 H 0.77237 0.12594 0.9541 0.0
H2509 H 0.82225 0.15331 0.99152 0.0
H2510 H 0.73371 0.12671 0.9714 0.0
H2511 H 0.78373 0.15552 0.00869 0.0
H2512 H 0.71557 0.12923 0.03995 0.0
H2513 H 0.75412 0.1285 0.02259 0.0
H2514 H 0.70402 0.15466 0.98466 0.0
H2515 H 0.66558 0.15397 0.00195 0.0
C2516 C 0.77484 0.13243 0.96601 0.0
C2517 C 0.80002 0.13941 0.97161 0.0
C2518 C 0.75279 0.13305 0.97591 0.0
C2519 C 0.75555 0.14109 0.99151 0.0
C2520 C 0.78088 0.14865 0.9969 0.0
C2521 C 0.8029 0.14762 0.98707 0.0
C2522 C 0.71304 0.13478 0.02789 0.0
C2523 C 0.68786 0.14146 0.02216 0.0
C2524 C 0.73504 0.13456 0.01794 0.0
C2525 C 0.73223 0.14147 0.00216 0.0
C2526 C 0.7069 0.14866 0.99662 0.0
C2527 C 0.68492 0.14847 0.0065 0.0
H2528 H 0.8461 0.52883 0.71068 0.0
H2529 H 0.92199 0.55572 0.72792 0.0
H2530 H 0.84613 0.49259 0.72968 0.0
H2531 H 0.92189 0.52023 0.74728 0.0
H2532 H 0.92404 0.43837 0.7705 0.0
H2533 H 0.92544 0.47345 0.75089 0.0
H2534 H 0.84096 0.48654 0.75703 0.0
H2535 H 0.83971 0.45071 0.77626 0.0
C2536 C 0.86284 0.52674 0.71851 0.0
C2537 C 0.88411 0.5447 0.71789 0.0
C2538 C 0.86278 0.50626 0.72948 0.0
C2539 C 0.88391 0.50364 0.74012 0.0
C2540 C 0.90547 0.52143 0.73917 0.0
C2541 C 0.90558 0.54173 0.72812 0.0
C2542 C 0.90593 0.44909 0.76774 0.0
C2543 C 0.8818 0.44216 0.77482 0.0
C2544 C 0.90667 0.46913 0.75653 0.0
C2545 C 0.88327 0.48272 0.7523 0.0
C2546 C 0.85924 0.47612 0.75977 0.0
C2547 C 0.85851 0.45591 0.77089 0.0
H2548 H 0.77179 0.63128 0.04124 0.0
H2549 H 0.82359 0.64652 0.00233 0.0
H2550 H 0.73343 0.63 0.0237 0.0
H2551 H 0.78551 0.64625 0.98483 0.0
H2552 H 0.71673 0.6145 0.95582 0.0
H2553 H 0.75472 0.61622 0.97356 0.0
H2554 H 0.70591 0.65678 0.00754 0.0
H2555 H 0.66794 0.65401 0.98993 0.0
C2556 C 0.7748 0.63462 0.02894 0.0
C2557 C 0.80043 0.63871 0.02302 0.0
C2558 C 0.75293 0.63403 0.0189 0.0
C2559 C 0.7564 0.63783 0.00281 0.0
C2560 C 0.78215 0.64261 0.99706 0.0
C2561 C 0.80393 0.64291 0.00707 0.0
C2562 C 0.71436 0.62378 0.96708 0.0
C2563 C 0.68966 0.63403 0.97163 0.0
C2564 C 0.73603 0.62493 0.97722 0.0
C2565 C 0.73338 0.63664 0.99201 0.0
C2566 C 0.70856 0.6472 0.99638 0.0
C2567 C 0.68689 0.64579 0.9863 0.0
H2568 H 0.64633 0.53484 0.28002 0.0
H2569 H 0.5655 0.5542 0.2676 0.0
H2570 H 0.64643 0.49871 0.26096 0.0
H2571 H 0.56556 0.51867 0.24823 0.0
H2572 H 0.56815 0.43603 0.22537 0.0
H2573 H 0.56642 0.47128 0.24489 0.0
H2574 H 0.647 0.49395 0.23313 0.0
H2575 H 0.64869 0.45813 0.2139 0.0
C2576 C 0.62854 0.53108 0.27326 0.0
C2577 C 0.60589 0.54698 0.2752 0.0
C2578 C 0.62863 0.51069 0.26225 0.0
C2579 C 0.60609 0.50601 0.25294 0.0
C2580 C 0.58315 0.52156 0.25529 0.0
C2581 C 0.58306 0.54184 0.26636 0.0
C2582 C 0.58527 0.44889 0.22687 0.0
C2583 C 0.60853 0.44462 0.21825 0.0
C2584 C 0.58434 0.46902 0.23803 0.0
C2585 C 0.60667 0.48527 0.24068 0.0
C2586 C 0.62967 0.48141 0.23161 0.0
C2587 C 0.6306 0.46117 0.22052 0.0
H2588 H 0.80563 0.31285 0.47838 0.0
H2589 H 0.78565 0.39328 0.46538 0.0
H2590 H 0.76852 0.31214 0.49671 0.0
H2591 H 0.74812 0.39267 0.48353 0.0
H2592 H 0.70344 0.39278 0.52973 0.0
H2593 H 0.74075 0.39253 0.51142 0.0
H2594 H 0.72055 0.31207 0.49801 0.0
H2595 H 0.68367 0.31241 0.51651 0.0
C2596 C 0.7929 0.33019 0.47931 0.0
C2597 C 0.79828 0.35311 0.47056 0.0
C2598 C 0.77171 0.32984 0.48978 0.0
C2599 C 0.75547 0.35242 0.49166 0.0
C2600 C 0.76056 0.37514 0.48256 0.0
C2601 C 0.78182 0.37547 0.47211 0.0
C2602 C 0.70725 0.37506 0.5229 0.0
C2603 C 0.69094 0.35261 0.52445 0.0
C2604 C 0.72838 0.37494 0.51236 0.0
C2605 C 0.73348 0.35234 0.50317 0.0
C2606 C 0.71735 0.32969 0.50502 0.0
C2607 C 0.69628 0.32983 0.51559 0.0
H2608 H 0.06425 0.55335 0.22589 0.0
H2609 H 0.14479 0.53189 0.21396 0.0
H2610 H 0.06257 0.51699 0.24472 0.0
H2611 H 0.14316 0.49502 0.23252 0.0
H2612 H 0.14225 0.45207 0.27894 0.0
H2613 H 0.14248 0.48885 0.26031 0.0
H2614 H 0.06183 0.46921 0.24701 0.0
H2615 H 0.06164 0.43294 0.26594 0.0
C2616 C 0.0814 0.54043 0.22715 0.0
C2617 C 0.10464 0.54517 0.21858 0.0
C2618 C 0.08048 0.51966 0.2379 0.0
C2619 C 0.10281 0.50323 0.24021 0.0
C2620 C 0.12581 0.50764 0.23124 0.0
C2621 C 0.12672 0.5285 0.22054 0.0
C2622 C 0.12455 0.45599 0.27212 0.0
C2623 C 0.1019 0.44002 0.27382 0.0
C2624 C 0.12472 0.47677 0.26136 0.0
C2625 C 0.10225 0.4818 0.25206 0.0
C2626 C 0.07936 0.46605 0.25409 0.0
C2627 C 0.07919 0.44535 0.2649 0.0
H2628 H 0.27995 0.39187 0.03258 0.0
H2629 H 0.30649 0.31436 0.01763 0.0
H2630 H 0.24401 0.39051 0.01339 0.0
H2631 H 0.27081 0.31289 -0.00164 0.0
H2632 H 0.18642 0.31068 0.97683 0.0
H2633 H 0.22242 0.31028 0.99594 0.0
H2634 H 0.24 0.39244 0.98506 0.0
H2635 H 0.20372 0.39271 0.96609 0.0
C2636 C 0.27786 0.37449 0.02523 0.0
C2637 C 0.29571 0.35319 0.02652 0.0
C2638 C 0.25752 0.37376 0.0142 0.0
C2639 C 0.25476 0.35169 0.00426 0.0
C2640 C 0.27228 0.33006 0.00591 0.0
C2641 C 0.29261 0.33084 0.01694 0.0
C2642 C 0.19839 0.32843 0.97837 0.0
C2643 C 0.19259 0.35169 0.97004 0.0
C2644 C 0.21889 0.32826 0.98931 0.0
C2645 C 0.23387 0.35141 0.99211 0.0
C2646 C 0.22849 0.37444 0.98337 0.0
C2647 C 0.208 0.37457 0.97242 0.0
H2648 H 0.34104 0.53978 0.77736 0.0
H2649 H 0.42517 0.55277 0.7712 0.0
H2650 H 0.34271 0.50258 0.75908 0.0
H2651 H 0.42696 0.51648 0.75237 0.0
H2652 H 0.42534 0.43364 0.7305 0.0
H2653 H 0.42461 0.46998 0.74932 0.0
H2654 H 0.3472 0.49399 0.73228 0.0
H2655 H 0.34772 0.45672 0.71402 0.0
C2656 C 0.35988 0.53446 0.77208 0.0
C2657 C 0.383 0.54874 0.77565 0.0
C2658 C 0.36086 0.51344 0.76149 0.0
C2659 C 0.38494 0.50663 0.75411 0.0
C2660 C 0.40815 0.52088 0.75795 0.0
C2661 C 0.40719 0.54166 0.76869 0.0
C2662 C 0.40838 0.44697 0.73076 0.0
C2663 C 0.38665 0.44274 0.72089 0.0
C2664 C 0.40792 0.46779 0.74148 0.0
C2665 C 0.38578 0.48491 0.7424 0.0
C2666 C 0.36433 0.48091 0.73214 0.0
C2667 C 0.36469 0.45985 0.72155 0.0
H2668 H 0.20583 0.59613 0.53002 0.0
H2669 H 0.18542 0.67677 0.51776 0.0
H2670 H 0.24329 0.59735 0.51186 0.0
H2671 H 0.22213 0.67797 0.49918 0.0
H2672 H 0.30623 0.67944 0.47882 0.0
H2673 H 0.26923 0.67909 0.49721 0.0
H2674 H 0.25204 0.59749 0.48466 0.0
H2675 H 0.28981 0.59785 0.4667 0.0
C2676 C 0.20955 0.61411 0.52342 0.0
C2677 C 0.1931 0.6364 0.52524 0.0
C2678 C 0.23074 0.61478 0.51293 0.0
C2679 C 0.23563 0.63771 0.50396 0.0
C2680 C 0.2192 0.66013 0.50602 0.0
C2681 C 0.19819 0.65949 0.51661 0.0
C2682 C 0.29425 0.66161 0.47993 0.0
C2683 C 0.30055 0.63871 0.47141 0.0
C2684 C 0.27307 0.66136 0.49042 0.0
C2685 C 0.2577 0.63821 0.49248 0.0
C2686 C 0.26377 0.61548 0.48359 0.0
C2687 C 0.28512 0.61571 0.4732 0.0
loop_
_geom_bond_atom_site_label_1
_geom_bond_atom_site_label_2
_geom_bond_distance
_geom_bond_site_symmetry_2
_ccdc_geom_bond_type
Co0 O3 1.970 . S
Co0 N17 1.989 . S
Co0 O25 1.967 . S
Co0 O32 1.920 . S
Co1 O4 1.966 . S
Co1 N10 2.022 . S
Co1 N18 1.993 . S
Co1 O26 1.941 . S
C2 O3 1.258 . S
C2 O4 1.263 . S
O3 Co0 1.970 . S
O3 C2 1.258 . S
O4 Co1 1.966 . S
O4 C2 1.263 . S
C5 O6 1.235 . S
C5 O32 1.289 . S
O6 C5 1.235 . S
C7 C9 1.400 . S
C7 N10 1.351 . S
C7 C12 1.501 . S
C8 C9 1.387 . S
C8 N11 1.341 . S
C9 C7 1.400 . S
C9 C8 1.387 . S
N10 Co1 2.022 . S
N10 C7 1.351 . S
N10 N11 1.365 . S
N11 C8 1.341 . S
N11 N10 1.365 . S
N11 H31 0.862 . S
C12 C7 1.501 . S
C12 H13 0.961 . S
C12 H14 0.961 . S
C12 H15 0.960 . S
H13 C12 0.961 . S
H14 C12 0.961 . S
H15 C12 0.960 . S
C16 N17 1.342 . S
C16 C20 1.401 . S
C16 C21 1.499 . S
N17 Co0 1.989 . S
N17 C16 1.342 . S
N17 N18 1.388 . S
N18 Co1 1.993 . S
N18 N17 1.388 . S
N18 C19 1.346 . S
C19 N18 1.346 . S
C19 C20 1.396 . S
C19 C29 1.510 . S
C20 C16 1.401 . S
C20 C19 1.396 . S
C21 C16 1.499 . S
C21 H22 0.959 . S
C21 H23 0.960 . S
C21 H24 0.961 . S
H22 C21 0.959 . S
H23 C21 0.960 . S
H24 C21 0.961 . S
O25 Co0 1.967 . S
O25 C33 1.258 . S
O26 Co1 1.941 . S
O26 C33 1.266 . S
H27 C29 0.959 . S
H28 C29 0.961 . S
C29 C19 1.510 . S
C29 H27 0.959 . S
C29 H28 0.961 . S
C29 H30 0.960 . S
H30 C29 0.960 . S
H31 N11 0.862 . S
O32 Co0 1.920 . S
O32 C5 1.289 . S
C33 O25 1.258 . S
C33 O26 1.266 . S
Co34 O37 1.970 . S
Co34 N51 1.989 . S
Co34 O59 1.967 . S
Co34 O66 1.920 . S
Co35 O38 1.966 . S
Co35 N44 2.022 . S
Co35 N52 1.993 . S
Co35 O60 1.941 . S
C36 O37 1.258 . S
C36 O38 1.263 . S
O37 Co34 1.970 . S
O37 C36 1.258 . S
O38 Co35 1.966 . S
O38 C36 1.263 . S
C39 O40 1.235 . S
C39 O66 1.289 . S
O40 C39 1.235 . S
C41 C43 1.400 . S
C41 N44 1.351 . S
C41 C46 1.501 . S
C42 C43 1.387 . S
C42 N45 1.341 . S
C43 C41 1.400 . S
C43 C42 1.387 . S
N44 Co35 2.022 . S
N44 C41 1.351 . S
N44 N45 1.365 . S
N45 C42 1.341 . S
N45 N44 1.365 . S
N45 H65 0.862 . S
C46 C41 1.501 . S
C46 H47 0.961 . S
C46 H48 0.961 . S
C46 H49 0.960 . S
H47 C46 0.961 . S
H48 C46 0.961 . S
H49 C46 0.960 . S
C50 N51 1.342 . S
C50 C54 1.401 . S
C50 C55 1.499 . S
N51 Co34 1.989 . S
N51 C50 1.342 . S
N51 N52 1.388 . S
N52 Co35 1.993 . S
N52 N51 1.388 . S
N52 C53 1.346 . S
C53 N52 1.346 . S
C53 C54 1.396 . S
C53 C63 1.510 . S
C54 C50 1.401 . S
C54 C53 1.396 . S
C55 C50 1.499 . S
C55 H56 0.959 . S
C55 H57 0.960 . S
C55 H58 0.961 . S
H56 C55 0.959 . S
H57 C55 0.960 . S
H58 C55 0.961 . S
O59 Co34 1.967 . S
O59 C67 1.258 . S
O60 Co35 1.941 . S
O60 C67 1.266 . S
H61 C63 0.959 . S
H62 C63 0.961 . S
C63 C53 1.510 . S
C63 H61 0.959 . S
C63 H62 0.961 . S
C63 H64 0.960 . S
H64 C63 0.960 . S
H65 N45 0.862 . S
O66 Co34 1.920 . S
O66 C39 1.289 . S
C67 O59 1.258 . S
C67 O60 1.266 . S
Co68 O71 1.970 . S
Co68 N85 1.989 . S
Co68 O93 1.967 . S
Co68 O100 1.920 . S
Co69 O72 1.966 . S
Co69 N78 2.022 . S
Co69 N86 1.993 . S
Co69 O94 1.941 . S
C70 O71 1.258 . S
C70 O72 1.263 . S
O71 Co68 1.970 . S
O71 C70 1.258 . S
O72 Co69 1.966 . S
O72 C70 1.263 . S
C73 O74 1.235 . S
C73 O100 1.289 . S
O74 C73 1.235 . S
C75 C77 1.400 . S
C75 N78 1.351 . S
C75 C80 1.501 . S
C76 C77 1.387 . S
C76 N79 1.341 . S
C77 C75 1.400 . S
C77 C76 1.387 . S
N78 Co69 2.022 . S
N78 C75 1.351 . S
N78 N79 1.365 . S
N79 C76 1.341 . S
N79 N78 1.365 . S
N79 H99 0.862 . S
C80 C75 1.501 . S
C80 H81 0.961 . S
C80 H82 0.961 . S
C80 H83 0.960 . S
H81 C80 0.961 . S
H82 C80 0.961 . S
H83 C80 0.960 . S
C84 N85 1.342 . S
C84 C88 1.401 . S
C84 C89 1.499 . S
N85 Co68 1.989 . S
N85 C84 1.342 . S
N85 N86 1.388 . S
N86 Co69 1.993 . S
N86 N85 1.388 . S
N86 C87 1.346 . S
C87 N86 1.346 . S
C87 C88 1.396 . S
C87 C97 1.510 . S
C88 C84 1.401 . S
C88 C87 1.396 . S
C89 C84 1.499 . S
C89 H90 0.959 . S
C89 H91 0.960 . S
C89 H92 0.961 . S
H90 C89 0.959 . S
H91 C89 0.960 . S
H92 C89 0.961 . S
O93 Co68 1.967 . S
O93 C101 1.258 . S
O94 Co69 1.941 . S
O94 C101 1.266 . S
H95 C97 0.959 . S
H96 C97 0.961 . S
C97 C87 1.510 . S
C97 H95 0.959 . S
C97 H96 0.961 . S
C97 H98 0.960 . S
H98 C97 0.960 . S
H99 N79 0.862 . S
O100 Co68 1.920 . S
O100 C73 1.289 . S
C101 O93 1.258 . S
C101 O94 1.266 . S
Co102 O105 1.970 . S
Co102 N119 1.989 . S
Co102 O127 1.967 . S
Co102 O134 1.920 . S
Co103 O106 1.966 . S
Co103 N112 2.022 . S
Co103 N120 1.993 . S
Co103 O128 1.941 . S
C104 O105 1.258 . S
C104 O106 1.263 . S
O105 Co102 1.970 . S
O105 C104 1.258 . S
O106 Co103 1.966 . S
O106 C104 1.263 . S
C107 O108 1.235 . S
C107 O134 1.289 . S
O108 C107 1.235 . S
C109 C111 1.400 . S
C109 N112 1.351 . S
C109 C114 1.501 . S
C110 C111 1.387 . S
C110 N113 1.341 . S
C111 C109 1.400 . S
C111 C110 1.387 . S
N112 Co103 2.022 . S
N112 C109 1.351 . S
N112 N113 1.365 . S
N113 C110 1.341 . S
N113 N112 1.365 . S
N113 H133 0.862 . S
C114 C109 1.501 . S
C114 H115 0.961 . S
C114 H116 0.961 . S
C114 H117 0.960 . S
H115 C114 0.961 . S
H116 C114 0.961 . S
H117 C114 0.960 . S
C118 N119 1.342 . S
C118 C122 1.401 . S
C118 C123 1.499 . S
N119 Co102 1.989 . S
N119 C118 1.342 . S
N119 N120 1.388 . S
N120 Co103 1.993 . S
N120 N119 1.388 . S
N120 C121 1.346 . S
C121 N120 1.346 . S
C121 C122 1.396 . S
C121 C131 1.510 . S
C122 C118 1.401 . S
C122 C121 1.396 . S
C123 C118 1.499 . S
C123 H124 0.959 . S
C123 H125 0.960 . S
C123 H126 0.961 . S
H124 C123 0.959 . S
H125 C123 0.960 . S
H126 C123 0.961 . S
O127 Co102 1.967 . S
O127 C135 1.258 . S
O128 Co103 1.941 . S
O128 C135 1.266 . S
H129 C131 0.959 . S
H130 C131 0.961 . S
C131 C121 1.510 . S
C131 H129 0.959 . S
C131 H130 0.961 . S
C131 H132 0.960 . S
H132 C131 0.960 . S
H133 N113 0.862 . S
O134 Co102 1.920 . S
O134 C107 1.289 . S
C135 O127 1.258 . S
C135 O128 1.266 . S
Co136 O139 1.970 . S
Co136 N153 1.989 . S
Co136 O161 1.967 . S
Co136 O168 1.920 . S
Co137 O140 1.966 . S
Co137 N146 2.022 . S
Co137 N154 1.993 . S
Co137 O162 1.941 . S
C138 O139 1.258 . S
C138 O140 1.263 . S
O139 Co136 1.970 . S
O139 C138 1.258 . S
O140 Co137 1.966 . S
O140 C138 1.263 . S
C141 O142 1.235 . S
C141 O168 1.289 . S
O142 C141 1.235 . S
C143 C145 1.400 . S
C143 N146 1.351 . S
C143 C148 1.501 . S
C144 C145 1.387 . S
C144 N147 1.341 . S
C145 C143 1.400 . S
C145 C144 1.387 . S
N146 Co137 2.022 . S
N146 C143 1.351 . S
N146 N147 1.365 . S
N147 C144 1.341 . S
N147 N146 1.365 . S
N147 H167 0.862 . S
C148 C143 1.501 . S
C148 H149 0.961 . S
C148 H150 0.961 . S
C148 H151 0.960 . S
H149 C148 0.961 . S
H150 C148 0.961 . S
H151 C148 0.960 . S
C152 N153 1.342 . S
C152 C156 1.401 . S
C152 C157 1.499 . S
N153 Co136 1.989 . S
N153 C152 1.342 . S
N153 N154 1.388 . S
N154 Co137 1.993 . S
N154 N153 1.388 . S
N154 C155 1.346 . S
C155 N154 1.346 . S
C155 C156 1.396 . S
C155 C165 1.510 . S
C156 C152 1.401 . S
C156 C155 1.396 . S
C157 C152 1.499 . S
C157 H158 0.959 . S
C157 H159 0.960 . S
C157 H160 0.961 . S
H158 C157 0.959 . S
H159 C157 0.960 . S
H160 C157 0.961 . S
O161 Co136 1.967 . S
O161 C169 1.258 . S
O162 Co137 1.941 . S
O162 C169 1.266 . S
H163 C165 0.959 . S
H164 C165 0.961 . S
C165 C155 1.510 . S
C165 H163 0.959 . S
C165 H164 0.961 . S
C165 H166 0.960 . S
H166 C165 0.960 . S
H167 N147 0.862 . S
O168 Co136 1.920 . S
O168 C141 1.289 . S
C169 O161 1.258 . S
C169 O162 1.266 . S
Co170 O173 1.970 . S
Co170 N187 1.989 . S
Co170 O195 1.967 . S
Co170 O202 1.920 . S
Co171 O174 1.966 . S
Co171 N180 2.022 . S
Co171 N188 1.993 . S
Co171 O196 1.941 . S
C172 O173 1.258 . S
C172 O174 1.263 . S
O173 Co170 1.970 . S
O173 C172 1.258 . S
O174 Co171 1.966 . S
O174 C172 1.263 . S
C175 O176 1.235 . S
C175 O202 1.289 . S
O176 C175 1.235 . S
C177 C179 1.400 . S
C177 N180 1.351 . S
C177 C182 1.501 . S
C178 C179 1.387 . S
C178 N181 1.341 . S
C179 C177 1.400 . S
C179 C178 1.387 . S
N180 Co171 2.022 . S
N180 C177 1.351 . S
N180 N181 1.365 . S
N181 C178 1.341 . S
N181 N180 1.365 . S
N181 H201 0.862 . S
C182 C177 1.501 . S
C182 H183 0.961 . S
C182 H184 0.961 . S
C182 H185 0.960 . S
H183 C182 0.961 . S
H184 C182 0.961 . S
H185 C182 0.960 . S
C186 N187 1.342 . S
C186 C190 1.401 . S
C186 C191 1.499 . S
N187 Co170 1.989 . S
N187 C186 1.342 . S
N187 N188 1.388 . S
N188 Co171 1.993 . S
N188 N187 1.388 . S
N188 C189 1.346 . S
C189 N188 1.346 . S
C189 C190 1.396 . S
C189 C199 1.510 . S
C190 C186 1.401 . S
C190 C189 1.396 . S
C191 C186 1.499 . S
C191 H192 0.959 . S
C191 H193 0.960 . S
C191 H194 0.961 . S
H192 C191 0.959 . S
H193 C191 0.960 . S
H194 C191 0.961 . S
O195 Co170 1.967 . S
O195 C203 1.258 . S
O196 Co171 1.941 . S
O196 C203 1.266 . S
H197 C199 0.959 . S
H198 C199 0.961 . S
C199 C189 1.510 . S
C199 H197 0.959 . S
C199 H198 0.961 . S
C199 H200 0.960 . S
H200 C199 0.960 . S
H201 N181 0.862 . S
O202 Co170 1.920 . S
O202 C175 1.289 . S
C203 O195 1.258 . S
C203 O196 1.266 . S
Co204 O207 1.970 . S
Co204 N221 1.989 . S
Co204 O229 1.967 . S
Co204 O236 1.920 . S
Co205 O208 1.966 . S
Co205 N214 2.022 . S
Co205 N222 1.993 . S
Co205 O230 1.941 . S
C206 O207 1.258 . S
C206 O208 1.263 . S
O207 Co204 1.970 . S
O207 C206 1.258 . S
O208 Co205 1.966 . S
O208 C206 1.263 . S
C209 O210 1.235 . S
C209 O236 1.289 . S
O210 C209 1.235 . S
C211 C213 1.400 . S
C211 N214 1.351 . S
C211 C216 1.501 . S
C212 C213 1.387 . S
C212 N215 1.341 . S
C213 C211 1.400 . S
C213 C212 1.387 . S
N214 Co205 2.022 . S
N214 C211 1.351 . S
N214 N215 1.365 . S
N215 C212 1.341 . S
N215 N214 1.365 . S
N215 H235 0.862 . S
C216 C211 1.501 . S
C216 H217 0.961 . S
C216 H218 0.961 . S
C216 H219 0.960 . S
H217 C216 0.961 . S
H218 C216 0.961 . S
H219 C216 0.960 . S
C220 N221 1.342 . S
C220 C224 1.401 . S
C220 C225 1.499 . S
N221 Co204 1.989 . S
N221 C220 1.342 . S
N221 N222 1.388 . S
N222 Co205 1.993 . S
N222 N221 1.388 . S
N222 C223 1.346 . S
C223 N222 1.346 . S
C223 C224 1.396 . S
C223 C233 1.510 . S
C224 C220 1.401 . S
C224 C223 1.396 . S
C225 C220 1.499 . S
C225 H226 0.959 . S
C225 H227 0.960 . S
C225 H228 0.961 . S
H226 C225 0.959 . S
H227 C225 0.960 . S
H228 C225 0.961 . S
O229 Co204 1.967 . S
O229 C237 1.258 . S
O230 Co205 1.941 . S
O230 C237 1.266 . S
H231 C233 0.959 . S
H232 C233 0.961 . S
C233 C223 1.510 . S
C233 H231 0.959 . S
C233 H232 0.961 . S
C233 H234 0.960 . S
H234 C233 0.960 . S
H235 N215 0.862 . S
O236 Co204 1.920 . S
O236 C209 1.289 . S
C237 O229 1.258 . S
C237 O230 1.266 . S
Co238 O241 1.970 . S
Co238 N255 1.989 . S
Co238 O263 1.967 . S
Co238 O270 1.920 . S
Co239 O242 1.966 . S
Co239 N248 2.022 . S
Co239 N256 1.993 . S
Co239 O264 1.941 . S
C240 O241 1.258 . S
C240 O242 1.263 . S
O241 Co238 1.970 . S
O241 C240 1.258 . S
O242 Co239 1.966 . S
O242 C240 1.263 . S
C243 O244 1.235 . S
C243 O270 1.289 . S
O244 C243 1.235 . S
C245 C247 1.400 . S
C245 N248 1.351 . S
C245 C250 1.501 . S
C246 C247 1.387 . S
C246 N249 1.341 . S
C247 C245 1.400 . S
C247 C246 1.387 . S
N248 Co239 2.022 . S
N248 C245 1.351 . S
N248 N249 1.365 . S
N249 C246 1.341 . S
N249 N248 1.365 . S
N249 H269 0.862 . S
C250 C245 1.501 . S
C250 H251 0.961 . S
C250 H252 0.961 . S
C250 H253 0.960 . S
H251 C250 0.961 . S
H252 C250 0.961 . S
H253 C250 0.960 . S
C254 N255 1.342 . S
C254 C258 1.401 . S
C254 C259 1.499 . S
N255 Co238 1.989 . S
N255 C254 1.342 . S
N255 N256 1.388 . S
N256 Co239 1.993 . S
N256 N255 1.388 . S
N256 C257 1.346 . S
C257 N256 1.346 . S
C257 C258 1.396 . S
C257 C267 1.510 . S
C258 C254 1.401 . S
C258 C257 1.396 . S
C259 C254 1.499 . S
C259 H260 0.959 . S
C259 H261 0.960 . S
C259 H262 0.961 . S
H260 C259 0.959 . S
H261 C259 0.960 . S
H262 C259 0.961 . S
O263 Co238 1.967 . S
O263 C271 1.258 . S
O264 Co239 1.941 . S
O264 C271 1.266 . S
H265 C267 0.959 . S
H266 C267 0.961 . S
C267 C257 1.510 . S
C267 H265 0.959 . S
C267 H266 0.961 . S
C267 H268 0.960 . S
H268 C267 0.960 . S
H269 N249 0.862 . S
O270 Co238 1.920 . S
O270 C243 1.289 . S
C271 O263 1.258 . S
C271 O264 1.266 . S
Co272 O275 1.970 . S
Co272 N289 1.989 . S
Co272 O297 1.967 . S
Co272 O304 1.920 . S
Co273 O276 1.966 . S
Co273 N282 2.022 . S
Co273 N290 1.993 . S
Co273 O298 1.941 . S
C274 O275 1.258 . S
C274 O276 1.263 . S
O275 Co272 1.970 . S
O275 C274 1.258 . S
O276 Co273 1.966 . S
O276 C274 1.263 . S
C277 O278 1.235 . S
C277 O304 1.289 . S
O278 C277 1.235 . S
C279 C281 1.400 . S
C279 N282 1.351 . S
C279 C284 1.501 . S
C280 C281 1.387 . S
C280 N283 1.341 . S
C281 C279 1.400 . S
C281 C280 1.387 . S
N282 Co273 2.022 . S
N282 C279 1.351 . S
N282 N283 1.365 . S
N283 C280 1.341 . S
N283 N282 1.365 . S
N283 H303 0.862 . S
C284 C279 1.501 . S
C284 H285 0.961 . S
C284 H286 0.961 . S
C284 H287 0.960 . S
H285 C284 0.961 . S
H286 C284 0.961 . S
H287 C284 0.960 . S
C288 N289 1.342 . S
C288 C292 1.401 . S
C288 C293 1.499 . S
N289 Co272 1.989 . S
N289 C288 1.342 . S
N289 N290 1.388 . S
N290 Co273 1.993 . S
N290 N289 1.388 . S
N290 C291 1.346 . S
C291 N290 1.346 . S
C291 C292 1.396 . S
C291 C301 1.510 . S
C292 C288 1.401 . S
C292 C291 1.396 . S
C293 C288 1.499 . S
C293 H294 0.959 . S
C293 H295 0.960 . S
C293 H296 0.961 . S
H294 C293 0.959 . S
H295 C293 0.960 . S
H296 C293 0.961 . S
O297 Co272 1.967 . S
O297 C305 1.258 . S
O298 Co273 1.941 . S
O298 C305 1.266 . S
H299 C301 0.959 . S
H300 C301 0.961 . S
C301 C291 1.510 . S
C301 H299 0.959 . S
C301 H300 0.961 . S
C301 H302 0.960 . S
H302 C301 0.960 . S
H303 N283 0.862 . S
O304 Co272 1.920 . S
O304 C277 1.289 . S
C305 O297 1.258 . S
C305 O298 1.266 . S
Co306 O309 1.970 . S
Co306 N323 1.989 . S
Co306 O331 1.967 . S
Co306 O338 1.920 . S
Co307 O310 1.966 . S
Co307 N316 2.022 . S
Co307 N324 1.993 . S
Co307 O332 1.941 . S
C308 O309 1.258 . S
C308 O310 1.263 . S
O309 Co306 1.970 . S
O309 C308 1.258 . S
O310 Co307 1.966 . S
O310 C308 1.263 . S
C311 O312 1.235 . S
C311 O338 1.289 . S
O312 C311 1.235 . S
C313 C315 1.400 . S
C313 N316 1.351 . S
C313 C318 1.501 . S
C314 C315 1.387 . S
C314 N317 1.341 . S
C315 C313 1.400 . S
C315 C314 1.387 . S
N316 Co307 2.022 . S
N316 C313 1.351 . S
N316 N317 1.365 . S
N317 C314 1.341 . S
N317 N316 1.365 . S
N317 H337 0.862 . S
C318 C313 1.501 . S
C318 H319 0.961 . S
C318 H320 0.961 . S
C318 H321 0.960 . S
H319 C318 0.961 . S
H320 C318 0.961 . S
H321 C318 0.960 . S
C322 N323 1.342 . S
C322 C326 1.401 . S
C322 C327 1.499 . S
N323 Co306 1.989 . S
N323 C322 1.342 . S
N323 N324 1.388 . S
N324 Co307 1.993 . S
N324 N323 1.388 . S
N324 C325 1.346 . S
C325 N324 1.346 . S
C325 C326 1.396 . S
C325 C335 1.510 . S
C326 C322 1.401 . S
C326 C325 1.396 . S
C327 C322 1.499 . S
C327 H328 0.959 . S
C327 H329 0.960 . S
C327 H330 0.961 . S
H328 C327 0.959 . S
H329 C327 0.960 . S
H330 C327 0.961 . S
O331 Co306 1.967 . S
O331 C339 1.258 . S
O332 Co307 1.941 . S
O332 C339 1.266 . S
H333 C335 0.959 . S
H334 C335 0.961 . S
C335 C325 1.510 . S
C335 H333 0.959 . S
C335 H334 0.961 . S
C335 H336 0.960 . S
H336 C335 0.960 . S
H337 N317 0.862 . S
O338 Co306 1.920 . S
O338 C311 1.289 . S
C339 O331 1.258 . S
C339 O332 1.266 . S
Co340 O343 1.970 . S
Co340 N357 1.989 . S
Co340 O365 1.967 . S
Co340 O372 1.920 . S
Co341 O344 1.966 . S
Co341 N350 2.022 . S
Co341 N358 1.993 . S
Co341 O366 1.941 . S
C342 O343 1.258 . S
C342 O344 1.263 . S
O343 Co340 1.970 . S
O343 C342 1.258 . S
O344 Co341 1.966 . S
O344 C342 1.263 . S
C345 O346 1.235 . S
C345 O372 1.289 . S
O346 C345 1.235 . S
C347 C349 1.400 . S
C347 N350 1.351 . S
C347 C352 1.501 . S
C348 C349 1.387 . S
C348 N351 1.341 . S
C349 C347 1.400 . S
C349 C348 1.387 . S
N350 Co341 2.022 . S
N350 C347 1.351 . S
N350 N351 1.365 . S
N351 C348 1.341 . S
N351 N350 1.365 . S
N351 H371 0.862 . S
C352 C347 1.501 . S
C352 H353 0.961 . S
C352 H354 0.961 . S
C352 H355 0.960 . S
H353 C352 0.961 . S
H354 C352 0.961 . S
H355 C352 0.960 . S
C356 N357 1.342 . S
C356 C360 1.401 . S
C356 C361 1.499 . S
N357 Co340 1.989 . S
N357 C356 1.342 . S
N357 N358 1.388 . S
N358 Co341 1.993 . S
N358 N357 1.388 . S
N358 C359 1.346 . S
C359 N358 1.346 . S
C359 C360 1.396 . S
C359 C369 1.510 . S
C360 C356 1.401 . S
C360 C359 1.396 . S
C361 C356 1.499 . S
C361 H362 0.959 . S
C361 H363 0.960 . S
C361 H364 0.961 . S
H362 C361 0.959 . S
H363 C361 0.960 . S
H364 C361 0.961 . S
O365 Co340 1.967 . S
O365 C373 1.258 . S
O366 Co341 1.941 . S
O366 C373 1.266 . S
H367 C369 0.959 . S
H368 C369 0.961 . S
C369 C359 1.510 . S
C369 H367 0.959 . S
C369 H368 0.961 . S
C369 H370 0.960 . S
H370 C369 0.960 . S
H371 N351 0.862 . S
O372 Co340 1.920 . S
O372 C345 1.289 . S
C373 O365 1.258 . S
C373 O366 1.266 . S
Co374 O377 1.970 . S
Co374 N391 1.989 . S
Co374 O399 1.967 . S
Co374 O406 1.920 . S
Co375 O378 1.966 . S
Co375 N384 2.022 . S
Co375 N392 1.993 . S
Co375 O400 1.941 . S
C376 O377 1.258 . S
C376 O378 1.263 . S
O377 Co374 1.970 . S
O377 C376 1.258 . S
O378 Co375 1.966 . S
O378 C376 1.263 . S
C379 O380 1.235 . S
C379 O406 1.289 . S
O380 C379 1.235 . S
C381 C383 1.400 . S
C381 N384 1.351 . S
C381 C386 1.501 . S
C382 C383 1.387 . S
C382 N385 1.341 . S
C383 C381 1.400 . S
C383 C382 1.387 . S
N384 Co375 2.022 . S
N384 C381 1.351 . S
N384 N385 1.365 . S
N385 C382 1.341 . S
N385 N384 1.365 . S
N385 H405 0.862 . S
C386 C381 1.501 . S
C386 H387 0.961 . S
C386 H388 0.961 . S
C386 H389 0.960 . S
H387 C386 0.961 . S
H388 C386 0.961 . S
H389 C386 0.960 . S
C390 N391 1.342 . S
C390 C394 1.401 . S
C390 C395 1.499 . S
N391 Co374 1.989 . S
N391 C390 1.342 . S
N391 N392 1.388 . S
N392 Co375 1.993 . S
N392 N391 1.388 . S
N392 C393 1.346 . S
C393 N392 1.346 . S
C393 C394 1.396 . S
C393 C403 1.510 . S
C394 C390 1.401 . S
C394 C393 1.396 . S
C395 C390 1.499 . S
C395 H396 0.959 . S
C395 H397 0.960 . S
C395 H398 0.961 . S
H396 C395 0.959 . S
H397 C395 0.960 . S
H398 C395 0.961 . S
O399 Co374 1.967 . S
O399 C407 1.258 . S
O400 Co375 1.941 . S
O400 C407 1.266 . S
H401 C403 0.959 . S
H402 C403 0.961 . S
C403 C393 1.510 . S
C403 H401 0.959 . S
C403 H402 0.961 . S
C403 H404 0.960 . S
H404 C403 0.960 . S
H405 N385 0.862 . S
O406 Co374 1.920 . S
O406 C379 1.289 . S
C407 O399 1.258 . S
C407 O400 1.266 . S
Co408 O411 1.970 . S
Co408 N425 1.989 . S
Co408 O433 1.967 . S
Co408 O440 1.920 . S
Co409 O412 1.966 . S
Co409 N418 2.022 . S
Co409 N426 1.993 . S
Co409 O434 1.941 . S
C410 O411 1.258 . S
C410 O412 1.263 . S
O411 Co408 1.970 . S
O411 C410 1.258 . S
O412 Co409 1.966 . S
O412 C410 1.263 . S
C413 O414 1.235 . S
C413 O440 1.289 . S
O414 C413 1.235 . S
C415 C417 1.400 . S
C415 N418 1.351 . S
C415 C420 1.501 . S
C416 C417 1.387 . S
C416 N419 1.341 . S
C417 C415 1.400 . S
C417 C416 1.387 . S
N418 Co409 2.022 . S
N418 C415 1.351 . S
N418 N419 1.365 . S
N419 C416 1.341 . S
N419 N418 1.365 . S
N419 H439 0.862 . S
C420 C415 1.501 . S
C420 H421 0.961 . S
C420 H422 0.961 . S
C420 H423 0.960 . S
H421 C420 0.961 . S
H422 C420 0.961 . S
H423 C420 0.960 . S
C424 N425 1.342 . S
C424 C428 1.401 . S
C424 C429 1.499 . S
N425 Co408 1.989 . S
N425 C424 1.342 . S
N425 N426 1.388 . S
N426 Co409 1.993 . S
N426 N425 1.388 . S
N426 C427 1.346 . S
C427 N426 1.346 . S
C427 C428 1.396 . S
C427 C437 1.510 . S
C428 C424 1.401 . S
C428 C427 1.396 . S
C429 C424 1.499 . S
C429 H430 0.959 . S
C429 H431 0.960 . S
C429 H432 0.961 . S
H430 C429 0.959 . S
H431 C429 0.960 . S
H432 C429 0.961 . S
O433 Co408 1.967 . S
O433 C441 1.258 . S
O434 Co409 1.941 . S
O434 C441 1.266 . S
H435 C437 0.959 . S
H436 C437 0.961 . S
C437 C427 1.510 . S
C437 H435 0.959 . S
C437 H436 0.961 . S
C437 H438 0.960 . S
H438 C437 0.960 . S
H439 N419 0.862 . S
O440 Co408 1.920 . S
O440 C413 1.289 . S
C441 O433 1.258 . S
C441 O434 1.266 . S
Co442 O445 1.970 . S
Co442 N459 1.989 . S
Co442 O467 1.967 . S
Co442 O474 1.920 . S
Co443 O446 1.966 . S
Co443 N452 2.022 . S
Co443 N460 1.993 . S
Co443 O468 1.941 . S
C444 O445 1.258 . S
C444 O446 1.263 . S
O445 Co442 1.970 . S
O445 C444 1.258 . S
O446 Co443 1.966 . S
O446 C444 1.263 . S
C447 O448 1.235 . S
C447 O474 1.289 . S
O448 C447 1.235 . S
C449 C451 1.400 . S
C449 N452 1.351 . S
C449 C454 1.501 . S
C450 C451 1.387 . S
C450 N453 1.341 . S
C451 C449 1.400 . S
C451 C450 1.387 . S
N452 Co443 2.022 . S
N452 C449 1.351 . S
N452 N453 1.365 . S
N453 C450 1.341 . S
N453 N452 1.365 . S
N453 H473 0.862 . S
C454 C449 1.501 . S
C454 H455 0.961 . S
C454 H456 0.961 . S
C454 H457 0.960 . S
H455 C454 0.961 . S
H456 C454 0.961 . S
H457 C454 0.960 . S
C458 N459 1.342 . S
C458 C462 1.401 . S
C458 C463 1.499 . S
N459 Co442 1.989 . S
N459 C458 1.342 . S
N459 N460 1.388 . S
N460 Co443 1.993 . S
N460 N459 1.388 . S
N460 C461 1.346 . S
C461 N460 1.346 . S
C461 C462 1.396 . S
C461 C471 1.510 . S
C462 C458 1.401 . S
C462 C461 1.396 . S
C463 C458 1.499 . S
C463 H464 0.959 . S
C463 H465 0.960 . S
C463 H466 0.961 . S
H464 C463 0.959 . S
H465 C463 0.960 . S
H466 C463 0.961 . S
O467 Co442 1.967 . S
O467 C475 1.258 . S
O468 Co443 1.941 . S
O468 C475 1.266 . S
H469 C471 0.959 . S
H470 C471 0.961 . S
C471 C461 1.510 . S
C471 H469 0.959 . S
C471 H470 0.961 . S
C471 H472 0.960 . S
H472 C471 0.960 . S
H473 N453 0.862 . S
O474 Co442 1.920 . S
O474 C447 1.289 . S
C475 O467 1.258 . S
C475 O468 1.266 . S
Co476 O479 1.970 . S
Co476 N493 1.989 . S
Co476 O501 1.967 . S
Co476 O508 1.920 . S
Co477 O480 1.966 . S
Co477 N486 2.022 . S
Co477 N494 1.993 . S
Co477 O502 1.941 . S
C478 O479 1.258 . S
C478 O480 1.263 . S
O479 Co476 1.970 . S
O479 C478 1.258 . S
O480 Co477 1.966 . S
O480 C478 1.263 . S
C481 O482 1.235 . S
C481 O508 1.289 . S
O482 C481 1.235 . S
C483 C485 1.400 . S
C483 N486 1.351 . S
C483 C488 1.501 . S
C484 C485 1.387 . S
C484 N487 1.341 . S
C485 C483 1.400 . S
C485 C484 1.387 . S
N486 Co477 2.022 . S
N486 C483 1.351 . S
N486 N487 1.365 . S
N487 C484 1.341 . S
N487 N486 1.365 . S
N487 H507 0.862 . S
C488 C483 1.501 . S
C488 H489 0.961 . S
C488 H490 0.961 . S
C488 H491 0.960 . S
H489 C488 0.961 . S
H490 C488 0.961 . S
H491 C488 0.960 . S
C492 N493 1.342 . S
C492 C496 1.401 . S
C492 C497 1.499 . S
N493 Co476 1.989 . S
N493 C492 1.342 . S
N493 N494 1.388 . S
N494 Co477 1.993 . S
N494 N493 1.388 . S
N494 C495 1.346 . S
C495 N494 1.346 . S
C495 C496 1.396 . S
C495 C505 1.510 . S
C496 C492 1.401 . S
C496 C495 1.396 . S
C497 C492 1.499 . S
C497 H498 0.959 . S
C497 H499 0.960 . S
C497 H500 0.961 . S
H498 C497 0.959 . S
H499 C497 0.960 . S
H500 C497 0.961 . S
O501 Co476 1.967 . S
O501 C509 1.258 . S
O502 Co477 1.941 . S
O502 C509 1.266 . S
H503 C505 0.959 . S
H504 C505 0.961 . S
C505 C495 1.510 . S
C505 H503 0.959 . S
C505 H504 0.961 . S
C505 H506 0.960 . S
H506 C505 0.960 . S
H507 N487 0.862 . S
O508 Co476 1.920 . S
O508 C481 1.289 . S
C509 O501 1.258 . S
C509 O502 1.266 . S
Co510 O513 1.970 . S
Co510 N527 1.989 . S
Co510 O535 1.967 . S
Co510 O542 1.920 . S
Co511 O514 1.966 . S
Co511 N520 2.022 . S
Co511 N528 1.993 . S
Co511 O536 1.941 . S
C512 O513 1.258 . S
C512 O514 1.263 . S
O513 Co510 1.970 . S
O513 C512 1.258 . S
O514 Co511 1.966 . S
O514 C512 1.263 . S
C515 O516 1.235 . S
C515 O542 1.289 . S
O516 C515 1.235 . S
C517 C519 1.400 . S
C517 N520 1.351 . S
C517 C522 1.501 . S
C518 C519 1.387 . S
C518 N521 1.341 . S
C519 C517 1.400 . S
C519 C518 1.387 . S
N520 Co511 2.022 . S
N520 C517 1.351 . S
N520 N521 1.365 . S
N521 C518 1.341 . S
N521 N520 1.365 . S
N521 H541 0.862 . S
C522 C517 1.501 . S
C522 H523 0.961 . S
C522 H524 0.961 . S
C522 H525 0.960 . S
H523 C522 0.961 . S
H524 C522 0.961 . S
H525 C522 0.960 . S
C526 N527 1.342 . S
C526 C530 1.401 . S
C526 C531 1.499 . S
N527 Co510 1.989 . S
N527 C526 1.342 . S
N527 N528 1.388 . S
N528 Co511 1.993 . S
N528 N527 1.388 . S
N528 C529 1.346 . S
C529 N528 1.346 . S
C529 C530 1.396 . S
C529 C539 1.510 . S
C530 C526 1.401 . S
C530 C529 1.396 . S
C531 C526 1.499 . S
C531 H532 0.959 . S
C531 H533 0.960 . S
C531 H534 0.961 . S
H532 C531 0.959 . S
H533 C531 0.960 . S
H534 C531 0.961 . S
O535 Co510 1.967 . S
O535 C543 1.258 . S
O536 Co511 1.941 . S
O536 C543 1.266 . S
H537 C539 0.959 . S
H538 C539 0.961 . S
C539 C529 1.510 . S
C539 H537 0.959 . S
C539 H538 0.961 . S
C539 H540 0.960 . S
H540 C539 0.960 . S
H541 N521 0.862 . S
O542 Co510 1.920 . S
O542 C515 1.289 . S
C543 O535 1.258 . S
C543 O536 1.266 . S
Co544 O547 1.970 . S
Co544 N561 1.989 . S
Co544 O569 1.967 . S
Co544 O576 1.920 . S
Co545 O548 1.966 . S
Co545 N554 2.022 . S
Co545 N562 1.993 . S
Co545 O570 1.941 . S
C546 O547 1.258 . S
C546 O548 1.263 . S
O547 Co544 1.970 . S
O547 C546 1.258 . S
O548 Co545 1.966 . S
O548 C546 1.263 . S
C549 O550 1.235 . S
C549 O576 1.289 . S
O550 C549 1.235 . S
C551 C553 1.400 . S
C551 N554 1.351 . S
C551 C556 1.501 . S
C552 C553 1.387 . S
C552 N555 1.341 . S
C553 C551 1.400 . S
C553 C552 1.387 . S
N554 Co545 2.022 . S
N554 C551 1.351 . S
N554 N555 1.365 . S
N555 C552 1.341 . S
N555 N554 1.365 . S
N555 H575 0.862 . S
C556 C551 1.501 . S
C556 H557 0.961 . S
C556 H558 0.961 . S
C556 H559 0.960 . S
H557 C556 0.961 . S
H558 C556 0.961 . S
H559 C556 0.960 . S
C560 N561 1.342 . S
C560 C564 1.401 . S
C560 C565 1.499 . S
N561 Co544 1.989 . S
N561 C560 1.342 . S
N561 N562 1.388 . S
N562 Co545 1.993 . S
N562 N561 1.388 . S
N562 C563 1.346 . S
C563 N562 1.346 . S
C563 C564 1.396 . S
C563 C573 1.510 . S
C564 C560 1.401 . S
C564 C563 1.396 . S
C565 C560 1.499 . S
C565 H566 0.959 . S
C565 H567 0.960 . S
C565 H568 0.961 . S
H566 C565 0.959 . S
H567 C565 0.960 . S
H568 C565 0.961 . S
O569 Co544 1.967 . S
O569 C577 1.258 . S
O570 Co545 1.941 . S
O570 C577 1.266 . S
H571 C573 0.959 . S
H572 C573 0.961 . S
C573 C563 1.510 . S
C573 H571 0.959 . S
C573 H572 0.961 . S
C573 H574 0.960 . S
H574 C573 0.960 . S
H575 N555 0.862 . S
O576 Co544 1.920 . S
O576 C549 1.289 . S
C577 O569 1.258 . S
C577 O570 1.266 . S
Co578 O581 1.970 . S
Co578 N595 1.989 . S
Co578 O603 1.967 . S
Co578 O610 1.920 . S
Co579 O582 1.966 . S
Co579 N588 2.022 . S
Co579 N596 1.993 . S
Co579 O604 1.941 . S
C580 O581 1.258 . S
C580 O582 1.263 . S
O581 Co578 1.970 . S
O581 C580 1.258 . S
O582 Co579 1.966 . S
O582 C580 1.263 . S
C583 O584 1.235 . S
C583 O610 1.289 . S
O584 C583 1.235 . S
C585 C587 1.400 . S
C585 N588 1.351 . S
C585 C590 1.501 . S
C586 C587 1.387 . S
C586 N589 1.341 . S
C587 C585 1.400 . S
C587 C586 1.387 . S
N588 Co579 2.022 . S
N588 C585 1.351 . S
N588 N589 1.365 . S
N589 C586 1.341 . S
N589 N588 1.365 . S
N589 H609 0.862 . S
C590 C585 1.501 . S
C590 H591 0.961 . S
C590 H592 0.961 . S
C590 H593 0.960 . S
H591 C590 0.961 . S
H592 C590 0.961 . S
H593 C590 0.960 . S
C594 N595 1.342 . S
C594 C598 1.401 . S
C594 C599 1.499 . S
N595 Co578 1.989 . S
N595 C594 1.342 . S
N595 N596 1.388 . S
N596 Co579 1.993 . S
N596 N595 1.388 . S
N596 C597 1.346 . S
C597 N596 1.346 . S
C597 C598 1.396 . S
C597 C607 1.510 . S
C598 C594 1.401 . S
C598 C597 1.396 . S
C599 C594 1.499 . S
C599 H600 0.959 . S
C599 H601 0.960 . S
C599 H602 0.961 . S
H600 C599 0.959 . S
H601 C599 0.960 . S
H602 C599 0.961 . S
O603 Co578 1.967 . S
O603 C611 1.258 . S
O604 Co579 1.941 . S
O604 C611 1.266 . S
H605 C607 0.959 . S
H606 C607 0.961 . S
C607 C597 1.510 . S
C607 H605 0.959 . S
C607 H606 0.961 . S
C607 H608 0.960 . S
H608 C607 0.960 . S
H609 N589 0.862 . S
O610 Co578 1.920 . S
O610 C583 1.289 . S
C611 O603 1.258 . S
C611 O604 1.266 . S
Co612 O615 1.970 . S
Co612 N629 1.989 . S
Co612 O637 1.967 . S
Co612 O644 1.920 . S
Co613 O616 1.966 . S
Co613 N622 2.022 . S
Co613 N630 1.993 . S
Co613 O638 1.941 . S
C614 O615 1.258 . S
C614 O616 1.263 . S
O615 Co612 1.970 . S
O615 C614 1.258 . S
O616 Co613 1.966 . S
O616 C614 1.263 . S
C617 O618 1.235 . S
C617 O644 1.289 . S
O618 C617 1.235 . S
C619 C621 1.400 . S
C619 N622 1.351 . S
C619 C624 1.501 . S
C620 C621 1.387 . S
C620 N623 1.341 . S
C621 C619 1.400 . S
C621 C620 1.387 . S
N622 Co613 2.022 . S
N622 C619 1.351 . S
N622 N623 1.365 . S
N623 C620 1.341 . S
N623 N622 1.365 . S
N623 H643 0.862 . S
C624 C619 1.501 . S
C624 H625 0.961 . S
C624 H626 0.961 . S
C624 H627 0.960 . S
H625 C624 0.961 . S
H626 C624 0.961 . S
H627 C624 0.960 . S
C628 N629 1.342 . S
C628 C632 1.401 . S
C628 C633 1.499 . S
N629 Co612 1.989 . S
N629 C628 1.342 . S
N629 N630 1.388 . S
N630 Co613 1.993 . S
N630 N629 1.388 . S
N630 C631 1.346 . S
C631 N630 1.346 . S
C631 C632 1.396 . S
C631 C641 1.510 . S
C632 C628 1.401 . S
C632 C631 1.396 . S
C633 C628 1.499 . S
C633 H634 0.959 . S
C633 H635 0.960 . S
C633 H636 0.961 . S
H634 C633 0.959 . S
H635 C633 0.960 . S
H636 C633 0.961 . S
O637 Co612 1.967 . S
O637 C645 1.258 . S
O638 Co613 1.941 . S
O638 C645 1.266 . S
H639 C641 0.959 . S
H640 C641 0.961 . S
C641 C631 1.510 . S
C641 H639 0.959 . S
C641 H640 0.961 . S
C641 H642 0.960 . S
H642 C641 0.960 . S
H643 N623 0.862 . S
O644 Co612 1.920 . S
O644 C617 1.289 . S
C645 O637 1.258 . S
C645 O638 1.266 . S
Co646 O649 1.970 . S
Co646 N663 1.989 . S
Co646 O671 1.967 . S
Co646 O678 1.920 . S
Co647 O650 1.966 . S
Co647 N656 2.022 . S
Co647 N664 1.993 . S
Co647 O672 1.941 . S
C648 O649 1.258 . S
C648 O650 1.263 . S
O649 Co646 1.970 . S
O649 C648 1.258 . S
O650 Co647 1.966 . S
O650 C648 1.263 . S
C651 O652 1.235 . S
C651 O678 1.289 . S
O652 C651 1.235 . S
C653 C655 1.400 . S
C653 N656 1.351 . S
C653 C658 1.501 . S
C654 C655 1.387 . S
C654 N657 1.341 . S
C655 C653 1.400 . S
C655 C654 1.387 . S
N656 Co647 2.022 . S
N656 C653 1.351 . S
N656 N657 1.365 . S
N657 C654 1.341 . S
N657 N656 1.365 . S
N657 H677 0.862 . S
C658 C653 1.501 . S
C658 H659 0.961 . S
C658 H660 0.961 . S
C658 H661 0.960 . S
H659 C658 0.961 . S
H660 C658 0.961 . S
H661 C658 0.960 . S
C662 N663 1.342 . S
C662 C666 1.401 . S
C662 C667 1.499 . S
N663 Co646 1.989 . S
N663 C662 1.342 . S
N663 N664 1.388 . S
N664 Co647 1.993 . S
N664 N663 1.388 . S
N664 C665 1.346 . S
C665 N664 1.346 . S
C665 C666 1.396 . S
C665 C675 1.510 . S
C666 C662 1.401 . S
C666 C665 1.396 . S
C667 C662 1.499 . S
C667 H668 0.959 . S
C667 H669 0.960 . S
C667 H670 0.961 . S
H668 C667 0.959 . S
H669 C667 0.960 . S
H670 C667 0.961 . S
O671 Co646 1.967 . S
O671 C679 1.258 . S
O672 Co647 1.941 . S
O672 C679 1.266 . S
H673 C675 0.959 . S
H674 C675 0.961 . S
C675 C665 1.510 . S
C675 H673 0.959 . S
C675 H674 0.961 . S
C675 H676 0.960 . S
H676 C675 0.960 . S
H677 N657 0.862 . S
O678 Co646 1.920 . S
O678 C651 1.289 . S
C679 O671 1.258 . S
C679 O672 1.266 . S
Co680 O683 1.970 . S
Co680 N697 1.989 . S
Co680 O705 1.967 . S
Co680 O712 1.920 . S
Co681 O684 1.966 . S
Co681 N690 2.022 . S
Co681 N698 1.993 . S
Co681 O706 1.941 . S
C682 O683 1.258 . S
C682 O684 1.263 . S
O683 Co680 1.970 . S
O683 C682 1.258 . S
O684 Co681 1.966 . S
O684 C682 1.263 . S
C685 O686 1.235 . S
C685 O712 1.289 . S
O686 C685 1.235 . S
C687 C689 1.400 . S
C687 N690 1.351 . S
C687 C692 1.501 . S
C688 C689 1.387 . S
C688 N691 1.341 . S
C689 C687 1.400 . S
C689 C688 1.387 . S
N690 Co681 2.022 . S
N690 C687 1.351 . S
N690 N691 1.365 . S
N691 C688 1.341 . S
N691 N690 1.365 . S
N691 H711 0.862 . S
C692 C687 1.501 . S
C692 H693 0.961 . S
C692 H694 0.961 . S
C692 H695 0.960 . S
H693 C692 0.961 . S
H694 C692 0.961 . S
H695 C692 0.960 . S
C696 N697 1.342 . S
C696 C700 1.401 . S
C696 C701 1.499 . S
N697 Co680 1.989 . S
N697 C696 1.342 . S
N697 N698 1.388 . S
N698 Co681 1.993 . S
N698 N697 1.388 . S
N698 C699 1.346 . S
C699 N698 1.346 . S
C699 C700 1.396 . S
C699 C709 1.510 . S
C700 C696 1.401 . S
C700 C699 1.396 . S
C701 C696 1.499 . S
C701 H702 0.959 . S
C701 H703 0.960 . S
C701 H704 0.961 . S
H702 C701 0.959 . S
H703 C701 0.960 . S
H704 C701 0.961 . S
O705 Co680 1.967 . S
O705 C713 1.258 . S
O706 Co681 1.941 . S
O706 C713 1.266 . S
H707 C709 0.959 . S
H708 C709 0.961 . S
C709 C699 1.510 . S
C709 H707 0.959 . S
C709 H708 0.961 . S
C709 H710 0.960 . S
H710 C709 0.960 . S
H711 N691 0.862 . S
O712 Co680 1.920 . S
O712 C685 1.289 . S
C713 O705 1.258 . S
C713 O706 1.266 . S
Co714 O717 1.970 . S
Co714 N731 1.989 . S
Co714 O739 1.967 . S
Co714 O746 1.920 . S
Co715 O718 1.966 . S
Co715 N724 2.022 . S
Co715 N732 1.993 . S
Co715 O740 1.941 . S
C716 O717 1.258 . S
C716 O718 1.263 . S
O717 Co714 1.970 . S
O717 C716 1.258 . S
O718 Co715 1.966 . S
O718 C716 1.263 . S
C719 O720 1.235 . S
C719 O746 1.289 . S
O720 C719 1.235 . S
C721 C723 1.400 . S
C721 N724 1.351 . S
C721 C726 1.501 . S
C722 C723 1.387 . S
C722 N725 1.341 . S
C723 C721 1.400 . S
C723 C722 1.387 . S
N724 Co715 2.022 . S
N724 C721 1.351 . S
N724 N725 1.365 . S
N725 C722 1.341 . S
N725 N724 1.365 . S
N725 H745 0.862 . S
C726 C721 1.501 . S
C726 H727 0.961 . S
C726 H728 0.961 . S
C726 H729 0.960 . S
H727 C726 0.961 . S
H728 C726 0.961 . S
H729 C726 0.960 . S
C730 N731 1.342 . S
C730 C734 1.401 . S
C730 C735 1.499 . S
N731 Co714 1.989 . S
N731 C730 1.342 . S
N731 N732 1.388 . S
N732 Co715 1.993 . S
N732 N731 1.388 . S
N732 C733 1.346 . S
C733 N732 1.346 . S
C733 C734 1.396 . S
C733 C743 1.510 . S
C734 C730 1.401 . S
C734 C733 1.396 . S
C735 C730 1.499 . S
C735 H736 0.959 . S
C735 H737 0.960 . S
C735 H738 0.961 . S
H736 C735 0.959 . S
H737 C735 0.960 . S
H738 C735 0.961 . S
O739 Co714 1.967 . S
O739 C747 1.258 . S
O740 Co715 1.941 . S
O740 C747 1.266 . S
H741 C743 0.959 . S
H742 C743 0.961 . S
C743 C733 1.510 . S
C743 H741 0.959 . S
C743 H742 0.961 . S
C743 H744 0.960 . S
H744 C743 0.960 . S
H745 N725 0.862 . S
O746 Co714 1.920 . S
O746 C719 1.289 . S
C747 O739 1.258 . S
C747 O740 1.266 . S
Co748 O751 1.970 . S
Co748 N765 1.989 . S
Co748 O773 1.967 . S
Co748 O780 1.920 . S
Co749 O752 1.966 . S
Co749 N758 2.022 . S
Co749 N766 1.993 . S
Co749 O774 1.941 . S
C750 O751 1.258 . S
C750 O752 1.263 . S
O751 Co748 1.970 . S
O751 C750 1.258 . S
O752 Co749 1.966 . S
O752 C750 1.263 . S
C753 O754 1.235 . S
C753 O780 1.289 . S
O754 C753 1.235 . S
C755 C757 1.400 . S
C755 N758 1.351 . S
C755 C760 1.501 . S
C756 C757 1.387 . S
C756 N759 1.341 . S
C757 C755 1.400 . S
C757 C756 1.387 . S
N758 Co749 2.022 . S
N758 C755 1.351 . S
N758 N759 1.365 . S
N759 C756 1.341 . S
N759 N758 1.365 . S
N759 H779 0.862 . S
C760 C755 1.501 . S
C760 H761 0.961 . S
C760 H762 0.961 . S
C760 H763 0.960 . S
H761 C760 0.961 . S
H762 C760 0.961 . S
H763 C760 0.960 . S
C764 N765 1.342 . S
C764 C768 1.401 . S
C764 C769 1.499 . S
N765 Co748 1.989 . S
N765 C764 1.342 . S
N765 N766 1.388 . S
N766 Co749 1.993 . S
N766 N765 1.388 . S
N766 C767 1.346 . S
C767 N766 1.346 . S
C767 C768 1.396 . S
C767 C777 1.510 . S
C768 C764 1.401 . S
C768 C767 1.396 . S
C769 C764 1.499 . S
C769 H770 0.959 . S
C769 H771 0.960 . S
C769 H772 0.961 . S
H770 C769 0.959 . S
H771 C769 0.960 . S
H772 C769 0.961 . S
O773 Co748 1.967 . S
O773 C781 1.258 . S
O774 Co749 1.941 . S
O774 C781 1.266 . S
H775 C777 0.959 . S
H776 C777 0.961 . S
C777 C767 1.510 . S
C777 H775 0.959 . S
C777 H776 0.961 . S
C777 H778 0.960 . S
H778 C777 0.960 . S
H779 N759 0.862 . S
O780 Co748 1.920 . S
O780 C753 1.289 . S
C781 O773 1.258 . S
C781 O774 1.266 . S
Co782 O785 1.970 . S
Co782 N799 1.989 . S
Co782 O807 1.967 . S
Co782 O814 1.920 . S
Co783 O786 1.966 . S
Co783 N792 2.022 . S
Co783 N800 1.993 . S
Co783 O808 1.941 . S
C784 O785 1.258 . S
C784 O786 1.263 . S
O785 Co782 1.970 . S
O785 C784 1.258 . S
O786 Co783 1.966 . S
O786 C784 1.263 . S
C787 O788 1.235 . S
C787 O814 1.289 . S
O788 C787 1.235 . S
C789 C791 1.400 . S
C789 N792 1.351 . S
C789 C794 1.501 . S
C790 C791 1.387 . S
C790 N793 1.341 . S
C791 C789 1.400 . S
C791 C790 1.387 . S
N792 Co783 2.022 . S
N792 C789 1.351 . S
N792 N793 1.365 . S
N793 C790 1.341 . S
N793 N792 1.365 . S
N793 H813 0.862 . S
C794 C789 1.501 . S
C794 H795 0.961 . S
C794 H796 0.961 . S
C794 H797 0.960 . S
H795 C794 0.961 . S
H796 C794 0.961 . S
H797 C794 0.960 . S
C798 N799 1.342 . S
C798 C802 1.401 . S
C798 C803 1.499 . S
N799 Co782 1.989 . S
N799 C798 1.342 . S
N799 N800 1.388 . S
N800 Co783 1.993 . S
N800 N799 1.388 . S
N800 C801 1.346 . S
C801 N800 1.346 . S
C801 C802 1.396 . S
C801 C811 1.510 . S
C802 C798 1.401 . S
C802 C801 1.396 . S
C803 C798 1.499 . S
C803 H804 0.959 . S
C803 H805 0.960 . S
C803 H806 0.961 . S
H804 C803 0.959 . S
H805 C803 0.960 . S
H806 C803 0.961 . S
O807 Co782 1.967 . S
O807 C815 1.258 . S
O808 Co783 1.941 . S
O808 C815 1.266 . S
H809 C811 0.959 . S
H810 C811 0.961 . S
C811 C801 1.510 . S
C811 H809 0.959 . S
C811 H810 0.961 . S
C811 H812 0.960 . S
H812 C811 0.960 . S
H813 N793 0.862 . S
O814 Co782 1.920 . S
O814 C787 1.289 . S
C815 O807 1.258 . S
C815 O808 1.266 . S
Co816 O819 1.970 . S
Co816 N833 1.989 . S
Co816 O841 1.967 . S
Co816 O848 1.920 . S
Co817 O820 1.966 . S
Co817 N826 2.022 . S
Co817 N834 1.993 . S
Co817 O842 1.941 . S
C818 O819 1.258 . S
C818 O820 1.263 . S
O819 Co816 1.970 . S
O819 C818 1.258 . S
O820 Co817 1.966 . S
O820 C818 1.263 . S
C821 O822 1.235 . S
C821 O848 1.289 . S
O822 C821 1.235 . S
C823 C825 1.400 . S
C823 N826 1.351 . S
C823 C828 1.501 . S
C824 C825 1.387 . S
C824 N827 1.341 . S
C825 C823 1.400 . S
C825 C824 1.387 . S
N826 Co817 2.022 . S
N826 C823 1.351 . S
N826 N827 1.365 . S
N827 C824 1.341 . S
N827 N826 1.365 . S
N827 H847 0.862 . S
C828 C823 1.501 . S
C828 H829 0.961 . S
C828 H830 0.961 . S
C828 H831 0.960 . S
H829 C828 0.961 . S
H830 C828 0.961 . S
H831 C828 0.960 . S
C832 N833 1.342 . S
C832 C836 1.401 . S
C832 C837 1.499 . S
N833 Co816 1.989 . S
N833 C832 1.342 . S
N833 N834 1.388 . S
N834 Co817 1.993 . S
N834 N833 1.388 . S
N834 C835 1.346 . S
C835 N834 1.346 . S
C835 C836 1.396 . S
C835 C845 1.510 . S
C836 C832 1.401 . S
C836 C835 1.396 . S
C837 C832 1.499 . S
C837 H838 0.959 . S
C837 H839 0.960 . S
C837 H840 0.961 . S
H838 C837 0.959 . S
H839 C837 0.960 . S
H840 C837 0.961 . S
O841 Co816 1.967 . S
O841 C849 1.258 . S
O842 Co817 1.941 . S
O842 C849 1.266 . S
H843 C845 0.959 . S
H844 C845 0.961 . S
C845 C835 1.510 . S
C845 H843 0.959 . S
C845 H844 0.961 . S
C845 H846 0.960 . S
H846 C845 0.960 . S
H847 N827 0.862 . S
O848 Co816 1.920 . S
O848 C821 1.289 . S
C849 O841 1.258 . S
C849 O842 1.266 . S
Co850 O853 1.970 . S
Co850 N867 1.989 . S
Co850 O875 1.967 . S
Co850 O882 1.920 . S
Co851 O854 1.966 . S
Co851 N860 2.022 . S
Co851 N868 1.993 . S
Co851 O876 1.941 . S
C852 O853 1.258 . S
C852 O854 1.263 . S
O853 Co850 1.970 . S
O853 C852 1.258 . S
O854 Co851 1.966 . S
O854 C852 1.263 . S
C855 O856 1.235 . S
C855 O882 1.289 . S
O856 C855 1.235 . S
C857 C859 1.400 . S
C857 N860 1.351 . S
C857 C862 1.501 . S
C858 C859 1.387 . S
C858 N861 1.341 . S
C859 C857 1.400 . S
C859 C858 1.387 . S
N860 Co851 2.022 . S
N860 C857 1.351 . S
N860 N861 1.365 . S
N861 C858 1.341 . S
N861 N860 1.365 . S
N861 H881 0.862 . S
C862 C857 1.501 . S
C862 H863 0.961 . S
C862 H864 0.961 . S
C862 H865 0.960 . S
H863 C862 0.961 . S
H864 C862 0.961 . S
H865 C862 0.960 . S
C866 N867 1.342 . S
C866 C870 1.401 . S
C866 C871 1.499 . S
N867 Co850 1.989 . S
N867 C866 1.342 . S
N867 N868 1.388 . S
N868 Co851 1.993 . S
N868 N867 1.388 . S
N868 C869 1.346 . S
C869 N868 1.346 . S
C869 C870 1.396 . S
C869 C879 1.510 . S
C870 C866 1.401 . S
C870 C869 1.396 . S
C871 C866 1.499 . S
C871 H872 0.959 . S
C871 H873 0.960 . S
C871 H874 0.961 . S
H872 C871 0.959 . S
H873 C871 0.960 . S
H874 C871 0.961 . S
O875 Co850 1.967 . S
O875 C883 1.258 . S
O876 Co851 1.941 . S
O876 C883 1.266 . S
H877 C879 0.959 . S
H878 C879 0.961 . S
C879 C869 1.510 . S
C879 H877 0.959 . S
C879 H878 0.961 . S
C879 H880 0.960 . S
H880 C879 0.960 . S
H881 N861 0.862 . S
O882 Co850 1.920 . S
O882 C855 1.289 . S
C883 O875 1.258 . S
C883 O876 1.266 . S
Co884 O887 1.970 . S
Co884 N901 1.989 . S
Co884 O909 1.967 . S
Co884 O916 1.920 . S
Co885 O888 1.966 . S
Co885 N894 2.022 . S
Co885 N902 1.993 . S
Co885 O910 1.941 . S
C886 O887 1.258 . S
C886 O888 1.263 . S
O887 Co884 1.970 . S
O887 C886 1.258 . S
O888 Co885 1.966 . S
O888 C886 1.263 . S
C889 O890 1.235 . S
C889 O916 1.289 . S
O890 C889 1.235 . S
C891 C893 1.400 . S
C891 N894 1.351 . S
C891 C896 1.501 . S
C892 C893 1.387 . S
C892 N895 1.341 . S
C893 C891 1.400 . S
C893 C892 1.387 . S
N894 Co885 2.022 . S
N894 C891 1.351 . S
N894 N895 1.365 . S
N895 C892 1.341 . S
N895 N894 1.365 . S
N895 H915 0.862 . S
C896 C891 1.501 . S
C896 H897 0.961 . S
C896 H898 0.961 . S
C896 H899 0.960 . S
H897 C896 0.961 . S
H898 C896 0.961 . S
H899 C896 0.960 . S
C900 N901 1.342 . S
C900 C904 1.401 . S
C900 C905 1.499 . S
N901 Co884 1.989 . S
N901 C900 1.342 . S
N901 N902 1.388 . S
N902 Co885 1.993 . S
N902 N901 1.388 . S
N902 C903 1.346 . S
C903 N902 1.346 . S
C903 C904 1.396 . S
C903 C913 1.510 . S
C904 C900 1.401 . S
C904 C903 1.396 . S
C905 C900 1.499 . S
C905 H906 0.959 . S
C905 H907 0.960 . S
C905 H908 0.961 . S
H906 C905 0.959 . S
H907 C905 0.960 . S
H908 C905 0.961 . S
O909 Co884 1.967 . S
O909 C917 1.258 . S
O910 Co885 1.941 . S
O910 C917 1.266 . S
H911 C913 0.959 . S
H912 C913 0.961 . S
C913 C903 1.510 . S
C913 H911 0.959 . S
C913 H912 0.961 . S
C913 H914 0.960 . S
H914 C913 0.960 . S
H915 N895 0.862 . S
O916 Co884 1.920 . S
O916 C889 1.289 . S
C917 O909 1.258 . S
C917 O910 1.266 . S
Co918 O921 1.970 . S
Co918 N935 1.989 . S
Co918 O943 1.967 . S
Co918 O950 1.920 . S
Co919 O922 1.966 . S
Co919 N928 2.022 . S
Co919 N936 1.993 . S
Co919 O944 1.941 . S
C920 O921 1.258 . S
C920 O922 1.263 . S
O921 Co918 1.970 . S
O921 C920 1.258 . S
O922 Co919 1.966 . S
O922 C920 1.263 . S
C923 O924 1.235 . S
C923 O950 1.289 . S
O924 C923 1.235 . S
C925 C927 1.400 . S
C925 N928 1.351 . S
C925 C930 1.501 . S
C926 C927 1.387 . S
C926 N929 1.341 . S
C927 C925 1.400 . S
C927 C926 1.387 . S
N928 Co919 2.022 . S
N928 C925 1.351 . S
N928 N929 1.365 . S
N929 C926 1.341 . S
N929 N928 1.365 . S
N929 H949 0.862 . S
C930 C925 1.501 . S
C930 H931 0.961 . S
C930 H932 0.961 . S
C930 H933 0.960 . S
H931 C930 0.961 . S
H932 C930 0.961 . S
H933 C930 0.960 . S
C934 N935 1.342 . S
C934 C938 1.401 . S
C934 C939 1.499 . S
N935 Co918 1.989 . S
N935 C934 1.342 . S
N935 N936 1.388 . S
N936 Co919 1.993 . S
N936 N935 1.388 . S
N936 C937 1.346 . S
C937 N936 1.346 . S
C937 C938 1.396 . S
C937 C947 1.510 . S
C938 C934 1.401 . S
C938 C937 1.396 . S
C939 C934 1.499 . S
C939 H940 0.959 . S
C939 H941 0.960 . S
C939 H942 0.961 . S
H940 C939 0.959 . S
H941 C939 0.960 . S
H942 C939 0.961 . S
O943 Co918 1.967 . S
O943 C951 1.258 . S
O944 Co919 1.941 . S
O944 C951 1.266 . S
H945 C947 0.959 . S
H946 C947 0.961 . S
C947 C937 1.510 . S
C947 H945 0.959 . S
C947 H946 0.961 . S
C947 H948 0.960 . S
H948 C947 0.960 . S
H949 N929 0.862 . S
O950 Co918 1.920 . S
O950 C923 1.289 . S
C951 O943 1.258 . S
C951 O944 1.266 . S
Co952 O955 1.970 . S
Co952 N969 1.989 . S
Co952 O977 1.967 . S
Co952 O984 1.920 . S
Co953 O956 1.966 . S
Co953 N962 2.022 . S
Co953 N970 1.993 . S
Co953 O978 1.941 . S
C954 O955 1.258 . S
C954 O956 1.263 . S
O955 Co952 1.970 . S
O955 C954 1.258 . S
O956 Co953 1.966 . S
O956 C954 1.263 . S
C957 O958 1.235 . S
C957 O984 1.289 . S
O958 C957 1.235 . S
C959 C961 1.400 . S
C959 N962 1.351 . S
C959 C964 1.501 . S
C960 C961 1.387 . S
C960 N963 1.341 . S
C961 C959 1.400 . S
C961 C960 1.387 . S
N962 Co953 2.022 . S
N962 C959 1.351 . S
N962 N963 1.365 . S
N963 C960 1.341 . S
N963 N962 1.365 . S
N963 H983 0.862 . S
C964 C959 1.501 . S
C964 H965 0.961 . S
C964 H966 0.961 . S
C964 H967 0.960 . S
H965 C964 0.961 . S
H966 C964 0.961 . S
H967 C964 0.960 . S
C968 N969 1.342 . S
C968 C972 1.401 . S
C968 C973 1.499 . S
N969 Co952 1.989 . S
N969 C968 1.342 . S
N969 N970 1.388 . S
N970 Co953 1.993 . S
N970 N969 1.388 . S
N970 C971 1.346 . S
C971 N970 1.346 . S
C971 C972 1.396 . S
C971 C981 1.510 . S
C972 C968 1.401 . S
C972 C971 1.396 . S
C973 C968 1.499 . S
C973 H974 0.959 . S
C973 H975 0.960 . S
C973 H976 0.961 . S
H974 C973 0.959 . S
H975 C973 0.960 . S
H976 C973 0.961 . S
O977 Co952 1.967 . S
O977 C985 1.258 . S
O978 Co953 1.941 . S
O978 C985 1.266 . S
H979 C981 0.959 . S
H980 C981 0.961 . S
C981 C971 1.510 . S
C981 H979 0.959 . S
C981 H980 0.961 . S
C981 H982 0.960 . S
H982 C981 0.960 . S
H983 N963 0.862 . S
O984 Co952 1.920 . S
O984 C957 1.289 . S
C985 O977 1.258 . S
C985 O978 1.266 . S
Co986 O989 1.970 . S
Co986 N1003 1.989 . S
Co986 O1011 1.967 . S
Co986 O1018 1.920 . S
Co987 O990 1.966 . S
Co987 N996 2.022 . S
Co987 N1004 1.993 . S
Co987 O1012 1.941 . S
C988 O989 1.258 . S
C988 O990 1.263 . S
O989 Co986 1.970 . S
O989 C988 1.258 . S
O990 Co987 1.966 . S
O990 C988 1.263 . S
C991 O992 1.235 . S
C991 O1018 1.289 . S
O992 C991 1.235 . S
C993 C995 1.400 . S
C993 N996 1.351 . S
C993 C998 1.501 . S
C994 C995 1.387 . S
C994 N997 1.341 . S
C995 C993 1.400 . S
C995 C994 1.387 . S
N996 Co987 2.022 . S
N996 C993 1.351 . S
N996 N997 1.365 . S
N997 C994 1.341 . S
N997 N996 1.365 . S
N997 H1017 0.862 . S
C998 C993 1.501 . S
C998 H999 0.961 . S
C998 H1000 0.961 . S
C998 H1001 0.960 . S
H999 C998 0.961 . S
H1000 C998 0.961 . S
H1001 C998 0.960 . S
C1002 N1003 1.342 . S
C1002 C1006 1.401 . S
C1002 C1007 1.499 . S
N1003 Co986 1.989 . S
N1003 C1002 1.342 . S
N1003 N1004 1.388 . S
N1004 Co987 1.993 . S
N1004 N1003 1.388 . S
N1004 C1005 1.346 . S
C1005 N1004 1.346 . S
C1005 C1006 1.396 . S
C1005 C1015 1.510 . S
C1006 C1002 1.401 . S
C1006 C1005 1.396 . S
C1007 C1002 1.499 . S
C1007 H1008 0.959 . S
C1007 H1009 0.960 . S
C1007 H1010 0.961 . S
H1008 C1007 0.959 . S
H1009 C1007 0.960 . S
H1010 C1007 0.961 . S
O1011 Co986 1.967 . S
O1011 C1019 1.258 . S
O1012 Co987 1.941 . S
O1012 C1019 1.266 . S
H1013 C1015 0.959 . S
H1014 C1015 0.961 . S
C1015 C1005 1.510 . S
C1015 H1013 0.959 . S
C1015 H1014 0.961 . S
C1015 H1016 0.960 . S
H1016 C1015 0.960 . S
H1017 N997 0.862 . S
O1018 Co986 1.920 . S
O1018 C991 1.289 . S
C1019 O1011 1.258 . S
C1019 O1012 1.266 . S
Co1020 O1023 1.970 . S
Co1020 N1037 1.989 . S
Co1020 O1045 1.967 . S
Co1020 O1052 1.920 . S
Co1021 O1024 1.966 . S
Co1021 N1030 2.022 . S
Co1021 N1038 1.993 . S
Co1021 O1046 1.941 . S
C1022 O1023 1.258 . S
C1022 O1024 1.263 . S
O1023 Co1020 1.970 . S
O1023 C1022 1.258 . S
O1024 Co1021 1.966 . S
O1024 C1022 1.263 . S
C1025 O1026 1.235 . S
C1025 O1052 1.289 . S
O1026 C1025 1.235 . S
C1027 C1029 1.400 . S
C1027 N1030 1.351 . S
C1027 C1032 1.501 . S
C1028 C1029 1.387 . S
C1028 N1031 1.341 . S
C1029 C1027 1.400 . S
C1029 C1028 1.387 . S
N1030 Co1021 2.022 . S
N1030 C1027 1.351 . S
N1030 N1031 1.365 . S
N1031 C1028 1.341 . S
N1031 N1030 1.365 . S
N1031 H1051 0.862 . S
C1032 C1027 1.501 . S
C1032 H1033 0.961 . S
C1032 H1034 0.961 . S
C1032 H1035 0.960 . S
H1033 C1032 0.961 . S
H1034 C1032 0.961 . S
H1035 C1032 0.960 . S
C1036 N1037 1.342 . S
C1036 C1040 1.401 . S
C1036 C1041 1.499 . S
N1037 Co1020 1.989 . S
N1037 C1036 1.342 . S
N1037 N1038 1.388 . S
N1038 Co1021 1.993 . S
N1038 N1037 1.388 . S
N1038 C1039 1.346 . S
C1039 N1038 1.346 . S
C1039 C1040 1.396 . S
C1039 C1049 1.510 . S
C1040 C1036 1.401 . S
C1040 C1039 1.396 . S
C1041 C1036 1.499 . S
C1041 H1042 0.959 . S
C1041 H1043 0.960 . S
C1041 H1044 0.961 . S
H1042 C1041 0.959 . S
H1043 C1041 0.960 . S
H1044 C1041 0.961 . S
O1045 Co1020 1.967 . S
O1045 C1053 1.258 . S
O1046 Co1021 1.941 . S
O1046 C1053 1.266 . S
H1047 C1049 0.959 . S
H1048 C1049 0.961 . S
C1049 C1039 1.510 . S
C1049 H1047 0.959 . S
C1049 H1048 0.961 . S
C1049 H1050 0.960 . S
H1050 C1049 0.960 . S
H1051 N1031 0.862 . S
O1052 Co1020 1.920 . S
O1052 C1025 1.289 . S
C1053 O1045 1.258 . S
C1053 O1046 1.266 . S
Co1054 O1057 1.970 . S
Co1054 N1071 1.989 . S
Co1054 O1079 1.967 . S
Co1054 O1086 1.920 . S
Co1055 O1058 1.966 . S
Co1055 N1064 2.022 . S
Co1055 N1072 1.993 . S
Co1055 O1080 1.941 . S
C1056 O1057 1.258 . S
C1056 O1058 1.263 . S
O1057 Co1054 1.970 . S
O1057 C1056 1.258 . S
O1058 Co1055 1.966 . S
O1058 C1056 1.263 . S
C1059 O1060 1.235 . S
C1059 O1086 1.289 . S
O1060 C1059 1.235 . S
C1061 C1063 1.400 . S
C1061 N1064 1.351 . S
C1061 C1066 1.501 . S
C1062 C1063 1.387 . S
C1062 N1065 1.341 . S
C1063 C1061 1.400 . S
C1063 C1062 1.387 . S
N1064 Co1055 2.022 . S
N1064 C1061 1.351 . S
N1064 N1065 1.365 . S
N1065 C1062 1.341 . S
N1065 N1064 1.365 . S
N1065 H1085 0.862 . S
C1066 C1061 1.501 . S
C1066 H1067 0.961 . S
C1066 H1068 0.961 . S
C1066 H1069 0.960 . S
H1067 C1066 0.961 . S
H1068 C1066 0.961 . S
H1069 C1066 0.960 . S
C1070 N1071 1.342 . S
C1070 C1074 1.401 . S
C1070 C1075 1.499 . S
N1071 Co1054 1.989 . S
N1071 C1070 1.342 . S
N1071 N1072 1.388 . S
N1072 Co1055 1.993 . S
N1072 N1071 1.388 . S
N1072 C1073 1.346 . S
C1073 N1072 1.346 . S
C1073 C1074 1.396 . S
C1073 C1083 1.510 . S
C1074 C1070 1.401 . S
C1074 C1073 1.396 . S
C1075 C1070 1.499 . S
C1075 H1076 0.959 . S
C1075 H1077 0.960 . S
C1075 H1078 0.961 . S
H1076 C1075 0.959 . S
H1077 C1075 0.960 . S
H1078 C1075 0.961 . S
O1079 Co1054 1.967 . S
O1079 C1087 1.258 . S
O1080 Co1055 1.941 . S
O1080 C1087 1.266 . S
H1081 C1083 0.959 . S
H1082 C1083 0.961 . S
C1083 C1073 1.510 . S
C1083 H1081 0.959 . S
C1083 H1082 0.961 . S
C1083 H1084 0.960 . S
H1084 C1083 0.960 . S
H1085 N1065 0.862 . S
O1086 Co1054 1.920 . S
O1086 C1059 1.289 . S
C1087 O1079 1.258 . S
C1087 O1080 1.266 . S
H1088 C1096 0.950 . S
H1089 C1101 0.950 . S
H1090 C1098 0.950 . S
H1091 C1100 0.950 . S
H1092 C1102 0.950 . S
H1093 C1104 0.950 . S
H1094 C1106 0.950 . S
H1095 C1107 0.950 . S
C1096 H1088 0.950 . S
C1096 C1097 1.386 . S
C1096 C1098 1.391 . S
C1097 C1096 1.386 . S
C1097 C1101 1.393 . S
C1098 H1090 0.950 . S
C1098 C1096 1.391 . S
C1098 C1099 1.400 . S
C1099 C1098 1.400 . S
C1099 C1100 1.398 . S
C1099 C1105 1.491 . S
C1100 H1091 0.950 . S
C1100 C1099 1.398 . S
C1100 C1101 1.391 . S
C1101 H1089 0.950 . S
C1101 C1097 1.393 . S
C1101 C1100 1.391 . S
C1102 H1092 0.950 . S
C1102 C1103 1.386 . S
C1102 C1104 1.391 . S
C1103 C1102 1.386 . S
C1103 C1107 1.393 . S
C1104 H1093 0.950 . S
C1104 C1102 1.391 . S
C1104 C1105 1.400 . S
C1105 C1099 1.491 . S
C1105 C1104 1.400 . S
C1105 C1106 1.398 . S
C1106 H1094 0.950 . S
C1106 C1105 1.398 . S
C1106 C1107 1.391 . S
C1107 H1095 0.950 . S
C1107 C1103 1.393 . S
C1107 C1106 1.391 . S
H1108 C1116 0.950 . S
H1109 C1121 0.950 . S
H1110 C1118 0.950 . S
H1111 C1120 0.950 1_455 S
H1112 C1122 0.950 . S
H1113 C1124 0.950 . S
H1114 C1126 0.950 1_655 S
H1115 C1127 0.950 . S
C1116 H1108 0.950 . S
C1116 C1117 1.386 . S
C1116 C1118 1.391 . S
C1117 C1116 1.386 . S
C1117 C1121 1.393 . S
C1118 H1110 0.950 . S
C1118 C1116 1.391 . S
C1118 C1119 1.400 . S
C1119 C1118 1.400 . S
C1119 C1120 1.398 . S
C1119 C1125 1.491 1_665 S
C1120 H1111 0.950 1_655 S
C1120 C1119 1.398 . S
C1120 C1121 1.391 . S
C1121 H1109 0.950 . S
C1121 C1117 1.393 . S
C1121 C1120 1.391 . S
C1122 H1112 0.950 . S
C1122 C1123 1.386 . S
C1122 C1124 1.391 . S
C1123 C1122 1.386 . S
C1123 C1127 1.393 . S
C1124 H1113 0.950 . S
C1124 C1122 1.391 . S
C1124 C1125 1.400 . S
C1125 C1119 1.491 1_445 S
C1125 C1124 1.400 . S
C1125 C1126 1.398 . S
C1126 H1114 0.950 1_455 S
C1126 C1125 1.398 . S
C1126 C1127 1.391 . S
C1127 H1115 0.950 . S
C1127 C1123 1.393 . S
C1127 C1126 1.391 . S
H1128 C1136 0.950 . S
H1129 C1141 0.950 . S
H1130 C1138 0.950 . S
H1131 C1140 0.950 . S
H1132 C1142 0.950 . S
H1133 C1144 0.950 . S
H1134 C1146 0.950 . S
H1135 C1147 0.950 . S
C1136 H1128 0.950 . S
C1136 C1137 1.386 . S
C1136 C1138 1.391 . S
C1137 C1136 1.386 . S
C1137 C1141 1.393 . S
C1138 H1130 0.950 . S
C1138 C1136 1.391 . S
C1138 C1139 1.400 . S
C1139 C1138 1.400 . S
C1139 C1140 1.398 . S
C1139 C1145 1.491 . S
C1140 H1131 0.950 . S
C1140 C1139 1.398 . S
C1140 C1141 1.391 . S
C1141 H1129 0.950 . S
C1141 C1137 1.393 . S
C1141 C1140 1.391 . S
C1142 H1132 0.950 . S
C1142 C1143 1.386 . S
C1142 C1144 1.391 . S
C1143 C1142 1.386 . S
C1143 C1147 1.393 . S
C1144 H1133 0.950 . S
C1144 C1142 1.391 . S
C1144 C1145 1.400 . S
C1145 C1139 1.491 . S
C1145 C1144 1.400 . S
C1145 C1146 1.398 . S
C1146 H1134 0.950 . S
C1146 C1145 1.398 . S
C1146 C1147 1.391 . S
C1147 H1135 0.950 . S
C1147 C1143 1.393 . S
C1147 C1146 1.391 . S
H1148 C1156 0.950 . S
H1149 C1161 0.950 . S
H1150 C1158 0.950 . S
H1151 C1160 0.927 1_544 S
H1152 C1162 0.950 . S
H1153 C1164 0.950 . S
H1154 C1166 0.927 1_566 S
H1155 C1167 0.950 . S
C1156 H1148 0.950 . S
C1156 C1157 1.386 . S
C1156 C1158 1.391 . S
C1157 C1156 1.386 . S
C1157 C1161 1.393 . S
C1158 H1150 0.950 . S
C1158 C1156 1.391 . S
C1158 C1159 1.400 . S
C1159 C1158 1.400 . S
C1159 C1160 1.406 . S
C1159 C1165 1.491 1_566 S
C1160 H1151 0.927 1_566 S
C1160 C1159 1.406 . S
C1160 C1161 1.406 . S
C1161 H1149 0.950 . S
C1161 C1157 1.393 . S
C1161 C1160 1.406 . S
C1162 H1152 0.950 . S
C1162 C1163 1.386 . S
C1162 C1164 1.391 . S
C1163 C1162 1.386 . S
C1163 C1167 1.393 . S
C1164 H1153 0.950 . S
C1164 C1162 1.391 . S
C1164 C1165 1.400 . S
C1165 C1159 1.491 1_544 S
C1165 C1164 1.400 . S
C1165 C1166 1.406 . S
C1166 H1154 0.927 1_544 S
C1166 C1165 1.406 . S
C1166 C1167 1.406 . S
C1167 H1155 0.950 . S
C1167 C1163 1.393 . S
C1167 C1166 1.406 . S
H1168 C1176 0.950 . S
H1169 C1181 0.950 . S
H1170 C1178 0.950 . S
H1171 C1180 0.950 . S
H1172 C1182 0.950 . S
H1173 C1184 0.950 . S
H1174 C1186 0.950 . S
H1175 C1187 0.950 . S
C1176 H1168 0.950 . S
C1176 C1177 1.386 . S
C1176 C1178 1.391 . S
C1177 C1176 1.386 . S
C1177 C1181 1.393 . S
C1178 H1170 0.950 . S
C1178 C1176 1.391 . S
C1178 C1179 1.400 . S
C1179 C1178 1.400 . S
C1179 C1180 1.398 . S
C1179 C1185 1.491 . S
C1180 H1171 0.950 . S
C1180 C1179 1.398 . S
C1180 C1181 1.391 . S
C1181 H1169 0.950 . S
C1181 C1177 1.393 . S
C1181 C1180 1.391 . S
C1182 H1172 0.950 . S
C1182 C1183 1.386 . S
C1182 C1184 1.391 . S
C1183 C1182 1.386 . S
C1183 C1187 1.393 . S
C1184 H1173 0.950 . S
C1184 C1182 1.391 . S
C1184 C1185 1.400 . S
C1185 C1179 1.491 . S
C1185 C1184 1.400 . S
C1185 C1186 1.398 . S
C1186 H1174 0.950 . S
C1186 C1185 1.398 . S
C1186 C1187 1.391 . S
C1187 H1175 0.950 . S
C1187 C1183 1.393 . S
C1187 C1186 1.391 . S
H1188 C1196 0.950 . S
H1189 C1201 0.950 . S
H1190 C1198 0.950 1_545 S
H1191 C1200 0.950 . S
H1192 C1202 0.950 . S
H1193 C1204 0.950 1_565 S
H1194 C1206 0.950 . S
H1195 C1207 0.950 . S
C1196 H1188 0.950 . S
C1196 C1197 1.386 . S
C1196 C1198 1.391 . S
C1197 C1196 1.386 . S
C1197 C1201 1.393 . S
C1198 H1190 0.950 1_565 S
C1198 C1196 1.391 . S
C1198 C1199 1.400 . S
C1199 C1198 1.400 . S
C1199 C1200 1.398 . S
C1199 C1205 1.491 1_565 S
C1200 H1191 0.950 . S
C1200 C1199 1.398 . S
C1200 C1201 1.391 . S
C1201 H1189 0.950 . S
C1201 C1197 1.393 . S
C1201 C1200 1.391 . S
C1202 H1192 0.950 . S
C1202 C1203 1.386 . S
C1202 C1204 1.391 . S
C1203 C1202 1.386 . S
C1203 C1207 1.393 . S
C1204 H1193 0.950 1_545 S
C1204 C1202 1.391 . S
C1204 C1205 1.400 . S
C1205 C1199 1.491 1_545 S
C1205 C1204 1.400 . S
C1205 C1206 1.398 . S
C1206 H1194 0.950 . S
C1206 C1205 1.398 . S
C1206 C1207 1.391 . S
C1207 H1195 0.950 . S
C1207 C1203 1.393 . S
C1207 C1206 1.391 . S
H1208 C1216 0.950 . S
H1209 C1221 0.950 . S
H1210 C1218 0.950 . S
H1211 C1220 0.950 . S
H1212 C1222 0.950 . S
H1213 C1224 0.950 . S
H1214 C1226 0.950 . S
H1215 C1227 0.950 . S
C1216 H1208 0.950 . S
C1216 C1217 1.386 . S
C1216 C1218 1.391 . S
C1217 C1216 1.386 . S
C1217 C1221 1.393 . S
C1218 H1210 0.950 . S
C1218 C1216 1.391 . S
C1218 C1219 1.400 . S
C1219 C1218 1.400 . S
C1219 C1220 1.398 . S
C1219 C1225 1.491 . S
C1220 H1211 0.950 . S
C1220 C1219 1.398 . S
C1220 C1221 1.391 . S
C1221 H1209 0.950 . S
C1221 C1217 1.393 . S
C1221 C1220 1.391 . S
C1222 H1212 0.950 . S
C1222 C1223 1.386 . S
C1222 C1224 1.391 . S
C1223 C1222 1.386 . S
C1223 C1227 1.393 . S
C1224 H1213 0.950 . S
C1224 C1222 1.391 . S
C1224 C1225 1.400 . S
C1225 C1219 1.491 . S
C1225 C1224 1.400 . S
C1225 C1226 1.398 . S
C1226 H1214 0.950 . S
C1226 C1225 1.398 . S
C1226 C1227 1.391 . S
C1227 H1215 0.950 . S
C1227 C1223 1.393 . S
C1227 C1226 1.391 . S
H1228 C1236 0.950 . S
H1229 C1241 0.950 . S
H1230 C1238 0.950 . S
H1231 C1240 0.984 . S
H1232 C1242 0.950 . S
H1233 C1244 0.950 . S
H1234 C1246 0.984 . S
H1235 C1247 0.950 . S
C1236 H1228 0.950 . S
C1236 C1237 1.386 . S
C1236 C1238 1.391 1_565 S
C1237 C1236 1.386 . S
C1237 C1241 1.393 . S
C1238 H1230 0.950 . S
C1238 C1236 1.391 1_545 S
C1238 C1239 1.400 1_545 S
C1239 C1238 1.400 1_565 S
C1239 C1240 1.387 1_554 S
C1239 C1245 1.491 1_464 S
C1240 H1231 0.984 . S
C1240 C1239 1.387 1_556 S
C1240 C1241 1.371 1_556 S
C1241 H1229 0.950 . S
C1241 C1237 1.393 . S
C1241 C1240 1.371 1_554 S
C1242 H1232 0.950 . S
C1242 C1243 1.386 . S
C1242 C1244 1.391 1_545 S
C1243 C1242 1.386 . S
C1243 C1247 1.393 . S
C1244 H1233 0.950 . S
C1244 C1242 1.391 1_565 S
C1244 C1245 1.400 1_565 S
C1245 C1239 1.491 1_646 S
C1245 C1244 1.400 1_545 S
C1245 C1246 1.387 1_556 S
C1246 H1234 0.984 . S
C1246 C1245 1.387 1_554 S
C1246 C1247 1.371 1_554 S
C1247 H1235 0.950 . S
C1247 C1243 1.393 . S
C1247 C1246 1.371 1_556 S
H1248 C1256 0.950 . S
H1249 C1261 0.950 . S
H1250 C1258 0.950 . S
H1251 C1260 0.950 . S
H1252 C1262 0.950 . S
H1253 C1264 0.950 . S
H1254 C1266 0.950 . S
H1255 C1267 0.950 . S
C1256 H1248 0.950 . S
C1256 C1257 1.386 . S
C1256 C1258 1.391 . S
C1257 C1256 1.386 . S
C1257 C1261 1.393 . S
C1258 H1250 0.950 . S
C1258 C1256 1.391 . S
C1258 C1259 1.400 . S
C1259 C1258 1.400 . S
C1259 C1260 1.398 . S
C1259 C1265 1.491 . S
C1260 H1251 0.950 . S
C1260 C1259 1.398 . S
C1260 C1261 1.391 . S
C1261 H1249 0.950 . S
C1261 C1257 1.393 . S
C1261 C1260 1.391 . S
C1262 H1252 0.950 . S
C1262 C1263 1.386 . S
C1262 C1264 1.391 . S
C1263 C1262 1.386 . S
C1263 C1267 1.393 . S
C1264 H1253 0.950 . S
C1264 C1262 1.391 . S
C1264 C1265 1.400 . S
C1265 C1259 1.491 . S
C1265 C1264 1.400 . S
C1265 C1266 1.398 . S
C1266 H1254 0.950 . S
C1266 C1265 1.398 . S
C1266 C1267 1.391 . S
C1267 H1255 0.950 . S
C1267 C1263 1.393 . S
C1267 C1266 1.391 . S
H1268 C1276 0.950 . S
H1269 C1281 0.950 . S
H1270 C1278 0.950 . S
H1271 C1280 0.950 . S
H1272 C1282 0.950 . S
H1273 C1284 0.950 . S
H1274 C1286 0.950 . S
H1275 C1287 0.950 . S
C1276 H1268 0.950 . S
C1276 C1277 1.386 . S
C1276 C1278 1.391 . S
C1277 C1276 1.386 . S
C1277 C1281 1.393 . S
C1278 H1270 0.950 . S
C1278 C1276 1.391 . S
C1278 C1279 1.400 . S
C1279 C1278 1.400 . S
C1279 C1280 1.398 . S
C1279 C1285 1.491 . S
C1280 H1271 0.950 . S
C1280 C1279 1.398 . S
C1280 C1281 1.391 . S
C1281 H1269 0.950 . S
C1281 C1277 1.393 . S
C1281 C1280 1.391 . S
C1282 H1272 0.950 . S
C1282 C1283 1.386 . S
C1282 C1284 1.391 . S
C1283 C1282 1.386 . S
C1283 C1287 1.393 . S
C1284 H1273 0.950 . S
C1284 C1282 1.391 . S
C1284 C1285 1.400 . S
C1285 C1279 1.491 . S
C1285 C1284 1.400 . S
C1285 C1286 1.398 . S
C1286 H1274 0.950 . S
C1286 C1285 1.398 . S
C1286 C1287 1.391 . S
C1287 H1275 0.950 . S
C1287 C1283 1.393 . S
C1287 C1286 1.391 . S
H1288 C1296 0.950 . S
H1289 C1301 0.950 . S
H1290 C1298 0.950 . S
H1291 C1300 0.950 . S
H1292 C1302 0.950 . S
H1293 C1304 0.950 . S
H1294 C1306 0.950 . S
H1295 C1307 0.950 . S
C1296 H1288 0.950 . S
C1296 C1297 1.386 . S
C1296 C1298 1.391 . S
C1297 C1296 1.386 . S
C1297 C1301 1.393 . S
C1298 H1290 0.950 . S
C1298 C1296 1.391 . S
C1298 C1299 1.400 . S
C1299 C1298 1.400 . S
C1299 C1300 1.398 . S
C1299 C1305 1.491 . S
C1300 H1291 0.950 . S
C1300 C1299 1.398 . S
C1300 C1301 1.391 . S
C1301 H1289 0.950 . S
C1301 C1297 1.393 . S
C1301 C1300 1.391 . S
C1302 H1292 0.950 . S
C1302 C1303 1.386 . S
C1302 C1304 1.391 . S
C1303 C1302 1.386 . S
C1303 C1307 1.393 . S
C1304 H1293 0.950 . S
C1304 C1302 1.391 . S
C1304 C1305 1.400 . S
C1305 C1299 1.491 . S
C1305 C1304 1.400 . S
C1305 C1306 1.398 . S
C1306 H1294 0.950 . S
C1306 C1305 1.398 . S
C1306 C1307 1.391 . S
C1307 H1295 0.950 . S
C1307 C1303 1.393 . S
C1307 C1306 1.391 . S
H1308 C1316 0.950 . S
H1309 C1321 0.950 . S
H1310 C1318 0.950 . S
H1311 C1320 0.950 . S
H1312 C1322 0.950 . S
H1313 C1324 0.950 . S
H1314 C1326 0.950 . S
H1315 C1327 0.950 . S
C1316 H1308 0.950 . S
C1316 C1317 1.386 . S
C1316 C1318 1.391 . S
C1317 C1316 1.386 . S
C1317 C1321 1.393 . S
C1318 H1310 0.950 . S
C1318 C1316 1.391 . S
C1318 C1319 1.400 . S
C1319 C1318 1.400 . S
C1319 C1320 1.398 . S
C1319 C1325 1.491 . S
C1320 H1311 0.950 . S
C1320 C1319 1.398 . S
C1320 C1321 1.391 . S
C1321 H1309 0.950 . S
C1321 C1317 1.393 . S
C1321 C1320 1.391 . S
C1322 H1312 0.950 . S
C1322 C1323 1.386 . S
C1322 C1324 1.391 . S
C1323 C1322 1.386 . S
C1323 C1327 1.393 . S
C1324 H1313 0.950 . S
C1324 C1322 1.391 . S
C1324 C1325 1.400 . S
C1325 C1319 1.491 . S
C1325 C1324 1.400 . S
C1325 C1326 1.398 . S
C1326 H1314 0.950 . S
C1326 C1325 1.398 . S
C1326 C1327 1.391 . S
C1327 H1315 0.950 . S
C1327 C1323 1.393 . S
C1327 C1326 1.391 . S
H1328 C1336 0.950 . S
H1329 C1341 0.950 . S
H1330 C1338 0.950 1_554 S
H1331 C1340 0.950 . S
H1332 C1342 0.950 . S
H1333 C1344 0.950 1_556 S
H1334 C1346 0.950 . S
H1335 C1347 0.950 . S
C1336 H1328 0.950 . S
C1336 C1337 1.386 . S
C1336 C1338 1.391 . S
C1337 C1336 1.386 . S
C1337 C1341 1.393 . S
C1338 H1330 0.950 1_556 S
C1338 C1336 1.391 . S
C1338 C1339 1.400 . S
C1339 C1338 1.400 . S
C1339 C1340 1.398 . S
C1339 C1345 1.491 1_556 S
C1340 H1331 0.950 . S
C1340 C1339 1.398 . S
C1340 C1341 1.391 . S
C1341 H1329 0.950 . S
C1341 C1337 1.393 . S
C1341 C1340 1.391 . S
C1342 H1332 0.950 . S
C1342 C1343 1.386 . S
C1342 C1344 1.391 . S
C1343 C1342 1.386 . S
C1343 C1347 1.393 . S
C1344 H1333 0.950 1_554 S
C1344 C1342 1.391 . S
C1344 C1345 1.400 . S
C1345 C1339 1.491 1_554 S
C1345 C1344 1.400 . S
C1345 C1346 1.398 . S
C1346 H1334 0.950 . S
C1346 C1345 1.398 . S
C1346 C1347 1.391 . S
C1347 H1335 0.950 . S
C1347 C1343 1.393 . S
C1347 C1346 1.391 . S
H1348 C1356 0.950 . S
H1349 C1361 0.950 . S
H1350 C1358 0.950 1_655 S
H1351 C1360 0.950 . S
H1352 C1362 0.950 . S
H1353 C1364 0.950 1_455 S
H1354 C1366 0.950 . S
H1355 C1367 0.950 . S
C1356 H1348 0.950 . S
C1356 C1357 1.386 . S
C1356 C1358 1.391 . S
C1357 C1356 1.386 . S
C1357 C1361 1.393 . S
C1358 H1350 0.950 1_455 S
C1358 C1356 1.391 . S
C1358 C1359 1.400 . S
C1359 C1358 1.400 . S
C1359 C1360 1.398 . S
C1359 C1365 1.491 1_455 S
C1360 H1351 0.950 . S
C1360 C1359 1.398 . S
C1360 C1361 1.391 . S
C1361 H1349 0.950 . S
C1361 C1357 1.393 . S
C1361 C1360 1.391 . S
C1362 H1352 0.950 . S
C1362 C1363 1.386 . S
C1362 C1364 1.391 . S
C1363 C1362 1.386 . S
C1363 C1367 1.393 . S
C1364 H1353 0.950 1_655 S
C1364 C1362 1.391 . S
C1364 C1365 1.400 . S
C1365 C1359 1.491 1_655 S
C1365 C1364 1.400 . S
C1365 C1366 1.398 . S
C1366 H1354 0.950 . S
C1366 C1365 1.398 . S
C1366 C1367 1.391 . S
C1367 H1355 0.950 . S
C1367 C1363 1.393 . S
C1367 C1366 1.391 . S
H1368 C1376 0.950 . S
H1369 C1381 0.950 . S
H1370 C1378 0.950 1_554 S
H1371 C1380 0.950 1_655 S
H1372 C1382 0.950 . S
H1373 C1384 0.950 1_556 S
H1374 C1386 0.950 1_455 S
H1375 C1387 0.950 . S
C1376 H1368 0.950 . S
C1376 C1377 1.386 . S
C1376 C1378 1.391 . S
C1377 C1376 1.386 . S
C1377 C1381 1.393 . S
C1378 H1370 0.950 1_556 S
C1378 C1376 1.391 . S
C1378 C1379 1.400 . S
C1379 C1378 1.400 . S
C1379 C1380 1.398 . S
C1379 C1385 1.491 1_456 S
C1380 H1371 0.950 1_455 S
C1380 C1379 1.398 . S
C1380 C1381 1.391 . S
C1381 H1369 0.950 . S
C1381 C1377 1.393 . S
C1381 C1380 1.391 . S
C1382 H1372 0.950 . S
C1382 C1383 1.386 . S
C1382 C1384 1.391 . S
C1383 C1382 1.386 . S
C1383 C1387 1.393 . S
C1384 H1373 0.950 1_554 S
C1384 C1382 1.391 . S
C1384 C1385 1.400 . S
C1385 C1379 1.491 1_654 S
C1385 C1384 1.400 . S
C1385 C1386 1.398 . S
C1386 H1374 0.950 1_655 S
C1386 C1385 1.398 . S
C1386 C1387 1.391 . S
C1387 H1375 0.950 . S
C1387 C1383 1.393 . S
C1387 C1386 1.391 . S
H1388 C1396 0.950 . S
H1389 C1401 0.950 . S
H1390 C1398 0.950 . S
H1391 C1400 0.950 . S
H1392 C1402 0.950 . S
H1393 C1404 0.950 . S
H1394 C1406 0.950 . S
H1395 C1407 0.950 . S
C1396 H1388 0.950 . S
C1396 C1397 1.386 . S
C1396 C1398 1.391 . S
C1397 C1396 1.386 . S
C1397 C1401 1.393 . S
C1398 H1390 0.950 . S
C1398 C1396 1.391 . S
C1398 C1399 1.400 . S
C1399 C1398 1.400 . S
C1399 C1400 1.398 . S
C1399 C1405 1.491 . S
C1400 H1391 0.950 . S
C1400 C1399 1.398 . S
C1400 C1401 1.391 . S
C1401 H1389 0.950 . S
C1401 C1397 1.393 . S
C1401 C1400 1.391 . S
C1402 H1392 0.950 . S
C1402 C1403 1.386 . S
C1402 C1404 1.391 . S
C1403 C1402 1.386 . S
C1403 C1407 1.393 . S
C1404 H1393 0.950 . S
C1404 C1402 1.391 . S
C1404 C1405 1.400 . S
C1405 C1399 1.491 . S
C1405 C1404 1.400 . S
C1405 C1406 1.398 . S
C1406 H1394 0.950 . S
C1406 C1405 1.398 . S
C1406 C1407 1.391 . S
C1407 H1395 0.950 . S
C1407 C1403 1.393 . S
C1407 C1406 1.391 . S
H1408 C1416 0.950 . S
H1409 C1421 0.950 . S
H1410 C1418 0.950 . S
H1411 C1420 0.950 . S
H1412 C1422 0.950 . S
H1413 C1424 0.950 . S
H1414 C1426 0.950 . S
H1415 C1427 0.950 . S
C1416 H1408 0.950 . S
C1416 C1417 1.386 . S
C1416 C1418 1.391 . S
C1417 C1416 1.386 . S
C1417 C1421 1.393 . S
C1418 H1410 0.950 . S
C1418 C1416 1.391 . S
C1418 C1419 1.400 . S
C1419 C1418 1.400 . S
C1419 C1420 1.398 . S
C1419 C1425 1.491 . S
C1420 H1411 0.950 . S
C1420 C1419 1.398 . S
C1420 C1421 1.391 . S
C1421 H1409 0.950 . S
C1421 C1417 1.393 . S
C1421 C1420 1.391 . S
C1422 H1412 0.950 . S
C1422 C1423 1.386 . S
C1422 C1424 1.391 . S
C1423 C1422 1.386 . S
C1423 C1427 1.393 . S
C1424 H1413 0.950 . S
C1424 C1422 1.391 . S
C1424 C1425 1.400 . S
C1425 C1419 1.491 . S
C1425 C1424 1.400 . S
C1425 C1426 1.398 . S
C1426 H1414 0.950 . S
C1426 C1425 1.398 . S
C1426 C1427 1.391 . S
C1427 H1415 0.950 . S
C1427 C1423 1.393 . S
C1427 C1426 1.391 . S
H1428 C1436 0.950 . S
H1429 C1441 0.950 . S
H1430 C1438 0.950 1_455 S
H1431 C1440 0.950 . S
H1432 C1442 0.950 . S
H1433 C1444 0.917 1_655 S
H1434 C1446 0.950 . S
H1435 C1447 0.950 . S
C1436 H1428 0.950 . S
C1436 C1437 1.386 . S
C1436 C1438 1.391 . S
C1437 C1436 1.386 . S
C1437 C1441 1.393 . S
C1438 H1430 0.950 1_655 S
C1438 C1436 1.391 . S
C1438 C1439 1.400 . S
C1439 C1438 1.400 . S
C1439 C1440 1.398 . S
C1439 C1445 1.491 1_655 S
C1440 H1431 0.950 . S
C1440 C1439 1.398 . S
C1440 C1441 1.391 . S
C1441 H1429 0.950 . S
C1441 C1437 1.393 . S
C1441 C1440 1.391 . S
C1442 H1432 0.950 . S
C1442 C1443 1.386 . S
C1442 C1444 1.391 . S
C1443 C1442 1.386 . S
C1443 C1447 1.393 . S
C1444 H1433 0.917 1_455 S
C1444 C1442 1.391 . S
C1444 C1445 1.400 . S
C1445 C1439 1.491 1_455 S
C1445 C1444 1.400 . S
C1445 C1446 1.398 . S
C1446 H1434 0.950 . S
C1446 C1445 1.398 . S
C1446 C1447 1.391 . S
C1447 H1435 0.950 . S
C1447 C1443 1.393 . S
C1447 C1446 1.391 . S
H1448 C1456 0.950 . S
H1449 C1461 0.950 . S
H1450 C1458 0.950 . S
H1451 C1460 0.950 . S
H1452 C1462 0.950 . S
H1453 C1464 0.950 . S
H1454 C1466 0.950 . S
H1455 C1467 0.950 . S
C1456 H1448 0.950 . S
C1456 C1457 1.386 . S
C1456 C1458 1.391 . S
C1457 C1456 1.386 . S
C1457 C1461 1.393 . S
C1458 H1450 0.950 . S
C1458 C1456 1.391 . S
C1458 C1459 1.400 . S
C1459 C1458 1.400 . S
C1459 C1460 1.398 . S
C1459 C1465 1.491 . S
C1460 H1451 0.950 . S
C1460 C1459 1.398 . S
C1460 C1461 1.391 . S
C1461 H1449 0.950 . S
C1461 C1457 1.393 . S
C1461 C1460 1.391 . S
C1462 H1452 0.950 . S
C1462 C1463 1.386 . S
C1462 C1464 1.391 . S
C1463 C1462 1.386 . S
C1463 C1467 1.393 . S
C1464 H1453 0.950 . S
C1464 C1462 1.391 . S
C1464 C1465 1.400 . S
C1465 C1459 1.491 . S
C1465 C1464 1.400 . S
C1465 C1466 1.398 . S
C1466 H1454 0.950 . S
C1466 C1465 1.398 . S
C1466 C1467 1.391 . S
C1467 H1455 0.950 . S
C1467 C1463 1.393 . S
C1467 C1466 1.391 . S
H1468 C1476 0.950 . S
H1469 C1481 0.950 . S
H1470 C1478 0.950 . S
H1471 C1480 0.950 . S
H1472 C1482 0.950 . S
H1473 C1484 0.950 . S
H1474 C1486 0.950 . S
H1475 C1487 0.950 . S
C1476 H1468 0.950 . S
C1476 C1477 1.386 . S
C1476 C1478 1.391 . S
C1477 C1476 1.386 . S
C1477 C1481 1.393 . S
C1478 H1470 0.950 . S
C1478 C1476 1.391 . S
C1478 C1479 1.400 . S
C1479 C1478 1.400 . S
C1479 C1480 1.398 . S
C1479 C1485 1.491 . S
C1480 H1471 0.950 . S
C1480 C1479 1.398 . S
C1480 C1481 1.391 . S
C1481 H1469 0.950 . S
C1481 C1477 1.393 . S
C1481 C1480 1.391 . S
C1482 H1472 0.950 . S
C1482 C1483 1.386 . S
C1482 C1484 1.391 . S
C1483 C1482 1.386 . S
C1483 C1487 1.393 . S
C1484 H1473 0.950 . S
C1484 C1482 1.391 . S
C1484 C1485 1.400 . S
C1485 C1479 1.491 . S
C1485 C1484 1.400 . S
C1485 C1486 1.398 . S
C1486 H1474 0.950 . S
C1486 C1485 1.398 . S
C1486 C1487 1.391 . S
C1487 H1475 0.950 . S
C1487 C1483 1.393 . S
C1487 C1486 1.391 . S
H1488 C1496 0.950 . S
H1489 C1501 0.950 . S
H1490 C1498 0.950 . S
H1491 C1500 0.950 . S
H1492 C1502 0.950 . S
H1493 C1504 0.950 . S
H1494 C1506 0.950 . S
H1495 C1507 0.950 . S
C1496 H1488 0.950 . S
C1496 C1497 1.386 . S
C1496 C1498 1.391 . S
C1497 C1496 1.386 . S
C1497 C1501 1.393 . S
C1498 H1490 0.950 . S
C1498 C1496 1.391 . S
C1498 C1499 1.400 . S
C1499 C1498 1.400 . S
C1499 C1500 1.398 . S
C1499 C1505 1.491 . S
C1500 H1491 0.950 . S
C1500 C1499 1.398 . S
C1500 C1501 1.391 . S
C1501 H1489 0.950 . S
C1501 C1497 1.393 . S
C1501 C1500 1.391 . S
C1502 H1492 0.950 . S
C1502 C1503 1.386 . S
C1502 C1504 1.391 . S
C1503 C1502 1.386 . S
C1503 C1507 1.393 . S
C1504 H1493 0.950 . S
C1504 C1502 1.391 . S
C1504 C1505 1.400 . S
C1505 C1499 1.491 . S
C1505 C1504 1.400 . S
C1505 C1506 1.398 . S
C1506 H1494 0.950 . S
C1506 C1505 1.398 . S
C1506 C1507 1.391 . S
C1507 H1495 0.950 . S
C1507 C1503 1.393 . S
C1507 C1506 1.391 . S
H1508 C1516 0.950 . S
H1509 C1521 0.950 . S
H1510 C1518 0.950 . S
H1511 C1520 0.950 . S
H1512 C1522 0.950 . S
H1513 C1524 0.950 . S
H1514 C1526 0.950 . S
H1515 C1527 0.950 . S
C1516 H1508 0.950 . S
C1516 C1517 1.386 . S
C1516 C1518 1.391 . S
C1517 C1516 1.386 . S
C1517 C1521 1.393 . S
C1518 H1510 0.950 . S
C1518 C1516 1.391 . S
C1518 C1519 1.400 . S
C1519 C1518 1.400 . S
C1519 C1520 1.398 . S
C1519 C1525 1.491 . S
C1520 H1511 0.950 . S
C1520 C1519 1.398 . S
C1520 C1521 1.391 . S
C1521 H1509 0.950 . S
C1521 C1517 1.393 . S
C1521 C1520 1.391 . S
C1522 H1512 0.950 . S
C1522 C1523 1.386 . S
C1522 C1524 1.391 . S
C1523 C1522 1.386 . S
C1523 C1527 1.393 . S
C1524 H1513 0.950 . S
C1524 C1522 1.391 . S
C1524 C1525 1.400 . S
C1525 C1519 1.491 . S
C1525 C1524 1.400 . S
C1525 C1526 1.398 . S
C1526 H1514 0.950 . S
C1526 C1525 1.398 . S
C1526 C1527 1.391 . S
C1527 H1515 0.950 . S
C1527 C1523 1.393 . S
C1527 C1526 1.391 . S
H1528 C1536 0.950 . S
H1529 C1541 0.950 . S
H1530 C1538 0.950 . S
H1531 C1540 0.950 . S
H1532 C1542 0.950 . S
H1533 C1544 0.950 . S
H1534 C1546 0.950 . S
H1535 C1547 0.950 . S
C1536 H1528 0.950 . S
C1536 C1537 1.386 . S
C1536 C1538 1.391 . S
C1537 C1536 1.386 . S
C1537 C1541 1.393 . S
C1538 H1530 0.950 . S
C1538 C1536 1.391 . S
C1538 C1539 1.400 . S
C1539 C1538 1.400 . S
C1539 C1540 1.398 . S
C1539 C1545 1.491 . S
C1540 H1531 0.950 . S
C1540 C1539 1.398 . S
C1540 C1541 1.391 . S
C1541 H1529 0.950 . S
C1541 C1537 1.393 . S
C1541 C1540 1.391 . S
C1542 H1532 0.950 . S
C1542 C1543 1.386 . S
C1542 C1544 1.391 . S
C1543 C1542 1.386 . S
C1543 C1547 1.393 . S
C1544 H1533 0.950 . S
C1544 C1542 1.391 . S
C1544 C1545 1.400 . S
C1545 C1539 1.491 . S
C1545 C1544 1.400 . S
C1545 C1546 1.398 . S
C1546 H1534 0.950 . S
C1546 C1545 1.398 . S
C1546 C1547 1.391 . S
C1547 H1535 0.950 . S
C1547 C1543 1.393 . S
C1547 C1546 1.391 . S
H1548 C1556 0.950 . S
H1549 C1561 0.950 . S
H1550 C1558 0.950 . S
H1551 C1560 0.950 1_455 S
H1552 C1562 0.950 . S
H1553 C1564 0.950 . S
H1554 C1566 0.985 . S
H1555 C1567 0.950 . S
C1556 H1548 0.950 . S
C1556 C1557 1.386 . S
C1556 C1558 1.391 . S
C1557 C1556 1.386 . S
C1557 C1561 1.393 . S
C1558 H1550 0.950 . S
C1558 C1556 1.391 . S
C1558 C1559 1.400 . S
C1559 C1558 1.400 . S
C1559 C1560 1.398 . S
C1559 C1565 1.491 1_655 S
C1560 H1551 0.950 1_655 S
C1560 C1559 1.398 . S
C1560 C1561 1.391 . S
C1561 H1549 0.950 . S
C1561 C1557 1.393 . S
C1561 C1560 1.391 . S
C1562 H1552 0.950 . S
C1562 C1563 1.386 . S
C1562 C1564 1.391 . S
C1563 C1562 1.386 . S
C1563 C1567 1.393 . S
C1564 H1553 0.950 . S
C1564 C1562 1.391 . S
C1564 C1565 1.400 . S
C1565 C1559 1.491 1_455 S
C1565 C1564 1.400 . S
C1565 C1566 1.398 . S
C1566 H1554 0.985 . S
C1566 C1565 1.398 . S
C1566 C1567 1.391 . S
C1567 H1555 0.950 . S
C1567 C1563 1.393 . S
C1567 C1566 1.391 . S
H1568 C1576 0.950 . S
H1569 C1581 0.950 . S
H1570 C1578 0.950 . S
H1571 C1580 0.950 . S
H1572 C1582 0.950 . S
H1573 C1584 0.950 . S
H1574 C1586 0.950 . S
H1575 C1587 0.950 . S
C1576 H1568 0.950 . S
C1576 C1577 1.386 . S
C1576 C1578 1.391 . S
C1577 C1576 1.386 . S
C1577 C1581 1.393 . S
C1578 H1570 0.950 . S
C1578 C1576 1.391 . S
C1578 C1579 1.400 . S
C1579 C1578 1.400 . S
C1579 C1580 1.398 . S
C1579 C1585 1.491 . S
C1580 H1571 0.950 . S
C1580 C1579 1.398 . S
C1580 C1581 1.391 . S
C1581 H1569 0.950 . S
C1581 C1577 1.393 . S
C1581 C1580 1.391 . S
C1582 H1572 0.950 . S
C1582 C1583 1.386 . S
C1582 C1584 1.391 . S
C1583 C1582 1.386 . S
C1583 C1587 1.393 . S
C1584 H1573 0.950 . S
C1584 C1582 1.391 . S
C1584 C1585 1.400 . S
C1585 C1579 1.491 . S
C1585 C1584 1.400 . S
C1585 C1586 1.398 . S
C1586 H1574 0.950 . S
C1586 C1585 1.398 . S
C1586 C1587 1.391 . S
C1587 H1575 0.950 . S
C1587 C1583 1.393 . S
C1587 C1586 1.391 . S
H1588 C1596 0.950 . S
H1589 C1601 0.950 . S
H1590 C1598 0.950 1_655 S
H1591 C1600 0.950 . S
H1592 C1602 0.950 . S
H1593 C1604 0.950 . S
H1594 C1606 0.950 . S
H1595 C1607 0.950 . S
C1596 H1588 0.950 . S
C1596 C1597 1.386 . S
C1596 C1598 1.391 . S
C1597 C1596 1.386 . S
C1597 C1601 1.393 . S
C1598 H1590 0.950 1_455 S
C1598 C1596 1.391 . S
C1598 C1599 1.400 . S
C1599 C1598 1.400 . S
C1599 C1600 1.398 . S
C1599 C1605 1.491 1_455 S
C1600 H1591 0.950 . S
C1600 C1599 1.398 . S
C1600 C1601 1.391 . S
C1601 H1589 0.950 . S
C1601 C1597 1.393 . S
C1601 C1600 1.391 . S
C1602 H1592 0.950 . S
C1602 C1603 1.386 . S
C1602 C1604 1.391 . S
C1603 C1602 1.386 . S
C1603 C1607 1.393 . S
C1604 H1593 0.950 . S
C1604 C1602 1.391 . S
C1604 C1605 1.400 . S
C1605 C1599 1.491 1_655 S
C1605 C1604 1.400 . S
C1605 C1606 1.398 . S
C1606 H1594 0.950 . S
C1606 C1605 1.398 . S
C1606 C1607 1.391 . S
C1607 H1595 0.950 . S
C1607 C1603 1.393 . S
C1607 C1606 1.391 . S
H1608 C1616 0.950 . S
H1609 C1621 0.950 . S
H1610 C1618 0.950 . S
H1611 C1620 0.950 . S
H1612 C1622 0.950 . S
H1613 C1624 0.950 . S
H1614 C1626 0.950 . S
H1615 C1627 0.950 . S
C1616 H1608 0.950 . S
C1616 C1617 1.386 . S
C1616 C1618 1.391 . S
C1617 C1616 1.386 . S
C1617 C1621 1.393 . S
C1618 H1610 0.950 . S
C1618 C1616 1.391 . S
C1618 C1619 1.400 . S
C1619 C1618 1.400 . S
C1619 C1620 1.398 . S
C1619 C1625 1.491 . S
C1620 H1611 0.950 . S
C1620 C1619 1.398 . S
C1620 C1621 1.391 . S
C1621 H1609 0.950 . S
C1621 C1617 1.393 . S
C1621 C1620 1.391 . S
C1622 H1612 0.950 . S
C1622 C1623 1.386 . S
C1622 C1624 1.391 . S
C1623 C1622 1.386 . S
C1623 C1627 1.393 . S
C1624 H1613 0.950 . S
C1624 C1622 1.391 . S
C1624 C1625 1.400 . S
C1625 C1619 1.491 . S
C1625 C1624 1.400 . S
C1625 C1626 1.398 . S
C1626 H1614 0.950 . S
C1626 C1625 1.398 . S
C1626 C1627 1.391 . S
C1627 H1615 0.950 . S
C1627 C1623 1.393 . S
C1627 C1626 1.391 . S
H1628 C1636 0.950 . S
H1629 C1641 0.950 . S
H1630 C1638 0.950 . S
H1631 C1640 0.950 . S
H1632 C1642 0.950 . S
H1633 C1644 0.950 . S
H1634 C1646 0.950 . S
H1635 C1647 0.950 . S
C1636 H1628 0.950 . S
C1636 C1637 1.386 . S
C1636 C1638 1.391 . S
C1637 C1636 1.386 . S
C1637 C1641 1.393 . S
C1638 H1630 0.950 . S
C1638 C1636 1.391 . S
C1638 C1639 1.400 . S
C1639 C1638 1.400 . S
C1639 C1640 1.398 . S
C1639 C1645 1.491 . S
C1640 H1631 0.950 . S
C1640 C1639 1.398 . S
C1640 C1641 1.391 . S
C1641 H1629 0.950 . S
C1641 C1637 1.393 . S
C1641 C1640 1.391 . S
C1642 H1632 0.950 . S
C1642 C1643 1.386 . S
C1642 C1644 1.391 . S
C1643 C1642 1.386 . S
C1643 C1647 1.393 . S
C1644 H1633 0.950 . S
C1644 C1642 1.391 . S
C1644 C1645 1.400 . S
C1645 C1639 1.491 . S
C1645 C1644 1.400 . S
C1645 C1646 1.398 . S
C1646 H1634 0.950 . S
C1646 C1645 1.398 . S
C1646 C1647 1.391 . S
C1647 H1635 0.950 . S
C1647 C1643 1.393 . S
C1647 C1646 1.391 . S
H1648 C1656 0.950 . S
H1649 C1661 0.950 . S
H1650 C1658 0.950 . S
H1651 C1660 0.950 . S
H1652 C1662 0.950 . S
H1653 C1664 0.950 . S
H1654 C1666 0.950 . S
H1655 C1667 0.950 . S
C1656 H1648 0.950 . S
C1656 C1657 1.386 . S
C1656 C1658 1.391 . S
C1657 C1656 1.386 . S
C1657 C1661 1.393 . S
C1658 H1650 0.950 . S
C1658 C1656 1.391 . S
C1658 C1659 1.400 . S
C1659 C1658 1.400 . S
C1659 C1660 1.398 . S
C1659 C1665 1.491 . S
C1660 H1651 0.950 . S
C1660 C1659 1.398 . S
C1660 C1661 1.391 . S
C1661 H1649 0.950 . S
C1661 C1657 1.393 . S
C1661 C1660 1.391 . S
C1662 H1652 0.950 . S
C1662 C1663 1.386 . S
C1662 C1664 1.391 . S
C1663 C1662 1.386 . S
C1663 C1667 1.393 . S
C1664 H1653 0.950 . S
C1664 C1662 1.391 . S
C1664 C1665 1.400 . S
C1665 C1659 1.491 . S
C1665 C1664 1.400 . S
C1665 C1666 1.398 . S
C1666 H1654 0.950 . S
C1666 C1665 1.398 . S
C1666 C1667 1.391 . S
C1667 H1655 0.950 . S
C1667 C1663 1.393 . S
C1667 C1666 1.391 . S
H1668 C1676 0.950 . S
H1669 C1681 0.950 . S
H1670 C1678 0.950 . S
H1671 C1680 0.950 . S
H1672 C1682 0.950 . S
H1673 C1684 0.950 . S
H1674 C1686 0.950 . S
H1675 C1687 0.950 . S
C1676 H1668 0.950 . S
C1676 C1677 1.386 . S
C1676 C1678 1.391 . S
C1677 C1676 1.386 . S
C1677 C1681 1.393 . S
C1678 H1670 0.950 . S
C1678 C1676 1.391 . S
C1678 C1679 1.400 . S
C1679 C1678 1.400 . S
C1679 C1680 1.398 . S
C1679 C1685 1.491 . S
C1680 H1671 0.950 . S
C1680 C1679 1.398 . S
C1680 C1681 1.391 . S
C1681 H1669 0.950 . S
C1681 C1677 1.393 . S
C1681 C1680 1.391 . S
C1682 H1672 0.950 . S
C1682 C1683 1.386 . S
C1682 C1684 1.391 . S
C1683 C1682 1.386 . S
C1683 C1687 1.393 . S
C1684 H1673 0.950 . S
C1684 C1682 1.391 . S
C1684 C1685 1.400 . S
C1685 C1679 1.491 . S
C1685 C1684 1.400 . S
C1685 C1686 1.398 . S
C1686 H1674 0.950 . S
C1686 C1685 1.398 . S
C1686 C1687 1.391 . S
C1687 H1675 0.950 . S
C1687 C1683 1.393 . S
C1687 C1686 1.391 . S
H1688 C1696 0.950 . S
H1689 C1701 0.950 . S
H1690 C1698 0.950 . S
H1691 C1700 0.950 . S
H1692 C1702 0.950 . S
H1693 C1704 0.950 . S
H1694 C1706 0.950 . S
H1695 C1707 0.950 . S
C1696 H1688 0.950 . S
C1696 C1697 1.386 . S
C1696 C1698 1.391 . S
C1697 C1696 1.386 . S
C1697 C1701 1.393 . S
C1698 H1690 0.950 . S
C1698 C1696 1.391 . S
C1698 C1699 1.400 . S
C1699 C1698 1.400 . S
C1699 C1700 1.398 . S
C1699 C1705 1.491 . S
C1700 H1691 0.950 . S
C1700 C1699 1.398 . S
C1700 C1701 1.391 . S
C1701 H1689 0.950 . S
C1701 C1697 1.393 . S
C1701 C1700 1.391 . S
C1702 H1692 0.950 . S
C1702 C1703 1.386 . S
C1702 C1704 1.391 . S
C1703 C1702 1.386 . S
C1703 C1707 1.393 . S
C1704 H1693 0.950 . S
C1704 C1702 1.391 . S
C1704 C1705 1.400 . S
C1705 C1699 1.491 . S
C1705 C1704 1.400 . S
C1705 C1706 1.398 . S
C1706 H1694 0.950 . S
C1706 C1705 1.398 . S
C1706 C1707 1.391 . S
C1707 H1695 0.950 . S
C1707 C1703 1.393 . S
C1707 C1706 1.391 . S
H1708 C1716 0.950 . S
H1709 C1721 0.950 . S
H1710 C1718 0.950 . S
H1711 C1720 0.950 . S
H1712 C1722 0.950 . S
H1713 C1724 0.926 1_655 S
H1714 C1726 0.950 . S
H1715 C1727 0.950 . S
C1716 H1708 0.950 . S
C1716 C1717 1.386 . S
C1716 C1718 1.391 . S
C1717 C1716 1.386 . S
C1717 C1721 1.393 . S
C1718 H1710 0.950 . S
C1718 C1716 1.391 . S
C1718 C1719 1.400 . S
C1719 C1718 1.400 . S
C1719 C1720 1.398 . S
C1719 C1725 1.491 1_655 S
C1720 H1711 0.950 . S
C1720 C1719 1.398 . S
C1720 C1721 1.391 . S
C1721 H1709 0.950 . S
C1721 C1717 1.393 . S
C1721 C1720 1.391 . S
C1722 H1712 0.950 . S
C1722 C1723 1.386 . S
C1722 C1724 1.391 . S
C1723 C1722 1.386 . S
C1723 C1727 1.393 . S
C1724 H1713 0.926 1_455 S
C1724 C1722 1.391 . S
C1724 C1725 1.400 . S
C1725 C1719 1.491 1_455 S
C1725 C1724 1.400 . S
C1725 C1726 1.398 . S
C1726 H1714 0.950 . S
C1726 C1725 1.398 . S
C1726 C1727 1.391 . S
C1727 H1715 0.950 . S
C1727 C1723 1.393 . S
C1727 C1726 1.391 . S
H1728 C1736 0.950 . S
H1729 C1741 0.950 . S
H1730 C1738 0.950 . S
H1731 C1740 0.950 . S
H1732 C1742 0.950 . S
H1733 C1744 0.950 . S
H1734 C1746 0.950 . S
H1735 C1747 0.950 . S
C1736 H1728 0.950 . S
C1736 C1737 1.386 . S
C1736 C1738 1.391 . S
C1737 C1736 1.386 . S
C1737 C1741 1.393 . S
C1738 H1730 0.950 . S
C1738 C1736 1.391 . S
C1738 C1739 1.400 . S
C1739 C1738 1.400 . S
C1739 C1740 1.398 . S
C1739 C1745 1.491 . S
C1740 H1731 0.950 . S
C1740 C1739 1.398 . S
C1740 C1741 1.391 . S
C1741 H1729 0.950 . S
C1741 C1737 1.393 . S
C1741 C1740 1.391 . S
C1742 H1732 0.950 . S
C1742 C1743 1.386 . S
C1742 C1744 1.391 . S
C1743 C1742 1.386 . S
C1743 C1747 1.393 . S
C1744 H1733 0.950 . S
C1744 C1742 1.391 . S
C1744 C1745 1.400 . S
C1745 C1739 1.491 . S
C1745 C1744 1.400 . S
C1745 C1746 1.398 . S
C1746 H1734 0.950 . S
C1746 C1745 1.398 . S
C1746 C1747 1.391 . S
C1747 H1735 0.950 . S
C1747 C1743 1.393 . S
C1747 C1746 1.391 . S
H1748 C1756 0.950 . S
H1749 C1761 0.950 . S
H1750 C1758 0.950 . S
H1751 C1760 0.950 . S
H1752 C1762 0.950 . S
H1753 C1764 0.950 . S
H1754 C1766 0.950 . S
H1755 C1767 0.950 . S
C1756 H1748 0.950 . S
C1756 C1757 1.386 . S
C1756 C1758 1.391 . S
C1757 C1756 1.386 . S
C1757 C1761 1.393 . S
C1758 H1750 0.950 . S
C1758 C1756 1.391 . S
C1758 C1759 1.400 . S
C1759 C1758 1.400 . S
C1759 C1760 1.398 . S
C1759 C1765 1.491 . S
C1760 H1751 0.950 . S
C1760 C1759 1.398 . S
C1760 C1761 1.391 . S
C1761 H1749 0.950 . S
C1761 C1757 1.393 . S
C1761 C1760 1.391 . S
C1762 H1752 0.950 . S
C1762 C1763 1.386 . S
C1762 C1764 1.391 . S
C1763 C1762 1.386 . S
C1763 C1767 1.393 . S
C1764 H1753 0.950 . S
C1764 C1762 1.391 . S
C1764 C1765 1.400 . S
C1765 C1759 1.491 . S
C1765 C1764 1.400 . S
C1765 C1766 1.398 . S
C1766 H1754 0.950 . S
C1766 C1765 1.398 . S
C1766 C1767 1.391 . S
C1767 H1755 0.950 . S
C1767 C1763 1.393 . S
C1767 C1766 1.391 . S
H1768 C1776 0.950 . S
H1769 C1781 0.950 . S
H1770 C1778 0.950 . S
H1771 C1780 0.950 . S
H1772 C1782 0.950 . S
H1773 C1784 0.950 . S
H1774 C1786 0.950 . S
H1775 C1787 0.950 . S
C1776 H1768 0.950 . S
C1776 C1777 1.386 . S
C1776 C1778 1.391 . S
C1777 C1776 1.386 . S
C1777 C1781 1.393 . S
C1778 H1770 0.950 . S
C1778 C1776 1.391 . S
C1778 C1779 1.400 . S
C1779 C1778 1.400 . S
C1779 C1780 1.398 . S
C1779 C1785 1.491 . S
C1780 H1771 0.950 . S
C1780 C1779 1.398 . S
C1780 C1781 1.391 . S
C1781 H1769 0.950 . S
C1781 C1777 1.393 . S
C1781 C1780 1.391 . S
C1782 H1772 0.950 . S
C1782 C1783 1.386 . S
C1782 C1784 1.391 . S
C1783 C1782 1.386 . S
C1783 C1787 1.393 . S
C1784 H1773 0.950 . S
C1784 C1782 1.391 . S
C1784 C1785 1.400 . S
C1785 C1779 1.491 . S
C1785 C1784 1.400 . S
C1785 C1786 1.398 . S
C1786 H1774 0.950 . S
C1786 C1785 1.398 . S
C1786 C1787 1.391 . S
C1787 H1775 0.950 . S
C1787 C1783 1.393 . S
C1787 C1786 1.391 . S
H1788 C1796 0.950 . S
H1789 C1801 0.950 . S
H1790 C1798 0.950 1_455 S
H1791 C1800 0.950 . S
H1792 C1802 0.950 . S
H1793 C1804 0.985 . S
H1794 C1806 0.950 . S
H1795 C1807 0.950 . S
C1796 H1788 0.950 . S
C1796 C1797 1.386 . S
C1796 C1798 1.391 . S
C1797 C1796 1.386 . S
C1797 C1801 1.393 . S
C1798 H1790 0.950 1_655 S
C1798 C1796 1.391 . S
C1798 C1799 1.400 . S
C1799 C1798 1.400 . S
C1799 C1800 1.398 . S
C1799 C1805 1.491 1_655 S
C1800 H1791 0.950 . S
C1800 C1799 1.398 . S
C1800 C1801 1.391 . S
C1801 H1789 0.950 . S
C1801 C1797 1.393 . S
C1801 C1800 1.391 . S
C1802 H1792 0.950 . S
C1802 C1803 1.386 . S
C1802 C1804 1.364 1_455 S
C1803 C1802 1.386 . S
C1803 C1807 1.393 . S
C1804 H1793 0.985 . S
C1804 C1802 1.364 1_655 S
C1804 C1805 1.394 1_655 S
C1805 C1799 1.491 1_455 S
C1805 C1804 1.394 1_455 S
C1805 C1806 1.398 . S
C1806 H1794 0.950 . S
C1806 C1805 1.398 . S
C1806 C1807 1.391 . S
C1807 H1795 0.950 . S
C1807 C1803 1.393 . S
C1807 C1806 1.391 . S
H1808 C1816 0.950 . S
H1809 C1821 0.950 . S
H1810 C1818 0.950 . S
H1811 C1820 0.950 . S
H1812 C1822 0.950 . S
H1813 C1824 0.950 . S
H1814 C1826 0.950 . S
H1815 C1827 0.950 . S
C1816 H1808 0.950 . S
C1816 C1817 1.386 . S
C1816 C1818 1.391 . S
C1817 C1816 1.386 . S
C1817 C1821 1.393 . S
C1818 H1810 0.950 . S
C1818 C1816 1.391 . S
C1818 C1819 1.400 . S
C1819 C1818 1.400 . S
C1819 C1820 1.398 . S
C1819 C1825 1.491 . S
C1820 H1811 0.950 . S
C1820 C1819 1.398 . S
C1820 C1821 1.391 . S
C1821 H1809 0.950 . S
C1821 C1817 1.393 . S
C1821 C1820 1.391 . S
C1822 H1812 0.950 . S
C1822 C1823 1.386 . S
C1822 C1824 1.391 . S
C1823 C1822 1.386 . S
C1823 C1827 1.393 . S
C1824 H1813 0.950 . S
C1824 C1822 1.391 . S
C1824 C1825 1.400 . S
C1825 C1819 1.491 . S
C1825 C1824 1.400 . S
C1825 C1826 1.398 . S
C1826 H1814 0.950 . S
C1826 C1825 1.398 . S
C1826 C1827 1.391 . S
C1827 H1815 0.950 . S
C1827 C1823 1.393 . S
C1827 C1826 1.391 . S
H1828 C1836 0.950 . S
H1829 C1841 0.950 . S
H1830 C1838 0.950 . S
H1831 C1840 0.950 . S
H1832 C1842 0.950 . S
H1833 C1844 0.950 . S
H1834 C1846 0.950 1_655 S
H1835 C1847 0.950 . S
C1836 H1828 0.950 . S
C1836 C1837 1.386 . S
C1836 C1838 1.391 . S
C1837 C1836 1.386 . S
C1837 C1841 1.393 . S
C1838 H1830 0.950 . S
C1838 C1836 1.391 . S
C1838 C1839 1.400 . S
C1839 C1838 1.400 . S
C1839 C1840 1.398 . S
C1839 C1845 1.491 1_655 S
C1840 H1831 0.950 . S
C1840 C1839 1.398 . S
C1840 C1841 1.391 . S
C1841 H1829 0.950 . S
C1841 C1837 1.393 . S
C1841 C1840 1.391 . S
C1842 H1832 0.950 . S
C1842 C1843 1.386 . S
C1842 C1844 1.391 . S
C1843 C1842 1.386 . S
C1843 C1847 1.393 . S
C1844 H1833 0.950 . S
C1844 C1842 1.391 . S
C1844 C1845 1.400 . S
C1845 C1839 1.491 1_455 S
C1845 C1844 1.400 . S
C1845 C1846 1.398 . S
C1846 H1834 0.950 1_455 S
C1846 C1845 1.398 . S
C1846 C1847 1.391 . S
C1847 H1835 0.950 . S
C1847 C1843 1.393 . S
C1847 C1846 1.391 . S
H1848 C1856 0.950 . S
H1849 C1861 0.950 . S
H1850 C1858 0.950 . S
H1851 C1860 0.950 . S
H1852 C1862 0.950 . S
H1853 C1864 0.950 . S
H1854 C1866 0.950 . S
H1855 C1867 0.950 . S
C1856 H1848 0.950 . S
C1856 C1857 1.386 . S
C1856 C1858 1.391 . S
C1857 C1856 1.386 . S
C1857 C1861 1.393 . S
C1858 H1850 0.950 . S
C1858 C1856 1.391 . S
C1858 C1859 1.400 . S
C1859 C1858 1.400 . S
C1859 C1860 1.398 . S
C1859 C1865 1.491 . S
C1860 H1851 0.950 . S
C1860 C1859 1.398 . S
C1860 C1861 1.391 . S
C1861 H1849 0.950 . S
C1861 C1857 1.393 . S
C1861 C1860 1.391 . S
C1862 H1852 0.950 . S
C1862 C1863 1.386 . S
C1862 C1864 1.391 . S
C1863 C1862 1.386 . S
C1863 C1867 1.393 . S
C1864 H1853 0.950 . S
C1864 C1862 1.391 . S
C1864 C1865 1.400 . S
C1865 C1859 1.491 . S
C1865 C1864 1.400 . S
C1865 C1866 1.398 . S
C1866 H1854 0.950 . S
C1866 C1865 1.398 . S
C1866 C1867 1.391 . S
C1867 H1855 0.950 . S
C1867 C1863 1.393 . S
C1867 C1866 1.391 . S
H1868 C1876 0.950 . S
H1869 C1881 0.950 . S
H1870 C1878 0.950 . S
H1871 C1880 0.950 . S
H1872 C1882 0.950 . S
H1873 C1884 0.950 . S
H1874 C1886 0.950 . S
H1875 C1887 0.950 . S
C1876 H1868 0.950 . S
C1876 C1877 1.386 . S
C1876 C1878 1.391 . S
C1877 C1876 1.386 . S
C1877 C1881 1.393 . S
C1878 H1870 0.950 . S
C1878 C1876 1.391 . S
C1878 C1879 1.400 . S
C1879 C1878 1.400 . S
C1879 C1880 1.398 . S
C1879 C1885 1.491 . S
C1880 H1871 0.950 . S
C1880 C1879 1.398 . S
C1880 C1881 1.391 . S
C1881 H1869 0.950 . S
C1881 C1877 1.393 . S
C1881 C1880 1.391 . S
C1882 H1872 0.950 . S
C1882 C1883 1.386 . S
C1882 C1884 1.391 . S
C1883 C1882 1.386 . S
C1883 C1887 1.393 . S
C1884 H1873 0.950 . S
C1884 C1882 1.391 . S
C1884 C1885 1.400 . S
C1885 C1879 1.491 . S
C1885 C1884 1.400 . S
C1885 C1886 1.398 . S
C1886 H1874 0.950 . S
C1886 C1885 1.398 . S
C1886 C1887 1.391 . S
C1887 H1875 0.950 . S
C1887 C1883 1.393 . S
C1887 C1886 1.391 . S
H1888 C1896 0.950 . S
H1889 C1901 0.950 . S
H1890 C1898 0.950 . S
H1891 C1900 0.950 . S
H1892 C1902 0.950 . S
H1893 C1904 0.950 . S
H1894 C1906 0.950 . S
H1895 C1907 0.950 . S
C1896 H1888 0.950 . S
C1896 C1897 1.386 . S
C1896 C1898 1.391 . S
C1897 C1896 1.386 . S
C1897 C1901 1.393 . S
C1898 H1890 0.950 . S
C1898 C1896 1.391 . S
C1898 C1899 1.400 . S
C1899 C1898 1.400 . S
C1899 C1900 1.398 . S
C1899 C1905 1.491 . S
C1900 H1891 0.950 . S
C1900 C1899 1.398 . S
C1900 C1901 1.391 . S
C1901 H1889 0.950 . S
C1901 C1897 1.393 . S
C1901 C1900 1.391 . S
C1902 H1892 0.950 . S
C1902 C1903 1.386 . S
C1902 C1904 1.391 . S
C1903 C1902 1.386 . S
C1903 C1907 1.393 . S
C1904 H1893 0.950 . S
C1904 C1902 1.391 . S
C1904 C1905 1.400 . S
C1905 C1899 1.491 . S
C1905 C1904 1.400 . S
C1905 C1906 1.398 . S
C1906 H1894 0.950 . S
C1906 C1905 1.398 . S
C1906 C1907 1.391 . S
C1907 H1895 0.950 . S
C1907 C1903 1.393 . S
C1907 C1906 1.391 . S
H1908 C1916 0.950 . S
H1909 C1921 0.950 . S
H1910 C1918 0.950 . S
H1911 C1920 0.950 . S
H1912 C1922 0.950 . S
H1913 C1924 0.950 . S
H1914 C1926 0.950 . S
H1915 C1927 0.950 . S
C1916 H1908 0.950 . S
C1916 C1917 1.386 . S
C1916 C1918 1.391 . S
C1917 C1916 1.386 . S
C1917 C1921 1.393 . S
C1918 H1910 0.950 . S
C1918 C1916 1.391 . S
C1918 C1919 1.400 . S
C1919 C1918 1.400 . S
C1919 C1920 1.398 . S
C1919 C1925 1.491 . S
C1920 H1911 0.950 . S
C1920 C1919 1.398 . S
C1920 C1921 1.391 . S
C1921 H1909 0.950 . S
C1921 C1917 1.393 . S
C1921 C1920 1.391 . S
C1922 H1912 0.950 . S
C1922 C1923 1.386 . S
C1922 C1924 1.391 . S
C1923 C1922 1.386 . S
C1923 C1927 1.393 . S
C1924 H1913 0.950 . S
C1924 C1922 1.391 . S
C1924 C1925 1.400 . S
C1925 C1919 1.491 . S
C1925 C1924 1.400 . S
C1925 C1926 1.398 . S
C1926 H1914 0.950 . S
C1926 C1925 1.398 . S
C1926 C1927 1.391 . S
C1927 H1915 0.950 . S
C1927 C1923 1.393 . S
C1927 C1926 1.391 . S
H1928 C1936 0.950 . S
H1929 C1941 0.950 . S
H1930 C1938 0.950 . S
H1931 C1940 0.950 . S
H1932 C1942 0.950 . S
H1933 C1944 0.950 . S
H1934 C1946 0.950 . S
H1935 C1947 0.950 . S
C1936 H1928 0.950 . S
C1936 C1937 1.386 . S
C1936 C1938 1.391 . S
C1937 C1936 1.386 . S
C1937 C1941 1.393 . S
C1938 H1930 0.950 . S
C1938 C1936 1.391 . S
C1938 C1939 1.400 . S
C1939 C1938 1.400 . S
C1939 C1940 1.398 . S
C1939 C1945 1.491 . S
C1940 H1931 0.950 . S
C1940 C1939 1.398 . S
C1940 C1941 1.391 . S
C1941 H1929 0.950 . S
C1941 C1937 1.393 . S
C1941 C1940 1.391 . S
C1942 H1932 0.950 . S
C1942 C1943 1.386 . S
C1942 C1944 1.391 . S
C1943 C1942 1.386 . S
C1943 C1947 1.393 . S
C1944 H1933 0.950 . S
C1944 C1942 1.391 . S
C1944 C1945 1.400 . S
C1945 C1939 1.491 . S
C1945 C1944 1.400 . S
C1945 C1946 1.398 . S
C1946 H1934 0.950 . S
C1946 C1945 1.398 . S
C1946 C1947 1.391 . S
C1947 H1935 0.950 . S
C1947 C1943 1.393 . S
C1947 C1946 1.391 . S
H1948 C1956 0.950 . S
H1949 C1961 0.950 . S
H1950 C1958 0.950 . S
H1951 C1960 0.950 1_655 S
H1952 C1962 0.950 . S
H1953 C1964 0.950 . S
H1954 C1966 0.971 . S
H1955 C1967 0.950 . S
C1956 H1948 0.950 . S
C1956 C1957 1.386 . S
C1956 C1958 1.391 . S
C1957 C1956 1.386 . S
C1957 C1961 1.393 . S
C1958 H1950 0.950 . S
C1958 C1956 1.391 . S
C1958 C1959 1.400 . S
C1959 C1958 1.400 . S
C1959 C1960 1.398 . S
C1959 C1965 1.491 1_455 S
C1960 H1951 0.950 1_455 S
C1960 C1959 1.398 . S
C1960 C1961 1.391 . S
C1961 H1949 0.950 . S
C1961 C1957 1.393 . S
C1961 C1960 1.391 . S
C1962 H1952 0.950 . S
C1962 C1963 1.386 . S
C1962 C1964 1.391 . S
C1963 C1962 1.386 . S
C1963 C1967 1.393 . S
C1964 H1953 0.950 . S
C1964 C1962 1.391 . S
C1964 C1965 1.400 . S
C1965 C1959 1.491 1_655 S
C1965 C1964 1.400 . S
C1965 C1966 1.395 1_655 S
C1966 H1954 0.971 . S
C1966 C1965 1.395 1_455 S
C1966 C1967 1.374 1_455 S
C1967 H1955 0.950 . S
C1967 C1963 1.393 . S
C1967 C1966 1.374 1_655 S
H1968 C1976 0.950 . S
H1969 C1981 0.950 . S
H1970 C1978 0.950 . S
H1971 C1980 0.950 . S
H1972 C1982 0.950 . S
H1973 C1984 0.950 . S
H1974 C1986 0.950 . S
H1975 C1987 0.950 . S
C1976 H1968 0.950 . S
C1976 C1977 1.386 . S
C1976 C1978 1.391 . S
C1977 C1976 1.386 . S
C1977 C1981 1.393 . S
C1978 H1970 0.950 . S
C1978 C1976 1.391 . S
C1978 C1979 1.400 . S
C1979 C1978 1.400 . S
C1979 C1980 1.398 . S
C1979 C1985 1.491 . S
C1980 H1971 0.950 . S
C1980 C1979 1.398 . S
C1980 C1981 1.391 . S
C1981 H1969 0.950 . S
C1981 C1977 1.393 . S
C1981 C1980 1.391 . S
C1982 H1972 0.950 . S
C1982 C1983 1.386 . S
C1982 C1984 1.391 . S
C1983 C1982 1.386 . S
C1983 C1987 1.393 . S
C1984 H1973 0.950 . S
C1984 C1982 1.391 . S
C1984 C1985 1.400 . S
C1985 C1979 1.491 . S
C1985 C1984 1.400 . S
C1985 C1986 1.398 . S
C1986 H1974 0.950 . S
C1986 C1985 1.398 . S
C1986 C1987 1.391 . S
C1987 H1975 0.950 . S
C1987 C1983 1.393 . S
C1987 C1986 1.391 . S
H1988 C1996 0.950 . S
H1989 C2001 0.950 . S
H1990 C1998 0.950 . S
H1991 C2000 0.950 1_455 S
H1992 C2002 0.950 . S
H1993 C2004 0.950 . S
H1994 C2006 0.958 . S
H1995 C2007 0.950 . S
C1996 H1988 0.950 . S
C1996 C1997 1.386 . S
C1996 C1998 1.391 . S
C1997 C1996 1.386 . S
C1997 C2001 1.393 . S
C1998 H1990 0.950 . S
C1998 C1996 1.391 . S
C1998 C1999 1.400 . S
C1999 C1998 1.400 . S
C1999 C2000 1.398 . S
C1999 C2005 1.491 1_655 S
C2000 H1991 0.950 1_655 S
C2000 C1999 1.398 . S
C2000 C2001 1.391 . S
C2001 H1989 0.950 . S
C2001 C1997 1.393 . S
C2001 C2000 1.391 . S
C2002 H1992 0.950 . S
C2002 C2003 1.386 . S
C2002 C2004 1.391 . S
C2003 C2002 1.386 . S
C2003 C2007 1.393 . S
C2004 H1993 0.950 . S
C2004 C2002 1.391 . S
C2004 C2005 1.400 . S
C2005 C1999 1.491 1_455 S
C2005 C2004 1.400 . S
C2005 C2006 1.398 . S
C2006 H1994 0.958 . S
C2006 C2005 1.398 . S
C2006 C2007 1.391 . S
C2007 H1995 0.950 . S
C2007 C2003 1.393 . S
C2007 C2006 1.391 . S
H2008 C2016 0.950 . S
H2009 C2021 0.950 . S
H2010 C2018 0.950 . S
H2011 C2020 0.950 . S
H2012 C2022 0.950 . S
H2013 C2024 0.950 . S
H2014 C2026 0.950 . S
H2015 C2027 0.950 . S
C2016 H2008 0.950 . S
C2016 C2017 1.386 . S
C2016 C2018 1.391 . S
C2017 C2016 1.386 . S
C2017 C2021 1.393 . S
C2018 H2010 0.950 . S
C2018 C2016 1.391 . S
C2018 C2019 1.400 . S
C2019 C2018 1.400 . S
C2019 C2020 1.398 . S
C2019 C2025 1.491 . S
C2020 H2011 0.950 . S
C2020 C2019 1.398 . S
C2020 C2021 1.391 . S
C2021 H2009 0.950 . S
C2021 C2017 1.393 . S
C2021 C2020 1.391 . S
C2022 H2012 0.950 . S
C2022 C2023 1.386 . S
C2022 C2024 1.391 . S
C2023 C2022 1.386 . S
C2023 C2027 1.393 . S
C2024 H2013 0.950 . S
C2024 C2022 1.391 . S
C2024 C2025 1.400 . S
C2025 C2019 1.491 . S
C2025 C2024 1.400 . S
C2025 C2026 1.398 . S
C2026 H2014 0.950 . S
C2026 C2025 1.398 . S
C2026 C2027 1.391 . S
C2027 H2015 0.950 . S
C2027 C2023 1.393 . S
C2027 C2026 1.391 . S
H2028 C2036 0.950 . S
H2029 C2041 0.950 . S
H2030 C2038 0.950 . S
H2031 C2040 0.950 . S
H2032 C2042 0.950 . S
H2033 C2044 0.950 . S
H2034 C2046 0.950 . S
H2035 C2047 0.950 . S
C2036 H2028 0.950 . S
C2036 C2037 1.386 . S
C2036 C2038 1.391 . S
C2037 C2036 1.386 . S
C2037 C2041 1.393 . S
C2038 H2030 0.950 . S
C2038 C2036 1.391 . S
C2038 C2039 1.400 . S
C2039 C2038 1.400 . S
C2039 C2040 1.398 . S
C2039 C2045 1.491 . S
C2040 H2031 0.950 . S
C2040 C2039 1.398 . S
C2040 C2041 1.391 . S
C2041 H2029 0.950 . S
C2041 C2037 1.393 . S
C2041 C2040 1.391 . S
C2042 H2032 0.950 . S
C2042 C2043 1.386 . S
C2042 C2044 1.391 . S
C2043 C2042 1.386 . S
C2043 C2047 1.393 . S
C2044 H2033 0.950 . S
C2044 C2042 1.391 . S
C2044 C2045 1.400 . S
C2045 C2039 1.491 . S
C2045 C2044 1.400 . S
C2045 C2046 1.398 . S
C2046 H2034 0.950 . S
C2046 C2045 1.398 . S
C2046 C2047 1.391 . S
C2047 H2035 0.950 . S
C2047 C2043 1.393 . S
C2047 C2046 1.391 . S
H2048 C2056 0.950 . S
H2049 C2061 0.950 . S
H2050 C2058 0.950 . S
H2051 C2060 0.950 . S
H2052 C2062 0.950 . S
H2053 C2064 0.950 . S
H2054 C2066 0.950 . S
H2055 C2067 0.950 . S
C2056 H2048 0.950 . S
C2056 C2057 1.386 . S
C2056 C2058 1.391 . S
C2057 C2056 1.386 . S
C2057 C2061 1.393 . S
C2058 H2050 0.950 . S
C2058 C2056 1.391 . S
C2058 C2059 1.400 . S
C2059 C2058 1.400 . S
C2059 C2060 1.398 . S
C2059 C2065 1.491 . S
C2060 H2051 0.950 . S
C2060 C2059 1.398 . S
C2060 C2061 1.391 . S
C2061 H2049 0.950 . S
C2061 C2057 1.393 . S
C2061 C2060 1.391 . S
C2062 H2052 0.950 . S
C2062 C2063 1.386 . S
C2062 C2064 1.391 . S
C2063 C2062 1.386 . S
C2063 C2067 1.393 . S
C2064 H2053 0.950 . S
C2064 C2062 1.391 . S
C2064 C2065 1.400 . S
C2065 C2059 1.491 . S
C2065 C2064 1.400 . S
C2065 C2066 1.398 . S
C2066 H2054 0.950 . S
C2066 C2065 1.398 . S
C2066 C2067 1.391 . S
C2067 H2055 0.950 . S
C2067 C2063 1.393 . S
C2067 C2066 1.391 . S
H2068 C2076 0.950 . S
H2069 C2081 0.950 . S
H2070 C2078 0.950 . S
H2071 C2080 0.950 1_455 S
H2072 C2082 0.950 . S
H2073 C2084 0.950 . S
H2074 C2086 0.950 1_655 S
H2075 C2087 0.950 . S
C2076 H2068 0.950 . S
C2076 C2077 1.386 . S
C2076 C2078 1.391 . S
C2077 C2076 1.386 . S
C2077 C2081 1.393 . S
C2078 H2070 0.950 . S
C2078 C2076 1.391 . S
C2078 C2079 1.400 . S
C2079 C2078 1.400 . S
C2079 C2080 1.398 . S
C2079 C2085 1.491 1_655 S
C2080 H2071 0.950 1_655 S
C2080 C2079 1.398 . S
C2080 C2081 1.391 . S
C2081 H2069 0.950 . S
C2081 C2077 1.393 . S
C2081 C2080 1.391 . S
C2082 H2072 0.950 . S
C2082 C2083 1.386 . S
C2082 C2084 1.391 . S
C2083 C2082 1.386 . S
C2083 C2087 1.393 . S
C2084 H2073 0.950 . S
C2084 C2082 1.391 . S
C2084 C2085 1.400 . S
C2085 C2079 1.491 1_455 S
C2085 C2084 1.400 . S
C2085 C2086 1.398 . S
C2086 H2074 0.950 1_455 S
C2086 C2085 1.398 . S
C2086 C2087 1.391 . S
C2087 H2075 0.950 . S
C2087 C2083 1.393 . S
C2087 C2086 1.391 . S
H2088 C2096 0.950 . S
H2089 C2101 0.950 . S
H2090 C2098 0.950 1_455 S
H2091 C2100 0.950 . S
H2092 C2102 0.950 . S
H2093 C2104 0.950 1_655 S
H2094 C2106 0.950 . S
H2095 C2107 0.950 . S
C2096 H2088 0.950 . S
C2096 C2097 1.386 . S
C2096 C2098 1.391 . S
C2097 C2096 1.386 . S
C2097 C2101 1.393 . S
C2098 H2090 0.950 1_655 S
C2098 C2096 1.391 . S
C2098 C2099 1.400 . S
C2099 C2098 1.400 . S
C2099 C2100 1.398 . S
C2099 C2105 1.491 1_655 S
C2100 H2091 0.950 . S
C2100 C2099 1.398 . S
C2100 C2101 1.391 . S
C2101 H2089 0.950 . S
C2101 C2097 1.393 . S
C2101 C2100 1.391 . S
C2102 H2092 0.950 . S
C2102 C2103 1.386 . S
C2102 C2104 1.391 . S
C2103 C2102 1.386 . S
C2103 C2107 1.393 . S
C2104 H2093 0.950 1_455 S
C2104 C2102 1.391 . S
C2104 C2105 1.400 . S
C2105 C2099 1.491 1_455 S
C2105 C2104 1.400 . S
C2105 C2106 1.398 . S
C2106 H2094 0.950 . S
C2106 C2105 1.398 . S
C2106 C2107 1.391 . S
C2107 H2095 0.950 . S
C2107 C2103 1.393 . S
C2107 C2106 1.391 . S
H2108 C2116 0.950 . S
H2109 C2121 0.950 . S
H2110 C2118 0.950 . S
H2111 C2120 0.950 . S
H2112 C2122 0.950 . S
H2113 C2124 0.950 . S
H2114 C2126 0.950 . S
H2115 C2127 0.950 . S
C2116 H2108 0.950 . S
C2116 C2117 1.386 . S
C2116 C2118 1.391 . S
C2117 C2116 1.386 . S
C2117 C2121 1.393 . S
C2118 H2110 0.950 . S
C2118 C2116 1.391 . S
C2118 C2119 1.400 . S
C2119 C2118 1.400 . S
C2119 C2120 1.398 . S
C2119 C2125 1.491 . S
C2120 H2111 0.950 . S
C2120 C2119 1.398 . S
C2120 C2121 1.391 . S
C2121 H2109 0.950 . S
C2121 C2117 1.393 . S
C2121 C2120 1.391 . S
C2122 H2112 0.950 . S
C2122 C2123 1.386 . S
C2122 C2124 1.391 . S
C2123 C2122 1.386 . S
C2123 C2127 1.393 . S
C2124 H2113 0.950 . S
C2124 C2122 1.391 . S
C2124 C2125 1.400 . S
C2125 C2119 1.491 . S
C2125 C2124 1.400 . S
C2125 C2126 1.398 . S
C2126 H2114 0.950 . S
C2126 C2125 1.398 . S
C2126 C2127 1.391 . S
C2127 H2115 0.950 . S
C2127 C2123 1.393 . S
C2127 C2126 1.391 . S
H2128 C2136 0.950 . S
H2129 C2141 0.950 . S
H2130 C2138 0.950 . S
H2131 C2140 0.950 . S
H2132 C2142 0.950 . S
H2133 C2144 0.950 . S
H2134 C2146 0.950 . S
H2135 C2147 0.950 . S
C2136 H2128 0.950 . S
C2136 C2137 1.386 . S
C2136 C2138 1.391 . S
C2137 C2136 1.386 . S
C2137 C2141 1.393 . S
C2138 H2130 0.950 . S
C2138 C2136 1.391 . S
C2138 C2139 1.400 . S
C2139 C2138 1.400 . S
C2139 C2140 1.398 . S
C2139 C2145 1.491 . S
C2140 H2131 0.950 . S
C2140 C2139 1.398 . S
C2140 C2141 1.391 . S
C2141 H2129 0.950 . S
C2141 C2137 1.393 . S
C2141 C2140 1.391 . S
C2142 H2132 0.950 . S
C2142 C2143 1.386 . S
C2142 C2144 1.391 . S
C2143 C2142 1.386 . S
C2143 C2147 1.393 . S
C2144 H2133 0.950 . S
C2144 C2142 1.391 . S
C2144 C2145 1.400 . S
C2145 C2139 1.491 . S
C2145 C2144 1.400 . S
C2145 C2146 1.398 . S
C2146 H2134 0.950 . S
C2146 C2145 1.398 . S
C2146 C2147 1.391 . S
C2147 H2135 0.950 . S
C2147 C2143 1.393 . S
C2147 C2146 1.391 . S
H2148 C2156 0.950 . S
H2149 C2161 0.950 . S
H2150 C2158 0.950 . S
H2151 C2160 0.950 . S
H2152 C2162 0.950 . S
H2153 C2164 0.950 . S
H2154 C2166 0.950 . S
H2155 C2167 0.950 . S
C2156 H2148 0.950 . S
C2156 C2157 1.386 . S
C2156 C2158 1.391 . S
C2157 C2156 1.386 . S
C2157 C2161 1.393 . S
C2158 H2150 0.950 . S
C2158 C2156 1.391 . S
C2158 C2159 1.400 . S
C2159 C2158 1.400 . S
C2159 C2160 1.398 . S
C2159 C2165 1.491 . S
C2160 H2151 0.950 . S
C2160 C2159 1.398 . S
C2160 C2161 1.391 . S
C2161 H2149 0.950 . S
C2161 C2157 1.393 . S
C2161 C2160 1.391 . S
C2162 H2152 0.950 . S
C2162 C2163 1.386 . S
C2162 C2164 1.391 . S
C2163 C2162 1.386 . S
C2163 C2167 1.393 . S
C2164 H2153 0.950 . S
C2164 C2162 1.391 . S
C2164 C2165 1.400 . S
C2165 C2159 1.491 . S
C2165 C2164 1.400 . S
C2165 C2166 1.398 . S
C2166 H2154 0.950 . S
C2166 C2165 1.398 . S
C2166 C2167 1.391 . S
C2167 H2155 0.950 . S
C2167 C2163 1.393 . S
C2167 C2166 1.391 . S
H2168 C2176 0.950 . S
H2169 C2181 0.950 . S
H2170 C2178 0.937 1_655 S
H2171 C2180 0.950 . S
H2172 C2182 0.950 . S
H2173 C2184 0.937 1_455 S
H2174 C2186 0.950 . S
H2175 C2187 0.950 . S
C2176 H2168 0.950 . S
C2176 C2177 1.386 . S
C2176 C2178 1.391 . S
C2177 C2176 1.386 . S
C2177 C2181 1.393 . S
C2178 H2170 0.937 1_455 S
C2178 C2176 1.391 . S
C2178 C2179 1.400 . S
C2179 C2178 1.400 . S
C2179 C2180 1.398 . S
C2179 C2185 1.491 1_455 S
C2180 H2171 0.950 . S
C2180 C2179 1.398 . S
C2180 C2181 1.391 . S
C2181 H2169 0.950 . S
C2181 C2177 1.393 . S
C2181 C2180 1.391 . S
C2182 H2172 0.950 . S
C2182 C2183 1.386 . S
C2182 C2184 1.391 . S
C2183 C2182 1.386 . S
C2183 C2187 1.393 . S
C2184 H2173 0.937 1_655 S
C2184 C2182 1.391 . S
C2184 C2185 1.400 . S
C2185 C2179 1.491 1_655 S
C2185 C2184 1.400 . S
C2185 C2186 1.398 . S
C2186 H2174 0.950 . S
C2186 C2185 1.398 . S
C2186 C2187 1.391 . S
C2187 H2175 0.950 . S
C2187 C2183 1.393 . S
C2187 C2186 1.391 . S
H2188 C2196 0.950 . S
H2189 C2201 0.950 . S
H2190 C2198 0.950 . S
H2191 C2200 0.950 1_455 S
H2192 C2202 0.950 . S
H2193 C2204 0.950 . S
H2194 C2206 0.950 1_655 S
H2195 C2207 0.950 . S
C2196 H2188 0.950 . S
C2196 C2197 1.386 . S
C2196 C2198 1.391 . S
C2197 C2196 1.386 . S
C2197 C2201 1.393 . S
C2198 H2190 0.950 . S
C2198 C2196 1.391 . S
C2198 C2199 1.400 . S
C2199 C2198 1.400 . S
C2199 C2200 1.398 . S
C2199 C2205 1.491 1_655 S
C2200 H2191 0.950 1_655 S
C2200 C2199 1.398 . S
C2200 C2201 1.391 . S
C2201 H2189 0.950 . S
C2201 C2197 1.393 . S
C2201 C2200 1.391 . S
C2202 H2192 0.950 . S
C2202 C2203 1.386 . S
C2202 C2204 1.391 . S
C2203 C2202 1.386 . S
C2203 C2207 1.393 . S
C2204 H2193 0.950 . S
C2204 C2202 1.391 . S
C2204 C2205 1.400 . S
C2205 C2199 1.491 1_455 S
C2205 C2204 1.400 . S
C2205 C2206 1.398 . S
C2206 H2194 0.950 1_455 S
C2206 C2205 1.398 . S
C2206 C2207 1.391 . S
C2207 H2195 0.950 . S
C2207 C2203 1.393 . S
C2207 C2206 1.391 . S
H2208 C2216 0.950 . S
H2209 C2221 0.950 . S
H2210 C2218 0.950 . S
H2211 C2220 0.950 . S
H2212 C2222 0.950 . S
H2213 C2224 0.950 . S
H2214 C2226 0.950 . S
H2215 C2227 0.950 . S
C2216 H2208 0.950 . S
C2216 C2217 1.386 . S
C2216 C2218 1.391 . S
C2217 C2216 1.386 . S
C2217 C2221 1.393 . S
C2218 H2210 0.950 . S
C2218 C2216 1.391 . S
C2218 C2219 1.400 . S
C2219 C2218 1.400 . S
C2219 C2220 1.398 . S
C2219 C2225 1.491 . S
C2220 H2211 0.950 . S
C2220 C2219 1.398 . S
C2220 C2221 1.391 . S
C2221 H2209 0.950 . S
C2221 C2217 1.393 . S
C2221 C2220 1.391 . S
C2222 H2212 0.950 . S
C2222 C2223 1.386 . S
C2222 C2224 1.391 . S
C2223 C2222 1.386 . S
C2223 C2227 1.393 . S
C2224 H2213 0.950 . S
C2224 C2222 1.391 . S
C2224 C2225 1.400 . S
C2225 C2219 1.491 . S
C2225 C2224 1.400 . S
C2225 C2226 1.398 . S
C2226 H2214 0.950 . S
C2226 C2225 1.398 . S
C2226 C2227 1.391 . S
C2227 H2215 0.950 . S
C2227 C2223 1.393 . S
C2227 C2226 1.391 . S
H2228 C2236 0.950 . S
H2229 C2241 0.950 . S
H2230 C2238 0.950 . S
H2231 C2240 0.950 . S
H2232 C2242 0.950 . S
H2233 C2244 0.950 . S
H2234 C2246 0.950 . S
H2235 C2247 0.950 . S
C2236 H2228 0.950 . S
C2236 C2237 1.386 . S
C2236 C2238 1.391 . S
C2237 C2236 1.386 . S
C2237 C2241 1.393 . S
C2238 H2230 0.950 . S
C2238 C2236 1.391 . S
C2238 C2239 1.400 . S
C2239 C2238 1.400 . S
C2239 C2240 1.398 . S
C2239 C2245 1.491 1_655 S
C2240 H2231 0.950 . S
C2240 C2239 1.398 . S
C2240 C2241 1.391 . S
C2241 H2229 0.950 . S
C2241 C2237 1.393 . S
C2241 C2240 1.391 . S
C2242 H2232 0.950 . S
C2242 C2243 1.386 . S
C2242 C2244 1.391 . S
C2243 C2242 1.386 . S
C2243 C2247 1.393 . S
C2244 H2233 0.950 . S
C2244 C2242 1.391 . S
C2244 C2245 1.400 . S
C2245 C2239 1.491 1_455 S
C2245 C2244 1.400 . S
C2245 C2246 1.398 . S
C2246 H2234 0.950 . S
C2246 C2245 1.398 . S
C2246 C2247 1.391 . S
C2247 H2235 0.950 . S
C2247 C2243 1.393 . S
C2247 C2246 1.391 . S
H2248 C2256 0.950 . S
H2249 C2261 0.950 . S
H2250 C2258 0.950 1_455 S
H2251 C2260 0.950 . S
H2252 C2262 0.950 . S
H2253 C2264 0.950 1_655 S
H2254 C2266 0.950 . S
H2255 C2267 0.950 . S
C2256 H2248 0.950 . S
C2256 C2257 1.386 . S
C2256 C2258 1.391 . S
C2257 C2256 1.386 . S
C2257 C2261 1.393 . S
C2258 H2250 0.950 1_655 S
C2258 C2256 1.391 . S
C2258 C2259 1.400 . S
C2259 C2258 1.400 . S
C2259 C2260 1.398 . S
C2259 C2265 1.491 1_655 S
C2260 H2251 0.950 . S
C2260 C2259 1.398 . S
C2260 C2261 1.391 . S
C2261 H2249 0.950 . S
C2261 C2257 1.393 . S
C2261 C2260 1.391 . S
C2262 H2252 0.950 . S
C2262 C2263 1.386 . S
C2262 C2264 1.391 . S
C2263 C2262 1.386 . S
C2263 C2267 1.393 . S
C2264 H2253 0.950 1_455 S
C2264 C2262 1.391 . S
C2264 C2265 1.400 . S
C2265 C2259 1.491 1_455 S
C2265 C2264 1.400 . S
C2265 C2266 1.398 . S
C2266 H2254 0.950 . S
C2266 C2265 1.398 . S
C2266 C2267 1.391 . S
C2267 H2255 0.950 . S
C2267 C2263 1.393 . S
C2267 C2266 1.391 . S
H2268 C2276 0.950 . S
H2269 C2281 0.950 . S
H2270 C2278 0.950 . S
H2271 C2280 0.950 . S
H2272 C2282 0.950 . S
H2273 C2284 0.950 . S
H2274 C2286 0.950 . S
H2275 C2287 0.950 . S
C2276 H2268 0.950 . S
C2276 C2277 1.386 . S
C2276 C2278 1.391 . S
C2277 C2276 1.386 . S
C2277 C2281 1.393 . S
C2278 H2270 0.950 . S
C2278 C2276 1.391 . S
C2278 C2279 1.400 . S
C2279 C2278 1.400 . S
C2279 C2280 1.398 . S
C2279 C2285 1.491 . S
C2280 H2271 0.950 . S
C2280 C2279 1.398 . S
C2280 C2281 1.391 . S
C2281 H2269 0.950 . S
C2281 C2277 1.393 . S
C2281 C2280 1.391 . S
C2282 H2272 0.950 . S
C2282 C2283 1.386 . S
C2282 C2284 1.391 . S
C2283 C2282 1.386 . S
C2283 C2287 1.393 . S
C2284 H2273 0.950 . S
C2284 C2282 1.391 . S
C2284 C2285 1.400 . S
C2285 C2279 1.491 . S
C2285 C2284 1.400 . S
C2285 C2286 1.398 . S
C2286 H2274 0.950 . S
C2286 C2285 1.398 . S
C2286 C2287 1.391 . S
C2287 H2275 0.950 . S
C2287 C2283 1.393 . S
C2287 C2286 1.391 . S
H2288 C2296 0.950 . S
H2289 C2301 0.950 . S
H2290 C2298 0.950 . S
H2291 C2300 0.950 . S
H2292 C2302 0.950 . S
H2293 C2304 0.950 . S
H2294 C2306 0.950 . S
H2295 C2307 0.950 . S
C2296 H2288 0.950 . S
C2296 C2297 1.386 . S
C2296 C2298 1.391 . S
C2297 C2296 1.386 . S
C2297 C2301 1.393 . S
C2298 H2290 0.950 . S
C2298 C2296 1.391 . S
C2298 C2299 1.400 . S
C2299 C2298 1.400 . S
C2299 C2300 1.398 . S
C2299 C2305 1.491 . S
C2300 H2291 0.950 . S
C2300 C2299 1.398 . S
C2300 C2301 1.391 . S
C2301 H2289 0.950 . S
C2301 C2297 1.393 . S
C2301 C2300 1.391 . S
C2302 H2292 0.950 . S
C2302 C2303 1.386 . S
C2302 C2304 1.391 . S
C2303 C2302 1.386 . S
C2303 C2307 1.393 . S
C2304 H2293 0.950 . S
C2304 C2302 1.391 . S
C2304 C2305 1.400 . S
C2305 C2299 1.491 . S
C2305 C2304 1.400 . S
C2305 C2306 1.398 . S
C2306 H2294 0.950 . S
C2306 C2305 1.398 . S
C2306 C2307 1.391 . S
C2307 H2295 0.950 . S
C2307 C2303 1.393 . S
C2307 C2306 1.391 . S
H2308 C2316 0.950 . S
H2309 C2321 0.950 . S
H2310 C2318 0.950 . S
H2311 C2320 0.950 . S
H2312 C2322 0.950 . S
H2313 C2324 0.950 . S
H2314 C2326 0.950 . S
H2315 C2327 0.950 . S
C2316 H2308 0.950 . S
C2316 C2317 1.386 . S
C2316 C2318 1.391 . S
C2317 C2316 1.386 . S
C2317 C2321 1.393 . S
C2318 H2310 0.950 . S
C2318 C2316 1.391 . S
C2318 C2319 1.400 . S
C2319 C2318 1.400 . S
C2319 C2320 1.398 . S
C2319 C2325 1.491 . S
C2320 H2311 0.950 . S
C2320 C2319 1.398 . S
C2320 C2321 1.391 . S
C2321 H2309 0.950 . S
C2321 C2317 1.393 . S
C2321 C2320 1.391 . S
C2322 H2312 0.950 . S
C2322 C2323 1.386 . S
C2322 C2324 1.391 . S
C2323 C2322 1.386 . S
C2323 C2327 1.393 . S
C2324 H2313 0.950 . S
C2324 C2322 1.391 . S
C2324 C2325 1.400 . S
C2325 C2319 1.491 . S
C2325 C2324 1.400 . S
C2325 C2326 1.398 . S
C2326 H2314 0.950 . S
C2326 C2325 1.398 . S
C2326 C2327 1.391 . S
C2327 H2315 0.950 . S
C2327 C2323 1.393 . S
C2327 C2326 1.391 . S
H2328 C2336 0.950 . S
H2329 C2341 0.950 . S
H2330 C2338 0.950 1_455 S
H2331 C2340 0.950 . S
H2332 C2342 0.950 . S
H2333 C2344 0.950 1_655 S
H2334 C2346 0.950 . S
H2335 C2347 0.950 . S
C2336 H2328 0.950 . S
C2336 C2337 1.386 . S
C2336 C2338 1.391 . S
C2337 C2336 1.386 . S
C2337 C2341 1.393 . S
C2338 H2330 0.950 1_655 S
C2338 C2336 1.391 . S
C2338 C2339 1.400 . S
C2339 C2338 1.400 . S
C2339 C2340 1.398 . S
C2339 C2345 1.491 1_655 S
C2340 H2331 0.950 . S
C2340 C2339 1.398 . S
C2340 C2341 1.391 . S
C2341 H2329 0.950 . S
C2341 C2337 1.393 . S
C2341 C2340 1.391 . S
C2342 H2332 0.950 . S
C2342 C2343 1.386 . S
C2342 C2344 1.391 . S
C2343 C2342 1.386 . S
C2343 C2347 1.393 . S
C2344 H2333 0.950 1_455 S
C2344 C2342 1.391 . S
C2344 C2345 1.400 . S
C2345 C2339 1.491 1_455 S
C2345 C2344 1.400 . S
C2345 C2346 1.398 . S
C2346 H2334 0.950 . S
C2346 C2345 1.398 . S
C2346 C2347 1.391 . S
C2347 H2335 0.950 . S
C2347 C2343 1.393 . S
C2347 C2346 1.391 . S
H2348 C2356 0.950 . S
H2349 C2361 0.950 . S
H2350 C2358 0.950 . S
H2351 C2360 0.950 1_455 S
H2352 C2362 0.950 . S
H2353 C2364 0.950 . S
H2354 C2366 0.950 1_655 S
H2355 C2367 0.950 . S
C2356 H2348 0.950 . S
C2356 C2357 1.386 . S
C2356 C2358 1.391 . S
C2357 C2356 1.386 . S
C2357 C2361 1.393 . S
C2358 H2350 0.950 . S
C2358 C2356 1.391 . S
C2358 C2359 1.400 . S
C2359 C2358 1.400 . S
C2359 C2360 1.398 . S
C2359 C2365 1.491 1_655 S
C2360 H2351 0.950 1_655 S
C2360 C2359 1.398 . S
C2360 C2361 1.391 . S
C2361 H2349 0.950 . S
C2361 C2357 1.393 . S
C2361 C2360 1.391 . S
C2362 H2352 0.950 . S
C2362 C2363 1.386 . S
C2362 C2364 1.391 . S
C2363 C2362 1.386 . S
C2363 C2367 1.393 . S
C2364 H2353 0.950 . S
C2364 C2362 1.391 . S
C2364 C2365 1.400 . S
C2365 C2359 1.491 1_455 S
C2365 C2364 1.400 . S
C2365 C2366 1.398 . S
C2366 H2354 0.950 1_455 S
C2366 C2365 1.398 . S
C2366 C2367 1.391 . S
C2367 H2355 0.950 . S
C2367 C2363 1.393 . S
C2367 C2366 1.391 . S
H2368 C2376 0.950 . S
H2369 C2381 0.950 . S
H2370 C2378 0.950 1_545 S
H2371 C2380 0.950 . S
H2372 C2382 0.950 . S
H2373 C2384 0.950 1_565 S
H2374 C2386 0.950 . S
H2375 C2387 0.950 . S
C2376 H2368 0.950 . S
C2376 C2377 1.386 . S
C2376 C2378 1.391 . S
C2377 C2376 1.386 . S
C2377 C2381 1.393 . S
C2378 H2370 0.950 1_565 S
C2378 C2376 1.391 . S
C2378 C2379 1.400 . S
C2379 C2378 1.400 . S
C2379 C2380 1.398 . S
C2379 C2385 1.491 1_565 S
C2380 H2371 0.950 . S
C2380 C2379 1.398 . S
C2380 C2381 1.391 . S
C2381 H2369 0.950 . S
C2381 C2377 1.393 . S
C2381 C2380 1.391 . S
C2382 H2372 0.950 . S
C2382 C2383 1.386 . S
C2382 C2384 1.391 . S
C2383 C2382 1.386 . S
C2383 C2387 1.393 . S
C2384 H2373 0.950 1_545 S
C2384 C2382 1.391 . S
C2384 C2385 1.400 . S
C2385 C2379 1.491 1_545 S
C2385 C2384 1.400 . S
C2385 C2386 1.398 . S
C2386 H2374 0.950 . S
C2386 C2385 1.398 . S
C2386 C2387 1.391 . S
C2387 H2375 0.950 . S
C2387 C2383 1.393 . S
C2387 C2386 1.391 . S
H2388 C2396 0.950 . S
H2389 C2401 0.950 . S
H2390 C2398 0.950 . S
H2391 C2400 0.950 . S
H2392 C2402 0.950 . S
H2393 C2404 0.950 . S
H2394 C2406 0.950 . S
H2395 C2407 0.950 . S
C2396 H2388 0.950 . S
C2396 C2397 1.386 . S
C2396 C2398 1.391 . S
C2397 C2396 1.386 . S
C2397 C2401 1.393 . S
C2398 H2390 0.950 . S
C2398 C2396 1.391 . S
C2398 C2399 1.400 . S
C2399 C2398 1.400 . S
C2399 C2400 1.398 . S
C2399 C2405 1.491 . S
C2400 H2391 0.950 . S
C2400 C2399 1.398 . S
C2400 C2401 1.391 . S
C2401 H2389 0.950 . S
C2401 C2397 1.393 . S
C2401 C2400 1.391 . S
C2402 H2392 0.950 . S
C2402 C2403 1.386 . S
C2402 C2404 1.391 . S
C2403 C2402 1.386 . S
C2403 C2407 1.393 . S
C2404 H2393 0.950 . S
C2404 C2402 1.391 . S
C2404 C2405 1.400 . S
C2405 C2399 1.491 . S
C2405 C2404 1.400 . S
C2405 C2406 1.398 . S
C2406 H2394 0.950 . S
C2406 C2405 1.398 . S
C2406 C2407 1.391 . S
C2407 H2395 0.950 . S
C2407 C2403 1.393 . S
C2407 C2406 1.391 . S
H2408 C2416 0.950 . S
H2409 C2421 0.950 . S
H2410 C2418 0.950 1_545 S
H2411 C2420 0.950 . S
H2412 C2422 0.950 . S
H2413 C2424 0.950 1_565 S
H2414 C2426 0.950 . S
H2415 C2427 0.950 . S
C2416 H2408 0.950 . S
C2416 C2417 1.386 . S
C2416 C2418 1.391 . S
C2417 C2416 1.386 . S
C2417 C2421 1.393 . S
C2418 H2410 0.950 1_565 S
C2418 C2416 1.391 . S
C2418 C2419 1.400 . S
C2419 C2418 1.400 . S
C2419 C2420 1.398 . S
C2419 C2425 1.491 1_565 S
C2420 H2411 0.950 . S
C2420 C2419 1.398 . S
C2420 C2421 1.391 . S
C2421 H2409 0.950 . S
C2421 C2417 1.393 . S
C2421 C2420 1.391 . S
C2422 H2412 0.950 . S
C2422 C2423 1.386 . S
C2422 C2424 1.391 . S
C2423 C2422 1.386 . S
C2423 C2427 1.393 . S
C2424 H2413 0.950 1_545 S
C2424 C2422 1.391 . S
C2424 C2425 1.400 . S
C2425 C2419 1.491 1_545 S
C2425 C2424 1.400 . S
C2425 C2426 1.398 . S
C2426 H2414 0.950 . S
C2426 C2425 1.398 . S
C2426 C2427 1.391 . S
C2427 H2415 0.950 . S
C2427 C2423 1.393 . S
C2427 C2426 1.391 . S
H2428 C2436 0.950 . S
H2429 C2441 0.950 . S
H2430 C2438 0.950 1_556 S
H2431 C2440 0.950 . S
H2432 C2442 0.950 . S
H2433 C2444 0.950 1_554 S
H2434 C2446 0.950 . S
H2435 C2447 0.950 . S
C2436 H2428 0.950 . S
C2436 C2437 1.386 . S
C2436 C2438 1.391 . S
C2437 C2436 1.386 . S
C2437 C2441 1.393 . S
C2438 H2430 0.950 1_554 S
C2438 C2436 1.391 . S
C2438 C2439 1.400 . S
C2439 C2438 1.400 . S
C2439 C2440 1.398 . S
C2439 C2445 1.491 1_554 S
C2440 H2431 0.950 . S
C2440 C2439 1.398 . S
C2440 C2441 1.391 . S
C2441 H2429 0.950 . S
C2441 C2437 1.393 . S
C2441 C2440 1.391 . S
C2442 H2432 0.950 . S
C2442 C2443 1.386 . S
C2442 C2444 1.391 . S
C2443 C2442 1.386 . S
C2443 C2447 1.393 . S
C2444 H2433 0.950 1_556 S
C2444 C2442 1.391 . S
C2444 C2445 1.400 . S
C2445 C2439 1.491 1_556 S
C2445 C2444 1.400 . S
C2445 C2446 1.398 . S
C2446 H2434 0.950 . S
C2446 C2445 1.398 . S
C2446 C2447 1.391 . S
C2447 H2435 0.950 . S
C2447 C2443 1.393 . S
C2447 C2446 1.391 . S
H2448 C2456 0.950 . S
H2449 C2461 0.950 . S
H2450 C2458 0.950 1_545 S
H2451 C2460 0.950 . S
H2452 C2462 0.950 . S
H2453 C2464 0.950 1_565 S
H2454 C2466 0.950 . S
H2455 C2467 0.950 . S
C2456 H2448 0.950 . S
C2456 C2457 1.386 . S
C2456 C2458 1.391 . S
C2457 C2456 1.386 . S
C2457 C2461 1.393 . S
C2458 H2450 0.950 1_565 S
C2458 C2456 1.391 . S
C2458 C2459 1.400 . S
C2459 C2458 1.400 . S
C2459 C2460 1.398 . S
C2459 C2465 1.491 1_565 S
C2460 H2451 0.950 . S
C2460 C2459 1.398 . S
C2460 C2461 1.391 . S
C2461 H2449 0.950 . S
C2461 C2457 1.393 . S
C2461 C2460 1.391 . S
C2462 H2452 0.950 . S
C2462 C2463 1.386 . S
C2462 C2464 1.391 . S
C2463 C2462 1.386 . S
C2463 C2467 1.393 . S
C2464 H2453 0.950 1_545 S
C2464 C2462 1.391 . S
C2464 C2465 1.400 . S
C2465 C2459 1.491 1_545 S
C2465 C2464 1.400 . S
C2465 C2466 1.398 . S
C2466 H2454 0.950 . S
C2466 C2465 1.398 . S
C2466 C2467 1.391 . S
C2467 H2455 0.950 . S
C2467 C2463 1.393 . S
C2467 C2466 1.391 . S
H2468 C2476 0.950 . S
H2469 C2481 0.950 . S
H2470 C2478 0.950 . S
H2471 C2480 0.950 . S
H2472 C2482 0.950 . S
H2473 C2484 0.950 . S
H2474 C2486 0.950 . S
H2475 C2487 0.950 . S
C2476 H2468 0.950 . S
C2476 C2477 1.386 . S
C2476 C2478 1.391 . S
C2477 C2476 1.386 . S
C2477 C2481 1.393 . S
C2478 H2470 0.950 . S
C2478 C2476 1.391 . S
C2478 C2479 1.400 . S
C2479 C2478 1.400 . S
C2479 C2480 1.398 . S
C2479 C2485 1.491 . S
C2480 H2471 0.950 . S
C2480 C2479 1.398 . S
C2480 C2481 1.391 . S
C2481 H2469 0.950 . S
C2481 C2477 1.393 . S
C2481 C2480 1.391 . S
C2482 H2472 0.950 . S
C2482 C2483 1.386 . S
C2482 C2484 1.391 . S
C2483 C2482 1.386 . S
C2483 C2487 1.393 . S
C2484 H2473 0.950 . S
C2484 C2482 1.391 . S
C2484 C2485 1.400 . S
C2485 C2479 1.491 . S
C2485 C2484 1.400 . S
C2485 C2486 1.398 . S
C2486 H2474 0.950 . S
C2486 C2485 1.398 . S
C2486 C2487 1.391 . S
C2487 H2475 0.950 . S
C2487 C2483 1.393 . S
C2487 C2486 1.391 . S
H2488 C2496 0.950 . S
H2489 C2501 0.950 . S
H2490 C2498 0.950 1_565 S
H2491 C2500 0.950 . S
H2492 C2502 0.950 . S
H2493 C2504 0.950 1_545 S
H2494 C2506 0.950 . S
H2495 C2507 0.950 . S
C2496 H2488 0.950 . S
C2496 C2497 1.386 . S
C2496 C2498 1.391 . S
C2497 C2496 1.386 . S
C2497 C2501 1.393 . S
C2498 H2490 0.950 1_545 S
C2498 C2496 1.391 . S
C2498 C2499 1.400 . S
C2499 C2498 1.400 . S
C2499 C2500 1.398 . S
C2499 C2505 1.491 1_545 S
C2500 H2491 0.950 . S
C2500 C2499 1.398 . S
C2500 C2501 1.391 . S
C2501 H2489 0.950 . S
C2501 C2497 1.393 . S
C2501 C2500 1.391 . S
C2502 H2492 0.950 . S
C2502 C2503 1.386 . S
C2502 C2504 1.391 . S
C2503 C2502 1.386 . S
C2503 C2507 1.393 . S
C2504 H2493 0.950 1_565 S
C2504 C2502 1.391 . S
C2504 C2505 1.400 . S
C2505 C2499 1.491 1_565 S
C2505 C2504 1.400 . S
C2505 C2506 1.398 . S
C2506 H2494 0.950 . S
C2506 C2505 1.398 . S
C2506 C2507 1.391 . S
C2507 H2495 0.950 . S
C2507 C2503 1.393 . S
C2507 C2506 1.391 . S
H2508 C2516 0.950 . S
H2509 C2521 0.950 . S
H2510 C2518 0.950 . S
H2511 C2520 0.950 1_554 S
H2512 C2522 0.950 . S
H2513 C2524 0.950 . S
H2514 C2526 0.950 1_556 S
H2515 C2527 0.950 . S
C2516 H2508 0.950 . S
C2516 C2517 1.386 . S
C2516 C2518 1.391 . S
C2517 C2516 1.386 . S
C2517 C2521 1.393 . S
C2518 H2510 0.950 . S
C2518 C2516 1.391 . S
C2518 C2519 1.400 . S
C2519 C2518 1.400 . S
C2519 C2520 1.398 . S
C2519 C2525 1.491 1_556 S
C2520 H2511 0.950 1_556 S
C2520 C2519 1.398 . S
C2520 C2521 1.391 . S
C2521 H2509 0.950 . S
C2521 C2517 1.393 . S
C2521 C2520 1.391 . S
C2522 H2512 0.950 . S
C2522 C2523 1.386 . S
C2522 C2524 1.391 . S
C2523 C2522 1.386 . S
C2523 C2527 1.393 . S
C2524 H2513 0.950 . S
C2524 C2522 1.391 . S
C2524 C2525 1.400 . S
C2525 C2519 1.491 1_554 S
C2525 C2524 1.400 . S
C2525 C2526 1.398 . S
C2526 H2514 0.950 1_554 S
C2526 C2525 1.398 . S
C2526 C2527 1.391 . S
C2527 H2515 0.950 . S
C2527 C2523 1.393 . S
C2527 C2526 1.391 . S
H2528 C2536 0.950 . S
H2529 C2541 0.950 . S
H2530 C2538 0.950 . S
H2531 C2540 0.950 . S
H2532 C2542 0.950 . S
H2533 C2544 0.950 . S
H2534 C2546 0.950 . S
H2535 C2547 0.950 . S
C2536 H2528 0.950 . S
C2536 C2537 1.386 . S
C2536 C2538 1.391 . S
C2537 C2536 1.386 . S
C2537 C2541 1.393 . S
C2538 H2530 0.950 . S
C2538 C2536 1.391 . S
C2538 C2539 1.400 . S
C2539 C2538 1.400 . S
C2539 C2540 1.398 . S
C2539 C2545 1.491 . S
C2540 H2531 0.950 . S
C2540 C2539 1.398 . S
C2540 C2541 1.391 . S
C2541 H2529 0.950 . S
C2541 C2537 1.393 . S
C2541 C2540 1.391 . S
C2542 H2532 0.950 . S
C2542 C2543 1.386 . S
C2542 C2544 1.391 . S
C2543 C2542 1.386 . S
C2543 C2547 1.393 . S
C2544 H2533 0.950 . S
C2544 C2542 1.391 . S
C2544 C2545 1.400 . S
C2545 C2539 1.491 . S
C2545 C2544 1.400 . S
C2545 C2546 1.398 . S
C2546 H2534 0.950 . S
C2546 C2545 1.398 . S
C2546 C2547 1.391 . S
C2547 H2535 0.950 . S
C2547 C2543 1.393 . S
C2547 C2546 1.391 . S
H2548 C2556 0.950 . S
H2549 C2561 0.950 . S
H2550 C2558 0.950 . S
H2551 C2560 0.950 1_556 S
H2552 C2562 0.950 . S
H2553 C2564 0.950 . S
H2554 C2566 0.950 1_554 S
H2555 C2567 0.950 . S
C2556 H2548 0.950 . S
C2556 C2557 1.386 . S
C2556 C2558 1.391 . S
C2557 C2556 1.386 . S
C2557 C2561 1.393 . S
C2558 H2550 0.950 . S
C2558 C2556 1.391 . S
C2558 C2559 1.400 . S
C2559 C2558 1.400 . S
C2559 C2560 1.398 . S
C2559 C2565 1.491 1_554 S
C2560 H2551 0.950 1_554 S
C2560 C2559 1.398 . S
C2560 C2561 1.391 . S
C2561 H2549 0.950 . S
C2561 C2557 1.393 . S
C2561 C2560 1.391 . S
C2562 H2552 0.950 . S
C2562 C2563 1.386 . S
C2562 C2564 1.391 . S
C2563 C2562 1.386 . S
C2563 C2567 1.393 . S
C2564 H2553 0.950 . S
C2564 C2562 1.391 . S
C2564 C2565 1.400 . S
C2565 C2559 1.491 1_556 S
C2565 C2564 1.400 . S
C2565 C2566 1.398 . S
C2566 H2554 0.950 1_556 S
C2566 C2565 1.398 . S
C2566 C2567 1.391 . S
C2567 H2555 0.950 . S
C2567 C2563 1.393 . S
C2567 C2566 1.391 . S
H2568 C2576 0.950 . S
H2569 C2581 0.950 . S
H2570 C2578 0.950 . S
H2571 C2580 0.950 . S
H2572 C2582 0.950 . S
H2573 C2584 0.950 . S
H2574 C2586 0.950 . S
H2575 C2587 0.950 . S
C2576 H2568 0.950 . S
C2576 C2577 1.386 . S
C2576 C2578 1.391 . S
C2577 C2576 1.386 . S
C2577 C2581 1.393 . S
C2578 H2570 0.950 . S
C2578 C2576 1.391 . S
C2578 C2579 1.400 . S
C2579 C2578 1.400 . S
C2579 C2580 1.398 . S
C2579 C2585 1.491 . S
C2580 H2571 0.950 . S
C2580 C2579 1.398 . S
C2580 C2581 1.391 . S
C2581 H2569 0.950 . S
C2581 C2577 1.393 . S
C2581 C2580 1.391 . S
C2582 H2572 0.950 . S
C2582 C2583 1.386 . S
C2582 C2584 1.391 . S
C2583 C2582 1.386 . S
C2583 C2587 1.393 . S
C2584 H2573 0.950 . S
C2584 C2582 1.391 . S
C2584 C2585 1.400 . S
C2585 C2579 1.491 . S
C2585 C2584 1.400 . S
C2585 C2586 1.398 . S
C2586 H2574 0.950 . S
C2586 C2585 1.398 . S
C2586 C2587 1.391 . S
C2587 H2575 0.950 . S
C2587 C2583 1.393 . S
C2587 C2586 1.391 . S
H2588 C2596 0.950 . S
H2589 C2601 0.950 . S
H2590 C2598 0.950 . S
H2591 C2600 0.950 . S
H2592 C2602 0.950 . S
H2593 C2604 0.950 . S
H2594 C2606 0.950 . S
H2595 C2607 0.950 . S
C2596 H2588 0.950 . S
C2596 C2597 1.386 . S
C2596 C2598 1.391 . S
C2597 C2596 1.386 . S
C2597 C2601 1.393 . S
C2598 H2590 0.950 . S
C2598 C2596 1.391 . S
C2598 C2599 1.400 . S
C2599 C2598 1.400 . S
C2599 C2600 1.398 . S
C2599 C2605 1.491 . S
C2600 H2591 0.950 . S
C2600 C2599 1.398 . S
C2600 C2601 1.391 . S
C2601 H2589 0.950 . S
C2601 C2597 1.393 . S
C2601 C2600 1.391 . S
C2602 H2592 0.950 . S
C2602 C2603 1.386 . S
C2602 C2604 1.391 . S
C2603 C2602 1.386 . S
C2603 C2607 1.393 . S
C2604 H2593 0.950 . S
C2604 C2602 1.391 . S
C2604 C2605 1.400 . S
C2605 C2599 1.491 . S
C2605 C2604 1.400 . S
C2605 C2606 1.398 . S
C2606 H2594 0.950 . S
C2606 C2605 1.398 . S
C2606 C2607 1.391 . S
C2607 H2595 0.950 . S
C2607 C2603 1.393 . S
C2607 C2606 1.391 . S
H2608 C2616 0.950 . S
H2609 C2621 0.950 . S
H2610 C2618 0.950 . S
H2611 C2620 0.950 . S
H2612 C2622 0.950 . S
H2613 C2624 0.950 . S
H2614 C2626 0.950 . S
H2615 C2627 0.950 . S
C2616 H2608 0.950 . S
C2616 C2617 1.386 . S
C2616 C2618 1.391 . S
C2617 C2616 1.386 . S
C2617 C2621 1.393 . S
C2618 H2610 0.950 . S
C2618 C2616 1.391 . S
C2618 C2619 1.400 . S
C2619 C2618 1.400 . S
C2619 C2620 1.398 . S
C2619 C2625 1.491 . S
C2620 H2611 0.950 . S
C2620 C2619 1.398 . S
C2620 C2621 1.391 . S
C2621 H2609 0.950 . S
C2621 C2617 1.393 . S
C2621 C2620 1.391 . S
C2622 H2612 0.950 . S
C2622 C2623 1.386 . S
C2622 C2624 1.391 . S
C2623 C2622 1.386 . S
C2623 C2627 1.393 . S
C2624 H2613 0.950 . S
C2624 C2622 1.391 . S
C2624 C2625 1.400 . S
C2625 C2619 1.491 . S
C2625 C2624 1.400 . S
C2625 C2626 1.398 . S
C2626 H2614 0.950 . S
C2626 C2625 1.398 . S
C2626 C2627 1.391 . S
C2627 H2615 0.950 . S
C2627 C2623 1.393 . S
C2627 C2626 1.391 . S
H2628 C2636 0.950 . S
H2629 C2641 0.950 . S
H2630 C2638 0.950 . S
H2631 C2640 0.950 1_556 S
H2632 C2642 0.950 . S
H2633 C2644 0.950 . S
H2634 C2646 0.950 1_554 S
H2635 C2647 0.950 . S
C2636 H2628 0.950 . S
C2636 C2637 1.386 . S
C2636 C2638 1.391 . S
C2637 C2636 1.386 . S
C2637 C2641 1.393 . S
C2638 H2630 0.950 . S
C2638 C2636 1.391 . S
C2638 C2639 1.400 . S
C2639 C2638 1.400 . S
C2639 C2640 1.398 . S
C2639 C2645 1.491 1_554 S
C2640 H2631 0.950 1_554 S
C2640 C2639 1.398 . S
C2640 C2641 1.391 . S
C2641 H2629 0.950 . S
C2641 C2637 1.393 . S
C2641 C2640 1.391 . S
C2642 H2632 0.950 . S
C2642 C2643 1.386 . S
C2642 C2644 1.391 . S
C2643 C2642 1.386 . S
C2643 C2647 1.393 . S
C2644 H2633 0.950 . S
C2644 C2642 1.391 . S
C2644 C2645 1.400 . S
C2645 C2639 1.491 1_556 S
C2645 C2644 1.400 . S
C2645 C2646 1.398 . S
C2646 H2634 0.950 1_556 S
C2646 C2645 1.398 . S
C2646 C2647 1.391 . S
C2647 H2635 0.950 . S
C2647 C2643 1.393 . S
C2647 C2646 1.391 . S
H2648 C2656 0.950 . S
H2649 C2661 0.950 . S
H2650 C2658 0.950 . S
H2651 C2660 0.950 . S
H2652 C2662 0.950 . S
H2653 C2664 0.950 . S
H2654 C2666 0.950 . S
H2655 C2667 0.950 . S
C2656 H2648 0.950 . S
C2656 C2657 1.386 . S
C2656 C2658 1.391 . S
C2657 C2656 1.386 . S
C2657 C2661 1.393 . S
C2658 H2650 0.950 . S
C2658 C2656 1.391 . S
C2658 C2659 1.400 . S
C2659 C2658 1.400 . S
C2659 C2660 1.398 . S
C2659 C2665 1.491 . S
C2660 H2651 0.950 . S
C2660 C2659 1.398 . S
C2660 C2661 1.391 . S
C2661 H2649 0.950 . S
C2661 C2657 1.393 . S
C2661 C2660 1.391 . S
C2662 H2652 0.950 . S
C2662 C2663 1.386 . S
C2662 C2664 1.391 . S
C2663 C2662 1.386 . S
C2663 C2667 1.393 . S
C2664 H2653 0.950 . S
C2664 C2662 1.391 . S
C2664 C2665 1.400 . S
C2665 C2659 1.491 . S
C2665 C2664 1.400 . S
C2665 C2666 1.398 . S
C2666 H2654 0.950 . S
C2666 C2665 1.398 . S
C2666 C2667 1.391 . S
C2667 H2655 0.950 . S
C2667 C2663 1.393 . S
C2667 C2666 1.391 . S
H2668 C2676 0.950 . S
H2669 C2681 0.950 . S
H2670 C2678 0.950 . S
H2671 C2680 0.950 . S
H2672 C2682 0.950 . S
H2673 C2684 0.950 . S
H2674 C2686 0.950 . S
H2675 C2687 0.950 . S
C2676 H2668 0.950 . S
C2676 C2677 1.386 . S
C2676 C2678 1.391 . S
C2677 C2676 1.386 . S
C2677 C2681 1.393 . S
C2678 H2670 0.950 . S
C2678 C2676 1.391 . S
C2678 C2679 1.400 . S
C2679 C2678 1.400 . S
C2679 C2680 1.398 . S
C2679 C2685 1.491 . S
C2680 H2671 0.950 . S
C2680 C2679 1.398 . S
C2680 C2681 1.391 . S
C2681 H2669 0.950 . S
C2681 C2677 1.393 . S
C2681 C2680 1.391 . S
C2682 H2672 0.950 . S
C2682 C2683 1.386 . S
C2682 C2684 1.391 . S
C2683 C2682 1.386 . S
C2683 C2687 1.393 . S
C2684 H2673 0.950 . S
C2684 C2682 1.391 . S
C2684 C2685 1.400 . S
C2685 C2679 1.491 . S
C2685 C2684 1.400 . S
C2685 C2686 1.398 . S
C2686 H2674 0.950 . S
C2686 C2685 1.398 . S
C2686 C2687 1.391 . S
C2687 H2675 0.950 . S
C2687 C2683 1.393 . S
C2687 C2686 1.391 . S
C1097 C9 1.306 . S
C1103 C825 1.306 . S
C1117 C315 1.307 . S
C1123 C43 1.307 . S
C1137 C893 1.300 . S
C1143 C77 1.300 . S
C1157 C111 1.305 . S
C1163 C383 1.305 . S
C1177 C961 1.281 . S
C1183 C145 1.281 . S
C1197 C451 1.269 . S
C1203 C179 1.269 . S
C1217 C213 1.268 . S
C1223 C1029 1.268 . S
C1237 C247 1.291 . S
C1243 C519 1.291 . S
C1257 C281 1.297 . S
C1263 C553 1.297 . S
C1277 C349 1.289 . S
C1283 C621 1.289 . S
C1297 C689 1.266 . S
C1303 C417 1.266 . S
C1317 C485 1.274 . S
C1323 C757 1.274 . S
C1337 C587 1.286 . S
C1343 C859 1.286 . S
C1357 C927 1.282 . S
C1363 C655 1.282 . S
C1377 C995 1.297 . S
C1383 C723 1.297 . S
C1397 C791 1.307 . S
C1403 C1063 1.307 . S
C1417 C2 0.928 . S
C1423 C855 0.899 . S
C1437 C345 0.890 . S
C1443 C36 0.936 . S
C1457 C70 0.914 . S
C1463 C923 0.924 . S
C1477 C277 0.915 . S
C1483 C104 0.923 . S
C1497 C138 0.929 . S
C1503 C1059 0.905 . S
C1517 C172 0.935 . S
C1523 C413 0.889 . S
C1537 C991 0.899 . S
C1543 C206 0.932 . S
C1557 C481 0.928 . S
C1563 C240 0.912 . S
C1577 C583 0.890 . S
C1583 C274 0.936 . S
C1597 C73 0.910 . S
C1603 C308 0.926 . S
C1617 C342 0.935 . S
C1623 C651 0.893 . S
C1637 C376 0.934 . S
C1643 C5 0.890 . S
C1657 C787 0.921 . S
C1663 C410 0.916 . S
C1677 C141 0.895 . S
C1683 C444 0.931 . S
C1697 C478 0.914 . S
C1703 C719 0.929 . S
C1717 C512 0.933 . S
C1723 C209 0.897 . S
C1737 C311 0.892 . S
C1743 C546 0.932 . S
C1757 C889 0.927 . S
C1763 C580 0.913 . S
C1777 C379 0.899 . S
C1783 C614 0.932 . S
C1797 C648 0.918 . S
C1803 C821 0.923 . S
C1817 C515 0.925 . S
C1823 C682 0.917 . S
C1837 C716 0.921 . S
C1843 C957 0.911 . S
C1857 C447 0.917 . S
C1863 C750 0.917 . S
C1877 C784 0.930 . S
C1883 C1025 0.896 . S
C1897 C39 0.930 . S
C1903 C818 0.913 . S
C1917 C617 0.905 . S
C1923 C852 0.924 . S
C1937 C107 0.921 . S
C1943 C886 0.920 . S
C1957 C920 0.912 . S
C1963 C549 0.930 . S
C1977 C954 0.930 . S
C1983 C243 0.904 . S
C1997 C685 0.904 . S
C2003 C988 0.924 . S
C2017 C175 0.889 . S
C2023 C1022 0.935 . S
C2037 C1056 0.924 . S
C2043 C753 0.906 . S
C2057 C645 0.961 . S
C2063 C33 0.964 . S
C2077 C679 0.965 . S
C2083 C67 0.982 . S
C2097 C577 0.959 . S
C2103 C101 0.967 . S
C2117 C611 0.981 . S
C2123 C135 0.973 . S
C2137 C169 0.960 . S
C2143 C781 0.965 . S
C2157 C815 0.981 . S
C2163 C203 0.964 . S
C2177 C237 0.959 . S
C2183 C713 0.967 . S
C2197 C747 0.958 . S
C2203 C271 0.974 . S
C2217 C917 0.972 . S
C2223 C305 0.981 . S
C2237 C339 0.980 . S
C2243 C951 0.973 . S
C2257 C373 0.980 . S
C2263 C849 0.962 . S
C2277 C407 0.977 . S
C2283 C883 0.978 . S
C2297 C1053 0.959 . S
C2303 C441 0.977 . S
C2317 C475 0.964 . S
C2323 C1087 0.981 . S
C2337 C509 0.981 . S
C2343 C985 0.962 . S
C2357 C543 0.978 . S
C2363 C1019 0.960 . S
C2377 C156 2.079 . S
C2383 C20 2.080 . S
C2397 C190 2.079 . S
C2403 C54 2.080 . S
C2417 C88 2.080 . S
C2423 C224 2.083 . S
C2437 C258 2.081 . S
C2443 C122 2.079 . S
C2457 C292 2.083 . S
C2463 C428 2.080 . S
C2477 C462 2.079 . S
C2483 C326 2.080 . S
C2497 C360 2.083 . S
C2503 C496 2.080 . S
C2517 C530 2.083 . S
C2523 C394 2.081 . S
C2537 C564 2.082 . S
C2543 C700 2.083 . S
C2557 C734 2.079 . S
C2563 C598 2.081 . S
C2577 C768 2.083 . S
C2583 C632 2.082 . S
C2597 C666 2.080 . S
C2603 C802 2.079 . S
C2617 C972 2.083 . S
C2623 C836 2.082 . S
C2637 C870 2.080 . S
C2643 C1006 2.079 . S
C2657 C904 2.079 . S
C2663 C1040 2.080 . S
C2677 C938 2.079 . S
C2683 C1074 2.079 . S
