# Generated by pormake.
# Topology rac, (4)-cn, num edge types: 1
# Building blocks:
#     Node 0, Type 0, BuildingBlock: CEKHIL_clean_sbu_0, # of connection points: 4
#     Node 1, Type 0, BuildingBlock: CEKHIL_clean_sbu_0, # of connection points: 4
#     Node 2, Type 0, BuildingBlock: CEKHIL_clean_sbu_0, # of connection points: 4
#     Node 3, Type 0, BuildingBlock: CEKHIL_clean_sbu_0, # of connection points: 4
#     Node 4, Type 0, BuildingBlock: CEKHIL_clean_sbu_0, # of connection points: 4
#     Node 5, Type 0, BuildingBlock: CEKHIL_clean_sbu_0, # of connection points: 4
#     Node 6, Type 0, BuildingBlock: CEKHIL_clean_sbu_0, # of connection points: 4
#     Node 7, Type 0, BuildingBlock: CEKHIL_clean_sbu_0, # of connection points: 4
#     Edge 8, Type (0, 0), BuildingBlock: ZUJKAS_clean_linker_0, # of connection points: 2
#     Edge 9, Type (0, 0), BuildingBlock: ZUJKAS_clean_linker_0, # of connection points: 2
#     Edge 10, Type (0, 0), BuildingBlock: ZUJKAS_clean_linker_0, # of connection points: 2
#     Edge 11, Type (0, 0), BuildingBlock: ZUJKAS_clean_linker_0, # of connection points: 2
#     Edge 12, Type (0, 0), BuildingBlock: ZUJKAS_clean_linker_0, # of connection points: 2
#     Edge 13, Type (0, 0), BuildingBlock: ZUJKAS_clean_linker_0, # of connection points: 2
#     Edge 14, Type (0, 0), BuildingBlock: ZUJKAS_clean_linker_0, # of connection points: 2
#     Edge 15, Type (0, 0), BuildingBlock: ZUJKAS_clean_linker_0, # of connection points: 2
#     Edge 16, Type (0, 0), BuildingBlock: ZUJKAS_clean_linker_0, # of connection points: 2
#     Edge 17, Type (0, 0), BuildingBlock: ZUJKAS_clean_linker_0, # of connection points: 2
#     Edge 18, Type (0, 0), BuildingBlock: ZUJKAS_clean_linker_0, # of connection points: 2
#     Edge 19, Type (0, 0), BuildingBlock: ZUJKAS_clean_linker_0, # of connection points: 2
#     Edge 20, Type (0, 0), BuildingBlock: ZUJKAS_clean_linker_0, # of connection points: 2
#     Edge 21, Type (0, 0), BuildingBlock: ZUJKAS_clean_linker_0, # of connection points: 2
#     Edge 22, Type (0, 0), BuildingBlock: ZUJKAS_clean_linker_0, # of connection points: 2
#     Edge 23, Type (0, 0), BuildingBlock: ZUJKAS_clean_linker_0, # of connection points: 2
# Relax obj value: 0.233
# Max RMSD: 0.070
# Mean RMSD: 0.070
data_MOF--net-rac--node1-CEKHIL_clean_sbu_0--edge1-ZUJKAS_clean_linker_0
_symmetry_space_group_name_H-M    P1
_symmetry_Int_Tables_number       1
_symmetry_cell_setting            triclinic
loop_
_symmetry_equiv_pos_as_xyz
'x, y, z'
_cell_length_a     53.202492
_cell_length_b     27.411124
_cell_length_c     46.449906
_cell_angle_alpha  89.99926
_cell_angle_beta   90.005926
_cell_angle_gamma 89.913773
loop_
_atom_site_label
_atom_site_type_symbol
_atom_site_fract_x
_atom_site_fract_y
_atom_site_fract_z
_atom_type_partial_charge
Co0 Co 0.36961 0.29853 0.04749 0.0
O1 O 0.39297 0.35008 0.05442 0.0
O2 O 0.39782 0.29597 0.0199 0.0
C3 C 0.36635 0.2785 0.0946 0.0
O4 O 0.34746 0.23961 0.03609 0.0
Co5 Co 0.31698 0.31535 0.07577 0.0
O6 O 0.31055 0.24962 0.05974 0.0
C7 C 0.33211 0.37191 0.02509 0.0
C8 C 0.4063 0.33469 0.03313 0.0
C9 C 0.32496 0.2255 0.04298 0.0
O10 O 0.3503 0.34213 0.02046 0.0
O11 O 0.31862 0.37116 0.0479 0.0
O12 O 0.38433 0.26018 0.07904 0.0
O13 O 0.35263 0.31041 0.08174 0.0
Co14 Co 0.13406 0.72251 0.04921 0.0
O15 O 0.11321 0.66664 0.0554 0.0
O16 O 0.10789 0.71778 0.01932 0.0
C17 C 0.13293 0.74565 0.09588 0.0
O18 O 0.1533 0.78532 0.03817 0.0
Co19 Co 0.18542 0.72203 0.08196 0.0
O20 O 0.18572 0.79116 0.06959 0.0
C21 C 0.17817 0.66015 0.03077 0.0
C22 C 0.10042 0.67868 0.03292 0.0
C23 C 0.17214 0.80854 0.04942 0.0
O24 O 0.15752 0.6823 0.02491 0.0
O25 O 0.19068 0.66709 0.05397 0.0
O26 O 0.11502 0.75858 0.07846 0.0
O27 O 0.14948 0.71672 0.085 0.0
Co28 Co 0.36523 0.20942 0.44977 0.0
O29 O 0.38341 0.14944 0.44545 0.0
O30 O 0.3924 0.20434 0.47844 0.0
C31 C 0.36579 0.22605 0.40215 0.0
O32 O 0.34917 0.27637 0.45915 0.0
Co33 Co 0.31341 0.21806 0.41868 0.0
O34 O 0.31888 0.28829 0.42585 0.0
C35 C 0.31756 0.16492 0.47422 0.0
C36 C 0.3976 0.16227 0.46665 0.0
C37 C 0.3326 0.30357 0.44642 0.0
O38 O 0.34088 0.17655 0.47666 0.0
O39 O 0.30419 0.17551 0.45212 0.0
O40 O 0.38462 0.23865 0.41829 0.0
O41 O 0.34835 0.20169 0.41485 0.0
Co42 Co 0.13924 0.7884 0.44927 0.0
O43 O 0.12243 0.84988 0.44481 0.0
O44 O 0.11416 0.79836 0.47988 0.0
C45 C 0.13508 0.7682 0.40234 0.0
O46 O 0.15419 0.72073 0.45915 0.0
Co47 Co 0.18872 0.77267 0.41414 0.0
O48 O 0.18226 0.70372 0.42408 0.0
C49 C 0.18945 0.82996 0.46837 0.0
C50 C 0.10921 0.8399 0.46732 0.0
C51 C 0.16952 0.69129 0.4461 0.0
O52 O 0.16617 0.82027 0.47317 0.0
O53 O 0.20102 0.81716 0.44537 0.0
O54 O 0.11699 0.75935 0.42033 0.0
O55 O 0.15397 0.79147 0.41287 0.0
Co56 Co 0.63819 0.71723 0.94417 0.0
O57 O 0.62084 0.65664 0.93904 0.0
O58 O 0.61388 0.70617 0.97547 0.0
C59 C 0.63295 0.73969 0.89772 0.0
O60 O 0.65391 0.78382 0.95489 0.0
Co61 Co 0.68684 0.73338 0.90783 0.0
O62 O 0.68157 0.80189 0.9196 0.0
C63 C 0.68841 0.67273 0.96075 0.0
C64 C 0.60835 0.66553 0.96224 0.0
C65 C 0.66931 0.8134 0.94214 0.0
O66 O 0.66537 0.68306 0.9665 0.0
O67 O 0.69953 0.6865 0.93767 0.0
O68 O 0.61546 0.7485 0.91651 0.0
O69 O 0.65197 0.71551 0.90726 0.0
Co70 Co 0.87592 0.28426 0.94706 0.0
O71 O 0.89905 0.33609 0.93949 0.0
O72 O 0.90317 0.28497 0.97579 0.0
C73 C 0.87405 0.26033 0.90048 0.0
O74 O 0.85414 0.2255 0.95943 0.0
Co75 Co 0.8237 0.29632 0.91676 0.0
O76 O 0.8177 0.23161 0.93436 0.0
C77 C 0.83669 0.35669 0.96668 0.0
C78 C 0.91182 0.32262 0.96169 0.0
C79 C 0.83202 0.20975 0.95224 0.0
O80 O 0.85546 0.32883 0.97225 0.0
O81 O 0.82355 0.35359 0.94367 0.0
O82 O 0.89195 0.24441 0.91706 0.0
O83 O 0.85956 0.2924 0.91206 0.0
Co84 Co 0.63339 0.78243 0.54593 0.0
O85 O 0.61536 0.84258 0.55039 0.0
O86 O 0.60887 0.79147 0.5146 0.0
C87 C 0.62854 0.76092 0.59258 0.0
O88 O 0.64989 0.71606 0.53595 0.0
Co89 Co 0.6823 0.7696 0.5824 0.0
O90 O 0.6778 0.70051 0.57145 0.0
C91 C 0.68288 0.82939 0.52913 0.0
C92 C 0.603 0.83247 0.52727 0.0
C93 C 0.66566 0.68756 0.54909 0.0
O94 O 0.66012 0.81719 0.52325 0.0
O95 O 0.69413 0.81693 0.55241 0.0
O96 O 0.61108 0.75099 0.57395 0.0
O97 O 0.64719 0.78575 0.58277 0.0
Co98 Co 0.87155 0.21767 0.54585 0.0
O99 O 0.89189 0.16084 0.55158 0.0
O100 O 0.8985 0.21366 0.51676 0.0
C101 C 0.8719 0.23838 0.59299 0.0
O102 O 0.85268 0.28127 0.53529 0.0
Co103 Co 0.81964 0.2169 0.57756 0.0
O104 O 0.82008 0.28664 0.56647 0.0
C105 C 0.82786 0.15641 0.52596 0.0
C106 C 0.90522 0.17331 0.52963 0.0
C107 C 0.83385 0.3045 0.54664 0.0
O108 O 0.8484 0.179 0.52042 0.0
O109 O 0.81514 0.16243 0.5491 0.0
O110 O 0.89013 0.25196 0.57623 0.0
O111 O 0.85547 0.21044 0.58115 0.0
H112 H 0.34482 0.13218 0.03995 0.0
H113 H 0.32092 0.05675 0.03054 0.0
H114 H 0.25493 0.14272 0.01187 0.0
H115 H 0.27862 0.21698 0.02054 0.0
H116 H 0.2821 0.02628 0.06153 0.0
H117 H 0.24845 0.04324 0.94991 0.0
H118 H 0.27347 0.08081 0.9639 0.0
H119 H 0.24106 0.09761 0.96956 0.0
C120 C 0.32552 0.13478 0.03269 0.0
C121 C 0.31366 0.18049 0.03077 0.0
C122 C 0.31176 0.0917 0.02757 0.0
C123 C 0.28605 0.09374 0.0201 0.0
C124 C 0.27477 0.13968 0.01678 0.0
H125 H 0.17053 0.89627 0.07603 0.0
H126 H 0.19796 0.96582 0.06585 0.0
C127 C 0.28837 0.18231 0.02194 0.0
C128 C 0.27 0.0489 0.01935 0.0
H129 H 0.22249 0.99375 0.98168 0.0
C130 C 0.2694 0.01879 0.04381 0.0
C131 C 0.25348 0.0383 0.99619 0.0
C132 C 0.25435 0.06646 0.96831 0.0
C133 C 0.25204 0.98033 0.04637 0.0
C134 C 0.23416 0.97229 0.02421 0.0
C135 C 0.23565 1.00056 -0.00096 0.0
C136 C 0.2139 0.93474 0.02708 0.0
C137 C 0.25312 0.94863 0.07292 0.0
C138 C 0.21199 0.89592 0.00738 0.0
C139 C 0.19563 0.85672 0.01276 0.0
C140 C 0.18084 0.85583 0.03783 0.0
C141 C 0.18132 0.89647 0.05624 0.0
C142 C 0.1974 0.93578 0.05072 0.0
H143 H 0.27205 0.94949 0.08301 0.0
H144 H 0.23942 0.96242 0.08899 0.0
H145 H 0.24836 0.91016 0.06781 0.0
H146 H 0.22434 0.89432 0.98886 0.0
H147 H 0.19618 0.82525 -0.00135 0.0
H148 H 0.18673 0.67491 0.50059 0.0
H149 H 0.21504 0.60789 0.51442 0.0
H150 H 0.20055 0.53691 0.43331 0.0
H151 H 0.17251 0.60363 0.41949 0.0
H152 H 0.20732 0.47088 0.4814 0.0
H153 H 0.28381 0.6083 0.47103 0.0
H154 H 0.25888 0.62149 0.49603 0.0
H155 H 0.25235 0.61977 0.45815 0.0
C156 C 0.18859 0.64376 0.48639 0.0
C157 C 0.1772 0.64424 0.45907 0.0
C158 C 0.20513 0.60587 0.49409 0.0
C159 C 0.21035 0.56783 0.47464 0.0
C160 C 0.19694 0.56587 0.44864 0.0
H161 H 0.32703 0.38798 0.41692 0.0
H162 H 0.29956 0.4557 0.43055 0.0
C163 C 0.18068 0.60382 0.44086 0.0
C164 C 0.23167 0.53327 0.47933 0.0
H165 H 0.29591 0.52658 0.47643 0.0
C166 C 0.2267 0.48306 0.48098 0.0
C167 C 0.257 0.54917 0.4783 0.0
C168 C 0.26353 0.60254 0.4756 0.0
C169 C 0.24627 0.44836 0.48071 0.0
C170 C 0.27157 0.46421 0.4789 0.0
C171 C 0.27657 0.51447 0.47818 0.0
C172 C 0.29257 0.42914 0.47365 0.0
C173 C 0.23965 0.39484 0.48066 0.0
C174 C 0.29918 0.39325 0.49396 0.0
C175 C 0.31539 0.35479 0.48631 0.0
C176 C 0.32507 0.3516 0.4582 0.0
C177 C 0.32018 0.38992 0.43886 0.0
C178 C 0.30426 0.42843 0.44657 0.0
H179 H 0.21914 0.38868 0.47813 0.0
H180 H 0.24965 0.37567 0.46297 0.0
H181 H 0.2457 0.37816 0.5013 0.0
H182 H 0.29062 0.39334 0.51512 0.0
H183 H 0.31836 0.32527 0.50145 0.0
H184 H 0.66605 0.90524 0.92069 0.0
H185 H 0.6946 0.97225 0.93255 0.0
H186 H 0.72394 0.88897 0.00381 0.0
H187 H 0.69451 0.82275 0.99265 0.0
H188 H 0.72583 0.9862 0.01553 0.0
H189 H 0.76641 0.95195 0.90779 0.0
H190 H 0.73396 0.96929 0.9057 0.0
H191 H 0.74265 0.91314 0.92327 0.0
C192 C 0.67766 0.90235 0.93978 0.0
C193 C 0.67777 0.85908 0.95599 0.0
C194 C 0.69439 0.94023 0.94621 0.0
C195 C 0.71217 0.935 0.96841 0.0
C196 C 0.71064 0.8938 0.98638 0.0
H197 H 0.84836 0.11444 0.94988 0.0
H198 H 0.82228 0.04202 0.95943 0.0
C199 C 0.69353 0.85617 0.98024 0.0
C200 C 0.73359 0.97009 0.97104 0.0
H201 H 0.78061 0.02344 0.93199 0.0
C202 C 0.7379 0.9941 0.99731 0.0
C203 C 0.7501 0.9793 0.94768 0.0
C204 C 0.74826 0.95166 0.91964 0.0
C205 C 0.7573 0.02879 0.00033 0.0
C206 C 0.77252 0.04074 0.97625 0.0
C207 C 0.76895 0.0149 0.95046 0.0
C208 C 0.79055 0.0827 0.97625 0.0
C209 C 0.76132 0.05201 0.02939 0.0
C210 C 0.78192 0.1296 0.98336 0.0
C211 C 0.79688 0.17056 0.97825 0.0
C212 C 0.82084 0.16593 0.96577 0.0
C213 C 0.83025 0.11899 0.9602 0.0
C214 C 0.81519 0.07769 0.96535 0.0
H215 H 0.75583 0.02675 0.047 0.0
H216 H 0.78122 0.06289 0.0326 0.0
H217 H 0.74929 0.08498 0.03118 0.0
H218 H 0.76289 0.13508 0.99095 0.0
H219 H 0.78896 0.2064 0.98218 0.0
H220 H 0.66968 0.60008 0.57571 0.0
H221 H 0.69841 0.53434 0.5621 0.0
H222 H 0.71276 0.60594 0.48115 0.0
H223 H 0.68379 0.67205 0.4948 0.0
H224 H 0.70559 0.46849 0.51452 0.0
H225 H 0.78156 0.60709 0.52396 0.0
H226 H 0.75007 0.61831 0.5368 0.0
H227 H 0.75661 0.61974 0.49891 0.0
C228 C 0.67803 0.60066 0.55444 0.0
C229 C 0.67424 0.64097 0.5362 0.0
C230 C 0.69467 0.56325 0.54677 0.0
C231 C 0.7082 0.56561 0.52086 0.0
C232 C 0.70279 0.60361 0.50143 0.0
H233 H 0.81738 0.32512 0.49224 0.0
H234 H 0.78851 0.39201 0.47952 0.0
C235 C 0.68587 0.64096 0.50901 0.0
C236 C 0.72968 0.5313 0.51616 0.0
H237 H 0.79398 0.5256 0.51819 0.0
C238 C 0.72492 0.48099 0.51469 0.0
C239 C 0.75496 0.54757 0.51687 0.0
C240 C 0.7613 0.60104 0.5194 0.0
C241 C 0.74464 0.44657 0.51475 0.0
C242 C 0.7699 0.4628 0.51615 0.0
C243 C 0.77468 0.51316 0.51676 0.0
C244 C 0.79118 0.42804 0.52087 0.0
C245 C 0.73824 0.39295 0.51497 0.0
C246 C 0.80354 0.42772 0.54757 0.0
C247 C 0.8201 0.38989 0.55472 0.0
C248 C 0.82504 0.35192 0.53516 0.0
C249 C 0.81444 0.35452 0.50747 0.0
C250 C 0.79759 0.39228 0.50038 0.0
H251 H 0.71781 0.38649 0.51803 0.0
H252 H 0.74393 0.37638 0.49417 0.0
H253 H 0.74867 0.37392 0.53239 0.0
H254 H 0.79899 0.45484 0.56373 0.0
H255 H 0.82758 0.38828 0.5764 0.0
H256 H 0.34224 0.33573 0.13336 0.0
H257 H 0.34278 0.32876 0.18561 0.0
H258 H 0.38579 0.19552 0.17898 0.0
H259 H 0.38657 0.20409 0.12642 0.0
H260 H 0.32511 0.26734 0.22123 0.0
H261 H 0.42848 0.26709 0.23469 0.0
H262 H 0.41367 0.27948 0.20056 0.0
H263 H 0.4181 0.21752 0.21255 0.0
C264 C 0.35178 0.30484 0.14301 0.0
C265 C 0.36452 0.27058 0.12589 0.0
C266 C 0.3521 0.30093 0.17292 0.0
C267 C 0.36483 0.26225 0.18636 0.0
C268 C 0.3766 0.22664 0.1692 0.0
H269 H 0.33695 0.17954 0.36279 0.0
H270 H 0.337 0.19011 0.31076 0.0
C271 C 0.37677 0.23118 0.13918 0.0
C272 C 0.36534 0.25933 0.21828 0.0
H273 H 0.4043 0.2468 0.27623 0.0
C274 C 0.34248 0.26318 0.23322 0.0
C275 C 0.38803 0.25507 0.23406 0.0
C276 C 0.41346 0.25511 0.21965 0.0
C277 C 0.34159 0.26225 0.26337 0.0
C278 C 0.36409 0.25488 0.27907 0.0
C279 C 0.38702 0.25186 0.2642 0.0
C280 C 0.36416 0.24889 0.31081 0.0
C281 C 0.31657 0.27036 0.27796 0.0
C282 C 0.38019 0.27705 0.32821 0.0
C283 C 0.38071 0.27007 0.35806 0.0
C284 C 0.36499 0.23523 0.37092 0.0
C285 C 0.34896 0.20726 0.3535 0.0
C286 C 0.34884 0.2135 0.32374 0.0
H287 H 0.30376 0.29242 0.26424 0.0
H288 H 0.30739 0.2346 0.2817 0.0
H289 H 0.3188 0.2892 0.29896 0.0
H290 H 0.39232 0.30436 0.3187 0.0
H291 H 0.39331 0.29194 0.37104 0.0
H292 H 0.09344 0.74042 0.3719 0.0
H293 H 0.08961 0.7344 0.31928 0.0
H294 H 0.16835 0.7678 0.3103 0.0
H295 H 0.17237 0.77419 0.36259 0.0
H296 H 0.11691 0.82803 0.27919 0.0
H297 H 0.1395 0.63183 0.26086 0.0
H298 H 0.1226 0.65195 0.29248 0.0
H299 H 0.15545 0.66486 0.28907 0.0
C300 C 0.11 0.74567 0.35871 0.0
C301 C 0.13319 0.75797 0.37127 0.0
C302 C 0.10774 0.74242 0.32875 0.0
C303 C 0.12869 0.75091 0.31117 0.0
C304 C 0.15202 0.76126 0.32368 0.0
H305 H 0.17058 0.73217 0.13455 0.0
H306 H 0.16776 0.73714 0.18694 0.0
C307 C 0.15426 0.76481 0.35351 0.0
C308 C 0.12627 0.75168 0.2796 0.0
H309 H 0.13603 0.68213 0.21988 0.0
C310 C 0.12077 0.79614 0.26608 0.0
C311 C 0.13154 0.71 0.26291 0.0
C312 C 0.13757 0.66171 0.27687 0.0
C313 C 0.12117 0.80039 0.23597 0.0
C314 C 0.12687 0.75878 0.21916 0.0
C315 C 0.13173 0.71401 0.23283 0.0
C316 C 0.12895 0.76097 0.18741 0.0
C317 C 0.11651 0.84969 0.22251 0.0
C318 C 0.10823 0.77386 0.17029 0.0
C319 C 0.10992 0.77168 0.14026 0.0
C320 C 0.13222 0.75579 0.12702 0.0
C321 C 0.15315 0.74446 0.14419 0.0
C322 C 0.15153 0.74709 0.17411 0.0
H323 H 0.11854 0.87971 0.23841 0.0
H324 H 0.12967 0.85633 0.20439 0.0
H325 H 0.09705 0.85094 0.21393 0.0
H326 H 0.0905 0.78385 0.18011 0.0
H327 H 0.09343 0.78016 0.12753 0.0
H328 H 0.59017 0.76781 0.86934 0.0
H329 H 0.58364 0.7689 0.81699 0.0
H330 H 0.66167 0.73227 0.80397 0.0
H331 H 0.66828 0.7306 0.85594 0.0
H332 H 0.6079 0.82146 0.77157 0.0
H333 H 0.62311 0.62196 0.76263 0.0
H334 H 0.61707 0.6519 0.79658 0.0
H335 H 0.64809 0.65274 0.78118 0.0
C336 C 0.60599 0.76073 0.85526 0.0
C337 C 0.62967 0.74858 0.86666 0.0
C338 C 0.6022 0.76115 0.82544 0.0
C339 C 0.62203 0.74934 0.80677 0.0
C340 C 0.64599 0.74018 0.81811 0.0
H341 H 0.66365 0.77527 0.63409 0.0
H342 H 0.658 0.76896 0.68612 0.0
C343 C 0.64977 0.73961 0.84778 0.0
C344 C 0.6179 0.74559 0.7754 0.0
H345 H 0.62569 0.66783 0.71863 0.0
C346 C 0.61132 0.78772 0.76001 0.0
C347 C 0.62206 0.70128 0.76046 0.0
C348 C 0.62772 0.65426 0.77607 0.0
C349 C 0.61039 0.78734 0.72982 0.0
C350 C 0.61619 0.74385 0.71492 0.0
C351 C 0.62138 0.7011 0.73029 0.0
C352 C 0.61961 0.74373 0.68348 0.0
C353 C 0.60424 0.83373 0.71385 0.0
C354 C 0.6 0.73026 0.66497 0.0
C355 C 0.60316 0.73371 0.63512 0.0
C356 C 0.62597 0.7507 0.62359 0.0
C357 C 0.64583 0.76223 0.64232 0.0
C358 C 0.64266 0.75877 0.67201 0.0
H359 H 0.59732 0.86288 0.72848 0.0
H360 H 0.62134 0.84709 0.70268 0.0
H361 H 0.58975 0.82655 0.69717 0.0
H362 H 0.58211 0.71841 0.67363 0.0
H363 H 0.58753 0.72472 0.62116 0.0
H364 H 0.90848 0.28218 0.62535 0.0
H365 H 0.91088 0.28519 0.67809 0.0
H366 H 0.83818 0.21652 0.68388 0.0
H367 H 0.8357 0.21305 0.63143 0.0
H368 H 0.87813 0.32652 0.72006 0.0
H369 H 0.88519 0.12538 0.73024 0.0
H370 H 0.89013 0.15697 0.6966 0.0
H371 H 0.85876 0.14541 0.70926 0.0
C372 C 0.89289 0.26832 0.6379 0.0
C373 C 0.87201 0.24696 0.62433 0.0
C374 C 0.89433 0.2699 0.66796 0.0
C375 C 0.87497 0.24999 0.68476 0.0
C376 C 0.85356 0.23101 0.67123 0.0
H377 H 0.83776 0.28798 0.86267 0.0
H378 H 0.83938 0.28342 0.81019 0.0
C379 C 0.85211 0.22939 0.64127 0.0
C380 C 0.87711 0.24828 0.71646 0.0
H381 H 0.87692 0.16965 0.77349 0.0
C382 C 0.87806 0.29229 0.73177 0.0
C383 C 0.87753 0.20346 0.73159 0.0
C384 C 0.8781 0.15507 0.71611 0.0
C385 C 0.87834 0.2927 0.76196 0.0
C386 C 0.87722 0.24793 0.7771 0.0
C387 C 0.87737 0.20389 0.76178 0.0
C388 C 0.87529 0.24637 0.80883 0.0
C389 C 0.87982 0.34106 0.7774 0.0
C390 C 0.89431 0.22462 0.8254 0.0
C391 C 0.89331 0.22671 0.85548 0.0
C392 C 0.87325 0.25052 0.86929 0.0
C393 C 0.85356 0.26977 0.85261 0.0
C394 C 0.85454 0.26755 0.82264 0.0
H395 H 0.8875 0.37013 0.76325 0.0
H396 H 0.86067 0.35226 0.78418 0.0
H397 H 0.89178 0.33831 0.79694 0.0
H398 H 0.91034 0.20763 0.81507 0.0
H399 H 0.90874 0.21155 0.86781 0.0
H400 H 0.42587 0.41188 0.06148 0.0
H401 H 0.46108 0.46301 0.04847 0.0
H402 H 0.47509 0.37343 0.97384 0.0
H403 H 0.43874 0.3218 0.98653 0.0
H404 H 0.51008 0.44479 0.04339 0.0
H405 H 0.47232 0.50844 0.93832 0.0
H406 H 0.45338 0.47528 0.96388 0.0
H407 H 0.47569 0.44349 0.94167 0.0
C408 C 0.4363 0.40262 0.04221 0.0
C409 C 0.42923 0.36263 0.02493 0.0
C410 C 0.45661 0.43212 0.03485 0.0
C411 C 0.47067 0.42278 0.00998 0.0
C412 C 0.46422 0.38211 0.99287 0.0
H413 H 0.5966 0.57953 0.93689 0.0
H414 H 0.5639 0.52174 0.94956 0.0
C415 C 0.44359 0.35232 0.00023 0.0
C416 C 0.4918 0.45642 0.00256 0.0
H417 H 0.5122 0.53799 0.95199 0.0
C418 C 0.51054 0.46507 0.02335 0.0
C419 C 0.49239 0.48334 0.97654 0.0
C420 C 0.47229 0.47765 0.95388 0.0
C421 C 0.52976 0.4995 0.01883 0.0
C422 C 0.53023 0.52657 0.99292 0.0
C423 C 0.51173 0.51753 0.97197 0.0
C424 C 0.55052 0.56243 0.98634 0.0
C425 C 0.54966 0.50607 0.04163 0.0
C426 C 0.55408 0.60502 0.00286 0.0
C427 C 0.57303 0.63875 0.99561 0.0
C428 C 0.58865 0.63037 0.97169 0.0
C429 C 0.585 0.58748 0.95547 0.0
C430 C 0.5662 0.55419 0.96263 0.0
H431 H 0.54969 0.47561 0.05741 0.0
H432 H 0.56861 0.5087 0.03173 0.0
H433 H 0.54601 0.54048 0.05351 0.0
H434 H 0.54197 0.61256 0.02106 0.0
H435 H 0.57523 0.67144 0.00845 0.0
H436 H 0.07859 0.66621 0.97908 0.0
H437 H 0.04595 0.60597 0.96618 0.0
H438 H 0.04165 0.56039 0.05486 0.0
H439 H 0.07364 0.61966 0.06772 0.0
H440 H 0.04954 0.50209 0.97538 0.0
H441 H 0.96763 0.57927 0.0334 0.0
H442 H 0.99523 0.61485 0.02507 0.0
H443 H 0.99528 0.5739 0.05533 0.0
C444 C 0.07026 0.64397 0.99581 0.0
C445 C 0.0787 0.64779 0.0244 0.0
C446 C 0.05175 0.60939 0.98844 0.0
C447 C 0.04112 0.57892 0.00963 0.0
C448 C 0.04915 0.58387 0.03819 0.0
H449 H 0.93341 0.3358 0.01552 0.0
H450 H 0.96661 0.39505 0.02796 0.0
C451 C 0.06763 0.61776 0.04546 0.0
C452 C 0.02283 0.53968 0.00219 0.0
H453 H 0.96413 0.4965 0.01816 0.0
C454 C 0.03077 0.50112 0.98448 0.0
C455 C 0.99846 0.53791 0.01445 0.0
C456 C 0.98851 0.57889 0.03292 0.0
C457 C 0.01522 0.46059 0.97909 0.0
C458 C 0.99083 0.45882 0.99134 0.0
C459 C 0.98289 0.49743 0.00903 0.0
C460 C 0.97254 0.41939 0.98412 0.0
C461 C 0.02529 0.41951 0.96079 0.0
C462 C 0.96501 0.413 0.95547 0.0
C463 C 0.94627 0.37949 0.94845 0.0
C464 C 0.93439 0.35139 0.96985 0.0
C465 C 0.94242 0.35641 -0.00148 0.0
C466 C 0.96123 0.39051 0.00563 0.0
H467 H 0.04617 0.41875 0.96085 0.0
H468 H 0.01825 0.38362 0.96835 0.0
H469 H 0.01903 0.42485 0.93822 0.0
H470 H 0.97297 0.43532 0.93853 0.0
H471 H 0.94052 0.37671 0.92613 0.0
H472 H 0.5639 0.81682 0.48874 0.0
H473 H 0.52938 0.87388 0.4772 0.0
H474 H 0.56262 0.98196 0.53277 0.0
H475 H 0.59675 0.92621 0.54404 0.0
H476 H 0.4953 0.91682 0.51721 0.0
H477 H 0.54875 0.0605 0.45997 0.0
H478 H 0.56116 0.99992 0.46571 0.0
H479 H 0.56205 0.04436 0.49418 0.0
C480 C 0.564 0.85305 0.49804 0.0
C481 C 0.58313 0.86686 0.51726 0.0
C482 C 0.54424 0.88556 0.49157 0.0
C483 C 0.54354 0.93259 0.50384 0.0
C484 C 0.5629 0.94644 0.52255 0.0
H485 H 0.43756 0.18051 0.50373 0.0
H486 H 0.4729 0.12505 0.5148 0.0
C487 C 0.5824 0.91417 0.52911 0.0
C488 C 0.52204 0.9666 0.49872 0.0
H489 H 0.50745 0.08177 0.47549 0.0
C490 C 0.49793 0.95269 0.50783 0.0
C491 C 0.52547 0.01382 0.48693 0.0
C492 C 0.55071 0.03048 0.47589 0.0
C493 C 0.47731 0.98479 0.50583 0.0
C494 C 0.4807 0.03194 0.49391 0.0
C495 C 0.50483 0.04591 0.48488 0.0
C496 C 0.45909 0.06557 0.48852 0.0
C497 C 0.45211 0.96817 0.51704 0.0
C498 C 0.43974 0.05088 0.47003 0.0
C499 C 0.41977 0.08218 0.46376 0.0
C500 C 0.41854 0.12944 0.47564 0.0
C501 C 0.43783 0.14432 0.49438 0.0
C502 C 0.45805 0.11271 0.50061 0.0
H503 H 0.45418 0.9386 0.53324 0.0
H504 H 0.44157 0.99886 0.52696 0.0
H505 H 0.44081 0.95364 0.49889 0.0
H506 H 0.44028 0.01528 0.45992 0.0
H507 H 0.40536 0.06928 0.44917 0.0
H508 H 0.91668 0.08447 0.55134 0.0
H509 H 0.95165 0.03124 0.53978 0.0
H510 H 0.97761 0.13415 0.47625 0.0
H511 H 0.94218 0.18892 0.4881 0.0
H512 H 0.96414 0.98669 0.48858 0.0
H513 H 0.04067 0.10945 0.52568 0.0
H514 H 0.00809 0.12008 0.53458 0.0
H515 H 0.01961 0.13453 0.49926 0.0
C516 C 0.92974 0.09626 0.53487 0.0
C517 C 0.9266 0.14141 0.52077 0.0
C518 C 0.94979 0.06544 0.52825 0.0
C519 C 0.9675 0.07867 0.5074 0.0
C520 C 0.9644 0.12342 0.4928 0.0
H521 H 0.1014 0.93131 0.44698 0.0
H522 H 0.06725 0.98733 0.45765 0.0
C523 C 0.94407 0.15458 0.49943 0.0
C524 C 0.98891 0.04483 0.50136 0.0
H525 H 0.05276 0.03324 0.50658 0.0
C526 C 0.98354 0.99692 0.49245 0.0
C527 C 0.01421 0.05794 0.50662 0.0
C528 C 0.02113 0.10813 0.51729 0.0
C529 C 1.00269 0.96209 0.48834 0.0
C530 C 0.028 0.97503 0.49387 0.0
C531 C 0.03338 0.02306 0.50259 0.0
C532 C 0.04931 0.94042 0.48886 0.0
C533 C 0.99568 0.91207 0.47746 0.0
C534 C 0.05111 0.89528 0.50331 0.0
C535 C 0.07087 0.86259 0.49717 0.0
C536 C 0.08917 0.87462 0.47653 0.0
C537 C 0.08762 0.92046 0.46289 0.0
C538 C 0.06805 0.95282 0.469 0.0
H539 H 0.97656 0.91165 0.46782 0.0
H540 H 0.00935 0.89911 0.46108 0.0
H541 H 0.99586 0.88593 0.4957 0.0
H542 H 0.03717 0.8852 0.5192 0.0
H543 H 0.07152 0.82772 0.50811 0.0
H544 H 0.17842 0.66993 0.97217 0.0
H545 H 0.2021 0.61944 0.93762 0.0
H546 H 0.22504 0.52468 0.00703 0.0
H547 H 0.20225 0.57528 0.04134 0.0
H548 H 0.25633 0.60617 0.94614 0.0
H549 H 0.20812 0.42929 0.93968 0.0
H550 H 0.19154 0.48614 0.94584 0.0
H551 H 0.20565 0.45354 0.97545 0.0
C552 C 0.18806 0.63756 0.97978 0.0
C553 C 0.18874 0.62642 0.00935 0.0
C554 C 0.20146 0.60885 0.96007 0.0
C555 C 0.21489 0.56794 0.96972 0.0
C556 C 0.21431 0.5555 -0.00096 0.0
H557 H 0.32054 0.46697 0.03161 0.0
H558 H 0.29785 0.51791 -0.00242 0.0
C559 C 0.20152 0.58463 0.01869 0.0
C560 C 0.23315 0.54228 0.95121 0.0
H561 H 0.25433 0.42554 0.94902 0.0
C562 C 0.25571 0.56665 0.94515 0.0
C563 C 0.2322 0.49103 0.94868 0.0
C564 C 0.20792 0.46357 0.95244 0.0
C565 C 0.27829 0.54048 0.94294 0.0
C566 C 0.27793 0.48948 0.94725 0.0
C567 C 0.25478 0.46491 0.94667 0.0
C568 C 0.29867 0.46504 0.96282 0.0
C569 C 0.30263 0.56806 0.94014 0.0
C570 C 0.30741 0.41879 0.95445 0.0
C571 C 0.32069 0.38967 0.97405 0.0
C572 C 0.32469 0.40615 0.00233 0.0
C573 C 0.31764 0.45365 0.00989 0.0
C574 C 0.30494 0.48298 0.99025 0.0
H575 H 0.30038 0.59908 0.92496 0.0
H576 H 0.30789 0.58347 0.9614 0.0
H577 H 0.31809 0.54405 0.9325 0.0
H578 H 0.3024 0.40395 0.93362 0.0
H579 H 0.32583 0.35284 0.96792 0.0
H580 H 0.26849 0.1383 0.47753 0.0
H581 H 0.24926 0.0837 0.51137 0.0
H582 H 0.31873 0.07424 0.55922 0.0
H583 H 0.33878 0.1283 0.52401 0.0
H584 H 0.30493 0.98916 0.55012 0.0
H585 H 0.21849 0.07104 0.58701 0.0
H586 H 0.21868 0.08765 0.54985 0.0
H587 H 0.24358 0.10894 0.57331 0.0
C588 C 0.27973 0.12554 0.49547 0.0
C589 C 0.30535 0.13704 0.49766 0.0
C590 C 0.26844 0.09488 0.51541 0.0
C591 C 0.28225 0.07542 0.53853 0.0
C592 C 0.30755 0.08913 0.54182 0.0
H593 H 0.17574 0.85205 0.52413 0.0
H594 H 0.20002 0.89909 0.55946 0.0
C595 C 0.31902 0.11979 0.52156 0.0
C596 C 0.27143 0.03336 0.55441 0.0
H597 H 0.2121 0.98856 0.55864 0.0
C598 C 0.28477 0.98913 0.55351 0.0
C599 C 0.24552 0.03214 0.56127 0.0
C600 C 0.23097 0.07782 0.56828 0.0
C601 C 0.27186 0.94472 0.55197 0.0
C602 C 0.24533 0.9455 0.55001 0.0
C603 C 0.23248 0.98806 0.55819 0.0
C604 C 0.23195 0.91014 0.53132 0.0
C605 C 0.28672 0.89818 0.54884 0.0
C606 C 0.2416 0.9012 0.50365 0.0
C607 C 0.22792 0.87461 0.48362 0.0
C608 C 0.20391 0.85693 0.49042 0.0
C609 C 0.19418 0.86539 0.51818 0.0
C610 C 0.2081 0.89188 0.53848 0.0
H611 H 0.30237 0.89761 0.56467 0.0
H612 H 0.27482 0.86539 0.55212 0.0
H613 H 0.29531 0.89665 0.52707 0.0
H614 H 0.25934 0.91676 0.49689 0.0
H615 H 0.23598 0.86925 0.46244 0.0
H616 H 0.73675 0.64175 0.9553 0.0
H617 H 0.76103 0.59305 0.98868 0.0
H618 H 0.69878 0.59084 0.04819 0.0
H619 H 0.67374 0.63955 0.01425 0.0
H620 H 0.77512 0.60756 0.04795 0.0
H621 H 0.71329 0.44547 0.03242 0.0
H622 H 0.70976 0.49687 0.00853 0.0
H623 H 0.70089 0.50241 0.04568 0.0
C624 C 0.72808 0.63131 0.97547 0.0
C625 C 0.70315 0.64418 0.98189 0.0
C626 C 0.74213 0.60378 0.99473 0.0
C627 C 0.73175 0.58849 0.02096 0.0
C628 C 0.70709 0.60218 0.028 0.0
H629 H 0.82668 0.3399 0.02326 0.0
H630 H 0.80449 0.39564 0.05624 0.0
C631 C 0.69284 0.62984 0.00854 0.0
C632 C 0.74661 0.55407 0.03857 0.0
H633 H 0.75676 0.43173 0.03555 0.0
C634 C 0.77083 0.56893 0.04678 0.0
C635 C 0.74083 0.50376 0.038 0.0
C636 C 0.71479 0.4858 0.0308 0.0
C637 C 0.79052 0.53505 0.04836 0.0
C638 C 0.78554 0.48579 0.04177 0.0
C639 C 0.76055 0.4699 0.03991 0.0
C640 C 0.80443 0.45621 0.02639 0.0
C641 C 0.81696 0.55301 0.05285 0.0
C642 C 0.81187 0.47214 -0.00106 0.0
C643 C 0.82368 0.44023 0.97998 0.0
C644 C 0.82873 0.39221 0.98839 0.0
C645 C 0.8231 0.37713 0.01657 0.0
C646 C 0.81058 0.40883 0.0354 0.0
H647 H 0.81721 0.58465 0.06779 0.0
H648 H 0.82924 0.52367 0.06154 0.0
H649 H 0.82479 0.5653 0.03192 0.0
H650 H 0.80672 0.50815 0.99129 0.0
H651 H 0.82782 0.45237 0.95829 0.0
H652 H 0.73076 0.86269 0.53452 0.0
H653 H 0.75382 0.91471 0.50189 0.0
H654 H 0.69129 0.91514 0.4427 0.0
H655 H 0.66744 0.86311 0.47598 0.0
H656 H 0.76823 0.90526 0.44289 0.0
H657 H 0.70206 0.06043 0.46078 0.0
H658 H 0.69974 0.00741 0.48359 0.0
H659 H 0.69125 0.00324 0.44626 0.0
C660 C 0.72178 0.87339 0.51456 0.0
C661 C 0.69707 0.85914 0.50811 0.0
C662 C 0.73515 0.90285 0.49571 0.0
C663 C 0.7243 0.91875 0.46983 0.0
C664 C 0.69994 0.90345 0.46265 0.0
H665 H 0.81795 0.17236 0.46909 0.0
H666 H 0.79514 0.11689 0.43639 0.0
C667 C 0.68637 0.87384 0.48172 0.0
C668 C 0.73826 0.95544 0.45291 0.0
H669 H 0.74512 0.07845 0.4581 0.0
C670 C 0.76289 0.94336 0.44464 0.0
C671 C 0.73113 0.00511 0.45431 0.0
C672 C 0.70461 0.02022 0.46161 0.0
C673 C 0.78165 0.97914 0.44387 0.0
C674 C 0.7753 0.02754 0.45115 0.0
C675 C 0.74991 0.04091 0.45312 0.0
C676 C 0.79329 0.05791 0.46724 0.0
C677 C 0.80861 0.96395 0.43966 0.0
C678 C 0.79966 0.04283 0.49519 0.0
C679 C 0.81178 0.07458 0.51392 0.0
C680 C 0.8182 0.12157 0.50481 0.0
C681 C 0.81324 0.13593 0.47632 0.0
C682 C 0.80038 0.10442 0.45769 0.0
H683 H 0.80993 0.93202 0.42501 0.0
H684 H 0.81998 0.99442 0.4308 0.0
H685 H 0.81671 0.95319 0.46076 0.0
H686 H 0.79383 0.00742 0.50314 0.0
H687 H 0.81545 0.06297 0.53583 0.0
loop_
_geom_bond_atom_site_label_1
_geom_bond_atom_site_label_2
_geom_bond_distance
_geom_bond_site_symmetry_2
_ccdc_geom_bond_type
Co0 O1 2.216 . S
Co0 O2 2.091 . S
Co0 O4 2.004 . S
Co0 O10 2.021 . S
Co0 O12 2.137 . S
Co0 O13 2.244 . S
O1 Co0 2.216 . S
O1 C8 1.247 . S
O2 Co0 2.091 . S
O2 C8 1.261 . S
C3 O12 1.247 . S
C3 O13 1.272 . S
O4 Co0 2.004 . S
O4 C9 1.259 . S
Co5 O6 2.061 . S
Co5 O11 2.052 . S
Co5 O13 2.135 . S
O6 Co5 2.061 . S
O6 C9 1.235 . S
C7 O10 1.238 . S
C7 O11 1.241 . S
C8 O1 1.247 . S
C8 O2 1.261 . S
C9 O4 1.259 . S
C9 O6 1.235 . S
O10 Co0 2.021 . S
O10 C7 1.238 . S
O11 Co5 2.052 . S
O11 C7 1.241 . S
O12 Co0 2.137 . S
O12 C3 1.247 . S
O13 Co0 2.244 . S
O13 C3 1.272 . S
O13 Co5 2.135 . S
Co14 O15 2.216 . S
Co14 O16 2.091 . S
Co14 O18 2.004 . S
Co14 O24 2.021 . S
Co14 O26 2.137 . S
Co14 O27 2.244 . S
O15 Co14 2.216 . S
O15 C22 1.247 . S
O16 Co14 2.091 . S
O16 C22 1.261 . S
C17 O26 1.247 . S
C17 O27 1.272 . S
O18 Co14 2.004 . S
O18 C23 1.259 . S
Co19 O20 2.061 . S
Co19 O25 2.052 . S
Co19 O27 2.135 . S
O20 Co19 2.061 . S
O20 C23 1.235 . S
C21 O24 1.238 . S
C21 O25 1.241 . S
C22 O15 1.247 . S
C22 O16 1.261 . S
C23 O18 1.259 . S
C23 O20 1.235 . S
O24 Co14 2.021 . S
O24 C21 1.238 . S
O25 Co19 2.052 . S
O25 C21 1.241 . S
O26 Co14 2.137 . S
O26 C17 1.247 . S
O27 Co14 2.244 . S
O27 C17 1.272 . S
O27 Co19 2.135 . S
Co28 O29 2.216 . S
Co28 O30 2.091 . S
Co28 O32 2.004 . S
Co28 O38 2.021 . S
Co28 O40 2.137 . S
Co28 O41 2.244 . S
O29 Co28 2.216 . S
O29 C36 1.247 . S
O30 Co28 2.091 . S
O30 C36 1.261 . S
C31 O40 1.247 . S
C31 O41 1.272 . S
O32 Co28 2.004 . S
O32 C37 1.259 . S
Co33 O34 2.061 . S
Co33 O39 2.052 . S
Co33 O41 2.135 . S
O34 Co33 2.061 . S
O34 C37 1.235 . S
C35 O38 1.238 . S
C35 O39 1.241 . S
C36 O29 1.247 . S
C36 O30 1.261 . S
C37 O32 1.259 . S
C37 O34 1.235 . S
O38 Co28 2.021 . S
O38 C35 1.238 . S
O39 Co33 2.052 . S
O39 C35 1.241 . S
O40 Co28 2.137 . S
O40 C31 1.247 . S
O41 Co28 2.244 . S
O41 C31 1.272 . S
O41 Co33 2.135 . S
Co42 O43 2.216 . S
Co42 O44 2.091 . S
Co42 O46 2.004 . S
Co42 O52 2.021 . S
Co42 O54 2.137 . S
Co42 O55 2.244 . S
O43 Co42 2.216 . S
O43 C50 1.247 . S
O44 Co42 2.091 . S
O44 C50 1.261 . S
C45 O54 1.247 . S
C45 O55 1.272 . S
O46 Co42 2.004 . S
O46 C51 1.259 . S
Co47 O48 2.061 . S
Co47 O53 2.052 . S
Co47 O55 2.135 . S
O48 Co47 2.061 . S
O48 C51 1.235 . S
C49 O52 1.238 . S
C49 O53 1.241 . S
C50 O43 1.247 . S
C50 O44 1.261 . S
C51 O46 1.259 . S
C51 O48 1.235 . S
O52 Co42 2.021 . S
O52 C49 1.238 . S
O53 Co47 2.052 . S
O53 C49 1.241 . S
O54 Co42 2.137 . S
O54 C45 1.247 . S
O55 Co42 2.244 . S
O55 C45 1.272 . S
O55 Co47 2.135 . S
Co56 O57 2.216 . S
Co56 O58 2.091 . S
Co56 O60 2.004 . S
Co56 O66 2.021 . S
Co56 O68 2.137 . S
Co56 O69 2.244 . S
O57 Co56 2.216 . S
O57 C64 1.247 . S
O58 Co56 2.091 . S
O58 C64 1.261 . S
C59 O68 1.247 . S
C59 O69 1.272 . S
O60 Co56 2.004 . S
O60 C65 1.259 . S
Co61 O62 2.061 . S
Co61 O67 2.052 . S
Co61 O69 2.135 . S
O62 Co61 2.061 . S
O62 C65 1.235 . S
C63 O66 1.238 . S
C63 O67 1.241 . S
C64 O57 1.247 . S
C64 O58 1.261 . S
C65 O60 1.259 . S
C65 O62 1.235 . S
O66 Co56 2.021 . S
O66 C63 1.238 . S
O67 Co61 2.052 . S
O67 C63 1.241 . S
O68 Co56 2.137 . S
O68 C59 1.247 . S
O69 Co56 2.244 . S
O69 C59 1.272 . S
O69 Co61 2.135 . S
Co70 O71 2.216 . S
Co70 O72 2.091 . S
Co70 O74 2.004 . S
Co70 O80 2.021 . S
Co70 O82 2.137 . S
Co70 O83 2.244 . S
O71 Co70 2.216 . S
O71 C78 1.247 . S
O72 Co70 2.091 . S
O72 C78 1.261 . S
C73 O82 1.247 . S
C73 O83 1.272 . S
O74 Co70 2.004 . S
O74 C79 1.259 . S
Co75 O76 2.061 . S
Co75 O81 2.052 . S
Co75 O83 2.135 . S
O76 Co75 2.061 . S
O76 C79 1.235 . S
C77 O80 1.238 . S
C77 O81 1.241 . S
C78 O71 1.247 . S
C78 O72 1.261 . S
C79 O74 1.259 . S
C79 O76 1.235 . S
O80 Co70 2.021 . S
O80 C77 1.238 . S
O81 Co75 2.052 . S
O81 C77 1.241 . S
O82 Co70 2.137 . S
O82 C73 1.247 . S
O83 Co70 2.244 . S
O83 C73 1.272 . S
O83 Co75 2.135 . S
Co84 O85 2.216 . S
Co84 O86 2.091 . S
Co84 O88 2.004 . S
Co84 O94 2.021 . S
Co84 O96 2.137 . S
Co84 O97 2.244 . S
O85 Co84 2.216 . S
O85 C92 1.247 . S
O86 Co84 2.091 . S
O86 C92 1.261 . S
C87 O96 1.247 . S
C87 O97 1.272 . S
O88 Co84 2.004 . S
O88 C93 1.259 . S
Co89 O90 2.061 . S
Co89 O95 2.052 . S
Co89 O97 2.135 . S
O90 Co89 2.061 . S
O90 C93 1.235 . S
C91 O94 1.238 . S
C91 O95 1.241 . S
C92 O85 1.247 . S
C92 O86 1.261 . S
C93 O88 1.259 . S
C93 O90 1.235 . S
O94 Co84 2.021 . S
O94 C91 1.238 . S
O95 Co89 2.052 . S
O95 C91 1.241 . S
O96 Co84 2.137 . S
O96 C87 1.247 . S
O97 Co84 2.244 . S
O97 C87 1.272 . S
O97 Co89 2.135 . S
Co98 O99 2.216 . S
Co98 O100 2.091 . S
Co98 O102 2.004 . S
Co98 O108 2.021 . S
Co98 O110 2.137 . S
Co98 O111 2.244 . S
O99 Co98 2.216 . S
O99 C106 1.247 . S
O100 Co98 2.091 . S
O100 C106 1.261 . S
C101 O110 1.247 . S
C101 O111 1.272 . S
O102 Co98 2.004 . S
O102 C107 1.259 . S
Co103 O104 2.061 . S
Co103 O109 2.052 . S
Co103 O111 2.135 . S
O104 Co103 2.061 . S
O104 C107 1.235 . S
C105 O108 1.238 . S
C105 O109 1.241 . S
C106 O99 1.247 . S
C106 O100 1.261 . S
C107 O102 1.259 . S
C107 O104 1.235 . S
O108 Co98 2.021 . S
O108 C105 1.238 . S
O109 Co103 2.052 . S
O109 C105 1.241 . S
O110 Co98 2.137 . S
O110 C101 1.247 . S
O111 Co98 2.244 . S
O111 C101 1.272 . S
O111 Co103 2.135 . S
H112 C120 0.929 . S
H113 C122 0.930 . S
H114 C124 0.930 . S
H115 C127 0.929 . S
H116 C130 0.930 . S
H117 C132 0.960 . S
H118 C132 0.960 . S
H119 C132 0.960 1_554 S
C120 H112 0.929 . S
C120 C121 1.377 . S
C120 C122 1.384 . S
C121 C120 1.377 . S
C121 C127 1.390 . S
C122 H113 0.930 . S
C122 C120 1.384 . S
C122 C123 1.372 . S
C123 C122 1.372 . S
C123 C124 1.400 . S
C123 C128 1.490 . S
C124 H114 0.930 . S
C124 C123 1.400 . S
C124 C127 1.386 . S
H125 C141 0.930 . S
H126 C142 0.931 . S
C127 H115 0.929 . S
C127 C121 1.390 . S
C127 C124 1.386 . S
C128 C123 1.490 . S
C128 C130 1.395 1_545 S
C128 C131 1.403 . S
H129 C135 0.931 . S
C130 H116 0.930 . S
C130 C128 1.395 1_565 S
C130 C133 1.403 . S
C131 C128 1.403 . S
C131 C132 1.524 1_554 S
C131 C135 1.408 . S
C132 H117 0.960 . S
C132 H118 0.960 . S
C132 H119 0.960 1_556 S
C132 C131 1.524 1_556 S
C133 C130 1.403 . S
C133 C134 1.392 . S
C133 C137 1.495 . S
C134 C133 1.392 . S
C134 C135 1.376 1_565 S
C134 C136 1.478 . S
C135 H129 0.931 . S
C135 C131 1.408 . S
C135 C134 1.376 1_545 S
C136 C134 1.478 . S
C136 C138 1.381 . S
C136 C142 1.383 . S
C137 C133 1.495 . S
C137 H143 0.959 . S
C137 H144 0.961 . S
C137 H145 0.960 . S
C138 C136 1.381 . S
C138 C139 1.394 . S
C138 H146 0.930 . S
C139 C138 1.394 . S
C139 C140 1.383 . S
C139 H147 0.925 1_554 S
C140 C139 1.383 . S
C140 C141 1.377 . S
C141 H125 0.930 . S
C141 C140 1.377 . S
C141 C142 1.379 . S
C142 H126 0.931 . S
C142 C136 1.383 . S
C142 C141 1.379 . S
H143 C137 0.959 . S
H144 C137 0.961 . S
H145 C137 0.960 . S
H146 C138 0.930 . S
H147 C139 0.925 1_556 S
H148 C156 0.929 . S
H149 C158 0.930 . S
H150 C160 0.930 . S
H151 C163 0.929 . S
H152 C166 0.930 . S
H153 C168 0.960 . S
H154 C168 0.960 . S
H155 C168 0.960 . S
C156 H148 0.929 . S
C156 C157 1.377 . S
C156 C158 1.384 . S
C157 C156 1.377 . S
C157 C163 1.390 . S
C158 H149 0.930 . S
C158 C156 1.384 . S
C158 C159 1.372 . S
C159 C158 1.372 . S
C159 C160 1.400 . S
C159 C164 1.490 . S
C160 H150 0.930 . S
C160 C159 1.400 . S
C160 C163 1.386 . S
H161 C177 0.930 . S
H162 C178 0.931 . S
C163 H151 0.929 . S
C163 C157 1.390 . S
C163 C160 1.386 . S
C164 C159 1.490 . S
C164 C166 1.395 . S
C164 C167 1.403 . S
H165 C171 0.930 . S
C166 H152 0.930 . S
C166 C164 1.395 . S
C166 C169 1.403 . S
C167 C164 1.403 . S
C167 C168 1.524 . S
C167 C171 1.400 . S
C168 H153 0.960 . S
C168 H154 0.960 . S
C168 H155 0.960 . S
C168 C167 1.524 . S
C169 C166 1.403 . S
C169 C170 1.392 . S
C169 C173 1.495 . S
C170 C169 1.392 . S
C170 C171 1.385 . S
C170 C172 1.478 . S
C171 H165 0.930 . S
C171 C167 1.400 . S
C171 C170 1.385 . S
C172 C170 1.478 . S
C172 C174 1.381 . S
C172 C178 1.383 . S
C173 C169 1.495 . S
C173 H179 0.959 . S
C173 H180 0.961 . S
C173 H181 0.960 . S
C174 C172 1.381 . S
C174 C175 1.394 . S
C174 H182 0.930 . S
C175 C174 1.394 . S
C175 C176 1.383 . S
C175 H183 0.929 . S
C176 C175 1.383 . S
C176 C177 1.377 . S
C177 H161 0.930 . S
C177 C176 1.377 . S
C177 C178 1.379 . S
C178 H162 0.931 . S
C178 C172 1.383 . S
C178 C177 1.379 . S
H179 C173 0.959 . S
H180 C173 0.961 . S
H181 C173 0.960 . S
H182 C174 0.930 . S
H183 C175 0.929 . S
H184 C192 0.929 1_554 S
H185 C194 0.930 1_554 S
H186 C196 0.930 . S
H187 C199 0.929 . S
H188 C202 0.930 . S
H189 C204 0.960 1_545 S
H190 C204 0.960 1_545 S
H191 C204 0.960 . S
C192 H184 0.929 1_556 S
C192 C193 1.377 . S
C192 C194 1.384 . S
C193 C192 1.377 . S
C193 C199 1.390 . S
C194 H185 0.930 1_556 S
C194 C192 1.384 . S
C194 C195 1.372 . S
C195 C194 1.372 . S
C195 C196 1.400 . S
C195 C200 1.490 . S
C196 H186 0.930 . S
C196 C195 1.400 . S
C196 C199 1.386 . S
H197 C213 0.930 . S
H198 C214 0.931 . S
C199 H187 0.929 . S
C199 C193 1.390 . S
C199 C196 1.386 . S
C200 C195 1.490 . S
C200 C202 1.395 1_556 S
C200 C203 1.403 . S
H201 C207 0.930 . S
C202 H188 0.930 . S
C202 C200 1.395 1_554 S
C202 C205 1.403 1_565 S
C203 C200 1.403 . S
C203 C204 1.524 . S
C203 C207 1.400 1_565 S
C204 H189 0.960 1_565 S
C204 H190 0.960 1_565 S
C204 H191 0.960 . S
C204 C203 1.524 . S
C205 C202 1.403 1_545 S
C205 C206 1.392 1_554 S
C205 C209 1.495 . S
C206 C205 1.392 1_556 S
C206 C207 1.385 . S
C206 C208 1.478 . S
C207 H201 0.930 . S
C207 C203 1.400 1_545 S
C207 C206 1.385 . S
C208 C206 1.478 . S
C208 C210 1.381 . S
C208 C214 1.383 . S
C209 C205 1.495 . S
C209 H215 0.959 1_545 S
C209 H216 0.963 . S
C209 H217 0.960 . S
C210 C208 1.381 . S
C210 C211 1.394 . S
C210 H218 0.930 1_556 S
C211 C210 1.394 . S
C211 C212 1.383 . S
C211 H219 0.929 1_556 S
C212 C211 1.383 . S
C212 C213 1.377 . S
C213 H197 0.930 . S
C213 C212 1.377 . S
C213 C214 1.379 . S
C214 H198 0.931 . S
C214 C208 1.383 . S
C214 C213 1.379 . S
H215 C209 0.959 1_565 S
H216 C209 0.963 . S
H217 C209 0.960 . S
H218 C210 0.930 1_554 S
H219 C211 0.929 1_554 S
H220 C228 0.929 . S
H221 C230 0.930 . S
H222 C232 0.930 . S
H223 C235 0.929 . S
H224 C238 0.930 . S
H225 C240 0.960 . S
H226 C240 0.960 . S
H227 C240 0.960 . S
C228 H220 0.929 . S
C228 C229 1.377 . S
C228 C230 1.384 . S
C229 C228 1.377 . S
C229 C235 1.390 . S
C230 H221 0.930 . S
C230 C228 1.384 . S
C230 C231 1.372 . S
C231 C230 1.372 . S
C231 C232 1.400 . S
C231 C236 1.490 . S
C232 H222 0.930 . S
C232 C231 1.400 . S
C232 C235 1.386 . S
H233 C249 0.930 . S
H234 C250 0.931 . S
C235 H223 0.929 . S
C235 C229 1.390 . S
C235 C232 1.386 . S
C236 C231 1.490 . S
C236 C238 1.395 . S
C236 C239 1.403 . S
H237 C243 0.930 . S
C238 H224 0.930 . S
C238 C236 1.395 . S
C238 C241 1.403 . S
C239 C236 1.403 . S
C239 C240 1.524 . S
C239 C243 1.400 . S
C240 H225 0.960 . S
C240 H226 0.960 . S
C240 H227 0.960 . S
C240 C239 1.524 . S
C241 C238 1.403 . S
C241 C242 1.392 . S
C241 C245 1.495 . S
C242 C241 1.392 . S
C242 C243 1.385 . S
C242 C244 1.478 . S
C243 H237 0.930 . S
C243 C239 1.400 . S
C243 C242 1.385 . S
C244 C242 1.478 . S
C244 C246 1.381 . S
C244 C250 1.383 . S
C245 C241 1.495 . S
C245 H251 0.959 . S
C245 H252 0.961 . S
C245 H253 0.960 . S
C246 C244 1.381 . S
C246 C247 1.394 . S
C246 H254 0.930 . S
C247 C246 1.394 . S
C247 C248 1.383 . S
C247 H255 0.929 . S
C248 C247 1.383 . S
C248 C249 1.377 . S
C249 H233 0.930 . S
C249 C248 1.377 . S
C249 C250 1.379 . S
C250 H234 0.931 . S
C250 C244 1.383 . S
C250 C249 1.379 . S
H251 C245 0.959 . S
H252 C245 0.961 . S
H253 C245 0.960 . S
H254 C246 0.930 . S
H255 C247 0.929 . S
H256 C264 0.929 . S
H257 C266 0.930 . S
H258 C268 0.930 . S
H259 C271 0.929 . S
H260 C274 0.930 . S
H261 C276 0.960 . S
H262 C276 0.960 . S
H263 C276 0.960 . S
C264 H256 0.929 . S
C264 C265 1.377 . S
C264 C266 1.384 . S
C265 C264 1.377 . S
C265 C271 1.390 . S
C266 H257 0.930 . S
C266 C264 1.384 . S
C266 C267 1.372 . S
C267 C266 1.372 . S
C267 C268 1.400 . S
C267 C272 1.490 . S
C268 H258 0.930 . S
C268 C267 1.400 . S
C268 C271 1.386 . S
H269 C285 0.930 . S
H270 C286 0.931 . S
C271 H259 0.929 . S
C271 C265 1.390 . S
C271 C268 1.386 . S
C272 C267 1.490 . S
C272 C274 1.395 . S
C272 C275 1.403 . S
H273 C279 0.930 . S
C274 H260 0.930 . S
C274 C272 1.395 . S
C274 C277 1.403 . S
C275 C272 1.403 . S
C275 C276 1.524 . S
C275 C279 1.400 . S
C276 H261 0.960 . S
C276 H262 0.960 . S
C276 H263 0.960 . S
C276 C275 1.524 . S
C277 C274 1.403 . S
C277 C278 1.392 . S
C277 C281 1.495 . S
C278 C277 1.392 . S
C278 C279 1.385 . S
C278 C280 1.478 . S
C279 H273 0.930 . S
C279 C275 1.400 . S
C279 C278 1.385 . S
C280 C278 1.478 . S
C280 C282 1.381 . S
C280 C286 1.383 . S
C281 C277 1.495 . S
C281 H287 0.959 . S
C281 H288 0.961 . S
C281 H289 0.960 . S
C282 C280 1.381 . S
C282 C283 1.394 . S
C282 H290 0.930 . S
C283 C282 1.394 . S
C283 C284 1.383 . S
C283 H291 0.929 . S
C284 C283 1.383 . S
C284 C285 1.377 . S
C285 H269 0.930 . S
C285 C284 1.377 . S
C285 C286 1.379 . S
C286 H270 0.931 . S
C286 C280 1.383 . S
C286 C285 1.379 . S
H287 C281 0.959 . S
H288 C281 0.961 . S
H289 C281 0.960 . S
H290 C282 0.930 . S
H291 C283 0.929 . S
H292 C300 0.929 . S
H293 C302 0.930 . S
H294 C304 0.930 . S
H295 C307 0.929 . S
H296 C310 0.930 . S
H297 C312 0.960 . S
H298 C312 0.960 . S
H299 C312 0.960 . S
C300 H292 0.929 . S
C300 C301 1.377 . S
C300 C302 1.384 . S
C301 C300 1.377 . S
C301 C307 1.390 . S
C302 H293 0.930 . S
C302 C300 1.384 . S
C302 C303 1.372 . S
C303 C302 1.372 . S
C303 C304 1.400 . S
C303 C308 1.490 . S
C304 H294 0.930 . S
C304 C303 1.400 . S
C304 C307 1.386 . S
H305 C321 0.930 . S
H306 C322 0.931 . S
C307 H295 0.929 . S
C307 C301 1.390 . S
C307 C304 1.386 . S
C308 C303 1.490 . S
C308 C310 1.395 . S
C308 C311 1.403 . S
H309 C315 0.930 . S
C310 H296 0.930 . S
C310 C308 1.395 . S
C310 C313 1.403 . S
C311 C308 1.403 . S
C311 C312 1.524 . S
C311 C315 1.400 . S
C312 H297 0.960 . S
C312 H298 0.960 . S
C312 H299 0.960 . S
C312 C311 1.524 . S
C313 C310 1.403 . S
C313 C314 1.392 . S
C313 C317 1.495 . S
C314 C313 1.392 . S
C314 C315 1.385 . S
C314 C316 1.478 . S
C315 H309 0.930 . S
C315 C311 1.400 . S
C315 C314 1.385 . S
C316 C314 1.478 . S
C316 C318 1.381 . S
C316 C322 1.383 . S
C317 C313 1.495 . S
C317 H323 0.959 . S
C317 H324 0.961 . S
C317 H325 0.960 . S
C318 C316 1.381 . S
C318 C319 1.394 . S
C318 H326 0.930 . S
C319 C318 1.394 . S
C319 C320 1.383 . S
C319 H327 0.929 . S
C320 C319 1.383 . S
C320 C321 1.377 . S
C321 H305 0.930 . S
C321 C320 1.377 . S
C321 C322 1.379 . S
C322 H306 0.931 . S
C322 C316 1.383 . S
C322 C321 1.379 . S
H323 C317 0.959 . S
H324 C317 0.961 . S
H325 C317 0.960 . S
H326 C318 0.930 . S
H327 C319 0.929 . S
H328 C336 0.929 . S
H329 C338 0.930 . S
H330 C340 0.930 . S
H331 C343 0.929 . S
H332 C346 0.930 . S
H333 C348 0.960 . S
H334 C348 0.960 . S
H335 C348 0.960 . S
C336 H328 0.929 . S
C336 C337 1.377 . S
C336 C338 1.384 . S
C337 C336 1.377 . S
C337 C343 1.390 . S
C338 H329 0.930 . S
C338 C336 1.384 . S
C338 C339 1.372 . S
C339 C338 1.372 . S
C339 C340 1.400 . S
C339 C344 1.490 . S
C340 H330 0.930 . S
C340 C339 1.400 . S
C340 C343 1.386 . S
H341 C357 0.930 . S
H342 C358 0.931 . S
C343 H331 0.929 . S
C343 C337 1.390 . S
C343 C340 1.386 . S
C344 C339 1.490 . S
C344 C346 1.395 . S
C344 C347 1.403 . S
H345 C351 0.930 . S
C346 H332 0.930 . S
C346 C344 1.395 . S
C346 C349 1.403 . S
C347 C344 1.403 . S
C347 C348 1.524 . S
C347 C351 1.400 . S
C348 H333 0.960 . S
C348 H334 0.960 . S
C348 H335 0.960 . S
C348 C347 1.524 . S
C349 C346 1.403 . S
C349 C350 1.392 . S
C349 C353 1.495 . S
C350 C349 1.392 . S
C350 C351 1.385 . S
C350 C352 1.478 . S
C351 H345 0.930 . S
C351 C347 1.400 . S
C351 C350 1.385 . S
C352 C350 1.478 . S
C352 C354 1.381 . S
C352 C358 1.383 . S
C353 C349 1.495 . S
C353 H359 0.959 . S
C353 H360 0.961 . S
C353 H361 0.960 . S
C354 C352 1.381 . S
C354 C355 1.394 . S
C354 H362 0.930 . S
C355 C354 1.394 . S
C355 C356 1.383 . S
C355 H363 0.929 . S
C356 C355 1.383 . S
C356 C357 1.377 . S
C357 H341 0.930 . S
C357 C356 1.377 . S
C357 C358 1.379 . S
C358 H342 0.931 . S
C358 C352 1.383 . S
C358 C357 1.379 . S
H359 C353 0.959 . S
H360 C353 0.961 . S
H361 C353 0.960 . S
H362 C354 0.930 . S
H363 C355 0.929 . S
H364 C372 0.929 . S
H365 C374 0.930 . S
H366 C376 0.930 . S
H367 C379 0.929 . S
H368 C382 0.930 . S
H369 C384 0.960 . S
H370 C384 0.960 . S
H371 C384 0.960 . S
C372 H364 0.929 . S
C372 C373 1.377 . S
C372 C374 1.384 . S
C373 C372 1.377 . S
C373 C379 1.390 . S
C374 H365 0.930 . S
C374 C372 1.384 . S
C374 C375 1.372 . S
C375 C374 1.372 . S
C375 C376 1.400 . S
C375 C380 1.490 . S
C376 H366 0.930 . S
C376 C375 1.400 . S
C376 C379 1.386 . S
H377 C393 0.930 . S
H378 C394 0.931 . S
C379 H367 0.929 . S
C379 C373 1.390 . S
C379 C376 1.386 . S
C380 C375 1.490 . S
C380 C382 1.395 . S
C380 C383 1.403 . S
H381 C387 0.930 . S
C382 H368 0.930 . S
C382 C380 1.395 . S
C382 C385 1.403 . S
C383 C380 1.403 . S
C383 C384 1.524 . S
C383 C387 1.400 . S
C384 H369 0.960 . S
C384 H370 0.960 . S
C384 H371 0.960 . S
C384 C383 1.524 . S
C385 C382 1.403 . S
C385 C386 1.392 . S
C385 C389 1.495 . S
C386 C385 1.392 . S
C386 C387 1.385 . S
C386 C388 1.478 . S
C387 H381 0.930 . S
C387 C383 1.400 . S
C387 C386 1.385 . S
C388 C386 1.478 . S
C388 C390 1.381 . S
C388 C394 1.383 . S
C389 C385 1.495 . S
C389 H395 0.959 . S
C389 H396 0.961 . S
C389 H397 0.960 . S
C390 C388 1.381 . S
C390 C391 1.394 . S
C390 H398 0.930 . S
C391 C390 1.394 . S
C391 C392 1.383 . S
C391 H399 0.929 . S
C392 C391 1.383 . S
C392 C393 1.377 . S
C393 H377 0.930 . S
C393 C392 1.377 . S
C393 C394 1.379 . S
C394 H378 0.931 . S
C394 C388 1.383 . S
C394 C393 1.379 . S
H395 C389 0.959 . S
H396 C389 0.961 . S
H397 C389 0.960 . S
H398 C390 0.930 . S
H399 C391 0.929 . S
H400 C408 0.929 . S
H401 C410 0.930 . S
H402 C412 0.930 . S
H403 C415 0.936 . S
H404 C418 0.930 . S
H405 C420 0.960 . S
H406 C420 0.960 . S
H407 C420 0.960 . S
C408 H400 0.929 . S
C408 C409 1.377 . S
C408 C410 1.384 . S
C409 C408 1.377 . S
C409 C415 1.382 1_554 S
C410 H401 0.930 . S
C410 C408 1.384 . S
C410 C411 1.372 . S
C411 C410 1.372 . S
C411 C412 1.400 1_554 S
C411 C416 1.490 . S
C412 H402 0.930 . S
C412 C411 1.400 1_556 S
C412 C415 1.388 . S
H413 C429 0.930 . S
H414 C430 0.931 . S
C415 H403 0.936 . S
C415 C409 1.382 1_556 S
C415 C412 1.388 . S
C416 C411 1.490 . S
C416 C418 1.395 . S
C416 C419 1.403 1_554 S
H417 C423 0.930 . S
C418 H404 0.930 . S
C418 C416 1.395 . S
C418 C421 1.403 . S
C419 C416 1.403 1_556 S
C419 C420 1.524 . S
C419 C423 1.400 . S
C420 H405 0.960 . S
C420 H406 0.960 . S
C420 H407 0.960 . S
C420 C419 1.524 . S
C421 C418 1.403 . S
C421 C422 1.392 . S
C421 C425 1.495 . S
C422 C421 1.392 . S
C422 C423 1.385 1_554 S
C422 C424 1.478 1_554 S
C423 H417 0.930 . S
C423 C419 1.400 . S
C423 C422 1.385 1_556 S
C424 C422 1.478 1_556 S
C424 C426 1.381 1_556 S
C424 C430 1.383 . S
C425 C421 1.495 . S
C425 H431 0.959 . S
C425 H432 0.961 . S
C425 H433 0.960 . S
C426 C424 1.381 1_554 S
C426 C427 1.398 . S
C426 H434 0.930 . S
C427 C426 1.398 . S
C427 C428 1.375 1_554 S
C427 H435 0.934 . S
C428 C427 1.375 1_556 S
C428 C429 1.377 . S
C429 H413 0.930 . S
C429 C428 1.377 . S
C429 C430 1.379 . S
C430 H414 0.931 . S
C430 C424 1.383 . S
C430 C429 1.379 . S
H431 C425 0.959 . S
H432 C425 0.961 . S
H433 C425 0.960 . S
H434 C426 0.930 . S
H435 C427 0.934 . S
H436 C444 0.929 . S
H437 C446 0.930 . S
H438 C448 0.930 . S
H439 C451 0.929 . S
H440 C454 0.930 . S
H441 C456 0.960 . S
H442 C456 0.960 . S
H443 C456 0.960 . S
C444 H436 0.929 . S
C444 C445 1.377 1_556 S
C444 C446 1.384 . S
C445 C444 1.377 1_554 S
C445 C451 1.390 . S
C446 H437 0.930 . S
C446 C444 1.384 . S
C446 C447 1.372 1_556 S
C447 C446 1.372 1_554 S
C447 C448 1.400 . S
C447 C452 1.490 . S
C448 H438 0.930 . S
C448 C447 1.400 . S
C448 C451 1.386 . S
H449 C465 0.930 . S
H450 C466 0.931 . S
C451 H439 0.929 . S
C451 C445 1.390 . S
C451 C448 1.386 . S
C452 C447 1.490 . S
C452 C454 1.395 1_554 S
C452 C455 1.403 1_455 S
H453 C459 0.930 . S
C454 H440 0.930 . S
C454 C452 1.395 1_556 S
C454 C457 1.403 . S
C455 C452 1.403 1_655 S
C455 C456 1.524 . S
C455 C459 1.400 . S
C456 H441 0.960 . S
C456 H442 0.960 . S
C456 H443 0.960 . S
C456 C455 1.524 . S
C457 C454 1.403 . S
C457 C458 1.392 1_455 S
C457 C461 1.495 . S
C458 C457 1.392 1_655 S
C458 C459 1.385 1_556 S
C458 C460 1.478 . S
C459 H453 0.930 . S
C459 C455 1.400 . S
C459 C458 1.385 1_554 S
C460 C458 1.478 . S
C460 C462 1.381 . S
C460 C466 1.383 1_556 S
C461 C457 1.495 . S
C461 H467 0.959 . S
C461 H468 0.961 . S
C461 H469 0.960 . S
C462 C460 1.381 . S
C462 C463 1.394 . S
C462 H470 0.930 . S
C463 C462 1.394 . S
C463 C464 1.383 . S
C463 H471 0.929 . S
C464 C463 1.383 . S
C464 C465 1.377 1_556 S
C465 H449 0.930 . S
C465 C464 1.377 1_554 S
C465 C466 1.379 . S
C466 H450 0.931 . S
C466 C460 1.383 1_554 S
C466 C465 1.379 . S
H467 C461 0.959 . S
H468 C461 0.961 . S
H469 C461 0.960 . S
H470 C462 0.930 . S
H471 C463 0.929 . S
H472 C480 0.929 . S
H473 C482 0.930 . S
H474 C484 0.930 . S
H475 C487 0.929 . S
H476 C490 0.930 . S
H477 C492 0.960 . S
H478 C492 0.960 . S
H479 C492 0.960 . S
C480 H472 0.929 . S
C480 C481 1.377 . S
C480 C482 1.384 . S
C481 C480 1.377 . S
C481 C487 1.390 . S
C482 H473 0.930 . S
C482 C480 1.384 . S
C482 C483 1.372 . S
C483 C482 1.372 . S
C483 C484 1.400 . S
C483 C488 1.490 . S
C484 H474 0.930 . S
C484 C483 1.400 . S
C484 C487 1.386 . S
H485 C501 0.930 . S
H486 C502 0.931 . S
C487 H475 0.929 . S
C487 C481 1.390 . S
C487 C484 1.386 . S
C488 C483 1.490 . S
C488 C490 1.395 . S
C488 C491 1.403 1_565 S
H489 C495 0.930 . S
C490 H476 0.930 . S
C490 C488 1.395 . S
C490 C493 1.403 . S
C491 C488 1.403 1_545 S
C491 C492 1.524 . S
C491 C495 1.400 . S
C492 H477 0.960 . S
C492 H478 0.960 . S
C492 H479 0.960 . S
C492 C491 1.524 . S
C493 C490 1.403 . S
C493 C494 1.392 1_565 S
C493 C497 1.495 . S
C494 C493 1.392 1_545 S
C494 C495 1.385 . S
C494 C496 1.478 . S
C495 H489 0.930 . S
C495 C491 1.400 . S
C495 C494 1.385 . S
C496 C494 1.478 . S
C496 C498 1.381 . S
C496 C502 1.383 . S
C497 C493 1.495 . S
C497 H503 0.959 . S
C497 H504 0.961 . S
C497 H505 0.960 . S
C498 C496 1.381 . S
C498 C499 1.394 . S
C498 H506 0.930 . S
C499 C498 1.394 . S
C499 C500 1.383 . S
C499 H507 0.929 . S
C500 C499 1.383 . S
C500 C501 1.377 . S
C501 H485 0.930 . S
C501 C500 1.377 . S
C501 C502 1.379 . S
C502 H486 0.931 . S
C502 C496 1.383 . S
C502 C501 1.379 . S
H503 C497 0.959 . S
H504 C497 0.961 . S
H505 C497 0.960 . S
H506 C498 0.930 . S
H507 C499 0.929 . S
H508 C516 0.929 . S
H509 C518 0.930 . S
H510 C520 0.930 . S
H511 C523 0.929 . S
H512 C526 0.930 1_545 S
H513 C528 0.960 . S
H514 C528 0.960 1_655 S
H515 C528 0.960 . S
C516 H508 0.929 . S
C516 C517 1.377 . S
C516 C518 1.384 . S
C517 C516 1.377 . S
C517 C523 1.390 . S
C518 H509 0.930 . S
C518 C516 1.384 . S
C518 C519 1.372 . S
C519 C518 1.372 . S
C519 C520 1.400 . S
C519 C524 1.490 . S
C520 H510 0.930 . S
C520 C519 1.400 . S
C520 C523 1.386 . S
H521 C537 0.930 . S
H522 C538 0.931 . S
C523 H511 0.929 . S
C523 C517 1.390 . S
C523 C520 1.386 . S
C524 C519 1.490 . S
C524 C526 1.391 1_545 S
C524 C527 1.403 1_655 S
H525 C531 0.930 . S
C526 H512 0.930 1_565 S
C526 C524 1.391 1_565 S
C526 C529 1.408 . S
C527 C524 1.403 1_455 S
C527 C528 1.524 . S
C527 C531 1.400 1_545 S
C528 H513 0.960 . S
C528 H514 0.960 1_455 S
C528 H515 0.960 . S
C528 C527 1.524 . S
C529 C526 1.408 . S
C529 C530 1.392 1_655 S
C529 C533 1.495 . S
C530 C529 1.392 1_455 S
C530 C531 1.385 . S
C530 C532 1.478 . S
C531 H525 0.930 . S
C531 C527 1.400 1_565 S
C531 C530 1.385 . S
C532 C530 1.478 . S
C532 C534 1.381 . S
C532 C538 1.383 . S
C533 C529 1.495 . S
C533 H539 0.959 . S
C533 H540 0.979 . S
C533 H541 0.960 . S
C534 C532 1.381 . S
C534 C535 1.394 . S
C534 H542 0.930 . S
C535 C534 1.394 . S
C535 C536 1.383 . S
C535 H543 0.929 . S
C536 C535 1.383 . S
C536 C537 1.377 . S
C537 H521 0.930 . S
C537 C536 1.377 . S
C537 C538 1.379 . S
C538 H522 0.931 . S
C538 C532 1.383 . S
C538 C537 1.379 . S
H539 C533 0.959 . S
H540 C533 0.979 . S
H541 C533 0.960 . S
H542 C534 0.930 . S
H543 C535 0.929 . S
H544 C552 0.929 . S
H545 C554 0.930 . S
H546 C556 0.930 . S
H547 C559 0.929 . S
H548 C562 0.930 . S
H549 C564 0.960 . S
H550 C564 0.960 . S
H551 C564 0.960 . S
C552 H544 0.929 . S
C552 C553 1.377 1_556 S
C552 C554 1.384 . S
C553 C552 1.377 1_554 S
C553 C559 1.390 . S
C554 H545 0.930 . S
C554 C552 1.384 . S
C554 C555 1.372 1_556 S
C555 C554 1.372 1_554 S
C555 C556 1.400 . S
C555 C560 1.490 . S
C556 H546 0.930 . S
C556 C555 1.400 . S
C556 C559 1.386 . S
H557 C573 0.930 . S
H558 C574 0.931 . S
C559 H547 0.929 . S
C559 C553 1.390 . S
C559 C556 1.386 . S
C560 C555 1.490 . S
C560 C562 1.395 . S
C560 C563 1.403 . S
H561 C567 0.930 . S
C562 H548 0.930 . S
C562 C560 1.395 . S
C562 C565 1.403 . S
C563 C560 1.403 . S
C563 C564 1.524 . S
C563 C567 1.400 . S
C564 H549 0.960 . S
C564 H550 0.960 . S
C564 H551 0.960 . S
C564 C563 1.524 . S
C565 C562 1.403 . S
C565 C566 1.392 . S
C565 C569 1.495 . S
C566 C565 1.392 . S
C566 C567 1.385 . S
C566 C568 1.478 . S
C567 H561 0.930 . S
C567 C563 1.400 . S
C567 C566 1.385 . S
C568 C566 1.478 . S
C568 C570 1.381 1_554 S
C568 C574 1.383 . S
C569 C565 1.495 . S
C569 H575 0.959 . S
C569 H576 0.961 . S
C569 H577 0.960 1_554 S
C570 C568 1.381 1_556 S
C570 C571 1.394 . S
C570 H578 0.930 . S
C571 C570 1.394 . S
C571 C572 1.383 1_556 S
C571 H579 0.929 . S
C572 C571 1.383 1_554 S
C572 C573 1.377 . S
C573 H557 0.930 . S
C573 C572 1.377 . S
C573 C574 1.379 . S
C574 H558 0.931 . S
C574 C568 1.383 . S
C574 C573 1.379 . S
H575 C569 0.959 . S
H576 C569 0.961 . S
H577 C569 0.960 1_556 S
H578 C570 0.930 . S
H579 C571 0.929 . S
H580 C588 0.929 . S
H581 C590 0.930 . S
H582 C592 0.930 . S
H583 C595 0.929 . S
H584 C598 0.930 . S
H585 C600 0.960 . S
H586 C600 0.960 . S
H587 C600 0.960 . S
C588 H580 0.929 . S
C588 C589 1.377 . S
C588 C590 1.384 . S
C589 C588 1.377 . S
C589 C595 1.390 . S
C590 H581 0.930 . S
C590 C588 1.384 . S
C590 C591 1.372 . S
C591 C590 1.372 . S
C591 C592 1.400 . S
C591 C596 1.490 . S
C592 H582 0.930 . S
C592 C591 1.400 . S
C592 C595 1.386 . S
H593 C609 0.930 . S
H594 C610 0.931 . S
C595 H583 0.929 . S
C595 C589 1.390 . S
C595 C592 1.386 . S
C596 C591 1.490 . S
C596 C598 1.395 1_545 S
C596 C599 1.403 . S
H597 C603 0.930 . S
C598 H584 0.930 . S
C598 C596 1.395 1_565 S
C598 C601 1.403 . S
C599 C596 1.403 . S
C599 C600 1.524 . S
C599 C603 1.398 . S
C600 H585 0.960 . S
C600 H586 0.960 . S
C600 H587 0.960 . S
C600 C599 1.524 . S
C601 C598 1.403 . S
C601 C602 1.392 . S
C601 C605 1.495 . S
C602 C601 1.392 . S
C602 C603 1.387 1_565 S
C602 C604 1.478 . S
C603 H597 0.930 . S
C603 C599 1.398 . S
C603 C602 1.387 1_545 S
C604 C602 1.478 . S
C604 C606 1.381 . S
C604 C610 1.383 . S
C605 C601 1.495 . S
C605 H611 0.959 . S
C605 H612 0.961 . S
C605 H613 0.960 . S
C606 C604 1.381 . S
C606 C607 1.394 . S
C606 H614 0.930 . S
C607 C606 1.394 . S
C607 C608 1.383 . S
C607 H615 0.929 . S
C608 C607 1.383 . S
C608 C609 1.377 . S
C609 H593 0.930 . S
C609 C608 1.377 . S
C609 C610 1.379 . S
C610 H594 0.931 . S
C610 C604 1.383 . S
C610 C609 1.379 . S
H611 C605 0.959 . S
H612 C605 0.961 . S
H613 C605 0.960 . S
H614 C606 0.930 . S
H615 C607 0.929 . S
H616 C624 0.929 . S
H617 C626 0.930 . S
H618 C628 0.930 1_554 S
H619 C631 0.929 1_554 S
H620 C634 0.930 . S
H621 C636 0.960 . S
H622 C636 0.960 . S
H623 C636 0.960 . S
C624 H616 0.929 . S
C624 C625 1.377 . S
C624 C626 1.384 . S
C625 C624 1.377 . S
C625 C631 1.390 . S
C626 H617 0.930 . S
C626 C624 1.384 . S
C626 C627 1.372 . S
C627 C626 1.372 . S
C627 C628 1.400 . S
C627 C632 1.490 . S
C628 H618 0.930 1_556 S
C628 C627 1.400 . S
C628 C631 1.386 . S
H629 C645 0.933 . S
H630 C646 0.954 . S
C631 H619 0.929 1_556 S
C631 C625 1.390 . S
C631 C628 1.386 . S
C632 C627 1.490 . S
C632 C634 1.395 . S
C632 C635 1.403 . S
H633 C639 0.930 . S
C634 H620 0.930 . S
C634 C632 1.395 . S
C634 C637 1.403 . S
C635 C632 1.403 . S
C635 C636 1.524 . S
C635 C639 1.400 . S
C636 H621 0.960 . S
C636 H622 0.960 . S
C636 H623 0.960 . S
C636 C635 1.524 . S
C637 C634 1.403 . S
C637 C638 1.392 . S
C637 C641 1.495 1_556 S
C638 C637 1.392 . S
C638 C639 1.385 . S
C638 C640 1.478 . S
C639 H633 0.930 . S
C639 C635 1.400 . S
C639 C638 1.385 . S
C640 C638 1.478 . S
C640 C642 1.381 . S
C640 C646 1.361 1_556 S
C641 C637 1.495 1_554 S
C641 H647 0.959 . S
C641 H648 0.961 . S
C641 H649 0.960 1_554 S
C642 C640 1.381 . S
C642 C643 1.394 . S
C642 H650 0.930 . S
C643 C642 1.394 . S
C643 C644 1.383 . S
C643 H651 0.929 . S
C644 C643 1.383 . S
C644 C645 1.373 1_556 S
C645 H629 0.933 . S
C645 C644 1.373 1_554 S
C645 C646 1.379 . S
C646 H630 0.954 . S
C646 C640 1.361 1_554 S
C646 C645 1.379 . S
H647 C641 0.959 . S
H648 C641 0.961 . S
H649 C641 0.960 1_556 S
H650 C642 0.930 . S
H651 C643 0.929 . S
H652 C660 0.929 . S
H653 C662 0.930 . S
H654 C664 0.930 . S
H655 C667 0.929 . S
H656 C670 0.930 . S
H657 C672 0.960 . S
H658 C672 0.960 . S
H659 C672 0.960 . S
C660 H652 0.929 . S
C660 C661 1.377 . S
C660 C662 1.384 . S
C661 C660 1.377 . S
C661 C667 1.390 . S
C662 H653 0.930 . S
C662 C660 1.384 . S
C662 C663 1.372 . S
C663 C662 1.372 . S
C663 C664 1.400 . S
C663 C668 1.490 . S
C664 H654 0.930 . S
C664 C663 1.400 . S
C664 C667 1.386 . S
H665 C681 0.930 . S
H666 C682 0.931 . S
C667 H655 0.929 . S
C667 C661 1.390 . S
C667 C664 1.386 . S
C668 C663 1.490 . S
C668 C670 1.395 . S
C668 C671 1.403 1_565 S
H669 C675 0.930 . S
C670 H656 0.930 . S
C670 C668 1.395 . S
C670 C673 1.403 . S
C671 C668 1.403 1_545 S
C671 C672 1.524 . S
C671 C675 1.400 . S
C672 H657 0.960 . S
C672 H658 0.960 . S
C672 H659 0.960 . S
C672 C671 1.524 . S
C673 C670 1.403 . S
C673 C674 1.392 1_565 S
C673 C677 1.495 . S
C674 C673 1.392 1_545 S
C674 C675 1.385 . S
C674 C676 1.478 . S
C675 H669 0.930 . S
C675 C671 1.400 . S
C675 C674 1.385 . S
C676 C674 1.478 . S
C676 C678 1.381 . S
C676 C682 1.383 . S
C677 C673 1.495 . S
C677 H683 0.959 . S
C677 H684 0.961 . S
C677 H685 0.960 . S
C678 C676 1.381 . S
C678 C679 1.394 . S
C678 H686 0.930 . S
C679 C678 1.394 . S
C679 C680 1.383 . S
C679 H687 0.929 . S
C680 C679 1.383 . S
C680 C681 1.377 . S
C681 H665 0.930 . S
C681 C680 1.377 . S
C681 C682 1.379 . S
C682 H666 0.931 . S
C682 C676 1.383 . S
C682 C681 1.379 . S
H683 C677 0.959 . S
H684 C677 0.961 . S
H685 C677 0.960 . S
H686 C678 0.930 . S
H687 C679 0.929 . S
C121 C9 1.540 . S
C140 C23 1.503 . S
C157 C51 1.536 . S
C176 C37 1.515 . S
C193 C65 1.539 . S
C212 C79 1.560 . S
C229 C93 1.529 . S
C248 C107 1.516 . S
C265 C3 1.647 . S
C284 C31 1.639 . S
C301 C45 1.649 . S
C320 C17 1.652 . S
C337 C59 1.646 . S
C356 C87 1.640 . S
C373 C101 1.649 . S
C392 C73 1.632 . S
C409 C8 1.341 . S
C428 C64 1.352 . S
C445 C22 1.346 . S
C464 C78 1.350 . S
C481 C92 1.344 . S
C500 C36 1.331 . S
C517 C106 1.338 . S
C536 C50 1.337 . S
C553 C21 0.798 . S
C572 C7 0.816 . S
C589 C35 0.776 . S
C608 C49 0.734 . S
C625 C63 0.775 . S
C644 C77 0.832 . S
C661 C91 0.777 . S
C680 C105 0.826 . S
