# Generated by pormake.
# Topology dmp, (4)-cn, num edge types: 1
# Building blocks:
#     Node 0, Type 0, BuildingBlock: TATPOV_clean_sbu_0, # of connection points: 4
#     Node 1, Type 0, BuildingBlock: TATPOV_clean_sbu_0, # of connection points: 4
#     Node 2, Type 0, BuildingBlock: TATPOV_clean_sbu_0, # of connection points: 4
#     Node 3, Type 0, BuildingBlock: TATPOV_clean_sbu_0, # of connection points: 4
#     Edge 4, Type (0, 0), BuildingBlock: MIFKUJ_clean_linker_0, # of connection points: 2
#     Edge 5, Type (0, 0), BuildingBlock: MIFKUJ_clean_linker_0, # of connection points: 2
#     Edge 6, Type (0, 0), BuildingBlock: MIFKUJ_clean_linker_0, # of connection points: 2
#     Edge 7, Type (0, 0), BuildingBlock: MIFKUJ_clean_linker_0, # of connection points: 2
#     Edge 8, Type (0, 0), BuildingBlock: MIFKUJ_clean_linker_0, # of connection points: 2
#     Edge 9, Type (0, 0), BuildingBlock: MIFKUJ_clean_linker_0, # of connection points: 2
#     Edge 10, Type (0, 0), BuildingBlock: MIFKUJ_clean_linker_0, # of connection points: 2
#     Edge 11, Type (0, 0), BuildingBlock: MIFKUJ_clean_linker_0, # of connection points: 2
# Relax obj value: 0.211
# Max RMSD: 0.255
# Mean RMSD: 0.252
data_MOF--net-dmp--node1-TATPOV_clean_sbu_0--edge1-MIFKUJ_clean_linker_0
_symmetry_space_group_name_H-M    P1
_symmetry_Int_Tables_number       1
_symmetry_cell_setting            triclinic
loop_
_symmetry_equiv_pos_as_xyz
'x, y, z'
_cell_length_a     49.415644
_cell_length_b     21.117416
_cell_length_c     25.607978
_cell_angle_alpha  89.910099
_cell_angle_beta   96.221236
_cell_angle_gamma 90.066276
loop_
_atom_site_label
_atom_site_type_symbol
_atom_site_fract_x
_atom_site_fract_y
_atom_site_fract_z
_atom_type_partial_charge
Zn0 Zn 0.12004 0.31085 0.11823 0.0
Zn1 Zn 0.0943 0.34087 0.19835 0.0
O2 O 0.10356 0.42735 0.16546 0.0
O3 O 0.12493 0.40089 0.09779 0.0
O4 O 0.07174 0.36683 0.25715 0.0
O5 O 0.0901 0.25964 0.08244 0.0
O6 O 0.06957 0.27423 0.15358 0.0
C7 C 0.11622 0.44325 0.12653 0.0
C8 C 0.14945 0.27603 0.2172 0.0
O9 O 0.12988 0.30391 0.23627 0.0
O10 O 0.14928 0.26961 0.16802 0.0
C11 C 0.08267 0.39772 0.29665 0.0
O12 O 0.10872 0.41144 0.29922 0.0
C13 C 0.07038 0.24838 0.10856 0.0
Zn14 Zn 0.36828 0.84213 0.38224 0.0
Zn15 Zn 0.39443 0.85302 0.30049 0.0
O16 O 0.38775 0.94378 0.3287 0.0
O17 O 0.37187 0.9321 0.40487 0.0
O18 O 0.41722 0.87202 0.24032 0.0
O19 O 0.39276 0.77557 0.41541 0.0
O20 O 0.41648 0.78481 0.34789 0.0
C21 C 0.37923 0.96808 0.36954 0.0
C22 C 0.33589 0.80873 0.28502 0.0
O23 O 0.35813 0.81719 0.26488 0.0
O24 O 0.33501 0.81768 0.33372 0.0
C25 C 0.40703 0.90831 0.20354 0.0
O26 O 0.38217 0.9297 0.20525 0.0
C27 C 0.41265 0.75858 0.39161 0.0
Zn28 Zn 0.88016 0.6263 0.88734 0.0
Zn29 Zn 0.89758 0.62845 0.79539 0.0
O30 O 0.92361 0.68908 0.8432 0.0
O31 O 0.9093 0.68182 0.92138 0.0
O32 O 0.91534 0.61763 0.7275 0.0
O33 O 0.88128 0.53271 0.89701 0.0
O34 O 0.89052 0.53469 0.81516 0.0
C35 C 0.92557 0.70504 0.89167 0.0
C36 C 0.84135 0.67879 0.80404 0.0
O37 O 0.86019 0.66952 0.77456 0.0
O38 O 0.84523 0.66476 0.85245 0.0
C39 C 0.94087 0.60825 0.72894 0.0
O40 O 0.9558 0.60927 0.77462 0.0
C41 C 0.8844 0.50355 0.85503 0.0
Zn42 Zn 0.60928 0.13774 0.60967 0.0
Zn43 Zn 0.58967 0.1388 0.70039 0.0
O44 O 0.56401 0.19861 0.65144 0.0
O45 O 0.58054 0.19422 0.57516 0.0
O46 O 0.57136 0.12597 0.76751 0.0
O47 O 0.60869 0.04382 0.59985 0.0
O48 O 0.59782 0.04602 0.68063 0.0
C49 C 0.5633 0.21607 0.60343 0.0
C50 C 0.64617 0.19026 0.69586 0.0
O51 O 0.62653 0.18097 0.72348 0.0
O52 O 0.6435 0.17603 0.64749 0.0
C53 C 0.54563 0.12577 0.7684 0.0
O54 O 0.52989 0.13788 0.72485 0.0
C55 C 0.60502 0.01486 0.64175 0.0
H56 H 0.38642 0.06005 0.29601 0.0
H57 H 0.35781 0.15367 0.2797 0.0
H58 H 0.32206 0.11785 0.42356 0.0
H59 H 0.35185 0.0284 0.44179 0.0
H60 H 0.31033 0.1409 0.25261 0.0
H61 H 0.28099 0.22318 0.46146 0.0
H62 H 0.30483 0.26551 0.54354 0.0
H63 H 0.37351 0.31526 0.46259 0.0
H64 H 0.34997 0.27432 0.3798 0.0
H65 H 0.17318 0.16054 0.22414 0.0
H66 H 0.2197 0.13678 0.26106 0.0
H67 H 0.22974 0.32992 0.31514 0.0
H68 H 0.18204 0.35141 0.28299 0.0
H69 H 0.26134 0.2662 0.37616 0.0
H70 H 0.25151 0.2782 0.19326 0.0
H71 H 0.23231 0.26017 0.10145 0.0
H72 H 0.25116 0.06235 0.11697 0.0
H73 H 0.27008 0.07871 0.20907 0.0
C74 C 0.37346 0.07416 0.32546 0.0
C75 C 0.3708 0.03549 0.36935 0.0
C76 C 0.35688 0.12758 0.31591 0.0
C77 C 0.33704 0.1424 0.34953 0.0
C78 C 0.33712 0.10858 0.39685 0.0
C79 C 0.35415 0.0564 0.40707 0.0
C80 C 0.31272 0.18129 0.33041 0.0
C81 C 0.30001 0.16919 0.27964 0.0
C82 C 0.29938 0.22104 0.36414 0.0
C83 C 0.31367 0.24532 0.41426 0.0
C84 C 0.30109 0.2435 0.46098 0.0
C85 C 0.31459 0.26721 0.50772 0.0
C86 C 0.34067 0.29305 0.50829 0.0
C87 C 0.35333 0.29515 0.46214 0.0
C88 C 0.33993 0.27154 0.4153 0.0
C89 C 0.18506 0.19706 0.24569 0.0
C90 C 0.17427 0.25776 0.2506 0.0
C91 C 0.21181 0.18397 0.26596 0.0
C92 C 0.22878 0.23239 0.28868 0.0
C93 C 0.21731 0.29191 0.29714 0.0
C94 C 0.19006 0.3042 0.27882 0.0
C95 C 0.25862 0.22113 0.30035 0.0
C96 C 0.27217 0.23899 0.34923 0.0
C97 C 0.27356 0.19024 0.26365 0.0
C98 C 0.26214 0.17973 0.20821 0.0
C99 C 0.25141 0.23075 0.17721 0.0
C100 C 0.24055 0.22081 0.12515 0.0
C101 C 0.24042 0.16011 0.10353 0.0
C102 C 0.25121 0.10924 0.13387 0.0
C103 C 0.26206 0.11884 0.18597 0.0
H104 H 0.23203 0.15252 0.06321 0.0
H105 H 0.35106 0.31147 0.54449 0.0
H106 H 0.14035 0.49329 0.04494 0.0
H107 H 0.17238 0.58138 0.05162 0.0
H108 H 0.14826 0.6295 0.20333 0.0
H109 H 0.11632 0.54058 0.19752 0.0
H110 H 0.1693 0.73742 0.13723 0.0
H111 H 0.19089 0.52878 0.2128 0.0
H112 H 0.19134 0.41245 0.20663 0.0
H113 H 0.24131 0.4235 0.0799 0.0
H114 H 0.24026 0.54039 0.08396 0.0
H115 H 0.28406 0.81822 0.31006 0.0
H116 H 0.2426 0.7784 0.26126 0.0
H117 H 0.28869 0.71397 0.13785 0.0
H118 H 0.33072 0.75418 0.1869 0.0
H119 H 0.25679 0.62142 0.17271 0.0
H120 H 0.24391 0.83146 0.11208 0.0
H121 H 0.24259 0.9477 0.11767 0.0
H122 H 0.17767 0.93628 0.216 0.0
H123 H 0.17887 0.81964 0.21166 0.0
C124 C 0.14095 0.52409 0.07884 0.0
C125 C 0.12639 0.50875 0.12146 0.0
C126 C 0.15924 0.57466 0.08241 0.0
C127 C 0.16302 0.61095 0.12838 0.0
C128 C 0.14561 0.6018 0.16756 0.0
C129 C 0.12738 0.55078 0.1642 0.0
C130 C 0.18878 0.64627 0.14081 0.0
C131 C 0.18846 0.7124 0.14512 0.0
C132 C 0.2138 0.61336 0.14979 0.0
C133 C 0.21514 0.54324 0.14814 0.0
C134 C 0.20173 0.50644 0.18325 0.0
C135 C 0.20213 0.44042 0.1802 0.0
C136 C 0.21635 0.41056 0.14296 0.0
C137 C 0.23025 0.44673 0.10866 0.0
C138 C 0.22969 0.51289 0.11119 0.0
C139 C 0.28545 0.79617 0.27228 0.0
C140 C 0.31074 0.78877 0.25256 0.0
C141 C 0.26162 0.774 0.24416 0.0
C142 C 0.26249 0.74378 0.19568 0.0
C143 C 0.28759 0.73757 0.17509 0.0
C144 C 0.31154 0.76047 0.2031 0.0
C145 C 0.23752 0.71305 0.17001 0.0
C146 C 0.23787 0.64717 0.16359 0.0
C147 C 0.21266 0.74643 0.15921 0.0
C148 C 0.21162 0.81664 0.16182 0.0
C149 C 0.22948 0.85364 0.13525 0.0
C150 C 0.22873 0.91969 0.13814 0.0
C151 C 0.2101 0.94946 0.16728 0.0
C152 C 0.19211 0.91316 0.19345 0.0
C153 C 0.19278 0.84704 0.19071 0.0
H154 H 0.20958 0.00063 0.16952 0.0
H155 H 0.21659 0.35943 0.14076 0.0
H156 H 0.62842 0.94011 0.57167 0.0
H157 H 0.66319 0.86041 0.59547 0.0
H158 H 0.64442 0.86528 0.75596 0.0
H159 H 0.60975 0.94554 0.73273 0.0
H160 H 0.69575 0.90498 0.74549 0.0
H161 H 0.63975 0.72796 0.68686 0.0
H162 H 0.60859 0.66644 0.62446 0.0
H163 H 0.66885 0.66153 0.51574 0.0
H164 H 0.70029 0.72369 0.5772 0.0
H165 H 0.79839 0.70561 0.85834 0.0
H166 H 0.7537 0.74499 0.82449 0.0
H167 H 0.77755 0.74677 0.66744 0.0
H168 H 0.82276 0.70645 0.70112 0.0
H169 H 0.72362 0.70016 0.67337 0.0
H170 H 0.7788 0.87813 0.72914 0.0
H171 H 0.81018 0.94203 0.78911 0.0
H172 H 0.75099 0.94958 0.8999 0.0
H173 H 0.71944 0.88443 0.84109 0.0
C174 C 0.63081 0.92238 0.61162 0.0
C175 C 0.61682 0.95068 0.65062 0.0
C176 C 0.65077 0.87658 0.62515 0.0
C177 C 0.65677 0.85783 0.6777 0.0
C178 C 0.6403 0.8797 0.71525 0.0
C179 C 0.62036 0.92547 0.70179 0.0
C180 C 0.68306 0.82638 0.69503 0.0
C181 C 0.70155 0.85946 0.73057 0.0
C182 C 0.69115 0.7686 0.6735 0.0
C183 C 0.6723 0.73107 0.63648 0.0
C184 C 0.64629 0.71426 0.64946 0.0
C185 C 0.62859 0.67913 0.6143 0.0
C186 C 0.6367 0.6603 0.5661 0.0
C187 C 0.66259 0.67625 0.55307 0.0
C188 C 0.68037 0.71134 0.58809 0.0
C189 C 0.79429 0.71425 0.81653 0.0
C190 C 0.81435 0.70354 0.78251 0.0
C191 C 0.76863 0.7366 0.79726 0.0
C192 C 0.76238 0.74917 0.74357 0.0
C193 C 0.78201 0.73723 0.70906 0.0
C194 C 0.80788 0.71478 0.72841 0.0
C195 C 0.73582 0.77821 0.72467 0.0
C196 C 0.71754 0.74528 0.68856 0.0
C197 C 0.72786 0.83658 0.74526 0.0
C198 C 0.74686 0.87564 0.78092 0.0
C199 C 0.7726 0.8926 0.76661 0.0
C200 C 0.79042 0.92912 0.80039 0.0
C201 C 0.78264 0.94961 0.8484 0.0
C202 C 0.75701 0.93356 0.86275 0.0
C203 C 0.73916 0.8968 0.8292 0.0
H204 H 0.79641 0.97816 0.87438 0.0
H205 H 0.62294 0.63335 0.53885 0.0
H206 H 0.87525 0.43475 0.76404 0.0
H207 H 0.84015 0.35357 0.74801 0.0
H208 H 0.83179 0.34558 0.91363 0.0
H209 H 0.867 0.42609 0.9303 0.0
H210 H 0.82045 0.22977 0.78851 0.0
H211 H 0.76718 0.39597 0.91938 0.0
H212 H 0.77111 0.50553 0.95316 0.0
H213 H 0.80501 0.56504 0.81356 0.0
H214 H 0.801 0.45625 0.77893 0.0
H215 H 0.66183 0.21957 0.79954 0.0
H216 H 0.70744 0.25105 0.8386 0.0
H217 H 0.7364 0.24432 0.68579 0.0
H218 H 0.69138 0.21297 0.64668 0.0
H219 H 0.73837 0.3549 0.81792 0.0
H220 H 0.80144 0.18705 0.69755 0.0
H221 H 0.79609 0.08193 0.65593 0.0
H222 H 0.74043 0.02699 0.76544 0.0
H223 H 0.74614 0.13086 0.80889 0.0
C224 C 0.86699 0.41353 0.79745 0.0
C225 C 0.87328 0.43849 0.84826 0.0
C226 C 0.8469 0.36694 0.78815 0.0
C227 C 0.83296 0.34495 0.82952 0.0
C228 C 0.84215 0.3626 0.88116 0.0
C229 C 0.86231 0.40881 0.89054 0.0
C230 C 0.80551 0.317 0.81773 0.0
C231 C 0.80245 0.25676 0.79495 0.0
C232 C 0.78211 0.35223 0.82677 0.0
C233 C 0.78411 0.41796 0.84698 0.0
C234 C 0.77542 0.43257 0.89596 0.0
C235 C 0.77768 0.49451 0.91524 0.0
C236 C 0.78844 0.54221 0.88566 0.0
C237 C 0.79683 0.52812 0.83662 0.0
C238 C 0.7946 0.46632 0.81719 0.0
C239 C 0.67791 0.22508 0.77428 0.0
C240 C 0.67294 0.21354 0.72001 0.0
C241 C 0.70393 0.24284 0.79668 0.0
C242 C 0.7254 0.24868 0.76522 0.0
C243 C 0.72029 0.23865 0.71098 0.0
C244 C 0.69441 0.22117 0.68862 0.0
C245 C 0.75305 0.26753 0.78815 0.0
C246 C 0.75622 0.32666 0.81275 0.0
C247 C 0.77642 0.23127 0.78024 0.0
C248 C 0.77404 0.16719 0.75619 0.0
C249 C 0.78831 0.15233 0.71319 0.0
C250 C 0.78521 0.0929 0.68925 0.0
C251 C 0.76787 0.04789 0.70792 0.0
C252 C 0.75383 0.06193 0.75095 0.0
C253 C 0.75704 0.12104 0.77533 0.0
H254 H 0.76533 0.00213 0.68905 0.0
H255 H 0.7902 0.5901 0.90065 0.0
H256 H 0.05643 0.21893 0.00621 0.0
H257 H 0.03003 0.12832 0.97076 0.0
H258 H 0.01264 0.07722 0.12683 0.0
H259 H 0.03935 0.16861 0.16287 0.0
H260 H 0.03343 0.97789 0.07436 0.0
H261 H 0.96221 0.12977 0.03817 0.0
H262 H 0.94107 0.22945 0.00429 0.0
H263 H 0.95682 0.17975 0.8479 0.0
H264 H 0.97841 0.08012 0.88094 0.0
H265 H 0.93979 0.73362 0.99453 0.0
H266 H 0.96437 0.82622 0.03062 0.0
H267 H 0.97874 0.88491 0.87457 0.0
H268 H 0.95351 0.79204 0.83771 0.0
H269 H 0.95902 0.98088 0.92787 0.0
H270 H 0.03086 0.83069 0.96316 0.0
H271 H 0.05269 0.73137 0.99616 0.0
H272 H 0.0367 0.77814 0.15301 0.0
H273 H 0.01442 0.87739 0.12085 0.0
C274 C 0.04653 0.18923 0.03299 0.0
C275 C 0.05001 0.20087 0.0874 0.0
C276 C 0.03136 0.13746 0.01258 0.0
C277 C 0.0193 0.09594 0.04605 0.0
C278 C 0.02177 0.10874 0.10027 0.0
C279 C 0.03681 0.1612 0.12079 0.0
C280 C 0.00609 0.03684 0.02442 0.0
C281 C 0.01679 0.97848 0.04302 0.0
C282 C 0.98509 0.03769 0.98217 0.0
C283 C 0.97215 0.09767 0.96214 0.0
C284 C 0.96139 0.14032 0.99662 0.0
C285 C 0.94928 0.19678 0.97755 0.0
C286 C 0.94766 0.21099 0.92399 0.0
C287 C 0.95811 0.16871 0.88939 0.0
C288 C 0.97026 0.11219 0.90826 0.0
C289 C 0.94853 0.76555 0.96774 0.0
C290 C 0.94459 0.75541 0.91311 0.0
C291 C 0.96271 0.81852 0.98858 0.0
C292 C 0.97353 0.86257 0.95543 0.0
C293 C 0.97054 0.85155 0.90093 0.0
C294 C 0.95632 0.79821 0.87993 0.0
C295 C 0.98636 0.92182 0.97779 0.0
C296 C 0.97561 0.98022 0.95929 0.0
C297 C 0.00741 0.92103 0.02 0.0
C298 C 0.02074 0.86125 0.03949 0.0
C299 C 0.03178 0.81956 0.00462 0.0
C300 C 0.04428 0.76332 0.02319 0.0
C301 C 0.04602 0.74838 0.07662 0.0
C302 C 0.03531 0.78974 0.11162 0.0
C303 C 0.02277 0.84604 0.09325 0.0
H304 H 0.05572 0.70483 0.09092 0.0
H305 H 0.93826 0.25471 0.9093 0.0
H306 H 0.57093 0.07279 0.85885 0.0
H307 H 0.54985 0.03695 0.93609 0.0
H308 H 0.47166 0.10152 0.86495 0.0
H309 H 0.49248 0.13714 0.78761 0.0
H310 H 0.48141 0.13406 0.9705 0.0
H311 H 0.48669 0.9483 0.86227 0.0
H312 H 0.5103 0.86954 0.81256 0.0
H313 H 0.56114 0.81813 0.95288 0.0
H314 H 0.53806 0.89728 0.0033 0.0
H315 H 0.38917 0.97766 0.1166 0.0
H316 H 0.41519 0.01497 0.04705 0.0
H317 H 0.48721 0.92437 0.12287 0.0
H318 H 0.46099 0.88546 0.19245 0.0
H319 H 0.48419 0.90665 0.01986 0.0
H320 H 0.4781 0.08639 0.12992 0.0
H321 H 0.4557 0.16582 0.18105 0.0
H322 H 0.40849 0.23045 0.04048 0.0
H323 H 0.43033 0.15076 0.98856 0.0
C324 C 0.54928 0.07981 0.85978 0.0
C325 C 0.53339 0.1077 0.81688 0.0
C326 C 0.53724 0.05901 0.90389 0.0
C327 C 0.50911 0.06603 0.90617 0.0
C328 C 0.49338 0.09551 0.86409 0.0
C329 C 0.50533 0.11572 0.8198 0.0
C330 C 0.49588 0.04165 0.95181 0.0
C331 C 0.4818 0.08426 0.98101 0.0
C332 C 0.49707 0.97697 0.96661 0.0
C333 C 0.51086 0.9292 0.93641 0.0
C334 C 0.50306 0.92058 0.88242 0.0
C335 C 0.51632 0.8758 0.85414 0.0
C336 C 0.53727 0.83899 0.87951 0.0
C337 C 0.54495 0.84676 0.93326 0.0
C338 C 0.53177 0.89154 0.96171 0.0
C339 C 0.41054 0.96545 0.11861 0.0
C340 C 0.42299 0.92876 0.16041 0.0
C341 C 0.42547 0.98721 0.07882 0.0
C342 C 0.45336 0.97366 0.08005 0.0
C343 C 0.46577 0.93581 0.12109 0.0
C344 C 0.45075 0.91363 0.16091 0.0
C345 C 0.46932 -0.00106 0.03828 0.0
C346 C 0.48394 0.95656 0.00976 0.0
C347 C 0.46884 0.06401 0.02438 0.0
C348 C 0.4557 0.1122 0.05541 0.0
C349 C 0.4628 0.11722 0.10995 0.0
C350 C 0.45022 0.16234 0.13907 0.0
C351 C 0.43064 0.20306 0.11405 0.0
C352 C 0.42364 0.19884 0.05982 0.0
C353 C 0.43613 0.15374 0.03051 0.0
H354 H 0.42093 0.23797 0.13667 0.0
H355 H 0.54751 0.80434 0.85754 0.0
H356 H -0.00494 0.60332 0.71677 0.0
H357 H 0.01628 0.57126 0.63915 0.0
H358 H 0.93703 0.54332 0.554 0.0
H359 H 0.91553 0.57574 0.63174 0.0
H360 H 0.97235 0.44237 0.543 0.0
H361 H 0.97332 0.66789 0.525 0.0
H362 H 0.9823 0.77797 0.55384 0.0
H363 H 0.06783 0.73797 0.58168 0.0
H364 H 0.05932 0.62734 0.5537 0.0
H365 H 0.02716 0.39208 0.29883 0.0
H366 H 0.00074 0.43054 0.36789 0.0
H367 H 0.07491 0.48937 0.45948 0.0
H368 H 0.10127 0.45274 0.3902 0.0
H369 H 0.03873 0.57793 0.4627 0.0
H370 H 0.03827 0.35217 0.48772 0.0
H371 H 0.03019 0.24075 0.46176 0.0
H372 H 0.94503 0.27934 0.42375 0.0
H373 H 0.95267 0.39125 0.44887 0.0
C374 C 0.98207 0.59082 0.68148 0.0
C375 C 0.95356 0.59227 0.68054 0.0
C376 C 0.99427 0.57262 0.63702 0.0
C377 C 0.97828 0.55517 0.59057 0.0
C378 C 0.94979 0.55664 0.58936 0.0
C379 C 0.93753 0.5755 0.63376 0.0
C380 C 0.99147 0.53404 0.54393 0.0
C381 C 0.98651 0.47237 0.52479 0.0
C382 C 0.01043 0.57259 0.52093 0.0
C383 C 0.01564 0.63915 0.53767 0.0
C384 C 0.99402 0.68241 0.53768 0.0
C385 C -0.00097 0.74495 0.55379 0.0
C386 C 0.02561 0.76492 0.5697 0.0
C387 C 0.04725 0.72242 0.5694 0.0
C388 C 0.04234 0.65981 0.55336 0.0
C389 C 0.03785 0.41303 0.33376 0.0
C390 C 0.06638 0.41917 0.33891 0.0
C391 C 0.02271 0.43483 0.37339 0.0
C392 C 0.03578 0.4624 0.41939 0.0
C393 C 0.06426 0.46848 0.42447 0.0
C394 C 0.07935 0.44724 0.38478 0.0
C395 C 0.01998 0.48571 0.4621 0.0
C396 C 0.02444 0.54792 0.48055 0.0
C397 C 0.00072 0.44743 0.48473 0.0
C398 C -0.00391 0.38021 0.4696 0.0
C399 C 0.01786 0.337 0.47342 0.0
C400 C 0.01335 0.27375 0.45894 0.0
C401 C 0.98713 0.25302 0.44096 0.0
C402 C 0.96534 0.29549 0.43758 0.0
C403 C 0.96974 0.35882 0.45197 0.0
H404 H 0.98368 0.20403 0.42978 0.0
H405 H 0.02945 0.81335 0.58216 0.0
H406 H 0.45369 0.69556 0.34804 0.0
H407 H 0.47839 0.601 0.38307 0.0
H408 H 0.4347 0.60631 0.5199 0.0
H409 H 0.41012 0.6997 0.48563 0.0
H410 H 0.51171 0.57929 0.47338 0.0
H411 H 0.42073 0.45368 0.55719 0.0
H412 H 0.37096 0.44271 0.53766 0.0
H413 H 0.37674 0.4893 0.376 0.0
H414 H 0.42657 0.49951 0.39431 0.0
H415 H 0.52436 0.28119 0.65141 0.0
H416 H 0.49787 0.37329 0.61626 0.0
H417 H 0.53422 0.35847 0.47119 0.0
H418 H 0.56028 0.2669 0.50516 0.0
H419 H 0.46073 0.38935 0.52223 0.0
H420 H 0.55127 0.51121 0.43687 0.0
H421 H 0.60125 0.51882 0.45491 0.0
H422 H 0.59608 0.47768 0.61777 0.0
H423 H 0.54609 0.47073 0.60088 0.0
C424 C 0.44954 0.67685 0.38576 0.0
C425 C 0.42979 0.70514 0.41377 0.0
C426 C 0.4636 0.62275 0.40567 0.0
C427 C 0.45798 0.59583 0.45363 0.0
C428 C 0.43896 0.6253 0.48231 0.0
C429 C 0.42503 0.67912 0.46265 0.0
C430 C 0.47204 0.53733 0.47438 0.0
C431 C 0.50056 0.53745 0.48328 0.0
C432 C 0.45745 0.48322 0.48868 0.0
C433 C 0.4274 0.4782 0.47734 0.0
C434 C 0.41139 0.4616 0.51747 0.0
C435 C 0.38317 0.45549 0.50661 0.0
C436 C 0.37069 0.46563 0.45569 0.0
C437 C 0.38642 0.48181 0.4155 0.0
C438 C 0.41466 0.4879 0.42613 0.0
C439 C 0.52639 0.29703 0.61178 0.0
C440 C 0.54458 0.26674 0.58132 0.0
C441 C 0.5113 0.34967 0.59181 0.0
C442 C 0.51447 0.37322 0.54146 0.0
C443 C 0.53179 0.34163 0.5104 0.0
C444 C 0.54659 0.28898 0.52997 0.0
C445 C 0.50027 0.43159 0.52119 0.0
C446 C 0.47178 0.43135 0.51236 0.0
C447 C 0.51485 0.48551 0.50681 0.0
C448 C 0.54494 0.48967 0.51742 0.0
C449 C 0.5608 0.50389 0.47654 0.0
C450 C 0.58913 0.50807 0.48656 0.0
C451 C 0.60183 0.49838 0.53739 0.0
C452 C 0.58623 0.48478 0.57835 0.0
C453 C 0.5579 0.48058 0.56855 0.0
H454 H 0.62376 0.5017 0.54508 0.0
H455 H 0.34885 0.46064 0.44733 0.0
loop_
_geom_bond_atom_site_label_1
_geom_bond_atom_site_label_2
_geom_bond_distance
_geom_bond_site_symmetry_2
_ccdc_geom_bond_type
Zn0 O3 2.031 . S
Zn0 O5 2.049 . S
Zn0 O10 2.067 . S
Zn1 O2 1.962 . S
Zn1 O4 1.986 . S
Zn1 O6 1.996 . S
Zn1 O9 1.943 . S
O2 Zn1 1.962 . S
O2 C7 1.254 . S
O3 Zn0 2.031 . S
O3 C7 1.269 . S
O4 Zn1 1.986 . S
O4 C11 1.262 . S
O5 Zn0 2.049 . S
O5 C13 1.260 . S
O6 Zn1 1.996 . S
O6 C13 1.257 . S
C7 O2 1.254 . S
C7 O3 1.269 . S
C8 O9 1.249 . S
C8 O10 1.270 . S
O9 Zn1 1.943 . S
O9 C8 1.249 . S
O10 Zn0 2.067 . S
O10 C8 1.270 . S
C11 O4 1.262 . S
C11 O12 1.232 . S
O12 C11 1.232 . S
C13 O5 1.260 . S
C13 O6 1.257 . S
Zn14 O17 2.031 . S
Zn14 O19 2.049 . S
Zn14 O24 2.067 . S
Zn15 O16 1.962 . S
Zn15 O18 1.986 . S
Zn15 O20 1.996 . S
Zn15 O23 1.943 . S
O16 Zn15 1.962 . S
O16 C21 1.254 . S
O17 Zn14 2.031 . S
O17 C21 1.269 . S
O18 Zn15 1.986 . S
O18 C25 1.262 . S
O19 Zn14 2.049 . S
O19 C27 1.260 . S
O20 Zn15 1.996 . S
O20 C27 1.257 . S
C21 O16 1.254 . S
C21 O17 1.269 . S
C22 O23 1.249 . S
C22 O24 1.270 . S
O23 Zn15 1.943 . S
O23 C22 1.249 . S
O24 Zn14 2.067 . S
O24 C22 1.270 . S
C25 O18 1.262 . S
C25 O26 1.232 . S
O26 C25 1.232 . S
C27 O19 1.260 . S
C27 O20 1.257 . S
Zn28 O31 2.031 . S
Zn28 O33 2.049 . S
Zn28 O38 2.067 . S
Zn29 O30 1.962 . S
Zn29 O32 1.986 . S
Zn29 O34 1.996 . S
Zn29 O37 1.943 . S
O30 Zn29 1.962 . S
O30 C35 1.254 . S
O31 Zn28 2.031 . S
O31 C35 1.269 . S
O32 Zn29 1.986 . S
O32 C39 1.262 . S
O33 Zn28 2.049 . S
O33 C41 1.260 . S
O34 Zn29 1.996 . S
O34 C41 1.257 . S
C35 O30 1.254 . S
C35 O31 1.269 . S
C36 O37 1.249 . S
C36 O38 1.270 . S
O37 Zn29 1.943 . S
O37 C36 1.249 . S
O38 Zn28 2.067 . S
O38 C36 1.270 . S
C39 O32 1.262 . S
C39 O40 1.232 . S
O40 C39 1.232 . S
C41 O33 1.260 . S
C41 O34 1.257 . S
Zn42 O45 2.031 . S
Zn42 O47 2.049 . S
Zn42 O52 2.067 . S
Zn43 O44 1.962 . S
Zn43 O46 1.986 . S
Zn43 O48 1.996 . S
Zn43 O51 1.943 . S
O44 Zn43 1.962 . S
O44 C49 1.254 . S
O45 Zn42 2.031 . S
O45 C49 1.269 . S
O46 Zn43 1.986 . S
O46 C53 1.262 . S
O47 Zn42 2.049 . S
O47 C55 1.260 . S
O48 Zn43 1.996 . S
O48 C55 1.257 . S
C49 O44 1.254 . S
C49 O45 1.269 . S
C50 O51 1.249 . S
C50 O52 1.270 . S
O51 Zn43 1.943 . S
O51 C50 1.249 . S
O52 Zn42 2.067 . S
O52 C50 1.270 . S
C53 O46 1.262 . S
C53 O54 1.232 . S
O54 C53 1.232 . S
C55 O47 1.260 . S
C55 O48 1.257 . S
H56 C74 0.951 . S
H57 C76 0.935 1_545 S
H58 C78 0.950 . S
H59 C79 0.950 . S
H60 C81 0.950 . S
H61 C84 0.950 . S
H62 C85 0.950 . S
H63 C87 0.950 . S
H64 C88 0.950 . S
H65 C89 0.951 . S
H66 C91 0.951 . S
H67 C93 0.950 . S
H68 C94 0.950 . S
H69 C96 0.950 . S
H70 C99 0.950 . S
H71 C100 0.950 . S
H72 C102 0.950 . S
H73 C103 0.950 . S
C74 H56 0.951 . S
C74 C75 1.366 . S
C74 C76 1.396 . S
C75 C74 1.366 . S
C75 C79 1.385 . S
C76 H57 0.935 1_565 S
C76 C74 1.396 . S
C76 C77 1.373 . S
C77 C76 1.373 . S
C77 C78 1.414 . S
C77 C80 1.499 1_565 S
C78 H58 0.950 . S
C78 C77 1.414 . S
C78 C79 1.374 . S
C79 H59 0.950 . S
C79 C75 1.385 . S
C79 C78 1.374 . S
C80 C77 1.499 1_545 S
C80 C81 1.373 1_545 S
C80 C82 1.389 . S
C81 H60 0.950 . S
C81 C80 1.373 1_565 S
C81 C97 1.377 1_565 S
C82 C80 1.389 . S
C82 C83 1.524 . S
C82 C96 1.377 . S
C83 C82 1.524 . S
C83 C84 1.397 . S
C83 C88 1.363 . S
C84 H61 0.950 . S
C84 C83 1.397 . S
C84 C85 1.334 . S
C85 H62 0.950 . S
C85 C84 1.334 . S
C85 C86 1.287 . S
C86 C85 1.287 . S
C86 C87 1.524 . S
C86 H105 0.913 . S
C87 H63 0.950 . S
C87 C86 1.524 . S
C87 C88 1.415 . S
C88 H64 0.950 . S
C88 C83 1.363 . S
C88 C87 1.415 . S
C89 H65 0.951 . S
C89 C90 1.366 . S
C89 C91 1.388 . S
C90 C89 1.366 . S
C90 C94 1.385 . S
C91 H66 0.951 . S
C91 C89 1.388 . S
C91 C92 1.366 . S
C92 C91 1.366 . S
C92 C93 1.414 . S
C92 C95 1.499 . S
C93 H67 0.950 . S
C93 C92 1.414 . S
C93 C94 1.374 . S
C94 H68 0.950 . S
C94 C90 1.385 . S
C94 C93 1.374 . S
C95 C92 1.499 . S
C95 C96 1.373 . S
C95 C97 1.389 . S
C96 H69 0.950 . S
C96 C82 1.377 . S
C96 C95 1.373 . S
C97 C81 1.377 1_545 S
C97 C95 1.389 . S
C97 C98 1.524 1_545 S
C98 C97 1.524 1_565 S
C98 C99 1.397 1_565 S
C98 C103 1.363 . S
C99 H70 0.950 . S
C99 C98 1.397 1_545 S
C99 C100 1.334 . S
C100 H71 0.950 . S
C100 C99 1.334 . S
C100 C101 1.287 1_545 S
C101 C100 1.287 1_565 S
C101 C102 1.524 . S
C101 H104 0.999 . S
C102 H72 0.950 . S
C102 C101 1.524 . S
C102 C103 1.415 . S
C103 H73 0.950 . S
C103 C98 1.363 . S
C103 C102 1.415 . S
H104 C101 0.999 . S
H105 C86 0.913 . S
H106 C124 0.951 . S
H107 C126 0.951 . S
H108 C128 0.950 . S
H109 C129 0.950 . S
H110 C131 0.950 . S
H111 C134 0.950 . S
H112 C135 0.950 . S
H113 C137 0.950 . S
H114 C138 0.950 . S
H115 C139 0.951 . S
H116 C141 0.951 . S
H117 C143 0.950 . S
H118 C144 0.950 . S
H119 C146 0.950 . S
H120 C149 0.950 . S
H121 C150 0.950 . S
H122 C152 0.950 . S
H123 C153 0.950 . S
C124 H106 0.951 . S
C124 C125 1.366 . S
C124 C126 1.388 . S
C125 C124 1.366 . S
C125 C129 1.385 . S
C126 H107 0.951 . S
C126 C124 1.388 . S
C126 C127 1.366 . S
C127 C126 1.366 . S
C127 C128 1.414 . S
C127 C130 1.499 . S
C128 H108 0.950 . S
C128 C127 1.414 . S
C128 C129 1.374 . S
C129 H109 0.950 . S
C129 C125 1.385 . S
C129 C128 1.374 . S
C130 C127 1.499 . S
C130 C131 1.373 . S
C130 C132 1.389 . S
C131 H110 0.950 . S
C131 C130 1.373 . S
C131 C147 1.377 . S
C132 C130 1.389 . S
C132 C133 1.524 . S
C132 C146 1.377 . S
C133 C132 1.524 . S
C133 C134 1.397 . S
C133 C138 1.363 . S
C134 H111 0.950 . S
C134 C133 1.397 . S
C134 C135 1.334 . S
C135 H112 0.950 . S
C135 C134 1.334 . S
C135 C136 1.287 . S
C136 C135 1.287 . S
C136 C137 1.524 . S
C136 H155 0.913 . S
C137 H113 0.950 . S
C137 C136 1.524 . S
C137 C138 1.415 . S
C138 H114 0.950 . S
C138 C133 1.363 . S
C138 C137 1.415 . S
C139 H115 0.951 . S
C139 C140 1.366 . S
C139 C141 1.388 . S
C140 C139 1.366 . S
C140 C144 1.385 . S
C141 H116 0.951 . S
C141 C139 1.388 . S
C141 C142 1.366 . S
C142 C141 1.366 . S
C142 C143 1.414 . S
C142 C145 1.499 . S
C143 H117 0.950 . S
C143 C142 1.414 . S
C143 C144 1.374 . S
C144 H118 0.950 . S
C144 C140 1.385 . S
C144 C143 1.374 . S
C145 C142 1.499 . S
C145 C146 1.373 . S
C145 C147 1.389 . S
C146 H119 0.950 . S
C146 C132 1.377 . S
C146 C145 1.373 . S
C147 C131 1.377 . S
C147 C145 1.389 . S
C147 C148 1.524 . S
C148 C147 1.524 . S
C148 C149 1.397 . S
C148 C153 1.363 . S
C149 H120 0.950 . S
C149 C148 1.397 . S
C149 C150 1.334 . S
C150 H121 0.950 . S
C150 C149 1.334 . S
C150 C151 1.287 . S
C151 C150 1.287 . S
C151 C152 1.524 . S
C151 H154 0.999 . S
C152 H122 0.950 . S
C152 C151 1.524 . S
C152 C153 1.415 . S
C153 H123 0.950 . S
C153 C148 1.363 . S
C153 C152 1.415 . S
H154 C151 0.999 . S
H155 C136 0.913 . S
H156 C174 0.951 . S
H157 C176 0.951 . S
H158 C178 0.945 1_565 S
H159 C179 0.950 . S
H160 C181 0.950 . S
H161 C184 0.950 . S
H162 C185 0.950 . S
H163 C187 0.950 . S
H164 C188 0.950 . S
H165 C189 0.951 . S
H166 C191 0.951 . S
H167 C193 0.950 . S
H168 C194 0.950 . S
H169 C196 0.950 . S
H170 C199 0.950 . S
H171 C200 0.950 . S
H172 C202 0.950 . S
H173 C203 0.950 . S
C174 H156 0.951 . S
C174 C175 1.366 . S
C174 C176 1.388 . S
C175 C174 1.366 . S
C175 C179 1.385 . S
C176 H157 0.951 . S
C176 C174 1.388 . S
C176 C177 1.366 . S
C177 C176 1.366 . S
C177 C178 1.416 . S
C177 C180 1.499 1_545 S
C178 H158 0.945 1_545 S
C178 C177 1.416 . S
C178 C179 1.377 . S
C179 H159 0.950 . S
C179 C175 1.385 . S
C179 C178 1.377 . S
C180 C177 1.499 1_565 S
C180 C181 1.373 . S
C180 C182 1.389 . S
C181 H160 0.950 . S
C181 C180 1.373 . S
C181 C197 1.377 . S
C182 C180 1.389 . S
C182 C183 1.524 1_565 S
C182 C196 1.377 . S
C183 C182 1.524 1_545 S
C183 C184 1.397 1_545 S
C183 C188 1.363 . S
C184 H161 0.950 . S
C184 C183 1.397 1_565 S
C184 C185 1.334 . S
C185 H162 0.950 . S
C185 C184 1.334 . S
C185 C186 1.287 1_565 S
C186 C185 1.287 1_545 S
C186 C187 1.524 . S
C186 H205 0.913 . S
C187 H163 0.950 . S
C187 C186 1.524 . S
C187 C188 1.415 . S
C188 H164 0.950 . S
C188 C183 1.363 . S
C188 C187 1.415 . S
C189 H165 0.951 . S
C189 C190 1.366 . S
C189 C191 1.388 . S
C190 C189 1.366 . S
C190 C194 1.385 . S
C191 H166 0.951 . S
C191 C189 1.388 . S
C191 C192 1.366 . S
C192 C191 1.366 . S
C192 C193 1.414 . S
C192 C195 1.499 . S
C193 H167 0.950 . S
C193 C192 1.414 . S
C193 C194 1.374 . S
C194 H168 0.950 . S
C194 C190 1.385 . S
C194 C193 1.374 . S
C195 C192 1.499 . S
C195 C196 1.373 . S
C195 C197 1.389 . S
C196 H169 0.950 . S
C196 C182 1.377 . S
C196 C195 1.373 . S
C197 C181 1.377 . S
C197 C195 1.389 . S
C197 C198 1.524 . S
C198 C197 1.524 . S
C198 C199 1.397 . S
C198 C203 1.363 . S
C199 H170 0.950 . S
C199 C198 1.397 . S
C199 C200 1.334 . S
C200 H171 0.950 . S
C200 C199 1.334 . S
C200 C201 1.287 . S
C201 C200 1.287 . S
C201 C202 1.524 . S
C201 H204 0.999 . S
C202 H172 0.950 . S
C202 C201 1.524 . S
C202 C203 1.415 . S
C203 H173 0.950 . S
C203 C198 1.363 . S
C203 C202 1.415 . S
H204 C201 0.999 . S
H205 C186 0.913 . S
H206 C224 0.951 . S
H207 C226 0.951 . S
H208 C228 0.950 . S
H209 C229 0.950 . S
H210 C231 0.950 . S
H211 C234 0.950 . S
H212 C235 0.950 . S
H213 C237 0.950 . S
H214 C238 0.950 . S
H215 C239 0.951 . S
H216 C241 0.951 . S
H217 C243 0.950 . S
H218 C244 0.950 . S
H219 C246 0.950 . S
H220 C249 0.950 . S
H221 C250 0.950 . S
H222 C252 0.950 . S
H223 C253 0.950 . S
C224 H206 0.951 . S
C224 C225 1.366 . S
C224 C226 1.388 . S
C225 C224 1.366 . S
C225 C229 1.385 . S
C226 H207 0.951 . S
C226 C224 1.388 . S
C226 C227 1.366 . S
C227 C226 1.366 . S
C227 C228 1.414 . S
C227 C230 1.499 . S
C228 H208 0.950 . S
C228 C227 1.414 . S
C228 C229 1.374 . S
C229 H209 0.950 . S
C229 C225 1.385 . S
C229 C228 1.374 . S
C230 C227 1.499 . S
C230 C231 1.373 . S
C230 C232 1.389 . S
C231 H210 0.950 . S
C231 C230 1.373 . S
C231 C247 1.377 . S
C232 C230 1.389 . S
C232 C233 1.524 . S
C232 C246 1.377 . S
C233 C232 1.524 . S
C233 C234 1.397 . S
C233 C238 1.363 . S
C234 H211 0.950 . S
C234 C233 1.397 . S
C234 C235 1.334 . S
C235 H212 0.950 . S
C235 C234 1.334 . S
C235 C236 1.287 . S
C236 C235 1.287 . S
C236 C237 1.524 . S
C236 H255 0.913 . S
C237 H213 0.950 . S
C237 C236 1.524 . S
C237 C238 1.415 . S
C238 H214 0.950 . S
C238 C233 1.363 . S
C238 C237 1.415 . S
C239 H215 0.951 . S
C239 C240 1.366 . S
C239 C241 1.388 . S
C240 C239 1.366 . S
C240 C244 1.385 . S
C241 H216 0.951 . S
C241 C239 1.388 . S
C241 C242 1.366 . S
C242 C241 1.366 . S
C242 C243 1.414 . S
C242 C245 1.499 . S
C243 H217 0.950 . S
C243 C242 1.414 . S
C243 C244 1.374 . S
C244 H218 0.950 . S
C244 C240 1.385 . S
C244 C243 1.374 . S
C245 C242 1.499 . S
C245 C246 1.373 . S
C245 C247 1.389 . S
C246 H219 0.950 . S
C246 C232 1.377 . S
C246 C245 1.373 . S
C247 C231 1.377 . S
C247 C245 1.389 . S
C247 C248 1.524 . S
C248 C247 1.524 . S
C248 C249 1.397 . S
C248 C253 1.363 . S
C249 H220 0.950 . S
C249 C248 1.397 . S
C249 C250 1.334 . S
C250 H221 0.950 . S
C250 C249 1.334 . S
C250 C251 1.287 . S
C251 C250 1.287 . S
C251 C252 1.524 . S
C251 H254 0.999 . S
C252 H222 0.950 . S
C252 C251 1.524 . S
C252 C253 1.415 . S
C253 H223 0.950 . S
C253 C248 1.363 . S
C253 C252 1.415 . S
H254 C251 0.999 . S
H255 C236 0.913 . S
H256 C274 0.951 . S
H257 C276 0.951 . S
H258 C278 0.950 . S
H259 C279 0.950 . S
H260 C281 0.950 . S
H261 C284 0.950 . S
H262 C285 0.950 . S
H263 C287 0.950 . S
H264 C288 0.950 . S
H265 C289 0.951 . S
H266 C291 0.951 . S
H267 C293 0.950 . S
H268 C294 0.950 . S
H269 C296 0.950 . S
H270 C299 0.950 1_456 S
H271 C300 0.950 1_455 S
H272 C302 0.950 . S
H273 C303 0.950 . S
C274 H256 0.951 . S
C274 C275 1.366 . S
C274 C276 1.388 . S
C275 C274 1.366 . S
C275 C279 1.385 . S
C276 H257 0.951 . S
C276 C274 1.388 . S
C276 C277 1.366 . S
C277 C276 1.366 . S
C277 C278 1.414 . S
C277 C280 1.499 . S
C278 H258 0.950 . S
C278 C277 1.414 . S
C278 C279 1.374 . S
C279 H259 0.950 . S
C279 C275 1.385 . S
C279 C278 1.374 . S
C280 C277 1.499 . S
C280 C281 1.373 1_545 S
C280 C282 1.389 1_454 S
C281 H260 0.950 . S
C281 C280 1.373 1_565 S
C281 C297 1.377 1_455 S
C282 C280 1.389 1_656 S
C282 C283 1.521 1_655 S
C282 C296 1.377 . S
C283 C282 1.521 1_455 S
C283 C284 1.383 1_455 S
C283 C288 1.378 . S
C284 H261 0.950 . S
C284 C283 1.383 1_655 S
C284 C285 1.334 . S
C285 H262 0.950 . S
C285 C284 1.334 . S
C285 C286 1.287 . S
C286 C285 1.287 . S
C286 C287 1.524 1_655 S
C286 H305 0.913 . S
C287 H263 0.950 . S
C287 C286 1.524 1_455 S
C287 C288 1.415 . S
C288 H264 0.950 . S
C288 C283 1.378 . S
C288 C287 1.415 . S
C289 H265 0.951 . S
C289 C290 1.366 . S
C289 C291 1.388 . S
C290 C289 1.366 . S
C290 C294 1.385 . S
C291 H266 0.951 . S
C291 C289 1.388 . S
C291 C292 1.366 . S
C292 C291 1.366 . S
C292 C293 1.414 . S
C292 C295 1.499 . S
C293 H267 0.950 . S
C293 C292 1.414 . S
C293 C294 1.374 . S
C294 H268 0.950 . S
C294 C290 1.385 . S
C294 C293 1.374 . S
C295 C292 1.499 . S
C295 C296 1.373 1_565 S
C295 C297 1.389 1_556 S
C296 H269 0.950 . S
C296 C282 1.377 . S
C296 C295 1.373 1_545 S
C297 C281 1.377 1_655 S
C297 C295 1.389 1_554 S
C297 C298 1.524 . S
C298 C297 1.524 . S
C298 C299 1.397 . S
C298 C303 1.363 . S
C299 H270 0.950 1_654 S
C299 C298 1.397 . S
C299 C300 1.334 . S
C300 H271 0.950 1_655 S
C300 C299 1.334 . S
C300 C301 1.287 . S
C301 C300 1.287 . S
C301 C302 1.524 . S
C301 H304 0.999 . S
C302 H272 0.950 . S
C302 C301 1.524 . S
C302 C303 1.415 . S
C303 H273 0.950 . S
C303 C298 1.363 . S
C303 C302 1.415 . S
H304 C301 0.999 . S
H305 C286 0.913 . S
H306 C324 0.951 . S
H307 C326 0.951 . S
H308 C328 0.950 . S
H309 C329 0.950 . S
H310 C331 0.950 . S
H311 C334 0.950 . S
H312 C335 0.950 . S
H313 C337 0.950 . S
H314 C338 0.950 1_554 S
H315 C339 0.951 . S
H316 C341 0.951 . S
H317 C343 0.950 . S
H318 C344 0.950 . S
H319 C346 0.950 . S
H320 C349 0.950 . S
H321 C350 0.950 . S
H322 C352 0.950 . S
H323 C353 0.950 . S
C324 H306 0.951 . S
C324 C325 1.366 . S
C324 C326 1.388 . S
C325 C324 1.366 . S
C325 C329 1.385 . S
C326 H307 0.951 . S
C326 C324 1.388 . S
C326 C327 1.366 . S
C327 C326 1.366 . S
C327 C328 1.414 . S
C327 C330 1.499 . S
C328 H308 0.950 . S
C328 C327 1.414 . S
C328 C329 1.374 . S
C329 H309 0.950 . S
C329 C325 1.385 . S
C329 C328 1.374 . S
C330 C327 1.499 . S
C330 C331 1.373 . S
C330 C332 1.389 1_545 S
C331 H310 0.950 . S
C331 C330 1.373 . S
C331 C347 1.377 1_556 S
C332 C330 1.389 1_565 S
C332 C333 1.524 . S
C332 C346 1.377 1_556 S
C333 C332 1.524 . S
C333 C334 1.397 . S
C333 C338 1.363 . S
C334 H311 0.950 . S
C334 C333 1.397 . S
C334 C335 1.334 . S
C335 H312 0.950 . S
C335 C334 1.334 . S
C335 C336 1.287 . S
C336 C335 1.287 . S
C336 C337 1.524 . S
C336 H355 0.913 . S
C337 H313 0.950 . S
C337 C336 1.524 . S
C337 C338 1.415 . S
C338 H314 0.950 1_556 S
C338 C333 1.363 . S
C338 C337 1.415 . S
C339 H315 0.951 . S
C339 C340 1.366 . S
C339 C341 1.388 . S
C340 C339 1.366 . S
C340 C344 1.385 . S
C341 H316 0.951 . S
C341 C339 1.388 . S
C341 C342 1.366 . S
C342 C341 1.366 . S
C342 C343 1.414 . S
C342 C345 1.499 . S
C343 H317 0.950 . S
C343 C342 1.414 . S
C343 C344 1.374 . S
C344 H318 0.950 . S
C344 C340 1.385 . S
C344 C343 1.374 . S
C345 C342 1.499 . S
C345 C346 1.373 . S
C345 C347 1.389 1_565 S
C346 H319 0.950 . S
C346 C332 1.377 1_554 S
C346 C345 1.373 . S
C347 C331 1.377 1_554 S
C347 C345 1.389 1_545 S
C347 C348 1.524 . S
C348 C347 1.524 . S
C348 C349 1.397 . S
C348 C353 1.363 . S
C349 H320 0.950 . S
C349 C348 1.397 . S
C349 C350 1.334 . S
C350 H321 0.950 . S
C350 C349 1.334 . S
C350 C351 1.287 . S
C351 C350 1.287 . S
C351 C352 1.524 . S
C351 H354 0.999 . S
C352 H322 0.950 . S
C352 C351 1.524 . S
C352 C353 1.415 . S
C353 H323 0.950 . S
C353 C348 1.363 . S
C353 C352 1.415 . S
H354 C351 0.999 . S
H355 C336 0.913 . S
H356 C374 0.951 . S
H357 C376 0.951 . S
H358 C378 0.950 . S
H359 C379 0.950 . S
H360 C381 0.950 . S
H361 C384 0.950 . S
H362 C385 0.950 . S
H363 C387 0.950 . S
H364 C388 0.950 . S
H365 C389 0.951 . S
H366 C391 0.951 1_655 S
H367 C393 0.950 . S
H368 C394 0.950 . S
H369 C396 0.950 . S
H370 C399 0.950 1_455 S
H371 C400 0.950 1_455 S
H372 C402 0.950 . S
H373 C403 0.950 . S
C374 H356 0.951 . S
C374 C375 1.366 . S
C374 C376 1.388 . S
C375 C374 1.366 . S
C375 C379 1.385 . S
C376 H357 0.951 . S
C376 C374 1.388 . S
C376 C377 1.366 . S
C377 C376 1.366 . S
C377 C378 1.414 . S
C377 C380 1.499 . S
C378 H358 0.950 . S
C378 C377 1.414 . S
C378 C379 1.374 . S
C379 H359 0.950 . S
C379 C375 1.385 . S
C379 C378 1.374 . S
C380 C377 1.499 . S
C380 C381 1.373 . S
C380 C382 1.389 1_655 S
C381 H360 0.950 . S
C381 C380 1.373 . S
C381 C397 1.377 . S
C382 C380 1.389 1_455 S
C382 C383 1.524 . S
C382 C396 1.377 . S
C383 C382 1.524 . S
C383 C384 1.397 1_455 S
C383 C388 1.363 . S
C384 H361 0.950 . S
C384 C383 1.397 1_655 S
C384 C385 1.334 . S
C385 H362 0.950 . S
C385 C384 1.334 . S
C385 C386 1.287 1_655 S
C386 C385 1.287 1_455 S
C386 C387 1.524 . S
C386 H405 0.913 . S
C387 H363 0.950 . S
C387 C386 1.524 . S
C387 C388 1.415 . S
C388 H364 0.950 . S
C388 C383 1.363 . S
C388 C387 1.415 . S
C389 H365 0.951 . S
C389 C390 1.366 . S
C389 C391 1.388 . S
C390 C389 1.366 . S
C390 C394 1.385 . S
C391 H366 0.951 1_455 S
C391 C389 1.388 . S
C391 C392 1.366 . S
C392 C391 1.366 . S
C392 C393 1.414 . S
C392 C395 1.499 . S
C393 H367 0.950 . S
C393 C392 1.414 . S
C393 C394 1.374 . S
C394 H368 0.950 . S
C394 C390 1.385 . S
C394 C393 1.374 . S
C395 C392 1.499 . S
C395 C396 1.373 . S
C395 C397 1.389 1_455 S
C396 H369 0.950 . S
C396 C382 1.377 . S
C396 C395 1.373 . S
C397 C381 1.377 . S
C397 C395 1.389 1_655 S
C397 C398 1.524 . S
C398 C397 1.524 . S
C398 C399 1.397 . S
C398 C403 1.363 . S
C399 H370 0.950 1_655 S
C399 C398 1.397 . S
C399 C400 1.334 . S
C400 H371 0.950 1_655 S
C400 C399 1.334 . S
C400 C401 1.287 . S
C401 C400 1.287 . S
C401 C402 1.524 . S
C401 H404 0.999 . S
C402 H372 0.950 . S
C402 C401 1.524 . S
C402 C403 1.415 . S
C403 H373 0.950 . S
C403 C398 1.363 . S
C403 C402 1.415 . S
H404 C401 0.999 . S
H405 C386 0.913 . S
H406 C424 0.951 . S
H407 C426 0.951 . S
H408 C428 0.950 . S
H409 C429 0.950 . S
H410 C431 0.950 . S
H411 C434 0.950 . S
H412 C435 0.950 . S
H413 C437 0.950 . S
H414 C438 0.950 . S
H415 C439 0.951 . S
H416 C441 0.951 . S
H417 C443 0.950 . S
H418 C444 0.950 . S
H419 C446 0.950 . S
H420 C449 0.950 . S
H421 C450 0.950 . S
H422 C452 0.950 . S
H423 C453 0.950 . S
C424 H406 0.951 . S
C424 C425 1.366 . S
C424 C426 1.388 . S
C425 C424 1.366 . S
C425 C429 1.385 . S
C426 H407 0.951 . S
C426 C424 1.388 . S
C426 C427 1.366 . S
C427 C426 1.366 . S
C427 C428 1.414 . S
C427 C430 1.499 . S
C428 H408 0.950 . S
C428 C427 1.414 . S
C428 C429 1.374 . S
C429 H409 0.950 . S
C429 C425 1.385 . S
C429 C428 1.374 . S
C430 C427 1.499 . S
C430 C431 1.373 . S
C430 C432 1.389 . S
C431 H410 0.950 . S
C431 C430 1.373 . S
C431 C447 1.377 . S
C432 C430 1.389 . S
C432 C433 1.524 . S
C432 C446 1.377 . S
C433 C432 1.524 . S
C433 C434 1.397 . S
C433 C438 1.363 . S
C434 H411 0.950 . S
C434 C433 1.397 . S
C434 C435 1.334 . S
C435 H412 0.950 . S
C435 C434 1.334 . S
C435 C436 1.287 . S
C436 C435 1.287 . S
C436 C437 1.524 . S
C436 H455 0.913 . S
C437 H413 0.950 . S
C437 C436 1.524 . S
C437 C438 1.415 . S
C438 H414 0.950 . S
C438 C433 1.363 . S
C438 C437 1.415 . S
C439 H415 0.951 . S
C439 C440 1.366 . S
C439 C441 1.388 . S
C440 C439 1.366 . S
C440 C444 1.385 . S
C441 H416 0.951 . S
C441 C439 1.388 . S
C441 C442 1.366 . S
C442 C441 1.366 . S
C442 C443 1.414 . S
C442 C445 1.499 . S
C443 H417 0.950 . S
C443 C442 1.414 . S
C443 C444 1.374 . S
C444 H418 0.950 . S
C444 C440 1.385 . S
C444 C443 1.374 . S
C445 C442 1.499 . S
C445 C446 1.373 . S
C445 C447 1.389 . S
C446 H419 0.950 . S
C446 C432 1.377 . S
C446 C445 1.373 . S
C447 C431 1.377 . S
C447 C445 1.389 . S
C447 C448 1.524 . S
C448 C447 1.524 . S
C448 C449 1.397 . S
C448 C453 1.363 . S
C449 H420 0.950 . S
C449 C448 1.397 . S
C449 C450 1.334 . S
C450 H421 0.950 . S
C450 C449 1.334 . S
C450 C451 1.287 . S
C451 C450 1.287 . S
C451 C452 1.524 . S
C451 H454 0.999 . S
C452 H422 0.950 . S
C452 C451 1.524 . S
C452 C453 1.415 . S
C453 H423 0.950 . S
C453 C448 1.363 . S
C453 C452 1.415 . S
H454 C451 0.999 . S
H455 C436 0.913 . S
C75 C21 0.734 . S
C90 C8 0.737 . S
C125 C7 0.735 . S
C140 C22 0.735 . S
C175 C55 0.577 . S
C190 C36 0.583 . S
C225 C41 0.578 . S
C240 C50 0.584 . S
C275 C13 1.466 . S
C290 C35 1.552 . S
C325 C53 1.509 . S
C340 C25 1.492 . S
C375 C39 1.509 . S
C390 C11 1.491 . S
C425 C27 1.466 . S
C440 C49 1.552 . S
