# Generated by pormake.
# Topology vbm, (6)-cn, num edge types: 1
# Building blocks:
#     Node 0, Type 0, BuildingBlock: VOLQOD_clean_sbu_1, # of connection points: 6
#     Node 1, Type 0, BuildingBlock: VOLQOD_clean_sbu_1, # of connection points: 6
#     Node 2, Type 0, BuildingBlock: VOLQOD_clean_sbu_1, # of connection points: 6
#     Node 3, Type 0, BuildingBlock: VOLQOD_clean_sbu_1, # of connection points: 6
#     Node 4, Type 0, BuildingBlock: VOLQOD_clean_sbu_1, # of connection points: 6
#     Node 5, Type 0, BuildingBlock: VOLQOD_clean_sbu_1, # of connection points: 6
#     Node 6, Type 0, BuildingBlock: VOLQOD_clean_sbu_1, # of connection points: 6
#     Node 7, Type 0, BuildingBlock: VOLQOD_clean_sbu_1, # of connection points: 6
#     Node 8, Type 0, BuildingBlock: VOLQOD_clean_sbu_1, # of connection points: 6
#     Node 9, Type 0, BuildingBlock: VOLQOD_clean_sbu_1, # of connection points: 6
#     Node 10, Type 0, BuildingBlock: VOLQOD_clean_sbu_1, # of connection points: 6
#     Node 11, Type 0, BuildingBlock: VOLQOD_clean_sbu_1, # of connection points: 6
#     Node 12, Type 0, BuildingBlock: VOLQOD_clean_sbu_1, # of connection points: 6
#     Node 13, Type 0, BuildingBlock: VOLQOD_clean_sbu_1, # of connection points: 6
#     Node 14, Type 0, BuildingBlock: VOLQOD_clean_sbu_1, # of connection points: 6
#     Node 15, Type 0, BuildingBlock: VOLQOD_clean_sbu_1, # of connection points: 6
#     Edge 16, Type (0, 0), BuildingBlock: EZIPEK_clean_linker_0, # of connection points: 2
#     Edge 17, Type (0, 0), BuildingBlock: EZIPEK_clean_linker_0, # of connection points: 2
#     Edge 18, Type (0, 0), BuildingBlock: EZIPEK_clean_linker_0, # of connection points: 2
#     Edge 19, Type (0, 0), BuildingBlock: EZIPEK_clean_linker_0, # of connection points: 2
#     Edge 20, Type (0, 0), BuildingBlock: EZIPEK_clean_linker_0, # of connection points: 2
#     Edge 21, Type (0, 0), BuildingBlock: EZIPEK_clean_linker_0, # of connection points: 2
#     Edge 22, Type (0, 0), BuildingBlock: EZIPEK_clean_linker_0, # of connection points: 2
#     Edge 23, Type (0, 0), BuildingBlock: EZIPEK_clean_linker_0, # of connection points: 2
#     Edge 24, Type (0, 0), BuildingBlock: EZIPEK_clean_linker_0, # of connection points: 2
#     Edge 25, Type (0, 0), BuildingBlock: EZIPEK_clean_linker_0, # of connection points: 2
#     Edge 26, Type (0, 0), BuildingBlock: EZIPEK_clean_linker_0, # of connection points: 2
#     Edge 27, Type (0, 0), BuildingBlock: EZIPEK_clean_linker_0, # of connection points: 2
#     Edge 28, Type (0, 0), BuildingBlock: EZIPEK_clean_linker_0, # of connection points: 2
#     Edge 29, Type (0, 0), BuildingBlock: EZIPEK_clean_linker_0, # of connection points: 2
#     Edge 30, Type (0, 0), BuildingBlock: EZIPEK_clean_linker_0, # of connection points: 2
#     Edge 31, Type (0, 0), BuildingBlock: EZIPEK_clean_linker_0, # of connection points: 2
#     Edge 32, Type (0, 0), BuildingBlock: EZIPEK_clean_linker_0, # of connection points: 2
#     Edge 33, Type (0, 0), BuildingBlock: EZIPEK_clean_linker_0, # of connection points: 2
#     Edge 34, Type (0, 0), BuildingBlock: EZIPEK_clean_linker_0, # of connection points: 2
#     Edge 35, Type (0, 0), BuildingBlock: EZIPEK_clean_linker_0, # of connection points: 2
#     Edge 36, Type (0, 0), BuildingBlock: EZIPEK_clean_linker_0, # of connection points: 2
#     Edge 37, Type (0, 0), BuildingBlock: EZIPEK_clean_linker_0, # of connection points: 2
#     Edge 38, Type (0, 0), BuildingBlock: EZIPEK_clean_linker_0, # of connection points: 2
#     Edge 39, Type (0, 0), BuildingBlock: EZIPEK_clean_linker_0, # of connection points: 2
#     Edge 40, Type (0, 0), BuildingBlock: EZIPEK_clean_linker_0, # of connection points: 2
#     Edge 41, Type (0, 0), BuildingBlock: EZIPEK_clean_linker_0, # of connection points: 2
#     Edge 42, Type (0, 0), BuildingBlock: EZIPEK_clean_linker_0, # of connection points: 2
#     Edge 43, Type (0, 0), BuildingBlock: EZIPEK_clean_linker_0, # of connection points: 2
#     Edge 44, Type (0, 0), BuildingBlock: EZIPEK_clean_linker_0, # of connection points: 2
#     Edge 45, Type (0, 0), BuildingBlock: EZIPEK_clean_linker_0, # of connection points: 2
#     Edge 46, Type (0, 0), BuildingBlock: EZIPEK_clean_linker_0, # of connection points: 2
#     Edge 47, Type (0, 0), BuildingBlock: EZIPEK_clean_linker_0, # of connection points: 2
#     Edge 48, Type (0, 0), BuildingBlock: EZIPEK_clean_linker_0, # of connection points: 2
#     Edge 49, Type (0, 0), BuildingBlock: EZIPEK_clean_linker_0, # of connection points: 2
#     Edge 50, Type (0, 0), BuildingBlock: EZIPEK_clean_linker_0, # of connection points: 2
#     Edge 51, Type (0, 0), BuildingBlock: EZIPEK_clean_linker_0, # of connection points: 2
#     Edge 52, Type (0, 0), BuildingBlock: EZIPEK_clean_linker_0, # of connection points: 2
#     Edge 53, Type (0, 0), BuildingBlock: EZIPEK_clean_linker_0, # of connection points: 2
#     Edge 54, Type (0, 0), BuildingBlock: EZIPEK_clean_linker_0, # of connection points: 2
#     Edge 55, Type (0, 0), BuildingBlock: EZIPEK_clean_linker_0, # of connection points: 2
#     Edge 56, Type (0, 0), BuildingBlock: EZIPEK_clean_linker_0, # of connection points: 2
#     Edge 57, Type (0, 0), BuildingBlock: EZIPEK_clean_linker_0, # of connection points: 2
#     Edge 58, Type (0, 0), BuildingBlock: EZIPEK_clean_linker_0, # of connection points: 2
#     Edge 59, Type (0, 0), BuildingBlock: EZIPEK_clean_linker_0, # of connection points: 2
#     Edge 60, Type (0, 0), BuildingBlock: EZIPEK_clean_linker_0, # of connection points: 2
#     Edge 61, Type (0, 0), BuildingBlock: EZIPEK_clean_linker_0, # of connection points: 2
#     Edge 62, Type (0, 0), BuildingBlock: EZIPEK_clean_linker_0, # of connection points: 2
#     Edge 63, Type (0, 0), BuildingBlock: EZIPEK_clean_linker_0, # of connection points: 2
# Relax obj value: 0.099
# Max RMSD: 0.119
# Mean RMSD: 0.118
data_MOF--net-vbm--node1-VOLQOD_clean_sbu_1--edge1-EZIPEK_clean_linker_0
_symmetry_space_group_name_H-M    P1
_symmetry_Int_Tables_number       1
_symmetry_cell_setting            triclinic
loop_
_symmetry_equiv_pos_as_xyz
'x, y, z'
_cell_length_a     49.571827
_cell_length_b     12.984706
_cell_length_c     51.808809
_cell_angle_alpha  90.026229
_cell_angle_beta   89.791316
_cell_angle_gamma 90.156537
loop_
_atom_site_label
_atom_site_type_symbol
_atom_site_fract_x
_atom_site_fract_y
_atom_site_fract_z
_atom_type_partial_charge
O0 O 0.10561 0.26692 0.09352 0.0
Zn1 Zn 0.09661 0.11667 0.09077 0.0
O2 O 0.11816 0.03787 0.11459 0.0
Zn3 Zn 0.14696 0.96475 0.0965 0.0
Zn4 Zn 0.13221 0.13389 0.13936 0.0
Zn5 Zn 0.09631 0.94096 0.1329 0.0
O6 O 0.1456 0.81135 0.1035 0.0
O7 O 0.10535 0.80007 0.12245 0.0
O8 O 0.10467 0.07426 0.05471 0.0
O9 O 0.14048 0.97264 0.05844 0.0
O10 O 0.18316 0.03289 0.1036 0.0
O11 O 0.17084 0.15006 0.13265 0.0
O12 O 0.12728 0.08801 0.17577 0.0
O13 O 0.05701 0.092 0.09711 0.0
O14 O 0.10187 0.94814 0.1709 0.0
O15 O 0.05785 0.96169 0.12503 0.0
C16 C 0.11273 0.31958 0.11305 0.0
C17 C 0.12586 0.75838 0.11219 0.0
C18 C 0.18853 0.10952 0.11818 0.0
C19 C 0.12284 0.01774 0.04478 0.0
C20 C 0.11475 0.01095 0.18507 0.0
C21 C 0.04506 0.02414 0.11078 0.0
O22 O 0.11897 0.27717 0.13431 0.0
O23 O 0.87034 0.7127 0.09458 0.0
Zn24 Zn 0.87946 0.86235 0.09166 0.0
O25 O 0.85712 0.94262 0.1147 0.0
Zn26 Zn 0.82893 0.01435 0.09547 0.0
Zn27 Zn 0.84219 0.84869 0.13981 0.0
Zn28 Zn 0.87875 0.0409 0.1327 0.0
O29 O 0.82995 0.1684 0.10183 0.0
O30 O 0.86873 0.18148 0.12306 0.0
O31 O 0.8725 0.90167 0.05538 0.0
O32 O 0.83631 0.00218 0.05746 0.0
O33 O 0.79256 0.94787 0.10258 0.0
O34 O 0.80333 0.83577 0.13334 0.0
O35 O 0.84846 0.89262 0.17635 0.0
O36 O 0.91894 0.88749 0.09825 0.0
O37 O 0.87457 0.03021 0.17072 0.0
O38 O 0.91723 0.02428 0.12409 0.0
C39 C 0.86173 0.66086 0.11373 0.0
C40 C 0.84876 0.22227 0.11181 0.0
C41 C 0.78631 0.8748 0.11798 0.0
C42 C 0.85454 0.95612 0.04459 0.0
C43 C 0.86196 0.96788 0.1853 0.0
C44 C 0.93045 0.95949 0.11081 0.0
O45 O 0.85426 0.70392 0.13458 0.0
O46 O 0.10531 0.6965 0.38522 0.0
Zn47 Zn 0.09809 0.84922 0.38694 0.0
O48 O 0.1233 0.9251 0.36545 0.0
Zn49 Zn 0.15115 -0.00763 0.38651 0.0
Zn50 Zn 0.13831 0.82794 0.34119 0.0
Zn51 Zn 0.10442 0.0274 0.34605 0.0
O52 O 0.14906 0.14941 0.38385 0.0
O53 O 0.11553 0.16691 0.35587 0.0
O54 O 0.1039 0.88572 0.42346 0.0
O55 O 0.1442 0.96163 0.42401 0.0
O56 O 0.18805 0.9337 0.37773 0.0
O57 O 0.17718 0.82076 0.3471 0.0
O58 O 0.13165 0.86453 0.30424 0.0
O59 O 0.05953 0.8858 0.37914 0.0
O60 O 0.10908 0.01139 0.3082 0.0
O61 O 0.06567 0.02255 0.35393 0.0
C62 C 0.1169 0.64221 0.36803 0.0
C63 C 0.13289 0.20558 0.37096 0.0
C64 C 0.19436 0.86201 0.36196 0.0
C65 C 0.1237 0.92434 0.43559 0.0
C66 C 0.12 0.94217 0.2944 0.0
C67 C 0.05041 0.96268 0.36668 0.0
O68 O 0.12761 0.68285 0.34819 0.0
O69 O 0.8799 0.3165 0.38417 0.0
Zn70 Zn 0.88699 0.16454 0.38815 0.0
O71 O 0.86531 0.08615 0.36408 0.0
Zn72 Zn 0.83631 0.009 0.38081 0.0
Zn73 Zn 0.85102 0.17974 0.33922 0.0
Zn74 Zn 0.88731 -0.01006 0.34623 0.0
O75 O 0.83698 0.85724 0.37095 0.0
O76 O 0.87957 0.84964 0.35765 0.0
O77 O 0.87741 0.12071 0.42398 0.0
O78 O 0.84302 0.01144 0.4189 0.0
O79 O 0.80009 0.07704 0.37419 0.0
O80 O 0.81254 0.19725 0.34602 0.0
O81 O 0.85583 0.13212 0.3029 0.0
O82 O 0.92672 0.1366 0.38285 0.0
O83 O 0.88102 -0.00742 0.30835 0.0
O84 O 0.92555 0.01239 0.35332 0.0
C85 C 0.87184 0.3667 0.36455 0.0
C86 C 0.85794 0.80585 0.36479 0.0
C87 C 0.79475 0.15482 0.36007 0.0
C88 C 0.85982 0.05901 0.43315 0.0
C89 C 0.8681 0.05404 0.29392 0.0
C90 C 0.9385 0.07111 0.36841 0.0
O91 O 0.86411 0.32178 0.34408 0.0
O92 O 0.87669 0.70176 0.84068 0.0
Zn93 Zn 0.88476 0.85411 0.83944 0.0
O94 O 0.86192 0.92825 0.86341 0.0
Zn95 Zn 0.83292 -0.00031 0.84545 0.0
Zn96 Zn 0.84814 0.82785 0.88719 0.0
Zn97 Zn 0.8822 0.02671 0.88293 0.0
O98 O 0.83481 0.15473 0.85066 0.0
O99 O 0.87354 0.16758 0.87194 0.0
O100 O 0.8773 0.89986 0.80346 0.0
O101 O 0.83864 -0.01459 0.80762 0.0
O102 O 0.79672 0.93348 0.85323 0.0
O103 O 0.80953 0.8113 0.88064 0.0
O104 O 0.85292 0.86814 0.92389 0.0
O105 O 0.92385 0.88328 0.84707 0.0
O106 O 0.87456 0.01763 0.92077 0.0
O107 O 0.92118 0.00878 0.87633 0.0
C108 C 0.86883 0.64633 0.85953 0.0
C109 C 0.85396 0.20853 0.86011 0.0
C110 C 0.79164 0.85427 0.867 0.0
C111 C 0.8575 0.94838 0.79383 0.0
C112 C 0.86315 0.94797 0.93416 0.0
C113 C 0.93488 0.94983 0.86177 0.0
O114 O 0.86152 0.68592 0.88085 0.0
O115 O 0.10806 0.26656 0.84314 0.0
Zn116 Zn 0.10045 0.11415 0.84031 0.0
O117 O 0.12285 0.03617 0.86379 0.0
Zn118 Zn 0.15149 0.96121 0.84612 0.0
Zn119 Zn 0.13793 0.13055 0.88802 0.0
Zn120 Zn 0.10138 0.93857 0.88229 0.0
O121 O 0.15168 0.80943 0.85583 0.0
O122 O 0.10978 0.79842 0.87095 0.0
O123 O 0.10786 0.0669 0.80432 0.0
O124 O 0.1434 0.9631 0.8084 0.0
O125 O 0.18768 0.03096 0.85146 0.0
O126 O 0.17669 0.14502 0.88169 0.0
O127 O 0.1317 0.0891 0.92433 0.0
O128 O 0.06106 0.08762 0.84744 0.0
O129 O 0.10788 0.94484 0.92038 0.0
O130 O 0.06267 0.95852 0.87559 0.0
C131 C 0.1173 0.31719 0.86224 0.0
C132 C 0.13122 0.75634 0.86276 0.0
C133 C 0.19378 0.10537 0.86643 0.0
C134 C 0.12549 0.00683 0.79473 0.0
C135 C 0.11984 0.01166 0.93419 0.0
C136 C 0.04946 0.02019 0.8615 0.0
O137 O 0.12594 0.27277 0.88237 0.0
O138 O 0.87441 0.26034 0.63736 0.0
Zn139 Zn 0.88182 0.10713 0.63814 0.0
O140 O 0.85825 0.03319 0.61465 0.0
Zn141 Zn 0.82938 0.96212 0.63344 0.0
Zn142 Zn 0.84412 0.13385 0.59129 0.0
Zn143 Zn 0.87798 0.93452 0.59439 0.0
O144 O 0.83131 0.80687 0.62876 0.0
O145 O 0.8681 0.79301 0.60437 0.0
O146 O 0.87456 0.06175 0.67415 0.0
O147 O 0.83539 0.97817 0.67124 0.0
O148 O 0.79296 0.02538 0.62547 0.0
O149 O 0.80522 0.14487 0.59693 0.0
O150 O 0.85069 0.10031 0.55456 0.0
O151 O 0.92076 0.07393 0.63057 0.0
O152 O 0.87225 0.95079 0.55628 0.0
O153 O 0.91684 0.94589 0.60217 0.0
C154 C 0.86498 0.3158 0.61928 0.0
C155 C 0.84935 0.75253 0.61768 0.0
C156 C 0.78747 0.10152 0.61086 0.0
C157 C 0.85479 0.01445 0.68441 0.0
C158 C 0.86155 0.02355 0.54351 0.0
C159 C 0.93109 0.00354 0.61653 0.0
O160 O 0.85613 0.27632 0.59856 0.0
O161 O 0.10261 0.65988 0.6402 0.0
Zn162 Zn 0.09442 0.81263 0.64132 0.0
O163 O 0.11727 0.88633 0.61705 0.0
Zn164 Zn 0.14645 0.95927 0.6346 0.0
Zn165 Zn 0.13144 0.78587 0.59372 0.0
Zn166 Zn 0.09672 0.98235 0.59706 0.0
O167 O 0.14396 0.1139 0.62912 0.0
O168 O 0.10572 0.12477 0.60697 0.0
O169 O 0.10196 0.86263 0.67712 0.0
O170 O 0.14094 0.94657 0.67249 0.0
O171 O 0.18304 0.89627 0.62647 0.0
O172 O 0.16983 0.77021 0.60036 0.0
O173 O 0.12773 0.8258 0.55704 0.0
O174 O 0.05508 0.84026 0.6338 0.0
O175 O 0.10278 0.9673 0.55903 0.0
O176 O 0.05803 0.9655 0.60456 0.0
C177 C 0.11035 0.60463 0.62126 0.0
C178 C 0.12504 0.16674 0.61909 0.0
C179 C 0.18799 0.81577 0.61316 0.0
C180 C 0.12189 0.9118 0.68649 0.0
C181 C 0.11589 0.90062 0.54618 0.0
C182 C 0.04419 0.90719 0.61917 0.0
O183 O 0.11764 0.64442 0.59995 0.0
O184 O 0.59879 0.80933 0.09318 0.0
Zn185 Zn 0.59206 0.65677 0.08931 0.0
O186 O 0.61566 0.5783 0.11165 0.0
Zn187 Zn 0.64437 0.50651 0.09278 0.0
Zn188 Zn 0.63079 0.67119 0.13653 0.0
Zn189 Zn 0.59462 0.47848 0.12974 0.0
O190 O 0.64426 0.35201 0.10033 0.0
O191 O 0.60388 0.33944 0.11874 0.0
O192 O 0.60004 0.61822 0.05304 0.0
O193 O 0.63712 0.52158 0.05485 0.0
O194 O 0.68086 0.5722 0.09989 0.0
O195 O 0.66953 0.68501 0.13026 0.0
O196 O 0.62518 0.62588 0.1729 0.0
O197 O 0.5528 0.62353 0.0955 0.0
O198 O 0.60079 0.48364 0.16756 0.0
O199 O 0.55601 0.49244 0.12285 0.0
C200 C 0.6094 0.8596 0.11167 0.0
C201 C 0.62463 0.29811 0.10893 0.0
C202 C 0.68687 0.64535 0.11529 0.0
C203 C 0.61855 0.56616 0.04214 0.0
C204 C 0.61317 0.54713 0.18194 0.0
C205 C 0.54208 0.55224 0.10896 0.0
O206 O 0.61933 0.81473 0.1312 0.0
O207 O 0.37186 0.18948 0.09086 0.0
Zn208 Zn 0.38015 0.34083 0.08867 0.0
O209 O 0.35673 0.41844 0.11149 0.0
Zn210 Zn 0.32831 0.48844 0.09202 0.0
Zn211 Zn 0.34231 0.32217 0.1363 0.0
Zn212 Zn 0.3771 0.5186 0.1302 0.0
O213 O 0.32926 0.64366 0.09736 0.0
O214 O 0.36676 0.65866 0.12044 0.0
O215 O 0.37329 0.38061 0.05238 0.0
O216 O 0.33572 0.47374 0.05405 0.0
O217 O 0.29195 0.42224 0.09986 0.0
O218 O 0.30343 0.31102 0.13061 0.0
O219 O 0.34897 0.36191 0.173 0.0
O220 O 0.41938 0.37191 0.09565 0.0
O221 O 0.37274 0.50592 0.16816 0.0
O222 O 0.41559 0.50697 0.12187 0.0
C223 C 0.36231 0.13614 0.10936 0.0
C224 C 0.34743 0.69855 0.10806 0.0
C225 C 0.28606 0.34988 0.11561 0.0
C226 C 0.35471 0.43128 0.04138 0.0
C227 C 0.36126 0.43925 0.18238 0.0
C228 C 0.42977 0.44565 0.10849 0.0
O229 O 0.35383 0.1777 0.13003 0.0
O230 O 0.60548 0.20121 0.37689 0.0
Zn231 Zn 0.59845 0.35269 0.38188 0.0
O232 O 0.62283 0.4359 0.36109 0.0
Zn233 Zn 0.65016 0.5067 0.38199 0.0
Zn234 Zn 0.63997 0.34791 0.33602 0.0
Zn235 Zn 0.60193 0.53597 0.34304 0.0
O236 O 0.65045 0.66145 0.37529 0.0
O237 O 0.61295 0.67528 0.35226 0.0
O238 O 0.60503 0.38391 0.41872 0.0
O239 O 0.6414 0.48508 0.41954 0.0
O240 O 0.687 0.44437 0.37589 0.0
O241 O 0.67882 0.34196 0.34244 0.0
O242 O 0.63308 0.38967 0.29952 0.0
O243 O 0.5594 0.38625 0.37553 0.0
O244 O 0.60599 0.52406 0.30508 0.0
O245 O 0.56342 0.52706 0.35149 0.0
C246 C 0.61865 0.15393 0.35941 0.0
C247 C 0.63261 0.71583 0.36406 0.0
C248 C 0.69471 0.37807 0.3593 0.0
C249 C 0.62266 0.43544 0.43098 0.0
C250 C 0.61898 0.46292 0.29055 0.0
C251 C 0.54913 0.46306 0.36395 0.0
O252 O 0.6307 0.20174 0.34138 0.0
O253 O 0.37549 0.7874 0.38076 0.0
Zn254 Zn 0.38355 0.63643 0.38514 0.0
O255 O 0.36265 0.55581 0.36108 0.0
Zn256 Zn 0.33372 0.47883 0.37771 0.0
Zn257 Zn 0.34841 0.64796 0.33589 0.0
Zn258 Zn 0.38506 0.45913 0.34394 0.0
O259 O 0.33377 0.3281 0.36679 0.0
O260 O 0.37699 0.31883 0.3555 0.0
O261 O 0.37406 0.59227 0.42095 0.0
O262 O 0.34094 0.4776 0.41572 0.0
O263 O 0.29788 0.55112 0.37217 0.0
O264 O 0.31007 0.66835 0.34309 0.0
O265 O 0.35308 0.59703 0.2999 0.0
O266 O 0.42344 0.612 0.37998 0.0
O267 O 0.37935 0.4607 0.30591 0.0
O268 O 0.4232 0.48404 0.35141 0.0
C269 C 0.36838 0.83637 0.3606 0.0
C270 C 0.35484 0.27581 0.36145 0.0
C271 C 0.29256 0.62854 0.35792 0.0
C272 C 0.35719 0.52754 0.43004 0.0
C273 C 0.36604 0.52001 0.29124 0.0
C274 C 0.43569 0.54592 0.36608 0.0
O275 O 0.36201 0.7901 0.33988 0.0
O276 O 0.37822 0.18618 0.83687 0.0
Zn277 Zn 0.38592 0.33939 0.83599 0.0
O278 O 0.36273 0.41202 0.86001 0.0
Zn279 Zn 0.33349 0.48247 0.84204 0.0
Zn280 Zn 0.34922 0.31053 0.88367 0.0
Zn281 Zn 0.38264 0.5112 0.87975 0.0
O282 O 0.33567 0.6381 0.84651 0.0
O283 O 0.37376 0.65208 0.86875 0.0
O284 O 0.37829 0.38625 0.80013 0.0
O285 O 0.33868 0.46538 0.80415 0.0
O286 O 0.29721 0.41843 0.85089 0.0
O287 O 0.31041 0.29545 0.87789 0.0
O288 O 0.35452 0.34888 0.92041 0.0
O289 O 0.42498 0.37108 0.84352 0.0
O290 O 0.37503 0.50079 0.91767 0.0
O291 O 0.42168 0.49563 0.87297 0.0
C292 C 0.36999 0.12995 0.85543 0.0
C293 C 0.3545 0.69247 0.85633 0.0
C294 C 0.29224 0.33954 0.86482 0.0
C295 C 0.35799 0.43141 0.79041 0.0
C296 C 0.36422 0.42923 0.93091 0.0
C297 C 0.43568 0.43838 0.85825 0.0
O298 O 0.36227 0.16874 0.87671 0.0
O299 O 0.60804 0.77796 0.83731 0.0
Zn300 Zn 0.59971 0.62537 0.83629 0.0
O301 O 0.62263 0.55063 0.86014 0.0
Zn302 Zn 0.65134 0.47773 0.84175 0.0
Zn303 Zn 0.63771 0.64982 0.88328 0.0
Zn304 Zn 0.60172 0.45524 0.88048 0.0
O305 O 0.64891 0.32395 0.84783 0.0
O306 O 0.6118 0.31216 0.87198 0.0
O307 O 0.60653 0.57574 0.8004 0.0
O308 O 0.64491 0.48812 0.80389 0.0
O309 O 0.68822 0.54028 0.84907 0.0
O310 O 0.67637 0.66154 0.87716 0.0
O311 O 0.63212 0.61522 0.91997 0.0
O312 O 0.56037 0.59764 0.84398 0.0
O313 O 0.60525 0.47841 0.91863 0.0
O314 O 0.56321 0.46725 0.87172 0.0
C315 C 0.61693 0.83237 0.8559 0.0
C316 C 0.63075 0.27067 0.85915 0.0
C317 C 0.69398 0.61718 0.86338 0.0
C318 C 0.62574 0.52436 0.79047 0.0
C319 C 0.61846 0.54566 0.93122 0.0
C320 C 0.54944 0.52735 0.85768 0.0
O321 O 0.62527 0.79185 0.87667 0.0
O322 O 0.37477 0.74987 0.63071 0.0
Zn323 Zn 0.38085 0.59687 0.63434 0.0
O324 O 0.35757 0.51835 0.61135 0.0
Zn325 Zn 0.32936 0.44314 0.63001 0.0
Zn326 Zn 0.34141 0.61223 0.58763 0.0
Zn327 Zn 0.37857 0.42201 0.5918 0.0
O328 O 0.32936 0.29055 0.62129 0.0
O329 O 0.36929 0.28107 0.60184 0.0
O330 O 0.37287 0.55679 0.67072 0.0
O331 O 0.33759 0.45053 0.66764 0.0
O332 O 0.2928 0.50954 0.62508 0.0
O333 O 0.30279 0.62362 0.59456 0.0
O334 O 0.3473 0.5747 0.55104 0.0
O335 O 0.41998 0.56385 0.6279 0.0
O336 O 0.3726 0.43425 0.55364 0.0
O337 O 0.41733 0.43642 0.59932 0.0
C338 C 0.36365 0.79991 0.61251 0.0
C339 C 0.34889 0.23825 0.61208 0.0
C340 C 0.28616 0.58322 0.61018 0.0
C341 C 0.35526 0.49793 0.68089 0.0
C342 C 0.35992 0.50089 0.54046 0.0
C343 C 0.43101 0.49506 0.6139 0.0
O344 O 0.35274 0.75493 0.59349 0.0
O345 O 0.60473 0.17475 0.63522 0.0
Zn346 Zn 0.59613 0.32649 0.63707 0.0
O347 O 0.61831 0.40247 0.61268 0.0
Zn348 Zn 0.64715 0.47722 0.63017 0.0
Zn349 Zn 0.63316 0.30428 0.58915 0.0
Zn350 Zn 0.59688 0.49643 0.59291 0.0
O351 O 0.64464 0.63063 0.62365 0.0
O352 O 0.60596 0.63951 0.60209 0.0
O353 O 0.6037 0.37516 0.67298 0.0
O354 O 0.64124 0.46788 0.66807 0.0
O355 O 0.68386 0.41396 0.6229 0.0
O356 O 0.67154 0.28871 0.59616 0.0
O357 O 0.62941 0.34568 0.5526 0.0
O358 O 0.55661 0.35111 0.63009 0.0
O359 O 0.6019 0.47997 0.55478 0.0
O360 O 0.55839 0.47793 0.60121 0.0
C361 C 0.61225 0.12111 0.61592 0.0
C362 C 0.62552 0.68245 0.61365 0.0
C363 C 0.68928 0.33409 0.60953 0.0
C364 C 0.62286 0.42899 0.6822 0.0
C365 C 0.61607 0.4169 0.54181 0.0
C366 C 0.54512 0.41778 0.61584 0.0
O367 O 0.61935 0.16249 0.59474 0.0
C368 C 0.22456 0.20077 0.09252 0.0
C369 C 0.21472 0.16364 0.11659 0.0
C370 C 0.24701 0.27398 0.13901 0.0
C371 C 0.25947 0.29848 0.11512 0.0
N372 N 0.26367 0.26179 0.06934 0.0
N373 N 0.22051 0.14906 0.16268 0.0
C374 C 0.2493 0.25557 0.09185 0.0
C375 C 0.22718 0.1955 0.13985 0.0
N376 N 0.20981 0.18932 0.07048 0.0
N377 N 0.25381 0.3271 0.16083 0.0
H378 H 0.20678 0.08814 0.16383 0.0
H379 H 0.23071 0.16344 0.17987 0.0
H380 H 0.26762 0.38794 0.16067 0.0
H381 H 0.24365 0.3182 0.17834 0.0
H382 H 0.2152 0.22429 0.05309 0.0
H383 H 0.19082 0.15506 0.07009 0.0
H384 H 0.25806 0.22212 0.05269 0.0
H385 H 0.28247 0.2972 0.06782 0.0
C386 C 0.75031 0.78398 0.09234 0.0
C387 C 0.75984 0.82268 0.11633 0.0
C388 C 0.72593 0.71945 0.13887 0.0
C389 C 0.71381 0.69425 0.11492 0.0
N390 N 0.71126 0.72578 0.06883 0.0
N391 N 0.75282 0.84367 0.16217 0.0
C392 C 0.72504 0.73278 0.09157 0.0
C393 C 0.74644 0.79533 0.13955 0.0
N394 N 0.76579 0.79041 0.07052 0.0
N395 N 0.71823 0.66926 0.16089 0.0
H396 H 0.76701 0.90306 0.16318 0.0
H397 H 0.74198 0.83262 0.17922 0.0
H398 H 0.70402 0.60978 0.16088 0.0
H399 H 0.72806 0.67877 0.17848 0.0
H400 H 0.76051 0.75417 0.0533 0.0
H401 H 0.78517 0.82143 0.07024 0.0
H402 H 0.71773 0.76257 0.05202 0.0
H403 H 0.69217 0.69284 0.0672 0.0
C404 C 0.25364 0.71437 0.33686 0.0
C405 C 0.26651 0.6828 0.35992 0.0
C406 C 0.23212 0.77241 0.38527 0.0
C407 C 0.22136 0.81445 0.36217 0.0
N408 N 0.22628 0.84458 0.31645 0.0
N409 N 0.27216 0.70794 0.40596 0.0
C410 C 0.23359 0.79152 0.33809 0.0
C411 C 0.257 0.71911 0.38416 0.0
N412 N 0.26 0.66857 0.31388 0.0
N413 N 0.21817 0.77778 0.40803 0.0
H414 H 0.29121 0.6744 0.40601 0.0
H415 H 0.26701 0.74238 0.42347 0.0
H416 H 0.19937 0.81253 0.40995 0.0
H417 H 0.22418 0.73833 0.42456 0.0
H418 H 0.24948 0.68274 0.29687 0.0
H419 H 0.2738 0.60827 0.31242 0.0
H420 H 0.23622 0.83681 0.2988 0.0
H421 H 0.21225 0.90438 0.31691 0.0
C422 C 0.75617 0.23536 0.38455 0.0
C423 C 0.76801 0.20466 0.36077 0.0
C424 C 0.73594 0.31251 0.33757 0.0
C425 C 0.72164 0.33029 0.36087 0.0
N426 N 0.71482 0.2838 0.40584 0.0
N427 N 0.76487 0.19527 0.3143 0.0
C428 C 0.73076 0.28505 0.38426 0.0
C429 C 0.75657 0.23761 0.33713 0.0
N430 N 0.76952 0.22231 0.40734 0.0
N431 N 0.73015 0.36852 0.31597 0.0
H432 H 0.77903 0.13606 0.31333 0.0
H433 H 0.7555 0.21073 0.29674 0.0
H434 H 0.71582 0.42728 0.31592 0.0
H435 H 0.7416 0.36431 0.29909 0.0
H436 H 0.76257 0.25296 0.42473 0.0
H437 H 0.78879 0.19115 0.40855 0.0
H438 H 0.71985 0.24227 0.42235 0.0
H439 H 0.69543 0.31431 0.40654 0.0
C440 C 0.73285 0.68967 0.88715 0.0
C441 C 0.72095 0.66515 0.86309 0.0
C442 C 0.75625 0.76316 0.8409 0.0
C443 C 0.76555 0.80009 0.86513 0.0
N444 N 0.75931 0.81307 0.91122 0.0
N445 N 0.71815 0.69748 0.81711 0.0
C446 C 0.75281 0.76756 0.88826 0.0
C447 C 0.73175 0.70676 0.8399 0.0
N448 N 0.72528 0.63725 0.90888 0.0
N449 N 0.7713 0.77671 0.81898 0.0
H450 H 0.6999 0.65828 0.81526 0.0
H451 H 0.72388 0.7369 0.80043 0.0
H452 H 0.78988 0.81429 0.81865 0.0
H453 H 0.76654 0.74127 0.80152 0.0
H454 H 0.73498 0.64572 0.92657 0.0
H455 H 0.71118 0.57737 0.90851 0.0
H456 H 0.74892 0.79859 0.92836 0.0
H457 H 0.77322 0.87331 0.91257 0.0
C458 C 0.25447 0.25331 0.8407 0.0
C459 C 0.26562 0.28849 0.86436 0.0
C460 C 0.23377 0.18038 0.88821 0.0
C461 C 0.22031 0.15663 0.86486 0.0
N462 N 0.21429 0.1928 0.81932 0.0
N463 N 0.26202 0.30276 0.91066 0.0
C464 C 0.22961 0.19906 0.84116 0.0
C465 C 0.25406 0.25717 0.88816 0.0
N466 N 0.26803 0.26649 0.81792 0.0
N467 N 0.22752 0.12802 0.91033 0.0
H468 H 0.27605 0.36273 0.91111 0.0
H469 H 0.2526 0.28902 0.92835 0.0
H470 H 0.21334 0.06849 0.91082 0.0
H471 H 0.23839 0.13613 0.92739 0.0
H472 H 0.26184 0.23209 0.80074 0.0
H473 H 0.28674 0.30268 0.81647 0.0
H474 H 0.21913 0.2325 0.80244 0.0
H475 H 0.19549 0.15694 0.81865 0.0
C476 C 0.7261 0.24843 0.63478 0.0
C477 C 0.71586 0.28384 0.61081 0.0
C478 C 0.74836 0.17596 0.58787 0.0
C479 C 0.76082 0.1514 0.61163 0.0
N480 N 0.76519 0.18586 0.65743 0.0
N481 N 0.72092 0.29814 0.56462 0.0
C482 C 0.75075 0.19337 0.63508 0.0
C483 C 0.72816 0.25265 0.58735 0.0
N484 N 0.71183 0.26227 0.65714 0.0
N485 N 0.75552 0.12447 0.56587 0.0
H486 H 0.70678 0.35742 0.56371 0.0
H487 H 0.73094 0.28479 0.54723 0.0
H488 H 0.76974 0.06534 0.5658 0.0
H489 H 0.7454 0.13291 0.54841 0.0
H490 H 0.71724 0.22753 0.6745 0.0
H491 H 0.69331 0.29981 0.65804 0.0
H492 H 0.75991 0.2254 0.67421 0.0
H493 H 0.78373 0.14868 0.65872 0.0
C494 C 0.22632 0.73231 0.63689 0.0
C495 C 0.21469 0.76609 0.61337 0.0
C496 C 0.24568 0.65613 0.58919 0.0
C497 C 0.25961 0.63338 0.6123 0.0
N498 N 0.26675 0.67138 0.65762 0.0
N499 N 0.21728 0.77786 0.56694 0.0
C500 C 0.25097 0.67716 0.63609 0.0
C501 C 0.22564 0.73336 0.58943 0.0
N502 N 0.21341 0.74791 0.65991 0.0
N503 N 0.25127 0.60246 0.56712 0.0
H504 H 0.2033 0.8378 0.56652 0.0
H505 H 0.22632 0.76307 0.54913 0.0
H506 H 0.2653 0.54268 0.56653 0.0
H507 H 0.24002 0.60981 0.55027 0.0
H508 H 0.21984 0.71441 0.6771 0.0
H509 H 0.195 0.7858 0.66162 0.0
H510 H 0.26245 0.71207 0.67449 0.0
H511 H 0.28537 0.63457 0.65805 0.0
C512 C 0.09339 0.95728 0.25396 0.0
C513 C 0.11889 0.95303 0.26621 0.0
C514 C 0.14159 0.97388 0.22462 0.0
C515 C 0.11614 -0.00895 0.21295 0.0
N516 N 0.06801 0.01524 0.21694 0.0
N517 N 0.16732 0.97293 0.2642 0.0
C518 C 0.09203 -0.01307 0.2277 0.0
C519 C 0.14307 0.96523 0.25183 0.0
N520 N 0.07059 0.92976 0.26722 0.0
N521 N 0.16417 0.96198 0.20967 0.0
H522 H 0.16933 0.96761 0.28418 0.0
H523 H 0.18519 -0.00653 0.25486 0.0
H524 H 0.16391 0.96583 0.18957 0.0
H525 H 0.1827 0.93856 0.21702 0.0
H526 H 0.05176 0.92171 0.25859 0.0
H527 H 0.07096 0.90488 0.28636 0.0
H528 H 0.05029 0.02409 0.22756 0.0
H529 H 0.06623 0.03918 0.1978 0.0
C530 C 0.89044 0.02145 0.25147 0.0
C531 C 0.86642 0.03126 0.26618 0.0
C532 C 0.83923 0.00361 0.22752 0.0
C533 C 0.86322 -0.01563 0.21335 0.0
N534 N 0.91119 0.95283 0.21283 0.0
N535 N 0.81809 0.00916 0.26961 0.0
C536 C 0.88874 -0.01316 0.22562 0.0
C537 C 0.8408 0.01599 0.25463 0.0
N538 N 0.91475 0.04895 0.26185 0.0
N539 N 0.81515 0.01445 0.21504 0.0
H540 H 0.81837 0.01516 0.28968 0.0
H541 H 0.79933 -0.01254 0.26237 0.0
H542 H 0.8131 0.00734 0.19509 0.0
H543 H 0.79763 0.03979 0.22419 0.0
H544 H 0.9325 0.05337 0.2511 0.0
H545 H 0.91679 0.077 0.28062 0.0
H546 H 0.92986 0.94346 0.22168 0.0
H547 H 0.91055 0.92393 0.19406 0.0
C548 C 0.85426 0.08322 0.72928 0.0
C549 C 0.85495 -0.00255 0.71239 0.0
C550 C 0.85462 0.87925 0.74906 0.0
C551 C 0.85669 0.965 0.76585 0.0
N552 N 0.86325 0.1477 0.77222 0.0
N553 N 0.86063 0.81458 0.70563 0.0
C554 C 0.8578 0.06694 0.75607 0.0
C555 C 0.85642 0.89546 0.72208 0.0
N556 N 0.84934 0.17964 0.71981 0.0
N557 N 0.84998 0.78294 0.75883 0.0
H558 H 0.86238 0.82318 0.68568 0.0
H559 H 0.86481 0.74013 0.71191 0.0
H560 H 0.84831 0.76804 0.77856 0.0
H561 H 0.84538 0.71944 0.74735 0.0
H562 H 0.84575 0.24335 0.73154 0.0
H563 H 0.84638 0.19445 0.70024 0.0
H564 H 0.86717 0.22214 0.76571 0.0
H565 H 0.8663 0.13889 0.792 0.0
C566 C 0.12731 0.0627 0.7487 0.0
C567 C 0.12427 0.98276 0.76706 0.0
C568 C 0.12172 0.85477 0.73256 0.0
C569 C 0.12221 0.93565 0.71422 0.0
N570 N 0.11937 0.11775 0.70483 0.0
N571 N 0.11247 0.80625 0.77676 0.0
C572 C 0.12329 0.04014 0.72226 0.0
C573 C 0.11975 0.87959 0.75911 0.0
N574 N 0.13492 0.15923 0.75639 0.0
N575 N 0.12414 0.75464 0.72473 0.0
H576 H 0.10995 0.8221 0.79636 0.0
H577 H 0.10635 0.73223 0.77163 0.0
H578 H 0.12603 0.73328 0.7054 0.0
H579 H 0.12679 0.69365 0.73753 0.0
H580 H 0.14021 0.21747 0.74349 0.0
H581 H 0.13839 0.17856 0.77565 0.0
H582 H 0.11721 0.19468 0.71015 0.0
H583 H 0.11555 0.10459 0.68532 0.0
C584 C 0.59235 0.47905 0.25011 0.0
C585 C 0.61778 0.47936 0.26254 0.0
C586 C 0.64034 0.51309 0.22145 0.0
C587 C 0.61474 0.52544 0.20971 0.0
N588 N 0.56629 0.53793 0.21364 0.0
N589 N 0.66564 0.5156 0.26123 0.0
C590 C 0.59066 0.51322 0.22423 0.0
C591 C 0.64175 0.50141 0.24857 0.0
N592 N 0.57 0.4429 0.26277 0.0
N593 N 0.66322 0.50822 0.20666 0.0
H594 H 0.66755 0.50944 0.2812 0.0
H595 H 0.68303 0.54294 0.25217 0.0
H596 H 0.66308 0.51354 0.18658 0.0
H597 H 0.68202 0.48863 0.21408 0.0
H598 H 0.55145 0.43156 0.25381 0.0
H599 H 0.57064 0.41439 0.28158 0.0
H600 H 0.5484 0.54046 0.22424 0.0
H601 H 0.56425 0.56556 0.19485 0.0
C602 C 0.33945 0.47678 0.25191 0.0
C603 C 0.36482 0.49638 0.26354 0.0
C604 C 0.38775 0.45946 0.22281 0.0
C605 C 0.3623 0.45316 0.21051 0.0
N606 N 0.31384 0.47251 0.2123 0.0
N607 N 0.41291 0.52278 0.25948 0.0
C608 C 0.33806 0.46598 0.22475 0.0
C609 C 0.38898 0.49195 0.24887 0.0
N610 N 0.31686 0.46478 0.26686 0.0
N611 N 0.41063 0.43127 0.20983 0.0
H612 H 0.4146 0.54909 0.27843 0.0
H613 H 0.43062 0.53137 0.24881 0.0
H614 H 0.41038 0.40438 0.19086 0.0
H615 H 0.42942 0.42467 0.21862 0.0
H616 H 0.29842 0.43979 0.25955 0.0
H617 H 0.31708 0.46995 0.28695 0.0
H618 H 0.29597 0.49328 0.22155 0.0
H619 H 0.31189 0.46637 0.19233 0.0
C620 C 0.35829 0.36284 0.74542 0.0
C621 C 0.35723 0.44834 0.7624 0.0
C622 C 0.35207 0.56546 0.72586 0.0
C623 C 0.35593 0.48117 0.70889 0.0
N624 N 0.36849 0.30346 0.70226 0.0
N625 N 0.3587 0.63271 0.7689 0.0
C626 C 0.36064 0.38071 0.71857 0.0
C627 C 0.35565 0.55033 0.75269 0.0
N628 N 0.35607 0.2648 0.75484 0.0
N629 N 0.34413 0.65895 0.71645 0.0
H630 H 0.36206 0.6251 0.78867 0.0
H631 H 0.36051 0.70831 0.76239 0.0
H632 H 0.34098 0.67278 0.69686 0.0
H633 H 0.33827 0.71994 0.72826 0.0
H634 H 0.35388 0.20036 0.74303 0.0
H635 H 0.35381 0.24845 0.77444 0.0
H636 H 0.37476 0.2314 0.70867 0.0
H637 H 0.37132 0.3144 0.68249 0.0
C638 C 0.62516 0.58091 0.74445 0.0
C639 C 0.62488 0.50006 0.76278 0.0
C640 C 0.62527 0.37197 0.72816 0.0
C641 C 0.62306 0.45271 0.70993 0.0
N642 N 0.61534 0.63264 0.70065 0.0
N643 N 0.61907 0.31924 0.77255 0.0
C644 C 0.62144 0.55697 0.71803 0.0
C645 C 0.62338 0.39556 0.7548 0.0
N646 N 0.62995 0.68002 0.75215 0.0
N647 N 0.63017 0.27346 0.7201 0.0
H648 H 0.61703 0.33329 0.79228 0.0
H649 H 0.61496 0.24315 0.76751 0.0
H650 H 0.63192 0.25317 0.70068 0.0
H651 H 0.63489 0.21364 0.73267 0.0
H652 H 0.63327 0.74038 0.73928 0.0
H653 H 0.6331 0.70052 0.77138 0.0
H654 H 0.61113 0.70827 0.70598 0.0
H655 H 0.61193 0.61809 0.68113 0.0
C656 C 0.14612 0.0069 0.97496 0.0
C657 C 0.12085 -0.00128 0.96239 0.0
C658 C 0.09863 0.97479 0.00406 0.0
C659 C 0.12295 0.00316 0.01657 0.0
N660 N 0.16925 0.06196 0.01344 0.0
N661 N 0.07212 -0.01028 0.96527 0.0
C662 C 0.14668 0.02267 0.00196 0.0
C663 C 0.09678 -0.01425 0.97695 0.0
N664 N 0.16957 -0.00243 0.96121 0.0
N665 N 0.07757 0.93504 0.01797 0.0
H666 H 0.06963 0.00135 0.94553 0.0
H667 H 0.05404 -0.00856 0.97558 0.0
H668 H 0.07867 0.92157 0.03779 0.0
H669 H 0.06027 0.90486 0.00943 0.0
H670 H 0.18848 -0.00622 0.96989 0.0
H671 H 0.16995 0.98207 0.94144 0.0
H672 H 0.186 0.08746 0.00302 0.0
H673 H 0.17033 0.07886 0.03304 0.0
C674 C 0.8347 0.95081 0.97391 0.0
C675 C 0.86051 0.96152 0.96227 0.0
C676 C 0.8802 -0.00328 0.00446 0.0
C677 C 0.85555 0.96697 0.01631 0.0
N678 N 0.81011 0.90049 0.01217 0.0
N679 N 0.90885 0.97977 0.96692 0.0
C680 C 0.83286 0.94059 0.00105 0.0
C681 C 0.88359 0.98125 0.9776 0.0
N682 N 0.81191 0.9532 0.95915 0.0
N683 N 0.9001 0.04195 0.01876 0.0
H684 H 0.91245 0.96501 0.94744 0.0
H685 H 0.9264 0.98319 0.9779 0.0
H686 H 0.89782 0.05842 0.03836 0.0
H687 H 0.91753 0.07327 0.01061 0.0
H688 H 0.79253 0.9551 0.967 0.0
H689 H 0.81236 0.96484 0.93923 0.0
H690 H 0.79422 0.86983 0.00149 0.0
H691 H 0.80808 0.88863 0.03196 0.0
C692 C 0.12631 0.01019 0.47891 0.0
C693 C 0.12313 0.91955 0.46394 0.0
C694 C 0.1112 0.82206 0.50257 0.0
C695 C 0.11752 0.90921 0.51789 0.0
N696 N 0.13693 0.08002 0.52092 0.0
N697 N 0.11943 0.7339 0.46232 0.0
C698 C 0.12671 0.00184 0.50619 0.0
C699 C 0.11761 0.82375 0.476 0.0
N700 N 0.12784 0.10445 0.46725 0.0
N701 N 0.09811 0.73923 0.5131 0.0
H702 H 0.12533 0.73119 0.44299 0.0
H703 H 0.11802 0.66154 0.47093 0.0
H704 H 0.09185 0.73672 0.53233 0.0
H705 H 0.09084 0.6781 0.50206 0.0
H706 H 0.12734 0.17347 0.47751 0.0
H707 H 0.127 0.11434 0.4473 0.0
H708 H 0.14635 0.14465 0.51303 0.0
H709 H 0.13854 0.07592 0.54095 0.0
C710 C 0.83585 0.0328 0.50244 0.0
C711 C 0.86088 0.01906 0.51513 0.0
C712 C 0.88372 0.00767 0.47341 0.0
C713 C 0.85961 0.03964 0.46115 0.0
N714 N 0.81341 0.09757 0.46451 0.0
N715 N 0.90956 0.00813 0.51284 0.0
C716 C 0.83574 0.0556 0.47574 0.0
C717 C 0.88512 0.00962 0.5007 0.0
N718 N 0.81216 0.02178 0.51579 0.0
N719 N 0.90498 0.97268 0.45903 0.0
H720 H 0.91169 0.01208 0.53281 0.0
H721 H 0.92787 0.01261 0.50294 0.0
H722 H 0.90428 0.96631 0.43897 0.0
H723 H 0.9221 0.93964 0.46715 0.0
H724 H 0.79333 0.02175 0.50692 0.0
H725 H 0.81145 0.00152 0.53527 0.0
H726 H 0.79651 0.12078 0.475 0.0
H727 H 0.81269 0.11857 0.44513 0.0
C728 C 0.61967 0.46168 0.00145 0.0
C729 C 0.61851 0.55914 0.01379 0.0
C730 C 0.61164 0.6423 0.97221 0.0
C731 C 0.61707 0.54754 0.95962 0.0
N732 N 0.63156 0.37004 0.96247 0.0
N733 N 0.61967 0.74491 0.01021 0.0
C734 C 0.62254 0.45767 0.97425 0.0
C735 C 0.61628 0.65044 -0.00101 0.0
N736 N 0.61686 0.37315 0.01546 0.0
N737 N 0.60109 0.72345 0.95885 0.0
H738 H 0.62449 0.7545 0.02965 0.0
H739 H 0.62068 0.81298 -0.00041 0.0
H740 H 0.59587 0.71898 0.93939 0.0
H741 H 0.5946 0.79092 0.96782 0.0
H742 H 0.61513 0.30065 0.00697 0.0
H743 H 0.61327 0.37307 0.03529 0.0
H744 H 0.6383 0.30612 0.97273 0.0
H745 H 0.63493 0.36461 0.94264 0.0
C746 C 0.38409 0.46348 0.97461 0.0
C747 C 0.36132 0.44133 0.95907 0.0
C748 C 0.33369 0.41362 -0.0024 0.0
C749 C 0.35595 0.44266 0.01311 0.0
N750 N 0.39961 0.5248 0.01606 0.0
N751 N 0.31284 0.42717 0.95569 0.0
C752 C 0.38035 0.47692 0.00151 0.0
C753 C 0.33557 0.42629 0.97054 0.0
N754 N 0.4094 0.46644 0.96409 0.0
N755 N 0.31134 0.36899 0.00839 0.0
H756 H 0.31332 0.4415 0.93589 0.0
H757 H 0.29342 0.42552 0.96346 0.0
H758 H 0.30937 0.35475 0.0281 0.0
H759 H 0.29585 0.3369 -0.00255 0.0
H760 H 0.42683 0.4718 0.9752 0.0
H761 H 0.41327 0.45353 0.94457 0.0
H762 H 0.41675 0.55918 0.0081 0.0
H763 H 0.39699 0.54033 0.03567 0.0
C764 C 0.622 0.52541 0.47391 0.0
C765 C 0.62174 0.43279 0.45939 0.0
C766 C 0.61289 0.33424 0.49856 0.0
C767 C 0.6169 0.42448 0.51346 0.0
N768 N 0.63123 0.60276 0.51538 0.0
N769 N 0.62404 0.24668 0.45896 0.0
C770 C 0.62311 0.51952 0.50121 0.0
C771 C 0.61925 0.33633 0.47201 0.0
N772 N 0.62008 0.61867 0.46186 0.0
N773 N 0.60205 0.24756 0.50947 0.0
H774 H 0.63035 0.24495 0.43975 0.0
H775 H 0.62481 0.17512 0.46804 0.0
H776 H 0.59568 0.24431 0.52866 0.0
H777 H 0.59655 0.18307 0.49869 0.0
H778 H 0.61757 0.68766 0.47186 0.0
H779 H 0.61815 0.6263 0.44192 0.0
H780 H 0.63847 0.67038 0.50698 0.0
H781 H 0.63344 0.60095 0.53537 0.0
C782 C 0.33387 0.49757 0.49951 0.0
C783 C 0.35918 0.4927 0.51212 0.0
C784 C 0.38189 0.48307 0.47033 0.0
C785 C 0.35722 0.50784 0.45804 0.0
N786 N 0.30999 0.5527 0.46145 0.0
N787 N 0.40796 0.49558 0.50947 0.0
C788 C 0.33316 0.51806 0.47269 0.0
C789 C 0.38345 0.48849 0.49757 0.0
N790 N 0.31055 0.48054 0.51304 0.0
N791 N 0.40359 0.45181 0.45603 0.0
H792 H 0.41019 0.5031 0.52937 0.0
H793 H 0.42603 0.50387 0.49934 0.0
H794 H 0.40278 0.44258 0.43604 0.0
H795 H 0.42131 0.42413 0.46424 0.0
H796 H 0.29174 0.47397 0.50427 0.0
H797 H 0.31036 0.46173 0.53263 0.0
H798 H 0.29278 0.57194 0.47197 0.0
H799 H 0.30866 0.57169 0.44197 0.0
C800 C 0.97367 -0.01516 0.08632 0.0
C801 C 0.95997 0.97051 0.11015 0.0
C802 C 0.00108 0.01261 0.13369 0.0
C803 C 0.01552 0.01433 0.11004 0.0
N804 N 0.01657 0.98086 0.06408 0.0
N805 N 0.96191 0.94807 0.15638 0.0
C806 C 0.00215 -0.00522 0.08634 0.0
C807 C 0.97406 0.97782 0.13384 0.0
N808 N 0.95955 -0.00661 0.06381 0.0
N809 N 0.01294 0.04708 0.15587 0.0
H810 H 0.94242 0.91768 0.15706 0.0
H811 H 0.97213 0.943 0.17387 0.0
H812 H 0.03251 0.07684 0.15634 0.0
H813 H 0.00244 0.05634 0.17317 0.0
H814 H 0.96847 0.01504 0.04639 0.0
H815 H 0.93859 -0.01161 0.06289 0.0
H816 H 0.00786 0.95541 0.04693 0.0
H817 H 0.03754 -0.0148 0.0632 0.0
C818 C 0.98091 0.02932 0.39254 0.0
C819 C 0.96792 0.05773 0.36923 0.0
C820 C 0.00771 0.00786 0.34446 0.0
C821 C 0.02158 -0.01143 0.36782 0.0
N822 N 0.02351 0.00713 0.41429 0.0
N823 N 0.97121 0.09922 0.32394 0.0
C824 C 0.00885 0.00681 0.39198 0.0
C825 C 0.98211 0.05512 0.34546 0.0
N826 N 0.96651 0.01851 0.41493 0.0
N827 N 0.01852 0.97734 0.32139 0.0
H828 H 0.95272 0.13748 0.32426 0.0
H829 H 0.98175 0.10741 0.30662 0.0
H830 H 0.03677 0.93792 0.32001 0.0
H831 H 0.00807 0.98119 0.304 0.0
H832 H 0.97463 -0.01359 0.43161 0.0
H833 H 0.94592 0.03305 0.41637 0.0
H834 H 0.01555 0.03071 0.43197 0.0
H835 H 0.04424 -0.00602 0.41482 0.0
C836 C 0.00627 -0.00707 0.83734 0.0
C837 C 0.01991 0.0089 0.86105 0.0
C838 C 0.97868 0.96771 0.88484 0.0
C839 C 0.96434 0.96425 0.86123 0.0
N840 N 0.96349 -0.00032 0.81534 0.0
N841 N 0.01762 0.03499 0.90718 0.0
C842 C 0.9778 -0.01579 0.83751 0.0
C843 C 0.00566 0.0033 0.8848 0.0
N844 N 0.02038 0.98103 0.81482 0.0
N845 N 0.96686 0.93373 0.90717 0.0
H846 H 0.03707 0.06583 0.90775 0.0
H847 H 0.00724 0.04112 0.92464 0.0
H848 H 0.9474 0.90299 0.90781 0.0
H849 H 0.97735 0.92585 0.92444 0.0
H850 H 0.01129 0.95865 0.79759 0.0
H851 H 0.04137 0.98291 0.81376 0.0
H852 H 0.97243 0.02478 0.79821 0.0
H853 H 0.94248 -0.00174 0.81461 0.0
C854 C 0.97268 0.96174 0.64191 0.0
C855 C 0.96024 0.98217 0.6178 0.0
C856 C 0.00112 0.92759 0.59535 0.0
C857 C 0.01474 0.92224 0.61932 0.0
N858 N 0.01467 0.95628 0.6653 0.0
N859 N 0.96449 0.00477 0.57168 0.0
C860 C 0.0009 0.94515 0.64265 0.0
C861 C 0.975 0.97085 0.5945 0.0
N862 N 0.95757 0.95327 0.66394 0.0
N863 N 0.01287 0.88895 0.57349 0.0
H864 H 0.94584 0.04143 0.57046 0.0
H865 H 0.9755 0.00664 0.55452 0.0
H866 H 0.03165 0.85287 0.57358 0.0
H867 H 0.00274 0.88264 0.55597 0.0
H868 H 0.96557 0.92814 0.68141 0.0
H869 H 0.93664 0.96055 0.6643 0.0
H870 H 0.00565 -0.01629 0.68215 0.0
H871 H 0.03551 0.94813 0.66678 0.0
C872 C 0.47221 0.48652 0.08403 0.0
C873 C 0.45901 0.46479 0.10777 0.0
C874 C 0.49857 0.52315 0.13157 0.0
C875 C 0.51287 0.53293 0.10797 0.0
N876 N 0.51498 0.50222 0.06189 0.0
N877 N 0.46155 0.44039 0.15387 0.0
C878 C 0.50021 0.50886 0.08417 0.0
C879 C 0.47279 0.47657 0.1315 0.0
N880 N 0.45796 0.4904 0.06151 0.0
N881 N 0.50935 0.56085 0.15393 0.0
H882 H 0.44308 0.4017 0.15432 0.0
H883 H 0.47179 0.43878 0.17139 0.0
H884 H 0.5279 0.59893 0.15453 0.0
H885 H 0.49867 0.56405 0.17127 0.0
H886 H 0.46619 0.51732 0.04424 0.0
H887 H 0.43733 0.47569 0.06045 0.0
H888 H 0.50706 0.47387 0.04468 0.0
H889 H 0.53569 0.51564 0.06102 0.0
C890 C 0.47869 0.51214 0.38998 0.0
C891 C 0.46523 0.53742 0.3667 0.0
C892 C 0.50575 0.49778 0.34183 0.0
C893 C 0.51994 0.48186 0.36518 0.0
N894 N 0.52159 0.4976 0.41168 0.0
N895 N 0.4676 0.57899 0.32136 0.0
C896 C 0.50694 0.49574 0.38938 0.0
C897 C 0.47933 0.53805 0.34287 0.0
N898 N 0.46448 0.4988 0.41239 0.0
N899 N 0.5171 0.47063 0.31872 0.0
H900 H 0.44845 0.61218 0.32166 0.0
H901 H 0.47792 0.58985 0.30401 0.0
H902 H 0.53608 0.43661 0.31726 0.0
H903 H 0.5066 0.47172 0.30134 0.0
H904 H 0.473 0.46862 0.42911 0.0
H905 H 0.44372 0.50958 0.41381 0.0
H906 H 0.51336 0.51846 0.42946 0.0
H907 H 0.54245 0.48802 0.41217 0.0
C908 C 0.47941 0.46199 0.88105 0.0
C909 C 0.46504 0.4563 0.85749 0.0
C910 C 0.50652 0.49326 0.83351 0.0
C911 C 0.52001 0.51144 0.8572 0.0
N912 N 0.51748 0.53635 0.90336 0.0
N913 N 0.46363 0.49194 0.81161 0.0
C914 C 0.5059 0.50272 0.88096 0.0
C915 C 0.47817 0.47896 0.83374 0.0
N916 N 0.46813 0.42545 0.90336 0.0
N917 N 0.52072 0.48479 0.81095 0.0
H918 H 0.44267 0.4864 0.81091 0.0
H919 H 0.47219 0.5189 0.79449 0.0
H920 H 0.54165 0.49142 0.80985 0.0
H921 H 0.51192 0.46086 0.7937 0.0
H922 H 0.47878 0.41923 0.92059 0.0
H923 H 0.44909 0.39105 0.90402 0.0
H924 H 0.50705 0.54039 0.92083 0.0
H925 H 0.53652 0.57073 0.90393 0.0
C926 C 0.47511 0.47047 0.59162 0.0
C927 C 0.46036 0.47851 0.61502 0.0
C928 C 0.50163 0.44882 0.63959 0.0
C929 C 0.51557 0.42885 0.61615 0.0
N930 N 0.51379 0.39577 0.5703 0.0
N931 N 0.45838 0.44963 0.66118 0.0
C932 C 0.50174 0.43205 0.59226 0.0
C933 C 0.47322 0.46046 0.63905 0.0
N934 N 0.46409 0.50308 0.5689 0.0
N935 N 0.51543 0.46166 0.66216 0.0
H936 H 0.43739 0.45351 0.66166 0.0
H937 H 0.46677 0.42607 0.67861 0.0
H938 H 0.53636 0.45683 0.66347 0.0
H939 H 0.50626 0.4871 0.67913 0.0
H940 H 0.475 0.50739 0.5517 0.0
H941 H 0.44502 0.5365 0.56779 0.0
H942 H 0.5036 0.38782 0.55285 0.0
H943 H 0.533 0.36307 0.57021 0.0
C944 C 0.10161 0.60169 0.09738 0.0
C945 C 0.12498 0.64584 0.10874 0.0
C946 C 0.1427 0.474 0.11661 0.0
C947 C 0.11713 0.43141 0.11021 0.0
N948 N 0.07092 0.45675 0.09705 0.0
N949 N 0.16669 0.62383 0.13209 0.0
C950 C 0.09621 0.49559 0.10106 0.0
C951 C 0.14541 0.58214 0.11901 0.0
N952 N 0.08489 0.66085 0.08263 0.0
N953 N 0.16466 0.41164 0.11932 0.0
H954 H 0.16933 0.70284 0.13461 0.0
H955 H 0.18048 0.57936 0.14232 0.0
H956 H 0.16383 0.33266 0.11592 0.0
H957 H 0.1842 0.43976 0.12179 0.0
H958 H 0.0689 0.63045 0.07205 0.0
H959 H 0.08883 0.73827 0.07867 0.0
H960 H 0.05433 0.50299 0.09295 0.0
H961 H 0.06591 0.3797 0.10016 0.0
C962 C 0.82859 0.39822 0.11783 0.0
C963 C 0.8496 0.33482 0.1084 0.0
C964 C 0.87883 0.48501 0.1025 0.0
C965 C 0.85744 0.54908 0.1108 0.0
N966 N 0.80947 0.56914 0.11802 0.0
N967 N 0.89111 0.32056 0.0841 0.0
C968 C 0.8315 0.50654 0.11596 0.0
C969 C 0.87359 0.37924 0.09824 0.0
N970 N 0.80648 0.35593 0.12961 0.0
N971 N 0.90439 0.52354 0.0999 0.0
H972 H 0.88736 0.24334 0.07975 0.0
H973 H 0.90769 0.35128 0.07435 0.0
H974 H 0.90932 0.60021 0.10362 0.0
H975 H 0.92114 0.47718 0.09646 0.0
H976 H 0.79209 0.39981 0.13932 0.0
H977 H 0.8036 0.27676 0.13153 0.0
H978 H 0.7898 0.54116 0.11949 0.0
H979 H 0.81051 0.64848 0.11518 0.0
C980 C 0.15269 0.38468 0.3701 0.0
C981 C 0.13089 0.31762 0.37564 0.0
C982 C 0.09978 0.46376 0.37784 0.0
C983 C 0.1216 0.53124 0.37268 0.0
N984 N 0.1699 0.5589 0.37275 0.0
N985 N 0.08608 0.2955 0.39319 0.0
C986 C 0.14845 0.49264 0.37155 0.0
C987 C 0.10519 0.35814 0.3823 0.0
N988 N 0.17698 0.34599 0.36229 0.0
N989 N 0.07382 0.49885 0.3771 0.0
H990 H 0.08974 0.21822 0.39746 0.0
H991 H 0.06783 0.32268 0.4005 0.0
H992 H 0.06891 0.57536 0.37332 0.0
H993 H 0.05709 0.45024 0.37795 0.0
H994 H 0.19255 0.392 0.35514 0.0
H995 H 0.18092 0.26729 0.36121 0.0
H996 H 0.18983 0.53434 0.37425 0.0
H997 H 0.16764 0.63815 0.37519 0.0
C998 C 0.87779 0.53968 0.34468 0.0
C999 C 0.86873 0.47955 0.36581 0.0
C1000 C 0.85137 0.63483 0.38691 0.0
C1001 C 0.85787 0.69234 0.36447 0.0
N1002 N 0.87018 0.69256 0.31931 0.0
N1003 N 0.84011 0.46679 0.40377 0.0
C1004 C 0.86885 0.64242 0.34248 0.0
C1005 C 0.85358 0.52594 0.38608 0.0
N1006 N 0.89565 0.49995 0.32718 0.0
N1007 N 0.84425 0.68343 0.40931 0.0
H1008 H 0.83991 0.38658 0.40332 0.0
H1009 H 0.82673 0.49767 0.41725 0.0
H1010 H 0.84273 0.76316 0.41098 0.0
H1011 H 0.84221 0.64469 0.42683 0.0
H1012 H 0.90468 0.54421 0.31274 0.0
H1013 H 0.90371 0.42611 0.32884 0.0
H1014 H 0.87594 0.65634 0.3022 0.0
H1015 H 0.86259 0.76672 0.31667 0.0
C1016 C 0.87987 0.36221 0.84532 0.0
C1017 C 0.8555 0.32068 0.85555 0.0
C1018 C 0.83785 0.4946 0.86053 0.0
C1019 C 0.86406 0.53503 0.8557 0.0
N1020 N 0.9109 0.50639 0.84515 0.0
N1021 N 0.81188 0.34824 0.87534 0.0
C1022 C 0.88532 0.46882 0.84824 0.0
C1023 C 0.83446 0.38693 0.8636 0.0
N1024 N 0.89752 0.29997 0.83236 0.0
N1025 N 0.81608 0.55884 0.86133 0.0
H1026 H 0.80868 0.26979 0.87832 0.0
H1027 H 0.79739 0.39478 0.88407 0.0
H1028 H 0.81766 0.6374 0.85748 0.0
H1029 H 0.79624 0.53252 0.86265 0.0
H1030 H 0.91439 0.32789 0.82252 0.0
H1031 H 0.89372 0.22199 0.82905 0.0
H1032 H 0.92765 0.45921 0.8425 0.0
H1033 H 0.91578 0.58404 0.84737 0.0
C1034 C 0.11208 0.48924 0.88255 0.0
C1035 C 0.12029 0.4301 0.86097 0.0
C1036 C 0.13757 0.58611 0.83999 0.0
C1037 C 0.13167 0.64272 0.86276 0.0
N1038 N 0.12095 0.64045 0.90826 0.0
N1039 N 0.1475 0.4185 0.8221 0.0
C1040 C 0.12134 0.59165 0.88487 0.0
C1041 C 0.13493 0.47719 0.84043 0.0
N1042 N 0.09471 0.4488 0.90045 0.0
N1043 N 0.14461 0.63557 0.81769 0.0
H1044 H 0.14712 0.33828 0.82208 0.0
H1045 H 0.16065 0.44942 0.80838 0.0
H1046 H 0.14702 0.71506 0.81638 0.0
H1047 H 0.14595 0.59802 0.79994 0.0
H1048 H 0.08628 0.49238 0.91532 0.0
H1049 H 0.08642 0.37516 0.89878 0.0
H1050 H 0.11569 0.60333 0.92539 0.0
H1051 H 0.12884 0.71431 0.91092 0.0
C1052 C 0.87622 0.60126 0.63189 0.0
C1053 C 0.85129 0.64083 0.62276 0.0
C1054 C 0.83364 0.46573 0.6199 0.0
C1055 C 0.86017 0.42685 0.62344 0.0
N1056 N 0.90746 0.45844 0.63118 0.0
N1057 N 0.8065 0.61017 0.60622 0.0
C1058 C 0.88168 0.4946 0.62934 0.0
C1059 C 0.82987 0.5731 0.61654 0.0
N1060 N 0.89443 0.66546 0.64347 0.0
N1061 N 0.812 0.40025 0.62048 0.0
H1062 H 0.80298 0.68837 0.60327 0.0
H1063 H 0.7915 0.56264 0.59869 0.0
H1064 H 0.81393 0.32174 0.62428 0.0
H1065 H 0.79206 0.42541 0.62019 0.0
H1066 H 0.91183 0.63919 0.65253 0.0
H1067 H 0.89067 0.74359 0.64652 0.0
H1068 H 0.92424 0.50659 0.63258 0.0
H1069 H 0.91236 0.38081 0.6292 0.0
C1070 C 0.14442 0.34578 0.61617 0.0
C1071 C 0.12326 0.27881 0.62371 0.0
C1072 C 0.09359 0.4263 0.63177 0.0
C1073 C 0.11499 0.49318 0.62484 0.0
N1074 N 0.163 0.51759 0.61937 0.0
N1075 N 0.08101 0.25597 0.64649 0.0
C1076 C 0.14115 0.45318 0.61982 0.0
C1077 C 0.09885 0.31936 0.63402 0.0
N1078 N 0.16702 0.30801 0.60436 0.0
N1079 N 0.06807 0.4637 0.63502 0.0
H1080 H 0.08464 0.17768 0.64934 0.0
H1081 H 0.06413 0.283 0.6564 0.0
H1082 H 0.06337 0.54164 0.6334 0.0
H1083 H 0.05121 0.41638 0.63725 0.0
H1084 H 0.18166 0.35519 0.59597 0.0
H1085 H 0.1701 0.2298 0.60097 0.0
H1086 H 0.18281 0.49151 0.61792 0.0
H1087 H 0.16148 0.59587 0.62358 0.0
C1088 C 0.62622 0.01686 0.088 0.0
C1089 C 0.61314 0.97225 0.10983 0.0
C1090 C 0.61712 0.13551 0.13272 0.0
C1091 C 0.62546 0.18442 0.10956 0.0
N1092 N 0.63467 0.17279 0.06377 0.0
N1093 N 0.59143 -0.00431 0.15123 0.0
C1094 C 0.62924 0.12558 0.08676 0.0
C1095 C 0.60726 0.03351 0.13174 0.0
N1096 N 0.63708 0.95598 0.06912 0.0
N1097 N 0.61906 0.18624 0.15577 0.0
H1098 H 0.58267 0.92258 0.15064 0.0
H1099 H 0.58463 0.04097 0.16653 0.0
H1100 H 0.6274 0.2599 0.15732 0.0
H1101 H 0.6153 0.15085 0.17348 0.0
H1102 H 0.64907 -0.01493 0.05424 0.0
H1103 H 0.63668 0.8758 0.0697 0.0
H1104 H 0.63433 0.13389 0.04617 0.0
H1105 H 0.63758 0.25186 0.06197 0.0
C1106 C 0.32756 0.87628 0.11184 0.0
C1107 C 0.34876 0.81078 0.10381 0.0
C1108 C 0.37892 0.95882 0.09836 0.0
C1109 C 0.35754 0.02478 0.10568 0.0
N1110 N 0.3094 0.04878 0.11059 0.0
N1111 N 0.39122 0.79198 0.08132 0.0
C1112 C 0.33115 -0.01567 0.10973 0.0
C1113 C 0.37337 0.85298 0.09441 0.0
N1114 N 0.30461 0.83623 0.12256 0.0
N1115 N 0.40472 -0.00442 0.09649 0.0
H1116 H 0.3873 0.71464 0.07724 0.0
H1117 H 0.40837 0.82073 0.07209 0.0
H1118 H 0.40981 0.07233 0.09988 0.0
H1119 H 0.42139 0.94798 0.09388 0.0
H1120 H 0.2899 0.88161 0.13135 0.0
H1121 H 0.30119 0.75737 0.12447 0.0
H1122 H 0.28953 0.02251 0.11127 0.0
H1123 H 0.31104 0.12791 0.10756 0.0
C1124 C 0.63277 -0.00277 0.38444 0.0
C1125 C 0.62291 0.04164 0.36122 0.0
C1126 C 0.62968 0.87781 0.33919 0.0
C1127 C 0.63421 0.82925 0.36329 0.0
N1128 N 0.63634 0.84197 0.40985 0.0
N1129 N 0.6077 0.01827 0.31733 0.0
C1130 C 0.63489 0.88856 0.38627 0.0
C1131 C 0.62025 0.98035 0.33875 0.0
N1132 N 0.64148 0.05829 0.40424 0.0
N1133 N 0.63468 0.82599 0.31671 0.0
H1134 H 0.59919 0.0916 0.31665 0.0
H1135 H 0.60316 0.97296 0.3013 0.0
H1136 H 0.64262 0.75159 0.31641 0.0
H1137 H 0.63384 0.86088 0.29862 0.0
H1138 H 0.65103 0.02905 0.42055 0.0
H1139 H 0.64213 0.13835 0.40309 0.0
H1140 H 0.6338 0.88203 0.42713 0.0
H1141 H 0.63791 0.76261 0.41222 0.0
C1142 C 0.34836 -0.00553 0.38111 0.0
C1143 C 0.36468 0.94905 0.36154 0.0
C1144 C 0.36624 0.11336 0.33887 0.0
C1145 C 0.35431 0.16228 0.36055 0.0
N1146 N 0.33792 0.1505 0.4045 0.0
N1147 N 0.39347 0.971 0.3242 0.0
C1148 C 0.34631 0.10334 0.38232 0.0
C1149 C 0.37483 0.01012 0.34104 0.0
N1150 N 0.33373 0.93438 0.39773 0.0
N1151 N 0.36886 0.16506 0.31601 0.0
H1152 H 0.40131 0.89684 0.32589 0.0
H1153 H 0.40326 0.0159 0.31036 0.0
H1154 H 0.36158 0.23968 0.31338 0.0
H1155 H 0.37537 0.12985 0.29902 0.0
H1156 H 0.31961 0.96462 0.41059 0.0
H1157 H 0.33336 0.85421 0.39681 0.0
H1158 H 0.33472 0.11052 0.42169 0.0
H1159 H 0.33643 0.23014 0.40647 0.0
C1160 C 0.33511 0.87139 0.85898 0.0
C1161 C 0.35619 0.80447 0.85142 0.0
C1162 C 0.3863 0.95191 0.84414 0.0
C1163 C 0.36507 0.01878 0.85129 0.0
N1164 N 0.31706 0.04386 0.85637 0.0
N1165 N 0.39848 0.78213 0.8288 0.0
C1166 C 0.33872 0.979 0.85584 0.0
C1167 C 0.38075 0.84523 0.8414 0.0
N1168 N 0.31226 0.83337 0.87037 0.0
N1169 N 0.41196 -0.01109 0.84121 0.0
H1170 H 0.39457 0.70413 0.82562 0.0
H1171 H 0.41553 0.80926 0.81913 0.0
H1172 H 0.4169 0.06659 0.84326 0.0
H1173 H 0.42868 0.94137 0.83882 0.0
H1174 H 0.29767 0.88032 0.87883 0.0
H1175 H 0.30885 0.75501 0.8733 0.0
H1176 H 0.29716 0.01809 0.85746 0.0
H1177 H 0.31883 0.12245 0.85259 0.0
C1178 C 0.60432 0.11748 0.84492 0.0
C1179 C 0.62893 0.15867 0.85456 0.0
C1180 C 0.64743 -0.01481 0.85694 0.0
C1181 C 0.62122 0.9441 0.85258 0.0
N1182 N 0.57386 0.97169 0.84451 0.0
N1183 N 0.67345 0.13112 0.87194 0.0
C1184 C 0.59942 0.01019 0.84684 0.0
C1185 C 0.65054 0.09255 0.86094 0.0
N1186 N 0.58596 0.18057 0.83332 0.0
N1187 N 0.66942 0.92188 0.85652 0.0
H1188 H 0.67641 0.20937 0.87547 0.0
H1189 H 0.68856 0.08453 0.87953 0.0
H1190 H 0.66801 0.84348 0.85232 0.0
H1191 H 0.68921 0.94894 0.85739 0.0
H1192 H 0.56888 0.15306 0.82385 0.0
H1193 H 0.58925 0.25926 0.83067 0.0
H1194 H 0.55685 0.01834 0.84321 0.0
H1195 H 0.56934 0.89347 0.84602 0.0
C1196 C 0.36657 0.97106 0.59138 0.0
C1197 C 0.36086 0.91278 0.61384 0.0
C1198 C 0.34561 0.06911 0.6359 0.0
C1199 C 0.34874 0.12463 0.61246 0.0
N1200 N 0.35463 0.12029 0.56619 0.0
N1201 N 0.33801 0.90225 0.65522 0.0
C1202 C 0.35682 0.07283 0.58964 0.0
C1203 C 0.34842 0.96036 0.63555 0.0
N1204 N 0.38199 0.93033 0.57199 0.0
N1205 N 0.3411 0.1195 0.65866 0.0
H1206 H 0.33855 0.82207 0.6555 0.0
H1207 H 0.32633 0.93345 0.67005 0.0
H1208 H 0.33879 0.19895 0.66001 0.0
H1209 H 0.34186 0.08281 0.67653 0.0
H1210 H 0.38866 0.97334 0.55622 0.0
H1211 H 0.39056 0.85715 0.57309 0.0
H1212 H 0.35813 0.08246 0.54876 0.0
H1213 H 0.34634 0.19362 0.56409 0.0
C1214 C 0.64514 0.86045 0.60964 0.0
C1215 C 0.62392 0.79471 0.61768 0.0
C1216 C 0.59488 0.94361 0.62596 0.0
C1217 C 0.61646 0.00931 0.61885 0.0
N1218 N 0.66446 0.03105 0.61252 0.0
N1219 N 0.5819 0.77438 0.64104 0.0
C1220 C 0.64237 0.96796 0.61333 0.0
C1221 C 0.59978 0.83654 0.62824 0.0
N1222 N 0.66732 0.82139 0.59738 0.0
N1223 N 0.5695 0.98225 0.62936 0.0
H1224 H 0.58525 0.69595 0.64395 0.0
H1225 H 0.56528 0.80258 0.65116 0.0
H1226 H 0.565 0.06032 0.6276 0.0
H1227 H 0.55252 0.93571 0.63175 0.0
H1228 H 0.68195 0.86776 0.58869 0.0
H1229 H 0.66999 0.74303 0.59386 0.0
H1230 H 0.68413 0.00373 0.61074 0.0
H1231 H 0.66338 0.1094 0.61675 0.0
loop_
_geom_bond_atom_site_label_1
_geom_bond_atom_site_label_2
_geom_bond_distance
_geom_bond_site_symmetry_2
_ccdc_geom_bond_type
O0 Zn1 1.953 . S
O0 C16 1.225 . S
Zn1 O0 1.953 . S
Zn1 O2 1.949 . S
Zn1 O8 1.919 . S
Zn1 O13 1.924 . S
O2 Zn1 1.949 . S
O2 Zn3 1.923 1_545 S
O2 Zn4 1.950 . S
O2 Zn5 1.945 1_545 S
Zn3 O2 1.923 1_565 S
Zn3 O6 1.933 . S
Zn3 O9 1.940 1_565 S
Zn3 O10 1.965 1_565 S
Zn4 O2 1.950 . S
Zn4 O11 1.938 . S
Zn4 O12 1.906 . S
Zn4 O22 1.953 . S
Zn5 O2 1.945 1_565 S
Zn5 O7 1.932 . S
Zn5 O14 1.977 . S
Zn5 O15 1.910 . S
O6 Zn3 1.933 . S
O6 C17 1.226 . S
O7 Zn5 1.932 . S
O7 C17 1.307 . S
O8 Zn1 1.919 . S
O8 C19 1.253 . S
O9 Zn3 1.940 1_545 S
O9 C19 1.285 . S
O10 Zn3 1.965 1_545 S
O10 C18 1.303 . S
O11 Zn4 1.938 . S
O11 C18 1.247 . S
O12 Zn4 1.906 . S
O12 C20 1.304 . S
O13 Zn1 1.924 . S
O13 C21 1.311 . S
O14 Zn5 1.977 . S
O14 C20 1.272 1_565 S
O15 Zn5 1.910 . S
O15 C21 1.231 1_565 S
C16 O0 1.225 . S
C16 O22 1.298 . S
C17 O6 1.226 . S
C17 O7 1.307 . S
C18 O10 1.303 . S
C18 O11 1.247 . S
C19 O8 1.253 . S
C19 O9 1.285 . S
C20 O12 1.304 . S
C20 O14 1.272 1_545 S
C21 O13 1.311 . S
C21 O15 1.231 1_545 S
O22 Zn4 1.953 . S
O22 C16 1.298 . S
O23 Zn24 1.953 . S
O23 C39 1.225 . S
Zn24 O23 1.953 . S
Zn24 O25 1.949 . S
Zn24 O31 1.919 . S
Zn24 O36 1.924 . S
O25 Zn24 1.949 . S
O25 Zn26 1.923 1_565 S
O25 Zn27 1.950 . S
O25 Zn28 1.945 1_565 S
Zn26 O25 1.923 1_545 S
Zn26 O29 1.933 . S
Zn26 O32 1.940 1_545 S
Zn26 O33 1.965 1_545 S
Zn27 O25 1.950 . S
Zn27 O34 1.938 . S
Zn27 O35 1.906 . S
Zn27 O45 1.953 . S
Zn28 O25 1.945 1_545 S
Zn28 O30 1.932 . S
Zn28 O37 1.977 . S
Zn28 O38 1.910 . S
O29 Zn26 1.933 . S
O29 C40 1.226 . S
O30 Zn28 1.932 . S
O30 C40 1.307 . S
O31 Zn24 1.919 . S
O31 C42 1.253 . S
O32 Zn26 1.940 1_565 S
O32 C42 1.285 . S
O33 Zn26 1.965 1_565 S
O33 C41 1.303 . S
O34 Zn27 1.938 . S
O34 C41 1.247 . S
O35 Zn27 1.906 . S
O35 C43 1.304 . S
O36 Zn24 1.924 . S
O36 C44 1.311 . S
O37 Zn28 1.977 . S
O37 C43 1.272 1_545 S
O38 Zn28 1.910 . S
O38 C44 1.231 1_545 S
C39 O23 1.225 . S
C39 O45 1.298 . S
C40 O29 1.226 . S
C40 O30 1.307 . S
C41 O33 1.303 . S
C41 O34 1.247 . S
C42 O31 1.253 . S
C42 O32 1.285 . S
C43 O35 1.304 . S
C43 O37 1.272 1_565 S
C44 O36 1.311 . S
C44 O38 1.231 1_565 S
O45 Zn27 1.953 . S
O45 C39 1.298 . S
O46 Zn47 1.953 . S
O46 C62 1.225 . S
Zn47 O46 1.953 . S
Zn47 O48 1.949 . S
Zn47 O54 1.919 . S
Zn47 O59 1.924 . S
O48 Zn47 1.949 . S
O48 Zn49 1.923 1_565 S
O48 Zn50 1.950 . S
O48 Zn51 1.945 1_565 S
Zn49 O48 1.923 1_545 S
Zn49 O52 1.933 . S
Zn49 O55 1.940 1_545 S
Zn49 O56 1.965 1_545 S
Zn50 O48 1.950 . S
Zn50 O57 1.938 . S
Zn50 O58 1.906 . S
Zn50 O68 1.953 . S
Zn51 O48 1.945 1_545 S
Zn51 O53 1.932 . S
Zn51 O60 1.977 . S
Zn51 O61 1.910 . S
O52 Zn49 1.933 . S
O52 C63 1.226 . S
O53 Zn51 1.932 . S
O53 C63 1.307 . S
O54 Zn47 1.919 . S
O54 C65 1.253 . S
O55 Zn49 1.940 1_565 S
O55 C65 1.285 . S
O56 Zn49 1.965 1_565 S
O56 C64 1.303 . S
O57 Zn50 1.938 . S
O57 C64 1.247 . S
O58 Zn50 1.906 . S
O58 C66 1.304 . S
O59 Zn47 1.924 . S
O59 C67 1.311 . S
O60 Zn51 1.977 . S
O60 C66 1.272 1_545 S
O61 Zn51 1.910 . S
O61 C67 1.231 1_545 S
C62 O46 1.225 . S
C62 O68 1.298 . S
C63 O52 1.226 . S
C63 O53 1.307 . S
C64 O56 1.303 . S
C64 O57 1.247 . S
C65 O54 1.253 . S
C65 O55 1.285 . S
C66 O58 1.304 . S
C66 O60 1.272 1_565 S
C67 O59 1.311 . S
C67 O61 1.231 1_565 S
O68 Zn50 1.953 . S
O68 C62 1.298 . S
O69 Zn70 1.953 . S
O69 C85 1.225 . S
Zn70 O69 1.953 . S
Zn70 O71 1.949 . S
Zn70 O77 1.919 . S
Zn70 O82 1.924 . S
O71 Zn70 1.949 . S
O71 Zn72 1.923 1_545 S
O71 Zn73 1.950 . S
O71 Zn74 1.945 1_545 S
Zn72 O71 1.923 1_565 S
Zn72 O75 1.933 . S
Zn72 O78 1.940 1_565 S
Zn72 O79 1.965 1_565 S
Zn73 O71 1.950 . S
Zn73 O80 1.938 . S
Zn73 O81 1.906 . S
Zn73 O91 1.953 . S
Zn74 O71 1.945 1_565 S
Zn74 O76 1.932 . S
Zn74 O83 1.977 . S
Zn74 O84 1.910 . S
O75 Zn72 1.933 . S
O75 C86 1.226 . S
O76 Zn74 1.932 . S
O76 C86 1.307 . S
O77 Zn70 1.919 . S
O77 C88 1.253 . S
O78 Zn72 1.940 1_545 S
O78 C88 1.285 . S
O79 Zn72 1.965 1_545 S
O79 C87 1.303 . S
O80 Zn73 1.938 . S
O80 C87 1.247 . S
O81 Zn73 1.906 . S
O81 C89 1.304 . S
O82 Zn70 1.924 . S
O82 C90 1.311 . S
O83 Zn74 1.977 . S
O83 C89 1.272 1_565 S
O84 Zn74 1.910 . S
O84 C90 1.231 1_565 S
C85 O69 1.225 . S
C85 O91 1.298 . S
C86 O75 1.226 . S
C86 O76 1.307 . S
C87 O79 1.303 . S
C87 O80 1.247 . S
C88 O77 1.253 . S
C88 O78 1.285 . S
C89 O81 1.304 . S
C89 O83 1.272 1_545 S
C90 O82 1.311 . S
C90 O84 1.231 1_545 S
O91 Zn73 1.953 . S
O91 C85 1.298 . S
O92 Zn93 1.953 . S
O92 C108 1.225 . S
Zn93 O92 1.953 . S
Zn93 O94 1.949 . S
Zn93 O100 1.919 . S
Zn93 O105 1.924 . S
O94 Zn93 1.949 . S
O94 Zn95 1.923 1_565 S
O94 Zn96 1.950 . S
O94 Zn97 1.945 1_565 S
Zn95 O94 1.923 1_545 S
Zn95 O98 1.933 . S
Zn95 O101 1.941 . S
Zn95 O102 1.965 1_545 S
Zn96 O94 1.950 . S
Zn96 O103 1.938 . S
Zn96 O104 1.906 . S
Zn96 O114 1.953 . S
Zn97 O94 1.945 1_545 S
Zn97 O99 1.932 . S
Zn97 O106 1.977 . S
Zn97 O107 1.910 . S
O98 Zn95 1.933 . S
O98 C109 1.226 . S
O99 Zn97 1.932 . S
O99 C109 1.307 . S
O100 Zn93 1.919 . S
O100 C111 1.253 . S
O101 Zn95 1.941 . S
O101 C111 1.283 1_545 S
O102 Zn95 1.965 1_565 S
O102 C110 1.303 . S
O103 Zn96 1.938 . S
O103 C110 1.247 . S
O104 Zn96 1.906 . S
O104 C112 1.304 . S
O105 Zn93 1.924 . S
O105 C113 1.311 . S
O106 Zn97 1.977 . S
O106 C112 1.272 1_545 S
O107 Zn97 1.910 . S
O107 C113 1.231 1_545 S
C108 O92 1.225 . S
C108 O114 1.298 . S
C109 O98 1.226 . S
C109 O99 1.307 . S
C110 O102 1.303 . S
C110 O103 1.247 . S
C111 O100 1.253 . S
C111 O101 1.283 1_565 S
C112 O104 1.304 . S
C112 O106 1.272 1_565 S
C113 O105 1.311 . S
C113 O107 1.231 1_565 S
O114 Zn96 1.953 . S
O114 C108 1.298 . S
O115 Zn116 1.953 . S
O115 C131 1.225 . S
Zn116 O115 1.953 . S
Zn116 O117 1.949 . S
Zn116 O123 1.919 . S
Zn116 O128 1.924 . S
O117 Zn116 1.949 . S
O117 Zn118 1.923 1_545 S
O117 Zn119 1.950 . S
O117 Zn120 1.945 1_545 S
Zn118 O117 1.923 1_565 S
Zn118 O121 1.933 . S
Zn118 O124 1.941 . S
Zn118 O125 1.965 1_565 S
Zn119 O117 1.950 . S
Zn119 O126 1.938 . S
Zn119 O127 1.906 . S
Zn119 O137 1.953 . S
Zn120 O117 1.945 1_565 S
Zn120 O122 1.932 . S
Zn120 O129 1.977 . S
Zn120 O130 1.910 . S
O121 Zn118 1.933 . S
O121 C132 1.226 . S
O122 Zn120 1.932 . S
O122 C132 1.307 . S
O123 Zn116 1.919 . S
O123 C134 1.253 . S
O124 Zn118 1.941 . S
O124 C134 1.283 1_565 S
O125 Zn118 1.965 1_545 S
O125 C133 1.303 . S
O126 Zn119 1.938 . S
O126 C133 1.247 . S
O127 Zn119 1.906 . S
O127 C135 1.304 . S
O128 Zn116 1.924 . S
O128 C136 1.311 . S
O129 Zn120 1.977 . S
O129 C135 1.272 1_565 S
O130 Zn120 1.910 . S
O130 C136 1.231 1_565 S
C131 O115 1.225 . S
C131 O137 1.298 . S
C132 O121 1.226 . S
C132 O122 1.307 . S
C133 O125 1.303 . S
C133 O126 1.247 . S
C134 O123 1.253 . S
C134 O124 1.283 1_545 S
C135 O127 1.304 . S
C135 O129 1.272 1_545 S
C136 O128 1.311 . S
C136 O130 1.231 1_545 S
O137 Zn119 1.953 . S
O137 C131 1.298 . S
O138 Zn139 1.953 . S
O138 C154 1.225 . S
Zn139 O138 1.953 . S
Zn139 O140 1.949 . S
Zn139 O146 1.919 . S
Zn139 O151 1.924 . S
O140 Zn139 1.949 . S
O140 Zn141 1.923 1_545 S
O140 Zn142 1.950 . S
O140 Zn143 1.945 1_545 S
Zn141 O140 1.923 1_565 S
Zn141 O144 1.933 . S
Zn141 O147 1.941 . S
Zn141 O148 1.965 1_565 S
Zn142 O140 1.950 . S
Zn142 O149 1.938 . S
Zn142 O150 1.906 . S
Zn142 O160 1.953 . S
Zn143 O140 1.945 1_565 S
Zn143 O145 1.932 . S
Zn143 O152 1.977 . S
Zn143 O153 1.910 . S
O144 Zn141 1.933 . S
O144 C155 1.226 . S
O145 Zn143 1.932 . S
O145 C155 1.307 . S
O146 Zn139 1.919 . S
O146 C157 1.253 . S
O147 Zn141 1.941 . S
O147 C157 1.283 1_565 S
O148 Zn141 1.965 1_545 S
O148 C156 1.303 . S
O149 Zn142 1.938 . S
O149 C156 1.247 . S
O150 Zn142 1.906 . S
O150 C158 1.304 . S
O151 Zn139 1.924 . S
O151 C159 1.311 . S
O152 Zn143 1.977 . S
O152 C158 1.272 1_565 S
O153 Zn143 1.910 . S
O153 C159 1.231 1_565 S
C154 O138 1.225 . S
C154 O160 1.298 . S
C155 O144 1.226 . S
C155 O145 1.307 . S
C156 O148 1.303 . S
C156 O149 1.247 . S
C157 O146 1.253 . S
C157 O147 1.283 1_545 S
C158 O150 1.304 . S
C158 O152 1.272 1_545 S
C159 O151 1.311 . S
C159 O153 1.231 1_545 S
O160 Zn142 1.953 . S
O160 C154 1.298 . S
O161 Zn162 1.953 . S
O161 C177 1.225 . S
Zn162 O161 1.953 . S
Zn162 O163 1.949 . S
Zn162 O169 1.919 . S
Zn162 O174 1.924 . S
O163 Zn162 1.949 . S
O163 Zn164 1.923 1_565 S
O163 Zn165 1.950 . S
O163 Zn166 1.945 1_565 S
Zn164 O163 1.923 1_545 S
Zn164 O167 1.933 . S
Zn164 O170 1.941 . S
Zn164 O171 1.965 1_545 S
Zn165 O163 1.950 . S
Zn165 O172 1.938 . S
Zn165 O173 1.906 . S
Zn165 O183 1.953 . S
Zn166 O163 1.945 1_545 S
Zn166 O168 1.932 . S
Zn166 O175 1.977 . S
Zn166 O176 1.910 . S
O167 Zn164 1.933 . S
O167 C178 1.226 . S
O168 Zn166 1.932 . S
O168 C178 1.307 . S
O169 Zn162 1.919 . S
O169 C180 1.253 . S
O170 Zn164 1.941 . S
O170 C180 1.283 1_545 S
O171 Zn164 1.965 1_565 S
O171 C179 1.303 . S
O172 Zn165 1.938 . S
O172 C179 1.247 . S
O173 Zn165 1.906 . S
O173 C181 1.304 . S
O174 Zn162 1.924 . S
O174 C182 1.311 . S
O175 Zn166 1.977 . S
O175 C181 1.272 1_545 S
O176 Zn166 1.910 . S
O176 C182 1.231 1_545 S
C177 O161 1.225 . S
C177 O183 1.298 . S
C178 O167 1.226 . S
C178 O168 1.307 . S
C179 O171 1.303 . S
C179 O172 1.247 . S
C180 O169 1.253 . S
C180 O170 1.283 1_565 S
C181 O173 1.304 . S
C181 O175 1.272 1_565 S
C182 O174 1.311 . S
C182 O176 1.231 1_565 S
O183 Zn165 1.953 . S
O183 C177 1.298 . S
O184 Zn185 1.953 . S
O184 C200 1.225 . S
Zn185 O184 1.953 . S
Zn185 O186 1.949 . S
Zn185 O192 1.919 . S
Zn185 O197 1.924 . S
O186 Zn185 1.949 . S
O186 Zn187 1.923 . S
O186 Zn188 1.950 . S
O186 Zn189 1.945 . S
Zn187 O186 1.923 . S
Zn187 O190 1.933 . S
Zn187 O193 1.941 . S
Zn187 O194 1.965 . S
Zn188 O186 1.950 . S
Zn188 O195 1.938 . S
Zn188 O196 1.906 . S
Zn188 O206 1.953 . S
Zn189 O186 1.945 . S
Zn189 O191 1.932 . S
Zn189 O198 1.977 . S
Zn189 O199 1.910 . S
O190 Zn187 1.933 . S
O190 C201 1.226 . S
O191 Zn189 1.932 . S
O191 C201 1.307 . S
O192 Zn185 1.919 . S
O192 C203 1.253 . S
O193 Zn187 1.941 . S
O193 C203 1.283 . S
O194 Zn187 1.965 . S
O194 C202 1.303 . S
O195 Zn188 1.938 . S
O195 C202 1.247 . S
O196 Zn188 1.906 . S
O196 C204 1.304 . S
O197 Zn185 1.924 . S
O197 C205 1.311 . S
O198 Zn189 1.977 . S
O198 C204 1.272 . S
O199 Zn189 1.910 . S
O199 C205 1.231 . S
C200 O184 1.225 . S
C200 O206 1.298 . S
C201 O190 1.226 . S
C201 O191 1.307 . S
C202 O194 1.303 . S
C202 O195 1.247 . S
C203 O192 1.253 . S
C203 O193 1.283 . S
C204 O196 1.304 . S
C204 O198 1.272 . S
C205 O197 1.311 . S
C205 O199 1.231 . S
O206 Zn188 1.953 . S
O206 C200 1.298 . S
O207 Zn208 1.953 . S
O207 C223 1.225 . S
Zn208 O207 1.953 . S
Zn208 O209 1.949 . S
Zn208 O215 1.919 . S
Zn208 O220 1.924 . S
O209 Zn208 1.949 . S
O209 Zn210 1.923 . S
O209 Zn211 1.950 . S
O209 Zn212 1.945 . S
Zn210 O209 1.923 . S
Zn210 O213 1.933 . S
Zn210 O216 1.941 . S
Zn210 O217 1.965 . S
Zn211 O209 1.950 . S
Zn211 O218 1.938 . S
Zn211 O219 1.906 . S
Zn211 O229 1.953 . S
Zn212 O209 1.945 . S
Zn212 O214 1.932 . S
Zn212 O221 1.977 . S
Zn212 O222 1.910 . S
O213 Zn210 1.933 . S
O213 C224 1.226 . S
O214 Zn212 1.932 . S
O214 C224 1.307 . S
O215 Zn208 1.919 . S
O215 C226 1.253 . S
O216 Zn210 1.941 . S
O216 C226 1.283 . S
O217 Zn210 1.965 . S
O217 C225 1.303 . S
O218 Zn211 1.938 . S
O218 C225 1.247 . S
O219 Zn211 1.906 . S
O219 C227 1.304 . S
O220 Zn208 1.924 . S
O220 C228 1.311 . S
O221 Zn212 1.977 . S
O221 C227 1.272 . S
O222 Zn212 1.910 . S
O222 C228 1.231 . S
C223 O207 1.225 . S
C223 O229 1.298 . S
C224 O213 1.226 . S
C224 O214 1.307 . S
C225 O217 1.303 . S
C225 O218 1.247 . S
C226 O215 1.253 . S
C226 O216 1.283 . S
C227 O219 1.304 . S
C227 O221 1.272 . S
C228 O220 1.311 . S
C228 O222 1.231 . S
O229 Zn211 1.953 . S
O229 C223 1.298 . S
O230 Zn231 1.953 . S
O230 C246 1.225 . S
Zn231 O230 1.953 . S
Zn231 O232 1.949 . S
Zn231 O238 1.919 . S
Zn231 O243 1.924 . S
O232 Zn231 1.949 . S
O232 Zn233 1.923 . S
O232 Zn234 1.950 . S
O232 Zn235 1.945 . S
Zn233 O232 1.923 . S
Zn233 O236 1.933 . S
Zn233 O239 1.941 . S
Zn233 O240 1.965 . S
Zn234 O232 1.950 . S
Zn234 O241 1.938 . S
Zn234 O242 1.906 . S
Zn234 O252 1.953 . S
Zn235 O232 1.945 . S
Zn235 O237 1.932 . S
Zn235 O244 1.977 . S
Zn235 O245 1.910 . S
O236 Zn233 1.933 . S
O236 C247 1.226 . S
O237 Zn235 1.932 . S
O237 C247 1.307 . S
O238 Zn231 1.919 . S
O238 C249 1.253 . S
O239 Zn233 1.941 . S
O239 C249 1.283 . S
O240 Zn233 1.965 . S
O240 C248 1.303 . S
O241 Zn234 1.938 . S
O241 C248 1.247 . S
O242 Zn234 1.906 . S
O242 C250 1.304 . S
O243 Zn231 1.924 . S
O243 C251 1.311 . S
O244 Zn235 1.977 . S
O244 C250 1.272 . S
O245 Zn235 1.910 . S
O245 C251 1.231 . S
C246 O230 1.225 . S
C246 O252 1.298 . S
C247 O236 1.226 . S
C247 O237 1.307 . S
C248 O240 1.303 . S
C248 O241 1.247 . S
C249 O238 1.253 . S
C249 O239 1.283 . S
C250 O242 1.304 . S
C250 O244 1.272 . S
C251 O243 1.311 . S
C251 O245 1.231 . S
O252 Zn234 1.953 . S
O252 C246 1.298 . S
O253 Zn254 1.953 . S
O253 C269 1.225 . S
Zn254 O253 1.953 . S
Zn254 O255 1.949 . S
Zn254 O261 1.919 . S
Zn254 O266 1.924 . S
O255 Zn254 1.949 . S
O255 Zn256 1.923 . S
O255 Zn257 1.950 . S
O255 Zn258 1.945 . S
Zn256 O255 1.923 . S
Zn256 O259 1.933 . S
Zn256 O262 1.941 . S
Zn256 O263 1.965 . S
Zn257 O255 1.950 . S
Zn257 O264 1.938 . S
Zn257 O265 1.906 . S
Zn257 O275 1.953 . S
Zn258 O255 1.945 . S
Zn258 O260 1.932 . S
Zn258 O267 1.977 . S
Zn258 O268 1.910 . S
O259 Zn256 1.933 . S
O259 C270 1.226 . S
O260 Zn258 1.932 . S
O260 C270 1.307 . S
O261 Zn254 1.919 . S
O261 C272 1.253 . S
O262 Zn256 1.941 . S
O262 C272 1.283 . S
O263 Zn256 1.965 . S
O263 C271 1.303 . S
O264 Zn257 1.938 . S
O264 C271 1.247 . S
O265 Zn257 1.906 . S
O265 C273 1.304 . S
O266 Zn254 1.924 . S
O266 C274 1.311 . S
O267 Zn258 1.977 . S
O267 C273 1.272 . S
O268 Zn258 1.910 . S
O268 C274 1.231 . S
C269 O253 1.225 . S
C269 O275 1.298 . S
C270 O259 1.226 . S
C270 O260 1.307 . S
C271 O263 1.303 . S
C271 O264 1.247 . S
C272 O261 1.253 . S
C272 O262 1.283 . S
C273 O265 1.304 . S
C273 O267 1.272 . S
C274 O266 1.311 . S
C274 O268 1.231 . S
O275 Zn257 1.953 . S
O275 C269 1.298 . S
O276 Zn277 1.953 . S
O276 C292 1.225 . S
Zn277 O276 1.953 . S
Zn277 O278 1.949 . S
Zn277 O284 1.919 . S
Zn277 O289 1.924 . S
O278 Zn277 1.949 . S
O278 Zn279 1.923 . S
O278 Zn280 1.950 . S
O278 Zn281 1.945 . S
Zn279 O278 1.923 . S
Zn279 O282 1.933 . S
Zn279 O285 1.941 . S
Zn279 O286 1.965 . S
Zn280 O278 1.950 . S
Zn280 O287 1.938 . S
Zn280 O288 1.906 . S
Zn280 O298 1.953 . S
Zn281 O278 1.945 . S
Zn281 O283 1.932 . S
Zn281 O290 1.977 . S
Zn281 O291 1.910 . S
O282 Zn279 1.933 . S
O282 C293 1.226 . S
O283 Zn281 1.932 . S
O283 C293 1.307 . S
O284 Zn277 1.919 . S
O284 C295 1.253 . S
O285 Zn279 1.941 . S
O285 C295 1.283 . S
O286 Zn279 1.965 . S
O286 C294 1.303 . S
O287 Zn280 1.938 . S
O287 C294 1.247 . S
O288 Zn280 1.906 . S
O288 C296 1.304 . S
O289 Zn277 1.924 . S
O289 C297 1.311 . S
O290 Zn281 1.977 . S
O290 C296 1.272 . S
O291 Zn281 1.910 . S
O291 C297 1.231 . S
C292 O276 1.225 . S
C292 O298 1.298 . S
C293 O282 1.226 . S
C293 O283 1.307 . S
C294 O286 1.303 . S
C294 O287 1.247 . S
C295 O284 1.253 . S
C295 O285 1.283 . S
C296 O288 1.304 . S
C296 O290 1.272 . S
C297 O289 1.311 . S
C297 O291 1.231 . S
O298 Zn280 1.953 . S
O298 C292 1.298 . S
O299 Zn300 1.953 . S
O299 C315 1.225 . S
Zn300 O299 1.953 . S
Zn300 O301 1.949 . S
Zn300 O307 1.919 . S
Zn300 O312 1.924 . S
O301 Zn300 1.949 . S
O301 Zn302 1.923 . S
O301 Zn303 1.950 . S
O301 Zn304 1.945 . S
Zn302 O301 1.923 . S
Zn302 O305 1.933 . S
Zn302 O308 1.941 . S
Zn302 O309 1.965 . S
Zn303 O301 1.950 . S
Zn303 O310 1.938 . S
Zn303 O311 1.906 . S
Zn303 O321 1.953 . S
Zn304 O301 1.945 . S
Zn304 O306 1.932 . S
Zn304 O313 1.977 . S
Zn304 O314 1.910 . S
O305 Zn302 1.933 . S
O305 C316 1.226 . S
O306 Zn304 1.932 . S
O306 C316 1.307 . S
O307 Zn300 1.919 . S
O307 C318 1.253 . S
O308 Zn302 1.941 . S
O308 C318 1.283 . S
O309 Zn302 1.965 . S
O309 C317 1.303 . S
O310 Zn303 1.938 . S
O310 C317 1.247 . S
O311 Zn303 1.906 . S
O311 C319 1.304 . S
O312 Zn300 1.924 . S
O312 C320 1.311 . S
O313 Zn304 1.977 . S
O313 C319 1.272 . S
O314 Zn304 1.910 . S
O314 C320 1.231 . S
C315 O299 1.225 . S
C315 O321 1.298 . S
C316 O305 1.226 . S
C316 O306 1.307 . S
C317 O309 1.303 . S
C317 O310 1.247 . S
C318 O307 1.253 . S
C318 O308 1.283 . S
C319 O311 1.304 . S
C319 O313 1.272 . S
C320 O312 1.311 . S
C320 O314 1.231 . S
O321 Zn303 1.953 . S
O321 C315 1.298 . S
O322 Zn323 1.953 . S
O322 C338 1.225 . S
Zn323 O322 1.953 . S
Zn323 O324 1.949 . S
Zn323 O330 1.919 . S
Zn323 O335 1.924 . S
O324 Zn323 1.949 . S
O324 Zn325 1.923 . S
O324 Zn326 1.950 . S
O324 Zn327 1.945 . S
Zn325 O324 1.923 . S
Zn325 O328 1.933 . S
Zn325 O331 1.941 . S
Zn325 O332 1.965 . S
Zn326 O324 1.950 . S
Zn326 O333 1.938 . S
Zn326 O334 1.906 . S
Zn326 O344 1.953 . S
Zn327 O324 1.945 . S
Zn327 O329 1.932 . S
Zn327 O336 1.977 . S
Zn327 O337 1.910 . S
O328 Zn325 1.933 . S
O328 C339 1.226 . S
O329 Zn327 1.932 . S
O329 C339 1.307 . S
O330 Zn323 1.919 . S
O330 C341 1.253 . S
O331 Zn325 1.941 . S
O331 C341 1.283 . S
O332 Zn325 1.965 . S
O332 C340 1.303 . S
O333 Zn326 1.938 . S
O333 C340 1.247 . S
O334 Zn326 1.906 . S
O334 C342 1.304 . S
O335 Zn323 1.924 . S
O335 C343 1.311 . S
O336 Zn327 1.977 . S
O336 C342 1.272 . S
O337 Zn327 1.910 . S
O337 C343 1.231 . S
C338 O322 1.225 . S
C338 O344 1.298 . S
C339 O328 1.226 . S
C339 O329 1.307 . S
C340 O332 1.303 . S
C340 O333 1.247 . S
C341 O330 1.253 . S
C341 O331 1.283 . S
C342 O334 1.304 . S
C342 O336 1.272 . S
C343 O335 1.311 . S
C343 O337 1.231 . S
O344 Zn326 1.953 . S
O344 C338 1.298 . S
O345 Zn346 1.953 . S
O345 C361 1.225 . S
Zn346 O345 1.953 . S
Zn346 O347 1.949 . S
Zn346 O353 1.919 . S
Zn346 O358 1.924 . S
O347 Zn346 1.949 . S
O347 Zn348 1.923 . S
O347 Zn349 1.950 . S
O347 Zn350 1.945 . S
Zn348 O347 1.923 . S
Zn348 O351 1.933 . S
Zn348 O354 1.941 . S
Zn348 O355 1.965 . S
Zn349 O347 1.950 . S
Zn349 O356 1.938 . S
Zn349 O357 1.906 . S
Zn349 O367 1.953 . S
Zn350 O347 1.945 . S
Zn350 O352 1.932 . S
Zn350 O359 1.977 . S
Zn350 O360 1.910 . S
O351 Zn348 1.933 . S
O351 C362 1.226 . S
O352 Zn350 1.932 . S
O352 C362 1.307 . S
O353 Zn346 1.919 . S
O353 C364 1.253 . S
O354 Zn348 1.941 . S
O354 C364 1.283 . S
O355 Zn348 1.965 . S
O355 C363 1.303 . S
O356 Zn349 1.938 . S
O356 C363 1.247 . S
O357 Zn349 1.906 . S
O357 C365 1.304 . S
O358 Zn346 1.924 . S
O358 C366 1.311 . S
O359 Zn350 1.977 . S
O359 C365 1.272 . S
O360 Zn350 1.910 . S
O360 C366 1.231 . S
C361 O345 1.225 . S
C361 O367 1.298 . S
C362 O351 1.226 . S
C362 O352 1.307 . S
C363 O355 1.303 . S
C363 O356 1.247 . S
C364 O353 1.253 . S
C364 O354 1.283 . S
C365 O357 1.304 . S
C365 O359 1.272 . S
C366 O358 1.311 . S
C366 O360 1.231 . S
O367 Zn349 1.953 . S
O367 C361 1.298 . S
C368 C369 1.363 . S
C368 C374 1.379 . S
C368 N376 1.356 . S
C369 C368 1.363 . S
C369 C375 1.363 . S
C370 C371 1.363 . S
C370 C375 1.379 . S
C370 N377 1.356 . S
C371 C370 1.363 . S
C371 C374 1.363 . S
N372 C374 1.356 . S
N372 H384 0.984 . S
N372 H385 0.985 . S
N373 C375 1.356 . S
N373 H378 0.984 . S
N373 H379 0.985 . S
C374 C368 1.379 . S
C374 C371 1.363 . S
C374 N372 1.356 . S
C375 C369 1.363 . S
C375 C370 1.379 . S
C375 N373 1.356 . S
N376 C368 1.356 . S
N376 H382 0.984 . S
N376 H383 0.984 . S
N377 C370 1.356 . S
N377 H380 0.984 . S
N377 H381 0.985 . S
H378 N373 0.984 . S
H379 N373 0.985 . S
H380 N377 0.984 . S
H381 N377 0.985 . S
H382 N376 0.984 . S
H383 N376 0.984 . S
H384 N372 0.984 . S
H385 N372 0.985 . S
C386 C387 1.363 . S
C386 C392 1.379 . S
C386 N394 1.356 . S
C387 C386 1.363 . S
C387 C393 1.363 . S
C388 C389 1.363 . S
C388 C393 1.379 . S
C388 N395 1.356 . S
C389 C388 1.363 . S
C389 C392 1.363 . S
N390 C392 1.356 . S
N390 H402 0.984 . S
N390 H403 0.985 . S
N391 C393 1.356 . S
N391 H396 0.984 . S
N391 H397 0.985 . S
C392 C386 1.379 . S
C392 C389 1.363 . S
C392 N390 1.356 . S
C393 C387 1.363 . S
C393 C388 1.379 . S
C393 N391 1.356 . S
N394 C386 1.356 . S
N394 H400 0.984 . S
N394 H401 0.984 . S
N395 C388 1.356 . S
N395 H398 0.984 . S
N395 H399 0.985 . S
H396 N391 0.984 . S
H397 N391 0.985 . S
H398 N395 0.984 . S
H399 N395 0.985 . S
H400 N394 0.984 . S
H401 N394 0.984 . S
H402 N390 0.984 . S
H403 N390 0.985 . S
C404 C405 1.363 . S
C404 C410 1.379 . S
C404 N412 1.356 . S
C405 C404 1.363 . S
C405 C411 1.363 . S
C406 C407 1.363 . S
C406 C411 1.379 . S
C406 N413 1.356 . S
C407 C406 1.363 . S
C407 C410 1.363 . S
N408 C410 1.356 . S
N408 H420 0.984 . S
N408 H421 0.985 . S
N409 C411 1.356 . S
N409 H414 0.984 . S
N409 H415 0.985 . S
C410 C404 1.379 . S
C410 C407 1.363 . S
C410 N408 1.356 . S
C411 C405 1.363 . S
C411 C406 1.379 . S
C411 N409 1.356 . S
N412 C404 1.356 . S
N412 H418 0.984 . S
N412 H419 0.984 . S
N413 C406 1.356 . S
N413 H416 0.984 . S
N413 H417 0.985 . S
H414 N409 0.984 . S
H415 N409 0.985 . S
H416 N413 0.984 . S
H417 N413 0.985 . S
H418 N412 0.984 . S
H419 N412 0.984 . S
H420 N408 0.984 . S
H421 N408 0.985 . S
C422 C423 1.363 . S
C422 C428 1.379 . S
C422 N430 1.356 . S
C423 C422 1.363 . S
C423 C429 1.363 . S
C424 C425 1.363 . S
C424 C429 1.379 . S
C424 N431 1.356 . S
C425 C424 1.363 . S
C425 C428 1.363 . S
N426 C428 1.356 . S
N426 H438 0.984 . S
N426 H439 0.985 . S
N427 C429 1.356 . S
N427 H432 0.984 . S
N427 H433 0.985 . S
C428 C422 1.379 . S
C428 C425 1.363 . S
C428 N426 1.356 . S
C429 C423 1.363 . S
C429 C424 1.379 . S
C429 N427 1.356 . S
N430 C422 1.356 . S
N430 H436 0.984 . S
N430 H437 0.984 . S
N431 C424 1.356 . S
N431 H434 0.984 . S
N431 H435 0.985 . S
H432 N427 0.984 . S
H433 N427 0.985 . S
H434 N431 0.984 . S
H435 N431 0.985 . S
H436 N430 0.984 . S
H437 N430 0.984 . S
H438 N426 0.984 . S
H439 N426 0.985 . S
C440 C441 1.363 . S
C440 C446 1.379 . S
C440 N448 1.356 . S
C441 C440 1.363 . S
C441 C447 1.363 . S
C442 C443 1.363 . S
C442 C447 1.379 . S
C442 N449 1.356 . S
C443 C442 1.363 . S
C443 C446 1.363 . S
N444 C446 1.356 . S
N444 H456 0.984 . S
N444 H457 0.985 . S
N445 C447 1.356 . S
N445 H450 0.984 . S
N445 H451 0.985 . S
C446 C440 1.379 . S
C446 C443 1.363 . S
C446 N444 1.356 . S
C447 C441 1.363 . S
C447 C442 1.379 . S
C447 N445 1.356 . S
N448 C440 1.356 . S
N448 H454 0.984 . S
N448 H455 0.984 . S
N449 C442 1.356 . S
N449 H452 0.984 . S
N449 H453 0.985 . S
H450 N445 0.984 . S
H451 N445 0.985 . S
H452 N449 0.984 . S
H453 N449 0.985 . S
H454 N448 0.984 . S
H455 N448 0.984 . S
H456 N444 0.984 . S
H457 N444 0.985 . S
C458 C459 1.363 . S
C458 C464 1.379 . S
C458 N466 1.356 . S
C459 C458 1.363 . S
C459 C465 1.363 . S
C460 C461 1.363 . S
C460 C465 1.379 . S
C460 N467 1.356 . S
C461 C460 1.363 . S
C461 C464 1.363 . S
N462 C464 1.356 . S
N462 H474 0.984 . S
N462 H475 0.985 . S
N463 C465 1.356 . S
N463 H468 0.984 . S
N463 H469 0.985 . S
C464 C458 1.379 . S
C464 C461 1.363 . S
C464 N462 1.356 . S
C465 C459 1.363 . S
C465 C460 1.379 . S
C465 N463 1.356 . S
N466 C458 1.356 . S
N466 H472 0.984 . S
N466 H473 0.984 . S
N467 C460 1.356 . S
N467 H470 0.984 . S
N467 H471 0.985 . S
H468 N463 0.984 . S
H469 N463 0.985 . S
H470 N467 0.984 . S
H471 N467 0.985 . S
H472 N466 0.984 . S
H473 N466 0.984 . S
H474 N462 0.984 . S
H475 N462 0.985 . S
C476 C477 1.363 . S
C476 C482 1.379 . S
C476 N484 1.356 . S
C477 C476 1.363 . S
C477 C483 1.363 . S
C478 C479 1.363 . S
C478 C483 1.379 . S
C478 N485 1.356 . S
C479 C478 1.363 . S
C479 C482 1.363 . S
N480 C482 1.356 . S
N480 H492 0.984 . S
N480 H493 0.985 . S
N481 C483 1.356 . S
N481 H486 0.984 . S
N481 H487 0.985 . S
C482 C476 1.379 . S
C482 C479 1.363 . S
C482 N480 1.356 . S
C483 C477 1.363 . S
C483 C478 1.379 . S
C483 N481 1.356 . S
N484 C476 1.356 . S
N484 H490 0.984 . S
N484 H491 0.984 . S
N485 C478 1.356 . S
N485 H488 0.984 . S
N485 H489 0.985 . S
H486 N481 0.984 . S
H487 N481 0.985 . S
H488 N485 0.984 . S
H489 N485 0.985 . S
H490 N484 0.984 . S
H491 N484 0.984 . S
H492 N480 0.984 . S
H493 N480 0.985 . S
C494 C495 1.363 . S
C494 C500 1.379 . S
C494 N502 1.356 . S
C495 C494 1.363 . S
C495 C501 1.363 . S
C496 C497 1.363 . S
C496 C501 1.379 . S
C496 N503 1.356 . S
C497 C496 1.363 . S
C497 C500 1.363 . S
N498 C500 1.356 . S
N498 H510 0.984 . S
N498 H511 0.985 . S
N499 C501 1.356 . S
N499 H504 0.984 . S
N499 H505 0.985 . S
C500 C494 1.379 . S
C500 C497 1.363 . S
C500 N498 1.356 . S
C501 C495 1.363 . S
C501 C496 1.379 . S
C501 N499 1.356 . S
N502 C494 1.356 . S
N502 H508 0.984 . S
N502 H509 0.984 . S
N503 C496 1.356 . S
N503 H506 0.984 . S
N503 H507 0.985 . S
H504 N499 0.984 . S
H505 N499 0.985 . S
H506 N503 0.984 . S
H507 N503 0.985 . S
H508 N502 0.984 . S
H509 N502 0.984 . S
H510 N498 0.984 . S
H511 N498 0.985 . S
C512 C513 1.363 . S
C512 C518 1.379 . S
C512 N520 1.356 . S
C513 C512 1.363 . S
C513 C519 1.363 1_545 S
C514 C515 1.363 . S
C514 C519 1.379 . S
C514 N521 1.356 . S
C515 C514 1.363 . S
C515 C518 1.363 1_565 S
N516 C518 1.356 . S
N516 H528 0.984 . S
N516 H529 0.985 . S
N517 C519 1.356 . S
N517 H522 0.984 . S
N517 H523 0.985 . S
C518 C512 1.379 . S
C518 C515 1.363 1_545 S
C518 N516 1.356 . S
C519 C513 1.363 1_565 S
C519 C514 1.379 . S
C519 N517 1.356 . S
N520 C512 1.356 . S
N520 H526 0.984 . S
N520 H527 0.984 . S
N521 C514 1.356 . S
N521 H524 0.984 . S
N521 H525 0.985 . S
H522 N517 0.984 . S
H523 N517 0.985 . S
H524 N521 0.984 . S
H525 N521 0.985 . S
H526 N520 0.984 . S
H527 N520 0.984 . S
H528 N516 0.984 . S
H529 N516 0.985 . S
C530 C531 1.363 . S
C530 C536 1.379 . S
C530 N538 1.356 . S
C531 C530 1.363 . S
C531 C537 1.363 1_565 S
C532 C533 1.363 . S
C532 C537 1.379 . S
C532 N539 1.356 . S
C533 C532 1.363 . S
C533 C536 1.363 1_545 S
N534 C536 1.356 . S
N534 H546 0.984 . S
N534 H547 0.985 . S
N535 C537 1.356 . S
N535 H540 0.984 . S
N535 H541 0.985 . S
C536 C530 1.379 . S
C536 C533 1.363 1_565 S
C536 N534 1.356 . S
C537 C531 1.363 1_545 S
C537 C532 1.379 . S
C537 N535 1.356 . S
N538 C530 1.356 . S
N538 H544 0.984 . S
N538 H545 0.984 . S
N539 C532 1.356 . S
N539 H542 0.984 . S
N539 H543 0.985 . S
H540 N535 0.984 . S
H541 N535 0.985 . S
H542 N539 0.984 . S
H543 N539 0.985 . S
H544 N538 0.984 . S
H545 N538 0.984 . S
H546 N534 0.984 . S
H547 N534 0.985 . S
C548 C549 1.363 1_545 S
C548 C554 1.379 . S
C548 N556 1.356 . S
C549 C548 1.363 1_565 S
C549 C555 1.363 . S
C550 C551 1.363 1_565 S
C550 C555 1.379 . S
C550 N557 1.356 . S
C551 C550 1.363 1_545 S
C551 C554 1.363 . S
N552 C554 1.356 . S
N552 H564 0.984 . S
N552 H565 0.985 . S
N553 C555 1.356 . S
N553 H558 0.984 . S
N553 H559 0.985 . S
C554 C548 1.379 . S
C554 C551 1.363 . S
C554 N552 1.356 . S
C555 C549 1.363 . S
C555 C550 1.379 . S
C555 N553 1.356 . S
N556 C548 1.356 . S
N556 H562 0.984 . S
N556 H563 0.984 . S
N557 C550 1.356 . S
N557 H560 0.984 . S
N557 H561 0.985 . S
H558 N553 0.984 . S
H559 N553 0.985 . S
H560 N557 0.984 . S
H561 N557 0.985 . S
H562 N556 0.984 . S
H563 N556 0.984 . S
H564 N552 0.984 . S
H565 N552 0.985 . S
C566 C567 1.363 1_545 S
C566 C572 1.379 . S
C566 N574 1.356 . S
C567 C566 1.363 1_565 S
C567 C573 1.363 . S
C568 C569 1.363 1_565 S
C568 C573 1.379 . S
C568 N575 1.356 . S
C569 C568 1.363 1_545 S
C569 C572 1.363 . S
N570 C572 1.356 . S
N570 H582 0.984 . S
N570 H583 0.985 . S
N571 C573 1.356 . S
N571 H576 0.984 . S
N571 H577 0.985 . S
C572 C566 1.379 . S
C572 C569 1.363 . S
C572 N570 1.356 . S
C573 C567 1.363 . S
C573 C568 1.379 . S
C573 N571 1.356 . S
N574 C566 1.356 . S
N574 H580 0.984 . S
N574 H581 0.984 . S
N575 C568 1.356 . S
N575 H578 0.984 . S
N575 H579 0.985 . S
H576 N571 0.984 . S
H577 N571 0.985 . S
H578 N575 0.984 . S
H579 N575 0.985 . S
H580 N574 0.984 . S
H581 N574 0.984 . S
H582 N570 0.984 . S
H583 N570 0.985 . S
C584 C585 1.363 . S
C584 C590 1.379 . S
C584 N592 1.356 . S
C585 C584 1.363 . S
C585 C591 1.363 . S
C586 C587 1.363 . S
C586 C591 1.379 . S
C586 N593 1.356 . S
C587 C586 1.363 . S
C587 C590 1.363 . S
N588 C590 1.356 . S
N588 H600 0.984 . S
N588 H601 0.985 . S
N589 C591 1.356 . S
N589 H594 0.984 . S
N589 H595 0.985 . S
C590 C584 1.379 . S
C590 C587 1.363 . S
C590 N588 1.356 . S
C591 C585 1.363 . S
C591 C586 1.379 . S
C591 N589 1.356 . S
N592 C584 1.356 . S
N592 H598 0.984 . S
N592 H599 0.984 . S
N593 C586 1.356 . S
N593 H596 0.984 . S
N593 H597 0.985 . S
H594 N589 0.984 . S
H595 N589 0.985 . S
H596 N593 0.984 . S
H597 N593 0.985 . S
H598 N592 0.984 . S
H599 N592 0.984 . S
H600 N588 0.984 . S
H601 N588 0.985 . S
C602 C603 1.363 . S
C602 C608 1.379 . S
C602 N610 1.356 . S
C603 C602 1.363 . S
C603 C609 1.363 . S
C604 C605 1.363 . S
C604 C609 1.379 . S
C604 N611 1.356 . S
C605 C604 1.363 . S
C605 C608 1.363 . S
N606 C608 1.356 . S
N606 H618 0.984 . S
N606 H619 0.985 . S
N607 C609 1.356 . S
N607 H612 0.984 . S
N607 H613 0.985 . S
C608 C602 1.379 . S
C608 C605 1.363 . S
C608 N606 1.356 . S
C609 C603 1.363 . S
C609 C604 1.379 . S
C609 N607 1.356 . S
N610 C602 1.356 . S
N610 H616 0.984 . S
N610 H617 0.984 . S
N611 C604 1.356 . S
N611 H614 0.984 . S
N611 H615 0.985 . S
H612 N607 0.984 . S
H613 N607 0.985 . S
H614 N611 0.984 . S
H615 N611 0.985 . S
H616 N610 0.984 . S
H617 N610 0.984 . S
H618 N606 0.984 . S
H619 N606 0.985 . S
C620 C621 1.363 . S
C620 C626 1.379 . S
C620 N628 1.356 . S
C621 C620 1.363 . S
C621 C627 1.363 . S
C622 C623 1.363 . S
C622 C627 1.379 . S
C622 N629 1.356 . S
C623 C622 1.363 . S
C623 C626 1.363 . S
N624 C626 1.356 . S
N624 H636 0.984 . S
N624 H637 0.985 . S
N625 C627 1.356 . S
N625 H630 0.984 . S
N625 H631 0.985 . S
C626 C620 1.379 . S
C626 C623 1.363 . S
C626 N624 1.356 . S
C627 C621 1.363 . S
C627 C622 1.379 . S
C627 N625 1.356 . S
N628 C620 1.356 . S
N628 H634 0.984 . S
N628 H635 0.984 . S
N629 C622 1.356 . S
N629 H632 0.984 . S
N629 H633 0.985 . S
H630 N625 0.984 . S
H631 N625 0.985 . S
H632 N629 0.984 . S
H633 N629 0.985 . S
H634 N628 0.984 . S
H635 N628 0.984 . S
H636 N624 0.984 . S
H637 N624 0.985 . S
C638 C639 1.363 . S
C638 C644 1.379 . S
C638 N646 1.356 . S
C639 C638 1.363 . S
C639 C645 1.363 . S
C640 C641 1.363 . S
C640 C645 1.379 . S
C640 N647 1.356 . S
C641 C640 1.363 . S
C641 C644 1.363 . S
N642 C644 1.356 . S
N642 H654 0.984 . S
N642 H655 0.985 . S
N643 C645 1.356 . S
N643 H648 0.984 . S
N643 H649 0.985 . S
C644 C638 1.379 . S
C644 C641 1.363 . S
C644 N642 1.356 . S
C645 C639 1.363 . S
C645 C640 1.379 . S
C645 N643 1.356 . S
N646 C638 1.356 . S
N646 H652 0.984 . S
N646 H653 0.984 . S
N647 C640 1.356 . S
N647 H650 0.984 . S
N647 H651 0.985 . S
H648 N643 0.984 . S
H649 N643 0.985 . S
H650 N647 0.984 . S
H651 N647 0.985 . S
H652 N646 0.984 . S
H653 N646 0.984 . S
H654 N642 0.984 . S
H655 N642 0.985 . S
C656 C657 1.360 1_545 S
C656 C662 1.379 1_556 S
C656 N664 1.356 . S
C657 C656 1.360 1_565 S
C657 C663 1.366 . S
C658 C659 1.363 1_565 S
C658 C663 1.379 1_554 S
C658 N665 1.356 . S
C659 C658 1.363 1_545 S
C659 C662 1.363 . S
N660 C662 1.356 . S
N660 H672 0.984 . S
N660 H673 0.985 . S
N661 C663 1.356 . S
N661 H666 0.984 . S
N661 H667 0.985 . S
C662 C656 1.379 1_554 S
C662 C659 1.363 . S
C662 N660 1.356 . S
C663 C657 1.366 . S
C663 C658 1.379 1_556 S
C663 N661 1.356 . S
N664 C656 1.356 . S
N664 H670 0.984 . S
N664 H671 0.984 . S
N665 C658 1.356 . S
N665 H668 0.984 . S
N665 H669 0.985 . S
H666 N661 0.984 . S
H667 N661 0.985 . S
H668 N665 0.984 . S
H669 N665 0.985 . S
H670 N664 0.984 . S
H671 N664 0.984 . S
H672 N660 0.984 . S
H673 N660 0.985 . S
C674 C675 1.360 1_565 S
C674 C680 1.379 1_556 S
C674 N682 1.356 . S
C675 C674 1.360 1_545 S
C675 C681 1.366 . S
C676 C677 1.363 1_545 S
C676 C681 1.379 1_554 S
C676 N683 1.356 . S
C677 C676 1.363 1_565 S
C677 C680 1.363 . S
N678 C680 1.356 . S
N678 H690 0.984 . S
N678 H691 0.985 . S
N679 C681 1.356 . S
N679 H684 0.984 . S
N679 H685 0.985 . S
C680 C674 1.379 1_554 S
C680 C677 1.363 . S
C680 N678 1.356 . S
C681 C675 1.366 . S
C681 C676 1.379 1_556 S
C681 N679 1.356 . S
N682 C674 1.356 . S
N682 H688 0.984 . S
N682 H689 0.984 . S
N683 C676 1.356 . S
N683 H686 0.984 . S
N683 H687 0.985 . S
H684 N679 0.984 . S
H685 N679 0.985 . S
H686 N683 0.984 . S
H687 N683 0.985 . S
H688 N682 0.984 . S
H689 N682 0.984 . S
H690 N678 0.984 . S
H691 N678 0.985 . S
C692 C693 1.363 1_545 S
C692 C698 1.379 . S
C692 N700 1.356 . S
C693 C692 1.363 1_565 S
C693 C699 1.363 . S
C694 C695 1.360 1_565 S
C694 C699 1.379 . S
C694 N701 1.356 . S
C695 C694 1.360 1_545 S
C695 C698 1.366 . S
N696 C698 1.356 . S
N696 H708 0.984 . S
N696 H709 0.985 . S
N697 C699 1.356 . S
N697 H702 0.984 . S
N697 H703 0.985 . S
C698 C692 1.379 . S
C698 C695 1.366 . S
C698 N696 1.356 . S
C699 C693 1.363 . S
C699 C694 1.379 . S
C699 N697 1.356 . S
N700 C692 1.356 . S
N700 H706 0.984 . S
N700 H707 0.984 . S
N701 C694 1.356 . S
N701 H704 0.984 . S
N701 H705 0.985 . S
H702 N697 0.984 . S
H703 N697 0.985 . S
H704 N701 0.984 . S
H705 N701 0.985 . S
H706 N700 0.984 . S
H707 N700 0.984 . S
H708 N696 0.984 . S
H709 N696 0.985 . S
C710 C711 1.360 1_545 S
C710 C716 1.379 . S
C710 N718 1.356 . S
C711 C710 1.360 1_565 S
C711 C717 1.366 . S
C712 C713 1.363 1_565 S
C712 C717 1.379 . S
C712 N719 1.356 . S
C713 C712 1.363 1_545 S
C713 C716 1.363 . S
N714 C716 1.356 . S
N714 H726 0.984 . S
N714 H727 0.985 . S
N715 C717 1.356 . S
N715 H720 0.984 . S
N715 H721 0.985 . S
C716 C710 1.379 . S
C716 C713 1.363 . S
C716 N714 1.356 . S
C717 C711 1.366 . S
C717 C712 1.379 . S
C717 N715 1.356 . S
N718 C710 1.356 . S
N718 H724 0.984 . S
N718 H725 0.984 . S
N719 C712 1.356 . S
N719 H722 0.984 . S
N719 H723 0.985 . S
H720 N715 0.984 . S
H721 N715 0.985 . S
H722 N719 0.984 . S
H723 N719 0.985 . S
H724 N718 0.984 . S
H725 N718 0.984 . S
H726 N714 0.984 . S
H727 N714 0.985 . S
C728 C729 1.363 . S
C728 C734 1.379 1_554 S
C728 N736 1.356 . S
C729 C728 1.363 . S
C729 C735 1.363 . S
C730 C731 1.363 . S
C730 C735 1.379 1_556 S
C730 N737 1.356 . S
C731 C730 1.363 . S
C731 C734 1.363 . S
N732 C734 1.356 . S
N732 H744 0.984 . S
N732 H745 0.985 . S
N733 C735 1.356 . S
N733 H738 0.984 . S
N733 H739 0.985 . S
C734 C728 1.379 1_556 S
C734 C731 1.363 . S
C734 N732 1.356 . S
C735 C729 1.363 . S
C735 C730 1.379 1_554 S
C735 N733 1.356 . S
N736 C728 1.356 . S
N736 H742 0.984 . S
N736 H743 0.984 . S
N737 C730 1.356 . S
N737 H740 0.984 . S
N737 H741 0.985 . S
H738 N733 0.984 . S
H739 N733 0.985 . S
H740 N737 0.984 . S
H741 N737 0.985 . S
H742 N736 0.984 . S
H743 N736 0.984 . S
H744 N732 0.984 . S
H745 N732 0.985 . S
C746 C747 1.363 . S
C746 C752 1.379 1_556 S
C746 N754 1.356 . S
C747 C746 1.363 . S
C747 C753 1.363 . S
C748 C749 1.363 . S
C748 C753 1.379 1_554 S
C748 N755 1.356 . S
C749 C748 1.363 . S
C749 C752 1.363 . S
N750 C752 1.356 . S
N750 H762 0.984 . S
N750 H763 0.985 . S
N751 C753 1.356 . S
N751 H756 0.984 . S
N751 H757 0.985 . S
C752 C746 1.379 1_554 S
C752 C749 1.363 . S
C752 N750 1.356 . S
C753 C747 1.363 . S
C753 C748 1.379 1_556 S
C753 N751 1.356 . S
N754 C746 1.356 . S
N754 H760 0.984 . S
N754 H761 0.984 . S
N755 C748 1.356 . S
N755 H758 0.984 . S
N755 H759 0.985 . S
H756 N751 0.984 . S
H757 N751 0.985 . S
H758 N755 0.984 . S
H759 N755 0.985 . S
H760 N754 0.984 . S
H761 N754 0.984 . S
H762 N750 0.984 . S
H763 N750 0.985 . S
C764 C765 1.363 . S
C764 C770 1.379 . S
C764 N772 1.356 . S
C765 C764 1.363 . S
C765 C771 1.363 . S
C766 C767 1.363 . S
C766 C771 1.379 . S
C766 N773 1.356 . S
C767 C766 1.363 . S
C767 C770 1.363 . S
N768 C770 1.356 . S
N768 H780 0.984 . S
N768 H781 0.985 . S
N769 C771 1.356 . S
N769 H774 0.984 . S
N769 H775 0.985 . S
C770 C764 1.379 . S
C770 C767 1.363 . S
C770 N768 1.356 . S
C771 C765 1.363 . S
C771 C766 1.379 . S
C771 N769 1.356 . S
N772 C764 1.356 . S
N772 H778 0.984 . S
N772 H779 0.984 . S
N773 C766 1.356 . S
N773 H776 0.984 . S
N773 H777 0.985 . S
H774 N769 0.984 . S
H775 N769 0.985 . S
H776 N773 0.984 . S
H777 N773 0.985 . S
H778 N772 0.984 . S
H779 N772 0.984 . S
H780 N768 0.984 . S
H781 N768 0.985 . S
C782 C783 1.363 . S
C782 C788 1.379 . S
C782 N790 1.356 . S
C783 C782 1.363 . S
C783 C789 1.363 . S
C784 C785 1.363 . S
C784 C789 1.379 . S
C784 N791 1.356 . S
C785 C784 1.363 . S
C785 C788 1.363 . S
N786 C788 1.356 . S
N786 H798 0.984 . S
N786 H799 0.985 . S
N787 C789 1.356 . S
N787 H792 0.984 . S
N787 H793 0.985 . S
C788 C782 1.379 . S
C788 C785 1.363 . S
C788 N786 1.356 . S
C789 C783 1.363 . S
C789 C784 1.379 . S
C789 N787 1.356 . S
N790 C782 1.356 . S
N790 H796 0.984 . S
N790 H797 0.984 . S
N791 C784 1.356 . S
N791 H794 0.984 . S
N791 H795 0.985 . S
H792 N787 0.984 . S
H793 N787 0.985 . S
H794 N791 0.984 . S
H795 N791 0.985 . S
H796 N790 0.984 . S
H797 N790 0.984 . S
H798 N786 0.984 . S
H799 N786 0.985 . S
C800 C801 1.363 . S
C800 C806 1.379 1_655 S
C800 N808 1.356 . S
C801 C800 1.363 . S
C801 C807 1.363 1_565 S
C802 C803 1.363 . S
C802 C807 1.379 1_455 S
C802 N809 1.356 . S
C803 C802 1.363 . S
C803 C806 1.363 1_545 S
N804 C806 1.356 . S
N804 H816 0.984 . S
N804 H817 0.985 1_565 S
N805 C807 1.356 . S
N805 H810 0.984 1_545 S
N805 H811 0.985 . S
C806 C800 1.379 1_455 S
C806 C803 1.363 1_565 S
C806 N804 1.356 . S
C807 C801 1.363 1_545 S
C807 C802 1.379 1_655 S
C807 N805 1.356 . S
N808 C800 1.356 . S
N808 H814 0.984 . S
N808 H815 0.984 . S
N809 C802 1.356 . S
N809 H812 0.984 . S
N809 H813 0.985 . S
H810 N805 0.984 1_565 S
H811 N805 0.985 . S
H812 N809 0.984 . S
H813 N809 0.985 . S
H814 N808 0.984 . S
H815 N808 0.984 . S
H816 N804 0.984 . S
H817 N804 0.985 1_545 S
C818 C819 1.363 . S
C818 C824 1.379 1_655 S
C818 N826 1.356 . S
C819 C818 1.363 . S
C819 C825 1.363 1_545 S
C820 C821 1.363 . S
C820 C825 1.379 1_455 S
C820 N827 1.356 . S
C821 C820 1.363 . S
C821 C824 1.363 1_565 S
N822 C824 1.356 . S
N822 H834 0.984 . S
N822 H835 0.985 1_545 S
N823 C825 1.356 . S
N823 H828 0.984 1_565 S
N823 H829 0.985 . S
C824 C818 1.379 1_455 S
C824 C821 1.363 1_545 S
C824 N822 1.356 . S
C825 C819 1.363 1_565 S
C825 C820 1.379 1_655 S
C825 N823 1.356 . S
N826 C818 1.356 . S
N826 H832 0.984 . S
N826 H833 0.984 . S
N827 C820 1.356 . S
N827 H830 0.984 . S
N827 H831 0.985 . S
H828 N823 0.984 1_545 S
H829 N823 0.985 . S
H830 N827 0.984 . S
H831 N827 0.985 . S
H832 N826 0.984 . S
H833 N826 0.984 . S
H834 N822 0.984 . S
H835 N822 0.985 1_565 S
C836 C837 1.363 . S
C836 C842 1.379 1_455 S
C836 N844 1.356 . S
C837 C836 1.363 . S
C837 C843 1.363 1_545 S
C838 C839 1.363 . S
C838 C843 1.379 1_655 S
C838 N845 1.356 . S
C839 C838 1.363 . S
C839 C842 1.363 1_565 S
N840 C842 1.356 . S
N840 H852 0.984 . S
N840 H853 0.985 . S
N841 C843 1.356 . S
N841 H846 0.984 . S
N841 H847 0.985 . S
C842 C836 1.379 1_655 S
C842 C839 1.363 1_545 S
C842 N840 1.356 . S
C843 C837 1.363 1_565 S
C843 C838 1.379 1_455 S
C843 N841 1.356 . S
N844 C836 1.356 . S
N844 H850 0.984 . S
N844 H851 0.984 . S
N845 C838 1.356 . S
N845 H848 0.984 . S
N845 H849 0.985 . S
H846 N841 0.984 . S
H847 N841 0.985 . S
H848 N845 0.984 . S
H849 N845 0.985 . S
H850 N844 0.984 . S
H851 N844 0.984 . S
H852 N840 0.984 . S
H853 N840 0.985 . S
C854 C855 1.363 . S
C854 C860 1.379 1_655 S
C854 N862 1.356 . S
C855 C854 1.363 . S
C855 C861 1.363 1_545 S
C856 C857 1.363 . S
C856 C861 1.379 1_455 S
C856 N863 1.356 . S
C857 C856 1.363 . S
C857 C860 1.363 1_565 S
N858 C860 1.356 . S
N858 H870 0.984 . S
N858 H871 0.985 . S
N859 C861 1.356 . S
N859 H864 0.984 . S
N859 H865 0.985 . S
C860 C854 1.379 1_455 S
C860 C857 1.363 1_545 S
C860 N858 1.356 . S
C861 C855 1.363 1_565 S
C861 C856 1.379 1_655 S
C861 N859 1.356 . S
N862 C854 1.356 . S
N862 H868 0.984 . S
N862 H869 0.984 . S
N863 C856 1.356 . S
N863 H866 0.984 . S
N863 H867 0.985 . S
H864 N859 0.984 . S
H865 N859 0.985 . S
H866 N863 0.984 . S
H867 N863 0.985 . S
H868 N862 0.984 . S
H869 N862 0.984 . S
H870 N858 0.984 . S
H871 N858 0.985 . S
C872 C873 1.363 . S
C872 C878 1.379 . S
C872 N880 1.356 . S
C873 C872 1.363 . S
C873 C879 1.363 . S
C874 C875 1.363 . S
C874 C879 1.379 . S
C874 N881 1.356 . S
C875 C874 1.363 . S
C875 C878 1.363 . S
N876 C878 1.356 . S
N876 H888 0.984 . S
N876 H889 0.985 . S
N877 C879 1.356 . S
N877 H882 0.984 . S
N877 H883 0.985 . S
C878 C872 1.379 . S
C878 C875 1.363 . S
C878 N876 1.356 . S
C879 C873 1.363 . S
C879 C874 1.379 . S
C879 N877 1.356 . S
N880 C872 1.356 . S
N880 H886 0.984 . S
N880 H887 0.984 . S
N881 C874 1.356 . S
N881 H884 0.984 . S
N881 H885 0.985 . S
H882 N877 0.984 . S
H883 N877 0.985 . S
H884 N881 0.984 . S
H885 N881 0.985 . S
H886 N880 0.984 . S
H887 N880 0.984 . S
H888 N876 0.984 . S
H889 N876 0.985 . S
C890 C891 1.363 . S
C890 C896 1.379 . S
C890 N898 1.356 . S
C891 C890 1.363 . S
C891 C897 1.363 . S
C892 C893 1.363 . S
C892 C897 1.379 . S
C892 N899 1.356 . S
C893 C892 1.363 . S
C893 C896 1.363 . S
N894 C896 1.356 . S
N894 H906 0.984 . S
N894 H907 0.985 . S
N895 C897 1.356 . S
N895 H900 0.984 . S
N895 H901 0.985 . S
C896 C890 1.379 . S
C896 C893 1.363 . S
C896 N894 1.356 . S
C897 C891 1.363 . S
C897 C892 1.379 . S
C897 N895 1.356 . S
N898 C890 1.356 . S
N898 H904 0.984 . S
N898 H905 0.984 . S
N899 C892 1.356 . S
N899 H902 0.984 . S
N899 H903 0.985 . S
H900 N895 0.984 . S
H901 N895 0.985 . S
H902 N899 0.984 . S
H903 N899 0.985 . S
H904 N898 0.984 . S
H905 N898 0.984 . S
H906 N894 0.984 . S
H907 N894 0.985 . S
C908 C909 1.363 . S
C908 C914 1.379 . S
C908 N916 1.356 . S
C909 C908 1.363 . S
C909 C915 1.363 . S
C910 C911 1.363 . S
C910 C915 1.379 . S
C910 N917 1.356 . S
C911 C910 1.363 . S
C911 C914 1.363 . S
N912 C914 1.356 . S
N912 H924 0.984 . S
N912 H925 0.985 . S
N913 C915 1.356 . S
N913 H918 0.984 . S
N913 H919 0.985 . S
C914 C908 1.379 . S
C914 C911 1.363 . S
C914 N912 1.356 . S
C915 C909 1.363 . S
C915 C910 1.379 . S
C915 N913 1.356 . S
N916 C908 1.356 . S
N916 H922 0.984 . S
N916 H923 0.984 . S
N917 C910 1.356 . S
N917 H920 0.984 . S
N917 H921 0.985 . S
H918 N913 0.984 . S
H919 N913 0.985 . S
H920 N917 0.984 . S
H921 N917 0.985 . S
H922 N916 0.984 . S
H923 N916 0.984 . S
H924 N912 0.984 . S
H925 N912 0.985 . S
C926 C927 1.363 . S
C926 C932 1.379 . S
C926 N934 1.356 . S
C927 C926 1.363 . S
C927 C933 1.363 . S
C928 C929 1.363 . S
C928 C933 1.379 . S
C928 N935 1.356 . S
C929 C928 1.363 . S
C929 C932 1.363 . S
N930 C932 1.356 . S
N930 H942 0.984 . S
N930 H943 0.985 . S
N931 C933 1.356 . S
N931 H936 0.984 . S
N931 H937 0.985 . S
C932 C926 1.379 . S
C932 C929 1.363 . S
C932 N930 1.356 . S
C933 C927 1.363 . S
C933 C928 1.379 . S
C933 N931 1.356 . S
N934 C926 1.356 . S
N934 H940 0.984 . S
N934 H941 0.984 . S
N935 C928 1.356 . S
N935 H938 0.984 . S
N935 H939 0.985 . S
H936 N931 0.984 . S
H937 N931 0.985 . S
H938 N935 0.984 . S
H939 N935 0.985 . S
H940 N934 0.984 . S
H941 N934 0.984 . S
H942 N930 0.984 . S
H943 N930 0.985 . S
C944 C945 1.363 . S
C944 C950 1.379 . S
C944 N952 1.356 . S
C945 C944 1.363 . S
C945 C951 1.363 . S
C946 C947 1.363 . S
C946 C951 1.379 . S
C946 N953 1.356 . S
C947 C946 1.363 . S
C947 C950 1.363 . S
N948 C950 1.356 . S
N948 H960 0.984 . S
N948 H961 0.985 . S
N949 C951 1.356 . S
N949 H954 0.984 . S
N949 H955 0.985 . S
C950 C944 1.379 . S
C950 C947 1.363 . S
C950 N948 1.356 . S
C951 C945 1.363 . S
C951 C946 1.379 . S
C951 N949 1.356 . S
N952 C944 1.356 . S
N952 H958 0.984 . S
N952 H959 0.984 . S
N953 C946 1.356 . S
N953 H956 0.984 . S
N953 H957 0.985 . S
H954 N949 0.984 . S
H955 N949 0.985 . S
H956 N953 0.984 . S
H957 N953 0.985 . S
H958 N952 0.984 . S
H959 N952 0.984 . S
H960 N948 0.984 . S
H961 N948 0.985 . S
C962 C963 1.363 . S
C962 C968 1.379 . S
C962 N970 1.356 . S
C963 C962 1.363 . S
C963 C969 1.363 . S
C964 C965 1.363 . S
C964 C969 1.379 . S
C964 N971 1.356 . S
C965 C964 1.363 . S
C965 C968 1.363 . S
N966 C968 1.356 . S
N966 H978 0.984 . S
N966 H979 0.985 . S
N967 C969 1.356 . S
N967 H972 0.984 . S
N967 H973 0.985 . S
C968 C962 1.379 . S
C968 C965 1.363 . S
C968 N966 1.356 . S
C969 C963 1.363 . S
C969 C964 1.379 . S
C969 N967 1.356 . S
N970 C962 1.356 . S
N970 H976 0.984 . S
N970 H977 0.984 . S
N971 C964 1.356 . S
N971 H974 0.984 . S
N971 H975 0.985 . S
H972 N967 0.984 . S
H973 N967 0.985 . S
H974 N971 0.984 . S
H975 N971 0.985 . S
H976 N970 0.984 . S
H977 N970 0.984 . S
H978 N966 0.984 . S
H979 N966 0.985 . S
C980 C981 1.363 . S
C980 C986 1.379 . S
C980 N988 1.356 . S
C981 C980 1.363 . S
C981 C987 1.363 . S
C982 C983 1.363 . S
C982 C987 1.379 . S
C982 N989 1.356 . S
C983 C982 1.363 . S
C983 C986 1.363 . S
N984 C986 1.356 . S
N984 H996 0.984 . S
N984 H997 0.985 . S
N985 C987 1.356 . S
N985 H990 0.984 . S
N985 H991 0.985 . S
C986 C980 1.379 . S
C986 C983 1.363 . S
C986 N984 1.356 . S
C987 C981 1.363 . S
C987 C982 1.379 . S
C987 N985 1.356 . S
N988 C980 1.356 . S
N988 H994 0.984 . S
N988 H995 0.984 . S
N989 C982 1.356 . S
N989 H992 0.984 . S
N989 H993 0.985 . S
H990 N985 0.984 . S
H991 N985 0.985 . S
H992 N989 0.984 . S
H993 N989 0.985 . S
H994 N988 0.984 . S
H995 N988 0.984 . S
H996 N984 0.984 . S
H997 N984 0.985 . S
C998 C999 1.363 . S
C998 C1004 1.379 . S
C998 N1006 1.356 . S
C999 C998 1.363 . S
C999 C1005 1.363 . S
C1000 C1001 1.363 . S
C1000 C1005 1.379 . S
C1000 N1007 1.356 . S
C1001 C1000 1.363 . S
C1001 C1004 1.363 . S
N1002 C1004 1.356 . S
N1002 H1014 0.984 . S
N1002 H1015 0.985 . S
N1003 C1005 1.356 . S
N1003 H1008 0.984 . S
N1003 H1009 0.985 . S
C1004 C998 1.379 . S
C1004 C1001 1.363 . S
C1004 N1002 1.356 . S
C1005 C999 1.363 . S
C1005 C1000 1.379 . S
C1005 N1003 1.356 . S
N1006 C998 1.356 . S
N1006 H1012 0.984 . S
N1006 H1013 0.984 . S
N1007 C1000 1.356 . S
N1007 H1010 0.984 . S
N1007 H1011 0.985 . S
H1008 N1003 0.984 . S
H1009 N1003 0.985 . S
H1010 N1007 0.984 . S
H1011 N1007 0.985 . S
H1012 N1006 0.984 . S
H1013 N1006 0.984 . S
H1014 N1002 0.984 . S
H1015 N1002 0.985 . S
C1016 C1017 1.363 . S
C1016 C1022 1.379 . S
C1016 N1024 1.356 . S
C1017 C1016 1.363 . S
C1017 C1023 1.363 . S
C1018 C1019 1.363 . S
C1018 C1023 1.379 . S
C1018 N1025 1.356 . S
C1019 C1018 1.363 . S
C1019 C1022 1.363 . S
N1020 C1022 1.356 . S
N1020 H1032 0.984 . S
N1020 H1033 0.985 . S
N1021 C1023 1.356 . S
N1021 H1026 0.984 . S
N1021 H1027 0.985 . S
C1022 C1016 1.379 . S
C1022 C1019 1.363 . S
C1022 N1020 1.356 . S
C1023 C1017 1.363 . S
C1023 C1018 1.379 . S
C1023 N1021 1.356 . S
N1024 C1016 1.356 . S
N1024 H1030 0.984 . S
N1024 H1031 0.984 . S
N1025 C1018 1.356 . S
N1025 H1028 0.984 . S
N1025 H1029 0.985 . S
H1026 N1021 0.984 . S
H1027 N1021 0.985 . S
H1028 N1025 0.984 . S
H1029 N1025 0.985 . S
H1030 N1024 0.984 . S
H1031 N1024 0.984 . S
H1032 N1020 0.984 . S
H1033 N1020 0.985 . S
C1034 C1035 1.363 . S
C1034 C1040 1.379 . S
C1034 N1042 1.356 . S
C1035 C1034 1.363 . S
C1035 C1041 1.363 . S
C1036 C1037 1.363 . S
C1036 C1041 1.379 . S
C1036 N1043 1.356 . S
C1037 C1036 1.363 . S
C1037 C1040 1.363 . S
N1038 C1040 1.356 . S
N1038 H1050 0.984 . S
N1038 H1051 0.985 . S
N1039 C1041 1.356 . S
N1039 H1044 0.984 . S
N1039 H1045 0.985 . S
C1040 C1034 1.379 . S
C1040 C1037 1.363 . S
C1040 N1038 1.356 . S
C1041 C1035 1.363 . S
C1041 C1036 1.379 . S
C1041 N1039 1.356 . S
N1042 C1034 1.356 . S
N1042 H1048 0.984 . S
N1042 H1049 0.984 . S
N1043 C1036 1.356 . S
N1043 H1046 0.984 . S
N1043 H1047 0.985 . S
H1044 N1039 0.984 . S
H1045 N1039 0.985 . S
H1046 N1043 0.984 . S
H1047 N1043 0.985 . S
H1048 N1042 0.984 . S
H1049 N1042 0.984 . S
H1050 N1038 0.984 . S
H1051 N1038 0.985 . S
C1052 C1053 1.363 . S
C1052 C1058 1.379 . S
C1052 N1060 1.356 . S
C1053 C1052 1.363 . S
C1053 C1059 1.363 . S
C1054 C1055 1.363 . S
C1054 C1059 1.379 . S
C1054 N1061 1.356 . S
C1055 C1054 1.363 . S
C1055 C1058 1.363 . S
N1056 C1058 1.356 . S
N1056 H1068 0.984 . S
N1056 H1069 0.985 . S
N1057 C1059 1.356 . S
N1057 H1062 0.984 . S
N1057 H1063 0.985 . S
C1058 C1052 1.379 . S
C1058 C1055 1.363 . S
C1058 N1056 1.356 . S
C1059 C1053 1.363 . S
C1059 C1054 1.379 . S
C1059 N1057 1.356 . S
N1060 C1052 1.356 . S
N1060 H1066 0.984 . S
N1060 H1067 0.984 . S
N1061 C1054 1.356 . S
N1061 H1064 0.984 . S
N1061 H1065 0.985 . S
H1062 N1057 0.984 . S
H1063 N1057 0.985 . S
H1064 N1061 0.984 . S
H1065 N1061 0.985 . S
H1066 N1060 0.984 . S
H1067 N1060 0.984 . S
H1068 N1056 0.984 . S
H1069 N1056 0.985 . S
C1070 C1071 1.363 . S
C1070 C1076 1.379 . S
C1070 N1078 1.356 . S
C1071 C1070 1.363 . S
C1071 C1077 1.363 . S
C1072 C1073 1.363 . S
C1072 C1077 1.379 . S
C1072 N1079 1.356 . S
C1073 C1072 1.363 . S
C1073 C1076 1.363 . S
N1074 C1076 1.356 . S
N1074 H1086 0.984 . S
N1074 H1087 0.985 . S
N1075 C1077 1.356 . S
N1075 H1080 0.984 . S
N1075 H1081 0.985 . S
C1076 C1070 1.379 . S
C1076 C1073 1.363 . S
C1076 N1074 1.356 . S
C1077 C1071 1.363 . S
C1077 C1072 1.379 . S
C1077 N1075 1.356 . S
N1078 C1070 1.356 . S
N1078 H1084 0.984 . S
N1078 H1085 0.984 . S
N1079 C1072 1.356 . S
N1079 H1082 0.984 . S
N1079 H1083 0.985 . S
H1080 N1075 0.984 . S
H1081 N1075 0.985 . S
H1082 N1079 0.984 . S
H1083 N1079 0.985 . S
H1084 N1078 0.984 . S
H1085 N1078 0.984 . S
H1086 N1074 0.984 . S
H1087 N1074 0.985 . S
C1088 C1089 1.363 . S
C1088 C1094 1.379 1_565 S
C1088 N1096 1.356 . S
C1089 C1088 1.363 . S
C1089 C1095 1.363 1_565 S
C1090 C1091 1.363 . S
C1090 C1095 1.379 . S
C1090 N1097 1.356 . S
C1091 C1090 1.363 . S
C1091 C1094 1.363 . S
N1092 C1094 1.356 . S
N1092 H1104 0.984 . S
N1092 H1105 0.985 . S
N1093 C1095 1.356 1_565 S
N1093 H1098 0.984 . S
N1093 H1099 0.985 . S
C1094 C1088 1.379 1_545 S
C1094 C1091 1.363 . S
C1094 N1092 1.356 . S
C1095 C1089 1.363 1_545 S
C1095 C1090 1.379 . S
C1095 N1093 1.356 1_545 S
N1096 C1088 1.356 . S
N1096 H1102 0.984 . S
N1096 H1103 0.984 . S
N1097 C1090 1.356 . S
N1097 H1100 0.984 . S
N1097 H1101 0.985 . S
H1098 N1093 0.984 . S
H1099 N1093 0.985 . S
H1100 N1097 0.984 . S
H1101 N1097 0.985 . S
H1102 N1096 0.984 . S
H1103 N1096 0.984 . S
H1104 N1092 0.984 . S
H1105 N1092 0.985 . S
C1106 C1107 1.363 . S
C1106 C1112 1.379 1_565 S
C1106 N1114 1.356 . S
C1107 C1106 1.363 . S
C1107 C1113 1.363 . S
C1108 C1109 1.363 1_565 S
C1108 C1113 1.379 . S
C1108 N1115 1.356 1_565 S
C1109 C1108 1.363 1_545 S
C1109 C1112 1.363 . S
N1110 C1112 1.356 . S
N1110 H1122 0.984 . S
N1110 H1123 0.985 . S
N1111 C1113 1.356 . S
N1111 H1116 0.984 . S
N1111 H1117 0.985 . S
C1112 C1106 1.379 1_545 S
C1112 C1109 1.363 . S
C1112 N1110 1.356 . S
C1113 C1107 1.363 . S
C1113 C1108 1.379 . S
C1113 N1111 1.356 . S
N1114 C1106 1.356 . S
N1114 H1120 0.984 . S
N1114 H1121 0.984 . S
N1115 C1108 1.356 1_545 S
N1115 H1118 0.984 . S
N1115 H1119 0.985 . S
H1116 N1111 0.984 . S
H1117 N1111 0.985 . S
H1118 N1115 0.984 . S
H1119 N1115 0.985 . S
H1120 N1114 0.984 . S
H1121 N1114 0.984 . S
H1122 N1110 0.984 . S
H1123 N1110 0.985 . S
C1124 C1125 1.363 . S
C1124 C1130 1.379 1_545 S
C1124 N1132 1.356 . S
C1125 C1124 1.363 . S
C1125 C1131 1.363 1_545 S
C1126 C1127 1.363 . S
C1126 C1131 1.379 . S
C1126 N1133 1.356 . S
C1127 C1126 1.363 . S
C1127 C1130 1.363 . S
N1128 C1130 1.356 . S
N1128 H1140 0.984 . S
N1128 H1141 0.985 . S
N1129 C1131 1.356 1_545 S
N1129 H1134 0.984 . S
N1129 H1135 0.985 . S
C1130 C1124 1.379 1_565 S
C1130 C1127 1.363 . S
C1130 N1128 1.356 . S
C1131 C1125 1.363 1_565 S
C1131 C1126 1.379 . S
C1131 N1129 1.356 1_565 S
N1132 C1124 1.356 . S
N1132 H1138 0.984 . S
N1132 H1139 0.984 . S
N1133 C1126 1.356 . S
N1133 H1136 0.984 . S
N1133 H1137 0.985 . S
H1134 N1129 0.984 . S
H1135 N1129 0.985 . S
H1136 N1133 0.984 . S
H1137 N1133 0.985 . S
H1138 N1132 0.984 . S
H1139 N1132 0.984 . S
H1140 N1128 0.984 . S
H1141 N1128 0.985 . S
C1142 C1143 1.363 . S
C1142 C1148 1.379 1_565 S
C1142 N1150 1.356 . S
C1143 C1142 1.363 . S
C1143 C1149 1.363 1_565 S
C1144 C1145 1.363 . S
C1144 C1149 1.379 . S
C1144 N1151 1.356 . S
C1145 C1144 1.363 . S
C1145 C1148 1.363 . S
N1146 C1148 1.356 . S
N1146 H1158 0.984 . S
N1146 H1159 0.985 . S
N1147 C1149 1.356 1_565 S
N1147 H1152 0.984 . S
N1147 H1153 0.985 . S
C1148 C1142 1.379 1_545 S
C1148 C1145 1.363 . S
C1148 N1146 1.356 . S
C1149 C1143 1.363 1_545 S
C1149 C1144 1.379 . S
C1149 N1147 1.356 1_545 S
N1150 C1142 1.356 . S
N1150 H1156 0.984 . S
N1150 H1157 0.984 . S
N1151 C1144 1.356 . S
N1151 H1154 0.984 . S
N1151 H1155 0.985 . S
H1152 N1147 0.984 . S
H1153 N1147 0.985 . S
H1154 N1151 0.984 . S
H1155 N1151 0.985 . S
H1156 N1150 0.984 . S
H1157 N1150 0.984 . S
H1158 N1146 0.984 . S
H1159 N1146 0.985 . S
C1160 C1161 1.363 . S
C1160 C1166 1.379 1_565 S
C1160 N1168 1.356 . S
C1161 C1160 1.363 . S
C1161 C1167 1.363 . S
C1162 C1163 1.363 1_565 S
C1162 C1167 1.379 . S
C1162 N1169 1.356 1_565 S
C1163 C1162 1.363 1_545 S
C1163 C1166 1.363 . S
N1164 C1166 1.356 . S
N1164 H1176 0.984 . S
N1164 H1177 0.985 . S
N1165 C1167 1.356 . S
N1165 H1170 0.984 . S
N1165 H1171 0.985 . S
C1166 C1160 1.379 1_545 S
C1166 C1163 1.363 . S
C1166 N1164 1.356 . S
C1167 C1161 1.363 . S
C1167 C1162 1.379 . S
C1167 N1165 1.356 . S
N1168 C1160 1.356 . S
N1168 H1174 0.984 . S
N1168 H1175 0.984 . S
N1169 C1162 1.356 1_545 S
N1169 H1172 0.984 . S
N1169 H1173 0.985 . S
H1170 N1165 0.984 . S
H1171 N1165 0.985 . S
H1172 N1169 0.984 . S
H1173 N1169 0.985 . S
H1174 N1168 0.984 . S
H1175 N1168 0.984 . S
H1176 N1164 0.984 . S
H1177 N1164 0.985 . S
C1178 C1179 1.363 . S
C1178 C1184 1.379 . S
C1178 N1186 1.356 . S
C1179 C1178 1.363 . S
C1179 C1185 1.363 . S
C1180 C1181 1.363 . S
C1180 C1185 1.379 1_565 S
C1180 N1187 1.356 . S
C1181 C1180 1.363 . S
C1181 C1184 1.363 1_565 S
N1182 C1184 1.356 1_565 S
N1182 H1194 0.984 . S
N1182 H1195 0.985 . S
N1183 C1185 1.356 . S
N1183 H1188 0.984 . S
N1183 H1189 0.985 . S
C1184 C1178 1.379 . S
C1184 C1181 1.363 1_545 S
C1184 N1182 1.356 1_545 S
C1185 C1179 1.363 . S
C1185 C1180 1.379 1_545 S
C1185 N1183 1.356 . S
N1186 C1178 1.356 . S
N1186 H1192 0.984 . S
N1186 H1193 0.984 . S
N1187 C1180 1.356 . S
N1187 H1190 0.984 . S
N1187 H1191 0.985 . S
H1188 N1183 0.984 . S
H1189 N1183 0.985 . S
H1190 N1187 0.984 . S
H1191 N1187 0.985 . S
H1192 N1186 0.984 . S
H1193 N1186 0.984 . S
H1194 N1182 0.984 . S
H1195 N1182 0.985 . S
C1196 C1197 1.362 1_545 S
C1196 C1202 1.381 . S
C1196 N1204 1.355 1_545 S
C1197 C1196 1.362 1_565 S
C1197 C1203 1.363 . S
C1198 C1199 1.363 . S
C1198 C1203 1.379 1_545 S
C1198 N1205 1.356 . S
C1199 C1198 1.363 . S
C1199 C1202 1.363 . S
N1200 C1202 1.356 . S
N1200 H1212 0.984 . S
N1200 H1213 0.985 . S
N1201 C1203 1.356 . S
N1201 H1206 0.984 . S
N1201 H1207 0.985 . S
C1202 C1196 1.381 . S
C1202 C1199 1.363 . S
C1202 N1200 1.356 . S
C1203 C1197 1.363 . S
C1203 C1198 1.379 1_565 S
C1203 N1201 1.356 . S
N1204 C1196 1.355 1_565 S
N1204 H1210 0.984 . S
N1204 H1211 0.984 . S
N1205 C1198 1.356 . S
N1205 H1208 0.984 . S
N1205 H1209 0.985 . S
H1206 N1201 0.984 . S
H1207 N1201 0.985 . S
H1208 N1205 0.984 . S
H1209 N1205 0.985 . S
H1210 N1204 0.984 . S
H1211 N1204 0.984 . S
H1212 N1200 0.984 . S
H1213 N1200 0.985 . S
C1214 C1215 1.363 . S
C1214 C1220 1.379 1_565 S
C1214 N1222 1.356 . S
C1215 C1214 1.363 . S
C1215 C1221 1.363 . S
C1216 C1217 1.363 1_565 S
C1216 C1221 1.379 . S
C1216 N1223 1.356 1_565 S
C1217 C1216 1.363 1_545 S
C1217 C1220 1.363 . S
N1218 C1220 1.356 . S
N1218 H1230 0.984 . S
N1218 H1231 0.985 . S
N1219 C1221 1.356 . S
N1219 H1224 0.984 . S
N1219 H1225 0.985 . S
C1220 C1214 1.379 1_545 S
C1220 C1217 1.363 . S
C1220 N1218 1.356 . S
C1221 C1215 1.363 . S
C1221 C1216 1.379 . S
C1221 N1219 1.356 . S
N1222 C1214 1.356 . S
N1222 H1228 0.984 . S
N1222 H1229 0.984 . S
N1223 C1216 1.356 1_545 S
N1223 H1226 0.984 . S
N1223 H1227 0.985 . S
H1224 N1219 0.984 . S
H1225 N1219 0.985 . S
H1226 N1223 0.984 . S
H1227 N1223 0.985 . S
H1228 N1222 0.984 . S
H1229 N1222 0.984 . S
H1230 N1218 0.984 . S
H1231 N1218 0.985 . S
C369 C18 1.553 . S
C371 C225 1.553 . S
C387 C41 1.553 . S
C389 C202 1.553 . S
C405 C271 1.553 . S
C407 C64 1.553 . S
C423 C87 1.553 . S
C425 C248 1.553 . S
C441 C317 1.493 . S
C443 C110 1.493 . S
C459 C294 1.493 . S
C461 C133 1.493 . S
C477 C363 1.493 . S
C479 C156 1.493 . S
C495 C179 1.493 . S
C497 C340 1.493 . S
C513 C66 1.454 1_545 S
C515 C20 1.454 1_565 S
C531 C89 1.454 1_565 S
C533 C43 1.454 1_545 S
C549 C157 1.438 1_565 S
C551 C111 1.438 1_545 S
C567 C134 1.438 1_565 S
C569 C180 1.438 1_545 S
C585 C250 1.454 . S
C587 C204 1.454 . S
C603 C273 1.454 . S
C605 C227 1.454 . S
C621 C295 1.438 . S
C623 C341 1.438 . S
C639 C318 1.438 . S
C641 C364 1.438 . S
C657 C135 1.461 1_565 S
C659 C19 1.455 . S
C675 C112 1.461 1_545 S
C677 C42 1.455 . S
C693 C65 1.455 . S
C695 C181 1.461 1_545 S
C711 C158 1.461 1_565 S
C713 C88 1.455 . S
C729 C203 1.455 . S
C731 C319 1.461 . S
C747 C296 1.461 . S
C749 C226 1.455 . S
C765 C249 1.455 . S
C767 C365 1.461 . S
C783 C342 1.461 . S
C785 C272 1.455 . S
C801 C44 1.481 . S
C803 C21 1.481 . S
C819 C90 1.481 . S
C821 C67 1.481 . S
C837 C136 1.557 . S
C839 C113 1.557 . S
C855 C159 1.557 . S
C857 C182 1.557 . S
C873 C228 1.481 . S
C875 C205 1.481 . S
C891 C274 1.481 . S
C893 C251 1.481 . S
C909 C297 1.557 . S
C911 C320 1.557 . S
C927 C343 1.557 . S
C929 C366 1.557 . S
C945 C17 1.373 . S
C947 C16 1.369 . S
C963 C40 1.373 . S
C965 C39 1.369 . S
C981 C63 1.373 . S
C983 C62 1.369 . S
C999 C85 1.369 . S
C1001 C86 1.373 . S
C1017 C109 1.375 . S
C1019 C108 1.370 . S
C1035 C131 1.370 . S
C1037 C132 1.375 . S
C1053 C155 1.375 . S
C1055 C154 1.370 . S
C1071 C178 1.375 . S
C1073 C177 1.370 . S
C1089 C200 1.369 . S
C1091 C201 1.373 . S
C1107 C224 1.373 . S
C1109 C223 1.369 . S
C1125 C246 1.369 . S
C1127 C247 1.373 . S
C1143 C269 1.369 . S
C1145 C270 1.373 . S
C1161 C293 1.375 . S
C1163 C292 1.370 . S
C1179 C316 1.375 . S
C1181 C315 1.370 . S
C1197 C338 1.370 . S
C1199 C339 1.375 . S
C1215 C362 1.375 . S
C1217 C361 1.370 . S
