# Generated by pormake.
# Topology acs-f, (3)-cn, num edge types: 1
# Building blocks:
#     Node 0, Type 0, BuildingBlock: OLANEW_clean_sbu_2, # of connection points: 3
#     Node 1, Type 0, BuildingBlock: OLANEW_clean_sbu_2, # of connection points: 3
#     Node 2, Type 0, BuildingBlock: OLANEW_clean_sbu_2, # of connection points: 3
#     Node 3, Type 0, BuildingBlock: OLANEW_clean_sbu_2, # of connection points: 3
#     Node 4, Type 0, BuildingBlock: OLANEW_clean_sbu_2, # of connection points: 3
#     Node 5, Type 0, BuildingBlock: OLANEW_clean_sbu_2, # of connection points: 3
#     Node 6, Type 0, BuildingBlock: OLANEW_clean_sbu_2, # of connection points: 3
#     Node 7, Type 0, BuildingBlock: OLANEW_clean_sbu_2, # of connection points: 3
#     Node 8, Type 0, BuildingBlock: OLANEW_clean_sbu_2, # of connection points: 3
#     Node 9, Type 0, BuildingBlock: OLANEW_clean_sbu_2, # of connection points: 3
#     Node 10, Type 0, BuildingBlock: OLANEW_clean_sbu_2, # of connection points: 3
#     Node 11, Type 0, BuildingBlock: OLANEW_clean_sbu_2, # of connection points: 3
#     Edge 12, Type (0, 0), BuildingBlock: ZUJKAS_clean_linker_0, # of connection points: 2
#     Edge 13, Type (0, 0), BuildingBlock: ZUJKAS_clean_linker_0, # of connection points: 2
#     Edge 14, Type (0, 0), BuildingBlock: ZUJKAS_clean_linker_0, # of connection points: 2
#     Edge 15, Type (0, 0), BuildingBlock: ZUJKAS_clean_linker_0, # of connection points: 2
#     Edge 16, Type (0, 0), BuildingBlock: ZUJKAS_clean_linker_0, # of connection points: 2
#     Edge 17, Type (0, 0), BuildingBlock: ZUJKAS_clean_linker_0, # of connection points: 2
#     Edge 18, Type (0, 0), BuildingBlock: ZUJKAS_clean_linker_0, # of connection points: 2
#     Edge 19, Type (0, 0), BuildingBlock: ZUJKAS_clean_linker_0, # of connection points: 2
#     Edge 20, Type (0, 0), BuildingBlock: ZUJKAS_clean_linker_0, # of connection points: 2
#     Edge 21, Type (0, 0), BuildingBlock: ZUJKAS_clean_linker_0, # of connection points: 2
#     Edge 22, Type (0, 0), BuildingBlock: ZUJKAS_clean_linker_0, # of connection points: 2
#     Edge 23, Type (0, 0), BuildingBlock: ZUJKAS_clean_linker_0, # of connection points: 2
#     Edge 24, Type (0, 0), BuildingBlock: ZUJKAS_clean_linker_0, # of connection points: 2
#     Edge 25, Type (0, 0), BuildingBlock: ZUJKAS_clean_linker_0, # of connection points: 2
#     Edge 26, Type (0, 0), BuildingBlock: ZUJKAS_clean_linker_0, # of connection points: 2
#     Edge 27, Type (0, 0), BuildingBlock: ZUJKAS_clean_linker_0, # of connection points: 2
#     Edge 28, Type (0, 0), BuildingBlock: ZUJKAS_clean_linker_0, # of connection points: 2
#     Edge 29, Type (0, 0), BuildingBlock: ZUJKAS_clean_linker_0, # of connection points: 2
# Relax obj value: 0.074
# Max RMSD: 0.031
# Mean RMSD: 0.031
data_MOF--net-acs-f--node1-OLANEW_clean_sbu_2--edge1-ZUJKAS_clean_linker_0
_symmetry_space_group_name_H-M    P1
_symmetry_Int_Tables_number       1
_symmetry_cell_setting            triclinic
loop_
_symmetry_equiv_pos_as_xyz
'x, y, z'
_cell_length_a     46.435978
_cell_length_b     46.428417
_cell_length_c     64.899293
_cell_angle_alpha  90.012832
_cell_angle_beta   89.995056
_cell_angle_gamma 120.03853
loop_
_atom_site_label
_atom_site_type_symbol
_atom_site_fract_x
_atom_site_fract_y
_atom_site_fract_z
_atom_type_partial_charge
O0 O 0.93804 0.39746 0.14187 0.0
Cd1 Cd 0.93947 0.3697 0.11025 0.0
O2 O 0.98247 0.39628 0.15175 0.0
Cd3 Cd 0.02499 0.40702 0.17144 0.0
O4 O 0.06629 0.41171 0.19007 0.0
C5 C 0.06223 0.38682 0.20055 0.0
O6 O 0.03319 0.35931 0.20004 0.0
C7 C 0.96029 0.40406 0.15538 0.0
C8 C 0.94275 0.40567 0.07508 0.0
O9 O 0.91469 0.38323 0.08229 0.0
O10 O 0.96924 0.41114 0.08456 0.0
O11 O 0.60916 0.54344 0.13403 0.0
Cd12 Cd 0.6346 0.56835 0.10098 0.0
O13 O 0.60682 0.58841 0.14084 0.0
Cd14 Cd 0.59913 0.62221 0.16057 0.0
O15 O 0.59531 0.65957 0.1789 0.0
C16 C 0.59061 0.65622 0.19825 0.0
O17 O 0.58766 0.62954 0.20728 0.0
C18 C 0.60129 0.55975 0.14626 0.0
C19 C 0.59364 0.53532 0.06747 0.0
O20 O 0.61453 0.5272 0.07427 0.0
O21 O 0.59198 0.5589 0.07664 0.0
O22 O 0.46966 0.05629 0.1408 0.0
Cd23 Cd 0.44523 0.05713 0.10761 0.0
O24 O 0.422 0.01245 0.1487 0.0
Cd25 Cd 0.3856 0.97382 0.16912 0.0
O26 O 0.34714 0.93502 0.18836 0.0
C27 C 0.32366 0.93882 0.19531 0.0
O28 O 0.32331 0.96625 0.19086 0.0
C29 C 0.45178 0.03362 0.15362 0.0
C30 C 0.47707 0.04677 0.07439 0.0
O31 O 0.48591 0.07626 0.08062 0.0
O32 O 0.45332 0.02222 0.08396 0.0
O33 O 0.59093 0.05573 0.36595 0.0
Cd34 Cd 0.61487 0.0559 0.39952 0.0
O35 O 0.58903 0.00855 0.35936 0.0
Cd36 Cd 0.58203 0.96662 0.34025 0.0
O37 O 0.57708 0.92393 0.323 0.0
C38 C 0.60074 0.9273 0.31151 0.0
O39 O 0.62767 0.95671 0.31006 0.0
C40 C 0.58361 0.03167 0.35371 0.0
C41 C 0.57094 0.0436 0.43207 0.0
O42 O 0.59141 0.07342 0.42629 0.0
O43 O 0.57113 0.01965 0.42236 0.0
O44 O 0.92367 0.53397 0.35939 0.0
Cd45 Cd 0.92133 0.55596 0.39315 0.0
O46 O 0.96817 0.5815 0.35214 0.0
Cd47 Cd 0.0117 0.61632 0.33411 0.0
O48 O 0.05348 0.65378 0.31613 0.0
C49 C 0.05406 0.68063 0.31138 0.0
O50 O 0.02945 0.68493 0.31739 0.0
C51 C 0.94667 0.55203 0.34681 0.0
C52 C 0.94987 0.53545 0.42337 0.0
O53 O 0.91877 0.51817 0.41917 0.0
O54 O 0.96742 0.56251 0.41332 0.0
O55 O 0.48191 0.40777 0.35514 0.0
Cd56 Cd 0.46052 0.38217 0.38871 0.0
O57 O 0.43372 0.40352 0.3484 0.0
Cd58 Cd 0.39777 0.41111 0.33086 0.0
O59 O 0.3587 0.41403 0.31388 0.0
C60 C 0.3298 0.38851 0.31318 0.0
O61 O 0.32444 0.36125 0.32266 0.0
C62 C 0.46328 0.41233 0.34283 0.0
C63 C 0.47978 0.42997 0.41966 0.0
O64 O 0.49776 0.41711 0.41506 0.0
O65 O 0.45263 0.42013 0.40966 0.0
O66 O 0.99185 0.56988 0.82203 0.0
Cd67 Cd 0.96521 0.59281 0.84377 0.0
O68 O 0.0071 0.60856 0.79825 0.0
Cd69 Cd 0.97894 0.63019 0.81142 0.0
O70 O 0.94153 0.64542 0.80971 0.0
C71 C 0.91144 0.62498 0.81434 0.0
O72 O 0.90379 0.59554 0.82154 0.0
C73 C 0.00694 0.58292 0.80527 0.0
C74 C 0.95927 0.56847 0.88374 0.0
O75 O 0.93558 0.55373 0.87068 0.0
O76 O 0.98551 0.59507 0.87799 0.0
O77 O 0.41297 0.44111 0.81959 0.0
Cd78 Cd 0.38105 0.39186 0.84103 0.0
O79 O 0.42761 0.41492 0.7974 0.0
Cd80 Cd 0.39631 0.36491 0.80966 0.0
O81 O 0.369 0.31139 0.80394 0.0
C82 C 0.35247 0.30205 0.78726 0.0
O83 O 0.35141 0.32454 0.7755 0.0
C84 C 0.4292 0.44161 0.80369 0.0
C85 C 0.40847 0.40475 0.88052 0.0
O86 O 0.41779 0.39131 0.86677 0.0
O87 O 0.3857 0.41146 0.8757 0.0
O88 O 0.59558 0.94729 0.83473 0.0
Cd89 Cd 0.6433 0.97471 0.8579 0.0
O90 O 0.62493 0.96797 0.80644 0.0
Cd91 Cd 0.67316 0.99847 0.82118 0.0
O92 O 0.72332 0.04134 0.81887 0.0
C93 C 0.72733 0.07035 0.82096 0.0
O94 O 0.70162 0.07343 0.82608 0.0
C95 C 0.59708 0.94984 0.81521 0.0
C96 C 0.623 0.98922 0.89503 0.0
O97 O 0.63478 0.01071 0.88046 0.0
O98 O 0.62138 0.96114 0.89216 0.0
O99 O 0.35437 0.93434 0.67059 0.0
Cd100 Cd 0.32867 0.95702 0.64784 0.0
O101 O 0.31379 0.91224 0.69329 0.0
Cd102 Cd 0.28976 0.93867 0.68104 0.0
O103 O 0.28278 0.98052 0.68887 0.0
C104 C 0.28983 0.98981 0.70752 0.0
O105 O 0.29924 0.97337 0.71965 0.0
C106 C 0.34162 0.91699 0.68671 0.0
C107 C 0.36264 0.97409 0.61031 0.0
O108 O 0.37082 0.99556 0.62481 0.0
O109 O 0.33797 0.9448 0.61343 0.0
O110 O 0.12084 0.43825 0.64255 0.0
Cd111 Cd 0.12647 0.41297 0.61095 0.0
O112 O 0.08942 0.38901 0.65621 0.0
Cd113 Cd 0.05458 0.35414 0.67891 0.0
O114 O 0.01915 0.32013 0.70157 0.0
C115 C 0.00185 0.32895 0.71216 0.0
O116 O 0.0058 0.35873 0.70931 0.0
C117 C 0.10331 0.42053 0.65753 0.0
C118 C 0.09848 0.42948 0.57822 0.0
O119 O 0.08099 0.40313 0.58891 0.0
O120 O 0.12933 0.4477 0.58281 0.0
O121 O 0.57201 0.69787 0.64028 0.0
Cd122 Cd 0.5971 0.72742 0.60826 0.0
O123 O 0.62138 0.7148 0.65354 0.0
Cd124 Cd 0.65494 0.71297 0.67652 0.0
O125 O 0.68644 0.70726 0.6992 0.0
C126 C 0.67421 0.68256 0.71143 0.0
O127 O 0.64229 0.66068 0.71037 0.0
C128 C 0.58986 0.69807 0.65517 0.0
C129 C 0.58061 0.68178 0.57616 0.0
O130 O 0.60699 0.69111 0.58689 0.0
O131 O 0.56229 0.6944 0.58044 0.0
H132 H 0.33248 0.44061 0.29173 0.0
H133 H 0.28711 0.44185 0.2733 0.0
H134 H 0.22036 0.33979 0.29042 0.0
H135 H 0.26536 0.33836 0.30904 0.0
H136 H 0.24877 0.40115 0.24046 0.0
H137 H 0.16998 0.38728 0.30828 0.0
H138 H 0.21313 0.39858 0.31061 0.0
H139 H 0.18174 0.35594 0.30636 0.0
C140 C 0.30812 0.41846 0.29165 0.0
C141 C 0.30251 0.38943 0.30195 0.0
C142 C 0.28225 0.41922 0.28111 0.0
C143 C 0.25029 0.39108 0.28078 0.0
C144 C 0.24468 0.36199 0.29085 0.0
H145 H 0.06193 0.33755 0.22376 0.0
H146 H 0.10823 0.33968 0.24298 0.0
C147 C 0.2705 0.36118 0.30139 0.0
C148 C 0.223 0.39183 0.26942 0.0
H149 H 0.14562 0.38226 0.27531 0.0
C150 C 0.2263 0.39727 0.24807 0.0
C151 C 0.19374 0.38669 0.27943 0.0
C152 C 0.18944 0.38209 0.30246 0.0
C153 C 0.20071 0.39689 0.23634 0.0
C154 C 0.17134 0.39152 0.24633 0.0
C155 C 0.16816 0.38633 0.26771 0.0
C156 C 0.14337 0.39066 0.23482 0.0
C157 C 0.20494 0.40132 0.21329 0.0
C158 C 0.14768 0.41881 0.22412 0.0
C159 C 0.12128 0.41769 0.21308 0.0
C160 C 0.09002 0.38841 0.21265 0.0
C161 C 0.08568 0.36046 0.22371 0.0
C162 C 0.11209 0.36162 0.23472 0.0
H163 H 0.22502 0.39702 0.20754 0.0
H164 H 0.18145 0.38405 0.20519 0.0
H165 H 0.21163 0.42715 0.20925 0.0
H166 H 0.17145 0.44169 0.22435 0.0
H167 H 0.12541 0.43972 0.20484 0.0
H168 H 0.58201 0.65758 0.23992 0.0
H169 H 0.58085 0.70163 0.26003 0.0
H170 H 0.59567 0.75842 0.20451 0.0
H171 H 0.59649 0.71448 0.18427 0.0
H172 H 0.63071 0.76811 0.26348 0.0
H173 H 0.51526 0.75753 0.23112 0.0
H174 H 0.52617 0.72556 0.22779 0.0
H175 H 0.54514 0.76221 0.21192 0.0
C176 C 0.5848 0.67934 0.23196 0.0
C177 C 0.58923 0.68246 0.21047 0.0
C178 C 0.58416 0.70448 0.24348 0.0
C179 C 0.5877 0.73305 0.23372 0.0
C180 C 0.59221 0.73627 0.2123 0.0
H181 H 0.64693 0.92617 0.2859 0.0
H182 H 0.6432 0.87831 0.26771 0.0
C183 C 0.59286 0.71119 0.20077 0.0
C184 C 0.58792 0.76009 0.24598 0.0
H185 H 0.54922 0.80575 0.25134 0.0
C186 C 0.61278 0.77622 0.26093 0.0
C187 C 0.56425 0.77034 0.24279 0.0
C188 C 0.53599 0.75283 0.22768 0.0
C189 C 0.61513 0.80293 0.27242 0.0
C190 C 0.59231 0.81408 0.26862 0.0
C191 C 0.5669 0.79738 0.25406 0.0
C192 C 0.59443 0.84312 0.27954 0.0
C193 C 0.64186 0.81881 0.28865 0.0
C194 C 0.56787 0.83938 0.29178 0.0
C195 C 0.56982 0.86673 0.30211 0.0
C196 C 0.59834 0.89839 0.30029 0.0
C197 C 0.6247 0.90212 0.28775 0.0
C198 C 0.62271 0.87475 0.27743 0.0
H199 H 0.65128 0.80205 0.29345 0.0
H200 H 0.6631 0.84185 0.2823 0.0
H201 H 0.63248 0.82562 0.30249 0.0
H202 H 0.54574 0.81519 0.2935 0.0
H203 H 0.54903 0.863 0.31159 0.0
H204 H 0.06309 0.74102 0.29935 0.0
H205 H 0.10949 0.78428 0.27964 0.0
H206 H 0.15515 0.7232 0.27688 0.0
H207 H 0.10869 0.67959 0.2964 0.0
H208 H 0.17764 0.81807 0.28992 0.0
H209 H 0.15376 0.74852 0.21634 0.0
H210 H 0.12306 0.73568 0.23657 0.0
H211 H 0.15671 0.72721 0.23863 0.0
C212 C 0.08291 0.73668 0.29448 0.0
C213 C 0.08211 0.70678 0.29938 0.0
C214 C 0.10942 0.76146 0.28325 0.0
C215 C 0.1355 0.75674 0.27658 0.0
C216 C 0.13494 0.72706 0.28156 0.0
H217 H 0.3167 0.87901 0.20708 0.0
H218 H 0.27178 0.83536 0.22753 0.0
C219 C 0.10845 0.70225 0.29281 0.0
C220 C 0.16364 0.78325 0.26483 0.0
H221 H 0.20366 0.80047 0.21847 0.0
C222 C 0.18331 0.8143 0.27428 0.0
C223 C 0.17096 0.77816 0.24445 0.0
C224 C 0.14989 0.74571 0.23328 0.0
C225 C 0.21043 0.84033 0.26397 0.0
C226 C 0.21765 0.8353 0.24356 0.0
C227 C 0.19807 0.80421 0.23414 0.0
C228 C 0.24515 0.86213 0.23157 0.0
C229 C 0.23148 0.87277 0.27516 0.0
C230 C 0.24489 0.89151 0.22692 0.0
C231 C 0.27052 0.91651 0.21527 0.0
C232 C 0.29679 0.9125 0.20792 0.0
C233 C 0.29689 0.88294 0.21254 0.0
C234 C 0.27123 0.85795 0.2242 0.0
H235 H 0.22822 0.8697 0.29213 0.0
H236 H 0.25825 0.88332 0.27147 0.0
H237 H 0.22396 0.89096 0.27026 0.0
H238 H 0.22463 0.89494 0.23211 0.0
H239 H 0.26957 0.93887 0.2119 0.0
H240 H 0.65672 0.63089 0.73827 0.0
H241 H 0.69349 0.62157 0.76088 0.0
H242 H 0.77749 0.7134 0.73992 0.0
H243 H 0.74103 0.7231 0.71744 0.0
H244 H 0.74725 0.61526 0.74761 0.0
H245 H 0.78899 0.71998 0.80265 0.0
H246 H 0.75284 0.70633 0.78642 0.0
H247 H 0.79385 0.73261 0.77614 0.0
C248 C 0.68297 0.64931 0.73864 0.0
C249 C 0.69596 0.67773 0.72602 0.0
C250 C 0.70391 0.64394 0.75158 0.0
C251 C 0.73812 0.66702 0.75229 0.0
C252 C 0.75106 0.69563 0.73995 0.0
H253 H 0.91826 0.68072 0.79544 0.0
H254 H 0.87397 0.6899 0.78275 0.0
C255 C 0.73019 0.70099 0.72698 0.0
C256 C 0.76076 0.66004 0.76464 0.0
H257 H 0.82085 0.69238 0.80181 0.0
C258 C 0.76301 0.63182 0.75968 0.0
C259 C 0.78134 0.68179 0.78031 0.0
C260 C 0.77899 0.71172 0.78686 0.0
C261 C 0.7863 0.62549 0.76935 0.0
C262 C 0.80742 0.64764 0.78471 0.0
C263 C 0.8046 0.67543 0.79004 0.0
C264 C 0.83391 0.64338 0.79445 0.0
C265 C 0.78909 0.59596 0.76236 0.0
C266 C 0.82606 0.61468 0.80585 0.0
C267 C 0.85133 0.60925 0.81304 0.0
C268 C 0.88491 0.63257 0.80909 0.0
C269 C 0.89268 0.66216 0.79866 0.0
C270 C 0.86739 0.66749 0.79141 0.0
H271 H 0.77634 0.58588 0.7474 0.0
H272 H 0.81557 0.60276 0.76075 0.0
H273 H 0.77738 0.57587 0.77402 0.0
H274 H 0.80035 0.5961 0.80873 0.0
H275 H 0.84449 0.58636 0.82119 0.0
H276 H 0.31886 0.27555 0.75135 0.0
H277 H 0.29971 0.21981 0.73767 0.0
H278 H 0.33419 0.1943 0.79263 0.0
H279 H 0.35324 0.24993 0.80655 0.0
H280 H 0.34195 0.19437 0.73016 0.0
H281 H 0.241 0.11329 0.78414 0.0
H282 H 0.25645 0.15744 0.78202 0.0
H283 H 0.27915 0.14243 0.79662 0.0
C284 C 0.32192 0.25794 0.7607 0.0
C285 C 0.33769 0.26724 0.78003 0.0
C286 C 0.31095 0.2261 0.75283 0.0
C287 C 0.31524 0.20285 0.76421 0.0
C288 C 0.33007 0.21167 0.78376 0.0
H289 H 0.30669 0.01673 0.74597 0.0
H290 H 0.30971 0.06768 0.7585 0.0
C291 C 0.34112 0.24356 0.79164 0.0
C292 C 0.307 0.1705 0.75487 0.0
H293 H 0.2618 0.08649 0.76221 0.0
C294 C 0.3241 0.17073 0.73698 0.0
C295 C 0.28379 0.13979 0.76387 0.0
C296 C 0.26378 0.13807 0.78262 0.0
C297 C 0.31963 0.14109 0.7283 0.0
C298 C 0.29688 0.11035 0.73753 0.0
C299 C 0.27917 0.11009 0.75515 0.0
C300 C 0.29286 0.07842 0.72997 0.0
C301 C 0.34039 0.14305 0.70987 0.0
C302 C 0.28174 0.06717 0.70986 0.0
C303 C 0.28017 0.03804 0.70256 0.0
C304 C 0.28945 0.01958 0.71533 0.0
C305 C 0.29949 0.03039 0.73568 0.0
C306 C 0.30116 0.0595 0.74291 0.0
H307 H 0.36177 0.16857 0.70756 0.0
H308 H 0.35007 0.12562 0.71158 0.0
H309 H 0.32472 0.13596 0.69581 0.0
H310 H 0.2746 0.08109 0.69975 0.0
H311 H 0.27209 0.03023 0.68687 0.0
H312 H 0.9587 0.3388 0.7358 0.0
H313 H 0.91529 0.29884 0.75883 0.0
H314 H 0.94427 0.22615 0.74466 0.0
H315 H 0.98781 0.26587 0.72176 0.0
H316 H 0.86254 0.23674 0.74693 0.0
H317 H 0.93845 0.22275 0.80779 0.0
H318 H 0.95548 0.25718 0.7899 0.0
H319 H 0.94938 0.21734 0.78211 0.0
C320 C 0.95607 0.31442 0.73774 0.0
C321 C 0.9767 0.3055 0.72691 0.0
C322 C 0.93128 0.29165 0.75092 0.0
C323 C 0.9269 0.25972 0.75367 0.0
C324 C 0.9477 0.2509 0.7431 0.0
H325 H 0.78273 0.07211 0.80494 0.0
H326 H 0.83197 0.12028 0.79061 0.0
C327 C 0.97242 0.27358 0.72989 0.0
C328 C 0.89905 0.23475 0.76637 0.0
H329 H 0.88065 0.18175 0.80709 0.0
C330 C 0.86645 0.225 0.76026 0.0
C331 C 0.9043 0.21943 0.78367 0.0
C332 C 0.9388 0.22988 0.79141 0.0
C333 C 0.8389 0.19944 0.7705 0.0
C334 C 0.84413 0.1837 0.78761 0.0
C335 C 0.87674 0.1939 0.79399 0.0
C336 C 0.81601 0.15546 0.79835 0.0
C337 C 0.80448 0.18859 0.76239 0.0
C338 C 0.7913 0.1595 0.8081 0.0
C339 C 0.76303 0.13199 0.81623 0.0
C340 C 0.75912 0.09999 0.81488 0.0
C341 C 0.78486 0.09637 0.80614 0.0
C342 C 0.81305 0.12388 0.79796 0.0
H343 H 0.80516 0.19786 0.74651 0.0
H344 H 0.78888 0.16104 0.76233 0.0
H345 H 0.79233 0.19864 0.77251 0.0
H346 H 0.79347 0.18382 0.80896 0.0
H347 H 0.74383 0.13571 0.82303 0.0
H348 H 0.89183 0.39518 0.04929 0.0
H349 H 0.89527 0.42498 0.01747 0.0
H350 H 0.00078 0.48876 0.02666 0.0
H351 H 0.99772 0.45862 0.05823 0.0
H352 H 0.91554 0.4907 0.01064 0.0
H353 H 0.99709 0.45505 0.96857 0.0
H354 H 0.97653 0.43537 0.99235 0.0
H355 H 0.014 0.47531 0.99273 0.0
C356 C 0.91579 0.41552 0.04453 0.0
C357 C 0.94456 0.42436 0.05619 0.0
C358 C 0.9177 0.43254 0.02636 0.0
C359 C 0.94837 0.45869 0.01951 0.0
C360 C 0.97699 0.46812 0.03139 0.0
H361 H 0.00795 0.58964 0.91306 0.0
H362 H 0.00486 0.56444 0.94672 0.0
C363 C 0.97516 0.45098 0.04949 0.0
C364 C 0.95033 0.47613 -3e-05 0.0
H365 H 0.98709 0.49512 0.95253 0.0
C366 C 0.9311 0.49159 0.99791 0.0
C367 C 0.97062 0.47719 0.98337 0.0
C368 C 0.9905 0.45958 0.98423 0.0
C369 C 0.93192 0.50843 0.97975 0.0
C370 C 0.9523 0.50958 0.96324 0.0
C371 C 0.97164 0.49429 0.96531 0.0
C372 C 0.95341 0.52589 0.94345 0.0
C373 C 0.91133 0.52521 0.97841 0.0
C374 C 0.92547 0.51246 0.93052 0.0
C375 C 0.92717 0.52665 0.91124 0.0
C376 C 0.95687 0.55455 0.90459 0.0
C377 C 0.98467 0.56823 0.91775 0.0
C378 C 0.98299 0.55388 0.93697 0.0
H379 H 0.90265 0.52813 0.99382 0.0
H380 H 0.92578 0.55011 0.97113 0.0
H381 H 0.88913 0.50994 0.96869 0.0
H382 H 0.90255 0.49055 0.93516 0.0
H383 H 0.90534 0.51549 0.90146 0.0
H384 H 0.45509 0.39101 0.89597 0.0
H385 H 0.48371 0.40832 0.92917 0.0
H386 H 0.42756 0.45647 0.94437 0.0
H387 H 0.39835 0.4387 0.91144 0.0
H388 H 0.52318 0.4718 0.9425 0.0
H389 H 0.41783 0.40473 0.9966 0.0
H390 H 0.4146 0.39481 0.96949 0.0
H391 H 0.41099 0.42963 0.97828 0.0
C392 C 0.44851 0.40491 0.90649 0.0
C393 C 0.42438 0.41341 0.90109 0.0
C394 C 0.46491 0.4148 0.92545 0.0
C395 C 0.45745 0.43327 0.93938 0.0
C396 C 0.43316 0.44154 0.9341 0.0
H397 H 0.54507 0.54489 0.05066 0.0
H398 H 0.51185 0.51855 0.01982 0.0
C399 C 0.41663 0.43154 0.91519 0.0
C400 C 0.47661 0.4458 0.9588 0.0
H401 H 0.46865 0.44773 0.01104 0.0
C402 C 0.5113 0.46625 0.9575 0.0
C403 C 0.46104 0.43859 0.97835 0.0
C404 C 0.4241 0.41547 0.98084 0.0
C405 C 0.53074 0.48038 0.97517 0.0
C406 C 0.5151 0.47359 0.99466 0.0
C407 C 0.48049 0.45291 0.99603 0.0
C408 C 0.53431 0.48832 0.01377 0.0
C409 C 0.56776 0.50322 0.97283 0.0
C410 C 0.55751 0.47957 0.02072 0.0
C411 C 0.57649 0.49451 0.03834 0.0
C412 C 0.57258 0.51846 0.04932 0.0
C413 C 0.5488 0.52664 0.04251 0.0
C414 C 0.52975 0.51159 0.02493 0.0
H415 H 0.57491 0.51119 0.9566 0.0
H416 H 0.57646 0.5257 0.98261 0.0
H417 H 0.58089 0.49 0.97792 0.0
H418 H 0.56104 0.46132 0.01243 0.0
H419 H 0.59449 0.48755 0.04322 0.0
H420 H 0.52265 0.09338 0.04813 0.0
H421 H 0.54827 0.08385 0.0179 0.0
H422 H 0.49509 0.97842 0.0303 0.0
H423 H 0.46873 0.98762 0.06022 0.0
H424 H 0.58814 0.05661 0.0144 0.0
H425 H 0.47128 0.98093 0.97068 0.0
H426 H 0.47321 0.00436 0.99334 0.0
H427 H 0.47064 0.96453 0.99581 0.0
C428 C 0.51634 0.06815 0.0444 0.0
C429 C 0.49344 0.04122 0.05648 0.0
C430 C 0.53103 0.06276 0.02713 0.0
C431 C 0.52312 0.03037 0.02162 0.0
C432 C 0.5009 0.00353 0.03395 0.0
H433 H 0.58965 0.94611 0.92649 0.0
H434 H 0.56689 0.957 0.95763 0.0
C435 C 0.48602 0.00886 0.05113 0.0
C436 C 0.5384 0.02473 0.00311 0.0
H437 H 0.5199 0.98277 0.95736 0.0
C438 C 0.57324 0.04061 0.00188 0.0
C439 C 0.51889 0.00394 0.98674 0.0
C440 C 0.48145 0.98772 0.98656 0.0
C441 C 0.58906 0.03575 0.98489 0.0
C442 C 0.56952 0.0146 0.96873 0.0
C443 C 0.53474 0.9988 0.96989 0.0
C444 C 0.58466 0.00866 0.95035 0.0
C445 C 0.62652 0.05275 0.98446 0.0
C446 C 0.60211 0.03415 0.93599 0.0
C447 C 0.61499 0.02799 0.91812 0.0
C448 C 0.61068 0.99623 0.91436 0.0
C449 C 0.59351 0.97087 0.92895 0.0
C450 C 0.58044 0.97701 0.94673 0.0
H451 H 0.63768 0.06328 -0.00028 0.0
H452 H 0.63472 0.03506 0.97956 0.0
H453 H 0.63627 0.07338 0.9731 0.0
H454 H 0.60525 0.05865 0.93843 0.0
H455 H 0.62804 0.04803 0.90717 0.0
H456 H 0.41349 0.03484 0.59808 0.0
H457 H 0.44735 0.04773 0.56684 0.0
H458 H 0.3897 0.94535 0.54756 0.0
H459 H 0.35566 0.93218 0.57869 0.0
H460 H 0.462 0.97443 0.54789 0.0
H461 H 0.4205 0.05152 0.50565 0.0
H462 H 0.43188 0.06214 0.53223 0.0
H463 H 0.39603 0.02294 0.52587 0.0
C464 C 0.40778 0.01512 0.5871 0.0
C465 C 0.38186 0.98248 0.59086 0.0
C466 C 0.42707 0.02257 0.56923 0.0
C467 C 0.42079 0.99754 0.55485 0.0
C468 C 0.39479 0.96503 0.55845 0.0
H469 H 0.52076 0.98344 0.44544 0.0
H470 H 0.48408 0.97247 0.475 0.0
C471 C 0.37536 0.95758 0.57623 0.0
C472 C 0.44247 0.00481 0.5366 0.0
H473 H 0.46535 0.04784 0.49127 0.0
C474 C 0.46269 0.99037 0.53545 0.0
C475 C 0.44344 0.02584 0.52056 0.0
C476 C 0.42168 0.0414 0.52094 0.0
C477 C 0.48424 0.99672 0.51875 0.0
C478 C 0.48488 0.01736 0.50249 0.0
C479 C 0.46474 0.03194 0.50371 0.0
C480 C 0.50632 0.02412 0.4841 0.0
C481 C 0.5067 0.9819 0.51894 0.0
C482 C 0.5302 0.05691 0.47893 0.0
C483 C 0.55095 0.06331 0.46187 0.0
C484 C 0.54818 0.037 0.44967 0.0
C485 C 0.52377 0.00424 0.45465 0.0
C486 C 0.5029 0.9979 0.47161 0.0
H487 H 0.51014 0.97508 0.53479 0.0
H488 H 0.49533 0.95892 0.50947 0.0
H489 H 0.53152 0.99948 0.5124 0.0
H490 H 0.53312 0.07754 0.48829 0.0
H491 H 0.56945 0.08884 0.45843 0.0
H492 H 0.03362 0.39681 0.56545 0.0
H493 H 0.00829 0.41399 0.53866 0.0
H494 H 0.10348 0.5008 0.52625 0.0
H495 H 0.12899 0.48405 0.55317 0.0
H496 H 0.05157 0.51447 0.53108 0.0
H497 H 0.01703 0.41069 0.47596 0.0
H498 H 0.00228 0.39781 0.50179 0.0
H499 H 0.04623 0.41967 0.49671 0.0
C500 C 0.04924 0.41942 0.55692 0.0
C501 C 0.08335 0.43902 0.56141 0.0
C502 C 0.03474 0.42911 0.54154 0.0
C503 C 0.05411 0.45842 0.53029 0.0
C504 C 0.08815 0.47799 0.53469 0.0
H505 H 0.01506 0.56629 0.43535 0.0
H506 H 0.04018 0.54775 0.46145 0.0
C507 C 0.10267 0.46835 0.55006 0.0
C508 C 0.03864 0.46943 0.51449 0.0
H509 H 0.99631 0.44714 0.46889 0.0
C510 C 0.03962 0.49986 0.51742 0.0
C511 C 0.02297 0.4502 0.49676 0.0
C512 C 0.02224 0.41791 0.49245 0.0
C513 C 0.02491 0.51139 0.50323 0.0
C514 C 0.00933 0.49223 0.48546 0.0
C515 C 0.00827 0.46175 0.48254 0.0
C516 C 0.99412 0.50345 0.46963 0.0
C517 C 0.02555 0.54364 0.50759 0.0
C518 C 0.96003 0.48429 0.46525 0.0
C519 C 0.94561 0.49472 0.45026 0.0
C520 C 0.96509 0.52443 0.43929 0.0
C521 C 0.99932 0.5434 0.4436 0.0
C522 C 0.0137 0.53294 0.45859 0.0
H523 H 0.03057 0.55071 0.52411 0.0
H524 H 0.0456 0.56384 0.49836 0.0
H525 H 0.00159 0.54189 0.50325 0.0
H526 H 0.94454 0.46136 0.47354 0.0
H527 H 0.9192 0.47948 0.44727 0.0
H528 H 0.53565 0.4556 0.44367 0.0
H529 H 0.5527 0.49803 0.47056 0.0
H530 H 0.46495 0.5051 0.4592 0.0
H531 H 0.44746 0.46243 0.43248 0.0
H532 H 0.56546 0.56347 0.46678 0.0
H533 H 0.46223 0.49123 0.52165 0.0
H534 H 0.47156 0.47202 0.50047 0.0
H535 H 0.44888 0.49345 0.49603 0.0
C536 C 0.51987 0.46605 0.44696 0.0
C537 C 0.49011 0.45553 0.436 0.0
C538 C 0.52969 0.49031 0.46231 0.0
C539 C 0.50985 0.50433 0.46706 0.0
C540 C 0.48027 0.49409 0.45606 0.0
H541 H 0.52584 0.65647 0.55121 0.0
H542 H 0.50976 0.61413 0.52437 0.0
C543 C 0.47042 0.46983 0.44071 0.0
C544 C 0.52055 0.53033 0.48316 0.0
H545 H 0.49736 0.54863 0.52903 0.0
C546 C 0.5507 0.5602 0.48045 0.0
C547 C 0.50118 0.52594 0.50096 0.0
C548 C 0.46931 0.49383 0.50511 0.0
C549 C 0.56169 0.58613 0.49488 0.0
C550 C 0.54224 0.5818 0.51262 0.0
C551 C 0.51216 0.55189 0.51537 0.0
C552 C 0.55261 0.60801 0.52855 0.0
C553 C 0.59363 0.61821 0.49078 0.0
C554 C 0.58193 0.61841 0.53988 0.0
C555 C 0.59123 0.64264 0.55521 0.0
C556 C 0.57125 0.65675 0.55957 0.0
C557 C 0.54185 0.64619 0.5482 0.0
C558 C 0.53258 0.62197 0.53289 0.0
H559 H 0.60109 0.6206 0.47433 0.0
H560 H 0.5912 0.64003 0.49512 0.0
H561 H 0.61386 0.61878 0.50019 0.0
H562 H 0.59741 0.60749 0.53705 0.0
H563 H 0.61391 0.65007 0.56376 0.0
H564 H 0.96967 0.58492 0.31002 0.0
H565 H 0.97313 0.56139 0.27698 0.0
H566 H 0.92879 0.46394 0.30454 0.0
H567 H 0.92622 0.48746 0.3378 0.0
H568 H 0.00621 0.52288 0.26838 0.0
H569 H 0.87017 0.45349 0.25306 0.0
H570 H 0.88911 0.48717 0.27144 0.0
H571 H 0.88251 0.44674 0.27803 0.0
C572 C 0.96154 0.55869 0.30921 0.0
C573 C 0.94854 0.5382 0.32665 0.0
C574 C 0.96308 0.5452 0.29025 0.0
C575 C 0.95111 0.51096 0.28836 0.0
C576 C 0.93787 0.4904 0.30568 0.0
H577 H 0.98109 0.39744 0.19374 0.0
H578 H 0.98075 0.42557 0.22551 0.0
C579 C 0.93646 0.50387 0.32464 0.0
C580 C 0.95266 0.49667 0.2683 0.0
H581 H 0.90415 0.44284 0.23066 0.0
C582 C 0.98394 0.50548 0.26006 0.0
C583 C 0.92354 0.47426 0.25745 0.0
C584 C 0.88938 0.46498 0.2653 0.0
C585 C 0.98685 0.49183 0.2414 0.0
C586 C 0.95769 0.46866 0.23086 0.0
C587 C 0.92643 0.46044 0.23888 0.0
C588 C 0.95907 0.45259 0.21149 0.0
C589 C 0.02103 0.50244 0.23301 0.0
C590 C 0.94647 0.45805 0.19318 0.0
C591 C 0.94709 0.44236 0.17494 0.0
C592 C 0.9603 0.42094 0.1747 0.0
C593 C 0.9723 0.41504 0.19317 0.0
C594 C 0.97179 0.43083 0.21139 0.0
H595 H 0.04047 0.52574 0.24037 0.0
H596 H 0.02714 0.48259 0.23607 0.0
H597 H 0.02184 0.50629 0.21609 0.0
H598 H 0.93626 0.47453 0.193 0.0
H599 H 0.93738 0.44714 0.16098 0.0
H600 H 0.42945 0.40153 0.30636 0.0
H601 H 0.45186 0.4282 0.27315 0.0
H602 H 0.54988 0.4832 0.29984 0.0
H603 H 0.52727 0.45782 0.33339 0.0
H604 H 0.53486 0.52227 0.27509 0.0
H605 H 0.50725 0.40553 0.23507 0.0
H606 H 0.47154 0.40421 0.24671 0.0
H607 H 0.50492 0.4081 0.26271 0.0
C608 C 0.45556 0.41999 0.30533 0.0
C609 C 0.47644 0.4282 0.32262 0.0
C610 C 0.46847 0.43472 0.28622 0.0
C611 C 0.50259 0.45745 0.28398 0.0
C612 C 0.52347 0.46572 0.30123 0.0
H613 H 0.61446 0.5197 0.17016 0.0
H614 H 0.59079 0.49614 0.20389 0.0
C615 C 0.51056 0.45111 0.32035 0.0
C616 C 0.51667 0.47256 0.26368 0.0
H617 H 0.52685 0.45379 0.21433 0.0
C618 C 0.53316 0.50734 0.26179 0.0
C619 C 0.51478 0.45302 0.24645 0.0
C620 C 0.49896 0.41567 0.24781 0.0
C621 C 0.54763 0.52313 0.24307 0.0
C622 C 0.54496 0.50352 0.22569 0.0
C623 C 0.52864 0.46876 0.22763 0.0
C624 C 0.55963 0.51851 0.20545 0.0
C625 C 0.56629 0.56067 0.24223 0.0
C626 C 0.54967 0.53856 0.195 0.0
C627 C 0.56331 0.55219 0.17579 0.0
C628 C 0.587 0.54582 0.16665 0.0
C629 C 0.59641 0.52519 0.17693 0.0
C630 C 0.58293 0.51175 0.19618 0.0
H631 H 0.57382 0.57181 0.25784 0.0
H632 H 0.5889 0.57016 0.23249 0.0
H633 H 0.54994 0.56926 0.23547 0.0
H634 H 0.53095 0.54325 0.20155 0.0
H635 H 0.55459 0.56687 0.16786 0.0
H636 H 0.49716 0.0863 0.17614 0.0
H637 H 0.51983 0.08524 0.21006 0.0
H638 H 0.46001 0.97819 0.21102 0.0
H639 H 0.43817 0.97904 0.17686 0.0
H640 H 0.48393 0.05867 0.24721 0.0
H641 H 0.55427 0.9961 0.22407 0.0
H642 H 0.53931 0.01468 0.20563 0.0
H643 H 0.51124 0.97471 0.21659 0.0
C644 C 0.48895 0.06255 0.18357 0.0
C645 C 0.46535 0.03278 0.17406 0.0
C646 C 0.50183 0.06199 0.20294 0.0
C647 C 0.49172 0.03164 0.21297 0.0
C648 C 0.46834 0.00186 0.20345 0.0
H649 H 0.53885 0.97777 0.33122 0.0
H650 H 0.51661 0.97789 0.29705 0.0
C651 C 0.4554 0.00242 0.1841 0.0
C652 C 0.50516 0.03123 0.2336 0.0
H653 H 0.55069 0.00397 0.25987 0.0
C654 C 0.49864 0.04684 0.24999 0.0
C655 C 0.52423 0.01566 0.23714 0.0
C656 C 0.53298 0.99956 0.21992 0.0
C657 C 0.51028 0.04689 0.26996 0.0
C658 C 0.52949 0.03146 0.27349 0.0
C659 C 0.53593 0.01576 0.2571 0.0
C660 C 0.54333 0.0315 0.29407 0.0
C661 C 0.50132 0.06285 0.28717 0.0
C662 C 0.566 0.06158 0.3036 0.0
C663 C 0.57899 0.06154 0.32302 0.0
C664 C 0.56993 0.03139 0.3331 0.0
C665 C 0.54724 0.00131 0.32352 0.0
C666 C 0.53421 0.00136 0.30411 0.0
H667 H 0.4795 0.06548 0.28313 0.0
H668 H 0.49572 0.04814 0.30159 0.0
H669 H 0.52267 0.0881 0.29017 0.0
H670 H 0.57383 0.0851 0.29596 0.0
H671 H 0.59644 0.0851 0.33004 0.0
H672 H 0.01166 0.52812 0.81552 0.0
H673 H 0.03429 0.50033 0.79446 0.0
H674 H 0.05947 0.57388 0.7468 0.0
H675 H 0.0376 0.60211 0.7678 0.0
H676 H 0.01193 0.4724 0.75685 0.0
H677 H 0.14426 0.56995 0.75079 0.0
H678 H 0.11658 0.57167 0.76966 0.0
H679 H 0.11707 0.58525 0.7436 0.0
C680 C 0.02247 0.53867 0.80069 0.0
C681 C 0.02284 0.56738 0.79336 0.0
C682 C 0.03538 0.52274 0.78868 0.0
C683 C 0.04903 0.53531 0.7692 0.0
C684 C 0.04985 0.5642 0.762 0.0
H685 H 0.10138 0.47795 0.6576 0.0
H686 H 0.08978 0.50416 0.68663 0.0
C687 C 0.03707 0.58019 0.77399 0.0
C688 C 0.05997 0.51692 0.75563 0.0
H689 H 0.12407 0.52689 0.72497 0.0
C690 C 0.03663 0.48408 0.75014 0.0
C691 C 0.09226 0.53216 0.74698 0.0
C692 C 0.11907 0.56658 0.75323 0.0
C693 C 0.04411 0.46672 0.73536 0.0
C694 C 0.07588 0.48258 0.726 0.0
C695 C 0.09965 0.51491 0.73208 0.0
C696 C 0.08413 0.46695 0.70885 0.0
C697 C 0.01751 0.43213 0.72922 0.0
C698 C 0.08546 0.4377 0.71185 0.0
C699 C 0.0922 0.42272 0.69526 0.0
C700 C 0.09749 0.43665 0.67543 0.0
C701 C 0.09717 0.4665 0.67267 0.0
C702 C 0.09053 0.48149 0.68922 0.0
H703 H 0.99253 0.42606 0.73492 0.0
H704 H 0.01639 0.42925 0.71221 0.0
H705 H 0.02358 0.41378 0.73586 0.0
H706 H 0.08139 0.42656 0.727 0.0
H707 H 0.09383 0.40062 0.69807 0.0
H708 H 0.53338 0.6379 0.65602 0.0
H709 H 0.50822 0.60124 0.68567 0.0
H710 H 0.58461 0.67425 0.72519 0.0
H711 H 0.60976 0.7112 0.69552 0.0
H712 H 0.57564 0.61149 0.73055 0.0
H713 H 0.45444 0.60706 0.73324 0.0
H714 H 0.4632 0.5973 0.70809 0.0
H715 H 0.48941 0.63815 0.71871 0.0
C716 C 0.54459 0.64628 0.67107 0.0
C717 C 0.57391 0.67707 0.67341 0.0
C718 C 0.53012 0.6254 0.68801 0.0
C719 C 0.54436 0.63517 0.70766 0.0
C720 C 0.57327 0.66624 0.71013 0.0
H721 H 0.43667 0.50315 0.8114 0.0
H722 H 0.46796 0.55392 0.79091 0.0
C723 C 0.58782 0.68713 0.69315 0.0
C724 C 0.53006 0.61196 0.72528 0.0
H725 H 0.45706 0.56245 0.75043 0.0
C726 C 0.54985 0.60113 0.73514 0.0
C727 C 0.49662 0.59894 0.73151 0.0
C728 C 0.47479 0.61123 0.72248 0.0
C729 C 0.53652 0.57618 0.75024 0.0
C730 C 0.50239 0.56134 0.75532 0.0
C731 C 0.48313 0.57356 0.74634 0.0
C732 C 0.48556 0.53153 0.76867 0.0
C733 C 0.55901 0.56563 0.76039 0.0
C734 C 0.48498 0.50214 0.76288 0.0
C735 C 0.46718 0.47318 0.77449 0.0
C736 C 0.44933 0.47292 0.79207 0.0
C737 C 0.45019 0.50251 0.79797 0.0
C738 C 0.46805 0.53154 0.7863 0.0
H739 H 0.5854 0.58595 0.76002 0.0
H740 H 0.55166 0.55812 0.77665 0.0
H741 H 0.55732 0.54408 0.75192 0.0
H742 H 0.49762 0.50134 0.74905 0.0
H743 H 0.46698 0.45085 0.76944 0.0
H744 H 0.59158 0.95296 0.77348 0.0
H745 H 0.54076 0.93268 0.75332 0.0
H746 H 0.48189 0.88964 0.80801 0.0
H747 H 0.53277 0.91044 0.8285 0.0
H748 H 0.48429 0.86967 0.74655 0.0
H749 H 0.45324 0.95539 0.7884 0.0
H750 H 0.49339 0.95843 0.79055 0.0
H751 H 0.45819 0.92624 0.80405 0.0
C752 C 0.56788 0.93889 0.78125 0.0
C753 C 0.56627 0.93378 0.80268 0.0
C754 C 0.53882 0.9272 0.76966 0.0
C755 C 0.5076 0.91016 0.77923 0.0
C756 C 0.50579 0.90329 0.8004 0.0
H757 H 0.32456 0.8841 0.72369 0.0
H758 H 0.36036 0.87372 0.74645 0.0
C759 C 0.53489 0.9151 0.81207 0.0
C760 C 0.4774 0.90208 0.76718 0.0
H761 H 0.41853 0.92483 0.76108 0.0
C762 C 0.46959 0.88136 0.74985 0.0
C763 C 0.45828 0.91736 0.77155 0.0
C764 C 0.46621 0.94081 0.78954 0.0
C765 C 0.44371 0.87624 0.73644 0.0
C766 C 0.42557 0.89268 0.74034 0.0
C767 C 0.43241 0.91216 0.75817 0.0
C768 C 0.40184 0.89307 0.72524 0.0
C769 C 0.43634 0.85368 0.71809 0.0
C770 C 0.41306 0.90678 0.7056 0.0
C771 C 0.3927 0.91277 0.69256 0.0
C772 C 0.36081 0.90544 0.69899 0.0
C773 C 0.349 0.8901 0.71826 0.0
C774 C 0.36941 0.88412 0.73129 0.0
H775 H 0.44392 0.83482 0.72098 0.0
H776 H 0.40947 0.84067 0.71411 0.0
H777 H 0.45066 0.86878 0.70462 0.0
H778 H 0.43824 0.91457 0.70077 0.0
H779 H 0.40262 0.92461 0.67784 0.0
loop_
_geom_bond_atom_site_label_1
_geom_bond_atom_site_label_2
_geom_bond_distance
_geom_bond_site_symmetry_2
_ccdc_geom_bond_type
O0 Cd1 2.300 1_655 S
O0 C7 1.275 . S
Cd1 O0 2.300 1_455 S
Cd1 O9 2.381 1_455 S
Cd1 O10 2.378 . S
O2 Cd3 2.385 . S
O2 C7 1.255 1_455 S
Cd3 O2 2.385 . S
Cd3 O4 2.317 . S
O4 Cd3 2.317 . S
O4 C5 1.232 . S
C5 O4 1.232 . S
C5 O6 1.218 . S
O6 C5 1.218 . S
C7 O0 1.275 . S
C7 O2 1.255 1_655 S
C8 O9 1.258 . S
C8 O10 1.256 1_655 S
O9 Cd1 2.381 1_655 S
O9 C8 1.258 . S
O10 Cd1 2.378 . S
O10 C8 1.256 1_455 S
O11 Cd12 2.300 . S
O11 C18 1.275 . S
Cd12 O11 2.300 . S
Cd12 O20 2.381 . S
Cd12 O21 2.378 . S
O13 Cd14 2.385 . S
O13 C18 1.255 . S
Cd14 O13 2.385 . S
Cd14 O15 2.317 . S
O15 Cd14 2.317 . S
O15 C16 1.232 . S
C16 O15 1.232 . S
C16 O17 1.218 . S
O17 C16 1.218 . S
C18 O11 1.275 . S
C18 O13 1.255 . S
C19 O20 1.258 . S
C19 O21 1.256 . S
O20 Cd12 2.381 . S
O20 C19 1.258 . S
O21 Cd12 2.378 . S
O21 C19 1.256 . S
O22 Cd23 2.300 1_545 S
O22 C29 1.275 . S
Cd23 O22 2.300 1_565 S
Cd23 O31 2.381 1_565 S
Cd23 O32 2.378 . S
O24 Cd25 2.385 . S
O24 C29 1.255 1_565 S
Cd25 O24 2.385 . S
Cd25 O26 2.317 . S
O26 Cd25 2.317 . S
O26 C27 1.232 . S
C27 O26 1.232 . S
C27 O28 1.218 . S
O28 C27 1.218 . S
C29 O22 1.275 . S
C29 O24 1.255 1_545 S
C30 O31 1.258 . S
C30 O32 1.256 1_545 S
O31 Cd23 2.381 1_545 S
O31 C30 1.258 . S
O32 Cd23 2.378 . S
O32 C30 1.256 1_565 S
O33 Cd34 2.300 1_545 S
O33 C40 1.275 . S
Cd34 O33 2.300 1_565 S
Cd34 O42 2.381 1_565 S
Cd34 O43 2.378 . S
O35 Cd36 2.385 . S
O35 C40 1.255 1_565 S
Cd36 O35 2.385 . S
Cd36 O37 2.317 . S
O37 Cd36 2.317 . S
O37 C38 1.232 . S
C38 O37 1.232 . S
C38 O39 1.218 . S
O39 C38 1.218 . S
C40 O33 1.275 . S
C40 O35 1.255 1_545 S
C41 O42 1.258 . S
C41 O43 1.256 1_545 S
O42 Cd34 2.381 1_545 S
O42 C41 1.258 . S
O43 Cd34 2.378 . S
O43 C41 1.256 1_565 S
O44 Cd45 2.300 1_655 S
O44 C51 1.275 . S
Cd45 O44 2.300 1_455 S
Cd45 O53 2.381 1_455 S
Cd45 O54 2.378 . S
O46 Cd47 2.385 . S
O46 C51 1.255 1_455 S
Cd47 O46 2.385 . S
Cd47 O48 2.317 . S
O48 Cd47 2.317 . S
O48 C49 1.232 . S
C49 O48 1.232 . S
C49 O50 1.218 . S
O50 C49 1.218 . S
C51 O44 1.275 . S
C51 O46 1.255 1_655 S
C52 O53 1.258 . S
C52 O54 1.256 1_655 S
O53 Cd45 2.381 1_655 S
O53 C52 1.258 . S
O54 Cd45 2.378 . S
O54 C52 1.256 1_455 S
O55 Cd56 2.300 . S
O55 C62 1.275 . S
Cd56 O55 2.300 . S
Cd56 O64 2.381 . S
Cd56 O65 2.378 . S
O57 Cd58 2.385 . S
O57 C62 1.255 . S
Cd58 O57 2.385 . S
Cd58 O59 2.317 . S
O59 Cd58 2.317 . S
O59 C60 1.232 . S
C60 O59 1.232 . S
C60 O61 1.218 . S
O61 C60 1.218 . S
C62 O55 1.275 . S
C62 O57 1.255 . S
C63 O64 1.258 . S
C63 O65 1.256 . S
O64 Cd56 2.381 . S
O64 C63 1.258 . S
O65 Cd56 2.378 . S
O65 C63 1.256 . S
O66 Cd67 2.300 . S
O66 C73 1.275 . S
Cd67 O66 2.300 . S
Cd67 O75 2.381 . S
Cd67 O76 2.378 . S
O68 Cd69 2.385 . S
O68 C73 1.255 . S
Cd69 O68 2.385 . S
Cd69 O70 2.317 1_455 S
O70 Cd69 2.317 1_655 S
O70 C71 1.232 . S
C71 O70 1.232 . S
C71 O72 1.218 . S
O72 C71 1.218 . S
C73 O66 1.275 . S
C73 O68 1.255 . S
C74 O75 1.258 . S
C74 O76 1.256 . S
O75 Cd67 2.381 . S
O75 C74 1.258 . S
O76 Cd67 2.378 . S
O76 C74 1.256 . S
O77 Cd78 2.300 . S
O77 C84 1.275 . S
Cd78 O77 2.300 . S
Cd78 O86 2.381 . S
Cd78 O87 2.378 . S
O79 Cd80 2.385 . S
O79 C84 1.255 . S
Cd80 O79 2.385 . S
Cd80 O81 2.317 . S
O81 Cd80 2.317 . S
O81 C82 1.232 . S
C82 O81 1.232 . S
C82 O83 1.218 . S
O83 C82 1.218 . S
C84 O77 1.275 . S
C84 O79 1.255 . S
C85 O86 1.258 . S
C85 O87 1.256 . S
O86 Cd78 2.381 . S
O86 C85 1.258 . S
O87 Cd78 2.378 . S
O87 C85 1.256 . S
O88 Cd89 2.300 . S
O88 C95 1.275 . S
Cd89 O88 2.300 . S
Cd89 O97 2.381 . S
Cd89 O98 2.378 . S
O90 Cd91 2.385 . S
O90 C95 1.255 . S
Cd91 O90 2.385 . S
Cd91 O92 2.317 1_565 S
O92 Cd91 2.317 1_545 S
O92 C93 1.232 . S
C93 O92 1.232 . S
C93 O94 1.218 . S
O94 C93 1.218 . S
C95 O88 1.275 . S
C95 O90 1.255 . S
C96 O97 1.258 . S
C96 O98 1.256 . S
O97 Cd89 2.381 . S
O97 C96 1.258 . S
O98 Cd89 2.378 . S
O98 C96 1.256 . S
O99 Cd100 2.300 . S
O99 C106 1.275 . S
Cd100 O99 2.300 . S
Cd100 O108 2.381 . S
Cd100 O109 2.378 . S
O101 Cd102 2.385 . S
O101 C106 1.255 . S
Cd102 O101 2.385 . S
Cd102 O103 2.317 1_565 S
O103 Cd102 2.317 1_545 S
O103 C104 1.232 . S
C104 O103 1.232 . S
C104 O105 1.218 . S
O105 C104 1.218 . S
C106 O99 1.275 . S
C106 O101 1.255 . S
C107 O108 1.258 . S
C107 O109 1.256 . S
O108 Cd100 2.381 . S
O108 C107 1.258 . S
O109 Cd100 2.378 . S
O109 C107 1.256 . S
O110 Cd111 2.300 . S
O110 C117 1.275 . S
Cd111 O110 2.300 . S
Cd111 O119 2.381 . S
Cd111 O120 2.378 . S
O112 Cd113 2.385 . S
O112 C117 1.255 . S
Cd113 O112 2.385 . S
Cd113 O114 2.317 1_455 S
O114 Cd113 2.317 1_655 S
O114 C115 1.232 . S
C115 O114 1.232 . S
C115 O116 1.218 . S
O116 C115 1.218 . S
C117 O110 1.275 . S
C117 O112 1.255 . S
C118 O119 1.258 . S
C118 O120 1.256 . S
O119 Cd111 2.381 . S
O119 C118 1.258 . S
O120 Cd111 2.378 . S
O120 C118 1.256 . S
O121 Cd122 2.300 . S
O121 C128 1.275 . S
Cd122 O121 2.300 . S
Cd122 O130 2.381 . S
Cd122 O131 2.378 . S
O123 Cd124 2.385 . S
O123 C128 1.255 . S
Cd124 O123 2.385 . S
Cd124 O125 2.317 . S
O125 Cd124 2.317 . S
O125 C126 1.232 . S
C126 O125 1.232 . S
C126 O127 1.218 . S
O127 C126 1.218 . S
C128 O121 1.275 . S
C128 O123 1.255 . S
C129 O130 1.258 . S
C129 O131 1.256 . S
O130 Cd122 2.381 . S
O130 C129 1.258 . S
O131 Cd122 2.378 . S
O131 C129 1.256 . S
H132 C140 0.929 . S
H133 C142 0.930 . S
H134 C144 0.930 . S
H135 C147 0.929 . S
H136 C150 0.930 . S
H137 C152 0.960 . S
H138 C152 0.960 . S
H139 C152 0.960 . S
C140 H132 0.929 . S
C140 C141 1.377 . S
C140 C142 1.384 . S
C141 C140 1.377 . S
C141 C147 1.390 . S
C142 H133 0.930 . S
C142 C140 1.384 . S
C142 C143 1.372 . S
C143 C142 1.372 . S
C143 C144 1.400 . S
C143 C148 1.490 . S
C144 H134 0.930 . S
C144 C143 1.400 . S
C144 C147 1.386 . S
H145 C161 0.930 . S
H146 C162 0.931 . S
C147 H135 0.929 . S
C147 C141 1.390 . S
C147 C144 1.386 . S
C148 C143 1.490 . S
C148 C150 1.395 . S
C148 C151 1.403 . S
H149 C155 0.930 . S
C150 H136 0.930 . S
C150 C148 1.395 . S
C150 C153 1.403 . S
C151 C148 1.403 . S
C151 C152 1.524 . S
C151 C155 1.400 . S
C152 H137 0.960 . S
C152 H138 0.960 . S
C152 H139 0.960 . S
C152 C151 1.524 . S
C153 C150 1.403 . S
C153 C154 1.392 . S
C153 C157 1.495 . S
C154 C153 1.392 . S
C154 C155 1.385 . S
C154 C156 1.478 . S
C155 H149 0.930 . S
C155 C151 1.400 . S
C155 C154 1.385 . S
C156 C154 1.478 . S
C156 C158 1.381 . S
C156 C162 1.383 . S
C157 C153 1.495 . S
C157 H163 0.959 . S
C157 H164 0.961 . S
C157 H165 0.960 . S
C158 C156 1.381 . S
C158 C159 1.394 . S
C158 H166 0.930 . S
C159 C158 1.394 . S
C159 C160 1.383 . S
C159 H167 0.929 . S
C160 C159 1.383 . S
C160 C161 1.377 . S
C161 H145 0.930 . S
C161 C160 1.377 . S
C161 C162 1.379 . S
C162 H146 0.931 . S
C162 C156 1.383 . S
C162 C161 1.379 . S
H163 C157 0.959 . S
H164 C157 0.961 . S
H165 C157 0.960 . S
H166 C158 0.930 . S
H167 C159 0.929 . S
H168 C176 0.929 . S
H169 C178 0.930 . S
H170 C180 0.930 . S
H171 C183 0.929 . S
H172 C186 0.930 . S
H173 C188 0.960 . S
H174 C188 0.960 . S
H175 C188 0.960 . S
C176 H168 0.929 . S
C176 C177 1.377 . S
C176 C178 1.384 . S
C177 C176 1.377 . S
C177 C183 1.390 . S
C178 H169 0.930 . S
C178 C176 1.384 . S
C178 C179 1.372 . S
C179 C178 1.372 . S
C179 C180 1.400 . S
C179 C184 1.490 . S
C180 H170 0.930 . S
C180 C179 1.400 . S
C180 C183 1.386 . S
H181 C197 0.930 . S
H182 C198 0.931 . S
C183 H171 0.929 . S
C183 C177 1.390 . S
C183 C180 1.386 . S
C184 C179 1.490 . S
C184 C186 1.395 . S
C184 C187 1.403 . S
H185 C191 0.930 . S
C186 H172 0.930 . S
C186 C184 1.395 . S
C186 C189 1.403 . S
C187 C184 1.403 . S
C187 C188 1.524 . S
C187 C191 1.400 . S
C188 H173 0.960 . S
C188 H174 0.960 . S
C188 H175 0.960 . S
C188 C187 1.524 . S
C189 C186 1.403 . S
C189 C190 1.392 . S
C189 C193 1.495 . S
C190 C189 1.392 . S
C190 C191 1.385 . S
C190 C192 1.478 . S
C191 H185 0.930 . S
C191 C187 1.400 . S
C191 C190 1.385 . S
C192 C190 1.478 . S
C192 C194 1.381 . S
C192 C198 1.383 . S
C193 C189 1.495 . S
C193 H199 0.959 . S
C193 H200 0.961 . S
C193 H201 0.960 . S
C194 C192 1.381 . S
C194 C195 1.394 . S
C194 H202 0.930 . S
C195 C194 1.394 . S
C195 C196 1.383 . S
C195 H203 0.929 . S
C196 C195 1.383 . S
C196 C197 1.377 . S
C197 H181 0.930 . S
C197 C196 1.377 . S
C197 C198 1.379 . S
C198 H182 0.931 . S
C198 C192 1.383 . S
C198 C197 1.379 . S
H199 C193 0.959 . S
H200 C193 0.961 . S
H201 C193 0.960 . S
H202 C194 0.930 . S
H203 C195 0.929 . S
H204 C212 0.929 . S
H205 C214 0.930 . S
H206 C216 0.930 . S
H207 C219 0.929 . S
H208 C222 0.930 . S
H209 C224 0.960 . S
H210 C224 0.960 . S
H211 C224 0.960 . S
C212 H204 0.929 . S
C212 C213 1.377 . S
C212 C214 1.384 . S
C213 C212 1.377 . S
C213 C219 1.390 . S
C214 H205 0.930 . S
C214 C212 1.384 . S
C214 C215 1.372 . S
C215 C214 1.372 . S
C215 C216 1.400 . S
C215 C220 1.490 . S
C216 H206 0.930 . S
C216 C215 1.400 . S
C216 C219 1.386 . S
H217 C233 0.930 . S
H218 C234 0.931 . S
C219 H207 0.929 . S
C219 C213 1.390 . S
C219 C216 1.386 . S
C220 C215 1.490 . S
C220 C222 1.395 . S
C220 C223 1.403 . S
H221 C227 0.930 . S
C222 H208 0.930 . S
C222 C220 1.395 . S
C222 C225 1.403 . S
C223 C220 1.403 . S
C223 C224 1.524 . S
C223 C227 1.400 . S
C224 H209 0.960 . S
C224 H210 0.960 . S
C224 H211 0.960 . S
C224 C223 1.524 . S
C225 C222 1.403 . S
C225 C226 1.392 . S
C225 C229 1.495 . S
C226 C225 1.392 . S
C226 C227 1.385 . S
C226 C228 1.478 . S
C227 H221 0.930 . S
C227 C223 1.400 . S
C227 C226 1.385 . S
C228 C226 1.478 . S
C228 C230 1.381 . S
C228 C234 1.383 . S
C229 C225 1.495 . S
C229 H235 0.959 . S
C229 H236 0.961 . S
C229 H237 0.960 . S
C230 C228 1.381 . S
C230 C231 1.394 . S
C230 H238 0.930 . S
C231 C230 1.394 . S
C231 C232 1.383 . S
C231 H239 0.929 . S
C232 C231 1.383 . S
C232 C233 1.377 . S
C233 H217 0.930 . S
C233 C232 1.377 . S
C233 C234 1.379 . S
C234 H218 0.931 . S
C234 C228 1.383 . S
C234 C233 1.379 . S
H235 C229 0.959 . S
H236 C229 0.961 . S
H237 C229 0.960 . S
H238 C230 0.930 . S
H239 C231 0.929 . S
H240 C248 0.929 . S
H241 C250 0.930 . S
H242 C252 0.930 . S
H243 C255 0.929 . S
H244 C258 0.930 . S
H245 C260 0.960 . S
H246 C260 0.960 . S
H247 C260 0.960 . S
C248 H240 0.929 . S
C248 C249 1.377 . S
C248 C250 1.384 . S
C249 C248 1.377 . S
C249 C255 1.390 . S
C250 H241 0.930 . S
C250 C248 1.384 . S
C250 C251 1.372 . S
C251 C250 1.372 . S
C251 C252 1.400 . S
C251 C256 1.490 . S
C252 H242 0.930 . S
C252 C251 1.400 . S
C252 C255 1.386 . S
H253 C269 0.930 . S
H254 C270 0.931 . S
C255 H243 0.929 . S
C255 C249 1.390 . S
C255 C252 1.386 . S
C256 C251 1.490 . S
C256 C258 1.395 . S
C256 C259 1.403 . S
H257 C263 0.930 . S
C258 H244 0.930 . S
C258 C256 1.395 . S
C258 C261 1.403 . S
C259 C256 1.403 . S
C259 C260 1.524 . S
C259 C263 1.400 . S
C260 H245 0.960 . S
C260 H246 0.960 . S
C260 H247 0.960 . S
C260 C259 1.524 . S
C261 C258 1.403 . S
C261 C262 1.392 . S
C261 C265 1.495 . S
C262 C261 1.392 . S
C262 C263 1.385 . S
C262 C264 1.478 . S
C263 H257 0.930 . S
C263 C259 1.400 . S
C263 C262 1.385 . S
C264 C262 1.478 . S
C264 C266 1.381 . S
C264 C270 1.383 . S
C265 C261 1.495 . S
C265 H271 0.959 . S
C265 H272 0.961 . S
C265 H273 0.960 . S
C266 C264 1.381 . S
C266 C267 1.394 . S
C266 H274 0.930 . S
C267 C266 1.394 . S
C267 C268 1.383 . S
C267 H275 0.929 . S
C268 C267 1.383 . S
C268 C269 1.377 . S
C269 H253 0.930 . S
C269 C268 1.377 . S
C269 C270 1.379 . S
C270 H254 0.931 . S
C270 C264 1.383 . S
C270 C269 1.379 . S
H271 C265 0.959 . S
H272 C265 0.961 . S
H273 C265 0.960 . S
H274 C266 0.930 . S
H275 C267 0.929 . S
H276 C284 0.929 . S
H277 C286 0.930 . S
H278 C288 0.930 . S
H279 C291 0.929 . S
H280 C294 0.930 . S
H281 C296 0.960 . S
H282 C296 0.960 . S
H283 C296 0.960 . S
C284 H276 0.929 . S
C284 C285 1.377 . S
C284 C286 1.384 . S
C285 C284 1.377 . S
C285 C291 1.390 . S
C286 H277 0.930 . S
C286 C284 1.384 . S
C286 C287 1.372 . S
C287 C286 1.372 . S
C287 C288 1.400 . S
C287 C292 1.490 . S
C288 H278 0.930 . S
C288 C287 1.400 . S
C288 C291 1.386 . S
H289 C305 0.930 . S
H290 C306 0.931 . S
C291 H279 0.929 . S
C291 C285 1.390 . S
C291 C288 1.386 . S
C292 C287 1.490 . S
C292 C294 1.395 . S
C292 C295 1.403 . S
H293 C299 0.930 . S
C294 H280 0.930 . S
C294 C292 1.395 . S
C294 C297 1.403 . S
C295 C292 1.403 . S
C295 C296 1.524 . S
C295 C299 1.400 . S
C296 H281 0.960 . S
C296 H282 0.960 . S
C296 H283 0.960 . S
C296 C295 1.524 . S
C297 C294 1.403 . S
C297 C298 1.392 . S
C297 C301 1.495 . S
C298 C297 1.392 . S
C298 C299 1.385 . S
C298 C300 1.478 . S
C299 H293 0.930 . S
C299 C295 1.400 . S
C299 C298 1.385 . S
C300 C298 1.478 . S
C300 C302 1.381 . S
C300 C306 1.383 . S
C301 C297 1.495 . S
C301 H307 0.959 . S
C301 H308 0.961 . S
C301 H309 0.960 . S
C302 C300 1.381 . S
C302 C303 1.394 . S
C302 H310 0.930 . S
C303 C302 1.394 . S
C303 C304 1.383 . S
C303 H311 0.929 . S
C304 C303 1.383 . S
C304 C305 1.377 . S
C305 H289 0.930 . S
C305 C304 1.377 . S
C305 C306 1.379 . S
C306 H290 0.931 . S
C306 C300 1.383 . S
C306 C305 1.379 . S
H307 C301 0.959 . S
H308 C301 0.961 . S
H309 C301 0.960 . S
H310 C302 0.930 . S
H311 C303 0.929 . S
H312 C320 0.929 . S
H313 C322 0.930 . S
H314 C324 0.930 . S
H315 C327 0.929 . S
H316 C330 0.930 . S
H317 C332 0.960 . S
H318 C332 0.960 . S
H319 C332 0.960 . S
C320 H312 0.929 . S
C320 C321 1.377 . S
C320 C322 1.384 . S
C321 C320 1.377 . S
C321 C327 1.390 . S
C322 H313 0.930 . S
C322 C320 1.384 . S
C322 C323 1.372 . S
C323 C322 1.372 . S
C323 C324 1.400 . S
C323 C328 1.490 . S
C324 H314 0.930 . S
C324 C323 1.400 . S
C324 C327 1.386 . S
H325 C341 0.930 . S
H326 C342 0.931 . S
C327 H315 0.929 . S
C327 C321 1.390 . S
C327 C324 1.386 . S
C328 C323 1.490 . S
C328 C330 1.395 . S
C328 C331 1.403 . S
H329 C335 0.930 . S
C330 H316 0.930 . S
C330 C328 1.395 . S
C330 C333 1.403 . S
C331 C328 1.403 . S
C331 C332 1.524 . S
C331 C335 1.400 . S
C332 H317 0.960 . S
C332 H318 0.960 . S
C332 H319 0.960 . S
C332 C331 1.524 . S
C333 C330 1.403 . S
C333 C334 1.392 . S
C333 C337 1.495 . S
C334 C333 1.392 . S
C334 C335 1.385 . S
C334 C336 1.478 . S
C335 H329 0.930 . S
C335 C331 1.400 . S
C335 C334 1.385 . S
C336 C334 1.478 . S
C336 C338 1.381 . S
C336 C342 1.383 . S
C337 C333 1.495 . S
C337 H343 0.959 . S
C337 H344 0.961 . S
C337 H345 0.960 . S
C338 C336 1.381 . S
C338 C339 1.394 . S
C338 H346 0.930 . S
C339 C338 1.394 . S
C339 C340 1.383 . S
C339 H347 0.929 . S
C340 C339 1.383 . S
C340 C341 1.377 . S
C341 H325 0.930 . S
C341 C340 1.377 . S
C341 C342 1.379 . S
C342 H326 0.931 . S
C342 C336 1.383 . S
C342 C341 1.379 . S
H343 C337 0.959 . S
H344 C337 0.961 . S
H345 C337 0.960 . S
H346 C338 0.930 . S
H347 C339 0.929 . S
H348 C356 0.929 . S
H349 C358 0.930 . S
H350 C360 0.935 1_455 S
H351 C363 0.929 1_455 S
H352 C366 0.930 . S
H353 C368 0.960 . S
H354 C368 0.960 . S
H355 C368 0.960 . S
C356 H348 0.929 . S
C356 C357 1.377 . S
C356 C358 1.384 . S
C357 C356 1.377 . S
C357 C363 1.390 . S
C358 H349 0.930 . S
C358 C356 1.384 . S
C358 C359 1.372 . S
C359 C358 1.372 . S
C359 C360 1.399 . S
C359 C364 1.490 . S
C360 H350 0.935 1_655 S
C360 C359 1.399 . S
C360 C363 1.381 . S
H361 C377 0.930 . S
H362 C378 0.931 . S
C363 H351 0.929 1_655 S
C363 C357 1.390 . S
C363 C360 1.381 . S
C364 C359 1.490 . S
C364 C366 1.395 . S
C364 C367 1.403 1_655 S
H365 C371 0.930 . S
C366 H352 0.930 . S
C366 C364 1.395 . S
C366 C369 1.403 1_554 S
C367 C364 1.403 1_455 S
C367 C368 1.524 . S
C367 C371 1.400 1_554 S
C368 H353 0.960 . S
C368 H354 0.960 . S
C368 H355 0.960 . S
C368 C367 1.524 . S
C369 C366 1.403 1_556 S
C369 C370 1.392 . S
C369 C373 1.495 . S
C370 C369 1.392 . S
C370 C371 1.385 1_655 S
C370 C372 1.479 1_655 S
C371 H365 0.930 . S
C371 C367 1.400 1_556 S
C371 C370 1.385 1_455 S
C372 C370 1.479 1_455 S
C372 C374 1.382 1_455 S
C372 C378 1.381 . S
C373 C369 1.495 . S
C373 H379 0.959 . S
C373 H380 0.961 . S
C373 H381 0.960 . S
C374 C372 1.382 1_655 S
C374 C375 1.394 1_655 S
C374 H382 0.930 . S
C375 C374 1.394 1_455 S
C375 C376 1.383 . S
C375 H383 0.929 . S
C376 C375 1.383 . S
C376 C377 1.377 . S
C377 H361 0.930 . S
C377 C376 1.377 . S
C377 C378 1.379 . S
C378 H362 0.931 . S
C378 C372 1.381 . S
C378 C377 1.379 . S
H379 C373 0.959 . S
H380 C373 0.961 . S
H381 C373 0.960 . S
H382 C374 0.930 . S
H383 C375 0.929 . S
H384 C392 0.929 . S
H385 C394 0.930 . S
H386 C396 0.930 . S
H387 C399 0.929 . S
H388 C402 0.930 . S
H389 C404 0.960 . S
H390 C404 0.976 . S
H391 C404 0.960 . S
C392 H384 0.929 . S
C392 C393 1.377 . S
C392 C394 1.384 . S
C393 C392 1.377 . S
C393 C399 1.390 . S
C394 H385 0.930 . S
C394 C392 1.384 . S
C394 C395 1.372 . S
C395 C394 1.372 . S
C395 C396 1.400 . S
C395 C400 1.490 . S
C396 H386 0.930 . S
C396 C395 1.400 . S
C396 C399 1.386 . S
H397 C413 0.930 . S
H398 C414 0.931 . S
C399 H387 0.929 . S
C399 C393 1.390 . S
C399 C396 1.386 . S
C400 C395 1.490 . S
C400 C402 1.395 . S
C400 C403 1.403 1_556 S
H401 C407 0.930 . S
C402 H388 0.930 . S
C402 C400 1.395 . S
C402 C405 1.403 . S
C403 C400 1.403 1_554 S
C403 C404 1.524 . S
C403 C407 1.400 . S
C404 H389 0.960 . S
C404 H390 0.976 . S
C404 H391 0.960 . S
C404 C403 1.524 . S
C405 C402 1.403 . S
C405 C406 1.392 1_556 S
C405 C409 1.495 . S
C406 C405 1.392 1_554 S
C406 C407 1.385 . S
C406 C408 1.478 . S
C407 H401 0.930 . S
C407 C403 1.400 . S
C407 C406 1.385 . S
C408 C406 1.478 . S
C408 C410 1.381 . S
C408 C414 1.383 . S
C409 C405 1.495 . S
C409 H415 0.959 . S
C409 H416 0.961 . S
C409 H417 0.960 . S
C410 C408 1.381 . S
C410 C411 1.394 . S
C410 H418 0.930 . S
C411 C410 1.394 . S
C411 C412 1.383 . S
C411 H419 0.929 . S
C412 C411 1.383 . S
C412 C413 1.377 . S
C413 H397 0.930 . S
C413 C412 1.377 . S
C413 C414 1.379 . S
C414 H398 0.931 . S
C414 C408 1.383 . S
C414 C413 1.379 . S
H415 C409 0.959 . S
H416 C409 0.961 . S
H417 C409 0.960 . S
H418 C410 0.930 . S
H419 C411 0.929 . S
H420 C428 0.929 . S
H421 C430 0.930 . S
H422 C432 0.930 . S
H423 C435 0.929 . S
H424 C438 0.930 . S
H425 C440 0.960 . S
H426 C440 0.960 1_545 S
H427 C440 0.965 . S
C428 H420 0.929 . S
C428 C429 1.377 . S
C428 C430 1.384 . S
C429 C428 1.377 . S
C429 C435 1.390 1_545 S
C430 H421 0.930 . S
C430 C428 1.384 . S
C430 C431 1.372 . S
C431 C430 1.372 . S
C431 C432 1.400 1_545 S
C431 C436 1.490 . S
C432 H422 0.930 . S
C432 C431 1.400 1_565 S
C432 C435 1.386 . S
H433 C449 0.930 . S
H434 C450 0.931 . S
C435 H423 0.929 . S
C435 C429 1.390 1_565 S
C435 C432 1.386 . S
C436 C431 1.490 . S
C436 C438 1.395 . S
C436 C439 1.404 1_544 S
H437 C443 0.930 . S
C438 H424 0.930 . S
C438 C436 1.395 . S
C438 C441 1.403 . S
C439 C436 1.404 1_566 S
C439 C440 1.509 . S
C439 C443 1.414 . S
C440 H425 0.960 . S
C440 H426 0.960 1_565 S
C440 H427 0.965 . S
C440 C439 1.509 . S
C441 C438 1.403 . S
C441 C442 1.392 1_544 S
C441 C445 1.495 . S
C442 C441 1.392 1_566 S
C442 C443 1.385 . S
C442 C444 1.478 . S
C443 H437 0.930 . S
C443 C439 1.414 . S
C443 C442 1.385 . S
C444 C442 1.478 . S
C444 C446 1.381 1_565 S
C444 C450 1.383 . S
C445 C441 1.495 . S
C445 H451 0.959 . S
C445 H452 0.961 1_545 S
C445 H453 0.960 . S
C446 C444 1.381 1_545 S
C446 C447 1.394 . S
C446 H454 0.930 . S
C447 C446 1.394 . S
C447 C448 1.383 1_545 S
C447 H455 0.929 . S
C448 C447 1.383 1_565 S
C448 C449 1.377 . S
C449 H433 0.930 . S
C449 C448 1.377 . S
C449 C450 1.379 . S
C450 H434 0.931 . S
C450 C444 1.383 . S
C450 C449 1.379 . S
H451 C445 0.959 . S
H452 C445 0.961 1_565 S
H453 C445 0.960 . S
H454 C446 0.930 . S
H455 C447 0.929 . S
H456 C464 0.929 1_545 S
H457 C466 0.930 . S
H458 C468 0.930 . S
H459 C471 0.929 . S
H460 C474 0.930 . S
H461 C476 0.960 . S
H462 C476 0.960 . S
H463 C476 0.960 . S
C464 H456 0.929 1_565 S
C464 C465 1.377 . S
C464 C466 1.384 1_565 S
C465 C464 1.377 . S
C465 C471 1.390 . S
C466 H457 0.930 . S
C466 C464 1.384 1_545 S
C466 C467 1.372 1_545 S
C467 C466 1.372 1_565 S
C467 C468 1.400 . S
C467 C472 1.490 . S
C468 H458 0.930 . S
C468 C467 1.400 . S
C468 C471 1.386 . S
H469 C485 0.930 . S
H470 C486 0.931 . S
C471 H459 0.929 . S
C471 C465 1.390 . S
C471 C468 1.386 . S
C472 C467 1.490 . S
C472 C474 1.395 . S
C472 C475 1.403 1_565 S
H473 C479 0.930 . S
C474 H460 0.930 . S
C474 C472 1.395 . S
C474 C477 1.403 . S
C475 C472 1.403 1_545 S
C475 C476 1.524 . S
C475 C479 1.400 . S
C476 H461 0.960 . S
C476 H462 0.960 . S
C476 H463 0.960 . S
C476 C475 1.524 . S
C477 C474 1.403 . S
C477 C478 1.404 . S
C477 C481 1.495 . S
C478 C477 1.404 . S
C478 C479 1.369 1_565 S
C478 C480 1.482 1_565 S
C479 H473 0.930 . S
C479 C475 1.400 . S
C479 C478 1.369 1_545 S
C480 C478 1.482 1_545 S
C480 C482 1.381 . S
C480 C486 1.383 1_545 S
C481 C477 1.495 . S
C481 H487 0.959 . S
C481 H488 0.961 . S
C481 H489 0.960 . S
C482 C480 1.381 . S
C482 C483 1.394 . S
C482 H490 0.930 . S
C483 C482 1.394 . S
C483 C484 1.383 . S
C483 H491 0.929 . S
C484 C483 1.383 . S
C484 C485 1.377 1_545 S
C485 H469 0.930 . S
C485 C484 1.377 1_565 S
C485 C486 1.379 . S
C486 H470 0.931 . S
C486 C480 1.383 1_565 S
C486 C485 1.379 . S
H487 C481 0.959 . S
H488 C481 0.961 . S
H489 C481 0.960 . S
H490 C482 0.930 . S
H491 C483 0.929 . S
H492 C500 0.929 . S
H493 C502 0.930 . S
H494 C504 0.930 . S
H495 C507 0.929 . S
H496 C510 0.930 . S
H497 C512 0.960 . S
H498 C512 0.960 . S
H499 C512 0.960 . S
C500 H492 0.929 . S
C500 C501 1.377 1_655 S
C500 C502 1.384 . S
C501 C500 1.377 1_455 S
C501 C507 1.390 . S
C502 H493 0.930 . S
C502 C500 1.384 . S
C502 C503 1.372 1_655 S
C503 C502 1.372 1_455 S
C503 C504 1.400 . S
C503 C508 1.490 . S
C504 H494 0.930 . S
C504 C503 1.400 . S
C504 C507 1.386 . S
H505 C521 0.930 . S
H506 C522 0.931 . S
C507 H495 0.929 . S
C507 C501 1.390 . S
C507 C504 1.386 . S
C508 C503 1.490 . S
C508 C510 1.395 . S
C508 C511 1.403 1_455 S
H509 C515 0.930 . S
C510 H496 0.930 . S
C510 C508 1.395 . S
C510 C513 1.403 . S
C511 C508 1.403 1_655 S
C511 C512 1.524 . S
C511 C515 1.400 . S
C512 H497 0.960 . S
C512 H498 0.960 . S
C512 H499 0.960 . S
C512 C511 1.524 . S
C513 C510 1.403 . S
C513 C514 1.383 1_455 S
C513 C517 1.495 . S
C514 C513 1.383 1_655 S
C514 C515 1.381 . S
C514 C516 1.491 . S
C515 H509 0.930 . S
C515 C511 1.400 . S
C515 C514 1.381 . S
C516 C514 1.491 . S
C516 C518 1.381 . S
C516 C522 1.383 1_655 S
C517 C513 1.495 . S
C517 H523 0.959 . S
C517 H524 0.961 . S
C517 H525 0.960 . S
C518 C516 1.381 . S
C518 C519 1.394 . S
C518 H526 0.930 . S
C519 C518 1.394 . S
C519 C520 1.383 . S
C519 H527 0.929 . S
C520 C519 1.383 . S
C520 C521 1.377 1_655 S
C521 H505 0.930 . S
C521 C520 1.377 1_455 S
C521 C522 1.379 . S
C522 H506 0.931 . S
C522 C516 1.383 1_455 S
C522 C521 1.379 . S
H523 C517 0.959 . S
H524 C517 0.961 . S
H525 C517 0.960 . S
H526 C518 0.930 . S
H527 C519 0.929 . S
H528 C536 0.929 . S
H529 C538 0.930 . S
H530 C540 0.930 . S
H531 C543 0.929 . S
H532 C546 0.930 . S
H533 C548 0.960 . S
H534 C548 0.960 . S
H535 C548 0.960 . S
C536 H528 0.929 . S
C536 C537 1.377 . S
C536 C538 1.384 . S
C537 C536 1.377 . S
C537 C543 1.390 . S
C538 H529 0.930 . S
C538 C536 1.384 . S
C538 C539 1.372 . S
C539 C538 1.372 . S
C539 C540 1.400 . S
C539 C544 1.490 . S
C540 H530 0.930 . S
C540 C539 1.400 . S
C540 C543 1.386 . S
H541 C557 0.930 . S
H542 C558 0.931 . S
C543 H531 0.929 . S
C543 C537 1.390 . S
C543 C540 1.386 . S
C544 C539 1.490 . S
C544 C546 1.395 . S
C544 C547 1.403 . S
H545 C551 0.930 . S
C546 H532 0.930 . S
C546 C544 1.395 . S
C546 C549 1.403 . S
C547 C544 1.403 . S
C547 C548 1.524 . S
C547 C551 1.400 . S
C548 H533 0.960 . S
C548 H534 0.960 . S
C548 H535 0.960 . S
C548 C547 1.524 . S
C549 C546 1.403 . S
C549 C550 1.392 . S
C549 C553 1.495 . S
C550 C549 1.392 . S
C550 C551 1.385 . S
C550 C552 1.478 . S
C551 H545 0.930 . S
C551 C547 1.400 . S
C551 C550 1.385 . S
C552 C550 1.478 . S
C552 C554 1.381 . S
C552 C558 1.383 . S
C553 C549 1.495 . S
C553 H559 0.959 . S
C553 H560 0.961 . S
C553 H561 0.960 . S
C554 C552 1.381 . S
C554 C555 1.394 . S
C554 H562 0.930 . S
C555 C554 1.394 . S
C555 C556 1.383 . S
C555 H563 0.929 . S
C556 C555 1.383 . S
C556 C557 1.377 . S
C557 H541 0.930 . S
C557 C556 1.377 . S
C557 C558 1.379 . S
C558 H542 0.931 . S
C558 C552 1.383 . S
C558 C557 1.379 . S
H559 C553 0.959 . S
H560 C553 0.961 . S
H561 C553 0.960 . S
H562 C554 0.930 . S
H563 C555 0.929 . S
H564 C572 0.929 . S
H565 C574 0.930 . S
H566 C576 0.930 . S
H567 C579 0.929 . S
H568 C582 0.930 . S
H569 C584 0.960 . S
H570 C584 0.960 . S
H571 C584 0.960 . S
C572 H564 0.929 . S
C572 C573 1.377 . S
C572 C574 1.384 . S
C573 C572 1.377 . S
C573 C579 1.390 . S
C574 H565 0.930 . S
C574 C572 1.384 . S
C574 C575 1.372 . S
C575 C574 1.372 . S
C575 C576 1.400 . S
C575 C580 1.490 . S
C576 H566 0.930 . S
C576 C575 1.400 . S
C576 C579 1.386 . S
H577 C593 0.930 . S
H578 C594 0.931 . S
C579 H567 0.929 . S
C579 C573 1.390 . S
C579 C576 1.386 . S
C580 C575 1.490 . S
C580 C582 1.395 1_655 S
C580 C583 1.403 . S
H581 C587 0.930 . S
C582 H568 0.930 . S
C582 C580 1.395 1_455 S
C582 C585 1.403 . S
C583 C580 1.403 . S
C583 C584 1.524 . S
C583 C587 1.400 . S
C584 H569 0.960 . S
C584 H570 0.960 . S
C584 H571 0.960 . S
C584 C583 1.524 . S
C585 C582 1.403 . S
C585 C586 1.392 1_455 S
C585 C589 1.495 . S
C586 C585 1.392 1_655 S
C586 C587 1.385 . S
C586 C588 1.478 . S
C587 H581 0.930 . S
C587 C583 1.400 . S
C587 C586 1.385 . S
C588 C586 1.478 . S
C588 C590 1.381 . S
C588 C594 1.383 . S
C589 C585 1.495 . S
C589 H595 0.959 . S
C589 H596 0.961 . S
C589 H597 0.960 . S
C590 C588 1.381 . S
C590 C591 1.394 . S
C590 H598 0.930 . S
C591 C590 1.394 . S
C591 C592 1.383 . S
C591 H599 0.929 . S
C592 C591 1.383 . S
C592 C593 1.377 . S
C593 H577 0.930 . S
C593 C592 1.377 . S
C593 C594 1.379 . S
C594 H578 0.931 . S
C594 C588 1.383 . S
C594 C593 1.379 . S
H595 C589 0.959 . S
H596 C589 0.961 . S
H597 C589 0.960 . S
H598 C590 0.930 . S
H599 C591 0.929 . S
H600 C608 0.929 . S
H601 C610 0.930 . S
H602 C612 0.930 . S
H603 C615 0.929 . S
H604 C618 0.930 . S
H605 C620 0.960 . S
H606 C620 0.960 . S
H607 C620 0.960 . S
C608 H600 0.929 . S
C608 C609 1.377 . S
C608 C610 1.384 . S
C609 C608 1.377 . S
C609 C615 1.390 . S
C610 H601 0.930 . S
C610 C608 1.384 . S
C610 C611 1.372 . S
C611 C610 1.372 . S
C611 C612 1.400 . S
C611 C616 1.490 . S
C612 H602 0.930 . S
C612 C611 1.400 . S
C612 C615 1.386 . S
H613 C629 0.930 . S
H614 C630 0.931 . S
C615 H603 0.929 . S
C615 C609 1.390 . S
C615 C612 1.386 . S
C616 C611 1.490 . S
C616 C618 1.395 . S
C616 C619 1.403 . S
H617 C623 0.930 . S
C618 H604 0.930 . S
C618 C616 1.395 . S
C618 C621 1.403 . S
C619 C616 1.403 . S
C619 C620 1.524 . S
C619 C623 1.400 . S
C620 H605 0.960 . S
C620 H606 0.960 . S
C620 H607 0.960 . S
C620 C619 1.524 . S
C621 C618 1.403 . S
C621 C622 1.392 . S
C621 C625 1.495 . S
C622 C621 1.392 . S
C622 C623 1.385 . S
C622 C624 1.478 . S
C623 H617 0.930 . S
C623 C619 1.400 . S
C623 C622 1.385 . S
C624 C622 1.478 . S
C624 C626 1.381 . S
C624 C630 1.383 . S
C625 C621 1.495 . S
C625 H631 0.959 . S
C625 H632 0.961 . S
C625 H633 0.960 . S
C626 C624 1.381 . S
C626 C627 1.394 . S
C626 H634 0.930 . S
C627 C626 1.394 . S
C627 C628 1.383 . S
C627 H635 0.929 . S
C628 C627 1.383 . S
C628 C629 1.377 . S
C629 H613 0.930 . S
C629 C628 1.377 . S
C629 C630 1.379 . S
C630 H614 0.931 . S
C630 C624 1.383 . S
C630 C629 1.379 . S
H631 C625 0.959 . S
H632 C625 0.961 . S
H633 C625 0.960 . S
H634 C626 0.930 . S
H635 C627 0.929 . S
H636 C644 0.929 . S
H637 C646 0.930 . S
H638 C648 0.930 . S
H639 C651 0.929 . S
H640 C654 0.930 . S
H641 C656 0.960 . S
H642 C656 0.960 1_545 S
H643 C656 0.960 . S
C644 H636 0.929 . S
C644 C645 1.377 . S
C644 C646 1.384 . S
C645 C644 1.377 . S
C645 C651 1.390 1_545 S
C646 H637 0.930 . S
C646 C644 1.384 . S
C646 C647 1.372 . S
C647 C646 1.372 . S
C647 C648 1.400 1_545 S
C647 C652 1.490 . S
C648 H638 0.930 . S
C648 C647 1.400 1_565 S
C648 C651 1.386 . S
H649 C665 0.930 . S
H650 C666 0.931 . S
C651 H639 0.929 . S
C651 C645 1.390 1_565 S
C651 C648 1.386 . S
C652 C647 1.490 . S
C652 C654 1.395 . S
C652 C655 1.403 . S
H653 C659 0.930 . S
C654 H640 0.930 . S
C654 C652 1.395 . S
C654 C657 1.403 . S
C655 C652 1.403 . S
C655 C656 1.524 1_545 S
C655 C659 1.400 . S
C656 H641 0.960 . S
C656 H642 0.960 1_565 S
C656 H643 0.960 . S
C656 C655 1.524 1_565 S
C657 C654 1.403 . S
C657 C658 1.392 . S
C657 C661 1.495 . S
C658 C657 1.392 . S
C658 C659 1.385 . S
C658 C660 1.478 . S
C659 H653 0.930 . S
C659 C655 1.400 . S
C659 C658 1.385 . S
C660 C658 1.478 . S
C660 C662 1.381 . S
C660 C666 1.383 1_545 S
C661 C657 1.495 . S
C661 H667 0.959 . S
C661 H668 0.961 . S
C661 H669 0.960 . S
C662 C660 1.381 . S
C662 C663 1.394 . S
C662 H670 0.930 . S
C663 C662 1.394 . S
C663 C664 1.383 . S
C663 H671 0.929 . S
C664 C663 1.383 . S
C664 C665 1.377 1_545 S
C665 H649 0.930 . S
C665 C664 1.377 1_565 S
C665 C666 1.379 . S
C666 H650 0.931 . S
C666 C660 1.383 1_565 S
C666 C665 1.379 . S
H667 C661 0.959 . S
H668 C661 0.961 . S
H669 C661 0.960 . S
H670 C662 0.930 . S
H671 C663 0.929 . S
H672 C680 0.929 . S
H673 C682 0.930 . S
H674 C684 0.921 1_655 S
H675 C687 0.932 . S
H676 C690 0.930 1_655 S
H677 C692 0.960 . S
H678 C692 0.960 . S
H679 C692 0.960 . S
C680 H672 0.929 . S
C680 C681 1.377 . S
C680 C682 1.384 . S
C681 C680 1.377 . S
C681 C687 1.388 1_455 S
C682 H673 0.930 . S
C682 C680 1.384 . S
C682 C683 1.372 . S
C683 C682 1.372 . S
C683 C684 1.416 . S
C683 C688 1.490 . S
C684 H674 0.921 1_455 S
C684 C683 1.416 . S
C684 C687 1.378 1_455 S
H685 C701 0.930 . S
H686 C702 0.931 . S
C687 H675 0.932 . S
C687 C681 1.388 1_655 S
C687 C684 1.378 1_655 S
C688 C683 1.490 . S
C688 C690 1.395 . S
C688 C691 1.403 . S
H689 C695 0.930 . S
C690 H676 0.930 1_455 S
C690 C688 1.395 . S
C690 C693 1.403 . S
C691 C688 1.403 . S
C691 C692 1.524 . S
C691 C695 1.400 . S
C692 H677 0.960 . S
C692 H678 0.960 . S
C692 H679 0.960 . S
C692 C691 1.524 . S
C693 C690 1.403 . S
C693 C694 1.392 . S
C693 C697 1.495 1_455 S
C694 C693 1.392 . S
C694 C695 1.385 . S
C694 C696 1.478 . S
C695 H689 0.930 . S
C695 C691 1.400 . S
C695 C694 1.385 . S
C696 C694 1.478 . S
C696 C698 1.381 . S
C696 C702 1.383 1_455 S
C697 C693 1.495 1_655 S
C697 H703 0.959 . S
C697 H704 0.961 . S
C697 H705 0.960 1_655 S
C698 C696 1.381 . S
C698 C699 1.394 . S
C698 H706 0.930 . S
C699 C698 1.394 . S
C699 C700 1.383 . S
C699 H707 0.929 . S
C700 C699 1.383 . S
C700 C701 1.377 1_455 S
C701 H685 0.930 . S
C701 C700 1.377 1_655 S
C701 C702 1.379 . S
C702 H686 0.931 . S
C702 C696 1.383 1_655 S
C702 C701 1.379 . S
H703 C697 0.959 . S
H704 C697 0.961 . S
H705 C697 0.960 1_455 S
H706 C698 0.930 . S
H707 C699 0.929 . S
H708 C716 0.929 . S
H709 C718 0.930 . S
H710 C720 0.930 . S
H711 C723 0.929 . S
H712 C726 0.930 . S
H713 C728 0.960 . S
H714 C728 0.960 . S
H715 C728 0.960 . S
C716 H708 0.929 . S
C716 C717 1.377 . S
C716 C718 1.384 . S
C717 C716 1.377 . S
C717 C723 1.390 . S
C718 H709 0.930 . S
C718 C716 1.384 . S
C718 C719 1.372 . S
C719 C718 1.372 . S
C719 C720 1.400 . S
C719 C724 1.490 . S
C720 H710 0.930 . S
C720 C719 1.400 . S
C720 C723 1.386 . S
H721 C737 0.930 . S
H722 C738 0.931 . S
C723 H711 0.929 . S
C723 C717 1.390 . S
C723 C720 1.386 . S
C724 C719 1.490 . S
C724 C726 1.395 . S
C724 C727 1.403 . S
H725 C731 0.930 . S
C726 H712 0.930 . S
C726 C724 1.395 . S
C726 C729 1.403 . S
C727 C724 1.403 . S
C727 C728 1.524 . S
C727 C731 1.400 . S
C728 H713 0.960 . S
C728 H714 0.960 . S
C728 H715 0.960 . S
C728 C727 1.524 . S
C729 C726 1.403 . S
C729 C730 1.392 . S
C729 C733 1.495 . S
C730 C729 1.392 . S
C730 C731 1.385 . S
C730 C732 1.478 . S
C731 H725 0.930 . S
C731 C727 1.400 . S
C731 C730 1.385 . S
C732 C730 1.478 . S
C732 C734 1.381 . S
C732 C738 1.383 . S
C733 C729 1.495 . S
C733 H739 0.959 . S
C733 H740 0.961 . S
C733 H741 0.960 . S
C734 C732 1.381 . S
C734 C735 1.394 . S
C734 H742 0.930 . S
C735 C734 1.394 . S
C735 C736 1.383 . S
C735 H743 0.929 . S
C736 C735 1.383 . S
C736 C737 1.377 . S
C737 H721 0.930 . S
C737 C736 1.377 . S
C737 C738 1.379 . S
C738 H722 0.931 . S
C738 C732 1.383 . S
C738 C737 1.379 . S
H739 C733 0.959 . S
H740 C733 0.961 . S
H741 C733 0.960 . S
H742 C734 0.930 . S
H743 C735 0.929 . S
H744 C752 0.929 . S
H745 C754 0.930 . S
H746 C756 0.930 . S
H747 C759 0.929 . S
H748 C762 0.930 . S
H749 C764 0.960 . S
H750 C764 0.960 . S
H751 C764 0.960 1_565 S
C752 H744 0.929 . S
C752 C753 1.377 1_545 S
C752 C754 1.384 . S
C753 C752 1.377 1_565 S
C753 C759 1.390 . S
C754 H745 0.930 . S
C754 C752 1.384 . S
C754 C755 1.372 1_545 S
C755 C754 1.372 1_565 S
C755 C756 1.400 . S
C755 C760 1.490 . S
C756 H746 0.930 . S
C756 C755 1.400 . S
C756 C759 1.386 . S
H757 C773 0.930 . S
H758 C774 0.931 . S
C759 H747 0.929 . S
C759 C753 1.390 . S
C759 C756 1.386 . S
C760 C755 1.490 . S
C760 C762 1.395 . S
C760 C763 1.403 . S
H761 C767 0.930 . S
C762 H748 0.930 . S
C762 C760 1.395 . S
C762 C765 1.403 . S
C763 C760 1.403 . S
C763 C764 1.524 1_565 S
C763 C767 1.400 . S
C764 H749 0.960 . S
C764 H750 0.960 . S
C764 H751 0.960 1_545 S
C764 C763 1.524 1_545 S
C765 C762 1.403 . S
C765 C766 1.392 . S
C765 C769 1.495 . S
C766 C765 1.392 . S
C766 C767 1.385 . S
C766 C768 1.478 . S
C767 H761 0.930 . S
C767 C763 1.400 . S
C767 C766 1.385 . S
C768 C766 1.478 . S
C768 C770 1.381 1_565 S
C768 C774 1.383 . S
C769 C765 1.495 . S
C769 H775 0.959 . S
C769 H776 0.961 . S
C769 H777 0.960 . S
C770 C768 1.381 1_545 S
C770 C771 1.394 . S
C770 H778 0.930 . S
C771 C770 1.394 . S
C771 C772 1.383 1_545 S
C771 H779 0.929 . S
C772 C771 1.383 1_565 S
C772 C773 1.377 . S
C773 H757 0.930 . S
C773 C772 1.377 . S
C773 C774 1.379 . S
C774 H758 0.931 . S
C774 C768 1.383 . S
C774 C773 1.379 . S
H775 C769 0.959 . S
H776 C769 0.961 . S
H777 C769 0.960 . S
H778 C770 0.930 . S
H779 C771 0.929 . S
C141 C60 1.520 . S
C160 C5 1.535 . S
C177 C16 1.519 . S
C196 C38 1.571 . S
C213 C49 1.536 . S
C232 C27 1.527 . S
C249 C126 1.787 . S
C268 C71 1.771 . S
C285 C82 1.782 . S
C304 C104 1.815 . S
C321 C115 1.792 . S
C340 C93 1.754 . S
C357 C8 2.019 . S
C376 C74 2.105 . S
C393 C85 2.115 . S
C412 C19 2.030 . S
C429 C30 2.023 . S
C448 C96 2.122 . S
C465 C107 2.113 . S
C484 C41 2.016 . S
C501 C118 2.114 . S
C520 C52 2.021 . S
C537 C63 2.023 . S
C556 C129 2.122 . S
C573 C51 0.802 . S
C592 C7 0.734 . S
C609 C62 0.793 . S
C628 C18 0.815 . S
C645 C29 0.785 . S
C664 C40 0.744 . S
C681 C73 0.799 . S
C700 C117 0.830 . S
C717 C128 0.794 . S
C736 C84 0.799 . S
C753 C95 0.802 . S
C772 C106 0.769 . S
