# Generated by pormake.
# Topology upa, (4)-cn, num edge types: 1
# Building blocks:
#     Node 0, Type 0, BuildingBlock: KUFVIS_clean_sbu_0, # of connection points: 4
#     Node 1, Type 0, BuildingBlock: KUFVIS_clean_sbu_0, # of connection points: 4
#     Node 2, Type 0, BuildingBlock: KUFVIS_clean_sbu_0, # of connection points: 4
#     Node 3, Type 0, BuildingBlock: KUFVIS_clean_sbu_0, # of connection points: 4
#     Node 4, Type 0, BuildingBlock: KUFVIS_clean_sbu_0, # of connection points: 4
#     Node 5, Type 0, BuildingBlock: KUFVIS_clean_sbu_0, # of connection points: 4
#     Node 6, Type 0, BuildingBlock: KUFVIS_clean_sbu_0, # of connection points: 4
#     Node 7, Type 0, BuildingBlock: KUFVIS_clean_sbu_0, # of connection points: 4
#     Edge 8, Type (0, 0), BuildingBlock: EYOCIG_clean_linker_4, # of connection points: 2
#     Edge 9, Type (0, 0), BuildingBlock: EYOCIG_clean_linker_4, # of connection points: 2
#     Edge 10, Type (0, 0), BuildingBlock: EYOCIG_clean_linker_4, # of connection points: 2
#     Edge 11, Type (0, 0), BuildingBlock: EYOCIG_clean_linker_4, # of connection points: 2
#     Edge 12, Type (0, 0), BuildingBlock: EYOCIG_clean_linker_4, # of connection points: 2
#     Edge 13, Type (0, 0), BuildingBlock: EYOCIG_clean_linker_4, # of connection points: 2
#     Edge 14, Type (0, 0), BuildingBlock: EYOCIG_clean_linker_4, # of connection points: 2
#     Edge 15, Type (0, 0), BuildingBlock: EYOCIG_clean_linker_4, # of connection points: 2
#     Edge 16, Type (0, 0), BuildingBlock: EYOCIG_clean_linker_4, # of connection points: 2
#     Edge 17, Type (0, 0), BuildingBlock: EYOCIG_clean_linker_4, # of connection points: 2
#     Edge 18, Type (0, 0), BuildingBlock: EYOCIG_clean_linker_4, # of connection points: 2
#     Edge 19, Type (0, 0), BuildingBlock: EYOCIG_clean_linker_4, # of connection points: 2
#     Edge 20, Type (0, 0), BuildingBlock: EYOCIG_clean_linker_4, # of connection points: 2
#     Edge 21, Type (0, 0), BuildingBlock: EYOCIG_clean_linker_4, # of connection points: 2
#     Edge 22, Type (0, 0), BuildingBlock: EYOCIG_clean_linker_4, # of connection points: 2
#     Edge 23, Type (0, 0), BuildingBlock: EYOCIG_clean_linker_4, # of connection points: 2
# Relax obj value: 0.182
# Max RMSD: 0.139
# Mean RMSD: 0.139
data_MOF--net-upa--node1-KUFVIS_clean_sbu_0--edge1-EYOCIG_clean_linker_4
_symmetry_space_group_name_H-M    P1
_symmetry_Int_Tables_number       1
_symmetry_cell_setting            triclinic
loop_
_symmetry_equiv_pos_as_xyz
'x, y, z'
_cell_length_a     20.075439
_cell_length_b     20.079196
_cell_length_c     34.938201
_cell_angle_alpha  89.99972
_cell_angle_beta   90.000502
_cell_angle_gamma 89.997016
loop_
_atom_site_label
_atom_site_type_symbol
_atom_site_fract_x
_atom_site_fract_y
_atom_site_fract_z
_atom_type_partial_charge
Mn0 Mn 0.17227 0.22251 0.34964 0.0
Mn1 Mn 0.2563 0.08851 0.38251 0.0
C2 C 0.11681 0.13615 0.37872 0.0
C3 C 0.10501 0.27174 0.30242 0.0
C4 C 0.24491 0.21689 0.4273 0.0
O5 O 0.26282 0.23234 0.32243 0.0
O6 O 0.31497 0.14383 0.34896 0.0
C7 C 0.2713 0.02053 0.30766 0.0
N8 N 0.24835 0.02047 0.34437 0.0
C9 C 0.19978 0.91175 0.33615 0.0
C10 C 0.2232 0.91059 0.29834 0.0
C11 C 0.2591 0.96523 0.28406 0.0
C12 C 0.21367 0.96813 0.35838 0.0
H13 H 0.29859 0.06248 0.29639 0.0
C14 C 0.31418 0.19522 0.32721 0.0
O15 O 0.13315 0.30778 0.3288 0.0
O16 O 0.12289 0.21011 0.30059 0.0
N17 N 0.20552 0.02995 0.41456 0.0
C18 C 0.18645 0.0387 0.45168 0.0
C19 C 0.15015 0.98838 0.47026 0.0
C20 C 0.13427 0.92944 0.45063 0.0
C21 C 0.15517 0.92117 0.41261 0.0
C22 C 0.19158 0.97287 0.39564 0.0
H23 H 0.19844 0.08392 0.46692 0.0
O24 O 0.09008 0.19453 0.37702 0.0
O25 O 0.17521 0.1295 0.36314 0.0
O26 O 0.21421 0.25055 0.40154 0.0
O27 O 0.2628 0.15617 0.42336 0.0
C28 C 0.14065 0.86399 0.39077 0.0
C29 C 0.16286 0.85932 0.35255 0.0
H30 H 0.21374 0.8681 0.28001 0.0
H31 H 0.2772 0.96479 0.25488 0.0
H32 H 0.13429 0.99506 0.49962 0.0
H33 H 0.10587 0.89096 0.46498 0.0
H34 H 0.11219 0.82343 0.40303 0.0
H35 H 0.15117 0.81521 0.336 0.0
Mn36 Mn 0.30147 0.67228 0.84953 0.0
Mn37 Mn 0.43565 0.75615 0.88229 0.0
C38 C 0.38789 0.61673 0.87852 0.0
C39 C 0.25205 0.60507 0.80235 0.0
C40 C 0.30737 0.74485 0.9272 0.0
O41 O 0.29162 0.76284 0.82235 0.0
O42 O 0.38024 0.81489 0.84882 0.0
C43 C 0.5034 0.77119 0.80737 0.0
N44 N 0.50357 0.7482 0.84407 0.0
C45 C 0.61224 0.69956 0.83571 0.0
C46 C 0.6133 0.72301 0.79791 0.0
C47 C 0.55863 0.75898 0.7837 0.0
C48 C 0.55593 0.71346 0.85801 0.0
H49 H 0.46143 0.79852 0.79616 0.0
C50 C 0.32878 0.81415 0.82711 0.0
O51 O 0.21609 0.63323 0.82877 0.0
O52 O 0.31369 0.62292 0.80046 0.0
N53 N 0.49429 0.70531 0.91426 0.0
C54 C 0.48565 0.68622 0.95138 0.0
C55 C 0.53602 0.64986 0.96989 0.0
C56 C 0.59489 0.63395 0.95018 0.0
C57 C 0.60304 0.65487 0.91217 0.0
C58 C 0.55131 0.69134 0.89527 0.0
H59 H 0.44049 0.69823 0.96668 0.0
O60 O 0.32946 0.59006 0.87687 0.0
O61 O 0.39454 0.67512 0.86294 0.0
O62 O 0.27361 0.7142 0.90146 0.0
O63 O 0.36811 0.76267 0.92321 0.0
C64 C 0.66015 0.64034 0.89026 0.0
C65 C 0.66471 0.66258 0.85204 0.0
H66 H 0.65573 0.71355 0.77953 0.0
H67 H 0.55899 0.77711 0.75453 0.0
H68 H 0.52942 0.63398 0.99926 0.0
H69 H 0.6334 0.6055 0.96449 0.0
H70 H 0.70074 0.61183 0.90247 0.0
H71 H 0.70877 0.65087 0.83543 0.0
Mn72 Mn 0.85204 0.80128 0.34963 0.0
Mn73 Mn 0.76809 0.93533 0.38249 0.0
C74 C 0.90755 0.88761 0.37871 0.0
C75 C 0.91928 0.75201 0.30241 0.0
C76 C 0.7794 0.80695 0.42729 0.0
O77 O 0.76148 0.79149 0.32242 0.0
O78 O 0.70939 0.88004 0.34894 0.0
C79 C 0.75314 1.0033 0.30763 0.0
N80 N 0.77608 1.00335 0.34434 0.0
C81 C 0.82472 0.11204 0.33611 0.0
C82 C 0.80132 0.11321 0.2983 0.0
C83 C 0.76538 0.05858 0.28402 0.0
C84 C 0.81079 0.05567 0.35835 0.0
H85 H 0.72583 0.96136 0.29636 0.0
C86 C 0.71015 0.82864 0.32719 0.0
O87 O 0.89112 0.71598 0.32879 0.0
O88 O 0.90143 0.81365 0.30058 0.0
N89 N 0.81889 0.99387 0.41453 0.0
C90 C 0.83795 0.98512 0.45166 0.0
C91 C 0.87427 0.03542 0.47024 0.0
C92 C 0.8902 0.09435 0.45059 0.0
C93 C 0.86931 0.10262 0.41258 0.0
C94 C 0.83287 0.05094 0.39561 0.0
H95 H 0.82592 0.93991 0.4669 0.0
O96 O 0.93425 0.82921 0.37701 0.0
O97 O 0.84916 0.89429 0.36313 0.0
O98 O 0.81008 0.77327 0.40153 0.0
O99 O 0.76154 0.86768 0.42334 0.0
C100 C 0.88387 0.15978 0.39073 0.0
C101 C 0.86167 0.16446 0.35251 0.0
H102 H 0.8108 0.15568 0.27996 0.0
H103 H 0.74729 0.05902 0.25484 0.0
H104 H 0.89013 0.02874 0.4996 0.0
H105 H 0.91862 0.13282 0.46495 0.0
H106 H 0.91236 0.20033 0.40299 0.0
H107 H 0.8734 0.20855 0.33595 0.0
Mn108 Mn 0.72277 0.35167 0.84951 0.0
Mn109 Mn 0.58857 0.2678 0.88225 0.0
C110 C 0.63635 0.40721 0.87849 0.0
C111 C 0.7722 0.41887 0.80234 0.0
C112 C 0.71685 0.27909 0.92718 0.0
O113 O 0.73262 0.26111 0.82232 0.0
O114 O 0.64399 0.20906 0.84879 0.0
C115 C 0.52084 0.25278 0.80732 0.0
N116 N 0.52067 0.27576 0.84402 0.0
C117 C 0.412 0.32441 0.83565 0.0
C118 C 0.41095 0.30096 0.79786 0.0
C119 C 0.46563 0.26499 0.78365 0.0
C120 C 0.4683 0.3105 0.85796 0.0
H121 H 0.56281 0.22544 0.79611 0.0
C122 C 0.69545 0.2098 0.82708 0.0
O123 O 0.80815 0.39071 0.82875 0.0
O124 O 0.71056 0.40103 0.80044 0.0
N125 N 0.52993 0.31864 0.91421 0.0
C126 C 0.53855 0.33772 0.95134 0.0
C127 C 0.48818 0.37408 0.96985 0.0
C128 C 0.42931 0.39 0.95014 0.0
C129 C 0.42118 0.36908 0.91212 0.0
C130 C 0.47291 0.33261 0.89522 0.0
H131 H 0.58371 0.3257 0.96664 0.0
O132 O 0.69478 0.43389 0.87685 0.0
O133 O 0.62969 0.34883 0.86291 0.0
O134 O 0.75062 0.30973 0.90144 0.0
O135 O 0.6561 0.26127 0.92318 0.0
C136 C 0.36407 0.38362 0.8902 0.0
C137 C 0.35952 0.36139 0.85198 0.0
H138 H 0.36853 0.31043 0.77947 0.0
H139 H 0.46527 0.24687 0.75448 0.0
H140 H 0.49477 0.38995 0.99922 0.0
H141 H 0.3908 0.41844 0.96444 0.0
H142 H 0.32348 0.41213 0.9024 0.0
H143 H 0.31547 0.3731 0.83537 0.0
Mn144 Mn 0.67224 0.30119 0.18901 0.0
Mn145 Mn 0.75627 0.43524 0.15623 0.0
C146 C 0.61678 0.38762 0.16001 0.0
C147 C 0.605 0.25186 0.23621 0.0
C148 C 0.74484 0.30696 0.11135 0.0
O149 O 0.7628 0.29127 0.21621 0.0
O150 O 0.81495 0.37982 0.18973 0.0
C151 C 0.77132 0.50303 0.23114 0.0
N152 N 0.74836 0.50319 0.19443 0.0
C153 C 0.69982 0.6119 0.20275 0.0
C154 C 0.72325 0.61297 0.24055 0.0
C155 C 0.75915 0.55828 0.25479 0.0
C156 C 0.71368 0.55557 0.18047 0.0
H157 H 0.7986 0.46105 0.24237 0.0
C158 C 0.81416 0.32839 0.21145 0.0
O159 O 0.63312 0.21587 0.2098 0.0
O160 O 0.62289 0.31348 0.23808 0.0
N161 N 0.70549 0.49389 0.12424 0.0
C162 C 0.68641 0.48524 0.08712 0.0
C163 C 0.65011 0.53562 0.06858 0.0
C164 C 0.63425 0.59452 0.08827 0.0
C165 C 0.65517 0.60268 0.12629 0.0
C166 C 0.69157 0.55093 0.14321 0.0
H167 H 0.69838 0.44005 0.07184 0.0
O168 O 0.59003 0.32924 0.16167 0.0
O169 O 0.67518 0.39423 0.17559 0.0
O170 O 0.71415 0.27326 0.13709 0.0
O171 O 0.76274 0.36767 0.11533 0.0
C172 C 0.64068 0.65982 0.14818 0.0
C173 C 0.6629 0.66439 0.1864 0.0
H174 H 0.71382 0.65541 0.25892 0.0
H175 H 0.77726 0.55864 0.28397 0.0
H176 H 0.63424 0.52901 0.03921 0.0
H177 H 0.60586 0.63304 0.07394 0.0
H178 H 0.61222 0.70042 0.13595 0.0
H179 H 0.65123 0.70846 0.20298 0.0
Mn180 Mn 0.22268 0.17229 0.6891 0.0
Mn181 Mn 0.08853 0.25617 0.6563 0.0
C182 C 0.1363 0.11676 0.66008 0.0
C183 C 0.27206 0.10508 0.73629 0.0
C184 C 0.21686 0.24489 0.61144 0.0
O185 O 0.23249 0.26284 0.7163 0.0
O186 O 0.14389 0.3149 0.6898 0.0
C187 C 0.02069 0.27119 0.73121 0.0
N188 N 0.02057 0.24821 0.6945 0.0
C189 C 0.91189 0.19956 0.70283 0.0
C190 C 0.9108 0.223 0.74062 0.0
C191 C 0.96545 0.25897 0.75485 0.0
C192 C 0.96823 0.21347 0.68054 0.0
H193 H 0.06265 0.29852 0.74243 0.0
C194 C 0.19533 0.31416 0.71152 0.0
O195 O 0.30805 0.13324 0.7099 0.0
O196 O 0.21041 0.12292 0.73816 0.0
N197 N 0.02993 0.20534 0.62432 0.0
C198 C 0.0386 0.18626 0.58719 0.0
C199 C 0.98826 0.1499 0.56866 0.0
C200 C 0.92937 0.13398 0.58835 0.0
C201 C 0.92118 0.1549 0.62637 0.0
C202 C 0.97289 0.19136 0.64329 0.0
H203 H 0.08378 0.19828 0.57191 0.0
O204 O 0.19473 0.09008 0.66174 0.0
O205 O 0.12962 0.17514 0.67566 0.0
O206 O 0.25059 0.21424 0.63719 0.0
O207 O 0.15611 0.26271 0.61541 0.0
C208 C 0.86405 0.14035 0.64826 0.0
C209 C 0.85945 0.16258 0.68648 0.0
H210 H 0.86836 0.21353 0.759 0.0
H211 H 0.96506 0.27709 0.78403 0.0
H212 H 0.99488 0.13403 0.5393 0.0
H213 H 0.89087 0.10554 0.57403 0.0
H214 H 0.82348 0.11184 0.63603 0.0
H215 H 0.81538 0.15087 0.70307 0.0
Mn216 Mn 0.35206 0.7227 0.18903 0.0
Mn217 Mn 0.26811 0.58862 0.15623 0.0
C218 C 0.40757 0.63631 0.16001 0.0
C219 C 0.41929 0.77204 0.23623 0.0
C220 C 0.27945 0.71692 0.11137 0.0
O221 O 0.2615 0.73255 0.21623 0.0
O222 O 0.2094 0.64398 0.18974 0.0
C223 C 0.25311 0.52078 0.23113 0.0
N224 N 0.27607 0.52066 0.19442 0.0
C225 C 0.32468 0.41197 0.20272 0.0
C226 C 0.30126 0.41087 0.24052 0.0
C227 C 0.26533 0.46553 0.25477 0.0
C228 C 0.31078 0.4683 0.18044 0.0
H229 H 0.22581 0.56274 0.24237 0.0
C230 C 0.21016 0.69541 0.21146 0.0
O231 O 0.39114 0.80803 0.20983 0.0
O232 O 0.40143 0.71041 0.2381 0.0
N233 N 0.31891 0.53002 0.12423 0.0
C234 C 0.33799 0.5387 0.0871 0.0
C235 C 0.37431 0.48835 0.06856 0.0
C236 C 0.39021 0.42945 0.08823 0.0
C237 C 0.36931 0.42125 0.12625 0.0
C238 C 0.33287 0.47297 0.14318 0.0
H239 H 0.32598 0.58388 0.07183 0.0
O240 O 0.43428 0.69471 0.16168 0.0
O241 O 0.34917 0.62967 0.17559 0.0
O242 O 0.31013 0.75064 0.13712 0.0
O243 O 0.26158 0.6562 0.11534 0.0
C244 C 0.38384 0.36412 0.14813 0.0
C245 C 0.36163 0.35951 0.18635 0.0
H246 H 0.31073 0.36843 0.25889 0.0
H247 H 0.24723 0.46514 0.28395 0.0
H248 H 0.39018 0.49498 0.03919 0.0
H249 H 0.41863 0.39095 0.0739 0.0
H250 H 0.41233 0.32354 0.1359 0.0
H251 H 0.37334 0.31544 0.20294 0.0
Mn252 Mn 0.80156 0.85165 0.68908 0.0
Mn253 Mn 0.93572 0.76779 0.65629 0.0
C254 C 0.88793 0.9072 0.66006 0.0
C255 C 0.75217 0.91887 0.73627 0.0
C256 C 0.80739 0.77904 0.61142 0.0
O257 O 0.79176 0.7611 0.71628 0.0
O258 O 0.88037 0.70905 0.68979 0.0
C259 C 1.00357 0.7528 0.73119 0.0
N260 N 1.00368 0.77577 0.69448 0.0
C261 C 0.11235 0.82445 0.7028 0.0
C262 C 0.11346 0.80101 0.7406 0.0
C263 C 0.05881 0.76503 0.75483 0.0
C264 C 0.05602 0.81052 0.68052 0.0
H265 H 0.96162 0.72546 0.74242 0.0
C266 C 0.82893 0.70979 0.71151 0.0
O267 O 0.71619 0.89069 0.70988 0.0
O268 O 0.81382 0.90103 0.73814 0.0
N269 N 0.99431 0.81862 0.62429 0.0
C270 C 0.98562 0.8377 0.58717 0.0
C271 C 0.03595 0.87407 0.56863 0.0
C272 C 0.09484 0.89 0.58832 0.0
C273 C 0.10305 0.86909 0.62634 0.0
C274 C 0.05135 0.83262 0.64326 0.0
H275 H 0.94044 0.82567 0.57189 0.0
O276 O 0.8295 0.93386 0.66172 0.0
O277 O 0.89461 0.84881 0.67564 0.0
O278 O 0.77365 0.80969 0.63717 0.0
O279 O 0.86814 0.76123 0.61539 0.0
C280 C 0.16017 0.88365 0.64823 0.0
C281 C 0.16479 0.86143 0.68644 0.0
H282 H 0.1559 0.81049 0.75897 0.0
H283 H 0.05921 0.74692 0.78401 0.0
H284 H 0.02932 0.88994 0.53927 0.0
H285 H 0.13333 0.91845 0.574 0.0
H286 H 0.20074 0.91217 0.636 0.0
H287 H 0.20886 0.87315 0.70303 0.0
C288 C 0.03619 0.03723 0.39484 0.0
C289 C 0.07507 0.08065 0.38725 0.0
C290 C 0.98821 0.98649 0.39483 0.0
C291 C 0.94932 0.94308 0.38724 0.0
C292 C 0.48678 0.536 0.89453 0.0
C293 C 0.44339 0.57494 0.88698 0.0
C294 C 0.53746 0.48795 0.89452 0.0
C295 C 0.58085 0.44901 0.88697 0.0
C296 C 0.53618 0.48661 0.14396 0.0
C297 C 0.57505 0.44316 0.15151 0.0
C298 C 0.48822 0.53737 0.14395 0.0
C299 C 0.44934 0.5808 0.15152 0.0
C300 C 0.03744 0.03601 0.64402 0.0
C301 C 0.08082 0.07496 0.65158 0.0
C302 C 0.98678 0.98795 0.64401 0.0
C303 C 0.94341 0.949 0.65157 0.0
C304 C 0.25838 0.25658 0.49904 0.0
C305 C 0.25047 0.24404 0.46543 0.0
C306 C 0.2565 0.25844 0.53969 0.0
C307 C 0.24396 0.2505 0.5733 0.0
C308 C 0.26779 0.75838 0.99896 0.0
C309 C 0.2803 0.75045 0.96535 0.0
C310 C 0.26594 0.75654 0.03961 0.0
C311 C 0.27386 0.74402 0.07322 0.0
C312 C 0.76774 0.76546 0.53968 0.0
C313 C 0.78028 0.77341 0.57328 0.0
C314 C 0.76589 0.76729 0.49903 0.0
C315 C 0.77381 0.77981 0.46542 0.0
C316 C 0.75643 0.26554 0.99893 0.0
C317 C 0.74391 0.27347 0.96533 0.0
C318 C 0.7583 0.26737 0.03959 0.0
C319 C 0.7504 0.27989 0.0732 0.0
C320 C 0.49338 0.22149 0.27349 0.0
C321 C 0.54456 0.23099 0.25566 0.0
C322 C 0.42975 0.21582 0.29161 0.0
C323 C 0.37555 0.20968 0.30679 0.0
C324 C 0.30814 0.92978 0.79159 0.0
C325 C 0.31428 0.87555 0.80674 0.0
C326 C 0.30246 0.99343 0.77351 0.0
C327 C 0.29296 0.04462 0.75571 0.0
C328 C 0.59455 0.80807 0.29161 0.0
C329 C 0.64876 0.81419 0.30679 0.0
C330 C 0.53091 0.80241 0.2735 0.0
C331 C 0.47973 0.79292 0.25568 0.0
C332 C 0.71609 0.09417 0.79156 0.0
C333 C 0.70995 0.1484 0.80671 0.0
C334 C 0.72177 0.03051 0.77348 0.0
C335 C 0.73127 0.97932 0.75569 0.0
C336 C 0.99339 0.30205 0.26513 0.0
C337 C 0.04457 0.29258 0.28296 0.0
C338 C 0.92975 0.30772 0.24702 0.0
C339 C 0.87554 0.31387 0.23185 0.0
C340 C 0.21594 0.42978 0.74706 0.0
C341 C 0.20981 0.37556 0.7319 0.0
C342 C 0.22163 0.49343 0.76514 0.0
C343 C 0.23114 0.54462 0.78294 0.0
C344 C 0.09455 0.71602 0.24703 0.0
C345 C 0.14877 0.70989 0.23186 0.0
C346 C 0.03091 0.72168 0.26514 0.0
C347 C 0.97973 0.73115 0.28296 0.0
C348 C 0.80264 0.53052 0.76513 0.0
C349 C 0.79312 0.47933 0.78292 0.0
C350 C 0.80832 0.59417 0.74704 0.0
C351 C 0.81445 0.64839 0.73189 0.0
loop_
_geom_bond_atom_site_label_1
_geom_bond_atom_site_label_2
_geom_bond_distance
_geom_bond_site_symmetry_2
_ccdc_geom_bond_type
Mn0 O5 2.095 . S
Mn0 O15 2.162 . S
Mn0 O16 2.297 . S
Mn0 O24 2.385 . S
Mn0 O25 2.209 . S
Mn0 O26 2.094 . S
Mn1 O6 2.121 . S
Mn1 N8 2.257 . S
Mn1 N17 2.282 . S
Mn1 O25 2.215 . S
Mn1 O27 2.117 . S
C2 O24 1.234 . S
C2 O25 1.283 . S
C3 O15 1.281 . S
C3 O16 1.236 . S
C4 O26 1.240 . S
C4 O27 1.264 . S
O5 Mn0 2.095 . S
O5 C14 1.250 . S
O6 Mn1 2.121 . S
O6 C14 1.258 . S
C7 N8 1.326 . S
C7 C11 1.460 1_545 S
C7 H13 0.929 . S
N8 Mn1 2.257 . S
N8 C7 1.326 . S
N8 C12 1.362 1_545 S
C9 C10 1.258 . S
C9 C12 1.431 . S
C9 C29 1.449 . S
C10 C9 1.258 . S
C10 C11 1.477 . S
C10 H30 0.931 . S
C11 C7 1.460 1_565 S
C11 C10 1.477 . S
C11 H31 0.930 . S
C12 N8 1.362 1_565 S
C12 C9 1.431 . S
C12 C22 1.476 . S
H13 C7 0.929 . S
C14 O5 1.250 . S
C14 O6 1.258 . S
O15 Mn0 2.162 . S
O15 C3 1.281 . S
O16 Mn0 2.297 . S
O16 C3 1.236 . S
N17 Mn1 2.282 . S
N17 C18 1.328 . S
N17 C22 1.318 1_545 S
C18 N17 1.328 . S
C18 C19 1.457 1_545 S
C18 H23 0.929 . S
C19 C18 1.457 1_565 S
C19 C20 1.291 . S
C19 H32 0.931 . S
C20 C19 1.291 . S
C20 C21 1.373 . S
C20 H33 0.929 . S
C21 C20 1.373 . S
C21 C22 1.396 . S
C21 C28 1.403 . S
C22 C12 1.476 . S
C22 N17 1.318 1_565 S
C22 C21 1.396 . S
H23 C18 0.929 . S
O24 Mn0 2.385 . S
O24 C2 1.234 . S
O25 Mn0 2.209 . S
O25 Mn1 2.215 . S
O25 C2 1.283 . S
O26 Mn0 2.094 . S
O26 C4 1.240 . S
O27 Mn1 2.117 . S
O27 C4 1.264 . S
C28 C21 1.403 . S
C28 C29 1.399 . S
C28 H34 0.929 . S
C29 C9 1.449 . S
C29 C28 1.399 . S
C29 H35 0.930 . S
H30 C10 0.931 . S
H31 C11 0.930 . S
H32 C19 0.931 . S
H33 C20 0.929 . S
H34 C28 0.929 . S
H35 C29 0.930 . S
Mn36 O41 2.095 . S
Mn36 O51 2.162 . S
Mn36 O52 2.297 . S
Mn36 O60 2.385 . S
Mn36 O61 2.209 . S
Mn36 O62 2.094 . S
Mn37 O42 2.121 . S
Mn37 N44 2.257 . S
Mn37 N53 2.282 . S
Mn37 O61 2.215 . S
Mn37 O63 2.117 . S
C38 O60 1.234 . S
C38 O61 1.283 . S
C39 O51 1.281 . S
C39 O52 1.236 . S
C40 O62 1.240 . S
C40 O63 1.264 . S
O41 Mn36 2.095 . S
O41 C50 1.250 . S
O42 Mn37 2.121 . S
O42 C50 1.258 . S
C43 N44 1.326 . S
C43 C47 1.460 . S
C43 H49 0.929 . S
N44 Mn37 2.257 . S
N44 C43 1.326 . S
N44 C48 1.362 . S
C45 C46 1.258 . S
C45 C48 1.431 . S
C45 C65 1.449 . S
C46 C45 1.258 . S
C46 C47 1.477 . S
C46 H66 0.931 . S
C47 C43 1.460 . S
C47 C46 1.477 . S
C47 H67 0.930 . S
C48 N44 1.362 . S
C48 C45 1.431 . S
C48 C58 1.476 . S
H49 C43 0.929 . S
C50 O41 1.250 . S
C50 O42 1.258 . S
O51 Mn36 2.162 . S
O51 C39 1.281 . S
O52 Mn36 2.297 . S
O52 C39 1.236 . S
N53 Mn37 2.282 . S
N53 C54 1.328 . S
N53 C58 1.318 . S
C54 N53 1.328 . S
C54 C55 1.457 . S
C54 H59 0.929 . S
C55 C54 1.457 . S
C55 C56 1.291 . S
C55 H68 0.931 . S
C56 C55 1.291 . S
C56 C57 1.373 . S
C56 H69 0.929 . S
C57 C56 1.373 . S
C57 C58 1.396 . S
C57 C64 1.403 . S
C58 C48 1.476 . S
C58 N53 1.318 . S
C58 C57 1.396 . S
H59 C54 0.929 . S
O60 Mn36 2.385 . S
O60 C38 1.234 . S
O61 Mn36 2.209 . S
O61 Mn37 2.215 . S
O61 C38 1.283 . S
O62 Mn36 2.094 . S
O62 C40 1.240 . S
O63 Mn37 2.117 . S
O63 C40 1.264 . S
C64 C57 1.403 . S
C64 C65 1.399 . S
C64 H70 0.929 . S
C65 C45 1.449 . S
C65 C64 1.399 . S
C65 H71 0.930 . S
H66 C46 0.931 . S
H67 C47 0.930 . S
H68 C55 0.931 . S
H69 C56 0.929 . S
H70 C64 0.929 . S
H71 C65 0.930 . S
Mn72 O77 2.095 . S
Mn72 O87 2.162 . S
Mn72 O88 2.297 . S
Mn72 O96 2.385 . S
Mn72 O97 2.209 . S
Mn72 O98 2.094 . S
Mn73 O78 2.121 . S
Mn73 N80 2.257 . S
Mn73 N89 2.282 . S
Mn73 O97 2.215 . S
Mn73 O99 2.117 . S
C74 O96 1.234 . S
C74 O97 1.283 . S
C75 O87 1.281 . S
C75 O88 1.236 . S
C76 O98 1.240 . S
C76 O99 1.264 . S
O77 Mn72 2.095 . S
O77 C86 1.250 . S
O78 Mn73 2.121 . S
O78 C86 1.258 . S
C79 N80 1.326 . S
C79 C83 1.460 1_565 S
C79 H85 0.929 . S
N80 Mn73 2.257 . S
N80 C79 1.326 . S
N80 C84 1.362 1_565 S
C81 C82 1.258 . S
C81 C84 1.431 . S
C81 C101 1.449 . S
C82 C81 1.258 . S
C82 C83 1.477 . S
C82 H102 0.931 . S
C83 C79 1.460 1_545 S
C83 C82 1.477 . S
C83 H103 0.930 . S
C84 N80 1.362 1_545 S
C84 C81 1.431 . S
C84 C94 1.476 . S
H85 C79 0.929 . S
C86 O77 1.250 . S
C86 O78 1.258 . S
O87 Mn72 2.162 . S
O87 C75 1.281 . S
O88 Mn72 2.297 . S
O88 C75 1.236 . S
N89 Mn73 2.282 . S
N89 C90 1.328 . S
N89 C94 1.318 1_565 S
C90 N89 1.328 . S
C90 C91 1.457 1_565 S
C90 H95 0.929 . S
C91 C90 1.457 1_545 S
C91 C92 1.291 . S
C91 H104 0.931 . S
C92 C91 1.291 . S
C92 C93 1.373 . S
C92 H105 0.929 . S
C93 C92 1.373 . S
C93 C94 1.396 . S
C93 C100 1.403 . S
C94 C84 1.476 . S
C94 N89 1.318 1_545 S
C94 C93 1.396 . S
H95 C90 0.929 . S
O96 Mn72 2.385 . S
O96 C74 1.234 . S
O97 Mn72 2.209 . S
O97 Mn73 2.215 . S
O97 C74 1.283 . S
O98 Mn72 2.094 . S
O98 C76 1.240 . S
O99 Mn73 2.117 . S
O99 C76 1.264 . S
C100 C93 1.403 . S
C100 C101 1.399 . S
C100 H106 0.929 . S
C101 C81 1.449 . S
C101 C100 1.399 . S
C101 H107 0.930 . S
H102 C82 0.931 . S
H103 C83 0.930 . S
H104 C91 0.931 . S
H105 C92 0.929 . S
H106 C100 0.929 . S
H107 C101 0.930 . S
Mn108 O113 2.095 . S
Mn108 O123 2.162 . S
Mn108 O124 2.297 . S
Mn108 O132 2.385 . S
Mn108 O133 2.209 . S
Mn108 O134 2.094 . S
Mn109 O114 2.121 . S
Mn109 N116 2.257 . S
Mn109 N125 2.282 . S
Mn109 O133 2.215 . S
Mn109 O135 2.117 . S
C110 O132 1.234 . S
C110 O133 1.283 . S
C111 O123 1.281 . S
C111 O124 1.236 . S
C112 O134 1.240 . S
C112 O135 1.264 . S
O113 Mn108 2.095 . S
O113 C122 1.250 . S
O114 Mn109 2.121 . S
O114 C122 1.258 . S
C115 N116 1.326 . S
C115 C119 1.460 . S
C115 H121 0.929 . S
N116 Mn109 2.257 . S
N116 C115 1.326 . S
N116 C120 1.362 . S
C117 C118 1.258 . S
C117 C120 1.431 . S
C117 C137 1.449 . S
C118 C117 1.258 . S
C118 C119 1.477 . S
C118 H138 0.931 . S
C119 C115 1.460 . S
C119 C118 1.477 . S
C119 H139 0.930 . S
C120 N116 1.362 . S
C120 C117 1.431 . S
C120 C130 1.476 . S
H121 C115 0.929 . S
C122 O113 1.250 . S
C122 O114 1.258 . S
O123 Mn108 2.162 . S
O123 C111 1.281 . S
O124 Mn108 2.297 . S
O124 C111 1.236 . S
N125 Mn109 2.282 . S
N125 C126 1.328 . S
N125 C130 1.318 . S
C126 N125 1.328 . S
C126 C127 1.457 . S
C126 H131 0.929 . S
C127 C126 1.457 . S
C127 C128 1.291 . S
C127 H140 0.931 . S
C128 C127 1.291 . S
C128 C129 1.373 . S
C128 H141 0.929 . S
C129 C128 1.373 . S
C129 C130 1.396 . S
C129 C136 1.403 . S
C130 C120 1.476 . S
C130 N125 1.318 . S
C130 C129 1.396 . S
H131 C126 0.929 . S
O132 Mn108 2.385 . S
O132 C110 1.234 . S
O133 Mn108 2.209 . S
O133 Mn109 2.215 . S
O133 C110 1.283 . S
O134 Mn108 2.094 . S
O134 C112 1.240 . S
O135 Mn109 2.117 . S
O135 C112 1.264 . S
C136 C129 1.403 . S
C136 C137 1.399 . S
C136 H142 0.929 . S
C137 C117 1.449 . S
C137 C136 1.399 . S
C137 H143 0.930 . S
H138 C118 0.931 . S
H139 C119 0.930 . S
H140 C127 0.931 . S
H141 C128 0.929 . S
H142 C136 0.929 . S
H143 C137 0.930 . S
Mn144 O149 2.095 . S
Mn144 O159 2.162 . S
Mn144 O160 2.297 . S
Mn144 O168 2.385 . S
Mn144 O169 2.209 . S
Mn144 O170 2.094 . S
Mn145 O150 2.121 . S
Mn145 N152 2.257 . S
Mn145 N161 2.282 . S
Mn145 O169 2.215 . S
Mn145 O171 2.117 . S
C146 O168 1.234 . S
C146 O169 1.283 . S
C147 O159 1.281 . S
C147 O160 1.236 . S
C148 O170 1.240 . S
C148 O171 1.264 . S
O149 Mn144 2.095 . S
O149 C158 1.250 . S
O150 Mn145 2.121 . S
O150 C158 1.258 . S
C151 N152 1.326 . S
C151 C155 1.460 . S
C151 H157 0.929 . S
N152 Mn145 2.257 . S
N152 C151 1.326 . S
N152 C156 1.362 . S
C153 C154 1.258 . S
C153 C156 1.431 . S
C153 C173 1.449 . S
C154 C153 1.258 . S
C154 C155 1.477 . S
C154 H174 0.931 . S
C155 C151 1.460 . S
C155 C154 1.477 . S
C155 H175 0.930 . S
C156 N152 1.362 . S
C156 C153 1.431 . S
C156 C166 1.476 . S
H157 C151 0.929 . S
C158 O149 1.250 . S
C158 O150 1.258 . S
O159 Mn144 2.162 . S
O159 C147 1.281 . S
O160 Mn144 2.297 . S
O160 C147 1.236 . S
N161 Mn145 2.282 . S
N161 C162 1.328 . S
N161 C166 1.318 . S
C162 N161 1.328 . S
C162 C163 1.457 . S
C162 H167 0.929 . S
C163 C162 1.457 . S
C163 C164 1.291 . S
C163 H176 0.931 . S
C164 C163 1.291 . S
C164 C165 1.373 . S
C164 H177 0.929 . S
C165 C164 1.373 . S
C165 C166 1.396 . S
C165 C172 1.403 . S
C166 C156 1.476 . S
C166 N161 1.318 . S
C166 C165 1.396 . S
H167 C162 0.929 . S
O168 Mn144 2.385 . S
O168 C146 1.234 . S
O169 Mn144 2.209 . S
O169 Mn145 2.215 . S
O169 C146 1.283 . S
O170 Mn144 2.094 . S
O170 C148 1.240 . S
O171 Mn145 2.117 . S
O171 C148 1.264 . S
C172 C165 1.403 . S
C172 C173 1.399 . S
C172 H178 0.929 . S
C173 C153 1.449 . S
C173 C172 1.399 . S
C173 H179 0.930 . S
H174 C154 0.931 . S
H175 C155 0.930 . S
H176 C163 0.931 . S
H177 C164 0.929 . S
H178 C172 0.929 . S
H179 C173 0.930 . S
Mn180 O185 2.095 . S
Mn180 O195 2.162 . S
Mn180 O196 2.297 . S
Mn180 O204 2.385 . S
Mn180 O205 2.209 . S
Mn180 O206 2.094 . S
Mn181 O186 2.121 . S
Mn181 N188 2.257 . S
Mn181 N197 2.282 . S
Mn181 O205 2.215 . S
Mn181 O207 2.117 . S
C182 O204 1.234 . S
C182 O205 1.283 . S
C183 O195 1.281 . S
C183 O196 1.236 . S
C184 O206 1.240 . S
C184 O207 1.264 . S
O185 Mn180 2.095 . S
O185 C194 1.250 . S
O186 Mn181 2.121 . S
O186 C194 1.258 . S
C187 N188 1.326 . S
C187 C191 1.460 1_455 S
C187 H193 0.929 . S
N188 Mn181 2.257 . S
N188 C187 1.326 . S
N188 C192 1.362 1_455 S
C189 C190 1.258 . S
C189 C192 1.431 . S
C189 C209 1.449 . S
C190 C189 1.258 . S
C190 C191 1.477 . S
C190 H210 0.931 . S
C191 C187 1.460 1_655 S
C191 C190 1.477 . S
C191 H211 0.930 . S
C192 N188 1.362 1_655 S
C192 C189 1.431 . S
C192 C202 1.476 . S
H193 C187 0.929 . S
C194 O185 1.250 . S
C194 O186 1.258 . S
O195 Mn180 2.162 . S
O195 C183 1.281 . S
O196 Mn180 2.297 . S
O196 C183 1.236 . S
N197 Mn181 2.282 . S
N197 C198 1.328 . S
N197 C202 1.318 1_455 S
C198 N197 1.328 . S
C198 C199 1.457 1_455 S
C198 H203 0.929 . S
C199 C198 1.457 1_655 S
C199 C200 1.291 . S
C199 H212 0.931 . S
C200 C199 1.291 . S
C200 C201 1.373 . S
C200 H213 0.929 . S
C201 C200 1.373 . S
C201 C202 1.396 . S
C201 C208 1.403 . S
C202 C192 1.476 . S
C202 N197 1.318 1_655 S
C202 C201 1.396 . S
H203 C198 0.929 . S
O204 Mn180 2.385 . S
O204 C182 1.234 . S
O205 Mn180 2.209 . S
O205 Mn181 2.215 . S
O205 C182 1.283 . S
O206 Mn180 2.094 . S
O206 C184 1.240 . S
O207 Mn181 2.117 . S
O207 C184 1.264 . S
C208 C201 1.403 . S
C208 C209 1.399 . S
C208 H214 0.929 . S
C209 C189 1.449 . S
C209 C208 1.399 . S
C209 H215 0.930 . S
H210 C190 0.931 . S
H211 C191 0.930 . S
H212 C199 0.931 . S
H213 C200 0.929 . S
H214 C208 0.929 . S
H215 C209 0.930 . S
Mn216 O221 2.095 . S
Mn216 O231 2.162 . S
Mn216 O232 2.297 . S
Mn216 O240 2.385 . S
Mn216 O241 2.209 . S
Mn216 O242 2.094 . S
Mn217 O222 2.121 . S
Mn217 N224 2.257 . S
Mn217 N233 2.282 . S
Mn217 O241 2.215 . S
Mn217 O243 2.117 . S
C218 O240 1.234 . S
C218 O241 1.283 . S
C219 O231 1.281 . S
C219 O232 1.236 . S
C220 O242 1.240 . S
C220 O243 1.264 . S
O221 Mn216 2.095 . S
O221 C230 1.250 . S
O222 Mn217 2.121 . S
O222 C230 1.258 . S
C223 N224 1.326 . S
C223 C227 1.460 . S
C223 H229 0.929 . S
N224 Mn217 2.257 . S
N224 C223 1.326 . S
N224 C228 1.362 . S
C225 C226 1.258 . S
C225 C228 1.431 . S
C225 C245 1.449 . S
C226 C225 1.258 . S
C226 C227 1.477 . S
C226 H246 0.931 . S
C227 C223 1.460 . S
C227 C226 1.477 . S
C227 H247 0.930 . S
C228 N224 1.362 . S
C228 C225 1.431 . S
C228 C238 1.476 . S
H229 C223 0.929 . S
C230 O221 1.250 . S
C230 O222 1.258 . S
O231 Mn216 2.162 . S
O231 C219 1.281 . S
O232 Mn216 2.297 . S
O232 C219 1.236 . S
N233 Mn217 2.282 . S
N233 C234 1.328 . S
N233 C238 1.318 . S
C234 N233 1.328 . S
C234 C235 1.457 . S
C234 H239 0.929 . S
C235 C234 1.457 . S
C235 C236 1.291 . S
C235 H248 0.931 . S
C236 C235 1.291 . S
C236 C237 1.373 . S
C236 H249 0.929 . S
C237 C236 1.373 . S
C237 C238 1.396 . S
C237 C244 1.403 . S
C238 C228 1.476 . S
C238 N233 1.318 . S
C238 C237 1.396 . S
H239 C234 0.929 . S
O240 Mn216 2.385 . S
O240 C218 1.234 . S
O241 Mn216 2.209 . S
O241 Mn217 2.215 . S
O241 C218 1.283 . S
O242 Mn216 2.094 . S
O242 C220 1.240 . S
O243 Mn217 2.117 . S
O243 C220 1.264 . S
C244 C237 1.403 . S
C244 C245 1.399 . S
C244 H250 0.929 . S
C245 C225 1.449 . S
C245 C244 1.399 . S
C245 H251 0.930 . S
H246 C226 0.931 . S
H247 C227 0.930 . S
H248 C235 0.931 . S
H249 C236 0.929 . S
H250 C244 0.929 . S
H251 C245 0.930 . S
Mn252 O257 2.095 . S
Mn252 O267 2.162 . S
Mn252 O268 2.297 . S
Mn252 O276 2.385 . S
Mn252 O277 2.209 . S
Mn252 O278 2.094 . S
Mn253 O258 2.121 . S
Mn253 N260 2.257 . S
Mn253 N269 2.282 . S
Mn253 O277 2.215 . S
Mn253 O279 2.117 . S
C254 O276 1.234 . S
C254 O277 1.283 . S
C255 O267 1.281 . S
C255 O268 1.236 . S
C256 O278 1.240 . S
C256 O279 1.264 . S
O257 Mn252 2.095 . S
O257 C266 1.250 . S
O258 Mn253 2.121 . S
O258 C266 1.258 . S
C259 N260 1.326 . S
C259 C263 1.460 1_655 S
C259 H265 0.929 . S
N260 Mn253 2.257 . S
N260 C259 1.326 . S
N260 C264 1.362 1_655 S
C261 C262 1.258 . S
C261 C264 1.431 . S
C261 C281 1.449 . S
C262 C261 1.258 . S
C262 C263 1.477 . S
C262 H282 0.931 . S
C263 C259 1.460 1_455 S
C263 C262 1.477 . S
C263 H283 0.930 . S
C264 N260 1.362 1_455 S
C264 C261 1.431 . S
C264 C274 1.476 . S
H265 C259 0.929 . S
C266 O257 1.250 . S
C266 O258 1.258 . S
O267 Mn252 2.162 . S
O267 C255 1.281 . S
O268 Mn252 2.297 . S
O268 C255 1.236 . S
N269 Mn253 2.282 . S
N269 C270 1.328 . S
N269 C274 1.318 1_655 S
C270 N269 1.328 . S
C270 C271 1.457 1_655 S
C270 H275 0.929 . S
C271 C270 1.457 1_455 S
C271 C272 1.291 . S
C271 H284 0.931 . S
C272 C271 1.291 . S
C272 C273 1.373 . S
C272 H285 0.929 . S
C273 C272 1.373 . S
C273 C274 1.396 . S
C273 C280 1.403 . S
C274 C264 1.476 . S
C274 N269 1.318 1_455 S
C274 C273 1.396 . S
H275 C270 0.929 . S
O276 Mn252 2.385 . S
O276 C254 1.234 . S
O277 Mn252 2.209 . S
O277 Mn253 2.215 . S
O277 C254 1.283 . S
O278 Mn252 2.094 . S
O278 C256 1.240 . S
O279 Mn253 2.117 . S
O279 C256 1.264 . S
C280 C273 1.403 . S
C280 C281 1.399 . S
C280 H286 0.929 . S
C281 C261 1.449 . S
C281 C280 1.399 . S
C281 H287 0.930 . S
H282 C262 0.931 . S
H283 C263 0.930 . S
H284 C271 0.931 . S
H285 C272 0.929 . S
H286 C280 0.929 . S
H287 C281 0.930 . S
C288 C289 1.170 . S
C288 C290 1.380 1_445 S
C289 C288 1.170 . S
C290 C288 1.380 1_665 S
C290 C291 1.170 . S
C291 C290 1.170 . S
C292 C293 1.170 . S
C292 C294 1.380 . S
C293 C292 1.170 . S
C294 C292 1.380 . S
C294 C295 1.170 . S
C295 C294 1.170 . S
C296 C297 1.170 . S
C296 C298 1.380 . S
C297 C296 1.170 . S
C298 C296 1.380 . S
C298 C299 1.170 . S
C299 C298 1.170 . S
C300 C301 1.170 . S
C300 C302 1.380 1_445 S
C301 C300 1.170 . S
C302 C300 1.380 1_665 S
C302 C303 1.170 . S
C303 C302 1.170 . S
C304 C305 1.170 . S
C304 C306 1.380 . S
C305 C304 1.170 . S
C306 C304 1.380 . S
C306 C307 1.170 . S
C307 C306 1.170 . S
C308 C309 1.170 . S
C308 C310 1.380 1_556 S
C309 C308 1.170 . S
C310 C308 1.380 1_554 S
C310 C311 1.170 . S
C311 C310 1.170 . S
C312 C313 1.170 . S
C312 C314 1.380 . S
C313 C312 1.170 . S
C314 C312 1.380 . S
C314 C315 1.170 . S
C315 C314 1.170 . S
C316 C317 1.170 . S
C316 C318 1.380 1_556 S
C317 C316 1.170 . S
C318 C316 1.380 1_554 S
C318 C319 1.170 . S
C319 C318 1.170 . S
C320 C321 1.170 . S
C320 C322 1.380 . S
C321 C320 1.170 . S
C322 C320 1.380 . S
C322 C323 1.170 . S
C323 C322 1.170 . S
C324 C325 1.170 . S
C324 C326 1.380 . S
C325 C324 1.170 . S
C326 C324 1.380 . S
C326 C327 1.170 . S
C327 C326 1.170 . S
C328 C329 1.170 . S
C328 C330 1.380 . S
C329 C328 1.170 . S
C330 C328 1.380 . S
C330 C331 1.170 . S
C331 C330 1.170 . S
C332 C333 1.170 . S
C332 C334 1.380 . S
C333 C332 1.170 . S
C334 C332 1.380 . S
C334 C335 1.170 . S
C335 C334 1.170 . S
C336 C337 1.170 . S
C336 C338 1.380 . S
C337 C336 1.170 . S
C338 C336 1.380 . S
C338 C339 1.170 . S
C339 C338 1.170 . S
C340 C341 1.170 . S
C340 C342 1.380 . S
C341 C340 1.170 . S
C342 C340 1.380 . S
C342 C343 1.170 . S
C343 C342 1.170 . S
C344 C345 1.170 . S
C344 C346 1.380 . S
C345 C344 1.170 . S
C346 C344 1.380 . S
C346 C347 1.170 . S
C347 C346 1.170 . S
C348 C349 1.170 . S
C348 C350 1.380 . S
C349 C348 1.170 . S
C350 C348 1.380 . S
C350 C351 1.170 . S
C351 C350 1.170 . S
C289 C2 0.714 . S
C291 C74 0.676 . S
C293 C38 0.726 . S
C295 C110 0.733 . S
C297 C146 0.741 . S
C299 C218 0.690 . S
C301 C182 0.729 . S
C303 C254 0.731 . S
C305 C4 1.502 . S
C307 C184 1.477 . S
C309 C40 1.471 . S
C311 C220 1.498 . S
C313 C256 1.466 . S
C315 C76 1.492 . S
C317 C112 1.472 . S
C319 C148 1.499 . S
C321 C147 1.726 . S
C323 C14 1.619 . S
C325 C50 1.621 . S
C327 C183 1.696 1_565 S
C329 C86 1.604 . S
C331 C219 1.714 . S
C333 C122 1.656 . S
C335 C255 1.700 1_545 S
C337 C3 1.697 1_655 S
C339 C158 1.619 . S
C341 C194 1.649 . S
C343 C39 1.689 . S
C345 C230 1.613 . S
C347 C75 1.702 1_455 S
C349 C111 1.718 . S
C351 C266 1.603 . S
