# Generated by pormake.
# Topology ukh, (4)-cn, num edge types: 1
# Building blocks:
#     Node 0, Type 0, BuildingBlock: UXUYUI_clean_sbu_0, # of connection points: 4
#     Node 1, Type 0, BuildingBlock: UXUYUI_clean_sbu_0, # of connection points: 4
#     Node 2, Type 0, BuildingBlock: UXUYUI_clean_sbu_0, # of connection points: 4
#     Node 3, Type 0, BuildingBlock: UXUYUI_clean_sbu_0, # of connection points: 4
#     Node 4, Type 0, BuildingBlock: UXUYUI_clean_sbu_0, # of connection points: 4
#     Node 5, Type 0, BuildingBlock: UXUYUI_clean_sbu_0, # of connection points: 4
#     Node 6, Type 0, BuildingBlock: UXUYUI_clean_sbu_0, # of connection points: 4
#     Node 7, Type 0, BuildingBlock: UXUYUI_clean_sbu_0, # of connection points: 4
#     Node 8, Type 0, BuildingBlock: UXUYUI_clean_sbu_0, # of connection points: 4
#     Node 9, Type 0, BuildingBlock: UXUYUI_clean_sbu_0, # of connection points: 4
#     Node 10, Type 0, BuildingBlock: UXUYUI_clean_sbu_0, # of connection points: 4
#     Node 11, Type 0, BuildingBlock: UXUYUI_clean_sbu_0, # of connection points: 4
#     Edge 12, Type (0, 0), BuildingBlock: MIFKUJ_clean_linker_0, # of connection points: 2
#     Edge 13, Type (0, 0), BuildingBlock: MIFKUJ_clean_linker_0, # of connection points: 2
#     Edge 14, Type (0, 0), BuildingBlock: MIFKUJ_clean_linker_0, # of connection points: 2
#     Edge 15, Type (0, 0), BuildingBlock: MIFKUJ_clean_linker_0, # of connection points: 2
#     Edge 16, Type (0, 0), BuildingBlock: MIFKUJ_clean_linker_0, # of connection points: 2
#     Edge 17, Type (0, 0), BuildingBlock: MIFKUJ_clean_linker_0, # of connection points: 2
#     Edge 18, Type (0, 0), BuildingBlock: MIFKUJ_clean_linker_0, # of connection points: 2
#     Edge 19, Type (0, 0), BuildingBlock: MIFKUJ_clean_linker_0, # of connection points: 2
#     Edge 20, Type (0, 0), BuildingBlock: MIFKUJ_clean_linker_0, # of connection points: 2
#     Edge 21, Type (0, 0), BuildingBlock: MIFKUJ_clean_linker_0, # of connection points: 2
#     Edge 22, Type (0, 0), BuildingBlock: MIFKUJ_clean_linker_0, # of connection points: 2
#     Edge 23, Type (0, 0), BuildingBlock: MIFKUJ_clean_linker_0, # of connection points: 2
#     Edge 24, Type (0, 0), BuildingBlock: MIFKUJ_clean_linker_0, # of connection points: 2
#     Edge 25, Type (0, 0), BuildingBlock: MIFKUJ_clean_linker_0, # of connection points: 2
#     Edge 26, Type (0, 0), BuildingBlock: MIFKUJ_clean_linker_0, # of connection points: 2
#     Edge 27, Type (0, 0), BuildingBlock: MIFKUJ_clean_linker_0, # of connection points: 2
#     Edge 28, Type (0, 0), BuildingBlock: MIFKUJ_clean_linker_0, # of connection points: 2
#     Edge 29, Type (0, 0), BuildingBlock: MIFKUJ_clean_linker_0, # of connection points: 2
#     Edge 30, Type (0, 0), BuildingBlock: MIFKUJ_clean_linker_0, # of connection points: 2
#     Edge 31, Type (0, 0), BuildingBlock: MIFKUJ_clean_linker_0, # of connection points: 2
#     Edge 32, Type (0, 0), BuildingBlock: MIFKUJ_clean_linker_0, # of connection points: 2
#     Edge 33, Type (0, 0), BuildingBlock: MIFKUJ_clean_linker_0, # of connection points: 2
#     Edge 34, Type (0, 0), BuildingBlock: MIFKUJ_clean_linker_0, # of connection points: 2
#     Edge 35, Type (0, 0), BuildingBlock: MIFKUJ_clean_linker_0, # of connection points: 2
# Relax obj value: 0.278
# Max RMSD: 0.251
# Mean RMSD: 0.251
data_MOF--net-ukh--node1-UXUYUI_clean_sbu_0--edge1-MIFKUJ_clean_linker_0
_symmetry_space_group_name_H-M    P1
_symmetry_Int_Tables_number       1
_symmetry_cell_setting            triclinic
loop_
_symmetry_equiv_pos_as_xyz
'x, y, z'
_cell_length_a     55.112751
_cell_length_b     55.107174
_cell_length_c     106.95799
_cell_angle_alpha  90.000059
_cell_angle_beta   90.002939
_cell_angle_gamma 119.99511
loop_
_atom_site_label
_atom_site_type_symbol
_atom_site_fract_x
_atom_site_fract_y
_atom_site_fract_z
_atom_type_partial_charge
Li0 Li 0.36187 0.25402 0.04251 0.0
Li1 Li 0.33634 0.22058 0.05978 0.0
Li2 Li 0.34532 0.20458 0.03951 0.0
Li3 Li 0.31278 0.22193 0.0409 0.0
C4 C 0.39944 0.23583 0.04852 0.0
N5 N 0.45248 0.24768 0.04147 0.0
C6 C 0.41832 0.23672 0.05748 0.0
C7 C 0.4075 0.2409 0.03596 0.0
C8 C 0.44505 0.24277 0.05373 0.0
C9 C 0.43441 0.24688 0.03259 0.0
C10 C 0.31467 0.26286 0.054 0.0
C11 C 0.27155 0.26001 0.0607 0.0
N12 N 0.27806 0.28338 0.05393 0.0
C13 C 0.32106 0.28696 0.04718 0.0
C14 C 0.28984 0.24937 0.0609 0.0
C15 C 0.30224 0.29698 0.04724 0.0
C16 C 0.38924 0.30402 0.02866 0.0
N17 N 0.39045 0.29102 0.03924 0.0
C18 C 0.42958 0.33327 0.04671 0.0
C19 C 0.41029 0.30481 0.04812 0.0
C20 C 0.42817 0.34767 0.03613 0.0
C21 C 0.40802 0.33253 0.0269 0.0
H22 H 0.37292 0.29249 0.02186 0.0
H23 H 0.41054 0.29388 0.05647 0.0
C24 C 0.33763 0.19198 0.08088 0.0
N25 N 0.33409 0.21353 0.07711 0.0
C26 C 0.33638 0.18549 0.09355 0.0
C27 C 0.32781 0.22352 0.09819 0.0
C28 C 0.32928 0.22931 0.08541 0.0
C29 C 0.33141 0.20134 0.10241 0.0
H30 H 0.34152 0.17992 0.07402 0.0
H31 H 0.32659 0.24637 0.0821 0.0
C32 C 0.32987 0.21755 0.01678 0.0
N33 N 0.30566 0.19067 0.99458 0.0
C34 C 0.30563 0.19118 0.01691 0.0
C35 C 0.34173 0.23028 0.00537 0.0
C36 C 0.29372 0.17794 0.00559 0.0
C37 C 0.3292 0.21633 0.99424 0.0
C38 C 0.28755 0.16537 0.05311 0.0
C39 C 0.27891 0.14029 0.04666 0.0
C40 C 0.27269 0.16559 0.06366 0.0
C41 C 0.25532 0.11584 0.05082 0.0
C42 C 0.24921 0.1407 0.06752 0.0
N43 N 0.24108 0.11656 0.06107 0.0
C44 C 0.35225 0.15926 0.04284 0.0
C45 C 0.35283 0.16979 0.02132 0.0
C46 C 0.35206 0.13451 0.03998 0.0
N47 N 0.3517 0.17581 0.03356 0.0
C48 C 0.35223 0.14495 0.01803 0.0
C49 C 0.35086 0.12644 0.02743 0.0
H50 H 0.35155 0.16475 0.05249 0.0
H51 H 0.35294 0.1835 0.01409 0.0
C52 C 0.28245 0.23821 0.02566 0.0
N53 N 0.27898 0.21851 0.03422 0.0
C54 C 0.25926 0.23777 0.0202 0.0
C55 C 0.22919 0.19643 0.03231 0.0
C56 C 0.25302 0.19781 0.03761 0.0
C57 C 0.23213 0.21662 0.02347 0.0
H58 H 0.30336 0.25443 0.02313 0.0
H59 H 0.25069 0.18229 0.04437 0.0
O60 O 0.3732 0.22989 0.05208 0.0
O61 O 0.33247 0.25231 0.05378 0.0
O62 O 0.34189 0.23119 0.02771 0.0
O63 O 0.31087 0.18938 0.04927 0.0
H64 H 0.41234 0.23278 0.06724 0.0
H65 H 0.39318 0.24025 0.02889 0.0
H66 H 0.45989 0.24356 0.06057 0.0
H67 H 0.44094 0.25086 0.02291 0.0
H68 H 0.25214 0.24965 0.06591 0.0
H69 H 0.34019 0.29767 0.0418 0.0
H70 H 0.28459 0.2307 0.06622 0.0
H71 H 0.30682 0.31551 0.04194 0.0
H72 H 0.44502 0.34401 0.05396 0.0
H73 H 0.40593 0.34282 0.01868 0.0
H74 H 0.33972 0.16851 0.09638 0.0
H75 H 0.32364 0.23609 0.10468 0.0
H76 H 0.29608 0.18102 0.02562 0.0
H77 H 0.36045 0.25072 0.00511 0.0
H78 H 0.27498 0.15752 0.00556 0.0
H79 H 0.33819 0.22593 0.98534 0.0
H80 H 0.29029 0.13969 0.03853 0.0
H81 H 0.27913 0.18475 0.06879 0.0
H82 H 0.24836 0.0963 0.04591 0.0
H83 H 0.23747 0.14058 0.07564 0.0
H84 H 0.35176 0.12132 0.04756 0.0
H85 H 0.35124 0.13965 0.00822 0.0
H86 H 0.26261 0.25406 0.0136 0.0
H87 H 0.20873 0.17951 0.03499 0.0
Li88 Li 0.101 0.35871 0.3741 0.0
Li89 Li 0.11409 0.33935 0.39197 0.0
Li90 Li 0.13455 0.34383 0.37206 0.0
Li91 Li 0.0869 0.30934 0.37483 0.0
C92 C 0.16247 0.3961 0.3785 0.0
N93 N 0.21324 0.43778 0.36937 0.0
C94 C 0.18695 0.40497 0.38545 0.0
C95 C 0.16378 0.4085 0.36693 0.0
C96 C 0.21243 0.42605 0.38066 0.0
C97 C 0.18965 0.42953 0.36247 0.0
C98 C 0.06359 0.34094 0.3939 0.0
C99 C 0.02266 0.33775 0.40366 0.0
N100 N 0.03887 0.36363 0.40872 0.0
C101 C 0.07986 0.36753 0.39918 0.0
C102 C 0.03476 0.32594 0.39613 0.0
C103 C 0.06697 0.37862 0.40665 0.0
C104 C 0.0629 0.37067 0.36305 0.0
N105 N 0.08765 0.38285 0.36931 0.0
C106 C 0.08822 0.42641 0.37022 0.0
C107 C 0.10055 0.41018 0.37286 0.0
C108 C 0.06226 0.41417 0.36403 0.0
C109 C 0.04973 0.38602 0.3603 0.0
H110 H 0.05306 0.34876 0.3605 0.0
H111 H 0.11994 0.41909 0.37808 0.0
C112 C 0.14789 0.34761 0.41256 0.0
N113 N 0.12125 0.34048 0.40943 0.0
C114 C 0.15531 0.34809 0.42506 0.0
C115 C 0.10755 0.33332 0.43092 0.0
C116 C 0.10103 0.333 0.41828 0.0
C117 C 0.13503 0.34096 0.43446 0.0
H118 H 0.16324 0.35238 0.40529 0.0
H119 H 0.07974 0.32638 0.41559 0.0
C120 C 0.1035 0.32122 0.35018 0.0
N121 N 0.10353 0.29176 0.32928 0.0
C122 C 0.11334 0.30228 0.35098 0.0
C123 C 0.09367 0.32515 0.33876 0.0
C124 C 0.11319 0.28761 0.34031 0.0
C125 C 0.09385 0.31006 0.32829 0.0
C126 C 0.11092 0.28807 0.39081 0.0
C127 C 0.12702 0.27505 0.3919 0.0
C128 C 0.0859 0.27762 0.39754 0.0
C129 C 0.11784 0.25177 0.39972 0.0
C130 C 0.07745 0.25432 0.40526 0.0
N131 N 0.09346 0.24198 0.40618 0.0
C132 C 0.18512 0.34452 0.37146 0.0
C133 C 0.17589 0.36114 0.35262 0.0
C134 C 0.20932 0.34656 0.36637 0.0
N135 N 0.16873 0.35121 0.36448 0.0
C136 C 0.20002 0.36356 0.34714 0.0
C137 C 0.21676 0.35562 0.35396 0.0
H138 H 0.17885 0.33677 0.38088 0.0
H139 H 0.16251 0.36648 0.34732 0.0
C140 C 0.03172 0.2715 0.36846 0.0
N141 N 0.05712 0.27357 0.3701 0.0
C142 C 0.0089 0.24641 0.36439 0.0
C143 C 0.03885 0.226 0.36374 0.0
C144 C 0.06108 0.25149 0.36789 0.0
C145 C 0.01236 0.22328 0.3619 0.0
H146 H 0.02935 0.28957 0.37013 0.0
H147 H 0.08157 0.25375 0.3692 0.0
O148 O 0.13739 0.37501 0.38285 0.0
O149 O 0.07556 0.32981 0.38633 0.0
O150 O 0.10327 0.33584 0.36048 0.0
O151 O 0.11991 0.31098 0.38321 0.0
H152 H 0.18634 0.39568 0.39443 0.0
H153 H 0.14508 0.40161 0.36135 0.0
H154 H 0.23156 0.43307 0.38592 0.0
H155 H 0.191 0.43919 0.3535 0.0
H156 H 0.00036 0.32637 0.40548 0.0
H157 H 0.10219 0.37949 0.39756 0.0
H158 H 0.02187 0.30538 0.39208 0.0
H159 H 0.0793 0.39916 0.41079 0.0
H160 H 0.0983 0.44794 0.3734 0.0
H161 H 0.0298 0.37591 0.35546 0.0
H162 H 0.17656 0.35341 0.42731 0.0
H163 H 0.09124 0.32771 0.43783 0.0
H164 H 0.12105 0.29892 0.35972 0.0
H165 H 0.08594 0.3397 0.338 0.0
H166 H 0.12075 0.2729 0.3408 0.0
H167 H 0.08629 0.3129 0.31939 0.0
H168 H 0.14642 0.28287 0.38675 0.0
H169 H 0.07307 0.28729 0.39683 0.0
H170 H 0.1301 0.2415 0.40065 0.0
H171 H 0.05816 0.24604 0.41052 0.0
H172 H 0.22127 0.33977 0.37192 0.0
H173 H 0.20513 0.37092 0.3376 0.0
H174 H 0.98895 0.24534 0.36291 0.0
H175 H 0.04233 0.20862 0.362 0.0
Li176 Li 0.77846 0.1149 0.72415 0.0
Li177 Li 0.7433 0.10293 0.70798 0.0
Li178 Li 0.77598 0.08479 0.7061 0.0
Li179 Li 0.79039 0.13372 0.70294 0.0
C180 C 0.7456 0.05685 0.72744 0.0
N181 N 0.7418 0.01574 0.74344 0.0
C182 C 0.71941 0.03429 0.73063 0.0
C183 C 0.76987 0.05855 0.73239 0.0
C184 C 0.71792 0.01371 0.73874 0.0
C185 C 0.76751 0.03754 0.74046 0.0
C186 C 0.75068 0.15074 0.71613 0.0
C187 C 0.72709 0.17246 0.70617 0.0
N188 N 0.71346 0.17048 0.71706 0.0
C189 C 0.73668 0.14918 0.72726 0.0
C190 C 0.74608 0.1627 0.70553 0.0
C191 C 0.71786 0.15918 0.72752 0.0
C192 C 0.81287 0.13573 0.74552 0.0
N193 N 0.78588 0.12131 0.74153 0.0
C194 C 0.76915 0.11706 0.76249 0.0
C195 C 0.7641 0.11165 0.74971 0.0
C196 C 0.79686 0.13273 0.76681 0.0
C197 C 0.81888 0.1419 0.75817 0.0
H198 H 0.82975 0.14249 0.73888 0.0
H199 H 0.74282 0.09998 0.74626 0.0
C200 C 0.69494 0.08839 0.69361 0.0
N201 N 0.70525 0.09222 0.70543 0.0
C202 C 0.66639 0.07796 0.69163 0.0
C203 C 0.65975 0.07609 0.71404 0.0
C204 C 0.68838 0.08631 0.71558 0.0
C205 C 0.6484 0.07143 0.70193 0.0
H206 H 0.70871 0.09269 0.68572 0.0
H207 H 0.69711 0.08892 0.72487 0.0
C208 C 0.83617 0.13218 0.70899 0.0
N209 N 0.89005 0.16298 0.69968 0.0
C210 C 0.84509 0.12148 0.69929 0.0
C211 C 0.85464 0.15872 0.71386 0.0
C212 C 0.87242 0.13731 0.69475 0.0
C213 C 0.88178 0.17394 0.70903 0.0
C214 C 0.76964 0.10753 0.6807 0.0
C215 C 0.78277 0.09554 0.67397 0.0
C216 C 0.76315 0.12614 0.67473 0.0
C217 C 0.78942 0.1026 0.6614 0.0
C218 C 0.77019 0.1327 0.66215 0.0
N219 N 0.78307 0.1209 0.6558 0.0
C220 C 0.75788 0.03401 0.69377 0.0
C221 C 0.7994 0.04885 0.70554 0.0
C222 C 0.75885 0.01061 0.68947 0.0
N223 N 0.77828 0.05279 0.70143 0.0
C224 C 0.80124 0.02575 0.70145 0.0
C225 C 0.78099 0.00645 0.69316 0.0
H226 H 0.74111 0.03752 0.69083 0.0
H227 H 0.81511 0.06393 0.71181 0.0
C228 C 0.82397 0.19213 0.70012 0.0
N229 N 0.81672 0.16733 0.69442 0.0
C230 C 0.84776 0.21677 0.69624 0.0
C231 C 0.85482 0.19023 0.68011 0.0
C232 C 0.83118 0.16616 0.68436 0.0
C233 C 0.86412 0.2157 0.68643 0.0
H234 H 0.81253 0.19244 0.70827 0.0
H235 H 0.82589 0.14631 0.68023 0.0
O236 O 0.74728 0.07711 0.71951 0.0
O237 O 0.76875 0.14056 0.7156 0.0
O238 O 0.80931 0.11709 0.71345 0.0
O239 O 0.7627 0.10064 0.69299 0.0
H240 H 0.70043 0.03273 0.72688 0.0
H241 H 0.79033 0.07588 0.73006 0.0
H242 H 0.69779 0.99611 0.74129 0.0
H243 H 0.78612 0.03858 0.74436 0.0
H244 H 0.72321 0.18163 0.69801 0.0
H245 H 0.74011 0.14012 0.73556 0.0
H246 H 0.75706 0.16442 0.69691 0.0
H247 H 0.70671 0.15792 0.73604 0.0
H248 H 0.75163 0.10965 0.76888 0.0
H249 H 0.84053 0.15358 0.76118 0.0
H250 H 0.65842 0.07473 0.68215 0.0
H251 H 0.64648 0.07089 0.72222 0.0
H252 H 0.83094 0.10146 0.6951 0.0
H253 H 0.84793 0.16788 0.72104 0.0
H254 H 0.87953 0.12928 0.68723 0.0
H255 H 0.89618 0.19458 0.71265 0.0
H256 H 0.78814 0.08125 0.67842 0.0
H257 H 0.75285 0.13548 0.67976 0.0
H258 H 0.79972 0.09362 0.6561 0.0
H259 H 0.76539 0.14716 0.65744 0.0
H260 H 0.74245 0.99597 0.68331 0.0
H261 H 0.81874 0.02348 0.70449 0.0
H262 H 0.85435 0.23595 0.70143 0.0
H263 H 0.86669 0.18855 0.67242 0.0
Li264 Li 0.6646 0.78041 0.05857 0.0
Li265 Li 0.63892 0.74373 0.04217 0.0
Li266 Li 0.68951 0.78161 0.04007 0.0
Li267 Li 0.65288 0.79255 0.03897 0.0
C268 C 0.67396 0.73997 0.06378 0.0
N269 N 0.67648 0.71949 0.08704 0.0
C270 C 0.65129 0.71507 0.0682 0.0
C271 C 0.69798 0.75437 0.07116 0.0
C272 C 0.65297 0.70507 0.07999 0.0
C273 C 0.69882 0.74371 0.0829 0.0
C274 C 0.60602 0.77281 0.05168 0.0
C275 C 0.56298 0.76756 0.04341 0.0
N276 N 0.56565 0.78847 0.05107 0.0
C277 C 0.60831 0.79414 0.05951 0.0
C278 C 0.58317 0.75932 0.04359 0.0
C279 C 0.58768 0.8018 0.05905 0.0
C280 C 0.68809 0.80994 0.08112 0.0
N281 N 0.66599 0.78688 0.07606 0.0
C282 C 0.6436 0.77321 0.096 0.0
C283 C 0.64395 0.76859 0.08318 0.0
C284 C 0.66615 0.79692 0.10152 0.0
C285 C 0.68871 0.81529 0.0939 0.0
H286 H 0.70511 0.82438 0.07523 0.0
H287 H 0.62647 0.75061 0.07884 0.0
C288 C 0.62252 0.69197 0.0314 0.0
N289 N 0.61352 0.7056 0.039 0.0
C290 C 0.60595 0.66317 0.02952 0.0
C291 C 0.57096 0.66311 0.0432 0.0
C292 C 0.5882 0.69198 0.04478 0.0
C293 C 0.57996 0.64829 0.03561 0.0
H294 H 0.64294 0.70344 0.02706 0.0
H295 H 0.5818 0.70339 0.0509 0.0
C296 C 0.71536 0.8337 0.04542 0.0
N297 N 0.76972 0.87372 0.03938 0.0
C298 C 0.7206 0.85195 0.03538 0.0
C299 C 0.73786 0.83581 0.05235 0.0
C300 C 0.7482 0.87208 0.03251 0.0
C301 C 0.76516 0.85614 0.04915 0.0
C302 C 0.65028 0.77107 0.01602 0.0
C303 C 0.66632 0.796 0.00941 0.0
C304 C 0.62555 0.74973 0.01075 0.0
C305 C 0.65725 0.79925 0.99765 0.0
C306 C 0.61724 0.75376 0.99895 0.0
N307 N 0.63311 0.77823 0.99271 0.0
C308 C 0.73651 0.77428 0.03942 0.0
C309 C 0.73595 0.8031 0.02313 0.0
C310 C 0.76139 0.77683 0.03486 0.0
N311 N 0.72432 0.78733 0.03354 0.0
C312 C 0.76087 0.80625 0.01824 0.0
C313 C 0.7738 0.79281 0.02407 0.0
H314 H 0.72675 0.76159 0.04758 0.0
H315 H 0.72582 0.81309 0.01854 0.0
C316 C 0.65286 0.84272 0.03771 0.0
N317 N 0.64079 0.81705 0.03225 0.0
C318 C 0.64811 0.86351 0.03301 0.0
C319 C 0.61641 0.83041 0.01781 0.0
C320 C 0.62173 0.81015 0.02287 0.0
C321 C 0.63038 0.85776 0.02266 0.0
H322 H 0.66708 0.84738 0.04548 0.0
H323 H 0.61114 0.78918 0.0191 0.0
O324 O 0.67242 0.7505 0.0524 0.0
O325 O 0.62634 0.76552 0.05178 0.0
O326 O 0.68847 0.81361 0.04833 0.0
O327 O 0.65885 0.76734 0.0275 0.0
H328 H 0.63251 0.70368 0.06266 0.0
H329 H 0.71563 0.7738 0.06795 0.0
H330 H 0.63553 0.68589 0.08355 0.0
H331 H 0.71719 0.75476 0.08875 0.0
H332 H 0.54525 0.75744 0.03714 0.0
H333 H 0.62598 0.80486 0.06579 0.0
H334 H 0.58128 0.74293 0.03738 0.0
H335 H 0.58924 0.81838 0.065 0.0
H336 H 0.62555 0.75871 0.10144 0.0
H337 H 0.70669 0.83364 0.09775 0.0
H338 H 0.61388 0.65253 0.02374 0.0
H339 H 0.55098 0.65245 0.04799 0.0
H340 H 0.70364 0.85046 0.02974 0.0
H341 H 0.73435 0.82157 0.05999 0.0
H342 H 0.75252 0.88628 0.02476 0.0
H343 H 0.78274 0.85786 0.05439 0.0
H344 H 0.68524 0.8129 0.0134 0.0
H345 H 0.61284 0.73032 0.01573 0.0
H346 H 0.66933 0.81853 0.99249 0.0
H347 H 0.59812 0.73745 0.99478 0.0
H348 H 0.77079 0.76635 0.03974 0.0
H349 H 0.7695 0.81848 0.00981 0.0
H350 H 0.65957 0.88434 0.037 0.0
H351 H 0.60222 0.825 0.00996 0.0
Li352 Li 0.89111 0.63592 0.37459 0.0
Li353 Li 0.88253 0.6604 0.39158 0.0
Li354 Li 0.85962 0.65326 0.37067 0.0
Li355 Li 0.90951 0.68787 0.37313 0.0
C356 C 0.8433 0.59668 0.38503 0.0
N357 N 0.8203 0.53969 0.38857 0.0
C358 C 0.84237 0.58603 0.39699 0.0
C359 C 0.8322 0.57833 0.3749 0.0
C360 C 0.83073 0.55716 0.39858 0.0
C361 C 0.82077 0.54959 0.37687 0.0
C362 C 0.94008 0.67543 0.3939 0.0
C363 C 0.97743 0.71233 0.40586 0.0
N364 N 0.98302 0.69322 0.41115 0.0
C365 C 0.9465 0.65623 0.39932 0.0
C366 C 0.95591 0.70378 0.39708 0.0
C367 C 0.96815 0.66559 0.40808 0.0
C368 C 0.91041 0.60829 0.35902 0.0
N369 N 0.9008 0.60821 0.37073 0.0
C370 C 0.91019 0.57217 0.37709 0.0
C371 C 0.90036 0.59054 0.37971 0.0
C372 C 0.92097 0.57235 0.36518 0.0
C373 C 0.92067 0.59044 0.35602 0.0
H374 H 0.91089 0.62284 0.35211 0.0
H375 H 0.89328 0.59137 0.38904 0.0
C376 C 0.86037 0.67166 0.41298 0.0
N377 N 0.8771 0.66154 0.4091 0.0
C378 C 0.85536 0.67278 0.42569 0.0
C379 C 0.88406 0.65207 0.43021 0.0
C380 C 0.88869 0.65156 0.4174 0.0
C381 C 0.86728 0.66291 0.43449 0.0
H382 H 0.85072 0.67869 0.40618 0.0
H383 H 0.90111 0.64274 0.41408 0.0
C384 C 0.88225 0.65753 0.34815 0.0
N385 N 0.86268 0.65565 0.32418 0.0
C386 C 0.89136 0.68227 0.34136 0.0
C387 C 0.8635 0.63182 0.34269 0.0
C388 C 0.88114 0.68089 0.32927 0.0
C389 C 0.85375 0.63131 0.33058 0.0
C390 C 0.88195 0.71314 0.38526 0.0
C391 C 0.86777 0.72554 0.37978 0.0
C392 C 0.90096 0.72699 0.39494 0.0
C393 C 0.87326 0.75185 0.38393 0.0
C394 C 0.90586 0.75326 0.39884 0.0
N395 N 0.89206 0.76506 0.39328 0.0
C396 C 0.80138 0.62416 0.36487 0.0
C397 C 0.82883 0.66835 0.35513 0.0
C398 C 0.7769 0.62172 0.35976 0.0
N399 N 0.82658 0.64736 0.36256 0.0
C400 C 0.80505 0.66673 0.34978 0.0
C401 C 0.7786 0.64336 0.3522 0.0
H402 H 0.80017 0.60799 0.37099 0.0
H403 H 0.84903 0.68686 0.35372 0.0
C404 C 0.96458 0.72229 0.36541 0.0
N405 N 0.94011 0.72211 0.36731 0.0
C406 C 0.98791 0.74614 0.36069 0.0
C407 C 0.96043 0.76924 0.35994 0.0
C408 C 0.93757 0.74485 0.36462 0.0
C409 C 0.98598 0.77001 0.35787 0.0
H410 H 0.96587 0.70377 0.36751 0.0
H411 H 0.9177 0.74395 0.36583 0.0
O412 O 0.85477 0.6249 0.38328 0.0
O413 O 0.9191 0.66661 0.38521 0.0
O414 O 0.89177 0.65849 0.36005 0.0
O415 O 0.87688 0.68742 0.38126 0.0
H416 H 0.85066 0.59991 0.40495 0.0
H417 H 0.8325 0.5862 0.36561 0.0
H418 H 0.83 0.54863 0.40778 0.0
H419 H 0.81225 0.53516 0.3691 0.0
H420 H 0.98977 0.7342 0.40842 0.0
H421 H 0.93473 0.63428 0.39688 0.0
H422 H 0.95192 0.71912 0.39271 0.0
H423 H 0.97315 0.6509 0.41242 0.0
H424 H 0.91049 0.55886 0.38447 0.0
H425 H 0.92871 0.59111 0.34671 0.0
H426 H 0.84183 0.68076 0.42858 0.0
H427 H 0.89361 0.64421 0.43669 0.0
H428 H 0.90596 0.70234 0.34541 0.0
H429 H 0.85653 0.61247 0.34776 0.0
H430 H 0.88786 0.69988 0.32394 0.0
H431 H 0.83911 0.61156 0.32627 0.0
H432 H 0.85274 0.71503 0.37238 0.0
H433 H 0.91151 0.7174 0.39952 0.0
H434 H 0.86254 0.76174 0.37972 0.0
H435 H 0.92055 0.7642 0.40631 0.0
H436 H 0.75687 0.60346 0.36189 0.0
H437 H 0.80726 0.68425 0.3443 0.0
H438 H 0.00727 0.74595 0.35931 0.0
H439 H 0.95795 0.78704 0.35769 0.0
Li440 Li 0.25283 0.89612 0.70863 0.0
Li441 Li 0.21732 0.88404 0.72419 0.0
Li442 Li 0.2057 0.86086 0.70425 0.0
Li443 Li 0.21754 0.909 0.70567 0.0
C444 C 0.24666 0.85568 0.72591 0.0
N445 N 0.27858 0.84797 0.74369 0.0
C446 C 0.26744 0.87862 0.73248 0.0
C447 C 0.24213 0.82883 0.72839 0.0
C448 C 0.28335 0.87428 0.74143 0.0
C449 C 0.25849 0.82536 0.73741 0.0
C450 C 0.24498 0.94209 0.72602 0.0
C451 C 0.21822 0.95877 0.73726 0.0
N452 N 0.24235 0.98271 0.74014 0.0
C453 C 0.2695 0.96685 0.72909 0.0
C454 C 0.2191 0.93799 0.73013 0.0
C455 C 0.26774 0.98713 0.73624 0.0
C456 C 0.30682 0.93796 0.70417 0.0
N457 N 0.29135 0.90977 0.70571 0.0
C458 C 0.33207 0.90532 0.70353 0.0
C459 C 0.30318 0.89327 0.70529 0.0
C460 C 0.34871 0.93454 0.70222 0.0
C461 C 0.33566 0.95085 0.70241 0.0
H462 H 0.29667 0.95043 0.70441 0.0
H463 H 0.2903 0.87085 0.70648 0.0
C464 C 0.18395 0.85499 0.74457 0.0
N465 N 0.20873 0.8779 0.74148 0.0
C466 C 0.17662 0.84824 0.7571 0.0
C467 C 0.22045 0.88892 0.76303 0.0
C468 C 0.22695 0.89484 0.75038 0.0
C469 C 0.19504 0.86525 0.76653 0.0
H470 H 0.17008 0.84173 0.73727 0.0
H471 H 0.24667 0.91279 0.74767 0.0
C472 C 0.24107 0.88264 0.68372 0.0
N473 N 0.26107 0.86369 0.66462 0.0
C474 C 0.24678 0.89553 0.672 0.0
C475 C 0.24554 0.8601 0.68573 0.0
C476 C 0.25688 0.88564 0.66246 0.0
C477 C 0.25566 0.85084 0.67596 0.0
C478 C 0.16062 0.8692 0.70731 0.0
C479 C 0.16083 0.87414 0.69447 0.0
C480 C 0.13523 0.85651 0.7138 0.0
C481 C 0.13557 0.86631 0.68836 0.0
C482 C 0.11041 0.84899 0.70735 0.0
N483 N 0.1111 0.85399 0.69487 0.0
C484 C 0.16795 0.80361 0.70451 0.0
C485 C 0.17327 0.82425 0.68451 0.0
C486 C 0.14563 0.77838 0.70023 0.0
N487 N 0.18078 0.826 0.69672 0.0
C488 C 0.15106 0.79943 0.67982 0.0
C489 C 0.13639 0.77633 0.68782 0.0
H490 H 0.17421 0.80581 0.71423 0.0
H491 H 0.18346 0.84256 0.67859 0.0
C492 C 0.23401 0.9567 0.69166 0.0
N493 N 0.21287 0.93842 0.69916 0.0
C494 C 0.23378 0.98005 0.6868 0.0
C495 C 0.18975 0.96516 0.69737 0.0
C496 C 0.19095 0.94216 0.70212 0.0
C497 C 0.2115 0.98457 0.68969 0.0
H498 H 0.25125 0.95323 0.68957 0.0
H499 H 0.17464 0.92755 0.7083 0.0
O500 O 0.23061 0.85918 0.71713 0.0
O501 O 0.24652 0.92221 0.71895 0.0
O502 O 0.23132 0.89232 0.69313 0.0
O503 O 0.18496 0.87616 0.71351 0.0
H504 H 0.27134 0.89957 0.7307 0.0
H505 H 0.22611 0.81086 0.72339 0.0
H506 H 0.29948 0.89185 0.74657 0.0
H507 H 0.25519 0.80469 0.73942 0.0
H508 H 0.19835 0.95587 0.7405 0.0
H509 H 0.28969 0.97034 0.72598 0.0
H510 H 0.19988 0.91899 0.72788 0.0
H511 H 0.28656 0.00639 0.73869 0.0
H512 H 0.34136 0.89203 0.70351 0.0
H513 H 0.34763 0.97337 0.70121 0.0
H514 H 0.15705 0.82954 0.75936 0.0
H515 H 0.23514 0.90277 0.76997 0.0
H516 H 0.24346 0.91302 0.67031 0.0
H517 H 0.24123 0.8498 0.69472 0.0
H518 H 0.26138 0.89542 0.65334 0.0
H519 H 0.25922 0.83343 0.67738 0.0
H520 H 0.18023 0.88383 0.68926 0.0
H521 H 0.13472 0.85246 0.72373 0.0
H522 H 0.13543 0.86997 0.67843 0.0
H523 H 0.09061 0.83913 0.71226 0.0
H524 H 0.13503 0.76101 0.70667 0.0
H525 H 0.14436 0.79895 0.67027 0.0
H526 H 0.25081 0.99439 0.68082 0.0
H527 H 0.17237 0.96811 0.69992 0.0
Li528 Li 0.77682 0.68647 0.62457 0.0
Li529 Li 0.79084 0.65117 0.62753 0.0
Li530 Li 0.77711 0.65899 0.6068 0.0
Li531 Li 0.74221 0.63604 0.62294 0.0
C532 C 0.82594 0.70975 0.61057 0.0
N533 N 0.85917 0.75777 0.59695 0.0
C534 C 0.85488 0.72061 0.60998 0.0
C535 C 0.81388 0.72332 0.60424 0.0
C536 C 0.87133 0.74491 0.60304 0.0
C537 C 0.83104 0.74756 0.5974 0.0
C538 C 0.76413 0.65191 0.64995 0.0
C539 C 0.74703 0.61981 0.66736 0.0
N540 N 0.76385 0.6411 0.67519 0.0
C541 C 0.78088 0.67356 0.6582 0.0
C542 C 0.74674 0.62489 0.65458 0.0
C543 C 0.7806 0.66763 0.67092 0.0
C544 C 0.76091 0.72661 0.62903 0.0
N545 N 0.78225 0.7212 0.6304 0.0
C546 C 0.80987 0.76455 0.64112 0.0
C547 C 0.80651 0.73954 0.63623 0.0
C548 C 0.7881 0.77066 0.63991 0.0
C549 C 0.76345 0.75141 0.63368 0.0
H550 H 0.74174 0.71139 0.62449 0.0
H551 H 0.82306 0.73454 0.63721 0.0
C552 C 0.82289 0.62454 0.63204 0.0
N553 N 0.81744 0.64481 0.63598 0.0
C554 C 0.84515 0.6226 0.63719 0.0
C555 C 0.85574 0.6624 0.65031 0.0
C556 C 0.83332 0.66357 0.64492 0.0
C557 C 0.86218 0.64198 0.64632 0.0
H558 H 0.81075 0.61062 0.62454 0.0
H559 H 0.82947 0.68034 0.6474 0.0
C560 C 0.72614 0.65686 0.60289 0.0
N561 N 0.68371 0.6359 0.58531 0.0
C562 C 0.71778 0.63107 0.59716 0.0
C563 C 0.71296 0.67203 0.59966 0.0
C564 C 0.69628 0.62082 0.5883 0.0
C565 C 0.69154 0.66107 0.59075 0.0
C566 C 0.75534 0.59464 0.61591 0.0
C567 C 0.74701 0.57822 0.60508 0.0
C568 C 0.75226 0.58193 0.62755 0.0
C569 C 0.73539 0.54923 0.60612 0.0
C570 C 0.74057 0.55289 0.6282 0.0
N571 N 0.73241 0.53727 0.61756 0.0
C572 C 0.79888 0.64619 0.58593 0.0
C573 C 0.77886 0.67449 0.58123 0.0
C574 C 0.80611 0.64636 0.57342 0.0
N575 N 0.78549 0.66007 0.58956 0.0
C576 C 0.78558 0.67512 0.56861 0.0
C577 C 0.79943 0.66094 0.56455 0.0
H578 H 0.8041 0.63513 0.59281 0.0
H579 H 0.7684 0.68554 0.58439 0.0
C580 C 0.69169 0.62234 0.63349 0.0
N581 N 0.70393 0.61074 0.62655 0.0
C582 C 0.66306 0.60725 0.63601 0.0
C583 C 0.6602 0.56818 0.62446 0.0
C584 C 0.68889 0.58417 0.62204 0.0
C585 C 0.64693 0.5799 0.63138 0.0
H586 H 0.70417 0.64363 0.63682 0.0
H587 H 0.69881 0.5756 0.61626 0.0
O588 O 0.80963 0.6859 0.61728 0.0
O589 O 0.76394 0.65742 0.63749 0.0
O590 O 0.74709 0.66734 0.61163 0.0
O591 O 0.76653 0.62302 0.61503 0.0
H592 H 0.86451 0.71032 0.61483 0.0
H593 H 0.79153 0.71524 0.60458 0.0
H594 H 0.89377 0.75355 0.6025 0.0
H595 H 0.82199 0.75825 0.59245 0.0
H596 H 0.73377 0.59897 0.67106 0.0
H597 H 0.79408 0.6947 0.65481 0.0
H598 H 0.73295 0.60807 0.6484 0.0
H599 H 0.79365 0.68414 0.67739 0.0
H600 H 0.82927 0.77894 0.64579 0.0
H601 H 0.74602 0.75514 0.63271 0.0
H602 H 0.84948 0.60663 0.63379 0.0
H603 H 0.86879 0.6783 0.65704 0.0
H604 H 0.72776 0.61908 0.59949 0.0
H605 H 0.71924 0.69208 0.60396 0.0
H606 H 0.6896 0.60087 0.58381 0.0
H607 H 0.68116 0.67259 0.58816 0.0
H608 H 0.74939 0.58776 0.59599 0.0
H609 H 0.75914 0.5944 0.63597 0.0
H610 H 0.72874 0.53624 0.59784 0.0
H611 H 0.73805 0.54278 0.63715 0.0
H612 H 0.81718 0.63554 0.57076 0.0
H613 H 0.77973 0.68635 0.5621 0.0
H614 H 0.65359 0.61693 0.64144 0.0
H615 H 0.64833 0.54728 0.62058 0.0
Li616 Li 0.13334 0.78925 0.95954 0.0
Li617 Li 0.08684 0.77883 0.95727 0.0
Li618 Li 0.09756 0.74065 0.95705 0.0
Li619 Li 0.11152 0.77629 0.93891 0.0
C620 C 0.11192 0.77106 0.98262 0.0
N621 N 0.13312 0.78203 0.00664 0.0
C622 C 0.11707 0.79565 0.98867 0.0
C623 C 0.11715 0.75183 0.98883 0.0
C624 C 0.12794 0.8009 0.0008 0.0
C625 C 0.12795 0.7578 0.00097 0.0
C626 C 0.11575 0.83149 0.94813 0.0
C627 C 0.10335 0.86088 0.93624 0.0
N628 N 0.10725 0.87672 0.94661 0.0
C629 C 0.1199 0.84821 0.95863 0.0
C630 C 0.10762 0.83795 0.93681 0.0
C631 C 0.11538 0.87092 0.95769 0.0
C632 C 0.18182 0.84085 0.96195 0.0
N633 N 0.16877 0.81473 0.96701 0.0
C634 C 0.20494 0.82884 0.98235 0.0
C635 C 0.18031 0.80816 0.97675 0.0
C636 C 0.21801 0.85635 0.9777 0.0
C637 C 0.20648 0.86205 0.96717 0.0
H638 H 0.17272 0.84546 0.954 0.0
H639 H 0.17022 0.78706 0.98035 0.0
C640 C 0.04757 0.7756 0.9746 0.0
N641 N 0.0582 0.78619 0.96313 0.0
C642 C 0.02549 0.77811 0.97949 0.0
C643 C 0.02562 0.80259 0.96073 0.0
C644 C 0.04763 0.79942 0.95615 0.0
C645 C 0.01414 0.79162 0.97251 0.0
H646 H 0.05587 0.76467 0.97988 0.0
H647 H 0.05564 0.80683 0.94689 0.0
C648 C 0.15992 0.76581 0.94985 0.0
N649 N 0.21361 0.77665 0.95477 0.0
C650 C 0.18256 0.78652 0.94313 0.0
C651 C 0.16452 0.75051 0.95902 0.0
C652 C 0.20957 0.79173 0.94578 0.0
C653 C 0.19184 0.75631 0.96138 0.0
C654 C 0.04712 0.74215 0.94271 0.0
C655 C 0.02528 0.72375 0.9505 0.0
C656 C 0.04172 0.75572 0.93298 0.0
C657 C 0.99834 0.71939 0.94849 0.0
C658 C 0.01448 0.75073 0.93125 0.0
N659 N 0.99354 0.73286 0.93899 0.0
C660 C 0.06314 0.69129 0.96999 0.0
C661 C 0.09239 0.687 0.95494 0.0
C662 C 0.05027 0.66277 0.97272 0.0
N663 N 0.0835 0.70264 0.96114 0.0
C664 C 0.08024 0.65838 0.95746 0.0
C665 C 0.05858 0.64589 0.96632 0.0
H666 H 0.05658 0.70436 0.97476 0.0
H667 H 0.10849 0.69664 0.94787 0.0
C668 C 0.14091 0.80638 0.91792 0.0
N669 N 0.11798 0.78214 0.92156 0.0
C670 C 0.14703 0.8122 0.90526 0.0
C671 C 0.10575 0.76796 0.90031 0.0
C672 C 0.10052 0.76292 0.9131 0.0
C673 C 0.12932 0.79287 0.89626 0.0
H674 H 0.15432 0.82128 0.9249 0.0
H675 H 0.08253 0.74373 0.91631 0.0
O676 O 0.10121 0.76551 0.97077 0.0
O677 O 0.12035 0.80934 0.94884 0.0
O678 O 0.13341 0.76085 0.94761 0.0
O679 O 0.07377 0.74729 0.94473 0.0
H680 H 0.11272 0.81052 0.98405 0.0
H681 H 0.11321 0.73265 0.98429 0.0
H682 H 0.13221 0.81994 0.00557 0.0
H683 H 0.13228 0.74321 0.00587 0.0
H684 H 0.09687 0.86603 0.92757 0.0
H685 H 0.1266 0.84373 0.96741 0.0
H686 H 0.10433 0.82524 0.92859 0.0
H687 H 0.11841 0.88399 0.96575 0.0
H688 H 0.21336 0.82353 0.99038 0.0
H689 H 0.21565 0.88301 0.96335 0.0
H690 H 0.01734 0.76951 0.98865 0.0
H691 H 0.01714 0.81274 0.95497 0.0
H692 H 0.17932 0.79862 0.93604 0.0
H693 H 0.14722 0.73458 0.96438 0.0
H694 H 0.22733 0.80781 0.94071 0.0
H695 H 0.19575 0.74474 0.9685 0.0
H696 H 0.02914 0.71321 0.95811 0.0
H697 H 0.05847 0.77029 0.92695 0.0
H698 H 0.98126 0.70536 0.95451 0.0
H699 H 0.01001 0.76121 0.9238 0.0
H700 H 0.03384 0.65396 0.9797 0.0
H701 H 0.08703 0.646 0.95223 0.0
H702 H 0.16519 0.83181 0.90253 0.0
H703 H 0.09174 0.75243 0.89367 0.0
Li704 Li 0.31066 0.0894 0.29308 0.0
Li705 Li 0.34574 0.13881 0.29626 0.0
Li706 Li 0.3382 0.11776 0.27492 0.0
Li707 Li 0.36251 0.10727 0.2914 0.0
C708 C 0.2863 0.11883 0.2816 0.0
N709 N 0.23532 0.11085 0.2733 0.0
C710 C 0.27395 0.1327 0.28744 0.0
C711 C 0.27288 0.10122 0.27144 0.0
C712 C 0.24812 0.12829 0.28314 0.0
C713 C 0.24708 0.09738 0.26741 0.0
C714 C 0.34182 0.11462 0.31825 0.0
C715 C 0.36913 0.14227 0.33578 0.0
N716 N 0.34518 0.13322 0.34251 0.0
C717 C 0.31749 0.10537 0.32536 0.0
C718 C 0.36788 0.13301 0.32352 0.0
C719 C 0.31963 0.11509 0.3376 0.0
C720 C 0.27484 0.03359 0.29959 0.0
N721 N 0.27611 0.05877 0.29855 0.0
C722 C 0.2292 0.03914 0.30611 0.0
C723 C 0.25403 0.062 0.30179 0.0
C724 C 0.2272 0.01278 0.30724 0.0
C725 C 0.25048 0.0102 0.3039 0.0
H726 H 0.29292 0.03178 0.29716 0.0
H727 H 0.25577 0.08236 0.30118 0.0
C728 C 0.37531 0.19654 0.30294 0.0
N729 N 0.352 0.17128 0.30501 0.0
C730 C 0.37784 0.22076 0.3084 0.0
C731 C 0.33276 0.19219 0.31825 0.0
C732 C 0.33104 0.16868 0.31255 0.0
C733 C 0.35619 0.21873 0.31605 0.0
H734 H 0.39145 0.19803 0.29672 0.0
H735 H 0.31244 0.14845 0.31375 0.0
C736 C 0.32242 0.05967 0.27174 0.0
N737 N 0.30393 0.01703 0.25431 0.0
C738 C 0.34119 0.05256 0.26641 0.0
C739 C 0.29414 0.04472 0.26837 0.0
C740 C 0.33148 0.03105 0.25757 0.0
C741 C 0.28523 0.02334 0.2595 0.0
C742 C 0.40184 0.15568 0.28113 0.0
C743 C 0.41138 0.15697 0.2689 0.0
C744 C 0.42107 0.16623 0.29097 0.0
C745 C 0.44006 0.16844 0.26675 0.0
C746 C 0.44957 0.1775 0.28843 0.0
N747 N 0.4584 0.17835 0.27648 0.0
C748 C 0.33046 0.14499 0.25458 0.0
C749 C 0.343 0.11127 0.24866 0.0
C750 C 0.32933 0.15161 0.24208 0.0
N751 N 0.33695 0.12495 0.25761 0.0
C752 C 0.34206 0.11717 0.23604 0.0
C753 C 0.33511 0.13757 0.23262 0.0
H754 H 0.32613 0.15583 0.26191 0.0
H755 H 0.34898 0.0961 0.25129 0.0
C756 C 0.39009 0.0863 0.30606 0.0
N757 N 0.39005 0.09699 0.29461 0.0
C758 C 0.40818 0.07605 0.30855 0.0
C759 C 0.42636 0.08869 0.28753 0.0
C760 C 0.4077 0.09839 0.2854 0.0
C761 C 0.42643 0.07697 0.29917 0.0
H762 H 0.37555 0.08507 0.31315 0.0
H763 H 0.40672 0.10623 0.27627 0.0
O764 O 0.31159 0.12292 0.28573 0.0
O765 O 0.34012 0.1056 0.3062 0.0
O766 O 0.33159 0.08054 0.2805 0.0
O767 O 0.37384 0.14441 0.28342 0.0
H768 H 0.28415 0.14665 0.29522 0.0
H769 H 0.28243 0.09093 0.26661 0.0
H770 H 0.23828 0.13878 0.28761 0.0
H771 H 0.23648 0.08378 0.25956 0.0
H772 H 0.38915 0.15664 0.33996 0.0
H773 H 0.29717 0.09103 0.32144 0.0
H774 H 0.3869 0.14011 0.31818 0.0
H775 H 0.30096 0.10827 0.34319 0.0
H776 H 0.21176 0.04208 0.30852 0.0
H777 H 0.25012 0.99046 0.30484 0.0
H778 H 0.39615 0.24088 0.30643 0.0
H779 H 0.31523 0.18975 0.3238 0.0
H780 H 0.36307 0.06366 0.26899 0.0
H781 H 0.27912 0.0493 0.27264 0.0
H782 H 0.34583 0.0255 0.2533 0.0
H783 H 0.26342 0.01166 0.25679 0.0
H784 H 0.39679 0.14905 0.26117 0.0
H785 H 0.41404 0.16561 0.30046 0.0
H786 H 0.44774 0.16944 0.25735 0.0
H787 H 0.46468 0.18559 0.29597 0.0
H788 H 0.32372 0.16735 0.23986 0.0
H789 H 0.34723 0.10627 0.22905 0.0
H790 H 0.40768 0.0672 0.31765 0.0
H791 H 0.43977 0.0893 0.27999 0.0
Li792 Li 0.22265 0.31274 0.62519 0.0
Li793 Li 0.20453 0.34319 0.62773 0.0
Li794 Li 0.22116 0.33774 0.60661 0.0
Li795 Li 0.25366 0.3626 0.62459 0.0
C796 C 0.17258 0.2812 0.61487 0.0
N797 N 0.13923 0.22409 0.61123 0.0
C798 C 0.15858 0.26354 0.62497 0.0
C799 C 0.16952 0.26973 0.60292 0.0
C800 C 0.14188 0.23475 0.62294 0.0
C801 C 0.15257 0.24084 0.60127 0.0
C802 C 0.22032 0.34265 0.64983 0.0
C803 C 0.2178 0.37153 0.66614 0.0
N804 N 0.19601 0.34842 0.67138 0.0
C805 C 0.19802 0.31916 0.65542 0.0
C806 C 0.23039 0.36905 0.65525 0.0
C807 C 0.18596 0.32251 0.6663 0.0
C808 C 0.22891 0.27811 0.64266 0.0
N809 N 0.22139 0.27889 0.63062 0.0
C810 C 0.21325 0.23256 0.62703 0.0
C811 C 0.21424 0.25696 0.62273 0.0
C812 C 0.22041 0.23104 0.63947 0.0
C813 C 0.22861 0.2543 0.6473 0.0
H814 H 0.23526 0.29605 0.64867 0.0
H815 H 0.20934 0.25836 0.61308 0.0
C816 C 0.18024 0.37373 0.63897 0.0
N817 N 0.17583 0.34834 0.63504 0.0
C818 C 0.15794 0.37646 0.64358 0.0
C819 C 0.12725 0.32693 0.63999 0.0
C820 C 0.15 0.3252 0.63551 0.0
C821 C 0.13093 0.35286 0.64394 0.0
H822 H 0.20094 0.3919 0.63841 0.0
H823 H 0.14693 0.30539 0.63223 0.0
C824 C 0.26688 0.32007 0.61213 0.0
N825 N 0.29387 0.28927 0.6114 0.0
C826 C 0.28564 0.32305 0.6216 0.0
C827 C 0.26193 0.30157 0.60225 0.0
C828 C 0.29905 0.30724 0.62107 0.0
C829 C 0.27578 0.28616 0.60206 0.0
C830 C 0.24513 0.40052 0.61303 0.0
C831 C 0.25329 0.40957 0.60074 0.0
C832 C 0.25471 0.42009 0.62275 0.0
C833 C 0.27113 0.43807 0.5984 0.0
C834 C 0.27256 0.4484 0.62003 0.0
N835 N 0.28034 0.45672 0.60801 0.0
C836 C 0.19024 0.33479 0.58562 0.0
C837 C 0.23498 0.34093 0.58079 0.0
C838 C 0.18413 0.33454 0.57296 0.0
N839 N 0.21518 0.3377 0.58924 0.0
C840 C 0.22982 0.341 0.568 0.0
C841 C 0.20403 0.33761 0.56397 0.0
H842 H 0.17506 0.33254 0.59261 0.0
H843 H 0.25477 0.34355 0.58398 0.0
C844 C 0.30087 0.39274 0.64005 0.0
N845 N 0.29092 0.39083 0.62824 0.0
C846 C 0.32917 0.41077 0.64263 0.0
C847 C 0.33631 0.42491 0.62092 0.0
C848 C 0.30796 0.40634 0.61872 0.0
C849 C 0.34729 0.42691 0.63296 0.0
H850 H 0.28707 0.37944 0.64734 0.0
H851 H 0.29973 0.40358 0.60933 0.0
O852 O 0.18898 0.30953 0.61665 0.0
O853 O 0.23182 0.33988 0.63896 0.0
O854 O 0.25309 0.33489 0.61263 0.0
O855 O 0.22783 0.37267 0.61551 0.0
H856 H 0.1609 0.27186 0.63432 0.0
H857 H 0.1803 0.28287 0.59499 0.0
H858 H 0.1311 0.22087 0.63069 0.0
H859 H 0.15011 0.23171 0.59208 0.0
H860 H 0.22526 0.39186 0.67039 0.0
H861 H 0.18996 0.29858 0.65136 0.0
H862 H 0.24751 0.38749 0.65102 0.0
H863 H 0.16858 0.30453 0.67068 0.0
H864 H 0.2073 0.21521 0.62065 0.0
H865 H 0.23431 0.25391 0.65696 0.0
H866 H 0.16163 0.39682 0.64653 0.0
H867 H 0.10691 0.30807 0.64036 0.0
H868 H 0.28954 0.33716 0.62935 0.0
H869 H 0.24726 0.29885 0.59491 0.0
H870 H 0.3135 0.3092 0.62837 0.0
H871 H 0.27204 0.27163 0.59451 0.0
H872 H 0.24601 0.39477 0.59309 0.0
H873 H 0.24881 0.41346 0.63232 0.0
H874 H 0.27768 0.44535 0.58894 0.0
H875 H 0.28031 0.46373 0.62748 0.0
H876 H 0.16418 0.33232 0.57025 0.0
H877 H 0.24566 0.34333 0.56134 0.0
H878 H 0.33693 0.41167 0.65203 0.0
H879 H 0.34976 0.43657 0.61317 0.0
Li880 Li 0.86764 0.20636 0.9592 0.0
Li881 Li 0.91777 0.22771 0.95625 0.0
Li882 Li 0.8942 0.25513 0.95649 0.0
Li883 Li 0.88714 0.22608 0.93852 0.0
C884 C 0.88443 0.22376 0.9814 0.0
N885 N 0.85509 0.20207 0.00338 0.0
C886 C 0.88745 0.20365 0.9881 0.0
C887 C 0.86669 0.23304 0.98595 0.0
C888 C 0.87238 0.19288 0.99917 0.0
C889 C 0.85199 0.22178 0.99706 0.0
C890 C 0.89782 0.18197 0.93984 0.0
C891 C 0.93314 0.1848 0.92563 0.0
N892 N 0.91787 0.1566 0.92387 0.0
C893 C 0.88246 0.15305 0.93787 0.0
C894 C 0.92335 0.19802 0.93366 0.0
C895 C 0.89296 0.14061 0.92978 0.0
C896 C 0.81243 0.17358 0.96951 0.0
N897 N 0.83705 0.17475 0.96671 0.0
C898 C 0.81833 0.12679 0.97234 0.0
C899 C 0.84052 0.15221 0.96823 0.0
C900 C 0.79237 0.12463 0.97495 0.0
C901 C 0.78966 0.14855 0.97379 0.0
H902 H 0.81022 0.19179 0.96812 0.0
H903 H 0.86042 0.15386 0.96597 0.0
C904 C 0.97593 0.24585 0.95842 0.0
N905 N 0.94948 0.22479 0.96083 0.0
C906 C 0.99896 0.24399 0.96259 0.0
C907 C 0.96704 0.1984 0.97126 0.0
C908 C 0.94467 0.20112 0.96688 0.0
C909 C 0.99463 0.22021 0.9693 0.0
H910 H 0.97915 0.26422 0.95338 0.0
H911 H 0.92338 0.18444 0.9684 0.0
C912 C 0.84449 0.24351 0.94597 0.0
N913 N 0.81674 0.27282 0.94155 0.0
C914 C 0.844 0.25322 0.93395 0.0
C915 C 0.83066 0.24851 0.95572 0.0
C916 C 0.82989 0.26803 0.93191 0.0
C917 C 0.81684 0.26345 0.9533 0.0
C918 C 0.93691 0.2857 0.94162 0.0
C919 C 0.92904 0.29587 0.93135 0.0
C920 C 0.95818 0.3045 0.94957 0.0
C921 C 0.94261 0.32472 0.92918 0.0
C922 C 0.97116 0.33321 0.94712 0.0
N923 N 0.96319 0.34264 0.93705 0.0
C924 C 0.91495 0.30136 0.97266 0.0
C925 C 0.89484 0.30756 0.95421 0.0
C926 C 0.92465 0.32912 0.97617 0.0
N927 N 0.90066 0.29124 0.96176 0.0
C928 C 0.90377 0.33527 0.95745 0.0
C929 C 0.91938 0.3465 0.96841 0.0
H930 H 0.92002 0.28827 0.97834 0.0
H931 H 0.88477 0.29975 0.94532 0.0
C932 C 0.85352 0.19994 0.91794 0.0
N933 N 0.88026 0.21883 0.92122 0.0
C934 C 0.84663 0.19262 0.90543 0.0
C935 C 0.89506 0.22406 0.89992 0.0
C936 C 0.90103 0.23078 0.91257 0.0
C937 C 0.86753 0.20471 0.89623 0.0
H938 H 0.83755 0.19061 0.92508 0.0
H939 H 0.92224 0.24529 0.9155 0.0
O940 O 0.89829 0.23391 0.97033 0.0
O941 O 0.88759 0.19441 0.94765 0.0
O942 O 0.85788 0.22865 0.94811 0.0
O943 O 0.92338 0.25756 0.94407 0.0
H944 H 0.90107 0.19623 0.98473 0.0
H945 H 0.86421 0.24868 0.98092 0.0
H946 H 0.87438 0.17717 0.0044 0.0
H947 H 0.83809 0.22868 0.00065 0.0
H948 H 0.95285 0.19696 0.92079 0.0
H949 H 0.86257 0.14035 0.94253 0.0
H950 H 0.93547 0.22045 0.93498 0.0
H951 H 0.88129 0.11823 0.92817 0.0
H952 H 0.82133 0.1089 0.97331 0.0
H953 H 0.7699 0.1476 0.9757 0.0
H954 H 0.01989 0.2613 0.9609 0.0
H955 H 0.96278 0.17948 0.97616 0.0
H956 H 0.85466 0.24972 0.92629 0.0
H957 H 0.83073 0.24113 0.96507 0.0
H958 H 0.82948 0.27579 0.92267 0.0
H959 H 0.80619 0.2676 0.96078 0.0
H960 H 0.91229 0.2817 0.92523 0.0
H961 H 0.96415 0.29707 0.95772 0.0
H962 H 0.93663 0.33289 0.9213 0.0
H963 H 0.98744 0.34801 0.95326 0.0
H964 H 0.93675 0.33713 0.98467 0.0
H965 H 0.89989 0.34823 0.95107 0.0
H966 H 0.8251 0.17785 0.90299 0.0
H967 H 0.91188 0.23353 0.89315 0.0
Li968 Li 0.68945 0.91105 0.29196 0.0
Li969 Li 0.6548 0.863 0.29419 0.0
Li970 Li 0.6604 0.88291 0.27392 0.0
Li971 Li 0.64058 0.89621 0.29153 0.0
C972 C 0.71207 0.88646 0.27655 0.0
N973 N 0.75955 0.90308 0.26222 0.0
C974 C 0.72581 0.87093 0.27671 0.0
C975 C 0.72248 0.91045 0.26908 0.0
C976 C 0.74978 0.87968 0.26941 0.0
C977 C 0.74651 0.91849 0.26191 0.0
C978 C 0.67559 0.89309 0.31619 0.0
C979 C 0.68384 0.89999 0.3384 0.0
N980 N 0.70338 0.89187 0.33749 0.0
C981 C 0.69579 0.88484 0.31548 0.0
C982 C 0.66959 0.90075 0.32774 0.0
C983 C 0.70958 0.88435 0.32635 0.0
C984 C 0.72361 0.96316 0.30248 0.0
N985 N 0.72444 0.94071 0.29776 0.0
C986 C 0.77274 0.96103 0.30336 0.0
C987 C 0.74828 0.93913 0.29818 0.0
C988 C 0.77253 0.98461 0.30824 0.0
C989 C 0.74753 0.98552 0.30769 0.0
H990 H 0.70412 0.9634 0.3024 0.0
H991 H 0.74823 0.92063 0.29482 0.0
C992 C 0.65512 0.81291 0.2955 0.0
N993 N 0.64715 0.82893 0.30199 0.0
C994 C 0.65264 0.78873 0.30084 0.0
C995 C 0.63277 0.7974 0.31931 0.0
C996 C 0.63563 0.82148 0.31358 0.0
C997 C 0.64184 0.78096 0.31301 0.0
H998 H 0.66411 0.81938 0.28627 0.0
H999 H 0.62928 0.83457 0.31848 0.0
C1000 C 0.65957 0.93778 0.27523 0.0
N1001 N 0.63643 0.97002 0.26803 0.0
C1002 C 0.63425 0.92565 0.26866 0.0
C1003 C 0.67328 0.96639 0.27801 0.0
C1004 C 0.62285 0.94227 0.26514 0.0
C1005 C 0.6612 0.98231 0.27432 0.0
C1006 C 0.60443 0.83346 0.28579 0.0
C1007 C 0.60074 0.81088 0.27845 0.0
C1008 C 0.58793 0.82861 0.29644 0.0
C1009 C 0.5807 0.7837 0.28197 0.0
C1010 C 0.56808 0.80111 0.29963 0.0
N1011 N 0.56493 0.77941 0.2924 0.0
C1012 C 0.66158 0.8521 0.25362 0.0
C1013 C 0.66011 0.89274 0.24761 0.0
C1014 C 0.66217 0.8451 0.24114 0.0
N1015 N 0.66041 0.87546 0.2566 0.0
C1016 C 0.66032 0.88636 0.23499 0.0
C1017 C 0.66136 0.86222 0.23159 0.0
H1018 H 0.66234 0.83905 0.26099 0.0
H1019 H 0.65984 0.91152 0.2502 0.0
C1020 C 0.62727 0.93318 0.30286 0.0
N1021 N 0.61581 0.90909 0.29611 0.0
C1022 C 0.61194 0.94656 0.30515 0.0
C1023 C 0.57278 0.90925 0.29406 0.0
C1024 C 0.58899 0.89668 0.29188 0.0
C1025 C 0.58452 0.93486 0.30053 0.0
H1026 H 0.64875 0.94256 0.30601 0.0
H1027 H 0.58063 0.87772 0.28638 0.0
O1028 O 0.68846 0.87786 0.28363 0.0
O1029 O 0.66178 0.89396 0.30571 0.0
O1030 O 0.67052 0.92158 0.27915 0.0
O1031 O 0.62443 0.86016 0.2827 0.0
H1032 H 0.71802 0.85232 0.28244 0.0
H1033 H 0.71225 0.92279 0.26879 0.0
H1034 H 0.76063 0.86787 0.26946 0.0
H1035 H 0.75478 0.937 0.25609 0.0
H1036 H 0.67939 0.90587 0.34739 0.0
H1037 H 0.70081 0.87884 0.30667 0.0
H1038 H 0.65406 0.90726 0.32844 0.0
H1039 H 0.72523 0.878 0.32593 0.0
H1040 H 0.79137 0.95917 0.30383 0.0
H1041 H 0.74639 0.00332 0.31125 0.0
H1042 H 0.66034 0.77702 0.2957 0.0
H1043 H 0.62412 0.79203 0.32865 0.0
H1044 H 0.62324 0.90347 0.26653 0.0
H1045 H 0.69303 0.97624 0.28295 0.0
H1046 H 0.60313 0.93308 0.26016 0.0
H1047 H 0.67152 0.00445 0.27646 0.0
H1048 H 0.61337 0.8143 0.27019 0.0
H1049 H 0.59072 0.84587 0.30227 0.0
H1050 H 0.57771 0.766 0.27642 0.0
H1051 H 0.55528 0.79701 0.30789 0.0
H1052 H 0.66364 0.82667 0.23902 0.0
H1053 H 0.65942 0.90008 0.22799 0.0
H1054 H 0.62162 0.96614 0.31027 0.0
H1055 H 0.5518 0.89976 0.29024 0.0
H1056 H 0.56975 0.61584 0.01469 0.0
H1057 H 0.54517 0.56461 0.01353 0.0
H1058 H 0.52785 0.55963 0.05307 0.0
H1059 H 0.55296 0.61072 0.05437 0.0
H1060 H 0.54858 0.52613 0.04632 0.0
H1061 H 0.47688 0.54513 0.0318 0.0
H1062 H 0.45704 0.56704 0.01822 0.0
H1063 H 0.46995 0.52835 0.98601 0.0
H1064 H 0.49023 0.50651 0.99939 0.0
H1065 H 0.4424 0.3862 0.0548 0.0
H1066 H 0.47032 0.43703 0.05325 0.0
H1067 H 0.48192 0.43036 0.01377 0.0
H1068 H 0.45416 0.37917 0.01527 0.0
H1069 H 0.46695 0.46967 0.01875 0.0
H1070 H 0.53565 0.44804 0.03333 0.0
H1071 H 0.55536 0.4259 0.04683 0.0
H1072 H 0.54861 0.46949 0.07872 0.0
H1073 H 0.52846 0.49159 0.06544 0.0
C1074 C 0.56068 0.6038 0.02313 0.0
C1075 C 0.56326 0.61732 0.03462 0.0
C1076 C 0.54649 0.57456 0.02243 0.0
C1077 C 0.53459 0.55835 0.0332 0.0
C1078 C 0.53688 0.57178 0.04464 0.0
C1079 C 0.55099 0.60097 0.04535 0.0
C1080 C 0.52046 0.52737 0.03269 0.0
C1081 C 0.53054 0.51375 0.04039 0.0
C1082 C 0.49757 0.51134 0.02462 0.0
C1083 C 0.48536 0.52445 0.01658 0.0
C1084 C 0.47572 0.5415 0.02181 0.0
C1085 C 0.46435 0.55386 0.01415 0.0
C1086 C 0.46232 0.54916 0.00126 0.0
C1087 C 0.47158 0.53202 0.996 0.0
C1088 C 0.483 0.51962 0.00361 0.0
C1089 C 0.45131 0.39544 0.04582 0.0
C1090 C 0.44624 0.37857 0.03517 0.0
C1091 C 0.46719 0.42454 0.04494 0.0
C1092 C 0.47844 0.43745 0.03342 0.0
C1093 C 0.47343 0.42077 0.02275 0.0
C1094 C 0.45753 0.39156 0.02362 0.0
C1095 C 0.49473 0.46841 0.03258 0.0
C1096 C 0.48513 0.48204 0.0246 0.0
C1097 C 0.51813 0.48449 0.04037 0.0
C1098 C 0.53033 0.47131 0.0484 0.0
C1099 C 0.53816 0.45274 0.04324 0.0
C1100 C 0.54945 0.44022 0.05085 0.0
C1101 C 0.55318 0.44624 0.06363 0.0
C1102 C 0.54569 0.46483 0.06882 0.0
C1103 C 0.53436 0.47739 0.06125 0.0
H1104 H 0.56193 0.43653 0.0695 0.0
H1105 H 0.4535 0.55875 0.99535 0.0
H1106 H 0.084 0.46762 0.35518 0.0
H1107 H 0.0599 0.49459 0.353 0.0
H1108 H 0.98353 0.42393 0.36668 0.0
H1109 H 0.00737 0.39681 0.36864 0.0
H1110 H 0.97202 0.4478 0.34806 0.0
H1111 H 0.02682 0.47971 0.38572 0.0
H1112 H 0.06989 0.49889 0.3984 0.0
H1113 H 0.10731 0.5739 0.37623 0.0
H1114 H 0.06457 0.55498 0.3633 0.0
H1115 H 0.90126 0.51739 0.37121 0.0
H1116 H 0.9253 0.49047 0.3685 0.0
H1117 H 0.99471 0.56179 0.35087 0.0
H1118 H 0.97094 0.58888 0.35364 0.0
H1119 H 0.01088 0.53909 0.36997 0.0
H1120 H 0.95288 0.50729 0.33342 0.0
H1121 H 0.90858 0.48739 0.32163 0.0
H1122 H 0.8756 0.41127 0.34286 0.0
H1123 H 0.91958 0.43087 0.35491 0.0
C1124 C 0.06206 0.45789 0.35769 0.0
C1125 C 0.04756 0.43018 0.36211 0.0
C1126 C 0.04832 0.47327 0.35644 0.0
C1127 C 0.02 0.46139 0.35984 0.0
C1128 C 0.00535 0.4335 0.36397 0.0
C1129 C 0.01899 0.41803 0.36509 0.0
C1130 C 0.00578 0.4782 0.35949 0.0
C1131 C 0.9804 0.46765 0.35294 0.0
C1132 C 0.01696 0.50434 0.36567 0.0
C1133 C 0.04263 0.5158 0.37346 0.0
C1134 C 0.04432 0.5002 0.38349 0.0
C1135 C 0.06865 0.51104 0.39073 0.0
C1136 C 0.09135 0.53757 0.3881 0.0
C1137 C 0.08973 0.55334 0.37824 0.0
C1138 C 0.06545 0.54258 0.37096 0.0
C1139 C 0.92156 0.52723 0.36668 0.0
C1140 C 0.93423 0.55519 0.36263 0.0
C1141 C 0.93516 0.5118 0.36507 0.0
C1142 C 0.96169 0.52414 0.35943 0.0
C1143 C 0.9742 0.55191 0.35521 0.0
C1144 C 0.96052 0.56726 0.35672 0.0
C1145 C 0.97709 0.5086 0.35862 0.0
C1146 C 0.00266 0.51937 0.36499 0.0
C1147 C 0.96591 0.48254 0.35241 0.0
C1148 C 0.93945 0.47066 0.34515 0.0
C1149 C 0.9361 0.4864 0.33565 0.0
C1150 C 0.91106 0.47515 0.3289 0.0
C1151 C 0.88927 0.44811 0.33151 0.0
C1152 C 0.89249 0.43223 0.34086 0.0
C1153 C 0.91749 0.44338 0.34764 0.0
H1154 H 0.8699 0.43944 0.32627 0.0
H1155 H 0.11017 0.54592 0.39372 0.0
H1156 H 0.37897 0.91781 0.68789 0.0
H1157 H 0.43003 0.94087 0.6859 0.0
H1158 H 0.439 0.00498 0.71174 0.0
H1159 H 0.38818 0.98213 0.71376 0.0
H1160 H 0.47296 0.02756 0.692 0.0
H1161 H 0.44973 0.95182 0.72093 0.0
H1162 H 0.42535 0.90251 0.72783 0.0
H1163 H 0.46152 0.8809 0.69728 0.0
H1164 H 0.48583 0.93005 0.6901 0.0
H1165 H 0.61258 0.08474 0.71368 0.0
H1166 H 0.56158 0.06138 0.7115 0.0
H1167 H 0.56411 0.00546 0.68397 0.0
H1168 H 0.6151 0.02857 0.6862 0.0
H1169 H 0.5245 0.97773 0.70226 0.0
H1170 H 0.55113 0.05473 0.67448 0.0
H1171 H 0.57583 0.10423 0.66791 0.0
H1172 H 0.53364 0.12377 0.69652 0.0
H1173 H 0.50897 0.07443 0.7034 0.0
C1174 C 0.39187 0.93672 0.6932 0.0
C1175 C 0.37957 0.94818 0.70097 0.0
C1176 C 0.421 0.94989 0.69203 0.0
C1177 C 0.43829 0.97456 0.69872 0.0
C1178 C 0.42604 0.98607 0.70643 0.0
C1179 C 0.39699 0.973 0.70756 0.0
C1180 C 0.46921 0.98841 0.69785 0.0
C1181 C 0.48426 0.01674 0.69434 0.0
C1182 C 0.48387 0.97406 0.70057 0.0
C1183 C 0.46933 0.94453 0.7049 0.0
C1184 C 0.45229 0.9365 0.71562 0.0
C1185 C 0.43852 0.9086 0.7196 0.0
C1186 C 0.44181 0.88857 0.71297 0.0
C1187 C 0.45895 0.89643 0.70239 0.0
C1188 C 0.47274 0.9243 0.69837 0.0
C1189 C 0.60225 0.06753 0.70714 0.0
C1190 C 0.61777 0.05848 0.7001 0.0
C1191 C 0.57318 0.05433 0.70584 0.0
C1192 C 0.55915 0.03183 0.69751 0.0
C1193 C 0.5746 0.02286 0.69041 0.0
C1194 C 0.60369 0.03619 0.69164 0.0
C1195 C 0.52823 0.01698 0.69663 0.0
C1196 C 0.51319 0.98847 0.69979 0.0
C1197 C 0.51359 0.03119 0.69363 0.0
C1198 C 0.52838 0.06091 0.68953 0.0
C1199 C 0.54729 0.06962 0.67945 0.0
C1200 C 0.56126 0.09765 0.67565 0.0
C1201 C 0.55636 0.11715 0.68181 0.0
C1202 C 0.53744 0.10865 0.69177 0.0
C1203 C 0.52343 0.08064 0.69561 0.0
H1204 H 0.56718 0.13884 0.67885 0.0
H1205 H 0.43114 0.86698 0.71607 0.0
H1206 H 0.61039 0.59887 0.62781 0.0
H1207 H 0.55954 0.57288 0.6302 0.0
H1208 H 0.56326 0.49969 0.64167 0.0
H1209 H 0.61425 0.52556 0.63895 0.0
H1210 H 0.52301 0.4851 0.62572 0.0
H1211 H 0.54999 0.54039 0.66279 0.0
H1212 H 0.57425 0.58332 0.67553 0.0
H1213 H 0.52986 0.6178 0.65638 0.0
H1214 H 0.50561 0.57522 0.64339 0.0
H1215 H 0.38081 0.41131 0.64506 0.0
H1216 H 0.43192 0.43787 0.64691 0.0
H1217 H 0.43384 0.50735 0.62745 0.0
H1218 H 0.38261 0.48084 0.62555 0.0
H1219 H 0.47072 0.52236 0.64899 0.0
H1220 H 0.44632 0.46675 0.61114 0.0
H1221 H 0.42164 0.42265 0.5992 0.0
H1222 H 0.46142 0.38743 0.62134 0.0
H1223 H 0.48602 0.43121 0.63355 0.0
C1224 C 0.60037 0.57733 0.63098 0.0
C1225 C 0.61622 0.56424 0.63326 0.0
C1226 C 0.57132 0.56251 0.63238 0.0
C1227 C 0.55757 0.53445 0.63633 0.0
C1228 C 0.5734 0.52134 0.63864 0.0
C1229 C 0.60248 0.53608 0.63708 0.0
C1230 C 0.52659 0.51852 0.63749 0.0
C1231 C 0.51168 0.49305 0.63102 0.0
C1232 C 0.51167 0.52905 0.64422 0.0
C1233 C 0.52614 0.55469 0.65204 0.0
C1234 C 0.54555 0.55721 0.66123 0.0
C1235 C 0.55928 0.58147 0.6685 0.0
C1236 C 0.55365 0.6033 0.66674 0.0
C1237 C 0.53422 0.60088 0.65772 0.0
C1238 C 0.52045 0.57667 0.65041 0.0
C1239 C 0.39209 0.43244 0.64138 0.0
C1240 C 0.37782 0.44405 0.63514 0.0
C1241 C 0.42124 0.4475 0.64239 0.0
C1242 C 0.43654 0.47444 0.63725 0.0
C1243 C 0.42231 0.48656 0.63148 0.0
C1244 C 0.39315 0.47138 0.63033 0.0
C1245 C 0.46749 0.48926 0.63719 0.0
C1246 C 0.48227 0.51444 0.64383 0.0
C1247 C 0.48233 0.47834 0.63075 0.0
C1248 C 0.46776 0.45213 0.62334 0.0
C1249 C 0.44962 0.44951 0.61353 0.0
C1250 C 0.43568 0.4246 0.6067 0.0
C1251 C 0.4399 0.40222 0.60953 0.0
C1252 C 0.45814 0.40476 0.61918 0.0
C1253 C 0.47209 0.42962 0.62605 0.0
H1254 H 0.42909 0.38295 0.60424 0.0
H1255 H 0.5643 0.62206 0.67239 0.0
H1256 H 0.89404 0.37822 0.96801 0.0
H1257 H 0.91657 0.42922 0.96999 0.0
H1258 H 0.99628 0.43408 0.97614 0.0
H1259 H 0.97369 0.38306 0.97448 0.0
H1260 H 0.99238 0.47118 0.9904 0.0
H1261 H 0.97691 0.44521 0.94712 0.0
H1262 H 0.94907 0.41973 0.92863 0.0
H1263 H 0.89791 0.45765 0.93319 0.0
H1264 H 0.9252 0.48302 0.95184 0.0
H1265 H 0.08151 0.61222 0.96943 0.0
H1266 H 0.0566 0.56115 0.97194 0.0
H1267 H 0.97753 0.55938 0.97035 0.0
H1268 H 0.00224 0.6103 0.96776 0.0
H1269 H 0.9804 0.52107 0.95441 0.0
H1270 H -0.00068 0.54932 0.99751 0.0
H1271 H 0.02915 0.57502 0.01549 0.0
H1272 H 0.07677 0.53346 0.01042 0.0
H1273 H 0.04746 0.50779 0.99229 0.0
C1274 C 0.9163 0.39021 0.96994 0.0
C1275 C 0.93217 0.3768 0.97105 0.0
C1276 C 0.92916 0.4193 0.97104 0.0
C1277 C 0.95822 0.43551 0.97297 0.0
C1278 C 0.97386 0.42201 0.97464 0.0
C1279 C 0.96093 0.39288 0.97371 0.0
C1280 C 0.97256 0.46655 0.9725 0.0
C1281 C 0.98997 0.48209 0.98248 0.0
C1282 C 0.96919 0.48081 0.96222 0.0
C1283 C 0.95292 0.46579 0.95094 0.0
C1284 C 0.9596 0.44796 0.94423 0.0
C1285 C 0.94393 0.43356 0.93372 0.0
C1286 C 0.92169 0.43702 0.92976 0.0
C1287 C 0.91512 0.45495 0.93628 0.0
C1288 C 0.93069 0.46936 0.94682 0.0
C1289 C 0.05882 0.60091 0.96965 0.0
C1290 C 0.0438 0.61521 0.96842 0.0
C1291 C 0.04465 0.57182 0.97116 0.0
C1292 C 0.01525 0.55658 0.97141 0.0
C1293 C 0.00023 0.57081 0.97024 0.0
C1294 C 0.01436 0.59988 0.96884 0.0
C1295 C 9e-05 0.52564 0.97232 0.0
C1296 C 0.98265 0.51013 0.96237 0.0
C1297 C 0.00376 0.51149 0.98253 0.0
C1298 C 0.02135 0.52684 0.99346 0.0
C1299 C 0.0163 0.54584 0.00016 0.0
C1300 C 0.03309 0.56036 0.01039 0.0
C1301 C 0.05489 0.55593 0.01407 0.0
C1302 C 0.0599 0.5369 0.00755 0.0
C1303 C 0.04319 0.52234 0.9973 0.0
H1304 H 0.06786 0.56719 0.022 0.0
H1305 H 0.90958 0.42585 0.92162 0.0
H1306 H 0.48184 0.09918 0.29349 0.0
H1307 H 0.51004 0.07635 0.29527 0.0
H1308 H 0.439 0.00287 0.3108 0.0
H1309 H 0.41096 0.02589 0.30929 0.0
H1310 H 0.48509 0.01246 0.32245 0.0
H1311 H 0.45688 0.00672 0.27963 0.0
H1312 H 0.45166 0.02498 0.25937 0.0
H1313 H 0.54109 0.07523 0.25606 0.0
H1314 H 0.54684 0.05757 0.2764 0.0
H1315 H 0.52986 0.91409 0.30751 0.0
H1316 H 0.50407 0.93964 0.30872 0.0
H1317 H 0.57835 0.01559 0.29741 0.0
H1318 H 0.60411 0.9902 0.29607 0.0
H1319 H 0.53118 0.00498 0.28396 0.0
H1320 H 0.55837 0.00822 0.32695 0.0
H1321 H 0.56207 0.98813 0.34697 0.0
H1322 H 0.47238 0.93984 0.34951 0.0
H1323 H 0.46814 0.95935 0.3294 0.0
C1324 C 0.47235 0.07823 0.29735 0.0
C1325 C 0.44421 0.06422 0.30119 0.0
C1326 C 0.48843 0.06519 0.29835 0.0
C1327 C 0.47646 0.03769 0.30295 0.0
C1328 C 0.44865 0.02407 0.30721 0.0
C1329 C 0.43267 0.03724 0.30636 0.0
C1330 C 0.49255 0.02271 0.30287 0.0
C1331 C 0.49491 0.01057 0.31401 0.0
C1332 C 0.50566 0.02052 0.29187 0.0
C1333 C 0.50228 0.03103 0.2796 0.0
C1334 C 0.47543 0.02182 0.27463 0.0
C1335 C 0.47238 0.03204 0.26312 0.0
C1336 C 0.49603 0.05131 0.25645 0.0
C1337 C 0.52279 0.06033 0.26125 0.0
C1338 C 0.52596 0.05021 0.27276 0.0
C1339 C 0.54064 0.93624 0.30531 0.0
C1340 C 0.56899 0.95022 0.30176 0.0
C1341 C 0.52598 0.95082 0.30608 0.0
C1342 C 0.53942 0.97952 0.30324 0.0
C1343 C 0.56768 0.99348 0.29968 0.0
C1344 C 0.58239 0.979 0.29901 0.0
C1345 C 0.52378 0.99487 0.30354 0.0
C1346 C 0.52143 0.00699 0.29241 0.0
C1347 C 0.51044 0.99672 0.31449 0.0
C1348 C 0.51295 0.98504 0.32661 0.0
C1349 C 0.53944 0.99314 0.33172 0.0
C1350 C 0.54163 0.98189 0.3431 0.0
C1351 C 0.51748 0.96267 0.34949 0.0
C1352 C 0.49107 0.95471 0.34454 0.0
C1353 C 0.48876 0.96587 0.33316 0.0
H1354 H 0.51922 0.95399 0.3583 0.0
H1355 H 0.49362 0.05919 0.24754 0.0
H1356 H 0.31274 0.10108 0.21303 0.0
H1357 H 0.31167 0.1123 0.191 0.0
H1358 H 0.35416 0.20042 0.19997 0.0
H1359 H 0.35526 0.18934 0.22204 0.0
H1360 H 0.31187 0.18725 0.18407 0.0
H1361 H 0.38929 0.17085 0.1866 0.0
H1362 H 0.4133 0.1446 0.19191 0.0
H1363 H 0.35752 0.07738 0.16779 0.0
H1364 H 0.33291 0.10307 0.16247 0.0
H1365 H 0.35332 0.23834 0.12192 0.0
H1366 H 0.35266 0.22754 0.14413 0.0
H1367 H 0.30706 0.13916 0.13575 0.0
H1368 H 0.30724 0.14973 0.11355 0.0
H1369 H 0.35114 0.15287 0.15135 0.0
H1370 H 0.27396 0.17005 0.1488 0.0
H1371 H 0.25072 0.19703 0.14348 0.0
H1372 H 0.30725 0.26383 0.16758 0.0
H1373 H 0.3311 0.2374 0.17292 0.0
C1374 C 0.32204 0.12286 0.2103 0.0
C1375 C 0.33419 0.14433 0.21926 0.0
C1376 C 0.32138 0.12923 0.19771 0.0
C1377 C 0.33313 0.15722 0.19382 0.0
C1378 C 0.34495 0.17868 0.20277 0.0
C1379 C 0.34551 0.17231 0.21537 0.0
C1380 C 0.33309 0.16409 0.18042 0.0
C1381 C 0.32079 0.18005 0.17693 0.0
C1382 C 0.34426 0.15423 0.17109 0.0
C1383 C 0.35908 0.13877 0.17424 0.0
C1384 C 0.382 0.15037 0.1825 0.0
C1385 C 0.39574 0.13561 0.1855 0.0
C1386 C 0.38689 0.1093 0.18022 0.0
C1387 C 0.36433 0.09774 0.17189 0.0
C1388 C 0.35049 0.1124 0.16888 0.0
C1389 C 0.34279 0.2166 0.12482 0.0
C1390 C 0.33033 0.1949 0.11595 0.0
C1391 C 0.34251 0.21047 0.13751 0.0
C1392 C 0.32968 0.18255 0.14158 0.0
C1393 C 0.31716 0.16085 0.13278 0.0
C1394 C 0.31738 0.16695 0.1201 0.0
C1395 C 0.32984 0.17593 0.155 0.0
C1396 C 0.34221 0.16004 0.15849 0.0
C1397 C 0.31886 0.18597 0.16432 0.0
C1398 C 0.30449 0.20186 0.16116 0.0
C1399 C 0.28159 0.19059 0.15289 0.0
C1400 C 0.26828 0.20576 0.14988 0.0
C1401 C 0.27755 0.23216 0.15516 0.0
C1402 C 0.30011 0.2434 0.16349 0.0
C1403 C 0.31352 0.22832 0.16651 0.0
H1404 H 0.26722 0.24387 0.15282 0.0
H1405 H 0.39756 0.09791 0.18255 0.0
H1406 H 0.10379 0.30319 0.45267 0.0
H1407 H 0.11613 0.30335 0.47462 0.0
H1408 H 0.19554 0.3784 0.46842 0.0
H1409 H 0.18316 0.37876 0.4465 0.0
H1410 H 0.20076 0.33851 0.48182 0.0
H1411 H 0.14488 0.38301 0.48307 0.0
H1412 H 0.10319 0.38728 0.47884 0.0
H1413 H 0.05214 0.31223 0.49985 0.0
H1414 H 0.09349 0.30729 0.50406 0.0
H1415 H 0.23835 0.37286 0.54573 0.0
H1416 H 0.22727 0.3734 0.52361 0.0
H1417 H 0.14467 0.3025 0.52964 0.0
H1418 H 0.15554 0.30203 0.55176 0.0
H1419 H 0.14155 0.34101 0.51618 0.0
H1420 H 0.19653 0.2957 0.51481 0.0
H1421 H 0.23769 0.29046 0.51894 0.0
H1422 H 0.28976 0.36554 0.49812 0.0
H1423 H 0.24896 0.37144 0.49402 0.0
C1424 C 0.12373 0.31996 0.456 0.0
C1425 C 0.14244 0.34104 0.44782 0.0
C1426 C 0.13079 0.31994 0.46853 0.0
C1427 C 0.15666 0.341 0.47315 0.0
C1428 C 0.1755 0.36192 0.46502 0.0
C1429 C 0.16841 0.36203 0.45249 0.0
C1430 C 0.1641 0.3411 0.48646 0.0
C1431 C 0.18806 0.33944 0.48935 0.0
C1432 C 0.14711 0.34164 0.49624 0.0
C1433 C 0.12224 0.34464 0.49377 0.0
C1434 C 0.12473 0.36729 0.4867 0.0
C1435 C 0.10116 0.36986 0.48433 0.0
C1436 C 0.07502 0.35 0.48905 0.0
C1437 C 0.0724 0.32757 0.49619 0.0
C1438 C 0.0959 0.32489 0.49858 0.0
C1439 C 0.21794 0.35721 0.5423 0.0
C1440 C 0.19781 0.3374 0.55047 0.0
C1441 C 0.21163 0.35753 0.52966 0.0
C1442 C 0.18521 0.33783 0.52494 0.0
C1443 C 0.16515 0.31795 0.53308 0.0
C1444 C 0.17137 0.31773 0.54572 0.0
C1445 C 0.17819 0.33827 0.51159 0.0
C1446 C 0.1543 0.34007 0.50867 0.0
C1447 C 0.19518 0.33771 0.50179 0.0
C1448 C 0.21973 0.33417 0.50421 0.0
C1449 C 0.2168 0.31122 0.5112 0.0
C1450 C 0.24006 0.3081 0.51352 0.0
C1451 C 0.26634 0.32769 0.50882 0.0
C1452 C 0.2694 0.3504 0.50177 0.0
C1453 C 0.24621 0.35363 0.49943 0.0
H1454 H 0.28432 0.32524 0.51063 0.0
H1455 H 0.0568 0.35203 0.4872 0.0
H1456 H 0.83259 0.18377 0.77686 0.0
H1457 H 0.84384 0.19559 0.79891 0.0
H1458 H 0.78653 0.10963 0.80905 0.0
H1459 H 0.77468 0.09789 0.78695 0.0
H1460 H 0.78149 0.14363 0.82475 0.0
H1461 H 0.85876 0.13688 0.80818 0.0
H1462 H 0.89727 0.14727 0.7935 0.0
H1463 H 0.93771 0.23428 0.8036 0.0
H1464 H 0.89924 0.22447 0.81821 0.0
H1465 H 0.83335 0.15265 0.88639 0.0
H1466 H 0.82078 0.14027 0.86447 0.0
H1467 H 0.87344 0.22683 0.85393 0.0
H1468 H 0.88601 0.23944 0.87587 0.0
H1469 H 0.88072 0.19187 0.83857 0.0
H1470 H 0.80282 0.19796 0.85523 0.0
H1471 H 0.7643 0.18688 0.87 0.0
H1472 H 0.72512 0.09995 0.85989 0.0
H1473 H 0.76364 0.11046 0.84518 0.0
C1474 C 0.82246 0.1674 0.7838 0.0
C1475 C 0.80296 0.13987 0.78021 0.0
C1476 C 0.82893 0.17415 0.79639 0.0
C1477 C 0.81646 0.15338 0.80563 0.0
C1478 C 0.79649 0.12597 0.80208 0.0
C1479 C 0.78973 0.11928 0.78948 0.0
C1480 C 0.82437 0.16028 0.81896 0.0
C1481 C 0.80316 0.15381 0.8278 0.0
C1482 C 0.8527 0.17406 0.82291 0.0
C1483 C 0.87599 0.17997 0.81421 0.0
C1484 C 0.87578 0.15826 0.80721 0.0
C1485 C 0.89761 0.16404 0.79891 0.0
C1486 C 0.91989 0.19142 0.7976 0.0
C1487 C 0.92043 0.21308 0.80461 0.0
C1488 C 0.89863 0.20742 0.81292 0.0
C1489 C 0.84208 0.1691 0.87942 0.0
C1490 C 0.86055 0.19707 0.88287 0.0
C1491 C 0.83491 0.16198 0.8669 0.0
C1492 C 0.8459 0.18269 0.85759 0.0
C1493 C 0.86472 0.21054 0.86097 0.0
C1494 C 0.87195 0.21768 0.8735 0.0
C1495 C 0.83786 0.17529 0.84432 0.0
C1496 C 0.85906 0.18165 0.83551 0.0
C1497 C 0.80953 0.16128 0.84041 0.0
C1498 C 0.78625 0.15496 0.84919 0.0
C1499 C 0.7861 0.17645 0.85623 0.0
C1500 C 0.76425 0.17028 0.86458 0.0
C1501 C 0.74231 0.14272 0.86591 0.0
C1502 C 0.74215 0.12129 0.85886 0.0
C1503 C 0.76397 0.12734 0.85051 0.0
H1504 H 0.72542 0.13799 0.87238 0.0
H1505 H 0.93677 0.19586 0.79116 0.0
H1506 H 0.68433 0.84786 0.1127 0.0
H1507 H 0.68398 0.85774 0.13492 0.0
H1508 H 0.64604 0.76962 0.14324 0.0
H1509 H 0.64699 0.75952 0.12102 0.0
H1510 H 0.61998 0.79583 0.1552 0.0
H1511 H 0.71285 0.81031 0.14945 0.0
H1512 H 0.75916 0.83049 0.13935 0.0
H1513 H 0.77639 0.91335 0.14879 0.0
H1514 H 0.72999 0.89369 0.15879 0.0
H1515 H 0.63611 0.80999 0.22084 0.0
H1516 H 0.63755 0.79819 0.199 0.0
H1517 H 0.68728 0.88604 0.18997 0.0
H1518 H 0.68757 0.89799 0.21194 0.0
H1519 H 0.70736 0.85873 0.1783 0.0
H1520 H 0.61523 0.84596 0.18333 0.0
H1521 H 0.56856 0.82727 0.19293 0.0
H1522 H 0.54932 0.74338 0.18435 0.0
H1523 H 0.59605 0.76156 0.17484 0.0
C1524 C 0.67629 0.83057 0.11925 0.0
C1525 C 0.66585 0.80289 0.11506 0.0
C1526 C 0.67598 0.83627 0.13194 0.0
C1527 C 0.66518 0.81442 0.14071 0.0
C1528 C 0.65443 0.78675 0.1366 0.0
C1529 C 0.6549 0.78103 0.12389 0.0
C1530 C 0.66494 0.82055 0.15416 0.0
C1531 C 0.63908 0.80924 0.16033 0.0
C1532 C 0.68984 0.83867 0.1607 0.0
C1533 C 0.71783 0.85053 0.15477 0.0
C1534 C 0.72642 0.83285 0.14929 0.0
C1535 C 0.7527 0.84419 0.1436 0.0
C1536 C 0.77068 0.87319 0.14341 0.0
C1537 C 0.76244 0.8909 0.14894 0.0
C1538 C 0.73616 0.87966 0.15463 0.0
C1539 C 0.64769 0.82685 0.21426 0.0
C1540 C 0.66169 0.85499 0.2182 0.0
C1541 C 0.64815 0.82005 0.20172 0.0
C1542 C 0.66211 0.84124 0.19278 0.0
C1543 C 0.67624 0.86932 0.19668 0.0
C1544 C 0.6761 0.87614 0.20925 0.0
C1545 C 0.66232 0.83415 0.1794 0.0
C1546 C 0.6882 0.84527 0.17322 0.0
C1547 C 0.63738 0.81609 0.17281 0.0
C1548 C 0.60924 0.80511 0.17849 0.0
C1549 C 0.60113 0.82352 0.18357 0.0
C1550 C 0.57465 0.81302 0.18898 0.0
C1551 C 0.55602 0.78415 0.18928 0.0
C1552 C 0.5638 0.76573 0.18413 0.0
C1553 C 0.59026 0.77612 0.17872 0.0
H1554 H 0.53553 0.77607 0.19347 0.0
H1555 H 0.79102 0.88193 0.139 0.0
H1556 H 0.81913 0.70503 0.54817 0.0
H1557 H 0.83106 0.70558 0.52613 0.0
H1558 H 0.8095 0.61896 0.52864 0.0
H1559 H 0.79692 0.618 0.55062 0.0
H1560 H 0.85976 0.65189 0.51641 0.0
H1561 H 0.76524 0.63482 0.51497 0.0
H1562 H 0.72704 0.64433 0.51982 0.0
H1563 H 0.7723 0.72446 0.50176 0.0
H1564 H 0.81098 0.71559 0.49696 0.0
H1565 H 0.85395 0.62142 0.45168 0.0
H1566 H 0.84364 0.6219 0.47388 0.0
H1567 H 0.85778 0.70596 0.47006 0.0
H1568 H 0.86783 0.70547 0.44781 0.0
H1569 H 0.81184 0.67496 0.48312 0.0
H1570 H 0.90613 0.69261 0.48431 0.0
H1571 H 0.94503 0.68408 0.47958 0.0
H1572 H 0.90155 0.60448 0.4982 0.0
H1573 H 0.86219 0.61236 0.50289 0.0
C1574 C 0.81659 0.68599 0.54401 0.0
C1575 C 0.80695 0.66143 0.55117 0.0
C1576 C 0.82355 0.68639 0.53143 0.0
C1577 C 0.82098 0.66226 0.52575 0.0
C1578 C 0.8117 0.63783 0.53287 0.0
C1579 C 0.80463 0.63736 0.54544 0.0
C1580 C 0.82791 0.66248 0.51236 0.0
C1581 C 0.84907 0.65658 0.5091 0.0
C1582 C 0.81442 0.66933 0.50289 0.0
C1583 C 0.79113 0.67465 0.50572 0.0
C1584 C 0.76715 0.65457 0.51213 0.0
C1585 C 0.7454 0.65982 0.51485 0.0
C1586 C 0.74728 0.68502 0.51113 0.0
C1587 C 0.77089 0.70497 0.50465 0.0
C1588 C 0.79273 0.69983 0.50192 0.0
C1589 C 0.85516 0.64011 0.45561 0.0
C1590 C 0.86176 0.66344 0.44802 0.0
C1591 C 0.84927 0.64037 0.46829 0.0
C1592 C 0.85026 0.6641 0.47367 0.0
C1593 C 0.85686 0.68742 0.46611 0.0
C1594 C 0.86256 0.6871 0.45341 0.0
C1595 C 0.84376 0.66436 0.48712 0.0
C1596 C 0.82263 0.67033 0.49041 0.0
C1597 C 0.85741 0.65773 0.49661 0.0
C1598 C 0.88109 0.65297 0.49384 0.0
C1599 C 0.90476 0.67319 0.48731 0.0
C1600 C 0.92691 0.66849 0.48465 0.0
C1601 C 0.92573 0.64372 0.48856 0.0
C1602 C 0.90242 0.62364 0.49516 0.0
C1603 C 0.8802 0.62822 0.49783 0.0
H1604 H 0.9429 0.64012 0.48649 0.0
H1605 H 0.73041 0.68905 0.51325 0.0
H1606 H 0.1799 0.81397 0.88454 0.0
H1607 H 0.19034 0.82576 0.86243 0.0
H1608 H 0.1031 0.79739 0.85536 0.0
H1609 H 0.09248 0.78533 0.87748 0.0
H1610 H 0.12441 0.7799 0.83738 0.0
H1611 H 0.15117 0.86727 0.85767 0.0
H1612 H 0.17554 0.9047 0.87329 0.0
H1613 H 0.25504 0.91926 0.85971 0.0
H1614 H 0.23112 0.88162 0.84412 0.0
H1615 H 0.14405 0.84529 0.77795 0.0
H1616 H 0.13242 0.83226 0.7999 0.0
H1617 H 0.2184 0.85608 0.8074 0.0
H1618 H 0.23016 0.86876 0.78544 0.0
H1619 H 0.19708 0.87606 0.82508 0.0
H1620 H 0.16981 0.78821 0.80483 0.0
H1621 H 0.14508 0.75096 0.78917 0.0
H1622 H 0.06597 0.73775 0.80262 0.0
H1623 H 0.09026 0.77522 0.81826 0.0
C1624 C 0.16296 0.81035 0.87828 0.0
C1625 C 0.1354 0.79892 0.88276 0.0
C1626 C 0.16895 0.81709 0.86566 0.0
C1627 C 0.14757 0.81288 0.85728 0.0
C1628 C 0.11992 0.80085 0.86166 0.0
C1629 C 0.11388 0.79393 0.87429 0.0
C1630 C 0.15413 0.82124 0.84399 0.0
C1631 C 0.14002 0.80103 0.83468 0.0
C1632 C 0.17488 0.84868 0.84048 0.0
C1633 C 0.18933 0.87144 0.8498 0.0
C1634 C 0.17384 0.87831 0.85808 0.0
C1635 C 0.18757 0.89959 0.86692 0.0
C1636 C 0.21682 0.9143 0.86751 0.0
C1637 C 0.23239 0.90782 0.85925 0.0
C1638 C 0.21875 0.88653 0.8504 0.0
C1639 C 0.16045 0.84753 0.78424 0.0
C1640 C 0.18803 0.858 0.77993 0.0
C1641 C 0.15377 0.84015 0.79679 0.0
C1642 C 0.1745 0.84298 0.80524 0.0
C1643 C 0.20211 0.85379 0.80102 0.0
C1644 C 0.2088 0.86113 0.78848 0.0
C1645 C 0.16743 0.8347 0.8185 0.0
C1646 C 0.18145 0.85495 0.82779 0.0
C1647 C 0.14653 0.80734 0.82199 0.0
C1648 C 0.13187 0.78472 0.81263 0.0
C1649 C 0.14715 0.77752 0.80438 0.0
C1650 C 0.13321 0.75634 0.79552 0.0
C1651 C 0.10397 0.74205 0.79488 0.0
C1652 C 0.08861 0.74887 0.80312 0.0
C1653 C 0.10246 0.77006 0.81199 0.0
H1654 H 0.09322 0.72566 0.78801 0.0
H1655 H 0.22741 0.93077 0.87436 0.0
H1656 H 0.22307 0.86567 0.00283 0.0
H1657 H 0.25499 0.90958 0.01335 0.0
H1658 H 0.29708 0.94453 0.97841 0.0
H1659 H 0.26553 0.90038 0.96783 0.0
H1660 H 0.33307 0.96567 0.00032 0.0
H1661 H 0.24511 0.95204 0.984 0.0
H1662 H 0.19378 0.92524 0.98146 0.0
H1663 H 0.18327 0.92853 0.02109 0.0
H1664 H 0.23461 0.95489 0.02388 0.0
H1665 H 0.37097 0.10992 0.00752 0.0
H1666 H 0.35591 0.06193 0.00094 0.0
H1667 H 0.30353 0.03022 0.03368 0.0
H1668 H 0.31714 0.07771 0.03994 0.0
H1669 H 0.27456 0.00624 0.01364 0.0
H1670 H 0.36331 0.02487 0.02975 0.0
H1671 H 0.41469 0.05087 0.03213 0.0
H1672 H 0.42436 0.03892 0.99317 0.0
H1673 H 0.37302 0.01317 0.99051 0.0
C1674 C 0.23983 0.88225 0.99747 0.0
C1675 C 0.24151 0.87978 0.98446 0.0
C1676 C 0.25801 0.90736 0.0035 0.0
C1677 C 0.27803 0.93036 0.9966 0.0
C1678 C 0.2817 0.92701 0.98387 0.0
C1679 C 0.26349 0.90189 0.97783 0.0
C1680 C 0.2912 0.95881 0.00203 0.0
C1681 C 0.32042 0.97471 0.00321 0.0
C1682 C 0.27454 0.97037 0.00585 0.0
C1683 C 0.24368 0.95515 0.00416 0.0
C1684 C 0.23185 0.94688 0.99218 0.0
C1685 C 0.20276 0.93178 0.99069 0.0
C1686 C 0.18527 0.92513 0.00111 0.0
C1687 C 0.19685 0.93366 0.01303 0.0
C1688 C 0.22594 0.94867 0.01457 0.0
C1689 C 0.35636 0.09274 0.01335 0.0
C1690 C 0.34522 0.09779 0.02424 0.0
C1691 C 0.34804 0.06531 0.00966 0.0
C1692 C 0.32868 0.04246 0.01685 0.0
C1693 C 0.31853 0.04751 0.02799 0.0
C1694 C 0.3266 0.07481 0.03162 0.0
C1695 C 0.31666 0.01333 0.01219 0.0
C1696 C 0.28743 0.99728 0.01098 0.0
C1697 C 0.33342 0.00184 0.00835 0.0
C1698 C 0.3643 0.01731 0.00991 0.0
C1699 C 0.37639 0.02798 0.02167 0.0
C1700 C 0.40551 0.04264 0.02307 0.0
C1701 C 0.42278 0.0466 0.0128 0.0
C1702 C 0.41095 0.03586 0.00111 0.0
C1703 C 0.38184 0.02121 -0.00035 0.0
H1704 H 0.44532 0.05795 0.0139 0.0
H1705 H 0.16275 0.91343 -6e-05 0.0
H1706 H 0.26784 0.36891 0.36393 0.0
H1707 H 0.3013 0.35635 0.3555 0.0
H1708 H 0.25216 0.32612 0.32177 0.0
H1709 H 0.21805 0.33746 0.33033 0.0
H1710 H 0.25928 0.28692 0.33192 0.0
H1711 H 0.31913 0.38294 0.32139 0.0
H1712 H 0.34564 0.43399 0.32484 0.0
H1713 H 0.39542 0.42355 0.35289 0.0
H1714 H 0.36894 0.37237 0.34974 0.0
H1715 H 0.36987 0.26665 0.3031 0.0
H1716 H 0.35741 0.30206 0.30881 0.0
H1717 H 0.32871 0.26276 0.34479 0.0
H1718 H 0.34143 0.22754 0.33924 0.0
H1719 H 0.36326 0.34014 0.33072 0.0
H1720 H 0.25992 0.24337 0.34443 0.0
H1721 H 0.23451 0.19242 0.34045 0.0
H1722 H 0.27173 0.2063 0.30399 0.0
H1723 H 0.29684 0.25732 0.30765 0.0
C1724 C 0.26438 0.35995 0.35464 0.0
C1725 C 0.24005 0.35382 0.34788 0.0
C1726 C 0.28371 0.3531 0.34977 0.0
C1727 C 0.27921 0.34026 0.33801 0.0
C1728 C 0.25602 0.336 0.33088 0.0
C1729 C 0.23662 0.3427 0.33576 0.0
C1730 C 0.2962 0.32765 0.33396 0.0
C1731 C 0.28199 0.29876 0.33153 0.0
C1732 C 0.32587 0.34297 0.33347 0.0
C1733 C 0.34189 0.37376 0.33539 0.0
C1734 C 0.33558 0.39149 0.32837 0.0
C1735 C 0.35063 0.42047 0.33026 0.0
C1736 C 0.37217 0.432 0.3391 0.0
C1737 C 0.37873 0.41458 0.34605 0.0
C1738 C 0.36373 0.38559 0.3442 0.0
C1739 C 0.36205 0.26627 0.31243 0.0
C1740 C 0.35608 0.24403 0.32065 0.0
C1741 C 0.35501 0.28656 0.31568 0.0
C1742 C 0.34187 0.28472 0.32714 0.0
C1743 C 0.33875 0.26437 0.33587 0.0
C1744 C 0.34579 0.24416 0.33265 0.0
C1745 C 0.32618 0.29969 0.32894 0.0
C1746 C 0.34055 0.32869 0.33098 0.0
C1747 C 0.29658 0.28467 0.32892 0.0
C1748 C 0.28045 0.25411 0.32637 0.0
C1749 C 0.26248 0.23554 0.33553 0.0
C1750 C 0.24816 0.20665 0.33333 0.0
C1751 C 0.25158 0.19612 0.32199 0.0
C1752 C 0.26915 0.21447 0.31278 0.0
C1753 C 0.28342 0.24337 0.31491 0.0
H1754 H 0.24057 0.17375 0.32033 0.0
H1755 H 0.3838 0.45444 0.34055 0.0
H1756 H 0.8805 0.27176 0.6846 0.0
H1757 H 0.92795 0.31082 0.68025 0.0
H1758 H 0.9584 0.25241 0.67814 0.0
H1759 H 0.91184 0.21393 0.68278 0.0
H1760 H 0.9941 0.29776 0.69084 0.0
H1761 H 0.94046 0.27625 0.65178 0.0
H1762 H 0.90197 0.27273 0.63868 0.0
H1763 H 0.9301 0.35975 0.64514 0.0
H1764 H 0.9686 0.36366 0.6584 0.0
H1765 H 0.07913 0.32877 0.63345 0.0
H1766 H 0.03639 0.32271 0.64291 0.0
H1767 H 0.08423 0.37608 0.67362 0.0
H1768 H 0.12726 0.38101 0.66442 0.0
H1769 H 0.01143 0.34931 0.65081 0.0
H1770 H 0.04761 0.34731 0.70018 0.0
H1771 H 0.08497 0.34413 0.71153 0.0
H1772 H 0.0899 0.29419 0.68188 0.0
H1773 H 0.05238 0.29687 0.67045 0.0
C1774 C 0.89744 0.26742 0.68328 0.0
C1775 C 0.89237 0.23974 0.6838 0.0
C1776 C 0.92446 0.28968 0.68079 0.0
C1777 C 0.94668 0.2845 0.67885 0.0
C1778 C 0.94163 0.25696 0.67966 0.0
C1779 C 0.91487 0.23488 0.68212 0.0
C1780 C 0.97514 0.30698 0.6753 0.0
C1781 C 0.99794 0.30959 0.68223 0.0
C1782 C 0.98019 0.32251 0.66413 0.0
C1783 C 0.9571 0.32014 0.6562 0.0
C1784 C 0.93827 0.29456 0.65048 0.0
C1785 C 0.9165 0.29251 0.64301 0.0
C1786 C 0.91353 0.31598 0.64112 0.0
C1787 C 0.93238 0.34157 0.64665 0.0
C1788 C 0.95417 0.34372 0.65414 0.0
C1789 C 0.08062 0.33945 0.64216 0.0
C1790 C 0.10639 0.35462 0.6484 0.0
C1791 C 0.05618 0.33632 0.64749 0.0
C1792 C 0.05697 0.34848 0.65911 0.0
C1793 C 0.08307 0.36612 0.66474 0.0
C1794 C 0.10765 0.36902 0.65945 0.0
C1795 C 0.03022 0.33867 0.66595 0.0
C1796 C 0.00775 0.33863 0.65972 0.0
C1797 C 0.0253 0.32468 0.67758 0.0
C1798 C 0.04754 0.32262 0.68442 0.0
C1799 C 0.05668 0.33563 0.69612 0.0
C1800 C 0.07785 0.33391 0.70255 0.0
C1801 C 0.08987 0.31906 0.69741 0.0
C1802 C 0.08063 0.30576 0.68584 0.0
C1803 C 0.05942 0.30736 0.67938 0.0
H1804 H 0.1063 0.3178 0.70239 0.0
H1805 H 0.89666 0.31436 0.63533 0.0
H1806 H 0.63345 0.86691 0.99754 0.0
H1807 H 0.64875 0.91181 0.98738 0.0
H1808 H 0.64395 0.94743 0.02253 0.0
H1809 H 0.62783 0.90221 0.03278 0.0
H1810 H 0.63599 0.9739 -0.00033 0.0
H1811 H 0.69972 0.94772 0.01902 0.0
H1812 H 0.71616 0.91401 0.02244 0.0
H1813 H 0.73394 0.91572 0.98326 0.0
H1814 H 0.71698 0.94897 0.97957 0.0
H1815 H 0.75546 0.1125 0.99429 0.0
H1816 H 0.71785 0.06605 0.00075 0.0
H1817 H 0.73692 0.02875 0.96953 0.0
H1818 H 0.7747 0.07488 0.96324 0.0
H1819 H 0.73492 0.00258 0.99009 0.0
H1820 H 0.6761 0.03319 0.97094 0.0
H1821 H 0.65733 0.06488 0.96728 0.0
H1822 H 0.62989 0.05502 0.00546 0.0
H1823 H 0.64885 0.02356 0.00939 0.0
C1824 C 0.6342 0.8838 0.00301 0.0
C1825 C 0.63012 0.88125 0.01603 0.0
C1826 C 0.643 0.90951 0.99717 0.0
C1827 C 0.64801 0.93297 0.00428 0.0
C1828 C 0.6403 0.92955 0.01692 0.0
C1829 C 0.63141 0.90379 0.02277 0.0
C1830 C 0.66719 0.96134 0.99941 0.0
C1831 C 0.65767 0.98037 0.99761 0.0
C1832 C 0.69539 0.96952 0.99671 0.0
C1833 C 0.70685 0.95061 0.999 0.0
C1834 C 0.70703 0.94081 0.01113 0.0
C1835 C 0.71641 0.92177 0.01312 0.0
C1836 C 0.72603 0.91269 0.00307 0.0
C1837 C 0.72644 0.92275 0.99103 0.0
C1838 C 0.71694 0.94168 0.98898 0.0
C1839 C 0.75129 0.09437 0.98874 0.0
C1840 C 0.76812 0.09715 0.97837 0.0
C1841 C 0.72976 0.06789 0.99239 0.0
C1842 C 0.72449 0.04391 0.98559 0.0
C1843 C 0.74069 0.04692 0.97496 0.0
C1844 C 0.76231 0.07324 0.9714 0.0
C1845 C 0.70381 0.01545 0.99005 0.0
C1846 C 0.71321 0.9963 0.99196 0.0
C1847 C 0.67561 0.00736 0.99284 0.0
C1848 C 0.66415 0.02623 0.99049 0.0
C1849 C 0.66627 0.03796 0.97858 0.0
C1850 C 0.65556 0.05585 0.97645 0.0
C1851 C 0.64249 0.06202 0.98614 0.0
C1852 C 0.64005 0.05025 0.99797 0.0
C1853 C 0.65075 0.03236 0.00015 0.0
H1854 H 0.63421 0.07587 0.98447 0.0
H1855 H 0.7332 0.89789 0.00461 0.0
H1856 H 0.62973 0.73006 0.30328 0.0
H1857 H 0.6415 0.69663 0.31241 0.0
H1858 H 0.66783 0.74532 0.34638 0.0
H1859 H 0.65718 0.77939 0.33714 0.0
H1860 H 0.70841 0.73897 0.33716 0.0
H1861 H 0.6119 0.67797 0.34617 0.0
H1862 H 0.56117 0.651 0.34194 0.0
H1863 H 0.57453 0.60224 0.31437 0.0
H1864 H 0.62541 0.62918 0.3183 0.0
H1865 H 0.73103 0.6295 0.36551 0.0
H1866 H 0.69508 0.64144 0.36008 0.0
H1867 H 0.7333 0.67037 0.32392 0.0
H1868 H 0.76898 0.6581 0.32917 0.0
H1869 H 0.65647 0.63494 0.33764 0.0
H1870 H 0.75285 0.73924 0.32508 0.0
H1871 H 0.80361 0.76504 0.32951 0.0
H1872 H 0.78847 0.72707 0.36586 0.0
H1873 H 0.73763 0.70154 0.36173 0.0
C1874 C 0.63761 0.7334 0.31277 0.0
C1875 C 0.64292 0.75761 0.31941 0.0
C1876 C 0.64401 0.71408 0.31803 0.0
C1877 C 0.65558 0.71849 0.33007 0.0
C1878 C 0.65892 0.74152 0.33707 0.0
C1879 C 0.65263 0.7609 0.33179 0.0
C1880 C 0.66813 0.70175 0.33455 0.0
C1881 C 0.69682 0.71624 0.33742 0.0
C1882 C 0.65314 0.67207 0.33486 0.0
C1883 C 0.62253 0.65575 0.33248 0.0
C1884 C 0.60406 0.66165 0.33913 0.0
C1885 C 0.57526 0.64633 0.3368 0.0
C1886 C 0.56463 0.62495 0.32788 0.0
C1887 C 0.58279 0.61881 0.32128 0.0
C1888 C 0.61161 0.63407 0.32357 0.0
C1889 C 0.73106 0.63727 0.35621 0.0
C1890 C 0.75311 0.6434 0.34784 0.0
C1891 C 0.71047 0.64401 0.35312 0.0
C1892 C 0.71183 0.65702 0.34168 0.0
C1893 C 0.73204 0.6604 0.33282 0.0
C1894 C 0.75253 0.65363 0.33587 0.0
C1895 C 0.69646 0.67233 0.33997 0.0
C1896 C 0.66761 0.65766 0.33756 0.0
C1897 C 0.71108 0.70192 0.34021 0.0
C1898 C 0.7415 0.71831 0.34304 0.0
C1899 C 0.76037 0.7366 0.33405 0.0
C1900 C 0.78914 0.75115 0.33651 0.0
C1901 C 0.79927 0.74763 0.34794 0.0
C1902 C 0.78062 0.72972 0.35699 0.0
C1903 C 0.75182 0.71522 0.35459 0.0
H1904 H 0.82156 0.75881 0.34981 0.0
H1905 H 0.54233 0.61312 0.32609 0.0
H1906 H 0.08748 0.74859 0.70084 0.0
H1907 H 0.04184 0.71337 0.69301 0.0
H1908 H 0.07877 0.7136 0.6574 0.0
H1909 H 0.1248 0.74911 0.66523 0.0
H1910 H 0.03665 0.72243 0.65441 0.0
H1911 H 0.04866 0.65435 0.67626 0.0
H1912 H 0.06046 0.63341 0.69393 0.0
H1913 H 0.99439 0.632 0.71576 0.0
H1914 H 0.98243 0.65331 0.69829 0.0
H1915 H 0.90022 0.63551 0.63242 0.0
H1916 H 0.94681 0.64549 0.63889 0.0
H1917 H 0.93038 0.66221 0.6764 0.0
H1918 H 0.88336 0.65139 0.6701 0.0
H1919 H 0.96369 0.63743 0.67603 0.0
H1920 H 0.95957 0.71446 0.65598 0.0
H1921 H 0.94784 0.7364 0.63868 0.0
H1922 H 0.00015 0.72145 0.61382 0.0
H1923 H 0.01185 0.69901 0.63095 0.0
C1924 C 0.08613 0.74052 0.69147 0.0
C1925 C 0.10978 0.7517 0.68364 0.0
C1926 C 0.05995 0.7203 0.687 0.0
C1927 C 0.05686 0.71062 0.67464 0.0
C1928 C 0.08067 0.72074 0.66698 0.0
C1929 C 0.10691 0.74108 0.67144 0.0
C1930 C 0.0284 0.69301 0.66935 0.0
C1931 C 0.02095 0.70337 0.65894 0.0
C1932 C 0.00769 0.66849 0.67541 0.0
C1933 C 0.01473 0.65558 0.68596 0.0
C1934 C 0.03676 0.64976 0.68485 0.0
C1935 C 0.04346 0.63779 0.69483 0.0
C1936 C 0.02821 0.63141 0.70596 0.0
C1937 C 0.00618 0.63695 0.70713 0.0
C1938 C -0.0006 0.64893 0.69718 0.0
C1939 C 0.90612 0.64038 0.64215 0.0
C1940 C 0.88823 0.64303 0.65073 0.0
C1941 C 0.93284 0.64623 0.6458 0.0
C1942 C 0.94217 0.65502 0.65806 0.0
C1943 C 0.9236 0.65554 0.66688 0.0
C1944 C 0.89686 0.64965 0.66324 0.0
C1945 C 0.97215 0.66723 0.66131 0.0
C1946 C 0.97974 0.656 0.67134 0.0
C1947 C 0.99309 0.69104 0.65495 0.0
C1948 C 0.98629 0.70476 0.64469 0.0
C1949 C 0.9684 0.71567 0.6468 0.0
C1950 C 0.96178 0.72821 0.63703 0.0
C1951 C 0.97317 0.73024 0.62515 0.0
C1952 C 0.99129 0.7198 0.62302 0.0
C1953 C 0.99792 0.70717 0.63275 0.0
H1954 H 0.96803 0.73996 0.6176 0.0
H1955 H 0.03343 0.62215 0.71368 0.0
H1956 H 0.04491 0.23506 0.9581 0.0
H1957 H 0.08489 0.23345 0.96715 0.0
H1958 H 0.03859 0.19976 0.00136 0.0
H1959 H 0.99881 0.20187 0.99248 0.0
H1960 H 0.09178 0.24229 0.0057 0.0
H1961 H 0.04713 0.15768 0.98126 0.0
H1962 H 0.02716 0.12976 0.96211 0.0
H1963 H 0.10674 0.17611 0.9437 0.0
H1964 H 0.1271 0.20459 0.96269 0.0
H1965 H 0.18197 0.2027 0.03462 0.0
H1966 H 0.14124 0.20177 0.02515 0.0
H1967 H 0.18524 0.2289 0.99001 0.0
H1968 H 0.2255 0.22839 0.99922 0.0
H1969 H 0.13312 0.18972 0.98602 0.0
H1970 H 0.17802 0.27467 0.0099 0.0
H1971 H 0.19865 0.30364 0.02872 0.0
H1972 H 0.11969 0.25841 0.04773 0.0
H1973 H 0.09867 0.22889 0.02907 0.0
C1974 C 0.04329 0.2274 0.96756 0.0
C1975 C 0.01867 0.2185 0.97456 0.0
C1976 C 0.06606 0.22629 0.97268 0.0
C1977 C 0.0646 0.21626 0.98489 0.0
C1978 C 0.04011 0.20749 0.99191 0.0
C1979 C 0.01732 0.20848 0.98678 0.0
C1980 C 0.08879 0.2154 0.99046 0.0
C1981 C 0.1006 0.23049 0.00149 0.0
C1982 C 0.10073 0.20063 0.98477 0.0
C1983 C 0.08856 0.18345 0.97336 0.0
C1984 C 0.06031 0.16207 0.97309 0.0
C1985 C 0.04894 0.14612 0.96227 0.0
C1986 C 0.06565 0.15121 0.95168 0.0
C1987 C 0.09381 0.17222 0.9519 0.0
C1988 C 0.10528 0.18825 0.9627 0.0
C1989 C 0.18289 0.20809 0.02483 0.0
C1990 C 0.20713 0.21576 0.01771 0.0
C1991 C 0.15967 0.20788 0.01946 0.0
C1992 C 0.16034 0.21574 0.00692 0.0
C1993 C 0.18429 0.22291 -0.00027 0.0
C1994 C 0.20742 0.2229 0.00505 0.0
C1995 C 0.13613 0.21658 0.0013 0.0
C1996 C 0.12432 0.20151 0.99024 0.0
C1997 C 0.1243 0.23157 0.00691 0.0
C1998 C 0.13685 0.24939 0.01813 0.0
C1999 C 0.16511 0.27076 0.01813 0.0
C2000 C 0.17686 0.28731 0.02876 0.0
C2001 C 0.16051 0.28283 0.03943 0.0
C2002 C 0.13234 0.26184 0.03947 0.0
C2003 C 0.12049 0.24521 0.02886 0.0
H2004 H 0.16965 0.29566 0.04765 0.0
H2005 H 0.05681 0.13883 0.94331 0.0
H2006 H 0.82713 0.00774 0.30051 0.0
H2007 H 0.86875 0.04671 0.31004 0.0
H2008 H 0.81719 0.05339 0.33862 0.0
H2009 H 0.7756 0.0142 0.32931 0.0
H2010 H 0.85364 0.10407 0.32834 0.0
H2011 H 0.85715 0.02506 0.34535 0.0
H2012 H 0.85787 0.98072 0.34438 0.0
H2013 H 0.93355 0.02085 0.32271 0.0
H2014 H 0.93307 0.06537 0.32341 0.0
H2015 H 0.95799 0.19658 0.36989 0.0
H2016 H 0.91822 0.15473 0.361 0.0
H2017 H 0.97304 0.14844 0.33403 0.0
H2018 H 0.01299 0.19027 0.34294 0.0
H2019 H 0.93566 0.0976 0.34299 0.0
H2020 H 0.93264 0.17625 0.32579 0.0
H2021 H 0.93228 0.2208 0.32636 0.0
H2022 H 0.85603 0.18161 0.34765 0.0
H2023 H 0.85615 0.1369 0.34737 0.0
C2024 C 0.82469 0.01726 0.30891 0.0
C2025 C 0.798 0.0079 0.31411 0.0
C2026 C 0.84848 0.03956 0.31433 0.0
C2027 C 0.84604 0.05285 0.32507 0.0
C2028 C 0.8195 0.0435 0.3303 0.0
C2029 C 0.79574 0.02118 0.32493 0.0
C2030 C 0.87103 0.07699 0.33069 0.0
C2031 C 0.87143 0.10257 0.3317 0.0
C2032 C 0.89453 0.07519 0.33472 0.0
C2033 C 0.8949 0.04847 0.33432 0.0
C2034 C 0.87381 0.02438 0.34029 0.0
C2035 C 0.8742 0.99922 0.3398 0.0
C2036 C 0.8957 0.99795 0.33346 0.0
C2037 C 0.91689 0.02186 0.32761 0.0
C2038 C 0.91658 0.04706 0.32805 0.0
C2039 C 0.96157 0.18629 0.36206 0.0
C2040 C 0.98857 0.19684 0.35705 0.0
C2041 C 0.93884 0.16237 0.357 0.0
C2042 C 0.9426 0.14874 0.34672 0.0
C2043 C 0.96967 0.15867 0.34195 0.0
C2044 C 0.99247 0.18252 0.34706 0.0
C2045 C 0.91814 0.12461 0.34075 0.0
C2046 C 0.91787 0.09909 0.33964 0.0
C2047 C 0.89478 0.12647 0.33654 0.0
C2048 C 0.89455 0.15329 0.33666 0.0
C2049 C 0.9159 0.17718 0.33068 0.0
C2050 C 0.91573 0.20246 0.33094 0.0
C2051 C 0.89418 0.20406 0.33706 0.0
C2052 C 0.87272 0.18035 0.34292 0.0
C2053 C 0.87282 0.15503 0.34271 0.0
H2054 H 0.89408 0.22364 0.33725 0.0
H2055 H 0.89597 0.97846 0.33309 0.0
H2056 H 0.80804 0.7929 0.66302 0.0
H2057 H 0.80978 0.83422 0.67247 0.0
H2058 H 0.77508 0.84775 0.6388 0.0
H2059 H 0.77364 0.80669 0.62923 0.0
H2060 H 0.81902 0.89679 0.64836 0.0
H2061 H 0.73354 0.81712 0.66309 0.0
H2062 H 0.70539 0.77112 0.67323 0.0
H2063 H 0.75128 0.80402 0.70738 0.0
H2064 H 0.78 0.85015 0.69738 0.0
H2065 H 0.77029 0.98585 0.66931 0.0
H2066 H 0.77403 0.94673 0.66091 0.0
H2067 H 0.80182 0.93452 0.69685 0.0
H2068 H 0.79698 0.97301 0.7055 0.0
H2069 H 0.76432 0.88557 0.68694 0.0
H2070 H 0.8482 0.96588 0.67281 0.0
H2071 H 0.87673 0.012 0.66281 0.0
H2072 H 0.83509 0.9784 0.62784 0.0
H2073 H 0.806 0.93215 0.63767 0.0
C2074 C 0.80113 0.8049 0.65758 0.0
C2075 C 0.7906 0.79652 0.6454 0.0
C2076 C 0.80195 0.82836 0.66302 0.0
C2077 C 0.79231 0.84385 0.65637 0.0
C2078 C 0.78255 0.83602 0.64409 0.0
C2079 C 0.78156 0.81248 0.63868 0.0
C2080 C 0.7917 0.86783 0.6623 0.0
C2081 C 0.80687 0.89434 0.65673 0.0
C2082 C 0.77644 0.86468 0.6734 0.0
C2083 C 0.75912 0.83699 0.67944 0.0
C2084 C 0.73779 0.81448 0.67273 0.0
C2085 C 0.7217 0.7884 0.67846 0.0
C2086 C 0.72659 0.78462 0.69094 0.0
C2087 C 0.74754 0.80696 0.69772 0.0
C2088 C 0.76372 0.83308 0.69202 0.0
C2089 C 0.77688 0.97467 0.67549 0.0
C2090 C 0.78331 0.98257 0.68809 0.0
C2091 C 0.77935 0.95251 0.67062 0.0
C2092 C 0.78863 0.93798 0.6782 0.0
C2093 C 0.79479 0.94557 0.69082 0.0
C2094 C 0.79222 0.96771 0.69572 0.0
C2095 C 0.79146 0.91459 0.67295 0.0
C2096 C 0.77669 0.88815 0.67863 0.0
C2097 C 0.8072 0.91784 0.66198 0.0
C2098 C 0.82476 0.9456 0.65601 0.0
C2099 C 0.84498 0.96837 0.66301 0.0
C2100 C 0.86127 0.99453 0.65737 0.0
C2101 C 0.85768 0.99814 0.64471 0.0
C2102 C 0.83783 0.97557 0.63765 0.0
C2103 C 0.82145 0.94937 0.64325 0.0
H2104 H 0.87032 0.01841 0.64036 0.0
H2105 H 0.71411 0.76441 0.69536 0.0
H2106 H 0.81952 0.83889 0.01413 0.0
H2107 H 0.86169 0.84148 0.00522 0.0
H2108 H 0.82854 0.75371 0.01311 0.0
H2109 H 0.78634 0.75089 0.0219 0.0
H2110 H 0.88274 0.78463 0.02012 0.0
H2111 H 0.82731 0.77623 0.98366 0.0
H2112 H 0.80076 0.79008 0.96966 0.0
H2113 H 0.87423 0.87043 0.96401 0.0
H2114 H 0.90112 0.85718 0.97813 0.0
H2115 H 0.96699 0.7503 0.98357 0.0
H2116 H 0.92775 0.75355 0.99225 0.0
H2117 H 0.96734 0.84042 0.98124 0.0
H2118 H 0.00665 0.83716 0.97238 0.0
H2119 H 0.91249 0.81428 0.97632 0.0
H2120 H 0.9688 0.82214 0.01174 0.0
H2121 H 0.99566 0.80872 0.02575 0.0
H2122 H 0.92126 0.73047 0.03362 0.0
H2123 H 0.89401 0.74325 0.01951 0.0
C2124 C 0.82113 0.8201 0.01387 0.0
C2125 C 0.79958 0.79469 0.01874 0.0
C2126 C 0.84525 0.82163 0.0088 0.0
C2127 C 0.84815 0.79774 0.00843 0.0
C2128 C 0.82677 0.77243 0.01335 0.0
C2129 C 0.80271 0.77088 0.01842 0.0
C2130 C 0.87348 0.79894 0.003 0.0
C2131 C 0.88911 0.79086 0.01051 0.0
C2132 C 0.88226 0.80791 0.99058 0.0
C2133 C 0.86614 0.81583 0.98206 0.0
C2134 C 0.83774 0.79693 0.97951 0.0
C2135 C 0.82264 0.80466 0.97154 0.0
C2136 C 0.83578 0.83115 0.96598 0.0
C2137 C 0.86407 0.84994 0.96834 0.0
C2138 C 0.87925 0.84233 0.97632 0.0
C2139 C 0.96742 0.77014 0.98307 0.0
C2140 C 0.99002 0.79357 0.97742 0.0
C2141 C 0.94499 0.77198 0.98803 0.0
C2142 C 0.94486 0.79738 0.98761 0.0
C2143 C 0.96707 0.82065 0.98171 0.0
C2144 C 0.98947 0.81876 0.97664 0.0
C2145 C 0.92148 0.79948 0.99338 0.0
C2146 C 0.90627 0.80825 0.98596 0.0
C2147 C 0.91313 0.79126 0.00591 0.0
C2148 C 0.92941 0.78358 0.01449 0.0
C2149 C 0.9582 0.80199 0.01639 0.0
C2150 C 0.97349 0.79451 0.02436 0.0
C2151 C 0.96019 0.76873 0.03055 0.0
C2152 C 0.93154 0.75042 0.02881 0.0
C2153 C 0.91616 0.75779 0.02084 0.0
H2154 H 0.97206 0.76297 0.03671 0.0
H2155 H 0.82406 0.83709 0.95981 0.0
H2156 H 0.00562 0.82472 0.36436 0.0
H2157 H 0.04596 0.8664 0.35562 0.0
H2158 H 0.06139 0.81419 0.33057 0.0
H2159 H 0.02132 0.77247 0.33939 0.0
H2160 H 0.10874 0.85257 0.34063 0.0
H2161 H 0.03102 0.85262 0.32047 0.0
H2162 H 0.98582 0.85158 0.3194 0.0
H2163 H 0.02035 0.92796 0.34053 0.0
H2164 H 0.06567 0.92925 0.34188 0.0
H2165 H 0.20222 0.95838 0.29915 0.0
H2166 H 0.16082 0.91771 0.3078 0.0
H2167 H 0.15175 0.97079 0.33478 0.0
H2168 H 0.19345 0.01156 0.32635 0.0
H2169 H 0.10137 0.93264 0.32391 0.0
H2170 H 0.17941 0.93223 0.34377 0.0
H2171 H 0.22455 0.93307 0.34438 0.0
H2172 H 0.18896 0.85675 0.32316 0.0
H2173 H 0.1437 0.85568 0.32226 0.0
C2174 C 0.01752 0.82218 0.35693 0.0
C2175 C 0.01032 0.79535 0.35256 0.0
C2176 C 0.04053 0.846 0.35193 0.0
C2177 C 0.05652 0.84345 0.34233 0.0
C2178 C 0.04941 0.81666 0.33799 0.0
C2179 C 0.02655 0.79285 0.34305 0.0
C2180 C 0.08094 0.86864 0.33693 0.0
C2181 C 0.10701 0.86989 0.33682 0.0
C2182 C 0.07886 0.89155 0.33221 0.0
C2183 C 0.05166 0.89087 0.33138 0.0
C2184 C 0.02891 0.86908 0.32497 0.0
C2185 C 0.00328 0.86846 0.3243 0.0
C2186 C 0.00019 0.88965 0.32992 0.0
C2187 C 0.02276 0.91154 0.3362 0.0
C2188 C 0.04843 0.91224 0.33691 0.0
C2189 C 0.19156 0.96141 0.30699 0.0
C2190 C 0.20128 0.98823 0.31211 0.0
C2191 C 0.16784 0.93816 0.31188 0.0
C2192 C 0.15341 0.94123 0.322 0.0
C2193 C 0.16259 0.96801 0.32695 0.0
C2194 C 0.18637 0.99129 0.32209 0.0
C2195 C 0.129 0.9164 0.32756 0.0
C2196 C 0.103 0.91526 0.32772 0.0
C2197 C 0.13109 0.89351 0.33226 0.0
C2198 C 0.15824 0.89402 0.33285 0.0
C2199 C 0.18127 0.91574 0.33915 0.0
C2200 C 0.20687 0.91624 0.33956 0.0
C2201 C 0.20964 0.89501 0.33378 0.0
C2202 C 0.1868 0.8732 0.32761 0.0
C2203 C 0.16116 0.87262 0.32716 0.0
H2204 H 0.22948 0.89543 0.33411 0.0
H2205 H 0.98033 0.88914 0.32939 0.0
H2206 H 0.16779 0.98736 0.67908 0.0
H2207 H 0.16818 0.02891 0.6706 0.0
H2208 H 0.25518 0.07978 0.68084 0.0
H2209 H 0.25486 0.03845 0.68941 0.0
H2210 H 0.22307 0.10398 0.68722 0.0
H2211 H 0.23909 0.06057 0.65141 0.0
H2212 H 0.22814 0.02158 0.63694 0.0
H2213 H 0.14977 0.01617 0.62766 0.0
H2214 H 0.16009 0.05489 0.64222 0.0
H2215 H 0.26027 0.22697 0.65291 0.0
H2216 H 0.25775 0.18454 0.66138 0.0
H2217 H 0.17495 0.13475 0.64572 0.0
H2218 H 0.17782 0.17714 0.63691 0.0
H2219 H 0.20309 0.10897 0.64235 0.0
H2220 H 0.18634 0.15226 0.67753 0.0
H2221 H 0.19589 0.19054 0.69221 0.0
H2222 H 0.27312 0.19523 0.7031 0.0
H2223 H 0.26422 0.15722 0.68836 0.0
C2224 C 0.18691 0.00746 0.6796 0.0
C2225 C 0.21133 0.00968 0.68484 0.0
C2226 C 0.18716 0.0311 0.67469 0.0
C2227 C 0.21178 0.05733 0.67501 0.0
C2228 C 0.236 0.0597 0.68048 0.0
C2229 C 0.23583 0.03606 0.68528 0.0
C2230 C 0.21247 0.08237 0.66956 0.0
C2231 C 0.21899 0.10525 0.67738 0.0
C2232 C 0.20639 0.08361 0.65681 0.0
C2233 C 0.20023 0.06043 0.648 0.0
C2234 C 0.21942 0.05091 0.64636 0.0
C2235 C 0.21335 0.02889 0.63813 0.0
C2236 C 0.18824 0.01635 0.63141 0.0
C2237 C 0.16919 0.02587 0.63289 0.0
C2238 C 0.17515 0.04787 0.64112 0.0
C2239 C 0.24154 0.20695 0.65131 0.0
C2240 C 0.21918 0.20529 0.64433 0.0
C2241 C 0.24006 0.18273 0.65618 0.0
C2242 C 0.21592 0.15647 0.6544 0.0
C2243 C 0.19376 0.15476 0.64724 0.0
C2244 C 0.19541 0.17895 0.64221 0.0
C2245 C 0.21383 0.13082 0.65999 0.0
C2246 C 0.20704 0.10777 0.6522 0.0
C2247 C 0.2194 0.12931 0.67282 0.0
C2248 C 0.22472 0.15206 0.68176 0.0
C2249 C 0.20545 0.16158 0.683 0.0
C2250 C 0.21074 0.18322 0.69133 0.0
C2251 C 0.23513 0.19536 0.69856 0.0
C2252 C 0.25425 0.18583 0.69749 0.0
C2253 C 0.24908 0.16422 0.68915 0.0
H2254 H 0.23918 0.21211 0.70501 0.0
H2255 H 0.18358 0.99931 0.62504 0.0
loop_
_geom_bond_atom_site_label_1
_geom_bond_atom_site_label_2
_geom_bond_distance
_geom_bond_site_symmetry_2
_ccdc_geom_bond_type
Li0 N17 1.990 . S
Li0 O60 1.956 . S
Li0 O61 1.970 . S
Li0 O62 1.961 . S
Li1 N25 1.990 . S
Li1 O60 1.970 . S
Li1 O61 1.956 . S
Li1 O63 1.961 . S
Li2 N47 1.990 . S
Li2 O60 1.961 . S
Li2 O62 1.956 . S
Li2 O63 1.970 . S
Li3 N53 1.990 . S
Li3 O61 1.961 . S
Li3 O62 1.970 . S
Li3 O63 1.956 . S
C4 C6 1.348 . S
C4 C7 1.356 . S
C4 O60 1.325 . S
N5 C8 1.314 . S
N5 C9 1.279 . S
C6 C4 1.348 . S
C6 C8 1.353 . S
C6 H64 0.929 . S
C7 C4 1.356 . S
C7 C9 1.358 . S
C7 H65 0.930 . S
C8 N5 1.314 . S
C8 C6 1.353 . S
C8 H66 0.930 . S
C9 N5 1.279 . S
C9 C7 1.358 . S
C9 H67 0.930 . S
C10 C13 1.348 . S
C10 C14 1.356 . S
C10 O61 1.325 . S
C11 N12 1.279 . S
C11 C14 1.358 . S
C11 H68 0.930 . S
N12 C11 1.279 . S
N12 C15 1.314 . S
C13 C10 1.348 . S
C13 C15 1.353 . S
C13 H69 0.929 . S
C14 C10 1.356 . S
C14 C11 1.358 . S
C14 H70 0.930 . S
C15 N12 1.314 . S
C15 C13 1.353 . S
C15 H71 0.930 . S
C16 N17 1.314 . S
C16 C21 1.353 . S
C16 H22 0.930 . S
N17 Li0 1.990 . S
N17 C16 1.314 . S
N17 C19 1.279 . S
C18 C19 1.358 . S
C18 C20 1.356 . S
C18 H72 0.930 . S
C19 N17 1.279 . S
C19 C18 1.358 . S
C19 H23 0.930 . S
C20 C18 1.356 . S
C20 C21 1.348 . S
C21 C16 1.353 . S
C21 C20 1.348 . S
C21 H73 0.929 . S
H22 C16 0.930 . S
H23 C19 0.930 . S
C24 N25 1.314 . S
C24 C26 1.353 . S
C24 H30 0.930 . S
N25 Li1 1.990 . S
N25 C24 1.314 . S
N25 C28 1.279 . S
C26 C24 1.353 . S
C26 C29 1.348 . S
C26 H74 0.929 . S
C27 C28 1.358 . S
C27 C29 1.356 . S
C27 H75 0.930 . S
C28 N25 1.279 . S
C28 C27 1.358 . S
C28 H31 0.930 . S
C29 C26 1.348 . S
C29 C27 1.356 . S
H30 C24 0.930 . S
H31 C28 0.930 . S
C32 C34 1.348 . S
C32 C35 1.356 . S
C32 O62 1.325 . S
N33 C36 1.314 . S
N33 C37 1.279 . S
C34 C32 1.348 . S
C34 C36 1.353 1_554 S
C34 H76 0.929 . S
C35 C32 1.356 . S
C35 C37 1.358 1_554 S
C35 H77 0.930 . S
C36 N33 1.314 . S
C36 C34 1.353 1_556 S
C36 H78 0.930 . S
C37 N33 1.279 . S
C37 C35 1.358 1_556 S
C37 H79 0.930 . S
C38 C39 1.348 . S
C38 C40 1.356 . S
C38 O63 1.325 . S
C39 C38 1.348 . S
C39 C41 1.353 . S
C39 H80 0.929 . S
C40 C38 1.356 . S
C40 C42 1.358 . S
C40 H81 0.930 . S
C41 C39 1.353 . S
C41 N43 1.314 . S
C41 H82 0.930 . S
C42 C40 1.358 . S
C42 N43 1.279 . S
C42 H83 0.930 . S
N43 C41 1.314 . S
N43 C42 1.279 . S
C44 C46 1.353 . S
C44 N47 1.314 . S
C44 H50 0.930 . S
C45 N47 1.279 . S
C45 C48 1.358 . S
C45 H51 0.930 . S
C46 C44 1.353 . S
C46 C49 1.348 . S
C46 H84 0.929 . S
N47 Li2 1.990 . S
N47 C44 1.314 . S
N47 C45 1.279 . S
C48 C45 1.358 . S
C48 C49 1.356 . S
C48 H85 0.930 1_554 S
C49 C46 1.348 . S
C49 C48 1.356 . S
H50 C44 0.930 . S
H51 C45 0.930 . S
C52 N53 1.314 . S
C52 C54 1.353 . S
C52 H58 0.930 . S
N53 Li3 1.990 . S
N53 C52 1.314 . S
N53 C56 1.279 . S
C54 C52 1.353 . S
C54 C57 1.348 . S
C54 H86 0.929 . S
C55 C56 1.358 . S
C55 C57 1.356 . S
C55 H87 0.930 . S
C56 N53 1.279 . S
C56 C55 1.358 . S
C56 H59 0.930 . S
C57 C54 1.348 . S
C57 C55 1.356 . S
H58 C52 0.930 . S
H59 C56 0.930 . S
O60 Li0 1.956 . S
O60 Li1 1.970 . S
O60 Li2 1.961 . S
O60 C4 1.325 . S
O61 Li0 1.970 . S
O61 Li1 1.956 . S
O61 Li3 1.961 . S
O61 C10 1.325 . S
O62 Li0 1.961 . S
O62 Li2 1.956 . S
O62 Li3 1.970 . S
O62 C32 1.325 . S
O63 Li1 1.961 . S
O63 Li2 1.970 . S
O63 Li3 1.956 . S
O63 C38 1.325 . S
H64 C6 0.929 . S
H65 C7 0.930 . S
H66 C8 0.930 . S
H67 C9 0.930 . S
H68 C11 0.930 . S
H69 C13 0.929 . S
H70 C14 0.930 . S
H71 C15 0.930 . S
H72 C18 0.930 . S
H73 C21 0.929 . S
H74 C26 0.929 . S
H75 C27 0.930 . S
H76 C34 0.929 . S
H77 C35 0.930 . S
H78 C36 0.930 . S
H79 C37 0.930 . S
H80 C39 0.929 . S
H81 C40 0.930 . S
H82 C41 0.930 . S
H83 C42 0.930 . S
H84 C46 0.929 . S
H85 C48 0.930 1_556 S
H86 C54 0.929 . S
H87 C55 0.930 . S
Li88 N105 1.990 . S
Li88 O148 1.956 . S
Li88 O149 1.970 . S
Li88 O150 1.961 . S
Li89 N113 1.990 . S
Li89 O148 1.970 . S
Li89 O149 1.956 . S
Li89 O151 1.961 . S
Li90 N135 1.990 . S
Li90 O148 1.961 . S
Li90 O150 1.956 . S
Li90 O151 1.970 . S
Li91 N141 1.990 . S
Li91 O149 1.961 . S
Li91 O150 1.970 . S
Li91 O151 1.956 . S
C92 C94 1.348 . S
C92 C95 1.356 . S
C92 O148 1.325 . S
N93 C96 1.314 . S
N93 C97 1.279 . S
C94 C92 1.348 . S
C94 C96 1.353 . S
C94 H152 0.929 . S
C95 C92 1.356 . S
C95 C97 1.358 . S
C95 H153 0.930 . S
C96 N93 1.314 . S
C96 C94 1.353 . S
C96 H154 0.930 . S
C97 N93 1.279 . S
C97 C95 1.358 . S
C97 H155 0.930 . S
C98 C101 1.348 . S
C98 C102 1.356 . S
C98 O149 1.325 . S
C99 N100 1.279 . S
C99 C102 1.358 . S
C99 H156 0.930 . S
N100 C99 1.279 . S
N100 C103 1.314 . S
C101 C98 1.348 . S
C101 C103 1.353 . S
C101 H157 0.929 . S
C102 C98 1.356 . S
C102 C99 1.358 . S
C102 H158 0.930 . S
C103 N100 1.314 . S
C103 C101 1.353 . S
C103 H159 0.930 . S
C104 N105 1.314 . S
C104 C109 1.353 . S
C104 H110 0.930 . S
N105 Li88 1.990 . S
N105 C104 1.314 . S
N105 C107 1.279 . S
C106 C107 1.358 . S
C106 C108 1.356 . S
C106 H160 0.930 . S
C107 N105 1.279 . S
C107 C106 1.358 . S
C107 H111 0.930 . S
C108 C106 1.356 . S
C108 C109 1.348 . S
C109 C104 1.353 . S
C109 C108 1.348 . S
C109 H161 0.929 . S
H110 C104 0.930 . S
H111 C107 0.930 . S
C112 N113 1.314 . S
C112 C114 1.353 . S
C112 H118 0.930 . S
N113 Li89 1.990 . S
N113 C112 1.314 . S
N113 C116 1.279 . S
C114 C112 1.353 . S
C114 C117 1.348 . S
C114 H162 0.929 . S
C115 C116 1.358 . S
C115 C117 1.356 . S
C115 H163 0.930 . S
C116 N113 1.279 . S
C116 C115 1.358 . S
C116 H119 0.930 . S
C117 C114 1.348 . S
C117 C115 1.356 . S
H118 C112 0.930 . S
H119 C116 0.930 . S
C120 C122 1.348 . S
C120 C123 1.356 . S
C120 O150 1.325 . S
N121 C124 1.314 . S
N121 C125 1.279 . S
C122 C120 1.348 . S
C122 C124 1.353 . S
C122 H164 0.929 . S
C123 C120 1.356 . S
C123 C125 1.358 . S
C123 H165 0.930 . S
C124 N121 1.314 . S
C124 C122 1.353 . S
C124 H166 0.930 . S
C125 N121 1.279 . S
C125 C123 1.358 . S
C125 H167 0.930 . S
C126 C127 1.348 . S
C126 C128 1.356 . S
C126 O151 1.325 . S
C127 C126 1.348 . S
C127 C129 1.353 . S
C127 H168 0.929 . S
C128 C126 1.356 . S
C128 C130 1.358 . S
C128 H169 0.930 . S
C129 C127 1.353 . S
C129 N131 1.314 . S
C129 H170 0.930 . S
C130 C128 1.358 . S
C130 N131 1.279 . S
C130 H171 0.930 . S
N131 C129 1.314 . S
N131 C130 1.279 . S
C132 C134 1.353 . S
C132 N135 1.314 . S
C132 H138 0.930 . S
C133 N135 1.279 . S
C133 C136 1.358 . S
C133 H139 0.930 . S
C134 C132 1.353 . S
C134 C137 1.348 . S
C134 H172 0.929 . S
N135 Li90 1.990 . S
N135 C132 1.314 . S
N135 C133 1.279 . S
C136 C133 1.358 . S
C136 C137 1.356 . S
C136 H173 0.930 . S
C137 C134 1.348 . S
C137 C136 1.356 . S
H138 C132 0.930 . S
H139 C133 0.930 . S
C140 N141 1.314 . S
C140 C142 1.353 1_455 S
C140 H146 0.930 . S
N141 Li91 1.990 . S
N141 C140 1.314 . S
N141 C144 1.279 . S
C142 C140 1.353 1_655 S
C142 C145 1.348 . S
C142 H174 0.929 . S
C143 C144 1.358 . S
C143 C145 1.356 1_455 S
C143 H175 0.930 . S
C144 N141 1.279 . S
C144 C143 1.358 . S
C144 H147 0.930 . S
C145 C142 1.348 . S
C145 C143 1.356 1_655 S
H146 C140 0.930 . S
H147 C144 0.930 . S
O148 Li88 1.956 . S
O148 Li89 1.970 . S
O148 Li90 1.961 . S
O148 C92 1.325 . S
O149 Li88 1.970 . S
O149 Li89 1.956 . S
O149 Li91 1.961 . S
O149 C98 1.325 . S
O150 Li88 1.961 . S
O150 Li90 1.956 . S
O150 Li91 1.970 . S
O150 C120 1.325 . S
O151 Li89 1.961 . S
O151 Li90 1.970 . S
O151 Li91 1.956 . S
O151 C126 1.325 . S
H152 C94 0.929 . S
H153 C95 0.930 . S
H154 C96 0.930 . S
H155 C97 0.930 . S
H156 C99 0.930 . S
H157 C101 0.929 . S
H158 C102 0.930 . S
H159 C103 0.930 . S
H160 C106 0.930 . S
H161 C109 0.929 . S
H162 C114 0.929 . S
H163 C115 0.930 . S
H164 C122 0.929 . S
H165 C123 0.930 . S
H166 C124 0.930 . S
H167 C125 0.930 . S
H168 C127 0.929 . S
H169 C128 0.930 . S
H170 C129 0.930 . S
H171 C130 0.930 . S
H172 C134 0.929 . S
H173 C136 0.930 . S
H174 C142 0.929 . S
H175 C143 0.930 . S
Li176 N193 1.990 . S
Li176 O236 1.956 . S
Li176 O237 1.970 . S
Li176 O238 1.961 . S
Li177 N201 1.990 . S
Li177 O236 1.970 . S
Li177 O237 1.956 . S
Li177 O239 1.961 . S
Li178 N223 1.990 . S
Li178 O236 1.961 . S
Li178 O238 1.956 . S
Li178 O239 1.970 . S
Li179 N229 1.990 . S
Li179 O237 1.961 . S
Li179 O238 1.970 . S
Li179 O239 1.956 . S
C180 C182 1.348 . S
C180 C183 1.356 . S
C180 O236 1.325 . S
N181 C184 1.314 . S
N181 C185 1.279 . S
C182 C180 1.348 . S
C182 C184 1.353 . S
C182 H240 0.929 . S
C183 C180 1.356 . S
C183 C185 1.358 . S
C183 H241 0.930 . S
C184 N181 1.314 . S
C184 C182 1.353 . S
C184 H242 0.930 . S
C185 N181 1.279 . S
C185 C183 1.358 . S
C185 H243 0.930 . S
C186 C189 1.348 . S
C186 C190 1.356 . S
C186 O237 1.325 . S
C187 N188 1.279 . S
C187 C190 1.358 . S
C187 H244 0.930 . S
N188 C187 1.279 . S
N188 C191 1.314 . S
C189 C186 1.348 . S
C189 C191 1.353 . S
C189 H245 0.929 . S
C190 C186 1.356 . S
C190 C187 1.358 . S
C190 H246 0.930 . S
C191 N188 1.314 . S
C191 C189 1.353 . S
C191 H247 0.930 . S
C192 N193 1.314 . S
C192 C197 1.353 . S
C192 H198 0.930 . S
N193 Li176 1.990 . S
N193 C192 1.314 . S
N193 C195 1.279 . S
C194 C195 1.358 . S
C194 C196 1.356 . S
C194 H248 0.930 . S
C195 N193 1.279 . S
C195 C194 1.358 . S
C195 H199 0.930 . S
C196 C194 1.356 . S
C196 C197 1.348 . S
C197 C192 1.353 . S
C197 C196 1.348 . S
C197 H249 0.929 . S
H198 C192 0.930 . S
H199 C195 0.930 . S
C200 N201 1.314 . S
C200 C202 1.353 . S
C200 H206 0.930 . S
N201 Li177 1.990 . S
N201 C200 1.314 . S
N201 C204 1.279 . S
C202 C200 1.353 . S
C202 C205 1.348 . S
C202 H250 0.929 . S
C203 C204 1.358 . S
C203 C205 1.356 . S
C203 H251 0.930 . S
C204 N201 1.279 . S
C204 C203 1.358 . S
C204 H207 0.930 . S
C205 C202 1.348 . S
C205 C203 1.356 . S
H206 C200 0.930 . S
H207 C204 0.930 . S
C208 C210 1.348 . S
C208 C211 1.356 . S
C208 O238 1.325 . S
N209 C212 1.314 . S
N209 C213 1.279 . S
C210 C208 1.348 . S
C210 C212 1.353 . S
C210 H252 0.929 . S
C211 C208 1.356 . S
C211 C213 1.358 . S
C211 H253 0.930 . S
C212 N209 1.314 . S
C212 C210 1.353 . S
C212 H254 0.930 . S
C213 N209 1.279 . S
C213 C211 1.358 . S
C213 H255 0.930 . S
C214 C215 1.348 . S
C214 C216 1.356 . S
C214 O239 1.325 . S
C215 C214 1.348 . S
C215 C217 1.353 . S
C215 H256 0.929 . S
C216 C214 1.356 . S
C216 C218 1.358 . S
C216 H257 0.930 . S
C217 C215 1.353 . S
C217 N219 1.314 . S
C217 H258 0.930 . S
C218 C216 1.358 . S
C218 N219 1.279 . S
C218 H259 0.930 . S
N219 C217 1.314 . S
N219 C218 1.279 . S
C220 C222 1.353 1_545 S
C220 N223 1.314 . S
C220 H226 0.930 . S
C221 N223 1.279 . S
C221 C224 1.358 . S
C221 H227 0.930 . S
C222 C220 1.353 1_565 S
C222 C225 1.348 . S
C222 H260 0.929 . S
N223 Li178 1.990 . S
N223 C220 1.314 . S
N223 C221 1.279 . S
C224 C221 1.358 . S
C224 C225 1.356 1_545 S
C224 H261 0.930 . S
C225 C222 1.348 . S
C225 C224 1.356 1_565 S
H226 C220 0.930 . S
H227 C221 0.930 . S
C228 N229 1.314 . S
C228 C230 1.353 . S
C228 H234 0.930 . S
N229 Li179 1.990 . S
N229 C228 1.314 . S
N229 C232 1.279 . S
C230 C228 1.353 . S
C230 C233 1.348 . S
C230 H262 0.929 . S
C231 C232 1.358 . S
C231 C233 1.356 . S
C231 H263 0.930 . S
C232 N229 1.279 . S
C232 C231 1.358 . S
C232 H235 0.930 . S
C233 C230 1.348 . S
C233 C231 1.356 . S
H234 C228 0.930 . S
H235 C232 0.930 . S
O236 Li176 1.956 . S
O236 Li177 1.970 . S
O236 Li178 1.961 . S
O236 C180 1.325 . S
O237 Li176 1.970 . S
O237 Li177 1.956 . S
O237 Li179 1.961 . S
O237 C186 1.325 . S
O238 Li176 1.961 . S
O238 Li178 1.956 . S
O238 Li179 1.970 . S
O238 C208 1.325 . S
O239 Li177 1.961 . S
O239 Li178 1.970 . S
O239 Li179 1.956 . S
O239 C214 1.325 . S
H240 C182 0.929 . S
H241 C183 0.930 . S
H242 C184 0.930 . S
H243 C185 0.930 . S
H244 C187 0.930 . S
H245 C189 0.929 . S
H246 C190 0.930 . S
H247 C191 0.930 . S
H248 C194 0.930 . S
H249 C197 0.929 . S
H250 C202 0.929 . S
H251 C203 0.930 . S
H252 C210 0.929 . S
H253 C211 0.930 . S
H254 C212 0.930 . S
H255 C213 0.930 . S
H256 C215 0.929 . S
H257 C216 0.930 . S
H258 C217 0.930 . S
H259 C218 0.930 . S
H260 C222 0.929 . S
H261 C224 0.930 . S
H262 C230 0.929 . S
H263 C231 0.930 . S
Li264 N281 1.990 . S
Li264 O324 1.956 . S
Li264 O325 1.970 . S
Li264 O326 1.961 . S
Li265 N289 1.990 . S
Li265 O324 1.970 . S
Li265 O325 1.956 . S
Li265 O327 1.961 . S
Li266 N311 1.990 . S
Li266 O324 1.961 . S
Li266 O326 1.956 . S
Li266 O327 1.970 . S
Li267 N317 1.990 . S
Li267 O325 1.961 . S
Li267 O326 1.970 . S
Li267 O327 1.956 . S
C268 C270 1.348 . S
C268 C271 1.356 . S
C268 O324 1.325 . S
N269 C272 1.314 . S
N269 C273 1.279 . S
C270 C268 1.348 . S
C270 C272 1.353 . S
C270 H328 0.929 . S
C271 C268 1.356 . S
C271 C273 1.358 . S
C271 H329 0.930 . S
C272 N269 1.314 . S
C272 C270 1.353 . S
C272 H330 0.930 . S
C273 N269 1.279 . S
C273 C271 1.358 . S
C273 H331 0.930 . S
C274 C277 1.348 . S
C274 C278 1.356 . S
C274 O325 1.325 . S
C275 N276 1.279 . S
C275 C278 1.358 . S
C275 H332 0.930 . S
N276 C275 1.279 . S
N276 C279 1.314 . S
C277 C274 1.348 . S
C277 C279 1.353 . S
C277 H333 0.929 . S
C278 C274 1.356 . S
C278 C275 1.358 . S
C278 H334 0.930 . S
C279 N276 1.314 . S
C279 C277 1.353 . S
C279 H335 0.930 . S
C280 N281 1.314 . S
C280 C285 1.353 . S
C280 H286 0.930 . S
N281 Li264 1.990 . S
N281 C280 1.314 . S
N281 C283 1.279 . S
C282 C283 1.358 . S
C282 C284 1.356 . S
C282 H336 0.930 . S
C283 N281 1.279 . S
C283 C282 1.358 . S
C283 H287 0.930 . S
C284 C282 1.356 . S
C284 C285 1.348 . S
C285 C280 1.353 . S
C285 C284 1.348 . S
C285 H337 0.929 . S
H286 C280 0.930 . S
H287 C283 0.930 . S
C288 N289 1.314 . S
C288 C290 1.353 . S
C288 H294 0.930 . S
N289 Li265 1.990 . S
N289 C288 1.314 . S
N289 C292 1.279 . S
C290 C288 1.353 . S
C290 C293 1.348 . S
C290 H338 0.929 . S
C291 C292 1.358 . S
C291 C293 1.356 . S
C291 H339 0.930 . S
C292 N289 1.279 . S
C292 C291 1.358 . S
C292 H295 0.930 . S
C293 C290 1.348 . S
C293 C291 1.356 . S
H294 C288 0.930 . S
H295 C292 0.930 . S
C296 C298 1.348 . S
C296 C299 1.356 . S
C296 O326 1.325 . S
N297 C300 1.314 . S
N297 C301 1.279 . S
C298 C296 1.348 . S
C298 C300 1.353 . S
C298 H340 0.929 . S
C299 C296 1.356 . S
C299 C301 1.358 . S
C299 H341 0.930 . S
C300 N297 1.314 . S
C300 C298 1.353 . S
C300 H342 0.930 . S
C301 N297 1.279 . S
C301 C299 1.358 . S
C301 H343 0.930 . S
C302 C303 1.348 . S
C302 C304 1.356 . S
C302 O327 1.325 . S
C303 C302 1.348 . S
C303 C305 1.353 1_554 S
C303 H344 0.929 . S
C304 C302 1.356 . S
C304 C306 1.358 1_554 S
C304 H345 0.930 . S
C305 C303 1.353 1_556 S
C305 N307 1.314 . S
C305 H346 0.930 . S
C306 C304 1.358 1_556 S
C306 N307 1.279 . S
C306 H347 0.930 . S
N307 C305 1.314 . S
N307 C306 1.279 . S
C308 C310 1.353 . S
C308 N311 1.314 . S
C308 H314 0.930 . S
C309 N311 1.279 . S
C309 C312 1.358 . S
C309 H315 0.930 . S
C310 C308 1.353 . S
C310 C313 1.348 . S
C310 H348 0.929 . S
N311 Li266 1.990 . S
N311 C308 1.314 . S
N311 C309 1.279 . S
C312 C309 1.358 . S
C312 C313 1.356 . S
C312 H349 0.930 . S
C313 C310 1.348 . S
C313 C312 1.356 . S
H314 C308 0.930 . S
H315 C309 0.930 . S
C316 N317 1.314 . S
C316 C318 1.353 . S
C316 H322 0.930 . S
N317 Li267 1.990 . S
N317 C316 1.314 . S
N317 C320 1.279 . S
C318 C316 1.353 . S
C318 C321 1.348 . S
C318 H350 0.929 . S
C319 C320 1.358 . S
C319 C321 1.356 . S
C319 H351 0.930 1_554 S
C320 N317 1.279 . S
C320 C319 1.358 . S
C320 H323 0.930 . S
C321 C318 1.348 . S
C321 C319 1.356 . S
H322 C316 0.930 . S
H323 C320 0.930 . S
O324 Li264 1.956 . S
O324 Li265 1.970 . S
O324 Li266 1.961 . S
O324 C268 1.325 . S
O325 Li264 1.970 . S
O325 Li265 1.956 . S
O325 Li267 1.961 . S
O325 C274 1.325 . S
O326 Li264 1.961 . S
O326 Li266 1.956 . S
O326 Li267 1.970 . S
O326 C296 1.325 . S
O327 Li265 1.961 . S
O327 Li266 1.970 . S
O327 Li267 1.956 . S
O327 C302 1.325 . S
H328 C270 0.929 . S
H329 C271 0.930 . S
H330 C272 0.930 . S
H331 C273 0.930 . S
H332 C275 0.930 . S
H333 C277 0.929 . S
H334 C278 0.930 . S
H335 C279 0.930 . S
H336 C282 0.930 . S
H337 C285 0.929 . S
H338 C290 0.929 . S
H339 C291 0.930 . S
H340 C298 0.929 . S
H341 C299 0.930 . S
H342 C300 0.930 . S
H343 C301 0.930 . S
H344 C303 0.929 . S
H345 C304 0.930 . S
H346 C305 0.930 . S
H347 C306 0.930 . S
H348 C310 0.929 . S
H349 C312 0.930 . S
H350 C318 0.929 . S
H351 C319 0.930 1_556 S
Li352 N369 1.990 . S
Li352 O412 1.956 . S
Li352 O413 1.970 . S
Li352 O414 1.961 . S
Li353 N377 1.990 . S
Li353 O412 1.970 . S
Li353 O413 1.956 . S
Li353 O415 1.961 . S
Li354 N399 1.990 . S
Li354 O412 1.961 . S
Li354 O414 1.956 . S
Li354 O415 1.970 . S
Li355 N405 1.990 . S
Li355 O413 1.961 . S
Li355 O414 1.970 . S
Li355 O415 1.956 . S
C356 C358 1.348 . S
C356 C359 1.356 . S
C356 O412 1.325 . S
N357 C360 1.314 . S
N357 C361 1.279 . S
C358 C356 1.348 . S
C358 C360 1.353 . S
C358 H416 0.929 . S
C359 C356 1.356 . S
C359 C361 1.358 . S
C359 H417 0.930 . S
C360 N357 1.314 . S
C360 C358 1.353 . S
C360 H418 0.930 . S
C361 N357 1.279 . S
C361 C359 1.358 . S
C361 H419 0.930 . S
C362 C365 1.348 . S
C362 C366 1.356 . S
C362 O413 1.325 . S
C363 N364 1.279 . S
C363 C366 1.358 . S
C363 H420 0.930 . S
N364 C363 1.279 . S
N364 C367 1.314 . S
C365 C362 1.348 . S
C365 C367 1.353 . S
C365 H421 0.929 . S
C366 C362 1.356 . S
C366 C363 1.358 . S
C366 H422 0.930 . S
C367 N364 1.314 . S
C367 C365 1.353 . S
C367 H423 0.930 . S
C368 N369 1.314 . S
C368 C373 1.353 . S
C368 H374 0.930 . S
N369 Li352 1.990 . S
N369 C368 1.314 . S
N369 C371 1.279 . S
C370 C371 1.358 . S
C370 C372 1.356 . S
C370 H424 0.930 . S
C371 N369 1.279 . S
C371 C370 1.358 . S
C371 H375 0.930 . S
C372 C370 1.356 . S
C372 C373 1.348 . S
C373 C368 1.353 . S
C373 C372 1.348 . S
C373 H425 0.929 . S
H374 C368 0.930 . S
H375 C371 0.930 . S
C376 N377 1.314 . S
C376 C378 1.353 . S
C376 H382 0.930 . S
N377 Li353 1.990 . S
N377 C376 1.314 . S
N377 C380 1.279 . S
C378 C376 1.353 . S
C378 C381 1.348 . S
C378 H426 0.929 . S
C379 C380 1.358 . S
C379 C381 1.356 . S
C379 H427 0.930 . S
C380 N377 1.279 . S
C380 C379 1.358 . S
C380 H383 0.930 . S
C381 C378 1.348 . S
C381 C379 1.356 . S
H382 C376 0.930 . S
H383 C380 0.930 . S
C384 C386 1.348 . S
C384 C387 1.356 . S
C384 O414 1.325 . S
N385 C388 1.314 . S
N385 C389 1.279 . S
C386 C384 1.348 . S
C386 C388 1.353 . S
C386 H428 0.929 . S
C387 C384 1.356 . S
C387 C389 1.358 . S
C387 H429 0.930 . S
C388 N385 1.314 . S
C388 C386 1.353 . S
C388 H430 0.930 . S
C389 N385 1.279 . S
C389 C387 1.358 . S
C389 H431 0.930 . S
C390 C391 1.348 . S
C390 C392 1.356 . S
C390 O415 1.325 . S
C391 C390 1.348 . S
C391 C393 1.353 . S
C391 H432 0.929 . S
C392 C390 1.356 . S
C392 C394 1.358 . S
C392 H433 0.930 . S
C393 C391 1.353 . S
C393 N395 1.314 . S
C393 H434 0.930 . S
C394 C392 1.358 . S
C394 N395 1.279 . S
C394 H435 0.930 . S
N395 C393 1.314 . S
N395 C394 1.279 . S
C396 C398 1.353 . S
C396 N399 1.314 . S
C396 H402 0.930 . S
C397 N399 1.279 . S
C397 C400 1.358 . S
C397 H403 0.930 . S
C398 C396 1.353 . S
C398 C401 1.348 . S
C398 H436 0.929 . S
N399 Li354 1.990 . S
N399 C396 1.314 . S
N399 C397 1.279 . S
C400 C397 1.358 . S
C400 C401 1.356 . S
C400 H437 0.930 . S
C401 C398 1.348 . S
C401 C400 1.356 . S
H402 C396 0.930 . S
H403 C397 0.930 . S
C404 N405 1.314 . S
C404 C406 1.353 1_655 S
C404 H410 0.930 . S
N405 Li355 1.990 . S
N405 C404 1.314 . S
N405 C408 1.279 . S
C406 C404 1.353 1_455 S
C406 C409 1.348 . S
C406 H438 0.929 . S
C407 C408 1.358 . S
C407 C409 1.356 1_655 S
C407 H439 0.930 . S
C408 N405 1.279 . S
C408 C407 1.358 . S
C408 H411 0.930 . S
C409 C406 1.348 . S
C409 C407 1.356 1_455 S
H410 C404 0.930 . S
H411 C408 0.930 . S
O412 Li352 1.956 . S
O412 Li353 1.970 . S
O412 Li354 1.961 . S
O412 C356 1.325 . S
O413 Li352 1.970 . S
O413 Li353 1.956 . S
O413 Li355 1.961 . S
O413 C362 1.325 . S
O414 Li352 1.961 . S
O414 Li354 1.956 . S
O414 Li355 1.970 . S
O414 C384 1.325 . S
O415 Li353 1.961 . S
O415 Li354 1.970 . S
O415 Li355 1.956 . S
O415 C390 1.325 . S
H416 C358 0.929 . S
H417 C359 0.930 . S
H418 C360 0.930 . S
H419 C361 0.930 . S
H420 C363 0.930 . S
H421 C365 0.929 . S
H422 C366 0.930 . S
H423 C367 0.930 . S
H424 C370 0.930 . S
H425 C373 0.929 . S
H426 C378 0.929 . S
H427 C379 0.930 . S
H428 C386 0.929 . S
H429 C387 0.930 . S
H430 C388 0.930 . S
H431 C389 0.930 . S
H432 C391 0.929 . S
H433 C392 0.930 . S
H434 C393 0.930 . S
H435 C394 0.930 . S
H436 C398 0.929 . S
H437 C400 0.930 . S
H438 C406 0.929 . S
H439 C407 0.930 . S
Li440 N457 1.990 . S
Li440 O500 1.956 . S
Li440 O501 1.970 . S
Li440 O502 1.961 . S
Li441 N465 1.990 . S
Li441 O500 1.970 . S
Li441 O501 1.956 . S
Li441 O503 1.961 . S
Li442 N487 1.990 . S
Li442 O500 1.961 . S
Li442 O502 1.956 . S
Li442 O503 1.970 . S
Li443 N493 1.990 . S
Li443 O501 1.961 . S
Li443 O502 1.970 . S
Li443 O503 1.956 . S
C444 C446 1.348 . S
C444 C447 1.356 . S
C444 O500 1.325 . S
N445 C448 1.314 . S
N445 C449 1.279 . S
C446 C444 1.348 . S
C446 C448 1.353 . S
C446 H504 0.929 . S
C447 C444 1.356 . S
C447 C449 1.358 . S
C447 H505 0.930 . S
C448 N445 1.314 . S
C448 C446 1.353 . S
C448 H506 0.930 . S
C449 N445 1.279 . S
C449 C447 1.358 . S
C449 H507 0.930 . S
C450 C453 1.348 . S
C450 C454 1.356 . S
C450 O501 1.325 . S
C451 N452 1.279 . S
C451 C454 1.358 . S
C451 H508 0.930 . S
N452 C451 1.279 . S
N452 C455 1.314 . S
C453 C450 1.348 . S
C453 C455 1.353 . S
C453 H509 0.929 . S
C454 C450 1.356 . S
C454 C451 1.358 . S
C454 H510 0.930 . S
C455 N452 1.314 . S
C455 C453 1.353 . S
C455 H511 0.930 . S
C456 N457 1.314 . S
C456 C461 1.353 . S
C456 H462 0.930 . S
N457 Li440 1.990 . S
N457 C456 1.314 . S
N457 C459 1.279 . S
C458 C459 1.358 . S
C458 C460 1.356 . S
C458 H512 0.930 . S
C459 N457 1.279 . S
C459 C458 1.358 . S
C459 H463 0.930 . S
C460 C458 1.356 . S
C460 C461 1.348 . S
C461 C456 1.353 . S
C461 C460 1.348 . S
C461 H513 0.929 . S
H462 C456 0.930 . S
H463 C459 0.930 . S
C464 N465 1.314 . S
C464 C466 1.353 . S
C464 H470 0.930 . S
N465 Li441 1.990 . S
N465 C464 1.314 . S
N465 C468 1.279 . S
C466 C464 1.353 . S
C466 C469 1.348 . S
C466 H514 0.929 . S
C467 C468 1.358 . S
C467 C469 1.356 . S
C467 H515 0.930 . S
C468 N465 1.279 . S
C468 C467 1.358 . S
C468 H471 0.930 . S
C469 C466 1.348 . S
C469 C467 1.356 . S
H470 C464 0.930 . S
H471 C468 0.930 . S
C472 C474 1.348 . S
C472 C475 1.356 . S
C472 O502 1.325 . S
N473 C476 1.314 . S
N473 C477 1.279 . S
C474 C472 1.348 . S
C474 C476 1.353 . S
C474 H516 0.929 . S
C475 C472 1.356 . S
C475 C477 1.358 . S
C475 H517 0.930 . S
C476 N473 1.314 . S
C476 C474 1.353 . S
C476 H518 0.930 . S
C477 N473 1.279 . S
C477 C475 1.358 . S
C477 H519 0.930 . S
C478 C479 1.348 . S
C478 C480 1.356 . S
C478 O503 1.325 . S
C479 C478 1.348 . S
C479 C481 1.353 . S
C479 H520 0.929 . S
C480 C478 1.356 . S
C480 C482 1.358 . S
C480 H521 0.930 . S
C481 C479 1.353 . S
C481 N483 1.314 . S
C481 H522 0.930 . S
C482 C480 1.358 . S
C482 N483 1.279 . S
C482 H523 0.930 . S
N483 C481 1.314 . S
N483 C482 1.279 . S
C484 C486 1.353 . S
C484 N487 1.314 . S
C484 H490 0.930 . S
C485 N487 1.279 . S
C485 C488 1.358 . S
C485 H491 0.930 . S
C486 C484 1.353 . S
C486 C489 1.348 . S
C486 H524 0.929 . S
N487 Li442 1.990 . S
N487 C484 1.314 . S
N487 C485 1.279 . S
C488 C485 1.358 . S
C488 C489 1.356 . S
C488 H525 0.930 . S
C489 C486 1.348 . S
C489 C488 1.356 . S
H490 C484 0.930 . S
H491 C485 0.930 . S
C492 N493 1.314 . S
C492 C494 1.353 1_565 S
C492 H498 0.930 . S
N493 Li443 1.990 . S
N493 C492 1.314 . S
N493 C496 1.279 . S
C494 C492 1.353 1_545 S
C494 C497 1.348 . S
C494 H526 0.929 . S
C495 C496 1.358 . S
C495 C497 1.356 1_565 S
C495 H527 0.930 . S
C496 N493 1.279 . S
C496 C495 1.358 . S
C496 H499 0.930 . S
C497 C494 1.348 . S
C497 C495 1.356 1_545 S
H498 C492 0.930 . S
H499 C496 0.930 . S
O500 Li440 1.956 . S
O500 Li441 1.970 . S
O500 Li442 1.961 . S
O500 C444 1.325 . S
O501 Li440 1.970 . S
O501 Li441 1.956 . S
O501 Li443 1.961 . S
O501 C450 1.325 . S
O502 Li440 1.961 . S
O502 Li442 1.956 . S
O502 Li443 1.970 . S
O502 C472 1.325 . S
O503 Li441 1.961 . S
O503 Li442 1.970 . S
O503 Li443 1.956 . S
O503 C478 1.325 . S
H504 C446 0.929 . S
H505 C447 0.930 . S
H506 C448 0.930 . S
H507 C449 0.930 . S
H508 C451 0.930 . S
H509 C453 0.929 . S
H510 C454 0.930 . S
H511 C455 0.930 . S
H512 C458 0.930 . S
H513 C461 0.929 . S
H514 C466 0.929 . S
H515 C467 0.930 . S
H516 C474 0.929 . S
H517 C475 0.930 . S
H518 C476 0.930 . S
H519 C477 0.930 . S
H520 C479 0.929 . S
H521 C480 0.930 . S
H522 C481 0.930 . S
H523 C482 0.930 . S
H524 C486 0.929 . S
H525 C488 0.930 . S
H526 C494 0.929 . S
H527 C495 0.930 . S
Li528 N545 1.990 . S
Li528 O588 1.956 . S
Li528 O589 1.970 . S
Li528 O590 1.961 . S
Li529 N553 1.990 . S
Li529 O588 1.970 . S
Li529 O589 1.956 . S
Li529 O591 1.961 . S
Li530 N575 1.990 . S
Li530 O588 1.961 . S
Li530 O590 1.956 . S
Li530 O591 1.970 . S
Li531 N581 1.990 . S
Li531 O589 1.961 . S
Li531 O590 1.970 . S
Li531 O591 1.956 . S
C532 C534 1.348 . S
C532 C535 1.356 . S
C532 O588 1.325 . S
N533 C536 1.314 . S
N533 C537 1.279 . S
C534 C532 1.348 . S
C534 C536 1.353 . S
C534 H592 0.929 . S
C535 C532 1.356 . S
C535 C537 1.358 . S
C535 H593 0.930 . S
C536 N533 1.314 . S
C536 C534 1.353 . S
C536 H594 0.930 . S
C537 N533 1.279 . S
C537 C535 1.358 . S
C537 H595 0.930 . S
C538 C541 1.348 . S
C538 C542 1.356 . S
C538 O589 1.325 . S
C539 N540 1.279 . S
C539 C542 1.358 . S
C539 H596 0.930 . S
N540 C539 1.279 . S
N540 C543 1.314 . S
C541 C538 1.348 . S
C541 C543 1.353 . S
C541 H597 0.929 . S
C542 C538 1.356 . S
C542 C539 1.358 . S
C542 H598 0.930 . S
C543 N540 1.314 . S
C543 C541 1.353 . S
C543 H599 0.930 . S
C544 N545 1.314 . S
C544 C549 1.353 . S
C544 H550 0.930 . S
N545 Li528 1.990 . S
N545 C544 1.314 . S
N545 C547 1.279 . S
C546 C547 1.358 . S
C546 C548 1.356 . S
C546 H600 0.930 . S
C547 N545 1.279 . S
C547 C546 1.358 . S
C547 H551 0.930 . S
C548 C546 1.356 . S
C548 C549 1.348 . S
C549 C544 1.353 . S
C549 C548 1.348 . S
C549 H601 0.929 . S
H550 C544 0.930 . S
H551 C547 0.930 . S
C552 N553 1.314 . S
C552 C554 1.353 . S
C552 H558 0.930 . S
N553 Li529 1.990 . S
N553 C552 1.314 . S
N553 C556 1.279 . S
C554 C552 1.353 . S
C554 C557 1.348 . S
C554 H602 0.929 . S
C555 C556 1.358 . S
C555 C557 1.356 . S
C555 H603 0.930 . S
C556 N553 1.279 . S
C556 C555 1.358 . S
C556 H559 0.930 . S
C557 C554 1.348 . S
C557 C555 1.356 . S
H558 C552 0.930 . S
H559 C556 0.930 . S
C560 C562 1.348 . S
C560 C563 1.356 . S
C560 O590 1.325 . S
N561 C564 1.314 . S
N561 C565 1.279 . S
C562 C560 1.348 . S
C562 C564 1.353 . S
C562 H604 0.929 . S
C563 C560 1.356 . S
C563 C565 1.358 . S
C563 H605 0.930 . S
C564 N561 1.314 . S
C564 C562 1.353 . S
C564 H606 0.930 . S
C565 N561 1.279 . S
C565 C563 1.358 . S
C565 H607 0.930 . S
C566 C567 1.348 . S
C566 C568 1.356 . S
C566 O591 1.325 . S
C567 C566 1.348 . S
C567 C569 1.353 . S
C567 H608 0.929 . S
C568 C566 1.356 . S
C568 C570 1.358 . S
C568 H609 0.930 . S
C569 C567 1.353 . S
C569 N571 1.314 . S
C569 H610 0.930 . S
C570 C568 1.358 . S
C570 N571 1.279 . S
C570 H611 0.930 . S
N571 C569 1.314 . S
N571 C570 1.279 . S
C572 C574 1.353 . S
C572 N575 1.314 . S
C572 H578 0.930 . S
C573 N575 1.279 . S
C573 C576 1.358 . S
C573 H579 0.930 . S
C574 C572 1.353 . S
C574 C577 1.348 . S
C574 H612 0.929 . S
N575 Li530 1.990 . S
N575 C572 1.314 . S
N575 C573 1.279 . S
C576 C573 1.358 . S
C576 C577 1.356 . S
C576 H613 0.930 . S
C577 C574 1.348 . S
C577 C576 1.356 . S
H578 C572 0.930 . S
H579 C573 0.930 . S
C580 N581 1.314 . S
C580 C582 1.353 . S
C580 H586 0.930 . S
N581 Li531 1.990 . S
N581 C580 1.314 . S
N581 C584 1.279 . S
C582 C580 1.353 . S
C582 C585 1.348 . S
C582 H614 0.929 . S
C583 C584 1.358 . S
C583 C585 1.356 . S
C583 H615 0.930 . S
C584 N581 1.279 . S
C584 C583 1.358 . S
C584 H587 0.930 . S
C585 C582 1.348 . S
C585 C583 1.356 . S
H586 C580 0.930 . S
H587 C584 0.930 . S
O588 Li528 1.956 . S
O588 Li529 1.970 . S
O588 Li530 1.961 . S
O588 C532 1.325 . S
O589 Li528 1.970 . S
O589 Li529 1.956 . S
O589 Li531 1.961 . S
O589 C538 1.325 . S
O590 Li528 1.961 . S
O590 Li530 1.956 . S
O590 Li531 1.970 . S
O590 C560 1.325 . S
O591 Li529 1.961 . S
O591 Li530 1.970 . S
O591 Li531 1.956 . S
O591 C566 1.325 . S
H592 C534 0.929 . S
H593 C535 0.930 . S
H594 C536 0.930 . S
H595 C537 0.930 . S
H596 C539 0.930 . S
H597 C541 0.929 . S
H598 C542 0.930 . S
H599 C543 0.930 . S
H600 C546 0.930 . S
H601 C549 0.929 . S
H602 C554 0.929 . S
H603 C555 0.930 . S
H604 C562 0.929 . S
H605 C563 0.930 . S
H606 C564 0.930 . S
H607 C565 0.930 . S
H608 C567 0.929 . S
H609 C568 0.930 . S
H610 C569 0.930 . S
H611 C570 0.930 . S
H612 C574 0.929 . S
H613 C576 0.930 . S
H614 C582 0.929 . S
H615 C583 0.930 . S
Li616 N633 1.990 . S
Li616 O676 1.956 . S
Li616 O677 1.970 . S
Li616 O678 1.961 . S
Li617 N641 1.990 . S
Li617 O676 1.970 . S
Li617 O677 1.956 . S
Li617 O679 1.961 . S
Li618 N663 1.990 . S
Li618 O676 1.961 . S
Li618 O678 1.956 . S
Li618 O679 1.970 . S
Li619 N669 1.990 . S
Li619 O677 1.961 . S
Li619 O678 1.970 . S
Li619 O679 1.956 . S
C620 C622 1.348 . S
C620 C623 1.356 . S
C620 O676 1.325 . S
N621 C624 1.314 . S
N621 C625 1.279 . S
C622 C620 1.348 . S
C622 C624 1.353 1_556 S
C622 H680 0.929 . S
C623 C620 1.356 . S
C623 C625 1.358 1_556 S
C623 H681 0.930 . S
C624 N621 1.314 . S
C624 C622 1.353 1_554 S
C624 H682 0.930 . S
C625 N621 1.279 . S
C625 C623 1.358 1_554 S
C625 H683 0.930 . S
C626 C629 1.348 . S
C626 C630 1.356 . S
C626 O677 1.325 . S
C627 N628 1.279 . S
C627 C630 1.358 . S
C627 H684 0.930 . S
N628 C627 1.279 . S
N628 C631 1.314 . S
C629 C626 1.348 . S
C629 C631 1.353 . S
C629 H685 0.929 . S
C630 C626 1.356 . S
C630 C627 1.358 . S
C630 H686 0.930 . S
C631 N628 1.314 . S
C631 C629 1.353 . S
C631 H687 0.930 . S
C632 N633 1.314 . S
C632 C637 1.353 . S
C632 H638 0.930 . S
N633 Li616 1.990 . S
N633 C632 1.314 . S
N633 C635 1.279 . S
C634 C635 1.358 . S
C634 C636 1.356 . S
C634 H688 0.930 1_556 S
C635 N633 1.279 . S
C635 C634 1.358 . S
C635 H639 0.930 . S
C636 C634 1.356 . S
C636 C637 1.348 . S
C637 C632 1.353 . S
C637 C636 1.348 . S
C637 H689 0.929 . S
H638 C632 0.930 . S
H639 C635 0.930 . S
C640 N641 1.314 . S
C640 C642 1.353 1_455 S
C640 H646 0.930 . S
N641 Li617 1.990 . S
N641 C640 1.314 . S
N641 C644 1.279 . S
C642 C640 1.353 1_655 S
C642 C645 1.348 . S
C642 H690 0.929 . S
C643 C644 1.358 . S
C643 C645 1.356 1_455 S
C643 H691 0.930 . S
C644 N641 1.279 . S
C644 C643 1.358 . S
C644 H647 0.930 . S
C645 C642 1.348 . S
C645 C643 1.356 1_655 S
H646 C640 0.930 . S
H647 C644 0.930 . S
C648 C650 1.348 . S
C648 C651 1.356 . S
C648 O678 1.325 . S
N649 C652 1.314 . S
N649 C653 1.279 . S
C650 C648 1.348 . S
C650 C652 1.353 . S
C650 H692 0.929 . S
C651 C648 1.356 . S
C651 C653 1.358 . S
C651 H693 0.930 . S
C652 N649 1.314 . S
C652 C650 1.353 . S
C652 H694 0.930 . S
C653 N649 1.279 . S
C653 C651 1.358 . S
C653 H695 0.930 . S
C654 C655 1.348 . S
C654 C656 1.356 . S
C654 O679 1.325 . S
C655 C654 1.348 . S
C655 C657 1.353 . S
C655 H696 0.929 . S
C656 C654 1.356 . S
C656 C658 1.358 . S
C656 H697 0.930 . S
C657 C655 1.353 . S
C657 N659 1.314 . S
C657 H698 0.930 . S
C658 C656 1.358 . S
C658 N659 1.279 . S
C658 H699 0.930 . S
N659 C657 1.314 . S
N659 C658 1.279 . S
C660 C662 1.353 . S
C660 N663 1.314 . S
C660 H666 0.930 . S
C661 N663 1.279 . S
C661 C664 1.358 . S
C661 H667 0.930 . S
C662 C660 1.353 . S
C662 C665 1.348 . S
C662 H700 0.929 . S
N663 Li618 1.990 . S
N663 C660 1.314 . S
N663 C661 1.279 . S
C664 C661 1.358 . S
C664 C665 1.356 . S
C664 H701 0.930 . S
C665 C662 1.348 . S
C665 C664 1.356 . S
H666 C660 0.930 . S
H667 C661 0.930 . S
C668 N669 1.314 . S
C668 C670 1.353 . S
C668 H674 0.930 . S
N669 Li619 1.990 . S
N669 C668 1.314 . S
N669 C672 1.279 . S
C670 C668 1.353 . S
C670 C673 1.348 . S
C670 H702 0.929 . S
C671 C672 1.358 . S
C671 C673 1.356 . S
C671 H703 0.930 . S
C672 N669 1.279 . S
C672 C671 1.358 . S
C672 H675 0.930 . S
C673 C670 1.348 . S
C673 C671 1.356 . S
H674 C668 0.930 . S
H675 C672 0.930 . S
O676 Li616 1.956 . S
O676 Li617 1.970 . S
O676 Li618 1.961 . S
O676 C620 1.325 . S
O677 Li616 1.970 . S
O677 Li617 1.956 . S
O677 Li619 1.961 . S
O677 C626 1.325 . S
O678 Li616 1.961 . S
O678 Li618 1.956 . S
O678 Li619 1.970 . S
O678 C648 1.325 . S
O679 Li617 1.961 . S
O679 Li618 1.970 . S
O679 Li619 1.956 . S
O679 C654 1.325 . S
H680 C622 0.929 . S
H681 C623 0.930 . S
H682 C624 0.930 . S
H683 C625 0.930 . S
H684 C627 0.930 . S
H685 C629 0.929 . S
H686 C630 0.930 . S
H687 C631 0.930 . S
H688 C634 0.930 1_554 S
H689 C637 0.929 . S
H690 C642 0.929 . S
H691 C643 0.930 . S
H692 C650 0.929 . S
H693 C651 0.930 . S
H694 C652 0.930 . S
H695 C653 0.930 . S
H696 C655 0.929 . S
H697 C656 0.930 . S
H698 C657 0.930 . S
H699 C658 0.930 . S
H700 C662 0.929 . S
H701 C664 0.930 . S
H702 C670 0.929 . S
H703 C671 0.930 . S
Li704 N721 1.990 . S
Li704 O764 1.956 . S
Li704 O765 1.970 . S
Li704 O766 1.961 . S
Li705 N729 1.990 . S
Li705 O764 1.970 . S
Li705 O765 1.956 . S
Li705 O767 1.961 . S
Li706 N751 1.990 . S
Li706 O764 1.961 . S
Li706 O766 1.956 . S
Li706 O767 1.970 . S
Li707 N757 1.990 . S
Li707 O765 1.961 . S
Li707 O766 1.970 . S
Li707 O767 1.956 . S
C708 C710 1.348 . S
C708 C711 1.356 . S
C708 O764 1.325 . S
N709 C712 1.314 . S
N709 C713 1.279 . S
C710 C708 1.348 . S
C710 C712 1.353 . S
C710 H768 0.929 . S
C711 C708 1.356 . S
C711 C713 1.358 . S
C711 H769 0.930 . S
C712 N709 1.314 . S
C712 C710 1.353 . S
C712 H770 0.930 . S
C713 N709 1.279 . S
C713 C711 1.358 . S
C713 H771 0.930 . S
C714 C717 1.348 . S
C714 C718 1.356 . S
C714 O765 1.325 . S
C715 N716 1.279 . S
C715 C718 1.358 . S
C715 H772 0.930 . S
N716 C715 1.279 . S
N716 C719 1.314 . S
C717 C714 1.348 . S
C717 C719 1.353 . S
C717 H773 0.929 . S
C718 C714 1.356 . S
C718 C715 1.358 . S
C718 H774 0.930 . S
C719 N716 1.314 . S
C719 C717 1.353 . S
C719 H775 0.930 . S
C720 N721 1.314 . S
C720 C725 1.353 1_545 S
C720 H726 0.930 . S
N721 Li704 1.990 . S
N721 C720 1.314 . S
N721 C723 1.279 . S
C722 C723 1.358 . S
C722 C724 1.356 1_545 S
C722 H776 0.930 . S
C723 N721 1.279 . S
C723 C722 1.358 . S
C723 H727 0.930 . S
C724 C722 1.356 1_565 S
C724 C725 1.348 . S
C725 C720 1.353 1_565 S
C725 C724 1.348 . S
C725 H777 0.929 . S
H726 C720 0.930 . S
H727 C723 0.930 . S
C728 N729 1.314 . S
C728 C730 1.353 . S
C728 H734 0.930 . S
N729 Li705 1.990 . S
N729 C728 1.314 . S
N729 C732 1.279 . S
C730 C728 1.353 . S
C730 C733 1.348 . S
C730 H778 0.929 . S
C731 C732 1.358 . S
C731 C733 1.356 . S
C731 H779 0.930 . S
C732 N729 1.279 . S
C732 C731 1.358 . S
C732 H735 0.930 . S
C733 C730 1.348 . S
C733 C731 1.356 . S
H734 C728 0.930 . S
H735 C732 0.930 . S
C736 C738 1.348 . S
C736 C739 1.356 . S
C736 O766 1.325 . S
N737 C740 1.314 . S
N737 C741 1.279 . S
C738 C736 1.348 . S
C738 C740 1.353 . S
C738 H780 0.929 . S
C739 C736 1.356 . S
C739 C741 1.358 . S
C739 H781 0.930 . S
C740 N737 1.314 . S
C740 C738 1.353 . S
C740 H782 0.930 . S
C741 N737 1.279 . S
C741 C739 1.358 . S
C741 H783 0.930 . S
C742 C743 1.348 . S
C742 C744 1.356 . S
C742 O767 1.325 . S
C743 C742 1.348 . S
C743 C745 1.353 . S
C743 H784 0.929 . S
C744 C742 1.356 . S
C744 C746 1.358 . S
C744 H785 0.930 . S
C745 C743 1.353 . S
C745 N747 1.314 . S
C745 H786 0.930 . S
C746 C744 1.358 . S
C746 N747 1.279 . S
C746 H787 0.930 . S
N747 C745 1.314 . S
N747 C746 1.279 . S
C748 C750 1.353 . S
C748 N751 1.314 . S
C748 H754 0.930 . S
C749 N751 1.279 . S
C749 C752 1.358 . S
C749 H755 0.930 . S
C750 C748 1.353 . S
C750 C753 1.348 . S
C750 H788 0.929 . S
N751 Li706 1.990 . S
N751 C748 1.314 . S
N751 C749 1.279 . S
C752 C749 1.358 . S
C752 C753 1.356 . S
C752 H789 0.930 . S
C753 C750 1.348 . S
C753 C752 1.356 . S
H754 C748 0.930 . S
H755 C749 0.930 . S
C756 N757 1.314 . S
C756 C758 1.353 . S
C756 H762 0.930 . S
N757 Li707 1.990 . S
N757 C756 1.314 . S
N757 C760 1.279 . S
C758 C756 1.353 . S
C758 C761 1.348 . S
C758 H790 0.929 . S
C759 C760 1.358 . S
C759 C761 1.356 . S
C759 H791 0.930 . S
C760 N757 1.279 . S
C760 C759 1.358 . S
C760 H763 0.930 . S
C761 C758 1.348 . S
C761 C759 1.356 . S
H762 C756 0.930 . S
H763 C760 0.930 . S
O764 Li704 1.956 . S
O764 Li705 1.970 . S
O764 Li706 1.961 . S
O764 C708 1.325 . S
O765 Li704 1.970 . S
O765 Li705 1.956 . S
O765 Li707 1.961 . S
O765 C714 1.325 . S
O766 Li704 1.961 . S
O766 Li706 1.956 . S
O766 Li707 1.970 . S
O766 C736 1.325 . S
O767 Li705 1.961 . S
O767 Li706 1.970 . S
O767 Li707 1.956 . S
O767 C742 1.325 . S
H768 C710 0.929 . S
H769 C711 0.930 . S
H770 C712 0.930 . S
H771 C713 0.930 . S
H772 C715 0.930 . S
H773 C717 0.929 . S
H774 C718 0.930 . S
H775 C719 0.930 . S
H776 C722 0.930 . S
H777 C725 0.929 . S
H778 C730 0.929 . S
H779 C731 0.930 . S
H780 C738 0.929 . S
H781 C739 0.930 . S
H782 C740 0.930 . S
H783 C741 0.930 . S
H784 C743 0.929 . S
H785 C744 0.930 . S
H786 C745 0.930 . S
H787 C746 0.930 . S
H788 C750 0.929 . S
H789 C752 0.930 . S
H790 C758 0.929 . S
H791 C759 0.930 . S
Li792 N809 1.990 . S
Li792 O852 1.956 . S
Li792 O853 1.970 . S
Li792 O854 1.961 . S
Li793 N817 1.990 . S
Li793 O852 1.970 . S
Li793 O853 1.956 . S
Li793 O855 1.961 . S
Li794 N839 1.990 . S
Li794 O852 1.961 . S
Li794 O854 1.956 . S
Li794 O855 1.970 . S
Li795 N845 1.990 . S
Li795 O853 1.961 . S
Li795 O854 1.970 . S
Li795 O855 1.956 . S
C796 C798 1.348 . S
C796 C799 1.356 . S
C796 O852 1.325 . S
N797 C800 1.314 . S
N797 C801 1.279 . S
C798 C796 1.348 . S
C798 C800 1.353 . S
C798 H856 0.929 . S
C799 C796 1.356 . S
C799 C801 1.358 . S
C799 H857 0.930 . S
C800 N797 1.314 . S
C800 C798 1.353 . S
C800 H858 0.930 . S
C801 N797 1.279 . S
C801 C799 1.358 . S
C801 H859 0.930 . S
C802 C805 1.348 . S
C802 C806 1.356 . S
C802 O853 1.325 . S
C803 N804 1.279 . S
C803 C806 1.358 . S
C803 H860 0.930 . S
N804 C803 1.279 . S
N804 C807 1.314 . S
C805 C802 1.348 . S
C805 C807 1.353 . S
C805 H861 0.929 . S
C806 C802 1.356 . S
C806 C803 1.358 . S
C806 H862 0.930 . S
C807 N804 1.314 . S
C807 C805 1.353 . S
C807 H863 0.930 . S
C808 N809 1.314 . S
C808 C813 1.353 . S
C808 H814 0.930 . S
N809 Li792 1.990 . S
N809 C808 1.314 . S
N809 C811 1.279 . S
C810 C811 1.358 . S
C810 C812 1.356 . S
C810 H864 0.930 . S
C811 N809 1.279 . S
C811 C810 1.358 . S
C811 H815 0.930 . S
C812 C810 1.356 . S
C812 C813 1.348 . S
C813 C808 1.353 . S
C813 C812 1.348 . S
C813 H865 0.929 . S
H814 C808 0.930 . S
H815 C811 0.930 . S
C816 N817 1.314 . S
C816 C818 1.353 . S
C816 H822 0.930 . S
N817 Li793 1.990 . S
N817 C816 1.314 . S
N817 C820 1.279 . S
C818 C816 1.353 . S
C818 C821 1.348 . S
C818 H866 0.929 . S
C819 C820 1.358 . S
C819 C821 1.356 . S
C819 H867 0.930 . S
C820 N817 1.279 . S
C820 C819 1.358 . S
C820 H823 0.930 . S
C821 C818 1.348 . S
C821 C819 1.356 . S
H822 C816 0.930 . S
H823 C820 0.930 . S
C824 C826 1.348 . S
C824 C827 1.356 . S
C824 O854 1.325 . S
N825 C828 1.314 . S
N825 C829 1.279 . S
C826 C824 1.348 . S
C826 C828 1.353 . S
C826 H868 0.929 . S
C827 C824 1.356 . S
C827 C829 1.358 . S
C827 H869 0.930 . S
C828 N825 1.314 . S
C828 C826 1.353 . S
C828 H870 0.930 . S
C829 N825 1.279 . S
C829 C827 1.358 . S
C829 H871 0.930 . S
C830 C831 1.348 . S
C830 C832 1.356 . S
C830 O855 1.325 . S
C831 C830 1.348 . S
C831 C833 1.353 . S
C831 H872 0.929 . S
C832 C830 1.356 . S
C832 C834 1.358 . S
C832 H873 0.930 . S
C833 C831 1.353 . S
C833 N835 1.314 . S
C833 H874 0.930 . S
C834 C832 1.358 . S
C834 N835 1.279 . S
C834 H875 0.930 . S
N835 C833 1.314 . S
N835 C834 1.279 . S
C836 C838 1.353 . S
C836 N839 1.314 . S
C836 H842 0.930 . S
C837 N839 1.279 . S
C837 C840 1.358 . S
C837 H843 0.930 . S
C838 C836 1.353 . S
C838 C841 1.348 . S
C838 H876 0.929 . S
N839 Li794 1.990 . S
N839 C836 1.314 . S
N839 C837 1.279 . S
C840 C837 1.358 . S
C840 C841 1.356 . S
C840 H877 0.930 . S
C841 C838 1.348 . S
C841 C840 1.356 . S
H842 C836 0.930 . S
H843 C837 0.930 . S
C844 N845 1.314 . S
C844 C846 1.353 . S
C844 H850 0.930 . S
N845 Li795 1.990 . S
N845 C844 1.314 . S
N845 C848 1.279 . S
C846 C844 1.353 . S
C846 C849 1.348 . S
C846 H878 0.929 . S
C847 C848 1.358 . S
C847 C849 1.356 . S
C847 H879 0.930 . S
C848 N845 1.279 . S
C848 C847 1.358 . S
C848 H851 0.930 . S
C849 C846 1.348 . S
C849 C847 1.356 . S
H850 C844 0.930 . S
H851 C848 0.930 . S
O852 Li792 1.956 . S
O852 Li793 1.970 . S
O852 Li794 1.961 . S
O852 C796 1.325 . S
O853 Li792 1.970 . S
O853 Li793 1.956 . S
O853 Li795 1.961 . S
O853 C802 1.325 . S
O854 Li792 1.961 . S
O854 Li794 1.956 . S
O854 Li795 1.970 . S
O854 C824 1.325 . S
O855 Li793 1.961 . S
O855 Li794 1.970 . S
O855 Li795 1.956 . S
O855 C830 1.325 . S
H856 C798 0.929 . S
H857 C799 0.930 . S
H858 C800 0.930 . S
H859 C801 0.930 . S
H860 C803 0.930 . S
H861 C805 0.929 . S
H862 C806 0.930 . S
H863 C807 0.930 . S
H864 C810 0.930 . S
H865 C813 0.929 . S
H866 C818 0.929 . S
H867 C819 0.930 . S
H868 C826 0.929 . S
H869 C827 0.930 . S
H870 C828 0.930 . S
H871 C829 0.930 . S
H872 C831 0.929 . S
H873 C832 0.930 . S
H874 C833 0.930 . S
H875 C834 0.930 . S
H876 C838 0.929 . S
H877 C840 0.930 . S
H878 C846 0.929 . S
H879 C847 0.930 . S
Li880 N897 1.990 . S
Li880 O940 1.956 . S
Li880 O941 1.970 . S
Li880 O942 1.961 . S
Li881 N905 1.990 . S
Li881 O940 1.970 . S
Li881 O941 1.956 . S
Li881 O943 1.961 . S
Li882 N927 1.990 . S
Li882 O940 1.961 . S
Li882 O942 1.956 . S
Li882 O943 1.970 . S
Li883 N933 1.990 . S
Li883 O941 1.961 . S
Li883 O942 1.970 . S
Li883 O943 1.956 . S
C884 C886 1.348 . S
C884 C887 1.356 . S
C884 O940 1.325 . S
N885 C888 1.314 . S
N885 C889 1.279 . S
C886 C884 1.348 . S
C886 C888 1.353 1_556 S
C886 H944 0.929 . S
C887 C884 1.356 . S
C887 C889 1.358 1_556 S
C887 H945 0.930 . S
C888 N885 1.314 . S
C888 C886 1.353 1_554 S
C888 H946 0.930 . S
C889 N885 1.279 . S
C889 C887 1.358 1_554 S
C889 H947 0.930 . S
C890 C893 1.348 . S
C890 C894 1.356 . S
C890 O941 1.325 . S
C891 N892 1.279 . S
C891 C894 1.358 . S
C891 H948 0.930 . S
N892 C891 1.279 . S
N892 C895 1.314 . S
C893 C890 1.348 . S
C893 C895 1.353 . S
C893 H949 0.929 . S
C894 C890 1.356 . S
C894 C891 1.358 . S
C894 H950 0.930 . S
C895 N892 1.314 . S
C895 C893 1.353 . S
C895 H951 0.930 . S
C896 N897 1.314 . S
C896 C901 1.353 . S
C896 H902 0.930 . S
N897 Li880 1.990 . S
N897 C896 1.314 . S
N897 C899 1.279 . S
C898 C899 1.358 . S
C898 C900 1.356 . S
C898 H952 0.930 1_556 S
C899 N897 1.279 . S
C899 C898 1.358 . S
C899 H903 0.930 . S
C900 C898 1.356 . S
C900 C901 1.348 . S
C901 C896 1.353 . S
C901 C900 1.348 . S
C901 H953 0.929 . S
H902 C896 0.930 . S
H903 C899 0.930 . S
C904 N905 1.314 . S
C904 C906 1.353 1_655 S
C904 H910 0.930 . S
N905 Li881 1.990 . S
N905 C904 1.314 . S
N905 C908 1.279 . S
C906 C904 1.353 1_455 S
C906 C909 1.348 . S
C906 H954 0.929 . S
C907 C908 1.358 . S
C907 C909 1.356 1_655 S
C907 H955 0.930 . S
C908 N905 1.279 . S
C908 C907 1.358 . S
C908 H911 0.930 . S
C909 C906 1.348 . S
C909 C907 1.356 1_455 S
H910 C904 0.930 . S
H911 C908 0.930 . S
C912 C914 1.348 . S
C912 C915 1.356 . S
C912 O942 1.325 . S
N913 C916 1.314 . S
N913 C917 1.279 . S
C914 C912 1.348 . S
C914 C916 1.353 . S
C914 H956 0.929 . S
C915 C912 1.356 . S
C915 C917 1.358 . S
C915 H957 0.930 . S
C916 N913 1.314 . S
C916 C914 1.353 . S
C916 H958 0.930 . S
C917 N913 1.279 . S
C917 C915 1.358 . S
C917 H959 0.930 . S
C918 C919 1.348 . S
C918 C920 1.356 . S
C918 O943 1.325 . S
C919 C918 1.348 . S
C919 C921 1.353 . S
C919 H960 0.929 . S
C920 C918 1.356 . S
C920 C922 1.358 . S
C920 H961 0.930 . S
C921 C919 1.353 . S
C921 N923 1.314 . S
C921 H962 0.930 . S
C922 C920 1.358 . S
C922 N923 1.279 . S
C922 H963 0.930 . S
N923 C921 1.314 . S
N923 C922 1.279 . S
C924 C926 1.353 . S
C924 N927 1.314 . S
C924 H930 0.930 . S
C925 N927 1.279 . S
C925 C928 1.358 . S
C925 H931 0.930 . S
C926 C924 1.353 . S
C926 C929 1.348 . S
C926 H964 0.929 . S
N927 Li882 1.990 . S
N927 C924 1.314 . S
N927 C925 1.279 . S
C928 C925 1.358 . S
C928 C929 1.356 . S
C928 H965 0.930 . S
C929 C926 1.348 . S
C929 C928 1.356 . S
H930 C924 0.930 . S
H931 C925 0.930 . S
C932 N933 1.314 . S
C932 C934 1.353 . S
C932 H938 0.930 . S
N933 Li883 1.990 . S
N933 C932 1.314 . S
N933 C936 1.279 . S
C934 C932 1.353 . S
C934 C937 1.348 . S
C934 H966 0.929 . S
C935 C936 1.358 . S
C935 C937 1.356 . S
C935 H967 0.930 . S
C936 N933 1.279 . S
C936 C935 1.358 . S
C936 H939 0.930 . S
C937 C934 1.348 . S
C937 C935 1.356 . S
H938 C932 0.930 . S
H939 C936 0.930 . S
O940 Li880 1.956 . S
O940 Li881 1.970 . S
O940 Li882 1.961 . S
O940 C884 1.325 . S
O941 Li880 1.970 . S
O941 Li881 1.956 . S
O941 Li883 1.961 . S
O941 C890 1.325 . S
O942 Li880 1.961 . S
O942 Li882 1.956 . S
O942 Li883 1.970 . S
O942 C912 1.325 . S
O943 Li881 1.961 . S
O943 Li882 1.970 . S
O943 Li883 1.956 . S
O943 C918 1.325 . S
H944 C886 0.929 . S
H945 C887 0.930 . S
H946 C888 0.930 . S
H947 C889 0.930 . S
H948 C891 0.930 . S
H949 C893 0.929 . S
H950 C894 0.930 . S
H951 C895 0.930 . S
H952 C898 0.930 1_554 S
H953 C901 0.929 . S
H954 C906 0.929 . S
H955 C907 0.930 . S
H956 C914 0.929 . S
H957 C915 0.930 . S
H958 C916 0.930 . S
H959 C917 0.930 . S
H960 C919 0.929 . S
H961 C920 0.930 . S
H962 C921 0.930 . S
H963 C922 0.930 . S
H964 C926 0.929 . S
H965 C928 0.930 . S
H966 C934 0.929 . S
H967 C935 0.930 . S
Li968 N985 1.990 . S
Li968 O1028 1.956 . S
Li968 O1029 1.970 . S
Li968 O1030 1.961 . S
Li969 N993 1.990 . S
Li969 O1028 1.970 . S
Li969 O1029 1.956 . S
Li969 O1031 1.961 . S
Li970 N1015 1.990 . S
Li970 O1028 1.961 . S
Li970 O1030 1.956 . S
Li970 O1031 1.970 . S
Li971 N1021 1.990 . S
Li971 O1029 1.961 . S
Li971 O1030 1.970 . S
Li971 O1031 1.956 . S
C972 C974 1.348 . S
C972 C975 1.356 . S
C972 O1028 1.325 . S
N973 C976 1.314 . S
N973 C977 1.279 . S
C974 C972 1.348 . S
C974 C976 1.353 . S
C974 H1032 0.929 . S
C975 C972 1.356 . S
C975 C977 1.358 . S
C975 H1033 0.930 . S
C976 N973 1.314 . S
C976 C974 1.353 . S
C976 H1034 0.930 . S
C977 N973 1.279 . S
C977 C975 1.358 . S
C977 H1035 0.930 . S
C978 C981 1.348 . S
C978 C982 1.356 . S
C978 O1029 1.325 . S
C979 N980 1.279 . S
C979 C982 1.358 . S
C979 H1036 0.930 . S
N980 C979 1.279 . S
N980 C983 1.314 . S
C981 C978 1.348 . S
C981 C983 1.353 . S
C981 H1037 0.929 . S
C982 C978 1.356 . S
C982 C979 1.358 . S
C982 H1038 0.930 . S
C983 N980 1.314 . S
C983 C981 1.353 . S
C983 H1039 0.930 . S
C984 N985 1.314 . S
C984 C989 1.353 1_565 S
C984 H990 0.930 . S
N985 Li968 1.990 . S
N985 C984 1.314 . S
N985 C987 1.279 . S
C986 C987 1.358 . S
C986 C988 1.356 1_565 S
C986 H1040 0.930 . S
C987 N985 1.279 . S
C987 C986 1.358 . S
C987 H991 0.930 . S
C988 C986 1.356 1_545 S
C988 C989 1.348 . S
C989 C984 1.353 1_545 S
C989 C988 1.348 . S
C989 H1041 0.929 . S
H990 C984 0.930 . S
H991 C987 0.930 . S
C992 N993 1.314 . S
C992 C994 1.353 . S
C992 H998 0.930 . S
N993 Li969 1.990 . S
N993 C992 1.314 . S
N993 C996 1.279 . S
C994 C992 1.353 . S
C994 C997 1.348 . S
C994 H1042 0.929 . S
C995 C996 1.358 . S
C995 C997 1.356 . S
C995 H1043 0.930 . S
C996 N993 1.279 . S
C996 C995 1.358 . S
C996 H999 0.930 . S
C997 C994 1.348 . S
C997 C995 1.356 . S
H998 C992 0.930 . S
H999 C996 0.930 . S
C1000 C1002 1.348 . S
C1000 C1003 1.356 . S
C1000 O1030 1.325 . S
N1001 C1004 1.314 . S
N1001 C1005 1.279 . S
C1002 C1000 1.348 . S
C1002 C1004 1.353 . S
C1002 H1044 0.929 . S
C1003 C1000 1.356 . S
C1003 C1005 1.358 . S
C1003 H1045 0.930 . S
C1004 N1001 1.314 . S
C1004 C1002 1.353 . S
C1004 H1046 0.930 . S
C1005 N1001 1.279 . S
C1005 C1003 1.358 . S
C1005 H1047 0.930 . S
C1006 C1007 1.348 . S
C1006 C1008 1.356 . S
C1006 O1031 1.325 . S
C1007 C1006 1.348 . S
C1007 C1009 1.353 . S
C1007 H1048 0.929 . S
C1008 C1006 1.356 . S
C1008 C1010 1.358 . S
C1008 H1049 0.930 . S
C1009 C1007 1.353 . S
C1009 N1011 1.314 . S
C1009 H1050 0.930 . S
C1010 C1008 1.358 . S
C1010 N1011 1.279 . S
C1010 H1051 0.930 . S
N1011 C1009 1.314 . S
N1011 C1010 1.279 . S
C1012 C1014 1.353 . S
C1012 N1015 1.314 . S
C1012 H1018 0.930 . S
C1013 N1015 1.279 . S
C1013 C1016 1.358 . S
C1013 H1019 0.930 . S
C1014 C1012 1.353 . S
C1014 C1017 1.348 . S
C1014 H1052 0.929 . S
N1015 Li970 1.990 . S
N1015 C1012 1.314 . S
N1015 C1013 1.279 . S
C1016 C1013 1.358 . S
C1016 C1017 1.356 . S
C1016 H1053 0.930 . S
C1017 C1014 1.348 . S
C1017 C1016 1.356 . S
H1018 C1012 0.930 . S
H1019 C1013 0.930 . S
C1020 N1021 1.314 . S
C1020 C1022 1.353 . S
C1020 H1026 0.930 . S
N1021 Li971 1.990 . S
N1021 C1020 1.314 . S
N1021 C1024 1.279 . S
C1022 C1020 1.353 . S
C1022 C1025 1.348 . S
C1022 H1054 0.929 . S
C1023 C1024 1.358 . S
C1023 C1025 1.356 . S
C1023 H1055 0.930 . S
C1024 N1021 1.279 . S
C1024 C1023 1.358 . S
C1024 H1027 0.930 . S
C1025 C1022 1.348 . S
C1025 C1023 1.356 . S
H1026 C1020 0.930 . S
H1027 C1024 0.930 . S
O1028 Li968 1.956 . S
O1028 Li969 1.970 . S
O1028 Li970 1.961 . S
O1028 C972 1.325 . S
O1029 Li968 1.970 . S
O1029 Li969 1.956 . S
O1029 Li971 1.961 . S
O1029 C978 1.325 . S
O1030 Li968 1.961 . S
O1030 Li970 1.956 . S
O1030 Li971 1.970 . S
O1030 C1000 1.325 . S
O1031 Li969 1.961 . S
O1031 Li970 1.970 . S
O1031 Li971 1.956 . S
O1031 C1006 1.325 . S
H1032 C974 0.929 . S
H1033 C975 0.930 . S
H1034 C976 0.930 . S
H1035 C977 0.930 . S
H1036 C979 0.930 . S
H1037 C981 0.929 . S
H1038 C982 0.930 . S
H1039 C983 0.930 . S
H1040 C986 0.930 . S
H1041 C989 0.929 . S
H1042 C994 0.929 . S
H1043 C995 0.930 . S
H1044 C1002 0.929 . S
H1045 C1003 0.930 . S
H1046 C1004 0.930 . S
H1047 C1005 0.930 . S
H1048 C1007 0.929 . S
H1049 C1008 0.930 . S
H1050 C1009 0.930 . S
H1051 C1010 0.930 . S
H1052 C1014 0.929 . S
H1053 C1016 0.930 . S
H1054 C1022 0.929 . S
H1055 C1023 0.930 . S
H1056 C1074 0.951 . S
H1057 C1076 0.951 . S
H1058 C1078 0.950 . S
H1059 C1079 0.950 . S
H1060 C1081 0.950 . S
H1061 C1084 0.950 . S
H1062 C1085 0.950 . S
H1063 C1087 0.950 1_556 S
H1064 C1088 0.950 . S
H1065 C1089 0.951 . S
H1066 C1091 0.951 . S
H1067 C1093 0.950 . S
H1068 C1094 0.950 . S
H1069 C1096 0.950 . S
H1070 C1099 0.950 . S
H1071 C1100 0.950 . S
H1072 C1102 0.950 . S
H1073 C1103 0.950 . S
C1074 H1056 0.951 . S
C1074 C1075 1.366 . S
C1074 C1076 1.388 . S
C1075 C1074 1.366 . S
C1075 C1079 1.385 . S
C1076 H1057 0.951 . S
C1076 C1074 1.388 . S
C1076 C1077 1.366 . S
C1077 C1076 1.366 . S
C1077 C1078 1.414 . S
C1077 C1080 1.499 . S
C1078 H1058 0.950 . S
C1078 C1077 1.414 . S
C1078 C1079 1.374 . S
C1079 H1059 0.950 . S
C1079 C1075 1.385 . S
C1079 C1078 1.374 . S
C1080 C1077 1.499 . S
C1080 C1081 1.373 . S
C1080 C1082 1.389 . S
C1081 H1060 0.950 . S
C1081 C1080 1.373 . S
C1081 C1097 1.377 . S
C1082 C1080 1.389 . S
C1082 C1083 1.524 . S
C1082 C1096 1.377 . S
C1083 C1082 1.524 . S
C1083 C1084 1.397 . S
C1083 C1088 1.363 . S
C1084 H1061 0.950 . S
C1084 C1083 1.397 . S
C1084 C1085 1.334 . S
C1085 H1062 0.950 . S
C1085 C1084 1.334 . S
C1085 C1086 1.287 . S
C1086 C1085 1.287 . S
C1086 C1087 1.524 . S
C1086 H1105 0.913 . S
C1087 H1063 0.950 1_554 S
C1087 C1086 1.524 . S
C1087 C1088 1.415 . S
C1088 H1064 0.950 . S
C1088 C1083 1.363 . S
C1088 C1087 1.415 . S
C1089 H1065 0.951 . S
C1089 C1090 1.366 . S
C1089 C1091 1.388 . S
C1090 C1089 1.366 . S
C1090 C1094 1.385 . S
C1091 H1066 0.951 . S
C1091 C1089 1.388 . S
C1091 C1092 1.366 . S
C1092 C1091 1.366 . S
C1092 C1093 1.414 . S
C1092 C1095 1.499 . S
C1093 H1067 0.950 . S
C1093 C1092 1.414 . S
C1093 C1094 1.374 . S
C1094 H1068 0.950 . S
C1094 C1090 1.385 . S
C1094 C1093 1.374 . S
C1095 C1092 1.499 . S
C1095 C1096 1.373 . S
C1095 C1097 1.389 . S
C1096 H1069 0.950 . S
C1096 C1082 1.377 . S
C1096 C1095 1.373 . S
C1097 C1081 1.377 . S
C1097 C1095 1.389 . S
C1097 C1098 1.524 . S
C1098 C1097 1.524 . S
C1098 C1099 1.397 . S
C1098 C1103 1.363 . S
C1099 H1070 0.950 . S
C1099 C1098 1.397 . S
C1099 C1100 1.334 . S
C1100 H1071 0.950 . S
C1100 C1099 1.334 . S
C1100 C1101 1.287 . S
C1101 C1100 1.287 . S
C1101 C1102 1.524 . S
C1101 H1104 0.999 . S
C1102 H1072 0.950 . S
C1102 C1101 1.524 . S
C1102 C1103 1.415 . S
C1103 H1073 0.950 . S
C1103 C1098 1.363 . S
C1103 C1102 1.415 . S
H1104 C1101 0.999 . S
H1105 C1086 0.913 . S
H1106 C1124 0.951 . S
H1107 C1126 0.951 . S
H1108 C1128 0.950 . S
H1109 C1129 0.950 . S
H1110 C1131 0.950 . S
H1111 C1134 0.950 . S
H1112 C1135 0.950 . S
H1113 C1137 0.950 . S
H1114 C1138 0.950 . S
H1115 C1139 0.951 . S
H1116 C1141 0.951 . S
H1117 C1143 0.950 . S
H1118 C1144 0.950 . S
H1119 C1146 0.950 . S
H1120 C1149 0.950 . S
H1121 C1150 0.950 . S
H1122 C1152 0.950 . S
H1123 C1153 0.950 . S
C1124 H1106 0.951 . S
C1124 C1125 1.366 . S
C1124 C1126 1.388 . S
C1125 C1124 1.366 . S
C1125 C1129 1.385 . S
C1126 H1107 0.951 . S
C1126 C1124 1.388 . S
C1126 C1127 1.366 . S
C1127 C1126 1.366 . S
C1127 C1128 1.414 . S
C1127 C1130 1.499 . S
C1128 H1108 0.950 . S
C1128 C1127 1.414 . S
C1128 C1129 1.374 . S
C1129 H1109 0.950 . S
C1129 C1125 1.385 . S
C1129 C1128 1.374 . S
C1130 C1127 1.499 . S
C1130 C1131 1.373 1_455 S
C1130 C1132 1.389 . S
C1131 H1110 0.950 . S
C1131 C1130 1.373 1_655 S
C1131 C1147 1.377 . S
C1132 C1130 1.389 . S
C1132 C1133 1.524 . S
C1132 C1146 1.377 . S
C1133 C1132 1.524 . S
C1133 C1134 1.397 . S
C1133 C1138 1.363 . S
C1134 H1111 0.950 . S
C1134 C1133 1.397 . S
C1134 C1135 1.334 . S
C1135 H1112 0.950 . S
C1135 C1134 1.334 . S
C1135 C1136 1.287 . S
C1136 C1135 1.287 . S
C1136 C1137 1.524 . S
C1136 H1155 0.913 . S
C1137 H1113 0.950 . S
C1137 C1136 1.524 . S
C1137 C1138 1.415 . S
C1138 H1114 0.950 . S
C1138 C1133 1.363 . S
C1138 C1137 1.415 . S
C1139 H1115 0.951 . S
C1139 C1140 1.366 . S
C1139 C1141 1.388 . S
C1140 C1139 1.366 . S
C1140 C1144 1.385 . S
C1141 H1116 0.951 . S
C1141 C1139 1.388 . S
C1141 C1142 1.366 . S
C1142 C1141 1.366 . S
C1142 C1143 1.414 . S
C1142 C1145 1.499 . S
C1143 H1117 0.950 . S
C1143 C1142 1.414 . S
C1143 C1144 1.374 . S
C1144 H1118 0.950 . S
C1144 C1140 1.385 . S
C1144 C1143 1.374 . S
C1145 C1142 1.499 . S
C1145 C1146 1.373 1_655 S
C1145 C1147 1.389 . S
C1146 H1119 0.950 . S
C1146 C1132 1.377 . S
C1146 C1145 1.373 1_455 S
C1147 C1131 1.377 . S
C1147 C1145 1.389 . S
C1147 C1148 1.524 . S
C1148 C1147 1.524 . S
C1148 C1149 1.397 . S
C1148 C1153 1.363 . S
C1149 H1120 0.950 . S
C1149 C1148 1.397 . S
C1149 C1150 1.334 . S
C1150 H1121 0.950 . S
C1150 C1149 1.334 . S
C1150 C1151 1.287 . S
C1151 C1150 1.287 . S
C1151 C1152 1.524 . S
C1151 H1154 0.999 . S
C1152 H1122 0.950 . S
C1152 C1151 1.524 . S
C1152 C1153 1.415 . S
C1153 H1123 0.950 . S
C1153 C1148 1.363 . S
C1153 C1152 1.415 . S
H1154 C1151 0.999 . S
H1155 C1136 0.913 . S
H1156 C1174 0.951 . S
H1157 C1176 0.951 . S
H1158 C1178 0.950 . S
H1159 C1179 0.950 . S
H1160 C1181 0.950 . S
H1161 C1184 0.950 . S
H1162 C1185 0.950 . S
H1163 C1187 0.950 . S
H1164 C1188 0.950 . S
H1165 C1189 0.951 . S
H1166 C1191 0.951 . S
H1167 C1193 0.950 . S
H1168 C1194 0.950 . S
H1169 C1196 0.950 . S
H1170 C1199 0.950 . S
H1171 C1200 0.950 . S
H1172 C1202 0.950 . S
H1173 C1203 0.950 . S
C1174 H1156 0.951 . S
C1174 C1175 1.366 . S
C1174 C1176 1.388 . S
C1175 C1174 1.366 . S
C1175 C1179 1.385 . S
C1176 H1157 0.951 . S
C1176 C1174 1.388 . S
C1176 C1177 1.366 . S
C1177 C1176 1.366 . S
C1177 C1178 1.414 . S
C1177 C1180 1.499 . S
C1178 H1158 0.950 . S
C1178 C1177 1.414 . S
C1178 C1179 1.374 . S
C1179 H1159 0.950 . S
C1179 C1175 1.385 . S
C1179 C1178 1.374 . S
C1180 C1177 1.499 . S
C1180 C1181 1.373 1_565 S
C1180 C1182 1.389 . S
C1181 H1160 0.950 . S
C1181 C1180 1.373 1_545 S
C1181 C1197 1.377 . S
C1182 C1180 1.389 . S
C1182 C1183 1.524 . S
C1182 C1196 1.377 . S
C1183 C1182 1.524 . S
C1183 C1184 1.397 . S
C1183 C1188 1.363 . S
C1184 H1161 0.950 . S
C1184 C1183 1.397 . S
C1184 C1185 1.334 . S
C1185 H1162 0.950 . S
C1185 C1184 1.334 . S
C1185 C1186 1.287 . S
C1186 C1185 1.287 . S
C1186 C1187 1.524 . S
C1186 H1205 0.913 . S
C1187 H1163 0.950 . S
C1187 C1186 1.524 . S
C1187 C1188 1.415 . S
C1188 H1164 0.950 . S
C1188 C1183 1.363 . S
C1188 C1187 1.415 . S
C1189 H1165 0.951 . S
C1189 C1190 1.366 . S
C1189 C1191 1.388 . S
C1190 C1189 1.366 . S
C1190 C1194 1.385 . S
C1191 H1166 0.951 . S
C1191 C1189 1.388 . S
C1191 C1192 1.366 . S
C1192 C1191 1.366 . S
C1192 C1193 1.414 . S
C1192 C1195 1.499 . S
C1193 H1167 0.950 . S
C1193 C1192 1.414 . S
C1193 C1194 1.374 . S
C1194 H1168 0.950 . S
C1194 C1190 1.385 . S
C1194 C1193 1.374 . S
C1195 C1192 1.499 . S
C1195 C1196 1.373 1_545 S
C1195 C1197 1.389 . S
C1196 H1169 0.950 . S
C1196 C1182 1.377 . S
C1196 C1195 1.373 1_565 S
C1197 C1181 1.377 . S
C1197 C1195 1.389 . S
C1197 C1198 1.524 . S
C1198 C1197 1.524 . S
C1198 C1199 1.397 . S
C1198 C1203 1.363 . S
C1199 H1170 0.950 . S
C1199 C1198 1.397 . S
C1199 C1200 1.334 . S
C1200 H1171 0.950 . S
C1200 C1199 1.334 . S
C1200 C1201 1.287 . S
C1201 C1200 1.287 . S
C1201 C1202 1.524 . S
C1201 H1204 0.999 . S
C1202 H1172 0.950 . S
C1202 C1201 1.524 . S
C1202 C1203 1.415 . S
C1203 H1173 0.950 . S
C1203 C1198 1.363 . S
C1203 C1202 1.415 . S
H1204 C1201 0.999 . S
H1205 C1186 0.913 . S
H1206 C1224 0.951 . S
H1207 C1226 0.951 . S
H1208 C1228 0.950 . S
H1209 C1229 0.950 . S
H1210 C1231 0.950 . S
H1211 C1234 0.950 . S
H1212 C1235 0.950 . S
H1213 C1237 0.950 . S
H1214 C1238 0.950 . S
H1215 C1239 0.951 . S
H1216 C1241 0.951 . S
H1217 C1243 0.950 . S
H1218 C1244 0.950 . S
H1219 C1246 0.950 . S
H1220 C1249 0.950 . S
H1221 C1250 0.950 . S
H1222 C1252 0.950 . S
H1223 C1253 0.950 . S
C1224 H1206 0.951 . S
C1224 C1225 1.366 . S
C1224 C1226 1.388 . S
C1225 C1224 1.366 . S
C1225 C1229 1.385 . S
C1226 H1207 0.951 . S
C1226 C1224 1.388 . S
C1226 C1227 1.366 . S
C1227 C1226 1.366 . S
C1227 C1228 1.414 . S
C1227 C1230 1.499 . S
C1228 H1208 0.950 . S
C1228 C1227 1.414 . S
C1228 C1229 1.374 . S
C1229 H1209 0.950 . S
C1229 C1225 1.385 . S
C1229 C1228 1.374 . S
C1230 C1227 1.499 . S
C1230 C1231 1.373 . S
C1230 C1232 1.389 . S
C1231 H1210 0.950 . S
C1231 C1230 1.373 . S
C1231 C1247 1.377 . S
C1232 C1230 1.389 . S
C1232 C1233 1.524 . S
C1232 C1246 1.377 . S
C1233 C1232 1.524 . S
C1233 C1234 1.397 . S
C1233 C1238 1.363 . S
C1234 H1211 0.950 . S
C1234 C1233 1.397 . S
C1234 C1235 1.334 . S
C1235 H1212 0.950 . S
C1235 C1234 1.334 . S
C1235 C1236 1.287 . S
C1236 C1235 1.287 . S
C1236 C1237 1.524 . S
C1236 H1255 0.913 . S
C1237 H1213 0.950 . S
C1237 C1236 1.524 . S
C1237 C1238 1.415 . S
C1238 H1214 0.950 . S
C1238 C1233 1.363 . S
C1238 C1237 1.415 . S
C1239 H1215 0.951 . S
C1239 C1240 1.366 . S
C1239 C1241 1.388 . S
C1240 C1239 1.366 . S
C1240 C1244 1.385 . S
C1241 H1216 0.951 . S
C1241 C1239 1.388 . S
C1241 C1242 1.366 . S
C1242 C1241 1.366 . S
C1242 C1243 1.414 . S
C1242 C1245 1.499 . S
C1243 H1217 0.950 . S
C1243 C1242 1.414 . S
C1243 C1244 1.374 . S
C1244 H1218 0.950 . S
C1244 C1240 1.385 . S
C1244 C1243 1.374 . S
C1245 C1242 1.499 . S
C1245 C1246 1.373 . S
C1245 C1247 1.389 . S
C1246 H1219 0.950 . S
C1246 C1232 1.377 . S
C1246 C1245 1.373 . S
C1247 C1231 1.377 . S
C1247 C1245 1.389 . S
C1247 C1248 1.524 . S
C1248 C1247 1.524 . S
C1248 C1249 1.397 . S
C1248 C1253 1.363 . S
C1249 H1220 0.950 . S
C1249 C1248 1.397 . S
C1249 C1250 1.334 . S
C1250 H1221 0.950 . S
C1250 C1249 1.334 . S
C1250 C1251 1.287 . S
C1251 C1250 1.287 . S
C1251 C1252 1.524 . S
C1251 H1254 0.999 . S
C1252 H1222 0.950 . S
C1252 C1251 1.524 . S
C1252 C1253 1.415 . S
C1253 H1223 0.950 . S
C1253 C1248 1.363 . S
C1253 C1252 1.415 . S
H1254 C1251 0.999 . S
H1255 C1236 0.913 . S
H1256 C1274 0.951 . S
H1257 C1276 0.951 . S
H1258 C1278 0.950 . S
H1259 C1279 0.950 . S
H1260 C1281 0.950 . S
H1261 C1284 0.950 . S
H1262 C1285 0.950 . S
H1263 C1287 0.950 . S
H1264 C1288 0.950 . S
H1265 C1289 0.951 . S
H1266 C1291 0.951 . S
H1267 C1293 0.950 . S
H1268 C1294 0.950 . S
H1269 C1296 0.950 . S
H1270 C1299 0.967 . S
H1271 C1300 0.950 . S
H1272 C1302 0.950 . S
H1273 C1303 0.956 . S
C1274 H1256 0.951 . S
C1274 C1275 1.366 . S
C1274 C1276 1.388 . S
C1275 C1274 1.366 . S
C1275 C1279 1.385 . S
C1276 H1257 0.951 . S
C1276 C1274 1.388 . S
C1276 C1277 1.366 . S
C1277 C1276 1.366 . S
C1277 C1278 1.414 . S
C1277 C1280 1.499 . S
C1278 H1258 0.950 . S
C1278 C1277 1.414 . S
C1278 C1279 1.374 . S
C1279 H1259 0.950 . S
C1279 C1275 1.385 . S
C1279 C1278 1.374 . S
C1280 C1277 1.499 . S
C1280 C1281 1.373 . S
C1280 C1282 1.389 . S
C1281 H1260 0.950 . S
C1281 C1280 1.373 . S
C1281 C1297 1.377 1_655 S
C1282 C1280 1.389 . S
C1282 C1283 1.524 . S
C1282 C1296 1.377 1_655 S
C1283 C1282 1.524 . S
C1283 C1284 1.397 . S
C1283 C1288 1.363 . S
C1284 H1261 0.950 . S
C1284 C1283 1.397 . S
C1284 C1285 1.334 . S
C1285 H1262 0.950 . S
C1285 C1284 1.334 . S
C1285 C1286 1.287 . S
C1286 C1285 1.287 . S
C1286 C1287 1.524 . S
C1286 H1305 0.913 . S
C1287 H1263 0.950 . S
C1287 C1286 1.524 . S
C1287 C1288 1.415 . S
C1288 H1264 0.950 . S
C1288 C1283 1.363 . S
C1288 C1287 1.415 . S
C1289 H1265 0.951 . S
C1289 C1290 1.366 . S
C1289 C1291 1.388 . S
C1290 C1289 1.366 . S
C1290 C1294 1.385 . S
C1291 H1266 0.951 . S
C1291 C1289 1.388 . S
C1291 C1292 1.366 . S
C1292 C1291 1.366 . S
C1292 C1293 1.414 . S
C1292 C1295 1.499 . S
C1293 H1267 0.950 . S
C1293 C1292 1.414 . S
C1293 C1294 1.374 . S
C1294 H1268 0.950 . S
C1294 C1290 1.385 . S
C1294 C1293 1.374 . S
C1295 C1292 1.499 . S
C1295 C1296 1.373 . S
C1295 C1297 1.389 . S
C1296 H1269 0.950 . S
C1296 C1282 1.377 1_455 S
C1296 C1295 1.373 . S
C1297 C1281 1.377 1_455 S
C1297 C1295 1.389 . S
C1297 C1298 1.524 . S
C1298 C1297 1.524 . S
C1298 C1299 1.406 . S
C1298 C1303 1.363 1_556 S
C1299 H1270 0.967 . S
C1299 C1298 1.406 . S
C1299 C1300 1.308 1_556 S
C1300 H1271 0.950 . S
C1300 C1299 1.308 1_554 S
C1300 C1301 1.287 . S
C1301 C1300 1.287 . S
C1301 C1302 1.524 . S
C1301 H1304 0.999 . S
C1302 H1272 0.950 . S
C1302 C1301 1.524 . S
C1302 C1303 1.415 . S
C1303 H1273 0.956 . S
C1303 C1298 1.363 1_554 S
C1303 C1302 1.415 . S
H1304 C1301 0.999 . S
H1305 C1286 0.913 . S
H1306 C1324 0.951 . S
H1307 C1326 0.951 . S
H1308 C1328 0.950 . S
H1309 C1329 0.950 . S
H1310 C1331 0.949 . S
H1311 C1334 0.950 . S
H1312 C1335 0.950 . S
H1313 C1337 0.950 . S
H1314 C1338 0.950 . S
H1315 C1339 0.951 . S
H1316 C1341 0.951 . S
H1317 C1343 0.950 . S
H1318 C1344 0.950 . S
H1319 C1346 0.949 . S
H1320 C1349 0.950 . S
H1321 C1350 0.950 . S
H1322 C1352 0.950 . S
H1323 C1353 0.950 . S
C1324 H1306 0.951 . S
C1324 C1325 1.366 . S
C1324 C1326 1.388 . S
C1325 C1324 1.366 . S
C1325 C1329 1.385 . S
C1326 H1307 0.951 . S
C1326 C1324 1.388 . S
C1326 C1327 1.366 . S
C1327 C1326 1.366 . S
C1327 C1328 1.414 . S
C1327 C1330 1.499 . S
C1328 H1308 0.950 . S
C1328 C1327 1.414 . S
C1328 C1329 1.374 . S
C1329 H1309 0.950 . S
C1329 C1325 1.385 . S
C1329 C1328 1.374 . S
C1330 C1327 1.499 . S
C1330 C1331 1.388 . S
C1330 C1332 1.389 . S
C1331 H1310 0.949 . S
C1331 C1330 1.388 . S
C1331 C1347 1.353 1_545 S
C1332 C1330 1.389 . S
C1332 C1333 1.524 . S
C1332 C1346 1.353 1_545 S
C1333 C1332 1.524 . S
C1333 C1334 1.397 . S
C1333 C1338 1.363 . S
C1334 H1311 0.950 . S
C1334 C1333 1.397 . S
C1334 C1335 1.334 . S
C1335 H1312 0.950 . S
C1335 C1334 1.334 . S
C1335 C1336 1.287 . S
C1336 C1335 1.287 . S
C1336 C1337 1.524 . S
C1336 H1355 0.913 . S
C1337 H1313 0.950 . S
C1337 C1336 1.524 . S
C1337 C1338 1.415 . S
C1338 H1314 0.950 . S
C1338 C1333 1.363 . S
C1338 C1337 1.415 . S
C1339 H1315 0.951 . S
C1339 C1340 1.366 . S
C1339 C1341 1.388 . S
C1340 C1339 1.366 . S
C1340 C1344 1.385 . S
C1341 H1316 0.951 . S
C1341 C1339 1.388 . S
C1341 C1342 1.366 . S
C1342 C1341 1.366 . S
C1342 C1343 1.414 . S
C1342 C1345 1.499 . S
C1343 H1317 0.950 . S
C1343 C1342 1.414 . S
C1343 C1344 1.374 . S
C1344 H1318 0.950 . S
C1344 C1340 1.385 . S
C1344 C1343 1.374 . S
C1345 C1342 1.499 . S
C1345 C1346 1.388 . S
C1345 C1347 1.389 . S
C1346 H1319 0.949 . S
C1346 C1332 1.353 1_565 S
C1346 C1345 1.388 . S
C1347 C1331 1.353 1_565 S
C1347 C1345 1.389 . S
C1347 C1348 1.524 . S
C1348 C1347 1.524 . S
C1348 C1349 1.397 . S
C1348 C1353 1.363 . S
C1349 H1320 0.950 . S
C1349 C1348 1.397 . S
C1349 C1350 1.334 . S
C1350 H1321 0.950 . S
C1350 C1349 1.334 . S
C1350 C1351 1.287 . S
C1351 C1350 1.287 . S
C1351 C1352 1.524 . S
C1351 H1354 0.999 . S
C1352 H1322 0.950 . S
C1352 C1351 1.524 . S
C1352 C1353 1.415 . S
C1353 H1323 0.950 . S
C1353 C1348 1.363 . S
C1353 C1352 1.415 . S
H1354 C1351 0.999 . S
H1355 C1336 0.913 . S
H1356 C1374 0.951 . S
H1357 C1376 0.951 . S
H1358 C1378 0.950 . S
H1359 C1379 0.950 . S
H1360 C1381 0.950 . S
H1361 C1384 0.950 . S
H1362 C1385 0.950 . S
H1363 C1387 0.950 . S
H1364 C1388 0.950 . S
H1365 C1389 0.951 . S
H1366 C1391 0.951 . S
H1367 C1393 0.950 . S
H1368 C1394 0.950 . S
H1369 C1396 0.950 . S
H1370 C1399 0.950 . S
H1371 C1400 0.950 . S
H1372 C1402 0.950 . S
H1373 C1403 0.950 . S
C1374 H1356 0.951 . S
C1374 C1375 1.366 . S
C1374 C1376 1.388 . S
C1375 C1374 1.366 . S
C1375 C1379 1.385 . S
C1376 H1357 0.951 . S
C1376 C1374 1.388 . S
C1376 C1377 1.366 . S
C1377 C1376 1.366 . S
C1377 C1378 1.414 . S
C1377 C1380 1.499 . S
C1378 H1358 0.950 . S
C1378 C1377 1.414 . S
C1378 C1379 1.374 . S
C1379 H1359 0.950 . S
C1379 C1375 1.385 . S
C1379 C1378 1.374 . S
C1380 C1377 1.499 . S
C1380 C1381 1.373 . S
C1380 C1382 1.389 . S
C1381 H1360 0.950 . S
C1381 C1380 1.373 . S
C1381 C1397 1.377 . S
C1382 C1380 1.389 . S
C1382 C1383 1.524 . S
C1382 C1396 1.377 . S
C1383 C1382 1.524 . S
C1383 C1384 1.397 . S
C1383 C1388 1.363 . S
C1384 H1361 0.950 . S
C1384 C1383 1.397 . S
C1384 C1385 1.334 . S
C1385 H1362 0.950 . S
C1385 C1384 1.334 . S
C1385 C1386 1.287 . S
C1386 C1385 1.287 . S
C1386 C1387 1.524 . S
C1386 H1405 0.913 . S
C1387 H1363 0.950 . S
C1387 C1386 1.524 . S
C1387 C1388 1.415 . S
C1388 H1364 0.950 . S
C1388 C1383 1.363 . S
C1388 C1387 1.415 . S
C1389 H1365 0.951 . S
C1389 C1390 1.366 . S
C1389 C1391 1.388 . S
C1390 C1389 1.366 . S
C1390 C1394 1.385 . S
C1391 H1366 0.951 . S
C1391 C1389 1.388 . S
C1391 C1392 1.366 . S
C1392 C1391 1.366 . S
C1392 C1393 1.414 . S
C1392 C1395 1.499 . S
C1393 H1367 0.950 . S
C1393 C1392 1.414 . S
C1393 C1394 1.374 . S
C1394 H1368 0.950 . S
C1394 C1390 1.385 . S
C1394 C1393 1.374 . S
C1395 C1392 1.499 . S
C1395 C1396 1.373 . S
C1395 C1397 1.389 . S
C1396 H1369 0.950 . S
C1396 C1382 1.377 . S
C1396 C1395 1.373 . S
C1397 C1381 1.377 . S
C1397 C1395 1.389 . S
C1397 C1398 1.524 . S
C1398 C1397 1.524 . S
C1398 C1399 1.397 . S
C1398 C1403 1.363 . S
C1399 H1370 0.950 . S
C1399 C1398 1.397 . S
C1399 C1400 1.334 . S
C1400 H1371 0.950 . S
C1400 C1399 1.334 . S
C1400 C1401 1.287 . S
C1401 C1400 1.287 . S
C1401 C1402 1.524 . S
C1401 H1404 0.999 . S
C1402 H1372 0.950 . S
C1402 C1401 1.524 . S
C1402 C1403 1.415 . S
C1403 H1373 0.950 . S
C1403 C1398 1.363 . S
C1403 C1402 1.415 . S
H1404 C1401 0.999 . S
H1405 C1386 0.913 . S
H1406 C1424 0.951 . S
H1407 C1426 0.951 . S
H1408 C1428 0.950 . S
H1409 C1429 0.950 . S
H1410 C1431 0.950 . S
H1411 C1434 0.950 . S
H1412 C1435 0.950 . S
H1413 C1437 0.950 . S
H1414 C1438 0.950 . S
H1415 C1439 0.951 . S
H1416 C1441 0.951 . S
H1417 C1443 0.950 . S
H1418 C1444 0.950 . S
H1419 C1446 0.950 . S
H1420 C1449 0.950 . S
H1421 C1450 0.950 . S
H1422 C1452 0.950 . S
H1423 C1453 0.950 . S
C1424 H1406 0.951 . S
C1424 C1425 1.366 . S
C1424 C1426 1.388 . S
C1425 C1424 1.366 . S
C1425 C1429 1.385 . S
C1426 H1407 0.951 . S
C1426 C1424 1.388 . S
C1426 C1427 1.366 . S
C1427 C1426 1.366 . S
C1427 C1428 1.414 . S
C1427 C1430 1.499 . S
C1428 H1408 0.950 . S
C1428 C1427 1.414 . S
C1428 C1429 1.374 . S
C1429 H1409 0.950 . S
C1429 C1425 1.385 . S
C1429 C1428 1.374 . S
C1430 C1427 1.499 . S
C1430 C1431 1.373 . S
C1430 C1432 1.389 . S
C1431 H1410 0.950 . S
C1431 C1430 1.373 . S
C1431 C1447 1.377 . S
C1432 C1430 1.389 . S
C1432 C1433 1.524 . S
C1432 C1446 1.377 . S
C1433 C1432 1.524 . S
C1433 C1434 1.397 . S
C1433 C1438 1.363 . S
C1434 H1411 0.950 . S
C1434 C1433 1.397 . S
C1434 C1435 1.334 . S
C1435 H1412 0.950 . S
C1435 C1434 1.334 . S
C1435 C1436 1.287 . S
C1436 C1435 1.287 . S
C1436 C1437 1.524 . S
C1436 H1455 0.913 . S
C1437 H1413 0.950 . S
C1437 C1436 1.524 . S
C1437 C1438 1.415 . S
C1438 H1414 0.950 . S
C1438 C1433 1.363 . S
C1438 C1437 1.415 . S
C1439 H1415 0.951 . S
C1439 C1440 1.366 . S
C1439 C1441 1.388 . S
C1440 C1439 1.366 . S
C1440 C1444 1.385 . S
C1441 H1416 0.951 . S
C1441 C1439 1.388 . S
C1441 C1442 1.366 . S
C1442 C1441 1.366 . S
C1442 C1443 1.414 . S
C1442 C1445 1.499 . S
C1443 H1417 0.950 . S
C1443 C1442 1.414 . S
C1443 C1444 1.374 . S
C1444 H1418 0.950 . S
C1444 C1440 1.385 . S
C1444 C1443 1.374 . S
C1445 C1442 1.499 . S
C1445 C1446 1.373 . S
C1445 C1447 1.389 . S
C1446 H1419 0.950 . S
C1446 C1432 1.377 . S
C1446 C1445 1.373 . S
C1447 C1431 1.377 . S
C1447 C1445 1.389 . S
C1447 C1448 1.524 . S
C1448 C1447 1.524 . S
C1448 C1449 1.397 . S
C1448 C1453 1.363 . S
C1449 H1420 0.950 . S
C1449 C1448 1.397 . S
C1449 C1450 1.334 . S
C1450 H1421 0.950 . S
C1450 C1449 1.334 . S
C1450 C1451 1.287 . S
C1451 C1450 1.287 . S
C1451 C1452 1.524 . S
C1451 H1454 0.999 . S
C1452 H1422 0.950 . S
C1452 C1451 1.524 . S
C1452 C1453 1.415 . S
C1453 H1423 0.950 . S
C1453 C1448 1.363 . S
C1453 C1452 1.415 . S
H1454 C1451 0.999 . S
H1455 C1436 0.913 . S
H1456 C1474 0.951 . S
H1457 C1476 0.951 . S
H1458 C1478 0.950 . S
H1459 C1479 0.950 . S
H1460 C1481 0.950 . S
H1461 C1484 0.950 . S
H1462 C1485 0.950 . S
H1463 C1487 0.950 . S
H1464 C1488 0.950 . S
H1465 C1489 0.951 . S
H1466 C1491 0.951 . S
H1467 C1493 0.950 . S
H1468 C1494 0.950 . S
H1469 C1496 0.950 . S
H1470 C1499 0.950 . S
H1471 C1500 0.950 . S
H1472 C1502 0.950 . S
H1473 C1503 0.950 . S
C1474 H1456 0.951 . S
C1474 C1475 1.366 . S
C1474 C1476 1.388 . S
C1475 C1474 1.366 . S
C1475 C1479 1.385 . S
C1476 H1457 0.951 . S
C1476 C1474 1.388 . S
C1476 C1477 1.366 . S
C1477 C1476 1.366 . S
C1477 C1478 1.414 . S
C1477 C1480 1.499 . S
C1478 H1458 0.950 . S
C1478 C1477 1.414 . S
C1478 C1479 1.374 . S
C1479 H1459 0.950 . S
C1479 C1475 1.385 . S
C1479 C1478 1.374 . S
C1480 C1477 1.499 . S
C1480 C1481 1.373 . S
C1480 C1482 1.389 . S
C1481 H1460 0.950 . S
C1481 C1480 1.373 . S
C1481 C1497 1.377 . S
C1482 C1480 1.389 . S
C1482 C1483 1.524 . S
C1482 C1496 1.377 . S
C1483 C1482 1.524 . S
C1483 C1484 1.397 . S
C1483 C1488 1.363 . S
C1484 H1461 0.950 . S
C1484 C1483 1.397 . S
C1484 C1485 1.334 . S
C1485 H1462 0.950 . S
C1485 C1484 1.334 . S
C1485 C1486 1.287 . S
C1486 C1485 1.287 . S
C1486 C1487 1.524 . S
C1486 H1505 0.913 . S
C1487 H1463 0.950 . S
C1487 C1486 1.524 . S
C1487 C1488 1.415 . S
C1488 H1464 0.950 . S
C1488 C1483 1.363 . S
C1488 C1487 1.415 . S
C1489 H1465 0.951 . S
C1489 C1490 1.366 . S
C1489 C1491 1.388 . S
C1490 C1489 1.366 . S
C1490 C1494 1.385 . S
C1491 H1466 0.951 . S
C1491 C1489 1.388 . S
C1491 C1492 1.366 . S
C1492 C1491 1.366 . S
C1492 C1493 1.414 . S
C1492 C1495 1.499 . S
C1493 H1467 0.950 . S
C1493 C1492 1.414 . S
C1493 C1494 1.374 . S
C1494 H1468 0.950 . S
C1494 C1490 1.385 . S
C1494 C1493 1.374 . S
C1495 C1492 1.499 . S
C1495 C1496 1.373 . S
C1495 C1497 1.389 . S
C1496 H1469 0.950 . S
C1496 C1482 1.377 . S
C1496 C1495 1.373 . S
C1497 C1481 1.377 . S
C1497 C1495 1.389 . S
C1497 C1498 1.524 . S
C1498 C1497 1.524 . S
C1498 C1499 1.397 . S
C1498 C1503 1.363 . S
C1499 H1470 0.950 . S
C1499 C1498 1.397 . S
C1499 C1500 1.334 . S
C1500 H1471 0.950 . S
C1500 C1499 1.334 . S
C1500 C1501 1.287 . S
C1501 C1500 1.287 . S
C1501 C1502 1.524 . S
C1501 H1504 0.999 . S
C1502 H1472 0.950 . S
C1502 C1501 1.524 . S
C1502 C1503 1.415 . S
C1503 H1473 0.950 . S
C1503 C1498 1.363 . S
C1503 C1502 1.415 . S
H1504 C1501 0.999 . S
H1505 C1486 0.913 . S
H1506 C1524 0.951 . S
H1507 C1526 0.951 . S
H1508 C1528 0.950 . S
H1509 C1529 0.950 . S
H1510 C1531 0.950 . S
H1511 C1534 0.950 . S
H1512 C1535 0.950 . S
H1513 C1537 0.950 . S
H1514 C1538 0.950 . S
H1515 C1539 0.951 . S
H1516 C1541 0.951 . S
H1517 C1543 0.950 . S
H1518 C1544 0.950 . S
H1519 C1546 0.950 . S
H1520 C1549 0.950 . S
H1521 C1550 0.950 . S
H1522 C1552 0.950 . S
H1523 C1553 0.950 . S
C1524 H1506 0.951 . S
C1524 C1525 1.366 . S
C1524 C1526 1.388 . S
C1525 C1524 1.366 . S
C1525 C1529 1.385 . S
C1526 H1507 0.951 . S
C1526 C1524 1.388 . S
C1526 C1527 1.366 . S
C1527 C1526 1.366 . S
C1527 C1528 1.414 . S
C1527 C1530 1.499 . S
C1528 H1508 0.950 . S
C1528 C1527 1.414 . S
C1528 C1529 1.374 . S
C1529 H1509 0.950 . S
C1529 C1525 1.385 . S
C1529 C1528 1.374 . S
C1530 C1527 1.499 . S
C1530 C1531 1.373 . S
C1530 C1532 1.389 . S
C1531 H1510 0.950 . S
C1531 C1530 1.373 . S
C1531 C1547 1.377 . S
C1532 C1530 1.389 . S
C1532 C1533 1.524 . S
C1532 C1546 1.377 . S
C1533 C1532 1.524 . S
C1533 C1534 1.397 . S
C1533 C1538 1.363 . S
C1534 H1511 0.950 . S
C1534 C1533 1.397 . S
C1534 C1535 1.334 . S
C1535 H1512 0.950 . S
C1535 C1534 1.334 . S
C1535 C1536 1.287 . S
C1536 C1535 1.287 . S
C1536 C1537 1.524 . S
C1536 H1555 0.913 . S
C1537 H1513 0.950 . S
C1537 C1536 1.524 . S
C1537 C1538 1.415 . S
C1538 H1514 0.950 . S
C1538 C1533 1.363 . S
C1538 C1537 1.415 . S
C1539 H1515 0.951 . S
C1539 C1540 1.366 . S
C1539 C1541 1.388 . S
C1540 C1539 1.366 . S
C1540 C1544 1.385 . S
C1541 H1516 0.951 . S
C1541 C1539 1.388 . S
C1541 C1542 1.366 . S
C1542 C1541 1.366 . S
C1542 C1543 1.414 . S
C1542 C1545 1.499 . S
C1543 H1517 0.950 . S
C1543 C1542 1.414 . S
C1543 C1544 1.374 . S
C1544 H1518 0.950 . S
C1544 C1540 1.385 . S
C1544 C1543 1.374 . S
C1545 C1542 1.499 . S
C1545 C1546 1.373 . S
C1545 C1547 1.389 . S
C1546 H1519 0.950 . S
C1546 C1532 1.377 . S
C1546 C1545 1.373 . S
C1547 C1531 1.377 . S
C1547 C1545 1.389 . S
C1547 C1548 1.524 . S
C1548 C1547 1.524 . S
C1548 C1549 1.397 . S
C1548 C1553 1.363 . S
C1549 H1520 0.950 . S
C1549 C1548 1.397 . S
C1549 C1550 1.334 . S
C1550 H1521 0.950 . S
C1550 C1549 1.334 . S
C1550 C1551 1.287 . S
C1551 C1550 1.287 . S
C1551 C1552 1.524 . S
C1551 H1554 0.999 . S
C1552 H1522 0.950 . S
C1552 C1551 1.524 . S
C1552 C1553 1.415 . S
C1553 H1523 0.950 . S
C1553 C1548 1.363 . S
C1553 C1552 1.415 . S
H1554 C1551 0.999 . S
H1555 C1536 0.913 . S
H1556 C1574 0.951 . S
H1557 C1576 0.951 . S
H1558 C1578 0.950 . S
H1559 C1579 0.950 . S
H1560 C1581 0.950 . S
H1561 C1584 0.950 . S
H1562 C1585 0.950 . S
H1563 C1587 0.950 . S
H1564 C1588 0.950 . S
H1565 C1589 0.951 . S
H1566 C1591 0.951 . S
H1567 C1593 0.950 . S
H1568 C1594 0.950 . S
H1569 C1596 0.950 . S
H1570 C1599 0.950 . S
H1571 C1600 0.950 . S
H1572 C1602 0.950 . S
H1573 C1603 0.950 . S
C1574 H1556 0.951 . S
C1574 C1575 1.366 . S
C1574 C1576 1.388 . S
C1575 C1574 1.366 . S
C1575 C1579 1.385 . S
C1576 H1557 0.951 . S
C1576 C1574 1.388 . S
C1576 C1577 1.366 . S
C1577 C1576 1.366 . S
C1577 C1578 1.414 . S
C1577 C1580 1.499 . S
C1578 H1558 0.950 . S
C1578 C1577 1.414 . S
C1578 C1579 1.374 . S
C1579 H1559 0.950 . S
C1579 C1575 1.385 . S
C1579 C1578 1.374 . S
C1580 C1577 1.499 . S
C1580 C1581 1.373 . S
C1580 C1582 1.389 . S
C1581 H1560 0.950 . S
C1581 C1580 1.373 . S
C1581 C1597 1.377 . S
C1582 C1580 1.389 . S
C1582 C1583 1.524 . S
C1582 C1596 1.377 . S
C1583 C1582 1.524 . S
C1583 C1584 1.397 . S
C1583 C1588 1.363 . S
C1584 H1561 0.950 . S
C1584 C1583 1.397 . S
C1584 C1585 1.334 . S
C1585 H1562 0.950 . S
C1585 C1584 1.334 . S
C1585 C1586 1.287 . S
C1586 C1585 1.287 . S
C1586 C1587 1.524 . S
C1586 H1605 0.913 . S
C1587 H1563 0.950 . S
C1587 C1586 1.524 . S
C1587 C1588 1.415 . S
C1588 H1564 0.950 . S
C1588 C1583 1.363 . S
C1588 C1587 1.415 . S
C1589 H1565 0.951 . S
C1589 C1590 1.366 . S
C1589 C1591 1.388 . S
C1590 C1589 1.366 . S
C1590 C1594 1.385 . S
C1591 H1566 0.951 . S
C1591 C1589 1.388 . S
C1591 C1592 1.366 . S
C1592 C1591 1.366 . S
C1592 C1593 1.414 . S
C1592 C1595 1.499 . S
C1593 H1567 0.950 . S
C1593 C1592 1.414 . S
C1593 C1594 1.374 . S
C1594 H1568 0.950 . S
C1594 C1590 1.385 . S
C1594 C1593 1.374 . S
C1595 C1592 1.499 . S
C1595 C1596 1.373 . S
C1595 C1597 1.389 . S
C1596 H1569 0.950 . S
C1596 C1582 1.377 . S
C1596 C1595 1.373 . S
C1597 C1581 1.377 . S
C1597 C1595 1.389 . S
C1597 C1598 1.524 . S
C1598 C1597 1.524 . S
C1598 C1599 1.397 . S
C1598 C1603 1.363 . S
C1599 H1570 0.950 . S
C1599 C1598 1.397 . S
C1599 C1600 1.334 . S
C1600 H1571 0.950 . S
C1600 C1599 1.334 . S
C1600 C1601 1.287 . S
C1601 C1600 1.287 . S
C1601 C1602 1.524 . S
C1601 H1604 0.999 . S
C1602 H1572 0.950 . S
C1602 C1601 1.524 . S
C1602 C1603 1.415 . S
C1603 H1573 0.950 . S
C1603 C1598 1.363 . S
C1603 C1602 1.415 . S
H1604 C1601 0.999 . S
H1605 C1586 0.913 . S
H1606 C1624 0.951 . S
H1607 C1626 0.951 . S
H1608 C1628 0.950 . S
H1609 C1629 0.950 . S
H1610 C1631 0.950 . S
H1611 C1634 0.950 . S
H1612 C1635 0.950 . S
H1613 C1637 0.950 . S
H1614 C1638 0.950 . S
H1615 C1639 0.951 . S
H1616 C1641 0.951 . S
H1617 C1643 0.950 . S
H1618 C1644 0.950 . S
H1619 C1646 0.950 . S
H1620 C1649 0.950 . S
H1621 C1650 0.950 . S
H1622 C1652 0.950 . S
H1623 C1653 0.950 . S
C1624 H1606 0.951 . S
C1624 C1625 1.366 . S
C1624 C1626 1.388 . S
C1625 C1624 1.366 . S
C1625 C1629 1.385 . S
C1626 H1607 0.951 . S
C1626 C1624 1.388 . S
C1626 C1627 1.366 . S
C1627 C1626 1.366 . S
C1627 C1628 1.414 . S
C1627 C1630 1.499 . S
C1628 H1608 0.950 . S
C1628 C1627 1.414 . S
C1628 C1629 1.374 . S
C1629 H1609 0.950 . S
C1629 C1625 1.385 . S
C1629 C1628 1.374 . S
C1630 C1627 1.499 . S
C1630 C1631 1.373 . S
C1630 C1632 1.389 . S
C1631 H1610 0.950 . S
C1631 C1630 1.373 . S
C1631 C1647 1.377 . S
C1632 C1630 1.389 . S
C1632 C1633 1.524 . S
C1632 C1646 1.377 . S
C1633 C1632 1.524 . S
C1633 C1634 1.397 . S
C1633 C1638 1.363 . S
C1634 H1611 0.950 . S
C1634 C1633 1.397 . S
C1634 C1635 1.334 . S
C1635 H1612 0.950 . S
C1635 C1634 1.334 . S
C1635 C1636 1.287 . S
C1636 C1635 1.287 . S
C1636 C1637 1.524 . S
C1636 H1655 0.913 . S
C1637 H1613 0.950 . S
C1637 C1636 1.524 . S
C1637 C1638 1.415 . S
C1638 H1614 0.950 . S
C1638 C1633 1.363 . S
C1638 C1637 1.415 . S
C1639 H1615 0.951 . S
C1639 C1640 1.366 . S
C1639 C1641 1.388 . S
C1640 C1639 1.366 . S
C1640 C1644 1.385 . S
C1641 H1616 0.951 . S
C1641 C1639 1.388 . S
C1641 C1642 1.366 . S
C1642 C1641 1.366 . S
C1642 C1643 1.414 . S
C1642 C1645 1.499 . S
C1643 H1617 0.950 . S
C1643 C1642 1.414 . S
C1643 C1644 1.374 . S
C1644 H1618 0.950 . S
C1644 C1640 1.385 . S
C1644 C1643 1.374 . S
C1645 C1642 1.499 . S
C1645 C1646 1.373 . S
C1645 C1647 1.389 . S
C1646 H1619 0.950 . S
C1646 C1632 1.377 . S
C1646 C1645 1.373 . S
C1647 C1631 1.377 . S
C1647 C1645 1.389 . S
C1647 C1648 1.524 . S
C1648 C1647 1.524 . S
C1648 C1649 1.397 . S
C1648 C1653 1.363 . S
C1649 H1620 0.950 . S
C1649 C1648 1.397 . S
C1649 C1650 1.334 . S
C1650 H1621 0.950 . S
C1650 C1649 1.334 . S
C1650 C1651 1.287 . S
C1651 C1650 1.287 . S
C1651 C1652 1.524 . S
C1651 H1654 0.999 . S
C1652 H1622 0.950 . S
C1652 C1651 1.524 . S
C1652 C1653 1.415 . S
C1653 H1623 0.950 . S
C1653 C1648 1.363 . S
C1653 C1652 1.415 . S
H1654 C1651 0.999 . S
H1655 C1636 0.913 . S
H1656 C1674 0.951 . S
H1657 C1676 0.951 . S
H1658 C1678 0.950 . S
H1659 C1679 0.950 . S
H1660 C1681 0.950 . S
H1661 C1684 0.950 . S
H1662 C1685 0.950 . S
H1663 C1687 0.950 . S
H1664 C1688 0.950 . S
H1665 C1689 0.951 . S
H1666 C1691 0.951 . S
H1667 C1693 0.950 . S
H1668 C1694 0.950 . S
H1669 C1696 0.950 . S
H1670 C1699 0.950 . S
H1671 C1700 0.950 . S
H1672 C1702 0.950 . S
H1673 C1703 0.950 . S
C1674 H1656 0.951 . S
C1674 C1675 1.366 1_554 S
C1674 C1676 1.388 . S
C1675 C1674 1.366 1_556 S
C1675 C1679 1.385 . S
C1676 H1657 0.951 . S
C1676 C1674 1.388 . S
C1676 C1677 1.366 1_554 S
C1677 C1676 1.366 1_556 S
C1677 C1678 1.414 . S
C1677 C1680 1.499 . S
C1678 H1658 0.950 . S
C1678 C1677 1.414 . S
C1678 C1679 1.374 . S
C1679 H1659 0.950 . S
C1679 C1675 1.385 . S
C1679 C1678 1.374 . S
C1680 C1677 1.499 . S
C1680 C1681 1.373 . S
C1680 C1682 1.380 1_556 S
C1681 H1660 0.950 . S
C1681 C1680 1.373 . S
C1681 C1697 1.386 1_565 S
C1682 C1680 1.380 1_554 S
C1682 C1683 1.524 . S
C1682 C1696 1.386 1_565 S
C1683 C1682 1.524 . S
C1683 C1684 1.369 1_554 S
C1683 C1688 1.388 . S
C1684 H1661 0.950 . S
C1684 C1683 1.369 1_556 S
C1684 C1685 1.334 . S
C1685 H1662 0.950 . S
C1685 C1684 1.334 . S
C1685 C1686 1.287 . S
C1686 C1685 1.287 . S
C1686 C1687 1.524 1_556 S
C1686 H1705 0.913 . S
C1687 H1663 0.950 . S
C1687 C1686 1.524 1_554 S
C1687 C1688 1.415 . S
C1688 H1664 0.950 . S
C1688 C1683 1.388 . S
C1688 C1687 1.415 . S
C1689 H1665 0.951 . S
C1689 C1690 1.366 1_556 S
C1689 C1691 1.388 . S
C1690 C1689 1.366 1_554 S
C1690 C1694 1.385 . S
C1691 H1666 0.951 . S
C1691 C1689 1.388 . S
C1691 C1692 1.366 1_556 S
C1692 C1691 1.366 1_554 S
C1692 C1693 1.414 . S
C1692 C1695 1.499 . S
C1693 H1667 0.950 . S
C1693 C1692 1.414 . S
C1693 C1694 1.374 . S
C1694 H1668 0.950 . S
C1694 C1690 1.385 . S
C1694 C1693 1.374 . S
C1695 C1692 1.499 . S
C1695 C1696 1.373 . S
C1695 C1697 1.380 1_554 S
C1696 H1669 0.950 . S
C1696 C1682 1.386 1_545 S
C1696 C1695 1.373 . S
C1697 C1681 1.386 1_545 S
C1697 C1695 1.380 1_556 S
C1697 C1698 1.524 . S
C1698 C1697 1.524 . S
C1698 C1699 1.369 1_556 S
C1698 C1703 1.388 . S
C1699 H1670 0.950 . S
C1699 C1698 1.369 1_554 S
C1699 C1700 1.334 . S
C1700 H1671 0.950 . S
C1700 C1699 1.334 . S
C1700 C1701 1.287 . S
C1701 C1700 1.287 . S
C1701 C1702 1.524 1_554 S
C1701 H1704 0.999 . S
C1702 H1672 0.950 . S
C1702 C1701 1.524 1_556 S
C1702 C1703 1.415 . S
C1703 H1673 0.950 . S
C1703 C1698 1.388 . S
C1703 C1702 1.415 . S
H1704 C1701 0.999 . S
H1705 C1686 0.913 . S
H1706 C1724 0.951 . S
H1707 C1726 0.951 . S
H1708 C1728 0.950 . S
H1709 C1729 0.950 . S
H1710 C1731 0.950 . S
H1711 C1734 0.950 . S
H1712 C1735 0.950 . S
H1713 C1737 0.950 . S
H1714 C1738 0.950 . S
H1715 C1739 0.951 . S
H1716 C1741 0.951 . S
H1717 C1743 0.950 . S
H1718 C1744 0.950 . S
H1719 C1746 0.950 . S
H1720 C1749 0.950 . S
H1721 C1750 0.950 . S
H1722 C1752 0.950 . S
H1723 C1753 0.950 . S
C1724 H1706 0.951 . S
C1724 C1725 1.366 . S
C1724 C1726 1.388 . S
C1725 C1724 1.366 . S
C1725 C1729 1.385 . S
C1726 H1707 0.951 . S
C1726 C1724 1.388 . S
C1726 C1727 1.366 . S
C1727 C1726 1.366 . S
C1727 C1728 1.414 . S
C1727 C1730 1.499 . S
C1728 H1708 0.950 . S
C1728 C1727 1.414 . S
C1728 C1729 1.374 . S
C1729 H1709 0.950 . S
C1729 C1725 1.385 . S
C1729 C1728 1.374 . S
C1730 C1727 1.499 . S
C1730 C1731 1.373 . S
C1730 C1732 1.389 . S
C1731 H1710 0.950 . S
C1731 C1730 1.373 . S
C1731 C1747 1.377 . S
C1732 C1730 1.389 . S
C1732 C1733 1.524 . S
C1732 C1746 1.377 . S
C1733 C1732 1.524 . S
C1733 C1734 1.397 . S
C1733 C1738 1.363 . S
C1734 H1711 0.950 . S
C1734 C1733 1.397 . S
C1734 C1735 1.334 . S
C1735 H1712 0.950 . S
C1735 C1734 1.334 . S
C1735 C1736 1.287 . S
C1736 C1735 1.287 . S
C1736 C1737 1.524 . S
C1736 H1755 0.913 . S
C1737 H1713 0.950 . S
C1737 C1736 1.524 . S
C1737 C1738 1.415 . S
C1738 H1714 0.950 . S
C1738 C1733 1.363 . S
C1738 C1737 1.415 . S
C1739 H1715 0.951 . S
C1739 C1740 1.366 . S
C1739 C1741 1.388 . S
C1740 C1739 1.366 . S
C1740 C1744 1.385 . S
C1741 H1716 0.951 . S
C1741 C1739 1.388 . S
C1741 C1742 1.366 . S
C1742 C1741 1.366 . S
C1742 C1743 1.414 . S
C1742 C1745 1.499 . S
C1743 H1717 0.950 . S
C1743 C1742 1.414 . S
C1743 C1744 1.374 . S
C1744 H1718 0.950 . S
C1744 C1740 1.385 . S
C1744 C1743 1.374 . S
C1745 C1742 1.499 . S
C1745 C1746 1.373 . S
C1745 C1747 1.389 . S
C1746 H1719 0.950 . S
C1746 C1732 1.377 . S
C1746 C1745 1.373 . S
C1747 C1731 1.377 . S
C1747 C1745 1.389 . S
C1747 C1748 1.524 . S
C1748 C1747 1.524 . S
C1748 C1749 1.397 . S
C1748 C1753 1.363 . S
C1749 H1720 0.950 . S
C1749 C1748 1.397 . S
C1749 C1750 1.334 . S
C1750 H1721 0.950 . S
C1750 C1749 1.334 . S
C1750 C1751 1.287 . S
C1751 C1750 1.287 . S
C1751 C1752 1.524 . S
C1751 H1754 0.999 . S
C1752 H1722 0.950 . S
C1752 C1751 1.524 . S
C1752 C1753 1.415 . S
C1753 H1723 0.950 . S
C1753 C1748 1.363 . S
C1753 C1752 1.415 . S
H1754 C1751 0.999 . S
H1755 C1736 0.913 . S
H1756 C1774 0.951 . S
H1757 C1776 0.951 . S
H1758 C1778 0.950 . S
H1759 C1779 0.950 . S
H1760 C1781 0.950 . S
H1761 C1784 0.950 . S
H1762 C1785 0.950 . S
H1763 C1787 0.950 . S
H1764 C1788 0.950 . S
H1765 C1789 0.951 . S
H1766 C1791 0.951 . S
H1767 C1793 0.950 . S
H1768 C1794 0.950 . S
H1769 C1796 0.950 . S
H1770 C1799 0.950 . S
H1771 C1800 0.950 . S
H1772 C1802 0.950 . S
H1773 C1803 0.950 . S
C1774 H1756 0.951 . S
C1774 C1775 1.366 . S
C1774 C1776 1.388 . S
C1775 C1774 1.366 . S
C1775 C1779 1.385 . S
C1776 H1757 0.951 . S
C1776 C1774 1.388 . S
C1776 C1777 1.366 . S
C1777 C1776 1.366 . S
C1777 C1778 1.414 . S
C1777 C1780 1.499 . S
C1778 H1758 0.950 . S
C1778 C1777 1.414 . S
C1778 C1779 1.374 . S
C1779 H1759 0.950 . S
C1779 C1775 1.385 . S
C1779 C1778 1.374 . S
C1780 C1777 1.499 . S
C1780 C1781 1.373 . S
C1780 C1782 1.389 . S
C1781 H1760 0.950 . S
C1781 C1780 1.373 . S
C1781 C1797 1.377 1_655 S
C1782 C1780 1.389 . S
C1782 C1783 1.524 . S
C1782 C1796 1.377 1_655 S
C1783 C1782 1.524 . S
C1783 C1784 1.397 . S
C1783 C1788 1.363 . S
C1784 H1761 0.950 . S
C1784 C1783 1.397 . S
C1784 C1785 1.334 . S
C1785 H1762 0.950 . S
C1785 C1784 1.334 . S
C1785 C1786 1.287 . S
C1786 C1785 1.287 . S
C1786 C1787 1.524 . S
C1786 H1805 0.913 . S
C1787 H1763 0.950 . S
C1787 C1786 1.524 . S
C1787 C1788 1.415 . S
C1788 H1764 0.950 . S
C1788 C1783 1.363 . S
C1788 C1787 1.415 . S
C1789 H1765 0.951 . S
C1789 C1790 1.366 . S
C1789 C1791 1.388 . S
C1790 C1789 1.366 . S
C1790 C1794 1.385 . S
C1791 H1766 0.951 . S
C1791 C1789 1.388 . S
C1791 C1792 1.366 . S
C1792 C1791 1.366 . S
C1792 C1793 1.414 . S
C1792 C1795 1.499 . S
C1793 H1767 0.950 . S
C1793 C1792 1.414 . S
C1793 C1794 1.374 . S
C1794 H1768 0.950 . S
C1794 C1790 1.385 . S
C1794 C1793 1.374 . S
C1795 C1792 1.499 . S
C1795 C1796 1.373 . S
C1795 C1797 1.389 . S
C1796 H1769 0.950 . S
C1796 C1782 1.377 1_455 S
C1796 C1795 1.373 . S
C1797 C1781 1.377 1_455 S
C1797 C1795 1.389 . S
C1797 C1798 1.524 . S
C1798 C1797 1.524 . S
C1798 C1799 1.397 . S
C1798 C1803 1.363 . S
C1799 H1770 0.950 . S
C1799 C1798 1.397 . S
C1799 C1800 1.334 . S
C1800 H1771 0.950 . S
C1800 C1799 1.334 . S
C1800 C1801 1.287 . S
C1801 C1800 1.287 . S
C1801 C1802 1.524 . S
C1801 H1804 0.999 . S
C1802 H1772 0.950 . S
C1802 C1801 1.524 . S
C1802 C1803 1.415 . S
C1803 H1773 0.950 . S
C1803 C1798 1.363 . S
C1803 C1802 1.415 . S
H1804 C1801 0.999 . S
H1805 C1786 0.913 . S
H1806 C1824 0.951 . S
H1807 C1826 0.951 . S
H1808 C1828 0.950 . S
H1809 C1829 0.950 . S
H1810 C1831 0.950 . S
H1811 C1834 0.950 . S
H1812 C1835 0.950 . S
H1813 C1837 0.950 1_556 S
H1814 C1838 0.950 . S
H1815 C1839 0.951 . S
H1816 C1841 0.951 . S
H1817 C1843 0.950 . S
H1818 C1844 0.950 . S
H1819 C1846 0.950 . S
H1820 C1849 0.950 . S
H1821 C1850 0.950 . S
H1822 C1852 0.950 1_554 S
H1823 C1853 0.950 . S
C1824 H1806 0.951 . S
C1824 C1825 1.366 1_556 S
C1824 C1826 1.388 . S
C1825 C1824 1.366 1_554 S
C1825 C1829 1.385 . S
C1826 H1807 0.951 . S
C1826 C1824 1.388 . S
C1826 C1827 1.366 1_556 S
C1827 C1826 1.366 1_554 S
C1827 C1828 1.414 . S
C1827 C1830 1.499 . S
C1828 H1808 0.950 . S
C1828 C1827 1.414 . S
C1828 C1829 1.374 . S
C1829 H1809 0.950 . S
C1829 C1825 1.385 . S
C1829 C1828 1.374 . S
C1830 C1827 1.499 . S
C1830 C1831 1.379 . S
C1830 C1832 1.389 . S
C1831 H1810 0.950 . S
C1831 C1830 1.379 . S
C1831 C1847 1.371 1_564 S
C1832 C1830 1.389 . S
C1832 C1833 1.524 . S
C1832 C1846 1.371 1_564 S
C1833 C1832 1.524 . S
C1833 C1834 1.397 . S
C1833 C1838 1.363 1_554 S
C1834 H1811 0.950 . S
C1834 C1833 1.397 . S
C1834 C1835 1.334 . S
C1835 H1812 0.950 . S
C1835 C1834 1.334 . S
C1835 C1836 1.287 . S
C1836 C1835 1.287 . S
C1836 C1837 1.524 . S
C1836 H1855 0.913 . S
C1837 H1813 0.950 1_554 S
C1837 C1836 1.524 . S
C1837 C1838 1.415 1_554 S
C1838 H1814 0.950 . S
C1838 C1833 1.363 1_556 S
C1838 C1837 1.415 1_556 S
C1839 H1815 0.951 . S
C1839 C1840 1.366 1_554 S
C1839 C1841 1.388 . S
C1840 C1839 1.366 1_556 S
C1840 C1844 1.385 . S
C1841 H1816 0.951 . S
C1841 C1839 1.388 . S
C1841 C1842 1.366 1_554 S
C1842 C1841 1.366 1_556 S
C1842 C1843 1.414 . S
C1842 C1845 1.499 . S
C1843 H1817 0.950 . S
C1843 C1842 1.414 . S
C1843 C1844 1.374 . S
C1844 H1818 0.950 . S
C1844 C1840 1.385 . S
C1844 C1843 1.374 . S
C1845 C1842 1.499 . S
C1845 C1846 1.379 . S
C1845 C1847 1.389 . S
C1846 H1819 0.950 . S
C1846 C1832 1.371 1_546 S
C1846 C1845 1.379 . S
C1847 C1831 1.371 1_546 S
C1847 C1845 1.389 . S
C1847 C1848 1.524 . S
C1848 C1847 1.524 . S
C1848 C1849 1.397 . S
C1848 C1853 1.363 1_556 S
C1849 H1820 0.950 . S
C1849 C1848 1.397 . S
C1849 C1850 1.334 . S
C1850 H1821 0.950 . S
C1850 C1849 1.334 . S
C1850 C1851 1.287 . S
C1851 C1850 1.287 . S
C1851 C1852 1.524 . S
C1851 H1854 0.999 . S
C1852 H1822 0.950 1_556 S
C1852 C1851 1.524 . S
C1852 C1853 1.415 1_556 S
C1853 H1823 0.950 . S
C1853 C1848 1.363 1_554 S
C1853 C1852 1.415 1_554 S
H1854 C1851 0.999 . S
H1855 C1836 0.913 . S
H1856 C1874 0.951 . S
H1857 C1876 0.951 . S
H1858 C1878 0.950 . S
H1859 C1879 0.950 . S
H1860 C1881 0.950 . S
H1861 C1884 0.950 . S
H1862 C1885 0.950 . S
H1863 C1887 0.950 . S
H1864 C1888 0.950 . S
H1865 C1889 0.951 . S
H1866 C1891 0.951 . S
H1867 C1893 0.950 . S
H1868 C1894 0.950 . S
H1869 C1896 0.950 . S
H1870 C1899 0.950 . S
H1871 C1900 0.950 . S
H1872 C1902 0.950 . S
H1873 C1903 0.950 . S
C1874 H1856 0.951 . S
C1874 C1875 1.366 . S
C1874 C1876 1.388 . S
C1875 C1874 1.366 . S
C1875 C1879 1.385 . S
C1876 H1857 0.951 . S
C1876 C1874 1.388 . S
C1876 C1877 1.366 . S
C1877 C1876 1.366 . S
C1877 C1878 1.414 . S
C1877 C1880 1.499 . S
C1878 H1858 0.950 . S
C1878 C1877 1.414 . S
C1878 C1879 1.374 . S
C1879 H1859 0.950 . S
C1879 C1875 1.385 . S
C1879 C1878 1.374 . S
C1880 C1877 1.499 . S
C1880 C1881 1.373 . S
C1880 C1882 1.389 . S
C1881 H1860 0.950 . S
C1881 C1880 1.373 . S
C1881 C1897 1.377 . S
C1882 C1880 1.389 . S
C1882 C1883 1.524 . S
C1882 C1896 1.377 . S
C1883 C1882 1.524 . S
C1883 C1884 1.397 . S
C1883 C1888 1.363 . S
C1884 H1861 0.950 . S
C1884 C1883 1.397 . S
C1884 C1885 1.334 . S
C1885 H1862 0.950 . S
C1885 C1884 1.334 . S
C1885 C1886 1.287 . S
C1886 C1885 1.287 . S
C1886 C1887 1.524 . S
C1886 H1905 0.913 . S
C1887 H1863 0.950 . S
C1887 C1886 1.524 . S
C1887 C1888 1.415 . S
C1888 H1864 0.950 . S
C1888 C1883 1.363 . S
C1888 C1887 1.415 . S
C1889 H1865 0.951 . S
C1889 C1890 1.366 . S
C1889 C1891 1.388 . S
C1890 C1889 1.366 . S
C1890 C1894 1.385 . S
C1891 H1866 0.951 . S
C1891 C1889 1.388 . S
C1891 C1892 1.366 . S
C1892 C1891 1.366 . S
C1892 C1893 1.414 . S
C1892 C1895 1.499 . S
C1893 H1867 0.950 . S
C1893 C1892 1.414 . S
C1893 C1894 1.374 . S
C1894 H1868 0.950 . S
C1894 C1890 1.385 . S
C1894 C1893 1.374 . S
C1895 C1892 1.499 . S
C1895 C1896 1.373 . S
C1895 C1897 1.389 . S
C1896 H1869 0.950 . S
C1896 C1882 1.377 . S
C1896 C1895 1.373 . S
C1897 C1881 1.377 . S
C1897 C1895 1.389 . S
C1897 C1898 1.524 . S
C1898 C1897 1.524 . S
C1898 C1899 1.397 . S
C1898 C1903 1.363 . S
C1899 H1870 0.950 . S
C1899 C1898 1.397 . S
C1899 C1900 1.334 . S
C1900 H1871 0.950 . S
C1900 C1899 1.334 . S
C1900 C1901 1.287 . S
C1901 C1900 1.287 . S
C1901 C1902 1.524 . S
C1901 H1904 0.999 . S
C1902 H1872 0.950 . S
C1902 C1901 1.524 . S
C1902 C1903 1.415 . S
C1903 H1873 0.950 . S
C1903 C1898 1.363 . S
C1903 C1902 1.415 . S
H1904 C1901 0.999 . S
H1905 C1886 0.913 . S
H1906 C1924 0.951 . S
H1907 C1926 0.951 . S
H1908 C1928 0.950 . S
H1909 C1929 0.950 . S
H1910 C1931 0.950 . S
H1911 C1934 0.950 . S
H1912 C1935 0.950 . S
H1913 C1937 0.950 . S
H1914 C1938 0.950 1_655 S
H1915 C1939 0.951 . S
H1916 C1941 0.951 . S
H1917 C1943 0.950 . S
H1918 C1944 0.950 . S
H1919 C1946 0.950 . S
H1920 C1949 0.950 . S
H1921 C1950 0.950 . S
H1922 C1952 0.950 . S
H1923 C1953 0.950 1_455 S
C1924 H1906 0.951 . S
C1924 C1925 1.366 . S
C1924 C1926 1.388 . S
C1925 C1924 1.366 . S
C1925 C1929 1.385 . S
C1926 H1907 0.951 . S
C1926 C1924 1.388 . S
C1926 C1927 1.366 . S
C1927 C1926 1.366 . S
C1927 C1928 1.414 . S
C1927 C1930 1.499 . S
C1928 H1908 0.950 . S
C1928 C1927 1.414 . S
C1928 C1929 1.374 . S
C1929 H1909 0.950 . S
C1929 C1925 1.385 . S
C1929 C1928 1.374 . S
C1930 C1927 1.499 . S
C1930 C1931 1.373 . S
C1930 C1932 1.389 . S
C1931 H1910 0.950 . S
C1931 C1930 1.373 . S
C1931 C1947 1.377 1_455 S
C1932 C1930 1.389 . S
C1932 C1933 1.524 . S
C1932 C1946 1.377 1_455 S
C1933 C1932 1.524 . S
C1933 C1934 1.397 . S
C1933 C1938 1.363 . S
C1934 H1911 0.950 . S
C1934 C1933 1.397 . S
C1934 C1935 1.334 . S
C1935 H1912 0.950 . S
C1935 C1934 1.334 . S
C1935 C1936 1.287 . S
C1936 C1935 1.287 . S
C1936 C1937 1.524 . S
C1936 H1955 0.913 . S
C1937 H1913 0.950 . S
C1937 C1936 1.524 . S
C1937 C1938 1.415 . S
C1938 H1914 0.950 1_455 S
C1938 C1933 1.363 . S
C1938 C1937 1.415 . S
C1939 H1915 0.951 . S
C1939 C1940 1.366 . S
C1939 C1941 1.388 . S
C1940 C1939 1.366 . S
C1940 C1944 1.385 . S
C1941 H1916 0.951 . S
C1941 C1939 1.388 . S
C1941 C1942 1.366 . S
C1942 C1941 1.366 . S
C1942 C1943 1.414 . S
C1942 C1945 1.499 . S
C1943 H1917 0.950 . S
C1943 C1942 1.414 . S
C1943 C1944 1.374 . S
C1944 H1918 0.950 . S
C1944 C1940 1.385 . S
C1944 C1943 1.374 . S
C1945 C1942 1.499 . S
C1945 C1946 1.373 . S
C1945 C1947 1.389 . S
C1946 H1919 0.950 . S
C1946 C1932 1.377 1_655 S
C1946 C1945 1.373 . S
C1947 C1931 1.377 1_655 S
C1947 C1945 1.389 . S
C1947 C1948 1.524 . S
C1948 C1947 1.524 . S
C1948 C1949 1.397 . S
C1948 C1953 1.363 . S
C1949 H1920 0.950 . S
C1949 C1948 1.397 . S
C1949 C1950 1.334 . S
C1950 H1921 0.950 . S
C1950 C1949 1.334 . S
C1950 C1951 1.287 . S
C1951 C1950 1.287 . S
C1951 C1952 1.524 . S
C1951 H1954 0.999 . S
C1952 H1922 0.950 . S
C1952 C1951 1.524 . S
C1952 C1953 1.415 . S
C1953 H1923 0.950 1_655 S
C1953 C1948 1.363 . S
C1953 C1952 1.415 . S
H1954 C1951 0.999 . S
H1955 C1936 0.913 . S
H1956 C1974 0.951 . S
H1957 C1976 0.951 . S
H1958 C1978 0.950 1_554 S
H1959 C1979 0.950 . S
H1960 C1981 0.950 . S
H1961 C1984 0.950 . S
H1962 C1985 0.950 . S
H1963 C1987 0.950 . S
H1964 C1988 0.950 . S
H1965 C1989 0.951 . S
H1966 C1991 0.951 . S
H1967 C1993 0.950 1_556 S
H1968 C1994 0.950 . S
H1969 C1996 0.950 . S
H1970 C1999 0.950 . S
H1971 C2000 0.950 . S
H1972 C2002 0.950 . S
H1973 C2003 0.950 . S
C1974 H1956 0.951 . S
C1974 C1975 1.366 . S
C1974 C1976 1.388 . S
C1975 C1974 1.366 . S
C1975 C1979 1.385 . S
C1976 H1957 0.951 . S
C1976 C1974 1.388 . S
C1976 C1977 1.366 . S
C1977 C1976 1.366 . S
C1977 C1978 1.414 . S
C1977 C1980 1.499 . S
C1978 H1958 0.950 1_556 S
C1978 C1977 1.414 . S
C1978 C1979 1.374 . S
C1979 H1959 0.950 . S
C1979 C1975 1.385 . S
C1979 C1978 1.374 . S
C1980 C1977 1.499 . S
C1980 C1981 1.373 1_556 S
C1980 C1982 1.389 . S
C1981 H1960 0.950 . S
C1981 C1980 1.373 1_554 S
C1981 C1997 1.377 . S
C1982 C1980 1.389 . S
C1982 C1983 1.524 . S
C1982 C1996 1.377 . S
C1983 C1982 1.524 . S
C1983 C1984 1.397 . S
C1983 C1988 1.363 . S
C1984 H1961 0.950 . S
C1984 C1983 1.397 . S
C1984 C1985 1.334 . S
C1985 H1962 0.950 . S
C1985 C1984 1.334 . S
C1985 C1986 1.287 . S
C1986 C1985 1.287 . S
C1986 C1987 1.524 . S
C1986 H2005 0.913 . S
C1987 H1963 0.950 . S
C1987 C1986 1.524 . S
C1987 C1988 1.415 . S
C1988 H1964 0.950 . S
C1988 C1983 1.363 . S
C1988 C1987 1.415 . S
C1989 H1965 0.951 . S
C1989 C1990 1.366 . S
C1989 C1991 1.388 . S
C1990 C1989 1.366 . S
C1990 C1994 1.385 . S
C1991 H1966 0.951 . S
C1991 C1989 1.388 . S
C1991 C1992 1.366 . S
C1992 C1991 1.366 . S
C1992 C1993 1.414 . S
C1992 C1995 1.499 . S
C1993 H1967 0.950 1_554 S
C1993 C1992 1.414 . S
C1993 C1994 1.374 . S
C1994 H1968 0.950 . S
C1994 C1990 1.385 . S
C1994 C1993 1.374 . S
C1995 C1992 1.499 . S
C1995 C1996 1.373 1_554 S
C1995 C1997 1.389 . S
C1996 H1969 0.950 . S
C1996 C1982 1.377 . S
C1996 C1995 1.373 1_556 S
C1997 C1981 1.377 . S
C1997 C1995 1.389 . S
C1997 C1998 1.524 . S
C1998 C1997 1.524 . S
C1998 C1999 1.397 . S
C1998 C2003 1.363 . S
C1999 H1970 0.950 . S
C1999 C1998 1.397 . S
C1999 C2000 1.334 . S
C2000 H1971 0.950 . S
C2000 C1999 1.334 . S
C2000 C2001 1.287 . S
C2001 C2000 1.287 . S
C2001 C2002 1.524 . S
C2001 H2004 0.999 . S
C2002 H1972 0.950 . S
C2002 C2001 1.524 . S
C2002 C2003 1.415 . S
C2003 H1973 0.950 . S
C2003 C1998 1.363 . S
C2003 C2002 1.415 . S
H2004 C2001 0.999 . S
H2005 C1986 0.913 . S
H2006 C2024 0.951 . S
H2007 C2026 0.951 . S
H2008 C2028 0.950 . S
H2009 C2029 0.950 . S
H2010 C2031 0.950 . S
H2011 C2034 0.950 . S
H2012 C2035 0.950 . S
H2013 C2037 0.950 . S
H2014 C2038 0.950 . S
H2015 C2039 0.951 . S
H2016 C2041 0.951 . S
H2017 C2043 0.950 . S
H2018 C2044 0.950 . S
H2019 C2046 0.950 . S
H2020 C2049 0.950 . S
H2021 C2050 0.950 . S
H2022 C2052 0.950 . S
H2023 C2053 0.950 . S
C2024 H2006 0.951 . S
C2024 C2025 1.366 . S
C2024 C2026 1.388 . S
C2025 C2024 1.366 . S
C2025 C2029 1.385 . S
C2026 H2007 0.951 . S
C2026 C2024 1.388 . S
C2026 C2027 1.366 . S
C2027 C2026 1.366 . S
C2027 C2028 1.414 . S
C2027 C2030 1.499 . S
C2028 H2008 0.950 . S
C2028 C2027 1.414 . S
C2028 C2029 1.374 . S
C2029 H2009 0.950 . S
C2029 C2025 1.385 . S
C2029 C2028 1.374 . S
C2030 C2027 1.499 . S
C2030 C2031 1.373 . S
C2030 C2032 1.389 . S
C2031 H2010 0.950 . S
C2031 C2030 1.373 . S
C2031 C2047 1.377 . S
C2032 C2030 1.389 . S
C2032 C2033 1.524 . S
C2032 C2046 1.377 . S
C2033 C2032 1.524 . S
C2033 C2034 1.397 . S
C2033 C2038 1.363 . S
C2034 H2011 0.950 . S
C2034 C2033 1.397 . S
C2034 C2035 1.334 . S
C2035 H2012 0.950 . S
C2035 C2034 1.334 . S
C2035 C2036 1.287 . S
C2036 C2035 1.287 . S
C2036 C2037 1.524 . S
C2036 H2055 0.913 . S
C2037 H2013 0.950 . S
C2037 C2036 1.524 . S
C2037 C2038 1.415 . S
C2038 H2014 0.950 . S
C2038 C2033 1.363 . S
C2038 C2037 1.415 . S
C2039 H2015 0.951 . S
C2039 C2040 1.366 . S
C2039 C2041 1.388 . S
C2040 C2039 1.366 . S
C2040 C2044 1.385 . S
C2041 H2016 0.951 . S
C2041 C2039 1.388 . S
C2041 C2042 1.366 . S
C2042 C2041 1.366 . S
C2042 C2043 1.414 . S
C2042 C2045 1.499 . S
C2043 H2017 0.950 . S
C2043 C2042 1.414 . S
C2043 C2044 1.374 . S
C2044 H2018 0.950 . S
C2044 C2040 1.385 . S
C2044 C2043 1.374 . S
C2045 C2042 1.499 . S
C2045 C2046 1.373 . S
C2045 C2047 1.389 . S
C2046 H2019 0.950 . S
C2046 C2032 1.377 . S
C2046 C2045 1.373 . S
C2047 C2031 1.377 . S
C2047 C2045 1.389 . S
C2047 C2048 1.524 . S
C2048 C2047 1.524 . S
C2048 C2049 1.397 . S
C2048 C2053 1.363 . S
C2049 H2020 0.950 . S
C2049 C2048 1.397 . S
C2049 C2050 1.334 . S
C2050 H2021 0.950 . S
C2050 C2049 1.334 . S
C2050 C2051 1.287 . S
C2051 C2050 1.287 . S
C2051 C2052 1.524 . S
C2051 H2054 0.999 . S
C2052 H2022 0.950 . S
C2052 C2051 1.524 . S
C2052 C2053 1.415 . S
C2053 H2023 0.950 . S
C2053 C2048 1.363 . S
C2053 C2052 1.415 . S
H2054 C2051 0.999 . S
H2055 C2036 0.913 . S
H2056 C2074 0.951 . S
H2057 C2076 0.951 . S
H2058 C2078 0.950 . S
H2059 C2079 0.950 . S
H2060 C2081 0.950 . S
H2061 C2084 0.950 . S
H2062 C2085 0.950 . S
H2063 C2087 0.950 . S
H2064 C2088 0.950 . S
H2065 C2089 0.951 . S
H2066 C2091 0.951 . S
H2067 C2093 0.950 . S
H2068 C2094 0.950 . S
H2069 C2096 0.950 . S
H2070 C2099 0.950 . S
H2071 C2100 0.950 . S
H2072 C2102 0.950 . S
H2073 C2103 0.950 . S
C2074 H2056 0.951 . S
C2074 C2075 1.366 . S
C2074 C2076 1.388 . S
C2075 C2074 1.366 . S
C2075 C2079 1.385 . S
C2076 H2057 0.951 . S
C2076 C2074 1.388 . S
C2076 C2077 1.366 . S
C2077 C2076 1.366 . S
C2077 C2078 1.414 . S
C2077 C2080 1.499 . S
C2078 H2058 0.950 . S
C2078 C2077 1.414 . S
C2078 C2079 1.374 . S
C2079 H2059 0.950 . S
C2079 C2075 1.385 . S
C2079 C2078 1.374 . S
C2080 C2077 1.499 . S
C2080 C2081 1.373 . S
C2080 C2082 1.389 . S
C2081 H2060 0.950 . S
C2081 C2080 1.373 . S
C2081 C2097 1.377 . S
C2082 C2080 1.389 . S
C2082 C2083 1.524 . S
C2082 C2096 1.377 . S
C2083 C2082 1.524 . S
C2083 C2084 1.397 . S
C2083 C2088 1.363 . S
C2084 H2061 0.950 . S
C2084 C2083 1.397 . S
C2084 C2085 1.334 . S
C2085 H2062 0.950 . S
C2085 C2084 1.334 . S
C2085 C2086 1.287 . S
C2086 C2085 1.287 . S
C2086 C2087 1.524 . S
C2086 H2105 0.913 . S
C2087 H2063 0.950 . S
C2087 C2086 1.524 . S
C2087 C2088 1.415 . S
C2088 H2064 0.950 . S
C2088 C2083 1.363 . S
C2088 C2087 1.415 . S
C2089 H2065 0.951 . S
C2089 C2090 1.366 . S
C2089 C2091 1.388 . S
C2090 C2089 1.366 . S
C2090 C2094 1.385 . S
C2091 H2066 0.951 . S
C2091 C2089 1.388 . S
C2091 C2092 1.366 . S
C2092 C2091 1.366 . S
C2092 C2093 1.414 . S
C2092 C2095 1.499 . S
C2093 H2067 0.950 . S
C2093 C2092 1.414 . S
C2093 C2094 1.374 . S
C2094 H2068 0.950 . S
C2094 C2090 1.385 . S
C2094 C2093 1.374 . S
C2095 C2092 1.499 . S
C2095 C2096 1.373 . S
C2095 C2097 1.389 . S
C2096 H2069 0.950 . S
C2096 C2082 1.377 . S
C2096 C2095 1.373 . S
C2097 C2081 1.377 . S
C2097 C2095 1.389 . S
C2097 C2098 1.524 . S
C2098 C2097 1.524 . S
C2098 C2099 1.397 . S
C2098 C2103 1.363 . S
C2099 H2070 0.950 . S
C2099 C2098 1.397 . S
C2099 C2100 1.334 . S
C2100 H2071 0.950 . S
C2100 C2099 1.334 . S
C2100 C2101 1.287 . S
C2101 C2100 1.287 . S
C2101 C2102 1.524 . S
C2101 H2104 0.999 1_565 S
C2102 H2072 0.950 . S
C2102 C2101 1.524 . S
C2102 C2103 1.415 . S
C2103 H2073 0.950 . S
C2103 C2098 1.363 . S
C2103 C2102 1.415 . S
H2104 C2101 0.999 1_545 S
H2105 C2086 0.913 . S
H2106 C2124 0.951 . S
H2107 C2126 0.951 . S
H2108 C2128 0.950 . S
H2109 C2129 0.950 . S
H2110 C2131 0.950 . S
H2111 C2134 0.950 . S
H2112 C2135 0.950 . S
H2113 C2137 0.950 . S
H2114 C2138 0.950 . S
H2115 C2139 0.951 . S
H2116 C2141 0.951 . S
H2117 C2143 0.950 . S
H2118 C2144 0.950 . S
H2119 C2146 0.950 . S
H2120 C2149 0.950 . S
H2121 C2150 0.950 . S
H2122 C2152 0.950 . S
H2123 C2153 0.950 . S
C2124 H2106 0.951 . S
C2124 C2125 1.366 . S
C2124 C2126 1.388 . S
C2125 C2124 1.366 . S
C2125 C2129 1.385 . S
C2126 H2107 0.951 . S
C2126 C2124 1.388 . S
C2126 C2127 1.366 . S
C2127 C2126 1.366 . S
C2127 C2128 1.414 . S
C2127 C2130 1.499 . S
C2128 H2108 0.950 . S
C2128 C2127 1.414 . S
C2128 C2129 1.374 . S
C2129 H2109 0.950 . S
C2129 C2125 1.385 . S
C2129 C2128 1.374 . S
C2130 C2127 1.499 . S
C2130 C2131 1.373 . S
C2130 C2132 1.389 1_554 S
C2131 H2110 0.950 . S
C2131 C2130 1.373 . S
C2131 C2147 1.377 . S
C2132 C2130 1.389 1_556 S
C2132 C2133 1.524 . S
C2132 C2146 1.377 . S
C2133 C2132 1.524 . S
C2133 C2134 1.397 . S
C2133 C2138 1.363 . S
C2134 H2111 0.950 . S
C2134 C2133 1.397 . S
C2134 C2135 1.334 . S
C2135 H2112 0.950 . S
C2135 C2134 1.334 . S
C2135 C2136 1.287 . S
C2136 C2135 1.287 . S
C2136 C2137 1.524 . S
C2136 H2155 0.913 . S
C2137 H2113 0.950 . S
C2137 C2136 1.524 . S
C2137 C2138 1.415 . S
C2138 H2114 0.950 . S
C2138 C2133 1.363 . S
C2138 C2137 1.415 . S
C2139 H2115 0.951 . S
C2139 C2140 1.366 . S
C2139 C2141 1.388 . S
C2140 C2139 1.366 . S
C2140 C2144 1.385 . S
C2141 H2116 0.951 . S
C2141 C2139 1.388 . S
C2141 C2142 1.366 . S
C2142 C2141 1.366 . S
C2142 C2143 1.414 . S
C2142 C2145 1.499 . S
C2143 H2117 0.950 . S
C2143 C2142 1.414 . S
C2143 C2144 1.374 . S
C2144 H2118 0.950 . S
C2144 C2140 1.385 . S
C2144 C2143 1.374 . S
C2145 C2142 1.499 . S
C2145 C2146 1.373 . S
C2145 C2147 1.389 1_556 S
C2146 H2119 0.950 . S
C2146 C2132 1.377 . S
C2146 C2145 1.373 . S
C2147 C2131 1.377 . S
C2147 C2145 1.389 1_554 S
C2147 C2148 1.524 . S
C2148 C2147 1.524 . S
C2148 C2149 1.397 . S
C2148 C2153 1.363 . S
C2149 H2120 0.950 . S
C2149 C2148 1.397 . S
C2149 C2150 1.334 . S
C2150 H2121 0.950 . S
C2150 C2149 1.334 . S
C2150 C2151 1.287 . S
C2151 C2150 1.287 . S
C2151 C2152 1.524 . S
C2151 H2154 0.999 . S
C2152 H2122 0.950 . S
C2152 C2151 1.524 . S
C2152 C2153 1.415 . S
C2153 H2123 0.950 . S
C2153 C2148 1.363 . S
C2153 C2152 1.415 . S
H2154 C2151 0.999 . S
H2155 C2136 0.913 . S
H2156 C2174 0.951 . S
H2157 C2176 0.951 . S
H2158 C2178 0.950 . S
H2159 C2179 0.950 . S
H2160 C2181 0.950 . S
H2161 C2184 0.950 . S
H2162 C2185 0.950 . S
H2163 C2187 0.950 . S
H2164 C2188 0.950 . S
H2165 C2189 0.951 . S
H2166 C2191 0.951 . S
H2167 C2193 0.950 . S
H2168 C2194 0.950 . S
H2169 C2196 0.950 . S
H2170 C2199 0.950 . S
H2171 C2200 0.950 . S
H2172 C2202 0.950 . S
H2173 C2203 0.950 . S
C2174 H2156 0.951 . S
C2174 C2175 1.366 . S
C2174 C2176 1.388 . S
C2175 C2174 1.366 . S
C2175 C2179 1.385 . S
C2176 H2157 0.951 . S
C2176 C2174 1.388 . S
C2176 C2177 1.366 . S
C2177 C2176 1.366 . S
C2177 C2178 1.414 . S
C2177 C2180 1.499 . S
C2178 H2158 0.950 . S
C2178 C2177 1.414 . S
C2178 C2179 1.374 . S
C2179 H2159 0.950 . S
C2179 C2175 1.385 . S
C2179 C2178 1.374 . S
C2180 C2177 1.499 . S
C2180 C2181 1.373 . S
C2180 C2182 1.389 . S
C2181 H2160 0.950 . S
C2181 C2180 1.373 . S
C2181 C2197 1.377 . S
C2182 C2180 1.389 . S
C2182 C2183 1.524 . S
C2182 C2196 1.377 . S
C2183 C2182 1.524 . S
C2183 C2184 1.397 . S
C2183 C2188 1.363 . S
C2184 H2161 0.950 . S
C2184 C2183 1.397 . S
C2184 C2185 1.334 . S
C2185 H2162 0.950 . S
C2185 C2184 1.334 . S
C2185 C2186 1.287 . S
C2186 C2185 1.287 . S
C2186 C2187 1.524 . S
C2186 H2205 0.913 . S
C2187 H2163 0.950 . S
C2187 C2186 1.524 . S
C2187 C2188 1.415 . S
C2188 H2164 0.950 . S
C2188 C2183 1.363 . S
C2188 C2187 1.415 . S
C2189 H2165 0.951 . S
C2189 C2190 1.366 . S
C2189 C2191 1.388 . S
C2190 C2189 1.366 . S
C2190 C2194 1.385 . S
C2191 H2166 0.951 . S
C2191 C2189 1.388 . S
C2191 C2192 1.366 . S
C2192 C2191 1.366 . S
C2192 C2193 1.414 . S
C2192 C2195 1.499 . S
C2193 H2167 0.950 . S
C2193 C2192 1.414 . S
C2193 C2194 1.374 . S
C2194 H2168 0.950 . S
C2194 C2190 1.385 . S
C2194 C2193 1.374 . S
C2195 C2192 1.499 . S
C2195 C2196 1.373 . S
C2195 C2197 1.389 . S
C2196 H2169 0.950 . S
C2196 C2182 1.377 . S
C2196 C2195 1.373 . S
C2197 C2181 1.377 . S
C2197 C2195 1.389 . S
C2197 C2198 1.524 . S
C2198 C2197 1.524 . S
C2198 C2199 1.397 . S
C2198 C2203 1.363 . S
C2199 H2170 0.950 . S
C2199 C2198 1.397 . S
C2199 C2200 1.334 . S
C2200 H2171 0.950 . S
C2200 C2199 1.334 . S
C2200 C2201 1.287 . S
C2201 C2200 1.287 . S
C2201 C2202 1.524 . S
C2201 H2204 0.999 . S
C2202 H2172 0.950 . S
C2202 C2201 1.524 . S
C2202 C2203 1.415 . S
C2203 H2173 0.950 . S
C2203 C2198 1.363 . S
C2203 C2202 1.415 . S
H2204 C2201 0.999 . S
H2205 C2186 0.913 . S
H2206 C2224 0.951 . S
H2207 C2226 0.951 . S
H2208 C2228 0.950 . S
H2209 C2229 0.950 . S
H2210 C2231 0.950 . S
H2211 C2234 0.950 . S
H2212 C2235 0.950 . S
H2213 C2237 0.950 . S
H2214 C2238 0.950 . S
H2215 C2239 0.951 . S
H2216 C2241 0.951 . S
H2217 C2243 0.950 . S
H2218 C2244 0.950 . S
H2219 C2246 0.950 . S
H2220 C2249 0.950 . S
H2221 C2250 0.950 . S
H2222 C2252 0.950 . S
H2223 C2253 0.950 . S
C2224 H2206 0.951 . S
C2224 C2225 1.366 . S
C2224 C2226 1.388 . S
C2225 C2224 1.366 . S
C2225 C2229 1.385 . S
C2226 H2207 0.951 . S
C2226 C2224 1.388 . S
C2226 C2227 1.366 . S
C2227 C2226 1.366 . S
C2227 C2228 1.414 . S
C2227 C2230 1.499 . S
C2228 H2208 0.950 . S
C2228 C2227 1.414 . S
C2228 C2229 1.374 . S
C2229 H2209 0.950 . S
C2229 C2225 1.385 . S
C2229 C2228 1.374 . S
C2230 C2227 1.499 . S
C2230 C2231 1.373 . S
C2230 C2232 1.389 . S
C2231 H2210 0.950 . S
C2231 C2230 1.373 . S
C2231 C2247 1.377 . S
C2232 C2230 1.389 . S
C2232 C2233 1.524 . S
C2232 C2246 1.377 . S
C2233 C2232 1.524 . S
C2233 C2234 1.397 . S
C2233 C2238 1.363 . S
C2234 H2211 0.950 . S
C2234 C2233 1.397 . S
C2234 C2235 1.334 . S
C2235 H2212 0.950 . S
C2235 C2234 1.334 . S
C2235 C2236 1.287 . S
C2236 C2235 1.287 . S
C2236 C2237 1.524 . S
C2236 H2255 0.929 . S
C2237 H2213 0.950 . S
C2237 C2236 1.524 . S
C2237 C2238 1.415 . S
C2238 H2214 0.950 . S
C2238 C2233 1.363 . S
C2238 C2237 1.415 . S
C2239 H2215 0.951 . S
C2239 C2240 1.366 . S
C2239 C2241 1.388 . S
C2240 C2239 1.366 . S
C2240 C2244 1.385 . S
C2241 H2216 0.951 . S
C2241 C2239 1.388 . S
C2241 C2242 1.366 . S
C2242 C2241 1.366 . S
C2242 C2243 1.414 . S
C2242 C2245 1.499 . S
C2243 H2217 0.950 . S
C2243 C2242 1.414 . S
C2243 C2244 1.374 . S
C2244 H2218 0.950 . S
C2244 C2240 1.385 . S
C2244 C2243 1.374 . S
C2245 C2242 1.499 . S
C2245 C2246 1.373 . S
C2245 C2247 1.389 . S
C2246 H2219 0.950 . S
C2246 C2232 1.377 . S
C2246 C2245 1.373 . S
C2247 C2231 1.377 . S
C2247 C2245 1.389 . S
C2247 C2248 1.524 . S
C2248 C2247 1.524 . S
C2248 C2249 1.397 . S
C2248 C2253 1.363 . S
C2249 H2220 0.950 . S
C2249 C2248 1.397 . S
C2249 C2250 1.334 . S
C2250 H2221 0.950 . S
C2250 C2249 1.334 . S
C2250 C2251 1.287 . S
C2251 C2250 1.287 . S
C2251 C2252 1.524 . S
C2251 H2254 0.999 . S
C2252 H2222 0.950 . S
C2252 C2251 1.524 . S
C2252 C2253 1.415 . S
C2253 H2223 0.950 . S
C2253 C2248 1.363 . S
C2253 C2252 1.415 . S
H2254 C2251 0.999 . S
H2255 C2236 0.929 . S
C1075 C293 1.689 . S
C1090 C20 1.689 . S
C1125 C108 1.690 . S
C1140 C372 1.689 . S
C1175 C460 1.690 . S
C1190 C205 1.689 . S
C1225 C585 1.690 . S
C1240 C849 1.690 . S
C1275 C929 1.690 . S
C1290 C665 1.689 . S
C1325 C761 1.689 . S
C1340 C1025 1.689 . S
C1375 C753 1.603 . S
C1390 C29 1.603 . S
C1425 C117 1.603 . S
C1440 C841 1.603 . S
C1475 C196 1.603 . S
C1490 C937 1.603 . S
C1525 C284 1.603 . S
C1540 C1017 1.603 . S
C1575 C577 1.603 . S
C1590 C381 1.603 . S
C1625 C673 1.603 . S
C1640 C469 1.603 . S
C1675 C636 0.854 . S
C1690 C49 0.853 . S
C1725 C137 0.852 . S
C1740 C733 0.853 . S
C1775 C233 0.852 . S
C1790 C821 0.853 . S
C1825 C321 0.854 . S
C1840 C900 0.853 . S
C1875 C997 0.852 . S
C1890 C401 0.854 . S
C1925 C489 0.853 . S
C1940 C557 0.855 . S
C1975 C909 1.008 . S
C1990 C57 1.007 . S
C2025 C988 1.008 . S
C2040 C145 1.008 . S
C2075 C548 1.008 . S
C2090 C225 1.008 . S
C2125 C313 1.008 . S
C2140 C645 1.008 . S
C2175 C409 1.008 . S
C2190 C724 1.008 . S
C2225 C497 1.008 . S
C2240 C812 1.008 . S
