# Generated by pormake.
# Topology sxm, (6)-cn, num edge types: 1
# Building blocks:
#     Node 0, Type 0, BuildingBlock: MIDCAF_clean_sbu_0, # of connection points: 6
#     Node 1, Type 0, BuildingBlock: MIDCAF_clean_sbu_0, # of connection points: 6
#     Node 2, Type 0, BuildingBlock: MIDCAF_clean_sbu_0, # of connection points: 6
#     Node 3, Type 0, BuildingBlock: MIDCAF_clean_sbu_0, # of connection points: 6
#     Node 4, Type 0, BuildingBlock: MIDCAF_clean_sbu_0, # of connection points: 6
#     Node 5, Type 0, BuildingBlock: MIDCAF_clean_sbu_0, # of connection points: 6
#     Node 6, Type 0, BuildingBlock: MIDCAF_clean_sbu_0, # of connection points: 6
#     Node 7, Type 0, BuildingBlock: MIDCAF_clean_sbu_0, # of connection points: 6
#     Node 8, Type 0, BuildingBlock: MIDCAF_clean_sbu_0, # of connection points: 6
#     Node 9, Type 0, BuildingBlock: MIDCAF_clean_sbu_0, # of connection points: 6
#     Node 10, Type 0, BuildingBlock: MIDCAF_clean_sbu_0, # of connection points: 6
#     Node 11, Type 0, BuildingBlock: MIDCAF_clean_sbu_0, # of connection points: 6
#     Node 12, Type 0, BuildingBlock: MIDCAF_clean_sbu_0, # of connection points: 6
#     Node 13, Type 0, BuildingBlock: MIDCAF_clean_sbu_0, # of connection points: 6
#     Node 14, Type 0, BuildingBlock: MIDCAF_clean_sbu_0, # of connection points: 6
#     Node 15, Type 0, BuildingBlock: MIDCAF_clean_sbu_0, # of connection points: 6
#     Node 16, Type 0, BuildingBlock: MIDCAF_clean_sbu_0, # of connection points: 6
#     Node 17, Type 0, BuildingBlock: MIDCAF_clean_sbu_0, # of connection points: 6
#     Node 18, Type 0, BuildingBlock: MIDCAF_clean_sbu_0, # of connection points: 6
#     Node 19, Type 0, BuildingBlock: MIDCAF_clean_sbu_0, # of connection points: 6
#     Node 20, Type 0, BuildingBlock: MIDCAF_clean_sbu_0, # of connection points: 6
#     Node 21, Type 0, BuildingBlock: MIDCAF_clean_sbu_0, # of connection points: 6
#     Node 22, Type 0, BuildingBlock: MIDCAF_clean_sbu_0, # of connection points: 6
#     Node 23, Type 0, BuildingBlock: MIDCAF_clean_sbu_0, # of connection points: 6
#     Node 24, Type 0, BuildingBlock: MIDCAF_clean_sbu_0, # of connection points: 6
#     Node 25, Type 0, BuildingBlock: MIDCAF_clean_sbu_0, # of connection points: 6
#     Node 26, Type 0, BuildingBlock: MIDCAF_clean_sbu_0, # of connection points: 6
#     Node 27, Type 0, BuildingBlock: MIDCAF_clean_sbu_0, # of connection points: 6
#     Node 28, Type 0, BuildingBlock: MIDCAF_clean_sbu_0, # of connection points: 6
#     Node 29, Type 0, BuildingBlock: MIDCAF_clean_sbu_0, # of connection points: 6
#     Node 30, Type 0, BuildingBlock: MIDCAF_clean_sbu_0, # of connection points: 6
#     Node 31, Type 0, BuildingBlock: MIDCAF_clean_sbu_0, # of connection points: 6
#     Node 32, Type 0, BuildingBlock: MIDCAF_clean_sbu_0, # of connection points: 6
#     Node 33, Type 0, BuildingBlock: MIDCAF_clean_sbu_0, # of connection points: 6
#     Node 34, Type 0, BuildingBlock: MIDCAF_clean_sbu_0, # of connection points: 6
#     Node 35, Type 0, BuildingBlock: MIDCAF_clean_sbu_0, # of connection points: 6
#     Node 36, Type 0, BuildingBlock: MIDCAF_clean_sbu_0, # of connection points: 6
#     Node 37, Type 0, BuildingBlock: MIDCAF_clean_sbu_0, # of connection points: 6
#     Node 38, Type 0, BuildingBlock: MIDCAF_clean_sbu_0, # of connection points: 6
#     Node 39, Type 0, BuildingBlock: MIDCAF_clean_sbu_0, # of connection points: 6
#     Node 40, Type 0, BuildingBlock: MIDCAF_clean_sbu_0, # of connection points: 6
#     Node 41, Type 0, BuildingBlock: MIDCAF_clean_sbu_0, # of connection points: 6
#     Node 42, Type 0, BuildingBlock: MIDCAF_clean_sbu_0, # of connection points: 6
#     Node 43, Type 0, BuildingBlock: MIDCAF_clean_sbu_0, # of connection points: 6
#     Node 44, Type 0, BuildingBlock: MIDCAF_clean_sbu_0, # of connection points: 6
#     Node 45, Type 0, BuildingBlock: MIDCAF_clean_sbu_0, # of connection points: 6
#     Node 46, Type 0, BuildingBlock: MIDCAF_clean_sbu_0, # of connection points: 6
#     Node 47, Type 0, BuildingBlock: MIDCAF_clean_sbu_0, # of connection points: 6
#     Node 48, Type 0, BuildingBlock: MIDCAF_clean_sbu_0, # of connection points: 6
#     Node 49, Type 0, BuildingBlock: MIDCAF_clean_sbu_0, # of connection points: 6
#     Node 50, Type 0, BuildingBlock: MIDCAF_clean_sbu_0, # of connection points: 6
#     Node 51, Type 0, BuildingBlock: MIDCAF_clean_sbu_0, # of connection points: 6
#     Node 52, Type 0, BuildingBlock: MIDCAF_clean_sbu_0, # of connection points: 6
#     Node 53, Type 0, BuildingBlock: MIDCAF_clean_sbu_0, # of connection points: 6
#     Node 54, Type 0, BuildingBlock: MIDCAF_clean_sbu_0, # of connection points: 6
#     Node 55, Type 0, BuildingBlock: MIDCAF_clean_sbu_0, # of connection points: 6
#     Node 56, Type 0, BuildingBlock: MIDCAF_clean_sbu_0, # of connection points: 6
#     Node 57, Type 0, BuildingBlock: MIDCAF_clean_sbu_0, # of connection points: 6
#     Node 58, Type 0, BuildingBlock: MIDCAF_clean_sbu_0, # of connection points: 6
#     Node 59, Type 0, BuildingBlock: MIDCAF_clean_sbu_0, # of connection points: 6
#     Node 60, Type 0, BuildingBlock: MIDCAF_clean_sbu_0, # of connection points: 6
#     Node 61, Type 0, BuildingBlock: MIDCAF_clean_sbu_0, # of connection points: 6
#     Node 62, Type 0, BuildingBlock: MIDCAF_clean_sbu_0, # of connection points: 6
#     Node 63, Type 0, BuildingBlock: MIDCAF_clean_sbu_0, # of connection points: 6
#     Node 64, Type 0, BuildingBlock: MIDCAF_clean_sbu_0, # of connection points: 6
#     Node 65, Type 0, BuildingBlock: MIDCAF_clean_sbu_0, # of connection points: 6
#     Node 66, Type 0, BuildingBlock: MIDCAF_clean_sbu_0, # of connection points: 6
#     Node 67, Type 0, BuildingBlock: MIDCAF_clean_sbu_0, # of connection points: 6
#     Node 68, Type 0, BuildingBlock: MIDCAF_clean_sbu_0, # of connection points: 6
#     Node 69, Type 0, BuildingBlock: MIDCAF_clean_sbu_0, # of connection points: 6
#     Node 70, Type 0, BuildingBlock: MIDCAF_clean_sbu_0, # of connection points: 6
#     Node 71, Type 0, BuildingBlock: MIDCAF_clean_sbu_0, # of connection points: 6
#     Node 72, Type 0, BuildingBlock: MIDCAF_clean_sbu_0, # of connection points: 6
#     Node 73, Type 0, BuildingBlock: MIDCAF_clean_sbu_0, # of connection points: 6
#     Node 74, Type 0, BuildingBlock: MIDCAF_clean_sbu_0, # of connection points: 6
#     Node 75, Type 0, BuildingBlock: MIDCAF_clean_sbu_0, # of connection points: 6
#     Node 76, Type 0, BuildingBlock: MIDCAF_clean_sbu_0, # of connection points: 6
#     Node 77, Type 0, BuildingBlock: MIDCAF_clean_sbu_0, # of connection points: 6
#     Node 78, Type 0, BuildingBlock: MIDCAF_clean_sbu_0, # of connection points: 6
#     Node 79, Type 0, BuildingBlock: MIDCAF_clean_sbu_0, # of connection points: 6
#     Node 80, Type 0, BuildingBlock: MIDCAF_clean_sbu_0, # of connection points: 6
#     Node 81, Type 0, BuildingBlock: MIDCAF_clean_sbu_0, # of connection points: 6
#     Node 82, Type 0, BuildingBlock: MIDCAF_clean_sbu_0, # of connection points: 6
#     Node 83, Type 0, BuildingBlock: MIDCAF_clean_sbu_0, # of connection points: 6
#     Node 84, Type 0, BuildingBlock: MIDCAF_clean_sbu_0, # of connection points: 6
#     Node 85, Type 0, BuildingBlock: MIDCAF_clean_sbu_0, # of connection points: 6
#     Node 86, Type 0, BuildingBlock: MIDCAF_clean_sbu_0, # of connection points: 6
#     Node 87, Type 0, BuildingBlock: MIDCAF_clean_sbu_0, # of connection points: 6
#     Node 88, Type 0, BuildingBlock: MIDCAF_clean_sbu_0, # of connection points: 6
#     Node 89, Type 0, BuildingBlock: MIDCAF_clean_sbu_0, # of connection points: 6
#     Node 90, Type 0, BuildingBlock: MIDCAF_clean_sbu_0, # of connection points: 6
#     Node 91, Type 0, BuildingBlock: MIDCAF_clean_sbu_0, # of connection points: 6
#     Node 92, Type 0, BuildingBlock: MIDCAF_clean_sbu_0, # of connection points: 6
#     Node 93, Type 0, BuildingBlock: MIDCAF_clean_sbu_0, # of connection points: 6
#     Node 94, Type 0, BuildingBlock: MIDCAF_clean_sbu_0, # of connection points: 6
#     Node 95, Type 0, BuildingBlock: MIDCAF_clean_sbu_0, # of connection points: 6
#     Node 96, Type 0, BuildingBlock: MIDCAF_clean_sbu_0, # of connection points: 6
#     Node 97, Type 0, BuildingBlock: MIDCAF_clean_sbu_0, # of connection points: 6
#     Node 98, Type 0, BuildingBlock: MIDCAF_clean_sbu_0, # of connection points: 6
#     Node 99, Type 0, BuildingBlock: MIDCAF_clean_sbu_0, # of connection points: 6
#     Node 100, Type 0, BuildingBlock: MIDCAF_clean_sbu_0, # of connection points: 6
#     Node 101, Type 0, BuildingBlock: MIDCAF_clean_sbu_0, # of connection points: 6
#     Node 102, Type 0, BuildingBlock: MIDCAF_clean_sbu_0, # of connection points: 6
#     Node 103, Type 0, BuildingBlock: MIDCAF_clean_sbu_0, # of connection points: 6
#     Node 104, Type 0, BuildingBlock: MIDCAF_clean_sbu_0, # of connection points: 6
#     Node 105, Type 0, BuildingBlock: MIDCAF_clean_sbu_0, # of connection points: 6
#     Node 106, Type 0, BuildingBlock: MIDCAF_clean_sbu_0, # of connection points: 6
#     Node 107, Type 0, BuildingBlock: MIDCAF_clean_sbu_0, # of connection points: 6
#     Node 108, Type 0, BuildingBlock: MIDCAF_clean_sbu_0, # of connection points: 6
#     Node 109, Type 0, BuildingBlock: MIDCAF_clean_sbu_0, # of connection points: 6
#     Node 110, Type 0, BuildingBlock: MIDCAF_clean_sbu_0, # of connection points: 6
#     Node 111, Type 0, BuildingBlock: MIDCAF_clean_sbu_0, # of connection points: 6
#     Node 112, Type 0, BuildingBlock: MIDCAF_clean_sbu_0, # of connection points: 6
#     Node 113, Type 0, BuildingBlock: MIDCAF_clean_sbu_0, # of connection points: 6
#     Node 114, Type 0, BuildingBlock: MIDCAF_clean_sbu_0, # of connection points: 6
#     Node 115, Type 0, BuildingBlock: MIDCAF_clean_sbu_0, # of connection points: 6
#     Node 116, Type 0, BuildingBlock: MIDCAF_clean_sbu_0, # of connection points: 6
#     Node 117, Type 0, BuildingBlock: MIDCAF_clean_sbu_0, # of connection points: 6
#     Node 118, Type 0, BuildingBlock: MIDCAF_clean_sbu_0, # of connection points: 6
#     Node 119, Type 0, BuildingBlock: MIDCAF_clean_sbu_0, # of connection points: 6
#     Node 120, Type 0, BuildingBlock: MIDCAF_clean_sbu_0, # of connection points: 6
#     Node 121, Type 0, BuildingBlock: MIDCAF_clean_sbu_0, # of connection points: 6
#     Node 122, Type 0, BuildingBlock: MIDCAF_clean_sbu_0, # of connection points: 6
#     Node 123, Type 0, BuildingBlock: MIDCAF_clean_sbu_0, # of connection points: 6
#     Node 124, Type 0, BuildingBlock: MIDCAF_clean_sbu_0, # of connection points: 6
#     Node 125, Type 0, BuildingBlock: MIDCAF_clean_sbu_0, # of connection points: 6
#     Node 126, Type 0, BuildingBlock: MIDCAF_clean_sbu_0, # of connection points: 6
#     Node 127, Type 0, BuildingBlock: MIDCAF_clean_sbu_0, # of connection points: 6
#     Node 128, Type 0, BuildingBlock: MIDCAF_clean_sbu_0, # of connection points: 6
#     Node 129, Type 0, BuildingBlock: MIDCAF_clean_sbu_0, # of connection points: 6
#     Node 130, Type 0, BuildingBlock: MIDCAF_clean_sbu_0, # of connection points: 6
#     Node 131, Type 0, BuildingBlock: MIDCAF_clean_sbu_0, # of connection points: 6
#     Node 132, Type 0, BuildingBlock: MIDCAF_clean_sbu_0, # of connection points: 6
#     Node 133, Type 0, BuildingBlock: MIDCAF_clean_sbu_0, # of connection points: 6
#     Node 134, Type 0, BuildingBlock: MIDCAF_clean_sbu_0, # of connection points: 6
#     Node 135, Type 0, BuildingBlock: MIDCAF_clean_sbu_0, # of connection points: 6
#     Node 136, Type 0, BuildingBlock: MIDCAF_clean_sbu_0, # of connection points: 6
#     Node 137, Type 0, BuildingBlock: MIDCAF_clean_sbu_0, # of connection points: 6
#     Node 138, Type 0, BuildingBlock: MIDCAF_clean_sbu_0, # of connection points: 6
#     Node 139, Type 0, BuildingBlock: MIDCAF_clean_sbu_0, # of connection points: 6
#     Node 140, Type 0, BuildingBlock: MIDCAF_clean_sbu_0, # of connection points: 6
#     Node 141, Type 0, BuildingBlock: MIDCAF_clean_sbu_0, # of connection points: 6
#     Node 142, Type 0, BuildingBlock: MIDCAF_clean_sbu_0, # of connection points: 6
#     Node 143, Type 0, BuildingBlock: MIDCAF_clean_sbu_0, # of connection points: 6
#     Node 144, Type 0, BuildingBlock: MIDCAF_clean_sbu_0, # of connection points: 6
#     Node 145, Type 0, BuildingBlock: MIDCAF_clean_sbu_0, # of connection points: 6
#     Node 146, Type 0, BuildingBlock: MIDCAF_clean_sbu_0, # of connection points: 6
#     Node 147, Type 0, BuildingBlock: MIDCAF_clean_sbu_0, # of connection points: 6
#     Node 148, Type 0, BuildingBlock: MIDCAF_clean_sbu_0, # of connection points: 6
#     Node 149, Type 0, BuildingBlock: MIDCAF_clean_sbu_0, # of connection points: 6
#     Node 150, Type 0, BuildingBlock: MIDCAF_clean_sbu_0, # of connection points: 6
#     Node 151, Type 0, BuildingBlock: MIDCAF_clean_sbu_0, # of connection points: 6
#     Node 152, Type 0, BuildingBlock: MIDCAF_clean_sbu_0, # of connection points: 6
#     Node 153, Type 0, BuildingBlock: MIDCAF_clean_sbu_0, # of connection points: 6
#     Node 154, Type 0, BuildingBlock: MIDCAF_clean_sbu_0, # of connection points: 6
#     Node 155, Type 0, BuildingBlock: MIDCAF_clean_sbu_0, # of connection points: 6
#     Node 156, Type 0, BuildingBlock: MIDCAF_clean_sbu_0, # of connection points: 6
#     Node 157, Type 0, BuildingBlock: MIDCAF_clean_sbu_0, # of connection points: 6
#     Node 158, Type 0, BuildingBlock: MIDCAF_clean_sbu_0, # of connection points: 6
#     Node 159, Type 0, BuildingBlock: MIDCAF_clean_sbu_0, # of connection points: 6
#     Node 160, Type 0, BuildingBlock: MIDCAF_clean_sbu_0, # of connection points: 6
#     Node 161, Type 0, BuildingBlock: MIDCAF_clean_sbu_0, # of connection points: 6
#     Node 162, Type 0, BuildingBlock: MIDCAF_clean_sbu_0, # of connection points: 6
#     Node 163, Type 0, BuildingBlock: MIDCAF_clean_sbu_0, # of connection points: 6
#     Node 164, Type 0, BuildingBlock: MIDCAF_clean_sbu_0, # of connection points: 6
#     Node 165, Type 0, BuildingBlock: MIDCAF_clean_sbu_0, # of connection points: 6
#     Node 166, Type 0, BuildingBlock: MIDCAF_clean_sbu_0, # of connection points: 6
#     Node 167, Type 0, BuildingBlock: MIDCAF_clean_sbu_0, # of connection points: 6
#     Node 168, Type 0, BuildingBlock: MIDCAF_clean_sbu_0, # of connection points: 6
#     Node 169, Type 0, BuildingBlock: MIDCAF_clean_sbu_0, # of connection points: 6
#     Node 170, Type 0, BuildingBlock: MIDCAF_clean_sbu_0, # of connection points: 6
#     Node 171, Type 0, BuildingBlock: MIDCAF_clean_sbu_0, # of connection points: 6
#     Node 172, Type 0, BuildingBlock: MIDCAF_clean_sbu_0, # of connection points: 6
#     Node 173, Type 0, BuildingBlock: MIDCAF_clean_sbu_0, # of connection points: 6
#     Node 174, Type 0, BuildingBlock: MIDCAF_clean_sbu_0, # of connection points: 6
#     Node 175, Type 0, BuildingBlock: MIDCAF_clean_sbu_0, # of connection points: 6
#     Node 176, Type 0, BuildingBlock: MIDCAF_clean_sbu_0, # of connection points: 6
#     Node 177, Type 0, BuildingBlock: MIDCAF_clean_sbu_0, # of connection points: 6
#     Node 178, Type 0, BuildingBlock: MIDCAF_clean_sbu_0, # of connection points: 6
#     Node 179, Type 0, BuildingBlock: MIDCAF_clean_sbu_0, # of connection points: 6
#     Node 180, Type 0, BuildingBlock: MIDCAF_clean_sbu_0, # of connection points: 6
#     Node 181, Type 0, BuildingBlock: MIDCAF_clean_sbu_0, # of connection points: 6
#     Node 182, Type 0, BuildingBlock: MIDCAF_clean_sbu_0, # of connection points: 6
#     Node 183, Type 0, BuildingBlock: MIDCAF_clean_sbu_0, # of connection points: 6
#     Node 184, Type 0, BuildingBlock: MIDCAF_clean_sbu_0, # of connection points: 6
#     Node 185, Type 0, BuildingBlock: MIDCAF_clean_sbu_0, # of connection points: 6
#     Node 186, Type 0, BuildingBlock: MIDCAF_clean_sbu_0, # of connection points: 6
#     Node 187, Type 0, BuildingBlock: MIDCAF_clean_sbu_0, # of connection points: 6
#     Node 188, Type 0, BuildingBlock: MIDCAF_clean_sbu_0, # of connection points: 6
#     Node 189, Type 0, BuildingBlock: MIDCAF_clean_sbu_0, # of connection points: 6
#     Node 190, Type 0, BuildingBlock: MIDCAF_clean_sbu_0, # of connection points: 6
#     Node 191, Type 0, BuildingBlock: MIDCAF_clean_sbu_0, # of connection points: 6
#     Edge 192, Type (0, 0), None
#     Edge 193, Type (0, 0), None
#     Edge 194, Type (0, 0), None
#     Edge 195, Type (0, 0), None
#     Edge 196, Type (0, 0), None
#     Edge 197, Type (0, 0), None
#     Edge 198, Type (0, 0), None
#     Edge 199, Type (0, 0), None
#     Edge 200, Type (0, 0), None
#     Edge 201, Type (0, 0), None
#     Edge 202, Type (0, 0), None
#     Edge 203, Type (0, 0), None
#     Edge 204, Type (0, 0), None
#     Edge 205, Type (0, 0), None
#     Edge 206, Type (0, 0), None
#     Edge 207, Type (0, 0), None
#     Edge 208, Type (0, 0), None
#     Edge 209, Type (0, 0), None
#     Edge 210, Type (0, 0), None
#     Edge 211, Type (0, 0), None
#     Edge 212, Type (0, 0), None
#     Edge 213, Type (0, 0), None
#     Edge 214, Type (0, 0), None
#     Edge 215, Type (0, 0), None
#     Edge 216, Type (0, 0), None
#     Edge 217, Type (0, 0), None
#     Edge 218, Type (0, 0), None
#     Edge 219, Type (0, 0), None
#     Edge 220, Type (0, 0), None
#     Edge 221, Type (0, 0), None
#     Edge 222, Type (0, 0), None
#     Edge 223, Type (0, 0), None
#     Edge 224, Type (0, 0), None
#     Edge 225, Type (0, 0), None
#     Edge 226, Type (0, 0), None
#     Edge 227, Type (0, 0), None
#     Edge 228, Type (0, 0), None
#     Edge 229, Type (0, 0), None
#     Edge 230, Type (0, 0), None
#     Edge 231, Type (0, 0), None
#     Edge 232, Type (0, 0), None
#     Edge 233, Type (0, 0), None
#     Edge 234, Type (0, 0), None
#     Edge 235, Type (0, 0), None
#     Edge 236, Type (0, 0), None
#     Edge 237, Type (0, 0), None
#     Edge 238, Type (0, 0), None
#     Edge 239, Type (0, 0), None
#     Edge 240, Type (0, 0), None
#     Edge 241, Type (0, 0), None
#     Edge 242, Type (0, 0), None
#     Edge 243, Type (0, 0), None
#     Edge 244, Type (0, 0), None
#     Edge 245, Type (0, 0), None
#     Edge 246, Type (0, 0), None
#     Edge 247, Type (0, 0), None
#     Edge 248, Type (0, 0), None
#     Edge 249, Type (0, 0), None
#     Edge 250, Type (0, 0), None
#     Edge 251, Type (0, 0), None
#     Edge 252, Type (0, 0), None
#     Edge 253, Type (0, 0), None
#     Edge 254, Type (0, 0), None
#     Edge 255, Type (0, 0), None
#     Edge 256, Type (0, 0), None
#     Edge 257, Type (0, 0), None
#     Edge 258, Type (0, 0), None
#     Edge 259, Type (0, 0), None
#     Edge 260, Type (0, 0), None
#     Edge 261, Type (0, 0), None
#     Edge 262, Type (0, 0), None
#     Edge 263, Type (0, 0), None
#     Edge 264, Type (0, 0), None
#     Edge 265, Type (0, 0), None
#     Edge 266, Type (0, 0), None
#     Edge 267, Type (0, 0), None
#     Edge 268, Type (0, 0), None
#     Edge 269, Type (0, 0), None
#     Edge 270, Type (0, 0), None
#     Edge 271, Type (0, 0), None
#     Edge 272, Type (0, 0), None
#     Edge 273, Type (0, 0), None
#     Edge 274, Type (0, 0), None
#     Edge 275, Type (0, 0), None
#     Edge 276, Type (0, 0), None
#     Edge 277, Type (0, 0), None
#     Edge 278, Type (0, 0), None
#     Edge 279, Type (0, 0), None
#     Edge 280, Type (0, 0), None
#     Edge 281, Type (0, 0), None
#     Edge 282, Type (0, 0), None
#     Edge 283, Type (0, 0), None
#     Edge 284, Type (0, 0), None
#     Edge 285, Type (0, 0), None
#     Edge 286, Type (0, 0), None
#     Edge 287, Type (0, 0), None
#     Edge 288, Type (0, 0), None
#     Edge 289, Type (0, 0), None
#     Edge 290, Type (0, 0), None
#     Edge 291, Type (0, 0), None
#     Edge 292, Type (0, 0), None
#     Edge 293, Type (0, 0), None
#     Edge 294, Type (0, 0), None
#     Edge 295, Type (0, 0), None
#     Edge 296, Type (0, 0), None
#     Edge 297, Type (0, 0), None
#     Edge 298, Type (0, 0), None
#     Edge 299, Type (0, 0), None
#     Edge 300, Type (0, 0), None
#     Edge 301, Type (0, 0), None
#     Edge 302, Type (0, 0), None
#     Edge 303, Type (0, 0), None
#     Edge 304, Type (0, 0), None
#     Edge 305, Type (0, 0), None
#     Edge 306, Type (0, 0), None
#     Edge 307, Type (0, 0), None
#     Edge 308, Type (0, 0), None
#     Edge 309, Type (0, 0), None
#     Edge 310, Type (0, 0), None
#     Edge 311, Type (0, 0), None
#     Edge 312, Type (0, 0), None
#     Edge 313, Type (0, 0), None
#     Edge 314, Type (0, 0), None
#     Edge 315, Type (0, 0), None
#     Edge 316, Type (0, 0), None
#     Edge 317, Type (0, 0), None
#     Edge 318, Type (0, 0), None
#     Edge 319, Type (0, 0), None
#     Edge 320, Type (0, 0), None
#     Edge 321, Type (0, 0), None
#     Edge 322, Type (0, 0), None
#     Edge 323, Type (0, 0), None
#     Edge 324, Type (0, 0), None
#     Edge 325, Type (0, 0), None
#     Edge 326, Type (0, 0), None
#     Edge 327, Type (0, 0), None
#     Edge 328, Type (0, 0), None
#     Edge 329, Type (0, 0), None
#     Edge 330, Type (0, 0), None
#     Edge 331, Type (0, 0), None
#     Edge 332, Type (0, 0), None
#     Edge 333, Type (0, 0), None
#     Edge 334, Type (0, 0), None
#     Edge 335, Type (0, 0), None
#     Edge 336, Type (0, 0), None
#     Edge 337, Type (0, 0), None
#     Edge 338, Type (0, 0), None
#     Edge 339, Type (0, 0), None
#     Edge 340, Type (0, 0), None
#     Edge 341, Type (0, 0), None
#     Edge 342, Type (0, 0), None
#     Edge 343, Type (0, 0), None
#     Edge 344, Type (0, 0), None
#     Edge 345, Type (0, 0), None
#     Edge 346, Type (0, 0), None
#     Edge 347, Type (0, 0), None
#     Edge 348, Type (0, 0), None
#     Edge 349, Type (0, 0), None
#     Edge 350, Type (0, 0), None
#     Edge 351, Type (0, 0), None
#     Edge 352, Type (0, 0), None
#     Edge 353, Type (0, 0), None
#     Edge 354, Type (0, 0), None
#     Edge 355, Type (0, 0), None
#     Edge 356, Type (0, 0), None
#     Edge 357, Type (0, 0), None
#     Edge 358, Type (0, 0), None
#     Edge 359, Type (0, 0), None
#     Edge 360, Type (0, 0), None
#     Edge 361, Type (0, 0), None
#     Edge 362, Type (0, 0), None
#     Edge 363, Type (0, 0), None
#     Edge 364, Type (0, 0), None
#     Edge 365, Type (0, 0), None
#     Edge 366, Type (0, 0), None
#     Edge 367, Type (0, 0), None
#     Edge 368, Type (0, 0), None
#     Edge 369, Type (0, 0), None
#     Edge 370, Type (0, 0), None
#     Edge 371, Type (0, 0), None
#     Edge 372, Type (0, 0), None
#     Edge 373, Type (0, 0), None
#     Edge 374, Type (0, 0), None
#     Edge 375, Type (0, 0), None
#     Edge 376, Type (0, 0), None
#     Edge 377, Type (0, 0), None
#     Edge 378, Type (0, 0), None
#     Edge 379, Type (0, 0), None
#     Edge 380, Type (0, 0), None
#     Edge 381, Type (0, 0), None
#     Edge 382, Type (0, 0), None
#     Edge 383, Type (0, 0), None
#     Edge 384, Type (0, 0), None
#     Edge 385, Type (0, 0), None
#     Edge 386, Type (0, 0), None
#     Edge 387, Type (0, 0), None
#     Edge 388, Type (0, 0), None
#     Edge 389, Type (0, 0), None
#     Edge 390, Type (0, 0), None
#     Edge 391, Type (0, 0), None
#     Edge 392, Type (0, 0), None
#     Edge 393, Type (0, 0), None
#     Edge 394, Type (0, 0), None
#     Edge 395, Type (0, 0), None
#     Edge 396, Type (0, 0), None
#     Edge 397, Type (0, 0), None
#     Edge 398, Type (0, 0), None
#     Edge 399, Type (0, 0), None
#     Edge 400, Type (0, 0), None
#     Edge 401, Type (0, 0), None
#     Edge 402, Type (0, 0), None
#     Edge 403, Type (0, 0), None
#     Edge 404, Type (0, 0), None
#     Edge 405, Type (0, 0), None
#     Edge 406, Type (0, 0), None
#     Edge 407, Type (0, 0), None
#     Edge 408, Type (0, 0), None
#     Edge 409, Type (0, 0), None
#     Edge 410, Type (0, 0), None
#     Edge 411, Type (0, 0), None
#     Edge 412, Type (0, 0), None
#     Edge 413, Type (0, 0), None
#     Edge 414, Type (0, 0), None
#     Edge 415, Type (0, 0), None
#     Edge 416, Type (0, 0), None
#     Edge 417, Type (0, 0), None
#     Edge 418, Type (0, 0), None
#     Edge 419, Type (0, 0), None
#     Edge 420, Type (0, 0), None
#     Edge 421, Type (0, 0), None
#     Edge 422, Type (0, 0), None
#     Edge 423, Type (0, 0), None
#     Edge 424, Type (0, 0), None
#     Edge 425, Type (0, 0), None
#     Edge 426, Type (0, 0), None
#     Edge 427, Type (0, 0), None
#     Edge 428, Type (0, 0), None
#     Edge 429, Type (0, 0), None
#     Edge 430, Type (0, 0), None
#     Edge 431, Type (0, 0), None
#     Edge 432, Type (0, 0), None
#     Edge 433, Type (0, 0), None
#     Edge 434, Type (0, 0), None
#     Edge 435, Type (0, 0), None
#     Edge 436, Type (0, 0), None
#     Edge 437, Type (0, 0), None
#     Edge 438, Type (0, 0), None
#     Edge 439, Type (0, 0), None
#     Edge 440, Type (0, 0), None
#     Edge 441, Type (0, 0), None
#     Edge 442, Type (0, 0), None
#     Edge 443, Type (0, 0), None
#     Edge 444, Type (0, 0), None
#     Edge 445, Type (0, 0), None
#     Edge 446, Type (0, 0), None
#     Edge 447, Type (0, 0), None
#     Edge 448, Type (0, 0), None
#     Edge 449, Type (0, 0), None
#     Edge 450, Type (0, 0), None
#     Edge 451, Type (0, 0), None
#     Edge 452, Type (0, 0), None
#     Edge 453, Type (0, 0), None
#     Edge 454, Type (0, 0), None
#     Edge 455, Type (0, 0), None
#     Edge 456, Type (0, 0), None
#     Edge 457, Type (0, 0), None
#     Edge 458, Type (0, 0), None
#     Edge 459, Type (0, 0), None
#     Edge 460, Type (0, 0), None
#     Edge 461, Type (0, 0), None
#     Edge 462, Type (0, 0), None
#     Edge 463, Type (0, 0), None
#     Edge 464, Type (0, 0), None
#     Edge 465, Type (0, 0), None
#     Edge 466, Type (0, 0), None
#     Edge 467, Type (0, 0), None
#     Edge 468, Type (0, 0), None
#     Edge 469, Type (0, 0), None
#     Edge 470, Type (0, 0), None
#     Edge 471, Type (0, 0), None
#     Edge 472, Type (0, 0), None
#     Edge 473, Type (0, 0), None
#     Edge 474, Type (0, 0), None
#     Edge 475, Type (0, 0), None
#     Edge 476, Type (0, 0), None
#     Edge 477, Type (0, 0), None
#     Edge 478, Type (0, 0), None
#     Edge 479, Type (0, 0), None
#     Edge 480, Type (0, 0), None
#     Edge 481, Type (0, 0), None
#     Edge 482, Type (0, 0), None
#     Edge 483, Type (0, 0), None
#     Edge 484, Type (0, 0), None
#     Edge 485, Type (0, 0), None
#     Edge 486, Type (0, 0), None
#     Edge 487, Type (0, 0), None
#     Edge 488, Type (0, 0), None
#     Edge 489, Type (0, 0), None
#     Edge 490, Type (0, 0), None
#     Edge 491, Type (0, 0), None
#     Edge 492, Type (0, 0), None
#     Edge 493, Type (0, 0), None
#     Edge 494, Type (0, 0), None
#     Edge 495, Type (0, 0), None
#     Edge 496, Type (0, 0), None
#     Edge 497, Type (0, 0), None
#     Edge 498, Type (0, 0), None
#     Edge 499, Type (0, 0), None
#     Edge 500, Type (0, 0), None
#     Edge 501, Type (0, 0), None
#     Edge 502, Type (0, 0), None
#     Edge 503, Type (0, 0), None
#     Edge 504, Type (0, 0), None
#     Edge 505, Type (0, 0), None
#     Edge 506, Type (0, 0), None
#     Edge 507, Type (0, 0), None
#     Edge 508, Type (0, 0), None
#     Edge 509, Type (0, 0), None
#     Edge 510, Type (0, 0), None
#     Edge 511, Type (0, 0), None
#     Edge 512, Type (0, 0), None
#     Edge 513, Type (0, 0), None
#     Edge 514, Type (0, 0), None
#     Edge 515, Type (0, 0), None
#     Edge 516, Type (0, 0), None
#     Edge 517, Type (0, 0), None
#     Edge 518, Type (0, 0), None
#     Edge 519, Type (0, 0), None
#     Edge 520, Type (0, 0), None
#     Edge 521, Type (0, 0), None
#     Edge 522, Type (0, 0), None
#     Edge 523, Type (0, 0), None
#     Edge 524, Type (0, 0), None
#     Edge 525, Type (0, 0), None
#     Edge 526, Type (0, 0), None
#     Edge 527, Type (0, 0), None
#     Edge 528, Type (0, 0), None
#     Edge 529, Type (0, 0), None
#     Edge 530, Type (0, 0), None
#     Edge 531, Type (0, 0), None
#     Edge 532, Type (0, 0), None
#     Edge 533, Type (0, 0), None
#     Edge 534, Type (0, 0), None
#     Edge 535, Type (0, 0), None
#     Edge 536, Type (0, 0), None
#     Edge 537, Type (0, 0), None
#     Edge 538, Type (0, 0), None
#     Edge 539, Type (0, 0), None
#     Edge 540, Type (0, 0), None
#     Edge 541, Type (0, 0), None
#     Edge 542, Type (0, 0), None
#     Edge 543, Type (0, 0), None
#     Edge 544, Type (0, 0), None
#     Edge 545, Type (0, 0), None
#     Edge 546, Type (0, 0), None
#     Edge 547, Type (0, 0), None
#     Edge 548, Type (0, 0), None
#     Edge 549, Type (0, 0), None
#     Edge 550, Type (0, 0), None
#     Edge 551, Type (0, 0), None
#     Edge 552, Type (0, 0), None
#     Edge 553, Type (0, 0), None
#     Edge 554, Type (0, 0), None
#     Edge 555, Type (0, 0), None
#     Edge 556, Type (0, 0), None
#     Edge 557, Type (0, 0), None
#     Edge 558, Type (0, 0), None
#     Edge 559, Type (0, 0), None
#     Edge 560, Type (0, 0), None
#     Edge 561, Type (0, 0), None
#     Edge 562, Type (0, 0), None
#     Edge 563, Type (0, 0), None
#     Edge 564, Type (0, 0), None
#     Edge 565, Type (0, 0), None
#     Edge 566, Type (0, 0), None
#     Edge 567, Type (0, 0), None
#     Edge 568, Type (0, 0), None
#     Edge 569, Type (0, 0), None
#     Edge 570, Type (0, 0), None
#     Edge 571, Type (0, 0), None
#     Edge 572, Type (0, 0), None
#     Edge 573, Type (0, 0), None
#     Edge 574, Type (0, 0), None
#     Edge 575, Type (0, 0), None
#     Edge 576, Type (0, 0), None
#     Edge 577, Type (0, 0), None
#     Edge 578, Type (0, 0), None
#     Edge 579, Type (0, 0), None
#     Edge 580, Type (0, 0), None
#     Edge 581, Type (0, 0), None
#     Edge 582, Type (0, 0), None
#     Edge 583, Type (0, 0), None
#     Edge 584, Type (0, 0), None
#     Edge 585, Type (0, 0), None
#     Edge 586, Type (0, 0), None
#     Edge 587, Type (0, 0), None
#     Edge 588, Type (0, 0), None
#     Edge 589, Type (0, 0), None
#     Edge 590, Type (0, 0), None
#     Edge 591, Type (0, 0), None
#     Edge 592, Type (0, 0), None
#     Edge 593, Type (0, 0), None
#     Edge 594, Type (0, 0), None
#     Edge 595, Type (0, 0), None
#     Edge 596, Type (0, 0), None
#     Edge 597, Type (0, 0), None
#     Edge 598, Type (0, 0), None
#     Edge 599, Type (0, 0), None
#     Edge 600, Type (0, 0), None
#     Edge 601, Type (0, 0), None
#     Edge 602, Type (0, 0), None
#     Edge 603, Type (0, 0), None
#     Edge 604, Type (0, 0), None
#     Edge 605, Type (0, 0), None
#     Edge 606, Type (0, 0), None
#     Edge 607, Type (0, 0), None
#     Edge 608, Type (0, 0), None
#     Edge 609, Type (0, 0), None
#     Edge 610, Type (0, 0), None
#     Edge 611, Type (0, 0), None
#     Edge 612, Type (0, 0), None
#     Edge 613, Type (0, 0), None
#     Edge 614, Type (0, 0), None
#     Edge 615, Type (0, 0), None
#     Edge 616, Type (0, 0), None
#     Edge 617, Type (0, 0), None
#     Edge 618, Type (0, 0), None
#     Edge 619, Type (0, 0), None
#     Edge 620, Type (0, 0), None
#     Edge 621, Type (0, 0), None
#     Edge 622, Type (0, 0), None
#     Edge 623, Type (0, 0), None
#     Edge 624, Type (0, 0), None
#     Edge 625, Type (0, 0), None
#     Edge 626, Type (0, 0), None
#     Edge 627, Type (0, 0), None
#     Edge 628, Type (0, 0), None
#     Edge 629, Type (0, 0), None
#     Edge 630, Type (0, 0), None
#     Edge 631, Type (0, 0), None
#     Edge 632, Type (0, 0), None
#     Edge 633, Type (0, 0), None
#     Edge 634, Type (0, 0), None
#     Edge 635, Type (0, 0), None
#     Edge 636, Type (0, 0), None
#     Edge 637, Type (0, 0), None
#     Edge 638, Type (0, 0), None
#     Edge 639, Type (0, 0), None
#     Edge 640, Type (0, 0), None
#     Edge 641, Type (0, 0), None
#     Edge 642, Type (0, 0), None
#     Edge 643, Type (0, 0), None
#     Edge 644, Type (0, 0), None
#     Edge 645, Type (0, 0), None
#     Edge 646, Type (0, 0), None
#     Edge 647, Type (0, 0), None
#     Edge 648, Type (0, 0), None
#     Edge 649, Type (0, 0), None
#     Edge 650, Type (0, 0), None
#     Edge 651, Type (0, 0), None
#     Edge 652, Type (0, 0), None
#     Edge 653, Type (0, 0), None
#     Edge 654, Type (0, 0), None
#     Edge 655, Type (0, 0), None
#     Edge 656, Type (0, 0), None
#     Edge 657, Type (0, 0), None
#     Edge 658, Type (0, 0), None
#     Edge 659, Type (0, 0), None
#     Edge 660, Type (0, 0), None
#     Edge 661, Type (0, 0), None
#     Edge 662, Type (0, 0), None
#     Edge 663, Type (0, 0), None
#     Edge 664, Type (0, 0), None
#     Edge 665, Type (0, 0), None
#     Edge 666, Type (0, 0), None
#     Edge 667, Type (0, 0), None
#     Edge 668, Type (0, 0), None
#     Edge 669, Type (0, 0), None
#     Edge 670, Type (0, 0), None
#     Edge 671, Type (0, 0), None
#     Edge 672, Type (0, 0), None
#     Edge 673, Type (0, 0), None
#     Edge 674, Type (0, 0), None
#     Edge 675, Type (0, 0), None
#     Edge 676, Type (0, 0), None
#     Edge 677, Type (0, 0), None
#     Edge 678, Type (0, 0), None
#     Edge 679, Type (0, 0), None
#     Edge 680, Type (0, 0), None
#     Edge 681, Type (0, 0), None
#     Edge 682, Type (0, 0), None
#     Edge 683, Type (0, 0), None
#     Edge 684, Type (0, 0), None
#     Edge 685, Type (0, 0), None
#     Edge 686, Type (0, 0), None
#     Edge 687, Type (0, 0), None
#     Edge 688, Type (0, 0), None
#     Edge 689, Type (0, 0), None
#     Edge 690, Type (0, 0), None
#     Edge 691, Type (0, 0), None
#     Edge 692, Type (0, 0), None
#     Edge 693, Type (0, 0), None
#     Edge 694, Type (0, 0), None
#     Edge 695, Type (0, 0), None
#     Edge 696, Type (0, 0), None
#     Edge 697, Type (0, 0), None
#     Edge 698, Type (0, 0), None
#     Edge 699, Type (0, 0), None
#     Edge 700, Type (0, 0), None
#     Edge 701, Type (0, 0), None
#     Edge 702, Type (0, 0), None
#     Edge 703, Type (0, 0), None
#     Edge 704, Type (0, 0), None
#     Edge 705, Type (0, 0), None
#     Edge 706, Type (0, 0), None
#     Edge 707, Type (0, 0), None
#     Edge 708, Type (0, 0), None
#     Edge 709, Type (0, 0), None
#     Edge 710, Type (0, 0), None
#     Edge 711, Type (0, 0), None
#     Edge 712, Type (0, 0), None
#     Edge 713, Type (0, 0), None
#     Edge 714, Type (0, 0), None
#     Edge 715, Type (0, 0), None
#     Edge 716, Type (0, 0), None
#     Edge 717, Type (0, 0), None
#     Edge 718, Type (0, 0), None
#     Edge 719, Type (0, 0), None
#     Edge 720, Type (0, 0), None
#     Edge 721, Type (0, 0), None
#     Edge 722, Type (0, 0), None
#     Edge 723, Type (0, 0), None
#     Edge 724, Type (0, 0), None
#     Edge 725, Type (0, 0), None
#     Edge 726, Type (0, 0), None
#     Edge 727, Type (0, 0), None
#     Edge 728, Type (0, 0), None
#     Edge 729, Type (0, 0), None
#     Edge 730, Type (0, 0), None
#     Edge 731, Type (0, 0), None
#     Edge 732, Type (0, 0), None
#     Edge 733, Type (0, 0), None
#     Edge 734, Type (0, 0), None
#     Edge 735, Type (0, 0), None
#     Edge 736, Type (0, 0), None
#     Edge 737, Type (0, 0), None
#     Edge 738, Type (0, 0), None
#     Edge 739, Type (0, 0), None
#     Edge 740, Type (0, 0), None
#     Edge 741, Type (0, 0), None
#     Edge 742, Type (0, 0), None
#     Edge 743, Type (0, 0), None
#     Edge 744, Type (0, 0), None
#     Edge 745, Type (0, 0), None
#     Edge 746, Type (0, 0), None
#     Edge 747, Type (0, 0), None
#     Edge 748, Type (0, 0), None
#     Edge 749, Type (0, 0), None
#     Edge 750, Type (0, 0), None
#     Edge 751, Type (0, 0), None
#     Edge 752, Type (0, 0), None
#     Edge 753, Type (0, 0), None
#     Edge 754, Type (0, 0), None
#     Edge 755, Type (0, 0), None
#     Edge 756, Type (0, 0), None
#     Edge 757, Type (0, 0), None
#     Edge 758, Type (0, 0), None
#     Edge 759, Type (0, 0), None
#     Edge 760, Type (0, 0), None
#     Edge 761, Type (0, 0), None
#     Edge 762, Type (0, 0), None
#     Edge 763, Type (0, 0), None
#     Edge 764, Type (0, 0), None
#     Edge 765, Type (0, 0), None
#     Edge 766, Type (0, 0), None
#     Edge 767, Type (0, 0), None
# Relax obj value: 0.613
# Max RMSD: 0.251
# Mean RMSD: 0.251
data_MOF--net-sxm--node1-MIDCAF_clean_sbu_0--edge1-none
_symmetry_space_group_name_H-M    P1
_symmetry_Int_Tables_number       1
_symmetry_cell_setting            triclinic
loop_
_symmetry_equiv_pos_as_xyz
'x, y, z'
_cell_length_a     40.649077
_cell_length_b     40.649155
_cell_length_c     40.649251
_cell_angle_alpha  90.000847
_cell_angle_beta   89.999549
_cell_angle_gamma 89.999863
loop_
_atom_site_label
_atom_site_type_symbol
_atom_site_fract_x
_atom_site_fract_y
_atom_site_fract_z
_atom_type_partial_charge
Zn0 Zn -0.0058 0.36734 0.15379 0.0
Zn1 Zn 0.0683 0.2375 0.10872 0.0
Zn2 Zn 0.03196 0.27853 0.14009 0.0
C3 C 0.0789 0.22891 0.17627 0.0
C4 C 0.01241 0.20675 0.13495 0.0
O5 O 0.0075 0.29541 0.09365 0.0
O6 O 0.0188 0.34527 0.1111 0.0
C7 C 0.03593 0.33562 0.19204 0.0
O8 O 0.04973 0.24122 0.17501 0.0
O9 O 0.09575 0.22698 0.15013 0.0
O10 O 0.02604 0.20803 0.10678 0.0
O11 O 0.01677 0.23054 0.15502 0.0
O12 O 0.02409 0.36413 0.1963 0.0
O13 O 0.02454 0.31937 0.16806 0.0
O14 O -0.00663 0.30911 0.15449 0.0
O15 O 0.95054 0.34036 0.15892 0.0
C16 C 0.96226 0.31198 0.15348 0.0
O17 O 0.07987 0.29434 0.13911 0.0
O18 O 0.08142 0.28184 0.08749 0.0
C19 C 0.00364 0.32692 0.09045 0.0
C20 C 0.09493 0.2957 0.11206 0.0
Zn21 Zn 0.23828 0.31831 0.35873 0.0
Zn22 Zn 0.10845 0.2442 0.40378 0.0
Zn23 Zn 0.19726 0.28196 0.39009 0.0
C24 C 0.16381 0.21226 0.40347 0.0
C25 C 0.14017 0.28593 0.44204 0.0
O26 O 0.18145 0.32987 0.38911 0.0
O27 O 0.19395 0.33142 0.33748 0.0
C28 C 0.26904 0.26242 0.38495 0.0
O29 O 0.16667 0.24337 0.40448 0.0
O30 O 0.13543 0.20054 0.40892 0.0
O31 O 0.11165 0.27409 0.4463 0.0
O32 O 0.15641 0.27455 0.41806 0.0
O33 O 0.26776 0.27605 0.35678 0.0
O34 O 0.24525 0.26677 0.40502 0.0
O35 O 0.23457 0.29974 0.42501 0.0
O36 O 0.24881 0.34576 0.40013 0.0
C37 C 0.24687 0.3289 0.42627 0.0
O38 O 0.18038 0.25751 0.34364 0.0
O39 O 0.13052 0.2688 0.3611 0.0
C40 C 0.18009 0.34493 0.36206 0.0
C41 C 0.14887 0.25365 0.34044 0.0
Zn42 Zn 0.15748 0.48829 0.60873 0.0
Zn43 Zn 0.23159 0.35845 0.65378 0.0
Zn44 Zn 0.19383 0.44726 0.64009 0.0
C45 C 0.26352 0.41382 0.65347 0.0
C46 C 0.18986 0.39017 0.69204 0.0
O47 O 0.14591 0.43145 0.63911 0.0
O48 O 0.14437 0.44395 0.58749 0.0
C49 C 0.21337 0.51904 0.63495 0.0
O50 O 0.23242 0.41668 0.65449 0.0
O51 O 0.27525 0.38544 0.65892 0.0
O52 O 0.2017 0.36166 0.6963 0.0
O53 O 0.20124 0.40642 0.66806 0.0
O54 O 0.19974 0.51776 0.60678 0.0
O55 O 0.20902 0.49525 0.65502 0.0
O56 O 0.17605 0.48457 0.67501 0.0
O57 O 0.13003 0.49881 0.65014 0.0
C58 C 0.14689 0.49687 0.67627 0.0
O59 O 0.21828 0.43038 0.59364 0.0
O60 O 0.20699 0.38052 0.6111 0.0
C61 C 0.13086 0.43009 0.61206 0.0
C62 C 0.22214 0.39887 0.59044 0.0
Zn63 Zn 0.11734 0.48159 0.90379 0.0
Zn64 Zn 0.98751 0.40748 0.85873 0.0
Zn65 Zn 0.02853 0.44382 0.89009 0.0
C66 C 0.97891 0.39688 0.92627 0.0
C67 C 0.95676 0.46337 0.88495 0.0
O68 O 0.04541 0.46828 0.84365 0.0
O69 O 0.09527 0.45699 0.86111 0.0
C70 C 0.08562 0.43985 0.94204 0.0
O71 O -0.00878 0.42605 0.92501 0.0
O72 O 0.97698 0.38003 0.90013 0.0
O73 O 0.95803 0.44974 0.85678 0.0
O74 O 0.98054 0.45902 0.90502 0.0
O75 O 0.11413 0.4517 0.94631 0.0
O76 O 0.06937 0.45124 0.91807 0.0
O77 O 0.05911 0.48242 0.90449 0.0
O78 O 0.09035 0.52524 0.90893 0.0
C79 C 0.06198 0.51353 0.90348 0.0
O80 O 0.04434 0.39591 0.88911 0.0
O81 O 0.03184 0.39437 0.83749 0.0
C82 C 0.07692 0.47214 0.84045 0.0
C83 C 0.0457 0.38085 0.86206 0.0
Zn84 Zn -0.00579 0.85846 0.072 0.0
Zn85 Zn 0.06832 -0.01171 0.11705 0.0
Zn86 Zn 0.03197 0.94727 0.08569 0.0
C87 C 0.07891 -0.00313 0.04951 0.0
C88 C 0.01243 0.01904 0.09083 0.0
O89 O 0.00752 0.93038 0.13214 0.0
O90 O 0.01881 0.88052 0.11469 0.0
C91 C 0.03594 0.89017 0.03375 0.0
O92 O 0.04974 0.98458 0.05077 0.0
O93 O 0.09577 -0.00119 0.07564 0.0
O94 O 0.02606 0.01777 0.119 0.0
O95 O 0.01678 -0.00475 0.07076 0.0
O96 O 0.02409 0.86166 0.02948 0.0
O97 O 0.02455 0.90642 0.05772 0.0
O98 O -0.00662 0.91668 0.0713 0.0
O99 O 0.95055 0.88544 0.06687 0.0
C100 C 0.96227 0.91382 0.07232 0.0
O101 O 0.07988 0.93145 0.08667 0.0
O102 O 0.08143 0.94396 0.1383 0.0
C103 C 0.00366 0.89888 0.13534 0.0
C104 C 0.09494 0.93009 0.11372 0.0
Zn105 Zn 0.61733 0.2442 0.322 0.0
Zn106 Zn 0.4875 0.31831 0.36706 0.0
Zn107 Zn 0.52851 0.28196 0.33569 0.0
C108 C 0.47891 0.3289 0.29951 0.0
C109 C 0.45674 0.26242 0.34084 0.0
O110 O 0.5454 0.25751 0.38214 0.0
O111 O 0.59526 0.2688 0.36469 0.0
C112 C 0.58561 0.28593 0.28375 0.0
O113 O 0.49121 0.29973 0.30078 0.0
O114 O 0.47697 0.34575 0.32565 0.0
O115 O 0.45802 0.27605 0.369 0.0
O116 O 0.48053 0.26677 0.32076 0.0
O117 O 0.61412 0.27408 0.27948 0.0
O118 O 0.56936 0.27454 0.30772 0.0
O119 O 0.5591 0.24337 0.3213 0.0
O120 O 0.59034 0.20054 0.31687 0.0
C121 C 0.56196 0.21226 0.32232 0.0
O122 O 0.54433 0.32987 0.33668 0.0
O123 O 0.53183 0.33142 0.3883 0.0
C124 C 0.57691 0.25365 0.38534 0.0
C125 C 0.54569 0.34493 0.36373 0.0
Zn126 Zn 0.15748 0.7375 0.61705 0.0
Zn127 Zn 0.23159 0.86733 0.572 0.0
Zn128 Zn 0.19383 0.77852 0.58569 0.0
C129 C 0.26353 0.81197 0.57231 0.0
C130 C 0.18986 0.83561 0.53374 0.0
O131 O 0.14592 0.79434 0.58668 0.0
O132 O 0.14437 0.78183 0.6383 0.0
C133 C 0.21336 0.70674 0.59083 0.0
O134 O 0.23242 0.8091 0.5713 0.0
O135 O 0.27525 0.84035 0.56686 0.0
O136 O 0.20171 0.86412 0.52948 0.0
O137 O 0.20125 0.81936 0.55772 0.0
O138 O 0.19973 0.70802 0.619 0.0
O139 O 0.20901 0.73053 0.57076 0.0
O140 O 0.17605 0.74121 0.55077 0.0
O141 O 0.13003 0.72698 0.57564 0.0
C142 C 0.14689 0.72892 0.5495 0.0
O143 O 0.21829 0.79541 0.63214 0.0
O144 O 0.20699 0.84526 0.61468 0.0
C145 C 0.13086 0.7957 0.61373 0.0
C146 C 0.22215 0.82691 0.63534 0.0
Zn147 Zn 0.60845 0.48159 0.82201 0.0
Zn148 Zn 0.73829 0.40748 0.86706 0.0
Zn149 Zn 0.69727 0.44383 0.83569 0.0
C150 C 0.74687 0.39689 0.79951 0.0
C151 C 0.76904 0.46337 0.84083 0.0
O152 O 0.68038 0.46828 0.88214 0.0
O153 O 0.63052 0.45699 0.86469 0.0
C154 C 0.64017 0.43986 0.78375 0.0
O155 O 0.73457 0.42605 0.80078 0.0
O156 O 0.74881 0.38003 0.82565 0.0
O157 O 0.76777 0.44974 0.869 0.0
O158 O 0.74525 0.45902 0.82076 0.0
O159 O 0.61166 0.4517 0.77949 0.0
O160 O 0.65642 0.45124 0.80773 0.0
O161 O 0.66668 0.48242 0.8213 0.0
O162 O 0.63544 0.52525 0.81687 0.0
C163 C 0.66381 0.51353 0.82232 0.0
O164 O 0.68145 0.39592 0.83668 0.0
O165 O 0.69395 0.39437 0.8883 0.0
C166 C 0.64888 0.47214 0.88535 0.0
C167 C 0.68009 0.38086 0.86373 0.0
Zn168 Zn 0.15378 -0.0058 0.36734 0.0
Zn169 Zn 0.10873 0.0683 0.23749 0.0
Zn170 Zn 0.14009 0.03196 0.27852 0.0
C171 C 0.17627 0.0789 0.22891 0.0
C172 C 0.13495 0.01241 0.20674 0.0
O173 O 0.09364 0.0075 0.29541 0.0
O174 O 0.1111 0.0188 0.34526 0.0
C175 C 0.19204 0.03593 0.33562 0.0
O176 O 0.17501 0.04973 0.24121 0.0
O177 O 0.15013 0.09575 0.22697 0.0
O178 O 0.10678 0.02604 0.20802 0.0
O179 O 0.15502 0.01676 0.23053 0.0
O180 O 0.1963 0.02409 0.36413 0.0
O181 O 0.16806 0.02454 0.31937 0.0
O182 O 0.15449 -0.00663 0.30911 0.0
O183 O 0.15892 0.95054 0.34035 0.0
C184 C 0.15347 0.96226 0.31197 0.0
O185 O 0.13911 0.07987 0.29433 0.0
O186 O 0.08749 0.08141 0.28183 0.0
C187 C 0.09044 0.00365 0.32691 0.0
C188 C 0.11206 0.09493 0.29569 0.0
Zn189 Zn 0.48158 0.40379 0.61734 0.0
Zn190 Zn 0.40749 0.35872 0.4875 0.0
Zn191 Zn 0.44383 0.39009 0.52852 0.0
C192 C 0.39689 0.42627 0.47891 0.0
C193 C 0.46338 0.38495 0.45675 0.0
O194 O 0.46829 0.34364 0.54541 0.0
O195 O 0.45699 0.3611 0.59526 0.0
C196 C 0.43985 0.44204 0.58561 0.0
O197 O 0.42606 0.425 0.49121 0.0
O198 O 0.38004 0.40013 0.47698 0.0
O199 O 0.44975 0.35678 0.45802 0.0
O200 O 0.45902 0.40502 0.48054 0.0
O201 O 0.45169 0.4463 0.61412 0.0
O202 O 0.45124 0.41806 0.56937 0.0
O203 O 0.48242 0.40449 0.55911 0.0
O204 O 0.52524 0.40892 0.59036 0.0
C205 C 0.51353 0.40348 0.56198 0.0
O206 O 0.39592 0.38911 0.54433 0.0
O207 O 0.39437 0.33748 0.53183 0.0
C208 C 0.47215 0.34044 0.57691 0.0
C209 C 0.38086 0.36206 0.54569 0.0
Zn210 Zn 0.07201 0.73159 0.86733 0.0
Zn211 Zn 0.11706 0.65748 0.73749 0.0
Zn212 Zn 0.0857 0.69383 0.77852 0.0
C213 C 0.04952 0.64689 0.72891 0.0
C214 C 0.09084 0.71337 0.70674 0.0
O215 O 0.13215 0.71828 0.7954 0.0
O216 O 0.11469 0.70699 0.84526 0.0
C217 C 0.03375 0.68986 0.83561 0.0
O218 O 0.05078 0.67605 0.74121 0.0
O219 O 0.07566 0.63003 0.72697 0.0
O220 O 0.11901 0.69974 0.70802 0.0
O221 O 0.07077 0.70902 0.73053 0.0
O222 O 0.02949 0.7017 0.86412 0.0
O223 O 0.05773 0.70124 0.81936 0.0
O224 O 0.0713 0.73242 0.8091 0.0
O225 O 0.06687 0.77525 0.84034 0.0
C226 C 0.07232 0.76353 0.81197 0.0
O227 O 0.08668 0.64592 0.79433 0.0
O228 O 0.1383 0.64437 0.78182 0.0
C229 C 0.13535 0.72214 0.82691 0.0
C230 C 0.11373 0.63086 0.79569 0.0
Zn231 Zn 0.7442 0.32201 0.11734 0.0
Zn232 Zn 0.81831 0.36707 0.98751 0.0
Zn233 Zn 0.78196 0.3357 0.02853 0.0
C234 C 0.8289 0.29952 0.97892 0.0
C235 C 0.76241 0.34084 0.95676 0.0
O236 O 0.75751 0.38215 0.04542 0.0
O237 O 0.7688 0.36469 0.09527 0.0
C238 C 0.78593 0.28375 0.08563 0.0
O239 O 0.79973 0.30078 -0.00878 0.0
O240 O 0.84575 0.32566 0.97698 0.0
O241 O 0.77604 0.36901 0.95803 0.0
O242 O 0.76677 0.32077 0.98054 0.0
O243 O 0.77408 0.27949 0.11414 0.0
O244 O 0.77454 0.30773 0.06938 0.0
O245 O 0.74337 0.3213 0.05912 0.0
O246 O 0.70054 0.31687 0.09036 0.0
C247 C 0.71226 0.32232 0.06198 0.0
O248 O 0.82987 0.33668 0.04434 0.0
O249 O 0.83141 0.3883 0.03184 0.0
C250 C 0.75365 0.38535 0.07692 0.0
C251 C 0.84493 0.36373 0.0457 0.0
Zn252 Zn 0.10873 0.15748 -0.01172 0.0
Zn253 Zn 0.15379 0.23158 0.85845 0.0
Zn254 Zn 0.14009 0.19382 0.94726 0.0
C255 C 0.15347 0.26352 0.91381 0.0
C256 C 0.19204 0.18985 0.89017 0.0
O257 O 0.13911 0.14591 0.93144 0.0
O258 O 0.08748 0.14437 0.94395 0.0
C259 C 0.13495 0.21337 0.01903 0.0
O260 O 0.15449 0.23241 0.91668 0.0
O261 O 0.15892 0.27524 0.88543 0.0
O262 O 0.19631 0.2017 0.86166 0.0
O263 O 0.16806 0.20124 0.90642 0.0
O264 O 0.10678 0.19974 0.01776 0.0
O265 O 0.15502 0.20901 -0.00475 0.0
O266 O 0.17501 0.17605 0.98457 0.0
O267 O 0.15014 0.13003 -0.0012 0.0
C268 C 0.17628 0.14689 -0.00314 0.0
O269 O 0.09365 0.21828 0.93037 0.0
O270 O 0.1111 0.20698 0.88052 0.0
C271 C 0.11206 0.13085 0.93008 0.0
C272 C 0.09045 0.22214 0.89887 0.0
Zn273 Zn 0.2442 0.40379 0.10845 0.0
Zn274 Zn 0.31831 0.35873 0.23828 0.0
Zn275 Zn 0.28196 0.39009 0.19726 0.0
C276 C 0.3289 0.42627 0.24687 0.0
C277 C 0.26242 0.38495 0.26903 0.0
O278 O 0.25751 0.34364 0.18037 0.0
O279 O 0.2688 0.3611 0.13052 0.0
C280 C 0.28593 0.44204 0.14017 0.0
O281 O 0.29974 0.42501 0.23457 0.0
O282 O 0.34576 0.40013 0.2488 0.0
O283 O 0.27605 0.35678 0.26776 0.0
O284 O 0.26677 0.40502 0.24525 0.0
O285 O 0.27408 0.44631 0.11166 0.0
O286 O 0.27454 0.41807 0.15642 0.0
O287 O 0.24337 0.40449 0.16668 0.0
O288 O 0.20054 0.40892 0.13543 0.0
C289 C 0.21226 0.40347 0.16381 0.0
O290 O 0.32987 0.38911 0.18144 0.0
O291 O 0.33141 0.33749 0.19395 0.0
C292 C 0.25365 0.34045 0.14887 0.0
C293 C 0.34493 0.36206 0.18009 0.0
Zn294 Zn 0.11706 0.5683 0.48828 0.0
Zn295 Zn 0.072 0.4942 0.35845 0.0
Zn296 Zn 0.08569 0.53196 0.44726 0.0
C297 C 0.07231 0.46226 0.41381 0.0
C298 C 0.03375 0.53593 0.39016 0.0
O299 O 0.08668 0.57987 0.43145 0.0
O300 O 0.1383 0.58142 0.44395 0.0
C301 C 0.09084 0.51241 0.51903 0.0
O302 O 0.07129 0.49337 0.41668 0.0
O303 O 0.06686 0.45054 0.38543 0.0
O304 O 0.02949 0.52409 0.36165 0.0
O305 O 0.05772 0.52455 0.40641 0.0
O306 O 0.11901 0.52604 0.51776 0.0
O307 O 0.07076 0.51677 0.49525 0.0
O308 O 0.05078 0.54974 0.48457 0.0
O309 O 0.07566 0.59576 0.49881 0.0
C310 C 0.04952 0.5789 0.49687 0.0
O311 O 0.13214 0.50751 0.43038 0.0
O312 O 0.11469 0.5188 0.38052 0.0
C313 C 0.11373 0.59493 0.43009 0.0
C314 C 0.13534 0.50365 0.39887 0.0
Zn315 Zn 0.98159 0.322 0.60845 0.0
Zn316 Zn 0.90748 0.36706 0.73828 0.0
Zn317 Zn 0.94383 0.33569 0.69726 0.0
C318 C 0.89689 0.29951 0.74687 0.0
C319 C 0.96337 0.34084 0.76904 0.0
O320 O 0.96828 0.38214 0.68038 0.0
O321 O 0.95699 0.36468 0.63052 0.0
C322 C 0.93985 0.28374 0.64017 0.0
O323 O 0.92605 0.30078 0.73457 0.0
O324 O 0.88003 0.32565 0.74881 0.0
O325 O 0.94974 0.36901 0.76776 0.0
O326 O 0.95902 0.32076 0.74525 0.0
O327 O 0.9517 0.27948 0.61166 0.0
O328 O 0.95124 0.30772 0.65642 0.0
O329 O 0.98242 0.32129 0.66668 0.0
O330 O 0.02524 0.31686 0.63544 0.0
C331 C 0.01353 0.32231 0.66382 0.0
O332 O 0.89591 0.33668 0.68145 0.0
O333 O 0.89437 0.3883 0.69396 0.0
C334 C 0.97214 0.38534 0.64887 0.0
C335 C 0.88085 0.36373 0.68009 0.0
Zn336 Zn 0.2375 0.10873 0.06831 0.0
Zn337 Zn 0.36734 0.15378 -0.0058 0.0
Zn338 Zn 0.27852 0.14009 0.03196 0.0
C339 C 0.31198 0.15347 0.96226 0.0
C340 C 0.33562 0.19204 0.03593 0.0
O341 O 0.29434 0.13911 0.07987 0.0
O342 O 0.28183 0.08749 0.08141 0.0
C343 C 0.20675 0.13495 0.01242 0.0
O344 O 0.30911 0.15449 -0.00663 0.0
O345 O 0.34036 0.15892 0.95054 0.0
O346 O 0.36413 0.1963 0.02409 0.0
O347 O 0.31937 0.16806 0.02454 0.0
O348 O 0.20802 0.10678 0.02605 0.0
O349 O 0.23054 0.15502 0.01677 0.0
O350 O 0.24122 0.17501 0.04974 0.0
O351 O 0.22698 0.15014 0.09575 0.0
C352 C 0.22891 0.17628 0.0789 0.0
O353 O 0.29541 0.09364 0.00751 0.0
O354 O 0.34527 0.1111 0.0188 0.0
C355 C 0.2957 0.11206 0.09493 0.0
C356 C 0.32692 0.09044 0.00365 0.0
Zn357 Zn 0.86734 0.072 0.73159 0.0
Zn358 Zn 0.7375 0.11706 0.65748 0.0
Zn359 Zn 0.77852 0.0857 0.69383 0.0
C360 C 0.72892 0.04951 0.64689 0.0
C361 C 0.70675 0.09084 0.71336 0.0
O362 O 0.79541 0.13215 0.71828 0.0
O363 O 0.84527 0.11469 0.70699 0.0
C364 C 0.83562 0.03375 0.68986 0.0
O365 O 0.74122 0.05078 0.67605 0.0
O366 O 0.72698 0.07565 0.63003 0.0
O367 O 0.70802 0.11901 0.69973 0.0
O368 O 0.73054 0.07077 0.70901 0.0
O369 O 0.86413 0.02948 0.70171 0.0
O370 O 0.81937 0.05773 0.70124 0.0
O371 O 0.80911 0.0713 0.73242 0.0
O372 O 0.84035 0.06687 0.77525 0.0
C373 C 0.81197 0.07232 0.76353 0.0
O374 O 0.79434 0.08668 0.64591 0.0
O375 O 0.78184 0.1383 0.64437 0.0
C376 C 0.82692 0.13535 0.72214 0.0
C377 C 0.7957 0.11373 0.63086 0.0
Zn378 Zn 0.35873 0.9875 0.90748 0.0
Zn379 Zn 0.40379 0.11733 0.98159 0.0
Zn380 Zn 0.39009 0.02852 0.94382 0.0
C381 C 0.40346 0.06197 0.01353 0.0
C382 C 0.44204 0.08561 0.93986 0.0
O383 O 0.38911 0.04433 0.89591 0.0
O384 O 0.33749 0.03183 0.89436 0.0
C385 C 0.38495 0.95674 0.96336 0.0
O386 O 0.40448 0.0591 0.98242 0.0
O387 O 0.40891 0.09035 0.02525 0.0
O388 O 0.44631 0.11412 0.95171 0.0
O389 O 0.41806 0.06936 0.95124 0.0
O390 O 0.35679 0.95802 0.94973 0.0
O391 O 0.40502 0.98053 0.95901 0.0
O392 O 0.42501 -0.00879 0.92605 0.0
O393 O 0.40015 0.97698 0.88003 0.0
C394 C 0.42628 0.97891 0.89689 0.0
O395 O 0.34365 0.0454 0.96828 0.0
O396 O 0.3611 0.09528 0.95698 0.0
C397 C 0.36206 0.04569 0.88085 0.0
C398 C 0.34045 0.07691 0.97212 0.0
Zn399 Zn 0.35845 0.65379 0.23158 0.0
Zn400 Zn 0.48829 0.60873 0.15748 0.0
Zn401 Zn 0.44727 0.6401 0.19383 0.0
C402 C 0.49688 0.67628 0.14688 0.0
C403 C 0.51904 0.63495 0.21337 0.0
O404 O 0.43038 0.59365 0.21828 0.0
O405 O 0.38052 0.61111 0.20698 0.0
C406 C 0.39017 0.69204 0.18986 0.0
O407 O 0.48458 0.67501 0.17605 0.0
O408 O 0.49881 0.65014 0.13003 0.0
O409 O 0.51777 0.60678 0.19974 0.0
O410 O 0.49525 0.65503 0.20901 0.0
O411 O 0.36166 0.69631 0.2017 0.0
O412 O 0.40642 0.66807 0.20124 0.0
O413 O 0.41668 0.65449 0.23242 0.0
O414 O 0.38544 0.65893 0.27524 0.0
C415 C 0.41382 0.65348 0.26353 0.0
O416 O 0.43145 0.63911 0.14591 0.0
O417 O 0.44396 0.58749 0.14437 0.0
C418 C 0.39887 0.59045 0.22214 0.0
C419 C 0.43009 0.61206 0.13086 0.0
Zn420 Zn 0.322 0.10845 0.48158 0.0
Zn421 Zn 0.36706 0.23828 0.40747 0.0
Zn422 Zn 0.3357 0.19726 0.44382 0.0
C423 C 0.29951 0.24687 0.39688 0.0
C424 C 0.34084 0.26904 0.46336 0.0
O425 O 0.38214 0.18038 0.46827 0.0
O426 O 0.36468 0.13052 0.45698 0.0
C427 C 0.28374 0.14017 0.43985 0.0
O428 O 0.30078 0.23457 0.42605 0.0
O429 O 0.32565 0.2488 0.38002 0.0
O430 O 0.36901 0.26776 0.44973 0.0
O431 O 0.32077 0.24525 0.45901 0.0
O432 O 0.27948 0.11167 0.4517 0.0
O433 O 0.30772 0.15642 0.45123 0.0
O434 O 0.3213 0.16668 0.48241 0.0
O435 O 0.31686 0.13544 0.52524 0.0
C436 C 0.32231 0.16382 0.51352 0.0
O437 O 0.33668 0.18145 0.39591 0.0
O438 O 0.3883 0.19395 0.39436 0.0
C439 C 0.38534 0.14887 0.47214 0.0
C440 C 0.36373 0.18009 0.38085 0.0
Zn441 Zn -0.01171 0.11706 0.06831 0.0
Zn442 Zn 0.85845 0.072 -0.00579 0.0
Zn443 Zn 0.94726 0.0857 0.03196 0.0
C444 C 0.91381 0.07232 0.96226 0.0
C445 C 0.89017 0.03375 0.03593 0.0
O446 O 0.93145 0.08668 0.07987 0.0
O447 O 0.94395 0.1383 0.08142 0.0
C448 C 0.01904 0.09084 0.01241 0.0
O449 O 0.91668 0.0713 -0.00663 0.0
O450 O 0.88543 0.06687 0.95055 0.0
O451 O 0.86166 0.02949 0.02409 0.0
O452 O 0.90642 0.05773 0.02455 0.0
O453 O 0.01776 0.11901 0.02604 0.0
O454 O -0.00475 0.07077 0.01677 0.0
O455 O 0.98457 0.05078 0.04973 0.0
O456 O -0.00119 0.07566 0.09575 0.0
C457 C -0.00313 0.04952 0.0789 0.0
O458 O 0.93038 0.13215 0.00751 0.0
O459 O 0.88052 0.11469 0.0188 0.0
C460 C 0.93009 0.11373 0.09493 0.0
C461 C 0.89887 0.13535 0.00365 0.0
Zn462 Zn 0.40379 0.60845 0.7442 0.0
Zn463 Zn 0.35873 0.73828 0.8183 0.0
Zn464 Zn 0.3901 0.69726 0.78196 0.0
C465 C 0.42628 0.74687 0.8289 0.0
C466 C 0.38495 0.76904 0.76242 0.0
O467 O 0.34365 0.68038 0.7575 0.0
O468 O 0.36111 0.63052 0.7688 0.0
C469 C 0.44205 0.64017 0.78593 0.0
O470 O 0.42501 0.73457 0.79973 0.0
O471 O 0.40014 0.7488 0.84575 0.0
O472 O 0.35679 0.76776 0.77604 0.0
O473 O 0.40503 0.74525 0.76677 0.0
O474 O 0.44631 0.61166 0.77408 0.0
O475 O 0.41807 0.65642 0.77454 0.0
O476 O 0.4045 0.66668 0.74337 0.0
O477 O 0.40893 0.63543 0.70054 0.0
C478 C 0.40348 0.66381 0.71226 0.0
O479 O 0.38911 0.68145 0.82987 0.0
O480 O 0.33749 0.69395 0.83142 0.0
C481 C 0.34045 0.64887 0.75364 0.0
C482 C 0.36207 0.68009 0.84493 0.0
Zn483 Zn 0.86706 0.98751 0.31831 0.0
Zn484 Zn 0.822 0.11734 0.2442 0.0
Zn485 Zn 0.83569 0.02853 0.28196 0.0
C486 C 0.82231 0.06197 0.21226 0.0
C487 C 0.78374 0.08562 0.28593 0.0
O488 O 0.83667 0.04434 0.32988 0.0
O489 O 0.8883 0.03184 0.33142 0.0
C490 C 0.84084 0.95675 0.26242 0.0
O491 O 0.82129 0.05911 0.24337 0.0
O492 O 0.81686 0.09035 0.20054 0.0
O493 O 0.77948 0.11413 0.27409 0.0
O494 O 0.80772 0.06937 0.27455 0.0
O495 O 0.86901 0.95803 0.27605 0.0
O496 O 0.82076 0.98054 0.26677 0.0
O497 O 0.80078 -0.00878 0.29974 0.0
O498 O 0.82565 0.97698 0.34576 0.0
C499 C 0.79951 0.97892 0.3289 0.0
O500 O 0.88214 0.04541 0.25751 0.0
O501 O 0.86468 0.09527 0.2688 0.0
C502 C 0.86372 0.0457 0.34494 0.0
C503 C 0.88534 0.07692 0.25365 0.0
Zn504 Zn 0.90749 0.73829 0.86706 0.0
Zn505 Zn 0.9816 0.60845 0.822 0.0
Zn506 Zn 0.94383 0.69726 0.83569 0.0
C507 C 0.01353 0.66381 0.82232 0.0
C508 C 0.93987 0.64017 0.78374 0.0
O509 O 0.89592 0.68145 0.83668 0.0
O510 O 0.89437 0.69395 0.8883 0.0
C511 C 0.96338 0.76904 0.84084 0.0
O512 O 0.98242 0.66668 0.8213 0.0
O513 O 0.02526 0.63543 0.81686 0.0
O514 O 0.95171 0.61166 0.77948 0.0
O515 O 0.95125 0.65642 0.80772 0.0
O516 O 0.94975 0.76776 0.86901 0.0
O517 O 0.95902 0.74525 0.82076 0.0
O518 O 0.92606 0.73457 0.80078 0.0
O519 O 0.88004 0.74881 0.82566 0.0
C520 C 0.89689 0.74688 0.79952 0.0
O521 O 0.96829 0.68038 0.88214 0.0
O522 O 0.95699 0.63052 0.86468 0.0
C523 C 0.88086 0.68009 0.86372 0.0
C524 C 0.97215 0.64887 0.88534 0.0
Zn525 Zn 0.73751 0.65748 0.61706 0.0
Zn526 Zn 0.86735 0.73158 0.57201 0.0
Zn527 Zn 0.77853 0.69383 0.5857 0.0
C528 C 0.81198 0.76353 0.57232 0.0
C529 C 0.83563 0.68986 0.53375 0.0
O530 O 0.79434 0.64591 0.58668 0.0
O531 O 0.78184 0.64437 0.6383 0.0
C532 C 0.70675 0.71337 0.59084 0.0
O533 O 0.80912 0.73242 0.5713 0.0
O534 O 0.84036 0.77524 0.56687 0.0
O535 O 0.86414 0.7017 0.52949 0.0
O536 O 0.81938 0.70124 0.55773 0.0
O537 O 0.70803 0.69974 0.61901 0.0
O538 O 0.73054 0.70902 0.57077 0.0
O539 O 0.74122 0.67605 0.55078 0.0
O540 O 0.72699 0.63003 0.57565 0.0
C541 C 0.72892 0.64689 0.54951 0.0
O542 O 0.79542 0.71828 0.63215 0.0
O543 O 0.84527 0.70699 0.61469 0.0
C544 C 0.7957 0.63086 0.61373 0.0
C545 C 0.82692 0.72214 0.63535 0.0
Zn546 Zn 0.74421 0.61734 0.322 0.0
Zn547 Zn 0.81831 0.4875 0.36706 0.0
Zn548 Zn 0.78196 0.52853 0.33569 0.0
C549 C 0.8289 0.47892 0.29951 0.0
C550 C 0.76242 0.45675 0.34084 0.0
O551 O 0.75751 0.54541 0.38214 0.0
O552 O 0.76881 0.59527 0.36469 0.0
C553 C 0.78593 0.58562 0.28375 0.0
O554 O 0.79974 0.49122 0.30078 0.0
O555 O 0.84576 0.47698 0.32565 0.0
O556 O 0.77605 0.45803 0.36901 0.0
O557 O 0.76677 0.48054 0.32077 0.0
O558 O 0.77409 0.61413 0.27948 0.0
O559 O 0.77455 0.56937 0.30772 0.0
O560 O 0.74338 0.55911 0.3213 0.0
O561 O 0.70055 0.59035 0.31687 0.0
C562 C 0.71227 0.56197 0.32232 0.0
O563 O 0.82988 0.54434 0.33668 0.0
O564 O 0.83142 0.53184 0.3883 0.0
C565 C 0.75365 0.57692 0.38534 0.0
C566 C 0.84494 0.5457 0.36372 0.0
Zn567 Zn 0.85845 0.4942 0.072 0.0
Zn568 Zn -0.01171 0.56831 0.11706 0.0
Zn569 Zn 0.94726 0.53196 0.08569 0.0
C570 C -0.00312 0.5789 0.04951 0.0
C571 C 0.01904 0.51242 0.09084 0.0
O572 O 0.93038 0.50751 0.13214 0.0
O573 O 0.88052 0.5188 0.11468 0.0
C574 C 0.89017 0.53593 0.03374 0.0
O575 O 0.98457 0.54974 0.05078 0.0
O576 O -0.00119 0.59576 0.07565 0.0
O577 O 0.01776 0.52605 0.11901 0.0
O578 O -0.00475 0.51677 0.07076 0.0
O579 O 0.86166 0.52409 0.02948 0.0
O580 O 0.90642 0.52455 0.05772 0.0
O581 O 0.91668 0.49337 0.07129 0.0
O582 O 0.88544 0.45054 0.06686 0.0
C583 C 0.91382 0.46226 0.07231 0.0
O584 O 0.93145 0.57988 0.08668 0.0
O585 O 0.94395 0.58142 0.1383 0.0
C586 C 0.89887 0.50365 0.13534 0.0
C587 C 0.93009 0.59494 0.11372 0.0
Zn588 Zn 0.98158 0.11733 0.90379 0.0
Zn589 Zn 0.90747 0.9875 0.85873 0.0
Zn590 Zn 0.94382 0.02852 0.89009 0.0
C591 C 0.89688 0.97891 0.92628 0.0
C592 C 0.96336 0.95674 0.88495 0.0
O593 O 0.96828 0.04541 0.84365 0.0
O594 O 0.95698 0.09527 0.8611 0.0
C595 C 0.93985 0.08561 0.94204 0.0
O596 O 0.92605 -0.00879 0.92501 0.0
O597 O 0.88003 0.97698 0.90014 0.0
O598 O 0.94973 0.95802 0.85678 0.0
O599 O 0.95901 0.98053 0.90502 0.0
O600 O 0.95169 0.11412 0.94631 0.0
O601 O 0.95124 0.06937 0.91806 0.0
O602 O 0.98241 0.0591 0.90449 0.0
O603 O 0.02524 0.09035 0.90892 0.0
C604 C 0.01352 0.06197 0.90347 0.0
O605 O 0.89591 0.04434 0.88911 0.0
O606 O 0.89436 0.03183 0.83749 0.0
C607 C 0.97214 0.07691 0.84044 0.0
C608 C 0.88085 0.0457 0.86207 0.0
Zn609 Zn 0.35846 0.73159 0.65379 0.0
Zn610 Zn 0.4883 0.65748 0.60873 0.0
Zn611 Zn 0.44728 0.69383 0.64009 0.0
C612 C 0.49688 0.64689 0.67628 0.0
C613 C 0.51905 0.71337 0.63495 0.0
O614 O 0.43039 0.71828 0.59364 0.0
O615 O 0.38053 0.70699 0.6111 0.0
C616 C 0.39018 0.68985 0.69203 0.0
O617 O 0.48458 0.67605 0.67501 0.0
O618 O 0.49882 0.63003 0.65014 0.0
O619 O 0.51778 0.69974 0.60678 0.0
O620 O 0.49526 0.70902 0.65502 0.0
O621 O 0.36168 0.7017 0.6963 0.0
O622 O 0.40643 0.70124 0.66806 0.0
O623 O 0.41669 0.73242 0.65449 0.0
O624 O 0.38545 0.77525 0.65892 0.0
C625 C 0.41383 0.76353 0.65347 0.0
O626 O 0.43146 0.64592 0.63911 0.0
O627 O 0.44397 0.64437 0.58748 0.0
C628 C 0.39888 0.72214 0.59044 0.0
C629 C 0.4301 0.63086 0.61206 0.0
Zn630 Zn 0.7442 0.10846 0.40379 0.0
Zn631 Zn 0.81831 0.23829 0.35874 0.0
Zn632 Zn 0.78196 0.19727 0.3901 0.0
C633 C 0.8289 0.24687 0.42628 0.0
C634 C 0.76243 0.26905 0.38495 0.0
O635 O 0.7575 0.18038 0.34365 0.0
O636 O 0.7688 0.13052 0.36111 0.0
C637 C 0.78593 0.14018 0.44204 0.0
O638 O 0.79974 0.23458 0.42501 0.0
O639 O 0.84576 0.2488 0.40015 0.0
O640 O 0.77606 0.26777 0.35678 0.0
O641 O 0.76678 0.24526 0.40502 0.0
O642 O 0.77408 0.11167 0.44631 0.0
O643 O 0.77454 0.15643 0.41807 0.0
O644 O 0.74337 0.16669 0.40449 0.0
O645 O 0.70054 0.13544 0.40893 0.0
C646 C 0.71226 0.16382 0.40348 0.0
O647 O 0.82987 0.18145 0.38911 0.0
O648 O 0.83142 0.19396 0.33749 0.0
C649 C 0.75364 0.14888 0.34045 0.0
C650 C 0.84493 0.18009 0.36206 0.0
Zn651 Zn 0.36734 0.4942 0.15378 0.0
Zn652 Zn 0.2375 0.56831 0.10873 0.0
Zn653 Zn 0.27852 0.53196 0.14009 0.0
C654 C 0.22892 0.5789 0.17628 0.0
C655 C 0.20675 0.51242 0.13495 0.0
O656 O 0.29541 0.50751 0.09364 0.0
O657 O 0.34527 0.5188 0.1111 0.0
C658 C 0.33562 0.53593 0.19204 0.0
O659 O 0.24122 0.54973 0.17501 0.0
O660 O 0.22698 0.59576 0.15014 0.0
O661 O 0.20802 0.52605 0.10678 0.0
O662 O 0.23054 0.51677 0.15502 0.0
O663 O 0.36413 0.52408 0.1963 0.0
O664 O 0.31937 0.52454 0.16806 0.0
O665 O 0.30911 0.49337 0.15448 0.0
O666 O 0.34035 0.45054 0.15892 0.0
C667 C 0.31198 0.46226 0.15346 0.0
O668 O 0.29434 0.57987 0.13911 0.0
O669 O 0.28184 0.58142 0.08749 0.0
C670 C 0.32692 0.50365 0.09044 0.0
C671 C 0.2957 0.59493 0.11206 0.0
Zn672 Zn 0.86707 0.90749 0.73829 0.0
Zn673 Zn 0.822 0.98159 0.60845 0.0
Zn674 Zn 0.8357 0.94383 0.69727 0.0
C675 C 0.82233 0.01353 0.66381 0.0
C676 C 0.78375 0.93986 0.64017 0.0
O677 O 0.83668 0.89592 0.68146 0.0
O678 O 0.8883 0.89437 0.69396 0.0
C679 C 0.84084 0.96338 0.76904 0.0
O680 O 0.8213 0.98242 0.66668 0.0
O681 O 0.81687 0.02525 0.63544 0.0
O682 O 0.77949 0.95171 0.61166 0.0
O683 O 0.80773 0.95125 0.65642 0.0
O684 O 0.86901 0.94975 0.76777 0.0
O685 O 0.82077 0.95903 0.74525 0.0
O686 O 0.80078 0.92606 0.73458 0.0
O687 O 0.82566 0.88004 0.74882 0.0
C688 C 0.79952 0.89689 0.74688 0.0
O689 O 0.88215 0.96828 0.68038 0.0
O690 O 0.86469 0.95699 0.63052 0.0
C691 C 0.86373 0.88086 0.6801 0.0
C692 C 0.88535 0.97214 0.64887 0.0
Zn693 Zn 0.49421 0.572 0.35845 0.0
Zn694 Zn 0.56831 0.61706 0.48829 0.0
Zn695 Zn 0.53196 0.5857 0.44727 0.0
C696 C 0.5789 0.54952 0.49687 0.0
C697 C 0.51242 0.59084 0.51904 0.0
O698 O 0.50751 0.63215 0.43038 0.0
O699 O 0.5188 0.61469 0.38052 0.0
C700 C 0.53594 0.53375 0.39017 0.0
O701 O 0.54973 0.55078 0.48457 0.0
O702 O 0.59575 0.57566 0.49881 0.0
O703 O 0.52604 0.61901 0.51776 0.0
O704 O 0.51677 0.57077 0.49525 0.0
O705 O 0.5241 0.52948 0.36166 0.0
O706 O 0.52455 0.55773 0.40642 0.0
O707 O 0.49337 0.5713 0.41668 0.0
O708 O 0.45055 0.56686 0.38543 0.0
C709 C 0.46226 0.57231 0.41381 0.0
O710 O 0.57987 0.58668 0.43145 0.0
O711 O 0.58142 0.63831 0.44396 0.0
C712 C 0.50365 0.63534 0.39887 0.0
C713 C 0.59493 0.61373 0.43009 0.0
Zn714 Zn 0.85873 0.31831 0.23829 0.0
Zn715 Zn 0.90379 0.2442 0.10846 0.0
Zn716 Zn 0.89009 0.28196 0.19727 0.0
C717 C 0.90347 0.21226 0.16382 0.0
C718 C 0.94204 0.28594 0.14018 0.0
O719 O 0.88911 0.32987 0.18146 0.0
O720 O 0.83749 0.33142 0.19396 0.0
C721 C 0.88495 0.26242 0.26905 0.0
O722 O 0.90449 0.24337 0.16669 0.0
O723 O 0.90892 0.20054 0.13544 0.0
O724 O 0.9463 0.27409 0.11167 0.0
O725 O 0.91806 0.27455 0.15643 0.0
O726 O 0.85678 0.27605 0.26777 0.0
O727 O 0.90502 0.26677 0.24526 0.0
O728 O 0.92501 0.29973 0.23458 0.0
O729 O 0.90014 0.34575 0.24882 0.0
C730 C 0.92627 0.3289 0.24688 0.0
O731 O 0.84364 0.25751 0.18039 0.0
O732 O 0.8611 0.2688 0.13053 0.0
C733 C 0.86206 0.34493 0.1801 0.0
C734 C 0.84044 0.25365 0.14888 0.0
Zn735 Zn 0.23159 0.65378 0.85844 0.0
Zn736 Zn 0.15749 0.60872 -0.01172 0.0
Zn737 Zn 0.19383 0.64009 0.94726 0.0
C738 C 0.14689 0.67627 -0.00313 0.0
C739 C 0.21338 0.63494 0.01903 0.0
O740 O 0.21828 0.59364 0.93037 0.0
O741 O 0.20699 0.6111 0.88051 0.0
C742 C 0.18987 0.69204 0.89016 0.0
O743 O 0.17606 0.675 0.98457 0.0
O744 O 0.13004 0.65013 -0.0012 0.0
O745 O 0.19975 0.60678 0.01775 0.0
O746 O 0.20902 0.65502 -0.00476 0.0
O747 O 0.20171 0.6963 0.86165 0.0
O748 O 0.20125 0.66806 0.90641 0.0
O749 O 0.23242 0.65449 0.91667 0.0
O750 O 0.27525 0.65892 0.88543 0.0
C751 C 0.26353 0.65347 0.91381 0.0
O752 O 0.14592 0.63911 0.93144 0.0
O753 O 0.14438 0.58749 0.94395 0.0
C754 C 0.22214 0.59044 0.89886 0.0
C755 C 0.13086 0.61206 0.93009 0.0
Zn756 Zn 0.822 0.74421 0.11734 0.0
Zn757 Zn 0.86706 0.81831 0.98751 0.0
Zn758 Zn 0.8357 0.78197 0.02853 0.0
C759 C 0.79951 0.8289 0.97892 0.0
C760 C 0.84084 0.76242 0.95675 0.0
O761 O 0.88214 0.75751 0.04541 0.0
O762 O 0.86469 0.76881 0.09527 0.0
C763 C 0.78375 0.78593 0.08562 0.0
O764 O 0.80078 0.79974 -0.00878 0.0
O765 O 0.82565 0.84576 0.97699 0.0
O766 O 0.86901 0.77605 0.95803 0.0
O767 O 0.82077 0.76678 0.98054 0.0
O768 O 0.77948 0.77409 0.11413 0.0
O769 O 0.80773 0.77455 0.06937 0.0
O770 O 0.8213 0.74337 0.05911 0.0
O771 O 0.81687 0.70055 0.09035 0.0
C772 C 0.82232 0.71227 0.06197 0.0
O773 O 0.83668 0.82988 0.04434 0.0
O774 O 0.88831 0.83142 0.03184 0.0
C775 C 0.88534 0.75365 0.07692 0.0
C776 C 0.86373 0.84494 0.0457 0.0
Zn777 Zn 0.73159 0.572 0.86734 0.0
Zn778 Zn 0.65748 0.61706 0.73751 0.0
Zn779 Zn 0.69383 0.5857 0.77853 0.0
C780 C 0.64689 0.54952 0.72892 0.0
C781 C 0.71337 0.59084 0.70675 0.0
O782 O 0.71828 0.63214 0.79541 0.0
O783 O 0.70699 0.61469 0.84527 0.0
C784 C 0.68986 0.53375 0.83561 0.0
O785 O 0.67605 0.55078 0.74122 0.0
O786 O 0.63004 0.57566 0.72698 0.0
O787 O 0.69974 0.61901 0.70803 0.0
O788 O 0.70902 0.57077 0.73054 0.0
O789 O 0.7017 0.52948 0.86412 0.0
O790 O 0.70125 0.55773 0.81937 0.0
O791 O 0.73242 0.5713 0.80911 0.0
O792 O 0.77525 0.56687 0.84036 0.0
C793 C 0.76353 0.57232 0.81198 0.0
O794 O 0.64592 0.58668 0.79434 0.0
O795 O 0.64438 0.6383 0.78184 0.0
C796 C 0.72214 0.63534 0.82692 0.0
C797 C 0.63086 0.61373 0.7957 0.0
Zn798 Zn 0.90379 0.48159 0.61734 0.0
Zn799 Zn 0.85873 0.40749 0.4875 0.0
Zn800 Zn 0.8901 0.44383 0.52853 0.0
C801 C 0.92627 0.39689 0.47891 0.0
C802 C 0.88496 0.46337 0.45675 0.0
O803 O 0.84365 0.46828 0.54541 0.0
O804 O 0.86111 0.45699 0.59527 0.0
C805 C 0.94204 0.43986 0.58562 0.0
O806 O 0.92501 0.42605 0.49122 0.0
O807 O 0.90013 0.38003 0.47698 0.0
O808 O 0.85679 0.44975 0.45803 0.0
O809 O 0.90503 0.45902 0.48054 0.0
O810 O 0.94631 0.4517 0.61413 0.0
O811 O 0.91807 0.45124 0.56937 0.0
O812 O 0.9045 0.48242 0.55911 0.0
O813 O 0.90893 0.52525 0.59035 0.0
C814 C 0.90348 0.51353 0.56198 0.0
O815 O 0.88911 0.39592 0.54434 0.0
O816 O 0.83749 0.39437 0.53184 0.0
C817 C 0.84045 0.47214 0.57692 0.0
C818 C 0.86207 0.38086 0.5457 0.0
Zn819 Zn -0.00579 0.65379 0.36734 0.0
Zn820 Zn 0.06831 0.60873 0.2375 0.0
Zn821 Zn 0.03197 0.6401 0.27852 0.0
C822 C 0.0789 0.67628 0.22891 0.0
C823 C 0.01242 0.63495 0.20675 0.0
O824 O 0.00751 0.59365 0.29541 0.0
O825 O 0.0188 0.61111 0.34526 0.0
C826 C 0.03594 0.69204 0.33562 0.0
O827 O 0.04974 0.67501 0.24121 0.0
O828 O 0.09576 0.65014 0.22698 0.0
O829 O 0.02605 0.60678 0.20803 0.0
O830 O 0.01677 0.65503 0.23054 0.0
O831 O 0.02409 0.69631 0.36413 0.0
O832 O 0.02455 0.66807 0.31937 0.0
O833 O -0.00663 0.6545 0.30911 0.0
O834 O 0.95055 0.65893 0.34035 0.0
C835 C 0.96226 0.65348 0.31197 0.0
O836 O 0.07988 0.63911 0.29434 0.0
O837 O 0.08142 0.58749 0.28183 0.0
C838 C 0.00365 0.59045 0.32691 0.0
C839 C 0.09494 0.61206 0.2957 0.0
Zn840 Zn 0.73829 0.86706 0.90748 0.0
Zn841 Zn 0.60845 0.82201 0.98158 0.0
Zn842 Zn 0.69727 0.83569 0.94383 0.0
C843 C 0.66381 0.82232 0.01353 0.0
C844 C 0.64017 0.78375 0.93986 0.0
O845 O 0.68145 0.83668 0.89592 0.0
O846 O 0.69396 0.8883 0.89437 0.0
C847 C 0.76904 0.84084 0.96336 0.0
O848 O 0.66668 0.8213 0.98242 0.0
O849 O 0.63543 0.81687 0.02525 0.0
O850 O 0.61166 0.77949 0.9517 0.0
O851 O 0.65642 0.80772 0.95124 0.0
O852 O 0.76777 0.86901 0.94974 0.0
O853 O 0.74525 0.82077 0.95902 0.0
O854 O 0.73457 0.80078 0.92605 0.0
O855 O 0.74881 0.82565 0.88003 0.0
C856 C 0.74688 0.79951 0.89689 0.0
O857 O 0.68038 0.88214 0.96828 0.0
O858 O 0.63052 0.86469 0.95699 0.0
C859 C 0.68009 0.86373 0.88086 0.0
C860 C 0.64887 0.88535 0.97214 0.0
Zn861 Zn 0.10845 0.90379 0.2442 0.0
Zn862 Zn 0.23829 0.85873 0.31831 0.0
Zn863 Zn 0.19727 0.89009 0.28196 0.0
C864 C 0.24687 0.92628 0.3289 0.0
C865 C 0.26904 0.88495 0.26242 0.0
O866 O 0.18038 0.84364 0.25751 0.0
O867 O 0.13052 0.8611 0.2688 0.0
C868 C 0.14018 0.94204 0.28593 0.0
O869 O 0.23458 0.92501 0.29973 0.0
O870 O 0.24881 0.90014 0.34576 0.0
O871 O 0.26777 0.85678 0.27605 0.0
O872 O 0.24525 0.90502 0.26677 0.0
O873 O 0.11167 0.94631 0.27409 0.0
O874 O 0.15642 0.91806 0.27454 0.0
O875 O 0.16668 0.90448 0.24337 0.0
O876 O 0.13544 0.90892 0.20054 0.0
C877 C 0.16382 0.90347 0.21226 0.0
O878 O 0.18145 0.88911 0.32987 0.0
O879 O 0.19396 0.83749 0.33142 0.0
C880 C 0.14887 0.84044 0.25365 0.0
C881 C 0.18009 0.86206 0.34493 0.0
Zn882 Zn 0.61706 -0.01171 0.06831 0.0
Zn883 Zn 0.572 0.85846 -0.0058 0.0
Zn884 Zn 0.5857 0.94727 0.03196 0.0
C885 C 0.57233 0.91382 0.96226 0.0
C886 C 0.53375 0.89018 0.03593 0.0
O887 O 0.58668 0.93145 0.07988 0.0
O888 O 0.6383 0.94396 0.08142 0.0
C889 C 0.59084 0.01905 0.01243 0.0
O890 O 0.57131 0.91668 -0.00663 0.0
O891 O 0.56688 0.88544 0.95054 0.0
O892 O 0.52948 0.86167 0.02408 0.0
O893 O 0.55773 0.90642 0.02454 0.0
O894 O 0.61901 0.01777 0.02606 0.0
O895 O 0.57077 -0.00474 0.01677 0.0
O896 O 0.55078 0.98458 0.04974 0.0
O897 O 0.57565 -0.00119 0.09576 0.0
C898 C 0.54951 -0.00313 0.0789 0.0
O899 O 0.63214 0.93038 0.00751 0.0
O900 O 0.61469 0.8805 0.01881 0.0
C901 C 0.61373 0.9301 0.09493 0.0
C902 C 0.63534 0.89887 0.00366 0.0
Zn903 Zn 0.61734 0.322 0.7442 0.0
Zn904 Zn 0.4875 0.36706 0.81831 0.0
Zn905 Zn 0.52852 0.33569 0.78196 0.0
C906 C 0.47891 0.29951 0.8289 0.0
C907 C 0.45675 0.34083 0.76242 0.0
O908 O 0.54541 0.38214 0.75751 0.0
O909 O 0.59527 0.36468 0.7688 0.0
C910 C 0.58562 0.28374 0.78593 0.0
O911 O 0.49121 0.30078 0.79974 0.0
O912 O 0.47698 0.32565 0.84576 0.0
O913 O 0.45803 0.369 0.77605 0.0
O914 O 0.48054 0.32076 0.76677 0.0
O915 O 0.61413 0.27948 0.77409 0.0
O916 O 0.56937 0.30772 0.77454 0.0
O917 O 0.55911 0.32129 0.74337 0.0
O918 O 0.59036 0.31686 0.70054 0.0
C919 C 0.56198 0.32231 0.71226 0.0
O920 O 0.54434 0.33668 0.82987 0.0
O921 O 0.53184 0.3883 0.83142 0.0
C922 C 0.57692 0.38534 0.75365 0.0
C923 C 0.5457 0.36373 0.84493 0.0
Zn924 Zn 0.6538 0.86734 0.4942 0.0
Zn925 Zn 0.60873 0.73751 0.56832 0.0
Zn926 Zn 0.6401 0.77852 0.53197 0.0
C927 C 0.67628 0.72892 0.57891 0.0
C928 C 0.63495 0.70675 0.51243 0.0
O929 O 0.59365 0.79541 0.50751 0.0
O930 O 0.61111 0.84527 0.5188 0.0
C931 C 0.69205 0.83561 0.53594 0.0
O932 O 0.67501 0.74122 0.54974 0.0
O933 O 0.65014 0.72699 0.59576 0.0
O934 O 0.60678 0.70803 0.52606 0.0
O935 O 0.65502 0.73054 0.51678 0.0
O936 O 0.69631 0.86412 0.52409 0.0
O937 O 0.66807 0.81937 0.52455 0.0
O938 O 0.65449 0.80911 0.49338 0.0
O939 O 0.65893 0.84035 0.45055 0.0
C940 C 0.65348 0.81197 0.46227 0.0
O941 O 0.63911 0.79434 0.57988 0.0
O942 O 0.58749 0.78184 0.58143 0.0
C943 C 0.59045 0.82692 0.50365 0.0
C944 C 0.61207 0.7957 0.59494 0.0
Zn945 Zn 0.9875 0.85873 0.90748 0.0
Zn946 Zn 0.11734 0.90379 0.98158 0.0
Zn947 Zn 0.02853 0.89009 0.94383 0.0
C948 C 0.06199 0.90346 0.01352 0.0
C949 C 0.08562 0.94204 0.93986 0.0
O950 O 0.04434 0.88911 0.89592 0.0
O951 O 0.03184 0.83749 0.89437 0.0
C952 C 0.95675 0.88495 0.96337 0.0
O953 O 0.05912 0.90449 0.98242 0.0
O954 O 0.09036 0.90892 0.02525 0.0
O955 O 0.11413 0.94631 0.9517 0.0
O956 O 0.06937 0.91806 0.95124 0.0
O957 O 0.95803 0.85678 0.94974 0.0
O958 O 0.98054 0.90502 0.95902 0.0
O959 O -0.00878 0.92501 0.92605 0.0
O960 O 0.97698 0.90013 0.88003 0.0
C961 C 0.97892 0.92627 0.89689 0.0
O962 O 0.04542 0.84364 0.96828 0.0
O963 O 0.09527 0.8611 0.95698 0.0
C964 C 0.0457 0.86206 0.88086 0.0
C965 C 0.07692 0.84044 0.97214 0.0
Zn966 Zn 0.61706 0.23751 0.15748 0.0
Zn967 Zn 0.57199 0.36734 0.23159 0.0
Zn968 Zn 0.58569 0.27852 0.19383 0.0
C969 C 0.57232 0.31198 0.26353 0.0
C970 C 0.53374 0.33562 0.18986 0.0
O971 O 0.58668 0.29434 0.14592 0.0
O972 O 0.6383 0.28184 0.14437 0.0
C973 C 0.59084 0.20675 0.21337 0.0
O974 O 0.5713 0.30911 0.23242 0.0
O975 O 0.56686 0.34035 0.27525 0.0
O976 O 0.52948 0.36412 0.20171 0.0
O977 O 0.55772 0.31937 0.20125 0.0
O978 O 0.61901 0.20803 0.19974 0.0
O979 O 0.57076 0.23054 0.20902 0.0
O980 O 0.55078 0.24122 0.17605 0.0
O981 O 0.57565 0.22698 0.13003 0.0
C982 C 0.54951 0.22892 0.14689 0.0
O983 O 0.63214 0.29541 0.21828 0.0
O984 O 0.61468 0.34527 0.20699 0.0
C985 C 0.61373 0.2957 0.13086 0.0
C986 C 0.63534 0.32692 0.22214 0.0
Zn987 Zn 0.15379 0.85845 0.73159 0.0
Zn988 Zn 0.10873 -0.01172 0.65748 0.0
Zn989 Zn 0.1401 0.94726 0.69382 0.0
C990 C 0.17628 -0.00313 0.64688 0.0
C991 C 0.13495 0.01903 0.71337 0.0
O992 O 0.09365 0.93038 0.71828 0.0
O993 O 0.11111 0.88052 0.70699 0.0
C994 C 0.19205 0.89016 0.68985 0.0
O995 O 0.17501 0.98457 0.67605 0.0
O996 O 0.15014 -0.0012 0.63003 0.0
O997 O 0.10678 0.01776 0.69974 0.0
O998 O 0.15503 -0.00475 0.70901 0.0
O999 O 0.19631 0.86166 0.7017 0.0
O1000 O 0.16807 0.90642 0.70124 0.0
O1001 O 0.1545 0.91668 0.73241 0.0
O1002 O 0.15893 0.88544 0.77524 0.0
C1003 C 0.15348 0.91382 0.76352 0.0
O1004 O 0.13912 0.93145 0.64591 0.0
O1005 O 0.08749 0.94395 0.64436 0.0
C1006 C 0.09045 0.89887 0.72214 0.0
C1007 C 0.11207 0.93009 0.63085 0.0
Zn1008 Zn -0.0058 0.86735 0.65379 0.0
Zn1009 Zn 0.06831 0.73751 0.60872 0.0
Zn1010 Zn 0.03196 0.77854 0.6401 0.0
C1011 C 0.07891 0.72893 0.67627 0.0
C1012 C 0.01242 0.70676 0.63495 0.0
O1013 O 0.00751 0.79542 0.59365 0.0
O1014 O 0.0188 0.84528 0.61111 0.0
C1015 C 0.03593 0.83563 0.69205 0.0
O1016 O 0.04974 0.74123 0.67501 0.0
O1017 O 0.09576 0.727 0.65013 0.0
O1018 O 0.02605 0.70804 0.60678 0.0
O1019 O 0.01678 0.73055 0.65502 0.0
O1020 O 0.02408 0.86414 0.69631 0.0
O1021 O 0.02454 0.81938 0.66807 0.0
O1022 O -0.00663 0.80912 0.65449 0.0
O1023 O 0.95054 0.84036 0.65893 0.0
C1024 C 0.96226 0.81198 0.65348 0.0
O1025 O 0.07988 0.79436 0.6391 0.0
O1026 O 0.08142 0.78184 0.58746 0.0
C1027 C 0.00365 0.82693 0.59045 0.0
C1028 C 0.09491 0.79571 0.61204 0.0
Zn1029 Zn 0.10845 0.74419 0.90378 0.0
Zn1030 Zn 0.23829 0.8183 0.85873 0.0
Zn1031 Zn 0.19727 0.78196 0.89009 0.0
C1032 C 0.24688 0.8289 0.92627 0.0
C1033 C 0.26905 0.76241 0.88495 0.0
O1034 O 0.18039 0.75751 0.84364 0.0
O1035 O 0.1305 0.7688 0.86109 0.0
C1036 C 0.14018 0.78592 0.94204 0.0
O1037 O 0.23458 0.79973 0.92501 0.0
O1038 O 0.24882 0.84575 0.90014 0.0
O1039 O 0.26777 0.77604 0.85678 0.0
O1040 O 0.24526 0.76677 0.90502 0.0
O1041 O 0.11167 0.77407 0.9463 0.0
O1042 O 0.15642 0.77454 0.91806 0.0
O1043 O 0.16668 0.74337 0.90447 0.0
O1044 O 0.13544 0.70053 0.9089 0.0
C1045 C 0.16381 0.71226 0.90345 0.0
O1046 O 0.18146 0.82987 0.88911 0.0
O1047 O 0.19396 0.83142 0.83748 0.0
C1048 C 0.14888 0.75366 0.84044 0.0
C1049 C 0.1801 0.84493 0.86206 0.0
Zn1050 Zn 0.23159 0.85844 0.15379 0.0
Zn1051 Zn 0.15748 -0.01173 0.10872 0.0
Zn1052 Zn 0.19383 0.94725 0.14009 0.0
C1053 C 0.14689 -0.00315 0.17627 0.0
C1054 C 0.21337 0.01903 0.13494 0.0
O1055 O 0.21828 0.93037 0.09364 0.0
O1056 O 0.20699 0.88051 0.1111 0.0
C1057 C 0.18986 0.89017 0.19204 0.0
O1058 O 0.17606 0.98456 0.175 0.0
O1059 O 0.13003 -0.00121 0.15013 0.0
O1060 O 0.19974 0.01775 0.10677 0.0
O1061 O 0.20902 -0.00476 0.15502 0.0
O1062 O 0.2017 0.86166 0.19631 0.0
O1063 O 0.20125 0.90641 0.16806 0.0
O1064 O 0.23242 0.91667 0.15448 0.0
O1065 O 0.27525 0.88542 0.15892 0.0
C1066 C 0.26353 0.9138 0.15347 0.0
O1067 O 0.14592 0.93143 0.1391 0.0
O1068 O 0.14437 0.94395 0.08746 0.0
C1069 C 0.22214 0.89886 0.09044 0.0
C1070 C 0.13088 0.93008 0.11204 0.0
Zn1071 Zn 0.11734 0.98159 0.40378 0.0
Zn1072 Zn 0.9875 0.90748 0.35873 0.0
Zn1073 Zn 0.02852 0.94382 0.39009 0.0
C1074 C 0.97891 0.89689 0.42628 0.0
C1075 C 0.95675 0.96337 0.38495 0.0
O1076 O 0.04541 0.96828 0.34365 0.0
O1077 O 0.09529 0.95698 0.3611 0.0
C1078 C 0.08562 0.93986 0.44204 0.0
O1079 O -0.00879 0.92605 0.42501 0.0
O1080 O 0.97698 0.88003 0.40014 0.0
O1081 O 0.95803 0.94974 0.35678 0.0
O1082 O 0.98054 0.95902 0.40503 0.0
O1083 O 0.11413 0.9517 0.4463 0.0
O1084 O 0.06937 0.95124 0.41806 0.0
O1085 O 0.05911 0.98241 0.40448 0.0
O1086 O 0.09035 0.02525 0.40891 0.0
C1087 C 0.06197 0.01352 0.40346 0.0
O1088 O 0.04434 0.89591 0.38911 0.0
O1089 O 0.03183 0.89437 0.33749 0.0
C1090 C 0.07692 0.97212 0.34045 0.0
C1091 C 0.0457 0.88085 0.36206 0.0
Zn1092 Zn 0.06832 0.48828 0.61706 0.0
Zn1093 Zn -0.0058 0.35844 0.572 0.0
Zn1094 Zn 0.03197 0.44726 0.58569 0.0
C1095 C 0.96226 0.4138 0.57234 0.0
C1096 C 0.03592 0.39017 0.53374 0.0
O1097 O 0.07988 0.43143 0.58669 0.0
O1098 O 0.08142 0.44396 0.63833 0.0
C1099 C 0.01243 0.51904 0.59084 0.0
O1100 O -0.00663 0.41667 0.57131 0.0
O1101 O 0.95054 0.38543 0.56688 0.0
O1102 O 0.02408 0.36166 0.52948 0.0
O1103 O 0.02454 0.40642 0.55773 0.0
O1104 O 0.02606 0.51776 0.61901 0.0
O1105 O 0.01678 0.49525 0.57077 0.0
O1106 O 0.04973 0.48457 0.55077 0.0
O1107 O 0.09576 0.49879 0.57564 0.0
C1108 C 0.0789 0.49686 0.5495 0.0
O1109 O 0.00751 0.43037 0.63214 0.0
O1110 O 0.01881 0.38049 0.61469 0.0
C1111 C 0.09491 0.43008 0.61375 0.0
C1112 C 0.00367 0.39886 0.63534 0.0
Zn1113 Zn 0.61734 0.74421 0.822 0.0
Zn1114 Zn 0.4875 0.81832 0.86706 0.0
Zn1115 Zn 0.52853 0.78197 0.83569 0.0
C1116 C 0.47892 0.82891 0.79951 0.0
C1117 C 0.45675 0.76243 0.84083 0.0
O1118 O 0.54541 0.75751 0.88214 0.0
O1119 O 0.59527 0.76881 0.86468 0.0
C1120 C 0.58562 0.78594 0.78375 0.0
O1121 O 0.49122 0.79974 0.80078 0.0
O1122 O 0.47698 0.84576 0.82565 0.0
O1123 O 0.45802 0.77606 0.869 0.0
O1124 O 0.48054 0.76678 0.82076 0.0
O1125 O 0.61413 0.7741 0.77948 0.0
O1126 O 0.56937 0.77455 0.80772 0.0
O1127 O 0.55911 0.74338 0.8213 0.0
O1128 O 0.59035 0.70055 0.81686 0.0
C1129 C 0.56198 0.71227 0.82231 0.0
O1130 O 0.54434 0.82988 0.83668 0.0
O1131 O 0.53184 0.83142 0.8883 0.0
C1132 C 0.57692 0.75365 0.88534 0.0
C1133 C 0.5457 0.84494 0.86373 0.0
Zn1134 Zn 0.15747 0.2375 0.11706 0.0
Zn1135 Zn 0.23159 0.36734 0.07199 0.0
Zn1136 Zn 0.19382 0.27853 0.08569 0.0
C1137 C 0.26353 0.31197 0.07232 0.0
C1138 C 0.18986 0.33561 0.03374 0.0
O1139 O 0.14591 0.29435 0.08669 0.0
O1140 O 0.14436 0.28182 0.13832 0.0
C1141 C 0.21335 0.20675 0.09084 0.0
O1142 O 0.23242 0.30911 0.07131 0.0
O1143 O 0.27525 0.34035 0.06687 0.0
O1144 O 0.20171 0.36412 0.02947 0.0
O1145 O 0.20125 0.31937 0.05772 0.0
O1146 O 0.19972 0.20802 0.119 0.0
O1147 O 0.20901 0.23054 0.07076 0.0
O1148 O 0.17605 0.24122 0.05077 0.0
O1149 O 0.13002 0.22699 0.07564 0.0
C1150 C 0.14688 0.22893 0.04951 0.0
O1151 O 0.21828 0.29541 0.13213 0.0
O1152 O 0.20698 0.34529 0.11468 0.0
C1153 C 0.13087 0.2957 0.11375 0.0
C1154 C 0.22212 0.32692 0.13533 0.0
Zn1155 Zn 0.60845 0.98159 0.322 0.0
Zn1156 Zn 0.73829 0.90748 0.36706 0.0
Zn1157 Zn 0.69726 0.94383 0.33569 0.0
C1158 C 0.74687 0.89688 0.29951 0.0
C1159 C 0.76904 0.96336 0.34084 0.0
O1160 O 0.68038 0.96828 0.38214 0.0
O1161 O 0.63052 0.95699 0.36468 0.0
C1162 C 0.64017 0.93986 0.28374 0.0
O1163 O 0.73457 0.92605 0.30078 0.0
O1164 O 0.74881 0.88003 0.32565 0.0
O1165 O 0.76777 0.94973 0.36901 0.0
O1166 O 0.74525 0.95901 0.32076 0.0
O1167 O 0.61166 0.9517 0.27948 0.0
O1168 O 0.65642 0.95125 0.30772 0.0
O1169 O 0.66668 0.98242 0.3213 0.0
O1170 O 0.63544 0.02525 0.31686 0.0
C1171 C 0.66382 0.01353 0.32231 0.0
O1172 O 0.68145 0.89591 0.33668 0.0
O1173 O 0.69395 0.89437 0.3883 0.0
C1174 C 0.64887 0.97214 0.38534 0.0
C1175 C 0.68009 0.88086 0.36373 0.0
Zn1176 Zn 0.15379 0.49419 0.86734 0.0
Zn1177 Zn 0.10873 0.56831 0.7375 0.0
Zn1178 Zn 0.1401 0.53197 0.77853 0.0
C1179 C 0.17629 0.5789 0.72892 0.0
C1180 C 0.13495 0.51243 0.70675 0.0
O1181 O 0.09366 0.50751 0.79541 0.0
O1182 O 0.11111 0.5188 0.84529 0.0
C1183 C 0.19205 0.53592 0.83561 0.0
O1184 O 0.17502 0.54974 0.74122 0.0
O1185 O 0.15015 0.59576 0.72699 0.0
O1186 O 0.10678 0.52606 0.70802 0.0
O1187 O 0.15503 0.51678 0.73054 0.0
O1188 O 0.19632 0.52407 0.86412 0.0
O1189 O 0.16807 0.52453 0.81937 0.0
O1190 O 0.15448 0.49336 0.80911 0.0
O1191 O 0.15891 0.45054 0.84035 0.0
C1192 C 0.15346 0.46226 0.81197 0.0
O1193 O 0.1391 0.57988 0.79435 0.0
O1194 O 0.08747 0.58142 0.78182 0.0
C1195 C 0.09046 0.50366 0.82692 0.0
C1196 C 0.11204 0.59491 0.7957 0.0
Zn1197 Zn 0.4816 0.90379 0.11734 0.0
Zn1198 Zn 0.40749 0.85872 0.9875 0.0
Zn1199 Zn 0.44383 0.89009 0.02853 0.0
C1200 C 0.39689 0.92627 0.97892 0.0
C1201 C 0.46338 0.88495 0.95675 0.0
O1202 O 0.46829 0.84365 0.04541 0.0
O1203 O 0.45699 0.86111 0.09527 0.0
C1204 C 0.43986 0.94204 0.08562 0.0
O1205 O 0.42606 0.92501 -0.00878 0.0
O1206 O 0.38004 0.90013 0.97698 0.0
O1207 O 0.44975 0.85678 0.95803 0.0
O1208 O 0.45902 0.90502 0.98054 0.0
O1209 O 0.45171 0.94631 0.11413 0.0
O1210 O 0.45125 0.91807 0.06937 0.0
O1211 O 0.48242 0.90449 0.05911 0.0
O1212 O 0.52526 0.90893 0.09035 0.0
C1213 C 0.51353 0.90347 0.06198 0.0
O1214 O 0.39592 0.88911 0.04434 0.0
O1215 O 0.39438 0.83748 0.03184 0.0
C1216 C 0.47215 0.84045 0.07692 0.0
C1217 C 0.38086 0.86206 0.0457 0.0
Zn1218 Zn 0.11706 0.15747 0.23749 0.0
Zn1219 Zn 0.072 0.23159 0.36733 0.0
Zn1220 Zn 0.08569 0.19382 0.27852 0.0
C1221 C 0.07232 0.26352 0.31197 0.0
C1222 C 0.03375 0.18986 0.33561 0.0
O1223 O 0.08669 0.14591 0.29434 0.0
O1224 O 0.13833 0.14436 0.28181 0.0
C1225 C 0.09083 0.21335 0.20674 0.0
O1226 O 0.0713 0.23241 0.3091 0.0
O1227 O 0.06687 0.27524 0.34034 0.0
O1228 O 0.02948 0.2017 0.36412 0.0
O1229 O 0.05772 0.20124 0.31936 0.0
O1230 O 0.119 0.19973 0.20801 0.0
O1231 O 0.07076 0.20901 0.23053 0.0
O1232 O 0.05077 0.17605 0.24121 0.0
O1233 O 0.07565 0.13002 0.22698 0.0
C1234 C 0.04951 0.14688 0.22892 0.0
O1235 O 0.13214 0.21828 0.2954 0.0
O1236 O 0.11469 0.20698 0.34528 0.0
C1237 C 0.11375 0.13087 0.29569 0.0
C1238 C 0.13533 0.22212 0.32691 0.0
Zn1239 Zn 0.74421 0.822 0.61734 0.0
Zn1240 Zn 0.81831 0.86706 0.48751 0.0
Zn1241 Zn 0.78197 0.83569 0.52853 0.0
C1242 C 0.8289 0.79951 0.47892 0.0
C1243 C 0.76242 0.84084 0.45675 0.0
O1244 O 0.75751 0.88214 0.54542 0.0
O1245 O 0.76881 0.86468 0.59527 0.0
C1246 C 0.78594 0.78375 0.58562 0.0
O1247 O 0.79974 0.80078 0.49122 0.0
O1248 O 0.84576 0.82565 0.47698 0.0
O1249 O 0.77605 0.86901 0.45803 0.0
O1250 O 0.76677 0.82076 0.48054 0.0
O1251 O 0.77409 0.77948 0.61412 0.0
O1252 O 0.77455 0.80772 0.56937 0.0
O1253 O 0.74338 0.8213 0.55911 0.0
O1254 O 0.70054 0.81686 0.59036 0.0
C1255 C 0.71227 0.82233 0.56198 0.0
O1256 O 0.82988 0.83668 0.54434 0.0
O1257 O 0.83142 0.8883 0.53184 0.0
C1258 C 0.75365 0.88534 0.57692 0.0
C1259 C 0.84493 0.86373 0.5457 0.0
Zn1260 Zn 0.1538 0.73158 0.35844 0.0
Zn1261 Zn 0.10873 0.65747 0.48828 0.0
Zn1262 Zn 0.1401 0.69382 0.44725 0.0
C1263 C 0.17628 0.64688 0.49686 0.0
C1264 C 0.13495 0.71335 0.51903 0.0
O1265 O 0.09366 0.71828 0.43037 0.0
O1266 O 0.11111 0.70698 0.38051 0.0
C1267 C 0.19205 0.68985 0.39016 0.0
O1268 O 0.17502 0.67605 0.48456 0.0
O1269 O 0.15015 0.63003 0.49879 0.0
O1270 O 0.10678 0.69973 0.51776 0.0
O1271 O 0.15503 0.70901 0.49524 0.0
O1272 O 0.19631 0.7017 0.36165 0.0
O1273 O 0.16807 0.70124 0.40641 0.0
O1274 O 0.1545 0.73241 0.41667 0.0
O1275 O 0.15893 0.77524 0.38543 0.0
C1276 C 0.15348 0.76352 0.41381 0.0
O1277 O 0.1391 0.64591 0.43143 0.0
O1278 O 0.08747 0.64436 0.44396 0.0
C1279 C 0.09046 0.72214 0.39886 0.0
C1280 C 0.11204 0.63087 0.43008 0.0
Zn1281 Zn 0.31831 0.85873 0.73828 0.0
Zn1282 Zn 0.2442 0.90379 0.60844 0.0
Zn1283 Zn 0.28197 0.89009 0.69726 0.0
C1284 C 0.21227 0.90345 0.6638 0.0
C1285 C 0.28593 0.94204 0.64017 0.0
O1286 O 0.32988 0.88911 0.68145 0.0
O1287 O 0.33143 0.83749 0.69395 0.0
C1288 C 0.26242 0.88495 0.76904 0.0
O1289 O 0.24338 0.90448 0.66667 0.0
O1290 O 0.20054 0.90891 0.63543 0.0
O1291 O 0.27408 0.94631 0.61166 0.0
O1292 O 0.27455 0.91806 0.65642 0.0
O1293 O 0.27605 0.85678 0.76776 0.0
O1294 O 0.26677 0.90502 0.74525 0.0
O1295 O 0.29974 0.92501 0.73457 0.0
O1296 O 0.34576 0.90014 0.7488 0.0
C1297 C 0.3289 0.92628 0.74687 0.0
O1298 O 0.25751 0.84365 0.68037 0.0
O1299 O 0.26881 0.8611 0.63049 0.0
C1300 C 0.34494 0.86206 0.68009 0.0
C1301 C 0.25367 0.84045 0.64886 0.0
Zn1302 Zn 0.11706 0.06832 -0.01172 0.0
Zn1303 Zn 0.07199 -0.00581 0.85845 0.0
Zn1304 Zn 0.08569 0.03197 0.94726 0.0
C1305 C 0.07233 0.96226 0.91381 0.0
C1306 C 0.03374 0.03592 0.89017 0.0
O1307 O 0.08668 0.07987 0.93143 0.0
O1308 O 0.13832 0.08142 0.94395 0.0
C1309 C 0.09084 0.01244 0.01903 0.0
O1310 O 0.0713 -0.00663 0.91667 0.0
O1311 O 0.06687 0.95053 0.88543 0.0
O1312 O 0.02947 0.02408 0.86166 0.0
O1313 O 0.05772 0.02454 0.90642 0.0
O1314 O 0.11901 0.02606 0.01776 0.0
O1315 O 0.07077 0.01678 -0.00475 0.0
O1316 O 0.05078 0.04974 0.98456 0.0
O1317 O 0.07565 0.09576 -0.00121 0.0
C1318 C 0.04951 0.07891 -0.00314 0.0
O1319 O 0.13214 0.00751 0.93037 0.0
O1320 O 0.11468 0.0188 0.88051 0.0
C1321 C 0.11374 0.09491 0.93008 0.0
C1322 C 0.13534 0.00365 0.89886 0.0
Zn1323 Zn 0.98159 0.822 0.10845 0.0
Zn1324 Zn 0.90749 0.86707 0.23829 0.0
Zn1325 Zn 0.94383 0.8357 0.19726 0.0
C1326 C 0.89689 0.79952 0.24687 0.0
C1327 C 0.96338 0.84084 0.26904 0.0
O1328 O 0.96829 0.88215 0.18038 0.0
O1329 O 0.95699 0.86469 0.1305 0.0
C1330 C 0.93986 0.78375 0.14017 0.0
O1331 O 0.92606 0.80078 0.23457 0.0
O1332 O 0.88004 0.82566 0.24881 0.0
O1333 O 0.94975 0.86901 0.26776 0.0
O1334 O 0.95902 0.82077 0.24525 0.0
O1335 O 0.95171 0.77949 0.11166 0.0
O1336 O 0.95125 0.80773 0.15642 0.0
O1337 O 0.98242 0.82131 0.16668 0.0
O1338 O 0.02525 0.81688 0.13544 0.0
C1339 C 0.01353 0.82232 0.16381 0.0
O1340 O 0.89592 0.83668 0.18145 0.0
O1341 O 0.89437 0.8883 0.19395 0.0
C1342 C 0.97213 0.88534 0.14887 0.0
C1343 C 0.88086 0.86373 0.18009 0.0
Zn1344 Zn 0.36734 0.65378 0.49419 0.0
Zn1345 Zn 0.2375 0.60872 0.56831 0.0
Zn1346 Zn 0.27853 0.64009 0.53196 0.0
C1347 C 0.22892 0.67627 0.5789 0.0
C1348 C 0.20675 0.63495 0.51242 0.0
O1349 O 0.29541 0.59364 0.50751 0.0
O1350 O 0.34527 0.6111 0.51879 0.0
C1351 C 0.33563 0.69204 0.53593 0.0
O1352 O 0.24122 0.675 0.54974 0.0
O1353 O 0.22698 0.65013 0.59575 0.0
O1354 O 0.20803 0.60678 0.52605 0.0
O1355 O 0.23054 0.65502 0.51677 0.0
O1356 O 0.36414 0.6963 0.52408 0.0
O1357 O 0.31938 0.66806 0.52454 0.0
O1358 O 0.30911 0.65449 0.49337 0.0
O1359 O 0.34035 0.65892 0.45054 0.0
C1360 C 0.31198 0.65347 0.46226 0.0
O1361 O 0.29434 0.63911 0.57987 0.0
O1362 O 0.28184 0.58749 0.58141 0.0
C1363 C 0.32692 0.59044 0.50364 0.0
C1364 C 0.2957 0.61206 0.59493 0.0
Zn1365 Zn 0.86734 0.57201 0.23159 0.0
Zn1366 Zn 0.73751 0.61706 0.15748 0.0
Zn1367 Zn 0.77853 0.5857 0.19383 0.0
C1368 C 0.72892 0.54951 0.14689 0.0
C1369 C 0.70676 0.59084 0.21337 0.0
O1370 O 0.79542 0.63215 0.21828 0.0
O1371 O 0.84528 0.61469 0.20699 0.0
C1372 C 0.83562 0.53375 0.18986 0.0
O1373 O 0.74122 0.55078 0.17606 0.0
O1374 O 0.72698 0.57565 0.13004 0.0
O1375 O 0.70803 0.61901 0.19975 0.0
O1376 O 0.73055 0.57077 0.20902 0.0
O1377 O 0.86413 0.52949 0.20171 0.0
O1378 O 0.81938 0.55773 0.20125 0.0
O1379 O 0.80912 0.57131 0.23242 0.0
O1380 O 0.84036 0.56687 0.27525 0.0
C1381 C 0.81198 0.57233 0.26353 0.0
O1382 O 0.79434 0.58668 0.14591 0.0
O1383 O 0.78184 0.63831 0.14437 0.0
C1384 C 0.82693 0.63535 0.22214 0.0
C1385 C 0.7957 0.61373 0.13085 0.0
Zn1386 Zn 0.35874 0.48749 0.40747 0.0
Zn1387 Zn 0.40379 0.61733 0.48158 0.0
Zn1388 Zn 0.3901 0.52852 0.44382 0.0
C1389 C 0.40346 0.56197 0.51352 0.0
C1390 C 0.44204 0.58561 0.43985 0.0
O1391 O 0.38912 0.54433 0.39591 0.0
O1392 O 0.33749 0.53183 0.39436 0.0
C1393 C 0.38496 0.45674 0.46335 0.0
O1394 O 0.40448 0.55911 0.48241 0.0
O1395 O 0.40891 0.59035 0.52524 0.0
O1396 O 0.44631 0.61412 0.4517 0.0
O1397 O 0.41806 0.56936 0.45124 0.0
O1398 O 0.35679 0.45801 0.44973 0.0
O1399 O 0.40503 0.48053 0.45901 0.0
O1400 O 0.42502 0.49121 0.42605 0.0
O1401 O 0.40015 0.47698 0.38003 0.0
C1402 C 0.42629 0.47891 0.39688 0.0
O1403 O 0.34365 0.5454 0.46827 0.0
O1404 O 0.3611 0.59528 0.45698 0.0
C1405 C 0.36207 0.54569 0.38085 0.0
C1406 C 0.34045 0.57691 0.47212 0.0
Zn1407 Zn 0.48829 0.10872 0.65748 0.0
Zn1408 Zn 0.35845 0.15379 0.73158 0.0
Zn1409 Zn 0.44727 0.14009 0.69382 0.0
C1410 C 0.41382 0.15348 0.76352 0.0
C1411 C 0.39017 0.19204 0.68985 0.0
O1412 O 0.43145 0.13911 0.64591 0.0
O1413 O 0.44396 0.08749 0.64436 0.0
C1414 C 0.51904 0.13495 0.71337 0.0
O1415 O 0.41668 0.15449 0.73241 0.0
O1416 O 0.38544 0.15893 0.77524 0.0
O1417 O 0.36167 0.19631 0.7017 0.0
O1418 O 0.40642 0.16806 0.70124 0.0
O1419 O 0.51776 0.10678 0.69974 0.0
O1420 O 0.49525 0.15502 0.70902 0.0
O1421 O 0.48458 0.175 0.67605 0.0
O1422 O 0.49881 0.15013 0.63003 0.0
C1423 C 0.49688 0.17627 0.64688 0.0
O1424 O 0.43038 0.09364 0.71828 0.0
O1425 O 0.38052 0.1111 0.70699 0.0
C1426 C 0.43009 0.11206 0.63085 0.0
C1427 C 0.39887 0.09045 0.72214 0.0
Zn1428 Zn 0.36707 0.73828 0.90747 0.0
Zn1429 Zn 0.322 0.60844 0.98158 0.0
Zn1430 Zn 0.3357 0.69725 0.94382 0.0
C1431 C 0.32232 0.66381 0.01352 0.0
C1432 C 0.28375 0.64017 0.93985 0.0
O1433 O 0.33669 0.68143 0.89591 0.0
O1434 O 0.38833 0.69395 0.89436 0.0
C1435 C 0.34085 0.76903 0.96336 0.0
O1436 O 0.3213 0.66667 0.98241 0.0
O1437 O 0.31687 0.63543 0.02524 0.0
O1438 O 0.27948 0.61166 0.95169 0.0
O1439 O 0.30773 0.65641 0.95124 0.0
O1440 O 0.36902 0.76775 0.94973 0.0
O1441 O 0.32078 0.74524 0.95901 0.0
O1442 O 0.30079 0.73456 0.92605 0.0
O1443 O 0.32566 0.74879 0.88002 0.0
C1444 C 0.29952 0.74686 0.89688 0.0
O1445 O 0.38215 0.68037 0.96827 0.0
O1446 O 0.36469 0.63051 0.95698 0.0
C1447 C 0.36375 0.68008 0.88087 0.0
C1448 C 0.38535 0.64886 0.97214 0.0
Zn1449 Zn -0.01171 0.61706 0.56832 0.0
Zn1450 Zn 0.85846 0.57199 0.4942 0.0
Zn1451 Zn 0.94727 0.58569 0.53196 0.0
C1452 C 0.91382 0.57231 0.46226 0.0
C1453 C 0.89018 0.53375 0.53593 0.0
O1454 O 0.93145 0.58668 0.57987 0.0
O1455 O 0.94396 0.6383 0.58142 0.0
C1456 C 0.01905 0.59084 0.51243 0.0
O1457 O 0.91669 0.5713 0.49337 0.0
O1458 O 0.88544 0.56686 0.45054 0.0
O1459 O 0.86167 0.52947 0.52409 0.0
O1460 O 0.90643 0.55772 0.52454 0.0
O1461 O 0.01777 0.61901 0.52606 0.0
O1462 O -0.00474 0.57077 0.51678 0.0
O1463 O 0.98458 0.55078 0.54974 0.0
O1464 O -0.00119 0.57565 0.59576 0.0
C1465 C -0.00312 0.54951 0.5789 0.0
O1466 O 0.93038 0.63214 0.50751 0.0
O1467 O 0.88052 0.61468 0.5188 0.0
C1468 C 0.93009 0.61373 0.59493 0.0
C1469 C 0.89887 0.63534 0.50365 0.0
Zn1470 Zn 0.35872 0.23827 0.31831 0.0
Zn1471 Zn 0.40379 0.10844 0.2442 0.0
Zn1472 Zn 0.39009 0.19725 0.28196 0.0
C1473 C 0.40347 0.1638 0.21226 0.0
C1474 C 0.44204 0.14016 0.28593 0.0
O1475 O 0.3891 0.18143 0.32987 0.0
O1476 O 0.33746 0.19395 0.33141 0.0
C1477 C 0.38495 0.26903 0.26242 0.0
O1478 O 0.40449 0.16667 0.24336 0.0
O1479 O 0.40892 0.13542 0.20054 0.0
O1480 O 0.44631 0.11165 0.27408 0.0
O1481 O 0.41807 0.15641 0.27454 0.0
O1482 O 0.35678 0.26775 0.27604 0.0
O1483 O 0.40502 0.24524 0.26677 0.0
O1484 O 0.42501 0.23456 0.29973 0.0
O1485 O 0.40013 0.24879 0.34575 0.0
C1486 C 0.42627 0.24686 0.3289 0.0
O1487 O 0.34365 0.18037 0.2575 0.0
O1488 O 0.3611 0.13051 0.2688 0.0
C1489 C 0.36204 0.18008 0.3449 0.0
C1490 C 0.34045 0.14886 0.25364 0.0
Zn1491 Zn 0.822 0.61734 0.7442 0.0
Zn1492 Zn 0.86706 0.4875 0.81831 0.0
Zn1493 Zn 0.8357 0.52853 0.78196 0.0
C1494 C 0.79952 0.47892 0.8289 0.0
C1495 C 0.84085 0.45675 0.76242 0.0
O1496 O 0.88215 0.54541 0.7575 0.0
O1497 O 0.86469 0.59527 0.7688 0.0
C1498 C 0.78375 0.58561 0.78594 0.0
O1499 O 0.80078 0.49122 0.79973 0.0
O1500 O 0.82565 0.47699 0.84576 0.0
O1501 O 0.86901 0.45802 0.77605 0.0
O1502 O 0.82077 0.48054 0.76677 0.0
O1503 O 0.77948 0.61412 0.77409 0.0
O1504 O 0.80773 0.56937 0.77455 0.0
O1505 O 0.8213 0.55911 0.74337 0.0
O1506 O 0.81687 0.59035 0.70054 0.0
C1507 C 0.82232 0.56198 0.71226 0.0
O1508 O 0.83668 0.54434 0.82987 0.0
O1509 O 0.88831 0.53184 0.83142 0.0
C1510 C 0.88535 0.57692 0.75365 0.0
C1511 C 0.86373 0.5457 0.84493 0.0
Zn1512 Zn 0.90748 0.23828 0.36707 0.0
Zn1513 Zn 0.9816 0.10844 0.32199 0.0
Zn1514 Zn 0.94382 0.19725 0.33569 0.0
C1515 C 0.01353 0.16381 0.32232 0.0
C1516 C 0.93986 0.14016 0.28374 0.0
O1517 O 0.89591 0.18143 0.33669 0.0
O1518 O 0.89437 0.19395 0.38832 0.0
C1519 C 0.96337 0.26903 0.34084 0.0
O1520 O 0.98242 0.16667 0.3213 0.0
O1521 O 0.02526 0.13543 0.31686 0.0
O1522 O 0.95171 0.11165 0.27947 0.0
O1523 O 0.95125 0.15641 0.30772 0.0
O1524 O 0.94974 0.26775 0.36901 0.0
O1525 O 0.95901 0.24524 0.32077 0.0
O1526 O 0.92605 0.23456 0.30078 0.0
O1527 O 0.88003 0.24879 0.32566 0.0
C1528 C 0.89688 0.24686 0.29952 0.0
O1529 O 0.96828 0.18037 0.38214 0.0
O1530 O 0.95699 0.13051 0.36468 0.0
C1531 C 0.88088 0.18008 0.36375 0.0
C1532 C 0.97214 0.14886 0.38534 0.0
Zn1533 Zn 0.7375 0.15749 0.11706 0.0
Zn1534 Zn 0.86734 0.23159 0.07201 0.0
Zn1535 Zn 0.77852 0.19383 0.0857 0.0
C1536 C 0.81198 0.26353 0.07234 0.0
C1537 C 0.83562 0.18987 0.03375 0.0
O1538 O 0.79433 0.14592 0.08668 0.0
O1539 O 0.78183 0.14437 0.1383 0.0
C1540 C 0.70675 0.21337 0.09084 0.0
O1541 O 0.80911 0.23242 0.07131 0.0
O1542 O 0.84035 0.27526 0.06688 0.0
O1543 O 0.86413 0.20171 0.02949 0.0
O1544 O 0.81937 0.20125 0.05773 0.0
O1545 O 0.70802 0.19975 0.11901 0.0
O1546 O 0.73053 0.20902 0.07077 0.0
O1547 O 0.74121 0.17606 0.05078 0.0
O1548 O 0.72697 0.13004 0.07565 0.0
C1549 C 0.72891 0.14689 0.04951 0.0
O1550 O 0.79541 0.21828 0.13214 0.0
O1551 O 0.84529 0.20698 0.11469 0.0
C1552 C 0.79569 0.13086 0.11373 0.0
C1553 C 0.82691 0.22212 0.13534 0.0
Zn1554 Zn 0.7442 0.11735 0.822 0.0
Zn1555 Zn 0.81831 0.98751 0.86707 0.0
Zn1556 Zn 0.78196 0.02854 0.8357 0.0
C1557 C 0.8289 0.97893 0.79951 0.0
C1558 C 0.76242 0.95676 0.84084 0.0
O1559 O 0.75751 0.04542 0.88214 0.0
O1560 O 0.7688 0.09528 0.86469 0.0
C1561 C 0.78593 0.08562 0.78375 0.0
O1562 O 0.79973 -0.00877 0.80078 0.0
O1563 O 0.84576 0.977 0.82565 0.0
O1564 O 0.77605 0.95804 0.86901 0.0
O1565 O 0.76677 0.98055 0.82077 0.0
O1566 O 0.77409 0.11413 0.77948 0.0
O1567 O 0.77454 0.06938 0.80773 0.0
O1568 O 0.74337 0.05912 0.8213 0.0
O1569 O 0.70054 0.09037 0.81687 0.0
C1570 C 0.71226 0.06199 0.82232 0.0
O1571 O 0.82987 0.04436 0.83669 0.0
O1572 O 0.83142 0.03184 0.88833 0.0
C1573 C 0.75365 0.07693 0.88534 0.0
C1574 C 0.84491 0.04571 0.86375 0.0
Zn1575 Zn 0.85845 -0.0058 0.572 0.0
Zn1576 Zn -0.01171 0.06831 0.61706 0.0
Zn1577 Zn 0.94727 0.03196 0.58569 0.0
C1578 C -0.00312 0.0789 0.54951 0.0
C1579 C 0.01904 0.01242 0.59083 0.0
O1580 O 0.93039 0.00751 0.63214 0.0
O1581 O 0.88051 0.01881 0.61469 0.0
C1582 C 0.89017 0.03593 0.53375 0.0
O1583 O 0.98458 0.04974 0.55078 0.0
O1584 O -0.00119 0.09576 0.57565 0.0
O1585 O 0.01776 0.02605 0.619 0.0
O1586 O -0.00475 0.01677 0.57076 0.0
O1587 O 0.86166 0.02409 0.52949 0.0
O1588 O 0.90642 0.02455 0.55773 0.0
O1589 O 0.91668 -0.00663 0.5713 0.0
O1590 O 0.88544 0.95054 0.56688 0.0
C1591 C 0.91382 0.96227 0.57232 0.0
O1592 O 0.93145 0.07988 0.58668 0.0
O1593 O 0.94396 0.08142 0.6383 0.0
C1594 C 0.89888 0.00367 0.63534 0.0
C1595 C 0.93009 0.09493 0.61372 0.0
Zn1596 Zn 0.90748 0.48751 0.35873 0.0
Zn1597 Zn 0.98159 0.61734 0.40379 0.0
Zn1598 Zn 0.94382 0.52853 0.39009 0.0
C1599 C 0.01353 0.56199 0.40345 0.0
C1600 C 0.93986 0.58561 0.44204 0.0
O1601 O 0.89591 0.54436 0.3891 0.0
O1602 O 0.89437 0.53183 0.33746 0.0
C1603 C 0.96336 0.45675 0.38495 0.0
O1604 O 0.98242 0.55912 0.40447 0.0
O1605 O 0.02525 0.59036 0.40891 0.0
O1606 O 0.95171 0.61412 0.44631 0.0
O1607 O 0.95125 0.56937 0.41806 0.0
O1608 O 0.94973 0.45802 0.35678 0.0
O1609 O 0.95901 0.48054 0.40502 0.0
O1610 O 0.92606 0.49122 0.42501 0.0
O1611 O 0.88003 0.477 0.40015 0.0
C1612 C 0.89689 0.47893 0.42628 0.0
O1613 O 0.96828 0.54542 0.34365 0.0
O1614 O 0.95699 0.5953 0.3611 0.0
C1615 C 0.88088 0.54571 0.36204 0.0
C1616 C 0.97213 0.57693 0.34045 0.0
Zn1617 Zn 0.48829 0.15747 0.10873 0.0
Zn1618 Zn 0.35845 0.23158 0.15379 0.0
Zn1619 Zn 0.44727 0.19382 0.14009 0.0
C1620 C 0.41381 0.26352 0.15347 0.0
C1621 C 0.39018 0.18984 0.19204 0.0
O1622 O 0.43145 0.14591 0.13911 0.0
O1623 O 0.44396 0.14436 0.08749 0.0
C1624 C 0.51904 0.21336 0.13495 0.0
O1625 O 0.41668 0.23241 0.15449 0.0
O1626 O 0.38544 0.27524 0.15892 0.0
O1627 O 0.36167 0.20169 0.19631 0.0
O1628 O 0.40642 0.20123 0.16806 0.0
O1629 O 0.51777 0.19973 0.10678 0.0
O1630 O 0.49525 0.20901 0.15502 0.0
O1631 O 0.48457 0.17605 0.17501 0.0
O1632 O 0.49881 0.13003 0.15014 0.0
C1633 C 0.49687 0.14688 0.17628 0.0
O1634 O 0.43038 0.21828 0.09364 0.0
O1635 O 0.38052 0.20698 0.1111 0.0
C1636 C 0.43009 0.13085 0.11206 0.0
C1637 C 0.39887 0.22214 0.09044 0.0
Zn1638 Zn 0.7442 0.60845 0.90379 0.0
Zn1639 Zn 0.81832 0.73829 0.85873 0.0
Zn1640 Zn 0.78197 0.69726 0.8901 0.0
C1641 C 0.82891 0.74686 0.92628 0.0
C1642 C 0.76244 0.76904 0.88495 0.0
O1643 O 0.75751 0.68038 0.84365 0.0
O1644 O 0.76881 0.6305 0.8611 0.0
C1645 C 0.78593 0.64018 0.94204 0.0
O1646 O 0.79974 0.73457 0.92501 0.0
O1647 O 0.84577 0.74879 0.90014 0.0
O1648 O 0.77607 0.76777 0.85678 0.0
O1649 O 0.76678 0.74525 0.90502 0.0
O1650 O 0.77408 0.61167 0.94631 0.0
O1651 O 0.77454 0.65642 0.91806 0.0
O1652 O 0.74337 0.66668 0.90448 0.0
O1653 O 0.70054 0.63544 0.90891 0.0
C1654 C 0.71226 0.66382 0.90346 0.0
O1655 O 0.82988 0.68144 0.8891 0.0
O1656 O 0.83143 0.69397 0.83746 0.0
C1657 C 0.75367 0.64887 0.84045 0.0
C1658 C 0.84492 0.68009 0.86204 0.0
Zn1659 Zn 0.36734 -0.00581 0.65379 0.0
Zn1660 Zn 0.2375 0.06831 0.60873 0.0
Zn1661 Zn 0.27853 0.03196 0.6401 0.0
C1662 C 0.22892 0.07891 0.67628 0.0
C1663 C 0.20675 0.01243 0.63495 0.0
O1664 O 0.29542 0.00751 0.59365 0.0
O1665 O 0.34527 0.0188 0.61111 0.0
C1666 C 0.33562 0.03593 0.69204 0.0
O1667 O 0.24122 0.04974 0.67501 0.0
O1668 O 0.22698 0.09576 0.65014 0.0
O1669 O 0.20803 0.02606 0.60678 0.0
O1670 O 0.23054 0.01678 0.65502 0.0
O1671 O 0.36413 0.02408 0.69631 0.0
O1672 O 0.31937 0.02454 0.66807 0.0
O1673 O 0.30911 -0.00663 0.65449 0.0
O1674 O 0.34035 0.95054 0.65892 0.0
C1675 C 0.31198 0.96226 0.65346 0.0
O1676 O 0.29434 0.07988 0.63911 0.0
O1677 O 0.28184 0.08142 0.58749 0.0
C1678 C 0.32692 0.00365 0.59045 0.0
C1679 C 0.2957 0.09493 0.61206 0.0
Zn1680 Zn 0.86706 0.40747 0.23828 0.0
Zn1681 Zn 0.82199 0.4816 0.10845 0.0
Zn1682 Zn 0.83569 0.44382 0.19726 0.0
C1683 C 0.82234 0.51353 0.16381 0.0
C1684 C 0.78374 0.43987 0.14017 0.0
O1685 O 0.83669 0.39591 0.18144 0.0
O1686 O 0.88833 0.39436 0.19396 0.0
C1687 C 0.84084 0.46336 0.26904 0.0
O1688 O 0.82131 0.48242 0.16668 0.0
O1689 O 0.81688 0.52526 0.13544 0.0
O1690 O 0.77947 0.45172 0.11167 0.0
O1691 O 0.80772 0.45126 0.15642 0.0
O1692 O 0.86901 0.44973 0.26777 0.0
O1693 O 0.82077 0.45901 0.24525 0.0
O1694 O 0.80077 0.42605 0.23457 0.0
O1695 O 0.82564 0.38003 0.24879 0.0
C1696 C 0.79951 0.39689 0.24686 0.0
O1697 O 0.88213 0.46828 0.18037 0.0
O1698 O 0.86468 0.45699 0.13049 0.0
C1699 C 0.86375 0.38087 0.18009 0.0
C1700 C 0.88533 0.47213 0.14886 0.0
Zn1701 Zn 0.56831 0.11706 -0.01172 0.0
Zn1702 Zn 0.49419 0.072 0.85845 0.0
Zn1703 Zn 0.53196 0.08569 0.94726 0.0
C1704 C 0.46226 0.07232 0.91381 0.0
C1705 C 0.53593 0.03375 0.89017 0.0
O1706 O 0.57987 0.08668 0.93145 0.0
O1707 O 0.58141 0.1383 0.94395 0.0
C1708 C 0.51242 0.09084 0.01903 0.0
O1709 O 0.49337 0.0713 0.91668 0.0
O1710 O 0.45053 0.06686 0.88544 0.0
O1711 O 0.52408 0.02948 0.86166 0.0
O1712 O 0.52454 0.05772 0.90642 0.0
O1713 O 0.52604 0.11901 0.01776 0.0
O1714 O 0.51677 0.07077 -0.00475 0.0
O1715 O 0.54974 0.05078 0.98457 0.0
O1716 O 0.59575 0.07566 -0.00119 0.0
C1717 C 0.5789 0.04952 -0.00313 0.0
O1718 O 0.5075 0.13214 0.93037 0.0
O1719 O 0.5188 0.11468 0.88052 0.0
C1720 C 0.59493 0.11373 0.93009 0.0
C1721 C 0.50364 0.13534 0.89887 0.0
Zn1722 Zn 0.85873 0.81832 0.73829 0.0
Zn1723 Zn 0.9038 0.7442 0.60845 0.0
Zn1724 Zn 0.8901 0.78197 0.69727 0.0
C1725 C 0.90347 0.71227 0.66382 0.0
C1726 C 0.94204 0.78594 0.64018 0.0
O1727 O 0.8891 0.82988 0.68144 0.0
O1728 O 0.83747 0.83143 0.69397 0.0
C1729 C 0.88496 0.76244 0.76905 0.0
O1730 O 0.90449 0.74338 0.66668 0.0
O1731 O 0.90892 0.70055 0.63544 0.0
O1732 O 0.94632 0.77409 0.61167 0.0
O1733 O 0.91806 0.77455 0.65642 0.0
O1734 O 0.85679 0.77606 0.76778 0.0
O1735 O 0.90503 0.76678 0.74526 0.0
O1736 O 0.92502 0.79974 0.73458 0.0
O1737 O 0.90014 0.84576 0.7488 0.0
C1738 C 0.92628 0.82891 0.74687 0.0
O1739 O 0.84365 0.75751 0.68038 0.0
O1740 O 0.8611 0.76881 0.6305 0.0
C1741 C 0.86204 0.84492 0.6801 0.0
C1742 C 0.84046 0.75366 0.64887 0.0
Zn1743 Zn 0.23159 0.15379 0.35845 0.0
Zn1744 Zn 0.15748 0.10873 0.48828 0.0
Zn1745 Zn 0.19383 0.1401 0.44726 0.0
C1746 C 0.14689 0.17628 0.49687 0.0
C1747 C 0.21337 0.13495 0.51903 0.0
O1748 O 0.21828 0.09365 0.43037 0.0
O1749 O 0.20699 0.11111 0.38051 0.0
C1750 C 0.18985 0.19204 0.39017 0.0
O1751 O 0.17605 0.17501 0.48457 0.0
O1752 O 0.13003 0.15014 0.4988 0.0
O1753 O 0.19974 0.10678 0.51776 0.0
O1754 O 0.20902 0.15502 0.49524 0.0
O1755 O 0.2017 0.19631 0.36166 0.0
O1756 O 0.20124 0.16807 0.40642 0.0
O1757 O 0.23242 0.15449 0.41667 0.0
O1758 O 0.27525 0.15893 0.38543 0.0
C1759 C 0.26352 0.15346 0.4138 0.0
O1760 O 0.14591 0.13911 0.43144 0.0
O1761 O 0.14437 0.08749 0.44395 0.0
C1762 C 0.22214 0.09045 0.39886 0.0
C1763 C 0.13086 0.11206 0.43009 0.0
Zn1764 Zn 0.86706 0.31832 0.48751 0.0
Zn1765 Zn 0.82199 0.24421 0.61734 0.0
Zn1766 Zn 0.83569 0.28197 0.52853 0.0
C1767 C 0.82231 0.21227 0.56198 0.0
C1768 C 0.78374 0.28594 0.58563 0.0
O1769 O 0.83669 0.32988 0.54436 0.0
O1770 O 0.88833 0.33143 0.53183 0.0
C1771 C 0.84084 0.26244 0.45675 0.0
O1772 O 0.82129 0.24338 0.55911 0.0
O1773 O 0.81686 0.20055 0.59035 0.0
O1774 O 0.77948 0.27409 0.61413 0.0
O1775 O 0.80772 0.27455 0.56938 0.0
O1776 O 0.86901 0.27606 0.45803 0.0
O1777 O 0.82076 0.26678 0.48054 0.0
O1778 O 0.80077 0.29974 0.49122 0.0
O1779 O 0.82564 0.34576 0.477 0.0
C1780 C 0.79951 0.32891 0.47893 0.0
O1781 O 0.88213 0.25751 0.54542 0.0
O1782 O 0.86468 0.26881 0.59528 0.0
C1783 C 0.86375 0.34492 0.54571 0.0
C1784 C 0.88534 0.25365 0.57692 0.0
Zn1785 Zn 0.65748 0.11706 0.2375 0.0
Zn1786 Zn 0.73158 0.072 0.36734 0.0
Zn1787 Zn 0.69382 0.0857 0.27852 0.0
C1788 C 0.76352 0.07234 0.31198 0.0
C1789 C 0.68986 0.03375 0.33561 0.0
O1790 O 0.64591 0.08668 0.29434 0.0
O1791 O 0.64437 0.1383 0.28183 0.0
C1792 C 0.71337 0.09084 0.20675 0.0
O1793 O 0.73242 0.07131 0.30911 0.0
O1794 O 0.77525 0.06688 0.34036 0.0
O1795 O 0.7017 0.02948 0.36412 0.0
O1796 O 0.70124 0.05773 0.31937 0.0
O1797 O 0.69974 0.11901 0.20803 0.0
O1798 O 0.70902 0.07077 0.23054 0.0
O1799 O 0.67606 0.05078 0.24122 0.0
O1800 O 0.63003 0.07565 0.22698 0.0
C1801 C 0.64689 0.04951 0.22892 0.0
O1802 O 0.71828 0.13214 0.29541 0.0
O1803 O 0.70698 0.11469 0.34529 0.0
C1804 C 0.63085 0.11373 0.2957 0.0
C1805 C 0.72212 0.13534 0.32692 0.0
Zn1806 Zn 0.9038 0.98159 0.11734 0.0
Zn1807 Zn 0.85873 0.90747 0.98751 0.0
Zn1808 Zn 0.8901 0.94382 0.02853 0.0
C1809 C 0.92628 0.89688 0.97893 0.0
C1810 C 0.88495 0.96335 0.95675 0.0
O1811 O 0.84365 0.96828 0.04542 0.0
O1812 O 0.86111 0.95699 0.09528 0.0
C1813 C 0.94205 0.93987 0.08562 0.0
O1814 O 0.92502 0.92605 -0.00878 0.0
O1815 O 0.90014 0.88003 0.977 0.0
O1816 O 0.85678 0.94973 0.95803 0.0
O1817 O 0.90502 0.95901 0.98054 0.0
O1818 O 0.94632 0.95171 0.11412 0.0
O1819 O 0.91807 0.95125 0.06937 0.0
O1820 O 0.90449 0.98242 0.05911 0.0
O1821 O 0.90893 0.02526 0.09036 0.0
C1822 C 0.90346 0.01353 0.06198 0.0
O1823 O 0.88911 0.89592 0.04436 0.0
O1824 O 0.83747 0.89437 0.03184 0.0
C1825 C 0.84045 0.97214 0.07693 0.0
C1826 C 0.86205 0.88088 0.04571 0.0
Zn1827 Zn -0.0058 0.15378 0.86734 0.0
Zn1828 Zn 0.0683 0.10872 0.7375 0.0
Zn1829 Zn 0.03196 0.14009 0.77852 0.0
C1830 C 0.0789 0.17627 0.72891 0.0
C1831 C 0.01241 0.13495 0.70675 0.0
O1832 O 0.00751 0.09364 0.79541 0.0
O1833 O 0.0188 0.1111 0.84529 0.0
C1834 C 0.03593 0.19204 0.83562 0.0
O1835 O 0.04973 0.175 0.74121 0.0
O1836 O 0.09575 0.15013 0.72698 0.0
O1837 O 0.02604 0.10678 0.70803 0.0
O1838 O 0.01677 0.15502 0.73054 0.0
O1839 O 0.02408 0.1963 0.86413 0.0
O1840 O 0.02454 0.16806 0.81937 0.0
O1841 O -0.00663 0.15448 0.80911 0.0
O1842 O 0.95054 0.15891 0.84035 0.0
C1843 C 0.96226 0.15346 0.81198 0.0
O1844 O 0.07987 0.13911 0.79434 0.0
O1845 O 0.08142 0.08748 0.78183 0.0
C1846 C 0.00366 0.09045 0.82692 0.0
C1847 C 0.09493 0.11206 0.79569 0.0
Zn1848 Zn 0.60845 0.32201 0.48159 0.0
Zn1849 Zn 0.73829 0.36707 0.40748 0.0
Zn1850 Zn 0.69726 0.3357 0.44383 0.0
C1851 C 0.74687 0.29952 0.39689 0.0
C1852 C 0.76904 0.34084 0.46337 0.0
O1853 O 0.68038 0.38215 0.46828 0.0
O1854 O 0.63052 0.36469 0.45699 0.0
C1855 C 0.64016 0.28375 0.43986 0.0
O1856 O 0.73457 0.30078 0.42605 0.0
O1857 O 0.74881 0.32566 0.38003 0.0
O1858 O 0.76776 0.36901 0.44974 0.0
O1859 O 0.74525 0.32077 0.45902 0.0
O1860 O 0.61165 0.27949 0.45171 0.0
O1861 O 0.65641 0.30773 0.45124 0.0
O1862 O 0.66668 0.3213 0.48242 0.0
O1863 O 0.63544 0.31687 0.52525 0.0
C1864 C 0.66382 0.32232 0.51353 0.0
O1865 O 0.68145 0.33668 0.39592 0.0
O1866 O 0.69395 0.3883 0.39437 0.0
C1867 C 0.64887 0.38535 0.47214 0.0
C1868 C 0.68009 0.36373 0.38086 0.0
Zn1869 Zn 0.23828 0.35873 0.8183 0.0
Zn1870 Zn 0.10845 0.40378 0.7442 0.0
Zn1871 Zn 0.19726 0.39009 0.78196 0.0
C1872 C 0.16381 0.40346 0.71226 0.0
C1873 C 0.14017 0.44203 0.78593 0.0
O1874 O 0.18145 0.38911 0.82987 0.0
O1875 O 0.19395 0.33748 0.83142 0.0
C1876 C 0.26903 0.38494 0.76241 0.0
O1877 O 0.16667 0.40448 0.74337 0.0
O1878 O 0.13543 0.40892 0.70054 0.0
O1879 O 0.11166 0.4463 0.77408 0.0
O1880 O 0.15642 0.41806 0.77454 0.0
O1881 O 0.26776 0.35678 0.77604 0.0
O1882 O 0.24525 0.40502 0.76677 0.0
O1883 O 0.23457 0.42501 0.79973 0.0
O1884 O 0.24881 0.40014 0.84575 0.0
C1885 C 0.24687 0.42627 0.8289 0.0
O1886 O 0.18037 0.34364 0.75751 0.0
O1887 O 0.13052 0.3611 0.7688 0.0
C1888 C 0.18009 0.36206 0.84493 0.0
C1889 C 0.14887 0.34044 0.75365 0.0
Zn1890 Zn 0.61705 0.48829 0.56832 0.0
Zn1891 Zn 0.572 0.35845 0.4942 0.0
Zn1892 Zn 0.58569 0.44727 0.53197 0.0
C1893 C 0.57233 0.41382 0.46227 0.0
C1894 C 0.53375 0.39018 0.53594 0.0
O1895 O 0.58668 0.43146 0.57988 0.0
O1896 O 0.6383 0.44396 0.58143 0.0
C1897 C 0.59083 0.51905 0.51243 0.0
O1898 O 0.57131 0.41668 0.49338 0.0
O1899 O 0.56688 0.38544 0.45055 0.0
O1900 O 0.52948 0.36167 0.52409 0.0
O1901 O 0.55773 0.40642 0.52455 0.0
O1902 O 0.619 0.51777 0.52606 0.0
O1903 O 0.57076 0.49526 0.51678 0.0
O1904 O 0.55077 0.48458 0.54974 0.0
O1905 O 0.57564 0.49881 0.59576 0.0
C1906 C 0.5495 0.49688 0.57891 0.0
O1907 O 0.63214 0.43038 0.50751 0.0
O1908 O 0.61469 0.3805 0.51881 0.0
C1909 C 0.61372 0.4301 0.59494 0.0
C1910 C 0.63534 0.39888 0.50367 0.0
Zn1911 Zn 0.4875 0.86706 0.31831 0.0
Zn1912 Zn 0.61734 0.822 0.2442 0.0
Zn1913 Zn 0.52852 0.8357 0.28196 0.0
C1914 C 0.56197 0.82231 0.21226 0.0
C1915 C 0.58562 0.78375 0.28593 0.0
O1916 O 0.54434 0.83668 0.32987 0.0
O1917 O 0.53184 0.8883 0.33142 0.0
C1918 C 0.45675 0.84084 0.26242 0.0
O1919 O 0.55911 0.8213 0.24337 0.0
O1920 O 0.59035 0.81686 0.20054 0.0
O1921 O 0.61413 0.77948 0.27409 0.0
O1922 O 0.56937 0.80772 0.27455 0.0
O1923 O 0.45803 0.86901 0.27604 0.0
O1924 O 0.48054 0.82077 0.26677 0.0
O1925 O 0.49122 0.80078 0.29974 0.0
O1926 O 0.47698 0.82566 0.34576 0.0
C1927 C 0.47891 0.79952 0.3289 0.0
O1928 O 0.54541 0.88214 0.25751 0.0
O1929 O 0.59527 0.86468 0.2688 0.0
C1930 C 0.5457 0.86373 0.34493 0.0
C1931 C 0.57692 0.88534 0.25365 0.0
Zn1932 Zn 0.65379 0.36735 -0.00579 0.0
Zn1933 Zn 0.60872 0.23751 0.06832 0.0
Zn1934 Zn 0.64009 0.27854 0.03197 0.0
C1935 C 0.67627 0.22893 0.0789 0.0
C1936 C 0.63494 0.20676 0.01243 0.0
O1937 O 0.59365 0.29542 0.00751 0.0
O1938 O 0.6111 0.34528 0.01881 0.0
C1939 C 0.69204 0.33562 0.03594 0.0
O1940 O 0.67501 0.24123 0.04974 0.0
O1941 O 0.65014 0.227 0.09576 0.0
O1942 O 0.60678 0.20803 0.02606 0.0
O1943 O 0.65502 0.23055 0.01678 0.0
O1944 O 0.69631 0.36413 0.02409 0.0
O1945 O 0.66806 0.31938 0.02455 0.0
O1946 O 0.65449 0.30912 -0.00663 0.0
O1947 O 0.65893 0.34036 0.95055 0.0
C1948 C 0.65347 0.31198 0.96226 0.0
O1949 O 0.6391 0.29436 0.07988 0.0
O1950 O 0.58746 0.28184 0.08142 0.0
C1951 C 0.59045 0.32693 0.00365 0.0
C1952 C 0.61204 0.29571 0.09492 0.0
Zn1953 Zn 0.9875 0.35873 0.40747 0.0
Zn1954 Zn 0.11733 0.4038 0.48159 0.0
Zn1955 Zn 0.02852 0.39009 0.44382 0.0
C1956 C 0.06197 0.40346 0.51353 0.0
C1957 C 0.08561 0.44204 0.43986 0.0
O1958 O 0.04434 0.38911 0.39591 0.0
O1959 O 0.03183 0.33749 0.39437 0.0
C1960 C 0.95674 0.38495 0.46335 0.0
O1961 O 0.0591 0.40449 0.48242 0.0
O1962 O 0.09034 0.40893 0.52525 0.0
O1963 O 0.11412 0.44632 0.45171 0.0
O1964 O 0.06936 0.41807 0.45125 0.0
O1965 O 0.95802 0.35678 0.44973 0.0
O1966 O 0.98054 0.40502 0.45901 0.0
O1967 O -0.00878 0.42501 0.42605 0.0
O1968 O 0.97698 0.40014 0.38002 0.0
C1969 C 0.97892 0.42628 0.39688 0.0
O1970 O 0.04541 0.34365 0.46828 0.0
O1971 O 0.09527 0.36111 0.45699 0.0
C1972 C 0.0457 0.36206 0.38085 0.0
C1973 C 0.07692 0.34045 0.47214 0.0
Zn1974 Zn 0.61707 0.73751 0.65748 0.0
Zn1975 Zn 0.572 0.86735 0.73159 0.0
Zn1976 Zn 0.5857 0.77854 0.69383 0.0
C1977 C 0.57233 0.81199 0.76353 0.0
C1978 C 0.53375 0.83563 0.68986 0.0
O1979 O 0.58669 0.79436 0.64592 0.0
O1980 O 0.63833 0.78184 0.64437 0.0
C1981 C 0.59085 0.70676 0.71337 0.0
O1982 O 0.5713 0.80912 0.73242 0.0
O1983 O 0.56687 0.84036 0.77526 0.0
O1984 O 0.52948 0.86414 0.70171 0.0
O1985 O 0.55772 0.81938 0.70125 0.0
O1986 O 0.61901 0.70804 0.69974 0.0
O1987 O 0.57077 0.73055 0.70902 0.0
O1988 O 0.55079 0.74123 0.67605 0.0
O1989 O 0.57566 0.727 0.63003 0.0
C1990 C 0.54952 0.72893 0.64689 0.0
O1991 O 0.63215 0.79542 0.71828 0.0
O1992 O 0.61469 0.84528 0.70699 0.0
C1993 C 0.61375 0.79571 0.63088 0.0
C1994 C 0.63535 0.82693 0.72214 0.0
Zn1995 Zn 0.10873 0.48828 0.15748 0.0
Zn1996 Zn 0.15379 0.35845 0.23158 0.0
Zn1997 Zn 0.14009 0.44726 0.19383 0.0
C1998 C 0.15347 0.41381 0.26353 0.0
C1999 C 0.19204 0.39017 0.18985 0.0
O2000 O 0.13911 0.43145 0.14591 0.0
O2001 O 0.08748 0.44395 0.14437 0.0
C2002 C 0.13495 0.51904 0.21337 0.0
O2003 O 0.15449 0.41668 0.23242 0.0
O2004 O 0.15892 0.38543 0.27524 0.0
O2005 O 0.19631 0.36167 0.2017 0.0
O2006 O 0.16806 0.40642 0.20124 0.0
O2007 O 0.10678 0.51776 0.19974 0.0
O2008 O 0.15502 0.49525 0.20902 0.0
O2009 O 0.17501 0.48457 0.17605 0.0
O2010 O 0.15014 0.4988 0.13003 0.0
C2011 C 0.17628 0.49687 0.14689 0.0
O2012 O 0.09364 0.43037 0.21828 0.0
O2013 O 0.1111 0.38052 0.20699 0.0
C2014 C 0.11206 0.43009 0.13086 0.0
C2015 C 0.09045 0.39887 0.22214 0.0
Zn2016 Zn 0.56832 0.2375 0.60874 0.0
Zn2017 Zn 0.49421 0.36734 0.65379 0.0
Zn2018 Zn 0.53197 0.27852 0.64009 0.0
C2019 C 0.46226 0.31197 0.65346 0.0
C2020 C 0.53593 0.33561 0.69204 0.0
O2021 O 0.57988 0.29434 0.63911 0.0
O2022 O 0.58143 0.28183 0.58749 0.0
C2023 C 0.51243 0.20674 0.63495 0.0
O2024 O 0.49337 0.30911 0.65448 0.0
O2025 O 0.45055 0.34035 0.65891 0.0
O2026 O 0.52409 0.36412 0.69631 0.0
O2027 O 0.52455 0.31937 0.66806 0.0
O2028 O 0.52606 0.20802 0.60678 0.0
O2029 O 0.51678 0.23053 0.65502 0.0
O2030 O 0.54974 0.24121 0.67502 0.0
O2031 O 0.59576 0.22698 0.65015 0.0
C2032 C 0.5789 0.22892 0.67629 0.0
O2033 O 0.50751 0.29541 0.59365 0.0
O2034 O 0.51881 0.34529 0.6111 0.0
C2035 C 0.59494 0.2957 0.61206 0.0
C2036 C 0.50367 0.32692 0.59045 0.0
Zn2037 Zn 0.73828 0.31832 0.85873 0.0
Zn2038 Zn 0.60845 0.24421 0.9038 0.0
Zn2039 Zn 0.69726 0.28197 0.8901 0.0
C2040 C 0.66381 0.21227 0.90348 0.0
C2041 C 0.64017 0.28594 0.94204 0.0
O2042 O 0.68143 0.32988 0.8891 0.0
O2043 O 0.69396 0.33143 0.83747 0.0
C2044 C 0.76904 0.26243 0.88495 0.0
O2045 O 0.66668 0.24338 0.90449 0.0
O2046 O 0.63544 0.20055 0.90893 0.0
O2047 O 0.61166 0.2741 0.94632 0.0
O2048 O 0.65642 0.27455 0.91807 0.0
O2049 O 0.76776 0.27606 0.85678 0.0
O2050 O 0.74525 0.26678 0.90502 0.0
O2051 O 0.73457 0.29974 0.92501 0.0
O2052 O 0.74879 0.34577 0.90015 0.0
C2053 C 0.74686 0.32891 0.92628 0.0
O2054 O 0.68037 0.25751 0.84365 0.0
O2055 O 0.63051 0.26881 0.86111 0.0
C2056 C 0.68008 0.34492 0.86204 0.0
C2057 C 0.64886 0.25365 0.84045 0.0
Zn2058 Zn 0.65747 0.48829 0.10874 0.0
Zn2059 Zn 0.7316 0.35846 0.1538 0.0
Zn2060 Zn 0.69382 0.44727 0.1401 0.0
C2061 C 0.76352 0.41382 0.15346 0.0
C2062 C 0.68986 0.39017 0.19205 0.0
O2063 O 0.64591 0.43146 0.13912 0.0
O2064 O 0.64436 0.44396 0.08749 0.0
C2065 C 0.71336 0.51904 0.13496 0.0
O2066 O 0.73241 0.41669 0.15449 0.0
O2067 O 0.77525 0.38545 0.15892 0.0
O2068 O 0.70171 0.36167 0.19631 0.0
O2069 O 0.70124 0.40642 0.16807 0.0
O2070 O 0.69973 0.51777 0.10679 0.0
O2071 O 0.70901 0.49526 0.15503 0.0
O2072 O 0.67605 0.48458 0.17502 0.0
O2073 O 0.63003 0.49881 0.15015 0.0
C2074 C 0.64688 0.49688 0.17628 0.0
O2075 O 0.71828 0.43038 0.09365 0.0
O2076 O 0.70698 0.3805 0.11111 0.0
C2077 C 0.63085 0.4301 0.11207 0.0
C2078 C 0.72212 0.39887 0.09046 0.0
Zn2079 Zn 0.61735 0.4816 0.4038 0.0
Zn2080 Zn 0.48751 0.40747 0.35872 0.0
Zn2081 Zn 0.52854 0.44382 0.3901 0.0
C2082 C 0.47893 0.39688 0.42628 0.0
C2083 C 0.45676 0.46335 0.38495 0.0
O2084 O 0.54542 0.46828 0.34365 0.0
O2085 O 0.59528 0.45699 0.36111 0.0
C2086 C 0.58562 0.43987 0.44205 0.0
O2087 O 0.49123 0.42605 0.42501 0.0
O2088 O 0.477 0.38002 0.40014 0.0
O2089 O 0.45803 0.44972 0.35678 0.0
O2090 O 0.48055 0.45901 0.40502 0.0
O2091 O 0.61413 0.45171 0.44632 0.0
O2092 O 0.56938 0.45125 0.41807 0.0
O2093 O 0.55912 0.48242 0.40449 0.0
O2094 O 0.59036 0.52526 0.40893 0.0
C2095 C 0.56198 0.51353 0.40346 0.0
O2096 O 0.54436 0.39591 0.38911 0.0
O2097 O 0.53184 0.39437 0.33747 0.0
C2098 C 0.57693 0.47214 0.34045 0.0
C2099 C 0.54571 0.38087 0.36205 0.0
Zn2100 Zn 0.4942 0.85846 0.572 0.0
Zn2101 Zn 0.56831 -0.01171 0.61706 0.0
Zn2102 Zn 0.53197 0.94727 0.58569 0.0
C2103 C 0.57891 -0.00312 0.54951 0.0
C2104 C 0.51242 0.01904 0.59083 0.0
O2105 O 0.50751 0.93038 0.63214 0.0
O2106 O 0.5188 0.88053 0.61468 0.0
C2107 C 0.53593 0.89017 0.53374 0.0
O2108 O 0.54974 0.98458 0.55078 0.0
O2109 O 0.59576 -0.00119 0.57565 0.0
O2110 O 0.52605 0.01777 0.619 0.0
O2111 O 0.51677 -0.00475 0.57076 0.0
O2112 O 0.52409 0.86166 0.52948 0.0
O2113 O 0.52455 0.90642 0.55772 0.0
O2114 O 0.49337 0.91668 0.57129 0.0
O2115 O 0.45054 0.88544 0.56686 0.0
C2116 C 0.46226 0.91382 0.57231 0.0
O2117 O 0.57988 0.93145 0.58668 0.0
O2118 O 0.58142 0.94396 0.6383 0.0
C2119 C 0.50365 0.89888 0.63534 0.0
C2120 C 0.59494 0.9301 0.61373 0.0
Zn2121 Zn 0.11734 0.24419 0.82199 0.0
Zn2122 Zn 0.98751 0.31831 0.86706 0.0
Zn2123 Zn 0.02853 0.28196 0.83569 0.0
C2124 C 0.97893 0.3289 0.79951 0.0
C2125 C 0.95675 0.26243 0.84084 0.0
O2126 O 0.04541 0.25751 0.88213 0.0
O2127 O 0.09529 0.2688 0.86468 0.0
C2128 C 0.08562 0.28591 0.78374 0.0
O2129 O -0.00878 0.29973 0.80077 0.0
O2130 O 0.977 0.34576 0.82564 0.0
O2131 O 0.95803 0.27606 0.86901 0.0
O2132 O 0.98054 0.26678 0.82077 0.0
O2133 O 0.11413 0.27406 0.77947 0.0
O2134 O 0.06937 0.27453 0.80772 0.0
O2135 O 0.05911 0.24336 0.82131 0.0
O2136 O 0.09035 0.20053 0.81687 0.0
C2137 C 0.06198 0.21225 0.82233 0.0
O2138 O 0.04436 0.32987 0.83669 0.0
O2139 O 0.03183 0.33142 0.88832 0.0
C2140 C 0.07692 0.25366 0.88533 0.0
C2141 C 0.04571 0.34491 0.86375 0.0
Zn2142 Zn 0.73159 0.86734 0.072 0.0
Zn2143 Zn 0.65748 0.7375 0.11706 0.0
Zn2144 Zn 0.69383 0.77852 0.0857 0.0
C2145 C 0.64689 0.72892 0.04951 0.0
C2146 C 0.71337 0.70675 0.09084 0.0
O2147 O 0.71828 0.79541 0.13214 0.0
O2148 O 0.70699 0.84527 0.11468 0.0
C2149 C 0.68986 0.83561 0.03375 0.0
O2150 O 0.67606 0.74121 0.05078 0.0
O2151 O 0.63004 0.72698 0.07565 0.0
O2152 O 0.69974 0.70803 0.11901 0.0
O2153 O 0.70902 0.73054 0.07077 0.0
O2154 O 0.7017 0.86412 0.02948 0.0
O2155 O 0.70124 0.81937 0.05772 0.0
O2156 O 0.73242 0.80911 0.0713 0.0
O2157 O 0.77525 0.84035 0.06686 0.0
C2158 C 0.76353 0.81198 0.07233 0.0
O2159 O 0.64592 0.79434 0.08668 0.0
O2160 O 0.64437 0.78184 0.1383 0.0
C2161 C 0.72214 0.82692 0.13534 0.0
C2162 C 0.63086 0.7957 0.11372 0.0
Zn2163 Zn 0.10845 0.48158 0.322 0.0
Zn2164 Zn 0.23828 0.40748 0.36706 0.0
Zn2165 Zn 0.19726 0.44382 0.33569 0.0
C2166 C 0.24686 0.39689 0.29951 0.0
C2167 C 0.26904 0.46336 0.34084 0.0
O2168 O 0.18038 0.46828 0.38214 0.0
O2169 O 0.1305 0.45698 0.36469 0.0
C2170 C 0.14017 0.43985 0.28375 0.0
O2171 O 0.23457 0.42605 0.30078 0.0
O2172 O 0.24879 0.38003 0.32564 0.0
O2173 O 0.26777 0.44973 0.369 0.0
O2174 O 0.24525 0.45901 0.32076 0.0
O2175 O 0.11167 0.4517 0.27948 0.0
O2176 O 0.15642 0.45124 0.30773 0.0
O2177 O 0.16668 0.48241 0.32131 0.0
O2178 O 0.13543 0.52524 0.31688 0.0
C2179 C 0.16381 0.51352 0.32233 0.0
O2180 O 0.18144 0.39591 0.33668 0.0
O2181 O 0.19396 0.39436 0.38832 0.0
C2182 C 0.14887 0.47212 0.38534 0.0
C2183 C 0.18009 0.38087 0.36374 0.0
Zn2184 Zn 0.60873 0.06831 0.7375 0.0
Zn2185 Zn 0.65379 -0.00579 0.86734 0.0
Zn2186 Zn 0.64009 0.03197 0.77853 0.0
C2187 C 0.65348 0.96227 0.81198 0.0
C2188 C 0.69204 0.03595 0.83562 0.0
O2189 O 0.63911 0.07988 0.79434 0.0
O2190 O 0.58749 0.08142 0.78184 0.0
C2191 C 0.63495 0.01242 0.70675 0.0
O2192 O 0.6545 -0.00662 0.80911 0.0
O2193 O 0.65893 0.95055 0.84035 0.0
O2194 O 0.69631 0.0241 0.86413 0.0
O2195 O 0.66806 0.02456 0.81937 0.0
O2196 O 0.60678 0.02605 0.70803 0.0
O2197 O 0.65502 0.01677 0.73054 0.0
O2198 O 0.67501 0.04974 0.74122 0.0
O2199 O 0.65014 0.09576 0.72698 0.0
C2200 C 0.67627 0.07891 0.72892 0.0
O2201 O 0.59365 0.00751 0.79541 0.0
O2202 O 0.61111 0.01881 0.84527 0.0
C2203 C 0.61206 0.09494 0.7957 0.0
C2204 C 0.59045 0.00365 0.82692 0.0
Zn2205 Zn 0.90747 0.35873 0.9875 0.0
Zn2206 Zn 0.98159 0.40379 0.11734 0.0
Zn2207 Zn 0.94382 0.3901 0.02852 0.0
C2208 C 0.01353 0.40346 0.06197 0.0
C2209 C 0.93986 0.44204 0.08561 0.0
O2210 O 0.89591 0.3891 0.04435 0.0
O2211 O 0.89436 0.33747 0.03182 0.0
C2212 C 0.96335 0.38495 0.95674 0.0
O2213 O 0.98242 0.40448 0.05911 0.0
O2214 O 0.02525 0.40891 0.09035 0.0
O2215 O 0.9517 0.44632 0.11412 0.0
O2216 O 0.95124 0.41806 0.06937 0.0
O2217 O 0.94972 0.35678 0.95801 0.0
O2218 O 0.95901 0.40502 0.98053 0.0
O2219 O 0.92605 0.42502 -0.00878 0.0
O2220 O 0.88003 0.40015 0.97699 0.0
C2221 C 0.89688 0.42629 0.97892 0.0
O2222 O 0.96828 0.34365 0.04541 0.0
O2223 O 0.95698 0.3611 0.09529 0.0
C2224 C 0.88087 0.36204 0.0457 0.0
C2225 C 0.97212 0.34045 0.07692 0.0
Zn2226 Zn 0.572 0.73159 0.36734 0.0
Zn2227 Zn 0.61706 0.65748 0.23751 0.0
Zn2228 Zn 0.58569 0.69383 0.27853 0.0
C2229 C 0.54951 0.64689 0.22892 0.0
C2230 C 0.59084 0.71337 0.20676 0.0
O2231 O 0.63214 0.71828 0.29542 0.0
O2232 O 0.61468 0.70699 0.34528 0.0
C2233 C 0.53374 0.68986 0.33563 0.0
O2234 O 0.55078 0.67605 0.24122 0.0
O2235 O 0.57565 0.63003 0.22699 0.0
O2236 O 0.61901 0.69974 0.20803 0.0
O2237 O 0.57077 0.70902 0.23055 0.0
O2238 O 0.52948 0.70171 0.36413 0.0
O2239 O 0.55772 0.70125 0.31938 0.0
O2240 O 0.5713 0.73242 0.30912 0.0
O2241 O 0.56687 0.77526 0.34036 0.0
C2242 C 0.57233 0.76353 0.31198 0.0
O2243 O 0.58668 0.64592 0.29435 0.0
O2244 O 0.6383 0.64437 0.28184 0.0
C2245 C 0.63534 0.72214 0.32693 0.0
C2246 C 0.61373 0.63086 0.29571 0.0
Zn2247 Zn 0.24419 0.322 0.61734 0.0
Zn2248 Zn 0.31832 0.36706 0.4875 0.0
Zn2249 Zn 0.28197 0.33569 0.52852 0.0
C2250 C 0.32891 0.29951 0.47892 0.0
C2251 C 0.26243 0.34084 0.45674 0.0
O2252 O 0.25751 0.38214 0.54541 0.0
O2253 O 0.2688 0.36469 0.59529 0.0
C2254 C 0.28592 0.28375 0.58562 0.0
O2255 O 0.29974 0.30078 0.49122 0.0
O2256 O 0.34576 0.32565 0.47699 0.0
O2257 O 0.27606 0.36901 0.45802 0.0
O2258 O 0.26678 0.32076 0.48053 0.0
O2259 O 0.27408 0.27948 0.61412 0.0
O2260 O 0.27454 0.30772 0.56937 0.0
O2261 O 0.24337 0.32131 0.55911 0.0
O2262 O 0.20054 0.31688 0.59034 0.0
C2263 C 0.21226 0.32232 0.56197 0.0
O2264 O 0.32988 0.33668 0.54435 0.0
O2265 O 0.33143 0.38832 0.53182 0.0
C2266 C 0.25366 0.38533 0.57692 0.0
C2267 C 0.34492 0.36374 0.5457 0.0
Zn2268 Zn 0.60873 0.15748 0.48829 0.0
Zn2269 Zn 0.65379 0.23159 0.35845 0.0
Zn2270 Zn 0.64009 0.19383 0.44727 0.0
C2271 C 0.65345 0.26353 0.41381 0.0
C2272 C 0.69204 0.18986 0.39018 0.0
O2273 O 0.63911 0.14592 0.43145 0.0
O2274 O 0.58749 0.14437 0.44396 0.0
C2275 C 0.63495 0.21337 0.51904 0.0
O2276 O 0.65447 0.23242 0.41668 0.0
O2277 O 0.65891 0.27525 0.38543 0.0
O2278 O 0.69631 0.20171 0.36167 0.0
O2279 O 0.66806 0.20125 0.40642 0.0
O2280 O 0.60678 0.19974 0.51777 0.0
O2281 O 0.65502 0.20902 0.49525 0.0
O2282 O 0.67501 0.17606 0.48458 0.0
O2283 O 0.65014 0.13004 0.49881 0.0
C2284 C 0.67628 0.14689 0.49688 0.0
O2285 O 0.59364 0.21828 0.43038 0.0
O2286 O 0.61109 0.20698 0.3805 0.0
C2287 C 0.61206 0.13086 0.4301 0.0
C2288 C 0.59044 0.22213 0.39887 0.0
Zn2289 Zn 0.81832 0.35873 0.73828 0.0
Zn2290 Zn 0.74419 0.4038 0.60845 0.0
Zn2291 Zn 0.78197 0.3901 0.69726 0.0
C2292 C 0.71226 0.40348 0.66382 0.0
C2293 C 0.78593 0.44205 0.64017 0.0
O2294 O 0.82988 0.38911 0.68143 0.0
O2295 O 0.83142 0.33747 0.69396 0.0
C2296 C 0.76243 0.38495 0.76904 0.0
O2297 O 0.74337 0.4045 0.66668 0.0
O2298 O 0.70054 0.40893 0.63544 0.0
O2299 O 0.77408 0.44632 0.61166 0.0
O2300 O 0.77454 0.41807 0.65642 0.0
O2301 O 0.77606 0.35679 0.76776 0.0
O2302 O 0.76678 0.40503 0.74525 0.0
O2303 O 0.79974 0.42501 0.73457 0.0
O2304 O 0.84577 0.40014 0.74879 0.0
C2305 C 0.82891 0.42628 0.74686 0.0
O2306 O 0.75751 0.34366 0.68038 0.0
O2307 O 0.7688 0.36111 0.63052 0.0
C2308 C 0.84491 0.36205 0.68008 0.0
C2309 C 0.75365 0.34046 0.64887 0.0
Zn2310 Zn 0.61706 0.56831 -0.01171 0.0
Zn2311 Zn 0.57201 0.4942 0.85845 0.0
Zn2312 Zn 0.5857 0.53197 0.94727 0.0
C2313 C 0.57233 0.46227 0.91382 0.0
C2314 C 0.53376 0.53593 0.89017 0.0
O2315 O 0.58668 0.57988 0.93146 0.0
O2316 O 0.6383 0.58142 0.94396 0.0
C2317 C 0.59084 0.51242 0.01904 0.0
O2318 O 0.57131 0.49338 0.91668 0.0
O2319 O 0.56688 0.45054 0.88544 0.0
O2320 O 0.52949 0.52409 0.86166 0.0
O2321 O 0.55773 0.52455 0.90642 0.0
O2322 O 0.61901 0.52605 0.01777 0.0
O2323 O 0.57076 0.51677 -0.00475 0.0
O2324 O 0.55078 0.54974 0.98458 0.0
O2325 O 0.57565 0.59576 -0.00119 0.0
C2326 C 0.54951 0.5789 -0.00312 0.0
O2327 O 0.63215 0.50751 0.93039 0.0
O2328 O 0.61469 0.51881 0.88051 0.0
C2329 C 0.61373 0.59494 0.9301 0.0
C2330 C 0.63534 0.50366 0.89888 0.0
Zn2331 Zn 0.40747 0.36705 0.23828 0.0
Zn2332 Zn 0.48159 0.32199 0.10845 0.0
Zn2333 Zn 0.44382 0.33569 0.19726 0.0
C2334 C 0.51352 0.32233 0.16381 0.0
C2335 C 0.43986 0.28374 0.14018 0.0
O2336 O 0.39591 0.33668 0.18143 0.0
O2337 O 0.39436 0.38832 0.19396 0.0
C2338 C 0.46335 0.34083 0.26904 0.0
O2339 O 0.48242 0.3213 0.16668 0.0
O2340 O 0.52525 0.31686 0.13544 0.0
O2341 O 0.45171 0.27947 0.11167 0.0
O2342 O 0.45124 0.30772 0.15642 0.0
O2343 O 0.44972 0.369 0.26777 0.0
O2344 O 0.459 0.32076 0.24525 0.0
O2345 O 0.42605 0.30077 0.23457 0.0
O2346 O 0.38002 0.32564 0.24879 0.0
C2347 C 0.39688 0.2995 0.24686 0.0
O2348 O 0.46828 0.38213 0.18037 0.0
O2349 O 0.45698 0.36468 0.13051 0.0
C2350 C 0.38087 0.36374 0.18008 0.0
C2351 C 0.47213 0.38533 0.14886 0.0
Zn2352 Zn 0.7375 0.10873 0.56832 0.0
Zn2353 Zn 0.86734 0.1538 0.4942 0.0
Zn2354 Zn 0.77853 0.1401 0.53197 0.0
C2355 C 0.81198 0.15347 0.46226 0.0
C2356 C 0.83561 0.19205 0.53593 0.0
O2357 O 0.79435 0.13911 0.57988 0.0
O2358 O 0.78183 0.08747 0.58142 0.0
C2359 C 0.70675 0.13496 0.51244 0.0
O2360 O 0.80911 0.15449 0.49337 0.0
O2361 O 0.84035 0.15893 0.45054 0.0
O2362 O 0.86412 0.19632 0.52408 0.0
O2363 O 0.81937 0.16807 0.52454 0.0
O2364 O 0.70802 0.10679 0.52606 0.0
O2365 O 0.73054 0.15503 0.51678 0.0
O2366 O 0.74122 0.17502 0.54974 0.0
O2367 O 0.72699 0.15015 0.59576 0.0
C2368 C 0.72892 0.17629 0.57891 0.0
O2369 O 0.79541 0.09366 0.50751 0.0
O2370 O 0.84527 0.11111 0.5188 0.0
C2371 C 0.7957 0.11205 0.59491 0.0
C2372 C 0.82692 0.09045 0.50365 0.0
Zn2373 Zn 0.2375 0.11705 0.15747 0.0
Zn2374 Zn 0.36734 0.07199 0.23159 0.0
Zn2375 Zn 0.27852 0.08569 0.19381 0.0
C2376 C 0.31197 0.07232 0.26352 0.0
C2377 C 0.33561 0.03374 0.18986 0.0
O2378 O 0.29435 0.08668 0.14591 0.0
O2379 O 0.28182 0.13832 0.14436 0.0
C2380 C 0.20674 0.09083 0.21335 0.0
O2381 O 0.30911 0.0713 0.23241 0.0
O2382 O 0.34035 0.06687 0.27524 0.0
O2383 O 0.36412 0.02947 0.20171 0.0
O2384 O 0.31937 0.05772 0.20124 0.0
O2385 O 0.20802 0.119 0.19972 0.0
O2386 O 0.23054 0.07076 0.209 0.0
O2387 O 0.24122 0.05077 0.17605 0.0
O2388 O 0.227 0.07564 0.13002 0.0
C2389 C 0.22893 0.0495 0.14688 0.0
O2390 O 0.29541 0.13213 0.21827 0.0
O2391 O 0.34529 0.11468 0.20698 0.0
C2392 C 0.2957 0.11374 0.13087 0.0
C2393 C 0.32692 0.13533 0.22212 0.0
Zn2394 Zn 0.90379 0.11735 0.4816 0.0
Zn2395 Zn 0.85873 0.98751 0.40748 0.0
Zn2396 Zn 0.8901 0.02853 0.44383 0.0
C2397 C 0.92628 0.97893 0.39689 0.0
C2398 C 0.88495 0.95676 0.46337 0.0
O2399 O 0.84365 0.04542 0.46828 0.0
O2400 O 0.8611 0.0953 0.45699 0.0
C2401 C 0.94205 0.08562 0.43987 0.0
O2402 O 0.92501 -0.00878 0.42606 0.0
O2403 O 0.90014 0.977 0.38003 0.0
O2404 O 0.85678 0.95803 0.44974 0.0
O2405 O 0.90502 0.98054 0.45901 0.0
O2406 O 0.94631 0.11413 0.45172 0.0
O2407 O 0.91807 0.06938 0.45125 0.0
O2408 O 0.90448 0.05912 0.48242 0.0
O2409 O 0.90892 0.09036 0.52526 0.0
C2410 C 0.90345 0.06198 0.51353 0.0
O2411 O 0.8891 0.04436 0.39591 0.0
O2412 O 0.83746 0.03183 0.39437 0.0
C2413 C 0.84046 0.07693 0.47213 0.0
C2414 C 0.86204 0.04571 0.38088 0.0
Zn2415 Zn 0.85845 0.6538 0.7316 0.0
Zn2416 Zn -0.01171 0.60874 0.65747 0.0
Zn2417 Zn 0.94726 0.6401 0.69382 0.0
C2418 C -0.00314 0.67629 0.64688 0.0
C2419 C 0.01905 0.63496 0.71335 0.0
O2420 O 0.93038 0.59366 0.71828 0.0
O2421 O 0.8805 0.61111 0.70698 0.0
C2422 C 0.89017 0.69205 0.68987 0.0
O2423 O 0.98457 0.67502 0.67605 0.0
O2424 O -0.00121 0.65015 0.63002 0.0
O2425 O 0.01777 0.60679 0.69972 0.0
O2426 O -0.00475 0.65503 0.70901 0.0
O2427 O 0.86167 0.69632 0.70172 0.0
O2428 O 0.90642 0.66807 0.70125 0.0
O2429 O 0.91668 0.65448 0.73242 0.0
O2430 O 0.88544 0.65891 0.77525 0.0
C2431 C 0.91381 0.65345 0.76353 0.0
O2432 O 0.93144 0.63911 0.64591 0.0
O2433 O 0.94396 0.58747 0.64436 0.0
C2434 C 0.89887 0.59046 0.72212 0.0
C2435 C 0.93009 0.61205 0.63087 0.0
Zn2436 Zn 0.82199 0.10845 0.9816 0.0
Zn2437 Zn 0.86706 0.23829 0.90748 0.0
Zn2438 Zn 0.83569 0.19727 0.94383 0.0
C2439 C 0.79951 0.24688 0.89689 0.0
C2440 C 0.84083 0.26905 0.96336 0.0
O2441 O 0.88214 0.18038 0.96828 0.0
O2442 O 0.86468 0.1305 0.95699 0.0
C2443 C 0.78374 0.14018 0.93987 0.0
O2444 O 0.80077 0.23458 0.92605 0.0
O2445 O 0.82565 0.24881 0.88003 0.0
O2446 O 0.869 0.26777 0.94973 0.0
O2447 O 0.82076 0.24526 0.95902 0.0
O2448 O 0.77948 0.11167 0.95172 0.0
O2449 O 0.80772 0.15642 0.95125 0.0
O2450 O 0.82131 0.16668 0.98242 0.0
O2451 O 0.81687 0.13544 0.02526 0.0
C2452 C 0.82233 0.16382 0.01353 0.0
O2453 O 0.83668 0.18145 0.89591 0.0
O2454 O 0.8883 0.19396 0.89437 0.0
C2455 C 0.88533 0.14887 0.97213 0.0
C2456 C 0.86373 0.1801 0.88086 0.0
Zn2457 Zn 0.35844 0.072 0.4942 0.0
Zn2458 Zn 0.48828 0.11706 0.56831 0.0
Zn2459 Zn 0.44726 0.08569 0.53196 0.0
C2460 C 0.49686 0.04951 0.5789 0.0
C2461 C 0.51903 0.09084 0.51242 0.0
O2462 O 0.43038 0.13214 0.50751 0.0
O2463 O 0.38049 0.11469 0.5188 0.0
C2464 C 0.39016 0.03375 0.53593 0.0
O2465 O 0.48457 0.05078 0.54973 0.0
O2466 O 0.49879 0.07565 0.59576 0.0
O2467 O 0.51776 0.11901 0.52605 0.0
O2468 O 0.49524 0.07077 0.51677 0.0
O2469 O 0.36165 0.02948 0.52408 0.0
O2470 O 0.40641 0.05773 0.52454 0.0
O2471 O 0.41667 0.0713 0.49337 0.0
O2472 O 0.38543 0.06687 0.45054 0.0
C2473 C 0.41381 0.07232 0.46226 0.0
O2474 O 0.43143 0.08669 0.57987 0.0
O2475 O 0.44396 0.13833 0.58142 0.0
C2476 C 0.39887 0.13534 0.50366 0.0
C2477 C 0.43008 0.11375 0.59491 0.0
Zn2478 Zn 0.9038 0.60846 0.2442 0.0
Zn2479 Zn 0.85874 0.73829 0.31832 0.0
Zn2480 Zn 0.8901 0.69727 0.28197 0.0
C2481 C 0.92629 0.74688 0.3289 0.0
C2482 C 0.88496 0.76905 0.26243 0.0
O2483 O 0.84365 0.68039 0.25751 0.0
O2484 O 0.86111 0.63051 0.26881 0.0
C2485 C 0.94204 0.64018 0.28593 0.0
O2486 O 0.92502 0.73458 0.29974 0.0
O2487 O 0.90015 0.74881 0.34576 0.0
O2488 O 0.85679 0.76777 0.27606 0.0
O2489 O 0.90503 0.74526 0.26678 0.0
O2490 O 0.94632 0.61168 0.27408 0.0
O2491 O 0.91806 0.65643 0.27454 0.0
O2492 O 0.90449 0.66669 0.24337 0.0
O2493 O 0.90892 0.63545 0.20054 0.0
C2494 C 0.90347 0.66382 0.21226 0.0
O2495 O 0.88911 0.68146 0.32988 0.0
O2496 O 0.83749 0.69396 0.33142 0.0
C2497 C 0.84046 0.64888 0.25366 0.0
C2498 C 0.86207 0.6801 0.34494 0.0
Zn2499 Zn 0.322 0.11734 0.74419 0.0
Zn2500 Zn 0.36706 0.98751 0.81831 0.0
Zn2501 Zn 0.33569 0.02853 0.78197 0.0
C2502 C 0.29951 0.97892 0.8289 0.0
C2503 C 0.34084 0.95675 0.76243 0.0
O2504 O 0.38214 0.04541 0.75751 0.0
O2505 O 0.36469 0.0953 0.7688 0.0
C2506 C 0.28374 0.08562 0.78592 0.0
O2507 O 0.30078 -0.00878 0.79974 0.0
O2508 O 0.32565 0.97699 0.84576 0.0
O2509 O 0.36901 0.95803 0.77605 0.0
O2510 O 0.32076 0.98054 0.76678 0.0
O2511 O 0.27948 0.11413 0.77407 0.0
O2512 O 0.30772 0.06937 0.77454 0.0
O2513 O 0.32131 0.05912 0.74337 0.0
O2514 O 0.31688 0.09035 0.70053 0.0
C2515 C 0.32234 0.06198 0.71226 0.0
O2516 O 0.33668 0.04435 0.82988 0.0
O2517 O 0.38832 0.03183 0.83142 0.0
C2518 C 0.38534 0.07692 0.75366 0.0
C2519 C 0.36374 0.0457 0.84491 0.0
Zn2520 Zn 0.40747 0.73829 0.36705 0.0
Zn2521 Zn 0.48159 0.60845 0.322 0.0
Zn2522 Zn 0.44382 0.69727 0.33569 0.0
C2523 C 0.51352 0.66381 0.32234 0.0
C2524 C 0.43986 0.64018 0.28375 0.0
O2525 O 0.39591 0.68145 0.33668 0.0
O2526 O 0.39437 0.69396 0.3883 0.0
C2527 C 0.46336 0.76905 0.34084 0.0
O2528 O 0.48242 0.66668 0.32131 0.0
O2529 O 0.52525 0.63544 0.31688 0.0
O2530 O 0.45171 0.61167 0.27948 0.0
O2531 O 0.45125 0.65642 0.30773 0.0
O2532 O 0.44973 0.76777 0.369 0.0
O2533 O 0.45901 0.74526 0.32076 0.0
O2534 O 0.42605 0.73457 0.30077 0.0
O2535 O 0.38003 0.74881 0.32564 0.0
C2536 C 0.39689 0.74687 0.2995 0.0
O2537 O 0.46828 0.68038 0.38214 0.0
O2538 O 0.45698 0.6305 0.36469 0.0
C2539 C 0.38085 0.68009 0.36372 0.0
C2540 C 0.47212 0.64887 0.38534 0.0
Zn2541 Zn 0.23751 0.65747 0.11705 0.0
Zn2542 Zn 0.36734 0.73158 0.07199 0.0
Zn2543 Zn 0.27853 0.69382 0.08569 0.0
C2544 C 0.31198 0.76352 0.07231 0.0
C2545 C 0.33562 0.68985 0.03374 0.0
O2546 O 0.29436 0.64591 0.08668 0.0
O2547 O 0.28183 0.64436 0.13832 0.0
C2548 C 0.20676 0.71335 0.09083 0.0
O2549 O 0.30912 0.73241 0.07129 0.0
O2550 O 0.34036 0.77524 0.06686 0.0
O2551 O 0.36413 0.70169 0.02947 0.0
O2552 O 0.31938 0.70124 0.05772 0.0
O2553 O 0.20803 0.69972 0.119 0.0
O2554 O 0.23055 0.709 0.07076 0.0
O2555 O 0.24123 0.67605 0.05077 0.0
O2556 O 0.227 0.63002 0.07564 0.0
C2557 C 0.22893 0.64688 0.0495 0.0
O2558 O 0.29542 0.71828 0.13213 0.0
O2559 O 0.34528 0.70698 0.11468 0.0
C2560 C 0.29571 0.63087 0.11374 0.0
C2561 C 0.32693 0.72214 0.13533 0.0
Zn2562 Zn 0.2442 0.61733 0.82199 0.0
Zn2563 Zn 0.31832 0.4875 0.86705 0.0
Zn2564 Zn 0.28197 0.52852 0.83569 0.0
C2565 C 0.32891 0.47891 0.7995 0.0
C2566 C 0.26243 0.45674 0.84083 0.0
O2567 O 0.25752 0.54541 0.88213 0.0
O2568 O 0.26881 0.59529 0.86468 0.0
C2569 C 0.28593 0.58561 0.78374 0.0
O2570 O 0.29974 0.49121 0.80077 0.0
O2571 O 0.34576 0.47698 0.82564 0.0
O2572 O 0.27606 0.45802 0.869 0.0
O2573 O 0.26678 0.48053 0.82076 0.0
O2574 O 0.27408 0.61412 0.77947 0.0
O2575 O 0.27455 0.56937 0.80772 0.0
O2576 O 0.24338 0.5591 0.8213 0.0
O2577 O 0.20054 0.59034 0.81687 0.0
C2578 C 0.21227 0.56197 0.82233 0.0
O2579 O 0.32988 0.54433 0.83667 0.0
O2580 O 0.33143 0.53183 0.88829 0.0
C2581 C 0.25367 0.57691 0.88533 0.0
C2582 C 0.34494 0.54569 0.86372 0.0
Zn2583 Zn 0.35844 0.49419 0.57199 0.0
Zn2584 Zn 0.48828 0.56832 0.61706 0.0
Zn2585 Zn 0.44725 0.53197 0.58569 0.0
C2586 C 0.49686 0.57891 0.54951 0.0
C2587 C 0.51903 0.51244 0.59084 0.0
O2588 O 0.43037 0.50751 0.63213 0.0
O2589 O 0.38051 0.5188 0.61467 0.0
C2590 C 0.39017 0.53592 0.53374 0.0
O2591 O 0.48456 0.54974 0.55078 0.0
O2592 O 0.49879 0.59576 0.57565 0.0
O2593 O 0.51776 0.52606 0.61901 0.0
O2594 O 0.49524 0.51678 0.57077 0.0
O2595 O 0.36166 0.52407 0.52947 0.0
O2596 O 0.40641 0.52454 0.55772 0.0
O2597 O 0.41667 0.49337 0.5713 0.0
O2598 O 0.38543 0.45053 0.56686 0.0
C2599 C 0.41381 0.46226 0.57232 0.0
O2600 O 0.43143 0.57988 0.58668 0.0
O2601 O 0.44395 0.58142 0.63832 0.0
C2602 C 0.39886 0.50365 0.63533 0.0
C2603 C 0.43008 0.59492 0.61374 0.0
Zn2604 Zn 0.40748 0.9875 0.35873 0.0
Zn2605 Zn 0.48159 0.11733 0.40379 0.0
Zn2606 Zn 0.44383 0.02852 0.39009 0.0
C2607 C 0.51353 0.06197 0.40348 0.0
C2608 C 0.43985 0.08561 0.44204 0.0
O2609 O 0.39591 0.04433 0.38911 0.0
O2610 O 0.39437 0.03183 0.33749 0.0
C2611 C 0.46337 0.95675 0.38495 0.0
O2612 O 0.48242 0.0591 0.40449 0.0
O2613 O 0.52525 0.09035 0.40893 0.0
O2614 O 0.4517 0.11412 0.44631 0.0
O2615 O 0.45124 0.06937 0.41806 0.0
O2616 O 0.44974 0.95802 0.35678 0.0
O2617 O 0.45902 0.98054 0.40502 0.0
O2618 O 0.42605 -0.00879 0.42501 0.0
O2619 O 0.38003 0.97697 0.40013 0.0
C2620 C 0.39689 0.97891 0.42627 0.0
O2621 O 0.46828 0.04541 0.34365 0.0
O2622 O 0.45699 0.09526 0.36111 0.0
C2623 C 0.38086 0.04569 0.36206 0.0
C2624 C 0.47214 0.07691 0.34045 0.0
Zn2625 Zn 0.85845 0.7316 0.1538 0.0
Zn2626 Zn -0.01172 0.65748 0.10873 0.0
Zn2627 Zn 0.94726 0.69382 0.1401 0.0
C2628 C -0.00314 0.64689 0.17628 0.0
C2629 C 0.01904 0.71336 0.13495 0.0
O2630 O 0.93038 0.71828 0.09365 0.0
O2631 O 0.8805 0.70699 0.1111 0.0
C2632 C 0.89017 0.68987 0.19204 0.0
O2633 O 0.98457 0.67606 0.17501 0.0
O2634 O -0.00121 0.63003 0.15014 0.0
O2635 O 0.01776 0.69973 0.10678 0.0
O2636 O -0.00475 0.70901 0.15502 0.0
O2637 O 0.86167 0.70172 0.19632 0.0
O2638 O 0.90642 0.70126 0.16806 0.0
O2639 O 0.91668 0.73242 0.15448 0.0
O2640 O 0.88544 0.77526 0.15892 0.0
C2641 C 0.91381 0.76353 0.15345 0.0
O2642 O 0.93143 0.64591 0.1391 0.0
O2643 O 0.94396 0.64437 0.08746 0.0
C2644 C 0.89887 0.72213 0.09045 0.0
C2645 C 0.93008 0.63088 0.11204 0.0
Zn2646 Zn 0.2442 0.10845 0.90379 0.0
Zn2647 Zn 0.31831 0.23829 0.85873 0.0
Zn2648 Zn 0.28196 0.19727 0.89009 0.0
C2649 C 0.3289 0.24687 0.92628 0.0
C2650 C 0.26242 0.26904 0.88495 0.0
O2651 O 0.25751 0.18038 0.84364 0.0
O2652 O 0.2688 0.13052 0.8611 0.0
C2653 C 0.28593 0.14018 0.94204 0.0
O2654 O 0.29973 0.23457 0.92501 0.0
O2655 O 0.34575 0.24881 0.90014 0.0
O2656 O 0.27605 0.26776 0.85678 0.0
O2657 O 0.26677 0.24525 0.90502 0.0
O2658 O 0.27409 0.11167 0.94631 0.0
O2659 O 0.27455 0.15642 0.91806 0.0
O2660 O 0.24337 0.16668 0.90449 0.0
O2661 O 0.20054 0.13543 0.90892 0.0
C2662 C 0.21226 0.16381 0.90346 0.0
O2663 O 0.32987 0.18145 0.88911 0.0
O2664 O 0.33142 0.19395 0.83749 0.0
C2665 C 0.25365 0.14887 0.84044 0.0
C2666 C 0.34493 0.18009 0.86206 0.0
Zn2667 Zn 0.86734 0.4942 0.65379 0.0
Zn2668 Zn 0.73751 0.56831 0.60873 0.0
Zn2669 Zn 0.77853 0.53197 0.64009 0.0
C2670 C 0.72893 0.5789 0.67628 0.0
C2671 C 0.70675 0.51243 0.63495 0.0
O2672 O 0.79541 0.50751 0.59365 0.0
O2673 O 0.8453 0.51881 0.6111 0.0
C2674 C 0.83562 0.53593 0.69204 0.0
O2675 O 0.74122 0.54974 0.67501 0.0
O2676 O 0.727 0.59576 0.65014 0.0
O2677 O 0.70803 0.52606 0.60678 0.0
O2678 O 0.73054 0.51678 0.65502 0.0
O2679 O 0.86412 0.52408 0.69631 0.0
O2680 O 0.81937 0.52455 0.66806 0.0
O2681 O 0.80911 0.49338 0.65448 0.0
O2682 O 0.84035 0.45054 0.65891 0.0
C2683 C 0.81198 0.46227 0.65345 0.0
O2684 O 0.79435 0.57988 0.6391 0.0
O2685 O 0.78183 0.58142 0.58746 0.0
C2686 C 0.82692 0.50367 0.59045 0.0
C2687 C 0.79571 0.59491 0.61204 0.0
Zn2688 Zn 0.322 0.98158 0.10845 0.0
Zn2689 Zn 0.36706 0.90748 0.23828 0.0
Zn2690 Zn 0.3357 0.94382 0.19726 0.0
C2691 C 0.29952 0.89688 0.24687 0.0
C2692 C 0.34084 0.96337 0.26903 0.0
O2693 O 0.38215 0.96828 0.18037 0.0
O2694 O 0.36468 0.95698 0.13052 0.0
C2695 C 0.28375 0.93984 0.14017 0.0
O2696 O 0.30078 0.92605 0.23457 0.0
O2697 O 0.32566 0.88003 0.2488 0.0
O2698 O 0.36901 0.94974 0.26776 0.0
O2699 O 0.32077 0.95901 0.24525 0.0
O2700 O 0.27948 0.95169 0.11166 0.0
O2701 O 0.30773 0.95123 0.15642 0.0
O2702 O 0.3213 0.98241 0.16668 0.0
O2703 O 0.31686 0.02524 0.13544 0.0
C2704 C 0.32232 0.01352 0.16381 0.0
O2705 O 0.33668 0.89591 0.18145 0.0
O2706 O 0.3883 0.89437 0.19395 0.0
C2707 C 0.38534 0.97214 0.14887 0.0
C2708 C 0.36373 0.88085 0.18009 0.0
Zn2709 Zn -0.0058 0.57199 0.85845 0.0
Zn2710 Zn 0.06832 0.61706 -0.01172 0.0
Zn2711 Zn 0.03197 0.58569 0.94726 0.0
C2712 C 0.07891 0.5495 -0.00314 0.0
C2713 C 0.01244 0.59084 0.01904 0.0
O2714 O 0.00751 0.63213 0.93038 0.0
O2715 O 0.01881 0.61469 0.8805 0.0
C2716 C 0.03593 0.53375 0.89018 0.0
O2717 O 0.04974 0.55077 0.98457 0.0
O2718 O 0.09576 0.57564 -0.00121 0.0
O2719 O 0.02607 0.61901 0.01777 0.0
O2720 O 0.01678 0.57077 -0.00475 0.0
O2721 O 0.02409 0.52947 0.86167 0.0
O2722 O 0.02455 0.55773 0.90642 0.0
O2723 O -0.00663 0.57131 0.91668 0.0
O2724 O 0.95055 0.56688 0.88544 0.0
C2725 C 0.96226 0.57233 0.91382 0.0
O2726 O 0.07988 0.58668 0.93144 0.0
O2727 O 0.08143 0.63832 0.94397 0.0
C2728 C 0.00367 0.63533 0.89887 0.0
C2729 C 0.09492 0.61374 0.93009 0.0
Zn2730 Zn 0.35873 0.31831 0.73828 0.0
Zn2731 Zn 0.40379 0.2442 0.60844 0.0
Zn2732 Zn 0.3901 0.28196 0.69726 0.0
C2733 C 0.40346 0.21226 0.6638 0.0
C2734 C 0.44204 0.28593 0.64016 0.0
O2735 O 0.38912 0.32987 0.68144 0.0
O2736 O 0.33749 0.33142 0.69394 0.0
C2737 C 0.38495 0.26242 0.76903 0.0
O2738 O 0.40449 0.24337 0.66667 0.0
O2739 O 0.40893 0.20053 0.63543 0.0
O2740 O 0.44631 0.27408 0.61166 0.0
O2741 O 0.41807 0.27454 0.65641 0.0
O2742 O 0.35678 0.27605 0.76775 0.0
O2743 O 0.40502 0.26677 0.74524 0.0
O2744 O 0.42501 0.29973 0.73456 0.0
O2745 O 0.40014 0.34576 0.7488 0.0
C2746 C 0.42628 0.3289 0.74686 0.0
O2747 O 0.34365 0.25751 0.68037 0.0
O2748 O 0.36111 0.2688 0.63051 0.0
C2749 C 0.36207 0.34493 0.68008 0.0
C2750 C 0.34045 0.25365 0.64886 0.0
Zn2751 Zn 0.7316 0.65379 0.35845 0.0
Zn2752 Zn 0.65747 0.60873 0.48829 0.0
Zn2753 Zn 0.69382 0.6401 0.44726 0.0
C2754 C 0.64689 0.67628 0.49687 0.0
C2755 C 0.71336 0.63495 0.51904 0.0
O2756 O 0.71828 0.59365 0.43038 0.0
O2757 O 0.70699 0.6111 0.3805 0.0
C2758 C 0.68987 0.69204 0.39017 0.0
O2759 O 0.67605 0.67501 0.48457 0.0
O2760 O 0.63003 0.65014 0.4988 0.0
O2761 O 0.69973 0.60678 0.51777 0.0
O2762 O 0.70901 0.65502 0.49525 0.0
O2763 O 0.70172 0.69631 0.36166 0.0
O2764 O 0.70125 0.66807 0.40642 0.0
O2765 O 0.73242 0.65448 0.41668 0.0
O2766 O 0.77525 0.65891 0.38544 0.0
C2767 C 0.76353 0.65346 0.41382 0.0
O2768 O 0.64591 0.6391 0.43144 0.0
O2769 O 0.64436 0.58747 0.44397 0.0
C2770 C 0.72213 0.59045 0.39887 0.0
C2771 C 0.63088 0.61204 0.43009 0.0
Zn2772 Zn 0.32201 0.7442 0.61734 0.0
Zn2773 Zn 0.36706 0.81831 0.4875 0.0
Zn2774 Zn 0.3357 0.78196 0.52852 0.0
C2775 C 0.29951 0.8289 0.47891 0.0
C2776 C 0.34084 0.76242 0.45674 0.0
O2777 O 0.38215 0.75751 0.54541 0.0
O2778 O 0.3647 0.76881 0.59529 0.0
C2779 C 0.28376 0.78592 0.58561 0.0
O2780 O 0.30078 0.79973 0.49121 0.0
O2781 O 0.32565 0.84575 0.47698 0.0
O2782 O 0.36901 0.77605 0.45802 0.0
O2783 O 0.32077 0.76677 0.48053 0.0
O2784 O 0.27948 0.77408 0.61412 0.0
O2785 O 0.30774 0.77454 0.56936 0.0
O2786 O 0.32132 0.74337 0.55911 0.0
O2787 O 0.31689 0.70054 0.59035 0.0
C2788 C 0.32235 0.71226 0.56198 0.0
O2789 O 0.33668 0.82987 0.54433 0.0
O2790 O 0.3883 0.83142 0.53183 0.0
C2791 C 0.38535 0.75366 0.57692 0.0
C2792 C 0.36373 0.84493 0.54569 0.0
Zn2793 Zn 0.15747 0.61706 0.2375 0.0
Zn2794 Zn 0.23159 0.57199 0.36734 0.0
Zn2795 Zn 0.19382 0.58569 0.27853 0.0
C2796 C 0.26353 0.57231 0.31197 0.0
C2797 C 0.18986 0.53374 0.33562 0.0
O2798 O 0.14591 0.58668 0.29436 0.0
O2799 O 0.14437 0.63832 0.28183 0.0
C2800 C 0.21336 0.59083 0.20675 0.0
O2801 O 0.23242 0.57129 0.30911 0.0
O2802 O 0.27525 0.56686 0.34035 0.0
O2803 O 0.20171 0.52947 0.36413 0.0
O2804 O 0.20125 0.55772 0.31937 0.0
O2805 O 0.19973 0.619 0.20802 0.0
O2806 O 0.20901 0.57076 0.23054 0.0
O2807 O 0.17605 0.55078 0.24122 0.0
O2808 O 0.13003 0.57565 0.22699 0.0
C2809 C 0.14688 0.54951 0.22892 0.0
O2810 O 0.21828 0.63213 0.29541 0.0
O2811 O 0.20699 0.61467 0.34527 0.0
C2812 C 0.13088 0.61374 0.29571 0.0
C2813 C 0.22214 0.63533 0.32692 0.0
Zn2814 Zn 0.40379 0.48159 0.11733 0.0
Zn2815 Zn 0.35873 0.40748 0.9875 0.0
Zn2816 Zn 0.39009 0.44382 0.02852 0.0
C2817 C 0.42628 0.39689 0.97891 0.0
C2818 C 0.38496 0.46337 0.95675 0.0
O2819 O 0.34365 0.46828 0.0454 0.0
O2820 O 0.3611 0.45698 0.09528 0.0
C2821 C 0.44204 0.43986 0.08562 0.0
O2822 O 0.42501 0.42605 -0.00879 0.0
O2823 O 0.40014 0.38003 0.97697 0.0
O2824 O 0.35679 0.44974 0.95802 0.0
O2825 O 0.40503 0.45902 0.98053 0.0
O2826 O 0.4463 0.4517 0.11413 0.0
O2827 O 0.41806 0.45124 0.06937 0.0
O2828 O 0.40448 0.48241 0.05911 0.0
O2829 O 0.40891 0.52524 0.09035 0.0
C2830 C 0.40347 0.51352 0.06197 0.0
O2831 O 0.38911 0.39591 0.04433 0.0
O2832 O 0.33749 0.39437 0.03182 0.0
C2833 C 0.34045 0.47212 0.07691 0.0
C2834 C 0.36206 0.38085 0.04569 0.0
Zn2835 Zn 0.4942 0.6538 0.86734 0.0
Zn2836 Zn 0.56832 0.60874 0.73751 0.0
Zn2837 Zn 0.53197 0.6401 0.77853 0.0
C2838 C 0.57891 0.67629 0.72893 0.0
C2839 C 0.51244 0.63495 0.70675 0.0
O2840 O 0.50752 0.59366 0.79542 0.0
O2841 O 0.51881 0.61111 0.84527 0.0
C2842 C 0.53593 0.69205 0.83561 0.0
O2843 O 0.54974 0.67502 0.74122 0.0
O2844 O 0.59577 0.65015 0.727 0.0
O2845 O 0.52607 0.60679 0.70802 0.0
O2846 O 0.51679 0.65503 0.73054 0.0
O2847 O 0.52409 0.69632 0.86412 0.0
O2848 O 0.52455 0.66807 0.81937 0.0
O2849 O 0.49338 0.65449 0.80911 0.0
O2850 O 0.45054 0.65893 0.84035 0.0
C2851 C 0.46227 0.65346 0.81198 0.0
O2852 O 0.57988 0.63911 0.79436 0.0
O2853 O 0.58143 0.58747 0.78183 0.0
C2854 C 0.50366 0.59045 0.82692 0.0
C2855 C 0.59492 0.61205 0.7957 0.0
Zn2856 Zn 0.23829 0.86706 0.40747 0.0
Zn2857 Zn 0.10846 0.82199 0.48159 0.0
Zn2858 Zn 0.19727 0.83569 0.44382 0.0
C2859 C 0.16381 0.82232 0.51352 0.0
C2860 C 0.14018 0.78374 0.43986 0.0
O2861 O 0.18144 0.83668 0.39591 0.0
O2862 O 0.19396 0.88832 0.39436 0.0
C2863 C 0.26904 0.84083 0.46335 0.0
O2864 O 0.16668 0.8213 0.48242 0.0
O2865 O 0.13544 0.81686 0.52525 0.0
O2866 O 0.11167 0.77947 0.4517 0.0
O2867 O 0.15642 0.80772 0.45124 0.0
O2868 O 0.26777 0.869 0.44972 0.0
O2869 O 0.24525 0.82076 0.45901 0.0
O2870 O 0.23457 0.80077 0.42605 0.0
O2871 O 0.2488 0.82564 0.38002 0.0
C2872 C 0.24687 0.7995 0.39688 0.0
O2873 O 0.18038 0.88213 0.46828 0.0
O2874 O 0.13052 0.86468 0.45698 0.0
C2875 C 0.18009 0.86374 0.38087 0.0
C2876 C 0.14887 0.88533 0.47214 0.0
Zn2877 Zn 0.60845 0.9038 0.7442 0.0
Zn2878 Zn 0.73829 0.85874 0.81832 0.0
Zn2879 Zn 0.69727 0.8901 0.78197 0.0
C2880 C 0.74687 0.92629 0.82891 0.0
C2881 C 0.76905 0.88496 0.76244 0.0
O2882 O 0.68038 0.84366 0.75751 0.0
O2883 O 0.6305 0.86111 0.76881 0.0
C2884 C 0.64018 0.94205 0.78593 0.0
O2885 O 0.73457 0.92502 0.79974 0.0
O2886 O 0.7488 0.90015 0.84577 0.0
O2887 O 0.76778 0.85679 0.77607 0.0
O2888 O 0.74526 0.90503 0.76678 0.0
O2889 O 0.61167 0.94632 0.77409 0.0
O2890 O 0.65643 0.91807 0.77455 0.0
O2891 O 0.66668 0.90449 0.74337 0.0
O2892 O 0.63544 0.90892 0.70054 0.0
C2893 C 0.66382 0.90347 0.71226 0.0
O2894 O 0.68144 0.88911 0.82988 0.0
O2895 O 0.69397 0.83747 0.83143 0.0
C2896 C 0.64887 0.84046 0.75367 0.0
C2897 C 0.68009 0.86205 0.84492 0.0
Zn2898 Zn 0.11706 -0.01172 0.56831 0.0
Zn2899 Zn 0.072 0.85844 0.49419 0.0
Zn2900 Zn 0.08569 0.94726 0.53196 0.0
C2901 C 0.07234 0.9138 0.46226 0.0
C2902 C 0.03374 0.89017 0.53592 0.0
O2903 O 0.08669 0.93143 0.57987 0.0
O2904 O 0.13833 0.94396 0.58142 0.0
C2905 C 0.09084 0.01903 0.51242 0.0
O2906 O 0.07131 0.91667 0.49336 0.0
O2907 O 0.06687 0.88543 0.45053 0.0
O2908 O 0.02948 0.86166 0.52407 0.0
O2909 O 0.05772 0.90641 0.52453 0.0
O2910 O 0.11901 0.01776 0.52605 0.0
O2911 O 0.07077 -0.00476 0.51677 0.0
O2912 O 0.05078 0.98457 0.54973 0.0
O2913 O 0.07565 -0.00121 0.59575 0.0
C2914 C 0.04951 -0.00314 0.5789 0.0
O2915 O 0.13214 0.93037 0.5075 0.0
O2916 O 0.11469 0.88049 0.5188 0.0
C2917 C 0.11375 0.93008 0.59491 0.0
C2918 C 0.13534 0.89886 0.50366 0.0
Zn2919 Zn 0.11734 0.32199 0.24419 0.0
Zn2920 Zn 0.98751 0.36705 0.31832 0.0
Zn2921 Zn 0.02853 0.33569 0.28197 0.0
C2922 C 0.97893 0.2995 0.3289 0.0
C2923 C 0.95675 0.34083 0.26244 0.0
O2924 O 0.04541 0.38213 0.25751 0.0
O2925 O 0.09529 0.36468 0.2688 0.0
C2926 C 0.08562 0.28374 0.28592 0.0
O2927 O -0.00878 0.30077 0.29974 0.0
O2928 O 0.977 0.32564 0.34576 0.0
O2929 O 0.95802 0.369 0.27607 0.0
O2930 O 0.98054 0.32076 0.26678 0.0
O2931 O 0.11412 0.27947 0.27407 0.0
O2932 O 0.06937 0.30772 0.27453 0.0
O2933 O 0.05911 0.32131 0.24337 0.0
O2934 O 0.09035 0.31687 0.20053 0.0
C2935 C 0.06198 0.32234 0.21226 0.0
O2936 O 0.04436 0.33668 0.32988 0.0
O2937 O 0.03183 0.38832 0.33142 0.0
C2938 C 0.07692 0.38533 0.25366 0.0
C2939 C 0.0457 0.36374 0.34491 0.0
Zn2940 Zn 0.1538 0.86733 -0.00581 0.0
Zn2941 Zn 0.10874 0.7375 0.06831 0.0
Zn2942 Zn 0.1401 0.77852 0.03196 0.0
C2943 C 0.17628 0.72891 0.0789 0.0
C2944 C 0.13496 0.70674 0.01242 0.0
O2945 O 0.09366 0.79541 0.00751 0.0
O2946 O 0.11111 0.84529 0.0188 0.0
C2947 C 0.19205 0.83561 0.03592 0.0
O2948 O 0.17502 0.74121 0.04973 0.0
O2949 O 0.15015 0.72698 0.09575 0.0
O2950 O 0.10679 0.70802 0.02605 0.0
O2951 O 0.15503 0.73053 0.01677 0.0
O2952 O 0.19632 0.86412 0.02407 0.0
O2953 O 0.16807 0.81936 0.02454 0.0
O2954 O 0.15449 0.80911 -0.00664 0.0
O2955 O 0.15892 0.84035 0.95053 0.0
C2956 C 0.15346 0.81197 0.96226 0.0
O2957 O 0.13911 0.79433 0.07987 0.0
O2958 O 0.08749 0.78183 0.08142 0.0
C2959 C 0.09046 0.82692 0.00366 0.0
C2960 C 0.11207 0.79569 0.09493 0.0
Zn2961 Zn 0.48751 0.85873 0.40748 0.0
Zn2962 Zn 0.61735 0.90379 0.48159 0.0
Zn2963 Zn 0.52853 0.8901 0.44382 0.0
C2964 C 0.56199 0.90345 0.51353 0.0
C2965 C 0.58563 0.94204 0.43986 0.0
O2966 O 0.54436 0.8891 0.39591 0.0
O2967 O 0.53183 0.83746 0.39436 0.0
C2968 C 0.45676 0.88495 0.46337 0.0
O2969 O 0.55912 0.90448 0.48242 0.0
O2970 O 0.59036 0.90892 0.52525 0.0
O2971 O 0.61414 0.94631 0.45171 0.0
O2972 O 0.56938 0.91806 0.45125 0.0
O2973 O 0.45803 0.85678 0.44974 0.0
O2974 O 0.48055 0.90502 0.45901 0.0
O2975 O 0.49123 0.92501 0.42605 0.0
O2976 O 0.477 0.90014 0.38003 0.0
C2977 C 0.47893 0.92628 0.39689 0.0
O2978 O 0.54542 0.84365 0.46828 0.0
O2979 O 0.5953 0.8611 0.45699 0.0
C2980 C 0.54571 0.86204 0.38087 0.0
C2981 C 0.57693 0.84045 0.47213 0.0
Zn2982 Zn 0.07199 0.36733 0.73159 0.0
Zn2983 Zn 0.11705 0.2375 0.65747 0.0
Zn2984 Zn 0.08569 0.27851 0.69382 0.0
C2985 C 0.0495 0.22891 0.64688 0.0
C2986 C 0.09083 0.20674 0.71335 0.0
O2987 O 0.13214 0.2954 0.71828 0.0
O2988 O 0.11468 0.34528 0.70698 0.0
C2989 C 0.03375 0.3356 0.68986 0.0
O2990 O 0.05077 0.24121 0.67605 0.0
O2991 O 0.07564 0.22698 0.63003 0.0
O2992 O 0.119 0.20801 0.69973 0.0
O2993 O 0.07076 0.23053 0.70901 0.0
O2994 O 0.02947 0.36411 0.70171 0.0
O2995 O 0.05773 0.31936 0.70124 0.0
O2996 O 0.07131 0.3091 0.73241 0.0
O2997 O 0.06687 0.34034 0.77525 0.0
C2998 C 0.07233 0.31197 0.76352 0.0
O2999 O 0.08668 0.29433 0.64591 0.0
O3000 O 0.1383 0.28183 0.64436 0.0
C3001 C 0.13533 0.32691 0.72212 0.0
C3002 C 0.11373 0.29569 0.63085 0.0
Zn3003 Zn 0.60873 -0.01172 0.15748 0.0
Zn3004 Zn 0.65379 0.85844 0.2316 0.0
Zn3005 Zn 0.6401 0.94726 0.19382 0.0
C3006 C 0.65345 0.91381 0.26353 0.0
C3007 C 0.69205 0.89017 0.18987 0.0
O3008 O 0.63911 0.93143 0.14591 0.0
O3009 O 0.58747 0.94396 0.14437 0.0
C3010 C 0.63495 0.01904 0.21336 0.0
O3011 O 0.65448 0.91667 0.23242 0.0
O3012 O 0.65891 0.88543 0.27525 0.0
O3013 O 0.69631 0.86166 0.20171 0.0
O3014 O 0.66807 0.90641 0.20125 0.0
O3015 O 0.60678 0.01776 0.19973 0.0
O3016 O 0.65503 -0.00475 0.20901 0.0
O3017 O 0.67501 0.98457 0.17605 0.0
O3018 O 0.65014 -0.0012 0.13003 0.0
C3019 C 0.67628 -0.00314 0.14688 0.0
O3020 O 0.59365 0.93037 0.21828 0.0
O3021 O 0.6111 0.88049 0.20698 0.0
C3022 C 0.61205 0.93008 0.13088 0.0
C3023 C 0.59046 0.89887 0.22212 0.0
Zn3024 Zn 0.56832 0.7375 0.10873 0.0
Zn3025 Zn 0.4942 0.86734 0.15379 0.0
Zn3026 Zn 0.53197 0.77852 0.1401 0.0
C3027 C 0.46226 0.81197 0.15346 0.0
C3028 C 0.53593 0.83561 0.19204 0.0
O3029 O 0.57988 0.79435 0.1391 0.0
O3030 O 0.58143 0.78182 0.08746 0.0
C3031 C 0.51244 0.70675 0.13495 0.0
O3032 O 0.49337 0.80911 0.15448 0.0
O3033 O 0.45054 0.84035 0.15891 0.0
O3034 O 0.52408 0.86412 0.19632 0.0
O3035 O 0.52454 0.81937 0.16806 0.0
O3036 O 0.52607 0.70802 0.10678 0.0
O3037 O 0.51678 0.73054 0.15502 0.0
O3038 O 0.54974 0.74122 0.17502 0.0
O3039 O 0.59577 0.727 0.15015 0.0
C3040 C 0.57891 0.72893 0.17629 0.0
O3041 O 0.50752 0.79541 0.09365 0.0
O3042 O 0.51881 0.84529 0.1111 0.0
C3043 C 0.59492 0.7957 0.11204 0.0
C3044 C 0.50367 0.82692 0.09045 0.0
Zn3045 Zn 0.60845 0.74419 0.4038 0.0
Zn3046 Zn 0.73829 0.81831 0.35873 0.0
Zn3047 Zn 0.69727 0.78197 0.3901 0.0
C3048 C 0.74687 0.8289 0.42628 0.0
C3049 C 0.76904 0.76242 0.38495 0.0
O3050 O 0.68038 0.75751 0.34366 0.0
O3051 O 0.6305 0.7688 0.36111 0.0
C3052 C 0.64018 0.78592 0.44205 0.0
O3053 O 0.73457 0.79973 0.42501 0.0
O3054 O 0.7488 0.84576 0.40015 0.0
O3055 O 0.76777 0.77605 0.35678 0.0
O3056 O 0.74525 0.76678 0.40502 0.0
O3057 O 0.61167 0.77408 0.44632 0.0
O3058 O 0.65642 0.77454 0.41807 0.0
O3059 O 0.66668 0.74337 0.40448 0.0
O3060 O 0.63544 0.70053 0.40892 0.0
C3061 C 0.66382 0.71226 0.40346 0.0
O3062 O 0.68144 0.82988 0.3891 0.0
O3063 O 0.69397 0.83142 0.33747 0.0
C3064 C 0.64887 0.75366 0.34046 0.0
C3065 C 0.68009 0.84491 0.36204 0.0
Zn3066 Zn 0.65748 -0.01172 0.60873 0.0
Zn3067 Zn 0.7316 0.85845 0.6538 0.0
Zn3068 Zn 0.69382 0.94726 0.6401 0.0
C3069 C 0.76353 0.91381 0.65346 0.0
C3070 C 0.68987 0.89017 0.69204 0.0
O3071 O 0.64591 0.93144 0.6391 0.0
O3072 O 0.64437 0.94396 0.58747 0.0
C3073 C 0.71336 0.01904 0.63495 0.0
O3074 O 0.73242 0.91668 0.65448 0.0
O3075 O 0.77526 0.88544 0.65892 0.0
O3076 O 0.70172 0.86167 0.69632 0.0
O3077 O 0.70125 0.90642 0.66807 0.0
O3078 O 0.69973 0.01777 0.60678 0.0
O3079 O 0.70901 -0.00475 0.65502 0.0
O3080 O 0.67605 0.98457 0.67502 0.0
O3081 O 0.63003 -0.00121 0.65015 0.0
C3082 C 0.64689 -0.00314 0.67628 0.0
O3083 O 0.71828 0.93038 0.59366 0.0
O3084 O 0.70699 0.88049 0.61111 0.0
C3085 C 0.63088 0.93009 0.61204 0.0
C3086 C 0.72213 0.89887 0.59046 0.0
Zn3087 Zn 0.48751 0.90747 0.85873 0.0
Zn3088 Zn 0.61734 0.9816 0.90379 0.0
Zn3089 Zn 0.52853 0.94382 0.8901 0.0
C3090 C 0.56198 0.01353 0.90345 0.0
C3091 C 0.58562 0.93987 0.94204 0.0
O3092 O 0.54436 0.89591 0.88911 0.0
O3093 O 0.53184 0.89437 0.83747 0.0
C3094 C 0.45675 0.96335 0.88495 0.0
O3095 O 0.55912 0.98242 0.90448 0.0
O3096 O 0.59035 0.02526 0.90891 0.0
O3097 O 0.61413 0.95172 0.94632 0.0
O3098 O 0.56938 0.95125 0.91806 0.0
O3099 O 0.45803 0.94973 0.85678 0.0
O3100 O 0.48054 0.95901 0.90502 0.0
O3101 O 0.49123 0.92605 0.92501 0.0
O3102 O 0.477 0.88003 0.90014 0.0
C3103 C 0.47893 0.89688 0.92628 0.0
O3104 O 0.54542 0.96828 0.84365 0.0
O3105 O 0.5953 0.95699 0.8611 0.0
C3106 C 0.54571 0.88088 0.86205 0.0
C3107 C 0.57693 0.97213 0.84045 0.0
Zn3108 Zn 0.56831 0.48828 0.11706 0.0
Zn3109 Zn 0.49419 0.35844 0.07199 0.0
Zn3110 Zn 0.53196 0.44726 0.08569 0.0
C3111 C 0.46226 0.4138 0.07233 0.0
C3112 C 0.53592 0.39017 0.03374 0.0
O3113 O 0.57987 0.43143 0.08669 0.0
O3114 O 0.58142 0.44396 0.13833 0.0
C3115 C 0.51242 0.51903 0.09084 0.0
O3116 O 0.49336 0.41667 0.07131 0.0
O3117 O 0.45053 0.38543 0.06687 0.0
O3118 O 0.52407 0.36166 0.02947 0.0
O3119 O 0.52453 0.40641 0.05772 0.0
O3120 O 0.52605 0.51776 0.11901 0.0
O3121 O 0.51677 0.49524 0.07077 0.0
O3122 O 0.54973 0.48457 0.05078 0.0
O3123 O 0.59575 0.49879 0.07565 0.0
C3124 C 0.5789 0.49686 0.04951 0.0
O3125 O 0.5075 0.43037 0.13214 0.0
O3126 O 0.5188 0.38049 0.11468 0.0
C3127 C 0.59491 0.43008 0.11375 0.0
C3128 C 0.50366 0.39886 0.13533 0.0
Zn3129 Zn 0.98751 0.81832 0.36706 0.0
Zn3130 Zn 0.11735 0.74419 0.32199 0.0
Zn3131 Zn 0.02854 0.78197 0.33569 0.0
C3132 C 0.06199 0.71226 0.32233 0.0
C3133 C 0.08563 0.78592 0.28374 0.0
O3134 O 0.04436 0.82988 0.33668 0.0
O3135 O 0.03184 0.83142 0.38832 0.0
C3136 C 0.95676 0.76244 0.34084 0.0
O3137 O 0.05912 0.74337 0.3213 0.0
O3138 O 0.09036 0.70053 0.31687 0.0
O3139 O 0.11413 0.77407 0.27947 0.0
O3140 O 0.06938 0.77454 0.30772 0.0
O3141 O 0.95803 0.77606 0.36901 0.0
O3142 O 0.98055 0.76678 0.32077 0.0
O3143 O -0.00877 0.79974 0.30077 0.0
O3144 O 0.977 0.84576 0.32564 0.0
C3145 C 0.97894 0.82891 0.29951 0.0
O3146 O 0.04542 0.75751 0.38213 0.0
O3147 O 0.0953 0.7688 0.36468 0.0
C3148 C 0.04571 0.84491 0.36374 0.0
C3149 C 0.07693 0.75366 0.38533 0.0
Zn3150 Zn 0.73159 0.36735 0.57199 0.0
Zn3151 Zn 0.65748 0.23751 0.61707 0.0
Zn3152 Zn 0.69382 0.27853 0.58569 0.0
C3153 C 0.64689 0.22893 0.54951 0.0
C3154 C 0.71336 0.20676 0.59084 0.0
O3155 O 0.71828 0.29542 0.63214 0.0
O3156 O 0.70698 0.3453 0.61469 0.0
C3157 C 0.68986 0.33562 0.53375 0.0
O3158 O 0.67605 0.24122 0.55078 0.0
O3159 O 0.63003 0.227 0.57565 0.0
O3160 O 0.69973 0.20803 0.61901 0.0
O3161 O 0.70901 0.23054 0.57077 0.0
O3162 O 0.70171 0.36412 0.52947 0.0
O3163 O 0.70125 0.31938 0.55773 0.0
O3164 O 0.73242 0.30912 0.57131 0.0
O3165 O 0.77525 0.34036 0.56687 0.0
C3166 C 0.76353 0.31199 0.57234 0.0
O3167 O 0.64591 0.29436 0.58669 0.0
O3168 O 0.64437 0.28183 0.63833 0.0
C3169 C 0.72212 0.32693 0.63534 0.0
C3170 C 0.63088 0.29571 0.61375 0.0
Zn3171 Zn 0.23829 0.90747 0.86706 0.0
Zn3172 Zn 0.10845 0.98159 0.82199 0.0
Zn3173 Zn 0.19726 0.94382 0.83569 0.0
C3174 C 0.16382 0.01353 0.82232 0.0
C3175 C 0.14018 0.93986 0.78374 0.0
O3176 O 0.18144 0.89591 0.83668 0.0
O3177 O 0.19397 0.89437 0.88832 0.0
C3178 C 0.26904 0.96336 0.84084 0.0
O3179 O 0.16668 0.98242 0.8213 0.0
O3180 O 0.13544 0.02525 0.81687 0.0
O3181 O 0.11167 0.95171 0.77947 0.0
O3182 O 0.15642 0.95125 0.80772 0.0
O3183 O 0.26777 0.94973 0.86901 0.0
O3184 O 0.24525 0.95901 0.82077 0.0
O3185 O 0.23457 0.92605 0.80078 0.0
O3186 O 0.2488 0.88003 0.82565 0.0
C3187 C 0.24687 0.89689 0.79951 0.0
O3188 O 0.18038 0.96828 0.88213 0.0
O3189 O 0.1305 0.95698 0.86468 0.0
C3190 C 0.18009 0.88087 0.86374 0.0
C3191 C 0.14887 0.97213 0.88533 0.0
Zn3192 Zn 0.60873 0.56832 0.23751 0.0
Zn3193 Zn 0.6538 0.4942 0.36734 0.0
Zn3194 Zn 0.6401 0.53197 0.27853 0.0
C3195 C 0.65347 0.46226 0.31198 0.0
C3196 C 0.69205 0.53593 0.33562 0.0
O3197 O 0.6391 0.57988 0.29436 0.0
O3198 O 0.58747 0.58143 0.28184 0.0
C3199 C 0.63495 0.51244 0.20675 0.0
O3200 O 0.65449 0.49337 0.30911 0.0
O3201 O 0.65892 0.45054 0.34035 0.0
O3202 O 0.69632 0.52408 0.36412 0.0
O3203 O 0.66807 0.52454 0.31937 0.0
O3204 O 0.60678 0.52607 0.20803 0.0
O3205 O 0.65502 0.51679 0.23054 0.0
O3206 O 0.67502 0.54974 0.24123 0.0
O3207 O 0.65015 0.59577 0.22701 0.0
C3208 C 0.67629 0.57891 0.22893 0.0
O3209 O 0.59366 0.50751 0.29542 0.0
O3210 O 0.61111 0.51881 0.3453 0.0
C3211 C 0.61204 0.59492 0.29571 0.0
C3212 C 0.59046 0.50367 0.32693 0.0
Zn3213 Zn 0.9816 0.9038 0.61734 0.0
Zn3214 Zn 0.90747 0.85873 0.48751 0.0
Zn3215 Zn 0.94382 0.8901 0.52853 0.0
C3216 C 0.89688 0.92628 0.47893 0.0
C3217 C 0.96335 0.88495 0.45675 0.0
O3218 O 0.96828 0.84366 0.54542 0.0
O3219 O 0.95699 0.86111 0.5953 0.0
C3220 C 0.93987 0.94205 0.58561 0.0
O3221 O 0.92605 0.92502 0.49122 0.0
O3222 O 0.88003 0.90015 0.477 0.0
O3223 O 0.94972 0.85678 0.45802 0.0
O3224 O 0.95901 0.90502 0.48054 0.0
O3225 O 0.95172 0.94632 0.61412 0.0
O3226 O 0.95125 0.91807 0.56937 0.0
O3227 O 0.98242 0.90448 0.55911 0.0
O3228 O 0.02526 0.90892 0.59034 0.0
C3229 C 0.01353 0.90345 0.56197 0.0
O3230 O 0.89591 0.88911 0.54436 0.0
O3231 O 0.89437 0.83747 0.53183 0.0
C3232 C 0.97212 0.84046 0.57693 0.0
C3233 C 0.88088 0.86205 0.54571 0.0
Zn3234 Zn 0.57199 0.2316 0.86735 0.0
Zn3235 Zn 0.61706 0.15747 0.73751 0.0
Zn3236 Zn 0.58569 0.19382 0.77853 0.0
C3237 C 0.54951 0.14688 0.72893 0.0
C3238 C 0.59084 0.21336 0.70676 0.0
O3239 O 0.63213 0.21828 0.79542 0.0
O3240 O 0.61468 0.20699 0.8453 0.0
C3241 C 0.53374 0.18987 0.83562 0.0
O3242 O 0.55077 0.17605 0.74123 0.0
O3243 O 0.57565 0.13003 0.727 0.0
O3244 O 0.61901 0.19973 0.70803 0.0
O3245 O 0.57076 0.20901 0.73055 0.0
O3246 O 0.52947 0.20172 0.86413 0.0
O3247 O 0.55772 0.20125 0.81938 0.0
O3248 O 0.5713 0.23242 0.80912 0.0
O3249 O 0.56687 0.27526 0.84035 0.0
C3250 C 0.57233 0.26353 0.81198 0.0
O3251 O 0.58669 0.14591 0.79436 0.0
O3252 O 0.63832 0.14437 0.78183 0.0
C3253 C 0.63533 0.22213 0.82693 0.0
C3254 C 0.61375 0.13088 0.79571 0.0
Zn3255 Zn 0.31832 0.86705 0.9875 0.0
Zn3256 Zn 0.2442 0.82198 0.11733 0.0
Zn3257 Zn 0.28198 0.83568 0.02852 0.0
C3258 C 0.21227 0.82233 0.06197 0.0
C3259 C 0.28593 0.78374 0.08561 0.0
O3260 O 0.32989 0.83668 0.04435 0.0
O3261 O 0.33143 0.88832 0.03182 0.0
C3262 C 0.26244 0.84083 0.95674 0.0
O3263 O 0.24338 0.8213 0.0591 0.0
O3264 O 0.20054 0.81686 0.09034 0.0
O3265 O 0.27408 0.77946 0.11411 0.0
O3266 O 0.27455 0.80772 0.06936 0.0
O3267 O 0.27607 0.869 0.95802 0.0
O3268 O 0.26679 0.82076 0.98053 0.0
O3269 O 0.29975 0.80077 -0.00879 0.0
O3270 O 0.34577 0.82564 0.97699 0.0
C3271 C 0.32891 0.7995 0.97892 0.0
O3272 O 0.25752 0.88213 0.04541 0.0
O3273 O 0.26881 0.86468 0.09529 0.0
C3274 C 0.34492 0.86374 0.0457 0.0
C3275 C 0.25367 0.88532 0.07692 0.0
Zn3276 Zn 0.60873 0.65748 -0.01171 0.0
Zn3277 Zn 0.6538 0.73159 0.85845 0.0
Zn3278 Zn 0.6401 0.69382 0.94726 0.0
C3279 C 0.65346 0.76353 0.91381 0.0
C3280 C 0.69204 0.68986 0.89017 0.0
O3281 O 0.63911 0.64591 0.93144 0.0
O3282 O 0.58747 0.64437 0.94396 0.0
C3283 C 0.63496 0.71336 0.01904 0.0
O3284 O 0.65448 0.73242 0.91667 0.0
O3285 O 0.65892 0.77525 0.88543 0.0
O3286 O 0.69632 0.70171 0.86166 0.0
O3287 O 0.66807 0.70125 0.90642 0.0
O3288 O 0.60679 0.69973 0.01777 0.0
O3289 O 0.65503 0.70901 -0.00475 0.0
O3290 O 0.67502 0.67605 0.98457 0.0
O3291 O 0.65014 0.63003 -0.0012 0.0
C3292 C 0.67628 0.64688 -0.00314 0.0
O3293 O 0.59365 0.71828 0.93038 0.0
O3294 O 0.6111 0.70699 0.88049 0.0
C3295 C 0.61205 0.63088 0.93009 0.0
C3296 C 0.59046 0.72213 0.89887 0.0
Zn3297 Zn 0.74419 0.90379 0.10845 0.0
Zn3298 Zn 0.81832 0.85873 0.23828 0.0
Zn3299 Zn 0.78197 0.8901 0.19726 0.0
C3300 C 0.82891 0.92628 0.24686 0.0
C3301 C 0.76243 0.88495 0.26904 0.0
O3302 O 0.75751 0.84365 0.18038 0.0
O3303 O 0.76881 0.8611 0.1305 0.0
C3304 C 0.78592 0.94204 0.14017 0.0
O3305 O 0.79974 0.92501 0.23457 0.0
O3306 O 0.84576 0.90015 0.24879 0.0
O3307 O 0.77606 0.85678 0.26777 0.0
O3308 O 0.76678 0.90502 0.24525 0.0
O3309 O 0.77407 0.94631 0.11166 0.0
O3310 O 0.77454 0.91806 0.15642 0.0
O3311 O 0.74337 0.90448 0.16668 0.0
O3312 O 0.70053 0.90891 0.13544 0.0
C3313 C 0.71226 0.90345 0.16381 0.0
O3314 O 0.82988 0.8891 0.18144 0.0
O3315 O 0.83143 0.83747 0.19396 0.0
C3316 C 0.75367 0.84045 0.14887 0.0
C3317 C 0.84492 0.86204 0.18009 0.0
Zn3318 Zn 0.61706 0.06832 0.48829 0.0
Zn3319 Zn 0.57199 -0.00581 0.35845 0.0
Zn3320 Zn 0.58569 0.03197 0.44726 0.0
C3321 C 0.57234 0.96226 0.41381 0.0
C3322 C 0.53375 0.03592 0.39018 0.0
O3323 O 0.58669 0.07988 0.43144 0.0
O3324 O 0.63832 0.08143 0.44396 0.0
C3325 C 0.59084 0.01244 0.51904 0.0
O3326 O 0.57131 -0.00663 0.41668 0.0
O3327 O 0.56688 0.95053 0.38544 0.0
O3328 O 0.52947 0.02407 0.36167 0.0
O3329 O 0.55773 0.02454 0.40642 0.0
O3330 O 0.61901 0.02607 0.51777 0.0
O3331 O 0.57077 0.01678 0.49525 0.0
O3332 O 0.55077 0.04974 0.48457 0.0
O3333 O 0.57564 0.09576 0.49879 0.0
C3334 C 0.54951 0.0789 0.49686 0.0
O3335 O 0.63214 0.00751 0.43037 0.0
O3336 O 0.61469 0.0188 0.38049 0.0
C3337 C 0.61375 0.09492 0.43009 0.0
C3338 C 0.63534 0.00366 0.39886 0.0
Zn3339 Zn 0.4816 0.822 0.60845 0.0
Zn3340 Zn 0.40747 0.86706 0.73828 0.0
Zn3341 Zn 0.44383 0.8357 0.69726 0.0
C3342 C 0.39689 0.79951 0.74686 0.0
C3343 C 0.46336 0.84084 0.76904 0.0
O3344 O 0.46828 0.88214 0.68037 0.0
O3345 O 0.45699 0.86469 0.63049 0.0
C3346 C 0.43987 0.78375 0.64017 0.0
O3347 O 0.42606 0.80078 0.73457 0.0
O3348 O 0.38003 0.82565 0.74879 0.0
O3349 O 0.44973 0.86901 0.76777 0.0
O3350 O 0.45901 0.82077 0.74525 0.0
O3351 O 0.45172 0.77948 0.61167 0.0
O3352 O 0.45125 0.80773 0.65642 0.0
O3353 O 0.48242 0.82132 0.66668 0.0
O3354 O 0.52526 0.81688 0.63544 0.0
C3355 C 0.51353 0.82235 0.66381 0.0
O3356 O 0.39592 0.83669 0.68143 0.0
O3357 O 0.39437 0.88832 0.69396 0.0
C3358 C 0.47213 0.88534 0.64886 0.0
C3359 C 0.38088 0.86374 0.68008 0.0
Zn3360 Zn 0.7375 0.60873 0.06831 0.0
Zn3361 Zn 0.86734 0.6538 -0.00581 0.0
Zn3362 Zn 0.77853 0.6401 0.03196 0.0
C3363 C 0.81198 0.65347 0.96226 0.0
C3364 C 0.83562 0.69205 0.03593 0.0
O3365 O 0.79436 0.63911 0.07987 0.0
O3366 O 0.78183 0.58747 0.08142 0.0
C3367 C 0.70675 0.63495 0.01243 0.0
O3368 O 0.80911 0.65449 -0.00663 0.0
O3369 O 0.84035 0.65893 0.95053 0.0
O3370 O 0.86412 0.69632 0.02408 0.0
O3371 O 0.81937 0.66807 0.02454 0.0
O3372 O 0.70802 0.60678 0.02606 0.0
O3373 O 0.73054 0.65502 0.01678 0.0
O3374 O 0.74122 0.67501 0.04974 0.0
O3375 O 0.72699 0.65014 0.09576 0.0
C3376 C 0.72893 0.67628 0.0789 0.0
O3377 O 0.79542 0.59365 0.00751 0.0
O3378 O 0.84528 0.61111 0.0188 0.0
C3379 C 0.79571 0.61205 0.09491 0.0
C3380 C 0.82693 0.59045 0.00365 0.0
Zn3381 Zn 0.23751 0.61706 0.65747 0.0
Zn3382 Zn 0.36735 0.57199 0.73159 0.0
Zn3383 Zn 0.27853 0.58569 0.69382 0.0
C3384 C 0.31198 0.57233 0.76352 0.0
C3385 C 0.33562 0.53374 0.68986 0.0
O3386 O 0.29436 0.58669 0.64591 0.0
O3387 O 0.28183 0.63833 0.64436 0.0
C3388 C 0.20676 0.59084 0.71336 0.0
O3389 O 0.30912 0.57131 0.73241 0.0
O3390 O 0.34036 0.56687 0.77525 0.0
O3391 O 0.36413 0.52947 0.70171 0.0
O3392 O 0.31938 0.55772 0.70124 0.0
O3393 O 0.20803 0.61901 0.69973 0.0
O3394 O 0.23054 0.57076 0.70901 0.0
O3395 O 0.24122 0.55077 0.67605 0.0
O3396 O 0.227 0.57564 0.63003 0.0
C3397 C 0.22893 0.54951 0.64688 0.0
O3398 O 0.29542 0.63213 0.71828 0.0
O3399 O 0.3453 0.61468 0.70698 0.0
C3400 C 0.2957 0.61375 0.63087 0.0
C3401 C 0.32693 0.63533 0.72212 0.0
Zn3402 Zn 0.85873 0.48751 0.90747 0.0
Zn3403 Zn 0.9038 0.61735 0.98159 0.0
Zn3404 Zn 0.8901 0.52853 0.94382 0.0
C3405 C 0.90346 0.56199 0.01353 0.0
C3406 C 0.94205 0.58562 0.93986 0.0
O3407 O 0.88911 0.54436 0.89591 0.0
O3408 O 0.83747 0.53183 0.89436 0.0
C3409 C 0.88495 0.45676 0.96336 0.0
O3410 O 0.90448 0.55912 0.98242 0.0
O3411 O 0.90892 0.59036 0.02525 0.0
O3412 O 0.94632 0.61413 0.95171 0.0
O3413 O 0.91807 0.56938 0.95125 0.0
O3414 O 0.85678 0.45803 0.94973 0.0
O3415 O 0.90503 0.48054 0.95901 0.0
O3416 O 0.92502 0.49122 0.92605 0.0
O3417 O 0.90015 0.477 0.88003 0.0
C3418 C 0.92628 0.47893 0.89689 0.0
O3419 O 0.84366 0.54542 0.96828 0.0
O3420 O 0.86111 0.5953 0.95698 0.0
C3421 C 0.86205 0.54571 0.88087 0.0
C3422 C 0.84046 0.57693 0.97212 0.0
Zn3423 Zn 0.85845 0.15379 0.23159 0.0
Zn3424 Zn -0.01172 0.10873 0.15747 0.0
Zn3425 Zn 0.94726 0.14009 0.19382 0.0
C3426 C -0.00314 0.17628 0.14688 0.0
C3427 C 0.01904 0.13494 0.21335 0.0
O3428 O 0.93037 0.09365 0.21827 0.0
O3429 O 0.88049 0.1111 0.20698 0.0
C3430 C 0.89017 0.19204 0.18986 0.0
O3431 O 0.98457 0.17501 0.17605 0.0
O3432 O -0.00121 0.15014 0.13002 0.0
O3433 O 0.01777 0.10678 0.19972 0.0
O3434 O -0.00475 0.15502 0.20901 0.0
O3435 O 0.86167 0.19631 0.20171 0.0
O3436 O 0.90642 0.16806 0.20125 0.0
O3437 O 0.91668 0.15447 0.23242 0.0
O3438 O 0.88544 0.15891 0.27525 0.0
C3439 C 0.91381 0.15345 0.26352 0.0
O3440 O 0.93143 0.1391 0.14591 0.0
O3441 O 0.94396 0.08746 0.14436 0.0
C3442 C 0.89886 0.09045 0.22212 0.0
C3443 C 0.93008 0.11204 0.13087 0.0
Zn3444 Zn 0.822 0.60844 0.4816 0.0
Zn3445 Zn 0.86707 0.73829 0.40748 0.0
Zn3446 Zn 0.83569 0.69726 0.44383 0.0
C3447 C 0.79951 0.74686 0.39689 0.0
C3448 C 0.84084 0.76904 0.46336 0.0
O3449 O 0.88214 0.68037 0.46828 0.0
O3450 O 0.86469 0.63049 0.45699 0.0
C3451 C 0.78375 0.64017 0.43987 0.0
O3452 O 0.80078 0.73457 0.42605 0.0
O3453 O 0.82565 0.7488 0.38003 0.0
O3454 O 0.86901 0.76777 0.44973 0.0
O3455 O 0.82077 0.74525 0.45901 0.0
O3456 O 0.77948 0.61166 0.45171 0.0
O3457 O 0.80773 0.65642 0.45126 0.0
O3458 O 0.82131 0.66667 0.48242 0.0
O3459 O 0.81688 0.63543 0.52526 0.0
C3460 C 0.82234 0.6638 0.51353 0.0
O3461 O 0.83669 0.68144 0.39591 0.0
O3462 O 0.88833 0.69396 0.39437 0.0
C3463 C 0.88534 0.64886 0.47213 0.0
C3464 C 0.86375 0.68009 0.38088 0.0
Zn3465 Zn 0.35845 0.57199 -0.00581 0.0
Zn3466 Zn 0.48828 0.61706 0.06832 0.0
Zn3467 Zn 0.44726 0.58569 0.03197 0.0
C3468 C 0.49686 0.5495 0.07891 0.0
C3469 C 0.51904 0.59084 0.01244 0.0
O3470 O 0.43038 0.63213 0.00751 0.0
O3471 O 0.3805 0.61468 0.0188 0.0
C3472 C 0.39017 0.53374 0.03592 0.0
O3473 O 0.48457 0.55077 0.04974 0.0
O3474 O 0.49879 0.57564 0.09576 0.0
O3475 O 0.51777 0.619 0.02607 0.0
O3476 O 0.49525 0.57076 0.01678 0.0
O3477 O 0.36167 0.52947 0.02407 0.0
O3478 O 0.40642 0.55772 0.02454 0.0
O3479 O 0.41668 0.5713 -0.00663 0.0
O3480 O 0.38544 0.56687 0.95053 0.0
C3481 C 0.41382 0.57232 0.96226 0.0
O3482 O 0.43143 0.58668 0.07988 0.0
O3483 O 0.44396 0.63832 0.08142 0.0
C3484 C 0.39887 0.63533 0.00366 0.0
C3485 C 0.43008 0.61374 0.09491 0.0
Zn3486 Zn 0.85873 0.23829 0.81832 0.0
Zn3487 Zn 0.90379 0.10845 0.7442 0.0
Zn3488 Zn 0.8901 0.19726 0.78197 0.0
C3489 C 0.90346 0.16382 0.71226 0.0
C3490 C 0.94204 0.14017 0.78593 0.0
O3491 O 0.8891 0.18144 0.82988 0.0
O3492 O 0.83747 0.19396 0.83142 0.0
C3493 C 0.88495 0.26904 0.76243 0.0
O3494 O 0.90448 0.16668 0.74337 0.0
O3495 O 0.90891 0.13544 0.70054 0.0
O3496 O 0.94631 0.11166 0.77408 0.0
O3497 O 0.91806 0.15642 0.77454 0.0
O3498 O 0.85678 0.26777 0.77606 0.0
O3499 O 0.90502 0.24525 0.76678 0.0
O3500 O 0.92501 0.23457 0.79974 0.0
O3501 O 0.90014 0.2488 0.84576 0.0
C3502 C 0.92628 0.24687 0.8289 0.0
O3503 O 0.84365 0.18038 0.75751 0.0
O3504 O 0.8611 0.1305 0.7688 0.0
C3505 C 0.86204 0.18009 0.84491 0.0
C3506 C 0.84045 0.14887 0.75366 0.0
Zn3507 Zn 0.36706 0.4875 0.31831 0.0
Zn3508 Zn 0.322 0.61734 0.2442 0.0
Zn3509 Zn 0.3357 0.52852 0.28196 0.0
C3510 C 0.32234 0.56198 0.21226 0.0
C3511 C 0.28375 0.58561 0.28593 0.0
O3512 O 0.33669 0.54435 0.32987 0.0
O3513 O 0.38833 0.53182 0.33142 0.0
C3514 C 0.34084 0.45674 0.26243 0.0
O3515 O 0.32131 0.55911 0.24337 0.0
O3516 O 0.31688 0.59035 0.20053 0.0
O3517 O 0.27947 0.61412 0.27408 0.0
O3518 O 0.30773 0.56937 0.27454 0.0
O3519 O 0.36901 0.45801 0.27606 0.0
O3520 O 0.32077 0.48053 0.26677 0.0
O3521 O 0.30078 0.49122 0.29973 0.0
O3522 O 0.32565 0.47699 0.34576 0.0
C3523 C 0.29951 0.47892 0.3289 0.0
O3524 O 0.38214 0.54541 0.2575 0.0
O3525 O 0.36469 0.59529 0.2688 0.0
C3526 C 0.36375 0.5457 0.34491 0.0
C3527 C 0.38534 0.57692 0.25366 0.0
Zn3528 Zn 0.40747 0.23829 0.86706 0.0
Zn3529 Zn 0.48159 0.10845 0.82199 0.0
Zn3530 Zn 0.44382 0.19726 0.83569 0.0
C3531 C 0.51353 0.16381 0.82234 0.0
C3532 C 0.43986 0.14018 0.78374 0.0
O3533 O 0.39591 0.18144 0.83668 0.0
O3534 O 0.39436 0.19397 0.88832 0.0
C3535 C 0.46335 0.26904 0.84084 0.0
O3536 O 0.48242 0.16668 0.82131 0.0
O3537 O 0.52525 0.13544 0.81688 0.0
O3538 O 0.45171 0.11167 0.77947 0.0
O3539 O 0.45125 0.15642 0.80772 0.0
O3540 O 0.44972 0.26777 0.869 0.0
O3541 O 0.45901 0.24525 0.82077 0.0
O3542 O 0.42605 0.23457 0.80077 0.0
O3543 O 0.38002 0.24879 0.82564 0.0
C3544 C 0.39688 0.24686 0.7995 0.0
O3545 O 0.46827 0.18038 0.88213 0.0
O3546 O 0.45698 0.13049 0.86468 0.0
C3547 C 0.38087 0.18009 0.86374 0.0
C3548 C 0.47212 0.14887 0.88533 0.0
Zn3549 Zn 0.23751 0.15748 0.61705 0.0
Zn3550 Zn 0.36734 0.2316 0.57199 0.0
Zn3551 Zn 0.27853 0.19382 0.58569 0.0
C3552 C 0.31198 0.26353 0.57233 0.0
C3553 C 0.33561 0.18986 0.53374 0.0
O3554 O 0.29435 0.14591 0.58668 0.0
O3555 O 0.28183 0.14437 0.63832 0.0
C3556 C 0.20675 0.21336 0.59083 0.0
O3557 O 0.30911 0.23242 0.5713 0.0
O3558 O 0.34035 0.27526 0.56687 0.0
O3559 O 0.36412 0.20171 0.52946 0.0
O3560 O 0.31937 0.20125 0.55772 0.0
O3561 O 0.20802 0.19973 0.619 0.0
O3562 O 0.23054 0.20901 0.57076 0.0
O3563 O 0.24122 0.17605 0.55077 0.0
O3564 O 0.227 0.13003 0.57564 0.0
C3565 C 0.22893 0.14689 0.5495 0.0
O3566 O 0.29541 0.21828 0.63213 0.0
O3567 O 0.34529 0.20698 0.61468 0.0
C3568 C 0.2957 0.13088 0.61374 0.0
C3569 C 0.32692 0.22213 0.63533 0.0
Zn3570 Zn 0.24419 0.11734 0.32199 0.0
Zn3571 Zn 0.31832 0.98751 0.36706 0.0
Zn3572 Zn 0.28197 0.02853 0.33569 0.0
C3573 C 0.32891 0.97893 0.2995 0.0
C3574 C 0.26243 0.95675 0.34083 0.0
O3575 O 0.25751 0.04541 0.38213 0.0
O3576 O 0.2688 0.09529 0.36468 0.0
C3577 C 0.28592 0.08562 0.28374 0.0
O3578 O 0.29974 -0.00878 0.30077 0.0
O3579 O 0.34576 0.977 0.32564 0.0
O3580 O 0.27606 0.95802 0.369 0.0
O3581 O 0.26678 0.98054 0.32076 0.0
O3582 O 0.27408 0.11412 0.27947 0.0
O3583 O 0.27454 0.06937 0.30772 0.0
O3584 O 0.24337 0.05911 0.3213 0.0
O3585 O 0.20053 0.09035 0.31687 0.0
C3586 C 0.21226 0.06198 0.32233 0.0
O3587 O 0.32988 0.04435 0.33668 0.0
O3588 O 0.33142 0.03183 0.38832 0.0
C3589 C 0.25366 0.07692 0.38533 0.0
C3590 C 0.34491 0.0457 0.36374 0.0
Zn3591 Zn 0.35845 -0.00581 0.07199 0.0
Zn3592 Zn 0.48828 0.06832 0.11706 0.0
Zn3593 Zn 0.44726 0.03197 0.08569 0.0
C3594 C 0.49686 0.0789 0.04951 0.0
C3595 C 0.51904 0.01243 0.09084 0.0
O3596 O 0.43037 0.00751 0.13213 0.0
O3597 O 0.38049 0.0188 0.11468 0.0
C3598 C 0.39017 0.03592 0.03374 0.0
O3599 O 0.48456 0.04974 0.05077 0.0
O3600 O 0.49879 0.09576 0.07564 0.0
O3601 O 0.51776 0.02606 0.119 0.0
O3602 O 0.49525 0.01678 0.07076 0.0
O3603 O 0.36166 0.02407 0.02947 0.0
O3604 O 0.40641 0.02454 0.05772 0.0
O3605 O 0.41667 -0.00663 0.07131 0.0
O3606 O 0.38544 0.95053 0.06687 0.0
C3607 C 0.41381 0.96226 0.07233 0.0
O3608 O 0.43143 0.07987 0.08668 0.0
O3609 O 0.44395 0.08142 0.13832 0.0
C3610 C 0.39887 0.00366 0.13533 0.0
C3611 C 0.43008 0.09491 0.11374 0.0
Zn3612 Zn 0.40748 0.48751 0.85872 0.0
Zn3613 Zn 0.4816 0.61735 0.9038 0.0
Zn3614 Zn 0.44383 0.52853 0.89009 0.0
C3615 C 0.51354 0.56199 0.90346 0.0
C3616 C 0.43987 0.58562 0.94204 0.0
O3617 O 0.39592 0.54436 0.8891 0.0
O3618 O 0.39438 0.53183 0.83746 0.0
C3619 C 0.46337 0.45675 0.88494 0.0
O3620 O 0.48243 0.55912 0.90448 0.0
O3621 O 0.52526 0.59036 0.90892 0.0
O3622 O 0.45171 0.61412 0.94632 0.0
O3623 O 0.45126 0.56937 0.91806 0.0
O3624 O 0.44974 0.45803 0.85678 0.0
O3625 O 0.45902 0.48054 0.90502 0.0
O3626 O 0.42606 0.49122 0.92501 0.0
O3627 O 0.38004 0.477 0.90014 0.0
C3628 C 0.39689 0.47893 0.92627 0.0
O3629 O 0.46829 0.54542 0.84365 0.0
O3630 O 0.45699 0.5953 0.8611 0.0
C3631 C 0.38088 0.5457 0.86204 0.0
C3632 C 0.47213 0.57693 0.84045 0.0
Zn3633 Zn 0.85844 0.23159 0.6538 0.0
Zn3634 Zn -0.01172 0.15747 0.60873 0.0
Zn3635 Zn 0.94725 0.19382 0.6401 0.0
C3636 C -0.00314 0.14688 0.67628 0.0
C3637 C 0.01903 0.21335 0.63495 0.0
O3638 O 0.93037 0.21828 0.59365 0.0
O3639 O 0.88049 0.20699 0.6111 0.0
C3640 C 0.89017 0.18986 0.69204 0.0
O3641 O 0.98456 0.17605 0.67501 0.0
O3642 O -0.00121 0.13003 0.65014 0.0
O3643 O 0.01776 0.19972 0.60678 0.0
O3644 O -0.00476 0.20901 0.65502 0.0
O3645 O 0.86166 0.20171 0.69632 0.0
O3646 O 0.90641 0.20125 0.66806 0.0
O3647 O 0.91667 0.23242 0.65448 0.0
O3648 O 0.88543 0.27525 0.65892 0.0
C3649 C 0.9138 0.26353 0.65346 0.0
O3650 O 0.93143 0.14591 0.6391 0.0
O3651 O 0.94395 0.14437 0.58746 0.0
C3652 C 0.89886 0.22213 0.59046 0.0
C3653 C 0.93008 0.13087 0.61204 0.0
Zn3654 Zn 0.2442 0.60844 0.40379 0.0
Zn3655 Zn 0.31831 0.73828 0.35872 0.0
Zn3656 Zn 0.28197 0.69726 0.39009 0.0
C3657 C 0.3289 0.74686 0.42627 0.0
C3658 C 0.26243 0.76903 0.38494 0.0
O3659 O 0.25751 0.68037 0.34365 0.0
O3660 O 0.26881 0.63049 0.3611 0.0
C3661 C 0.28593 0.64017 0.44204 0.0
O3662 O 0.29974 0.73456 0.42501 0.0
O3663 O 0.34576 0.74879 0.40013 0.0
O3664 O 0.27606 0.76776 0.35678 0.0
O3665 O 0.26678 0.74524 0.40502 0.0
O3666 O 0.27408 0.61166 0.44631 0.0
O3667 O 0.27454 0.65641 0.41806 0.0
O3668 O 0.24337 0.66667 0.40448 0.0
O3669 O 0.20054 0.63543 0.40891 0.0
C3670 C 0.21226 0.6638 0.40345 0.0
O3671 O 0.32988 0.68143 0.3891 0.0
O3672 O 0.33142 0.69395 0.33746 0.0
C3673 C 0.25367 0.64886 0.34045 0.0
C3674 C 0.34491 0.68008 0.36204 0.0
Zn3675 Zn 0.86734 -0.00581 0.1538 0.0
Zn3676 Zn 0.7375 0.06831 0.10873 0.0
Zn3677 Zn 0.77853 0.03197 0.1401 0.0
C3678 C 0.72892 0.0789 0.17628 0.0
C3679 C 0.70675 0.01243 0.13495 0.0
O3680 O 0.79542 0.00751 0.09365 0.0
O3681 O 0.8453 0.0188 0.11111 0.0
C3682 C 0.83561 0.03592 0.19205 0.0
O3683 O 0.74122 0.04974 0.17501 0.0
O3684 O 0.72699 0.09576 0.15014 0.0
O3685 O 0.70802 0.02606 0.10678 0.0
O3686 O 0.73054 0.01678 0.15502 0.0
O3687 O 0.86412 0.02407 0.19632 0.0
O3688 O 0.81937 0.02454 0.16807 0.0
O3689 O 0.80911 -0.00663 0.15448 0.0
O3690 O 0.84035 0.95053 0.15892 0.0
C3691 C 0.81198 0.96226 0.15345 0.0
O3692 O 0.79435 0.07988 0.1391 0.0
O3693 O 0.78182 0.08142 0.08746 0.0
C3694 C 0.82693 0.00366 0.09046 0.0
C3695 C 0.7957 0.09491 0.11204 0.0
Zn3696 Zn 0.32199 0.48159 0.60845 0.0
Zn3697 Zn 0.36706 0.40747 0.73827 0.0
Zn3698 Zn 0.33569 0.44382 0.69725 0.0
C3699 C 0.29951 0.39688 0.74685 0.0
C3700 C 0.34084 0.46335 0.76903 0.0
O3701 O 0.38213 0.46828 0.68037 0.0
O3702 O 0.36468 0.45698 0.63049 0.0
C3703 C 0.28374 0.43986 0.64017 0.0
O3704 O 0.30077 0.42605 0.73456 0.0
O3705 O 0.32564 0.38002 0.74878 0.0
O3706 O 0.36901 0.44972 0.76776 0.0
O3707 O 0.32077 0.459 0.74524 0.0
O3708 O 0.27947 0.45171 0.61167 0.0
O3709 O 0.30772 0.45125 0.65641 0.0
O3710 O 0.32131 0.48242 0.66667 0.0
O3711 O 0.31687 0.52525 0.63544 0.0
C3712 C 0.32233 0.51353 0.66381 0.0
O3713 O 0.33669 0.39591 0.68142 0.0
O3714 O 0.38833 0.39436 0.69395 0.0
C3715 C 0.38533 0.47212 0.64886 0.0
C3716 C 0.36375 0.38087 0.68007 0.0
Zn3717 Zn -0.00581 0.07199 0.35845 0.0
Zn3718 Zn 0.06832 0.11706 0.48828 0.0
Zn3719 Zn 0.03197 0.08569 0.44726 0.0
C3720 C 0.07891 0.0495 0.49686 0.0
C3721 C 0.01244 0.09084 0.51904 0.0
O3722 O 0.00751 0.13213 0.43037 0.0
O3723 O 0.0188 0.11468 0.38049 0.0
C3724 C 0.03592 0.03374 0.39017 0.0
O3725 O 0.04974 0.05077 0.48457 0.0
O3726 O 0.09577 0.07564 0.49879 0.0
O3727 O 0.02607 0.119 0.51777 0.0
O3728 O 0.01678 0.07076 0.49525 0.0
O3729 O 0.02407 0.02947 0.36167 0.0
O3730 O 0.02454 0.05772 0.40642 0.0
O3731 O -0.00663 0.0713 0.41668 0.0
O3732 O 0.95053 0.06687 0.38544 0.0
C3733 C 0.96226 0.07233 0.41382 0.0
O3734 O 0.07988 0.08668 0.43143 0.0
O3735 O 0.08142 0.13832 0.44396 0.0
C3736 C 0.00367 0.13533 0.39886 0.0
C3737 C 0.09491 0.11374 0.43008 0.0
Zn3738 Zn 0.35873 0.81831 0.23828 0.0
Zn3739 Zn 0.4038 0.74419 0.10844 0.0
Zn3740 Zn 0.3901 0.78197 0.19725 0.0
C3741 C 0.40346 0.71226 0.1638 0.0
C3742 C 0.44204 0.78593 0.14016 0.0
O3743 O 0.38911 0.82988 0.18143 0.0
O3744 O 0.33747 0.83142 0.19395 0.0
C3745 C 0.38495 0.76243 0.26903 0.0
O3746 O 0.40449 0.74337 0.16667 0.0
O3747 O 0.40892 0.70053 0.13543 0.0
O3748 O 0.44632 0.77408 0.11166 0.0
O3749 O 0.41807 0.77454 0.15641 0.0
O3750 O 0.35678 0.77606 0.26776 0.0
O3751 O 0.40503 0.76678 0.24524 0.0
O3752 O 0.42502 0.79974 0.23456 0.0
O3753 O 0.40014 0.84576 0.24879 0.0
C3754 C 0.42628 0.8289 0.24686 0.0
O3755 O 0.34366 0.75751 0.18037 0.0
O3756 O 0.36111 0.7688 0.13049 0.0
C3757 C 0.36205 0.84491 0.18008 0.0
C3758 C 0.34046 0.75366 0.14886 0.0
Zn3759 Zn 0.73159 0.15381 0.85845 0.0
Zn3760 Zn 0.65747 0.10874 -0.01171 0.0
Zn3761 Zn 0.69382 0.1401 0.94727 0.0
C3762 C 0.64688 0.17629 -0.00313 0.0
C3763 C 0.71335 0.13496 0.01904 0.0
O3764 O 0.71828 0.09366 0.93038 0.0
O3765 O 0.70698 0.11111 0.8805 0.0
C3766 C 0.68986 0.19205 0.89018 0.0
O3767 O 0.67605 0.17502 0.98457 0.0
O3768 O 0.63002 0.15015 -0.0012 0.0
O3769 O 0.69972 0.10679 0.01777 0.0
O3770 O 0.709 0.15503 -0.00475 0.0
O3771 O 0.70171 0.19632 0.86167 0.0
O3772 O 0.70125 0.16807 0.90642 0.0
O3773 O 0.73242 0.15449 0.91668 0.0
O3774 O 0.77525 0.15893 0.88545 0.0
C3775 C 0.76352 0.15346 0.91382 0.0
O3776 O 0.64591 0.13911 0.93144 0.0
O3777 O 0.64436 0.08747 0.94396 0.0
C3778 C 0.72212 0.09046 0.89887 0.0
C3779 C 0.63087 0.11205 0.93009 0.0
Zn3780 Zn 0.36706 0.31831 0.9875 0.0
Zn3781 Zn 0.322 0.24419 0.11734 0.0
Zn3782 Zn 0.33569 0.28197 0.02853 0.0
C3783 C 0.32234 0.21226 0.06198 0.0
C3784 C 0.28375 0.28593 0.08562 0.0
O3785 O 0.33668 0.32988 0.04435 0.0
O3786 O 0.38832 0.33142 0.03182 0.0
C3787 C 0.34084 0.26243 0.95675 0.0
O3788 O 0.32131 0.24337 0.05911 0.0
O3789 O 0.31687 0.20053 0.09035 0.0
O3790 O 0.27948 0.27408 0.11412 0.0
O3791 O 0.30773 0.27454 0.06937 0.0
O3792 O 0.369 0.27606 0.95802 0.0
O3793 O 0.32076 0.26678 0.98054 0.0
O3794 O 0.30077 0.29974 -0.00878 0.0
O3795 O 0.32565 0.34576 0.97699 0.0
C3796 C 0.29951 0.32891 0.97892 0.0
O3797 O 0.38214 0.25751 0.04541 0.0
O3798 O 0.36469 0.2688 0.09529 0.0
C3799 C 0.36374 0.34491 0.0457 0.0
C3800 C 0.38534 0.25366 0.07692 0.0
Zn3801 Zn 0.2316 0.072 0.86734 0.0
Zn3802 Zn 0.15747 0.11706 0.7375 0.0
Zn3803 Zn 0.19382 0.08569 0.77852 0.0
C3804 C 0.14689 0.04951 0.72892 0.0
C3805 C 0.21336 0.09084 0.70675 0.0
O3806 O 0.21828 0.13214 0.79541 0.0
O3807 O 0.20699 0.11469 0.84529 0.0
C3808 C 0.18986 0.03375 0.83562 0.0
O3809 O 0.17605 0.05077 0.74122 0.0
O3810 O 0.13003 0.07564 0.72699 0.0
O3811 O 0.19973 0.11901 0.70802 0.0
O3812 O 0.20901 0.07077 0.73054 0.0
O3813 O 0.20171 0.02948 0.86412 0.0
O3814 O 0.20125 0.05773 0.81937 0.0
O3815 O 0.23242 0.07131 0.80911 0.0
O3816 O 0.27525 0.06687 0.84035 0.0
C3817 C 0.26353 0.07234 0.81197 0.0
O3818 O 0.14591 0.08668 0.79435 0.0
O3819 O 0.14436 0.13832 0.78182 0.0
C3820 C 0.22213 0.13534 0.82692 0.0
C3821 C 0.13087 0.11374 0.7957 0.0
Zn3822 Zn 0.4038 0.9816 0.61734 0.0
Zn3823 Zn 0.35873 0.90747 0.4875 0.0
Zn3824 Zn 0.3901 0.94382 0.52852 0.0
C3825 C 0.42629 0.89688 0.47892 0.0
C3826 C 0.38495 0.96335 0.45674 0.0
O3827 O 0.34365 0.96828 0.54541 0.0
O3828 O 0.36111 0.95698 0.59529 0.0
C3829 C 0.44205 0.93987 0.58561 0.0
O3830 O 0.42502 0.92605 0.49122 0.0
O3831 O 0.40015 0.88003 0.47699 0.0
O3832 O 0.35678 0.94972 0.45802 0.0
O3833 O 0.40502 0.95901 0.48054 0.0
O3834 O 0.44632 0.95172 0.61411 0.0
O3835 O 0.41807 0.95125 0.56937 0.0
O3836 O 0.40448 0.98242 0.55911 0.0
O3837 O 0.40891 0.02526 0.59035 0.0
C3838 C 0.40345 0.01353 0.56198 0.0
O3839 O 0.38911 0.89591 0.54435 0.0
O3840 O 0.33747 0.89436 0.53182 0.0
C3841 C 0.34046 0.97212 0.57692 0.0
C3842 C 0.36205 0.88087 0.5457 0.0
Zn3843 Zn 0.49419 0.15379 0.36734 0.0
Zn3844 Zn 0.56832 0.10873 0.2375 0.0
Zn3845 Zn 0.53196 0.14009 0.27853 0.0
C3846 C 0.5789 0.17628 0.22893 0.0
C3847 C 0.51243 0.13495 0.20675 0.0
O3848 O 0.50751 0.09365 0.29541 0.0
O3849 O 0.5188 0.1111 0.34529 0.0
C3850 C 0.53592 0.19204 0.33561 0.0
O3851 O 0.54974 0.17501 0.24122 0.0
O3852 O 0.59576 0.15014 0.22699 0.0
O3853 O 0.52606 0.10678 0.20802 0.0
O3854 O 0.51678 0.15502 0.23054 0.0
O3855 O 0.52407 0.19631 0.36412 0.0
O3856 O 0.52454 0.16806 0.31937 0.0
O3857 O 0.49337 0.15447 0.30911 0.0
O3858 O 0.45053 0.15891 0.34035 0.0
C3859 C 0.46226 0.15344 0.31198 0.0
O3860 O 0.57987 0.1391 0.29435 0.0
O3861 O 0.58142 0.08746 0.28183 0.0
C3862 C 0.50366 0.09045 0.32692 0.0
C3863 C 0.59491 0.11204 0.2957 0.0
Zn3864 Zn 0.23829 0.36706 0.90747 0.0
Zn3865 Zn 0.10845 0.32199 0.98159 0.0
Zn3866 Zn 0.19726 0.33569 0.94382 0.0
C3867 C 0.16381 0.32232 0.01353 0.0
C3868 C 0.14017 0.28374 0.93986 0.0
O3869 O 0.18143 0.33668 0.89591 0.0
O3870 O 0.19396 0.38832 0.89437 0.0
C3871 C 0.26904 0.34084 0.96336 0.0
O3872 O 0.16668 0.3213 0.98242 0.0
O3873 O 0.13544 0.31686 0.02525 0.0
O3874 O 0.11167 0.27947 0.95171 0.0
O3875 O 0.15642 0.30772 0.95124 0.0
O3876 O 0.26777 0.36901 0.94973 0.0
O3877 O 0.24525 0.32077 0.95901 0.0
O3878 O 0.23457 0.30078 0.92605 0.0
O3879 O 0.2488 0.32565 0.88003 0.0
C3880 C 0.24686 0.29951 0.89688 0.0
O3881 O 0.18037 0.38214 0.96828 0.0
O3882 O 0.13051 0.36468 0.95699 0.0
C3883 C 0.18008 0.36374 0.88087 0.0
C3884 C 0.14887 0.38534 0.97214 0.0
Zn3885 Zn 0.60845 0.4038 0.2442 0.0
Zn3886 Zn 0.73828 0.35873 0.31831 0.0
Zn3887 Zn 0.69726 0.3901 0.28197 0.0
C3888 C 0.74686 0.42628 0.3289 0.0
C3889 C 0.76904 0.38495 0.26243 0.0
O3890 O 0.68037 0.34365 0.25751 0.0
O3891 O 0.63049 0.3611 0.26881 0.0
C3892 C 0.64017 0.44204 0.28593 0.0
O3893 O 0.73457 0.42502 0.29974 0.0
O3894 O 0.74879 0.40014 0.34576 0.0
O3895 O 0.76776 0.35678 0.27606 0.0
O3896 O 0.74525 0.40502 0.26678 0.0
O3897 O 0.61166 0.44632 0.27408 0.0
O3898 O 0.65642 0.41806 0.27454 0.0
O3899 O 0.66667 0.40448 0.24337 0.0
O3900 O 0.63544 0.40892 0.20054 0.0
C3901 C 0.66381 0.40346 0.21227 0.0
O3902 O 0.68144 0.3891 0.32988 0.0
O3903 O 0.69396 0.33746 0.33143 0.0
C3904 C 0.64887 0.34046 0.25367 0.0
C3905 C 0.68009 0.36204 0.34492 0.0
Zn3906 Zn 0.11706 0.48828 0.06831 0.0
Zn3907 Zn 0.07199 0.35844 -0.00581 0.0
Zn3908 Zn 0.08569 0.44726 0.03197 0.0
C3909 C 0.07233 0.4138 0.96226 0.0
C3910 C 0.03375 0.39017 0.03592 0.0
O3911 O 0.08668 0.43143 0.07988 0.0
O3912 O 0.13832 0.44396 0.08142 0.0
C3913 C 0.09084 0.51903 0.01243 0.0
O3914 O 0.07131 0.41667 -0.00663 0.0
O3915 O 0.06687 0.38543 0.95053 0.0
O3916 O 0.02947 0.36166 0.02408 0.0
O3917 O 0.05772 0.40641 0.02454 0.0
O3918 O 0.11901 0.51776 0.02605 0.0
O3919 O 0.07076 0.49524 0.01678 0.0
O3920 O 0.05077 0.48456 0.04973 0.0
O3921 O 0.07564 0.49879 0.09576 0.0
C3922 C 0.04951 0.49686 0.0789 0.0
O3923 O 0.13214 0.43037 0.00751 0.0
O3924 O 0.11468 0.38049 0.01881 0.0
C3925 C 0.11374 0.43008 0.09491 0.0
C3926 C 0.13533 0.39886 0.00366 0.0
Zn3927 Zn 0.11734 0.822 0.74419 0.0
Zn3928 Zn 0.98751 0.86706 0.81832 0.0
Zn3929 Zn 0.02853 0.8357 0.78197 0.0
C3930 C 0.97893 0.79951 0.8289 0.0
C3931 C 0.95675 0.84084 0.76243 0.0
O3932 O 0.04542 0.88214 0.75751 0.0
O3933 O 0.0953 0.86469 0.7688 0.0
C3934 C 0.08562 0.78375 0.78592 0.0
O3935 O -0.00877 0.80078 0.79974 0.0
O3936 O 0.977 0.82565 0.84576 0.0
O3937 O 0.95803 0.86901 0.77606 0.0
O3938 O 0.98054 0.82077 0.76678 0.0
O3939 O 0.11412 0.77947 0.77407 0.0
O3940 O 0.06937 0.80773 0.77454 0.0
O3941 O 0.05912 0.82131 0.74337 0.0
O3942 O 0.09035 0.81688 0.70053 0.0
C3943 C 0.06198 0.82234 0.71226 0.0
O3944 O 0.04436 0.83669 0.82988 0.0
O3945 O 0.03183 0.88833 0.83143 0.0
C3946 C 0.07693 0.88534 0.75366 0.0
C3947 C 0.04571 0.86375 0.84492 0.0
Zn3948 Zn 0.15379 0.36734 0.49419 0.0
Zn3949 Zn 0.10873 0.2375 0.56831 0.0
Zn3950 Zn 0.1401 0.27853 0.53196 0.0
C3951 C 0.17628 0.22892 0.5789 0.0
C3952 C 0.13495 0.20675 0.51243 0.0
O3953 O 0.09365 0.29541 0.50751 0.0
O3954 O 0.1111 0.3453 0.5188 0.0
C3955 C 0.19204 0.33562 0.53592 0.0
O3956 O 0.17501 0.24122 0.54973 0.0
O3957 O 0.15014 0.22699 0.59575 0.0
O3958 O 0.10678 0.20802 0.52605 0.0
O3959 O 0.15502 0.23054 0.51677 0.0
O3960 O 0.19631 0.36413 0.52407 0.0
O3961 O 0.16806 0.31937 0.52453 0.0
O3962 O 0.15448 0.30912 0.49336 0.0
O3963 O 0.15891 0.34036 0.45053 0.0
C3964 C 0.15345 0.31198 0.46225 0.0
O3965 O 0.1391 0.29435 0.57987 0.0
O3966 O 0.08747 0.28183 0.58141 0.0
C3967 C 0.09045 0.32692 0.50366 0.0
C3968 C 0.11204 0.2957 0.59491 0.0
Zn3969 Zn 0.48751 0.35873 0.90747 0.0
Zn3970 Zn 0.61734 0.4038 0.9816 0.0
Zn3971 Zn 0.52853 0.3901 0.94382 0.0
C3972 C 0.56197 0.40346 0.01353 0.0
C3973 C 0.58562 0.44205 0.93987 0.0
O3974 O 0.54436 0.38911 0.89591 0.0
O3975 O 0.53183 0.33747 0.89436 0.0
C3976 C 0.45675 0.38495 0.96335 0.0
O3977 O 0.55911 0.40449 0.98242 0.0
O3978 O 0.59034 0.40892 0.02526 0.0
O3979 O 0.61412 0.44632 0.95172 0.0
O3980 O 0.56937 0.41807 0.95125 0.0
O3981 O 0.45802 0.35678 0.94972 0.0
O3982 O 0.48054 0.40503 0.959 0.0
O3983 O 0.49122 0.42502 0.92605 0.0
O3984 O 0.477 0.40015 0.88002 0.0
C3985 C 0.47893 0.42628 0.89688 0.0
O3986 O 0.54542 0.34366 0.96828 0.0
O3987 O 0.5953 0.36111 0.95699 0.0
C3988 C 0.54571 0.36205 0.88087 0.0
C3989 C 0.57692 0.34046 0.97213 0.0
Zn3990 Zn 0.072 0.86734 0.2316 0.0
Zn3991 Zn 0.11706 0.7375 0.15747 0.0
Zn3992 Zn 0.08569 0.77853 0.19382 0.0
C3993 C 0.04951 0.72892 0.14688 0.0
C3994 C 0.09084 0.70675 0.21335 0.0
O3995 O 0.13214 0.79541 0.21827 0.0
O3996 O 0.11469 0.84529 0.20698 0.0
C3997 C 0.03375 0.83562 0.18986 0.0
O3998 O 0.05078 0.74122 0.17605 0.0
O3999 O 0.07565 0.72699 0.13002 0.0
O4000 O 0.11901 0.70802 0.19972 0.0
O4001 O 0.07077 0.73054 0.20901 0.0
O4002 O 0.02948 0.86412 0.20171 0.0
O4003 O 0.05773 0.81937 0.20125 0.0
O4004 O 0.07131 0.80911 0.23241 0.0
O4005 O 0.06688 0.84035 0.27525 0.0
C4006 C 0.07234 0.81197 0.26352 0.0
O4007 O 0.08669 0.79435 0.14591 0.0
O4008 O 0.13833 0.78182 0.14436 0.0
C4009 C 0.13534 0.82692 0.22212 0.0
C4010 C 0.11375 0.7957 0.13087 0.0
Zn4011 Zn 0.60873 0.48829 0.65748 0.0
Zn4012 Zn 0.6538 0.35845 0.73159 0.0
Zn4013 Zn 0.6401 0.44727 0.69383 0.0
C4014 C 0.65345 0.41381 0.76353 0.0
C4015 C 0.69204 0.39018 0.68986 0.0
O4016 O 0.6391 0.43144 0.64592 0.0
O4017 O 0.58746 0.44397 0.64437 0.0
C4018 C 0.63495 0.51905 0.71336 0.0
O4019 O 0.65448 0.41668 0.73242 0.0
O4020 O 0.65891 0.38543 0.77525 0.0
O4021 O 0.69632 0.36167 0.70171 0.0
O4022 O 0.66806 0.40642 0.70125 0.0
O4023 O 0.60678 0.51777 0.69973 0.0
O4024 O 0.65502 0.49525 0.70901 0.0
O4025 O 0.67501 0.48457 0.67605 0.0
O4026 O 0.65014 0.4988 0.63003 0.0
C4027 C 0.67628 0.49687 0.64689 0.0
O4028 O 0.59365 0.43038 0.71828 0.0
O4029 O 0.6111 0.3805 0.70698 0.0
C4030 C 0.61204 0.43009 0.63088 0.0
C4031 C 0.59045 0.39887 0.72213 0.0
loop_
_geom_bond_atom_site_label_1
_geom_bond_atom_site_label_2
_geom_bond_distance
_geom_bond_site_symmetry_2
_ccdc_geom_bond_type
Zn0 O6 1.920 1_655 S
Zn0 O12 1.898 1_655 S
Zn0 O15 1.905 . S
Zn1 O9 1.905 . S
Zn1 O10 1.898 . S
Zn1 O18 1.920 . S
Zn2 O5 2.080 . S
Zn2 O8 2.114 . S
Zn2 O11 2.120 . S
Zn2 O13 2.120 . S
Zn2 O14 2.114 1_455 S
Zn2 O17 2.080 . S
C3 O8 1.166 . S
C3 O9 1.182 . S
C4 O10 1.167 . S
C4 O11 1.299 . S
O5 Zn2 2.080 . S
O5 C19 1.305 . S
O6 Zn0 1.920 1_455 S
O6 C19 1.234 . S
C7 O12 1.167 . S
C7 O13 1.299 . S
O8 Zn2 2.114 . S
O8 C3 1.166 . S
O9 Zn1 1.905 . S
O9 C3 1.182 . S
O10 Zn1 1.898 . S
O10 C4 1.167 . S
O11 Zn2 2.120 . S
O11 C4 1.299 . S
O12 Zn0 1.898 1_455 S
O12 C7 1.167 . S
O13 Zn2 2.120 . S
O13 C7 1.299 . S
O14 Zn2 2.114 1_655 S
O14 C16 1.166 . S
O15 Zn0 1.905 . S
O15 C16 1.182 . S
C16 O14 1.166 . S
C16 O15 1.182 . S
O17 Zn2 2.080 . S
O17 C20 1.305 . S
O18 Zn1 1.920 . S
O18 C20 1.234 . S
C19 O5 1.305 . S
C19 O6 1.234 . S
C20 O17 1.305 . S
C20 O18 1.234 . S
Zn21 O27 1.920 . S
Zn21 O33 1.898 . S
Zn21 O36 1.905 . S
Zn22 O30 1.905 . S
Zn22 O31 1.898 . S
Zn22 O39 1.920 . S
Zn23 O26 2.080 . S
Zn23 O29 2.114 . S
Zn23 O32 2.120 . S
Zn23 O34 2.120 . S
Zn23 O35 2.114 . S
Zn23 O38 2.080 . S
C24 O29 1.166 . S
C24 O30 1.182 . S
C25 O31 1.167 . S
C25 O32 1.299 . S
O26 Zn23 2.080 . S
O26 C40 1.305 . S
O27 Zn21 1.920 . S
O27 C40 1.234 . S
C28 O33 1.167 . S
C28 O34 1.299 . S
O29 Zn23 2.114 . S
O29 C24 1.166 . S
O30 Zn22 1.905 . S
O30 C24 1.182 . S
O31 Zn22 1.898 . S
O31 C25 1.167 . S
O32 Zn23 2.120 . S
O32 C25 1.299 . S
O33 Zn21 1.898 . S
O33 C28 1.167 . S
O34 Zn23 2.120 . S
O34 C28 1.299 . S
O35 Zn23 2.114 . S
O35 C37 1.166 . S
O36 Zn21 1.905 . S
O36 C37 1.182 . S
C37 O35 1.166 . S
C37 O36 1.182 . S
O38 Zn23 2.080 . S
O38 C41 1.305 . S
O39 Zn22 1.920 . S
O39 C41 1.234 . S
C40 O26 1.305 . S
C40 O27 1.234 . S
C41 O38 1.305 . S
C41 O39 1.234 . S
Zn42 O48 1.920 . S
Zn42 O54 1.898 . S
Zn42 O57 1.905 . S
Zn43 O51 1.905 . S
Zn43 O52 1.898 . S
Zn43 O60 1.920 . S
Zn44 O47 2.080 . S
Zn44 O50 2.114 . S
Zn44 O53 2.120 . S
Zn44 O55 2.120 . S
Zn44 O56 2.114 . S
Zn44 O59 2.080 . S
C45 O50 1.166 . S
C45 O51 1.182 . S
C46 O52 1.167 . S
C46 O53 1.299 . S
O47 Zn44 2.080 . S
O47 C61 1.305 . S
O48 Zn42 1.920 . S
O48 C61 1.234 . S
C49 O54 1.167 . S
C49 O55 1.299 . S
O50 Zn44 2.114 . S
O50 C45 1.166 . S
O51 Zn43 1.905 . S
O51 C45 1.182 . S
O52 Zn43 1.898 . S
O52 C46 1.167 . S
O53 Zn44 2.120 . S
O53 C46 1.299 . S
O54 Zn42 1.898 . S
O54 C49 1.167 . S
O55 Zn44 2.120 . S
O55 C49 1.299 . S
O56 Zn44 2.114 . S
O56 C58 1.166 . S
O57 Zn42 1.905 . S
O57 C58 1.182 . S
C58 O56 1.166 . S
C58 O57 1.182 . S
O59 Zn44 2.080 . S
O59 C62 1.305 . S
O60 Zn43 1.920 . S
O60 C62 1.234 . S
C61 O47 1.305 . S
C61 O48 1.234 . S
C62 O59 1.305 . S
C62 O60 1.234 . S
Zn63 O69 1.920 . S
Zn63 O75 1.898 . S
Zn63 O78 1.905 . S
Zn64 O72 1.905 . S
Zn64 O73 1.898 . S
Zn64 O81 1.920 . S
Zn65 O68 2.080 . S
Zn65 O71 2.114 . S
Zn65 O74 2.120 1_455 S
Zn65 O76 2.120 . S
Zn65 O77 2.114 . S
Zn65 O80 2.080 . S
C66 O71 1.166 1_655 S
C66 O72 1.182 . S
C67 O73 1.167 . S
C67 O74 1.299 . S
O68 Zn65 2.080 . S
O68 C82 1.305 . S
O69 Zn63 1.920 . S
O69 C82 1.234 . S
C70 O75 1.167 . S
C70 O76 1.299 . S
O71 Zn65 2.114 . S
O71 C66 1.166 1_455 S
O72 Zn64 1.905 . S
O72 C66 1.182 . S
O73 Zn64 1.898 . S
O73 C67 1.167 . S
O74 Zn65 2.120 1_655 S
O74 C67 1.299 . S
O75 Zn63 1.898 . S
O75 C70 1.167 . S
O76 Zn65 2.120 . S
O76 C70 1.299 . S
O77 Zn65 2.114 . S
O77 C79 1.166 . S
O78 Zn63 1.905 . S
O78 C79 1.182 . S
C79 O77 1.166 . S
C79 O78 1.182 . S
O80 Zn65 2.080 . S
O80 C83 1.305 . S
O81 Zn64 1.920 . S
O81 C83 1.234 1_655 S
C82 O68 1.305 . S
C82 O69 1.234 . S
C83 O80 1.305 . S
C83 O81 1.234 1_455 S
Zn84 O90 1.920 1_655 S
Zn84 O96 1.898 1_655 S
Zn84 O99 1.905 . S
Zn85 O93 1.905 . S
Zn85 O94 1.898 . S
Zn85 O102 1.920 . S
Zn86 O89 2.080 . S
Zn86 O92 2.114 . S
Zn86 O95 2.120 1_565 S
Zn86 O97 2.120 . S
Zn86 O98 2.114 1_455 S
Zn86 O101 2.080 . S
C87 O92 1.166 1_545 S
C87 O93 1.182 . S
C88 O94 1.167 . S
C88 O95 1.299 . S
O89 Zn86 2.080 . S
O89 C103 1.305 . S
O90 Zn84 1.920 1_455 S
O90 C103 1.234 . S
C91 O96 1.167 . S
C91 O97 1.299 . S
O92 Zn86 2.114 . S
O92 C87 1.166 1_565 S
O93 Zn85 1.905 . S
O93 C87 1.182 . S
O94 Zn85 1.898 . S
O94 C88 1.167 . S
O95 Zn86 2.120 1_545 S
O95 C88 1.299 . S
O96 Zn84 1.898 1_455 S
O96 C91 1.167 . S
O97 Zn86 2.120 . S
O97 C91 1.299 . S
O98 Zn86 2.114 1_655 S
O98 C100 1.166 . S
O99 Zn84 1.905 . S
O99 C100 1.182 . S
C100 O98 1.166 . S
C100 O99 1.182 . S
O101 Zn86 2.080 . S
O101 C104 1.305 . S
O102 Zn85 1.920 . S
O102 C104 1.234 1_545 S
C103 O89 1.305 . S
C103 O90 1.234 . S
C104 O101 1.305 . S
C104 O102 1.234 1_565 S
Zn105 O111 1.920 . S
Zn105 O117 1.898 . S
Zn105 O120 1.905 . S
Zn106 O114 1.905 . S
Zn106 O115 1.898 . S
Zn106 O123 1.920 . S
Zn107 O110 2.080 . S
Zn107 O113 2.114 . S
Zn107 O116 2.120 . S
Zn107 O118 2.120 . S
Zn107 O119 2.114 . S
Zn107 O122 2.080 . S
C108 O113 1.166 . S
C108 O114 1.182 . S
C109 O115 1.167 . S
C109 O116 1.299 . S
O110 Zn107 2.080 . S
O110 C124 1.305 . S
O111 Zn105 1.920 . S
O111 C124 1.234 . S
C112 O117 1.167 . S
C112 O118 1.299 . S
O113 Zn107 2.114 . S
O113 C108 1.166 . S
O114 Zn106 1.905 . S
O114 C108 1.182 . S
O115 Zn106 1.898 . S
O115 C109 1.167 . S
O116 Zn107 2.120 . S
O116 C109 1.299 . S
O117 Zn105 1.898 . S
O117 C112 1.167 . S
O118 Zn107 2.120 . S
O118 C112 1.299 . S
O119 Zn107 2.114 . S
O119 C121 1.166 . S
O120 Zn105 1.905 . S
O120 C121 1.182 . S
C121 O119 1.166 . S
C121 O120 1.182 . S
O122 Zn107 2.080 . S
O122 C125 1.305 . S
O123 Zn106 1.920 . S
O123 C125 1.234 . S
C124 O110 1.305 . S
C124 O111 1.234 . S
C125 O122 1.305 . S
C125 O123 1.234 . S
Zn126 O132 1.920 . S
Zn126 O138 1.898 . S
Zn126 O141 1.905 . S
Zn127 O135 1.905 . S
Zn127 O136 1.898 . S
Zn127 O144 1.920 . S
Zn128 O131 2.080 . S
Zn128 O134 2.114 . S
Zn128 O137 2.120 . S
Zn128 O139 2.120 . S
Zn128 O140 2.114 . S
Zn128 O143 2.080 . S
C129 O134 1.166 . S
C129 O135 1.182 . S
C130 O136 1.167 . S
C130 O137 1.299 . S
O131 Zn128 2.080 . S
O131 C145 1.305 . S
O132 Zn126 1.920 . S
O132 C145 1.234 . S
C133 O138 1.167 . S
C133 O139 1.299 . S
O134 Zn128 2.114 . S
O134 C129 1.166 . S
O135 Zn127 1.905 . S
O135 C129 1.182 . S
O136 Zn127 1.898 . S
O136 C130 1.167 . S
O137 Zn128 2.120 . S
O137 C130 1.299 . S
O138 Zn126 1.898 . S
O138 C133 1.167 . S
O139 Zn128 2.120 . S
O139 C133 1.299 . S
O140 Zn128 2.114 . S
O140 C142 1.166 . S
O141 Zn126 1.905 . S
O141 C142 1.182 . S
C142 O140 1.166 . S
C142 O141 1.182 . S
O143 Zn128 2.080 . S
O143 C146 1.305 . S
O144 Zn127 1.920 . S
O144 C146 1.234 . S
C145 O131 1.305 . S
C145 O132 1.234 . S
C146 O143 1.305 . S
C146 O144 1.234 . S
Zn147 O153 1.920 . S
Zn147 O159 1.898 . S
Zn147 O162 1.905 . S
Zn148 O156 1.905 . S
Zn148 O157 1.898 . S
Zn148 O165 1.920 . S
Zn149 O152 2.080 . S
Zn149 O155 2.114 . S
Zn149 O158 2.120 . S
Zn149 O160 2.120 . S
Zn149 O161 2.114 . S
Zn149 O164 2.080 . S
C150 O155 1.166 . S
C150 O156 1.182 . S
C151 O157 1.167 . S
C151 O158 1.299 . S
O152 Zn149 2.080 . S
O152 C166 1.305 . S
O153 Zn147 1.920 . S
O153 C166 1.234 . S
C154 O159 1.167 . S
C154 O160 1.299 . S
O155 Zn149 2.114 . S
O155 C150 1.166 . S
O156 Zn148 1.905 . S
O156 C150 1.182 . S
O157 Zn148 1.898 . S
O157 C151 1.167 . S
O158 Zn149 2.120 . S
O158 C151 1.299 . S
O159 Zn147 1.898 . S
O159 C154 1.167 . S
O160 Zn149 2.120 . S
O160 C154 1.299 . S
O161 Zn149 2.114 . S
O161 C163 1.166 . S
O162 Zn147 1.905 . S
O162 C163 1.182 . S
C163 O161 1.166 . S
C163 O162 1.182 . S
O164 Zn149 2.080 . S
O164 C167 1.305 . S
O165 Zn148 1.920 . S
O165 C167 1.234 . S
C166 O152 1.305 . S
C166 O153 1.234 . S
C167 O164 1.305 . S
C167 O165 1.234 . S
Zn168 O174 1.920 1_565 S
Zn168 O180 1.898 1_565 S
Zn168 O183 1.905 . S
Zn169 O177 1.905 . S
Zn169 O178 1.898 . S
Zn169 O186 1.920 . S
Zn170 O173 2.080 . S
Zn170 O176 2.114 . S
Zn170 O179 2.120 . S
Zn170 O181 2.120 . S
Zn170 O182 2.114 1_545 S
Zn170 O185 2.080 . S
C171 O176 1.166 . S
C171 O177 1.182 . S
C172 O178 1.167 . S
C172 O179 1.299 . S
O173 Zn170 2.080 . S
O173 C187 1.305 . S
O174 Zn168 1.920 1_545 S
O174 C187 1.234 . S
C175 O180 1.167 . S
C175 O181 1.299 . S
O176 Zn170 2.114 . S
O176 C171 1.166 . S
O177 Zn169 1.905 . S
O177 C171 1.182 . S
O178 Zn169 1.898 . S
O178 C172 1.167 . S
O179 Zn170 2.120 . S
O179 C172 1.299 . S
O180 Zn168 1.898 1_545 S
O180 C175 1.167 . S
O181 Zn170 2.120 . S
O181 C175 1.299 . S
O182 Zn170 2.114 1_565 S
O182 C184 1.166 . S
O183 Zn168 1.905 . S
O183 C184 1.182 . S
C184 O182 1.166 . S
C184 O183 1.182 . S
O185 Zn170 2.080 . S
O185 C188 1.305 . S
O186 Zn169 1.920 . S
O186 C188 1.234 . S
C187 O173 1.305 . S
C187 O174 1.234 . S
C188 O185 1.305 . S
C188 O186 1.234 . S
Zn189 O195 1.920 . S
Zn189 O201 1.898 . S
Zn189 O204 1.905 . S
Zn190 O198 1.905 . S
Zn190 O199 1.898 . S
Zn190 O207 1.920 . S
Zn191 O194 2.080 . S
Zn191 O197 2.114 . S
Zn191 O200 2.120 . S
Zn191 O202 2.120 . S
Zn191 O203 2.114 . S
Zn191 O206 2.080 . S
C192 O197 1.166 . S
C192 O198 1.182 . S
C193 O199 1.167 . S
C193 O200 1.299 . S
O194 Zn191 2.080 . S
O194 C208 1.305 . S
O195 Zn189 1.920 . S
O195 C208 1.234 . S
C196 O201 1.167 . S
C196 O202 1.299 . S
O197 Zn191 2.114 . S
O197 C192 1.166 . S
O198 Zn190 1.905 . S
O198 C192 1.182 . S
O199 Zn190 1.898 . S
O199 C193 1.167 . S
O200 Zn191 2.120 . S
O200 C193 1.299 . S
O201 Zn189 1.898 . S
O201 C196 1.167 . S
O202 Zn191 2.120 . S
O202 C196 1.299 . S
O203 Zn191 2.114 . S
O203 C205 1.166 . S
O204 Zn189 1.905 . S
O204 C205 1.182 . S
C205 O203 1.166 . S
C205 O204 1.182 . S
O206 Zn191 2.080 . S
O206 C209 1.305 . S
O207 Zn190 1.920 . S
O207 C209 1.234 . S
C208 O194 1.305 . S
C208 O195 1.234 . S
C209 O206 1.305 . S
C209 O207 1.234 . S
Zn210 O216 1.920 . S
Zn210 O222 1.898 . S
Zn210 O225 1.905 . S
Zn211 O219 1.905 . S
Zn211 O220 1.898 . S
Zn211 O228 1.920 . S
Zn212 O215 2.080 . S
Zn212 O218 2.114 . S
Zn212 O221 2.120 . S
Zn212 O223 2.120 . S
Zn212 O224 2.114 . S
Zn212 O227 2.080 . S
C213 O218 1.166 . S
C213 O219 1.182 . S
C214 O220 1.167 . S
C214 O221 1.299 . S
O215 Zn212 2.080 . S
O215 C229 1.305 . S
O216 Zn210 1.920 . S
O216 C229 1.234 . S
C217 O222 1.167 . S
C217 O223 1.299 . S
O218 Zn212 2.114 . S
O218 C213 1.166 . S
O219 Zn211 1.905 . S
O219 C213 1.182 . S
O220 Zn211 1.898 . S
O220 C214 1.167 . S
O221 Zn212 2.120 . S
O221 C214 1.299 . S
O222 Zn210 1.898 . S
O222 C217 1.167 . S
O223 Zn212 2.120 . S
O223 C217 1.299 . S
O224 Zn212 2.114 . S
O224 C226 1.166 . S
O225 Zn210 1.905 . S
O225 C226 1.182 . S
C226 O224 1.166 . S
C226 O225 1.182 . S
O227 Zn212 2.080 . S
O227 C230 1.305 . S
O228 Zn211 1.920 . S
O228 C230 1.234 . S
C229 O215 1.305 . S
C229 O216 1.234 . S
C230 O227 1.305 . S
C230 O228 1.234 . S
Zn231 O237 1.920 . S
Zn231 O243 1.898 . S
Zn231 O246 1.905 . S
Zn232 O240 1.905 . S
Zn232 O241 1.898 . S
Zn232 O249 1.920 . S
Zn233 O236 2.080 . S
Zn233 O239 2.114 . S
Zn233 O242 2.120 1_554 S
Zn233 O244 2.120 . S
Zn233 O245 2.114 . S
Zn233 O248 2.080 . S
C234 O239 1.166 1_556 S
C234 O240 1.182 . S
C235 O241 1.167 . S
C235 O242 1.299 . S
O236 Zn233 2.080 . S
O236 C250 1.305 . S
O237 Zn231 1.920 . S
O237 C250 1.234 . S
C238 O243 1.167 . S
C238 O244 1.299 . S
O239 Zn233 2.114 . S
O239 C234 1.166 1_554 S
O240 Zn232 1.905 . S
O240 C234 1.182 . S
O241 Zn232 1.898 . S
O241 C235 1.167 . S
O242 Zn233 2.120 1_556 S
O242 C235 1.299 . S
O243 Zn231 1.898 . S
O243 C238 1.167 . S
O244 Zn233 2.120 . S
O244 C238 1.299 . S
O245 Zn233 2.114 . S
O245 C247 1.166 . S
O246 Zn231 1.905 . S
O246 C247 1.182 . S
C247 O245 1.166 . S
C247 O246 1.182 . S
O248 Zn233 2.080 . S
O248 C251 1.305 . S
O249 Zn232 1.920 . S
O249 C251 1.234 1_556 S
C250 O236 1.305 . S
C250 O237 1.234 . S
C251 O248 1.305 . S
C251 O249 1.234 1_554 S
Zn252 O258 1.920 . S
Zn252 O264 1.898 . S
Zn252 O267 1.905 . S
Zn253 O261 1.905 . S
Zn253 O262 1.898 . S
Zn253 O270 1.920 . S
Zn254 O257 2.080 . S
Zn254 O260 2.114 . S
Zn254 O263 2.120 . S
Zn254 O265 2.120 1_556 S
Zn254 O266 2.114 . S
Zn254 O269 2.080 . S
C255 O260 1.166 . S
C255 O261 1.182 . S
C256 O262 1.167 . S
C256 O263 1.299 . S
O257 Zn254 2.080 . S
O257 C271 1.305 . S
O258 Zn252 1.920 . S
O258 C271 1.234 1_554 S
C259 O264 1.167 . S
C259 O265 1.299 . S
O260 Zn254 2.114 . S
O260 C255 1.166 . S
O261 Zn253 1.905 . S
O261 C255 1.182 . S
O262 Zn253 1.898 . S
O262 C256 1.167 . S
O263 Zn254 2.120 . S
O263 C256 1.299 . S
O264 Zn252 1.898 . S
O264 C259 1.167 . S
O265 Zn254 2.120 1_554 S
O265 C259 1.299 . S
O266 Zn254 2.114 . S
O266 C268 1.166 1_556 S
O267 Zn252 1.905 . S
O267 C268 1.182 . S
C268 O266 1.166 1_554 S
C268 O267 1.182 . S
O269 Zn254 2.080 . S
O269 C272 1.305 . S
O270 Zn253 1.920 . S
O270 C272 1.234 . S
C271 O257 1.305 . S
C271 O258 1.234 1_556 S
C272 O269 1.305 . S
C272 O270 1.234 . S
Zn273 O279 1.920 . S
Zn273 O285 1.898 . S
Zn273 O288 1.905 . S
Zn274 O282 1.905 . S
Zn274 O283 1.898 . S
Zn274 O291 1.920 . S
Zn275 O278 2.080 . S
Zn275 O281 2.114 . S
Zn275 O284 2.120 . S
Zn275 O286 2.120 . S
Zn275 O287 2.114 . S
Zn275 O290 2.080 . S
C276 O281 1.166 . S
C276 O282 1.182 . S
C277 O283 1.167 . S
C277 O284 1.299 . S
O278 Zn275 2.080 . S
O278 C292 1.305 . S
O279 Zn273 1.920 . S
O279 C292 1.234 . S
C280 O285 1.167 . S
C280 O286 1.299 . S
O281 Zn275 2.114 . S
O281 C276 1.166 . S
O282 Zn274 1.905 . S
O282 C276 1.182 . S
O283 Zn274 1.898 . S
O283 C277 1.167 . S
O284 Zn275 2.120 . S
O284 C277 1.299 . S
O285 Zn273 1.898 . S
O285 C280 1.167 . S
O286 Zn275 2.120 . S
O286 C280 1.299 . S
O287 Zn275 2.114 . S
O287 C289 1.166 . S
O288 Zn273 1.905 . S
O288 C289 1.182 . S
C289 O287 1.166 . S
C289 O288 1.182 . S
O290 Zn275 2.080 . S
O290 C293 1.305 . S
O291 Zn274 1.920 . S
O291 C293 1.234 . S
C292 O278 1.305 . S
C292 O279 1.234 . S
C293 O290 1.305 . S
C293 O291 1.234 . S
Zn294 O300 1.920 . S
Zn294 O306 1.898 . S
Zn294 O309 1.905 . S
Zn295 O303 1.905 . S
Zn295 O304 1.898 . S
Zn295 O312 1.920 . S
Zn296 O299 2.080 . S
Zn296 O302 2.114 . S
Zn296 O305 2.120 . S
Zn296 O307 2.120 . S
Zn296 O308 2.114 . S
Zn296 O311 2.080 . S
C297 O302 1.166 . S
C297 O303 1.182 . S
C298 O304 1.167 . S
C298 O305 1.299 . S
O299 Zn296 2.080 . S
O299 C313 1.305 . S
O300 Zn294 1.920 . S
O300 C313 1.234 . S
C301 O306 1.167 . S
C301 O307 1.299 . S
O302 Zn296 2.114 . S
O302 C297 1.166 . S
O303 Zn295 1.905 . S
O303 C297 1.182 . S
O304 Zn295 1.898 . S
O304 C298 1.167 . S
O305 Zn296 2.120 . S
O305 C298 1.299 . S
O306 Zn294 1.898 . S
O306 C301 1.167 . S
O307 Zn296 2.120 . S
O307 C301 1.299 . S
O308 Zn296 2.114 . S
O308 C310 1.166 . S
O309 Zn294 1.905 . S
O309 C310 1.182 . S
C310 O308 1.166 . S
C310 O309 1.182 . S
O311 Zn296 2.080 . S
O311 C314 1.305 . S
O312 Zn295 1.920 . S
O312 C314 1.234 . S
C313 O299 1.305 . S
C313 O300 1.234 . S
C314 O311 1.305 . S
C314 O312 1.234 . S
Zn315 O321 1.920 1_455 S
Zn315 O327 1.898 1_455 S
Zn315 O330 1.905 . S
Zn316 O324 1.905 . S
Zn316 O325 1.898 . S
Zn316 O333 1.920 . S
Zn317 O320 2.080 . S
Zn317 O323 2.114 . S
Zn317 O326 2.120 . S
Zn317 O328 2.120 . S
Zn317 O329 2.114 1_655 S
Zn317 O332 2.080 . S
C318 O323 1.166 . S
C318 O324 1.182 . S
C319 O325 1.167 . S
C319 O326 1.299 . S
O320 Zn317 2.080 . S
O320 C334 1.305 . S
O321 Zn315 1.920 1_655 S
O321 C334 1.234 . S
C322 O327 1.167 . S
C322 O328 1.299 . S
O323 Zn317 2.114 . S
O323 C318 1.166 . S
O324 Zn316 1.905 . S
O324 C318 1.182 . S
O325 Zn316 1.898 . S
O325 C319 1.167 . S
O326 Zn317 2.120 . S
O326 C319 1.299 . S
O327 Zn315 1.898 1_655 S
O327 C322 1.167 . S
O328 Zn317 2.120 . S
O328 C322 1.299 . S
O329 Zn317 2.114 1_455 S
O329 C331 1.166 . S
O330 Zn315 1.905 . S
O330 C331 1.182 . S
C331 O329 1.166 . S
C331 O330 1.182 . S
O332 Zn317 2.080 . S
O332 C335 1.305 . S
O333 Zn316 1.920 . S
O333 C335 1.234 . S
C334 O320 1.305 . S
C334 O321 1.234 . S
C335 O332 1.305 . S
C335 O333 1.234 . S
Zn336 O342 1.920 . S
Zn336 O348 1.898 . S
Zn336 O351 1.905 . S
Zn337 O345 1.905 . S
Zn337 O346 1.898 1_556 S
Zn337 O354 1.920 1_556 S
Zn338 O341 2.080 . S
Zn338 O344 2.114 1_554 S
Zn338 O347 2.120 . S
Zn338 O349 2.120 . S
Zn338 O350 2.114 . S
Zn338 O353 2.080 . S
C339 O344 1.166 . S
C339 O345 1.182 . S
C340 O346 1.167 . S
C340 O347 1.299 . S
O341 Zn338 2.080 . S
O341 C355 1.305 . S
O342 Zn336 1.920 . S
O342 C355 1.234 . S
C343 O348 1.167 . S
C343 O349 1.299 . S
O344 Zn338 2.114 1_556 S
O344 C339 1.166 . S
O345 Zn337 1.905 . S
O345 C339 1.182 . S
O346 Zn337 1.898 1_554 S
O346 C340 1.167 . S
O347 Zn338 2.120 . S
O347 C340 1.299 . S
O348 Zn336 1.898 . S
O348 C343 1.167 . S
O349 Zn338 2.120 . S
O349 C343 1.299 . S
O350 Zn338 2.114 . S
O350 C352 1.166 . S
O351 Zn336 1.905 . S
O351 C352 1.182 . S
C352 O350 1.166 . S
C352 O351 1.182 . S
O353 Zn338 2.080 . S
O353 C356 1.305 . S
O354 Zn337 1.920 1_554 S
O354 C356 1.234 . S
C355 O341 1.305 . S
C355 O342 1.234 . S
C356 O353 1.305 . S
C356 O354 1.234 . S
Zn357 O363 1.920 . S
Zn357 O369 1.898 . S
Zn357 O372 1.905 . S
Zn358 O366 1.905 . S
Zn358 O367 1.898 . S
Zn358 O375 1.920 . S
Zn359 O362 2.080 . S
Zn359 O365 2.114 . S
Zn359 O368 2.120 . S
Zn359 O370 2.120 . S
Zn359 O371 2.114 . S
Zn359 O374 2.080 . S
C360 O365 1.166 . S
C360 O366 1.182 . S
C361 O367 1.167 . S
C361 O368 1.299 . S
O362 Zn359 2.080 . S
O362 C376 1.305 . S
O363 Zn357 1.920 . S
O363 C376 1.234 . S
C364 O369 1.167 . S
C364 O370 1.299 . S
O365 Zn359 2.114 . S
O365 C360 1.166 . S
O366 Zn358 1.905 . S
O366 C360 1.182 . S
O367 Zn358 1.898 . S
O367 C361 1.167 . S
O368 Zn359 2.120 . S
O368 C361 1.299 . S
O369 Zn357 1.898 . S
O369 C364 1.167 . S
O370 Zn359 2.120 . S
O370 C364 1.299 . S
O371 Zn359 2.114 . S
O371 C373 1.166 . S
O372 Zn357 1.905 . S
O372 C373 1.182 . S
C373 O371 1.166 . S
C373 O372 1.182 . S
O374 Zn359 2.080 . S
O374 C377 1.305 . S
O375 Zn358 1.920 . S
O375 C377 1.234 . S
C376 O362 1.305 . S
C376 O363 1.234 . S
C377 O374 1.305 . S
C377 O375 1.234 . S
Zn378 O384 1.920 . S
Zn378 O390 1.898 . S
Zn378 O393 1.905 . S
Zn379 O387 1.905 . S
Zn379 O388 1.898 1_554 S
Zn379 O396 1.920 1_554 S
Zn380 O383 2.080 . S
Zn380 O386 2.114 1_556 S
Zn380 O389 2.120 . S
Zn380 O391 2.120 1_545 S
Zn380 O392 2.114 . S
Zn380 O395 2.080 . S
C381 O386 1.166 . S
C381 O387 1.182 . S
C382 O388 1.167 . S
C382 O389 1.299 . S
O383 Zn380 2.080 . S
O383 C397 1.305 . S
O384 Zn378 1.920 . S
O384 C397 1.234 1_565 S
C385 O390 1.167 . S
C385 O391 1.299 . S
O386 Zn380 2.114 1_554 S
O386 C381 1.166 . S
O387 Zn379 1.905 . S
O387 C381 1.182 . S
O388 Zn379 1.898 1_556 S
O388 C382 1.167 . S
O389 Zn380 2.120 . S
O389 C382 1.299 . S
O390 Zn378 1.898 . S
O390 C385 1.167 . S
O391 Zn380 2.120 1_565 S
O391 C385 1.299 . S
O392 Zn380 2.114 . S
O392 C394 1.166 1_545 S
O393 Zn378 1.905 . S
O393 C394 1.182 . S
C394 O392 1.166 1_565 S
C394 O393 1.182 . S
O395 Zn380 2.080 . S
O395 C398 1.305 . S
O396 Zn379 1.920 1_556 S
O396 C398 1.234 . S
C397 O383 1.305 . S
C397 O384 1.234 1_545 S
C398 O395 1.305 . S
C398 O396 1.234 . S
Zn399 O405 1.920 . S
Zn399 O411 1.898 . S
Zn399 O414 1.905 . S
Zn400 O408 1.905 . S
Zn400 O409 1.898 . S
Zn400 O417 1.920 . S
Zn401 O404 2.080 . S
Zn401 O407 2.114 . S
Zn401 O410 2.120 . S
Zn401 O412 2.120 . S
Zn401 O413 2.114 . S
Zn401 O416 2.080 . S
C402 O407 1.166 . S
C402 O408 1.182 . S
C403 O409 1.167 . S
C403 O410 1.299 . S
O404 Zn401 2.080 . S
O404 C418 1.305 . S
O405 Zn399 1.920 . S
O405 C418 1.234 . S
C406 O411 1.167 . S
C406 O412 1.299 . S
O407 Zn401 2.114 . S
O407 C402 1.166 . S
O408 Zn400 1.905 . S
O408 C402 1.182 . S
O409 Zn400 1.898 . S
O409 C403 1.167 . S
O410 Zn401 2.120 . S
O410 C403 1.299 . S
O411 Zn399 1.898 . S
O411 C406 1.167 . S
O412 Zn401 2.120 . S
O412 C406 1.299 . S
O413 Zn401 2.114 . S
O413 C415 1.166 . S
O414 Zn399 1.905 . S
O414 C415 1.182 . S
C415 O413 1.166 . S
C415 O414 1.182 . S
O416 Zn401 2.080 . S
O416 C419 1.305 . S
O417 Zn400 1.920 . S
O417 C419 1.234 . S
C418 O404 1.305 . S
C418 O405 1.234 . S
C419 O416 1.305 . S
C419 O417 1.234 . S
Zn420 O426 1.920 . S
Zn420 O432 1.898 . S
Zn420 O435 1.905 . S
Zn421 O429 1.905 . S
Zn421 O430 1.898 . S
Zn421 O438 1.920 . S
Zn422 O425 2.080 . S
Zn422 O428 2.114 . S
Zn422 O431 2.120 . S
Zn422 O433 2.120 . S
Zn422 O434 2.114 . S
Zn422 O437 2.080 . S
C423 O428 1.166 . S
C423 O429 1.182 . S
C424 O430 1.167 . S
C424 O431 1.299 . S
O425 Zn422 2.080 . S
O425 C439 1.305 . S
O426 Zn420 1.920 . S
O426 C439 1.234 . S
C427 O432 1.167 . S
C427 O433 1.299 . S
O428 Zn422 2.114 . S
O428 C423 1.166 . S
O429 Zn421 1.905 . S
O429 C423 1.182 . S
O430 Zn421 1.898 . S
O430 C424 1.167 . S
O431 Zn422 2.120 . S
O431 C424 1.299 . S
O432 Zn420 1.898 . S
O432 C427 1.167 . S
O433 Zn422 2.120 . S
O433 C427 1.299 . S
O434 Zn422 2.114 . S
O434 C436 1.166 . S
O435 Zn420 1.905 . S
O435 C436 1.182 . S
C436 O434 1.166 . S
C436 O435 1.182 . S
O437 Zn422 2.080 . S
O437 C440 1.305 . S
O438 Zn421 1.920 . S
O438 C440 1.234 . S
C439 O425 1.305 . S
C439 O426 1.234 . S
C440 O437 1.305 . S
C440 O438 1.234 . S
Zn441 O447 1.920 . S
Zn441 O453 1.898 . S
Zn441 O456 1.905 . S
Zn442 O450 1.905 . S
Zn442 O451 1.898 1_556 S
Zn442 O459 1.920 1_556 S
Zn443 O446 2.080 . S
Zn443 O449 2.114 1_554 S
Zn443 O452 2.120 . S
Zn443 O454 2.120 1_655 S
Zn443 O455 2.114 . S
Zn443 O458 2.080 . S
C444 O449 1.166 . S
C444 O450 1.182 . S
C445 O451 1.167 . S
C445 O452 1.299 . S
O446 Zn443 2.080 . S
O446 C460 1.305 . S
O447 Zn441 1.920 . S
O447 C460 1.234 1_455 S
C448 O453 1.167 . S
C448 O454 1.299 . S
O449 Zn443 2.114 1_556 S
O449 C444 1.166 . S
O450 Zn442 1.905 . S
O450 C444 1.182 . S
O451 Zn442 1.898 1_554 S
O451 C445 1.167 . S
O452 Zn443 2.120 . S
O452 C445 1.299 . S
O453 Zn441 1.898 . S
O453 C448 1.167 . S
O454 Zn443 2.120 1_455 S
O454 C448 1.299 . S
O455 Zn443 2.114 . S
O455 C457 1.166 1_655 S
O456 Zn441 1.905 . S
O456 C457 1.182 . S
C457 O455 1.166 1_455 S
C457 O456 1.182 . S
O458 Zn443 2.080 . S
O458 C461 1.305 . S
O459 Zn442 1.920 1_554 S
O459 C461 1.234 . S
C460 O446 1.305 . S
C460 O447 1.234 1_655 S
C461 O458 1.305 . S
C461 O459 1.234 . S
Zn462 O468 1.920 . S
Zn462 O474 1.898 . S
Zn462 O477 1.905 . S
Zn463 O471 1.905 . S
Zn463 O472 1.898 . S
Zn463 O480 1.920 . S
Zn464 O467 2.080 . S
Zn464 O470 2.114 . S
Zn464 O473 2.120 . S
Zn464 O475 2.120 . S
Zn464 O476 2.114 . S
Zn464 O479 2.080 . S
C465 O470 1.166 . S
C465 O471 1.182 . S
C466 O472 1.167 . S
C466 O473 1.299 . S
O467 Zn464 2.080 . S
O467 C481 1.305 . S
O468 Zn462 1.920 . S
O468 C481 1.234 . S
C469 O474 1.167 . S
C469 O475 1.299 . S
O470 Zn464 2.114 . S
O470 C465 1.166 . S
O471 Zn463 1.905 . S
O471 C465 1.182 . S
O472 Zn463 1.898 . S
O472 C466 1.167 . S
O473 Zn464 2.120 . S
O473 C466 1.299 . S
O474 Zn462 1.898 . S
O474 C469 1.167 . S
O475 Zn464 2.120 . S
O475 C469 1.299 . S
O476 Zn464 2.114 . S
O476 C478 1.166 . S
O477 Zn462 1.905 . S
O477 C478 1.182 . S
C478 O476 1.166 . S
C478 O477 1.182 . S
O479 Zn464 2.080 . S
O479 C482 1.305 . S
O480 Zn463 1.920 . S
O480 C482 1.234 . S
C481 O467 1.305 . S
C481 O468 1.234 . S
C482 O479 1.305 . S
C482 O480 1.234 . S
Zn483 O489 1.920 . S
Zn483 O495 1.898 . S
Zn483 O498 1.905 . S
Zn484 O492 1.905 . S
Zn484 O493 1.898 . S
Zn484 O501 1.920 . S
Zn485 O488 2.080 . S
Zn485 O491 2.114 . S
Zn485 O494 2.120 . S
Zn485 O496 2.120 1_545 S
Zn485 O497 2.114 . S
Zn485 O500 2.080 . S
C486 O491 1.166 . S
C486 O492 1.182 . S
C487 O493 1.167 . S
C487 O494 1.299 . S
O488 Zn485 2.080 . S
O488 C502 1.305 . S
O489 Zn483 1.920 . S
O489 C502 1.234 1_565 S
C490 O495 1.167 . S
C490 O496 1.299 . S
O491 Zn485 2.114 . S
O491 C486 1.166 . S
O492 Zn484 1.905 . S
O492 C486 1.182 . S
O493 Zn484 1.898 . S
O493 C487 1.167 . S
O494 Zn485 2.120 . S
O494 C487 1.299 . S
O495 Zn483 1.898 . S
O495 C490 1.167 . S
O496 Zn485 2.120 1_565 S
O496 C490 1.299 . S
O497 Zn485 2.114 . S
O497 C499 1.166 1_545 S
O498 Zn483 1.905 . S
O498 C499 1.182 . S
C499 O497 1.166 1_565 S
C499 O498 1.182 . S
O500 Zn485 2.080 . S
O500 C503 1.305 . S
O501 Zn484 1.920 . S
O501 C503 1.234 . S
C502 O488 1.305 . S
C502 O489 1.234 1_545 S
C503 O500 1.305 . S
C503 O501 1.234 . S
Zn504 O510 1.920 . S
Zn504 O516 1.898 . S
Zn504 O519 1.905 . S
Zn505 O513 1.905 . S
Zn505 O514 1.898 1_455 S
Zn505 O522 1.920 1_455 S
Zn506 O509 2.080 . S
Zn506 O512 2.114 1_655 S
Zn506 O515 2.120 . S
Zn506 O517 2.120 . S
Zn506 O518 2.114 . S
Zn506 O521 2.080 . S
C507 O512 1.166 . S
C507 O513 1.182 . S
C508 O514 1.167 . S
C508 O515 1.299 . S
O509 Zn506 2.080 . S
O509 C523 1.305 . S
O510 Zn504 1.920 . S
O510 C523 1.234 . S
C511 O516 1.167 . S
C511 O517 1.299 . S
O512 Zn506 2.114 1_455 S
O512 C507 1.166 . S
O513 Zn505 1.905 . S
O513 C507 1.182 . S
O514 Zn505 1.898 1_655 S
O514 C508 1.167 . S
O515 Zn506 2.120 . S
O515 C508 1.299 . S
O516 Zn504 1.898 . S
O516 C511 1.167 . S
O517 Zn506 2.120 . S
O517 C511 1.299 . S
O518 Zn506 2.114 . S
O518 C520 1.166 . S
O519 Zn504 1.905 . S
O519 C520 1.182 . S
C520 O518 1.166 . S
C520 O519 1.182 . S
O521 Zn506 2.080 . S
O521 C524 1.305 . S
O522 Zn505 1.920 1_655 S
O522 C524 1.234 . S
C523 O509 1.305 . S
C523 O510 1.234 . S
C524 O521 1.305 . S
C524 O522 1.234 . S
Zn525 O531 1.920 . S
Zn525 O537 1.898 . S
Zn525 O540 1.905 . S
Zn526 O534 1.905 . S
Zn526 O535 1.898 . S
Zn526 O543 1.920 . S
Zn527 O530 2.080 . S
Zn527 O533 2.114 . S
Zn527 O536 2.120 . S
Zn527 O538 2.120 . S
Zn527 O539 2.114 . S
Zn527 O542 2.080 . S
C528 O533 1.166 . S
C528 O534 1.182 . S
C529 O535 1.167 . S
C529 O536 1.299 . S
O530 Zn527 2.080 . S
O530 C544 1.305 . S
O531 Zn525 1.920 . S
O531 C544 1.234 . S
C532 O537 1.167 . S
C532 O538 1.299 . S
O533 Zn527 2.114 . S
O533 C528 1.166 . S
O534 Zn526 1.905 . S
O534 C528 1.182 . S
O535 Zn526 1.898 . S
O535 C529 1.167 . S
O536 Zn527 2.120 . S
O536 C529 1.299 . S
O537 Zn525 1.898 . S
O537 C532 1.167 . S
O538 Zn527 2.120 . S
O538 C532 1.299 . S
O539 Zn527 2.114 . S
O539 C541 1.166 . S
O540 Zn525 1.905 . S
O540 C541 1.182 . S
C541 O539 1.166 . S
C541 O540 1.182 . S
O542 Zn527 2.080 . S
O542 C545 1.305 . S
O543 Zn526 1.920 . S
O543 C545 1.234 . S
C544 O530 1.305 . S
C544 O531 1.234 . S
C545 O542 1.305 . S
C545 O543 1.234 . S
Zn546 O552 1.920 . S
Zn546 O558 1.898 . S
Zn546 O561 1.905 . S
Zn547 O555 1.905 . S
Zn547 O556 1.898 . S
Zn547 O564 1.920 . S
Zn548 O551 2.080 . S
Zn548 O554 2.114 . S
Zn548 O557 2.120 . S
Zn548 O559 2.120 . S
Zn548 O560 2.114 . S
Zn548 O563 2.080 . S
C549 O554 1.166 . S
C549 O555 1.182 . S
C550 O556 1.167 . S
C550 O557 1.299 . S
O551 Zn548 2.080 . S
O551 C565 1.305 . S
O552 Zn546 1.920 . S
O552 C565 1.234 . S
C553 O558 1.167 . S
C553 O559 1.299 . S
O554 Zn548 2.114 . S
O554 C549 1.166 . S
O555 Zn547 1.905 . S
O555 C549 1.182 . S
O556 Zn547 1.898 . S
O556 C550 1.167 . S
O557 Zn548 2.120 . S
O557 C550 1.299 . S
O558 Zn546 1.898 . S
O558 C553 1.167 . S
O559 Zn548 2.120 . S
O559 C553 1.299 . S
O560 Zn548 2.114 . S
O560 C562 1.166 . S
O561 Zn546 1.905 . S
O561 C562 1.182 . S
C562 O560 1.166 . S
C562 O561 1.182 . S
O563 Zn548 2.080 . S
O563 C566 1.305 . S
O564 Zn547 1.920 . S
O564 C566 1.234 . S
C565 O551 1.305 . S
C565 O552 1.234 . S
C566 O563 1.305 . S
C566 O564 1.234 . S
Zn567 O573 1.920 . S
Zn567 O579 1.898 . S
Zn567 O582 1.905 . S
Zn568 O576 1.905 . S
Zn568 O577 1.898 . S
Zn568 O585 1.920 . S
Zn569 O572 2.080 . S
Zn569 O575 2.114 . S
Zn569 O578 2.120 1_655 S
Zn569 O580 2.120 . S
Zn569 O581 2.114 . S
Zn569 O584 2.080 . S
C570 O575 1.166 1_455 S
C570 O576 1.182 . S
C571 O577 1.167 . S
C571 O578 1.299 . S
O572 Zn569 2.080 . S
O572 C586 1.305 . S
O573 Zn567 1.920 . S
O573 C586 1.234 . S
C574 O579 1.167 . S
C574 O580 1.299 . S
O575 Zn569 2.114 . S
O575 C570 1.166 1_655 S
O576 Zn568 1.905 . S
O576 C570 1.182 . S
O577 Zn568 1.898 . S
O577 C571 1.167 . S
O578 Zn569 2.120 1_455 S
O578 C571 1.299 . S
O579 Zn567 1.898 . S
O579 C574 1.167 . S
O580 Zn569 2.120 . S
O580 C574 1.299 . S
O581 Zn569 2.114 . S
O581 C583 1.166 . S
O582 Zn567 1.905 . S
O582 C583 1.182 . S
C583 O581 1.166 . S
C583 O582 1.182 . S
O584 Zn569 2.080 . S
O584 C587 1.305 . S
O585 Zn568 1.920 . S
O585 C587 1.234 1_455 S
C586 O572 1.305 . S
C586 O573 1.234 . S
C587 O584 1.305 . S
C587 O585 1.234 1_655 S
Zn588 O594 1.920 1_455 S
Zn588 O600 1.898 1_455 S
Zn588 O603 1.905 . S
Zn589 O597 1.905 . S
Zn589 O598 1.898 . S
Zn589 O606 1.920 . S
Zn590 O593 2.080 . S
Zn590 O596 2.114 . S
Zn590 O599 2.120 1_545 S
Zn590 O601 2.120 . S
Zn590 O602 2.114 1_655 S
Zn590 O605 2.080 . S
C591 O596 1.166 1_565 S
C591 O597 1.182 . S
C592 O598 1.167 . S
C592 O599 1.299 . S
O593 Zn590 2.080 . S
O593 C607 1.305 . S
O594 Zn588 1.920 1_655 S
O594 C607 1.234 . S
C595 O600 1.167 . S
C595 O601 1.299 . S
O596 Zn590 2.114 . S
O596 C591 1.166 1_545 S
O597 Zn589 1.905 . S
O597 C591 1.182 . S
O598 Zn589 1.898 . S
O598 C592 1.167 . S
O599 Zn590 2.120 1_565 S
O599 C592 1.299 . S
O600 Zn588 1.898 1_655 S
O600 C595 1.167 . S
O601 Zn590 2.120 . S
O601 C595 1.299 . S
O602 Zn590 2.114 1_455 S
O602 C604 1.166 . S
O603 Zn588 1.905 . S
O603 C604 1.182 . S
C604 O602 1.166 . S
C604 O603 1.182 . S
O605 Zn590 2.080 . S
O605 C608 1.305 . S
O606 Zn589 1.920 . S
O606 C608 1.234 1_565 S
C607 O593 1.305 . S
C607 O594 1.234 . S
C608 O605 1.305 . S
C608 O606 1.234 1_545 S
Zn609 O615 1.920 . S
Zn609 O621 1.898 . S
Zn609 O624 1.905 . S
Zn610 O618 1.905 . S
Zn610 O619 1.898 . S
Zn610 O627 1.920 . S
Zn611 O614 2.080 . S
Zn611 O617 2.114 . S
Zn611 O620 2.120 . S
Zn611 O622 2.120 . S
Zn611 O623 2.114 . S
Zn611 O626 2.080 . S
C612 O617 1.166 . S
C612 O618 1.182 . S
C613 O619 1.167 . S
C613 O620 1.299 . S
O614 Zn611 2.080 . S
O614 C628 1.305 . S
O615 Zn609 1.920 . S
O615 C628 1.234 . S
C616 O621 1.167 . S
C616 O622 1.299 . S
O617 Zn611 2.114 . S
O617 C612 1.166 . S
O618 Zn610 1.905 . S
O618 C612 1.182 . S
O619 Zn610 1.898 . S
O619 C613 1.167 . S
O620 Zn611 2.120 . S
O620 C613 1.299 . S
O621 Zn609 1.898 . S
O621 C616 1.167 . S
O622 Zn611 2.120 . S
O622 C616 1.299 . S
O623 Zn611 2.114 . S
O623 C625 1.166 . S
O624 Zn609 1.905 . S
O624 C625 1.182 . S
C625 O623 1.166 . S
C625 O624 1.182 . S
O626 Zn611 2.080 . S
O626 C629 1.305 . S
O627 Zn610 1.920 . S
O627 C629 1.234 . S
C628 O614 1.305 . S
C628 O615 1.234 . S
C629 O626 1.305 . S
C629 O627 1.234 . S
Zn630 O636 1.920 . S
Zn630 O642 1.898 . S
Zn630 O645 1.905 . S
Zn631 O639 1.905 . S
Zn631 O640 1.898 . S
Zn631 O648 1.920 . S
Zn632 O635 2.080 . S
Zn632 O638 2.114 . S
Zn632 O641 2.120 . S
Zn632 O643 2.120 . S
Zn632 O644 2.114 . S
Zn632 O647 2.080 . S
C633 O638 1.166 . S
C633 O639 1.182 . S
C634 O640 1.167 . S
C634 O641 1.299 . S
O635 Zn632 2.080 . S
O635 C649 1.305 . S
O636 Zn630 1.920 . S
O636 C649 1.234 . S
C637 O642 1.167 . S
C637 O643 1.299 . S
O638 Zn632 2.114 . S
O638 C633 1.166 . S
O639 Zn631 1.905 . S
O639 C633 1.182 . S
O640 Zn631 1.898 . S
O640 C634 1.167 . S
O641 Zn632 2.120 . S
O641 C634 1.299 . S
O642 Zn630 1.898 . S
O642 C637 1.167 . S
O643 Zn632 2.120 . S
O643 C637 1.299 . S
O644 Zn632 2.114 . S
O644 C646 1.166 . S
O645 Zn630 1.905 . S
O645 C646 1.182 . S
C646 O644 1.166 . S
C646 O645 1.182 . S
O647 Zn632 2.080 . S
O647 C650 1.305 . S
O648 Zn631 1.920 . S
O648 C650 1.234 . S
C649 O635 1.305 . S
C649 O636 1.234 . S
C650 O647 1.305 . S
C650 O648 1.234 . S
Zn651 O657 1.920 . S
Zn651 O663 1.898 . S
Zn651 O666 1.905 . S
Zn652 O660 1.905 . S
Zn652 O661 1.898 . S
Zn652 O669 1.920 . S
Zn653 O656 2.080 . S
Zn653 O659 2.114 . S
Zn653 O662 2.120 . S
Zn653 O664 2.120 . S
Zn653 O665 2.114 . S
Zn653 O668 2.080 . S
C654 O659 1.166 . S
C654 O660 1.182 . S
C655 O661 1.167 . S
C655 O662 1.299 . S
O656 Zn653 2.080 . S
O656 C670 1.305 . S
O657 Zn651 1.920 . S
O657 C670 1.234 . S
C658 O663 1.167 . S
C658 O664 1.299 . S
O659 Zn653 2.114 . S
O659 C654 1.166 . S
O660 Zn652 1.905 . S
O660 C654 1.182 . S
O661 Zn652 1.898 . S
O661 C655 1.167 . S
O662 Zn653 2.120 . S
O662 C655 1.299 . S
O663 Zn651 1.898 . S
O663 C658 1.167 . S
O664 Zn653 2.120 . S
O664 C658 1.299 . S
O665 Zn653 2.114 . S
O665 C667 1.166 . S
O666 Zn651 1.905 . S
O666 C667 1.182 . S
C667 O665 1.166 . S
C667 O666 1.182 . S
O668 Zn653 2.080 . S
O668 C671 1.305 . S
O669 Zn652 1.920 . S
O669 C671 1.234 . S
C670 O656 1.305 . S
C670 O657 1.234 . S
C671 O668 1.305 . S
C671 O669 1.234 . S
Zn672 O678 1.920 . S
Zn672 O684 1.898 . S
Zn672 O687 1.905 . S
Zn673 O681 1.905 . S
Zn673 O682 1.898 1_545 S
Zn673 O690 1.920 1_545 S
Zn674 O677 2.080 . S
Zn674 O680 2.114 1_565 S
Zn674 O683 2.120 . S
Zn674 O685 2.120 . S
Zn674 O686 2.114 . S
Zn674 O689 2.080 . S
C675 O680 1.166 . S
C675 O681 1.182 . S
C676 O682 1.167 . S
C676 O683 1.299 . S
O677 Zn674 2.080 . S
O677 C691 1.305 . S
O678 Zn672 1.920 . S
O678 C691 1.234 . S
C679 O684 1.167 . S
C679 O685 1.299 . S
O680 Zn674 2.114 1_545 S
O680 C675 1.166 . S
O681 Zn673 1.905 . S
O681 C675 1.182 . S
O682 Zn673 1.898 1_565 S
O682 C676 1.167 . S
O683 Zn674 2.120 . S
O683 C676 1.299 . S
O684 Zn672 1.898 . S
O684 C679 1.167 . S
O685 Zn674 2.120 . S
O685 C679 1.299 . S
O686 Zn674 2.114 . S
O686 C688 1.166 . S
O687 Zn672 1.905 . S
O687 C688 1.182 . S
C688 O686 1.166 . S
C688 O687 1.182 . S
O689 Zn674 2.080 . S
O689 C692 1.305 . S
O690 Zn673 1.920 1_565 S
O690 C692 1.234 . S
C691 O677 1.305 . S
C691 O678 1.234 . S
C692 O689 1.305 . S
C692 O690 1.234 . S
Zn693 O699 1.920 . S
Zn693 O705 1.898 . S
Zn693 O708 1.905 . S
Zn694 O702 1.905 . S
Zn694 O703 1.898 . S
Zn694 O711 1.920 . S
Zn695 O698 2.080 . S
Zn695 O701 2.114 . S
Zn695 O704 2.120 . S
Zn695 O706 2.120 . S
Zn695 O707 2.114 . S
Zn695 O710 2.080 . S
C696 O701 1.166 . S
C696 O702 1.182 . S
C697 O703 1.167 . S
C697 O704 1.299 . S
O698 Zn695 2.080 . S
O698 C712 1.305 . S
O699 Zn693 1.920 . S
O699 C712 1.234 . S
C700 O705 1.167 . S
C700 O706 1.299 . S
O701 Zn695 2.114 . S
O701 C696 1.166 . S
O702 Zn694 1.905 . S
O702 C696 1.182 . S
O703 Zn694 1.898 . S
O703 C697 1.167 . S
O704 Zn695 2.120 . S
O704 C697 1.299 . S
O705 Zn693 1.898 . S
O705 C700 1.167 . S
O706 Zn695 2.120 . S
O706 C700 1.299 . S
O707 Zn695 2.114 . S
O707 C709 1.166 . S
O708 Zn693 1.905 . S
O708 C709 1.182 . S
C709 O707 1.166 . S
C709 O708 1.182 . S
O710 Zn695 2.080 . S
O710 C713 1.305 . S
O711 Zn694 1.920 . S
O711 C713 1.234 . S
C712 O698 1.305 . S
C712 O699 1.234 . S
C713 O710 1.305 . S
C713 O711 1.234 . S
Zn714 O720 1.920 . S
Zn714 O726 1.898 . S
Zn714 O729 1.905 . S
Zn715 O723 1.905 . S
Zn715 O724 1.898 . S
Zn715 O732 1.920 . S
Zn716 O719 2.080 . S
Zn716 O722 2.114 . S
Zn716 O725 2.120 . S
Zn716 O727 2.120 . S
Zn716 O728 2.114 . S
Zn716 O731 2.080 . S
C717 O722 1.166 . S
C717 O723 1.182 . S
C718 O724 1.167 . S
C718 O725 1.299 . S
O719 Zn716 2.080 . S
O719 C733 1.305 . S
O720 Zn714 1.920 . S
O720 C733 1.234 . S
C721 O726 1.167 . S
C721 O727 1.299 . S
O722 Zn716 2.114 . S
O722 C717 1.166 . S
O723 Zn715 1.905 . S
O723 C717 1.182 . S
O724 Zn715 1.898 . S
O724 C718 1.167 . S
O725 Zn716 2.120 . S
O725 C718 1.299 . S
O726 Zn714 1.898 . S
O726 C721 1.167 . S
O727 Zn716 2.120 . S
O727 C721 1.299 . S
O728 Zn716 2.114 . S
O728 C730 1.166 . S
O729 Zn714 1.905 . S
O729 C730 1.182 . S
C730 O728 1.166 . S
C730 O729 1.182 . S
O731 Zn716 2.080 . S
O731 C734 1.305 . S
O732 Zn715 1.920 . S
O732 C734 1.234 . S
C733 O719 1.305 . S
C733 O720 1.234 . S
C734 O731 1.305 . S
C734 O732 1.234 . S
Zn735 O741 1.920 . S
Zn735 O747 1.898 . S
Zn735 O750 1.905 . S
Zn736 O744 1.905 . S
Zn736 O745 1.898 . S
Zn736 O753 1.920 . S
Zn737 O740 2.080 . S
Zn737 O743 2.114 . S
Zn737 O746 2.120 1_556 S
Zn737 O748 2.120 . S
Zn737 O749 2.114 . S
Zn737 O752 2.080 . S
C738 O743 1.166 1_554 S
C738 O744 1.182 . S
C739 O745 1.167 . S
C739 O746 1.299 . S
O740 Zn737 2.080 . S
O740 C754 1.305 . S
O741 Zn735 1.920 . S
O741 C754 1.234 . S
C742 O747 1.167 . S
C742 O748 1.299 . S
O743 Zn737 2.114 . S
O743 C738 1.166 1_556 S
O744 Zn736 1.905 . S
O744 C738 1.182 . S
O745 Zn736 1.898 . S
O745 C739 1.167 . S
O746 Zn737 2.120 1_554 S
O746 C739 1.299 . S
O747 Zn735 1.898 . S
O747 C742 1.167 . S
O748 Zn737 2.120 . S
O748 C742 1.299 . S
O749 Zn737 2.114 . S
O749 C751 1.166 . S
O750 Zn735 1.905 . S
O750 C751 1.182 . S
C751 O749 1.166 . S
C751 O750 1.182 . S
O752 Zn737 2.080 . S
O752 C755 1.305 . S
O753 Zn736 1.920 . S
O753 C755 1.234 1_554 S
C754 O740 1.305 . S
C754 O741 1.234 . S
C755 O752 1.305 . S
C755 O753 1.234 1_556 S
Zn756 O762 1.920 . S
Zn756 O768 1.898 . S
Zn756 O771 1.905 . S
Zn757 O765 1.905 . S
Zn757 O766 1.898 . S
Zn757 O774 1.920 . S
Zn758 O761 2.080 . S
Zn758 O764 2.114 . S
Zn758 O767 2.120 1_554 S
Zn758 O769 2.120 . S
Zn758 O770 2.114 . S
Zn758 O773 2.080 . S
C759 O764 1.166 1_556 S
C759 O765 1.182 . S
C760 O766 1.167 . S
C760 O767 1.299 . S
O761 Zn758 2.080 . S
O761 C775 1.305 . S
O762 Zn756 1.920 . S
O762 C775 1.234 . S
C763 O768 1.167 . S
C763 O769 1.299 . S
O764 Zn758 2.114 . S
O764 C759 1.166 1_554 S
O765 Zn757 1.905 . S
O765 C759 1.182 . S
O766 Zn757 1.898 . S
O766 C760 1.167 . S
O767 Zn758 2.120 1_556 S
O767 C760 1.299 . S
O768 Zn756 1.898 . S
O768 C763 1.167 . S
O769 Zn758 2.120 . S
O769 C763 1.299 . S
O770 Zn758 2.114 . S
O770 C772 1.166 . S
O771 Zn756 1.905 . S
O771 C772 1.182 . S
C772 O770 1.166 . S
C772 O771 1.182 . S
O773 Zn758 2.080 . S
O773 C776 1.305 . S
O774 Zn757 1.920 . S
O774 C776 1.234 1_556 S
C775 O761 1.305 . S
C775 O762 1.234 . S
C776 O773 1.305 . S
C776 O774 1.234 1_554 S
Zn777 O783 1.920 . S
Zn777 O789 1.898 . S
Zn777 O792 1.905 . S
Zn778 O786 1.905 . S
Zn778 O787 1.898 . S
Zn778 O795 1.920 . S
Zn779 O782 2.080 . S
Zn779 O785 2.114 . S
Zn779 O788 2.120 . S
Zn779 O790 2.120 . S
Zn779 O791 2.114 . S
Zn779 O794 2.080 . S
C780 O785 1.166 . S
C780 O786 1.182 . S
C781 O787 1.167 . S
C781 O788 1.299 . S
O782 Zn779 2.080 . S
O782 C796 1.305 . S
O783 Zn777 1.920 . S
O783 C796 1.234 . S
C784 O789 1.167 . S
C784 O790 1.299 . S
O785 Zn779 2.114 . S
O785 C780 1.166 . S
O786 Zn778 1.905 . S
O786 C780 1.182 . S
O787 Zn778 1.898 . S
O787 C781 1.167 . S
O788 Zn779 2.120 . S
O788 C781 1.299 . S
O789 Zn777 1.898 . S
O789 C784 1.167 . S
O790 Zn779 2.120 . S
O790 C784 1.299 . S
O791 Zn779 2.114 . S
O791 C793 1.166 . S
O792 Zn777 1.905 . S
O792 C793 1.182 . S
C793 O791 1.166 . S
C793 O792 1.182 . S
O794 Zn779 2.080 . S
O794 C797 1.305 . S
O795 Zn778 1.920 . S
O795 C797 1.234 . S
C796 O782 1.305 . S
C796 O783 1.234 . S
C797 O794 1.305 . S
C797 O795 1.234 . S
Zn798 O804 1.920 . S
Zn798 O810 1.898 . S
Zn798 O813 1.905 . S
Zn799 O807 1.905 . S
Zn799 O808 1.898 . S
Zn799 O816 1.920 . S
Zn800 O803 2.080 . S
Zn800 O806 2.114 . S
Zn800 O809 2.120 . S
Zn800 O811 2.120 . S
Zn800 O812 2.114 . S
Zn800 O815 2.080 . S
C801 O806 1.166 . S
C801 O807 1.182 . S
C802 O808 1.167 . S
C802 O809 1.299 . S
O803 Zn800 2.080 . S
O803 C817 1.305 . S
O804 Zn798 1.920 . S
O804 C817 1.234 . S
C805 O810 1.167 . S
C805 O811 1.299 . S
O806 Zn800 2.114 . S
O806 C801 1.166 . S
O807 Zn799 1.905 . S
O807 C801 1.182 . S
O808 Zn799 1.898 . S
O808 C802 1.167 . S
O809 Zn800 2.120 . S
O809 C802 1.299 . S
O810 Zn798 1.898 . S
O810 C805 1.167 . S
O811 Zn800 2.120 . S
O811 C805 1.299 . S
O812 Zn800 2.114 . S
O812 C814 1.166 . S
O813 Zn798 1.905 . S
O813 C814 1.182 . S
C814 O812 1.166 . S
C814 O813 1.182 . S
O815 Zn800 2.080 . S
O815 C818 1.305 . S
O816 Zn799 1.920 . S
O816 C818 1.234 . S
C817 O803 1.305 . S
C817 O804 1.234 . S
C818 O815 1.305 . S
C818 O816 1.234 . S
Zn819 O825 1.920 1_655 S
Zn819 O831 1.898 1_655 S
Zn819 O834 1.905 . S
Zn820 O828 1.905 . S
Zn820 O829 1.898 . S
Zn820 O837 1.920 . S
Zn821 O824 2.080 . S
Zn821 O827 2.114 . S
Zn821 O830 2.120 . S
Zn821 O832 2.120 . S
Zn821 O833 2.114 1_455 S
Zn821 O836 2.080 . S
C822 O827 1.166 . S
C822 O828 1.182 . S
C823 O829 1.167 . S
C823 O830 1.299 . S
O824 Zn821 2.080 . S
O824 C838 1.305 . S
O825 Zn819 1.920 1_455 S
O825 C838 1.234 . S
C826 O831 1.167 . S
C826 O832 1.299 . S
O827 Zn821 2.114 . S
O827 C822 1.166 . S
O828 Zn820 1.905 . S
O828 C822 1.182 . S
O829 Zn820 1.898 . S
O829 C823 1.167 . S
O830 Zn821 2.120 . S
O830 C823 1.299 . S
O831 Zn819 1.898 1_455 S
O831 C826 1.167 . S
O832 Zn821 2.120 . S
O832 C826 1.299 . S
O833 Zn821 2.114 1_655 S
O833 C835 1.166 . S
O834 Zn819 1.905 . S
O834 C835 1.182 . S
C835 O833 1.166 . S
C835 O834 1.182 . S
O836 Zn821 2.080 . S
O836 C839 1.305 . S
O837 Zn820 1.920 . S
O837 C839 1.234 . S
C838 O824 1.305 . S
C838 O825 1.234 . S
C839 O836 1.305 . S
C839 O837 1.234 . S
Zn840 O846 1.920 . S
Zn840 O852 1.898 . S
Zn840 O855 1.905 . S
Zn841 O849 1.905 . S
Zn841 O850 1.898 1_554 S
Zn841 O858 1.920 1_554 S
Zn842 O845 2.080 . S
Zn842 O848 2.114 1_556 S
Zn842 O851 2.120 . S
Zn842 O853 2.120 . S
Zn842 O854 2.114 . S
Zn842 O857 2.080 . S
C843 O848 1.166 . S
C843 O849 1.182 . S
C844 O850 1.167 . S
C844 O851 1.299 . S
O845 Zn842 2.080 . S
O845 C859 1.305 . S
O846 Zn840 1.920 . S
O846 C859 1.234 . S
C847 O852 1.167 . S
C847 O853 1.299 . S
O848 Zn842 2.114 1_554 S
O848 C843 1.166 . S
O849 Zn841 1.905 . S
O849 C843 1.182 . S
O850 Zn841 1.898 1_556 S
O850 C844 1.167 . S
O851 Zn842 2.120 . S
O851 C844 1.299 . S
O852 Zn840 1.898 . S
O852 C847 1.167 . S
O853 Zn842 2.120 . S
O853 C847 1.299 . S
O854 Zn842 2.114 . S
O854 C856 1.166 . S
O855 Zn840 1.905 . S
O855 C856 1.182 . S
C856 O854 1.166 . S
C856 O855 1.182 . S
O857 Zn842 2.080 . S
O857 C860 1.305 . S
O858 Zn841 1.920 1_556 S
O858 C860 1.234 . S
C859 O845 1.305 . S
C859 O846 1.234 . S
C860 O857 1.305 . S
C860 O858 1.234 . S
Zn861 O867 1.920 . S
Zn861 O873 1.898 . S
Zn861 O876 1.905 . S
Zn862 O870 1.905 . S
Zn862 O871 1.898 . S
Zn862 O879 1.920 . S
Zn863 O866 2.080 . S
Zn863 O869 2.114 . S
Zn863 O872 2.120 . S
Zn863 O874 2.120 . S
Zn863 O875 2.114 . S
Zn863 O878 2.080 . S
C864 O869 1.166 . S
C864 O870 1.182 . S
C865 O871 1.167 . S
C865 O872 1.299 . S
O866 Zn863 2.080 . S
O866 C880 1.305 . S
O867 Zn861 1.920 . S
O867 C880 1.234 . S
C868 O873 1.167 . S
C868 O874 1.299 . S
O869 Zn863 2.114 . S
O869 C864 1.166 . S
O870 Zn862 1.905 . S
O870 C864 1.182 . S
O871 Zn862 1.898 . S
O871 C865 1.167 . S
O872 Zn863 2.120 . S
O872 C865 1.299 . S
O873 Zn861 1.898 . S
O873 C868 1.167 . S
O874 Zn863 2.120 . S
O874 C868 1.299 . S
O875 Zn863 2.114 . S
O875 C877 1.166 . S
O876 Zn861 1.905 . S
O876 C877 1.182 . S
C877 O875 1.166 . S
C877 O876 1.182 . S
O878 Zn863 2.080 . S
O878 C881 1.305 . S
O879 Zn862 1.920 . S
O879 C881 1.234 . S
C880 O866 1.305 . S
C880 O867 1.234 . S
C881 O878 1.305 . S
C881 O879 1.234 . S
Zn882 O888 1.920 . S
Zn882 O894 1.898 . S
Zn882 O897 1.905 . S
Zn883 O891 1.905 . S
Zn883 O892 1.898 1_556 S
Zn883 O900 1.920 1_556 S
Zn884 O887 2.080 . S
Zn884 O890 2.114 1_554 S
Zn884 O893 2.120 . S
Zn884 O895 2.120 1_565 S
Zn884 O896 2.114 . S
Zn884 O899 2.080 . S
C885 O890 1.166 . S
C885 O891 1.182 . S
C886 O892 1.167 . S
C886 O893 1.299 . S
O887 Zn884 2.080 . S
O887 C901 1.305 . S
O888 Zn882 1.920 . S
O888 C901 1.234 1_545 S
C889 O894 1.167 . S
C889 O895 1.299 . S
O890 Zn884 2.114 1_556 S
O890 C885 1.166 . S
O891 Zn883 1.905 . S
O891 C885 1.182 . S
O892 Zn883 1.898 1_554 S
O892 C886 1.167 . S
O893 Zn884 2.120 . S
O893 C886 1.299 . S
O894 Zn882 1.898 . S
O894 C889 1.167 . S
O895 Zn884 2.120 1_545 S
O895 C889 1.299 . S
O896 Zn884 2.114 . S
O896 C898 1.166 1_565 S
O897 Zn882 1.905 . S
O897 C898 1.182 . S
C898 O896 1.166 1_545 S
C898 O897 1.182 . S
O899 Zn884 2.080 . S
O899 C902 1.305 . S
O900 Zn883 1.920 1_554 S
O900 C902 1.234 . S
C901 O887 1.305 . S
C901 O888 1.234 1_565 S
C902 O899 1.305 . S
C902 O900 1.234 . S
Zn903 O909 1.920 . S
Zn903 O915 1.898 . S
Zn903 O918 1.905 . S
Zn904 O912 1.905 . S
Zn904 O913 1.898 . S
Zn904 O921 1.920 . S
Zn905 O908 2.080 . S
Zn905 O911 2.114 . S
Zn905 O914 2.120 . S
Zn905 O916 2.120 . S
Zn905 O917 2.114 . S
Zn905 O920 2.080 . S
C906 O911 1.166 . S
C906 O912 1.182 . S
C907 O913 1.167 . S
C907 O914 1.299 . S
O908 Zn905 2.080 . S
O908 C922 1.305 . S
O909 Zn903 1.920 . S
O909 C922 1.234 . S
C910 O915 1.167 . S
C910 O916 1.299 . S
O911 Zn905 2.114 . S
O911 C906 1.166 . S
O912 Zn904 1.905 . S
O912 C906 1.182 . S
O913 Zn904 1.898 . S
O913 C907 1.167 . S
O914 Zn905 2.120 . S
O914 C907 1.299 . S
O915 Zn903 1.898 . S
O915 C910 1.167 . S
O916 Zn905 2.120 . S
O916 C910 1.299 . S
O917 Zn905 2.114 . S
O917 C919 1.166 . S
O918 Zn903 1.905 . S
O918 C919 1.182 . S
C919 O917 1.166 . S
C919 O918 1.182 . S
O920 Zn905 2.080 . S
O920 C923 1.305 . S
O921 Zn904 1.920 . S
O921 C923 1.234 . S
C922 O908 1.305 . S
C922 O909 1.234 . S
C923 O920 1.305 . S
C923 O921 1.234 . S
Zn924 O930 1.920 . S
Zn924 O936 1.898 . S
Zn924 O939 1.905 . S
Zn925 O933 1.905 . S
Zn925 O934 1.898 . S
Zn925 O942 1.920 . S
Zn926 O929 2.080 . S
Zn926 O932 2.114 . S
Zn926 O935 2.120 . S
Zn926 O937 2.120 . S
Zn926 O938 2.114 . S
Zn926 O941 2.080 . S
C927 O932 1.166 . S
C927 O933 1.182 . S
C928 O934 1.167 . S
C928 O935 1.299 . S
O929 Zn926 2.080 . S
O929 C943 1.305 . S
O930 Zn924 1.920 . S
O930 C943 1.234 . S
C931 O936 1.167 . S
C931 O937 1.299 . S
O932 Zn926 2.114 . S
O932 C927 1.166 . S
O933 Zn925 1.905 . S
O933 C927 1.182 . S
O934 Zn925 1.898 . S
O934 C928 1.167 . S
O935 Zn926 2.120 . S
O935 C928 1.299 . S
O936 Zn924 1.898 . S
O936 C931 1.167 . S
O937 Zn926 2.120 . S
O937 C931 1.299 . S
O938 Zn926 2.114 . S
O938 C940 1.166 . S
O939 Zn924 1.905 . S
O939 C940 1.182 . S
C940 O938 1.166 . S
C940 O939 1.182 . S
O941 Zn926 2.080 . S
O941 C944 1.305 . S
O942 Zn925 1.920 . S
O942 C944 1.234 . S
C943 O929 1.305 . S
C943 O930 1.234 . S
C944 O941 1.305 . S
C944 O942 1.234 . S
Zn945 O951 1.920 . S
Zn945 O957 1.898 . S
Zn945 O960 1.905 . S
Zn946 O954 1.905 . S
Zn946 O955 1.898 1_554 S
Zn946 O963 1.920 1_554 S
Zn947 O950 2.080 . S
Zn947 O953 2.114 1_556 S
Zn947 O956 2.120 . S
Zn947 O958 2.120 1_455 S
Zn947 O959 2.114 . S
Zn947 O962 2.080 . S
C948 O953 1.166 . S
C948 O954 1.182 . S
C949 O955 1.167 . S
C949 O956 1.299 . S
O950 Zn947 2.080 . S
O950 C964 1.305 . S
O951 Zn945 1.920 . S
O951 C964 1.234 1_655 S
C952 O957 1.167 . S
C952 O958 1.299 . S
O953 Zn947 2.114 1_554 S
O953 C948 1.166 . S
O954 Zn946 1.905 . S
O954 C948 1.182 . S
O955 Zn946 1.898 1_556 S
O955 C949 1.167 . S
O956 Zn947 2.120 . S
O956 C949 1.299 . S
O957 Zn945 1.898 . S
O957 C952 1.167 . S
O958 Zn947 2.120 1_655 S
O958 C952 1.299 . S
O959 Zn947 2.114 . S
O959 C961 1.166 1_455 S
O960 Zn945 1.905 . S
O960 C961 1.182 . S
C961 O959 1.166 1_655 S
C961 O960 1.182 . S
O962 Zn947 2.080 . S
O962 C965 1.305 . S
O963 Zn946 1.920 1_556 S
O963 C965 1.234 . S
C964 O950 1.305 . S
C964 O951 1.234 1_455 S
C965 O962 1.305 . S
C965 O963 1.234 . S
Zn966 O972 1.920 . S
Zn966 O978 1.898 . S
Zn966 O981 1.905 . S
Zn967 O975 1.905 . S
Zn967 O976 1.898 . S
Zn967 O984 1.920 . S
Zn968 O971 2.080 . S
Zn968 O974 2.114 . S
Zn968 O977 2.120 . S
Zn968 O979 2.120 . S
Zn968 O980 2.114 . S
Zn968 O983 2.080 . S
C969 O974 1.166 . S
C969 O975 1.182 . S
C970 O976 1.167 . S
C970 O977 1.299 . S
O971 Zn968 2.080 . S
O971 C985 1.305 . S
O972 Zn966 1.920 . S
O972 C985 1.234 . S
C973 O978 1.167 . S
C973 O979 1.299 . S
O974 Zn968 2.114 . S
O974 C969 1.166 . S
O975 Zn967 1.905 . S
O975 C969 1.182 . S
O976 Zn967 1.898 . S
O976 C970 1.167 . S
O977 Zn968 2.120 . S
O977 C970 1.299 . S
O978 Zn966 1.898 . S
O978 C973 1.167 . S
O979 Zn968 2.120 . S
O979 C973 1.299 . S
O980 Zn968 2.114 . S
O980 C982 1.166 . S
O981 Zn966 1.905 . S
O981 C982 1.182 . S
C982 O980 1.166 . S
C982 O981 1.182 . S
O983 Zn968 2.080 . S
O983 C986 1.305 . S
O984 Zn967 1.920 . S
O984 C986 1.234 . S
C985 O971 1.305 . S
C985 O972 1.234 . S
C986 O983 1.305 . S
C986 O984 1.234 . S
Zn987 O993 1.920 . S
Zn987 O999 1.898 . S
Zn987 O1002 1.905 . S
Zn988 O996 1.905 . S
Zn988 O997 1.898 . S
Zn988 O1005 1.920 . S
Zn989 O992 2.080 . S
Zn989 O995 2.114 . S
Zn989 O998 2.120 1_565 S
Zn989 O1000 2.120 . S
Zn989 O1001 2.114 . S
Zn989 O1004 2.080 . S
C990 O995 1.166 1_545 S
C990 O996 1.182 . S
C991 O997 1.167 . S
C991 O998 1.299 . S
O992 Zn989 2.080 . S
O992 C1006 1.305 . S
O993 Zn987 1.920 . S
O993 C1006 1.234 . S
C994 O999 1.167 . S
C994 O1000 1.299 . S
O995 Zn989 2.114 . S
O995 C990 1.166 1_565 S
O996 Zn988 1.905 . S
O996 C990 1.182 . S
O997 Zn988 1.898 . S
O997 C991 1.167 . S
O998 Zn989 2.120 1_545 S
O998 C991 1.299 . S
O999 Zn987 1.898 . S
O999 C994 1.167 . S
O1000 Zn989 2.120 . S
O1000 C994 1.299 . S
O1001 Zn989 2.114 . S
O1001 C1003 1.166 . S
O1002 Zn987 1.905 . S
O1002 C1003 1.182 . S
C1003 O1001 1.166 . S
C1003 O1002 1.182 . S
O1004 Zn989 2.080 . S
O1004 C1007 1.305 . S
O1005 Zn988 1.920 . S
O1005 C1007 1.234 1_545 S
C1006 O992 1.305 . S
C1006 O993 1.234 . S
C1007 O1004 1.305 . S
C1007 O1005 1.234 1_565 S
Zn1008 O1014 1.920 1_655 S
Zn1008 O1020 1.898 1_655 S
Zn1008 O1023 1.905 . S
Zn1009 O1017 1.905 . S
Zn1009 O1018 1.898 . S
Zn1009 O1026 1.920 . S
Zn1010 O1013 2.080 . S
Zn1010 O1016 2.114 . S
Zn1010 O1019 2.120 . S
Zn1010 O1021 2.120 . S
Zn1010 O1022 2.114 1_455 S
Zn1010 O1025 2.080 . S
C1011 O1016 1.166 . S
C1011 O1017 1.182 . S
C1012 O1018 1.167 . S
C1012 O1019 1.299 . S
O1013 Zn1010 2.080 . S
O1013 C1027 1.305 . S
O1014 Zn1008 1.920 1_455 S
O1014 C1027 1.234 . S
C1015 O1020 1.167 . S
C1015 O1021 1.299 . S
O1016 Zn1010 2.114 . S
O1016 C1011 1.166 . S
O1017 Zn1009 1.905 . S
O1017 C1011 1.182 . S
O1018 Zn1009 1.898 . S
O1018 C1012 1.167 . S
O1019 Zn1010 2.120 . S
O1019 C1012 1.299 . S
O1020 Zn1008 1.898 1_455 S
O1020 C1015 1.167 . S
O1021 Zn1010 2.120 . S
O1021 C1015 1.299 . S
O1022 Zn1010 2.114 1_655 S
O1022 C1024 1.166 . S
O1023 Zn1008 1.905 . S
O1023 C1024 1.182 . S
C1024 O1022 1.166 . S
C1024 O1023 1.182 . S
O1025 Zn1010 2.080 . S
O1025 C1028 1.305 . S
O1026 Zn1009 1.920 . S
O1026 C1028 1.234 . S
C1027 O1013 1.305 . S
C1027 O1014 1.234 . S
C1028 O1025 1.305 . S
C1028 O1026 1.234 . S
Zn1029 O1035 1.920 . S
Zn1029 O1041 1.898 . S
Zn1029 O1044 1.905 . S
Zn1030 O1038 1.905 . S
Zn1030 O1039 1.898 . S
Zn1030 O1047 1.920 . S
Zn1031 O1034 2.080 . S
Zn1031 O1037 2.114 . S
Zn1031 O1040 2.120 . S
Zn1031 O1042 2.120 . S
Zn1031 O1043 2.114 . S
Zn1031 O1046 2.080 . S
C1032 O1037 1.166 . S
C1032 O1038 1.182 . S
C1033 O1039 1.167 . S
C1033 O1040 1.299 . S
O1034 Zn1031 2.080 . S
O1034 C1048 1.305 . S
O1035 Zn1029 1.920 . S
O1035 C1048 1.234 . S
C1036 O1041 1.167 . S
C1036 O1042 1.299 . S
O1037 Zn1031 2.114 . S
O1037 C1032 1.166 . S
O1038 Zn1030 1.905 . S
O1038 C1032 1.182 . S
O1039 Zn1030 1.898 . S
O1039 C1033 1.167 . S
O1040 Zn1031 2.120 . S
O1040 C1033 1.299 . S
O1041 Zn1029 1.898 . S
O1041 C1036 1.167 . S
O1042 Zn1031 2.120 . S
O1042 C1036 1.299 . S
O1043 Zn1031 2.114 . S
O1043 C1045 1.166 . S
O1044 Zn1029 1.905 . S
O1044 C1045 1.182 . S
C1045 O1043 1.166 . S
C1045 O1044 1.182 . S
O1046 Zn1031 2.080 . S
O1046 C1049 1.305 . S
O1047 Zn1030 1.920 . S
O1047 C1049 1.234 . S
C1048 O1034 1.305 . S
C1048 O1035 1.234 . S
C1049 O1046 1.305 . S
C1049 O1047 1.234 . S
Zn1050 O1056 1.920 . S
Zn1050 O1062 1.898 . S
Zn1050 O1065 1.905 . S
Zn1051 O1059 1.905 . S
Zn1051 O1060 1.898 . S
Zn1051 O1068 1.920 . S
Zn1052 O1055 2.080 . S
Zn1052 O1058 2.114 . S
Zn1052 O1061 2.120 1_565 S
Zn1052 O1063 2.120 . S
Zn1052 O1064 2.114 . S
Zn1052 O1067 2.080 . S
C1053 O1058 1.166 1_545 S
C1053 O1059 1.182 . S
C1054 O1060 1.167 . S
C1054 O1061 1.299 . S
O1055 Zn1052 2.080 . S
O1055 C1069 1.305 . S
O1056 Zn1050 1.920 . S
O1056 C1069 1.234 . S
C1057 O1062 1.167 . S
C1057 O1063 1.299 . S
O1058 Zn1052 2.114 . S
O1058 C1053 1.166 1_565 S
O1059 Zn1051 1.905 . S
O1059 C1053 1.182 . S
O1060 Zn1051 1.898 . S
O1060 C1054 1.167 . S
O1061 Zn1052 2.120 1_545 S
O1061 C1054 1.299 . S
O1062 Zn1050 1.898 . S
O1062 C1057 1.167 . S
O1063 Zn1052 2.120 . S
O1063 C1057 1.299 . S
O1064 Zn1052 2.114 . S
O1064 C1066 1.166 . S
O1065 Zn1050 1.905 . S
O1065 C1066 1.182 . S
C1066 O1064 1.166 . S
C1066 O1065 1.182 . S
O1067 Zn1052 2.080 . S
O1067 C1070 1.305 . S
O1068 Zn1051 1.920 . S
O1068 C1070 1.234 1_545 S
C1069 O1055 1.305 . S
C1069 O1056 1.234 . S
C1070 O1067 1.305 . S
C1070 O1068 1.234 1_565 S
Zn1071 O1077 1.920 1_545 S
Zn1071 O1083 1.898 1_545 S
Zn1071 O1086 1.905 . S
Zn1072 O1080 1.905 . S
Zn1072 O1081 1.898 . S
Zn1072 O1089 1.920 . S
Zn1073 O1076 2.080 . S
Zn1073 O1079 2.114 . S
Zn1073 O1082 2.120 1_455 S
Zn1073 O1084 2.120 . S
Zn1073 O1085 2.114 1_565 S
Zn1073 O1088 2.080 . S
C1074 O1079 1.166 1_655 S
C1074 O1080 1.182 . S
C1075 O1081 1.167 . S
C1075 O1082 1.299 . S
O1076 Zn1073 2.080 . S
O1076 C1090 1.305 . S
O1077 Zn1071 1.920 1_565 S
O1077 C1090 1.234 . S
C1078 O1083 1.167 . S
C1078 O1084 1.299 . S
O1079 Zn1073 2.114 . S
O1079 C1074 1.166 1_455 S
O1080 Zn1072 1.905 . S
O1080 C1074 1.182 . S
O1081 Zn1072 1.898 . S
O1081 C1075 1.167 . S
O1082 Zn1073 2.120 1_655 S
O1082 C1075 1.299 . S
O1083 Zn1071 1.898 1_565 S
O1083 C1078 1.167 . S
O1084 Zn1073 2.120 . S
O1084 C1078 1.299 . S
O1085 Zn1073 2.114 1_545 S
O1085 C1087 1.166 . S
O1086 Zn1071 1.905 . S
O1086 C1087 1.182 . S
C1087 O1085 1.166 . S
C1087 O1086 1.182 . S
O1088 Zn1073 2.080 . S
O1088 C1091 1.305 . S
O1089 Zn1072 1.920 . S
O1089 C1091 1.234 1_655 S
C1090 O1076 1.305 . S
C1090 O1077 1.234 . S
C1091 O1088 1.305 . S
C1091 O1089 1.234 1_455 S
Zn1092 O1098 1.920 . S
Zn1092 O1104 1.898 . S
Zn1092 O1107 1.905 . S
Zn1093 O1101 1.905 . S
Zn1093 O1102 1.898 1_655 S
Zn1093 O1110 1.920 1_655 S
Zn1094 O1097 2.080 . S
Zn1094 O1100 2.114 1_455 S
Zn1094 O1103 2.120 . S
Zn1094 O1105 2.120 . S
Zn1094 O1106 2.114 . S
Zn1094 O1109 2.080 . S
C1095 O1100 1.166 . S
C1095 O1101 1.182 . S
C1096 O1102 1.167 . S
C1096 O1103 1.299 . S
O1097 Zn1094 2.080 . S
O1097 C1111 1.305 . S
O1098 Zn1092 1.920 . S
O1098 C1111 1.234 . S
C1099 O1104 1.167 . S
C1099 O1105 1.299 . S
O1100 Zn1094 2.114 1_655 S
O1100 C1095 1.166 . S
O1101 Zn1093 1.905 . S
O1101 C1095 1.182 . S
O1102 Zn1093 1.898 1_455 S
O1102 C1096 1.167 . S
O1103 Zn1094 2.120 . S
O1103 C1096 1.299 . S
O1104 Zn1092 1.898 . S
O1104 C1099 1.167 . S
O1105 Zn1094 2.120 . S
O1105 C1099 1.299 . S
O1106 Zn1094 2.114 . S
O1106 C1108 1.166 . S
O1107 Zn1092 1.905 . S
O1107 C1108 1.182 . S
C1108 O1106 1.166 . S
C1108 O1107 1.182 . S
O1109 Zn1094 2.080 . S
O1109 C1112 1.305 . S
O1110 Zn1093 1.920 1_455 S
O1110 C1112 1.234 . S
C1111 O1097 1.305 . S
C1111 O1098 1.234 . S
C1112 O1109 1.305 . S
C1112 O1110 1.234 . S
Zn1113 O1119 1.920 . S
Zn1113 O1125 1.898 . S
Zn1113 O1128 1.905 . S
Zn1114 O1122 1.905 . S
Zn1114 O1123 1.898 . S
Zn1114 O1131 1.920 . S
Zn1115 O1118 2.080 . S
Zn1115 O1121 2.114 . S
Zn1115 O1124 2.120 . S
Zn1115 O1126 2.120 . S
Zn1115 O1127 2.114 . S
Zn1115 O1130 2.080 . S
C1116 O1121 1.166 . S
C1116 O1122 1.182 . S
C1117 O1123 1.167 . S
C1117 O1124 1.299 . S
O1118 Zn1115 2.080 . S
O1118 C1132 1.305 . S
O1119 Zn1113 1.920 . S
O1119 C1132 1.234 . S
C1120 O1125 1.167 . S
C1120 O1126 1.299 . S
O1121 Zn1115 2.114 . S
O1121 C1116 1.166 . S
O1122 Zn1114 1.905 . S
O1122 C1116 1.182 . S
O1123 Zn1114 1.898 . S
O1123 C1117 1.167 . S
O1124 Zn1115 2.120 . S
O1124 C1117 1.299 . S
O1125 Zn1113 1.898 . S
O1125 C1120 1.167 . S
O1126 Zn1115 2.120 . S
O1126 C1120 1.299 . S
O1127 Zn1115 2.114 . S
O1127 C1129 1.166 . S
O1128 Zn1113 1.905 . S
O1128 C1129 1.182 . S
C1129 O1127 1.166 . S
C1129 O1128 1.182 . S
O1130 Zn1115 2.080 . S
O1130 C1133 1.305 . S
O1131 Zn1114 1.920 . S
O1131 C1133 1.234 . S
C1132 O1118 1.305 . S
C1132 O1119 1.234 . S
C1133 O1130 1.305 . S
C1133 O1131 1.234 . S
Zn1134 O1140 1.920 . S
Zn1134 O1146 1.898 . S
Zn1134 O1149 1.905 . S
Zn1135 O1143 1.905 . S
Zn1135 O1144 1.898 . S
Zn1135 O1152 1.920 . S
Zn1136 O1139 2.080 . S
Zn1136 O1142 2.114 . S
Zn1136 O1145 2.120 . S
Zn1136 O1147 2.120 . S
Zn1136 O1148 2.114 . S
Zn1136 O1151 2.080 . S
C1137 O1142 1.166 . S
C1137 O1143 1.182 . S
C1138 O1144 1.167 . S
C1138 O1145 1.299 . S
O1139 Zn1136 2.080 . S
O1139 C1153 1.305 . S
O1140 Zn1134 1.920 . S
O1140 C1153 1.234 . S
C1141 O1146 1.167 . S
C1141 O1147 1.299 . S
O1142 Zn1136 2.114 . S
O1142 C1137 1.166 . S
O1143 Zn1135 1.905 . S
O1143 C1137 1.182 . S
O1144 Zn1135 1.898 . S
O1144 C1138 1.167 . S
O1145 Zn1136 2.120 . S
O1145 C1138 1.299 . S
O1146 Zn1134 1.898 . S
O1146 C1141 1.167 . S
O1147 Zn1136 2.120 . S
O1147 C1141 1.299 . S
O1148 Zn1136 2.114 . S
O1148 C1150 1.166 . S
O1149 Zn1134 1.905 . S
O1149 C1150 1.182 . S
C1150 O1148 1.166 . S
C1150 O1149 1.182 . S
O1151 Zn1136 2.080 . S
O1151 C1154 1.305 . S
O1152 Zn1135 1.920 . S
O1152 C1154 1.234 . S
C1153 O1139 1.305 . S
C1153 O1140 1.234 . S
C1154 O1151 1.305 . S
C1154 O1152 1.234 . S
Zn1155 O1161 1.920 1_545 S
Zn1155 O1167 1.898 1_545 S
Zn1155 O1170 1.905 . S
Zn1156 O1164 1.905 . S
Zn1156 O1165 1.898 . S
Zn1156 O1173 1.920 . S
Zn1157 O1160 2.080 . S
Zn1157 O1163 2.114 . S
Zn1157 O1166 2.120 . S
Zn1157 O1168 2.120 . S
Zn1157 O1169 2.114 1_565 S
Zn1157 O1172 2.080 . S
C1158 O1163 1.166 . S
C1158 O1164 1.182 . S
C1159 O1165 1.167 . S
C1159 O1166 1.299 . S
O1160 Zn1157 2.080 . S
O1160 C1174 1.305 . S
O1161 Zn1155 1.920 1_565 S
O1161 C1174 1.234 . S
C1162 O1167 1.167 . S
C1162 O1168 1.299 . S
O1163 Zn1157 2.114 . S
O1163 C1158 1.166 . S
O1164 Zn1156 1.905 . S
O1164 C1158 1.182 . S
O1165 Zn1156 1.898 . S
O1165 C1159 1.167 . S
O1166 Zn1157 2.120 . S
O1166 C1159 1.299 . S
O1167 Zn1155 1.898 1_565 S
O1167 C1162 1.167 . S
O1168 Zn1157 2.120 . S
O1168 C1162 1.299 . S
O1169 Zn1157 2.114 1_545 S
O1169 C1171 1.166 . S
O1170 Zn1155 1.905 . S
O1170 C1171 1.182 . S
C1171 O1169 1.166 . S
C1171 O1170 1.182 . S
O1172 Zn1157 2.080 . S
O1172 C1175 1.305 . S
O1173 Zn1156 1.920 . S
O1173 C1175 1.234 . S
C1174 O1160 1.305 . S
C1174 O1161 1.234 . S
C1175 O1172 1.305 . S
C1175 O1173 1.234 . S
Zn1176 O1182 1.920 . S
Zn1176 O1188 1.898 . S
Zn1176 O1191 1.905 . S
Zn1177 O1185 1.905 . S
Zn1177 O1186 1.898 . S
Zn1177 O1194 1.920 . S
Zn1178 O1181 2.080 . S
Zn1178 O1184 2.114 . S
Zn1178 O1187 2.120 . S
Zn1178 O1189 2.120 . S
Zn1178 O1190 2.114 . S
Zn1178 O1193 2.080 . S
C1179 O1184 1.166 . S
C1179 O1185 1.182 . S
C1180 O1186 1.167 . S
C1180 O1187 1.299 . S
O1181 Zn1178 2.080 . S
O1181 C1195 1.305 . S
O1182 Zn1176 1.920 . S
O1182 C1195 1.234 . S
C1183 O1188 1.167 . S
C1183 O1189 1.299 . S
O1184 Zn1178 2.114 . S
O1184 C1179 1.166 . S
O1185 Zn1177 1.905 . S
O1185 C1179 1.182 . S
O1186 Zn1177 1.898 . S
O1186 C1180 1.167 . S
O1187 Zn1178 2.120 . S
O1187 C1180 1.299 . S
O1188 Zn1176 1.898 . S
O1188 C1183 1.167 . S
O1189 Zn1178 2.120 . S
O1189 C1183 1.299 . S
O1190 Zn1178 2.114 . S
O1190 C1192 1.166 . S
O1191 Zn1176 1.905 . S
O1191 C1192 1.182 . S
C1192 O1190 1.166 . S
C1192 O1191 1.182 . S
O1193 Zn1178 2.080 . S
O1193 C1196 1.305 . S
O1194 Zn1177 1.920 . S
O1194 C1196 1.234 . S
C1195 O1181 1.305 . S
C1195 O1182 1.234 . S
C1196 O1193 1.305 . S
C1196 O1194 1.234 . S
Zn1197 O1203 1.920 . S
Zn1197 O1209 1.898 . S
Zn1197 O1212 1.905 . S
Zn1198 O1206 1.905 . S
Zn1198 O1207 1.898 . S
Zn1198 O1215 1.920 . S
Zn1199 O1202 2.080 . S
Zn1199 O1205 2.114 . S
Zn1199 O1208 2.120 1_554 S
Zn1199 O1210 2.120 . S
Zn1199 O1211 2.114 . S
Zn1199 O1214 2.080 . S
C1200 O1205 1.166 1_556 S
C1200 O1206 1.182 . S
C1201 O1207 1.167 . S
C1201 O1208 1.299 . S
O1202 Zn1199 2.080 . S
O1202 C1216 1.305 . S
O1203 Zn1197 1.920 . S
O1203 C1216 1.234 . S
C1204 O1209 1.167 . S
C1204 O1210 1.299 . S
O1205 Zn1199 2.114 . S
O1205 C1200 1.166 1_554 S
O1206 Zn1198 1.905 . S
O1206 C1200 1.182 . S
O1207 Zn1198 1.898 . S
O1207 C1201 1.167 . S
O1208 Zn1199 2.120 1_556 S
O1208 C1201 1.299 . S
O1209 Zn1197 1.898 . S
O1209 C1204 1.167 . S
O1210 Zn1199 2.120 . S
O1210 C1204 1.299 . S
O1211 Zn1199 2.114 . S
O1211 C1213 1.166 . S
O1212 Zn1197 1.905 . S
O1212 C1213 1.182 . S
C1213 O1211 1.166 . S
C1213 O1212 1.182 . S
O1214 Zn1199 2.080 . S
O1214 C1217 1.305 . S
O1215 Zn1198 1.920 . S
O1215 C1217 1.234 1_556 S
C1216 O1202 1.305 . S
C1216 O1203 1.234 . S
C1217 O1214 1.305 . S
C1217 O1215 1.234 1_554 S
Zn1218 O1224 1.920 . S
Zn1218 O1230 1.898 . S
Zn1218 O1233 1.905 . S
Zn1219 O1227 1.905 . S
Zn1219 O1228 1.898 . S
Zn1219 O1236 1.920 . S
Zn1220 O1223 2.080 . S
Zn1220 O1226 2.114 . S
Zn1220 O1229 2.120 . S
Zn1220 O1231 2.120 . S
Zn1220 O1232 2.114 . S
Zn1220 O1235 2.080 . S
C1221 O1226 1.166 . S
C1221 O1227 1.182 . S
C1222 O1228 1.167 . S
C1222 O1229 1.299 . S
O1223 Zn1220 2.080 . S
O1223 C1237 1.305 . S
O1224 Zn1218 1.920 . S
O1224 C1237 1.234 . S
C1225 O1230 1.167 . S
C1225 O1231 1.299 . S
O1226 Zn1220 2.114 . S
O1226 C1221 1.166 . S
O1227 Zn1219 1.905 . S
O1227 C1221 1.182 . S
O1228 Zn1219 1.898 . S
O1228 C1222 1.167 . S
O1229 Zn1220 2.120 . S
O1229 C1222 1.299 . S
O1230 Zn1218 1.898 . S
O1230 C1225 1.167 . S
O1231 Zn1220 2.120 . S
O1231 C1225 1.299 . S
O1232 Zn1220 2.114 . S
O1232 C1234 1.166 . S
O1233 Zn1218 1.905 . S
O1233 C1234 1.182 . S
C1234 O1232 1.166 . S
C1234 O1233 1.182 . S
O1235 Zn1220 2.080 . S
O1235 C1238 1.305 . S
O1236 Zn1219 1.920 . S
O1236 C1238 1.234 . S
C1237 O1223 1.305 . S
C1237 O1224 1.234 . S
C1238 O1235 1.305 . S
C1238 O1236 1.234 . S
Zn1239 O1245 1.920 . S
Zn1239 O1251 1.898 . S
Zn1239 O1254 1.905 . S
Zn1240 O1248 1.905 . S
Zn1240 O1249 1.898 . S
Zn1240 O1257 1.920 . S
Zn1241 O1244 2.080 . S
Zn1241 O1247 2.114 . S
Zn1241 O1250 2.120 . S
Zn1241 O1252 2.120 . S
Zn1241 O1253 2.114 . S
Zn1241 O1256 2.080 . S
C1242 O1247 1.166 . S
C1242 O1248 1.182 . S
C1243 O1249 1.167 . S
C1243 O1250 1.299 . S
O1244 Zn1241 2.080 . S
O1244 C1258 1.305 . S
O1245 Zn1239 1.920 . S
O1245 C1258 1.234 . S
C1246 O1251 1.167 . S
C1246 O1252 1.299 . S
O1247 Zn1241 2.114 . S
O1247 C1242 1.166 . S
O1248 Zn1240 1.905 . S
O1248 C1242 1.182 . S
O1249 Zn1240 1.898 . S
O1249 C1243 1.167 . S
O1250 Zn1241 2.120 . S
O1250 C1243 1.299 . S
O1251 Zn1239 1.898 . S
O1251 C1246 1.167 . S
O1252 Zn1241 2.120 . S
O1252 C1246 1.299 . S
O1253 Zn1241 2.114 . S
O1253 C1255 1.166 . S
O1254 Zn1239 1.905 . S
O1254 C1255 1.182 . S
C1255 O1253 1.166 . S
C1255 O1254 1.182 . S
O1256 Zn1241 2.080 . S
O1256 C1259 1.305 . S
O1257 Zn1240 1.920 . S
O1257 C1259 1.234 . S
C1258 O1244 1.305 . S
C1258 O1245 1.234 . S
C1259 O1256 1.305 . S
C1259 O1257 1.234 . S
Zn1260 O1266 1.920 . S
Zn1260 O1272 1.898 . S
Zn1260 O1275 1.905 . S
Zn1261 O1269 1.905 . S
Zn1261 O1270 1.898 . S
Zn1261 O1278 1.920 . S
Zn1262 O1265 2.080 . S
Zn1262 O1268 2.114 . S
Zn1262 O1271 2.120 . S
Zn1262 O1273 2.120 . S
Zn1262 O1274 2.114 . S
Zn1262 O1277 2.080 . S
C1263 O1268 1.166 . S
C1263 O1269 1.182 . S
C1264 O1270 1.167 . S
C1264 O1271 1.299 . S
O1265 Zn1262 2.080 . S
O1265 C1279 1.305 . S
O1266 Zn1260 1.920 . S
O1266 C1279 1.234 . S
C1267 O1272 1.167 . S
C1267 O1273 1.299 . S
O1268 Zn1262 2.114 . S
O1268 C1263 1.166 . S
O1269 Zn1261 1.905 . S
O1269 C1263 1.182 . S
O1270 Zn1261 1.898 . S
O1270 C1264 1.167 . S
O1271 Zn1262 2.120 . S
O1271 C1264 1.299 . S
O1272 Zn1260 1.898 . S
O1272 C1267 1.167 . S
O1273 Zn1262 2.120 . S
O1273 C1267 1.299 . S
O1274 Zn1262 2.114 . S
O1274 C1276 1.166 . S
O1275 Zn1260 1.905 . S
O1275 C1276 1.182 . S
C1276 O1274 1.166 . S
C1276 O1275 1.182 . S
O1277 Zn1262 2.080 . S
O1277 C1280 1.305 . S
O1278 Zn1261 1.920 . S
O1278 C1280 1.234 . S
C1279 O1265 1.305 . S
C1279 O1266 1.234 . S
C1280 O1277 1.305 . S
C1280 O1278 1.234 . S
Zn1281 O1287 1.920 . S
Zn1281 O1293 1.898 . S
Zn1281 O1296 1.905 . S
Zn1282 O1290 1.905 . S
Zn1282 O1291 1.898 . S
Zn1282 O1299 1.920 . S
Zn1283 O1286 2.080 . S
Zn1283 O1289 2.114 . S
Zn1283 O1292 2.120 . S
Zn1283 O1294 2.120 . S
Zn1283 O1295 2.114 . S
Zn1283 O1298 2.080 . S
C1284 O1289 1.166 . S
C1284 O1290 1.182 . S
C1285 O1291 1.167 . S
C1285 O1292 1.299 . S
O1286 Zn1283 2.080 . S
O1286 C1300 1.305 . S
O1287 Zn1281 1.920 . S
O1287 C1300 1.234 . S
C1288 O1293 1.167 . S
C1288 O1294 1.299 . S
O1289 Zn1283 2.114 . S
O1289 C1284 1.166 . S
O1290 Zn1282 1.905 . S
O1290 C1284 1.182 . S
O1291 Zn1282 1.898 . S
O1291 C1285 1.167 . S
O1292 Zn1283 2.120 . S
O1292 C1285 1.299 . S
O1293 Zn1281 1.898 . S
O1293 C1288 1.167 . S
O1294 Zn1283 2.120 . S
O1294 C1288 1.299 . S
O1295 Zn1283 2.114 . S
O1295 C1297 1.166 . S
O1296 Zn1281 1.905 . S
O1296 C1297 1.182 . S
C1297 O1295 1.166 . S
C1297 O1296 1.182 . S
O1298 Zn1283 2.080 . S
O1298 C1301 1.305 . S
O1299 Zn1282 1.920 . S
O1299 C1301 1.234 . S
C1300 O1286 1.305 . S
C1300 O1287 1.234 . S
C1301 O1298 1.305 . S
C1301 O1299 1.234 . S
Zn1302 O1308 1.920 . S
Zn1302 O1314 1.898 . S
Zn1302 O1317 1.905 . S
Zn1303 O1311 1.905 . S
Zn1303 O1312 1.898 1_565 S
Zn1303 O1320 1.920 1_565 S
Zn1304 O1307 2.080 . S
Zn1304 O1310 2.114 1_545 S
Zn1304 O1313 2.120 . S
Zn1304 O1315 2.120 1_556 S
Zn1304 O1316 2.114 . S
Zn1304 O1319 2.080 . S
C1305 O1310 1.166 . S
C1305 O1311 1.182 . S
C1306 O1312 1.167 . S
C1306 O1313 1.299 . S
O1307 Zn1304 2.080 . S
O1307 C1321 1.305 . S
O1308 Zn1302 1.920 . S
O1308 C1321 1.234 1_554 S
C1309 O1314 1.167 . S
C1309 O1315 1.299 . S
O1310 Zn1304 2.114 1_565 S
O1310 C1305 1.166 . S
O1311 Zn1303 1.905 . S
O1311 C1305 1.182 . S
O1312 Zn1303 1.898 1_545 S
O1312 C1306 1.167 . S
O1313 Zn1304 2.120 . S
O1313 C1306 1.299 . S
O1314 Zn1302 1.898 . S
O1314 C1309 1.167 . S
O1315 Zn1304 2.120 1_554 S
O1315 C1309 1.299 . S
O1316 Zn1304 2.114 . S
O1316 C1318 1.166 1_556 S
O1317 Zn1302 1.905 . S
O1317 C1318 1.182 . S
C1318 O1316 1.166 1_554 S
C1318 O1317 1.182 . S
O1319 Zn1304 2.080 . S
O1319 C1322 1.305 . S
O1320 Zn1303 1.920 1_545 S
O1320 C1322 1.234 . S
C1321 O1307 1.305 . S
C1321 O1308 1.234 1_556 S
C1322 O1319 1.305 . S
C1322 O1320 1.234 . S
Zn1323 O1329 1.920 1_455 S
Zn1323 O1335 1.898 1_455 S
Zn1323 O1338 1.905 . S
Zn1324 O1332 1.905 . S
Zn1324 O1333 1.898 . S
Zn1324 O1341 1.920 . S
Zn1325 O1328 2.080 . S
Zn1325 O1331 2.114 . S
Zn1325 O1334 2.120 . S
Zn1325 O1336 2.120 . S
Zn1325 O1337 2.114 1_655 S
Zn1325 O1340 2.080 . S
C1326 O1331 1.166 . S
C1326 O1332 1.182 . S
C1327 O1333 1.167 . S
C1327 O1334 1.299 . S
O1328 Zn1325 2.080 . S
O1328 C1342 1.305 . S
O1329 Zn1323 1.920 1_655 S
O1329 C1342 1.234 . S
C1330 O1335 1.167 . S
C1330 O1336 1.299 . S
O1331 Zn1325 2.114 . S
O1331 C1326 1.166 . S
O1332 Zn1324 1.905 . S
O1332 C1326 1.182 . S
O1333 Zn1324 1.898 . S
O1333 C1327 1.167 . S
O1334 Zn1325 2.120 . S
O1334 C1327 1.299 . S
O1335 Zn1323 1.898 1_655 S
O1335 C1330 1.167 . S
O1336 Zn1325 2.120 . S
O1336 C1330 1.299 . S
O1337 Zn1325 2.114 1_455 S
O1337 C1339 1.166 . S
O1338 Zn1323 1.905 . S
O1338 C1339 1.182 . S
C1339 O1337 1.166 . S
C1339 O1338 1.182 . S
O1340 Zn1325 2.080 . S
O1340 C1343 1.305 . S
O1341 Zn1324 1.920 . S
O1341 C1343 1.234 . S
C1342 O1328 1.305 . S
C1342 O1329 1.234 . S
C1343 O1340 1.305 . S
C1343 O1341 1.234 . S
Zn1344 O1350 1.920 . S
Zn1344 O1356 1.898 . S
Zn1344 O1359 1.905 . S
Zn1345 O1353 1.905 . S
Zn1345 O1354 1.898 . S
Zn1345 O1362 1.920 . S
Zn1346 O1349 2.080 . S
Zn1346 O1352 2.114 . S
Zn1346 O1355 2.120 . S
Zn1346 O1357 2.120 . S
Zn1346 O1358 2.114 . S
Zn1346 O1361 2.080 . S
C1347 O1352 1.166 . S
C1347 O1353 1.182 . S
C1348 O1354 1.167 . S
C1348 O1355 1.299 . S
O1349 Zn1346 2.080 . S
O1349 C1363 1.305 . S
O1350 Zn1344 1.920 . S
O1350 C1363 1.234 . S
C1351 O1356 1.167 . S
C1351 O1357 1.299 . S
O1352 Zn1346 2.114 . S
O1352 C1347 1.166 . S
O1353 Zn1345 1.905 . S
O1353 C1347 1.182 . S
O1354 Zn1345 1.898 . S
O1354 C1348 1.167 . S
O1355 Zn1346 2.120 . S
O1355 C1348 1.299 . S
O1356 Zn1344 1.898 . S
O1356 C1351 1.167 . S
O1357 Zn1346 2.120 . S
O1357 C1351 1.299 . S
O1358 Zn1346 2.114 . S
O1358 C1360 1.166 . S
O1359 Zn1344 1.905 . S
O1359 C1360 1.182 . S
C1360 O1358 1.166 . S
C1360 O1359 1.182 . S
O1361 Zn1346 2.080 . S
O1361 C1364 1.305 . S
O1362 Zn1345 1.920 . S
O1362 C1364 1.234 . S
C1363 O1349 1.305 . S
C1363 O1350 1.234 . S
C1364 O1361 1.305 . S
C1364 O1362 1.234 . S
Zn1365 O1371 1.920 . S
Zn1365 O1377 1.898 . S
Zn1365 O1380 1.905 . S
Zn1366 O1374 1.905 . S
Zn1366 O1375 1.898 . S
Zn1366 O1383 1.920 . S
Zn1367 O1370 2.080 . S
Zn1367 O1373 2.114 . S
Zn1367 O1376 2.120 . S
Zn1367 O1378 2.120 . S
Zn1367 O1379 2.114 . S
Zn1367 O1382 2.080 . S
C1368 O1373 1.166 . S
C1368 O1374 1.182 . S
C1369 O1375 1.167 . S
C1369 O1376 1.299 . S
O1370 Zn1367 2.080 . S
O1370 C1384 1.305 . S
O1371 Zn1365 1.920 . S
O1371 C1384 1.234 . S
C1372 O1377 1.167 . S
C1372 O1378 1.299 . S
O1373 Zn1367 2.114 . S
O1373 C1368 1.166 . S
O1374 Zn1366 1.905 . S
O1374 C1368 1.182 . S
O1375 Zn1366 1.898 . S
O1375 C1369 1.167 . S
O1376 Zn1367 2.120 . S
O1376 C1369 1.299 . S
O1377 Zn1365 1.898 . S
O1377 C1372 1.167 . S
O1378 Zn1367 2.120 . S
O1378 C1372 1.299 . S
O1379 Zn1367 2.114 . S
O1379 C1381 1.166 . S
O1380 Zn1365 1.905 . S
O1380 C1381 1.182 . S
C1381 O1379 1.166 . S
C1381 O1380 1.182 . S
O1382 Zn1367 2.080 . S
O1382 C1385 1.305 . S
O1383 Zn1366 1.920 . S
O1383 C1385 1.234 . S
C1384 O1370 1.305 . S
C1384 O1371 1.234 . S
C1385 O1382 1.305 . S
C1385 O1383 1.234 . S
Zn1386 O1392 1.920 . S
Zn1386 O1398 1.898 . S
Zn1386 O1401 1.905 . S
Zn1387 O1395 1.905 . S
Zn1387 O1396 1.898 . S
Zn1387 O1404 1.920 . S
Zn1388 O1391 2.080 . S
Zn1388 O1394 2.114 . S
Zn1388 O1397 2.120 . S
Zn1388 O1399 2.120 . S
Zn1388 O1400 2.114 . S
Zn1388 O1403 2.080 . S
C1389 O1394 1.166 . S
C1389 O1395 1.182 . S
C1390 O1396 1.167 . S
C1390 O1397 1.299 . S
O1391 Zn1388 2.080 . S
O1391 C1405 1.305 . S
O1392 Zn1386 1.920 . S
O1392 C1405 1.234 . S
C1393 O1398 1.167 . S
C1393 O1399 1.299 . S
O1394 Zn1388 2.114 . S
O1394 C1389 1.166 . S
O1395 Zn1387 1.905 . S
O1395 C1389 1.182 . S
O1396 Zn1387 1.898 . S
O1396 C1390 1.167 . S
O1397 Zn1388 2.120 . S
O1397 C1390 1.299 . S
O1398 Zn1386 1.898 . S
O1398 C1393 1.167 . S
O1399 Zn1388 2.120 . S
O1399 C1393 1.299 . S
O1400 Zn1388 2.114 . S
O1400 C1402 1.166 . S
O1401 Zn1386 1.905 . S
O1401 C1402 1.182 . S
C1402 O1400 1.166 . S
C1402 O1401 1.182 . S
O1403 Zn1388 2.080 . S
O1403 C1406 1.305 . S
O1404 Zn1387 1.920 . S
O1404 C1406 1.234 . S
C1405 O1391 1.305 . S
C1405 O1392 1.234 . S
C1406 O1403 1.305 . S
C1406 O1404 1.234 . S
Zn1407 O1413 1.920 . S
Zn1407 O1419 1.898 . S
Zn1407 O1422 1.905 . S
Zn1408 O1416 1.905 . S
Zn1408 O1417 1.898 . S
Zn1408 O1425 1.920 . S
Zn1409 O1412 2.080 . S
Zn1409 O1415 2.114 . S
Zn1409 O1418 2.120 . S
Zn1409 O1420 2.120 . S
Zn1409 O1421 2.114 . S
Zn1409 O1424 2.080 . S
C1410 O1415 1.166 . S
C1410 O1416 1.182 . S
C1411 O1417 1.167 . S
C1411 O1418 1.299 . S
O1412 Zn1409 2.080 . S
O1412 C1426 1.305 . S
O1413 Zn1407 1.920 . S
O1413 C1426 1.234 . S
C1414 O1419 1.167 . S
C1414 O1420 1.299 . S
O1415 Zn1409 2.114 . S
O1415 C1410 1.166 . S
O1416 Zn1408 1.905 . S
O1416 C1410 1.182 . S
O1417 Zn1408 1.898 . S
O1417 C1411 1.167 . S
O1418 Zn1409 2.120 . S
O1418 C1411 1.299 . S
O1419 Zn1407 1.898 . S
O1419 C1414 1.167 . S
O1420 Zn1409 2.120 . S
O1420 C1414 1.299 . S
O1421 Zn1409 2.114 . S
O1421 C1423 1.166 . S
O1422 Zn1407 1.905 . S
O1422 C1423 1.182 . S
C1423 O1421 1.166 . S
C1423 O1422 1.182 . S
O1424 Zn1409 2.080 . S
O1424 C1427 1.305 . S
O1425 Zn1408 1.920 . S
O1425 C1427 1.234 . S
C1426 O1412 1.305 . S
C1426 O1413 1.234 . S
C1427 O1424 1.305 . S
C1427 O1425 1.234 . S
Zn1428 O1434 1.920 . S
Zn1428 O1440 1.898 . S
Zn1428 O1443 1.905 . S
Zn1429 O1437 1.905 . S
Zn1429 O1438 1.898 1_554 S
Zn1429 O1446 1.920 1_554 S
Zn1430 O1433 2.080 . S
Zn1430 O1436 2.114 1_556 S
Zn1430 O1439 2.120 . S
Zn1430 O1441 2.120 . S
Zn1430 O1442 2.114 . S
Zn1430 O1445 2.080 . S
C1431 O1436 1.166 . S
C1431 O1437 1.182 . S
C1432 O1438 1.167 . S
C1432 O1439 1.299 . S
O1433 Zn1430 2.080 . S
O1433 C1447 1.305 . S
O1434 Zn1428 1.920 . S
O1434 C1447 1.234 . S
C1435 O1440 1.167 . S
C1435 O1441 1.299 . S
O1436 Zn1430 2.114 1_554 S
O1436 C1431 1.166 . S
O1437 Zn1429 1.905 . S
O1437 C1431 1.182 . S
O1438 Zn1429 1.898 1_556 S
O1438 C1432 1.167 . S
O1439 Zn1430 2.120 . S
O1439 C1432 1.299 . S
O1440 Zn1428 1.898 . S
O1440 C1435 1.167 . S
O1441 Zn1430 2.120 . S
O1441 C1435 1.299 . S
O1442 Zn1430 2.114 . S
O1442 C1444 1.166 . S
O1443 Zn1428 1.905 . S
O1443 C1444 1.182 . S
C1444 O1442 1.166 . S
C1444 O1443 1.182 . S
O1445 Zn1430 2.080 . S
O1445 C1448 1.305 . S
O1446 Zn1429 1.920 1_556 S
O1446 C1448 1.234 . S
C1447 O1433 1.305 . S
C1447 O1434 1.234 . S
C1448 O1445 1.305 . S
C1448 O1446 1.234 . S
Zn1449 O1455 1.920 . S
Zn1449 O1461 1.898 . S
Zn1449 O1464 1.905 . S
Zn1450 O1458 1.905 . S
Zn1450 O1459 1.898 . S
Zn1450 O1467 1.920 . S
Zn1451 O1454 2.080 . S
Zn1451 O1457 2.114 . S
Zn1451 O1460 2.120 . S
Zn1451 O1462 2.120 1_655 S
Zn1451 O1463 2.114 . S
Zn1451 O1466 2.080 . S
C1452 O1457 1.166 . S
C1452 O1458 1.182 . S
C1453 O1459 1.167 . S
C1453 O1460 1.299 . S
O1454 Zn1451 2.080 . S
O1454 C1468 1.305 . S
O1455 Zn1449 1.920 . S
O1455 C1468 1.234 1_455 S
C1456 O1461 1.167 . S
C1456 O1462 1.299 . S
O1457 Zn1451 2.114 . S
O1457 C1452 1.166 . S
O1458 Zn1450 1.905 . S
O1458 C1452 1.182 . S
O1459 Zn1450 1.898 . S
O1459 C1453 1.167 . S
O1460 Zn1451 2.120 . S
O1460 C1453 1.299 . S
O1461 Zn1449 1.898 . S
O1461 C1456 1.167 . S
O1462 Zn1451 2.120 1_455 S
O1462 C1456 1.299 . S
O1463 Zn1451 2.114 . S
O1463 C1465 1.166 1_655 S
O1464 Zn1449 1.905 . S
O1464 C1465 1.182 . S
C1465 O1463 1.166 1_455 S
C1465 O1464 1.182 . S
O1466 Zn1451 2.080 . S
O1466 C1469 1.305 . S
O1467 Zn1450 1.920 . S
O1467 C1469 1.234 . S
C1468 O1454 1.305 . S
C1468 O1455 1.234 1_655 S
C1469 O1466 1.305 . S
C1469 O1467 1.234 . S
Zn1470 O1476 1.920 . S
Zn1470 O1482 1.898 . S
Zn1470 O1485 1.905 . S
Zn1471 O1479 1.905 . S
Zn1471 O1480 1.898 . S
Zn1471 O1488 1.920 . S
Zn1472 O1475 2.080 . S
Zn1472 O1478 2.114 . S
Zn1472 O1481 2.120 . S
Zn1472 O1483 2.120 . S
Zn1472 O1484 2.114 . S
Zn1472 O1487 2.080 . S
C1473 O1478 1.166 . S
C1473 O1479 1.182 . S
C1474 O1480 1.167 . S
C1474 O1481 1.299 . S
O1475 Zn1472 2.080 . S
O1475 C1489 1.305 . S
O1476 Zn1470 1.920 . S
O1476 C1489 1.234 . S
C1477 O1482 1.167 . S
C1477 O1483 1.299 . S
O1478 Zn1472 2.114 . S
O1478 C1473 1.166 . S
O1479 Zn1471 1.905 . S
O1479 C1473 1.182 . S
O1480 Zn1471 1.898 . S
O1480 C1474 1.167 . S
O1481 Zn1472 2.120 . S
O1481 C1474 1.299 . S
O1482 Zn1470 1.898 . S
O1482 C1477 1.167 . S
O1483 Zn1472 2.120 . S
O1483 C1477 1.299 . S
O1484 Zn1472 2.114 . S
O1484 C1486 1.166 . S
O1485 Zn1470 1.905 . S
O1485 C1486 1.182 . S
C1486 O1484 1.166 . S
C1486 O1485 1.182 . S
O1487 Zn1472 2.080 . S
O1487 C1490 1.305 . S
O1488 Zn1471 1.920 . S
O1488 C1490 1.234 . S
C1489 O1475 1.305 . S
C1489 O1476 1.234 . S
C1490 O1487 1.305 . S
C1490 O1488 1.234 . S
Zn1491 O1497 1.920 . S
Zn1491 O1503 1.898 . S
Zn1491 O1506 1.905 . S
Zn1492 O1500 1.905 . S
Zn1492 O1501 1.898 . S
Zn1492 O1509 1.920 . S
Zn1493 O1496 2.080 . S
Zn1493 O1499 2.114 . S
Zn1493 O1502 2.120 . S
Zn1493 O1504 2.120 . S
Zn1493 O1505 2.114 . S
Zn1493 O1508 2.080 . S
C1494 O1499 1.166 . S
C1494 O1500 1.182 . S
C1495 O1501 1.167 . S
C1495 O1502 1.299 . S
O1496 Zn1493 2.080 . S
O1496 C1510 1.305 . S
O1497 Zn1491 1.920 . S
O1497 C1510 1.234 . S
C1498 O1503 1.167 . S
C1498 O1504 1.299 . S
O1499 Zn1493 2.114 . S
O1499 C1494 1.166 . S
O1500 Zn1492 1.905 . S
O1500 C1494 1.182 . S
O1501 Zn1492 1.898 . S
O1501 C1495 1.167 . S
O1502 Zn1493 2.120 . S
O1502 C1495 1.299 . S
O1503 Zn1491 1.898 . S
O1503 C1498 1.167 . S
O1504 Zn1493 2.120 . S
O1504 C1498 1.299 . S
O1505 Zn1493 2.114 . S
O1505 C1507 1.166 . S
O1506 Zn1491 1.905 . S
O1506 C1507 1.182 . S
C1507 O1505 1.166 . S
C1507 O1506 1.182 . S
O1508 Zn1493 2.080 . S
O1508 C1511 1.305 . S
O1509 Zn1492 1.920 . S
O1509 C1511 1.234 . S
C1510 O1496 1.305 . S
C1510 O1497 1.234 . S
C1511 O1508 1.305 . S
C1511 O1509 1.234 . S
Zn1512 O1518 1.920 . S
Zn1512 O1524 1.898 . S
Zn1512 O1527 1.905 . S
Zn1513 O1521 1.905 . S
Zn1513 O1522 1.898 1_455 S
Zn1513 O1530 1.920 1_455 S
Zn1514 O1517 2.080 . S
Zn1514 O1520 2.114 1_655 S
Zn1514 O1523 2.120 . S
Zn1514 O1525 2.120 . S
Zn1514 O1526 2.114 . S
Zn1514 O1529 2.080 . S
C1515 O1520 1.166 . S
C1515 O1521 1.182 . S
C1516 O1522 1.167 . S
C1516 O1523 1.299 . S
O1517 Zn1514 2.080 . S
O1517 C1531 1.305 . S
O1518 Zn1512 1.920 . S
O1518 C1531 1.234 . S
C1519 O1524 1.167 . S
C1519 O1525 1.299 . S
O1520 Zn1514 2.114 1_455 S
O1520 C1515 1.166 . S
O1521 Zn1513 1.905 . S
O1521 C1515 1.182 . S
O1522 Zn1513 1.898 1_655 S
O1522 C1516 1.167 . S
O1523 Zn1514 2.120 . S
O1523 C1516 1.299 . S
O1524 Zn1512 1.898 . S
O1524 C1519 1.167 . S
O1525 Zn1514 2.120 . S
O1525 C1519 1.299 . S
O1526 Zn1514 2.114 . S
O1526 C1528 1.166 . S
O1527 Zn1512 1.905 . S
O1527 C1528 1.182 . S
C1528 O1526 1.166 . S
C1528 O1527 1.182 . S
O1529 Zn1514 2.080 . S
O1529 C1532 1.305 . S
O1530 Zn1513 1.920 1_655 S
O1530 C1532 1.234 . S
C1531 O1517 1.305 . S
C1531 O1518 1.234 . S
C1532 O1529 1.305 . S
C1532 O1530 1.234 . S
Zn1533 O1539 1.920 . S
Zn1533 O1545 1.898 . S
Zn1533 O1548 1.905 . S
Zn1534 O1542 1.905 . S
Zn1534 O1543 1.898 . S
Zn1534 O1551 1.920 . S
Zn1535 O1538 2.080 . S
Zn1535 O1541 2.114 . S
Zn1535 O1544 2.120 . S
Zn1535 O1546 2.120 . S
Zn1535 O1547 2.114 . S
Zn1535 O1550 2.080 . S
C1536 O1541 1.166 . S
C1536 O1542 1.182 . S
C1537 O1543 1.167 . S
C1537 O1544 1.299 . S
O1538 Zn1535 2.080 . S
O1538 C1552 1.305 . S
O1539 Zn1533 1.920 . S
O1539 C1552 1.234 . S
C1540 O1545 1.167 . S
C1540 O1546 1.299 . S
O1541 Zn1535 2.114 . S
O1541 C1536 1.166 . S
O1542 Zn1534 1.905 . S
O1542 C1536 1.182 . S
O1543 Zn1534 1.898 . S
O1543 C1537 1.167 . S
O1544 Zn1535 2.120 . S
O1544 C1537 1.299 . S
O1545 Zn1533 1.898 . S
O1545 C1540 1.167 . S
O1546 Zn1535 2.120 . S
O1546 C1540 1.299 . S
O1547 Zn1535 2.114 . S
O1547 C1549 1.166 . S
O1548 Zn1533 1.905 . S
O1548 C1549 1.182 . S
C1549 O1547 1.166 . S
C1549 O1548 1.182 . S
O1550 Zn1535 2.080 . S
O1550 C1553 1.305 . S
O1551 Zn1534 1.920 . S
O1551 C1553 1.234 . S
C1552 O1538 1.305 . S
C1552 O1539 1.234 . S
C1553 O1550 1.305 . S
C1553 O1551 1.234 . S
Zn1554 O1560 1.920 . S
Zn1554 O1566 1.898 . S
Zn1554 O1569 1.905 . S
Zn1555 O1563 1.905 . S
Zn1555 O1564 1.898 . S
Zn1555 O1572 1.920 . S
Zn1556 O1559 2.080 . S
Zn1556 O1562 2.114 . S
Zn1556 O1565 2.120 1_545 S
Zn1556 O1567 2.120 . S
Zn1556 O1568 2.114 . S
Zn1556 O1571 2.080 . S
C1557 O1562 1.166 1_565 S
C1557 O1563 1.182 . S
C1558 O1564 1.167 . S
C1558 O1565 1.299 . S
O1559 Zn1556 2.080 . S
O1559 C1573 1.305 . S
O1560 Zn1554 1.920 . S
O1560 C1573 1.234 . S
C1561 O1566 1.167 . S
C1561 O1567 1.299 . S
O1562 Zn1556 2.114 . S
O1562 C1557 1.166 1_545 S
O1563 Zn1555 1.905 . S
O1563 C1557 1.182 . S
O1564 Zn1555 1.898 . S
O1564 C1558 1.167 . S
O1565 Zn1556 2.120 1_565 S
O1565 C1558 1.299 . S
O1566 Zn1554 1.898 . S
O1566 C1561 1.167 . S
O1567 Zn1556 2.120 . S
O1567 C1561 1.299 . S
O1568 Zn1556 2.114 . S
O1568 C1570 1.166 . S
O1569 Zn1554 1.905 . S
O1569 C1570 1.182 . S
C1570 O1568 1.166 . S
C1570 O1569 1.182 . S
O1571 Zn1556 2.080 . S
O1571 C1574 1.305 . S
O1572 Zn1555 1.920 . S
O1572 C1574 1.234 1_565 S
C1573 O1559 1.305 . S
C1573 O1560 1.234 . S
C1574 O1571 1.305 . S
C1574 O1572 1.234 1_545 S
Zn1575 O1581 1.920 1_565 S
Zn1575 O1587 1.898 1_565 S
Zn1575 O1590 1.905 . S
Zn1576 O1584 1.905 . S
Zn1576 O1585 1.898 . S
Zn1576 O1593 1.920 . S
Zn1577 O1580 2.080 . S
Zn1577 O1583 2.114 . S
Zn1577 O1586 2.120 1_655 S
Zn1577 O1588 2.120 . S
Zn1577 O1589 2.114 1_545 S
Zn1577 O1592 2.080 . S
C1578 O1583 1.166 1_455 S
C1578 O1584 1.182 . S
C1579 O1585 1.167 . S
C1579 O1586 1.299 . S
O1580 Zn1577 2.080 . S
O1580 C1594 1.305 . S
O1581 Zn1575 1.920 1_545 S
O1581 C1594 1.234 . S
C1582 O1587 1.167 . S
C1582 O1588 1.299 . S
O1583 Zn1577 2.114 . S
O1583 C1578 1.166 1_655 S
O1584 Zn1576 1.905 . S
O1584 C1578 1.182 . S
O1585 Zn1576 1.898 . S
O1585 C1579 1.167 . S
O1586 Zn1577 2.120 1_455 S
O1586 C1579 1.299 . S
O1587 Zn1575 1.898 1_545 S
O1587 C1582 1.167 . S
O1588 Zn1577 2.120 . S
O1588 C1582 1.299 . S
O1589 Zn1577 2.114 1_565 S
O1589 C1591 1.166 . S
O1590 Zn1575 1.905 . S
O1590 C1591 1.182 . S
C1591 O1589 1.166 . S
C1591 O1590 1.182 . S
O1592 Zn1577 2.080 . S
O1592 C1595 1.305 . S
O1593 Zn1576 1.920 . S
O1593 C1595 1.234 1_455 S
C1594 O1580 1.305 . S
C1594 O1581 1.234 . S
C1595 O1592 1.305 . S
C1595 O1593 1.234 1_655 S
Zn1596 O1602 1.920 . S
Zn1596 O1608 1.898 . S
Zn1596 O1611 1.905 . S
Zn1597 O1605 1.905 . S
Zn1597 O1606 1.898 1_455 S
Zn1597 O1614 1.920 1_455 S
Zn1598 O1601 2.080 . S
Zn1598 O1604 2.114 1_655 S
Zn1598 O1607 2.120 . S
Zn1598 O1609 2.120 . S
Zn1598 O1610 2.114 . S
Zn1598 O1613 2.080 . S
C1599 O1604 1.166 . S
C1599 O1605 1.182 . S
C1600 O1606 1.167 . S
C1600 O1607 1.299 . S
O1601 Zn1598 2.080 . S
O1601 C1615 1.305 . S
O1602 Zn1596 1.920 . S
O1602 C1615 1.234 . S
C1603 O1608 1.167 . S
C1603 O1609 1.299 . S
O1604 Zn1598 2.114 1_455 S
O1604 C1599 1.166 . S
O1605 Zn1597 1.905 . S
O1605 C1599 1.182 . S
O1606 Zn1597 1.898 1_655 S
O1606 C1600 1.167 . S
O1607 Zn1598 2.120 . S
O1607 C1600 1.299 . S
O1608 Zn1596 1.898 . S
O1608 C1603 1.167 . S
O1609 Zn1598 2.120 . S
O1609 C1603 1.299 . S
O1610 Zn1598 2.114 . S
O1610 C1612 1.166 . S
O1611 Zn1596 1.905 . S
O1611 C1612 1.182 . S
C1612 O1610 1.166 . S
C1612 O1611 1.182 . S
O1613 Zn1598 2.080 . S
O1613 C1616 1.305 . S
O1614 Zn1597 1.920 1_655 S
O1614 C1616 1.234 . S
C1615 O1601 1.305 . S
C1615 O1602 1.234 . S
C1616 O1613 1.305 . S
C1616 O1614 1.234 . S
Zn1617 O1623 1.920 . S
Zn1617 O1629 1.898 . S
Zn1617 O1632 1.905 . S
Zn1618 O1626 1.905 . S
Zn1618 O1627 1.898 . S
Zn1618 O1635 1.920 . S
Zn1619 O1622 2.080 . S
Zn1619 O1625 2.114 . S
Zn1619 O1628 2.120 . S
Zn1619 O1630 2.120 . S
Zn1619 O1631 2.114 . S
Zn1619 O1634 2.080 . S
C1620 O1625 1.166 . S
C1620 O1626 1.182 . S
C1621 O1627 1.167 . S
C1621 O1628 1.299 . S
O1622 Zn1619 2.080 . S
O1622 C1636 1.305 . S
O1623 Zn1617 1.920 . S
O1623 C1636 1.234 . S
C1624 O1629 1.167 . S
C1624 O1630 1.299 . S
O1625 Zn1619 2.114 . S
O1625 C1620 1.166 . S
O1626 Zn1618 1.905 . S
O1626 C1620 1.182 . S
O1627 Zn1618 1.898 . S
O1627 C1621 1.167 . S
O1628 Zn1619 2.120 . S
O1628 C1621 1.299 . S
O1629 Zn1617 1.898 . S
O1629 C1624 1.167 . S
O1630 Zn1619 2.120 . S
O1630 C1624 1.299 . S
O1631 Zn1619 2.114 . S
O1631 C1633 1.166 . S
O1632 Zn1617 1.905 . S
O1632 C1633 1.182 . S
C1633 O1631 1.166 . S
C1633 O1632 1.182 . S
O1634 Zn1619 2.080 . S
O1634 C1637 1.305 . S
O1635 Zn1618 1.920 . S
O1635 C1637 1.234 . S
C1636 O1622 1.305 . S
C1636 O1623 1.234 . S
C1637 O1634 1.305 . S
C1637 O1635 1.234 . S
Zn1638 O1644 1.920 . S
Zn1638 O1650 1.898 . S
Zn1638 O1653 1.905 . S
Zn1639 O1647 1.905 . S
Zn1639 O1648 1.898 . S
Zn1639 O1656 1.920 . S
Zn1640 O1643 2.080 . S
Zn1640 O1646 2.114 . S
Zn1640 O1649 2.120 . S
Zn1640 O1651 2.120 . S
Zn1640 O1652 2.114 . S
Zn1640 O1655 2.080 . S
C1641 O1646 1.166 . S
C1641 O1647 1.182 . S
C1642 O1648 1.167 . S
C1642 O1649 1.299 . S
O1643 Zn1640 2.080 . S
O1643 C1657 1.305 . S
O1644 Zn1638 1.920 . S
O1644 C1657 1.234 . S
C1645 O1650 1.167 . S
C1645 O1651 1.299 . S
O1646 Zn1640 2.114 . S
O1646 C1641 1.166 . S
O1647 Zn1639 1.905 . S
O1647 C1641 1.182 . S
O1648 Zn1639 1.898 . S
O1648 C1642 1.167 . S
O1649 Zn1640 2.120 . S
O1649 C1642 1.299 . S
O1650 Zn1638 1.898 . S
O1650 C1645 1.167 . S
O1651 Zn1640 2.120 . S
O1651 C1645 1.299 . S
O1652 Zn1640 2.114 . S
O1652 C1654 1.166 . S
O1653 Zn1638 1.905 . S
O1653 C1654 1.182 . S
C1654 O1652 1.166 . S
C1654 O1653 1.182 . S
O1655 Zn1640 2.080 . S
O1655 C1658 1.305 . S
O1656 Zn1639 1.920 . S
O1656 C1658 1.234 . S
C1657 O1643 1.305 . S
C1657 O1644 1.234 . S
C1658 O1655 1.305 . S
C1658 O1656 1.234 . S
Zn1659 O1665 1.920 1_565 S
Zn1659 O1671 1.898 1_565 S
Zn1659 O1674 1.905 . S
Zn1660 O1668 1.905 . S
Zn1660 O1669 1.898 . S
Zn1660 O1677 1.920 . S
Zn1661 O1664 2.080 . S
Zn1661 O1667 2.114 . S
Zn1661 O1670 2.120 . S
Zn1661 O1672 2.120 . S
Zn1661 O1673 2.114 1_545 S
Zn1661 O1676 2.080 . S
C1662 O1667 1.166 . S
C1662 O1668 1.182 . S
C1663 O1669 1.167 . S
C1663 O1670 1.299 . S
O1664 Zn1661 2.080 . S
O1664 C1678 1.305 . S
O1665 Zn1659 1.920 1_545 S
O1665 C1678 1.234 . S
C1666 O1671 1.167 . S
C1666 O1672 1.299 . S
O1667 Zn1661 2.114 . S
O1667 C1662 1.166 . S
O1668 Zn1660 1.905 . S
O1668 C1662 1.182 . S
O1669 Zn1660 1.898 . S
O1669 C1663 1.167 . S
O1670 Zn1661 2.120 . S
O1670 C1663 1.299 . S
O1671 Zn1659 1.898 1_545 S
O1671 C1666 1.167 . S
O1672 Zn1661 2.120 . S
O1672 C1666 1.299 . S
O1673 Zn1661 2.114 1_565 S
O1673 C1675 1.166 . S
O1674 Zn1659 1.905 . S
O1674 C1675 1.182 . S
C1675 O1673 1.166 . S
C1675 O1674 1.182 . S
O1676 Zn1661 2.080 . S
O1676 C1679 1.305 . S
O1677 Zn1660 1.920 . S
O1677 C1679 1.234 . S
C1678 O1664 1.305 . S
C1678 O1665 1.234 . S
C1679 O1676 1.305 . S
C1679 O1677 1.234 . S
Zn1680 O1686 1.920 . S
Zn1680 O1692 1.898 . S
Zn1680 O1695 1.905 . S
Zn1681 O1689 1.905 . S
Zn1681 O1690 1.898 . S
Zn1681 O1698 1.920 . S
Zn1682 O1685 2.080 . S
Zn1682 O1688 2.114 . S
Zn1682 O1691 2.120 . S
Zn1682 O1693 2.120 . S
Zn1682 O1694 2.114 . S
Zn1682 O1697 2.080 . S
C1683 O1688 1.166 . S
C1683 O1689 1.182 . S
C1684 O1690 1.167 . S
C1684 O1691 1.299 . S
O1685 Zn1682 2.080 . S
O1685 C1699 1.305 . S
O1686 Zn1680 1.920 . S
O1686 C1699 1.234 . S
C1687 O1692 1.167 . S
C1687 O1693 1.299 . S
O1688 Zn1682 2.114 . S
O1688 C1683 1.166 . S
O1689 Zn1681 1.905 . S
O1689 C1683 1.182 . S
O1690 Zn1681 1.898 . S
O1690 C1684 1.167 . S
O1691 Zn1682 2.120 . S
O1691 C1684 1.299 . S
O1692 Zn1680 1.898 . S
O1692 C1687 1.167 . S
O1693 Zn1682 2.120 . S
O1693 C1687 1.299 . S
O1694 Zn1682 2.114 . S
O1694 C1696 1.166 . S
O1695 Zn1680 1.905 . S
O1695 C1696 1.182 . S
C1696 O1694 1.166 . S
C1696 O1695 1.182 . S
O1697 Zn1682 2.080 . S
O1697 C1700 1.305 . S
O1698 Zn1681 1.920 . S
O1698 C1700 1.234 . S
C1699 O1685 1.305 . S
C1699 O1686 1.234 . S
C1700 O1697 1.305 . S
C1700 O1698 1.234 . S
Zn1701 O1707 1.920 . S
Zn1701 O1713 1.898 . S
Zn1701 O1716 1.905 . S
Zn1702 O1710 1.905 . S
Zn1702 O1711 1.898 . S
Zn1702 O1719 1.920 . S
Zn1703 O1706 2.080 . S
Zn1703 O1709 2.114 . S
Zn1703 O1712 2.120 . S
Zn1703 O1714 2.120 1_556 S
Zn1703 O1715 2.114 . S
Zn1703 O1718 2.080 . S
C1704 O1709 1.166 . S
C1704 O1710 1.182 . S
C1705 O1711 1.167 . S
C1705 O1712 1.299 . S
O1706 Zn1703 2.080 . S
O1706 C1720 1.305 . S
O1707 Zn1701 1.920 . S
O1707 C1720 1.234 1_554 S
C1708 O1713 1.167 . S
C1708 O1714 1.299 . S
O1709 Zn1703 2.114 . S
O1709 C1704 1.166 . S
O1710 Zn1702 1.905 . S
O1710 C1704 1.182 . S
O1711 Zn1702 1.898 . S
O1711 C1705 1.167 . S
O1712 Zn1703 2.120 . S
O1712 C1705 1.299 . S
O1713 Zn1701 1.898 . S
O1713 C1708 1.167 . S
O1714 Zn1703 2.120 1_554 S
O1714 C1708 1.299 . S
O1715 Zn1703 2.114 . S
O1715 C1717 1.166 1_556 S
O1716 Zn1701 1.905 . S
O1716 C1717 1.182 . S
C1717 O1715 1.166 1_554 S
C1717 O1716 1.182 . S
O1718 Zn1703 2.080 . S
O1718 C1721 1.305 . S
O1719 Zn1702 1.920 . S
O1719 C1721 1.234 . S
C1720 O1706 1.305 . S
C1720 O1707 1.234 1_556 S
C1721 O1718 1.305 . S
C1721 O1719 1.234 . S
Zn1722 O1728 1.920 . S
Zn1722 O1734 1.898 . S
Zn1722 O1737 1.905 . S
Zn1723 O1731 1.905 . S
Zn1723 O1732 1.898 . S
Zn1723 O1740 1.920 . S
Zn1724 O1727 2.080 . S
Zn1724 O1730 2.114 . S
Zn1724 O1733 2.120 . S
Zn1724 O1735 2.120 . S
Zn1724 O1736 2.114 . S
Zn1724 O1739 2.080 . S
C1725 O1730 1.166 . S
C1725 O1731 1.182 . S
C1726 O1732 1.167 . S
C1726 O1733 1.299 . S
O1727 Zn1724 2.080 . S
O1727 C1741 1.305 . S
O1728 Zn1722 1.920 . S
O1728 C1741 1.234 . S
C1729 O1734 1.167 . S
C1729 O1735 1.299 . S
O1730 Zn1724 2.114 . S
O1730 C1725 1.166 . S
O1731 Zn1723 1.905 . S
O1731 C1725 1.182 . S
O1732 Zn1723 1.898 . S
O1732 C1726 1.167 . S
O1733 Zn1724 2.120 . S
O1733 C1726 1.299 . S
O1734 Zn1722 1.898 . S
O1734 C1729 1.167 . S
O1735 Zn1724 2.120 . S
O1735 C1729 1.299 . S
O1736 Zn1724 2.114 . S
O1736 C1738 1.166 . S
O1737 Zn1722 1.905 . S
O1737 C1738 1.182 . S
C1738 O1736 1.166 . S
C1738 O1737 1.182 . S
O1739 Zn1724 2.080 . S
O1739 C1742 1.305 . S
O1740 Zn1723 1.920 . S
O1740 C1742 1.234 . S
C1741 O1727 1.305 . S
C1741 O1728 1.234 . S
C1742 O1739 1.305 . S
C1742 O1740 1.234 . S
Zn1743 O1749 1.920 . S
Zn1743 O1755 1.898 . S
Zn1743 O1758 1.905 . S
Zn1744 O1752 1.905 . S
Zn1744 O1753 1.898 . S
Zn1744 O1761 1.920 . S
Zn1745 O1748 2.080 . S
Zn1745 O1751 2.114 . S
Zn1745 O1754 2.120 . S
Zn1745 O1756 2.120 . S
Zn1745 O1757 2.114 . S
Zn1745 O1760 2.080 . S
C1746 O1751 1.166 . S
C1746 O1752 1.182 . S
C1747 O1753 1.167 . S
C1747 O1754 1.299 . S
O1748 Zn1745 2.080 . S
O1748 C1762 1.305 . S
O1749 Zn1743 1.920 . S
O1749 C1762 1.234 . S
C1750 O1755 1.167 . S
C1750 O1756 1.299 . S
O1751 Zn1745 2.114 . S
O1751 C1746 1.166 . S
O1752 Zn1744 1.905 . S
O1752 C1746 1.182 . S
O1753 Zn1744 1.898 . S
O1753 C1747 1.167 . S
O1754 Zn1745 2.120 . S
O1754 C1747 1.299 . S
O1755 Zn1743 1.898 . S
O1755 C1750 1.167 . S
O1756 Zn1745 2.120 . S
O1756 C1750 1.299 . S
O1757 Zn1745 2.114 . S
O1757 C1759 1.166 . S
O1758 Zn1743 1.905 . S
O1758 C1759 1.182 . S
C1759 O1757 1.166 . S
C1759 O1758 1.182 . S
O1760 Zn1745 2.080 . S
O1760 C1763 1.305 . S
O1761 Zn1744 1.920 . S
O1761 C1763 1.234 . S
C1762 O1748 1.305 . S
C1762 O1749 1.234 . S
C1763 O1760 1.305 . S
C1763 O1761 1.234 . S
Zn1764 O1770 1.920 . S
Zn1764 O1776 1.898 . S
Zn1764 O1779 1.905 . S
Zn1765 O1773 1.905 . S
Zn1765 O1774 1.898 . S
Zn1765 O1782 1.920 . S
Zn1766 O1769 2.080 . S
Zn1766 O1772 2.114 . S
Zn1766 O1775 2.120 . S
Zn1766 O1777 2.120 . S
Zn1766 O1778 2.114 . S
Zn1766 O1781 2.080 . S
C1767 O1772 1.166 . S
C1767 O1773 1.182 . S
C1768 O1774 1.167 . S
C1768 O1775 1.299 . S
O1769 Zn1766 2.080 . S
O1769 C1783 1.305 . S
O1770 Zn1764 1.920 . S
O1770 C1783 1.234 . S
C1771 O1776 1.167 . S
C1771 O1777 1.299 . S
O1772 Zn1766 2.114 . S
O1772 C1767 1.166 . S
O1773 Zn1765 1.905 . S
O1773 C1767 1.182 . S
O1774 Zn1765 1.898 . S
O1774 C1768 1.167 . S
O1775 Zn1766 2.120 . S
O1775 C1768 1.299 . S
O1776 Zn1764 1.898 . S
O1776 C1771 1.167 . S
O1777 Zn1766 2.120 . S
O1777 C1771 1.299 . S
O1778 Zn1766 2.114 . S
O1778 C1780 1.166 . S
O1779 Zn1764 1.905 . S
O1779 C1780 1.182 . S
C1780 O1778 1.166 . S
C1780 O1779 1.182 . S
O1781 Zn1766 2.080 . S
O1781 C1784 1.305 . S
O1782 Zn1765 1.920 . S
O1782 C1784 1.234 . S
C1783 O1769 1.305 . S
C1783 O1770 1.234 . S
C1784 O1781 1.305 . S
C1784 O1782 1.234 . S
Zn1785 O1791 1.920 . S
Zn1785 O1797 1.898 . S
Zn1785 O1800 1.905 . S
Zn1786 O1794 1.905 . S
Zn1786 O1795 1.898 . S
Zn1786 O1803 1.920 . S
Zn1787 O1790 2.080 . S
Zn1787 O1793 2.114 . S
Zn1787 O1796 2.120 . S
Zn1787 O1798 2.120 . S
Zn1787 O1799 2.114 . S
Zn1787 O1802 2.080 . S
C1788 O1793 1.166 . S
C1788 O1794 1.182 . S
C1789 O1795 1.167 . S
C1789 O1796 1.299 . S
O1790 Zn1787 2.080 . S
O1790 C1804 1.305 . S
O1791 Zn1785 1.920 . S
O1791 C1804 1.234 . S
C1792 O1797 1.167 . S
C1792 O1798 1.299 . S
O1793 Zn1787 2.114 . S
O1793 C1788 1.166 . S
O1794 Zn1786 1.905 . S
O1794 C1788 1.182 . S
O1795 Zn1786 1.898 . S
O1795 C1789 1.167 . S
O1796 Zn1787 2.120 . S
O1796 C1789 1.299 . S
O1797 Zn1785 1.898 . S
O1797 C1792 1.167 . S
O1798 Zn1787 2.120 . S
O1798 C1792 1.299 . S
O1799 Zn1787 2.114 . S
O1799 C1801 1.166 . S
O1800 Zn1785 1.905 . S
O1800 C1801 1.182 . S
C1801 O1799 1.166 . S
C1801 O1800 1.182 . S
O1802 Zn1787 2.080 . S
O1802 C1805 1.305 . S
O1803 Zn1786 1.920 . S
O1803 C1805 1.234 . S
C1804 O1790 1.305 . S
C1804 O1791 1.234 . S
C1805 O1802 1.305 . S
C1805 O1803 1.234 . S
Zn1806 O1812 1.920 1_545 S
Zn1806 O1818 1.898 1_545 S
Zn1806 O1821 1.905 . S
Zn1807 O1815 1.905 . S
Zn1807 O1816 1.898 . S
Zn1807 O1824 1.920 . S
Zn1808 O1811 2.080 . S
Zn1808 O1814 2.114 . S
Zn1808 O1817 2.120 1_554 S
Zn1808 O1819 2.120 . S
Zn1808 O1820 2.114 1_565 S
Zn1808 O1823 2.080 . S
C1809 O1814 1.166 1_556 S
C1809 O1815 1.182 . S
C1810 O1816 1.167 . S
C1810 O1817 1.299 . S
O1811 Zn1808 2.080 . S
O1811 C1825 1.305 . S
O1812 Zn1806 1.920 1_565 S
O1812 C1825 1.234 . S
C1813 O1818 1.167 . S
C1813 O1819 1.299 . S
O1814 Zn1808 2.114 . S
O1814 C1809 1.166 1_554 S
O1815 Zn1807 1.905 . S
O1815 C1809 1.182 . S
O1816 Zn1807 1.898 . S
O1816 C1810 1.167 . S
O1817 Zn1808 2.120 1_556 S
O1817 C1810 1.299 . S
O1818 Zn1806 1.898 1_565 S
O1818 C1813 1.167 . S
O1819 Zn1808 2.120 . S
O1819 C1813 1.299 . S
O1820 Zn1808 2.114 1_545 S
O1820 C1822 1.166 . S
O1821 Zn1806 1.905 . S
O1821 C1822 1.182 . S
C1822 O1820 1.166 . S
C1822 O1821 1.182 . S
O1823 Zn1808 2.080 . S
O1823 C1826 1.305 . S
O1824 Zn1807 1.920 . S
O1824 C1826 1.234 1_556 S
C1825 O1811 1.305 . S
C1825 O1812 1.234 . S
C1826 O1823 1.305 . S
C1826 O1824 1.234 1_554 S
Zn1827 O1833 1.920 1_655 S
Zn1827 O1839 1.898 1_655 S
Zn1827 O1842 1.905 . S
Zn1828 O1836 1.905 . S
Zn1828 O1837 1.898 . S
Zn1828 O1845 1.920 . S
Zn1829 O1832 2.080 . S
Zn1829 O1835 2.114 . S
Zn1829 O1838 2.120 . S
Zn1829 O1840 2.120 . S
Zn1829 O1841 2.114 1_455 S
Zn1829 O1844 2.080 . S
C1830 O1835 1.166 . S
C1830 O1836 1.182 . S
C1831 O1837 1.167 . S
C1831 O1838 1.299 . S
O1832 Zn1829 2.080 . S
O1832 C1846 1.305 . S
O1833 Zn1827 1.920 1_455 S
O1833 C1846 1.234 . S
C1834 O1839 1.167 . S
C1834 O1840 1.299 . S
O1835 Zn1829 2.114 . S
O1835 C1830 1.166 . S
O1836 Zn1828 1.905 . S
O1836 C1830 1.182 . S
O1837 Zn1828 1.898 . S
O1837 C1831 1.167 . S
O1838 Zn1829 2.120 . S
O1838 C1831 1.299 . S
O1839 Zn1827 1.898 1_455 S
O1839 C1834 1.167 . S
O1840 Zn1829 2.120 . S
O1840 C1834 1.299 . S
O1841 Zn1829 2.114 1_655 S
O1841 C1843 1.166 . S
O1842 Zn1827 1.905 . S
O1842 C1843 1.182 . S
C1843 O1841 1.166 . S
C1843 O1842 1.182 . S
O1844 Zn1829 2.080 . S
O1844 C1847 1.305 . S
O1845 Zn1828 1.920 . S
O1845 C1847 1.234 . S
C1846 O1832 1.305 . S
C1846 O1833 1.234 . S
C1847 O1844 1.305 . S
C1847 O1845 1.234 . S
Zn1848 O1854 1.920 . S
Zn1848 O1860 1.898 . S
Zn1848 O1863 1.905 . S
Zn1849 O1857 1.905 . S
Zn1849 O1858 1.898 . S
Zn1849 O1866 1.920 . S
Zn1850 O1853 2.080 . S
Zn1850 O1856 2.114 . S
Zn1850 O1859 2.120 . S
Zn1850 O1861 2.120 . S
Zn1850 O1862 2.114 . S
Zn1850 O1865 2.080 . S
C1851 O1856 1.166 . S
C1851 O1857 1.182 . S
C1852 O1858 1.167 . S
C1852 O1859 1.299 . S
O1853 Zn1850 2.080 . S
O1853 C1867 1.305 . S
O1854 Zn1848 1.920 . S
O1854 C1867 1.234 . S
C1855 O1860 1.167 . S
C1855 O1861 1.299 . S
O1856 Zn1850 2.114 . S
O1856 C1851 1.166 . S
O1857 Zn1849 1.905 . S
O1857 C1851 1.182 . S
O1858 Zn1849 1.898 . S
O1858 C1852 1.167 . S
O1859 Zn1850 2.120 . S
O1859 C1852 1.299 . S
O1860 Zn1848 1.898 . S
O1860 C1855 1.167 . S
O1861 Zn1850 2.120 . S
O1861 C1855 1.299 . S
O1862 Zn1850 2.114 . S
O1862 C1864 1.166 . S
O1863 Zn1848 1.905 . S
O1863 C1864 1.182 . S
C1864 O1862 1.166 . S
C1864 O1863 1.182 . S
O1865 Zn1850 2.080 . S
O1865 C1868 1.305 . S
O1866 Zn1849 1.920 . S
O1866 C1868 1.234 . S
C1867 O1853 1.305 . S
C1867 O1854 1.234 . S
C1868 O1865 1.305 . S
C1868 O1866 1.234 . S
Zn1869 O1875 1.920 . S
Zn1869 O1881 1.898 . S
Zn1869 O1884 1.905 . S
Zn1870 O1878 1.905 . S
Zn1870 O1879 1.898 . S
Zn1870 O1887 1.920 . S
Zn1871 O1874 2.080 . S
Zn1871 O1877 2.114 . S
Zn1871 O1880 2.120 . S
Zn1871 O1882 2.120 . S
Zn1871 O1883 2.114 . S
Zn1871 O1886 2.080 . S
C1872 O1877 1.166 . S
C1872 O1878 1.182 . S
C1873 O1879 1.167 . S
C1873 O1880 1.299 . S
O1874 Zn1871 2.080 . S
O1874 C1888 1.305 . S
O1875 Zn1869 1.920 . S
O1875 C1888 1.234 . S
C1876 O1881 1.167 . S
C1876 O1882 1.299 . S
O1877 Zn1871 2.114 . S
O1877 C1872 1.166 . S
O1878 Zn1870 1.905 . S
O1878 C1872 1.182 . S
O1879 Zn1870 1.898 . S
O1879 C1873 1.167 . S
O1880 Zn1871 2.120 . S
O1880 C1873 1.299 . S
O1881 Zn1869 1.898 . S
O1881 C1876 1.167 . S
O1882 Zn1871 2.120 . S
O1882 C1876 1.299 . S
O1883 Zn1871 2.114 . S
O1883 C1885 1.166 . S
O1884 Zn1869 1.905 . S
O1884 C1885 1.182 . S
C1885 O1883 1.166 . S
C1885 O1884 1.182 . S
O1886 Zn1871 2.080 . S
O1886 C1889 1.305 . S
O1887 Zn1870 1.920 . S
O1887 C1889 1.234 . S
C1888 O1874 1.305 . S
C1888 O1875 1.234 . S
C1889 O1886 1.305 . S
C1889 O1887 1.234 . S
Zn1890 O1896 1.920 . S
Zn1890 O1902 1.898 . S
Zn1890 O1905 1.905 . S
Zn1891 O1899 1.905 . S
Zn1891 O1900 1.898 . S
Zn1891 O1908 1.920 . S
Zn1892 O1895 2.080 . S
Zn1892 O1898 2.114 . S
Zn1892 O1901 2.120 . S
Zn1892 O1903 2.120 . S
Zn1892 O1904 2.114 . S
Zn1892 O1907 2.080 . S
C1893 O1898 1.166 . S
C1893 O1899 1.182 . S
C1894 O1900 1.167 . S
C1894 O1901 1.299 . S
O1895 Zn1892 2.080 . S
O1895 C1909 1.305 . S
O1896 Zn1890 1.920 . S
O1896 C1909 1.234 . S
C1897 O1902 1.167 . S
C1897 O1903 1.299 . S
O1898 Zn1892 2.114 . S
O1898 C1893 1.166 . S
O1899 Zn1891 1.905 . S
O1899 C1893 1.182 . S
O1900 Zn1891 1.898 . S
O1900 C1894 1.167 . S
O1901 Zn1892 2.120 . S
O1901 C1894 1.299 . S
O1902 Zn1890 1.898 . S
O1902 C1897 1.167 . S
O1903 Zn1892 2.120 . S
O1903 C1897 1.299 . S
O1904 Zn1892 2.114 . S
O1904 C1906 1.166 . S
O1905 Zn1890 1.905 . S
O1905 C1906 1.182 . S
C1906 O1904 1.166 . S
C1906 O1905 1.182 . S
O1907 Zn1892 2.080 . S
O1907 C1910 1.305 . S
O1908 Zn1891 1.920 . S
O1908 C1910 1.234 . S
C1909 O1895 1.305 . S
C1909 O1896 1.234 . S
C1910 O1907 1.305 . S
C1910 O1908 1.234 . S
Zn1911 O1917 1.920 . S
Zn1911 O1923 1.898 . S
Zn1911 O1926 1.905 . S
Zn1912 O1920 1.905 . S
Zn1912 O1921 1.898 . S
Zn1912 O1929 1.920 . S
Zn1913 O1916 2.080 . S
Zn1913 O1919 2.114 . S
Zn1913 O1922 2.120 . S
Zn1913 O1924 2.120 . S
Zn1913 O1925 2.114 . S
Zn1913 O1928 2.080 . S
C1914 O1919 1.166 . S
C1914 O1920 1.182 . S
C1915 O1921 1.167 . S
C1915 O1922 1.299 . S
O1916 Zn1913 2.080 . S
O1916 C1930 1.305 . S
O1917 Zn1911 1.920 . S
O1917 C1930 1.234 . S
C1918 O1923 1.167 . S
C1918 O1924 1.299 . S
O1919 Zn1913 2.114 . S
O1919 C1914 1.166 . S
O1920 Zn1912 1.905 . S
O1920 C1914 1.182 . S
O1921 Zn1912 1.898 . S
O1921 C1915 1.167 . S
O1922 Zn1913 2.120 . S
O1922 C1915 1.299 . S
O1923 Zn1911 1.898 . S
O1923 C1918 1.167 . S
O1924 Zn1913 2.120 . S
O1924 C1918 1.299 . S
O1925 Zn1913 2.114 . S
O1925 C1927 1.166 . S
O1926 Zn1911 1.905 . S
O1926 C1927 1.182 . S
C1927 O1925 1.166 . S
C1927 O1926 1.182 . S
O1928 Zn1913 2.080 . S
O1928 C1931 1.305 . S
O1929 Zn1912 1.920 . S
O1929 C1931 1.234 . S
C1930 O1916 1.305 . S
C1930 O1917 1.234 . S
C1931 O1928 1.305 . S
C1931 O1929 1.234 . S
Zn1932 O1938 1.920 1_556 S
Zn1932 O1944 1.898 1_556 S
Zn1932 O1947 1.905 . S
Zn1933 O1941 1.905 . S
Zn1933 O1942 1.898 . S
Zn1933 O1950 1.920 . S
Zn1934 O1937 2.080 . S
Zn1934 O1940 2.114 . S
Zn1934 O1943 2.120 . S
Zn1934 O1945 2.120 . S
Zn1934 O1946 2.114 1_554 S
Zn1934 O1949 2.080 . S
C1935 O1940 1.166 . S
C1935 O1941 1.182 . S
C1936 O1942 1.167 . S
C1936 O1943 1.299 . S
O1937 Zn1934 2.080 . S
O1937 C1951 1.305 . S
O1938 Zn1932 1.920 1_554 S
O1938 C1951 1.234 . S
C1939 O1944 1.167 . S
C1939 O1945 1.299 . S
O1940 Zn1934 2.114 . S
O1940 C1935 1.166 . S
O1941 Zn1933 1.905 . S
O1941 C1935 1.182 . S
O1942 Zn1933 1.898 . S
O1942 C1936 1.167 . S
O1943 Zn1934 2.120 . S
O1943 C1936 1.299 . S
O1944 Zn1932 1.898 1_554 S
O1944 C1939 1.167 . S
O1945 Zn1934 2.120 . S
O1945 C1939 1.299 . S
O1946 Zn1934 2.114 1_556 S
O1946 C1948 1.166 . S
O1947 Zn1932 1.905 . S
O1947 C1948 1.182 . S
C1948 O1946 1.166 . S
C1948 O1947 1.182 . S
O1949 Zn1934 2.080 . S
O1949 C1952 1.305 . S
O1950 Zn1933 1.920 . S
O1950 C1952 1.234 . S
C1951 O1937 1.305 . S
C1951 O1938 1.234 . S
C1952 O1949 1.305 . S
C1952 O1950 1.234 . S
Zn1953 O1959 1.920 . S
Zn1953 O1965 1.898 . S
Zn1953 O1968 1.905 . S
Zn1954 O1962 1.905 . S
Zn1954 O1963 1.898 . S
Zn1954 O1971 1.920 . S
Zn1955 O1958 2.080 . S
Zn1955 O1961 2.114 . S
Zn1955 O1964 2.120 . S
Zn1955 O1966 2.120 1_455 S
Zn1955 O1967 2.114 . S
Zn1955 O1970 2.080 . S
C1956 O1961 1.166 . S
C1956 O1962 1.182 . S
C1957 O1963 1.167 . S
C1957 O1964 1.299 . S
O1958 Zn1955 2.080 . S
O1958 C1972 1.305 . S
O1959 Zn1953 1.920 . S
O1959 C1972 1.234 1_655 S
C1960 O1965 1.167 . S
C1960 O1966 1.299 . S
O1961 Zn1955 2.114 . S
O1961 C1956 1.166 . S
O1962 Zn1954 1.905 . S
O1962 C1956 1.182 . S
O1963 Zn1954 1.898 . S
O1963 C1957 1.167 . S
O1964 Zn1955 2.120 . S
O1964 C1957 1.299 . S
O1965 Zn1953 1.898 . S
O1965 C1960 1.167 . S
O1966 Zn1955 2.120 1_655 S
O1966 C1960 1.299 . S
O1967 Zn1955 2.114 . S
O1967 C1969 1.166 1_455 S
O1968 Zn1953 1.905 . S
O1968 C1969 1.182 . S
C1969 O1967 1.166 1_655 S
C1969 O1968 1.182 . S
O1970 Zn1955 2.080 . S
O1970 C1973 1.305 . S
O1971 Zn1954 1.920 . S
O1971 C1973 1.234 . S
C1972 O1958 1.305 . S
C1972 O1959 1.234 1_455 S
C1973 O1970 1.305 . S
C1973 O1971 1.234 . S
Zn1974 O1980 1.920 . S
Zn1974 O1986 1.898 . S
Zn1974 O1989 1.905 . S
Zn1975 O1983 1.905 . S
Zn1975 O1984 1.898 . S
Zn1975 O1992 1.920 . S
Zn1976 O1979 2.080 . S
Zn1976 O1982 2.114 . S
Zn1976 O1985 2.120 . S
Zn1976 O1987 2.120 . S
Zn1976 O1988 2.114 . S
Zn1976 O1991 2.080 . S
C1977 O1982 1.166 . S
C1977 O1983 1.182 . S
C1978 O1984 1.167 . S
C1978 O1985 1.299 . S
O1979 Zn1976 2.080 . S
O1979 C1993 1.305 . S
O1980 Zn1974 1.920 . S
O1980 C1993 1.234 . S
C1981 O1986 1.167 . S
C1981 O1987 1.299 . S
O1982 Zn1976 2.114 . S
O1982 C1977 1.166 . S
O1983 Zn1975 1.905 . S
O1983 C1977 1.182 . S
O1984 Zn1975 1.898 . S
O1984 C1978 1.167 . S
O1985 Zn1976 2.120 . S
O1985 C1978 1.299 . S
O1986 Zn1974 1.898 . S
O1986 C1981 1.167 . S
O1987 Zn1976 2.120 . S
O1987 C1981 1.299 . S
O1988 Zn1976 2.114 . S
O1988 C1990 1.166 . S
O1989 Zn1974 1.905 . S
O1989 C1990 1.182 . S
C1990 O1988 1.166 . S
C1990 O1989 1.182 . S
O1991 Zn1976 2.080 . S
O1991 C1994 1.305 . S
O1992 Zn1975 1.920 . S
O1992 C1994 1.234 . S
C1993 O1979 1.305 . S
C1993 O1980 1.234 . S
C1994 O1991 1.305 . S
C1994 O1992 1.234 . S
Zn1995 O2001 1.920 . S
Zn1995 O2007 1.898 . S
Zn1995 O2010 1.905 . S
Zn1996 O2004 1.905 . S
Zn1996 O2005 1.898 . S
Zn1996 O2013 1.920 . S
Zn1997 O2000 2.080 . S
Zn1997 O2003 2.114 . S
Zn1997 O2006 2.120 . S
Zn1997 O2008 2.120 . S
Zn1997 O2009 2.114 . S
Zn1997 O2012 2.080 . S
C1998 O2003 1.166 . S
C1998 O2004 1.182 . S
C1999 O2005 1.167 . S
C1999 O2006 1.299 . S
O2000 Zn1997 2.080 . S
O2000 C2014 1.305 . S
O2001 Zn1995 1.920 . S
O2001 C2014 1.234 . S
C2002 O2007 1.167 . S
C2002 O2008 1.299 . S
O2003 Zn1997 2.114 . S
O2003 C1998 1.166 . S
O2004 Zn1996 1.905 . S
O2004 C1998 1.182 . S
O2005 Zn1996 1.898 . S
O2005 C1999 1.167 . S
O2006 Zn1997 2.120 . S
O2006 C1999 1.299 . S
O2007 Zn1995 1.898 . S
O2007 C2002 1.167 . S
O2008 Zn1997 2.120 . S
O2008 C2002 1.299 . S
O2009 Zn1997 2.114 . S
O2009 C2011 1.166 . S
O2010 Zn1995 1.905 . S
O2010 C2011 1.182 . S
C2011 O2009 1.166 . S
C2011 O2010 1.182 . S
O2012 Zn1997 2.080 . S
O2012 C2015 1.305 . S
O2013 Zn1996 1.920 . S
O2013 C2015 1.234 . S
C2014 O2000 1.305 . S
C2014 O2001 1.234 . S
C2015 O2012 1.305 . S
C2015 O2013 1.234 . S
Zn2016 O2022 1.920 . S
Zn2016 O2028 1.898 . S
Zn2016 O2031 1.905 . S
Zn2017 O2025 1.905 . S
Zn2017 O2026 1.898 . S
Zn2017 O2034 1.920 . S
Zn2018 O2021 2.080 . S
Zn2018 O2024 2.114 . S
Zn2018 O2027 2.120 . S
Zn2018 O2029 2.120 . S
Zn2018 O2030 2.114 . S
Zn2018 O2033 2.080 . S
C2019 O2024 1.166 . S
C2019 O2025 1.182 . S
C2020 O2026 1.167 . S
C2020 O2027 1.299 . S
O2021 Zn2018 2.080 . S
O2021 C2035 1.305 . S
O2022 Zn2016 1.920 . S
O2022 C2035 1.234 . S
C2023 O2028 1.167 . S
C2023 O2029 1.299 . S
O2024 Zn2018 2.114 . S
O2024 C2019 1.166 . S
O2025 Zn2017 1.905 . S
O2025 C2019 1.182 . S
O2026 Zn2017 1.898 . S
O2026 C2020 1.167 . S
O2027 Zn2018 2.120 . S
O2027 C2020 1.299 . S
O2028 Zn2016 1.898 . S
O2028 C2023 1.167 . S
O2029 Zn2018 2.120 . S
O2029 C2023 1.299 . S
O2030 Zn2018 2.114 . S
O2030 C2032 1.166 . S
O2031 Zn2016 1.905 . S
O2031 C2032 1.182 . S
C2032 O2030 1.166 . S
C2032 O2031 1.182 . S
O2033 Zn2018 2.080 . S
O2033 C2036 1.305 . S
O2034 Zn2017 1.920 . S
O2034 C2036 1.234 . S
C2035 O2021 1.305 . S
C2035 O2022 1.234 . S
C2036 O2033 1.305 . S
C2036 O2034 1.234 . S
Zn2037 O2043 1.920 . S
Zn2037 O2049 1.898 . S
Zn2037 O2052 1.905 . S
Zn2038 O2046 1.905 . S
Zn2038 O2047 1.898 . S
Zn2038 O2055 1.920 . S
Zn2039 O2042 2.080 . S
Zn2039 O2045 2.114 . S
Zn2039 O2048 2.120 . S
Zn2039 O2050 2.120 . S
Zn2039 O2051 2.114 . S
Zn2039 O2054 2.080 . S
C2040 O2045 1.166 . S
C2040 O2046 1.182 . S
C2041 O2047 1.167 . S
C2041 O2048 1.299 . S
O2042 Zn2039 2.080 . S
O2042 C2056 1.305 . S
O2043 Zn2037 1.920 . S
O2043 C2056 1.234 . S
C2044 O2049 1.167 . S
C2044 O2050 1.299 . S
O2045 Zn2039 2.114 . S
O2045 C2040 1.166 . S
O2046 Zn2038 1.905 . S
O2046 C2040 1.182 . S
O2047 Zn2038 1.898 . S
O2047 C2041 1.167 . S
O2048 Zn2039 2.120 . S
O2048 C2041 1.299 . S
O2049 Zn2037 1.898 . S
O2049 C2044 1.167 . S
O2050 Zn2039 2.120 . S
O2050 C2044 1.299 . S
O2051 Zn2039 2.114 . S
O2051 C2053 1.166 . S
O2052 Zn2037 1.905 . S
O2052 C2053 1.182 . S
C2053 O2051 1.166 . S
C2053 O2052 1.182 . S
O2054 Zn2039 2.080 . S
O2054 C2057 1.305 . S
O2055 Zn2038 1.920 . S
O2055 C2057 1.234 . S
C2056 O2042 1.305 . S
C2056 O2043 1.234 . S
C2057 O2054 1.305 . S
C2057 O2055 1.234 . S
Zn2058 O2064 1.920 . S
Zn2058 O2070 1.898 . S
Zn2058 O2073 1.905 . S
Zn2059 O2067 1.905 . S
Zn2059 O2068 1.898 . S
Zn2059 O2076 1.920 . S
Zn2060 O2063 2.080 . S
Zn2060 O2066 2.114 . S
Zn2060 O2069 2.120 . S
Zn2060 O2071 2.120 . S
Zn2060 O2072 2.114 . S
Zn2060 O2075 2.080 . S
C2061 O2066 1.166 . S
C2061 O2067 1.182 . S
C2062 O2068 1.167 . S
C2062 O2069 1.299 . S
O2063 Zn2060 2.080 . S
O2063 C2077 1.305 . S
O2064 Zn2058 1.920 . S
O2064 C2077 1.234 . S
C2065 O2070 1.167 . S
C2065 O2071 1.299 . S
O2066 Zn2060 2.114 . S
O2066 C2061 1.166 . S
O2067 Zn2059 1.905 . S
O2067 C2061 1.182 . S
O2068 Zn2059 1.898 . S
O2068 C2062 1.167 . S
O2069 Zn2060 2.120 . S
O2069 C2062 1.299 . S
O2070 Zn2058 1.898 . S
O2070 C2065 1.167 . S
O2071 Zn2060 2.120 . S
O2071 C2065 1.299 . S
O2072 Zn2060 2.114 . S
O2072 C2074 1.166 . S
O2073 Zn2058 1.905 . S
O2073 C2074 1.182 . S
C2074 O2072 1.166 . S
C2074 O2073 1.182 . S
O2075 Zn2060 2.080 . S
O2075 C2078 1.305 . S
O2076 Zn2059 1.920 . S
O2076 C2078 1.234 . S
C2077 O2063 1.305 . S
C2077 O2064 1.234 . S
C2078 O2075 1.305 . S
C2078 O2076 1.234 . S
Zn2079 O2085 1.920 . S
Zn2079 O2091 1.898 . S
Zn2079 O2094 1.905 . S
Zn2080 O2088 1.905 . S
Zn2080 O2089 1.898 . S
Zn2080 O2097 1.920 . S
Zn2081 O2084 2.080 . S
Zn2081 O2087 2.114 . S
Zn2081 O2090 2.120 . S
Zn2081 O2092 2.120 . S
Zn2081 O2093 2.114 . S
Zn2081 O2096 2.080 . S
C2082 O2087 1.166 . S
C2082 O2088 1.182 . S
C2083 O2089 1.167 . S
C2083 O2090 1.299 . S
O2084 Zn2081 2.080 . S
O2084 C2098 1.305 . S
O2085 Zn2079 1.920 . S
O2085 C2098 1.234 . S
C2086 O2091 1.167 . S
C2086 O2092 1.299 . S
O2087 Zn2081 2.114 . S
O2087 C2082 1.166 . S
O2088 Zn2080 1.905 . S
O2088 C2082 1.182 . S
O2089 Zn2080 1.898 . S
O2089 C2083 1.167 . S
O2090 Zn2081 2.120 . S
O2090 C2083 1.299 . S
O2091 Zn2079 1.898 . S
O2091 C2086 1.167 . S
O2092 Zn2081 2.120 . S
O2092 C2086 1.299 . S
O2093 Zn2081 2.114 . S
O2093 C2095 1.166 . S
O2094 Zn2079 1.905 . S
O2094 C2095 1.182 . S
C2095 O2093 1.166 . S
C2095 O2094 1.182 . S
O2096 Zn2081 2.080 . S
O2096 C2099 1.305 . S
O2097 Zn2080 1.920 . S
O2097 C2099 1.234 . S
C2098 O2084 1.305 . S
C2098 O2085 1.234 . S
C2099 O2096 1.305 . S
C2099 O2097 1.234 . S
Zn2100 O2106 1.920 . S
Zn2100 O2112 1.898 . S
Zn2100 O2115 1.905 . S
Zn2101 O2109 1.905 . S
Zn2101 O2110 1.898 . S
Zn2101 O2118 1.920 . S
Zn2102 O2105 2.080 . S
Zn2102 O2108 2.114 . S
Zn2102 O2111 2.120 1_565 S
Zn2102 O2113 2.120 . S
Zn2102 O2114 2.114 . S
Zn2102 O2117 2.080 . S
C2103 O2108 1.166 1_545 S
C2103 O2109 1.182 . S
C2104 O2110 1.167 . S
C2104 O2111 1.299 . S
O2105 Zn2102 2.080 . S
O2105 C2119 1.305 . S
O2106 Zn2100 1.920 . S
O2106 C2119 1.234 . S
C2107 O2112 1.167 . S
C2107 O2113 1.299 . S
O2108 Zn2102 2.114 . S
O2108 C2103 1.166 1_565 S
O2109 Zn2101 1.905 . S
O2109 C2103 1.182 . S
O2110 Zn2101 1.898 . S
O2110 C2104 1.167 . S
O2111 Zn2102 2.120 1_545 S
O2111 C2104 1.299 . S
O2112 Zn2100 1.898 . S
O2112 C2107 1.167 . S
O2113 Zn2102 2.120 . S
O2113 C2107 1.299 . S
O2114 Zn2102 2.114 . S
O2114 C2116 1.166 . S
O2115 Zn2100 1.905 . S
O2115 C2116 1.182 . S
C2116 O2114 1.166 . S
C2116 O2115 1.182 . S
O2117 Zn2102 2.080 . S
O2117 C2120 1.305 . S
O2118 Zn2101 1.920 . S
O2118 C2120 1.234 1_545 S
C2119 O2105 1.305 . S
C2119 O2106 1.234 . S
C2120 O2117 1.305 . S
C2120 O2118 1.234 1_565 S
Zn2121 O2127 1.920 . S
Zn2121 O2133 1.898 . S
Zn2121 O2136 1.905 . S
Zn2122 O2130 1.905 . S
Zn2122 O2131 1.898 . S
Zn2122 O2139 1.920 . S
Zn2123 O2126 2.080 . S
Zn2123 O2129 2.114 . S
Zn2123 O2132 2.120 1_455 S
Zn2123 O2134 2.120 . S
Zn2123 O2135 2.114 . S
Zn2123 O2138 2.080 . S
C2124 O2129 1.166 1_655 S
C2124 O2130 1.182 . S
C2125 O2131 1.167 . S
C2125 O2132 1.299 . S
O2126 Zn2123 2.080 . S
O2126 C2140 1.305 . S
O2127 Zn2121 1.920 . S
O2127 C2140 1.234 . S
C2128 O2133 1.167 . S
C2128 O2134 1.299 . S
O2129 Zn2123 2.114 . S
O2129 C2124 1.166 1_455 S
O2130 Zn2122 1.905 . S
O2130 C2124 1.182 . S
O2131 Zn2122 1.898 . S
O2131 C2125 1.167 . S
O2132 Zn2123 2.120 1_655 S
O2132 C2125 1.299 . S
O2133 Zn2121 1.898 . S
O2133 C2128 1.167 . S
O2134 Zn2123 2.120 . S
O2134 C2128 1.299 . S
O2135 Zn2123 2.114 . S
O2135 C2137 1.166 . S
O2136 Zn2121 1.905 . S
O2136 C2137 1.182 . S
C2137 O2135 1.166 . S
C2137 O2136 1.182 . S
O2138 Zn2123 2.080 . S
O2138 C2141 1.305 . S
O2139 Zn2122 1.920 . S
O2139 C2141 1.234 1_655 S
C2140 O2126 1.305 . S
C2140 O2127 1.234 . S
C2141 O2138 1.305 . S
C2141 O2139 1.234 1_455 S
Zn2142 O2148 1.920 . S
Zn2142 O2154 1.898 . S
Zn2142 O2157 1.905 . S
Zn2143 O2151 1.905 . S
Zn2143 O2152 1.898 . S
Zn2143 O2160 1.920 . S
Zn2144 O2147 2.080 . S
Zn2144 O2150 2.114 . S
Zn2144 O2153 2.120 . S
Zn2144 O2155 2.120 . S
Zn2144 O2156 2.114 . S
Zn2144 O2159 2.080 . S
C2145 O2150 1.166 . S
C2145 O2151 1.182 . S
C2146 O2152 1.167 . S
C2146 O2153 1.299 . S
O2147 Zn2144 2.080 . S
O2147 C2161 1.305 . S
O2148 Zn2142 1.920 . S
O2148 C2161 1.234 . S
C2149 O2154 1.167 . S
C2149 O2155 1.299 . S
O2150 Zn2144 2.114 . S
O2150 C2145 1.166 . S
O2151 Zn2143 1.905 . S
O2151 C2145 1.182 . S
O2152 Zn2143 1.898 . S
O2152 C2146 1.167 . S
O2153 Zn2144 2.120 . S
O2153 C2146 1.299 . S
O2154 Zn2142 1.898 . S
O2154 C2149 1.167 . S
O2155 Zn2144 2.120 . S
O2155 C2149 1.299 . S
O2156 Zn2144 2.114 . S
O2156 C2158 1.166 . S
O2157 Zn2142 1.905 . S
O2157 C2158 1.182 . S
C2158 O2156 1.166 . S
C2158 O2157 1.182 . S
O2159 Zn2144 2.080 . S
O2159 C2162 1.305 . S
O2160 Zn2143 1.920 . S
O2160 C2162 1.234 . S
C2161 O2147 1.305 . S
C2161 O2148 1.234 . S
C2162 O2159 1.305 . S
C2162 O2160 1.234 . S
Zn2163 O2169 1.920 . S
Zn2163 O2175 1.898 . S
Zn2163 O2178 1.905 . S
Zn2164 O2172 1.905 . S
Zn2164 O2173 1.898 . S
Zn2164 O2181 1.920 . S
Zn2165 O2168 2.080 . S
Zn2165 O2171 2.114 . S
Zn2165 O2174 2.120 . S
Zn2165 O2176 2.120 . S
Zn2165 O2177 2.114 . S
Zn2165 O2180 2.080 . S
C2166 O2171 1.166 . S
C2166 O2172 1.182 . S
C2167 O2173 1.167 . S
C2167 O2174 1.299 . S
O2168 Zn2165 2.080 . S
O2168 C2182 1.305 . S
O2169 Zn2163 1.920 . S
O2169 C2182 1.234 . S
C2170 O2175 1.167 . S
C2170 O2176 1.299 . S
O2171 Zn2165 2.114 . S
O2171 C2166 1.166 . S
O2172 Zn2164 1.905 . S
O2172 C2166 1.182 . S
O2173 Zn2164 1.898 . S
O2173 C2167 1.167 . S
O2174 Zn2165 2.120 . S
O2174 C2167 1.299 . S
O2175 Zn2163 1.898 . S
O2175 C2170 1.167 . S
O2176 Zn2165 2.120 . S
O2176 C2170 1.299 . S
O2177 Zn2165 2.114 . S
O2177 C2179 1.166 . S
O2178 Zn2163 1.905 . S
O2178 C2179 1.182 . S
C2179 O2177 1.166 . S
C2179 O2178 1.182 . S
O2180 Zn2165 2.080 . S
O2180 C2183 1.305 . S
O2181 Zn2164 1.920 . S
O2181 C2183 1.234 . S
C2182 O2168 1.305 . S
C2182 O2169 1.234 . S
C2183 O2180 1.305 . S
C2183 O2181 1.234 . S
Zn2184 O2190 1.920 . S
Zn2184 O2196 1.898 . S
Zn2184 O2199 1.905 . S
Zn2185 O2193 1.905 . S
Zn2185 O2194 1.898 1_565 S
Zn2185 O2202 1.920 1_565 S
Zn2186 O2189 2.080 . S
Zn2186 O2192 2.114 1_545 S
Zn2186 O2195 2.120 . S
Zn2186 O2197 2.120 . S
Zn2186 O2198 2.114 . S
Zn2186 O2201 2.080 . S
C2187 O2192 1.166 . S
C2187 O2193 1.182 . S
C2188 O2194 1.167 . S
C2188 O2195 1.299 . S
O2189 Zn2186 2.080 . S
O2189 C2203 1.305 . S
O2190 Zn2184 1.920 . S
O2190 C2203 1.234 . S
C2191 O2196 1.167 . S
C2191 O2197 1.299 . S
O2192 Zn2186 2.114 1_565 S
O2192 C2187 1.166 . S
O2193 Zn2185 1.905 . S
O2193 C2187 1.182 . S
O2194 Zn2185 1.898 1_545 S
O2194 C2188 1.167 . S
O2195 Zn2186 2.120 . S
O2195 C2188 1.299 . S
O2196 Zn2184 1.898 . S
O2196 C2191 1.167 . S
O2197 Zn2186 2.120 . S
O2197 C2191 1.299 . S
O2198 Zn2186 2.114 . S
O2198 C2200 1.166 . S
O2199 Zn2184 1.905 . S
O2199 C2200 1.182 . S
C2200 O2198 1.166 . S
C2200 O2199 1.182 . S
O2201 Zn2186 2.080 . S
O2201 C2204 1.305 . S
O2202 Zn2185 1.920 1_545 S
O2202 C2204 1.234 . S
C2203 O2189 1.305 . S
C2203 O2190 1.234 . S
C2204 O2201 1.305 . S
C2204 O2202 1.234 . S
Zn2205 O2211 1.920 . S
Zn2205 O2217 1.898 . S
Zn2205 O2220 1.905 . S
Zn2206 O2214 1.905 . S
Zn2206 O2215 1.898 1_455 S
Zn2206 O2223 1.920 1_455 S
Zn2207 O2210 2.080 . S
Zn2207 O2213 2.114 1_655 S
Zn2207 O2216 2.120 . S
Zn2207 O2218 2.120 1_554 S
Zn2207 O2219 2.114 . S
Zn2207 O2222 2.080 . S
C2208 O2213 1.166 . S
C2208 O2214 1.182 . S
C2209 O2215 1.167 . S
C2209 O2216 1.299 . S
O2210 Zn2207 2.080 . S
O2210 C2224 1.305 . S
O2211 Zn2205 1.920 . S
O2211 C2224 1.234 1_556 S
C2212 O2217 1.167 . S
C2212 O2218 1.299 . S
O2213 Zn2207 2.114 1_455 S
O2213 C2208 1.166 . S
O2214 Zn2206 1.905 . S
O2214 C2208 1.182 . S
O2215 Zn2206 1.898 1_655 S
O2215 C2209 1.167 . S
O2216 Zn2207 2.120 . S
O2216 C2209 1.299 . S
O2217 Zn2205 1.898 . S
O2217 C2212 1.167 . S
O2218 Zn2207 2.120 1_556 S
O2218 C2212 1.299 . S
O2219 Zn2207 2.114 . S
O2219 C2221 1.166 1_554 S
O2220 Zn2205 1.905 . S
O2220 C2221 1.182 . S
C2221 O2219 1.166 1_556 S
C2221 O2220 1.182 . S
O2222 Zn2207 2.080 . S
O2222 C2225 1.305 . S
O2223 Zn2206 1.920 1_655 S
O2223 C2225 1.234 . S
C2224 O2210 1.305 . S
C2224 O2211 1.234 1_554 S
C2225 O2222 1.305 . S
C2225 O2223 1.234 . S
Zn2226 O2232 1.920 . S
Zn2226 O2238 1.898 . S
Zn2226 O2241 1.905 . S
Zn2227 O2235 1.905 . S
Zn2227 O2236 1.898 . S
Zn2227 O2244 1.920 . S
Zn2228 O2231 2.080 . S
Zn2228 O2234 2.114 . S
Zn2228 O2237 2.120 . S
Zn2228 O2239 2.120 . S
Zn2228 O2240 2.114 . S
Zn2228 O2243 2.080 . S
C2229 O2234 1.166 . S
C2229 O2235 1.182 . S
C2230 O2236 1.167 . S
C2230 O2237 1.299 . S
O2231 Zn2228 2.080 . S
O2231 C2245 1.305 . S
O2232 Zn2226 1.920 . S
O2232 C2245 1.234 . S
C2233 O2238 1.167 . S
C2233 O2239 1.299 . S
O2234 Zn2228 2.114 . S
O2234 C2229 1.166 . S
O2235 Zn2227 1.905 . S
O2235 C2229 1.182 . S
O2236 Zn2227 1.898 . S
O2236 C2230 1.167 . S
O2237 Zn2228 2.120 . S
O2237 C2230 1.299 . S
O2238 Zn2226 1.898 . S
O2238 C2233 1.167 . S
O2239 Zn2228 2.120 . S
O2239 C2233 1.299 . S
O2240 Zn2228 2.114 . S
O2240 C2242 1.166 . S
O2241 Zn2226 1.905 . S
O2241 C2242 1.182 . S
C2242 O2240 1.166 . S
C2242 O2241 1.182 . S
O2243 Zn2228 2.080 . S
O2243 C2246 1.305 . S
O2244 Zn2227 1.920 . S
O2244 C2246 1.234 . S
C2245 O2231 1.305 . S
C2245 O2232 1.234 . S
C2246 O2243 1.305 . S
C2246 O2244 1.234 . S
Zn2247 O2253 1.920 . S
Zn2247 O2259 1.898 . S
Zn2247 O2262 1.905 . S
Zn2248 O2256 1.905 . S
Zn2248 O2257 1.898 . S
Zn2248 O2265 1.920 . S
Zn2249 O2252 2.080 . S
Zn2249 O2255 2.114 . S
Zn2249 O2258 2.120 . S
Zn2249 O2260 2.120 . S
Zn2249 O2261 2.114 . S
Zn2249 O2264 2.080 . S
C2250 O2255 1.166 . S
C2250 O2256 1.182 . S
C2251 O2257 1.167 . S
C2251 O2258 1.299 . S
O2252 Zn2249 2.080 . S
O2252 C2266 1.305 . S
O2253 Zn2247 1.920 . S
O2253 C2266 1.234 . S
C2254 O2259 1.167 . S
C2254 O2260 1.299 . S
O2255 Zn2249 2.114 . S
O2255 C2250 1.166 . S
O2256 Zn2248 1.905 . S
O2256 C2250 1.182 . S
O2257 Zn2248 1.898 . S
O2257 C2251 1.167 . S
O2258 Zn2249 2.120 . S
O2258 C2251 1.299 . S
O2259 Zn2247 1.898 . S
O2259 C2254 1.167 . S
O2260 Zn2249 2.120 . S
O2260 C2254 1.299 . S
O2261 Zn2249 2.114 . S
O2261 C2263 1.166 . S
O2262 Zn2247 1.905 . S
O2262 C2263 1.182 . S
C2263 O2261 1.166 . S
C2263 O2262 1.182 . S
O2264 Zn2249 2.080 . S
O2264 C2267 1.305 . S
O2265 Zn2248 1.920 . S
O2265 C2267 1.234 . S
C2266 O2252 1.305 . S
C2266 O2253 1.234 . S
C2267 O2264 1.305 . S
C2267 O2265 1.234 . S
Zn2268 O2274 1.920 . S
Zn2268 O2280 1.898 . S
Zn2268 O2283 1.905 . S
Zn2269 O2277 1.905 . S
Zn2269 O2278 1.898 . S
Zn2269 O2286 1.920 . S
Zn2270 O2273 2.080 . S
Zn2270 O2276 2.114 . S
Zn2270 O2279 2.120 . S
Zn2270 O2281 2.120 . S
Zn2270 O2282 2.114 . S
Zn2270 O2285 2.080 . S
C2271 O2276 1.166 . S
C2271 O2277 1.182 . S
C2272 O2278 1.167 . S
C2272 O2279 1.299 . S
O2273 Zn2270 2.080 . S
O2273 C2287 1.305 . S
O2274 Zn2268 1.920 . S
O2274 C2287 1.234 . S
C2275 O2280 1.167 . S
C2275 O2281 1.299 . S
O2276 Zn2270 2.114 . S
O2276 C2271 1.166 . S
O2277 Zn2269 1.905 . S
O2277 C2271 1.182 . S
O2278 Zn2269 1.898 . S
O2278 C2272 1.167 . S
O2279 Zn2270 2.120 . S
O2279 C2272 1.299 . S
O2280 Zn2268 1.898 . S
O2280 C2275 1.167 . S
O2281 Zn2270 2.120 . S
O2281 C2275 1.299 . S
O2282 Zn2270 2.114 . S
O2282 C2284 1.166 . S
O2283 Zn2268 1.905 . S
O2283 C2284 1.182 . S
C2284 O2282 1.166 . S
C2284 O2283 1.182 . S
O2285 Zn2270 2.080 . S
O2285 C2288 1.305 . S
O2286 Zn2269 1.920 . S
O2286 C2288 1.234 . S
C2287 O2273 1.305 . S
C2287 O2274 1.234 . S
C2288 O2285 1.305 . S
C2288 O2286 1.234 . S
Zn2289 O2295 1.920 . S
Zn2289 O2301 1.898 . S
Zn2289 O2304 1.905 . S
Zn2290 O2298 1.905 . S
Zn2290 O2299 1.898 . S
Zn2290 O2307 1.920 . S
Zn2291 O2294 2.080 . S
Zn2291 O2297 2.114 . S
Zn2291 O2300 2.120 . S
Zn2291 O2302 2.120 . S
Zn2291 O2303 2.114 . S
Zn2291 O2306 2.080 . S
C2292 O2297 1.166 . S
C2292 O2298 1.182 . S
C2293 O2299 1.167 . S
C2293 O2300 1.299 . S
O2294 Zn2291 2.080 . S
O2294 C2308 1.305 . S
O2295 Zn2289 1.920 . S
O2295 C2308 1.234 . S
C2296 O2301 1.167 . S
C2296 O2302 1.299 . S
O2297 Zn2291 2.114 . S
O2297 C2292 1.166 . S
O2298 Zn2290 1.905 . S
O2298 C2292 1.182 . S
O2299 Zn2290 1.898 . S
O2299 C2293 1.167 . S
O2300 Zn2291 2.120 . S
O2300 C2293 1.299 . S
O2301 Zn2289 1.898 . S
O2301 C2296 1.167 . S
O2302 Zn2291 2.120 . S
O2302 C2296 1.299 . S
O2303 Zn2291 2.114 . S
O2303 C2305 1.166 . S
O2304 Zn2289 1.905 . S
O2304 C2305 1.182 . S
C2305 O2303 1.166 . S
C2305 O2304 1.182 . S
O2306 Zn2291 2.080 . S
O2306 C2309 1.305 . S
O2307 Zn2290 1.920 . S
O2307 C2309 1.234 . S
C2308 O2294 1.305 . S
C2308 O2295 1.234 . S
C2309 O2306 1.305 . S
C2309 O2307 1.234 . S
Zn2310 O2316 1.920 . S
Zn2310 O2322 1.898 . S
Zn2310 O2325 1.905 . S
Zn2311 O2319 1.905 . S
Zn2311 O2320 1.898 . S
Zn2311 O2328 1.920 . S
Zn2312 O2315 2.080 . S
Zn2312 O2318 2.114 . S
Zn2312 O2321 2.120 . S
Zn2312 O2323 2.120 1_556 S
Zn2312 O2324 2.114 . S
Zn2312 O2327 2.080 . S
C2313 O2318 1.166 . S
C2313 O2319 1.182 . S
C2314 O2320 1.167 . S
C2314 O2321 1.299 . S
O2315 Zn2312 2.080 . S
O2315 C2329 1.305 . S
O2316 Zn2310 1.920 . S
O2316 C2329 1.234 1_554 S
C2317 O2322 1.167 . S
C2317 O2323 1.299 . S
O2318 Zn2312 2.114 . S
O2318 C2313 1.166 . S
O2319 Zn2311 1.905 . S
O2319 C2313 1.182 . S
O2320 Zn2311 1.898 . S
O2320 C2314 1.167 . S
O2321 Zn2312 2.120 . S
O2321 C2314 1.299 . S
O2322 Zn2310 1.898 . S
O2322 C2317 1.167 . S
O2323 Zn2312 2.120 1_554 S
O2323 C2317 1.299 . S
O2324 Zn2312 2.114 . S
O2324 C2326 1.166 1_556 S
O2325 Zn2310 1.905 . S
O2325 C2326 1.182 . S
C2326 O2324 1.166 1_554 S
C2326 O2325 1.182 . S
O2327 Zn2312 2.080 . S
O2327 C2330 1.305 . S
O2328 Zn2311 1.920 . S
O2328 C2330 1.234 . S
C2329 O2315 1.305 . S
C2329 O2316 1.234 1_556 S
C2330 O2327 1.305 . S
C2330 O2328 1.234 . S
Zn2331 O2337 1.920 . S
Zn2331 O2343 1.898 . S
Zn2331 O2346 1.905 . S
Zn2332 O2340 1.905 . S
Zn2332 O2341 1.898 . S
Zn2332 O2349 1.920 . S
Zn2333 O2336 2.080 . S
Zn2333 O2339 2.114 . S
Zn2333 O2342 2.120 . S
Zn2333 O2344 2.120 . S
Zn2333 O2345 2.114 . S
Zn2333 O2348 2.080 . S
C2334 O2339 1.166 . S
C2334 O2340 1.182 . S
C2335 O2341 1.167 . S
C2335 O2342 1.299 . S
O2336 Zn2333 2.080 . S
O2336 C2350 1.305 . S
O2337 Zn2331 1.920 . S
O2337 C2350 1.234 . S
C2338 O2343 1.167 . S
C2338 O2344 1.299 . S
O2339 Zn2333 2.114 . S
O2339 C2334 1.166 . S
O2340 Zn2332 1.905 . S
O2340 C2334 1.182 . S
O2341 Zn2332 1.898 . S
O2341 C2335 1.167 . S
O2342 Zn2333 2.120 . S
O2342 C2335 1.299 . S
O2343 Zn2331 1.898 . S
O2343 C2338 1.167 . S
O2344 Zn2333 2.120 . S
O2344 C2338 1.299 . S
O2345 Zn2333 2.114 . S
O2345 C2347 1.166 . S
O2346 Zn2331 1.905 . S
O2346 C2347 1.182 . S
C2347 O2345 1.166 . S
C2347 O2346 1.182 . S
O2348 Zn2333 2.080 . S
O2348 C2351 1.305 . S
O2349 Zn2332 1.920 . S
O2349 C2351 1.234 . S
C2350 O2336 1.305 . S
C2350 O2337 1.234 . S
C2351 O2348 1.305 . S
C2351 O2349 1.234 . S
Zn2352 O2358 1.920 . S
Zn2352 O2364 1.898 . S
Zn2352 O2367 1.905 . S
Zn2353 O2361 1.905 . S
Zn2353 O2362 1.898 . S
Zn2353 O2370 1.920 . S
Zn2354 O2357 2.080 . S
Zn2354 O2360 2.114 . S
Zn2354 O2363 2.120 . S
Zn2354 O2365 2.120 . S
Zn2354 O2366 2.114 . S
Zn2354 O2369 2.080 . S
C2355 O2360 1.166 . S
C2355 O2361 1.182 . S
C2356 O2362 1.167 . S
C2356 O2363 1.299 . S
O2357 Zn2354 2.080 . S
O2357 C2371 1.305 . S
O2358 Zn2352 1.920 . S
O2358 C2371 1.234 . S
C2359 O2364 1.167 . S
C2359 O2365 1.299 . S
O2360 Zn2354 2.114 . S
O2360 C2355 1.166 . S
O2361 Zn2353 1.905 . S
O2361 C2355 1.182 . S
O2362 Zn2353 1.898 . S
O2362 C2356 1.167 . S
O2363 Zn2354 2.120 . S
O2363 C2356 1.299 . S
O2364 Zn2352 1.898 . S
O2364 C2359 1.167 . S
O2365 Zn2354 2.120 . S
O2365 C2359 1.299 . S
O2366 Zn2354 2.114 . S
O2366 C2368 1.166 . S
O2367 Zn2352 1.905 . S
O2367 C2368 1.182 . S
C2368 O2366 1.166 . S
C2368 O2367 1.182 . S
O2369 Zn2354 2.080 . S
O2369 C2372 1.305 . S
O2370 Zn2353 1.920 . S
O2370 C2372 1.234 . S
C2371 O2357 1.305 . S
C2371 O2358 1.234 . S
C2372 O2369 1.305 . S
C2372 O2370 1.234 . S
Zn2373 O2379 1.920 . S
Zn2373 O2385 1.898 . S
Zn2373 O2388 1.905 . S
Zn2374 O2382 1.905 . S
Zn2374 O2383 1.898 . S
Zn2374 O2391 1.920 . S
Zn2375 O2378 2.080 . S
Zn2375 O2381 2.114 . S
Zn2375 O2384 2.120 . S
Zn2375 O2386 2.120 . S
Zn2375 O2387 2.114 . S
Zn2375 O2390 2.080 . S
C2376 O2381 1.166 . S
C2376 O2382 1.182 . S
C2377 O2383 1.167 . S
C2377 O2384 1.299 . S
O2378 Zn2375 2.080 . S
O2378 C2392 1.305 . S
O2379 Zn2373 1.920 . S
O2379 C2392 1.234 . S
C2380 O2385 1.167 . S
C2380 O2386 1.299 . S
O2381 Zn2375 2.114 . S
O2381 C2376 1.166 . S
O2382 Zn2374 1.905 . S
O2382 C2376 1.182 . S
O2383 Zn2374 1.898 . S
O2383 C2377 1.167 . S
O2384 Zn2375 2.120 . S
O2384 C2377 1.299 . S
O2385 Zn2373 1.898 . S
O2385 C2380 1.167 . S
O2386 Zn2375 2.120 . S
O2386 C2380 1.299 . S
O2387 Zn2375 2.114 . S
O2387 C2389 1.166 . S
O2388 Zn2373 1.905 . S
O2388 C2389 1.182 . S
C2389 O2387 1.166 . S
C2389 O2388 1.182 . S
O2390 Zn2375 2.080 . S
O2390 C2393 1.305 . S
O2391 Zn2374 1.920 . S
O2391 C2393 1.234 . S
C2392 O2378 1.305 . S
C2392 O2379 1.234 . S
C2393 O2390 1.305 . S
C2393 O2391 1.234 . S
Zn2394 O2400 1.920 . S
Zn2394 O2406 1.898 . S
Zn2394 O2409 1.905 . S
Zn2395 O2403 1.905 . S
Zn2395 O2404 1.898 . S
Zn2395 O2412 1.920 . S
Zn2396 O2399 2.080 . S
Zn2396 O2402 2.114 . S
Zn2396 O2405 2.120 1_545 S
Zn2396 O2407 2.120 . S
Zn2396 O2408 2.114 . S
Zn2396 O2411 2.080 . S
C2397 O2402 1.166 1_565 S
C2397 O2403 1.182 . S
C2398 O2404 1.167 . S
C2398 O2405 1.299 . S
O2399 Zn2396 2.080 . S
O2399 C2413 1.305 . S
O2400 Zn2394 1.920 . S
O2400 C2413 1.234 . S
C2401 O2406 1.167 . S
C2401 O2407 1.299 . S
O2402 Zn2396 2.114 . S
O2402 C2397 1.166 1_545 S
O2403 Zn2395 1.905 . S
O2403 C2397 1.182 . S
O2404 Zn2395 1.898 . S
O2404 C2398 1.167 . S
O2405 Zn2396 2.120 1_565 S
O2405 C2398 1.299 . S
O2406 Zn2394 1.898 . S
O2406 C2401 1.167 . S
O2407 Zn2396 2.120 . S
O2407 C2401 1.299 . S
O2408 Zn2396 2.114 . S
O2408 C2410 1.166 . S
O2409 Zn2394 1.905 . S
O2409 C2410 1.182 . S
C2410 O2408 1.166 . S
C2410 O2409 1.182 . S
O2411 Zn2396 2.080 . S
O2411 C2414 1.305 . S
O2412 Zn2395 1.920 . S
O2412 C2414 1.234 1_565 S
C2413 O2399 1.305 . S
C2413 O2400 1.234 . S
C2414 O2411 1.305 . S
C2414 O2412 1.234 1_545 S
Zn2415 O2421 1.920 . S
Zn2415 O2427 1.898 . S
Zn2415 O2430 1.905 . S
Zn2416 O2424 1.905 . S
Zn2416 O2425 1.898 . S
Zn2416 O2433 1.920 . S
Zn2417 O2420 2.080 . S
Zn2417 O2423 2.114 . S
Zn2417 O2426 2.120 1_655 S
Zn2417 O2428 2.120 . S
Zn2417 O2429 2.114 . S
Zn2417 O2432 2.080 . S
C2418 O2423 1.166 1_455 S
C2418 O2424 1.182 . S
C2419 O2425 1.167 . S
C2419 O2426 1.299 . S
O2420 Zn2417 2.080 . S
O2420 C2434 1.305 . S
O2421 Zn2415 1.920 . S
O2421 C2434 1.234 . S
C2422 O2427 1.167 . S
C2422 O2428 1.299 . S
O2423 Zn2417 2.114 . S
O2423 C2418 1.166 1_655 S
O2424 Zn2416 1.905 . S
O2424 C2418 1.182 . S
O2425 Zn2416 1.898 . S
O2425 C2419 1.167 . S
O2426 Zn2417 2.120 1_455 S
O2426 C2419 1.299 . S
O2427 Zn2415 1.898 . S
O2427 C2422 1.167 . S
O2428 Zn2417 2.120 . S
O2428 C2422 1.299 . S
O2429 Zn2417 2.114 . S
O2429 C2431 1.166 . S
O2430 Zn2415 1.905 . S
O2430 C2431 1.182 . S
C2431 O2429 1.166 . S
C2431 O2430 1.182 . S
O2432 Zn2417 2.080 . S
O2432 C2435 1.305 . S
O2433 Zn2416 1.920 . S
O2433 C2435 1.234 1_455 S
C2434 O2420 1.305 . S
C2434 O2421 1.234 . S
C2435 O2432 1.305 . S
C2435 O2433 1.234 1_655 S
Zn2436 O2442 1.920 1_554 S
Zn2436 O2448 1.898 1_554 S
Zn2436 O2451 1.905 . S
Zn2437 O2445 1.905 . S
Zn2437 O2446 1.898 . S
Zn2437 O2454 1.920 . S
Zn2438 O2441 2.080 . S
Zn2438 O2444 2.114 . S
Zn2438 O2447 2.120 . S
Zn2438 O2449 2.120 . S
Zn2438 O2450 2.114 1_556 S
Zn2438 O2453 2.080 . S
C2439 O2444 1.166 . S
C2439 O2445 1.182 . S
C2440 O2446 1.167 . S
C2440 O2447 1.299 . S
O2441 Zn2438 2.080 . S
O2441 C2455 1.305 . S
O2442 Zn2436 1.920 1_556 S
O2442 C2455 1.234 . S
C2443 O2448 1.167 . S
C2443 O2449 1.299 . S
O2444 Zn2438 2.114 . S
O2444 C2439 1.166 . S
O2445 Zn2437 1.905 . S
O2445 C2439 1.182 . S
O2446 Zn2437 1.898 . S
O2446 C2440 1.167 . S
O2447 Zn2438 2.120 . S
O2447 C2440 1.299 . S
O2448 Zn2436 1.898 1_556 S
O2448 C2443 1.167 . S
O2449 Zn2438 2.120 . S
O2449 C2443 1.299 . S
O2450 Zn2438 2.114 1_554 S
O2450 C2452 1.166 . S
O2451 Zn2436 1.905 . S
O2451 C2452 1.182 . S
C2452 O2450 1.166 . S
C2452 O2451 1.182 . S
O2453 Zn2438 2.080 . S
O2453 C2456 1.305 . S
O2454 Zn2437 1.920 . S
O2454 C2456 1.234 . S
C2455 O2441 1.305 . S
C2455 O2442 1.234 . S
C2456 O2453 1.305 . S
C2456 O2454 1.234 . S
Zn2457 O2463 1.920 . S
Zn2457 O2469 1.898 . S
Zn2457 O2472 1.905 . S
Zn2458 O2466 1.905 . S
Zn2458 O2467 1.898 . S
Zn2458 O2475 1.920 . S
Zn2459 O2462 2.080 . S
Zn2459 O2465 2.114 . S
Zn2459 O2468 2.120 . S
Zn2459 O2470 2.120 . S
Zn2459 O2471 2.114 . S
Zn2459 O2474 2.080 . S
C2460 O2465 1.166 . S
C2460 O2466 1.182 . S
C2461 O2467 1.167 . S
C2461 O2468 1.299 . S
O2462 Zn2459 2.080 . S
O2462 C2476 1.305 . S
O2463 Zn2457 1.920 . S
O2463 C2476 1.234 . S
C2464 O2469 1.167 . S
C2464 O2470 1.299 . S
O2465 Zn2459 2.114 . S
O2465 C2460 1.166 . S
O2466 Zn2458 1.905 . S
O2466 C2460 1.182 . S
O2467 Zn2458 1.898 . S
O2467 C2461 1.167 . S
O2468 Zn2459 2.120 . S
O2468 C2461 1.299 . S
O2469 Zn2457 1.898 . S
O2469 C2464 1.167 . S
O2470 Zn2459 2.120 . S
O2470 C2464 1.299 . S
O2471 Zn2459 2.114 . S
O2471 C2473 1.166 . S
O2472 Zn2457 1.905 . S
O2472 C2473 1.182 . S
C2473 O2471 1.166 . S
C2473 O2472 1.182 . S
O2474 Zn2459 2.080 . S
O2474 C2477 1.305 . S
O2475 Zn2458 1.920 . S
O2475 C2477 1.234 . S
C2476 O2462 1.305 . S
C2476 O2463 1.234 . S
C2477 O2474 1.305 . S
C2477 O2475 1.234 . S
Zn2478 O2484 1.920 . S
Zn2478 O2490 1.898 . S
Zn2478 O2493 1.905 . S
Zn2479 O2487 1.905 . S
Zn2479 O2488 1.898 . S
Zn2479 O2496 1.920 . S
Zn2480 O2483 2.080 . S
Zn2480 O2486 2.114 . S
Zn2480 O2489 2.120 . S
Zn2480 O2491 2.120 . S
Zn2480 O2492 2.114 . S
Zn2480 O2495 2.080 . S
C2481 O2486 1.166 . S
C2481 O2487 1.182 . S
C2482 O2488 1.167 . S
C2482 O2489 1.299 . S
O2483 Zn2480 2.080 . S
O2483 C2497 1.305 . S
O2484 Zn2478 1.920 . S
O2484 C2497 1.234 . S
C2485 O2490 1.167 . S
C2485 O2491 1.299 . S
O2486 Zn2480 2.114 . S
O2486 C2481 1.166 . S
O2487 Zn2479 1.905 . S
O2487 C2481 1.182 . S
O2488 Zn2479 1.898 . S
O2488 C2482 1.167 . S
O2489 Zn2480 2.120 . S
O2489 C2482 1.299 . S
O2490 Zn2478 1.898 . S
O2490 C2485 1.167 . S
O2491 Zn2480 2.120 . S
O2491 C2485 1.299 . S
O2492 Zn2480 2.114 . S
O2492 C2494 1.166 . S
O2493 Zn2478 1.905 . S
O2493 C2494 1.182 . S
C2494 O2492 1.166 . S
C2494 O2493 1.182 . S
O2495 Zn2480 2.080 . S
O2495 C2498 1.305 . S
O2496 Zn2479 1.920 . S
O2496 C2498 1.234 . S
C2497 O2483 1.305 . S
C2497 O2484 1.234 . S
C2498 O2495 1.305 . S
C2498 O2496 1.234 . S
Zn2499 O2505 1.920 . S
Zn2499 O2511 1.898 . S
Zn2499 O2514 1.905 . S
Zn2500 O2508 1.905 . S
Zn2500 O2509 1.898 . S
Zn2500 O2517 1.920 . S
Zn2501 O2504 2.080 . S
Zn2501 O2507 2.114 . S
Zn2501 O2510 2.120 1_545 S
Zn2501 O2512 2.120 . S
Zn2501 O2513 2.114 . S
Zn2501 O2516 2.080 . S
C2502 O2507 1.166 1_565 S
C2502 O2508 1.182 . S
C2503 O2509 1.167 . S
C2503 O2510 1.299 . S
O2504 Zn2501 2.080 . S
O2504 C2518 1.305 . S
O2505 Zn2499 1.920 . S
O2505 C2518 1.234 . S
C2506 O2511 1.167 . S
C2506 O2512 1.299 . S
O2507 Zn2501 2.114 . S
O2507 C2502 1.166 1_545 S
O2508 Zn2500 1.905 . S
O2508 C2502 1.182 . S
O2509 Zn2500 1.898 . S
O2509 C2503 1.167 . S
O2510 Zn2501 2.120 1_565 S
O2510 C2503 1.299 . S
O2511 Zn2499 1.898 . S
O2511 C2506 1.167 . S
O2512 Zn2501 2.120 . S
O2512 C2506 1.299 . S
O2513 Zn2501 2.114 . S
O2513 C2515 1.166 . S
O2514 Zn2499 1.905 . S
O2514 C2515 1.182 . S
C2515 O2513 1.166 . S
C2515 O2514 1.182 . S
O2516 Zn2501 2.080 . S
O2516 C2519 1.305 . S
O2517 Zn2500 1.920 . S
O2517 C2519 1.234 1_565 S
C2518 O2504 1.305 . S
C2518 O2505 1.234 . S
C2519 O2516 1.305 . S
C2519 O2517 1.234 1_545 S
Zn2520 O2526 1.920 . S
Zn2520 O2532 1.898 . S
Zn2520 O2535 1.905 . S
Zn2521 O2529 1.905 . S
Zn2521 O2530 1.898 . S
Zn2521 O2538 1.920 . S
Zn2522 O2525 2.080 . S
Zn2522 O2528 2.114 . S
Zn2522 O2531 2.120 . S
Zn2522 O2533 2.120 . S
Zn2522 O2534 2.114 . S
Zn2522 O2537 2.080 . S
C2523 O2528 1.166 . S
C2523 O2529 1.182 . S
C2524 O2530 1.167 . S
C2524 O2531 1.299 . S
O2525 Zn2522 2.080 . S
O2525 C2539 1.305 . S
O2526 Zn2520 1.920 . S
O2526 C2539 1.234 . S
C2527 O2532 1.167 . S
C2527 O2533 1.299 . S
O2528 Zn2522 2.114 . S
O2528 C2523 1.166 . S
O2529 Zn2521 1.905 . S
O2529 C2523 1.182 . S
O2530 Zn2521 1.898 . S
O2530 C2524 1.167 . S
O2531 Zn2522 2.120 . S
O2531 C2524 1.299 . S
O2532 Zn2520 1.898 . S
O2532 C2527 1.167 . S
O2533 Zn2522 2.120 . S
O2533 C2527 1.299 . S
O2534 Zn2522 2.114 . S
O2534 C2536 1.166 . S
O2535 Zn2520 1.905 . S
O2535 C2536 1.182 . S
C2536 O2534 1.166 . S
C2536 O2535 1.182 . S
O2537 Zn2522 2.080 . S
O2537 C2540 1.305 . S
O2538 Zn2521 1.920 . S
O2538 C2540 1.234 . S
C2539 O2525 1.305 . S
C2539 O2526 1.234 . S
C2540 O2537 1.305 . S
C2540 O2538 1.234 . S
Zn2541 O2547 1.920 . S
Zn2541 O2553 1.898 . S
Zn2541 O2556 1.905 . S
Zn2542 O2550 1.905 . S
Zn2542 O2551 1.898 . S
Zn2542 O2559 1.920 . S
Zn2543 O2546 2.080 . S
Zn2543 O2549 2.114 . S
Zn2543 O2552 2.120 . S
Zn2543 O2554 2.120 . S
Zn2543 O2555 2.114 . S
Zn2543 O2558 2.080 . S
C2544 O2549 1.166 . S
C2544 O2550 1.182 . S
C2545 O2551 1.167 . S
C2545 O2552 1.299 . S
O2546 Zn2543 2.080 . S
O2546 C2560 1.305 . S
O2547 Zn2541 1.920 . S
O2547 C2560 1.234 . S
C2548 O2553 1.167 . S
C2548 O2554 1.299 . S
O2549 Zn2543 2.114 . S
O2549 C2544 1.166 . S
O2550 Zn2542 1.905 . S
O2550 C2544 1.182 . S
O2551 Zn2542 1.898 . S
O2551 C2545 1.167 . S
O2552 Zn2543 2.120 . S
O2552 C2545 1.299 . S
O2553 Zn2541 1.898 . S
O2553 C2548 1.167 . S
O2554 Zn2543 2.120 . S
O2554 C2548 1.299 . S
O2555 Zn2543 2.114 . S
O2555 C2557 1.166 . S
O2556 Zn2541 1.905 . S
O2556 C2557 1.182 . S
C2557 O2555 1.166 . S
C2557 O2556 1.182 . S
O2558 Zn2543 2.080 . S
O2558 C2561 1.305 . S
O2559 Zn2542 1.920 . S
O2559 C2561 1.234 . S
C2560 O2546 1.305 . S
C2560 O2547 1.234 . S
C2561 O2558 1.305 . S
C2561 O2559 1.234 . S
Zn2562 O2568 1.920 . S
Zn2562 O2574 1.898 . S
Zn2562 O2577 1.905 . S
Zn2563 O2571 1.905 . S
Zn2563 O2572 1.898 . S
Zn2563 O2580 1.920 . S
Zn2564 O2567 2.080 . S
Zn2564 O2570 2.114 . S
Zn2564 O2573 2.120 . S
Zn2564 O2575 2.120 . S
Zn2564 O2576 2.114 . S
Zn2564 O2579 2.080 . S
C2565 O2570 1.166 . S
C2565 O2571 1.182 . S
C2566 O2572 1.167 . S
C2566 O2573 1.299 . S
O2567 Zn2564 2.080 . S
O2567 C2581 1.305 . S
O2568 Zn2562 1.920 . S
O2568 C2581 1.234 . S
C2569 O2574 1.167 . S
C2569 O2575 1.299 . S
O2570 Zn2564 2.114 . S
O2570 C2565 1.166 . S
O2571 Zn2563 1.905 . S
O2571 C2565 1.182 . S
O2572 Zn2563 1.898 . S
O2572 C2566 1.167 . S
O2573 Zn2564 2.120 . S
O2573 C2566 1.299 . S
O2574 Zn2562 1.898 . S
O2574 C2569 1.167 . S
O2575 Zn2564 2.120 . S
O2575 C2569 1.299 . S
O2576 Zn2564 2.114 . S
O2576 C2578 1.166 . S
O2577 Zn2562 1.905 . S
O2577 C2578 1.182 . S
C2578 O2576 1.166 . S
C2578 O2577 1.182 . S
O2579 Zn2564 2.080 . S
O2579 C2582 1.305 . S
O2580 Zn2563 1.920 . S
O2580 C2582 1.234 . S
C2581 O2567 1.305 . S
C2581 O2568 1.234 . S
C2582 O2579 1.305 . S
C2582 O2580 1.234 . S
Zn2583 O2589 1.920 . S
Zn2583 O2595 1.898 . S
Zn2583 O2598 1.905 . S
Zn2584 O2592 1.905 . S
Zn2584 O2593 1.898 . S
Zn2584 O2601 1.920 . S
Zn2585 O2588 2.080 . S
Zn2585 O2591 2.114 . S
Zn2585 O2594 2.120 . S
Zn2585 O2596 2.120 . S
Zn2585 O2597 2.114 . S
Zn2585 O2600 2.080 . S
C2586 O2591 1.166 . S
C2586 O2592 1.182 . S
C2587 O2593 1.167 . S
C2587 O2594 1.299 . S
O2588 Zn2585 2.080 . S
O2588 C2602 1.305 . S
O2589 Zn2583 1.920 . S
O2589 C2602 1.234 . S
C2590 O2595 1.167 . S
C2590 O2596 1.299 . S
O2591 Zn2585 2.114 . S
O2591 C2586 1.166 . S
O2592 Zn2584 1.905 . S
O2592 C2586 1.182 . S
O2593 Zn2584 1.898 . S
O2593 C2587 1.167 . S
O2594 Zn2585 2.120 . S
O2594 C2587 1.299 . S
O2595 Zn2583 1.898 . S
O2595 C2590 1.167 . S
O2596 Zn2585 2.120 . S
O2596 C2590 1.299 . S
O2597 Zn2585 2.114 . S
O2597 C2599 1.166 . S
O2598 Zn2583 1.905 . S
O2598 C2599 1.182 . S
C2599 O2597 1.166 . S
C2599 O2598 1.182 . S
O2600 Zn2585 2.080 . S
O2600 C2603 1.305 . S
O2601 Zn2584 1.920 . S
O2601 C2603 1.234 . S
C2602 O2588 1.305 . S
C2602 O2589 1.234 . S
C2603 O2600 1.305 . S
C2603 O2601 1.234 . S
Zn2604 O2610 1.920 . S
Zn2604 O2616 1.898 . S
Zn2604 O2619 1.905 . S
Zn2605 O2613 1.905 . S
Zn2605 O2614 1.898 . S
Zn2605 O2622 1.920 . S
Zn2606 O2609 2.080 . S
Zn2606 O2612 2.114 . S
Zn2606 O2615 2.120 . S
Zn2606 O2617 2.120 1_545 S
Zn2606 O2618 2.114 . S
Zn2606 O2621 2.080 . S
C2607 O2612 1.166 . S
C2607 O2613 1.182 . S
C2608 O2614 1.167 . S
C2608 O2615 1.299 . S
O2609 Zn2606 2.080 . S
O2609 C2623 1.305 . S
O2610 Zn2604 1.920 . S
O2610 C2623 1.234 1_565 S
C2611 O2616 1.167 . S
C2611 O2617 1.299 . S
O2612 Zn2606 2.114 . S
O2612 C2607 1.166 . S
O2613 Zn2605 1.905 . S
O2613 C2607 1.182 . S
O2614 Zn2605 1.898 . S
O2614 C2608 1.167 . S
O2615 Zn2606 2.120 . S
O2615 C2608 1.299 . S
O2616 Zn2604 1.898 . S
O2616 C2611 1.167 . S
O2617 Zn2606 2.120 1_565 S
O2617 C2611 1.299 . S
O2618 Zn2606 2.114 . S
O2618 C2620 1.166 1_545 S
O2619 Zn2604 1.905 . S
O2619 C2620 1.182 . S
C2620 O2618 1.166 1_565 S
C2620 O2619 1.182 . S
O2621 Zn2606 2.080 . S
O2621 C2624 1.305 . S
O2622 Zn2605 1.920 . S
O2622 C2624 1.234 . S
C2623 O2609 1.305 . S
C2623 O2610 1.234 1_545 S
C2624 O2621 1.305 . S
C2624 O2622 1.234 . S
Zn2625 O2631 1.920 . S
Zn2625 O2637 1.898 . S
Zn2625 O2640 1.905 . S
Zn2626 O2634 1.905 . S
Zn2626 O2635 1.898 . S
Zn2626 O2643 1.920 . S
Zn2627 O2630 2.080 . S
Zn2627 O2633 2.114 . S
Zn2627 O2636 2.120 1_655 S
Zn2627 O2638 2.120 . S
Zn2627 O2639 2.114 . S
Zn2627 O2642 2.080 . S
C2628 O2633 1.166 1_455 S
C2628 O2634 1.182 . S
C2629 O2635 1.167 . S
C2629 O2636 1.299 . S
O2630 Zn2627 2.080 . S
O2630 C2644 1.305 . S
O2631 Zn2625 1.920 . S
O2631 C2644 1.234 . S
C2632 O2637 1.167 . S
C2632 O2638 1.299 . S
O2633 Zn2627 2.114 . S
O2633 C2628 1.166 1_655 S
O2634 Zn2626 1.905 . S
O2634 C2628 1.182 . S
O2635 Zn2626 1.898 . S
O2635 C2629 1.167 . S
O2636 Zn2627 2.120 1_455 S
O2636 C2629 1.299 . S
O2637 Zn2625 1.898 . S
O2637 C2632 1.167 . S
O2638 Zn2627 2.120 . S
O2638 C2632 1.299 . S
O2639 Zn2627 2.114 . S
O2639 C2641 1.166 . S
O2640 Zn2625 1.905 . S
O2640 C2641 1.182 . S
C2641 O2639 1.166 . S
C2641 O2640 1.182 . S
O2642 Zn2627 2.080 . S
O2642 C2645 1.305 . S
O2643 Zn2626 1.920 . S
O2643 C2645 1.234 1_455 S
C2644 O2630 1.305 . S
C2644 O2631 1.234 . S
C2645 O2642 1.305 . S
C2645 O2643 1.234 1_655 S
Zn2646 O2652 1.920 . S
Zn2646 O2658 1.898 . S
Zn2646 O2661 1.905 . S
Zn2647 O2655 1.905 . S
Zn2647 O2656 1.898 . S
Zn2647 O2664 1.920 . S
Zn2648 O2651 2.080 . S
Zn2648 O2654 2.114 . S
Zn2648 O2657 2.120 . S
Zn2648 O2659 2.120 . S
Zn2648 O2660 2.114 . S
Zn2648 O2663 2.080 . S
C2649 O2654 1.166 . S
C2649 O2655 1.182 . S
C2650 O2656 1.167 . S
C2650 O2657 1.299 . S
O2651 Zn2648 2.080 . S
O2651 C2665 1.305 . S
O2652 Zn2646 1.920 . S
O2652 C2665 1.234 . S
C2653 O2658 1.167 . S
C2653 O2659 1.299 . S
O2654 Zn2648 2.114 . S
O2654 C2649 1.166 . S
O2655 Zn2647 1.905 . S
O2655 C2649 1.182 . S
O2656 Zn2647 1.898 . S
O2656 C2650 1.167 . S
O2657 Zn2648 2.120 . S
O2657 C2650 1.299 . S
O2658 Zn2646 1.898 . S
O2658 C2653 1.167 . S
O2659 Zn2648 2.120 . S
O2659 C2653 1.299 . S
O2660 Zn2648 2.114 . S
O2660 C2662 1.166 . S
O2661 Zn2646 1.905 . S
O2661 C2662 1.182 . S
C2662 O2660 1.166 . S
C2662 O2661 1.182 . S
O2663 Zn2648 2.080 . S
O2663 C2666 1.305 . S
O2664 Zn2647 1.920 . S
O2664 C2666 1.234 . S
C2665 O2651 1.305 . S
C2665 O2652 1.234 . S
C2666 O2663 1.305 . S
C2666 O2664 1.234 . S
Zn2667 O2673 1.920 . S
Zn2667 O2679 1.898 . S
Zn2667 O2682 1.905 . S
Zn2668 O2676 1.905 . S
Zn2668 O2677 1.898 . S
Zn2668 O2685 1.920 . S
Zn2669 O2672 2.080 . S
Zn2669 O2675 2.114 . S
Zn2669 O2678 2.120 . S
Zn2669 O2680 2.120 . S
Zn2669 O2681 2.114 . S
Zn2669 O2684 2.080 . S
C2670 O2675 1.166 . S
C2670 O2676 1.182 . S
C2671 O2677 1.167 . S
C2671 O2678 1.299 . S
O2672 Zn2669 2.080 . S
O2672 C2686 1.305 . S
O2673 Zn2667 1.920 . S
O2673 C2686 1.234 . S
C2674 O2679 1.167 . S
C2674 O2680 1.299 . S
O2675 Zn2669 2.114 . S
O2675 C2670 1.166 . S
O2676 Zn2668 1.905 . S
O2676 C2670 1.182 . S
O2677 Zn2668 1.898 . S
O2677 C2671 1.167 . S
O2678 Zn2669 2.120 . S
O2678 C2671 1.299 . S
O2679 Zn2667 1.898 . S
O2679 C2674 1.167 . S
O2680 Zn2669 2.120 . S
O2680 C2674 1.299 . S
O2681 Zn2669 2.114 . S
O2681 C2683 1.166 . S
O2682 Zn2667 1.905 . S
O2682 C2683 1.182 . S
C2683 O2681 1.166 . S
C2683 O2682 1.182 . S
O2684 Zn2669 2.080 . S
O2684 C2687 1.305 . S
O2685 Zn2668 1.920 . S
O2685 C2687 1.234 . S
C2686 O2672 1.305 . S
C2686 O2673 1.234 . S
C2687 O2684 1.305 . S
C2687 O2685 1.234 . S
Zn2688 O2694 1.920 1_545 S
Zn2688 O2700 1.898 1_545 S
Zn2688 O2703 1.905 . S
Zn2689 O2697 1.905 . S
Zn2689 O2698 1.898 . S
Zn2689 O2706 1.920 . S
Zn2690 O2693 2.080 . S
Zn2690 O2696 2.114 . S
Zn2690 O2699 2.120 . S
Zn2690 O2701 2.120 . S
Zn2690 O2702 2.114 1_565 S
Zn2690 O2705 2.080 . S
C2691 O2696 1.166 . S
C2691 O2697 1.182 . S
C2692 O2698 1.167 . S
C2692 O2699 1.299 . S
O2693 Zn2690 2.080 . S
O2693 C2707 1.305 . S
O2694 Zn2688 1.920 1_565 S
O2694 C2707 1.234 . S
C2695 O2700 1.167 . S
C2695 O2701 1.299 . S
O2696 Zn2690 2.114 . S
O2696 C2691 1.166 . S
O2697 Zn2689 1.905 . S
O2697 C2691 1.182 . S
O2698 Zn2689 1.898 . S
O2698 C2692 1.167 . S
O2699 Zn2690 2.120 . S
O2699 C2692 1.299 . S
O2700 Zn2688 1.898 1_565 S
O2700 C2695 1.167 . S
O2701 Zn2690 2.120 . S
O2701 C2695 1.299 . S
O2702 Zn2690 2.114 1_545 S
O2702 C2704 1.166 . S
O2703 Zn2688 1.905 . S
O2703 C2704 1.182 . S
C2704 O2702 1.166 . S
C2704 O2703 1.182 . S
O2705 Zn2690 2.080 . S
O2705 C2708 1.305 . S
O2706 Zn2689 1.920 . S
O2706 C2708 1.234 . S
C2707 O2693 1.305 . S
C2707 O2694 1.234 . S
C2708 O2705 1.305 . S
C2708 O2706 1.234 . S
Zn2709 O2715 1.920 1_655 S
Zn2709 O2721 1.898 1_655 S
Zn2709 O2724 1.905 . S
Zn2710 O2718 1.905 . S
Zn2710 O2719 1.898 . S
Zn2710 O2727 1.920 . S
Zn2711 O2714 2.080 . S
Zn2711 O2717 2.114 . S
Zn2711 O2720 2.120 1_556 S
Zn2711 O2722 2.120 . S
Zn2711 O2723 2.114 1_455 S
Zn2711 O2726 2.080 . S
C2712 O2717 1.166 1_554 S
C2712 O2718 1.182 . S
C2713 O2719 1.167 . S
C2713 O2720 1.299 . S
O2714 Zn2711 2.080 . S
O2714 C2728 1.305 . S
O2715 Zn2709 1.920 1_455 S
O2715 C2728 1.234 . S
C2716 O2721 1.167 . S
C2716 O2722 1.299 . S
O2717 Zn2711 2.114 . S
O2717 C2712 1.166 1_556 S
O2718 Zn2710 1.905 . S
O2718 C2712 1.182 . S
O2719 Zn2710 1.898 . S
O2719 C2713 1.167 . S
O2720 Zn2711 2.120 1_554 S
O2720 C2713 1.299 . S
O2721 Zn2709 1.898 1_455 S
O2721 C2716 1.167 . S
O2722 Zn2711 2.120 . S
O2722 C2716 1.299 . S
O2723 Zn2711 2.114 1_655 S
O2723 C2725 1.166 . S
O2724 Zn2709 1.905 . S
O2724 C2725 1.182 . S
C2725 O2723 1.166 . S
C2725 O2724 1.182 . S
O2726 Zn2711 2.080 . S
O2726 C2729 1.305 . S
O2727 Zn2710 1.920 . S
O2727 C2729 1.234 1_554 S
C2728 O2714 1.305 . S
C2728 O2715 1.234 . S
C2729 O2726 1.305 . S
C2729 O2727 1.234 1_556 S
Zn2730 O2736 1.920 . S
Zn2730 O2742 1.898 . S
Zn2730 O2745 1.905 . S
Zn2731 O2739 1.905 . S
Zn2731 O2740 1.898 . S
Zn2731 O2748 1.920 . S
Zn2732 O2735 2.080 . S
Zn2732 O2738 2.114 . S
Zn2732 O2741 2.120 . S
Zn2732 O2743 2.120 . S
Zn2732 O2744 2.114 . S
Zn2732 O2747 2.080 . S
C2733 O2738 1.166 . S
C2733 O2739 1.182 . S
C2734 O2740 1.167 . S
C2734 O2741 1.299 . S
O2735 Zn2732 2.080 . S
O2735 C2749 1.305 . S
O2736 Zn2730 1.920 . S
O2736 C2749 1.234 . S
C2737 O2742 1.167 . S
C2737 O2743 1.299 . S
O2738 Zn2732 2.114 . S
O2738 C2733 1.166 . S
O2739 Zn2731 1.905 . S
O2739 C2733 1.182 . S
O2740 Zn2731 1.898 . S
O2740 C2734 1.167 . S
O2741 Zn2732 2.120 . S
O2741 C2734 1.299 . S
O2742 Zn2730 1.898 . S
O2742 C2737 1.167 . S
O2743 Zn2732 2.120 . S
O2743 C2737 1.299 . S
O2744 Zn2732 2.114 . S
O2744 C2746 1.166 . S
O2745 Zn2730 1.905 . S
O2745 C2746 1.182 . S
C2746 O2744 1.166 . S
C2746 O2745 1.182 . S
O2747 Zn2732 2.080 . S
O2747 C2750 1.305 . S
O2748 Zn2731 1.920 . S
O2748 C2750 1.234 . S
C2749 O2735 1.305 . S
C2749 O2736 1.234 . S
C2750 O2747 1.305 . S
C2750 O2748 1.234 . S
Zn2751 O2757 1.920 . S
Zn2751 O2763 1.898 . S
Zn2751 O2766 1.905 . S
Zn2752 O2760 1.905 . S
Zn2752 O2761 1.898 . S
Zn2752 O2769 1.920 . S
Zn2753 O2756 2.080 . S
Zn2753 O2759 2.114 . S
Zn2753 O2762 2.120 . S
Zn2753 O2764 2.120 . S
Zn2753 O2765 2.114 . S
Zn2753 O2768 2.080 . S
C2754 O2759 1.166 . S
C2754 O2760 1.182 . S
C2755 O2761 1.167 . S
C2755 O2762 1.299 . S
O2756 Zn2753 2.080 . S
O2756 C2770 1.305 . S
O2757 Zn2751 1.920 . S
O2757 C2770 1.234 . S
C2758 O2763 1.167 . S
C2758 O2764 1.299 . S
O2759 Zn2753 2.114 . S
O2759 C2754 1.166 . S
O2760 Zn2752 1.905 . S
O2760 C2754 1.182 . S
O2761 Zn2752 1.898 . S
O2761 C2755 1.167 . S
O2762 Zn2753 2.120 . S
O2762 C2755 1.299 . S
O2763 Zn2751 1.898 . S
O2763 C2758 1.167 . S
O2764 Zn2753 2.120 . S
O2764 C2758 1.299 . S
O2765 Zn2753 2.114 . S
O2765 C2767 1.166 . S
O2766 Zn2751 1.905 . S
O2766 C2767 1.182 . S
C2767 O2765 1.166 . S
C2767 O2766 1.182 . S
O2768 Zn2753 2.080 . S
O2768 C2771 1.305 . S
O2769 Zn2752 1.920 . S
O2769 C2771 1.234 . S
C2770 O2756 1.305 . S
C2770 O2757 1.234 . S
C2771 O2768 1.305 . S
C2771 O2769 1.234 . S
Zn2772 O2778 1.920 . S
Zn2772 O2784 1.898 . S
Zn2772 O2787 1.905 . S
Zn2773 O2781 1.905 . S
Zn2773 O2782 1.898 . S
Zn2773 O2790 1.920 . S
Zn2774 O2777 2.080 . S
Zn2774 O2780 2.114 . S
Zn2774 O2783 2.120 . S
Zn2774 O2785 2.120 . S
Zn2774 O2786 2.114 . S
Zn2774 O2789 2.080 . S
C2775 O2780 1.166 . S
C2775 O2781 1.182 . S
C2776 O2782 1.167 . S
C2776 O2783 1.299 . S
O2777 Zn2774 2.080 . S
O2777 C2791 1.305 . S
O2778 Zn2772 1.920 . S
O2778 C2791 1.234 . S
C2779 O2784 1.167 . S
C2779 O2785 1.299 . S
O2780 Zn2774 2.114 . S
O2780 C2775 1.166 . S
O2781 Zn2773 1.905 . S
O2781 C2775 1.182 . S
O2782 Zn2773 1.898 . S
O2782 C2776 1.167 . S
O2783 Zn2774 2.120 . S
O2783 C2776 1.299 . S
O2784 Zn2772 1.898 . S
O2784 C2779 1.167 . S
O2785 Zn2774 2.120 . S
O2785 C2779 1.299 . S
O2786 Zn2774 2.114 . S
O2786 C2788 1.166 . S
O2787 Zn2772 1.905 . S
O2787 C2788 1.182 . S
C2788 O2786 1.166 . S
C2788 O2787 1.182 . S
O2789 Zn2774 2.080 . S
O2789 C2792 1.305 . S
O2790 Zn2773 1.920 . S
O2790 C2792 1.234 . S
C2791 O2777 1.305 . S
C2791 O2778 1.234 . S
C2792 O2789 1.305 . S
C2792 O2790 1.234 . S
Zn2793 O2799 1.920 . S
Zn2793 O2805 1.898 . S
Zn2793 O2808 1.905 . S
Zn2794 O2802 1.905 . S
Zn2794 O2803 1.898 . S
Zn2794 O2811 1.920 . S
Zn2795 O2798 2.080 . S
Zn2795 O2801 2.114 . S
Zn2795 O2804 2.120 . S
Zn2795 O2806 2.120 . S
Zn2795 O2807 2.114 . S
Zn2795 O2810 2.080 . S
C2796 O2801 1.166 . S
C2796 O2802 1.182 . S
C2797 O2803 1.167 . S
C2797 O2804 1.299 . S
O2798 Zn2795 2.080 . S
O2798 C2812 1.305 . S
O2799 Zn2793 1.920 . S
O2799 C2812 1.234 . S
C2800 O2805 1.167 . S
C2800 O2806 1.299 . S
O2801 Zn2795 2.114 . S
O2801 C2796 1.166 . S
O2802 Zn2794 1.905 . S
O2802 C2796 1.182 . S
O2803 Zn2794 1.898 . S
O2803 C2797 1.167 . S
O2804 Zn2795 2.120 . S
O2804 C2797 1.299 . S
O2805 Zn2793 1.898 . S
O2805 C2800 1.167 . S
O2806 Zn2795 2.120 . S
O2806 C2800 1.299 . S
O2807 Zn2795 2.114 . S
O2807 C2809 1.166 . S
O2808 Zn2793 1.905 . S
O2808 C2809 1.182 . S
C2809 O2807 1.166 . S
C2809 O2808 1.182 . S
O2810 Zn2795 2.080 . S
O2810 C2813 1.305 . S
O2811 Zn2794 1.920 . S
O2811 C2813 1.234 . S
C2812 O2798 1.305 . S
C2812 O2799 1.234 . S
C2813 O2810 1.305 . S
C2813 O2811 1.234 . S
Zn2814 O2820 1.920 . S
Zn2814 O2826 1.898 . S
Zn2814 O2829 1.905 . S
Zn2815 O2823 1.905 . S
Zn2815 O2824 1.898 . S
Zn2815 O2832 1.920 . S
Zn2816 O2819 2.080 . S
Zn2816 O2822 2.114 . S
Zn2816 O2825 2.120 1_554 S
Zn2816 O2827 2.120 . S
Zn2816 O2828 2.114 . S
Zn2816 O2831 2.080 . S
C2817 O2822 1.166 1_556 S
C2817 O2823 1.182 . S
C2818 O2824 1.167 . S
C2818 O2825 1.299 . S
O2819 Zn2816 2.080 . S
O2819 C2833 1.305 . S
O2820 Zn2814 1.920 . S
O2820 C2833 1.234 . S
C2821 O2826 1.167 . S
C2821 O2827 1.299 . S
O2822 Zn2816 2.114 . S
O2822 C2817 1.166 1_554 S
O2823 Zn2815 1.905 . S
O2823 C2817 1.182 . S
O2824 Zn2815 1.898 . S
O2824 C2818 1.167 . S
O2825 Zn2816 2.120 1_556 S
O2825 C2818 1.299 . S
O2826 Zn2814 1.898 . S
O2826 C2821 1.167 . S
O2827 Zn2816 2.120 . S
O2827 C2821 1.299 . S
O2828 Zn2816 2.114 . S
O2828 C2830 1.166 . S
O2829 Zn2814 1.905 . S
O2829 C2830 1.182 . S
C2830 O2828 1.166 . S
C2830 O2829 1.182 . S
O2831 Zn2816 2.080 . S
O2831 C2834 1.305 . S
O2832 Zn2815 1.920 . S
O2832 C2834 1.234 1_556 S
C2833 O2819 1.305 . S
C2833 O2820 1.234 . S
C2834 O2831 1.305 . S
C2834 O2832 1.234 1_554 S
Zn2835 O2841 1.920 . S
Zn2835 O2847 1.898 . S
Zn2835 O2850 1.905 . S
Zn2836 O2844 1.905 . S
Zn2836 O2845 1.898 . S
Zn2836 O2853 1.920 . S
Zn2837 O2840 2.080 . S
Zn2837 O2843 2.114 . S
Zn2837 O2846 2.120 . S
Zn2837 O2848 2.120 . S
Zn2837 O2849 2.114 . S
Zn2837 O2852 2.080 . S
C2838 O2843 1.166 . S
C2838 O2844 1.182 . S
C2839 O2845 1.167 . S
C2839 O2846 1.299 . S
O2840 Zn2837 2.080 . S
O2840 C2854 1.305 . S
O2841 Zn2835 1.920 . S
O2841 C2854 1.234 . S
C2842 O2847 1.167 . S
C2842 O2848 1.299 . S
O2843 Zn2837 2.114 . S
O2843 C2838 1.166 . S
O2844 Zn2836 1.905 . S
O2844 C2838 1.182 . S
O2845 Zn2836 1.898 . S
O2845 C2839 1.167 . S
O2846 Zn2837 2.120 . S
O2846 C2839 1.299 . S
O2847 Zn2835 1.898 . S
O2847 C2842 1.167 . S
O2848 Zn2837 2.120 . S
O2848 C2842 1.299 . S
O2849 Zn2837 2.114 . S
O2849 C2851 1.166 . S
O2850 Zn2835 1.905 . S
O2850 C2851 1.182 . S
C2851 O2849 1.166 . S
C2851 O2850 1.182 . S
O2852 Zn2837 2.080 . S
O2852 C2855 1.305 . S
O2853 Zn2836 1.920 . S
O2853 C2855 1.234 . S
C2854 O2840 1.305 . S
C2854 O2841 1.234 . S
C2855 O2852 1.305 . S
C2855 O2853 1.234 . S
Zn2856 O2862 1.920 . S
Zn2856 O2868 1.898 . S
Zn2856 O2871 1.905 . S
Zn2857 O2865 1.905 . S
Zn2857 O2866 1.898 . S
Zn2857 O2874 1.920 . S
Zn2858 O2861 2.080 . S
Zn2858 O2864 2.114 . S
Zn2858 O2867 2.120 . S
Zn2858 O2869 2.120 . S
Zn2858 O2870 2.114 . S
Zn2858 O2873 2.080 . S
C2859 O2864 1.166 . S
C2859 O2865 1.182 . S
C2860 O2866 1.167 . S
C2860 O2867 1.299 . S
O2861 Zn2858 2.080 . S
O2861 C2875 1.305 . S
O2862 Zn2856 1.920 . S
O2862 C2875 1.234 . S
C2863 O2868 1.167 . S
C2863 O2869 1.299 . S
O2864 Zn2858 2.114 . S
O2864 C2859 1.166 . S
O2865 Zn2857 1.905 . S
O2865 C2859 1.182 . S
O2866 Zn2857 1.898 . S
O2866 C2860 1.167 . S
O2867 Zn2858 2.120 . S
O2867 C2860 1.299 . S
O2868 Zn2856 1.898 . S
O2868 C2863 1.167 . S
O2869 Zn2858 2.120 . S
O2869 C2863 1.299 . S
O2870 Zn2858 2.114 . S
O2870 C2872 1.166 . S
O2871 Zn2856 1.905 . S
O2871 C2872 1.182 . S
C2872 O2870 1.166 . S
C2872 O2871 1.182 . S
O2873 Zn2858 2.080 . S
O2873 C2876 1.305 . S
O2874 Zn2857 1.920 . S
O2874 C2876 1.234 . S
C2875 O2861 1.305 . S
C2875 O2862 1.234 . S
C2876 O2873 1.305 . S
C2876 O2874 1.234 . S
Zn2877 O2883 1.920 . S
Zn2877 O2889 1.898 . S
Zn2877 O2892 1.905 . S
Zn2878 O2886 1.905 . S
Zn2878 O2887 1.898 . S
Zn2878 O2895 1.920 . S
Zn2879 O2882 2.080 . S
Zn2879 O2885 2.114 . S
Zn2879 O2888 2.120 . S
Zn2879 O2890 2.120 . S
Zn2879 O2891 2.114 . S
Zn2879 O2894 2.080 . S
C2880 O2885 1.166 . S
C2880 O2886 1.182 . S
C2881 O2887 1.167 . S
C2881 O2888 1.299 . S
O2882 Zn2879 2.080 . S
O2882 C2896 1.305 . S
O2883 Zn2877 1.920 . S
O2883 C2896 1.234 . S
C2884 O2889 1.167 . S
C2884 O2890 1.299 . S
O2885 Zn2879 2.114 . S
O2885 C2880 1.166 . S
O2886 Zn2878 1.905 . S
O2886 C2880 1.182 . S
O2887 Zn2878 1.898 . S
O2887 C2881 1.167 . S
O2888 Zn2879 2.120 . S
O2888 C2881 1.299 . S
O2889 Zn2877 1.898 . S
O2889 C2884 1.167 . S
O2890 Zn2879 2.120 . S
O2890 C2884 1.299 . S
O2891 Zn2879 2.114 . S
O2891 C2893 1.166 . S
O2892 Zn2877 1.905 . S
O2892 C2893 1.182 . S
C2893 O2891 1.166 . S
C2893 O2892 1.182 . S
O2894 Zn2879 2.080 . S
O2894 C2897 1.305 . S
O2895 Zn2878 1.920 . S
O2895 C2897 1.234 . S
C2896 O2882 1.305 . S
C2896 O2883 1.234 . S
C2897 O2894 1.305 . S
C2897 O2895 1.234 . S
Zn2898 O2904 1.920 . S
Zn2898 O2910 1.898 . S
Zn2898 O2913 1.905 . S
Zn2899 O2907 1.905 . S
Zn2899 O2908 1.898 . S
Zn2899 O2916 1.920 . S
Zn2900 O2903 2.080 . S
Zn2900 O2906 2.114 . S
Zn2900 O2909 2.120 . S
Zn2900 O2911 2.120 1_565 S
Zn2900 O2912 2.114 . S
Zn2900 O2915 2.080 . S
C2901 O2906 1.166 . S
C2901 O2907 1.182 . S
C2902 O2908 1.167 . S
C2902 O2909 1.299 . S
O2903 Zn2900 2.080 . S
O2903 C2917 1.305 . S
O2904 Zn2898 1.920 . S
O2904 C2917 1.234 1_545 S
C2905 O2910 1.167 . S
C2905 O2911 1.299 . S
O2906 Zn2900 2.114 . S
O2906 C2901 1.166 . S
O2907 Zn2899 1.905 . S
O2907 C2901 1.182 . S
O2908 Zn2899 1.898 . S
O2908 C2902 1.167 . S
O2909 Zn2900 2.120 . S
O2909 C2902 1.299 . S
O2910 Zn2898 1.898 . S
O2910 C2905 1.167 . S
O2911 Zn2900 2.120 1_545 S
O2911 C2905 1.299 . S
O2912 Zn2900 2.114 . S
O2912 C2914 1.166 1_565 S
O2913 Zn2898 1.905 . S
O2913 C2914 1.182 . S
C2914 O2912 1.166 1_545 S
C2914 O2913 1.182 . S
O2915 Zn2900 2.080 . S
O2915 C2918 1.305 . S
O2916 Zn2899 1.920 . S
O2916 C2918 1.234 . S
C2917 O2903 1.305 . S
C2917 O2904 1.234 1_565 S
C2918 O2915 1.305 . S
C2918 O2916 1.234 . S
Zn2919 O2925 1.920 . S
Zn2919 O2931 1.898 . S
Zn2919 O2934 1.905 . S
Zn2920 O2928 1.905 . S
Zn2920 O2929 1.898 . S
Zn2920 O2937 1.920 . S
Zn2921 O2924 2.080 . S
Zn2921 O2927 2.114 . S
Zn2921 O2930 2.120 1_455 S
Zn2921 O2932 2.120 . S
Zn2921 O2933 2.114 . S
Zn2921 O2936 2.080 . S
C2922 O2927 1.166 1_655 S
C2922 O2928 1.182 . S
C2923 O2929 1.167 . S
C2923 O2930 1.299 . S
O2924 Zn2921 2.080 . S
O2924 C2938 1.305 . S
O2925 Zn2919 1.920 . S
O2925 C2938 1.234 . S
C2926 O2931 1.167 . S
C2926 O2932 1.299 . S
O2927 Zn2921 2.114 . S
O2927 C2922 1.166 1_455 S
O2928 Zn2920 1.905 . S
O2928 C2922 1.182 . S
O2929 Zn2920 1.898 . S
O2929 C2923 1.167 . S
O2930 Zn2921 2.120 1_655 S
O2930 C2923 1.299 . S
O2931 Zn2919 1.898 . S
O2931 C2926 1.167 . S
O2932 Zn2921 2.120 . S
O2932 C2926 1.299 . S
O2933 Zn2921 2.114 . S
O2933 C2935 1.166 . S
O2934 Zn2919 1.905 . S
O2934 C2935 1.182 . S
C2935 O2933 1.166 . S
C2935 O2934 1.182 . S
O2936 Zn2921 2.080 . S
O2936 C2939 1.305 . S
O2937 Zn2920 1.920 . S
O2937 C2939 1.234 1_655 S
C2938 O2924 1.305 . S
C2938 O2925 1.234 . S
C2939 O2936 1.305 . S
C2939 O2937 1.234 1_455 S
Zn2940 O2946 1.920 1_556 S
Zn2940 O2952 1.898 1_556 S
Zn2940 O2955 1.905 . S
Zn2941 O2949 1.905 . S
Zn2941 O2950 1.898 . S
Zn2941 O2958 1.920 . S
Zn2942 O2945 2.080 . S
Zn2942 O2948 2.114 . S
Zn2942 O2951 2.120 . S
Zn2942 O2953 2.120 . S
Zn2942 O2954 2.114 1_554 S
Zn2942 O2957 2.080 . S
C2943 O2948 1.166 . S
C2943 O2949 1.182 . S
C2944 O2950 1.167 . S
C2944 O2951 1.299 . S
O2945 Zn2942 2.080 . S
O2945 C2959 1.305 . S
O2946 Zn2940 1.920 1_554 S
O2946 C2959 1.234 . S
C2947 O2952 1.167 . S
C2947 O2953 1.299 . S
O2948 Zn2942 2.114 . S
O2948 C2943 1.166 . S
O2949 Zn2941 1.905 . S
O2949 C2943 1.182 . S
O2950 Zn2941 1.898 . S
O2950 C2944 1.167 . S
O2951 Zn2942 2.120 . S
O2951 C2944 1.299 . S
O2952 Zn2940 1.898 1_554 S
O2952 C2947 1.167 . S
O2953 Zn2942 2.120 . S
O2953 C2947 1.299 . S
O2954 Zn2942 2.114 1_556 S
O2954 C2956 1.166 . S
O2955 Zn2940 1.905 . S
O2955 C2956 1.182 . S
C2956 O2954 1.166 . S
C2956 O2955 1.182 . S
O2957 Zn2942 2.080 . S
O2957 C2960 1.305 . S
O2958 Zn2941 1.920 . S
O2958 C2960 1.234 . S
C2959 O2945 1.305 . S
C2959 O2946 1.234 . S
C2960 O2957 1.305 . S
C2960 O2958 1.234 . S
Zn2961 O2967 1.920 . S
Zn2961 O2973 1.898 . S
Zn2961 O2976 1.905 . S
Zn2962 O2970 1.905 . S
Zn2962 O2971 1.898 . S
Zn2962 O2979 1.920 . S
Zn2963 O2966 2.080 . S
Zn2963 O2969 2.114 . S
Zn2963 O2972 2.120 . S
Zn2963 O2974 2.120 . S
Zn2963 O2975 2.114 . S
Zn2963 O2978 2.080 . S
C2964 O2969 1.166 . S
C2964 O2970 1.182 . S
C2965 O2971 1.167 . S
C2965 O2972 1.299 . S
O2966 Zn2963 2.080 . S
O2966 C2980 1.305 . S
O2967 Zn2961 1.920 . S
O2967 C2980 1.234 . S
C2968 O2973 1.167 . S
C2968 O2974 1.299 . S
O2969 Zn2963 2.114 . S
O2969 C2964 1.166 . S
O2970 Zn2962 1.905 . S
O2970 C2964 1.182 . S
O2971 Zn2962 1.898 . S
O2971 C2965 1.167 . S
O2972 Zn2963 2.120 . S
O2972 C2965 1.299 . S
O2973 Zn2961 1.898 . S
O2973 C2968 1.167 . S
O2974 Zn2963 2.120 . S
O2974 C2968 1.299 . S
O2975 Zn2963 2.114 . S
O2975 C2977 1.166 . S
O2976 Zn2961 1.905 . S
O2976 C2977 1.182 . S
C2977 O2975 1.166 . S
C2977 O2976 1.182 . S
O2978 Zn2963 2.080 . S
O2978 C2981 1.305 . S
O2979 Zn2962 1.920 . S
O2979 C2981 1.234 . S
C2980 O2966 1.305 . S
C2980 O2967 1.234 . S
C2981 O2978 1.305 . S
C2981 O2979 1.234 . S
Zn2982 O2988 1.920 . S
Zn2982 O2994 1.898 . S
Zn2982 O2997 1.905 . S
Zn2983 O2991 1.905 . S
Zn2983 O2992 1.898 . S
Zn2983 O3000 1.920 . S
Zn2984 O2987 2.080 . S
Zn2984 O2990 2.114 . S
Zn2984 O2993 2.120 . S
Zn2984 O2995 2.120 . S
Zn2984 O2996 2.114 . S
Zn2984 O2999 2.080 . S
C2985 O2990 1.166 . S
C2985 O2991 1.182 . S
C2986 O2992 1.167 . S
C2986 O2993 1.299 . S
O2987 Zn2984 2.080 . S
O2987 C3001 1.305 . S
O2988 Zn2982 1.920 . S
O2988 C3001 1.234 . S
C2989 O2994 1.167 . S
C2989 O2995 1.299 . S
O2990 Zn2984 2.114 . S
O2990 C2985 1.166 . S
O2991 Zn2983 1.905 . S
O2991 C2985 1.182 . S
O2992 Zn2983 1.898 . S
O2992 C2986 1.167 . S
O2993 Zn2984 2.120 . S
O2993 C2986 1.299 . S
O2994 Zn2982 1.898 . S
O2994 C2989 1.167 . S
O2995 Zn2984 2.120 . S
O2995 C2989 1.299 . S
O2996 Zn2984 2.114 . S
O2996 C2998 1.166 . S
O2997 Zn2982 1.905 . S
O2997 C2998 1.182 . S
C2998 O2996 1.166 . S
C2998 O2997 1.182 . S
O2999 Zn2984 2.080 . S
O2999 C3002 1.305 . S
O3000 Zn2983 1.920 . S
O3000 C3002 1.234 . S
C3001 O2987 1.305 . S
C3001 O2988 1.234 . S
C3002 O2999 1.305 . S
C3002 O3000 1.234 . S
Zn3003 O3009 1.920 . S
Zn3003 O3015 1.898 . S
Zn3003 O3018 1.905 . S
Zn3004 O3012 1.905 . S
Zn3004 O3013 1.898 . S
Zn3004 O3021 1.920 . S
Zn3005 O3008 2.080 . S
Zn3005 O3011 2.114 . S
Zn3005 O3014 2.120 . S
Zn3005 O3016 2.120 1_565 S
Zn3005 O3017 2.114 . S
Zn3005 O3020 2.080 . S
C3006 O3011 1.166 . S
C3006 O3012 1.182 . S
C3007 O3013 1.167 . S
C3007 O3014 1.299 . S
O3008 Zn3005 2.080 . S
O3008 C3022 1.305 . S
O3009 Zn3003 1.920 . S
O3009 C3022 1.234 1_545 S
C3010 O3015 1.167 . S
C3010 O3016 1.299 . S
O3011 Zn3005 2.114 . S
O3011 C3006 1.166 . S
O3012 Zn3004 1.905 . S
O3012 C3006 1.182 . S
O3013 Zn3004 1.898 . S
O3013 C3007 1.167 . S
O3014 Zn3005 2.120 . S
O3014 C3007 1.299 . S
O3015 Zn3003 1.898 . S
O3015 C3010 1.167 . S
O3016 Zn3005 2.120 1_545 S
O3016 C3010 1.299 . S
O3017 Zn3005 2.114 . S
O3017 C3019 1.166 1_565 S
O3018 Zn3003 1.905 . S
O3018 C3019 1.182 . S
C3019 O3017 1.166 1_545 S
C3019 O3018 1.182 . S
O3020 Zn3005 2.080 . S
O3020 C3023 1.305 . S
O3021 Zn3004 1.920 . S
O3021 C3023 1.234 . S
C3022 O3008 1.305 . S
C3022 O3009 1.234 1_565 S
C3023 O3020 1.305 . S
C3023 O3021 1.234 . S
Zn3024 O3030 1.920 . S
Zn3024 O3036 1.898 . S
Zn3024 O3039 1.905 . S
Zn3025 O3033 1.905 . S
Zn3025 O3034 1.898 . S
Zn3025 O3042 1.920 . S
Zn3026 O3029 2.080 . S
Zn3026 O3032 2.114 . S
Zn3026 O3035 2.120 . S
Zn3026 O3037 2.120 . S
Zn3026 O3038 2.114 . S
Zn3026 O3041 2.080 . S
C3027 O3032 1.166 . S
C3027 O3033 1.182 . S
C3028 O3034 1.167 . S
C3028 O3035 1.299 . S
O3029 Zn3026 2.080 . S
O3029 C3043 1.305 . S
O3030 Zn3024 1.920 . S
O3030 C3043 1.234 . S
C3031 O3036 1.167 . S
C3031 O3037 1.299 . S
O3032 Zn3026 2.114 . S
O3032 C3027 1.166 . S
O3033 Zn3025 1.905 . S
O3033 C3027 1.182 . S
O3034 Zn3025 1.898 . S
O3034 C3028 1.167 . S
O3035 Zn3026 2.120 . S
O3035 C3028 1.299 . S
O3036 Zn3024 1.898 . S
O3036 C3031 1.167 . S
O3037 Zn3026 2.120 . S
O3037 C3031 1.299 . S
O3038 Zn3026 2.114 . S
O3038 C3040 1.166 . S
O3039 Zn3024 1.905 . S
O3039 C3040 1.182 . S
C3040 O3038 1.166 . S
C3040 O3039 1.182 . S
O3041 Zn3026 2.080 . S
O3041 C3044 1.305 . S
O3042 Zn3025 1.920 . S
O3042 C3044 1.234 . S
C3043 O3029 1.305 . S
C3043 O3030 1.234 . S
C3044 O3041 1.305 . S
C3044 O3042 1.234 . S
Zn3045 O3051 1.920 . S
Zn3045 O3057 1.898 . S
Zn3045 O3060 1.905 . S
Zn3046 O3054 1.905 . S
Zn3046 O3055 1.898 . S
Zn3046 O3063 1.920 . S
Zn3047 O3050 2.080 . S
Zn3047 O3053 2.114 . S
Zn3047 O3056 2.120 . S
Zn3047 O3058 2.120 . S
Zn3047 O3059 2.114 . S
Zn3047 O3062 2.080 . S
C3048 O3053 1.166 . S
C3048 O3054 1.182 . S
C3049 O3055 1.167 . S
C3049 O3056 1.299 . S
O3050 Zn3047 2.080 . S
O3050 C3064 1.305 . S
O3051 Zn3045 1.920 . S
O3051 C3064 1.234 . S
C3052 O3057 1.167 . S
C3052 O3058 1.299 . S
O3053 Zn3047 2.114 . S
O3053 C3048 1.166 . S
O3054 Zn3046 1.905 . S
O3054 C3048 1.182 . S
O3055 Zn3046 1.898 . S
O3055 C3049 1.167 . S
O3056 Zn3047 2.120 . S
O3056 C3049 1.299 . S
O3057 Zn3045 1.898 . S
O3057 C3052 1.167 . S
O3058 Zn3047 2.120 . S
O3058 C3052 1.299 . S
O3059 Zn3047 2.114 . S
O3059 C3061 1.166 . S
O3060 Zn3045 1.905 . S
O3060 C3061 1.182 . S
C3061 O3059 1.166 . S
C3061 O3060 1.182 . S
O3062 Zn3047 2.080 . S
O3062 C3065 1.305 . S
O3063 Zn3046 1.920 . S
O3063 C3065 1.234 . S
C3064 O3050 1.305 . S
C3064 O3051 1.234 . S
C3065 O3062 1.305 . S
C3065 O3063 1.234 . S
Zn3066 O3072 1.920 . S
Zn3066 O3078 1.898 . S
Zn3066 O3081 1.905 . S
Zn3067 O3075 1.905 . S
Zn3067 O3076 1.898 . S
Zn3067 O3084 1.920 . S
Zn3068 O3071 2.080 . S
Zn3068 O3074 2.114 . S
Zn3068 O3077 2.120 . S
Zn3068 O3079 2.120 1_565 S
Zn3068 O3080 2.114 . S
Zn3068 O3083 2.080 . S
C3069 O3074 1.166 . S
C3069 O3075 1.182 . S
C3070 O3076 1.167 . S
C3070 O3077 1.299 . S
O3071 Zn3068 2.080 . S
O3071 C3085 1.305 . S
O3072 Zn3066 1.920 . S
O3072 C3085 1.234 1_545 S
C3073 O3078 1.167 . S
C3073 O3079 1.299 . S
O3074 Zn3068 2.114 . S
O3074 C3069 1.166 . S
O3075 Zn3067 1.905 . S
O3075 C3069 1.182 . S
O3076 Zn3067 1.898 . S
O3076 C3070 1.167 . S
O3077 Zn3068 2.120 . S
O3077 C3070 1.299 . S
O3078 Zn3066 1.898 . S
O3078 C3073 1.167 . S
O3079 Zn3068 2.120 1_545 S
O3079 C3073 1.299 . S
O3080 Zn3068 2.114 . S
O3080 C3082 1.166 1_565 S
O3081 Zn3066 1.905 . S
O3081 C3082 1.182 . S
C3082 O3080 1.166 1_545 S
C3082 O3081 1.182 . S
O3083 Zn3068 2.080 . S
O3083 C3086 1.305 . S
O3084 Zn3067 1.920 . S
O3084 C3086 1.234 . S
C3085 O3071 1.305 . S
C3085 O3072 1.234 1_565 S
C3086 O3083 1.305 . S
C3086 O3084 1.234 . S
Zn3087 O3093 1.920 . S
Zn3087 O3099 1.898 . S
Zn3087 O3102 1.905 . S
Zn3088 O3096 1.905 . S
Zn3088 O3097 1.898 1_545 S
Zn3088 O3105 1.920 1_545 S
Zn3089 O3092 2.080 . S
Zn3089 O3095 2.114 1_565 S
Zn3089 O3098 2.120 . S
Zn3089 O3100 2.120 . S
Zn3089 O3101 2.114 . S
Zn3089 O3104 2.080 . S
C3090 O3095 1.166 . S
C3090 O3096 1.182 . S
C3091 O3097 1.167 . S
C3091 O3098 1.299 . S
O3092 Zn3089 2.080 . S
O3092 C3106 1.305 . S
O3093 Zn3087 1.920 . S
O3093 C3106 1.234 . S
C3094 O3099 1.167 . S
C3094 O3100 1.299 . S
O3095 Zn3089 2.114 1_545 S
O3095 C3090 1.166 . S
O3096 Zn3088 1.905 . S
O3096 C3090 1.182 . S
O3097 Zn3088 1.898 1_565 S
O3097 C3091 1.167 . S
O3098 Zn3089 2.120 . S
O3098 C3091 1.299 . S
O3099 Zn3087 1.898 . S
O3099 C3094 1.167 . S
O3100 Zn3089 2.120 . S
O3100 C3094 1.299 . S
O3101 Zn3089 2.114 . S
O3101 C3103 1.166 . S
O3102 Zn3087 1.905 . S
O3102 C3103 1.182 . S
C3103 O3101 1.166 . S
C3103 O3102 1.182 . S
O3104 Zn3089 2.080 . S
O3104 C3107 1.305 . S
O3105 Zn3088 1.920 1_565 S
O3105 C3107 1.234 . S
C3106 O3092 1.305 . S
C3106 O3093 1.234 . S
C3107 O3104 1.305 . S
C3107 O3105 1.234 . S
Zn3108 O3114 1.920 . S
Zn3108 O3120 1.898 . S
Zn3108 O3123 1.905 . S
Zn3109 O3117 1.905 . S
Zn3109 O3118 1.898 . S
Zn3109 O3126 1.920 . S
Zn3110 O3113 2.080 . S
Zn3110 O3116 2.114 . S
Zn3110 O3119 2.120 . S
Zn3110 O3121 2.120 . S
Zn3110 O3122 2.114 . S
Zn3110 O3125 2.080 . S
C3111 O3116 1.166 . S
C3111 O3117 1.182 . S
C3112 O3118 1.167 . S
C3112 O3119 1.299 . S
O3113 Zn3110 2.080 . S
O3113 C3127 1.305 . S
O3114 Zn3108 1.920 . S
O3114 C3127 1.234 . S
C3115 O3120 1.167 . S
C3115 O3121 1.299 . S
O3116 Zn3110 2.114 . S
O3116 C3111 1.166 . S
O3117 Zn3109 1.905 . S
O3117 C3111 1.182 . S
O3118 Zn3109 1.898 . S
O3118 C3112 1.167 . S
O3119 Zn3110 2.120 . S
O3119 C3112 1.299 . S
O3120 Zn3108 1.898 . S
O3120 C3115 1.167 . S
O3121 Zn3110 2.120 . S
O3121 C3115 1.299 . S
O3122 Zn3110 2.114 . S
O3122 C3124 1.166 . S
O3123 Zn3108 1.905 . S
O3123 C3124 1.182 . S
C3124 O3122 1.166 . S
C3124 O3123 1.182 . S
O3125 Zn3110 2.080 . S
O3125 C3128 1.305 . S
O3126 Zn3109 1.920 . S
O3126 C3128 1.234 . S
C3127 O3113 1.305 . S
C3127 O3114 1.234 . S
C3128 O3125 1.305 . S
C3128 O3126 1.234 . S
Zn3129 O3135 1.920 . S
Zn3129 O3141 1.898 . S
Zn3129 O3144 1.905 . S
Zn3130 O3138 1.905 . S
Zn3130 O3139 1.898 . S
Zn3130 O3147 1.920 . S
Zn3131 O3134 2.080 . S
Zn3131 O3137 2.114 . S
Zn3131 O3140 2.120 . S
Zn3131 O3142 2.120 1_455 S
Zn3131 O3143 2.114 . S
Zn3131 O3146 2.080 . S
C3132 O3137 1.166 . S
C3132 O3138 1.182 . S
C3133 O3139 1.167 . S
C3133 O3140 1.299 . S
O3134 Zn3131 2.080 . S
O3134 C3148 1.305 . S
O3135 Zn3129 1.920 . S
O3135 C3148 1.234 1_655 S
C3136 O3141 1.167 . S
C3136 O3142 1.299 . S
O3137 Zn3131 2.114 . S
O3137 C3132 1.166 . S
O3138 Zn3130 1.905 . S
O3138 C3132 1.182 . S
O3139 Zn3130 1.898 . S
O3139 C3133 1.167 . S
O3140 Zn3131 2.120 . S
O3140 C3133 1.299 . S
O3141 Zn3129 1.898 . S
O3141 C3136 1.167 . S
O3142 Zn3131 2.120 1_655 S
O3142 C3136 1.299 . S
O3143 Zn3131 2.114 . S
O3143 C3145 1.166 1_455 S
O3144 Zn3129 1.905 . S
O3144 C3145 1.182 . S
C3145 O3143 1.166 1_655 S
C3145 O3144 1.182 . S
O3146 Zn3131 2.080 . S
O3146 C3149 1.305 . S
O3147 Zn3130 1.920 . S
O3147 C3149 1.234 . S
C3148 O3134 1.305 . S
C3148 O3135 1.234 1_455 S
C3149 O3146 1.305 . S
C3149 O3147 1.234 . S
Zn3150 O3156 1.920 . S
Zn3150 O3162 1.898 . S
Zn3150 O3165 1.905 . S
Zn3151 O3159 1.905 . S
Zn3151 O3160 1.898 . S
Zn3151 O3168 1.920 . S
Zn3152 O3155 2.080 . S
Zn3152 O3158 2.114 . S
Zn3152 O3161 2.120 . S
Zn3152 O3163 2.120 . S
Zn3152 O3164 2.114 . S
Zn3152 O3167 2.080 . S
C3153 O3158 1.166 . S
C3153 O3159 1.182 . S
C3154 O3160 1.167 . S
C3154 O3161 1.299 . S
O3155 Zn3152 2.080 . S
O3155 C3169 1.305 . S
O3156 Zn3150 1.920 . S
O3156 C3169 1.234 . S
C3157 O3162 1.167 . S
C3157 O3163 1.299 . S
O3158 Zn3152 2.114 . S
O3158 C3153 1.166 . S
O3159 Zn3151 1.905 . S
O3159 C3153 1.182 . S
O3160 Zn3151 1.898 . S
O3160 C3154 1.167 . S
O3161 Zn3152 2.120 . S
O3161 C3154 1.299 . S
O3162 Zn3150 1.898 . S
O3162 C3157 1.167 . S
O3163 Zn3152 2.120 . S
O3163 C3157 1.299 . S
O3164 Zn3152 2.114 . S
O3164 C3166 1.166 . S
O3165 Zn3150 1.905 . S
O3165 C3166 1.182 . S
C3166 O3164 1.166 . S
C3166 O3165 1.182 . S
O3167 Zn3152 2.080 . S
O3167 C3170 1.305 . S
O3168 Zn3151 1.920 . S
O3168 C3170 1.234 . S
C3169 O3155 1.305 . S
C3169 O3156 1.234 . S
C3170 O3167 1.305 . S
C3170 O3168 1.234 . S
Zn3171 O3177 1.920 . S
Zn3171 O3183 1.898 . S
Zn3171 O3186 1.905 . S
Zn3172 O3180 1.905 . S
Zn3172 O3181 1.898 1_545 S
Zn3172 O3189 1.920 1_545 S
Zn3173 O3176 2.080 . S
Zn3173 O3179 2.114 1_565 S
Zn3173 O3182 2.120 . S
Zn3173 O3184 2.120 . S
Zn3173 O3185 2.114 . S
Zn3173 O3188 2.080 . S
C3174 O3179 1.166 . S
C3174 O3180 1.182 . S
C3175 O3181 1.167 . S
C3175 O3182 1.299 . S
O3176 Zn3173 2.080 . S
O3176 C3190 1.305 . S
O3177 Zn3171 1.920 . S
O3177 C3190 1.234 . S
C3178 O3183 1.167 . S
C3178 O3184 1.299 . S
O3179 Zn3173 2.114 1_545 S
O3179 C3174 1.166 . S
O3180 Zn3172 1.905 . S
O3180 C3174 1.182 . S
O3181 Zn3172 1.898 1_565 S
O3181 C3175 1.167 . S
O3182 Zn3173 2.120 . S
O3182 C3175 1.299 . S
O3183 Zn3171 1.898 . S
O3183 C3178 1.167 . S
O3184 Zn3173 2.120 . S
O3184 C3178 1.299 . S
O3185 Zn3173 2.114 . S
O3185 C3187 1.166 . S
O3186 Zn3171 1.905 . S
O3186 C3187 1.182 . S
C3187 O3185 1.166 . S
C3187 O3186 1.182 . S
O3188 Zn3173 2.080 . S
O3188 C3191 1.305 . S
O3189 Zn3172 1.920 1_565 S
O3189 C3191 1.234 . S
C3190 O3176 1.305 . S
C3190 O3177 1.234 . S
C3191 O3188 1.305 . S
C3191 O3189 1.234 . S
Zn3192 O3198 1.920 . S
Zn3192 O3204 1.898 . S
Zn3192 O3207 1.905 . S
Zn3193 O3201 1.905 . S
Zn3193 O3202 1.898 . S
Zn3193 O3210 1.920 . S
Zn3194 O3197 2.080 . S
Zn3194 O3200 2.114 . S
Zn3194 O3203 2.120 . S
Zn3194 O3205 2.120 . S
Zn3194 O3206 2.114 . S
Zn3194 O3209 2.080 . S
C3195 O3200 1.166 . S
C3195 O3201 1.182 . S
C3196 O3202 1.167 . S
C3196 O3203 1.299 . S
O3197 Zn3194 2.080 . S
O3197 C3211 1.305 . S
O3198 Zn3192 1.920 . S
O3198 C3211 1.234 . S
C3199 O3204 1.167 . S
C3199 O3205 1.299 . S
O3200 Zn3194 2.114 . S
O3200 C3195 1.166 . S
O3201 Zn3193 1.905 . S
O3201 C3195 1.182 . S
O3202 Zn3193 1.898 . S
O3202 C3196 1.167 . S
O3203 Zn3194 2.120 . S
O3203 C3196 1.299 . S
O3204 Zn3192 1.898 . S
O3204 C3199 1.167 . S
O3205 Zn3194 2.120 . S
O3205 C3199 1.299 . S
O3206 Zn3194 2.114 . S
O3206 C3208 1.166 . S
O3207 Zn3192 1.905 . S
O3207 C3208 1.182 . S
C3208 O3206 1.166 . S
C3208 O3207 1.182 . S
O3209 Zn3194 2.080 . S
O3209 C3212 1.305 . S
O3210 Zn3193 1.920 . S
O3210 C3212 1.234 . S
C3211 O3197 1.305 . S
C3211 O3198 1.234 . S
C3212 O3209 1.305 . S
C3212 O3210 1.234 . S
Zn3213 O3219 1.920 1_455 S
Zn3213 O3225 1.898 1_455 S
Zn3213 O3228 1.905 . S
Zn3214 O3222 1.905 . S
Zn3214 O3223 1.898 . S
Zn3214 O3231 1.920 . S
Zn3215 O3218 2.080 . S
Zn3215 O3221 2.114 . S
Zn3215 O3224 2.120 . S
Zn3215 O3226 2.120 . S
Zn3215 O3227 2.114 1_655 S
Zn3215 O3230 2.080 . S
C3216 O3221 1.166 . S
C3216 O3222 1.182 . S
C3217 O3223 1.167 . S
C3217 O3224 1.299 . S
O3218 Zn3215 2.080 . S
O3218 C3232 1.305 . S
O3219 Zn3213 1.920 1_655 S
O3219 C3232 1.234 . S
C3220 O3225 1.167 . S
C3220 O3226 1.299 . S
O3221 Zn3215 2.114 . S
O3221 C3216 1.166 . S
O3222 Zn3214 1.905 . S
O3222 C3216 1.182 . S
O3223 Zn3214 1.898 . S
O3223 C3217 1.167 . S
O3224 Zn3215 2.120 . S
O3224 C3217 1.299 . S
O3225 Zn3213 1.898 1_655 S
O3225 C3220 1.167 . S
O3226 Zn3215 2.120 . S
O3226 C3220 1.299 . S
O3227 Zn3215 2.114 1_455 S
O3227 C3229 1.166 . S
O3228 Zn3213 1.905 . S
O3228 C3229 1.182 . S
C3229 O3227 1.166 . S
C3229 O3228 1.182 . S
O3230 Zn3215 2.080 . S
O3230 C3233 1.305 . S
O3231 Zn3214 1.920 . S
O3231 C3233 1.234 . S
C3232 O3218 1.305 . S
C3232 O3219 1.234 . S
C3233 O3230 1.305 . S
C3233 O3231 1.234 . S
Zn3234 O3240 1.920 . S
Zn3234 O3246 1.898 . S
Zn3234 O3249 1.905 . S
Zn3235 O3243 1.905 . S
Zn3235 O3244 1.898 . S
Zn3235 O3252 1.920 . S
Zn3236 O3239 2.080 . S
Zn3236 O3242 2.114 . S
Zn3236 O3245 2.120 . S
Zn3236 O3247 2.120 . S
Zn3236 O3248 2.114 . S
Zn3236 O3251 2.080 . S
C3237 O3242 1.166 . S
C3237 O3243 1.182 . S
C3238 O3244 1.167 . S
C3238 O3245 1.299 . S
O3239 Zn3236 2.080 . S
O3239 C3253 1.305 . S
O3240 Zn3234 1.920 . S
O3240 C3253 1.234 . S
C3241 O3246 1.167 . S
C3241 O3247 1.299 . S
O3242 Zn3236 2.114 . S
O3242 C3237 1.166 . S
O3243 Zn3235 1.905 . S
O3243 C3237 1.182 . S
O3244 Zn3235 1.898 . S
O3244 C3238 1.167 . S
O3245 Zn3236 2.120 . S
O3245 C3238 1.299 . S
O3246 Zn3234 1.898 . S
O3246 C3241 1.167 . S
O3247 Zn3236 2.120 . S
O3247 C3241 1.299 . S
O3248 Zn3236 2.114 . S
O3248 C3250 1.166 . S
O3249 Zn3234 1.905 . S
O3249 C3250 1.182 . S
C3250 O3248 1.166 . S
C3250 O3249 1.182 . S
O3251 Zn3236 2.080 . S
O3251 C3254 1.305 . S
O3252 Zn3235 1.920 . S
O3252 C3254 1.234 . S
C3253 O3239 1.305 . S
C3253 O3240 1.234 . S
C3254 O3251 1.305 . S
C3254 O3252 1.234 . S
Zn3255 O3261 1.920 . S
Zn3255 O3267 1.898 . S
Zn3255 O3270 1.905 . S
Zn3256 O3264 1.905 . S
Zn3256 O3265 1.898 . S
Zn3256 O3273 1.920 . S
Zn3257 O3260 2.080 . S
Zn3257 O3263 2.114 . S
Zn3257 O3266 2.120 . S
Zn3257 O3268 2.120 1_554 S
Zn3257 O3269 2.114 . S
Zn3257 O3272 2.080 . S
C3258 O3263 1.166 . S
C3258 O3264 1.182 . S
C3259 O3265 1.167 . S
C3259 O3266 1.299 . S
O3260 Zn3257 2.080 . S
O3260 C3274 1.305 . S
O3261 Zn3255 1.920 . S
O3261 C3274 1.234 1_556 S
C3262 O3267 1.167 . S
C3262 O3268 1.299 . S
O3263 Zn3257 2.114 . S
O3263 C3258 1.166 . S
O3264 Zn3256 1.905 . S
O3264 C3258 1.182 . S
O3265 Zn3256 1.898 . S
O3265 C3259 1.167 . S
O3266 Zn3257 2.120 . S
O3266 C3259 1.299 . S
O3267 Zn3255 1.898 . S
O3267 C3262 1.167 . S
O3268 Zn3257 2.120 1_556 S
O3268 C3262 1.299 . S
O3269 Zn3257 2.114 . S
O3269 C3271 1.166 1_554 S
O3270 Zn3255 1.905 . S
O3270 C3271 1.182 . S
C3271 O3269 1.166 1_556 S
C3271 O3270 1.182 . S
O3272 Zn3257 2.080 . S
O3272 C3275 1.305 . S
O3273 Zn3256 1.920 . S
O3273 C3275 1.234 . S
C3274 O3260 1.305 . S
C3274 O3261 1.234 1_554 S
C3275 O3272 1.305 . S
C3275 O3273 1.234 . S
Zn3276 O3282 1.920 . S
Zn3276 O3288 1.898 . S
Zn3276 O3291 1.905 . S
Zn3277 O3285 1.905 . S
Zn3277 O3286 1.898 . S
Zn3277 O3294 1.920 . S
Zn3278 O3281 2.080 . S
Zn3278 O3284 2.114 . S
Zn3278 O3287 2.120 . S
Zn3278 O3289 2.120 1_556 S
Zn3278 O3290 2.114 . S
Zn3278 O3293 2.080 . S
C3279 O3284 1.166 . S
C3279 O3285 1.182 . S
C3280 O3286 1.167 . S
C3280 O3287 1.299 . S
O3281 Zn3278 2.080 . S
O3281 C3295 1.305 . S
O3282 Zn3276 1.920 . S
O3282 C3295 1.234 1_554 S
C3283 O3288 1.167 . S
C3283 O3289 1.299 . S
O3284 Zn3278 2.114 . S
O3284 C3279 1.166 . S
O3285 Zn3277 1.905 . S
O3285 C3279 1.182 . S
O3286 Zn3277 1.898 . S
O3286 C3280 1.167 . S
O3287 Zn3278 2.120 . S
O3287 C3280 1.299 . S
O3288 Zn3276 1.898 . S
O3288 C3283 1.167 . S
O3289 Zn3278 2.120 1_554 S
O3289 C3283 1.299 . S
O3290 Zn3278 2.114 . S
O3290 C3292 1.166 1_556 S
O3291 Zn3276 1.905 . S
O3291 C3292 1.182 . S
C3292 O3290 1.166 1_554 S
C3292 O3291 1.182 . S
O3293 Zn3278 2.080 . S
O3293 C3296 1.305 . S
O3294 Zn3277 1.920 . S
O3294 C3296 1.234 . S
C3295 O3281 1.305 . S
C3295 O3282 1.234 1_556 S
C3296 O3293 1.305 . S
C3296 O3294 1.234 . S
Zn3297 O3303 1.920 . S
Zn3297 O3309 1.898 . S
Zn3297 O3312 1.905 . S
Zn3298 O3306 1.905 . S
Zn3298 O3307 1.898 . S
Zn3298 O3315 1.920 . S
Zn3299 O3302 2.080 . S
Zn3299 O3305 2.114 . S
Zn3299 O3308 2.120 . S
Zn3299 O3310 2.120 . S
Zn3299 O3311 2.114 . S
Zn3299 O3314 2.080 . S
C3300 O3305 1.166 . S
C3300 O3306 1.182 . S
C3301 O3307 1.167 . S
C3301 O3308 1.299 . S
O3302 Zn3299 2.080 . S
O3302 C3316 1.305 . S
O3303 Zn3297 1.920 . S
O3303 C3316 1.234 . S
C3304 O3309 1.167 . S
C3304 O3310 1.299 . S
O3305 Zn3299 2.114 . S
O3305 C3300 1.166 . S
O3306 Zn3298 1.905 . S
O3306 C3300 1.182 . S
O3307 Zn3298 1.898 . S
O3307 C3301 1.167 . S
O3308 Zn3299 2.120 . S
O3308 C3301 1.299 . S
O3309 Zn3297 1.898 . S
O3309 C3304 1.167 . S
O3310 Zn3299 2.120 . S
O3310 C3304 1.299 . S
O3311 Zn3299 2.114 . S
O3311 C3313 1.166 . S
O3312 Zn3297 1.905 . S
O3312 C3313 1.182 . S
C3313 O3311 1.166 . S
C3313 O3312 1.182 . S
O3314 Zn3299 2.080 . S
O3314 C3317 1.305 . S
O3315 Zn3298 1.920 . S
O3315 C3317 1.234 . S
C3316 O3302 1.305 . S
C3316 O3303 1.234 . S
C3317 O3314 1.305 . S
C3317 O3315 1.234 . S
Zn3318 O3324 1.920 . S
Zn3318 O3330 1.898 . S
Zn3318 O3333 1.905 . S
Zn3319 O3327 1.905 . S
Zn3319 O3328 1.898 1_565 S
Zn3319 O3336 1.920 1_565 S
Zn3320 O3323 2.080 . S
Zn3320 O3326 2.114 1_545 S
Zn3320 O3329 2.120 . S
Zn3320 O3331 2.120 . S
Zn3320 O3332 2.114 . S
Zn3320 O3335 2.080 . S
C3321 O3326 1.166 . S
C3321 O3327 1.182 . S
C3322 O3328 1.167 . S
C3322 O3329 1.299 . S
O3323 Zn3320 2.080 . S
O3323 C3337 1.305 . S
O3324 Zn3318 1.920 . S
O3324 C3337 1.234 . S
C3325 O3330 1.167 . S
C3325 O3331 1.299 . S
O3326 Zn3320 2.114 1_565 S
O3326 C3321 1.166 . S
O3327 Zn3319 1.905 . S
O3327 C3321 1.182 . S
O3328 Zn3319 1.898 1_545 S
O3328 C3322 1.167 . S
O3329 Zn3320 2.120 . S
O3329 C3322 1.299 . S
O3330 Zn3318 1.898 . S
O3330 C3325 1.167 . S
O3331 Zn3320 2.120 . S
O3331 C3325 1.299 . S
O3332 Zn3320 2.114 . S
O3332 C3334 1.166 . S
O3333 Zn3318 1.905 . S
O3333 C3334 1.182 . S
C3334 O3332 1.166 . S
C3334 O3333 1.182 . S
O3335 Zn3320 2.080 . S
O3335 C3338 1.305 . S
O3336 Zn3319 1.920 1_545 S
O3336 C3338 1.234 . S
C3337 O3323 1.305 . S
C3337 O3324 1.234 . S
C3338 O3335 1.305 . S
C3338 O3336 1.234 . S
Zn3339 O3345 1.920 . S
Zn3339 O3351 1.898 . S
Zn3339 O3354 1.905 . S
Zn3340 O3348 1.905 . S
Zn3340 O3349 1.898 . S
Zn3340 O3357 1.920 . S
Zn3341 O3344 2.080 . S
Zn3341 O3347 2.114 . S
Zn3341 O3350 2.120 . S
Zn3341 O3352 2.120 . S
Zn3341 O3353 2.114 . S
Zn3341 O3356 2.080 . S
C3342 O3347 1.166 . S
C3342 O3348 1.182 . S
C3343 O3349 1.167 . S
C3343 O3350 1.299 . S
O3344 Zn3341 2.080 . S
O3344 C3358 1.305 . S
O3345 Zn3339 1.920 . S
O3345 C3358 1.234 . S
C3346 O3351 1.167 . S
C3346 O3352 1.299 . S
O3347 Zn3341 2.114 . S
O3347 C3342 1.166 . S
O3348 Zn3340 1.905 . S
O3348 C3342 1.182 . S
O3349 Zn3340 1.898 . S
O3349 C3343 1.167 . S
O3350 Zn3341 2.120 . S
O3350 C3343 1.299 . S
O3351 Zn3339 1.898 . S
O3351 C3346 1.167 . S
O3352 Zn3341 2.120 . S
O3352 C3346 1.299 . S
O3353 Zn3341 2.114 . S
O3353 C3355 1.166 . S
O3354 Zn3339 1.905 . S
O3354 C3355 1.182 . S
C3355 O3353 1.166 . S
C3355 O3354 1.182 . S
O3356 Zn3341 2.080 . S
O3356 C3359 1.305 . S
O3357 Zn3340 1.920 . S
O3357 C3359 1.234 . S
C3358 O3344 1.305 . S
C3358 O3345 1.234 . S
C3359 O3356 1.305 . S
C3359 O3357 1.234 . S
Zn3360 O3366 1.920 . S
Zn3360 O3372 1.898 . S
Zn3360 O3375 1.905 . S
Zn3361 O3369 1.905 . S
Zn3361 O3370 1.898 1_556 S
Zn3361 O3378 1.920 1_556 S
Zn3362 O3365 2.080 . S
Zn3362 O3368 2.114 1_554 S
Zn3362 O3371 2.120 . S
Zn3362 O3373 2.120 . S
Zn3362 O3374 2.114 . S
Zn3362 O3377 2.080 . S
C3363 O3368 1.166 . S
C3363 O3369 1.182 . S
C3364 O3370 1.167 . S
C3364 O3371 1.299 . S
O3365 Zn3362 2.080 . S
O3365 C3379 1.305 . S
O3366 Zn3360 1.920 . S
O3366 C3379 1.234 . S
C3367 O3372 1.167 . S
C3367 O3373 1.299 . S
O3368 Zn3362 2.114 1_556 S
O3368 C3363 1.166 . S
O3369 Zn3361 1.905 . S
O3369 C3363 1.182 . S
O3370 Zn3361 1.898 1_554 S
O3370 C3364 1.167 . S
O3371 Zn3362 2.120 . S
O3371 C3364 1.299 . S
O3372 Zn3360 1.898 . S
O3372 C3367 1.167 . S
O3373 Zn3362 2.120 . S
O3373 C3367 1.299 . S
O3374 Zn3362 2.114 . S
O3374 C3376 1.166 . S
O3375 Zn3360 1.905 . S
O3375 C3376 1.182 . S
C3376 O3374 1.166 . S
C3376 O3375 1.182 . S
O3377 Zn3362 2.080 . S
O3377 C3380 1.305 . S
O3378 Zn3361 1.920 1_554 S
O3378 C3380 1.234 . S
C3379 O3365 1.305 . S
C3379 O3366 1.234 . S
C3380 O3377 1.305 . S
C3380 O3378 1.234 . S
Zn3381 O3387 1.920 . S
Zn3381 O3393 1.898 . S
Zn3381 O3396 1.905 . S
Zn3382 O3390 1.905 . S
Zn3382 O3391 1.898 . S
Zn3382 O3399 1.920 . S
Zn3383 O3386 2.080 . S
Zn3383 O3389 2.114 . S
Zn3383 O3392 2.120 . S
Zn3383 O3394 2.120 . S
Zn3383 O3395 2.114 . S
Zn3383 O3398 2.080 . S
C3384 O3389 1.166 . S
C3384 O3390 1.182 . S
C3385 O3391 1.167 . S
C3385 O3392 1.299 . S
O3386 Zn3383 2.080 . S
O3386 C3400 1.305 . S
O3387 Zn3381 1.920 . S
O3387 C3400 1.234 . S
C3388 O3393 1.167 . S
C3388 O3394 1.299 . S
O3389 Zn3383 2.114 . S
O3389 C3384 1.166 . S
O3390 Zn3382 1.905 . S
O3390 C3384 1.182 . S
O3391 Zn3382 1.898 . S
O3391 C3385 1.167 . S
O3392 Zn3383 2.120 . S
O3392 C3385 1.299 . S
O3393 Zn3381 1.898 . S
O3393 C3388 1.167 . S
O3394 Zn3383 2.120 . S
O3394 C3388 1.299 . S
O3395 Zn3383 2.114 . S
O3395 C3397 1.166 . S
O3396 Zn3381 1.905 . S
O3396 C3397 1.182 . S
C3397 O3395 1.166 . S
C3397 O3396 1.182 . S
O3398 Zn3383 2.080 . S
O3398 C3401 1.305 . S
O3399 Zn3382 1.920 . S
O3399 C3401 1.234 . S
C3400 O3386 1.305 . S
C3400 O3387 1.234 . S
C3401 O3398 1.305 . S
C3401 O3399 1.234 . S
Zn3402 O3408 1.920 . S
Zn3402 O3414 1.898 . S
Zn3402 O3417 1.905 . S
Zn3403 O3411 1.905 . S
Zn3403 O3412 1.898 1_554 S
Zn3403 O3420 1.920 1_554 S
Zn3404 O3407 2.080 . S
Zn3404 O3410 2.114 1_556 S
Zn3404 O3413 2.120 . S
Zn3404 O3415 2.120 . S
Zn3404 O3416 2.114 . S
Zn3404 O3419 2.080 . S
C3405 O3410 1.166 . S
C3405 O3411 1.182 . S
C3406 O3412 1.167 . S
C3406 O3413 1.299 . S
O3407 Zn3404 2.080 . S
O3407 C3421 1.305 . S
O3408 Zn3402 1.920 . S
O3408 C3421 1.234 . S
C3409 O3414 1.167 . S
C3409 O3415 1.299 . S
O3410 Zn3404 2.114 1_554 S
O3410 C3405 1.166 . S
O3411 Zn3403 1.905 . S
O3411 C3405 1.182 . S
O3412 Zn3403 1.898 1_556 S
O3412 C3406 1.167 . S
O3413 Zn3404 2.120 . S
O3413 C3406 1.299 . S
O3414 Zn3402 1.898 . S
O3414 C3409 1.167 . S
O3415 Zn3404 2.120 . S
O3415 C3409 1.299 . S
O3416 Zn3404 2.114 . S
O3416 C3418 1.166 . S
O3417 Zn3402 1.905 . S
O3417 C3418 1.182 . S
C3418 O3416 1.166 . S
C3418 O3417 1.182 . S
O3419 Zn3404 2.080 . S
O3419 C3422 1.305 . S
O3420 Zn3403 1.920 1_556 S
O3420 C3422 1.234 . S
C3421 O3407 1.305 . S
C3421 O3408 1.234 . S
C3422 O3419 1.305 . S
C3422 O3420 1.234 . S
Zn3423 O3429 1.920 . S
Zn3423 O3435 1.898 . S
Zn3423 O3438 1.905 . S
Zn3424 O3432 1.905 . S
Zn3424 O3433 1.898 . S
Zn3424 O3441 1.920 . S
Zn3425 O3428 2.080 . S
Zn3425 O3431 2.114 . S
Zn3425 O3434 2.120 1_655 S
Zn3425 O3436 2.120 . S
Zn3425 O3437 2.114 . S
Zn3425 O3440 2.080 . S
C3426 O3431 1.166 1_455 S
C3426 O3432 1.182 . S
C3427 O3433 1.167 . S
C3427 O3434 1.299 . S
O3428 Zn3425 2.080 . S
O3428 C3442 1.305 . S
O3429 Zn3423 1.920 . S
O3429 C3442 1.234 . S
C3430 O3435 1.167 . S
C3430 O3436 1.299 . S
O3431 Zn3425 2.114 . S
O3431 C3426 1.166 1_655 S
O3432 Zn3424 1.905 . S
O3432 C3426 1.182 . S
O3433 Zn3424 1.898 . S
O3433 C3427 1.167 . S
O3434 Zn3425 2.120 1_455 S
O3434 C3427 1.299 . S
O3435 Zn3423 1.898 . S
O3435 C3430 1.167 . S
O3436 Zn3425 2.120 . S
O3436 C3430 1.299 . S
O3437 Zn3425 2.114 . S
O3437 C3439 1.166 . S
O3438 Zn3423 1.905 . S
O3438 C3439 1.182 . S
C3439 O3437 1.166 . S
C3439 O3438 1.182 . S
O3440 Zn3425 2.080 . S
O3440 C3443 1.305 . S
O3441 Zn3424 1.920 . S
O3441 C3443 1.234 1_455 S
C3442 O3428 1.305 . S
C3442 O3429 1.234 . S
C3443 O3440 1.305 . S
C3443 O3441 1.234 1_655 S
Zn3444 O3450 1.920 . S
Zn3444 O3456 1.898 . S
Zn3444 O3459 1.905 . S
Zn3445 O3453 1.905 . S
Zn3445 O3454 1.898 . S
Zn3445 O3462 1.920 . S
Zn3446 O3449 2.080 . S
Zn3446 O3452 2.114 . S
Zn3446 O3455 2.120 . S
Zn3446 O3457 2.120 . S
Zn3446 O3458 2.114 . S
Zn3446 O3461 2.080 . S
C3447 O3452 1.166 . S
C3447 O3453 1.182 . S
C3448 O3454 1.167 . S
C3448 O3455 1.299 . S
O3449 Zn3446 2.080 . S
O3449 C3463 1.305 . S
O3450 Zn3444 1.920 . S
O3450 C3463 1.234 . S
C3451 O3456 1.167 . S
C3451 O3457 1.299 . S
O3452 Zn3446 2.114 . S
O3452 C3447 1.166 . S
O3453 Zn3445 1.905 . S
O3453 C3447 1.182 . S
O3454 Zn3445 1.898 . S
O3454 C3448 1.167 . S
O3455 Zn3446 2.120 . S
O3455 C3448 1.299 . S
O3456 Zn3444 1.898 . S
O3456 C3451 1.167 . S
O3457 Zn3446 2.120 . S
O3457 C3451 1.299 . S
O3458 Zn3446 2.114 . S
O3458 C3460 1.166 . S
O3459 Zn3444 1.905 . S
O3459 C3460 1.182 . S
C3460 O3458 1.166 . S
C3460 O3459 1.182 . S
O3461 Zn3446 2.080 . S
O3461 C3464 1.305 . S
O3462 Zn3445 1.920 . S
O3462 C3464 1.234 . S
C3463 O3449 1.305 . S
C3463 O3450 1.234 . S
C3464 O3461 1.305 . S
C3464 O3462 1.234 . S
Zn3465 O3471 1.920 1_556 S
Zn3465 O3477 1.898 1_556 S
Zn3465 O3480 1.905 . S
Zn3466 O3474 1.905 . S
Zn3466 O3475 1.898 . S
Zn3466 O3483 1.920 . S
Zn3467 O3470 2.080 . S
Zn3467 O3473 2.114 . S
Zn3467 O3476 2.120 . S
Zn3467 O3478 2.120 . S
Zn3467 O3479 2.114 1_554 S
Zn3467 O3482 2.080 . S
C3468 O3473 1.166 . S
C3468 O3474 1.182 . S
C3469 O3475 1.167 . S
C3469 O3476 1.299 . S
O3470 Zn3467 2.080 . S
O3470 C3484 1.305 . S
O3471 Zn3465 1.920 1_554 S
O3471 C3484 1.234 . S
C3472 O3477 1.167 . S
C3472 O3478 1.299 . S
O3473 Zn3467 2.114 . S
O3473 C3468 1.166 . S
O3474 Zn3466 1.905 . S
O3474 C3468 1.182 . S
O3475 Zn3466 1.898 . S
O3475 C3469 1.167 . S
O3476 Zn3467 2.120 . S
O3476 C3469 1.299 . S
O3477 Zn3465 1.898 1_554 S
O3477 C3472 1.167 . S
O3478 Zn3467 2.120 . S
O3478 C3472 1.299 . S
O3479 Zn3467 2.114 1_556 S
O3479 C3481 1.166 . S
O3480 Zn3465 1.905 . S
O3480 C3481 1.182 . S
C3481 O3479 1.166 . S
C3481 O3480 1.182 . S
O3482 Zn3467 2.080 . S
O3482 C3485 1.305 . S
O3483 Zn3466 1.920 . S
O3483 C3485 1.234 . S
C3484 O3470 1.305 . S
C3484 O3471 1.234 . S
C3485 O3482 1.305 . S
C3485 O3483 1.234 . S
Zn3486 O3492 1.920 . S
Zn3486 O3498 1.898 . S
Zn3486 O3501 1.905 . S
Zn3487 O3495 1.905 . S
Zn3487 O3496 1.898 . S
Zn3487 O3504 1.920 . S
Zn3488 O3491 2.080 . S
Zn3488 O3494 2.114 . S
Zn3488 O3497 2.120 . S
Zn3488 O3499 2.120 . S
Zn3488 O3500 2.114 . S
Zn3488 O3503 2.080 . S
C3489 O3494 1.166 . S
C3489 O3495 1.182 . S
C3490 O3496 1.167 . S
C3490 O3497 1.299 . S
O3491 Zn3488 2.080 . S
O3491 C3505 1.305 . S
O3492 Zn3486 1.920 . S
O3492 C3505 1.234 . S
C3493 O3498 1.167 . S
C3493 O3499 1.299 . S
O3494 Zn3488 2.114 . S
O3494 C3489 1.166 . S
O3495 Zn3487 1.905 . S
O3495 C3489 1.182 . S
O3496 Zn3487 1.898 . S
O3496 C3490 1.167 . S
O3497 Zn3488 2.120 . S
O3497 C3490 1.299 . S
O3498 Zn3486 1.898 . S
O3498 C3493 1.167 . S
O3499 Zn3488 2.120 . S
O3499 C3493 1.299 . S
O3500 Zn3488 2.114 . S
O3500 C3502 1.166 . S
O3501 Zn3486 1.905 . S
O3501 C3502 1.182 . S
C3502 O3500 1.166 . S
C3502 O3501 1.182 . S
O3503 Zn3488 2.080 . S
O3503 C3506 1.305 . S
O3504 Zn3487 1.920 . S
O3504 C3506 1.234 . S
C3505 O3491 1.305 . S
C3505 O3492 1.234 . S
C3506 O3503 1.305 . S
C3506 O3504 1.234 . S
Zn3507 O3513 1.920 . S
Zn3507 O3519 1.898 . S
Zn3507 O3522 1.905 . S
Zn3508 O3516 1.905 . S
Zn3508 O3517 1.898 . S
Zn3508 O3525 1.920 . S
Zn3509 O3512 2.080 . S
Zn3509 O3515 2.114 . S
Zn3509 O3518 2.120 . S
Zn3509 O3520 2.120 . S
Zn3509 O3521 2.114 . S
Zn3509 O3524 2.080 . S
C3510 O3515 1.166 . S
C3510 O3516 1.182 . S
C3511 O3517 1.167 . S
C3511 O3518 1.299 . S
O3512 Zn3509 2.080 . S
O3512 C3526 1.305 . S
O3513 Zn3507 1.920 . S
O3513 C3526 1.234 . S
C3514 O3519 1.167 . S
C3514 O3520 1.299 . S
O3515 Zn3509 2.114 . S
O3515 C3510 1.166 . S
O3516 Zn3508 1.905 . S
O3516 C3510 1.182 . S
O3517 Zn3508 1.898 . S
O3517 C3511 1.167 . S
O3518 Zn3509 2.120 . S
O3518 C3511 1.299 . S
O3519 Zn3507 1.898 . S
O3519 C3514 1.167 . S
O3520 Zn3509 2.120 . S
O3520 C3514 1.299 . S
O3521 Zn3509 2.114 . S
O3521 C3523 1.166 . S
O3522 Zn3507 1.905 . S
O3522 C3523 1.182 . S
C3523 O3521 1.166 . S
C3523 O3522 1.182 . S
O3524 Zn3509 2.080 . S
O3524 C3527 1.305 . S
O3525 Zn3508 1.920 . S
O3525 C3527 1.234 . S
C3526 O3512 1.305 . S
C3526 O3513 1.234 . S
C3527 O3524 1.305 . S
C3527 O3525 1.234 . S
Zn3528 O3534 1.920 . S
Zn3528 O3540 1.898 . S
Zn3528 O3543 1.905 . S
Zn3529 O3537 1.905 . S
Zn3529 O3538 1.898 . S
Zn3529 O3546 1.920 . S
Zn3530 O3533 2.080 . S
Zn3530 O3536 2.114 . S
Zn3530 O3539 2.120 . S
Zn3530 O3541 2.120 . S
Zn3530 O3542 2.114 . S
Zn3530 O3545 2.080 . S
C3531 O3536 1.166 . S
C3531 O3537 1.182 . S
C3532 O3538 1.167 . S
C3532 O3539 1.299 . S
O3533 Zn3530 2.080 . S
O3533 C3547 1.305 . S
O3534 Zn3528 1.920 . S
O3534 C3547 1.234 . S
C3535 O3540 1.167 . S
C3535 O3541 1.299 . S
O3536 Zn3530 2.114 . S
O3536 C3531 1.166 . S
O3537 Zn3529 1.905 . S
O3537 C3531 1.182 . S
O3538 Zn3529 1.898 . S
O3538 C3532 1.167 . S
O3539 Zn3530 2.120 . S
O3539 C3532 1.299 . S
O3540 Zn3528 1.898 . S
O3540 C3535 1.167 . S
O3541 Zn3530 2.120 . S
O3541 C3535 1.299 . S
O3542 Zn3530 2.114 . S
O3542 C3544 1.166 . S
O3543 Zn3528 1.905 . S
O3543 C3544 1.182 . S
C3544 O3542 1.166 . S
C3544 O3543 1.182 . S
O3545 Zn3530 2.080 . S
O3545 C3548 1.305 . S
O3546 Zn3529 1.920 . S
O3546 C3548 1.234 . S
C3547 O3533 1.305 . S
C3547 O3534 1.234 . S
C3548 O3545 1.305 . S
C3548 O3546 1.234 . S
Zn3549 O3555 1.920 . S
Zn3549 O3561 1.898 . S
Zn3549 O3564 1.905 . S
Zn3550 O3558 1.905 . S
Zn3550 O3559 1.898 . S
Zn3550 O3567 1.920 . S
Zn3551 O3554 2.080 . S
Zn3551 O3557 2.114 . S
Zn3551 O3560 2.120 . S
Zn3551 O3562 2.120 . S
Zn3551 O3563 2.114 . S
Zn3551 O3566 2.080 . S
C3552 O3557 1.166 . S
C3552 O3558 1.182 . S
C3553 O3559 1.167 . S
C3553 O3560 1.299 . S
O3554 Zn3551 2.080 . S
O3554 C3568 1.305 . S
O3555 Zn3549 1.920 . S
O3555 C3568 1.234 . S
C3556 O3561 1.167 . S
C3556 O3562 1.299 . S
O3557 Zn3551 2.114 . S
O3557 C3552 1.166 . S
O3558 Zn3550 1.905 . S
O3558 C3552 1.182 . S
O3559 Zn3550 1.898 . S
O3559 C3553 1.167 . S
O3560 Zn3551 2.120 . S
O3560 C3553 1.299 . S
O3561 Zn3549 1.898 . S
O3561 C3556 1.167 . S
O3562 Zn3551 2.120 . S
O3562 C3556 1.299 . S
O3563 Zn3551 2.114 . S
O3563 C3565 1.166 . S
O3564 Zn3549 1.905 . S
O3564 C3565 1.182 . S
C3565 O3563 1.166 . S
C3565 O3564 1.182 . S
O3566 Zn3551 2.080 . S
O3566 C3569 1.305 . S
O3567 Zn3550 1.920 . S
O3567 C3569 1.234 . S
C3568 O3554 1.305 . S
C3568 O3555 1.234 . S
C3569 O3566 1.305 . S
C3569 O3567 1.234 . S
Zn3570 O3576 1.920 . S
Zn3570 O3582 1.898 . S
Zn3570 O3585 1.905 . S
Zn3571 O3579 1.905 . S
Zn3571 O3580 1.898 . S
Zn3571 O3588 1.920 . S
Zn3572 O3575 2.080 . S
Zn3572 O3578 2.114 . S
Zn3572 O3581 2.120 1_545 S
Zn3572 O3583 2.120 . S
Zn3572 O3584 2.114 . S
Zn3572 O3587 2.080 . S
C3573 O3578 1.166 1_565 S
C3573 O3579 1.182 . S
C3574 O3580 1.167 . S
C3574 O3581 1.299 . S
O3575 Zn3572 2.080 . S
O3575 C3589 1.305 . S
O3576 Zn3570 1.920 . S
O3576 C3589 1.234 . S
C3577 O3582 1.167 . S
C3577 O3583 1.299 . S
O3578 Zn3572 2.114 . S
O3578 C3573 1.166 1_545 S
O3579 Zn3571 1.905 . S
O3579 C3573 1.182 . S
O3580 Zn3571 1.898 . S
O3580 C3574 1.167 . S
O3581 Zn3572 2.120 1_565 S
O3581 C3574 1.299 . S
O3582 Zn3570 1.898 . S
O3582 C3577 1.167 . S
O3583 Zn3572 2.120 . S
O3583 C3577 1.299 . S
O3584 Zn3572 2.114 . S
O3584 C3586 1.166 . S
O3585 Zn3570 1.905 . S
O3585 C3586 1.182 . S
C3586 O3584 1.166 . S
C3586 O3585 1.182 . S
O3587 Zn3572 2.080 . S
O3587 C3590 1.305 . S
O3588 Zn3571 1.920 . S
O3588 C3590 1.234 1_565 S
C3589 O3575 1.305 . S
C3589 O3576 1.234 . S
C3590 O3587 1.305 . S
C3590 O3588 1.234 1_545 S
Zn3591 O3597 1.920 1_565 S
Zn3591 O3603 1.898 1_565 S
Zn3591 O3606 1.905 . S
Zn3592 O3600 1.905 . S
Zn3592 O3601 1.898 . S
Zn3592 O3609 1.920 . S
Zn3593 O3596 2.080 . S
Zn3593 O3599 2.114 . S
Zn3593 O3602 2.120 . S
Zn3593 O3604 2.120 . S
Zn3593 O3605 2.114 1_545 S
Zn3593 O3608 2.080 . S
C3594 O3599 1.166 . S
C3594 O3600 1.182 . S
C3595 O3601 1.167 . S
C3595 O3602 1.299 . S
O3596 Zn3593 2.080 . S
O3596 C3610 1.305 . S
O3597 Zn3591 1.920 1_545 S
O3597 C3610 1.234 . S
C3598 O3603 1.167 . S
C3598 O3604 1.299 . S
O3599 Zn3593 2.114 . S
O3599 C3594 1.166 . S
O3600 Zn3592 1.905 . S
O3600 C3594 1.182 . S
O3601 Zn3592 1.898 . S
O3601 C3595 1.167 . S
O3602 Zn3593 2.120 . S
O3602 C3595 1.299 . S
O3603 Zn3591 1.898 1_545 S
O3603 C3598 1.167 . S
O3604 Zn3593 2.120 . S
O3604 C3598 1.299 . S
O3605 Zn3593 2.114 1_565 S
O3605 C3607 1.166 . S
O3606 Zn3591 1.905 . S
O3606 C3607 1.182 . S
C3607 O3605 1.166 . S
C3607 O3606 1.182 . S
O3608 Zn3593 2.080 . S
O3608 C3611 1.305 . S
O3609 Zn3592 1.920 . S
O3609 C3611 1.234 . S
C3610 O3596 1.305 . S
C3610 O3597 1.234 . S
C3611 O3608 1.305 . S
C3611 O3609 1.234 . S
Zn3612 O3618 1.920 . S
Zn3612 O3624 1.898 . S
Zn3612 O3627 1.905 . S
Zn3613 O3621 1.905 . S
Zn3613 O3622 1.898 . S
Zn3613 O3630 1.920 . S
Zn3614 O3617 2.080 . S
Zn3614 O3620 2.114 . S
Zn3614 O3623 2.120 . S
Zn3614 O3625 2.120 . S
Zn3614 O3626 2.114 . S
Zn3614 O3629 2.080 . S
C3615 O3620 1.166 . S
C3615 O3621 1.182 . S
C3616 O3622 1.167 . S
C3616 O3623 1.299 . S
O3617 Zn3614 2.080 . S
O3617 C3631 1.305 . S
O3618 Zn3612 1.920 . S
O3618 C3631 1.234 . S
C3619 O3624 1.167 . S
C3619 O3625 1.299 . S
O3620 Zn3614 2.114 . S
O3620 C3615 1.166 . S
O3621 Zn3613 1.905 . S
O3621 C3615 1.182 . S
O3622 Zn3613 1.898 . S
O3622 C3616 1.167 . S
O3623 Zn3614 2.120 . S
O3623 C3616 1.299 . S
O3624 Zn3612 1.898 . S
O3624 C3619 1.167 . S
O3625 Zn3614 2.120 . S
O3625 C3619 1.299 . S
O3626 Zn3614 2.114 . S
O3626 C3628 1.166 . S
O3627 Zn3612 1.905 . S
O3627 C3628 1.182 . S
C3628 O3626 1.166 . S
C3628 O3627 1.182 . S
O3629 Zn3614 2.080 . S
O3629 C3632 1.305 . S
O3630 Zn3613 1.920 . S
O3630 C3632 1.234 . S
C3631 O3617 1.305 . S
C3631 O3618 1.234 . S
C3632 O3629 1.305 . S
C3632 O3630 1.234 . S
Zn3633 O3639 1.920 . S
Zn3633 O3645 1.898 . S
Zn3633 O3648 1.905 . S
Zn3634 O3642 1.905 . S
Zn3634 O3643 1.898 . S
Zn3634 O3651 1.920 . S
Zn3635 O3638 2.080 . S
Zn3635 O3641 2.114 . S
Zn3635 O3644 2.120 1_655 S
Zn3635 O3646 2.120 . S
Zn3635 O3647 2.114 . S
Zn3635 O3650 2.080 . S
C3636 O3641 1.166 1_455 S
C3636 O3642 1.182 . S
C3637 O3643 1.167 . S
C3637 O3644 1.299 . S
O3638 Zn3635 2.080 . S
O3638 C3652 1.305 . S
O3639 Zn3633 1.920 . S
O3639 C3652 1.234 . S
C3640 O3645 1.167 . S
C3640 O3646 1.299 . S
O3641 Zn3635 2.114 . S
O3641 C3636 1.166 1_655 S
O3642 Zn3634 1.905 . S
O3642 C3636 1.182 . S
O3643 Zn3634 1.898 . S
O3643 C3637 1.167 . S
O3644 Zn3635 2.120 1_455 S
O3644 C3637 1.299 . S
O3645 Zn3633 1.898 . S
O3645 C3640 1.167 . S
O3646 Zn3635 2.120 . S
O3646 C3640 1.299 . S
O3647 Zn3635 2.114 . S
O3647 C3649 1.166 . S
O3648 Zn3633 1.905 . S
O3648 C3649 1.182 . S
C3649 O3647 1.166 . S
C3649 O3648 1.182 . S
O3650 Zn3635 2.080 . S
O3650 C3653 1.305 . S
O3651 Zn3634 1.920 . S
O3651 C3653 1.234 1_455 S
C3652 O3638 1.305 . S
C3652 O3639 1.234 . S
C3653 O3650 1.305 . S
C3653 O3651 1.234 1_655 S
Zn3654 O3660 1.920 . S
Zn3654 O3666 1.898 . S
Zn3654 O3669 1.905 . S
Zn3655 O3663 1.905 . S
Zn3655 O3664 1.898 . S
Zn3655 O3672 1.920 . S
Zn3656 O3659 2.080 . S
Zn3656 O3662 2.114 . S
Zn3656 O3665 2.120 . S
Zn3656 O3667 2.120 . S
Zn3656 O3668 2.114 . S
Zn3656 O3671 2.080 . S
C3657 O3662 1.166 . S
C3657 O3663 1.182 . S
C3658 O3664 1.167 . S
C3658 O3665 1.299 . S
O3659 Zn3656 2.080 . S
O3659 C3673 1.305 . S
O3660 Zn3654 1.920 . S
O3660 C3673 1.234 . S
C3661 O3666 1.167 . S
C3661 O3667 1.299 . S
O3662 Zn3656 2.114 . S
O3662 C3657 1.166 . S
O3663 Zn3655 1.905 . S
O3663 C3657 1.182 . S
O3664 Zn3655 1.898 . S
O3664 C3658 1.167 . S
O3665 Zn3656 2.120 . S
O3665 C3658 1.299 . S
O3666 Zn3654 1.898 . S
O3666 C3661 1.167 . S
O3667 Zn3656 2.120 . S
O3667 C3661 1.299 . S
O3668 Zn3656 2.114 . S
O3668 C3670 1.166 . S
O3669 Zn3654 1.905 . S
O3669 C3670 1.182 . S
C3670 O3668 1.166 . S
C3670 O3669 1.182 . S
O3671 Zn3656 2.080 . S
O3671 C3674 1.305 . S
O3672 Zn3655 1.920 . S
O3672 C3674 1.234 . S
C3673 O3659 1.305 . S
C3673 O3660 1.234 . S
C3674 O3671 1.305 . S
C3674 O3672 1.234 . S
Zn3675 O3681 1.920 1_565 S
Zn3675 O3687 1.898 1_565 S
Zn3675 O3690 1.905 . S
Zn3676 O3684 1.905 . S
Zn3676 O3685 1.898 . S
Zn3676 O3693 1.920 . S
Zn3677 O3680 2.080 . S
Zn3677 O3683 2.114 . S
Zn3677 O3686 2.120 . S
Zn3677 O3688 2.120 . S
Zn3677 O3689 2.114 1_545 S
Zn3677 O3692 2.080 . S
C3678 O3683 1.166 . S
C3678 O3684 1.182 . S
C3679 O3685 1.167 . S
C3679 O3686 1.299 . S
O3680 Zn3677 2.080 . S
O3680 C3694 1.305 . S
O3681 Zn3675 1.920 1_545 S
O3681 C3694 1.234 . S
C3682 O3687 1.167 . S
C3682 O3688 1.299 . S
O3683 Zn3677 2.114 . S
O3683 C3678 1.166 . S
O3684 Zn3676 1.905 . S
O3684 C3678 1.182 . S
O3685 Zn3676 1.898 . S
O3685 C3679 1.167 . S
O3686 Zn3677 2.120 . S
O3686 C3679 1.299 . S
O3687 Zn3675 1.898 1_545 S
O3687 C3682 1.167 . S
O3688 Zn3677 2.120 . S
O3688 C3682 1.299 . S
O3689 Zn3677 2.114 1_565 S
O3689 C3691 1.166 . S
O3690 Zn3675 1.905 . S
O3690 C3691 1.182 . S
C3691 O3689 1.166 . S
C3691 O3690 1.182 . S
O3692 Zn3677 2.080 . S
O3692 C3695 1.305 . S
O3693 Zn3676 1.920 . S
O3693 C3695 1.234 . S
C3694 O3680 1.305 . S
C3694 O3681 1.234 . S
C3695 O3692 1.305 . S
C3695 O3693 1.234 . S
Zn3696 O3702 1.920 . S
Zn3696 O3708 1.898 . S
Zn3696 O3711 1.905 . S
Zn3697 O3705 1.905 . S
Zn3697 O3706 1.898 . S
Zn3697 O3714 1.920 . S
Zn3698 O3701 2.080 . S
Zn3698 O3704 2.114 . S
Zn3698 O3707 2.120 . S
Zn3698 O3709 2.120 . S
Zn3698 O3710 2.114 . S
Zn3698 O3713 2.080 . S
C3699 O3704 1.166 . S
C3699 O3705 1.182 . S
C3700 O3706 1.167 . S
C3700 O3707 1.299 . S
O3701 Zn3698 2.080 . S
O3701 C3715 1.305 . S
O3702 Zn3696 1.920 . S
O3702 C3715 1.234 . S
C3703 O3708 1.167 . S
C3703 O3709 1.299 . S
O3704 Zn3698 2.114 . S
O3704 C3699 1.166 . S
O3705 Zn3697 1.905 . S
O3705 C3699 1.182 . S
O3706 Zn3697 1.898 . S
O3706 C3700 1.167 . S
O3707 Zn3698 2.120 . S
O3707 C3700 1.299 . S
O3708 Zn3696 1.898 . S
O3708 C3703 1.167 . S
O3709 Zn3698 2.120 . S
O3709 C3703 1.299 . S
O3710 Zn3698 2.114 . S
O3710 C3712 1.166 . S
O3711 Zn3696 1.905 . S
O3711 C3712 1.182 . S
C3712 O3710 1.166 . S
C3712 O3711 1.182 . S
O3713 Zn3698 2.080 . S
O3713 C3716 1.305 . S
O3714 Zn3697 1.920 . S
O3714 C3716 1.234 . S
C3715 O3701 1.305 . S
C3715 O3702 1.234 . S
C3716 O3713 1.305 . S
C3716 O3714 1.234 . S
Zn3717 O3723 1.920 1_655 S
Zn3717 O3729 1.898 1_655 S
Zn3717 O3732 1.905 . S
Zn3718 O3726 1.905 . S
Zn3718 O3727 1.898 . S
Zn3718 O3735 1.920 . S
Zn3719 O3722 2.080 . S
Zn3719 O3725 2.114 . S
Zn3719 O3728 2.120 . S
Zn3719 O3730 2.120 . S
Zn3719 O3731 2.114 1_455 S
Zn3719 O3734 2.080 . S
C3720 O3725 1.166 . S
C3720 O3726 1.182 . S
C3721 O3727 1.167 . S
C3721 O3728 1.299 . S
O3722 Zn3719 2.080 . S
O3722 C3736 1.305 . S
O3723 Zn3717 1.920 1_455 S
O3723 C3736 1.234 . S
C3724 O3729 1.167 . S
C3724 O3730 1.299 . S
O3725 Zn3719 2.114 . S
O3725 C3720 1.166 . S
O3726 Zn3718 1.905 . S
O3726 C3720 1.182 . S
O3727 Zn3718 1.898 . S
O3727 C3721 1.167 . S
O3728 Zn3719 2.120 . S
O3728 C3721 1.299 . S
O3729 Zn3717 1.898 1_455 S
O3729 C3724 1.167 . S
O3730 Zn3719 2.120 . S
O3730 C3724 1.299 . S
O3731 Zn3719 2.114 1_655 S
O3731 C3733 1.166 . S
O3732 Zn3717 1.905 . S
O3732 C3733 1.182 . S
C3733 O3731 1.166 . S
C3733 O3732 1.182 . S
O3734 Zn3719 2.080 . S
O3734 C3737 1.305 . S
O3735 Zn3718 1.920 . S
O3735 C3737 1.234 . S
C3736 O3722 1.305 . S
C3736 O3723 1.234 . S
C3737 O3734 1.305 . S
C3737 O3735 1.234 . S
Zn3738 O3744 1.920 . S
Zn3738 O3750 1.898 . S
Zn3738 O3753 1.905 . S
Zn3739 O3747 1.905 . S
Zn3739 O3748 1.898 . S
Zn3739 O3756 1.920 . S
Zn3740 O3743 2.080 . S
Zn3740 O3746 2.114 . S
Zn3740 O3749 2.120 . S
Zn3740 O3751 2.120 . S
Zn3740 O3752 2.114 . S
Zn3740 O3755 2.080 . S
C3741 O3746 1.166 . S
C3741 O3747 1.182 . S
C3742 O3748 1.167 . S
C3742 O3749 1.299 . S
O3743 Zn3740 2.080 . S
O3743 C3757 1.305 . S
O3744 Zn3738 1.920 . S
O3744 C3757 1.234 . S
C3745 O3750 1.167 . S
C3745 O3751 1.299 . S
O3746 Zn3740 2.114 . S
O3746 C3741 1.166 . S
O3747 Zn3739 1.905 . S
O3747 C3741 1.182 . S
O3748 Zn3739 1.898 . S
O3748 C3742 1.167 . S
O3749 Zn3740 2.120 . S
O3749 C3742 1.299 . S
O3750 Zn3738 1.898 . S
O3750 C3745 1.167 . S
O3751 Zn3740 2.120 . S
O3751 C3745 1.299 . S
O3752 Zn3740 2.114 . S
O3752 C3754 1.166 . S
O3753 Zn3738 1.905 . S
O3753 C3754 1.182 . S
C3754 O3752 1.166 . S
C3754 O3753 1.182 . S
O3755 Zn3740 2.080 . S
O3755 C3758 1.305 . S
O3756 Zn3739 1.920 . S
O3756 C3758 1.234 . S
C3757 O3743 1.305 . S
C3757 O3744 1.234 . S
C3758 O3755 1.305 . S
C3758 O3756 1.234 . S
Zn3759 O3765 1.920 . S
Zn3759 O3771 1.898 . S
Zn3759 O3774 1.905 . S
Zn3760 O3768 1.905 . S
Zn3760 O3769 1.898 . S
Zn3760 O3777 1.920 . S
Zn3761 O3764 2.080 . S
Zn3761 O3767 2.114 . S
Zn3761 O3770 2.120 1_556 S
Zn3761 O3772 2.120 . S
Zn3761 O3773 2.114 . S
Zn3761 O3776 2.080 . S
C3762 O3767 1.166 1_554 S
C3762 O3768 1.182 . S
C3763 O3769 1.167 . S
C3763 O3770 1.299 . S
O3764 Zn3761 2.080 . S
O3764 C3778 1.305 . S
O3765 Zn3759 1.920 . S
O3765 C3778 1.234 . S
C3766 O3771 1.167 . S
C3766 O3772 1.299 . S
O3767 Zn3761 2.114 . S
O3767 C3762 1.166 1_556 S
O3768 Zn3760 1.905 . S
O3768 C3762 1.182 . S
O3769 Zn3760 1.898 . S
O3769 C3763 1.167 . S
O3770 Zn3761 2.120 1_554 S
O3770 C3763 1.299 . S
O3771 Zn3759 1.898 . S
O3771 C3766 1.167 . S
O3772 Zn3761 2.120 . S
O3772 C3766 1.299 . S
O3773 Zn3761 2.114 . S
O3773 C3775 1.166 . S
O3774 Zn3759 1.905 . S
O3774 C3775 1.182 . S
C3775 O3773 1.166 . S
C3775 O3774 1.182 . S
O3776 Zn3761 2.080 . S
O3776 C3779 1.305 . S
O3777 Zn3760 1.920 . S
O3777 C3779 1.234 1_554 S
C3778 O3764 1.305 . S
C3778 O3765 1.234 . S
C3779 O3776 1.305 . S
C3779 O3777 1.234 1_556 S
Zn3780 O3786 1.920 . S
Zn3780 O3792 1.898 . S
Zn3780 O3795 1.905 . S
Zn3781 O3789 1.905 . S
Zn3781 O3790 1.898 . S
Zn3781 O3798 1.920 . S
Zn3782 O3785 2.080 . S
Zn3782 O3788 2.114 . S
Zn3782 O3791 2.120 . S
Zn3782 O3793 2.120 1_554 S
Zn3782 O3794 2.114 . S
Zn3782 O3797 2.080 . S
C3783 O3788 1.166 . S
C3783 O3789 1.182 . S
C3784 O3790 1.167 . S
C3784 O3791 1.299 . S
O3785 Zn3782 2.080 . S
O3785 C3799 1.305 . S
O3786 Zn3780 1.920 . S
O3786 C3799 1.234 1_556 S
C3787 O3792 1.167 . S
C3787 O3793 1.299 . S
O3788 Zn3782 2.114 . S
O3788 C3783 1.166 . S
O3789 Zn3781 1.905 . S
O3789 C3783 1.182 . S
O3790 Zn3781 1.898 . S
O3790 C3784 1.167 . S
O3791 Zn3782 2.120 . S
O3791 C3784 1.299 . S
O3792 Zn3780 1.898 . S
O3792 C3787 1.167 . S
O3793 Zn3782 2.120 1_556 S
O3793 C3787 1.299 . S
O3794 Zn3782 2.114 . S
O3794 C3796 1.166 1_554 S
O3795 Zn3780 1.905 . S
O3795 C3796 1.182 . S
C3796 O3794 1.166 1_556 S
C3796 O3795 1.182 . S
O3797 Zn3782 2.080 . S
O3797 C3800 1.305 . S
O3798 Zn3781 1.920 . S
O3798 C3800 1.234 . S
C3799 O3785 1.305 . S
C3799 O3786 1.234 1_554 S
C3800 O3797 1.305 . S
C3800 O3798 1.234 . S
Zn3801 O3807 1.920 . S
Zn3801 O3813 1.898 . S
Zn3801 O3816 1.905 . S
Zn3802 O3810 1.905 . S
Zn3802 O3811 1.898 . S
Zn3802 O3819 1.920 . S
Zn3803 O3806 2.080 . S
Zn3803 O3809 2.114 . S
Zn3803 O3812 2.120 . S
Zn3803 O3814 2.120 . S
Zn3803 O3815 2.114 . S
Zn3803 O3818 2.080 . S
C3804 O3809 1.166 . S
C3804 O3810 1.182 . S
C3805 O3811 1.167 . S
C3805 O3812 1.299 . S
O3806 Zn3803 2.080 . S
O3806 C3820 1.305 . S
O3807 Zn3801 1.920 . S
O3807 C3820 1.234 . S
C3808 O3813 1.167 . S
C3808 O3814 1.299 . S
O3809 Zn3803 2.114 . S
O3809 C3804 1.166 . S
O3810 Zn3802 1.905 . S
O3810 C3804 1.182 . S
O3811 Zn3802 1.898 . S
O3811 C3805 1.167 . S
O3812 Zn3803 2.120 . S
O3812 C3805 1.299 . S
O3813 Zn3801 1.898 . S
O3813 C3808 1.167 . S
O3814 Zn3803 2.120 . S
O3814 C3808 1.299 . S
O3815 Zn3803 2.114 . S
O3815 C3817 1.166 . S
O3816 Zn3801 1.905 . S
O3816 C3817 1.182 . S
C3817 O3815 1.166 . S
C3817 O3816 1.182 . S
O3818 Zn3803 2.080 . S
O3818 C3821 1.305 . S
O3819 Zn3802 1.920 . S
O3819 C3821 1.234 . S
C3820 O3806 1.305 . S
C3820 O3807 1.234 . S
C3821 O3818 1.305 . S
C3821 O3819 1.234 . S
Zn3822 O3828 1.920 1_545 S
Zn3822 O3834 1.898 1_545 S
Zn3822 O3837 1.905 . S
Zn3823 O3831 1.905 . S
Zn3823 O3832 1.898 . S
Zn3823 O3840 1.920 . S
Zn3824 O3827 2.080 . S
Zn3824 O3830 2.114 . S
Zn3824 O3833 2.120 . S
Zn3824 O3835 2.120 . S
Zn3824 O3836 2.114 1_565 S
Zn3824 O3839 2.080 . S
C3825 O3830 1.166 . S
C3825 O3831 1.182 . S
C3826 O3832 1.167 . S
C3826 O3833 1.299 . S
O3827 Zn3824 2.080 . S
O3827 C3841 1.305 . S
O3828 Zn3822 1.920 1_565 S
O3828 C3841 1.234 . S
C3829 O3834 1.167 . S
C3829 O3835 1.299 . S
O3830 Zn3824 2.114 . S
O3830 C3825 1.166 . S
O3831 Zn3823 1.905 . S
O3831 C3825 1.182 . S
O3832 Zn3823 1.898 . S
O3832 C3826 1.167 . S
O3833 Zn3824 2.120 . S
O3833 C3826 1.299 . S
O3834 Zn3822 1.898 1_565 S
O3834 C3829 1.167 . S
O3835 Zn3824 2.120 . S
O3835 C3829 1.299 . S
O3836 Zn3824 2.114 1_545 S
O3836 C3838 1.166 . S
O3837 Zn3822 1.905 . S
O3837 C3838 1.182 . S
C3838 O3836 1.166 . S
C3838 O3837 1.182 . S
O3839 Zn3824 2.080 . S
O3839 C3842 1.305 . S
O3840 Zn3823 1.920 . S
O3840 C3842 1.234 . S
C3841 O3827 1.305 . S
C3841 O3828 1.234 . S
C3842 O3839 1.305 . S
C3842 O3840 1.234 . S
Zn3843 O3849 1.920 . S
Zn3843 O3855 1.898 . S
Zn3843 O3858 1.905 . S
Zn3844 O3852 1.905 . S
Zn3844 O3853 1.898 . S
Zn3844 O3861 1.920 . S
Zn3845 O3848 2.080 . S
Zn3845 O3851 2.114 . S
Zn3845 O3854 2.120 . S
Zn3845 O3856 2.120 . S
Zn3845 O3857 2.114 . S
Zn3845 O3860 2.080 . S
C3846 O3851 1.166 . S
C3846 O3852 1.182 . S
C3847 O3853 1.167 . S
C3847 O3854 1.299 . S
O3848 Zn3845 2.080 . S
O3848 C3862 1.305 . S
O3849 Zn3843 1.920 . S
O3849 C3862 1.234 . S
C3850 O3855 1.167 . S
C3850 O3856 1.299 . S
O3851 Zn3845 2.114 . S
O3851 C3846 1.166 . S
O3852 Zn3844 1.905 . S
O3852 C3846 1.182 . S
O3853 Zn3844 1.898 . S
O3853 C3847 1.167 . S
O3854 Zn3845 2.120 . S
O3854 C3847 1.299 . S
O3855 Zn3843 1.898 . S
O3855 C3850 1.167 . S
O3856 Zn3845 2.120 . S
O3856 C3850 1.299 . S
O3857 Zn3845 2.114 . S
O3857 C3859 1.166 . S
O3858 Zn3843 1.905 . S
O3858 C3859 1.182 . S
C3859 O3857 1.166 . S
C3859 O3858 1.182 . S
O3860 Zn3845 2.080 . S
O3860 C3863 1.305 . S
O3861 Zn3844 1.920 . S
O3861 C3863 1.234 . S
C3862 O3848 1.305 . S
C3862 O3849 1.234 . S
C3863 O3860 1.305 . S
C3863 O3861 1.234 . S
Zn3864 O3870 1.920 . S
Zn3864 O3876 1.898 . S
Zn3864 O3879 1.905 . S
Zn3865 O3873 1.905 . S
Zn3865 O3874 1.898 1_554 S
Zn3865 O3882 1.920 1_554 S
Zn3866 O3869 2.080 . S
Zn3866 O3872 2.114 1_556 S
Zn3866 O3875 2.120 . S
Zn3866 O3877 2.120 . S
Zn3866 O3878 2.114 . S
Zn3866 O3881 2.080 . S
C3867 O3872 1.166 . S
C3867 O3873 1.182 . S
C3868 O3874 1.167 . S
C3868 O3875 1.299 . S
O3869 Zn3866 2.080 . S
O3869 C3883 1.305 . S
O3870 Zn3864 1.920 . S
O3870 C3883 1.234 . S
C3871 O3876 1.167 . S
C3871 O3877 1.299 . S
O3872 Zn3866 2.114 1_554 S
O3872 C3867 1.166 . S
O3873 Zn3865 1.905 . S
O3873 C3867 1.182 . S
O3874 Zn3865 1.898 1_556 S
O3874 C3868 1.167 . S
O3875 Zn3866 2.120 . S
O3875 C3868 1.299 . S
O3876 Zn3864 1.898 . S
O3876 C3871 1.167 . S
O3877 Zn3866 2.120 . S
O3877 C3871 1.299 . S
O3878 Zn3866 2.114 . S
O3878 C3880 1.166 . S
O3879 Zn3864 1.905 . S
O3879 C3880 1.182 . S
C3880 O3878 1.166 . S
C3880 O3879 1.182 . S
O3881 Zn3866 2.080 . S
O3881 C3884 1.305 . S
O3882 Zn3865 1.920 1_556 S
O3882 C3884 1.234 . S
C3883 O3869 1.305 . S
C3883 O3870 1.234 . S
C3884 O3881 1.305 . S
C3884 O3882 1.234 . S
Zn3885 O3891 1.920 . S
Zn3885 O3897 1.898 . S
Zn3885 O3900 1.905 . S
Zn3886 O3894 1.905 . S
Zn3886 O3895 1.898 . S
Zn3886 O3903 1.920 . S
Zn3887 O3890 2.080 . S
Zn3887 O3893 2.114 . S
Zn3887 O3896 2.120 . S
Zn3887 O3898 2.120 . S
Zn3887 O3899 2.114 . S
Zn3887 O3902 2.080 . S
C3888 O3893 1.166 . S
C3888 O3894 1.182 . S
C3889 O3895 1.167 . S
C3889 O3896 1.299 . S
O3890 Zn3887 2.080 . S
O3890 C3904 1.305 . S
O3891 Zn3885 1.920 . S
O3891 C3904 1.234 . S
C3892 O3897 1.167 . S
C3892 O3898 1.299 . S
O3893 Zn3887 2.114 . S
O3893 C3888 1.166 . S
O3894 Zn3886 1.905 . S
O3894 C3888 1.182 . S
O3895 Zn3886 1.898 . S
O3895 C3889 1.167 . S
O3896 Zn3887 2.120 . S
O3896 C3889 1.299 . S
O3897 Zn3885 1.898 . S
O3897 C3892 1.167 . S
O3898 Zn3887 2.120 . S
O3898 C3892 1.299 . S
O3899 Zn3887 2.114 . S
O3899 C3901 1.166 . S
O3900 Zn3885 1.905 . S
O3900 C3901 1.182 . S
C3901 O3899 1.166 . S
C3901 O3900 1.182 . S
O3902 Zn3887 2.080 . S
O3902 C3905 1.305 . S
O3903 Zn3886 1.920 . S
O3903 C3905 1.234 . S
C3904 O3890 1.305 . S
C3904 O3891 1.234 . S
C3905 O3902 1.305 . S
C3905 O3903 1.234 . S
Zn3906 O3912 1.920 . S
Zn3906 O3918 1.898 . S
Zn3906 O3921 1.905 . S
Zn3907 O3915 1.905 . S
Zn3907 O3916 1.898 1_556 S
Zn3907 O3924 1.920 1_556 S
Zn3908 O3911 2.080 . S
Zn3908 O3914 2.114 1_554 S
Zn3908 O3917 2.120 . S
Zn3908 O3919 2.120 . S
Zn3908 O3920 2.114 . S
Zn3908 O3923 2.080 . S
C3909 O3914 1.166 . S
C3909 O3915 1.182 . S
C3910 O3916 1.167 . S
C3910 O3917 1.299 . S
O3911 Zn3908 2.080 . S
O3911 C3925 1.305 . S
O3912 Zn3906 1.920 . S
O3912 C3925 1.234 . S
C3913 O3918 1.167 . S
C3913 O3919 1.299 . S
O3914 Zn3908 2.114 1_556 S
O3914 C3909 1.166 . S
O3915 Zn3907 1.905 . S
O3915 C3909 1.182 . S
O3916 Zn3907 1.898 1_554 S
O3916 C3910 1.167 . S
O3917 Zn3908 2.120 . S
O3917 C3910 1.299 . S
O3918 Zn3906 1.898 . S
O3918 C3913 1.167 . S
O3919 Zn3908 2.120 . S
O3919 C3913 1.299 . S
O3920 Zn3908 2.114 . S
O3920 C3922 1.166 . S
O3921 Zn3906 1.905 . S
O3921 C3922 1.182 . S
C3922 O3920 1.166 . S
C3922 O3921 1.182 . S
O3923 Zn3908 2.080 . S
O3923 C3926 1.305 . S
O3924 Zn3907 1.920 1_554 S
O3924 C3926 1.234 . S
C3925 O3911 1.305 . S
C3925 O3912 1.234 . S
C3926 O3923 1.305 . S
C3926 O3924 1.234 . S
Zn3927 O3933 1.920 . S
Zn3927 O3939 1.898 . S
Zn3927 O3942 1.905 . S
Zn3928 O3936 1.905 . S
Zn3928 O3937 1.898 . S
Zn3928 O3945 1.920 . S
Zn3929 O3932 2.080 . S
Zn3929 O3935 2.114 . S
Zn3929 O3938 2.120 1_455 S
Zn3929 O3940 2.120 . S
Zn3929 O3941 2.114 . S
Zn3929 O3944 2.080 . S
C3930 O3935 1.166 1_655 S
C3930 O3936 1.182 . S
C3931 O3937 1.167 . S
C3931 O3938 1.299 . S
O3932 Zn3929 2.080 . S
O3932 C3946 1.305 . S
O3933 Zn3927 1.920 . S
O3933 C3946 1.234 . S
C3934 O3939 1.167 . S
C3934 O3940 1.299 . S
O3935 Zn3929 2.114 . S
O3935 C3930 1.166 1_455 S
O3936 Zn3928 1.905 . S
O3936 C3930 1.182 . S
O3937 Zn3928 1.898 . S
O3937 C3931 1.167 . S
O3938 Zn3929 2.120 1_655 S
O3938 C3931 1.299 . S
O3939 Zn3927 1.898 . S
O3939 C3934 1.167 . S
O3940 Zn3929 2.120 . S
O3940 C3934 1.299 . S
O3941 Zn3929 2.114 . S
O3941 C3943 1.166 . S
O3942 Zn3927 1.905 . S
O3942 C3943 1.182 . S
C3943 O3941 1.166 . S
C3943 O3942 1.182 . S
O3944 Zn3929 2.080 . S
O3944 C3947 1.305 . S
O3945 Zn3928 1.920 . S
O3945 C3947 1.234 1_655 S
C3946 O3932 1.305 . S
C3946 O3933 1.234 . S
C3947 O3944 1.305 . S
C3947 O3945 1.234 1_455 S
Zn3948 O3954 1.920 . S
Zn3948 O3960 1.898 . S
Zn3948 O3963 1.905 . S
Zn3949 O3957 1.905 . S
Zn3949 O3958 1.898 . S
Zn3949 O3966 1.920 . S
Zn3950 O3953 2.080 . S
Zn3950 O3956 2.114 . S
Zn3950 O3959 2.120 . S
Zn3950 O3961 2.120 . S
Zn3950 O3962 2.114 . S
Zn3950 O3965 2.080 . S
C3951 O3956 1.166 . S
C3951 O3957 1.182 . S
C3952 O3958 1.167 . S
C3952 O3959 1.299 . S
O3953 Zn3950 2.080 . S
O3953 C3967 1.305 . S
O3954 Zn3948 1.920 . S
O3954 C3967 1.234 . S
C3955 O3960 1.167 . S
C3955 O3961 1.299 . S
O3956 Zn3950 2.114 . S
O3956 C3951 1.166 . S
O3957 Zn3949 1.905 . S
O3957 C3951 1.182 . S
O3958 Zn3949 1.898 . S
O3958 C3952 1.167 . S
O3959 Zn3950 2.120 . S
O3959 C3952 1.299 . S
O3960 Zn3948 1.898 . S
O3960 C3955 1.167 . S
O3961 Zn3950 2.120 . S
O3961 C3955 1.299 . S
O3962 Zn3950 2.114 . S
O3962 C3964 1.166 . S
O3963 Zn3948 1.905 . S
O3963 C3964 1.182 . S
C3964 O3962 1.166 . S
C3964 O3963 1.182 . S
O3965 Zn3950 2.080 . S
O3965 C3968 1.305 . S
O3966 Zn3949 1.920 . S
O3966 C3968 1.234 . S
C3967 O3953 1.305 . S
C3967 O3954 1.234 . S
C3968 O3965 1.305 . S
C3968 O3966 1.234 . S
Zn3969 O3975 1.920 . S
Zn3969 O3981 1.898 . S
Zn3969 O3984 1.905 . S
Zn3970 O3978 1.905 . S
Zn3970 O3979 1.898 1_554 S
Zn3970 O3987 1.920 1_554 S
Zn3971 O3974 2.080 . S
Zn3971 O3977 2.114 1_556 S
Zn3971 O3980 2.120 . S
Zn3971 O3982 2.120 . S
Zn3971 O3983 2.114 . S
Zn3971 O3986 2.080 . S
C3972 O3977 1.166 . S
C3972 O3978 1.182 . S
C3973 O3979 1.167 . S
C3973 O3980 1.299 . S
O3974 Zn3971 2.080 . S
O3974 C3988 1.305 . S
O3975 Zn3969 1.920 . S
O3975 C3988 1.234 . S
C3976 O3981 1.167 . S
C3976 O3982 1.299 . S
O3977 Zn3971 2.114 1_554 S
O3977 C3972 1.166 . S
O3978 Zn3970 1.905 . S
O3978 C3972 1.182 . S
O3979 Zn3970 1.898 1_556 S
O3979 C3973 1.167 . S
O3980 Zn3971 2.120 . S
O3980 C3973 1.299 . S
O3981 Zn3969 1.898 . S
O3981 C3976 1.167 . S
O3982 Zn3971 2.120 . S
O3982 C3976 1.299 . S
O3983 Zn3971 2.114 . S
O3983 C3985 1.166 . S
O3984 Zn3969 1.905 . S
O3984 C3985 1.182 . S
C3985 O3983 1.166 . S
C3985 O3984 1.182 . S
O3986 Zn3971 2.080 . S
O3986 C3989 1.305 . S
O3987 Zn3970 1.920 1_556 S
O3987 C3989 1.234 . S
C3988 O3974 1.305 . S
C3988 O3975 1.234 . S
C3989 O3986 1.305 . S
C3989 O3987 1.234 . S
Zn3990 O3996 1.920 . S
Zn3990 O4002 1.898 . S
Zn3990 O4005 1.905 . S
Zn3991 O3999 1.905 . S
Zn3991 O4000 1.898 . S
Zn3991 O4008 1.920 . S
Zn3992 O3995 2.080 . S
Zn3992 O3998 2.114 . S
Zn3992 O4001 2.120 . S
Zn3992 O4003 2.120 . S
Zn3992 O4004 2.114 . S
Zn3992 O4007 2.080 . S
C3993 O3998 1.166 . S
C3993 O3999 1.182 . S
C3994 O4000 1.167 . S
C3994 O4001 1.299 . S
O3995 Zn3992 2.080 . S
O3995 C4009 1.305 . S
O3996 Zn3990 1.920 . S
O3996 C4009 1.234 . S
C3997 O4002 1.167 . S
C3997 O4003 1.299 . S
O3998 Zn3992 2.114 . S
O3998 C3993 1.166 . S
O3999 Zn3991 1.905 . S
O3999 C3993 1.182 . S
O4000 Zn3991 1.898 . S
O4000 C3994 1.167 . S
O4001 Zn3992 2.120 . S
O4001 C3994 1.299 . S
O4002 Zn3990 1.898 . S
O4002 C3997 1.167 . S
O4003 Zn3992 2.120 . S
O4003 C3997 1.299 . S
O4004 Zn3992 2.114 . S
O4004 C4006 1.166 . S
O4005 Zn3990 1.905 . S
O4005 C4006 1.182 . S
C4006 O4004 1.166 . S
C4006 O4005 1.182 . S
O4007 Zn3992 2.080 . S
O4007 C4010 1.305 . S
O4008 Zn3991 1.920 . S
O4008 C4010 1.234 . S
C4009 O3995 1.305 . S
C4009 O3996 1.234 . S
C4010 O4007 1.305 . S
C4010 O4008 1.234 . S
Zn4011 O4017 1.920 . S
Zn4011 O4023 1.898 . S
Zn4011 O4026 1.905 . S
Zn4012 O4020 1.905 . S
Zn4012 O4021 1.898 . S
Zn4012 O4029 1.920 . S
Zn4013 O4016 2.080 . S
Zn4013 O4019 2.114 . S
Zn4013 O4022 2.120 . S
Zn4013 O4024 2.120 . S
Zn4013 O4025 2.114 . S
Zn4013 O4028 2.080 . S
C4014 O4019 1.166 . S
C4014 O4020 1.182 . S
C4015 O4021 1.167 . S
C4015 O4022 1.299 . S
O4016 Zn4013 2.080 . S
O4016 C4030 1.305 . S
O4017 Zn4011 1.920 . S
O4017 C4030 1.234 . S
C4018 O4023 1.167 . S
C4018 O4024 1.299 . S
O4019 Zn4013 2.114 . S
O4019 C4014 1.166 . S
O4020 Zn4012 1.905 . S
O4020 C4014 1.182 . S
O4021 Zn4012 1.898 . S
O4021 C4015 1.167 . S
O4022 Zn4013 2.120 . S
O4022 C4015 1.299 . S
O4023 Zn4011 1.898 . S
O4023 C4018 1.167 . S
O4024 Zn4013 2.120 . S
O4024 C4018 1.299 . S
O4025 Zn4013 2.114 . S
O4025 C4027 1.166 . S
O4026 Zn4011 1.905 . S
O4026 C4027 1.182 . S
C4027 O4025 1.166 . S
C4027 O4026 1.182 . S
O4028 Zn4013 2.080 . S
O4028 C4031 1.305 . S
O4029 Zn4012 1.920 . S
O4029 C4031 1.234 . S
C4030 O4016 1.305 . S
C4030 O4017 1.234 . S
C4031 O4028 1.305 . S
C4031 O4029 1.234 . S
C19 C2225 1.377 1_455 S
C1238 C41 1.377 . S
C62 C2266 1.377 . S
C82 C1195 1.377 . S
C1342 C103 1.377 1_655 S
C124 C2288 1.377 . S
C146 C1301 1.377 . S
C2330 C166 1.377 . S
C187 C1090 1.377 1_545 S
C208 C2036 1.377 . S
C229 C1048 1.376 . S
C250 C2078 1.377 . S
C2140 C272 1.377 . S
C1154 C292 1.377 . S
C2182 C314 1.377 . S
C334 C1112 1.377 1_655 S
C398 C356 1.377 1_556 S
C3506 C376 1.376 . S
C3527 C418 1.377 . S
C439 C2476 1.377 . S
C2455 C461 1.377 1_556 S
C481 C3401 1.377 . S
C3442 C503 1.377 . S
C2728 C524 1.377 1_455 S
C1742 C545 1.377 . S
C565 C2770 1.377 . S
C586 C1700 1.377 . S
C1846 C607 1.377 1_455 S
C2791 C628 1.377 . S
C649 C1805 1.377 . S
C2833 C670 1.377 . S
C692 C1594 1.377 1_565 S
C2540 C712 1.377 . S
C1553 C734 1.376 . S
C2581 C754 1.377 . S
C775 C2644 1.377 . S
C796 C1657 1.377 . S
C817 C2686 1.377 . S
C838 C1616 1.377 1_455 S
C902 C860 1.377 1_554 S
C4009 C880 1.376 . S
C4031 C922 1.377 . S
C2981 C943 1.377 . S
C2959 C965 1.377 1_554 S
C986 C3904 1.377 . S
C3946 C1006 1.377 . S
C1027 C3232 1.377 1_455 S
C3275 C1069 1.377 . S
C1132 C3296 1.377 . S
C3338 C1174 1.377 1_545 S
C1216 C3044 1.377 . S
C3086 C1258 1.377 . S
C1279 C3149 1.377 . S
C1322 C3191 1.377 1_545 S
C1363 C1406 1.377 . S
C2497 C1384 1.377 . S
C2518 C1427 1.377 . S
C1448 C3484 1.377 1_556 S
C3463 C1469 1.377 . S
C2393 C1490 1.377 . S
C2434 C1510 1.377 . S
C3736 C1532 1.377 1_455 S
C1573 C3778 1.377 . S
C1637 C3800 1.377 . S
C3841 C1678 1.377 1_565 S
C3548 C1721 1.377 . S
C3589 C1762 1.377 . S
C3652 C1784 1.377 . S
C1825 C3694 1.377 1_565 S
C1910 C1867 1.377 . S
C3001 C1889 1.377 . S
C3023 C1931 1.377 . S
C3989 C1951 1.377 1_556 S
C1973 C3967 1.377 . S
C1994 C2896 1.377 . S
C2015 C2938 1.377 . S
C3253 C2057 1.377 . S
C2098 C3212 1.377 . S
C3358 C2119 1.377 . S
C2161 C3316 1.376 . S
C3107 C2204 1.377 1_565 S
C2245 C3064 1.377 . S
C3169 C2309 1.377 . S
C3128 C2351 1.377 . S
C2413 C2372 1.377 . S
C2561 C3758 1.377 . S
C2602 C3715 1.377 . S
C2624 C3862 1.377 . S
C3820 C2665 1.376 . S
C3610 C2707 1.377 1_545 S
C3569 C2750 1.377 . S
C2813 C3673 1.377 . S
C2854 C3632 1.377 . S
C2918 C2876 1.377 . S
C3422 C3380 1.377 1_556 S
C3884 C3926 1.377 1_556 S
C1225 C3 1.708 . S
C2251 C37 1.708 . S
C1180 C58 1.708 . S
C66 C2212 1.708 . S
C1309 C87 1.708 . S
C108 C2338 1.708 . S
C142 C1264 1.708 . S
C2296 C150 1.708 . S
C171 C2380 1.708 . S
C1393 C192 1.708 . S
C2419 C213 1.708 . S
C2440 C234 1.708 . S
C268 C343 1.708 . S
C3514 C276 1.708 . S
C1456 C310 1.708 . S
C318 C3493 1.708 . S
C352 C1141 1.708 . S
C3073 C360 1.708 . S
C3094 C394 1.708 . S
C3031 C402 1.708 . S
C423 C28 1.708 . S
C88 C457 1.708 . S
C1117 C465 1.708 . S
C499 C1159 1.708 . S
C1729 C520 1.708 . S
C2755 C541 1.708 . S
C549 C1687 1.708 . S
C570 C2713 1.708 . S
C591 C1810 1.708 . S
C2839 C612 1.708 . S
C633 C1771 1.708 . S
C654 C2800 1.708 . S
C2881 C688 1.708 . S
C696 C1897 1.708 . S
C2923 C730 1.708 . S
C2944 C738 1.708 . S
C847 C759 1.708 . S
C4018 C780 1.708 . S
C801 C1960 1.708 . S
C3994 C822 1.708 . S
C1642 C856 1.708 . S
C3574 C864 1.708 . S
C3595 C898 1.708 . S
C906 C3535 1.708 . S
C532 C927 1.708 . S
C961 C592 1.708 . S
C1624 C982 1.708 . S
C990 C1663 1.708 . S
C1011 C214 1.708 . S
C1032 C3262 1.708 . S
C172 C1053 1.708 . S
C3217 C1074 1.708 . S
C1108 C301 1.708 . S
C1116 C3343 1.708 . S
C259 C1150 1.708 . S
C1158 C3301 1.708 . S
C3388 C1179 1.708 . S
C1200 C385 1.708 . S
C1234 C3427 1.708 . S
C3448 C1242 1.708 . S
C1348 C1263 1.708 . S
C2503 C1297 1.708 . S
C448 C1318 1.708 . S
C2482 C1326 1.708 . S
C133 C1347 1.708 . S
C1368 C2065 1.708 . S
C2083 C1402 1.708 . S
C2023 C1423 1.708 . S
C1444 C1033 1.708 . S
C1099 C1465 1.708 . S
C109 C1486 1.708 . S
C151 C1494 1.708 . S
C1528 C721 1.708 . S
C3763 C1549 1.708 . S
C1557 C679 1.708 . S
C3721 C1578 1.708 . S
C802 C1612 1.708 . S
C3847 C1633 1.708 . S
C760 C1641 1.708 . S
C3805 C1662 1.708 . S
C3889 C1696 1.708 . S
C889 C1717 1.708 . S
C3931 C1738 1.708 . S
C3952 C1746 1.708 . S
C1780 C1852 1.708 . S
C1801 C3010 1.708 . S
C1809 C952 1.708 . S
C1830 C2986 1.708 . S
C1851 C634 1.708 . S
C1885 C2566 1.708 . S
C2587 C1906 1.708 . S
C1927 C2527 1.708 . S
C1935 C1540 1.708 . S
C1969 C1603 1.708 . S
C613 C1990 1.708 . S
C655 C2011 1.708 . S
C3238 C2032 1.708 . S
C235 C2053 1.708 . S
C3199 C2074 1.708 . S
C193 C2082 1.708 . S
C2103 C3325 1.708 . S
C319 C2124 1.708 . S
C2145 C3283 1.708 . S
C2166 C277 1.708 . S
C2200 C361 1.708 . S
C2221 C3409 1.708 . S
C403 C2229 1.708 . S
C2250 C424 1.708 . S
C2359 C2284 1.708 . S
C2305 C1495 1.708 . S
C2326 C3469 1.708 . S
C2347 C1477 1.708 . S
C2368 C3154 1.708 . S
C1054 C2389 1.708 . S
C2397 C1075 1.708 . S
C1012 C2418 1.708 . S
C2439 C2044 1.708 . S
C2460 C2104 1.708 . S
C2481 C3136 1.708 . S
C2502 C3178 1.708 . S
C2536 C3745 1.708 . S
C739 C2557 1.708 . S
C3700 C2565 1.708 . S
C2586 C697 1.708 . S
C2620 C3826 1.708 . S
C823 C2628 1.708 . S
C2649 C3787 1.708 . S
C781 C2670 1.708 . S
C865 C2691 1.708 . S
C3913 C2712 1.708 . S
C907 C2746 1.708 . S
C928 C2754 1.708 . S
C2863 C2775 1.708 . S
C2809 C2002 1.708 . S
C3976 C2817 1.708 . S
C2838 C1981 1.708 . S
C2872 C3658 1.708 . S
C2880 C1558 1.708 . S
C1579 C2914 1.708 . S
C2922 C1519 1.708 . S
C2943 C2548 1.708 . S
C2977 C2611 1.708 . S
C2985 C3637 1.708 . S
C3679 C3019 1.708 . S
C3040 C2230 1.708 . S
C1243 C3048 1.708 . S
C3082 C2191 1.708 . S
C1201 C3103 1.708 . S
C3124 C2317 1.708 . S
C3145 C1327 1.708 . S
C2275 C3153 1.708 . S
C1288 C3187 1.708 . S
C1369 C3208 1.708 . S
C3216 C2398 1.708 . S
C1414 C3237 1.708 . S
C1435 C3271 1.708 . S
C3292 C3367 1.708 . S
C3300 C490 1.708 . S
C3334 C2461 1.708 . S
C3342 C466 1.708 . S
C3376 C2146 1.708 . S
C3397 C49 1.708 . S
C3418 C67 1.708 . S
C4 C3426 1.708 . S
C3049 C3447 1.708 . S
C3115 C3468 1.708 . S
C3502 C2125 1.708 . S
C2167 C3523 1.708 . S
C3544 C2737 1.708 . S
C3565 C1747 1.708 . S
C3573 C2692 1.708 . S
C3594 C1708 1.708 . S
C3628 C2818 1.708 . S
C3636 C1831 1.708 . S
C2776 C3657 1.708 . S
C3678 C1792 1.708 . S
C3699 C1876 1.708 . S
C3720 C2905 1.708 . S
C1918 C3754 1.708 . S
C3762 C1936 1.708 . S
C3871 C3796 1.708 . S
C3804 C991 1.708 . S
C2968 C3825 1.708 . S
C3846 C973 1.708 . S
C3880 C2650 1.708 . S
C3888 C550 1.708 . S
C571 C3922 1.708 . S
C511 C3930 1.708 . S
C3556 C3951 1.708 . S
C3985 C3619 1.708 . S
C2629 C3993 1.708 . S
C4027 C2671 1.708 . S
C2935 C7 1.062 . S
C3964 C25 1.062 . S
C46 C1872 1.062 . S
C3909 C70 1.062 . S
C948 C91 1.062 . S
C969 C112 1.062 . S
C130 C2859 1.062 . S
C4014 C154 1.062 . S
C175 C3586 1.062 . S
C2599 C196 1.062 . S
C507 C217 1.062 . S
C1536 C238 1.062 . S
C256 C2662 1.062 . S
C667 C280 1.062 . S
C1599 C298 1.062 . S
C3649 C322 1.062 . S
C3783 C340 1.062 . S
C675 C364 1.062 . S
C382 C1704 1.062 . S
C406 C3741 1.062 . S
C1759 C427 1.062 . S
C1822 C445 1.062 . S
C469 C2851 1.062 . S
C1788 C487 1.062 . S
C508 C2431 1.062 . S
C529 C3460 1.062 . S
C1381 C553 1.062 . S
C574 C3405 1.062 . S
C444 C595 1.062 . S
C478 C616 1.062 . S
C637 C2355 1.062 . S
C3510 C658 1.062 . S
C676 C3069 1.062 . S
C2095 C700 1.062 . S
C718 C16 1.062 . S
C742 C1045 1.062 . S
C763 C2158 1.062 . S
C163 C784 1.062 . S
C805 C1095 1.062 . S
C826 C3132 1.062 . S
C844 C3279 1.062 . S
C868 C184 1.062 . S
C886 C1213 1.062 . S
C3250 C910 1.062 . S
C931 C1255 1.062 . S
C949 C1305 1.062 . S
C970 C2334 1.062 . S
C994 C1284 1.062 . S
C1015 C3943 1.062 . S
C2956 C1036 1.062 . S
C877 C1057 1.062 . S
C2901 C1078 1.062 . S
C1956 C1096 1.062 . S
C1120 C1977 1.062 . S
C1138 C3867 1.062 . S
C3006 C1162 1.062 . S
C2578 C1183 1.062 . S
C1204 C3607 1.062 . S
C1515 C1222 1.062 . S
C528 C1246 1.062 . S
C3670 C1267 1.062 . S
C1675 C1285 1.062 . S
C604 C1306 1.062 . S
C2641 C1330 1.062 . S
C1351 C2788 1.062 . S
C1683 C1372 1.062 . S
C1390 C709 1.062 . S
C2733 C1411 1.062 . S
C1432 C751 1.062 . S
C1453 C814 1.062 . S
C1474 C3859 1.062 . S
C793 C1498 1.062 . S
C1516 C3439 1.062 . S
C2452 C1537 1.062 . S
C1561 C373 1.062 . S
C1582 C2410 1.062 . S
C1600 C1452 1.062 . S
C1473 C1621 1.062 . S
C1645 C3363 1.062 . S
C1666 C2515 1.062 . S
C1684 C2061 1.062 . S
C1705 C3090 1.062 . S
C1726 C1024 1.062 . S
C1750 C24 1.062 . S
C3166 C1768 1.062 . S
C1789 C1171 1.062 . S
C100 C1813 1.062 . S
C2137 C1834 1.062 . S
C1855 C2271 1.062 . S
C1873 C1192 1.062 . S
C205 C1894 1.062 . S
C2242 C1915 1.062 . S
C247 C1939 1.062 . S
C297 C1957 1.062 . S
C3355 C1978 1.062 . S
C289 C1999 1.062 . S
C2020 C919 1.062 . S
C1948 C2041 1.062 . S
C3901 C2062 1.062 . S
C1893 C2086 1.062 . S
C2107 C2964 1.062 . S
C2128 C2998 1.062 . S
C2149 C843 1.062 . S
C1998 C2170 1.062 . S
C2188 C1570 1.062 . S
C2209 C583 1.062 . S
C2523 C2233 1.062 . S
C2254 C3552 1.062 . S
C646 C2272 1.062 . S
C2293 C2683 1.062 . S
C3615 C2314 1.062 . S
C1620 C2335 1.062 . S
C2356 C1767 1.062 . S
C2704 C2377 1.062 . S
C2401 C3733 1.062 . S
C2422 C1725 1.062 . S
C3775 C2443 1.062 . S
C2464 C3838 1.062 . S
C2485 C835 1.062 . S
C2506 C3817 1.062 . S
C2524 C415 1.062 . S
C2545 C1431 1.062 . S
C2569 C3384 1.062 . S
C2590 C1389 1.062 . S
C2608 C2473 1.062 . S
C2632 C2494 1.062 . S
C339 C2653 1.062 . S
C2674 C1507 1.062 . S
C2695 C1066 1.062 . S
C2716 C79 1.062 . S
C2734 C2019 1.062 . S
C3061 C2758 1.062 . S
C2779 C129 1.062 . S
C2179 C2797 1.062 . S
C2821 C3111 1.062 . S
C1129 C2842 1.062 . S
C2860 C1276 1.062 . S
C2187 C2884 1.062 . S
C3229 C2902 1.062 . S
C2926 C1221 1.062 . S
C3258 C2947 1.062 . S
C3321 C2965 1.062 . S
C331 C2989 1.062 . S
C3007 C3313 1.062 . S
C1914 C3028 1.062 . S
C3052 C940 1.062 . S
C3070 C2893 1.062 . S
C885 C3091 1.062 . S
C3972 C3112 1.062 . S
C4006 C3133 1.062 . S
C3157 C1864 1.062 . S
C1003 C3175 1.062 . S
C3196 C562 1.062 . S
C1591 C3220 1.062 . S
C3531 C3241 1.062 . S
C2544 C3259 1.062 . S
C3280 C1654 1.062 . S
C3691 C3304 1.062 . S
C2607 C3322 1.062 . S
C3346 C625 1.062 . S
C772 C3364 1.062 . S
C3385 C3712 1.062 . S
C3406 C2725 1.062 . S
C3430 C717 1.062 . S
C2767 C3451 1.062 . S
C2830 C3472 1.062 . S
C1843 C3490 1.062 . S
C3511 C2796 1.062 . S
C3532 C1410 1.062 . S
C436 C3553 1.062 . S
C2376 C3577 1.062 . S
C3598 C381 1.062 . S
C3616 C3481 1.062 . S
C3489 C3640 1.062 . S
C3661 C1360 1.062 . S
C486 C3682 1.062 . S
C45 C3703 1.062 . S
C1087 C3724 1.062 . S
C3742 C3027 1.062 . S
C2040 C3766 1.062 . S
C1137 C3784 1.062 . S
C3174 C3808 1.062 . S
C3829 C2116 1.062 . S
C3850 C121 1.062 . S
C3868 C255 1.062 . S
C3892 C3195 1.062 . S
C2208 C3910 1.062 . S
C226 C3934 1.062 . S
C2263 C3955 1.062 . S
C2313 C3973 1.062 . S
C3997 C1339 1.062 . S
C2292 C4015 1.062 . S
C1153 C20 2.090 . S
C2183 C40 2.090 . S
C1111 C61 2.090 . S
C2141 C83 2.090 . S
C1070 C104 2.090 . S
C2099 C125 2.090 . S
C145 C1028 2.090 . S
C167 C2056 2.090 . S
C188 C1237 2.090 . S
C209 C2267 2.090 . S
C230 C1196 2.090 . S
C251 C2224 2.090 . S
C1321 C271 2.090 . S
C2350 C293 2.090 . S
C313 C1280 2.090 . S
C2308 C335 2.090 . S
C2392 C355 2.090 . S
C377 C2371 2.090 . S
C2519 C397 2.090 . S
C3485 C419 2.090 . S
C440 C1489 2.090 . S
C3443 C460 2.090 . S
C1447 C482 2.090 . S
C2414 C502 2.090 . S
C523 C1658 2.090 . S
C544 C2687 2.090 . S
C566 C1615 2.090 . S
C587 C2645 2.090 . S
C608 C1574 2.090 . S
C629 C2603 2.090 . S
C1531 C650 2.090 . S
C2560 C671 2.090 . S
C1741 C691 2.090 . S
C2771 C713 2.090 . S
C733 C1699 2.090 . S
C2729 C755 2.090 . S
C776 C1826 2.090 . S
C797 C2855 2.090 . S
C1783 C818 2.090 . S
C839 C2812 2.090 . S
C2897 C859 2.090 . S
C2875 C881 2.090 . S
C901 C3022 2.090 . S
C3988 C923 2.090 . S
C944 C1993 2.090 . S
C3947 C964 2.090 . S
C985 C1952 2.090 . S
C1007 C2917 2.090 . S
C1049 C3190 2.090 . S
C1091 C3148 2.090 . S
C3106 C1133 2.090 . S
C1175 C3065 2.090 . S
C1217 C3274 2.090 . S
C3233 C1259 2.090 . S
C1300 C3359 2.090 . S
C1343 C3317 2.090 . S
C1364 C3400 2.090 . S
C1385 C3379 2.090 . S
C1405 C3526 2.090 . S
C2477 C1426 2.090 . S
C2435 C1468 2.090 . S
C1511 C3421 2.090 . S
C1552 C3695 2.090 . S
C3653 C1595 2.090 . S
C1636 C3611 2.090 . S
C1679 C3568 2.090 . S
C1720 C3779 2.090 . S
C3737 C1763 2.090 . S
C3863 C1804 2.090 . S
C3821 C1847 2.090 . S
C3905 C1868 2.090 . S
C3883 C1888 2.090 . S
C1909 C4030 2.090 . S
C2980 C1930 2.090 . S
C2939 C1972 2.090 . S
C2014 C3925 2.090 . S
C3170 C2035 2.090 . S
C3127 C2077 2.090 . S
C3085 C2120 2.090 . S
C2162 C3043 2.090 . S
C2203 C3254 2.090 . S
C3211 C2246 2.090 . S
C2287 C3337 2.090 . S
C3295 C2329 2.090 . S
C2456 C3505 2.090 . S
C3464 C2498 2.090 . S
C3674 C2539 2.090 . S
C3631 C2582 2.090 . S
C3590 C2623 2.090 . S
C2666 C3547 2.090 . S
C2708 C3757 2.090 . S
C3716 C2749 2.090 . S
C2792 C3842 2.090 . S
C3799 C2834 2.090 . S
C2960 C4010 2.090 . S
C3002 C3968 2.090 . S
