# Generated by pormake.
# Topology snl, (6)-cn, num edge types: 1
# Building blocks:
#     Node 0, Type 0, BuildingBlock: PAMTUU_clean_sbu_0, # of connection points: 6
#     Node 1, Type 0, BuildingBlock: PAMTUU_clean_sbu_0, # of connection points: 6
#     Node 2, Type 0, BuildingBlock: PAMTUU_clean_sbu_0, # of connection points: 6
#     Node 3, Type 0, BuildingBlock: PAMTUU_clean_sbu_0, # of connection points: 6
#     Node 4, Type 0, BuildingBlock: PAMTUU_clean_sbu_0, # of connection points: 6
#     Node 5, Type 0, BuildingBlock: PAMTUU_clean_sbu_0, # of connection points: 6
#     Node 6, Type 0, BuildingBlock: PAMTUU_clean_sbu_0, # of connection points: 6
#     Node 7, Type 0, BuildingBlock: PAMTUU_clean_sbu_0, # of connection points: 6
#     Node 8, Type 0, BuildingBlock: PAMTUU_clean_sbu_0, # of connection points: 6
#     Node 9, Type 0, BuildingBlock: PAMTUU_clean_sbu_0, # of connection points: 6
#     Node 10, Type 0, BuildingBlock: PAMTUU_clean_sbu_0, # of connection points: 6
#     Node 11, Type 0, BuildingBlock: PAMTUU_clean_sbu_0, # of connection points: 6
#     Node 12, Type 0, BuildingBlock: PAMTUU_clean_sbu_0, # of connection points: 6
#     Node 13, Type 0, BuildingBlock: PAMTUU_clean_sbu_0, # of connection points: 6
#     Node 14, Type 0, BuildingBlock: PAMTUU_clean_sbu_0, # of connection points: 6
#     Node 15, Type 0, BuildingBlock: PAMTUU_clean_sbu_0, # of connection points: 6
#     Edge 16, Type (0, 0), BuildingBlock: KIFKEQ_clean_linker_1, # of connection points: 2
#     Edge 17, Type (0, 0), BuildingBlock: KIFKEQ_clean_linker_1, # of connection points: 2
#     Edge 18, Type (0, 0), BuildingBlock: KIFKEQ_clean_linker_1, # of connection points: 2
#     Edge 19, Type (0, 0), BuildingBlock: KIFKEQ_clean_linker_1, # of connection points: 2
#     Edge 20, Type (0, 0), BuildingBlock: KIFKEQ_clean_linker_1, # of connection points: 2
#     Edge 21, Type (0, 0), BuildingBlock: KIFKEQ_clean_linker_1, # of connection points: 2
#     Edge 22, Type (0, 0), BuildingBlock: KIFKEQ_clean_linker_1, # of connection points: 2
#     Edge 23, Type (0, 0), BuildingBlock: KIFKEQ_clean_linker_1, # of connection points: 2
#     Edge 24, Type (0, 0), BuildingBlock: KIFKEQ_clean_linker_1, # of connection points: 2
#     Edge 25, Type (0, 0), BuildingBlock: KIFKEQ_clean_linker_1, # of connection points: 2
#     Edge 26, Type (0, 0), BuildingBlock: KIFKEQ_clean_linker_1, # of connection points: 2
#     Edge 27, Type (0, 0), BuildingBlock: KIFKEQ_clean_linker_1, # of connection points: 2
#     Edge 28, Type (0, 0), BuildingBlock: KIFKEQ_clean_linker_1, # of connection points: 2
#     Edge 29, Type (0, 0), BuildingBlock: KIFKEQ_clean_linker_1, # of connection points: 2
#     Edge 30, Type (0, 0), BuildingBlock: KIFKEQ_clean_linker_1, # of connection points: 2
#     Edge 31, Type (0, 0), BuildingBlock: KIFKEQ_clean_linker_1, # of connection points: 2
#     Edge 32, Type (0, 0), BuildingBlock: KIFKEQ_clean_linker_1, # of connection points: 2
#     Edge 33, Type (0, 0), BuildingBlock: KIFKEQ_clean_linker_1, # of connection points: 2
#     Edge 34, Type (0, 0), BuildingBlock: KIFKEQ_clean_linker_1, # of connection points: 2
#     Edge 35, Type (0, 0), BuildingBlock: KIFKEQ_clean_linker_1, # of connection points: 2
#     Edge 36, Type (0, 0), BuildingBlock: KIFKEQ_clean_linker_1, # of connection points: 2
#     Edge 37, Type (0, 0), BuildingBlock: KIFKEQ_clean_linker_1, # of connection points: 2
#     Edge 38, Type (0, 0), BuildingBlock: KIFKEQ_clean_linker_1, # of connection points: 2
#     Edge 39, Type (0, 0), BuildingBlock: KIFKEQ_clean_linker_1, # of connection points: 2
#     Edge 40, Type (0, 0), BuildingBlock: KIFKEQ_clean_linker_1, # of connection points: 2
#     Edge 41, Type (0, 0), BuildingBlock: KIFKEQ_clean_linker_1, # of connection points: 2
#     Edge 42, Type (0, 0), BuildingBlock: KIFKEQ_clean_linker_1, # of connection points: 2
#     Edge 43, Type (0, 0), BuildingBlock: KIFKEQ_clean_linker_1, # of connection points: 2
#     Edge 44, Type (0, 0), BuildingBlock: KIFKEQ_clean_linker_1, # of connection points: 2
#     Edge 45, Type (0, 0), BuildingBlock: KIFKEQ_clean_linker_1, # of connection points: 2
#     Edge 46, Type (0, 0), BuildingBlock: KIFKEQ_clean_linker_1, # of connection points: 2
#     Edge 47, Type (0, 0), BuildingBlock: KIFKEQ_clean_linker_1, # of connection points: 2
#     Edge 48, Type (0, 0), BuildingBlock: KIFKEQ_clean_linker_1, # of connection points: 2
#     Edge 49, Type (0, 0), BuildingBlock: KIFKEQ_clean_linker_1, # of connection points: 2
#     Edge 50, Type (0, 0), BuildingBlock: KIFKEQ_clean_linker_1, # of connection points: 2
#     Edge 51, Type (0, 0), BuildingBlock: KIFKEQ_clean_linker_1, # of connection points: 2
#     Edge 52, Type (0, 0), BuildingBlock: KIFKEQ_clean_linker_1, # of connection points: 2
#     Edge 53, Type (0, 0), BuildingBlock: KIFKEQ_clean_linker_1, # of connection points: 2
#     Edge 54, Type (0, 0), BuildingBlock: KIFKEQ_clean_linker_1, # of connection points: 2
#     Edge 55, Type (0, 0), BuildingBlock: KIFKEQ_clean_linker_1, # of connection points: 2
#     Edge 56, Type (0, 0), BuildingBlock: KIFKEQ_clean_linker_1, # of connection points: 2
#     Edge 57, Type (0, 0), BuildingBlock: KIFKEQ_clean_linker_1, # of connection points: 2
#     Edge 58, Type (0, 0), BuildingBlock: KIFKEQ_clean_linker_1, # of connection points: 2
#     Edge 59, Type (0, 0), BuildingBlock: KIFKEQ_clean_linker_1, # of connection points: 2
#     Edge 60, Type (0, 0), BuildingBlock: KIFKEQ_clean_linker_1, # of connection points: 2
#     Edge 61, Type (0, 0), BuildingBlock: KIFKEQ_clean_linker_1, # of connection points: 2
#     Edge 62, Type (0, 0), BuildingBlock: KIFKEQ_clean_linker_1, # of connection points: 2
#     Edge 63, Type (0, 0), BuildingBlock: KIFKEQ_clean_linker_1, # of connection points: 2
# Relax obj value: 0.152
# Max RMSD: 0.234
# Mean RMSD: 0.209
data_MOF--net-snl--node1-PAMTUU_clean_sbu_0--edge1-KIFKEQ_clean_linker_1
_symmetry_space_group_name_H-M    P1
_symmetry_Int_Tables_number       1
_symmetry_cell_setting            triclinic
loop_
_symmetry_equiv_pos_as_xyz
'x, y, z'
_cell_length_a     58.501352
_cell_length_b     59.297535
_cell_length_c     26.862691
_cell_angle_alpha  95.75096
_cell_angle_beta   91.937051
_cell_angle_gamma 89.96287
loop_
_atom_site_label
_atom_site_type_symbol
_atom_site_fract_x
_atom_site_fract_y
_atom_site_fract_z
_atom_type_partial_charge
Tb0 Tb 0.12996 0.61737 0.1845 0.0
Tb1 Tb 0.14234 0.6252 0.04973 0.0
C2 C 0.13382 0.57813 0.10783 0.0
C3 C 0.1472 0.62451 0.33105 0.0
C4 C 0.1582 0.62817 0.43577 0.0
C5 C 0.15204 0.60767 0.40721 0.0
C6 C 0.14458 0.60643 0.35823 0.0
C7 C 0.15836 0.6442 0.35585 0.0
C8 C 0.16373 0.6462 0.40843 0.0
C9 C 0.1362 0.62217 0.27911 0.0
O10 O 0.1644 0.61155 0.1727 0.0
O11 O 0.17546 0.62726 0.10181 0.0
O12 O 0.14299 0.65998 0.07634 0.0
O13 O 0.13483 0.64811 0.14903 0.0
O14 O 0.13885 0.60778 0.97755 0.0
O15 O 0.14291 0.644 0.97581 0.0
O16 O 0.10585 0.62878 0.05747 0.0
O17 O 0.09802 0.61583 0.13472 0.0
O18 O 0.12877 0.5818 0.15466 0.0
O19 O 0.13705 0.59602 0.08578 0.0
C20 C 0.17943 0.62195 0.14958 0.0
O21 O 0.13562 0.63889 0.25195 0.0
O22 O 0.13134 0.60261 0.25327 0.0
C23 C 0.1381 0.66505 0.1223 0.0
C24 C 0.12702 0.62211 0.89826 0.0
C25 C 0.11604 0.61842 0.79335 0.0
C26 C 0.1222 0.63891 0.82193 0.0
C27 C 0.12963 0.64018 0.87096 0.0
C28 C 0.11589 0.6024 0.87335 0.0
C29 C 0.11052 0.60039 0.82073 0.0
C30 C 0.13845 0.62435 0.94995 0.0
C31 C 0.09182 0.62074 0.08819 0.0
H32 H 0.15207 0.59179 0.42315 0.0
H33 H 0.13736 0.59061 0.34101 0.0
H34 H 0.16176 0.65834 0.33528 0.0
H35 H 0.1706 0.66187 0.42718 0.0
H36 H 0.1222 0.65479 0.80596 0.0
H37 H 0.1369 0.65598 0.8881 0.0
H38 H 0.11257 0.58822 0.89387 0.0
H39 H 0.10368 0.58472 0.80197 0.0
Tb40 Tb 0.63124 0.88506 0.33908 0.0
Tb41 Tb 0.64485 0.87409 0.47218 0.0
C42 C 0.63563 0.92334 0.42048 0.0
C43 C 0.64575 0.88079 0.1936 0.0
C44 C 0.65571 0.87752 0.0907 0.0
C45 C 0.64681 0.89732 0.11527 0.0
C46 C 0.64212 0.89897 0.1656 0.0
C47 C 0.65629 0.8612 0.16978 0.0
C48 C 0.66148 0.85967 0.11874 0.0
C49 C 0.63493 0.88185 0.24403 0.0
O50 O 0.66589 0.89043 0.35396 0.0
O51 O 0.67766 0.87317 0.42377 0.0
O52 O 0.64715 0.83988 0.44058 0.0
O53 O 0.63489 0.851 0.36552 0.0
O54 O 0.64095 0.89476 0.54108 0.0
O55 O 0.64482 0.85848 0.53969 0.0
O56 O 0.60795 0.87056 0.45879 0.0
O57 O 0.59927 0.88559 0.3828 0.0
O58 O 0.63034 0.92062 0.37276 0.0
O59 O 0.63912 0.90466 0.44006 0.0
C60 C 0.68117 0.87937 0.37702 0.0
O61 O 0.63518 0.86464 0.26981 0.0
O62 O 0.63091 0.90086 0.27146 0.0
C63 C 0.64243 0.83501 0.39302 0.0
C64 C 0.63003 0.87863 0.61755 0.0
C65 C 0.62004 0.8819 0.72065 0.0
C66 C 0.62893 0.86211 0.69604 0.0
C67 C 0.63361 0.86045 0.64566 0.0
C68 C 0.61948 0.89821 0.64148 0.0
C69 C 0.61428 0.89974 0.69257 0.0
C70 C 0.64101 0.87758 0.5671 0.0
C71 C 0.5935 0.87916 0.42707 0.0
H72 H 0.64191 0.91137 0.095 0.0
H73 H 0.63429 0.91431 0.18211 0.0
H74 H 0.65969 0.84684 0.19016 0.0
H75 H 0.66877 0.84428 0.10095 0.0
H76 H 0.63382 0.84806 0.71632 0.0
H77 H 0.64146 0.84511 0.62919 0.0
H78 H 0.61611 0.9126 0.62115 0.0
H79 H 0.607 0.91514 0.71037 0.0
Tb80 Tb 0.36264 0.38043 0.56275 0.0
Tb81 Tb 0.37972 0.39645 0.69886 0.0
C82 C 0.32633 0.38598 0.64132 0.0
C83 C 0.36182 0.39197 0.41879 0.0
C84 C 0.36208 0.40133 0.31793 0.0
C85 C 0.34277 0.39232 0.33677 0.0
C86 C 0.34252 0.38805 0.38658 0.0
C87 C 0.38091 0.40217 0.39995 0.0
C88 C 0.38089 0.4071 0.35008 0.0
C89 C 0.36265 0.38169 0.46796 0.0
O90 O 0.3596 0.41624 0.57679 0.0
O91 O 0.37881 0.42865 0.65279 0.0
O92 O 0.4144 0.39613 0.67451 0.0
O93 O 0.39618 0.38654 0.603 0.0
O94 O 0.36183 0.39374 0.7649 0.0
O95 O 0.39837 0.39734 0.76901 0.0
O96 O 0.38179 0.35937 0.68247 0.0
O97 O 0.36348 0.34902 0.60372 0.0
O98 O 0.32736 0.38066 0.59263 0.0
O99 O 0.34646 0.38992 0.66299 0.0
C100 C 0.37092 0.43201 0.6051 0.0
O101 O 0.38094 0.38248 0.4969 0.0
O102 O 0.34432 0.37868 0.49233 0.0
C103 C 0.41629 0.3902 0.6271 0.0
C104 C 0.38094 0.38397 0.84285 0.0
C105 C 0.38069 0.37454 0.94375 0.0
C106 C 0.4 0.38356 0.92489 0.0
C107 C 0.40025 0.38785 0.87507 0.0
C108 C 0.36185 0.37374 0.86171 0.0
C109 C 0.36188 0.36879 0.91159 0.0
C110 C 0.38015 0.39417 0.79353 0.0
C111 C 0.37132 0.34435 0.64916 0.0
H112 H 0.32825 0.38727 0.31223 0.0
H113 H 0.32751 0.38029 0.3993 0.0
H114 H 0.39614 0.4055 0.42324 0.0
H115 H 0.39618 0.41372 0.33582 0.0
H116 H 0.41453 0.38859 0.94943 0.0
H117 H 0.41526 0.39559 0.86234 0.0
H118 H 0.34661 0.37042 0.83844 0.0
H119 H 0.3466 0.36217 0.92586 0.0
Tb120 Tb 0.86084 0.13597 0.99603 0.0
Tb121 Tb 0.87338 0.12005 0.86149 0.0
C122 C 0.82257 0.13074 0.91701 0.0
C123 C 0.86175 0.12054 0.14569 0.0
C124 C 0.86387 0.11117 0.24647 0.0
C125 C 0.84428 0.12023 0.22598 0.0
C126 C 0.84318 0.12465 0.17647 0.0
C127 C 0.88124 0.11024 0.16603 0.0
C128 C 0.88217 0.10535 0.21607 0.0
C129 C 0.86132 0.13074 0.09639 0.0
O130 O 0.857 0.10022 0.98217 0.0
O131 O 0.87399 0.0885 0.90633 0.0
O132 O 0.90719 0.11917 0.89022 0.0
O133 O 0.89724 0.13153 0.97124 0.0
O134 O 0.85424 0.1231 0.79466 0.0
O135 O 0.89077 0.11906 0.79281 0.0
O136 O 0.87764 0.1563 0.87774 0.0
O137 O 0.86118 0.16725 0.95488 0.0
O138 O 0.82489 0.13673 0.96533 0.0
O139 O 0.84183 0.12669 0.89598 0.0
C140 C 0.86771 0.08496 0.95327 0.0
O141 O 0.87885 0.12967 0.06844 0.0
O142 O 0.84255 0.13387 0.0708 0.0
C143 C 0.91285 0.12524 0.93721 0.0
C144 C 0.87165 0.13252 0.71814 0.0
C145 C 0.86963 0.14192 0.6176 0.0
C146 C 0.88921 0.13286 0.63809 0.0
C147 C 0.89028 0.12843 0.68756 0.0
C148 C 0.85222 0.14286 0.69792 0.0
C149 C 0.85131 0.14775 0.64795 0.0
C150 C 0.872 0.1225 0.76732 0.0
C151 C 0.86828 0.17152 0.90982 0.0
H152 H 0.83013 0.12526 0.24923 0.0
H153 H 0.82799 0.13253 0.16278 0.0
H154 H 0.89599 0.1068 0.14377 0.0
H155 H 0.89765 0.09867 0.23163 0.0
H156 H 0.90338 0.12784 0.61487 0.0
H157 H 0.90546 0.12057 0.70134 0.0
H158 H 0.83746 0.14631 0.7202 0.0
H159 H 0.83584 0.15444 0.63238 0.0
Tb160 Tb 0.13354 0.38728 0.83368 0.0
Tb161 Tb 0.14866 0.37776 0.96779 0.0
C162 C 0.13813 0.42563 0.91265 0.0
C163 C 0.14775 0.3818 0.69023 0.0
C164 C 0.15645 0.37914 0.58713 0.0
C165 C 0.14888 0.39896 0.61517 0.0
C166 C 0.14405 0.40001 0.66404 0.0
C167 C 0.15821 0.36229 0.66561 0.0
C168 C 0.16277 0.36095 0.61402 0.0
C169 C 0.13693 0.3833 0.7398 0.0
O170 O 0.16884 0.39289 0.84665 0.0
O171 O 0.18161 0.37691 0.91791 0.0
O172 O 0.14812 0.34288 0.93864 0.0
O173 O 0.13924 0.35677 0.86969 0.0
O174 O 0.1434 0.39444 0.04063 0.0
O175 O 0.14741 0.3581 0.04067 0.0
O176 O 0.11171 0.37443 0.95559 0.0
O177 O 0.10187 0.38872 0.87924 0.0
O178 O 0.13306 0.42275 0.86525 0.0
O179 O 0.14208 0.40725 0.93289 0.0
C180 C 0.18491 0.38298 0.87054 0.0
O181 O 0.13726 0.36628 0.76601 0.0
O182 O 0.13312 0.40273 0.76633 0.0
C183 C 0.1427 0.33826 0.89152 0.0
C184 C 0.13289 0.37916 0.11728 0.0
C185 C 0.12408 0.38179 0.22065 0.0
C186 C 0.13166 0.36199 0.19257 0.0
C187 C 0.13654 0.36095 0.14363 0.0
C188 C 0.12239 0.39865 0.14207 0.0
C189 C 0.11778 0.39998 0.19372 0.0
C190 C 0.1435 0.37751 0.06708 0.0
C191 C 0.09688 0.38307 0.9247 0.0
H192 H 0.14616 0.41513 0.60269 0.0
H193 H 0.13674 0.4155 0.68152 0.0
H194 H 0.16186 0.34788 0.68565 0.0
H195 H 0.16991 0.34562 0.59573 0.0
H196 H 0.13434 0.34581 0.20506 0.0
H197 H 0.14381 0.34545 0.12613 0.0
H198 H 0.1187 0.41307 0.12205 0.0
H199 H 0.11062 0.4153 0.21201 0.0
Tb200 Tb 0.87741 0.89176 0.20057 0.0
Tb201 Tb 0.86115 0.87486 0.06414 0.0
C202 C 0.8708 0.92754 0.13158 0.0
C203 C 0.86514 0.89273 0.34647 0.0
C204 C 0.85653 0.89312 0.4493 0.0
C205 C 0.86451 0.91242 0.43023 0.0
C206 C 0.86891 0.91212 0.38018 0.0
C207 C 0.85497 0.87391 0.3644 0.0
C208 C 0.8504 0.87418 0.41514 0.0
C209 C 0.87523 0.89184 0.29551 0.0
O210 O 0.84154 0.89447 0.19292 0.0
O211 O 0.82954 0.87515 0.11553 0.0
O212 O 0.86203 0.84177 0.08369 0.0
O213 O 0.87189 0.85681 0.16239 0.0
O214 O 0.86511 0.89642 0.99523 0.0
O215 O 0.86132 0.85989 0.98701 0.0
O216 O 0.89821 0.87196 0.0728 0.0
O217 O 0.909 0.89026 0.15244 0.0
O218 O 0.87701 0.92652 0.1782 0.0
O219 O 0.86719 0.90763 0.10637 0.0
C220 C 0.82627 0.88278 0.16477 0.0
O221 O 0.87462 0.87364 0.26392 0.0
O222 O 0.87854 0.91004 0.27378 0.0
C223 C 0.8675 0.83878 0.12942 0.0
C224 C 0.87455 0.87681 0.91355 0.0
C225 C 0.88316 0.87635 0.81078 0.0
C226 C 0.87518 0.85705 0.82989 0.0
C227 C 0.87076 0.85738 0.87996 0.0
C228 C 0.88474 0.89559 0.8956 0.0
C229 C 0.8893 0.8953 0.8449 0.0
C230 C 0.86452 0.87791 0.96446 0.0
C231 C 0.91365 0.88199 0.10484 0.0
H232 H 0.8675 0.92828 0.45288 0.0
H233 H 0.87612 0.92716 0.36777 0.0
H234 H 0.85142 0.85871 0.3395 0.0
H235 H 0.84361 0.85887 0.42686 0.0
H236 H 0.87218 0.84119 0.80724 0.0
H237 H 0.86355 0.84237 0.89246 0.0
H238 H 0.88829 0.91081 0.92043 0.0
H239 H 0.89609 0.9106 0.83317 0.0
Tb240 Tb 0.36668 0.62703 0.44003 0.0
Tb241 Tb 0.38031 0.60958 0.30492 0.0
C242 C 0.32961 0.62078 0.36058 0.0
C243 C 0.36826 0.61624 0.58318 0.0
C244 C 0.3693 0.60802 0.68412 0.0
C245 C 0.34965 0.61592 0.66117 0.0
C246 C 0.34932 0.6204 0.61224 0.0
C247 C 0.3875 0.60606 0.60456 0.0
C248 C 0.38797 0.60177 0.65488 0.0
C249 C 0.36828 0.62621 0.53434 0.0
O250 O 0.36265 0.59107 0.4265 0.0
O251 O 0.38001 0.57783 0.35185 0.0
O252 O 0.41501 0.61067 0.33227 0.0
O253 O 0.39898 0.62088 0.40224 0.0
O254 O 0.36088 0.61226 0.23789 0.0
O255 O 0.39747 0.60816 0.23624 0.0
O256 O 0.38296 0.64648 0.31991 0.0
O257 O 0.36671 0.6581 0.39723 0.0
O258 O 0.33137 0.6268 0.40861 0.0
O259 O 0.34883 0.61654 0.33951 0.0
C260 C 0.3732 0.57496 0.39934 0.0
O261 O 0.38611 0.62508 0.5071 0.0
O262 O 0.34945 0.62926 0.50858 0.0
C263 C 0.41845 0.61717 0.37947 0.0
C264 C 0.37859 0.62123 0.16137 0.0
C265 C 0.37759 0.62952 0.0603 0.0
C266 C 0.39722 0.62161 0.08328 0.0
C267 C 0.39755 0.6171 0.13225 0.0
C268 C 0.35937 0.63144 0.13992 0.0
C269 C 0.35891 0.63576 0.08957 0.0
C270 C 0.37868 0.61146 0.21063 0.0
C271 C 0.37281 0.66185 0.35093 0.0
H272 H 0.33417 0.61919 0.68107 0.0
H273 H 0.33412 0.6278 0.59724 0.0
H274 H 0.40241 0.60236 0.58295 0.0
H275 H 0.4033 0.59512 0.67108 0.0
H276 H 0.41271 0.61836 0.06339 0.0
H277 H 0.41276 0.60974 0.14727 0.0
H278 H 0.34446 0.63517 0.16152 0.0
H279 H 0.34359 0.64243 0.07337 0.0
Tb280 Tb 0.62618 0.12164 0.71017 0.0
Tb281 Tb 0.64019 0.13164 0.57801 0.0
C282 C 0.63096 0.08286 0.62981 0.0
C283 C 0.64158 0.12687 0.85798 0.0
C284 C 0.65268 0.13014 0.96238 0.0
C285 C 0.64342 0.11043 0.93692 0.0
C286 C 0.63822 0.10873 0.88587 0.0
C287 C 0.65208 0.14665 0.88335 0.0
C288 C 0.65762 0.14828 0.93525 0.0
C289 C 0.63061 0.12542 0.80558 0.0
O290 O 0.6618 0.11748 0.70415 0.0
O291 O 0.67298 0.13313 0.63262 0.0
O292 O 0.63966 0.16667 0.6073 0.0
O293 O 0.63114 0.1526 0.67479 0.0
O294 O 0.63605 0.1107 0.50885 0.0
O295 O 0.63982 0.14698 0.51011 0.0
O296 O 0.60344 0.13394 0.58283 0.0
O297 O 0.59416 0.12012 0.65814 0.0
O298 O 0.62554 0.0859 0.67672 0.0
O299 O 0.63446 0.10137 0.61018 0.0
C300 C 0.67696 0.12777 0.68074 0.0
O301 O 0.63047 0.14252 0.77925 0.0
O302 O 0.62655 0.10618 0.778 0.0
C303 C 0.63415 0.17132 0.65341 0.0
C304 C 0.62475 0.12636 0.43006 0.0
C305 C 0.61364 0.12308 0.32551 0.0
C306 C 0.6229 0.14279 0.351 0.0
C307 C 0.62808 0.1445 0.4021 0.0
C308 C 0.61425 0.10658 0.4046 0.0
C309 C 0.60871 0.10495 0.35266 0.0
C310 C 0.6359 0.12775 0.48242 0.0
C311 C 0.58891 0.12456 0.61051 0.0
H312 H 0.63878 0.09651 0.95724 0.0
H313 H 0.63028 0.09331 0.8685 0.0
H314 H 0.65513 0.16109 0.86344 0.0
H315 H 0.66441 0.16394 0.95428 0.0
H316 H 0.62755 0.15671 0.33068 0.0
H317 H 0.63604 0.15991 0.41944 0.0
H318 H 0.61124 0.09211 0.42446 0.0
H319 H 0.60193 0.08929 0.33363 0.0
Tb320 Tb 0.86564 0.38047 0.96125 0.0
Tb321 Tb 0.87793 0.38839 0.82631 0.0
C322 C 0.8697 0.34042 0.88745 0.0
C323 C 0.88108 0.38265 0.11371 0.0
C324 C 0.89311 0.38688 0.21888 0.0
C325 C 0.88402 0.3669 0.19349 0.0
C326 C 0.87804 0.36487 0.14268 0.0
C327 C 0.89208 0.40244 0.138 0.0
C328 C 0.89806 0.40458 0.19012 0.0
C329 C 0.86951 0.38079 0.06157 0.0
O330 O 0.90202 0.37673 0.95206 0.0
O331 O 0.91047 0.39026 0.87562 0.0
O332 O 0.87905 0.42385 0.85633 0.0
O333 O 0.87085 0.40958 0.92518 0.0
O334 O 0.87228 0.36693 0.7583 0.0
O335 O 0.87665 0.40304 0.75735 0.0
O336 O 0.84292 0.39364 0.83599 0.0
O337 O 0.83267 0.37862 0.90886 0.0
O338 O 0.86547 0.34603 0.93392 0.0
O339 O 0.8731 0.35648 0.85827 0.0
C340 C 0.91627 0.38514 0.92213 0.0
O341 O 0.86923 0.39751 0.03415 0.0
O342 O 0.86495 0.36136 0.03506 0.0
C343 C 0.87404 0.42745 0.90313 0.0
C344 C 0.86038 0.3817 0.67886 0.0
C345 C 0.84835 0.37745 0.57382 0.0
C346 C 0.85743 0.39744 0.59917 0.0
C347 C 0.86342 0.39947 0.64994 0.0
C348 C 0.84937 0.3619 0.65468 0.0
C349 C 0.84339 0.35975 0.60257 0.0
C350 C 0.87187 0.38365 0.73099 0.0
C351 C 0.82837 0.3833 0.86069 0.0
H352 H 0.87956 0.35306 0.21423 0.0
H353 H 0.86983 0.3494 0.1264 0.0
H354 H 0.89508 0.41661 0.11721 0.0
H355 H 0.90493 0.42041 0.20808 0.0
H356 H 0.86189 0.41128 0.57842 0.0
H357 H 0.87162 0.41495 0.66622 0.0
H358 H 0.84634 0.34775 0.67552 0.0
H359 H 0.83651 0.34393 0.58462 0.0
Tb360 Tb 0.363 0.13146 0.53848 0.0
Tb361 Tb 0.37665 0.12044 0.67144 0.0
C362 C 0.36798 0.17093 0.61618 0.0
C363 C 0.378 0.12676 0.39352 0.0
C364 C 0.38873 0.1238 0.29072 0.0
C365 C 0.38034 0.14374 0.31604 0.0
C366 C 0.37475 0.14507 0.36579 0.0
C367 C 0.38863 0.10719 0.36949 0.0
C368 C 0.39411 0.10575 0.3184 0.0
C369 C 0.36665 0.12777 0.44354 0.0
O370 O 0.39993 0.13377 0.55052 0.0
O371 O 0.40842 0.1193 0.62674 0.0
O372 O 0.3777 0.08499 0.63794 0.0
O373 O 0.36869 0.10085 0.57064 0.0
O374 O 0.37286 0.14083 0.74082 0.0
O375 O 0.37698 0.10465 0.73915 0.0
O376 O 0.34157 0.11546 0.65882 0.0
O377 O 0.33025 0.13185 0.58687 0.0
O378 O 0.36225 0.16602 0.56896 0.0
O379 O 0.37222 0.15466 0.64567 0.0
C380 C 0.41407 0.12406 0.58091 0.0
O381 O 0.36682 0.11067 0.46978 0.0
O382 O 0.36293 0.14692 0.47089 0.0
C383 C 0.37216 0.08215 0.59026 0.0
C384 C 0.36202 0.12477 0.81705 0.0
C385 C 0.35125 0.12772 0.91974 0.0
C386 C 0.35966 0.10778 0.89443 0.0
C387 C 0.3653 0.10648 0.84474 0.0
C388 C 0.35136 0.14434 0.84103 0.0
C389 C 0.34587 0.14578 0.89209 0.0
C390 C 0.37304 0.12367 0.76668 0.0
C391 C 0.32648 0.126 0.63386 0.0
H392 H 0.37611 0.15806 0.29593 0.0
H393 H 0.36675 0.16036 0.38209 0.0
H394 H 0.39165 0.09267 0.38957 0.0
H395 H 0.40069 0.09012 0.30011 0.0
H396 H 0.36387 0.09345 0.91453 0.0
H397 H 0.37326 0.09117 0.82837 0.0
H398 H 0.34825 0.15882 0.82088 0.0
H399 H 0.33926 0.1614 0.91036 0.0
Tb400 Tb 0.62852 0.6089 0.31172 0.0
Tb401 Tb 0.64554 0.62483 0.44727 0.0
C402 C 0.59188 0.6167 0.38243 0.0
C403 C 0.62701 0.62146 0.16826 0.0
C404 C 0.62726 0.63021 0.06722 0.0
C405 C 0.60773 0.62198 0.08691 0.0
C406 C 0.60763 0.61766 0.13648 0.0
C407 C 0.64605 0.63172 0.14931 0.0
C408 C 0.64602 0.63645 0.09931 0.0
C409 C 0.62782 0.61131 0.21744 0.0
O410 O 0.62679 0.64585 0.32668 0.0
O411 O 0.64438 0.65605 0.40581 0.0
O412 O 0.68057 0.62501 0.41705 0.0
O413 O 0.66151 0.61507 0.34716 0.0
O414 O 0.62707 0.6229 0.5134 0.0
O415 O 0.66355 0.62687 0.51832 0.0
O416 O 0.64858 0.58896 0.43399 0.0
O417 O 0.62835 0.57717 0.35913 0.0
O418 O 0.59496 0.61015 0.33572 0.0
O419 O 0.60993 0.62068 0.41404 0.0
C420 C 0.63755 0.66071 0.35955 0.0
O421 O 0.64624 0.61172 0.24582 0.0
O422 O 0.6096 0.60801 0.24193 0.0
C423 C 0.68155 0.61881 0.36866 0.0
C424 C 0.64599 0.6135 0.59173 0.0
C425 C 0.64567 0.60483 0.69289 0.0
C426 C 0.6652 0.61306 0.67322 0.0
C427 C 0.66534 0.61733 0.62363 0.0
C428 C 0.62691 0.60329 0.61075 0.0
C429 C 0.62692 0.59858 0.66078 0.0
C430 C 0.64523 0.62382 0.54258 0.0
C431 C 0.63627 0.57366 0.40669 0.0
H432 H 0.59278 0.61756 0.06326 0.0
H433 H 0.59255 0.61013 0.14949 0.0
H434 H 0.66127 0.63518 0.17258 0.0
H435 H 0.66129 0.64309 0.08506 0.0
H436 H 0.68015 0.6175 0.6969 0.0
H437 H 0.68041 0.62489 0.6107 0.0
H438 H 0.61169 0.59988 0.58749 0.0
H439 H 0.61164 0.59196 0.67503 0.0
Tb440 Tb 0.13401 0.88542 0.14951 0.0
Tb441 Tb 0.14702 0.86906 0.01444 0.0
C442 C 0.09497 0.87832 0.07762 0.0
C443 C 0.13632 0.87297 0.29223 0.0
C444 C 0.13827 0.86454 0.39336 0.0
C445 C 0.11879 0.87361 0.37196 0.0
C446 C 0.11769 0.87723 0.32234 0.0
C447 C 0.1557 0.86276 0.31272 0.0
C448 C 0.15651 0.85817 0.36277 0.0
C449 C 0.13603 0.88309 0.24344 0.0
O450 O 0.13039 0.84908 0.13295 0.0
O451 O 0.14701 0.83779 0.05595 0.0
O452 O 0.18279 0.8684 0.04592 0.0
O453 O 0.16563 0.87866 0.11516 0.0
O454 O 0.1287 0.87568 0.94238 0.0
O455 O 0.16516 0.87154 0.93983 0.0
O456 O 0.1508 0.905 0.02865 0.0
O457 O 0.13353 0.91686 0.10427 0.0
O458 O 0.09957 0.88494 0.12421 0.0
O459 O 0.1123 0.87402 0.04683 0.0
C460 C 0.14019 0.83385 0.10152 0.0
O461 O 0.15372 0.88242 0.21583 0.0
O462 O 0.11713 0.88651 0.21839 0.0
C463 C 0.18491 0.87453 0.09426 0.0
C464 C 0.14596 0.8849 0.8656 0.0
C465 C 0.14396 0.89331 0.76434 0.0
C466 C 0.16343 0.88424 0.78574 0.0
C467 C 0.16455 0.88062 0.83537 0.0
C468 C 0.12655 0.89509 0.84502 0.0
C469 C 0.12572 0.89968 0.79495 0.0
C470 C 0.1463 0.87474 0.91455 0.0
C471 C 0.14002 0.92035 0.05742 0.0
H472 H 0.10448 0.87963 0.39349 0.0
H473 H 0.10252 0.885 0.30817 0.0
H474 H 0.17038 0.85898 0.29042 0.0
H475 H 0.17163 0.8505 0.37742 0.0
H476 H 0.17773 0.87821 0.76419 0.0
H477 H 0.17972 0.87285 0.84951 0.0
H478 H 0.11187 0.89889 0.86732 0.0
H479 H 0.1106 0.90735 0.7803 0.0
Tb480 Tb 0.85894 0.62661 0.04256 0.0
Tb481 Tb 0.87346 0.618 0.17608 0.0
C482 C 0.86519 0.66689 0.1217 0.0
C483 C 0.87487 0.62712 0.89182 0.0
C484 C 0.8852 0.62353 0.78904 0.0
C485 C 0.87592 0.64326 0.81266 0.0
C486 C 0.87112 0.64514 0.86317 0.0
C487 C 0.88543 0.60747 0.8683 0.0
C488 C 0.89067 0.60573 0.81728 0.0
C489 C 0.86445 0.62835 0.94291 0.0
O490 O 0.89576 0.63107 0.05315 0.0
O491 O 0.90491 0.6174 0.12993 0.0
O492 O 0.87487 0.58258 0.14542 0.0
O493 O 0.86569 0.59738 0.07685 0.0
O494 O 0.87031 0.63836 0.24509 0.0
O495 O 0.87479 0.6023 0.244 0.0
O496 O 0.8383 0.61235 0.16448 0.0
O497 O 0.82642 0.62895 0.09384 0.0
O498 O 0.85942 0.65992 0.07522 0.0
O499 O 0.87044 0.65315 0.156 0.0
C500 C 0.91054 0.62316 0.08482 0.0
O501 O 0.86445 0.61101 0.9685 0.0
O502 O 0.86038 0.64739 0.97047 0.0
C503 C 0.86984 0.57939 0.09792 0.0
C504 C 0.86025 0.62273 0.3221 0.0
C505 C 0.85001 0.62649 0.42491 0.0
C506 C 0.85928 0.60675 0.40136 0.0
C507 C 0.86403 0.6048 0.35088 0.0
C508 C 0.84977 0.64248 0.34556 0.0
C509 C 0.84455 0.64427 0.39662 0.0
C510 C 0.87099 0.62137 0.27141 0.0
C511 C 0.82296 0.62346 0.1416 0.0
H512 H 0.87109 0.65698 0.79126 0.0
H513 H 0.86321 0.6605 0.87934 0.0
H514 H 0.88881 0.59318 0.88892 0.0
H515 H 0.89762 0.59016 0.79954 0.0
H516 H 0.86414 0.59305 0.42281 0.0
H517 H 0.87198 0.58943 0.33484 0.0
H518 H 0.84647 0.65677 0.3249 0.0
H519 H 0.83763 0.65987 0.41432 0.0
Tb520 Tb 0.14664 0.13087 0.94699 0.0
Tb521 Tb 0.13039 0.11404 0.80978 0.0
C522 C 0.13966 0.167 0.88222 0.0
C523 C 0.13333 0.12873 0.09728 0.0
C524 C 0.12466 0.12909 0.20007 0.0
C525 C 0.13298 0.14833 0.1811 0.0
C526 C 0.13715 0.1481 0.13096 0.0
C527 C 0.12316 0.10996 0.11499 0.0
C528 C 0.11844 0.11026 0.16545 0.0
C529 C 0.14342 0.12763 0.04656 0.0
O530 O 0.10957 0.13258 0.93909 0.0
O531 O 0.09908 0.1153 0.85839 0.0
O532 O 0.13092 0.07922 0.83269 0.0
O533 O 0.14082 0.09789 0.90491 0.0
O534 O 0.1333 0.13201 0.74669 0.0
O535 O 0.12936 0.09547 0.73707 0.0
O536 O 0.16604 0.11079 0.81916 0.0
O537 O 0.17843 0.13045 0.89568 0.0
O538 O 0.14568 0.1647 0.92808 0.0
O539 O 0.13619 0.14713 0.85508 0.0
C540 C 0.09447 0.12216 0.90687 0.0
O541 O 0.14281 0.10914 0.01574 0.0
O542 O 0.14654 0.14568 0.02412 0.0
C543 C 0.13731 0.07798 0.87953 0.0
C544 C 0.14271 0.11268 0.6645 0.0
C545 C 0.15135 0.11235 0.56168 0.0
C546 C 0.14304 0.09312 0.58063 0.0
C547 C 0.13888 0.09333 0.63076 0.0
C548 C 0.15286 0.13146 0.6468 0.0
C549 C 0.15758 0.13117 0.59631 0.0
C550 C 0.13263 0.11369 0.71528 0.0
C551 C 0.18156 0.12247 0.8465 0.0
H552 H 0.13693 0.16399 0.20337 0.0
H553 H 0.14449 0.16308 0.11855 0.0
H554 H 0.11952 0.0948 0.09002 0.0
H555 H 0.11089 0.0951 0.17589 0.0
H556 H 0.13908 0.07745 0.55836 0.0
H557 H 0.13155 0.07834 0.64313 0.0
H558 H 0.1565 0.14661 0.6718 0.0
H559 H 0.16512 0.14634 0.58588 0.0
Tb560 Tb 0.62735 0.39599 0.70594 0.0
Tb561 Tb 0.64111 0.37844 0.57149 0.0
C562 C 0.58956 0.38882 0.63319 0.0
C563 C 0.62906 0.38426 0.84949 0.0
C564 C 0.63045 0.37612 0.95079 0.0
C565 C 0.61111 0.38523 0.92897 0.0
C566 C 0.61028 0.38867 0.87919 0.0
C567 C 0.6483 0.37412 0.8706 0.0
C568 C 0.64879 0.3696 0.92056 0.0
C569 C 0.62907 0.3941 0.80031 0.0
O570 O 0.62433 0.359 0.69126 0.0
O571 O 0.64074 0.34768 0.61396 0.0
O572 O 0.67632 0.37801 0.60259 0.0
O573 O 0.65895 0.38897 0.67142 0.0
O574 O 0.62188 0.38037 0.50387 0.0
O575 O 0.65847 0.37628 0.50275 0.0
O576 O 0.64585 0.41438 0.58455 0.0
O577 O 0.62747 0.42741 0.65795 0.0
O578 O 0.59287 0.39542 0.6799 0.0
O579 O 0.60702 0.38632 0.60275 0.0
C580 C 0.63381 0.34357 0.65928 0.0
O581 O 0.64687 0.3933 0.773 0.0
O582 O 0.6103 0.39737 0.77471 0.0
C583 C 0.67821 0.3847 0.65042 0.0
C584 C 0.63978 0.38917 0.42774 0.0
C585 C 0.63838 0.39727 0.32658 0.0
C586 C 0.65772 0.38815 0.34837 0.0
C587 C 0.65855 0.38471 0.3981 0.0
C588 C 0.62053 0.39929 0.40669 0.0
C589 C 0.62003 0.40379 0.35678 0.0
C590 C 0.63976 0.37937 0.47683 0.0
C591 C 0.63463 0.43031 0.61072 0.0
H592 H 0.59672 0.39132 0.95008 0.0
H593 H 0.5952 0.39639 0.8645 0.0
H594 H 0.66309 0.3702 0.84871 0.0
H595 H 0.66376 0.36168 0.93516 0.0
H596 H 0.67211 0.38205 0.32726 0.0
H597 H 0.67363 0.37698 0.41282 0.0
H598 H 0.60575 0.40322 0.42861 0.0
H599 H 0.60507 0.41173 0.34219 0.0
Tb600 Tb 0.36785 0.87339 0.43265 0.0
Tb601 Tb 0.38144 0.88388 0.30154 0.0
C602 C 0.37003 0.83432 0.3561 0.0
C603 C 0.3832 0.87923 0.58051 0.0
C604 C 0.39444 0.88231 0.68511 0.0
C605 C 0.38591 0.86237 0.65851 0.0
C606 C 0.38012 0.86097 0.60797 0.0
C607 C 0.39372 0.899 0.60623 0.0
C608 C 0.39933 0.90057 0.6583 0.0
C609 C 0.37189 0.87774 0.52832 0.0
O610 O 0.40466 0.87052 0.4264 0.0
O611 O 0.41381 0.88551 0.35211 0.0
O612 O 0.38177 0.9196 0.33439 0.0
O613 O 0.3735 0.90378 0.40079 0.0
O614 O 0.37738 0.86299 0.2321 0.0
O615 O 0.38132 0.89922 0.23327 0.0
O616 O 0.34611 0.88828 0.30672 0.0
O617 O 0.33509 0.87228 0.37759 0.0
O618 O 0.36625 0.83865 0.40314 0.0
O619 O 0.37893 0.85038 0.33155 0.0
C620 C 0.4193 0.87963 0.3983 0.0
O621 O 0.37179 0.89465 0.50153 0.0
O622 O 0.36812 0.85842 0.50089 0.0
C623 C 0.37695 0.92239 0.38147 0.0
C624 C 0.36625 0.87844 0.15326 0.0
C625 C 0.35496 0.87538 0.04882 0.0
C626 C 0.3635 0.89532 0.07539 0.0
C627 C 0.36934 0.8967 0.12588 0.0
C628 C 0.35569 0.85867 0.12762 0.0
C629 C 0.35007 0.85711 0.07559 0.0
C630 C 0.37722 0.88 0.20572 0.0
C631 C 0.33111 0.87768 0.32949 0.0
H632 H 0.38181 0.848 0.67797 0.0
H633 H 0.37218 0.84556 0.59059 0.0
H634 H 0.3966 0.91354 0.58652 0.0
H635 H 0.40583 0.9163 0.6776 0.0
H636 H 0.36756 0.90971 0.05594 0.0
H637 H 0.37724 0.91213 0.14333 0.0
H638 H 0.35272 0.84417 0.14739 0.0
H639 H 0.34354 0.8414 0.0563 0.0
H640 H 0.14577 0.64434 0.75291 0.0
H641 H 0.0995 0.58887 0.70509 0.0
H642 H 0.15306 0.64977 0.67602 0.0
H643 H 0.11122 0.59129 0.62155 0.0
H644 H 0.12847 0.60224 0.47617 0.0
H645 H 0.12117 0.59681 0.55305 0.0
H646 H 0.16302 0.65529 0.60753 0.0
H647 H 0.17474 0.6577 0.52399 0.0
C648 C 0.1355 0.63381 0.72574 0.0
C649 C 0.11987 0.61763 0.73793 0.0
C650 C 0.1411 0.63642 0.67891 0.0
C651 C 0.13309 0.62168 0.63947 0.0
C652 C 0.11802 0.60401 0.64948 0.0
C653 C 0.11109 0.60221 0.69832 0.0
C654 C 0.13874 0.61277 0.50334 0.0
C655 C 0.15437 0.62895 0.49116 0.0
C656 C 0.13313 0.61016 0.55017 0.0
C657 C 0.14115 0.6249 0.5896 0.0
C658 C 0.15622 0.64257 0.57959 0.0
C659 C 0.16315 0.64437 0.53076 0.0
H660 H 0.66948 0.90824 0.0309 0.0
H661 H 0.63827 0.84272 0.02724 0.0
H662 H 0.65973 0.91455 0.94145 0.0
H663 H 0.62916 0.84764 0.93693 0.0
H664 H 0.60626 0.85118 0.78052 0.0
H665 H 0.61747 0.84937 0.86503 0.0
H666 H 0.64803 0.91628 0.86957 0.0
H667 H 0.63746 0.91671 0.78421 0.0
C668 C 0.66061 0.89385 0.01103 0.0
C669 C 0.65493 0.87527 0.03561 0.0
C670 C 0.65513 0.89934 0.95674 0.0
C671 C 0.64266 0.88142 0.92967 0.0
C672 C 0.63819 0.86229 0.95424 0.0
C673 C 0.64336 0.85708 0.00885 0.0
C674 C 0.61513 0.86557 0.80039 0.0
C675 C 0.62081 0.88415 0.7758 0.0
C676 C 0.62206 0.86458 0.84974 0.0
C677 C 0.63453 0.88251 0.87683 0.0
C678 C 0.639 0.90164 0.85226 0.0
C679 C 0.63237 0.90235 0.80258 0.0
H680 H 0.36263 0.43308 0.251 0.0
H681 H 0.36735 0.36201 0.26511 0.0
H682 H 0.36674 0.42562 0.16287 0.0
H683 H 0.37225 0.35365 0.17906 0.0
H684 H 0.37869 0.33829 0.01566 0.0
H685 H 0.37458 0.34575 0.10379 0.0
H686 H 0.36907 0.41772 0.08761 0.0
H687 H 0.37543 0.41386 0.99662 0.0
C688 C 0.36458 0.41579 0.23454 0.0
C689 C 0.36465 0.39804 0.26403 0.0
C690 C 0.36693 0.41111 0.18327 0.0
C691 C 0.36951 0.38851 0.16074 0.0
C692 C 0.36992 0.37119 0.19192 0.0
C693 C 0.36717 0.37591 0.24235 0.0
C694 C 0.37674 0.35557 0.03212 0.0
C695 C 0.37813 0.37783 0.99768 0.0
C696 C 0.37439 0.36026 0.08339 0.0
C697 C 0.37181 0.38285 0.10593 0.0
C698 C 0.3714 0.40018 0.07475 0.0
C699 C 0.37415 0.39546 0.02431 0.0
H700 H 0.86879 0.10257 0.56345 0.0
H701 H 0.86523 0.17395 0.55152 0.0
H702 H 0.86862 0.09428 0.47679 0.0
H703 H 0.86392 0.16655 0.46261 0.0
H704 H 0.86471 0.15052 0.30064 0.0
H705 H 0.86488 0.15881 0.3873 0.0
H706 H 0.86958 0.08655 0.40149 0.0
H707 H 0.86826 0.07914 0.31258 0.0
C708 C 0.86773 0.11659 0.54104 0.0
C709 C 0.86685 0.13876 0.56349 0.0
C710 C 0.86775 0.1119 0.49023 0.0
C711 C 0.86662 0.12935 0.45955 0.0
C712 C 0.86518 0.15198 0.48274 0.0
C713 C 0.86561 0.15663 0.53442 0.0
C714 C 0.86577 0.13651 0.32305 0.0
C715 C 0.86665 0.11433 0.3006 0.0
C716 C 0.86575 0.14119 0.37387 0.0
C717 C 0.86688 0.12374 0.40455 0.0
C718 C 0.86831 0.10111 0.38136 0.0
C719 C 0.86789 0.09646 0.32968 0.0
H720 H 0.13809 0.34726 0.27617 0.0
H721 H 0.11551 0.41731 0.29735 0.0
H722 H 0.14828 0.34742 0.35293 0.0
H723 H 0.12498 0.41694 0.3831 0.0
H724 H 0.14242 0.41368 0.53162 0.0
H725 H 0.13221 0.41351 0.45492 0.0
H726 H 0.15552 0.34399 0.42475 0.0
H727 H 0.16499 0.34362 0.5105 0.0
C728 C 0.13486 0.36338 0.29579 0.0
C729 C 0.12593 0.38259 0.27617 0.0
C730 C 0.14087 0.36302 0.34396 0.0
C731 C 0.13726 0.38149 0.37775 0.0
C732 C 0.12792 0.40137 0.36019 0.0
C733 C 0.12217 0.40187 0.30979 0.0
C734 C 0.14564 0.39755 0.51205 0.0
C735 C 0.15458 0.37834 0.53166 0.0
C736 C 0.13963 0.39791 0.46389 0.0
C737 C 0.14324 0.37943 0.4301 0.0
C738 C 0.15258 0.35955 0.44766 0.0
C739 C 0.15834 0.35905 0.49806 0.0
H740 H 0.90418 0.90645 0.7563 0.0
H741 H 0.85927 0.84805 0.73852 0.0
H742 H 0.89616 0.91207 0.67378 0.0
H743 H 0.85313 0.85185 0.65642 0.0
H744 H 0.83552 0.86303 0.50377 0.0
H745 H 0.84354 0.85741 0.58631 0.0
H746 H 0.88658 0.91763 0.60365 0.0
H747 H 0.88044 0.92143 0.52157 0.0
C748 C 0.89254 0.89472 0.73524 0.0
C749 C 0.88212 0.87721 0.75625 0.0
C750 C 0.88775 0.89783 0.68619 0.0
C751 C 0.8729 0.883 0.65599 0.0
C752 C 0.864 0.8645 0.67634 0.0
C753 C 0.86831 0.86179 0.72533 0.0
C754 C 0.84716 0.87475 0.52484 0.0
C755 C 0.85759 0.89227 0.50383 0.0
C756 C 0.85195 0.87165 0.57389 0.0
C757 C 0.86681 0.88648 0.60409 0.0
C758 C 0.8757 0.90498 0.58374 0.0
C759 C 0.8714 0.90768 0.53475 0.0
H760 H 0.3487 0.63976 0.74528 0.0
H761 H 0.3927 0.58157 0.74697 0.0
H762 H 0.34963 0.64557 0.82992 0.0
H763 H 0.39513 0.58782 0.83517 0.0
H764 H 0.39966 0.60231 0.99416 0.0
H765 H 0.39872 0.59649 0.90951 0.0
H766 H 0.35322 0.65425 0.90427 0.0
H767 H 0.35565 0.66049 0.99248 0.0
C768 C 0.35834 0.62758 0.76419 0.0
C769 C 0.37038 0.60989 0.7387 0.0
C770 C 0.3595 0.63149 0.81466 0.0
C771 C 0.3732 0.61817 0.8425 0.0
C772 C 0.3848 0.5996 0.81712 0.0
C773 C 0.3835 0.59562 0.76556 0.0
C774 C 0.39001 0.61448 0.97525 0.0
C775 C 0.37797 0.63217 1.00076 0.0
C776 C 0.38885 0.61057 0.92477 0.0
C777 C 0.37516 0.62389 0.89693 0.0
C778 C 0.36356 0.64247 0.92231 0.0
C779 C 0.36485 0.64644 0.97388 0.0
H780 H 0.61503 0.14195 0.01173 0.0
H781 H 0.6791 0.11078 0.04142 0.0
H782 H 0.60413 0.13968 0.09402 0.0
H783 H 0.66901 0.10796 0.1255 0.0
H784 H 0.64982 0.10677 0.28105 0.0
H785 H 0.66072 0.10903 0.19876 0.0
H786 H 0.59585 0.14076 0.16729 0.0
H787 H 0.58575 0.13793 0.25136 0.0
C788 C 0.62732 0.13559 0.03758 0.0
C789 C 0.64858 0.12839 0.0216 0.0
C790 C 0.62098 0.13388 0.08568 0.0
C791 C 0.6358 0.12476 0.12014 0.0
C792 C 0.65695 0.11629 0.10294 0.0
C793 C 0.66321 0.11805 0.05419 0.0
C794 C 0.63753 0.11312 0.25521 0.0
C795 C 0.61627 0.12033 0.2712 0.0
C796 C 0.64386 0.11484 0.2071 0.0
C797 C 0.62905 0.12396 0.17264 0.0
C798 C 0.6079 0.13243 0.18984 0.0
C799 C 0.60164 0.13067 0.2386 0.0
H800 H 0.92308 0.38841 0.30487 0.0
H801 H 0.85283 0.38952 0.25547 0.0
H802 H 0.91166 0.38445 0.38818 0.0
H803 H 0.84094 0.38501 0.33539 0.0
H804 H 0.81839 0.37593 0.48787 0.0
H805 H 0.82981 0.37989 0.40456 0.0
H806 H 0.90053 0.37933 0.45736 0.0
H807 H 0.88863 0.37482 0.53728 0.0
C808 C 0.90515 0.38838 0.31228 0.0
C809 C 0.88878 0.39009 0.27351 0.0
C810 C 0.8982 0.38561 0.36059 0.0
C811 C 0.87478 0.38398 0.37105 0.0
C812 C 0.85901 0.38593 0.33169 0.0
C813 C 0.86589 0.38899 0.28466 0.0
C814 C 0.83632 0.37595 0.48046 0.0
C815 C 0.85269 0.37424 0.51922 0.0
C816 C 0.84328 0.37873 0.43215 0.0
C817 C 0.86669 0.38036 0.4217 0.0
C818 C 0.88247 0.3784 0.46105 0.0
C819 C 0.87558 0.37535 0.50808 0.0
H820 H 0.41795 0.11116 0.21143 0.0
H821 H 0.34945 0.13081 0.24667 0.0
H822 H 0.40831 0.11193 0.12449 0.0
H823 H 0.33956 0.13247 0.16349 0.0
H824 H 0.32204 0.14036 0.99897 0.0
H825 H 0.33021 0.13509 0.09085 0.0
H826 H 0.39897 0.11455 0.05185 0.0
H827 H 0.39054 0.12071 0.96374 0.0
C828 C 0.4008 0.11552 0.20029 0.0
C829 C 0.38447 0.12105 0.23599 0.0
C830 C 0.39494 0.11634 0.14976 0.0
C831 C 0.37271 0.12279 0.13426 0.0
C832 C 0.35685 0.12776 0.17094 0.0
C833 C 0.36261 0.12676 0.22014 0.0
C834 C 0.33772 0.1315 0.01506 0.0
C835 C 0.35552 0.13047 0.97443 0.0
C836 C 0.34358 0.13068 0.06558 0.0
C837 C 0.36582 0.12423 0.08108 0.0
C838 C 0.38168 0.11926 0.0444 0.0
C839 C 0.37738 0.12476 0.99026 0.0
H840 H 0.64683 0.66379 1.00165 0.0
H841 H 0.61597 0.59816 1.00145 0.0
H842 H 0.65155 0.65652 0.91415 0.0
H843 H 0.62049 0.59007 0.91617 0.0
H844 H 0.62756 0.57576 0.75351 0.0
H845 H 0.62284 0.58303 0.841 0.0
H846 H 0.65391 0.64948 0.83898 0.0
H847 H 0.65842 0.64139 0.75371 0.0
C848 C 0.64086 0.64787 0.98231 0.0
C849 C 0.62919 0.62728 0.01292 0.0
C850 C 0.64345 0.64333 0.93124 0.0
C851 C 0.63599 0.62246 0.90489 0.0
C852 C 0.62615 0.60654 0.93198 0.0
C853 C 0.62329 0.61127 0.98219 0.0
C854 C 0.63353 0.59168 0.77285 0.0
C855 C 0.64373 0.60776 0.74719 0.0
C856 C 0.63094 0.59622 0.82391 0.0
C857 C 0.6384 0.61709 0.85027 0.0
C858 C 0.64824 0.63301 0.82317 0.0
C859 C 0.6511 0.62828 0.77297 0.0
H860 H 0.10356 0.86037 0.45614 0.0
H861 H 0.17637 0.86931 0.45495 0.0
H862 H 0.10396 0.87088 0.54146 0.0
H863 H 0.17783 0.87686 0.54197 0.0
H864 H 0.17866 0.89748 0.70156 0.0
H865 H 0.17827 0.88697 0.61625 0.0
H866 H 0.10439 0.88099 0.61574 0.0
H867 H 0.10585 0.88854 0.70276 0.0
C868 C 0.11987 0.86475 0.47438 0.0
C869 C 0.13982 0.86484 0.44786 0.0
C870 C 0.12027 0.8707 0.52493 0.0
C871 C 0.14091 0.87566 0.55161 0.0
C872 C 0.16115 0.87396 0.52511 0.0
C873 C 0.16056 0.86891 0.47396 0.0
C874 C 0.16235 0.8931 0.68332 0.0
C875 C 0.1424 0.89301 0.70984 0.0
C876 C 0.16196 0.88715 0.63278 0.0
C877 C 0.14131 0.88219 0.6061 0.0
C878 C 0.12107 0.88389 0.6326 0.0
C879 C 0.12166 0.88894 0.68374 0.0
H880 H 0.91406 0.63732 0.72073 0.0
H881 H 0.84982 0.60535 0.7368 0.0
H882 H 0.90495 0.63975 0.63454 0.0
H883 H 0.8399 0.60708 0.65193 0.0
H884 H 0.82116 0.61269 0.49322 0.0
H885 H 0.83027 0.61025 0.5794 0.0
H886 H 0.89532 0.64293 0.56202 0.0
H887 H 0.8854 0.64466 0.47715 0.0
C888 C 0.89816 0.6302 0.70478 0.0
C889 C 0.88297 0.6203 0.73445 0.0
C890 C 0.89239 0.63186 0.6548 0.0
C891 C 0.87107 0.62392 0.6335 0.0
C892 C 0.85634 0.61376 0.66422 0.0
C893 C 0.86217 0.6122 0.71371 0.0
C894 C 0.83706 0.61982 0.50916 0.0
C895 C 0.85224 0.62972 0.4795 0.0
C896 C 0.84283 0.61815 0.55915 0.0
C897 C 0.86415 0.6261 0.58044 0.0
C898 C 0.87888 0.63625 0.54972 0.0
C899 C 0.87305 0.63781 0.50023 0.0
H900 H 0.16542 0.14718 0.51 0.0
H901 H 0.13598 0.07965 0.48426 0.0
H902 H 0.15718 0.15224 0.42874 0.0
H903 H 0.1287 0.08415 0.40308 0.0
H904 H 0.11059 0.09426 0.25175 0.0
H905 H 0.11882 0.08919 0.33299 0.0
H906 H 0.1473 0.15729 0.35866 0.0
H907 H 0.14003 0.16179 0.27747 0.0
C908 C 0.15701 0.13324 0.488 0.0
C909 C 0.15062 0.11343 0.50706 0.0
C910 C 0.15202 0.13619 0.4392 0.0
C911 C 0.14105 0.11908 0.40682 0.0
C912 C 0.13625 0.09858 0.42491 0.0
C913 C 0.14088 0.0958 0.47384 0.0
C914 C 0.119 0.1082 0.27373 0.0
C915 C 0.12539 0.12802 0.25467 0.0
C916 C 0.12398 0.10525 0.32253 0.0
C917 C 0.13495 0.12236 0.35492 0.0
C918 C 0.13975 0.14286 0.33683 0.0
C919 C 0.13512 0.14564 0.2879 0.0
H920 H 0.59999 0.39461 0.26629 0.0
H921 H 0.67325 0.39931 0.26238 0.0
H922 H 0.59755 0.38753 0.18008 0.0
H923 H 0.67155 0.39059 0.17668 0.0
H924 H 0.66737 0.37426 0.01608 0.0
H925 H 0.66982 0.38135 0.1023 0.0
H926 H 0.59582 0.37829 0.10569 0.0
H927 H 0.59412 0.36959 0.01998 0.0
C928 C 0.61574 0.39434 0.24694 0.0
C929 C 0.63681 0.39697 0.2722 0.0
C930 C 0.61449 0.38959 0.19598 0.0
C931 C 0.63434 0.38737 0.16844 0.0
C932 C 0.65543 0.39114 0.19408 0.0
C933 C 0.65659 0.39608 0.24489 0.0
C934 C 0.65163 0.37454 0.03543 0.0
C935 C 0.63056 0.37191 0.01015 0.0
C936 C 0.65288 0.37928 0.0864 0.0
C937 C 0.63303 0.38151 0.11394 0.0
C938 C 0.61193 0.37774 0.08829 0.0
C939 C 0.61078 0.3728 0.03747 0.0
H940 H 0.3259 0.87168 0.96028 0.0
H941 H 0.39432 0.88133 0.01122 0.0
H942 H 0.3354 0.87342 0.87517 0.0
H943 H 0.40523 0.88997 0.92539 0.0
H944 H 0.42496 0.89052 0.76875 0.0
H945 H 0.41547 0.88879 0.85386 0.0
H946 H 0.34564 0.87224 0.80364 0.0
H947 H 0.35509 0.87637 0.72275 0.0
C948 C 0.34339 0.87464 0.95174 0.0
C949 C 0.36034 0.87759 0.98975 0.0
C950 C 0.3492 0.87596 0.90237 0.0
C951 C 0.37189 0.88077 0.89053 0.0
C952 C 0.38794 0.88507 0.92979 0.0
C953 C 0.3824 0.88281 0.97764 0.0
C954 C 0.40747 0.88757 0.77728 0.0
C955 C 0.39053 0.88461 0.73926 0.0
C956 C 0.40167 0.88624 0.82666 0.0
C957 C 0.37897 0.88143 0.83851 0.0
C958 C 0.36293 0.87714 0.79924 0.0
C959 C 0.36847 0.87939 0.75138 0.0
H960 H 0.17224 0.69068 0.10596 0.0
H961 H 0.10674 0.69558 0.17131 0.0
H962 H 0.1724 0.72947 0.0984 0.0
H963 H 0.10696 0.73612 0.16703 0.0
H964 H 0.11008 0.81144 0.15654 0.0
H965 H 0.10901 0.77168 0.16643 0.0
H966 H 0.17429 0.76388 0.09715 0.0
H967 H 0.17418 0.80297 0.0862 0.0
C968 C 0.15821 0.70051 0.12169 0.0
C969 C 0.14008 0.68964 0.14127 0.0
C970 C 0.15804 0.72347 0.11662 0.0
C971 C 0.14013 0.73759 0.13381 0.0
C972 C 0.12177 0.72685 0.15449 0.0
C973 C 0.12173 0.70328 0.15833 0.0
C974 C 0.12411 0.80098 0.14326 0.0
C975 C 0.14149 0.81021 0.11707 0.0
C976 C 0.1235 0.77768 0.14849 0.0
C977 C 0.14093 0.76294 0.13038 0.0
C978 C 0.15958 0.77317 0.1099 0.0
C979 C 0.15982 0.79621 0.10369 0.0
H980 H 0.56507 0.91249 0.40828 0.0
H981 H 0.56463 0.84957 0.4722 0.0
H982 H 0.52485 0.91317 0.40442 0.0
H983 H 0.52331 0.84955 0.46834 0.0
H984 H 0.44594 0.85108 0.45469 0.0
H985 H 0.487 0.85084 0.46581 0.0
H986 H 0.48966 0.91444 0.40225 0.0
H987 H 0.44936 0.9137 0.39037 0.0
C988 C 0.55617 0.89879 0.42254 0.0
C989 C 0.5685 0.88085 0.43915 0.0
C990 C 0.53239 0.89898 0.42014 0.0
C991 C 0.51927 0.88149 0.43623 0.0
C992 C 0.53176 0.86379 0.45564 0.0
C993 C 0.55591 0.86379 0.45849 0.0
C994 C 0.45547 0.86502 0.44317 0.0
C995 C 0.44409 0.88169 0.41798 0.0
C996 C 0.47954 0.86486 0.44909 0.0
C997 C 0.4932 0.882 0.4328 0.0
C998 C 0.48119 0.89999 0.41371 0.0
C999 C 0.45738 0.89985 0.40704 0.0
H1000 H 0.40504 0.31652 0.68513 0.0
H1001 H 0.33418 0.31624 0.642 0.0
H1002 H 0.40475 0.27568 0.68002 0.0
H1003 H 0.333 0.27579 0.63842 0.0
H1004 H 0.33284 0.19991 0.61589 0.0
H1005 H 0.33308 0.24034 0.62614 0.0
H1006 H 0.40479 0.23971 0.66749 0.0
H1007 H 0.40377 0.19875 0.65755 0.0
C1008 C 0.38918 0.3077 0.67523 0.0
C1009 C 0.36993 0.3199 0.66102 0.0
C1010 C 0.38893 0.28375 0.67144 0.0
C1011 C 0.36908 0.27091 0.65605 0.0
C1012 C 0.34922 0.28371 0.64816 0.0
C1013 C 0.34968 0.30751 0.65088 0.0
C1014 C 0.34849 0.20843 0.62926 0.0
C1015 C 0.36798 0.19561 0.63711 0.0
C1016 C 0.34886 0.23225 0.63471 0.0
C1017 C 0.36887 0.24485 0.6494 0.0
C1018 C 0.38856 0.2318 0.65766 0.0
C1019 C 0.38804 0.20778 0.65267 0.0
H1020 H 0.94111 0.14183 0.87837 0.0
H1021 H 0.94254 0.10961 0.02391 0.0
H1022 H 0.98005 0.13915 0.87266 0.0
H1023 H 0.98436 0.10864 0.02096 0.0
H1024 H 0.07123 0.10946 0.99458 0.0
H1025 H 0.0285 0.10586 0.01195 0.0
H1026 H 0.02083 0.13552 0.86327 0.0
H1027 H 0.05987 0.13517 0.85329 0.0
C1028 C 0.95029 0.13529 0.90919 0.0
C1029 C 0.93846 0.12783 0.948 0.0
C1030 C 0.9737 0.13354 0.90591 0.0
C1031 C 0.98775 0.12526 0.94312 0.0
C1032 C 0.97635 0.11922 0.98523 0.0
C1033 C 0.95204 0.12019 0.9876 0.0
C1034 C 0.06012 0.11558 0.96625 0.0
C1035 C 0.06946 0.12249 0.922 0.0
C1036 C 0.03605 0.11602 0.97325 0.0
C1037 C 0.02059 0.12363 0.93717 0.0
C1038 C 0.03053 0.13 0.89402 0.0
C1039 C 0.0539 0.12966 0.88742 0.0
H1040 H 0.11684 0.30948 0.81523 0.0
H1041 H 0.17168 0.30998 0.92553 0.0
H1042 H 0.11563 0.26824 0.81035 0.0
H1043 H 0.1699 0.27117 0.924 0.0
H1044 H 0.16718 0.1986 0.9262 0.0
H1045 H 0.16718 0.23739 0.92683 0.0
H1046 H 0.11335 0.23226 0.81202 0.0
H1047 H 0.11316 0.19126 0.8135 0.0
C1048 C 0.12888 0.30094 0.83783 0.0
C1049 C 0.14422 0.31363 0.87144 0.0
C1050 C 0.12793 0.27696 0.83608 0.0
C1051 C 0.142 0.26504 0.86791 0.0
C1052 C 0.1579 0.27813 0.89902 0.0
C1053 C 0.15918 0.30136 0.89969 0.0
C1054 C 0.15534 0.20538 0.90007 0.0
C1055 C 0.1406 0.19099 0.86894 0.0
C1056 C 0.15534 0.22863 0.90031 0.0
C1057 C 0.14077 0.23949 0.86825 0.0
C1058 C 0.12553 0.22529 0.83683 0.0
C1059 C 0.12548 0.20136 0.83687 0.0
H1060 H 0.06384 0.84624 0.02214 0.0
H1061 H 0.06743 0.9119 0.10621 0.0
H1062 H 0.02245 0.84729 0.02542 0.0
H1063 H 0.02771 0.91246 0.11367 0.0
H1064 H 0.94548 0.91551 0.12611 0.0
H1065 H 0.98555 0.91476 0.11576 0.0
H1066 H 0.97898 0.84966 0.02744 0.0
H1067 H 0.93827 0.8508 0.03947 0.0
C1068 C 0.05592 0.86132 0.0397 0.0
C1069 C 0.06968 0.8795 0.06234 0.0
C1070 C 0.03172 0.86185 0.04281 0.0
C1071 C 0.02022 0.88032 0.06891 0.0
C1072 C 0.03433 0.89798 0.09155 0.0
C1073 C 0.05794 0.89778 0.08687 0.0
C1074 C 0.95257 0.90088 0.1048 0.0
C1075 C 0.93831 0.88264 0.08724 0.0
C1076 C 0.97626 0.90021 0.09871 0.0
C1077 C 0.98717 0.88145 0.07268 0.0
C1078 C 0.97244 0.86419 0.04974 0.0
C1079 C 0.94854 0.8649 0.05617 0.0
H1080 H 0.40765 0.69147 0.36272 0.0
H1081 H 0.33861 0.68728 0.30583 0.0
H1082 H 0.40765 0.73141 0.36132 0.0
H1083 H 0.33823 0.72794 0.30174 0.0
H1084 H 0.33801 0.80475 0.31122 0.0
H1085 H 0.33764 0.76407 0.3076 0.0
H1086 H 0.40691 0.76657 0.36772 0.0
H1087 H 0.40684 0.80687 0.36888 0.0
C1088 C 0.39234 0.69926 0.34932 0.0
C1089 C 0.37294 0.68603 0.33733 0.0
C1090 C 0.39207 0.72282 0.34885 0.0
C1091 C 0.37257 0.73453 0.33368 0.0
C1092 C 0.35362 0.72074 0.31594 0.0
C1093 C 0.3538 0.69694 0.31761 0.0
C1094 C 0.35361 0.79636 0.32083 0.0
C1095 C 0.37286 0.80949 0.3376 0.0
C1096 C 0.35335 0.77255 0.31989 0.0
C1097 C 0.3725 0.76045 0.33551 0.0
C1098 C 0.39172 0.77383 0.35295 0.0
C1099 C 0.39202 0.79758 0.35297 0.0
H1100 H 0.55669 0.14364 0.66281 0.0
H1101 H 0.56333 0.10682 0.51793 0.0
H1102 H 0.51746 0.14307 0.65283 0.0
H1103 H 0.52161 0.10651 0.50549 0.0
H1104 H 0.44216 0.10535 0.49809 0.0
H1105 H 0.48411 0.10484 0.50024 0.0
H1106 H 0.48331 0.14094 0.64865 0.0
H1107 H 0.4442 0.14244 0.64428 0.0
C1108 C 0.54954 0.13514 0.62821 0.0
C1109 C 0.56377 0.12469 0.59331 0.0
C1110 C 0.52604 0.13462 0.62182 0.0
C1111 C 0.51464 0.12395 0.5785 0.0
C1112 C 0.52884 0.11449 0.54036 0.0
C1113 C 0.55311 0.11484 0.5473 0.0
C1114 C 0.45139 0.11374 0.53029 0.0
C1115 C 0.43939 0.12433 0.57162 0.0
C1116 C 0.47575 0.11327 0.53196 0.0
C1117 C 0.4886 0.12336 0.57431 0.0
C1118 C 0.47586 0.13332 0.61405 0.0
C1119 C 0.45239 0.13416 0.61193 0.0
H1120 H 0.8398 0.20458 0.94401 0.0
H1121 H 0.89414 0.19287 0.84248 0.0
H1122 H 0.83988 0.24328 0.9343 0.0
H1123 H 0.89511 0.23279 0.83219 0.0
H1124 H 0.89496 0.30894 0.82061 0.0
H1125 H 0.89471 0.26808 0.82356 0.0
H1126 H 0.8388 0.27657 0.92409 0.0
H1127 H 0.83816 0.31493 0.91704 0.0
C1128 C 0.85188 0.21047 0.91907 0.0
C1129 C 0.8673 0.19543 0.89581 0.0
C1130 C 0.85209 0.2334 0.91295 0.0
C1131 C 0.86749 0.24266 0.88175 0.0
C1132 C 0.88263 0.22728 0.85649 0.0
C1133 C 0.88211 0.20396 0.86219 0.0
C1134 C 0.88214 0.30161 0.84167 0.0
C1135 C 0.86674 0.3157 0.86961 0.0
C1136 C 0.88226 0.2779 0.84466 0.0
C1137 C 0.86724 0.26775 0.87565 0.0
C1138 C 0.85132 0.28218 0.90031 0.0
C1139 C 0.85068 0.30507 0.89574 0.0
H1140 H 0.65609 0.80659 0.30355 0.0
H1141 H 0.62446 0.80499 0.44406 0.0
H1142 H 0.6553 0.76503 0.2912 0.0
H1143 H 0.62534 0.7658 0.43526 0.0
H1144 H 0.62091 0.69256 0.42094 0.0
H1145 H 0.62239 0.73166 0.42579 0.0
H1146 H 0.65273 0.72779 0.28145 0.0
H1147 H 0.65182 0.6862 0.2784 0.0
C1148 C 0.64833 0.7976 0.33128 0.0
C1149 C 0.63947 0.80988 0.37478 0.0
C1150 C 0.64822 0.77335 0.32465 0.0
C1151 C 0.63953 0.76054 0.36096 0.0
C1152 C 0.63155 0.77331 0.40404 0.0
C1153 C 0.63102 0.79684 0.40969 0.0
C1154 C 0.62819 0.69975 0.38996 0.0
C1155 C 0.63672 0.68563 0.35091 0.0
C1156 C 0.62924 0.72314 0.39261 0.0
C1157 C 0.63847 0.73456 0.35502 0.0
C1158 C 0.64593 0.72049 0.31264 0.0
C1159 C 0.64517 0.6963 0.31038 0.0
H1160 H 0.88213 0.69632 0.20804 0.0
H1161 H 0.84804 0.69585 0.06348 0.0
H1162 H 0.88282 0.73783 0.21509 0.0
H1163 H 0.85068 0.73371 0.06708 0.0
H1164 H 0.84882 0.80506 0.06993 0.0
H1165 H 0.84931 0.76724 0.07086 0.0
H1166 H 0.88205 0.77467 0.21836 0.0
H1167 H 0.88284 0.81582 0.21502 0.0
C1168 C 0.8748 0.70481 0.17786 0.0
C1169 C 0.86532 0.69211 0.13441 0.0
C1170 C 0.87531 0.72885 0.1816 0.0
C1171 C 0.86653 0.74058 0.14229 0.0
C1172 C 0.8574 0.72722 0.1 0.0
C1173 C 0.85612 0.70415 0.09725 0.0
C1174 C 0.85677 0.79928 0.10298 0.0
C1175 C 0.86655 0.81443 0.14119 0.0
C1176 C 0.85705 0.77625 0.10367 0.0
C1177 C 0.86643 0.76614 0.14414 0.0
C1178 C 0.87508 0.78109 0.18523 0.0
C1179 C 0.87537 0.80501 0.18382 0.0
H1180 H 0.66453 0.1994 0.62728 0.0
H1181 H 0.60545 0.20102 0.71672 0.0
H1182 H 0.66385 0.2385 0.6278 0.0
H1183 H 0.60525 0.24225 0.72053 0.0
H1184 H 0.60751 0.31938 0.72272 0.0
H1185 H 0.60704 0.27864 0.72579 0.0
H1186 H 0.66566 0.27309 0.63286 0.0
H1187 H 0.66526 0.31254 0.62975 0.0
C1188 C 0.65161 0.2083 0.64922 0.0
C1189 C 0.63561 0.19621 0.6732 0.0
C1190 C 0.65111 0.23168 0.64941 0.0
C1191 C 0.63497 0.2452 0.67585 0.0
C1192 C 0.61866 0.23336 0.7006 0.0
C1193 C 0.61892 0.20931 0.69943 0.0
C1194 C 0.62025 0.30921 0.70299 0.0
C1195 C 0.63558 0.31939 0.67287 0.0
C1196 C 0.61993 0.28539 0.7042 0.0
C1197 C 0.63553 0.271 0.67738 0.0
C1198 C 0.65228 0.282 0.65255 0.0
C1199 C 0.65233 0.30541 0.6509 0.0
H1200 H 0.94499 0.42191 0.93207 0.0
H1201 H 0.94418 0.35168 0.95438 0.0
H1202 H 0.9858 0.42211 0.93622 0.0
H1203 H 0.9851 0.35121 0.95949 0.0
H1204 H 0.06854 0.34963 0.9518 0.0
H1205 H 0.02772 0.35015 0.9552 0.0
H1206 H 0.02824 0.42106 0.9319 0.0
H1207 H 0.0689 0.4199 0.92958 0.0
C1208 C 0.95371 0.40639 0.93824 0.0
C1209 C 0.94112 0.38649 0.93955 0.0
C1210 C 0.97765 0.40627 0.94018 0.0
C1211 C 0.99021 0.38631 0.94563 0.0
C1212 C 0.97723 0.36701 0.95313 0.0
C1213 C 0.95323 0.36723 0.95106 0.0
C1214 C 0.05983 0.36547 0.9489 0.0
C1215 C 0.07224 0.38462 0.9394 0.0
C1216 C 0.03586 0.36588 0.95025 0.0
C1217 C 0.02321 0.38576 0.94433 0.0
C1218 C 0.0361 0.40515 0.9373 0.0
C1219 C 0.05999 0.40467 0.93611 0.0
H1220 H 0.44638 0.64569 0.45199 0.0
H1221 H 0.4475 0.58619 0.34572 0.0
H1222 H 0.48788 0.64593 0.45578 0.0
H1223 H 0.48702 0.58648 0.34724 0.0
H1224 H 0.56104 0.58701 0.34399 0.0
H1225 H 0.52155 0.58778 0.34423 0.0
H1226 H 0.5243 0.64698 0.4534 0.0
H1227 H 0.56574 0.6462 0.45098 0.0
C1228 C 0.45531 0.63237 0.43024 0.0
C1229 C 0.44298 0.61586 0.3984 0.0
C1230 C 0.47953 0.63267 0.43136 0.0
C1231 C 0.49222 0.6167 0.40073 0.0
C1232 C 0.47947 0.59981 0.37119 0.0
C1233 C 0.45587 0.5994 0.37067 0.0
C1234 C 0.55349 0.6001 0.3692 0.0
C1235 C 0.56732 0.61618 0.39775 0.0
C1236 C 0.52991 0.60067 0.36937 0.0
C1237 C 0.51815 0.6171 0.39999 0.0
C1238 C 0.53184 0.63345 0.42975 0.0
C1239 C 0.55605 0.63292 0.42919 0.0
H1240 H 0.44415 0.35339 0.61874 0.0
H1241 H 0.44384 0.42411 0.60126 0.0
H1242 H 0.48478 0.35297 0.61868 0.0
H1243 H 0.48477 0.42425 0.59917 0.0
H1244 H 0.56188 0.4237 0.60773 0.0
H1245 H 0.52081 0.42448 0.60418 0.0
H1246 H 0.52019 0.35325 0.62396 0.0
H1247 H 0.56073 0.35302 0.625 0.0
C1248 C 0.45284 0.36881 0.61261 0.0
C1249 C 0.44012 0.38848 0.60764 0.0
C1250 C 0.47681 0.36888 0.6138 0.0
C1251 C 0.48959 0.38871 0.60988 0.0
C1252 C 0.47673 0.40833 0.60311 0.0
C1253 C 0.45269 0.40825 0.60288 0.0
C1254 C 0.55278 0.40794 0.60827 0.0
C1255 C 0.56509 0.38794 0.61342 0.0
C1256 C 0.5287 0.40835 0.60742 0.0
C1257 C 0.51567 0.38872 0.61196 0.0
C1258 C 0.52826 0.36891 0.61818 0.0
C1259 C 0.55216 0.36849 0.6179 0.0
H1260 H 0.06569 0.64119 1.00181 0.0
H1261 H 0.06139 0.59794 0.13181 0.0
H1262 H 0.02403 0.64162 0.99605 0.0
H1263 H 0.02222 0.59838 0.12767 0.0
H1264 H 0.94213 0.60173 0.13303 0.0
H1265 H 0.9811 0.60119 0.13044 0.0
H1266 H 0.9801 0.64397 0.99796 0.0
H1267 H 0.93852 0.64464 1.00205 0.0
C1268 C 0.05489 0.62831 0.03324 0.0
C1269 C 0.06669 0.61853 0.07265 0.0
C1270 C 0.03064 0.62869 0.0303 0.0
C1271 C 0.01759 0.61889 0.06541 0.0
C1272 C 0.02999 0.6074 0.10047 0.0
C1273 C 0.05352 0.60696 0.10306 0.0
C1274 C 0.94942 0.6102 0.1039 0.0
C1275 C 0.93563 0.62152 0.072 0.0
C1276 C 0.97288 0.6098 0.10192 0.0
C1277 C 0.98468 0.62003 0.06595 0.0
C1278 C 0.97103 0.63099 0.0315 0.0
C1279 C 0.94681 0.63138 0.03364 0.0
H1280 H 0.15898 0.5638 0.02773 0.0
H1281 H 0.10987 0.54129 0.12526 0.0
H1282 H 0.16171 0.53133 0.97829 0.0
H1283 H 0.11083 0.50406 0.08266 0.0
H1284 H 0.11318 0.43964 0.99328 0.0
H1285 H 0.11024 0.47224 0.04263 0.0
H1286 H 0.1611 0.49956 0.93821 0.0
H1287 H 0.16212 0.46227 0.89576 0.0
C1288 C 0.14818 0.55074 0.0392 0.0
C1289 C 0.13423 0.55542 0.07987 0.0
C1290 C 0.14881 0.52903 0.0135 0.0
C1291 C 0.13519 0.51126 0.02712 0.0
C1292 C 0.12146 0.51641 0.06861 0.0
C1293 C 0.12086 0.53811 0.09402 0.0
C1294 C 0.12402 0.45275 0.98214 0.0
C1295 C 0.13818 0.44807 0.94194 0.0
C1296 C 0.12177 0.47001 0.01254 0.0
C1297 C 0.13683 0.49232 0.99396 0.0
C1298 C 0.15058 0.48719 0.95248 0.0
C1299 C 0.15128 0.46547 0.92729 0.0
H1300 H 0.72302 0.85523 0.38707 0.0
H1301 H 0.68974 0.89993 0.29236 0.0
H1302 H 0.75646 0.85584 0.33772 0.0
H1303 H 0.72178 0.90017 0.24349 0.0
H1304 H 0.78453 0.90425 0.1556 0.0
H1305 H 0.75149 0.90339 0.20481 0.0
H1306 H 0.78662 0.859 0.29836 0.0
H1307 H 0.81939 0.86003 0.24751 0.0
C1308 C 0.72277 0.86555 0.35656 0.0
C1309 C 0.70336 0.87843 0.34735 0.0
C1310 C 0.74231 0.86597 0.32718 0.0
C1311 C 0.74336 0.87893 0.28629 0.0
C1312 C 0.7233 0.8905 0.27485 0.0
C1313 C 0.70412 0.89024 0.30412 0.0
C1314 C 0.78485 0.89353 0.18544 0.0
C1315 C 0.80426 0.88047 0.19338 0.0
C1316 C 0.76555 0.8931 0.21508 0.0
C1317 C 0.76474 0.8801 0.25583 0.0
C1318 C 0.78503 0.86857 0.26681 0.0
C1319 C 0.80429 0.869 0.23686 0.0
H1320 H 0.37053 0.43517 0.50293 0.0
H1321 H 0.37324 0.47992 0.63936 0.0
H1322 H 0.37133 0.46673 0.45514 0.0
H1323 H 0.37335 0.51206 0.59152 0.0
H1324 H 0.3764 0.57198 0.50169 0.0
H1325 H 0.37577 0.54037 0.54969 0.0
H1326 H 0.37396 0.495 0.41336 0.0
H1327 H 0.37404 0.5271 0.3655 0.0
C1328 C 0.37148 0.45182 0.52354 0.0
C1329 C 0.37256 0.45398 0.577 0.0
C1330 C 0.37195 0.47058 0.49511 0.0
C1331 C 0.37311 0.49322 0.51772 0.0
C1332 C 0.37316 0.49556 0.57063 0.0
C1333 C 0.37315 0.47665 0.59921 0.0
C1334 C 0.37571 0.55528 0.48125 0.0
C1335 C 0.37513 0.55306 0.42782 0.0
C1336 C 0.37529 0.53652 0.50973 0.0
C1337 C 0.37418 0.51386 0.48715 0.0
C1338 C 0.37431 0.51149 0.43426 0.0
C1339 C 0.37462 0.53038 0.40568 0.0
H1340 H 0.81589 0.11282 0.82001 0.0
H1341 H 0.77852 0.14604 0.94031 0.0
H1342 H 0.78336 0.11305 0.7649 0.0
H1343 H 0.74484 0.14562 0.88594 0.0
H1344 H 0.6833 0.14646 0.77972 0.0
H1345 H 0.71612 0.14694 0.836 0.0
H1346 H 0.75502 0.11459 0.71555 0.0
H1347 H 0.72185 0.11402 0.66046 0.0
C1348 C 0.80065 0.12055 0.83486 0.0
C1349 C 0.80056 0.12996 0.8851 0.0
C1350 C 0.78131 0.12058 0.80255 0.0
C1351 C 0.76037 0.12991 0.81856 0.0
C1352 C 0.76007 0.13858 0.86972 0.0
C1353 C 0.7797 0.13876 0.902 0.0
C1354 C 0.69901 0.13963 0.7649 0.0
C1355 C 0.69946 0.13089 0.71343 0.0
C1356 C 0.71834 0.13969 0.79814 0.0
C1357 C 0.73939 0.13046 0.78263 0.0
C1358 C 0.73982 0.12181 0.73148 0.0
C1359 C 0.72044 0.12174 0.69835 0.0
H1360 H 0.89568 0.5654 0.01972 0.0
H1361 H 0.84461 0.54347 0.11313 0.0
H1362 H 0.89866 0.53284 0.97031 0.0
H1363 H 0.84561 0.5062 0.07062 0.0
H1364 H 0.84786 0.44204 0.98113 0.0
H1365 H 0.84509 0.47449 0.03051 0.0
H1366 H 0.89815 0.50104 0.93024 0.0
H1367 H 0.89908 0.46382 0.88766 0.0
C1368 C 0.88442 0.55242 0.02993 0.0
C1369 C 0.86977 0.55715 0.06912 0.0
C1370 C 0.88667 0.53521 0.99949 0.0
C1371 C 0.87102 0.51311 0.01693 0.0
C1372 C 0.85663 0.51841 0.05728 0.0
C1373 C 0.85592 0.5401 0.0825 0.0
C1374 C 0.85911 0.45494 0.97059 0.0
C1375 C 0.87365 0.45008 0.93108 0.0
C1376 C 0.85847 0.47664 0.99625 0.0
C1377 C 0.87267 0.4942 0.98377 0.0
C1378 C 0.88703 0.48886 0.9434 0.0
C1379 C 0.88762 0.46717 0.91801 0.0
H1380 H 0.22712 0.133 0.87775 0.0
H1381 H 0.18647 0.11418 0.74382 0.0
H1382 H 0.26026 0.13427 0.8285 0.0
H1383 H 0.21906 0.11468 0.69462 0.0
H1384 H 0.28073 0.11869 0.602 0.0
H1385 H 0.2476 0.11749 0.6512 0.0
H1386 H 0.2889 0.13696 0.78508 0.0
H1387 H 0.32168 0.13728 0.73516 0.0
C1388 C 0.22508 0.12929 0.83775 0.0
C1389 C 0.20345 0.12387 0.81649 0.0
C1390 C 0.24449 0.12993 0.80835 0.0
C1391 C 0.24344 0.1252 0.75566 0.0
C1392 C 0.22179 0.11909 0.73414 0.0
C1393 C 0.20247 0.11865 0.76342 0.0
C1394 C 0.28268 0.12296 0.64187 0.0
C1395 C 0.30431 0.12841 0.66308 0.0
C1396 C 0.26333 0.12203 0.67133 0.0
C1397 C 0.26444 0.12661 0.72404 0.0
C1398 C 0.28613 0.13271 0.74552 0.0
C1399 C 0.30547 0.13316 0.71612 0.0
H1400 H 0.67128 0.54885 0.44655 0.0
H1401 H 0.59846 0.54946 0.43873 0.0
H1402 H 0.67103 0.51665 0.4933 0.0
H1403 H 0.59772 0.51751 0.48742 0.0
H1404 H 0.59734 0.45485 0.57179 0.0
H1405 H 0.59736 0.48718 0.52414 0.0
H1406 H 0.67067 0.48641 0.52898 0.0
H1407 H 0.67016 0.45462 0.57698 0.0
C1408 C 0.65494 0.54169 0.45328 0.0
C1409 C 0.63493 0.55119 0.43281 0.0
C1410 C 0.65471 0.52277 0.4814 0.0
C1411 C 0.6343 0.51249 0.49379 0.0
C1412 C 0.61419 0.52327 0.47791 0.0
C1413 C 0.6145 0.54198 0.4487 0.0
C1414 C 0.61355 0.46217 0.56474 0.0
C1415 C 0.63378 0.45275 0.58427 0.0
C1416 C 0.61368 0.48105 0.53601 0.0
C1417 C 0.63405 0.49139 0.52315 0.0
C1418 C 0.65421 0.48068 0.53858 0.0
C1419 C 0.654 0.46195 0.5673 0.0
H1420 H 0.29303 0.90525 0.33338 0.0
H1421 H 0.31958 0.84812 0.24347 0.0
H1422 H 0.25985 0.90505 0.27854 0.0
H1423 H 0.2866 0.84764 0.18699 0.0
H1424 H 0.22251 0.84582 0.08695 0.0
H1425 H 0.25616 0.84581 0.14126 0.0
H1426 H 0.22964 0.90322 0.23368 0.0
H1427 H 0.19661 0.90291 0.17867 0.0
C1428 C 0.29139 0.8919 0.30288 0.0
C1429 C 0.30842 0.87527 0.2975 0.0
C1430 C 0.27202 0.89184 0.26984 0.0
C1431 C 0.26875 0.87557 0.22757 0.0
C1432 C 0.28684 0.86007 0.21918 0.0
C1433 C 0.30617 0.86014 0.25264 0.0
C1434 C 0.22418 0.85873 0.11836 0.0
C1435 C 0.2068 0.8748 0.1267 0.0
C1436 C 0.2438 0.85879 0.15058 0.0
C1437 C 0.24716 0.875 0.193 0.0
C1438 C 0.22918 0.89058 0.20193 0.0
C1439 C 0.20965 0.89045 0.16977 0.0
H1440 H 0.60176 0.94112 0.47845 0.0
H1441 H 0.66931 0.95548 0.43642 0.0
H1442 H 0.59995 0.97742 0.52691 0.0
H1443 H 0.66861 0.99164 0.48583 0.0
H1444 H 0.66473 0.06508 0.57162 0.0
H1445 H 0.66654 0.02877 0.52346 0.0
H1446 H 0.59794 0.01455 0.56485 0.0
H1447 H 0.59733 0.05064 0.61458 0.0
C1448 C 0.61632 0.95229 0.47962 0.0
C1449 C 0.63535 0.94564 0.45213 0.0
C1450 C 0.61543 0.9736 0.50779 0.0
C1451 C 0.63384 0.9891 0.51063 0.0
C1452 C 0.65344 0.98151 0.48493 0.0
C1453 C 0.65408 0.96034 0.45608 0.0
C1454 C 0.65019 0.0539 0.57068 0.0
C1455 C 0.63127 0.06045 0.59871 0.0
C1456 C 0.65109 0.03258 0.54266 0.0
C1457 C 0.63269 0.01708 0.53997 0.0
C1458 C 0.61312 0.02466 0.56581 0.0
C1459 C 0.61257 0.04576 0.59495 0.0
H1460 H 0.18852 0.39139 0.77189 0.0
H1461 H 0.23282 0.3734 0.8918 0.0
H1462 H 0.21951 0.39249 0.71927 0.0
H1463 H 0.26479 0.37492 0.83828 0.0
H1464 H 0.32375 0.37553 0.73668 0.0
H1465 H 0.29239 0.37455 0.79006 0.0
H1466 H 0.24708 0.39207 0.67071 0.0
H1467 H 0.27934 0.39355 0.61794 0.0
C1468 C 0.20494 0.38754 0.7881 0.0
C1469 C 0.20702 0.38221 0.83865 0.0
C1470 C 0.22344 0.38815 0.75632 0.0
C1471 C 0.24584 0.3834 0.77204 0.0
C1472 C 0.24833 0.37838 0.82221 0.0
C1473 C 0.22954 0.37748 0.8542 0.0
C1474 C 0.30719 0.37969 0.72182 0.0
C1475 C 0.30489 0.38503 0.67239 0.0
C1476 C 0.28854 0.37897 0.75309 0.0
C1477 C 0.26606 0.38372 0.73716 0.0
C1478 C 0.26352 0.38861 0.68697 0.0
C1479 C 0.28239 0.38937 0.65557 0.0
H1480 H 0.83681 0.94379 0.07175 0.0
H1481 H 0.90268 0.96193 0.1373 0.0
H1482 H 0.83563 0.97802 0.03203 0.0
H1483 H 0.90209 0.99647 0.09837 0.0
H1484 H 0.90079 0.06434 0.01928 0.0
H1485 H 0.90203 0.03036 0.06074 0.0
H1486 H 0.83704 0.01622 0.99006 0.0
H1487 H 0.83617 0.05043 0.95063 0.0
C1488 C 0.85126 0.95513 0.07733 0.0
C1489 C 0.86997 0.94957 0.10744 0.0
C1490 C 0.85074 0.9753 0.05418 0.0
C1491 C 0.86905 0.99099 0.05952 0.0
C1492 C 0.88752 0.98553 0.09102 0.0
C1493 C 0.88794 0.96537 0.11424 0.0
C1494 C 0.88658 0.05273 0.01311 0.0
C1495 C 0.86968 0.06217 0.97564 0.0
C1496 C 0.88707 0.03283 0.03784 0.0
C1497 C 0.86884 0.01706 0.03289 0.0
C1498 C 0.85175 0.02699 0.99665 0.0
C1499 C 0.85123 0.04696 0.97263 0.0
H1500 H 0.21995 0.64675 0.14094 0.0
H1501 H 0.19023 0.60139 0.23445 0.0
H1502 H 0.2549 0.64639 0.19021 0.0
H1503 H 0.22391 0.60126 0.28361 0.0
H1504 H 0.28978 0.59773 0.3708 0.0
H1505 H 0.25483 0.59826 0.32234 0.0
H1506 H 0.28607 0.64347 0.22899 0.0
H1507 H 0.32059 0.64255 0.27872 0.0
C1508 C 0.22087 0.63634 0.1713 0.0
C1509 C 0.2021 0.62311 0.18014 0.0
C1510 C 0.24128 0.63604 0.20064 0.0
C1511 C 0.24379 0.62288 0.24115 0.0
C1512 C 0.22428 0.61108 0.25249 0.0
C1513 C 0.20418 0.61126 0.22321 0.0
C1514 C 0.28886 0.60802 0.34018 0.0
C1515 C 0.30783 0.62066 0.32986 0.0
C1516 C 0.26847 0.60847 0.31152 0.0
C1517 C 0.26614 0.62166 0.2711 0.0
C1518 C 0.2858 0.63347 0.25979 0.0
C1519 C 0.30614 0.63292 0.28849 0.0
H1520 H 0.34622 0.95626 0.37457 0.0
H1521 H 0.40508 0.93884 0.46047 0.0
H1522 H 0.34474 0.99266 0.4225 0.0
H1523 H 0.40411 0.97501 0.50992 0.0
H1524 H 0.40292 0.04837 0.59657 0.0
H1525 H 0.40441 0.01206 0.54862 0.0
H1526 H 0.34507 0.02972 0.46115 0.0
H1527 H 0.34408 0.06588 0.51057 0.0
C1528 C 0.35911 0.96048 0.40375 0.0
C1529 C 0.37615 0.94487 0.41241 0.0
C1530 C 0.35839 0.98174 0.43208 0.0
C1531 C 0.37474 0.98838 0.47075 0.0
C1532 C 0.39128 0.97195 0.48054 0.0
C1533 C 0.39193 0.9507 0.45199 0.0
C1534 C 0.39003 0.04421 0.56737 0.0
C1535 C 0.37303 0.05986 0.55872 0.0
C1536 C 0.39077 0.02298 0.53901 0.0
C1537 C 0.37443 0.01635 0.50034 0.0
C1538 C 0.35791 0.03279 0.49051 0.0
C1539 C 0.35727 0.05406 0.51903 0.0
H1540 H 0.80269 0.58842 0.1814 0.0
H1541 H 0.79427 0.66003 0.18185 0.0
H1542 H 0.7712 0.58677 0.23443 0.0
H1543 H 0.76263 0.65893 0.23673 0.0
H1544 H 0.70091 0.65528 0.33173 0.0
H1545 H 0.73298 0.65719 0.27922 0.0
H1546 H 0.74162 0.58489 0.2763 0.0
H1547 H 0.70972 0.58366 0.32983 0.0
C1548 C 0.7936 0.60398 0.19131 0.0
C1549 C 0.80035 0.62394 0.17117 0.0
C1550 C 0.77507 0.60311 0.2232 0.0
C1551 C 0.76237 0.62249 0.23983 0.0
C1552 C 0.77036 0.643 0.22421 0.0
C1553 C 0.78883 0.64374 0.19131 0.0
C1554 C 0.71003 0.63984 0.32083 0.0
C1555 C 0.70288 0.61954 0.33765 0.0
C1556 C 0.72883 0.6408 0.28974 0.0
C1557 C 0.74156 0.62136 0.27293 0.0
C1558 C 0.73365 0.60077 0.28812 0.0
C1559 C 0.71491 0.59991 0.31961 0.0
H1560 H 0.10245 0.04794 0.88908 0.0
H1561 H 0.17376 0.05733 0.92359 0.0
H1562 H 0.10271 0.01372 0.92918 0.0
H1563 H 0.17493 0.02268 0.9619 0.0
H1564 H 0.17425 0.95052 0.04446 0.0
H1565 H 0.17522 0.98895 0.99908 0.0
H1566 H 0.10302 0.97992 0.96702 0.0
H1567 H 0.10281 0.94106 0.01213 0.0
C1568 C 0.11835 0.04259 0.90532 0.0
C1569 C 0.13797 0.05593 0.90338 0.0
C1570 C 0.11865 0.02256 0.92904 0.0
C1571 C 0.13876 0.01448 0.95133 0.0
C1572 C 0.15861 0.02755 0.94738 0.0
C1573 C 0.15812 0.0479 0.9248 0.0
C1574 C 0.15814 0.95595 0.02938 0.0
C1575 C 0.13839 0.94326 0.03529 0.0
C1576 C 0.15921 0.98033 1.00005 0.0
C1577 C 0.13906 0.98841 0.97803 0.0
C1578 C 0.11927 0.97528 0.98237 0.0
C1579 C 0.11833 0.95074 0.01157 0.0
H1580 H 0.69709 0.41839 0.71702 0.0
H1581 H 0.70787 0.34973 0.6557 0.0
H1582 H 0.73208 0.41813 0.7655 0.0
H1583 H 0.74251 0.34835 0.7053 0.0
H1584 H 0.80908 0.34847 0.79392 0.0
H1585 H 0.77427 0.3486 0.74376 0.0
H1586 H 0.76371 0.41835 0.80311 0.0
H1587 H 0.79794 0.41719 0.85331 0.0
C1588 C 0.70719 0.40313 0.71392 0.0
C1589 C 0.69997 0.38433 0.68105 0.0
C1590 C 0.72775 0.40282 0.74209 0.0
C1591 C 0.74174 0.38339 0.73974 0.0
C1592 C 0.73353 0.36417 0.70849 0.0
C1593 C 0.71328 0.36478 0.67937 0.0
C1594 C 0.79859 0.36345 0.7978 0.0
C1595 C 0.80518 0.382 0.83298 0.0
C1596 C 0.77832 0.36378 0.76797 0.0
C1597 C 0.76425 0.38314 0.7698 0.0
C1598 C 0.77241 0.40239 0.80088 0.0
C1599 C 0.79241 0.40183 0.83093 0.0
loop_
_geom_bond_atom_site_label_1
_geom_bond_atom_site_label_2
_geom_bond_distance
_geom_bond_site_symmetry_2
_ccdc_geom_bond_type
Tb0 C9 2.764 . S
Tb0 O10 2.325 . S
Tb0 O13 2.303 . S
Tb0 O17 2.322 . S
Tb0 O18 2.349 . S
Tb0 O21 2.415 . S
Tb0 O22 2.399 . S
Tb1 O11 2.322 . S
Tb1 O12 2.349 . S
Tb1 O14 2.415 1_554 S
Tb1 O15 2.399 1_554 S
Tb1 O16 2.325 . S
Tb1 O19 2.303 . S
Tb1 C30 2.764 1_554 S
C2 O18 1.261 . S
C2 O19 1.257 . S
C3 C6 1.358 . S
C3 C7 1.332 . S
C3 C9 1.504 . S
C4 C5 1.373 . S
C4 C8 1.308 . S
C5 C4 1.373 . S
C5 C6 1.429 . S
C5 H32 0.932 . S
C6 C3 1.358 . S
C6 C5 1.429 . S
C6 H33 0.930 . S
C7 C3 1.332 . S
C7 C8 1.394 . S
C7 H34 0.932 . S
C8 C4 1.308 . S
C8 C7 1.394 . S
C8 H35 0.929 . S
C9 Tb0 2.764 . S
C9 C3 1.504 . S
C9 O21 1.239 . S
C9 O22 1.263 . S
O10 Tb0 2.325 . S
O10 C20 1.236 . S
O11 Tb1 2.322 . S
O11 C20 1.257 . S
O12 Tb1 2.349 . S
O12 C23 1.261 . S
O13 Tb0 2.303 . S
O13 C23 1.257 . S
O14 Tb1 2.415 1_556 S
O14 C30 1.239 . S
O15 Tb1 2.399 1_556 S
O15 C30 1.263 . S
O16 Tb1 2.325 . S
O16 C31 1.236 . S
O17 Tb0 2.322 . S
O17 C31 1.257 . S
O18 Tb0 2.349 . S
O18 C2 1.261 . S
O19 Tb1 2.303 . S
O19 C2 1.257 . S
C20 O10 1.236 . S
C20 O11 1.257 . S
O21 Tb0 2.415 . S
O21 C9 1.239 . S
O22 Tb0 2.399 . S
O22 C9 1.263 . S
C23 O12 1.261 . S
C23 O13 1.257 . S
C24 C27 1.358 . S
C24 C28 1.332 . S
C24 C30 1.504 . S
C25 C26 1.373 . S
C25 C29 1.308 . S
C26 C25 1.373 . S
C26 C27 1.429 . S
C26 H36 0.932 . S
C27 C24 1.358 . S
C27 C26 1.429 . S
C27 H37 0.930 . S
C28 C24 1.332 . S
C28 C29 1.394 . S
C28 H38 0.932 . S
C29 C25 1.308 . S
C29 C28 1.394 . S
C29 H39 0.929 . S
C30 Tb1 2.764 1_556 S
C30 O14 1.239 . S
C30 O15 1.263 . S
C30 C24 1.504 . S
C31 O16 1.236 . S
C31 O17 1.257 . S
H32 C5 0.932 . S
H33 C6 0.930 . S
H34 C7 0.932 . S
H35 C8 0.929 . S
H36 C26 0.932 . S
H37 C27 0.930 . S
H38 C28 0.932 . S
H39 C29 0.929 . S
Tb40 C49 2.764 . S
Tb40 O50 2.325 . S
Tb40 O53 2.303 . S
Tb40 O57 2.322 . S
Tb40 O58 2.349 . S
Tb40 O61 2.415 . S
Tb40 O62 2.399 . S
Tb41 O51 2.322 . S
Tb41 O52 2.349 . S
Tb41 O54 2.415 . S
Tb41 O55 2.399 . S
Tb41 O56 2.325 . S
Tb41 O59 2.303 . S
Tb41 C70 2.764 . S
C42 O58 1.261 . S
C42 O59 1.257 . S
C43 C46 1.358 . S
C43 C47 1.332 . S
C43 C49 1.504 . S
C44 C45 1.373 . S
C44 C48 1.308 . S
C45 C44 1.373 . S
C45 C46 1.429 . S
C45 H72 0.932 . S
C46 C43 1.358 . S
C46 C45 1.429 . S
C46 H73 0.930 . S
C47 C43 1.332 . S
C47 C48 1.394 . S
C47 H74 0.932 . S
C48 C44 1.308 . S
C48 C47 1.394 . S
C48 H75 0.929 . S
C49 Tb40 2.764 . S
C49 C43 1.504 . S
C49 O61 1.239 . S
C49 O62 1.263 . S
O50 Tb40 2.325 . S
O50 C60 1.236 . S
O51 Tb41 2.322 . S
O51 C60 1.257 . S
O52 Tb41 2.349 . S
O52 C63 1.261 . S
O53 Tb40 2.303 . S
O53 C63 1.257 . S
O54 Tb41 2.415 . S
O54 C70 1.239 . S
O55 Tb41 2.399 . S
O55 C70 1.263 . S
O56 Tb41 2.325 . S
O56 C71 1.236 . S
O57 Tb40 2.322 . S
O57 C71 1.257 . S
O58 Tb40 2.349 . S
O58 C42 1.261 . S
O59 Tb41 2.303 . S
O59 C42 1.257 . S
C60 O50 1.236 . S
C60 O51 1.257 . S
O61 Tb40 2.415 . S
O61 C49 1.239 . S
O62 Tb40 2.399 . S
O62 C49 1.263 . S
C63 O52 1.261 . S
C63 O53 1.257 . S
C64 C67 1.358 . S
C64 C68 1.332 . S
C64 C70 1.504 . S
C65 C66 1.373 . S
C65 C69 1.308 . S
C66 C65 1.373 . S
C66 C67 1.429 . S
C66 H76 0.932 . S
C67 C64 1.358 . S
C67 C66 1.429 . S
C67 H77 0.930 . S
C68 C64 1.332 . S
C68 C69 1.394 . S
C68 H78 0.932 . S
C69 C65 1.308 . S
C69 C68 1.394 . S
C69 H79 0.929 . S
C70 Tb41 2.764 . S
C70 O54 1.239 . S
C70 O55 1.263 . S
C70 C64 1.504 . S
C71 O56 1.236 . S
C71 O57 1.257 . S
H72 C45 0.932 . S
H73 C46 0.930 . S
H74 C47 0.932 . S
H75 C48 0.929 . S
H76 C66 0.932 . S
H77 C67 0.930 . S
H78 C68 0.932 . S
H79 C69 0.929 . S
Tb80 C89 2.764 . S
Tb80 O90 2.325 . S
Tb80 O93 2.303 . S
Tb80 O97 2.322 . S
Tb80 O98 2.349 . S
Tb80 O101 2.415 . S
Tb80 O102 2.399 . S
Tb81 O91 2.322 . S
Tb81 O92 2.349 . S
Tb81 O94 2.415 . S
Tb81 O95 2.399 . S
Tb81 O96 2.325 . S
Tb81 O99 2.303 . S
Tb81 C110 2.764 . S
C82 O98 1.261 . S
C82 O99 1.257 . S
C83 C86 1.358 . S
C83 C87 1.332 . S
C83 C89 1.504 . S
C84 C85 1.373 . S
C84 C88 1.308 . S
C85 C84 1.373 . S
C85 C86 1.429 . S
C85 H112 0.932 . S
C86 C83 1.358 . S
C86 C85 1.429 . S
C86 H113 0.930 . S
C87 C83 1.332 . S
C87 C88 1.394 . S
C87 H114 0.932 . S
C88 C84 1.308 . S
C88 C87 1.394 . S
C88 H115 0.929 . S
C89 Tb80 2.764 . S
C89 C83 1.504 . S
C89 O101 1.239 . S
C89 O102 1.263 . S
O90 Tb80 2.325 . S
O90 C100 1.236 . S
O91 Tb81 2.322 . S
O91 C100 1.257 . S
O92 Tb81 2.349 . S
O92 C103 1.261 . S
O93 Tb80 2.303 . S
O93 C103 1.257 . S
O94 Tb81 2.415 . S
O94 C110 1.239 . S
O95 Tb81 2.399 . S
O95 C110 1.263 . S
O96 Tb81 2.325 . S
O96 C111 1.236 . S
O97 Tb80 2.322 . S
O97 C111 1.257 . S
O98 Tb80 2.349 . S
O98 C82 1.261 . S
O99 Tb81 2.303 . S
O99 C82 1.257 . S
C100 O90 1.236 . S
C100 O91 1.257 . S
O101 Tb80 2.415 . S
O101 C89 1.239 . S
O102 Tb80 2.399 . S
O102 C89 1.263 . S
C103 O92 1.261 . S
C103 O93 1.257 . S
C104 C107 1.358 . S
C104 C108 1.332 . S
C104 C110 1.504 . S
C105 C106 1.373 . S
C105 C109 1.308 . S
C106 C105 1.373 . S
C106 C107 1.429 . S
C106 H116 0.932 . S
C107 C104 1.358 . S
C107 C106 1.429 . S
C107 H117 0.930 . S
C108 C104 1.332 . S
C108 C109 1.394 . S
C108 H118 0.932 . S
C109 C105 1.308 . S
C109 C108 1.394 . S
C109 H119 0.929 . S
C110 Tb81 2.764 . S
C110 O94 1.239 . S
C110 O95 1.263 . S
C110 C104 1.504 . S
C111 O96 1.236 . S
C111 O97 1.257 . S
H112 C85 0.932 . S
H113 C86 0.930 . S
H114 C87 0.932 . S
H115 C88 0.929 . S
H116 C106 0.932 . S
H117 C107 0.930 . S
H118 C108 0.932 . S
H119 C109 0.929 . S
Tb120 C129 2.764 1_556 S
Tb120 O130 2.325 . S
Tb120 O133 2.303 . S
Tb120 O137 2.322 . S
Tb120 O138 2.349 . S
Tb120 O141 2.415 1_556 S
Tb120 O142 2.399 1_556 S
Tb121 O131 2.322 . S
Tb121 O132 2.349 . S
Tb121 O134 2.415 . S
Tb121 O135 2.399 . S
Tb121 O136 2.325 . S
Tb121 O139 2.303 . S
Tb121 C150 2.764 . S
C122 O138 1.261 . S
C122 O139 1.257 . S
C123 C126 1.358 . S
C123 C127 1.332 . S
C123 C129 1.504 . S
C124 C125 1.373 . S
C124 C128 1.308 . S
C125 C124 1.373 . S
C125 C126 1.429 . S
C125 H152 0.932 . S
C126 C123 1.358 . S
C126 C125 1.429 . S
C126 H153 0.930 . S
C127 C123 1.332 . S
C127 C128 1.394 . S
C127 H154 0.932 . S
C128 C124 1.308 . S
C128 C127 1.394 . S
C128 H155 0.929 . S
C129 Tb120 2.764 1_554 S
C129 C123 1.504 . S
C129 O141 1.239 . S
C129 O142 1.263 . S
O130 Tb120 2.325 . S
O130 C140 1.236 . S
O131 Tb121 2.322 . S
O131 C140 1.257 . S
O132 Tb121 2.349 . S
O132 C143 1.261 . S
O133 Tb120 2.303 . S
O133 C143 1.257 . S
O134 Tb121 2.415 . S
O134 C150 1.239 . S
O135 Tb121 2.399 . S
O135 C150 1.263 . S
O136 Tb121 2.325 . S
O136 C151 1.236 . S
O137 Tb120 2.322 . S
O137 C151 1.257 . S
O138 Tb120 2.349 . S
O138 C122 1.261 . S
O139 Tb121 2.303 . S
O139 C122 1.257 . S
C140 O130 1.236 . S
C140 O131 1.257 . S
O141 Tb120 2.415 1_554 S
O141 C129 1.239 . S
O142 Tb120 2.399 1_554 S
O142 C129 1.263 . S
C143 O132 1.261 . S
C143 O133 1.257 . S
C144 C147 1.358 . S
C144 C148 1.332 . S
C144 C150 1.504 . S
C145 C146 1.373 . S
C145 C149 1.308 . S
C146 C145 1.373 . S
C146 C147 1.429 . S
C146 H156 0.932 . S
C147 C144 1.358 . S
C147 C146 1.429 . S
C147 H157 0.930 . S
C148 C144 1.332 . S
C148 C149 1.394 . S
C148 H158 0.932 . S
C149 C145 1.308 . S
C149 C148 1.394 . S
C149 H159 0.929 . S
C150 Tb121 2.764 . S
C150 O134 1.239 . S
C150 O135 1.263 . S
C150 C144 1.504 . S
C151 O136 1.236 . S
C151 O137 1.257 . S
H152 C125 0.932 . S
H153 C126 0.930 . S
H154 C127 0.932 . S
H155 C128 0.929 . S
H156 C146 0.932 . S
H157 C147 0.930 . S
H158 C148 0.932 . S
H159 C149 0.929 . S
Tb160 C169 2.764 . S
Tb160 O170 2.325 . S
Tb160 O173 2.303 . S
Tb160 O177 2.322 . S
Tb160 O178 2.349 . S
Tb160 O181 2.415 . S
Tb160 O182 2.399 . S
Tb161 O171 2.322 . S
Tb161 O172 2.349 . S
Tb161 O174 2.415 1_556 S
Tb161 O175 2.399 1_556 S
Tb161 O176 2.325 . S
Tb161 O179 2.303 . S
Tb161 C190 2.764 1_556 S
C162 O178 1.261 . S
C162 O179 1.257 . S
C163 C166 1.358 . S
C163 C167 1.332 . S
C163 C169 1.504 . S
C164 C165 1.373 . S
C164 C168 1.308 . S
C165 C164 1.373 . S
C165 C166 1.429 . S
C165 H192 0.932 . S
C166 C163 1.358 . S
C166 C165 1.429 . S
C166 H193 0.930 . S
C167 C163 1.332 . S
C167 C168 1.394 . S
C167 H194 0.932 . S
C168 C164 1.308 . S
C168 C167 1.394 . S
C168 H195 0.929 . S
C169 Tb160 2.764 . S
C169 C163 1.504 . S
C169 O181 1.239 . S
C169 O182 1.263 . S
O170 Tb160 2.325 . S
O170 C180 1.236 . S
O171 Tb161 2.322 . S
O171 C180 1.257 . S
O172 Tb161 2.349 . S
O172 C183 1.261 . S
O173 Tb160 2.303 . S
O173 C183 1.257 . S
O174 Tb161 2.415 1_554 S
O174 C190 1.239 . S
O175 Tb161 2.399 1_554 S
O175 C190 1.263 . S
O176 Tb161 2.325 . S
O176 C191 1.236 . S
O177 Tb160 2.322 . S
O177 C191 1.257 . S
O178 Tb160 2.349 . S
O178 C162 1.261 . S
O179 Tb161 2.303 . S
O179 C162 1.257 . S
C180 O170 1.236 . S
C180 O171 1.257 . S
O181 Tb160 2.415 . S
O181 C169 1.239 . S
O182 Tb160 2.399 . S
O182 C169 1.263 . S
C183 O172 1.261 . S
C183 O173 1.257 . S
C184 C187 1.358 . S
C184 C188 1.332 . S
C184 C190 1.504 . S
C185 C186 1.373 . S
C185 C189 1.308 . S
C186 C185 1.373 . S
C186 C187 1.429 . S
C186 H196 0.932 . S
C187 C184 1.358 . S
C187 C186 1.429 . S
C187 H197 0.930 . S
C188 C184 1.332 . S
C188 C189 1.394 . S
C188 H198 0.932 . S
C189 C185 1.308 . S
C189 C188 1.394 . S
C189 H199 0.929 . S
C190 Tb161 2.764 1_554 S
C190 O174 1.239 . S
C190 O175 1.263 . S
C190 C184 1.504 . S
C191 O176 1.236 . S
C191 O177 1.257 . S
H192 C165 0.932 . S
H193 C166 0.930 . S
H194 C167 0.932 . S
H195 C168 0.929 . S
H196 C186 0.932 . S
H197 C187 0.930 . S
H198 C188 0.932 . S
H199 C189 0.929 . S
Tb200 C209 2.764 . S
Tb200 O210 2.325 . S
Tb200 O213 2.303 . S
Tb200 O217 2.322 . S
Tb200 O218 2.349 . S
Tb200 O221 2.415 . S
Tb200 O222 2.399 . S
Tb201 O211 2.322 . S
Tb201 O212 2.349 . S
Tb201 O214 2.415 1_554 S
Tb201 O215 2.399 1_554 S
Tb201 O216 2.325 . S
Tb201 O219 2.303 . S
Tb201 C230 2.764 1_554 S
C202 O218 1.261 . S
C202 O219 1.257 . S
C203 C206 1.358 . S
C203 C207 1.332 . S
C203 C209 1.504 . S
C204 C205 1.373 . S
C204 C208 1.308 . S
C205 C204 1.373 . S
C205 C206 1.429 . S
C205 H232 0.932 . S
C206 C203 1.358 . S
C206 C205 1.429 . S
C206 H233 0.930 . S
C207 C203 1.332 . S
C207 C208 1.394 . S
C207 H234 0.932 . S
C208 C204 1.308 . S
C208 C207 1.394 . S
C208 H235 0.929 . S
C209 Tb200 2.764 . S
C209 C203 1.504 . S
C209 O221 1.239 . S
C209 O222 1.263 . S
O210 Tb200 2.325 . S
O210 C220 1.236 . S
O211 Tb201 2.322 . S
O211 C220 1.257 . S
O212 Tb201 2.349 . S
O212 C223 1.261 . S
O213 Tb200 2.303 . S
O213 C223 1.257 . S
O214 Tb201 2.415 1_556 S
O214 C230 1.239 . S
O215 Tb201 2.399 1_556 S
O215 C230 1.263 . S
O216 Tb201 2.325 . S
O216 C231 1.236 . S
O217 Tb200 2.322 . S
O217 C231 1.257 . S
O218 Tb200 2.349 . S
O218 C202 1.261 . S
O219 Tb201 2.303 . S
O219 C202 1.257 . S
C220 O210 1.236 . S
C220 O211 1.257 . S
O221 Tb200 2.415 . S
O221 C209 1.239 . S
O222 Tb200 2.399 . S
O222 C209 1.263 . S
C223 O212 1.261 . S
C223 O213 1.257 . S
C224 C227 1.358 . S
C224 C228 1.332 . S
C224 C230 1.504 . S
C225 C226 1.373 . S
C225 C229 1.308 . S
C226 C225 1.373 . S
C226 C227 1.429 . S
C226 H236 0.932 . S
C227 C224 1.358 . S
C227 C226 1.429 . S
C227 H237 0.930 . S
C228 C224 1.332 . S
C228 C229 1.394 . S
C228 H238 0.932 . S
C229 C225 1.308 . S
C229 C228 1.394 . S
C229 H239 0.929 . S
C230 Tb201 2.764 1_556 S
C230 O214 1.239 . S
C230 O215 1.263 . S
C230 C224 1.504 . S
C231 O216 1.236 . S
C231 O217 1.257 . S
H232 C205 0.932 . S
H233 C206 0.930 . S
H234 C207 0.932 . S
H235 C208 0.929 . S
H236 C226 0.932 . S
H237 C227 0.930 . S
H238 C228 0.932 . S
H239 C229 0.929 . S
Tb240 C249 2.764 . S
Tb240 O250 2.325 . S
Tb240 O253 2.303 . S
Tb240 O257 2.322 . S
Tb240 O258 2.349 . S
Tb240 O261 2.415 . S
Tb240 O262 2.399 . S
Tb241 O251 2.322 . S
Tb241 O252 2.349 . S
Tb241 O254 2.415 . S
Tb241 O255 2.399 . S
Tb241 O256 2.325 . S
Tb241 O259 2.303 . S
Tb241 C270 2.764 . S
C242 O258 1.261 . S
C242 O259 1.257 . S
C243 C246 1.358 . S
C243 C247 1.332 . S
C243 C249 1.504 . S
C244 C245 1.373 . S
C244 C248 1.308 . S
C245 C244 1.373 . S
C245 C246 1.429 . S
C245 H272 0.932 . S
C246 C243 1.358 . S
C246 C245 1.429 . S
C246 H273 0.930 . S
C247 C243 1.332 . S
C247 C248 1.394 . S
C247 H274 0.932 . S
C248 C244 1.308 . S
C248 C247 1.394 . S
C248 H275 0.929 . S
C249 Tb240 2.764 . S
C249 C243 1.504 . S
C249 O261 1.239 . S
C249 O262 1.263 . S
O250 Tb240 2.325 . S
O250 C260 1.236 . S
O251 Tb241 2.322 . S
O251 C260 1.257 . S
O252 Tb241 2.349 . S
O252 C263 1.261 . S
O253 Tb240 2.303 . S
O253 C263 1.257 . S
O254 Tb241 2.415 . S
O254 C270 1.239 . S
O255 Tb241 2.399 . S
O255 C270 1.263 . S
O256 Tb241 2.325 . S
O256 C271 1.236 . S
O257 Tb240 2.322 . S
O257 C271 1.257 . S
O258 Tb240 2.349 . S
O258 C242 1.261 . S
O259 Tb241 2.303 . S
O259 C242 1.257 . S
C260 O250 1.236 . S
C260 O251 1.257 . S
O261 Tb240 2.415 . S
O261 C249 1.239 . S
O262 Tb240 2.399 . S
O262 C249 1.263 . S
C263 O252 1.261 . S
C263 O253 1.257 . S
C264 C267 1.358 . S
C264 C268 1.332 . S
C264 C270 1.504 . S
C265 C266 1.373 . S
C265 C269 1.308 . S
C266 C265 1.373 . S
C266 C267 1.429 . S
C266 H276 0.932 . S
C267 C264 1.358 . S
C267 C266 1.429 . S
C267 H277 0.930 . S
C268 C264 1.332 . S
C268 C269 1.394 . S
C268 H278 0.932 . S
C269 C265 1.308 . S
C269 C268 1.394 . S
C269 H279 0.929 . S
C270 Tb241 2.764 . S
C270 O254 1.239 . S
C270 O255 1.263 . S
C270 C264 1.504 . S
C271 O256 1.236 . S
C271 O257 1.257 . S
H272 C245 0.932 . S
H273 C246 0.930 . S
H274 C247 0.932 . S
H275 C248 0.929 . S
H276 C266 0.932 . S
H277 C267 0.930 . S
H278 C268 0.932 . S
H279 C269 0.929 . S
Tb280 C289 2.764 . S
Tb280 O290 2.325 . S
Tb280 O293 2.303 . S
Tb280 O297 2.322 . S
Tb280 O298 2.349 . S
Tb280 O301 2.415 . S
Tb280 O302 2.399 . S
Tb281 O291 2.322 . S
Tb281 O292 2.349 . S
Tb281 O294 2.415 . S
Tb281 O295 2.399 . S
Tb281 O296 2.325 . S
Tb281 O299 2.303 . S
Tb281 C310 2.764 . S
C282 O298 1.261 . S
C282 O299 1.257 . S
C283 C286 1.358 . S
C283 C287 1.332 . S
C283 C289 1.504 . S
C284 C285 1.373 . S
C284 C288 1.308 . S
C285 C284 1.373 . S
C285 C286 1.429 . S
C285 H312 0.932 . S
C286 C283 1.358 . S
C286 C285 1.429 . S
C286 H313 0.930 . S
C287 C283 1.332 . S
C287 C288 1.394 . S
C287 H314 0.932 . S
C288 C284 1.308 . S
C288 C287 1.394 . S
C288 H315 0.929 . S
C289 Tb280 2.764 . S
C289 C283 1.504 . S
C289 O301 1.239 . S
C289 O302 1.263 . S
O290 Tb280 2.325 . S
O290 C300 1.236 . S
O291 Tb281 2.322 . S
O291 C300 1.257 . S
O292 Tb281 2.349 . S
O292 C303 1.261 . S
O293 Tb280 2.303 . S
O293 C303 1.257 . S
O294 Tb281 2.415 . S
O294 C310 1.239 . S
O295 Tb281 2.399 . S
O295 C310 1.263 . S
O296 Tb281 2.325 . S
O296 C311 1.236 . S
O297 Tb280 2.322 . S
O297 C311 1.257 . S
O298 Tb280 2.349 . S
O298 C282 1.261 . S
O299 Tb281 2.303 . S
O299 C282 1.257 . S
C300 O290 1.236 . S
C300 O291 1.257 . S
O301 Tb280 2.415 . S
O301 C289 1.239 . S
O302 Tb280 2.399 . S
O302 C289 1.263 . S
C303 O292 1.261 . S
C303 O293 1.257 . S
C304 C307 1.358 . S
C304 C308 1.332 . S
C304 C310 1.504 . S
C305 C306 1.373 . S
C305 C309 1.308 . S
C306 C305 1.373 . S
C306 C307 1.429 . S
C306 H316 0.932 . S
C307 C304 1.358 . S
C307 C306 1.429 . S
C307 H317 0.930 . S
C308 C304 1.332 . S
C308 C309 1.394 . S
C308 H318 0.932 . S
C309 C305 1.308 . S
C309 C308 1.394 . S
C309 H319 0.929 . S
C310 Tb281 2.764 . S
C310 O294 1.239 . S
C310 O295 1.263 . S
C310 C304 1.504 . S
C311 O296 1.236 . S
C311 O297 1.257 . S
H312 C285 0.932 . S
H313 C286 0.930 . S
H314 C287 0.932 . S
H315 C288 0.929 . S
H316 C306 0.932 . S
H317 C307 0.930 . S
H318 C308 0.932 . S
H319 C309 0.929 . S
Tb320 C329 2.764 1_556 S
Tb320 O330 2.325 . S
Tb320 O333 2.303 . S
Tb320 O337 2.322 . S
Tb320 O338 2.349 . S
Tb320 O341 2.415 1_556 S
Tb320 O342 2.399 1_556 S
Tb321 O331 2.322 . S
Tb321 O332 2.349 . S
Tb321 O334 2.415 . S
Tb321 O335 2.399 . S
Tb321 O336 2.325 . S
Tb321 O339 2.303 . S
Tb321 C350 2.764 . S
C322 O338 1.261 . S
C322 O339 1.257 . S
C323 C326 1.358 . S
C323 C327 1.332 . S
C323 C329 1.504 . S
C324 C325 1.373 . S
C324 C328 1.308 . S
C325 C324 1.373 . S
C325 C326 1.429 . S
C325 H352 0.932 . S
C326 C323 1.358 . S
C326 C325 1.429 . S
C326 H353 0.930 . S
C327 C323 1.332 . S
C327 C328 1.394 . S
C327 H354 0.932 . S
C328 C324 1.308 . S
C328 C327 1.394 . S
C328 H355 0.929 . S
C329 Tb320 2.764 1_554 S
C329 C323 1.504 . S
C329 O341 1.239 . S
C329 O342 1.263 . S
O330 Tb320 2.325 . S
O330 C340 1.236 . S
O331 Tb321 2.322 . S
O331 C340 1.257 . S
O332 Tb321 2.349 . S
O332 C343 1.261 . S
O333 Tb320 2.303 . S
O333 C343 1.257 . S
O334 Tb321 2.415 . S
O334 C350 1.239 . S
O335 Tb321 2.399 . S
O335 C350 1.263 . S
O336 Tb321 2.325 . S
O336 C351 1.236 . S
O337 Tb320 2.322 . S
O337 C351 1.257 . S
O338 Tb320 2.349 . S
O338 C322 1.261 . S
O339 Tb321 2.303 . S
O339 C322 1.257 . S
C340 O330 1.236 . S
C340 O331 1.257 . S
O341 Tb320 2.415 1_554 S
O341 C329 1.239 . S
O342 Tb320 2.399 1_554 S
O342 C329 1.263 . S
C343 O332 1.261 . S
C343 O333 1.257 . S
C344 C347 1.358 . S
C344 C348 1.332 . S
C344 C350 1.504 . S
C345 C346 1.373 . S
C345 C349 1.308 . S
C346 C345 1.373 . S
C346 C347 1.429 . S
C346 H356 0.932 . S
C347 C344 1.358 . S
C347 C346 1.429 . S
C347 H357 0.930 . S
C348 C344 1.332 . S
C348 C349 1.394 . S
C348 H358 0.932 . S
C349 C345 1.308 . S
C349 C348 1.394 . S
C349 H359 0.929 . S
C350 Tb321 2.764 . S
C350 O334 1.239 . S
C350 O335 1.263 . S
C350 C344 1.504 . S
C351 O336 1.236 . S
C351 O337 1.257 . S
H352 C325 0.932 . S
H353 C326 0.930 . S
H354 C327 0.932 . S
H355 C328 0.929 . S
H356 C346 0.932 . S
H357 C347 0.930 . S
H358 C348 0.932 . S
H359 C349 0.929 . S
Tb360 C369 2.764 . S
Tb360 O370 2.325 . S
Tb360 O373 2.303 . S
Tb360 O377 2.322 . S
Tb360 O378 2.349 . S
Tb360 O381 2.415 . S
Tb360 O382 2.399 . S
Tb361 O371 2.322 . S
Tb361 O372 2.349 . S
Tb361 O374 2.415 . S
Tb361 O375 2.399 . S
Tb361 O376 2.325 . S
Tb361 O379 2.303 . S
Tb361 C390 2.764 . S
C362 O378 1.261 . S
C362 O379 1.257 . S
C363 C366 1.358 . S
C363 C367 1.332 . S
C363 C369 1.504 . S
C364 C365 1.373 . S
C364 C368 1.308 . S
C365 C364 1.373 . S
C365 C366 1.429 . S
C365 H392 0.932 . S
C366 C363 1.358 . S
C366 C365 1.429 . S
C366 H393 0.930 . S
C367 C363 1.332 . S
C367 C368 1.394 . S
C367 H394 0.932 . S
C368 C364 1.308 . S
C368 C367 1.394 . S
C368 H395 0.929 . S
C369 Tb360 2.764 . S
C369 C363 1.504 . S
C369 O381 1.239 . S
C369 O382 1.263 . S
O370 Tb360 2.325 . S
O370 C380 1.236 . S
O371 Tb361 2.322 . S
O371 C380 1.257 . S
O372 Tb361 2.349 . S
O372 C383 1.261 . S
O373 Tb360 2.303 . S
O373 C383 1.257 . S
O374 Tb361 2.415 . S
O374 C390 1.239 . S
O375 Tb361 2.399 . S
O375 C390 1.263 . S
O376 Tb361 2.325 . S
O376 C391 1.236 . S
O377 Tb360 2.322 . S
O377 C391 1.257 . S
O378 Tb360 2.349 . S
O378 C362 1.261 . S
O379 Tb361 2.303 . S
O379 C362 1.257 . S
C380 O370 1.236 . S
C380 O371 1.257 . S
O381 Tb360 2.415 . S
O381 C369 1.239 . S
O382 Tb360 2.399 . S
O382 C369 1.263 . S
C383 O372 1.261 . S
C383 O373 1.257 . S
C384 C387 1.358 . S
C384 C388 1.332 . S
C384 C390 1.504 . S
C385 C386 1.373 . S
C385 C389 1.308 . S
C386 C385 1.373 . S
C386 C387 1.429 . S
C386 H396 0.932 . S
C387 C384 1.358 . S
C387 C386 1.429 . S
C387 H397 0.930 . S
C388 C384 1.332 . S
C388 C389 1.394 . S
C388 H398 0.932 . S
C389 C385 1.308 . S
C389 C388 1.394 . S
C389 H399 0.929 . S
C390 Tb361 2.764 . S
C390 O374 1.239 . S
C390 O375 1.263 . S
C390 C384 1.504 . S
C391 O376 1.236 . S
C391 O377 1.257 . S
H392 C365 0.932 . S
H393 C366 0.930 . S
H394 C367 0.932 . S
H395 C368 0.929 . S
H396 C386 0.932 . S
H397 C387 0.930 . S
H398 C388 0.932 . S
H399 C389 0.929 . S
Tb400 C409 2.764 . S
Tb400 O410 2.325 . S
Tb400 O413 2.303 . S
Tb400 O417 2.322 . S
Tb400 O418 2.349 . S
Tb400 O421 2.415 . S
Tb400 O422 2.399 . S
Tb401 O411 2.322 . S
Tb401 O412 2.349 . S
Tb401 O414 2.415 . S
Tb401 O415 2.399 . S
Tb401 O416 2.325 . S
Tb401 O419 2.303 . S
Tb401 C430 2.764 . S
C402 O418 1.261 . S
C402 O419 1.257 . S
C403 C406 1.358 . S
C403 C407 1.332 . S
C403 C409 1.504 . S
C404 C405 1.373 . S
C404 C408 1.308 . S
C405 C404 1.373 . S
C405 C406 1.429 . S
C405 H432 0.932 . S
C406 C403 1.358 . S
C406 C405 1.429 . S
C406 H433 0.930 . S
C407 C403 1.332 . S
C407 C408 1.394 . S
C407 H434 0.932 . S
C408 C404 1.308 . S
C408 C407 1.394 . S
C408 H435 0.929 . S
C409 Tb400 2.764 . S
C409 C403 1.504 . S
C409 O421 1.239 . S
C409 O422 1.263 . S
O410 Tb400 2.325 . S
O410 C420 1.236 . S
O411 Tb401 2.322 . S
O411 C420 1.257 . S
O412 Tb401 2.349 . S
O412 C423 1.261 . S
O413 Tb400 2.303 . S
O413 C423 1.257 . S
O414 Tb401 2.415 . S
O414 C430 1.239 . S
O415 Tb401 2.399 . S
O415 C430 1.263 . S
O416 Tb401 2.325 . S
O416 C431 1.236 . S
O417 Tb400 2.322 . S
O417 C431 1.257 . S
O418 Tb400 2.349 . S
O418 C402 1.261 . S
O419 Tb401 2.303 . S
O419 C402 1.257 . S
C420 O410 1.236 . S
C420 O411 1.257 . S
O421 Tb400 2.415 . S
O421 C409 1.239 . S
O422 Tb400 2.399 . S
O422 C409 1.263 . S
C423 O412 1.261 . S
C423 O413 1.257 . S
C424 C427 1.358 . S
C424 C428 1.332 . S
C424 C430 1.504 . S
C425 C426 1.373 . S
C425 C429 1.308 . S
C426 C425 1.373 . S
C426 C427 1.429 . S
C426 H436 0.932 . S
C427 C424 1.358 . S
C427 C426 1.429 . S
C427 H437 0.930 . S
C428 C424 1.332 . S
C428 C429 1.394 . S
C428 H438 0.932 . S
C429 C425 1.308 . S
C429 C428 1.394 . S
C429 H439 0.929 . S
C430 Tb401 2.764 . S
C430 O414 1.239 . S
C430 O415 1.263 . S
C430 C424 1.504 . S
C431 O416 1.236 . S
C431 O417 1.257 . S
H432 C405 0.932 . S
H433 C406 0.930 . S
H434 C407 0.932 . S
H435 C408 0.929 . S
H436 C426 0.932 . S
H437 C427 0.930 . S
H438 C428 0.932 . S
H439 C429 0.929 . S
Tb440 C449 2.764 . S
Tb440 O450 2.325 . S
Tb440 O453 2.303 . S
Tb440 O457 2.322 . S
Tb440 O458 2.349 . S
Tb440 O461 2.415 . S
Tb440 O462 2.399 . S
Tb441 O451 2.322 . S
Tb441 O452 2.349 . S
Tb441 O454 2.415 1_554 S
Tb441 O455 2.399 1_554 S
Tb441 O456 2.325 . S
Tb441 O459 2.303 . S
Tb441 C470 2.764 1_554 S
C442 O458 1.261 . S
C442 O459 1.257 . S
C443 C446 1.358 . S
C443 C447 1.332 . S
C443 C449 1.504 . S
C444 C445 1.373 . S
C444 C448 1.308 . S
C445 C444 1.373 . S
C445 C446 1.429 . S
C445 H472 0.932 . S
C446 C443 1.358 . S
C446 C445 1.429 . S
C446 H473 0.930 . S
C447 C443 1.332 . S
C447 C448 1.394 . S
C447 H474 0.932 . S
C448 C444 1.308 . S
C448 C447 1.394 . S
C448 H475 0.929 . S
C449 Tb440 2.764 . S
C449 C443 1.504 . S
C449 O461 1.239 . S
C449 O462 1.263 . S
O450 Tb440 2.325 . S
O450 C460 1.236 . S
O451 Tb441 2.322 . S
O451 C460 1.257 . S
O452 Tb441 2.349 . S
O452 C463 1.261 . S
O453 Tb440 2.303 . S
O453 C463 1.257 . S
O454 Tb441 2.415 1_556 S
O454 C470 1.239 . S
O455 Tb441 2.399 1_556 S
O455 C470 1.263 . S
O456 Tb441 2.325 . S
O456 C471 1.236 . S
O457 Tb440 2.322 . S
O457 C471 1.257 . S
O458 Tb440 2.349 . S
O458 C442 1.261 . S
O459 Tb441 2.303 . S
O459 C442 1.257 . S
C460 O450 1.236 . S
C460 O451 1.257 . S
O461 Tb440 2.415 . S
O461 C449 1.239 . S
O462 Tb440 2.399 . S
O462 C449 1.263 . S
C463 O452 1.261 . S
C463 O453 1.257 . S
C464 C467 1.358 . S
C464 C468 1.332 . S
C464 C470 1.504 . S
C465 C466 1.373 . S
C465 C469 1.308 . S
C466 C465 1.373 . S
C466 C467 1.429 . S
C466 H476 0.932 . S
C467 C464 1.358 . S
C467 C466 1.429 . S
C467 H477 0.930 . S
C468 C464 1.332 . S
C468 C469 1.394 . S
C468 H478 0.932 . S
C469 C465 1.308 . S
C469 C468 1.394 . S
C469 H479 0.929 . S
C470 Tb441 2.764 1_556 S
C470 O454 1.239 . S
C470 O455 1.263 . S
C470 C464 1.504 . S
C471 O456 1.236 . S
C471 O457 1.257 . S
H472 C445 0.932 . S
H473 C446 0.930 . S
H474 C447 0.932 . S
H475 C448 0.929 . S
H476 C466 0.932 . S
H477 C467 0.930 . S
H478 C468 0.932 . S
H479 C469 0.929 . S
Tb480 C489 2.764 1_554 S
Tb480 O490 2.325 . S
Tb480 O493 2.303 . S
Tb480 O497 2.322 . S
Tb480 O498 2.349 . S
Tb480 O501 2.415 1_554 S
Tb480 O502 2.399 1_554 S
Tb481 O491 2.322 . S
Tb481 O492 2.349 . S
Tb481 O494 2.415 . S
Tb481 O495 2.399 . S
Tb481 O496 2.325 . S
Tb481 O499 2.303 . S
Tb481 C510 2.764 . S
C482 O498 1.261 . S
C482 O499 1.257 . S
C483 C486 1.358 . S
C483 C487 1.332 . S
C483 C489 1.504 . S
C484 C485 1.373 . S
C484 C488 1.308 . S
C485 C484 1.373 . S
C485 C486 1.429 . S
C485 H512 0.932 . S
C486 C483 1.358 . S
C486 C485 1.429 . S
C486 H513 0.930 . S
C487 C483 1.332 . S
C487 C488 1.394 . S
C487 H514 0.932 . S
C488 C484 1.308 . S
C488 C487 1.394 . S
C488 H515 0.929 . S
C489 Tb480 2.764 1_556 S
C489 C483 1.504 . S
C489 O501 1.239 . S
C489 O502 1.263 . S
O490 Tb480 2.325 . S
O490 C500 1.236 . S
O491 Tb481 2.322 . S
O491 C500 1.257 . S
O492 Tb481 2.349 . S
O492 C503 1.261 . S
O493 Tb480 2.303 . S
O493 C503 1.257 . S
O494 Tb481 2.415 . S
O494 C510 1.239 . S
O495 Tb481 2.399 . S
O495 C510 1.263 . S
O496 Tb481 2.325 . S
O496 C511 1.236 . S
O497 Tb480 2.322 . S
O497 C511 1.257 . S
O498 Tb480 2.349 . S
O498 C482 1.261 . S
O499 Tb481 2.303 . S
O499 C482 1.257 . S
C500 O490 1.236 . S
C500 O491 1.257 . S
O501 Tb480 2.415 1_556 S
O501 C489 1.239 . S
O502 Tb480 2.399 1_556 S
O502 C489 1.263 . S
C503 O492 1.261 . S
C503 O493 1.257 . S
C504 C507 1.358 . S
C504 C508 1.332 . S
C504 C510 1.504 . S
C505 C506 1.373 . S
C505 C509 1.308 . S
C506 C505 1.373 . S
C506 C507 1.429 . S
C506 H516 0.932 . S
C507 C504 1.358 . S
C507 C506 1.429 . S
C507 H517 0.930 . S
C508 C504 1.332 . S
C508 C509 1.394 . S
C508 H518 0.932 . S
C509 C505 1.308 . S
C509 C508 1.394 . S
C509 H519 0.929 . S
C510 Tb481 2.764 . S
C510 O494 1.239 . S
C510 O495 1.263 . S
C510 C504 1.504 . S
C511 O496 1.236 . S
C511 O497 1.257 . S
H512 C485 0.932 . S
H513 C486 0.930 . S
H514 C487 0.932 . S
H515 C488 0.929 . S
H516 C506 0.932 . S
H517 C507 0.930 . S
H518 C508 0.932 . S
H519 C509 0.929 . S
Tb520 C529 2.764 1_556 S
Tb520 O530 2.325 . S
Tb520 O533 2.303 . S
Tb520 O537 2.322 . S
Tb520 O538 2.349 . S
Tb520 O541 2.415 1_556 S
Tb520 O542 2.399 1_556 S
Tb521 O531 2.322 . S
Tb521 O532 2.349 . S
Tb521 O534 2.415 . S
Tb521 O535 2.399 . S
Tb521 O536 2.325 . S
Tb521 O539 2.303 . S
Tb521 C550 2.764 . S
C522 O538 1.261 . S
C522 O539 1.257 . S
C523 C526 1.358 . S
C523 C527 1.332 . S
C523 C529 1.504 . S
C524 C525 1.373 . S
C524 C528 1.308 . S
C525 C524 1.373 . S
C525 C526 1.429 . S
C525 H552 0.932 . S
C526 C523 1.358 . S
C526 C525 1.429 . S
C526 H553 0.930 . S
C527 C523 1.332 . S
C527 C528 1.394 . S
C527 H554 0.932 . S
C528 C524 1.308 . S
C528 C527 1.394 . S
C528 H555 0.929 . S
C529 Tb520 2.764 1_554 S
C529 C523 1.504 . S
C529 O541 1.239 . S
C529 O542 1.263 . S
O530 Tb520 2.325 . S
O530 C540 1.236 . S
O531 Tb521 2.322 . S
O531 C540 1.257 . S
O532 Tb521 2.349 . S
O532 C543 1.261 . S
O533 Tb520 2.303 . S
O533 C543 1.257 . S
O534 Tb521 2.415 . S
O534 C550 1.239 . S
O535 Tb521 2.399 . S
O535 C550 1.263 . S
O536 Tb521 2.325 . S
O536 C551 1.236 . S
O537 Tb520 2.322 . S
O537 C551 1.257 . S
O538 Tb520 2.349 . S
O538 C522 1.261 . S
O539 Tb521 2.303 . S
O539 C522 1.257 . S
C540 O530 1.236 . S
C540 O531 1.257 . S
O541 Tb520 2.415 1_554 S
O541 C529 1.239 . S
O542 Tb520 2.399 1_554 S
O542 C529 1.263 . S
C543 O532 1.261 . S
C543 O533 1.257 . S
C544 C547 1.358 . S
C544 C548 1.332 . S
C544 C550 1.504 . S
C545 C546 1.373 . S
C545 C549 1.308 . S
C546 C545 1.373 . S
C546 C547 1.429 . S
C546 H556 0.932 . S
C547 C544 1.358 . S
C547 C546 1.429 . S
C547 H557 0.930 . S
C548 C544 1.332 . S
C548 C549 1.394 . S
C548 H558 0.932 . S
C549 C545 1.308 . S
C549 C548 1.394 . S
C549 H559 0.929 . S
C550 Tb521 2.764 . S
C550 O534 1.239 . S
C550 O535 1.263 . S
C550 C544 1.504 . S
C551 O536 1.236 . S
C551 O537 1.257 . S
H552 C525 0.932 . S
H553 C526 0.930 . S
H554 C527 0.932 . S
H555 C528 0.929 . S
H556 C546 0.932 . S
H557 C547 0.930 . S
H558 C548 0.932 . S
H559 C549 0.929 . S
Tb560 C569 2.764 . S
Tb560 O570 2.325 . S
Tb560 O573 2.303 . S
Tb560 O577 2.322 . S
Tb560 O578 2.349 . S
Tb560 O581 2.415 . S
Tb560 O582 2.399 . S
Tb561 O571 2.322 . S
Tb561 O572 2.349 . S
Tb561 O574 2.415 . S
Tb561 O575 2.399 . S
Tb561 O576 2.325 . S
Tb561 O579 2.303 . S
Tb561 C590 2.764 . S
C562 O578 1.261 . S
C562 O579 1.257 . S
C563 C566 1.358 . S
C563 C567 1.332 . S
C563 C569 1.504 . S
C564 C565 1.373 . S
C564 C568 1.308 . S
C565 C564 1.373 . S
C565 C566 1.429 . S
C565 H592 0.932 . S
C566 C563 1.358 . S
C566 C565 1.429 . S
C566 H593 0.930 . S
C567 C563 1.332 . S
C567 C568 1.394 . S
C567 H594 0.932 . S
C568 C564 1.308 . S
C568 C567 1.394 . S
C568 H595 0.929 . S
C569 Tb560 2.764 . S
C569 C563 1.504 . S
C569 O581 1.239 . S
C569 O582 1.263 . S
O570 Tb560 2.325 . S
O570 C580 1.236 . S
O571 Tb561 2.322 . S
O571 C580 1.257 . S
O572 Tb561 2.349 . S
O572 C583 1.261 . S
O573 Tb560 2.303 . S
O573 C583 1.257 . S
O574 Tb561 2.415 . S
O574 C590 1.239 . S
O575 Tb561 2.399 . S
O575 C590 1.263 . S
O576 Tb561 2.325 . S
O576 C591 1.236 . S
O577 Tb560 2.322 . S
O577 C591 1.257 . S
O578 Tb560 2.349 . S
O578 C562 1.261 . S
O579 Tb561 2.303 . S
O579 C562 1.257 . S
C580 O570 1.236 . S
C580 O571 1.257 . S
O581 Tb560 2.415 . S
O581 C569 1.239 . S
O582 Tb560 2.399 . S
O582 C569 1.263 . S
C583 O572 1.261 . S
C583 O573 1.257 . S
C584 C587 1.358 . S
C584 C588 1.332 . S
C584 C590 1.504 . S
C585 C586 1.373 . S
C585 C589 1.308 . S
C586 C585 1.373 . S
C586 C587 1.429 . S
C586 H596 0.932 . S
C587 C584 1.358 . S
C587 C586 1.429 . S
C587 H597 0.930 . S
C588 C584 1.332 . S
C588 C589 1.394 . S
C588 H598 0.932 . S
C589 C585 1.308 . S
C589 C588 1.394 . S
C589 H599 0.929 . S
C590 Tb561 2.764 . S
C590 O574 1.239 . S
C590 O575 1.263 . S
C590 C584 1.504 . S
C591 O576 1.236 . S
C591 O577 1.257 . S
H592 C565 0.932 . S
H593 C566 0.930 . S
H594 C567 0.932 . S
H595 C568 0.929 . S
H596 C586 0.932 . S
H597 C587 0.930 . S
H598 C588 0.932 . S
H599 C589 0.929 . S
Tb600 C609 2.764 . S
Tb600 O610 2.325 . S
Tb600 O613 2.303 . S
Tb600 O617 2.322 . S
Tb600 O618 2.349 . S
Tb600 O621 2.415 . S
Tb600 O622 2.399 . S
Tb601 O611 2.322 . S
Tb601 O612 2.349 . S
Tb601 O614 2.415 . S
Tb601 O615 2.399 . S
Tb601 O616 2.325 . S
Tb601 O619 2.303 . S
Tb601 C630 2.764 . S
C602 O618 1.261 . S
C602 O619 1.257 . S
C603 C606 1.358 . S
C603 C607 1.332 . S
C603 C609 1.504 . S
C604 C605 1.373 . S
C604 C608 1.308 . S
C605 C604 1.373 . S
C605 C606 1.429 . S
C605 H632 0.932 . S
C606 C603 1.358 . S
C606 C605 1.429 . S
C606 H633 0.930 . S
C607 C603 1.332 . S
C607 C608 1.394 . S
C607 H634 0.932 . S
C608 C604 1.308 . S
C608 C607 1.394 . S
C608 H635 0.929 . S
C609 Tb600 2.764 . S
C609 C603 1.504 . S
C609 O621 1.239 . S
C609 O622 1.263 . S
O610 Tb600 2.325 . S
O610 C620 1.236 . S
O611 Tb601 2.322 . S
O611 C620 1.257 . S
O612 Tb601 2.349 . S
O612 C623 1.261 . S
O613 Tb600 2.303 . S
O613 C623 1.257 . S
O614 Tb601 2.415 . S
O614 C630 1.239 . S
O615 Tb601 2.399 . S
O615 C630 1.263 . S
O616 Tb601 2.325 . S
O616 C631 1.236 . S
O617 Tb600 2.322 . S
O617 C631 1.257 . S
O618 Tb600 2.349 . S
O618 C602 1.261 . S
O619 Tb601 2.303 . S
O619 C602 1.257 . S
C620 O610 1.236 . S
C620 O611 1.257 . S
O621 Tb600 2.415 . S
O621 C609 1.239 . S
O622 Tb600 2.399 . S
O622 C609 1.263 . S
C623 O612 1.261 . S
C623 O613 1.257 . S
C624 C627 1.358 . S
C624 C628 1.332 . S
C624 C630 1.504 . S
C625 C626 1.373 . S
C625 C629 1.308 . S
C626 C625 1.373 . S
C626 C627 1.429 . S
C626 H636 0.932 . S
C627 C624 1.358 . S
C627 C626 1.429 . S
C627 H637 0.930 . S
C628 C624 1.332 . S
C628 C629 1.394 . S
C628 H638 0.932 . S
C629 C625 1.308 . S
C629 C628 1.394 . S
C629 H639 0.929 . S
C630 Tb601 2.764 . S
C630 O614 1.239 . S
C630 O615 1.263 . S
C630 C624 1.504 . S
C631 O616 1.236 . S
C631 O617 1.257 . S
H632 C605 0.932 . S
H633 C606 0.930 . S
H634 C607 0.932 . S
H635 C608 0.929 . S
H636 C626 0.932 . S
H637 C627 0.930 . S
H638 C628 0.932 . S
H639 C629 0.929 . S
H640 C648 0.950 . S
H641 C653 0.950 . S
H642 C650 0.950 . S
H643 C652 0.950 . S
H644 C654 0.950 . S
H645 C656 0.950 . S
H646 C658 0.950 . S
H647 C659 0.950 . S
C648 H640 0.950 . S
C648 C649 1.386 . S
C648 C650 1.391 . S
C649 C648 1.386 . S
C649 C653 1.393 . S
C650 H642 0.950 . S
C650 C648 1.391 . S
C650 C651 1.400 . S
C651 C650 1.400 . S
C651 C652 1.398 . S
C651 C657 1.491 . S
C652 H643 0.950 . S
C652 C651 1.398 . S
C652 C653 1.391 . S
C653 H641 0.950 . S
C653 C649 1.393 . S
C653 C652 1.391 . S
C654 H644 0.950 . S
C654 C655 1.386 . S
C654 C656 1.391 . S
C655 C654 1.386 . S
C655 C659 1.393 . S
C656 H645 0.950 . S
C656 C654 1.391 . S
C656 C657 1.400 . S
C657 C651 1.491 . S
C657 C656 1.400 . S
C657 C658 1.398 . S
C658 H646 0.950 . S
C658 C657 1.398 . S
C658 C659 1.391 . S
C659 H647 0.950 . S
C659 C655 1.393 . S
C659 C658 1.391 . S
H660 C668 0.950 . S
H661 C673 0.945 1_554 S
H662 C670 0.950 . S
H663 C672 0.950 . S
H664 C674 0.950 . S
H665 C676 0.950 . S
H666 C678 0.950 . S
H667 C679 0.950 . S
C668 H660 0.950 . S
C668 C669 1.386 . S
C668 C670 1.391 1_554 S
C669 C668 1.386 . S
C669 C673 1.389 1_554 S
C670 H662 0.950 . S
C670 C668 1.391 1_556 S
C670 C671 1.400 . S
C671 C670 1.400 . S
C671 C672 1.398 . S
C671 C677 1.491 . S
C672 H663 0.950 . S
C672 C671 1.398 . S
C672 C673 1.399 . S
C673 H661 0.945 1_556 S
C673 C669 1.389 1_556 S
C673 C672 1.399 . S
C674 H664 0.950 . S
C674 C675 1.386 . S
C674 C676 1.391 . S
C675 C674 1.386 . S
C675 C679 1.393 . S
C676 H665 0.950 . S
C676 C674 1.391 . S
C676 C677 1.400 . S
C677 C671 1.491 . S
C677 C676 1.400 . S
C677 C678 1.398 . S
C678 H666 0.950 . S
C678 C677 1.398 . S
C678 C679 1.391 . S
C679 H667 0.950 . S
C679 C675 1.393 . S
C679 C678 1.391 . S
H680 C688 0.950 . S
H681 C693 0.950 . S
H682 C690 0.950 . S
H683 C692 0.950 . S
H684 C694 0.950 . S
H685 C696 0.950 . S
H686 C698 0.950 . S
H687 C699 0.950 1_556 S
C688 H680 0.950 . S
C688 C689 1.386 . S
C688 C690 1.391 . S
C689 C688 1.386 . S
C689 C693 1.393 . S
C690 H682 0.950 . S
C690 C688 1.391 . S
C690 C691 1.400 . S
C691 C690 1.400 . S
C691 C692 1.398 . S
C691 C697 1.491 . S
C692 H683 0.950 . S
C692 C691 1.398 . S
C692 C693 1.391 . S
C693 H681 0.950 . S
C693 C689 1.393 . S
C693 C692 1.391 . S
C694 H684 0.950 . S
C694 C695 1.386 1_554 S
C694 C696 1.391 . S
C695 C694 1.386 1_556 S
C695 C699 1.393 1_556 S
C696 H685 0.950 . S
C696 C694 1.391 . S
C696 C697 1.400 . S
C697 C691 1.491 . S
C697 C696 1.400 . S
C697 C698 1.398 . S
C698 H686 0.950 . S
C698 C697 1.398 . S
C698 C699 1.391 . S
C699 H687 0.950 1_554 S
C699 C695 1.393 1_554 S
C699 C698 1.391 . S
H700 C708 0.950 . S
H701 C713 0.950 . S
H702 C710 0.950 . S
H703 C712 0.950 . S
H704 C714 0.950 . S
H705 C716 0.950 . S
H706 C718 0.950 . S
H707 C719 0.950 . S
C708 H700 0.950 . S
C708 C709 1.386 . S
C708 C710 1.391 . S
C709 C708 1.386 . S
C709 C713 1.393 . S
C710 H702 0.950 . S
C710 C708 1.391 . S
C710 C711 1.400 . S
C711 C710 1.400 . S
C711 C712 1.398 . S
C711 C717 1.491 . S
C712 H703 0.950 . S
C712 C711 1.398 . S
C712 C713 1.391 . S
C713 H701 0.950 . S
C713 C709 1.393 . S
C713 C712 1.391 . S
C714 H704 0.950 . S
C714 C715 1.386 . S
C714 C716 1.391 . S
C715 C714 1.386 . S
C715 C719 1.393 . S
C716 H705 0.950 . S
C716 C714 1.391 . S
C716 C717 1.400 . S
C717 C711 1.491 . S
C717 C716 1.400 . S
C717 C718 1.398 . S
C718 H706 0.950 . S
C718 C717 1.398 . S
C718 C719 1.391 . S
C719 H707 0.950 . S
C719 C715 1.393 . S
C719 C718 1.391 . S
H720 C728 0.950 . S
H721 C733 0.950 . S
H722 C730 0.950 . S
H723 C732 0.950 . S
H724 C734 0.950 . S
H725 C736 0.950 . S
H726 C738 0.950 . S
H727 C739 0.950 . S
C728 H720 0.950 . S
C728 C729 1.386 . S
C728 C730 1.391 . S
C729 C728 1.386 . S
C729 C733 1.393 . S
C730 H722 0.950 . S
C730 C728 1.391 . S
C730 C731 1.400 . S
C731 C730 1.400 . S
C731 C732 1.398 . S
C731 C737 1.491 . S
C732 H723 0.950 . S
C732 C731 1.398 . S
C732 C733 1.391 . S
C733 H721 0.950 . S
C733 C729 1.393 . S
C733 C732 1.391 . S
C734 H724 0.950 . S
C734 C735 1.386 . S
C734 C736 1.391 . S
C735 C734 1.386 . S
C735 C739 1.393 . S
C736 H725 0.950 . S
C736 C734 1.391 . S
C736 C737 1.400 . S
C737 C731 1.491 . S
C737 C736 1.400 . S
C737 C738 1.398 . S
C738 H726 0.950 . S
C738 C737 1.398 . S
C738 C739 1.391 . S
C739 H727 0.950 . S
C739 C735 1.393 . S
C739 C738 1.391 . S
H740 C748 0.950 . S
H741 C753 0.950 . S
H742 C750 0.950 . S
H743 C752 0.950 . S
H744 C754 0.950 . S
H745 C756 0.950 . S
H746 C758 0.950 . S
H747 C759 0.950 . S
C748 H740 0.950 . S
C748 C749 1.386 . S
C748 C750 1.391 . S
C749 C748 1.386 . S
C749 C753 1.393 . S
C750 H742 0.950 . S
C750 C748 1.391 . S
C750 C751 1.400 . S
C751 C750 1.400 . S
C751 C752 1.398 . S
C751 C757 1.491 . S
C752 H743 0.950 . S
C752 C751 1.398 . S
C752 C753 1.391 . S
C753 H741 0.950 . S
C753 C749 1.393 . S
C753 C752 1.391 . S
C754 H744 0.950 . S
C754 C755 1.386 . S
C754 C756 1.391 . S
C755 C754 1.386 . S
C755 C759 1.393 . S
C756 H745 0.950 . S
C756 C754 1.391 . S
C756 C757 1.400 . S
C757 C751 1.491 . S
C757 C756 1.400 . S
C757 C758 1.398 . S
C758 H746 0.950 . S
C758 C757 1.398 . S
C758 C759 1.391 . S
C759 H747 0.950 . S
C759 C755 1.393 . S
C759 C758 1.391 . S
H760 C768 0.950 . S
H761 C773 0.950 . S
H762 C770 0.950 . S
H763 C772 0.950 . S
H764 C774 0.950 . S
H765 C776 0.950 . S
H766 C778 0.950 . S
H767 C779 0.950 . S
C768 H760 0.950 . S
C768 C769 1.386 . S
C768 C770 1.391 . S
C769 C768 1.386 . S
C769 C773 1.393 . S
C770 H762 0.950 . S
C770 C768 1.391 . S
C770 C771 1.400 . S
C771 C770 1.400 . S
C771 C772 1.398 . S
C771 C777 1.491 . S
C772 H763 0.950 . S
C772 C771 1.398 . S
C772 C773 1.391 . S
C773 H761 0.950 . S
C773 C769 1.393 . S
C773 C772 1.391 . S
C774 H764 0.950 . S
C774 C775 1.386 . S
C774 C776 1.391 . S
C775 C774 1.386 . S
C775 C779 1.393 . S
C776 H765 0.950 . S
C776 C774 1.391 . S
C776 C777 1.400 . S
C777 C771 1.491 . S
C777 C776 1.400 . S
C777 C778 1.398 . S
C778 H766 0.950 . S
C778 C777 1.398 . S
C778 C779 1.391 . S
C779 H767 0.950 . S
C779 C775 1.393 . S
C779 C778 1.391 . S
H780 C788 0.950 . S
H781 C793 0.950 . S
H782 C790 0.950 . S
H783 C792 0.950 . S
H784 C794 0.950 . S
H785 C796 0.950 . S
H786 C798 0.950 . S
H787 C799 0.950 . S
C788 H780 0.950 . S
C788 C789 1.386 . S
C788 C790 1.391 . S
C789 C788 1.386 . S
C789 C793 1.393 . S
C790 H782 0.950 . S
C790 C788 1.391 . S
C790 C791 1.400 . S
C791 C790 1.400 . S
C791 C792 1.398 . S
C791 C797 1.491 . S
C792 H783 0.950 . S
C792 C791 1.398 . S
C792 C793 1.391 . S
C793 H781 0.950 . S
C793 C789 1.393 . S
C793 C792 1.391 . S
C794 H784 0.950 . S
C794 C795 1.386 . S
C794 C796 1.391 . S
C795 C794 1.386 . S
C795 C799 1.393 . S
C796 H785 0.950 . S
C796 C794 1.391 . S
C796 C797 1.400 . S
C797 C791 1.491 . S
C797 C796 1.400 . S
C797 C798 1.398 . S
C798 H786 0.950 . S
C798 C797 1.398 . S
C798 C799 1.391 . S
C799 H787 0.950 . S
C799 C795 1.393 . S
C799 C798 1.391 . S
H800 C808 0.950 . S
H801 C813 0.950 . S
H802 C810 0.950 . S
H803 C812 0.950 . S
H804 C814 0.950 . S
H805 C816 0.950 . S
H806 C818 0.950 . S
H807 C819 0.950 . S
C808 H800 0.950 . S
C808 C809 1.386 . S
C808 C810 1.391 . S
C809 C808 1.386 . S
C809 C813 1.393 . S
C810 H802 0.950 . S
C810 C808 1.391 . S
C810 C811 1.400 . S
C811 C810 1.400 . S
C811 C812 1.398 . S
C811 C817 1.491 . S
C812 H803 0.950 . S
C812 C811 1.398 . S
C812 C813 1.391 . S
C813 H801 0.950 . S
C813 C809 1.393 . S
C813 C812 1.391 . S
C814 H804 0.950 . S
C814 C815 1.386 . S
C814 C816 1.391 . S
C815 C814 1.386 . S
C815 C819 1.393 . S
C816 H805 0.950 . S
C816 C814 1.391 . S
C816 C817 1.400 . S
C817 C811 1.491 . S
C817 C816 1.400 . S
C817 C818 1.398 . S
C818 H806 0.950 . S
C818 C817 1.398 . S
C818 C819 1.391 . S
C819 H807 0.950 . S
C819 C815 1.393 . S
C819 C818 1.391 . S
H820 C828 0.950 . S
H821 C833 0.950 . S
H822 C830 0.950 . S
H823 C832 0.950 . S
H824 C834 0.950 . S
H825 C836 0.950 . S
H826 C838 0.950 . S
H827 C839 0.950 . S
C828 H820 0.950 . S
C828 C829 1.386 . S
C828 C830 1.391 . S
C829 C828 1.386 . S
C829 C833 1.393 . S
C830 H822 0.950 . S
C830 C828 1.391 . S
C830 C831 1.400 . S
C831 C830 1.400 . S
C831 C832 1.398 . S
C831 C837 1.491 . S
C832 H823 0.950 . S
C832 C831 1.398 . S
C832 C833 1.391 . S
C833 H821 0.950 . S
C833 C829 1.393 . S
C833 C832 1.391 . S
C834 H824 0.950 . S
C834 C835 1.386 1_554 S
C834 C836 1.391 . S
C835 C834 1.386 1_556 S
C835 C839 1.393 . S
C836 H825 0.950 . S
C836 C834 1.391 . S
C836 C837 1.400 . S
C837 C831 1.491 . S
C837 C836 1.400 . S
C837 C838 1.398 . S
C838 H826 0.950 . S
C838 C837 1.398 . S
C838 C839 1.391 1_554 S
C839 H827 0.950 . S
C839 C835 1.393 . S
C839 C838 1.391 1_556 S
H840 C848 0.950 . S
H841 C853 0.950 . S
H842 C850 0.950 . S
H843 C852 0.950 . S
H844 C854 0.950 . S
H845 C856 0.950 . S
H846 C858 0.950 . S
H847 C859 0.950 . S
C848 H840 0.950 . S
C848 C849 1.386 1_556 S
C848 C850 1.391 . S
C849 C848 1.386 1_554 S
C849 C853 1.393 1_554 S
C850 H842 0.950 . S
C850 C848 1.391 . S
C850 C851 1.400 . S
C851 C850 1.400 . S
C851 C852 1.398 . S
C851 C857 1.491 . S
C852 H843 0.950 . S
C852 C851 1.398 . S
C852 C853 1.391 . S
C853 H841 0.950 . S
C853 C849 1.393 1_556 S
C853 C852 1.391 . S
C854 H844 0.950 . S
C854 C855 1.386 . S
C854 C856 1.391 . S
C855 C854 1.386 . S
C855 C859 1.393 . S
C856 H845 0.950 . S
C856 C854 1.391 . S
C856 C857 1.400 . S
C857 C851 1.491 . S
C857 C856 1.400 . S
C857 C858 1.398 . S
C858 H846 0.950 . S
C858 C857 1.398 . S
C858 C859 1.391 . S
C859 H847 0.950 . S
C859 C855 1.393 . S
C859 C858 1.391 . S
H860 C868 0.950 . S
H861 C873 0.950 . S
H862 C870 0.950 . S
H863 C872 0.950 . S
H864 C874 0.950 . S
H865 C876 0.950 . S
H866 C878 0.950 . S
H867 C879 0.950 . S
C868 H860 0.950 . S
C868 C869 1.386 . S
C868 C870 1.391 . S
C869 C868 1.386 . S
C869 C873 1.393 . S
C870 H862 0.950 . S
C870 C868 1.391 . S
C870 C871 1.400 . S
C871 C870 1.400 . S
C871 C872 1.398 . S
C871 C877 1.491 . S
C872 H863 0.950 . S
C872 C871 1.398 . S
C872 C873 1.391 . S
C873 H861 0.950 . S
C873 C869 1.393 . S
C873 C872 1.391 . S
C874 H864 0.950 . S
C874 C875 1.386 . S
C874 C876 1.391 . S
C875 C874 1.386 . S
C875 C879 1.393 . S
C876 H865 0.950 . S
C876 C874 1.391 . S
C876 C877 1.400 . S
C877 C871 1.491 . S
C877 C876 1.400 . S
C877 C878 1.398 . S
C878 H866 0.950 . S
C878 C877 1.398 . S
C878 C879 1.391 . S
C879 H867 0.950 . S
C879 C875 1.393 . S
C879 C878 1.391 . S
H880 C888 0.950 . S
H881 C893 0.950 . S
H882 C890 0.950 . S
H883 C892 0.950 . S
H884 C894 0.950 . S
H885 C896 0.950 . S
H886 C898 0.950 . S
H887 C899 0.950 . S
C888 H880 0.950 . S
C888 C889 1.386 . S
C888 C890 1.391 . S
C889 C888 1.386 . S
C889 C893 1.393 . S
C890 H882 0.950 . S
C890 C888 1.391 . S
C890 C891 1.400 . S
C891 C890 1.400 . S
C891 C892 1.398 . S
C891 C897 1.491 . S
C892 H883 0.950 . S
C892 C891 1.398 . S
C892 C893 1.391 . S
C893 H881 0.950 . S
C893 C889 1.393 . S
C893 C892 1.391 . S
C894 H884 0.950 . S
C894 C895 1.386 . S
C894 C896 1.391 . S
C895 C894 1.386 . S
C895 C899 1.393 . S
C896 H885 0.950 . S
C896 C894 1.391 . S
C896 C897 1.400 . S
C897 C891 1.491 . S
C897 C896 1.400 . S
C897 C898 1.398 . S
C898 H886 0.950 . S
C898 C897 1.398 . S
C898 C899 1.391 . S
C899 H887 0.950 . S
C899 C895 1.393 . S
C899 C898 1.391 . S
H900 C908 0.950 . S
H901 C913 0.950 . S
H902 C910 0.950 . S
H903 C912 0.950 . S
H904 C914 0.950 . S
H905 C916 0.950 . S
H906 C918 0.950 . S
H907 C919 0.950 . S
C908 H900 0.950 . S
C908 C909 1.386 . S
C908 C910 1.391 . S
C909 C908 1.386 . S
C909 C913 1.393 . S
C910 H902 0.950 . S
C910 C908 1.391 . S
C910 C911 1.400 . S
C911 C910 1.400 . S
C911 C912 1.398 . S
C911 C917 1.491 . S
C912 H903 0.950 . S
C912 C911 1.398 . S
C912 C913 1.391 . S
C913 H901 0.950 . S
C913 C909 1.393 . S
C913 C912 1.391 . S
C914 H904 0.950 . S
C914 C915 1.386 . S
C914 C916 1.391 . S
C915 C914 1.386 . S
C915 C919 1.393 . S
C916 H905 0.950 . S
C916 C914 1.391 . S
C916 C917 1.400 . S
C917 C911 1.491 . S
C917 C916 1.400 . S
C917 C918 1.398 . S
C918 H906 0.950 . S
C918 C917 1.398 . S
C918 C919 1.391 . S
C919 H907 0.950 . S
C919 C915 1.393 . S
C919 C918 1.391 . S
H920 C928 0.950 . S
H921 C933 0.950 . S
H922 C930 0.950 . S
H923 C932 0.950 . S
H924 C934 0.950 . S
H925 C936 0.950 . S
H926 C938 0.950 . S
H927 C939 0.950 . S
C928 H920 0.950 . S
C928 C929 1.386 . S
C928 C930 1.391 . S
C929 C928 1.386 . S
C929 C933 1.393 . S
C930 H922 0.950 . S
C930 C928 1.391 . S
C930 C931 1.400 . S
C931 C930 1.400 . S
C931 C932 1.398 . S
C931 C937 1.491 . S
C932 H923 0.950 . S
C932 C931 1.398 . S
C932 C933 1.391 . S
C933 H921 0.950 . S
C933 C929 1.393 . S
C933 C932 1.391 . S
C934 H924 0.950 . S
C934 C935 1.386 . S
C934 C936 1.391 . S
C935 C934 1.386 . S
C935 C939 1.393 . S
C936 H925 0.950 . S
C936 C934 1.391 . S
C936 C937 1.400 . S
C937 C931 1.491 . S
C937 C936 1.400 . S
C937 C938 1.398 . S
C938 H926 0.950 . S
C938 C937 1.398 . S
C938 C939 1.391 . S
C939 H927 0.950 . S
C939 C935 1.393 . S
C939 C938 1.391 . S
H940 C948 0.950 . S
H941 C953 0.950 1_554 S
H942 C950 0.950 . S
H943 C952 0.950 . S
H944 C954 0.950 . S
H945 C956 0.950 . S
H946 C958 0.950 . S
H947 C959 0.950 . S
C948 H940 0.950 . S
C948 C949 1.386 . S
C948 C950 1.391 . S
C949 C948 1.386 . S
C949 C953 1.393 . S
C950 H942 0.950 . S
C950 C948 1.391 . S
C950 C951 1.400 . S
C951 C950 1.400 . S
C951 C952 1.398 . S
C951 C957 1.491 . S
C952 H943 0.950 . S
C952 C951 1.398 . S
C952 C953 1.391 . S
C953 H941 0.950 1_556 S
C953 C949 1.393 . S
C953 C952 1.391 . S
C954 H944 0.950 . S
C954 C955 1.386 . S
C954 C956 1.391 . S
C955 C954 1.386 . S
C955 C959 1.393 . S
C956 H945 0.950 . S
C956 C954 1.391 . S
C956 C957 1.400 . S
C957 C951 1.491 . S
C957 C956 1.400 . S
C957 C958 1.398 . S
C958 H946 0.950 . S
C958 C957 1.398 . S
C958 C959 1.391 . S
C959 H947 0.950 . S
C959 C955 1.393 . S
C959 C958 1.391 . S
H960 C968 0.950 . S
H961 C973 0.950 . S
H962 C970 0.950 . S
H963 C972 0.950 . S
H964 C974 0.950 . S
H965 C976 0.950 . S
H966 C978 0.950 . S
H967 C979 0.950 . S
C968 H960 0.950 . S
C968 C969 1.386 . S
C968 C970 1.391 . S
C969 C968 1.386 . S
C969 C973 1.393 . S
C970 H962 0.950 . S
C970 C968 1.391 . S
C970 C971 1.400 . S
C971 C970 1.400 . S
C971 C972 1.398 . S
C971 C977 1.491 . S
C972 H963 0.950 . S
C972 C971 1.398 . S
C972 C973 1.391 . S
C973 H961 0.950 . S
C973 C969 1.393 . S
C973 C972 1.391 . S
C974 H964 0.950 . S
C974 C975 1.386 . S
C974 C976 1.391 . S
C975 C974 1.386 . S
C975 C979 1.393 . S
C976 H965 0.950 . S
C976 C974 1.391 . S
C976 C977 1.400 . S
C977 C971 1.491 . S
C977 C976 1.400 . S
C977 C978 1.398 . S
C978 H966 0.950 . S
C978 C977 1.398 . S
C978 C979 1.391 . S
C979 H967 0.950 . S
C979 C975 1.393 . S
C979 C978 1.391 . S
H980 C988 0.950 . S
H981 C993 0.950 . S
H982 C990 0.950 . S
H983 C992 0.950 . S
H984 C994 0.950 . S
H985 C996 0.950 . S
H986 C998 0.950 . S
H987 C999 0.950 . S
C988 H980 0.950 . S
C988 C989 1.386 . S
C988 C990 1.391 . S
C989 C988 1.386 . S
C989 C993 1.393 . S
C990 H982 0.950 . S
C990 C988 1.391 . S
C990 C991 1.400 . S
C991 C990 1.400 . S
C991 C992 1.398 . S
C991 C997 1.491 . S
C992 H983 0.950 . S
C992 C991 1.398 . S
C992 C993 1.391 . S
C993 H981 0.950 . S
C993 C989 1.393 . S
C993 C992 1.391 . S
C994 H984 0.950 . S
C994 C995 1.386 . S
C994 C996 1.391 . S
C995 C994 1.386 . S
C995 C999 1.393 . S
C996 H985 0.950 . S
C996 C994 1.391 . S
C996 C997 1.400 . S
C997 C991 1.491 . S
C997 C996 1.400 . S
C997 C998 1.398 . S
C998 H986 0.950 . S
C998 C997 1.398 . S
C998 C999 1.391 . S
C999 H987 0.950 . S
C999 C995 1.393 . S
C999 C998 1.391 . S
H1000 C1008 0.950 . S
H1001 C1013 0.950 . S
H1002 C1010 0.950 . S
H1003 C1012 0.950 . S
H1004 C1014 0.950 . S
H1005 C1016 0.950 . S
H1006 C1018 0.950 . S
H1007 C1019 0.950 . S
C1008 H1000 0.950 . S
C1008 C1009 1.386 . S
C1008 C1010 1.391 . S
C1009 C1008 1.386 . S
C1009 C1013 1.393 . S
C1010 H1002 0.950 . S
C1010 C1008 1.391 . S
C1010 C1011 1.400 . S
C1011 C1010 1.400 . S
C1011 C1012 1.398 . S
C1011 C1017 1.491 . S
C1012 H1003 0.950 . S
C1012 C1011 1.398 . S
C1012 C1013 1.391 . S
C1013 H1001 0.950 . S
C1013 C1009 1.393 . S
C1013 C1012 1.391 . S
C1014 H1004 0.950 . S
C1014 C1015 1.386 . S
C1014 C1016 1.391 . S
C1015 C1014 1.386 . S
C1015 C1019 1.393 . S
C1016 H1005 0.950 . S
C1016 C1014 1.391 . S
C1016 C1017 1.400 . S
C1017 C1011 1.491 . S
C1017 C1016 1.400 . S
C1017 C1018 1.398 . S
C1018 H1006 0.950 . S
C1018 C1017 1.398 . S
C1018 C1019 1.391 . S
C1019 H1007 0.950 . S
C1019 C1015 1.393 . S
C1019 C1018 1.391 . S
H1020 C1028 0.950 . S
H1021 C1033 0.950 1_554 S
H1022 C1030 0.950 . S
H1023 C1032 0.950 1_554 S
H1024 C1034 0.950 . S
H1025 C1036 0.950 . S
H1026 C1038 0.950 . S
H1027 C1039 0.950 . S
C1028 H1020 0.950 . S
C1028 C1029 1.386 . S
C1028 C1030 1.391 . S
C1029 C1028 1.386 . S
C1029 C1033 1.393 . S
C1030 H1022 0.950 . S
C1030 C1028 1.391 . S
C1030 C1031 1.400 . S
C1031 C1030 1.400 . S
C1031 C1032 1.398 . S
C1031 C1037 1.491 1_655 S
C1032 H1023 0.950 1_556 S
C1032 C1031 1.398 . S
C1032 C1033 1.391 . S
C1033 H1021 0.950 1_556 S
C1033 C1029 1.393 . S
C1033 C1032 1.391 . S
C1034 H1024 0.950 . S
C1034 C1035 1.386 . S
C1034 C1036 1.391 . S
C1035 C1034 1.386 . S
C1035 C1039 1.393 . S
C1036 H1025 0.950 . S
C1036 C1034 1.391 . S
C1036 C1037 1.400 . S
C1037 C1031 1.491 1_455 S
C1037 C1036 1.400 . S
C1037 C1038 1.398 . S
C1038 H1026 0.950 . S
C1038 C1037 1.398 . S
C1038 C1039 1.391 . S
C1039 H1027 0.950 . S
C1039 C1035 1.393 . S
C1039 C1038 1.391 . S
H1040 C1048 0.950 . S
H1041 C1053 0.950 . S
H1042 C1050 0.950 . S
H1043 C1052 0.950 . S
H1044 C1054 0.950 . S
H1045 C1056 0.950 . S
H1046 C1058 0.950 . S
H1047 C1059 0.950 . S
C1048 H1040 0.950 . S
C1048 C1049 1.386 . S
C1048 C1050 1.391 . S
C1049 C1048 1.386 . S
C1049 C1053 1.393 . S
C1050 H1042 0.950 . S
C1050 C1048 1.391 . S
C1050 C1051 1.400 . S
C1051 C1050 1.400 . S
C1051 C1052 1.398 . S
C1051 C1057 1.491 . S
C1052 H1043 0.950 . S
C1052 C1051 1.398 . S
C1052 C1053 1.391 . S
C1053 H1041 0.950 . S
C1053 C1049 1.393 . S
C1053 C1052 1.391 . S
C1054 H1044 0.950 . S
C1054 C1055 1.386 . S
C1054 C1056 1.391 . S
C1055 C1054 1.386 . S
C1055 C1059 1.393 . S
C1056 H1045 0.950 . S
C1056 C1054 1.391 . S
C1056 C1057 1.400 . S
C1057 C1051 1.491 . S
C1057 C1056 1.400 . S
C1057 C1058 1.398 . S
C1058 H1046 0.950 . S
C1058 C1057 1.398 . S
C1058 C1059 1.391 . S
C1059 H1047 0.950 . S
C1059 C1055 1.393 . S
C1059 C1058 1.391 . S
H1060 C1068 0.950 . S
H1061 C1073 0.950 . S
H1062 C1070 0.950 . S
H1063 C1072 0.950 . S
H1064 C1074 0.950 . S
H1065 C1076 0.950 . S
H1066 C1078 0.950 . S
H1067 C1079 0.950 . S
C1068 H1060 0.950 . S
C1068 C1069 1.386 . S
C1068 C1070 1.391 . S
C1069 C1068 1.386 . S
C1069 C1073 1.393 . S
C1070 H1062 0.950 . S
C1070 C1068 1.391 . S
C1070 C1071 1.400 . S
C1071 C1070 1.400 . S
C1071 C1072 1.398 . S
C1071 C1077 1.491 1_455 S
C1072 H1063 0.950 . S
C1072 C1071 1.398 . S
C1072 C1073 1.391 . S
C1073 H1061 0.950 . S
C1073 C1069 1.393 . S
C1073 C1072 1.391 . S
C1074 H1064 0.950 . S
C1074 C1075 1.386 . S
C1074 C1076 1.391 . S
C1075 C1074 1.386 . S
C1075 C1079 1.393 . S
C1076 H1065 0.950 . S
C1076 C1074 1.391 . S
C1076 C1077 1.400 . S
C1077 C1071 1.491 1_655 S
C1077 C1076 1.400 . S
C1077 C1078 1.398 . S
C1078 H1066 0.950 . S
C1078 C1077 1.398 . S
C1078 C1079 1.391 . S
C1079 H1067 0.950 . S
C1079 C1075 1.393 . S
C1079 C1078 1.391 . S
H1080 C1088 0.950 . S
H1081 C1093 0.950 . S
H1082 C1090 0.950 . S
H1083 C1092 0.950 . S
H1084 C1094 0.950 . S
H1085 C1096 0.950 . S
H1086 C1098 0.950 . S
H1087 C1099 0.950 . S
C1088 H1080 0.950 . S
C1088 C1089 1.386 . S
C1088 C1090 1.391 . S
C1089 C1088 1.386 . S
C1089 C1093 1.393 . S
C1090 H1082 0.950 . S
C1090 C1088 1.391 . S
C1090 C1091 1.400 . S
C1091 C1090 1.400 . S
C1091 C1092 1.398 . S
C1091 C1097 1.491 . S
C1092 H1083 0.950 . S
C1092 C1091 1.398 . S
C1092 C1093 1.391 . S
C1093 H1081 0.950 . S
C1093 C1089 1.393 . S
C1093 C1092 1.391 . S
C1094 H1084 0.950 . S
C1094 C1095 1.386 . S
C1094 C1096 1.391 . S
C1095 C1094 1.386 . S
C1095 C1099 1.393 . S
C1096 H1085 0.950 . S
C1096 C1094 1.391 . S
C1096 C1097 1.400 . S
C1097 C1091 1.491 . S
C1097 C1096 1.400 . S
C1097 C1098 1.398 . S
C1098 H1086 0.950 . S
C1098 C1097 1.398 . S
C1098 C1099 1.391 . S
C1099 H1087 0.950 . S
C1099 C1095 1.393 . S
C1099 C1098 1.391 . S
H1100 C1108 0.950 . S
H1101 C1113 0.950 . S
H1102 C1110 0.950 . S
H1103 C1112 0.950 . S
H1104 C1114 0.950 . S
H1105 C1116 0.950 . S
H1106 C1118 0.950 . S
H1107 C1119 0.950 . S
C1108 H1100 0.950 . S
C1108 C1109 1.386 . S
C1108 C1110 1.391 . S
C1109 C1108 1.386 . S
C1109 C1113 1.393 . S
C1110 H1102 0.950 . S
C1110 C1108 1.391 . S
C1110 C1111 1.400 . S
C1111 C1110 1.400 . S
C1111 C1112 1.398 . S
C1111 C1117 1.491 . S
C1112 H1103 0.950 . S
C1112 C1111 1.398 . S
C1112 C1113 1.391 . S
C1113 H1101 0.950 . S
C1113 C1109 1.393 . S
C1113 C1112 1.391 . S
C1114 H1104 0.950 . S
C1114 C1115 1.386 . S
C1114 C1116 1.391 . S
C1115 C1114 1.386 . S
C1115 C1119 1.393 . S
C1116 H1105 0.950 . S
C1116 C1114 1.391 . S
C1116 C1117 1.400 . S
C1117 C1111 1.491 . S
C1117 C1116 1.400 . S
C1117 C1118 1.398 . S
C1118 H1106 0.950 . S
C1118 C1117 1.398 . S
C1118 C1119 1.391 . S
C1119 H1107 0.950 . S
C1119 C1115 1.393 . S
C1119 C1118 1.391 . S
H1120 C1128 0.950 . S
H1121 C1133 0.950 . S
H1122 C1130 0.950 . S
H1123 C1132 0.950 . S
H1124 C1134 0.950 . S
H1125 C1136 0.950 . S
H1126 C1138 0.950 . S
H1127 C1139 0.950 . S
C1128 H1120 0.950 . S
C1128 C1129 1.386 . S
C1128 C1130 1.391 . S
C1129 C1128 1.386 . S
C1129 C1133 1.393 . S
C1130 H1122 0.950 . S
C1130 C1128 1.391 . S
C1130 C1131 1.400 . S
C1131 C1130 1.400 . S
C1131 C1132 1.398 . S
C1131 C1137 1.491 . S
C1132 H1123 0.950 . S
C1132 C1131 1.398 . S
C1132 C1133 1.391 . S
C1133 H1121 0.950 . S
C1133 C1129 1.393 . S
C1133 C1132 1.391 . S
C1134 H1124 0.950 . S
C1134 C1135 1.386 . S
C1134 C1136 1.391 . S
C1135 C1134 1.386 . S
C1135 C1139 1.393 . S
C1136 H1125 0.950 . S
C1136 C1134 1.391 . S
C1136 C1137 1.400 . S
C1137 C1131 1.491 . S
C1137 C1136 1.400 . S
C1137 C1138 1.398 . S
C1138 H1126 0.950 . S
C1138 C1137 1.398 . S
C1138 C1139 1.391 . S
C1139 H1127 0.950 . S
C1139 C1135 1.393 . S
C1139 C1138 1.391 . S
H1140 C1148 0.950 . S
H1141 C1153 0.950 . S
H1142 C1150 0.950 . S
H1143 C1152 0.950 . S
H1144 C1154 0.950 . S
H1145 C1156 0.950 . S
H1146 C1158 0.950 . S
H1147 C1159 0.950 . S
C1148 H1140 0.950 . S
C1148 C1149 1.386 . S
C1148 C1150 1.391 . S
C1149 C1148 1.386 . S
C1149 C1153 1.393 . S
C1150 H1142 0.950 . S
C1150 C1148 1.391 . S
C1150 C1151 1.400 . S
C1151 C1150 1.400 . S
C1151 C1152 1.398 . S
C1151 C1157 1.491 . S
C1152 H1143 0.950 . S
C1152 C1151 1.398 . S
C1152 C1153 1.391 . S
C1153 H1141 0.950 . S
C1153 C1149 1.393 . S
C1153 C1152 1.391 . S
C1154 H1144 0.950 . S
C1154 C1155 1.386 . S
C1154 C1156 1.391 . S
C1155 C1154 1.386 . S
C1155 C1159 1.393 . S
C1156 H1145 0.950 . S
C1156 C1154 1.391 . S
C1156 C1157 1.400 . S
C1157 C1151 1.491 . S
C1157 C1156 1.400 . S
C1157 C1158 1.398 . S
C1158 H1146 0.950 . S
C1158 C1157 1.398 . S
C1158 C1159 1.391 . S
C1159 H1147 0.950 . S
C1159 C1155 1.393 . S
C1159 C1158 1.391 . S
H1160 C1168 0.950 . S
H1161 C1173 0.950 . S
H1162 C1170 0.950 . S
H1163 C1172 0.950 . S
H1164 C1174 0.950 . S
H1165 C1176 0.950 . S
H1166 C1178 0.950 . S
H1167 C1179 0.950 . S
C1168 H1160 0.950 . S
C1168 C1169 1.386 . S
C1168 C1170 1.391 . S
C1169 C1168 1.386 . S
C1169 C1173 1.393 . S
C1170 H1162 0.950 . S
C1170 C1168 1.391 . S
C1170 C1171 1.400 . S
C1171 C1170 1.400 . S
C1171 C1172 1.398 . S
C1171 C1177 1.491 . S
C1172 H1163 0.950 . S
C1172 C1171 1.398 . S
C1172 C1173 1.391 . S
C1173 H1161 0.950 . S
C1173 C1169 1.393 . S
C1173 C1172 1.391 . S
C1174 H1164 0.950 . S
C1174 C1175 1.386 . S
C1174 C1176 1.391 . S
C1175 C1174 1.386 . S
C1175 C1179 1.393 . S
C1176 H1165 0.950 . S
C1176 C1174 1.391 . S
C1176 C1177 1.400 . S
C1177 C1171 1.491 . S
C1177 C1176 1.400 . S
C1177 C1178 1.398 . S
C1178 H1166 0.950 . S
C1178 C1177 1.398 . S
C1178 C1179 1.391 . S
C1179 H1167 0.950 . S
C1179 C1175 1.393 . S
C1179 C1178 1.391 . S
H1180 C1188 0.950 . S
H1181 C1193 0.950 . S
H1182 C1190 0.950 . S
H1183 C1192 0.950 . S
H1184 C1194 0.950 . S
H1185 C1196 0.950 . S
H1186 C1198 0.950 . S
H1187 C1199 0.950 . S
C1188 H1180 0.950 . S
C1188 C1189 1.386 . S
C1188 C1190 1.391 . S
C1189 C1188 1.386 . S
C1189 C1193 1.393 . S
C1190 H1182 0.950 . S
C1190 C1188 1.391 . S
C1190 C1191 1.400 . S
C1191 C1190 1.400 . S
C1191 C1192 1.398 . S
C1191 C1197 1.491 . S
C1192 H1183 0.950 . S
C1192 C1191 1.398 . S
C1192 C1193 1.391 . S
C1193 H1181 0.950 . S
C1193 C1189 1.393 . S
C1193 C1192 1.391 . S
C1194 H1184 0.950 . S
C1194 C1195 1.386 . S
C1194 C1196 1.391 . S
C1195 C1194 1.386 . S
C1195 C1199 1.393 . S
C1196 H1185 0.950 . S
C1196 C1194 1.391 . S
C1196 C1197 1.400 . S
C1197 C1191 1.491 . S
C1197 C1196 1.400 . S
C1197 C1198 1.398 . S
C1198 H1186 0.950 . S
C1198 C1197 1.398 . S
C1198 C1199 1.391 . S
C1199 H1187 0.950 . S
C1199 C1195 1.393 . S
C1199 C1198 1.391 . S
H1200 C1208 0.950 . S
H1201 C1213 0.950 . S
H1202 C1210 0.950 . S
H1203 C1212 0.950 . S
H1204 C1214 0.950 . S
H1205 C1216 0.950 . S
H1206 C1218 0.950 . S
H1207 C1219 0.950 . S
C1208 H1200 0.950 . S
C1208 C1209 1.386 . S
C1208 C1210 1.391 . S
C1209 C1208 1.386 . S
C1209 C1213 1.393 . S
C1210 H1202 0.950 . S
C1210 C1208 1.391 . S
C1210 C1211 1.400 . S
C1211 C1210 1.400 . S
C1211 C1212 1.398 . S
C1211 C1217 1.491 1_655 S
C1212 H1203 0.950 . S
C1212 C1211 1.398 . S
C1212 C1213 1.391 . S
C1213 H1201 0.950 . S
C1213 C1209 1.393 . S
C1213 C1212 1.391 . S
C1214 H1204 0.950 . S
C1214 C1215 1.386 . S
C1214 C1216 1.391 . S
C1215 C1214 1.386 . S
C1215 C1219 1.393 . S
C1216 H1205 0.950 . S
C1216 C1214 1.391 . S
C1216 C1217 1.400 . S
C1217 C1211 1.491 1_455 S
C1217 C1216 1.400 . S
C1217 C1218 1.398 . S
C1218 H1206 0.950 . S
C1218 C1217 1.398 . S
C1218 C1219 1.391 . S
C1219 H1207 0.950 . S
C1219 C1215 1.393 . S
C1219 C1218 1.391 . S
H1220 C1228 0.950 . S
H1221 C1233 0.950 . S
H1222 C1230 0.950 . S
H1223 C1232 0.950 . S
H1224 C1234 0.950 . S
H1225 C1236 0.950 . S
H1226 C1238 0.950 . S
H1227 C1239 0.950 . S
C1228 H1220 0.950 . S
C1228 C1229 1.386 . S
C1228 C1230 1.391 . S
C1229 C1228 1.386 . S
C1229 C1233 1.393 . S
C1230 H1222 0.950 . S
C1230 C1228 1.391 . S
C1230 C1231 1.400 . S
C1231 C1230 1.400 . S
C1231 C1232 1.398 . S
C1231 C1237 1.491 . S
C1232 H1223 0.950 . S
C1232 C1231 1.398 . S
C1232 C1233 1.391 . S
C1233 H1221 0.950 . S
C1233 C1229 1.393 . S
C1233 C1232 1.391 . S
C1234 H1224 0.950 . S
C1234 C1235 1.386 . S
C1234 C1236 1.391 . S
C1235 C1234 1.386 . S
C1235 C1239 1.393 . S
C1236 H1225 0.950 . S
C1236 C1234 1.391 . S
C1236 C1237 1.400 . S
C1237 C1231 1.491 . S
C1237 C1236 1.400 . S
C1237 C1238 1.398 . S
C1238 H1226 0.950 . S
C1238 C1237 1.398 . S
C1238 C1239 1.391 . S
C1239 H1227 0.950 . S
C1239 C1235 1.393 . S
C1239 C1238 1.391 . S
H1240 C1248 0.950 . S
H1241 C1253 0.950 . S
H1242 C1250 0.950 . S
H1243 C1252 0.950 . S
H1244 C1254 0.950 . S
H1245 C1256 0.950 . S
H1246 C1258 0.950 . S
H1247 C1259 0.950 . S
C1248 H1240 0.950 . S
C1248 C1249 1.386 . S
C1248 C1250 1.391 . S
C1249 C1248 1.386 . S
C1249 C1253 1.393 . S
C1250 H1242 0.950 . S
C1250 C1248 1.391 . S
C1250 C1251 1.400 . S
C1251 C1250 1.400 . S
C1251 C1252 1.398 . S
C1251 C1257 1.491 . S
C1252 H1243 0.950 . S
C1252 C1251 1.398 . S
C1252 C1253 1.391 . S
C1253 H1241 0.950 . S
C1253 C1249 1.393 . S
C1253 C1252 1.391 . S
C1254 H1244 0.950 . S
C1254 C1255 1.386 . S
C1254 C1256 1.391 . S
C1255 C1254 1.386 . S
C1255 C1259 1.393 . S
C1256 H1245 0.950 . S
C1256 C1254 1.391 . S
C1256 C1257 1.400 . S
C1257 C1251 1.491 . S
C1257 C1256 1.400 . S
C1257 C1258 1.398 . S
C1258 H1246 0.950 . S
C1258 C1257 1.398 . S
C1258 C1259 1.391 . S
C1259 H1247 0.950 . S
C1259 C1255 1.393 . S
C1259 C1258 1.391 . S
H1260 C1268 0.931 1_556 S
H1261 C1273 0.950 . S
H1262 C1270 0.950 1_556 S
H1263 C1272 0.950 . S
H1264 C1274 0.950 . S
H1265 C1276 0.950 . S
H1266 C1278 0.950 . S
H1267 C1279 0.947 1_556 S
C1268 H1260 0.931 1_554 S
C1268 C1269 1.386 . S
C1268 C1270 1.391 . S
C1269 C1268 1.386 . S
C1269 C1273 1.393 . S
C1270 H1262 0.950 1_554 S
C1270 C1268 1.391 . S
C1270 C1271 1.400 . S
C1271 C1270 1.400 . S
C1271 C1272 1.398 . S
C1271 C1277 1.491 1_455 S
C1272 H1263 0.950 . S
C1272 C1271 1.398 . S
C1272 C1273 1.391 . S
C1273 H1261 0.950 . S
C1273 C1269 1.393 . S
C1273 C1272 1.391 . S
C1274 H1264 0.950 . S
C1274 C1275 1.386 . S
C1274 C1276 1.391 . S
C1275 C1274 1.386 . S
C1275 C1279 1.393 . S
C1276 H1265 0.950 . S
C1276 C1274 1.391 . S
C1276 C1277 1.400 . S
C1277 C1271 1.491 1_655 S
C1277 C1276 1.400 . S
C1277 C1278 1.398 . S
C1278 H1266 0.950 . S
C1278 C1277 1.398 . S
C1278 C1279 1.391 . S
C1279 H1267 0.947 1_554 S
C1279 C1275 1.393 . S
C1279 C1278 1.391 . S
H1280 C1288 0.950 . S
H1281 C1293 0.950 . S
H1282 C1290 0.950 1_556 S
H1283 C1292 0.950 . S
H1284 C1294 0.950 . S
H1285 C1296 0.950 . S
H1286 C1298 0.950 . S
H1287 C1299 0.950 . S
C1288 H1280 0.950 . S
C1288 C1289 1.386 . S
C1288 C1290 1.391 . S
C1289 C1288 1.386 . S
C1289 C1293 1.393 . S
C1290 H1282 0.950 1_554 S
C1290 C1288 1.391 . S
C1290 C1291 1.400 . S
C1291 C1290 1.400 . S
C1291 C1292 1.398 . S
C1291 C1297 1.491 1_554 S
C1292 H1283 0.950 . S
C1292 C1291 1.398 . S
C1292 C1293 1.391 . S
C1293 H1281 0.950 . S
C1293 C1289 1.393 . S
C1293 C1292 1.391 . S
C1294 H1284 0.950 . S
C1294 C1295 1.386 . S
C1294 C1296 1.391 1_556 S
C1295 C1294 1.386 . S
C1295 C1299 1.393 . S
C1296 H1285 0.950 . S
C1296 C1294 1.391 1_554 S
C1296 C1297 1.400 1_554 S
C1297 C1291 1.491 1_556 S
C1297 C1296 1.400 1_556 S
C1297 C1298 1.398 . S
C1298 H1286 0.950 . S
C1298 C1297 1.398 . S
C1298 C1299 1.391 . S
C1299 H1287 0.950 . S
C1299 C1295 1.393 . S
C1299 C1298 1.391 . S
H1300 C1308 0.950 . S
H1301 C1313 0.950 . S
H1302 C1310 0.950 . S
H1303 C1312 0.950 . S
H1304 C1314 0.950 . S
H1305 C1316 0.950 . S
H1306 C1318 0.950 . S
H1307 C1319 0.950 . S
C1308 H1300 0.950 . S
C1308 C1309 1.386 . S
C1308 C1310 1.391 . S
C1309 C1308 1.386 . S
C1309 C1313 1.393 . S
C1310 H1302 0.950 . S
C1310 C1308 1.391 . S
C1310 C1311 1.400 . S
C1311 C1310 1.400 . S
C1311 C1312 1.398 . S
C1311 C1317 1.491 . S
C1312 H1303 0.950 . S
C1312 C1311 1.398 . S
C1312 C1313 1.391 . S
C1313 H1301 0.950 . S
C1313 C1309 1.393 . S
C1313 C1312 1.391 . S
C1314 H1304 0.950 . S
C1314 C1315 1.386 . S
C1314 C1316 1.391 . S
C1315 C1314 1.386 . S
C1315 C1319 1.393 . S
C1316 H1305 0.950 . S
C1316 C1314 1.391 . S
C1316 C1317 1.400 . S
C1317 C1311 1.491 . S
C1317 C1316 1.400 . S
C1317 C1318 1.398 . S
C1318 H1306 0.950 . S
C1318 C1317 1.398 . S
C1318 C1319 1.391 . S
C1319 H1307 0.950 . S
C1319 C1315 1.393 . S
C1319 C1318 1.391 . S
H1320 C1328 0.950 . S
H1321 C1333 0.950 . S
H1322 C1330 0.950 . S
H1323 C1332 0.950 . S
H1324 C1334 0.950 . S
H1325 C1336 0.950 . S
H1326 C1338 0.950 . S
H1327 C1339 0.950 . S
C1328 H1320 0.950 . S
C1328 C1329 1.386 . S
C1328 C1330 1.391 . S
C1329 C1328 1.386 . S
C1329 C1333 1.393 . S
C1330 H1322 0.950 . S
C1330 C1328 1.391 . S
C1330 C1331 1.400 . S
C1331 C1330 1.400 . S
C1331 C1332 1.398 . S
C1331 C1337 1.491 . S
C1332 H1323 0.950 . S
C1332 C1331 1.398 . S
C1332 C1333 1.391 . S
C1333 H1321 0.950 . S
C1333 C1329 1.393 . S
C1333 C1332 1.391 . S
C1334 H1324 0.950 . S
C1334 C1335 1.386 . S
C1334 C1336 1.391 . S
C1335 C1334 1.386 . S
C1335 C1339 1.393 . S
C1336 H1325 0.950 . S
C1336 C1334 1.391 . S
C1336 C1337 1.400 . S
C1337 C1331 1.491 . S
C1337 C1336 1.400 . S
C1337 C1338 1.398 . S
C1338 H1326 0.950 . S
C1338 C1337 1.398 . S
C1338 C1339 1.391 . S
C1339 H1327 0.950 . S
C1339 C1335 1.393 . S
C1339 C1338 1.391 . S
H1340 C1348 0.950 . S
H1341 C1353 0.950 . S
H1342 C1350 0.950 . S
H1343 C1352 0.950 . S
H1344 C1354 0.950 . S
H1345 C1356 0.950 . S
H1346 C1358 0.950 . S
H1347 C1359 0.950 . S
C1348 H1340 0.950 . S
C1348 C1349 1.386 . S
C1348 C1350 1.391 . S
C1349 C1348 1.386 . S
C1349 C1353 1.393 . S
C1350 H1342 0.950 . S
C1350 C1348 1.391 . S
C1350 C1351 1.400 . S
C1351 C1350 1.400 . S
C1351 C1352 1.398 . S
C1351 C1357 1.491 . S
C1352 H1343 0.950 . S
C1352 C1351 1.398 . S
C1352 C1353 1.391 . S
C1353 H1341 0.950 . S
C1353 C1349 1.393 . S
C1353 C1352 1.391 . S
C1354 H1344 0.950 . S
C1354 C1355 1.386 . S
C1354 C1356 1.391 . S
C1355 C1354 1.386 . S
C1355 C1359 1.393 . S
C1356 H1345 0.950 . S
C1356 C1354 1.391 . S
C1356 C1357 1.400 . S
C1357 C1351 1.491 . S
C1357 C1356 1.400 . S
C1357 C1358 1.398 . S
C1358 H1346 0.950 . S
C1358 C1357 1.398 . S
C1358 C1359 1.391 . S
C1359 H1347 0.950 . S
C1359 C1355 1.393 . S
C1359 C1358 1.391 . S
H1360 C1368 0.950 . S
H1361 C1373 0.950 . S
H1362 C1370 0.950 . S
H1363 C1372 0.950 . S
H1364 C1374 0.950 . S
H1365 C1376 0.950 1_554 S
H1366 C1378 0.950 . S
H1367 C1379 0.950 . S
C1368 H1360 0.950 . S
C1368 C1369 1.386 . S
C1368 C1370 1.391 1_554 S
C1369 C1368 1.386 . S
C1369 C1373 1.393 . S
C1370 H1362 0.950 . S
C1370 C1368 1.391 1_556 S
C1370 C1371 1.400 1_556 S
C1371 C1370 1.400 1_554 S
C1371 C1372 1.398 . S
C1371 C1377 1.491 1_554 S
C1372 H1363 0.950 . S
C1372 C1371 1.398 . S
C1372 C1373 1.391 . S
C1373 H1361 0.950 . S
C1373 C1369 1.393 . S
C1373 C1372 1.391 . S
C1374 H1364 0.950 . S
C1374 C1375 1.386 . S
C1374 C1376 1.391 . S
C1375 C1374 1.386 . S
C1375 C1379 1.393 . S
C1376 H1365 0.950 1_556 S
C1376 C1374 1.391 . S
C1376 C1377 1.400 . S
C1377 C1371 1.491 1_556 S
C1377 C1376 1.400 . S
C1377 C1378 1.398 . S
C1378 H1366 0.950 . S
C1378 C1377 1.398 . S
C1378 C1379 1.391 . S
C1379 H1367 0.950 . S
C1379 C1375 1.393 . S
C1379 C1378 1.391 . S
H1380 C1388 0.950 . S
H1381 C1393 0.950 . S
H1382 C1390 0.950 . S
H1383 C1392 0.950 . S
H1384 C1394 0.950 . S
H1385 C1396 0.950 . S
H1386 C1398 0.950 . S
H1387 C1399 0.950 . S
C1388 H1380 0.950 . S
C1388 C1389 1.386 . S
C1388 C1390 1.391 . S
C1389 C1388 1.386 . S
C1389 C1393 1.393 . S
C1390 H1382 0.950 . S
C1390 C1388 1.391 . S
C1390 C1391 1.400 . S
C1391 C1390 1.400 . S
C1391 C1392 1.398 . S
C1391 C1397 1.491 . S
C1392 H1383 0.950 . S
C1392 C1391 1.398 . S
C1392 C1393 1.391 . S
C1393 H1381 0.950 . S
C1393 C1389 1.393 . S
C1393 C1392 1.391 . S
C1394 H1384 0.950 . S
C1394 C1395 1.386 . S
C1394 C1396 1.391 . S
C1395 C1394 1.386 . S
C1395 C1399 1.393 . S
C1396 H1385 0.950 . S
C1396 C1394 1.391 . S
C1396 C1397 1.400 . S
C1397 C1391 1.491 . S
C1397 C1396 1.400 . S
C1397 C1398 1.398 . S
C1398 H1386 0.950 . S
C1398 C1397 1.398 . S
C1398 C1399 1.391 . S
C1399 H1387 0.950 . S
C1399 C1395 1.393 . S
C1399 C1398 1.391 . S
H1400 C1408 0.950 . S
H1401 C1413 0.950 . S
H1402 C1410 0.950 . S
H1403 C1412 0.950 . S
H1404 C1414 0.950 . S
H1405 C1416 0.950 . S
H1406 C1418 0.950 . S
H1407 C1419 0.950 . S
C1408 H1400 0.950 . S
C1408 C1409 1.386 . S
C1408 C1410 1.391 . S
C1409 C1408 1.386 . S
C1409 C1413 1.393 . S
C1410 H1402 0.950 . S
C1410 C1408 1.391 . S
C1410 C1411 1.400 . S
C1411 C1410 1.400 . S
C1411 C1412 1.398 . S
C1411 C1417 1.491 . S
C1412 H1403 0.950 . S
C1412 C1411 1.398 . S
C1412 C1413 1.391 . S
C1413 H1401 0.950 . S
C1413 C1409 1.393 . S
C1413 C1412 1.391 . S
C1414 H1404 0.950 . S
C1414 C1415 1.386 . S
C1414 C1416 1.391 . S
C1415 C1414 1.386 . S
C1415 C1419 1.393 . S
C1416 H1405 0.950 . S
C1416 C1414 1.391 . S
C1416 C1417 1.400 . S
C1417 C1411 1.491 . S
C1417 C1416 1.400 . S
C1417 C1418 1.398 . S
C1418 H1406 0.950 . S
C1418 C1417 1.398 . S
C1418 C1419 1.391 . S
C1419 H1407 0.950 . S
C1419 C1415 1.393 . S
C1419 C1418 1.391 . S
H1420 C1428 0.950 . S
H1421 C1433 0.950 . S
H1422 C1430 0.950 . S
H1423 C1432 0.950 . S
H1424 C1434 0.950 . S
H1425 C1436 0.950 . S
H1426 C1438 0.950 . S
H1427 C1439 0.950 . S
C1428 H1420 0.950 . S
C1428 C1429 1.386 . S
C1428 C1430 1.391 . S
C1429 C1428 1.386 . S
C1429 C1433 1.393 . S
C1430 H1422 0.950 . S
C1430 C1428 1.391 . S
C1430 C1431 1.400 . S
C1431 C1430 1.400 . S
C1431 C1432 1.398 . S
C1431 C1437 1.491 . S
C1432 H1423 0.950 . S
C1432 C1431 1.398 . S
C1432 C1433 1.391 . S
C1433 H1421 0.950 . S
C1433 C1429 1.393 . S
C1433 C1432 1.391 . S
C1434 H1424 0.950 . S
C1434 C1435 1.386 . S
C1434 C1436 1.391 . S
C1435 C1434 1.386 . S
C1435 C1439 1.393 . S
C1436 H1425 0.950 . S
C1436 C1434 1.391 . S
C1436 C1437 1.400 . S
C1437 C1431 1.491 . S
C1437 C1436 1.400 . S
C1437 C1438 1.398 . S
C1438 H1426 0.950 . S
C1438 C1437 1.398 . S
C1438 C1439 1.391 . S
C1439 H1427 0.950 . S
C1439 C1435 1.393 . S
C1439 C1438 1.391 . S
H1440 C1448 0.950 . S
H1441 C1453 0.950 . S
H1442 C1450 0.950 . S
H1443 C1452 0.950 . S
H1444 C1454 0.950 . S
H1445 C1456 0.950 . S
H1446 C1458 0.950 . S
H1447 C1459 0.950 . S
C1448 H1440 0.950 . S
C1448 C1449 1.386 . S
C1448 C1450 1.391 . S
C1449 C1448 1.386 . S
C1449 C1453 1.393 . S
C1450 H1442 0.950 . S
C1450 C1448 1.391 . S
C1450 C1451 1.400 . S
C1451 C1450 1.400 . S
C1451 C1452 1.398 . S
C1451 C1457 1.491 1_565 S
C1452 H1443 0.950 . S
C1452 C1451 1.398 . S
C1452 C1453 1.391 . S
C1453 H1441 0.950 . S
C1453 C1449 1.393 . S
C1453 C1452 1.391 . S
C1454 H1444 0.950 . S
C1454 C1455 1.386 . S
C1454 C1456 1.391 . S
C1455 C1454 1.386 . S
C1455 C1459 1.393 . S
C1456 H1445 0.950 . S
C1456 C1454 1.391 . S
C1456 C1457 1.400 . S
C1457 C1451 1.491 1_545 S
C1457 C1456 1.400 . S
C1457 C1458 1.398 . S
C1458 H1446 0.950 . S
C1458 C1457 1.398 . S
C1458 C1459 1.391 . S
C1459 H1447 0.950 . S
C1459 C1455 1.393 . S
C1459 C1458 1.391 . S
H1460 C1468 0.950 . S
H1461 C1473 0.950 . S
H1462 C1470 0.950 . S
H1463 C1472 0.950 . S
H1464 C1474 0.950 . S
H1465 C1476 0.950 . S
H1466 C1478 0.950 . S
H1467 C1479 0.950 . S
C1468 H1460 0.950 . S
C1468 C1469 1.386 . S
C1468 C1470 1.391 . S
C1469 C1468 1.386 . S
C1469 C1473 1.393 . S
C1470 H1462 0.950 . S
C1470 C1468 1.391 . S
C1470 C1471 1.400 . S
C1471 C1470 1.400 . S
C1471 C1472 1.398 . S
C1471 C1477 1.491 . S
C1472 H1463 0.950 . S
C1472 C1471 1.398 . S
C1472 C1473 1.391 . S
C1473 H1461 0.950 . S
C1473 C1469 1.393 . S
C1473 C1472 1.391 . S
C1474 H1464 0.950 . S
C1474 C1475 1.386 . S
C1474 C1476 1.391 . S
C1475 C1474 1.386 . S
C1475 C1479 1.393 . S
C1476 H1465 0.950 . S
C1476 C1474 1.391 . S
C1476 C1477 1.400 . S
C1477 C1471 1.491 . S
C1477 C1476 1.400 . S
C1477 C1478 1.398 . S
C1478 H1466 0.950 . S
C1478 C1477 1.398 . S
C1478 C1479 1.391 . S
C1479 H1467 0.950 . S
C1479 C1475 1.393 . S
C1479 C1478 1.391 . S
H1480 C1488 0.950 . S
H1481 C1493 0.950 . S
H1482 C1490 0.950 . S
H1483 C1492 0.950 . S
H1484 C1494 0.950 . S
H1485 C1496 0.950 . S
H1486 C1498 0.950 . S
H1487 C1499 0.950 . S
C1488 H1480 0.950 . S
C1488 C1489 1.386 . S
C1488 C1490 1.391 . S
C1489 C1488 1.386 . S
C1489 C1493 1.393 . S
C1490 H1482 0.950 . S
C1490 C1488 1.391 . S
C1490 C1491 1.400 . S
C1491 C1490 1.400 . S
C1491 C1492 1.398 . S
C1491 C1497 1.491 1_565 S
C1492 H1483 0.950 . S
C1492 C1491 1.398 . S
C1492 C1493 1.391 . S
C1493 H1481 0.950 . S
C1493 C1489 1.393 . S
C1493 C1492 1.391 . S
C1494 H1484 0.950 . S
C1494 C1495 1.386 1_554 S
C1494 C1496 1.391 . S
C1495 C1494 1.386 1_556 S
C1495 C1499 1.393 . S
C1496 H1485 0.950 . S
C1496 C1494 1.391 . S
C1496 C1497 1.400 . S
C1497 C1491 1.491 1_545 S
C1497 C1496 1.400 . S
C1497 C1498 1.398 1_554 S
C1498 H1486 0.950 . S
C1498 C1497 1.398 1_556 S
C1498 C1499 1.391 . S
C1499 H1487 0.950 . S
C1499 C1495 1.393 . S
C1499 C1498 1.391 . S
H1500 C1508 0.950 . S
H1501 C1513 0.950 . S
H1502 C1510 0.950 . S
H1503 C1512 0.950 . S
H1504 C1514 0.950 . S
H1505 C1516 0.950 . S
H1506 C1518 0.950 . S
H1507 C1519 0.950 . S
C1508 H1500 0.950 . S
C1508 C1509 1.386 . S
C1508 C1510 1.391 . S
C1509 C1508 1.386 . S
C1509 C1513 1.393 . S
C1510 H1502 0.950 . S
C1510 C1508 1.391 . S
C1510 C1511 1.400 . S
C1511 C1510 1.400 . S
C1511 C1512 1.398 . S
C1511 C1517 1.491 . S
C1512 H1503 0.950 . S
C1512 C1511 1.398 . S
C1512 C1513 1.391 . S
C1513 H1501 0.950 . S
C1513 C1509 1.393 . S
C1513 C1512 1.391 . S
C1514 H1504 0.950 . S
C1514 C1515 1.386 . S
C1514 C1516 1.391 . S
C1515 C1514 1.386 . S
C1515 C1519 1.393 . S
C1516 H1505 0.950 . S
C1516 C1514 1.391 . S
C1516 C1517 1.400 . S
C1517 C1511 1.491 . S
C1517 C1516 1.400 . S
C1517 C1518 1.398 . S
C1518 H1506 0.950 . S
C1518 C1517 1.398 . S
C1518 C1519 1.391 . S
C1519 H1507 0.950 . S
C1519 C1515 1.393 . S
C1519 C1518 1.391 . S
H1520 C1528 0.950 . S
H1521 C1533 0.950 . S
H1522 C1530 0.950 . S
H1523 C1532 0.950 . S
H1524 C1534 0.950 . S
H1525 C1536 0.950 . S
H1526 C1538 0.950 . S
H1527 C1539 0.950 . S
C1528 H1520 0.950 . S
C1528 C1529 1.386 . S
C1528 C1530 1.391 . S
C1529 C1528 1.386 . S
C1529 C1533 1.393 . S
C1530 H1522 0.950 . S
C1530 C1528 1.391 . S
C1530 C1531 1.400 . S
C1531 C1530 1.400 . S
C1531 C1532 1.398 . S
C1531 C1537 1.491 1_565 S
C1532 H1523 0.950 . S
C1532 C1531 1.398 . S
C1532 C1533 1.391 . S
C1533 H1521 0.950 . S
C1533 C1529 1.393 . S
C1533 C1532 1.391 . S
C1534 H1524 0.950 . S
C1534 C1535 1.386 . S
C1534 C1536 1.391 . S
C1535 C1534 1.386 . S
C1535 C1539 1.393 . S
C1536 H1525 0.950 . S
C1536 C1534 1.391 . S
C1536 C1537 1.400 . S
C1537 C1531 1.491 1_545 S
C1537 C1536 1.400 . S
C1537 C1538 1.398 . S
C1538 H1526 0.950 . S
C1538 C1537 1.398 . S
C1538 C1539 1.391 . S
C1539 H1527 0.950 . S
C1539 C1535 1.393 . S
C1539 C1538 1.391 . S
H1540 C1548 0.950 . S
H1541 C1553 0.950 . S
H1542 C1550 0.950 . S
H1543 C1552 0.950 . S
H1544 C1554 0.950 . S
H1545 C1556 0.950 . S
H1546 C1558 0.950 . S
H1547 C1559 0.950 . S
C1548 H1540 0.950 . S
C1548 C1549 1.386 . S
C1548 C1550 1.391 . S
C1549 C1548 1.386 . S
C1549 C1553 1.393 . S
C1550 H1542 0.950 . S
C1550 C1548 1.391 . S
C1550 C1551 1.400 . S
C1551 C1550 1.400 . S
C1551 C1552 1.398 . S
C1551 C1557 1.491 . S
C1552 H1543 0.950 . S
C1552 C1551 1.398 . S
C1552 C1553 1.391 . S
C1553 H1541 0.950 . S
C1553 C1549 1.393 . S
C1553 C1552 1.391 . S
C1554 H1544 0.950 . S
C1554 C1555 1.386 . S
C1554 C1556 1.391 . S
C1555 C1554 1.386 . S
C1555 C1559 1.393 . S
C1556 H1545 0.950 . S
C1556 C1554 1.391 . S
C1556 C1557 1.400 . S
C1557 C1551 1.491 . S
C1557 C1556 1.400 . S
C1557 C1558 1.398 . S
C1558 H1546 0.950 . S
C1558 C1557 1.398 . S
C1558 C1559 1.391 . S
C1559 H1547 0.950 . S
C1559 C1555 1.393 . S
C1559 C1558 1.391 . S
H1560 C1568 0.950 . S
H1561 C1573 0.950 . S
H1562 C1570 0.950 . S
H1563 C1572 0.950 . S
H1564 C1574 0.950 . S
H1565 C1576 0.950 . S
H1566 C1578 0.950 . S
H1567 C1579 0.949 . S
C1568 H1560 0.950 . S
C1568 C1569 1.386 . S
C1568 C1570 1.391 . S
C1569 C1568 1.386 . S
C1569 C1573 1.393 . S
C1570 H1562 0.950 . S
C1570 C1568 1.391 . S
C1570 C1571 1.400 . S
C1571 C1570 1.400 . S
C1571 C1572 1.398 . S
C1571 C1577 1.491 1_545 S
C1572 H1563 0.950 . S
C1572 C1571 1.398 . S
C1572 C1573 1.391 . S
C1573 H1561 0.950 . S
C1573 C1569 1.393 . S
C1573 C1572 1.391 . S
C1574 H1564 0.950 . S
C1574 C1575 1.386 . S
C1574 C1576 1.391 1_554 S
C1575 C1574 1.386 . S
C1575 C1579 1.392 . S
C1576 H1565 0.950 . S
C1576 C1574 1.391 1_556 S
C1576 C1577 1.400 . S
C1577 C1571 1.491 1_565 S
C1577 C1576 1.400 . S
C1577 C1578 1.398 . S
C1578 H1566 0.950 . S
C1578 C1577 1.398 . S
C1578 C1579 1.392 1_556 S
C1579 H1567 0.949 . S
C1579 C1575 1.392 . S
C1579 C1578 1.392 1_554 S
H1580 C1588 0.950 . S
H1581 C1593 0.950 . S
H1582 C1590 0.950 . S
H1583 C1592 0.950 . S
H1584 C1594 0.950 . S
H1585 C1596 0.950 . S
H1586 C1598 0.950 . S
H1587 C1599 0.950 . S
C1588 H1580 0.950 . S
C1588 C1589 1.386 . S
C1588 C1590 1.391 . S
C1589 C1588 1.386 . S
C1589 C1593 1.393 . S
C1590 H1582 0.950 . S
C1590 C1588 1.391 . S
C1590 C1591 1.400 . S
C1591 C1590 1.400 . S
C1591 C1592 1.398 . S
C1591 C1597 1.491 . S
C1592 H1583 0.950 . S
C1592 C1591 1.398 . S
C1592 C1593 1.391 . S
C1593 H1581 0.950 . S
C1593 C1589 1.393 . S
C1593 C1592 1.391 . S
C1594 H1584 0.950 . S
C1594 C1595 1.386 . S
C1594 C1596 1.391 . S
C1595 C1594 1.386 . S
C1595 C1599 1.393 . S
C1596 H1585 0.950 . S
C1596 C1594 1.391 . S
C1596 C1597 1.400 . S
C1597 C1591 1.491 . S
C1597 C1596 1.400 . S
C1597 C1598 1.398 . S
C1598 H1586 0.950 . S
C1598 C1597 1.398 . S
C1598 C1599 1.391 . S
C1599 H1587 0.950 . S
C1599 C1595 1.393 . S
C1599 C1598 1.391 . S
C649 C25 1.683 . S
C655 C4 1.683 . S
C669 C44 1.578 . S
C675 C65 1.578 . S
C689 C84 1.510 . S
C695 C105 1.510 . S
C709 C145 1.467 . S
C715 C124 1.467 . S
C729 C185 1.531 . S
C735 C164 1.531 . S
C749 C225 1.513 . S
C755 C204 1.513 . S
C769 C244 1.452 . S
C775 C265 1.452 1_556 S
C789 C284 1.571 1_554 S
C795 C305 1.571 . S
C809 C324 1.689 . S
C815 C345 1.689 . S
C829 C364 1.568 . S
C835 C385 1.568 . S
C849 C404 1.507 . S
C855 C425 1.507 . S
C869 C444 1.475 . S
C875 C465 1.475 . S
C889 C484 1.541 . S
C895 C505 1.541 . S
C909 C545 1.513 . S
C915 C524 1.513 . S
C929 C585 1.452 . S
C935 C564 1.452 1_554 S
C949 C625 1.574 1_556 S
C955 C604 1.574 . S
C969 C23 1.541 . S
C975 C460 1.650 . S
C989 C71 1.756 . S
C995 C620 1.787 . S
C1009 C111 1.733 . S
C1015 C362 1.679 . S
C1029 C143 1.783 . S
C1035 C540 1.856 . S
C1049 C183 1.606 . S
C1055 C522 1.622 . S
C1069 C442 1.763 . S
C1075 C231 1.864 . S
C1089 C271 1.716 . S
C1095 C602 1.632 . S
C1109 C311 1.781 . S
C1115 C380 1.762 . S
C1129 C151 1.637 . S
C1135 C322 1.563 . S
C1149 C63 1.684 . S
C1155 C420 1.727 . S
C1169 C482 1.589 . S
C1175 C223 1.633 . S
C1189 C303 1.637 . S
C1195 C580 1.717 . S
C1209 C340 1.752 . S
C1215 C191 1.742 . S
C1229 C263 1.707 . S
C1235 C402 1.698 . S
C1249 C103 1.719 . S
C1255 C562 1.686 . S
C1269 C31 1.750 . S
C1275 C500 1.744 . S
C1289 C2 1.427 . S
C1295 C162 1.424 . S
C1309 C60 1.758 . S
C1315 C220 1.763 . S
C1329 C100 1.950 . S
C1335 C260 1.954 . S
C1349 C122 1.800 . S
C1355 C300 1.789 . S
C1369 C503 1.425 . S
C1375 C343 1.427 . S
C1389 C551 1.765 . S
C1395 C391 1.763 . S
C1409 C431 1.947 . S
C1415 C591 1.946 . S
C1429 C631 1.779 . S
C1435 C463 1.798 . S
C1449 C42 1.558 . S
C1455 C282 1.558 . S
C1469 C180 1.900 . S
C1475 C82 1.921 . S
C1489 C202 1.819 . S
C1495 C140 1.818 . S
C1509 C20 1.635 . S
C1515 C242 1.647 . S
C1529 C623 1.558 . S
C1535 C383 1.557 . S
C1549 C511 1.898 . S
C1555 C423 1.922 . S
C1569 C543 1.819 . S
C1575 C471 1.818 . S
C1589 C583 1.646 . S
C1595 C351 1.630 . S
