# Generated by pormake.
# Topology upa, (4)-cn, num edge types: 1
# Building blocks:
#     Node 0, Type 0, BuildingBlock: CEKHIL_clean_sbu_0, # of connection points: 4
#     Node 1, Type 0, BuildingBlock: CEKHIL_clean_sbu_0, # of connection points: 4
#     Node 2, Type 0, BuildingBlock: CEKHIL_clean_sbu_0, # of connection points: 4
#     Node 3, Type 0, BuildingBlock: CEKHIL_clean_sbu_0, # of connection points: 4
#     Node 4, Type 0, BuildingBlock: CEKHIL_clean_sbu_0, # of connection points: 4
#     Node 5, Type 0, BuildingBlock: CEKHIL_clean_sbu_0, # of connection points: 4
#     Node 6, Type 0, BuildingBlock: CEKHIL_clean_sbu_0, # of connection points: 4
#     Node 7, Type 0, BuildingBlock: CEKHIL_clean_sbu_0, # of connection points: 4
#     Edge 8, Type (0, 0), BuildingBlock: EZIPEK_clean_linker_0, # of connection points: 2
#     Edge 9, Type (0, 0), BuildingBlock: EZIPEK_clean_linker_0, # of connection points: 2
#     Edge 10, Type (0, 0), BuildingBlock: EZIPEK_clean_linker_0, # of connection points: 2
#     Edge 11, Type (0, 0), BuildingBlock: EZIPEK_clean_linker_0, # of connection points: 2
#     Edge 12, Type (0, 0), BuildingBlock: EZIPEK_clean_linker_0, # of connection points: 2
#     Edge 13, Type (0, 0), BuildingBlock: EZIPEK_clean_linker_0, # of connection points: 2
#     Edge 14, Type (0, 0), BuildingBlock: EZIPEK_clean_linker_0, # of connection points: 2
#     Edge 15, Type (0, 0), BuildingBlock: EZIPEK_clean_linker_0, # of connection points: 2
#     Edge 16, Type (0, 0), BuildingBlock: EZIPEK_clean_linker_0, # of connection points: 2
#     Edge 17, Type (0, 0), BuildingBlock: EZIPEK_clean_linker_0, # of connection points: 2
#     Edge 18, Type (0, 0), BuildingBlock: EZIPEK_clean_linker_0, # of connection points: 2
#     Edge 19, Type (0, 0), BuildingBlock: EZIPEK_clean_linker_0, # of connection points: 2
#     Edge 20, Type (0, 0), BuildingBlock: EZIPEK_clean_linker_0, # of connection points: 2
#     Edge 21, Type (0, 0), BuildingBlock: EZIPEK_clean_linker_0, # of connection points: 2
#     Edge 22, Type (0, 0), BuildingBlock: EZIPEK_clean_linker_0, # of connection points: 2
#     Edge 23, Type (0, 0), BuildingBlock: EZIPEK_clean_linker_0, # of connection points: 2
# Relax obj value: 0.238
# Max RMSD: 0.138
# Mean RMSD: 0.138
data_MOF--net-upa--node1-CEKHIL_clean_sbu_0--edge1-EZIPEK_clean_linker_0
_symmetry_space_group_name_H-M    P1
_symmetry_Int_Tables_number       1
_symmetry_cell_setting            triclinic
loop_
_symmetry_equiv_pos_as_xyz
'x, y, z'
_cell_length_a     18.733586
_cell_length_b     18.746917
_cell_length_c     31.537077
_cell_angle_alpha  89.999811
_cell_angle_beta   89.999707
_cell_angle_gamma 89.983053
loop_
_atom_site_label
_atom_site_type_symbol
_atom_site_fract_x
_atom_site_fract_y
_atom_site_fract_z
_atom_type_partial_charge
Co0 Co 0.20906 0.23713 0.32323 0.0
O1 O 0.29272 0.29458 0.30748 0.0
O2 O 0.29292 0.17764 0.31344 0.0
C3 C 0.12349 0.28692 0.27869 0.0
O4 O 0.13756 0.15865 0.33536 0.0
Co5 Co 0.07448 0.3037 0.36615 0.0
O6 O 0.03307 0.20729 0.356 0.0
C7 C 0.20046 0.27501 0.41905 0.0
C8 C 0.3283 0.23513 0.30431 0.0
C9 C 0.07125 0.15384 0.34541 0.0
O10 O 0.23163 0.24425 0.38712 0.0
O11 O 0.14169 0.30938 0.4156 0.0
O12 O 0.17066 0.24156 0.26494 0.0
O13 O 0.1365 0.30715 0.31714 0.0
Co14 Co 0.27905 0.71066 0.82049 0.0
O15 O 0.22324 0.79301 0.80071 0.0
O16 O 0.33928 0.7943 0.81095 0.0
C17 C 0.23231 0.62323 0.77598 0.0
O18 O 0.35652 0.63924 0.83737 0.0
Co19 Co 0.21064 0.57863 0.86396 0.0
O20 O 0.30423 0.53398 0.85253 0.0
C21 C 0.24491 0.70498 0.91679 0.0
C22 C 0.28257 0.82906 0.79936 0.0
C23 C 0.35927 0.57186 0.84544 0.0
O24 O 0.26466 0.73912 0.883 0.0
O25 O 0.22095 0.64106 0.91526 0.0
O26 O 0.28016 0.66859 0.76312 0.0
O27 O 0.20889 0.63805 0.81363 0.0
Co28 Co 0.80921 0.78179 0.32627 0.0
O29 O 0.73171 0.71802 0.30947 0.0
O30 O 0.72219 0.83412 0.31233 0.0
C31 C 0.90037 0.73552 0.28438 0.0
O32 O 0.87389 0.86592 0.34005 0.0
Co33 Co 0.94504 0.72947 0.37325 0.0
O34 O 0.98316 0.82315 0.3552 0.0
C35 C 0.81391 0.75562 0.42334 0.0
C36 C 0.69146 0.77379 0.30365 0.0
C37 C 0.94117 0.87454 0.34654 0.0
O38 O 0.78032 0.77298 0.38889 0.0
O39 O 0.87906 0.73486 0.42335 0.0
O40 O 0.85209 0.77834 0.26933 0.0
O41 O 0.88675 0.71635 0.32303 0.0
Co42 Co 0.73306 0.30584 0.82712 0.0
O43 O 0.79756 0.23087 0.80636 0.0
O44 O 0.68258 0.21668 0.81782 0.0
C45 C 0.76695 0.39884 0.78344 0.0
O46 O 0.64706 0.36564 0.84521 0.0
Co47 Co 0.77926 0.44667 0.87054 0.0
O48 O 0.68297 0.47877 0.85295 0.0
C49 C 0.76421 0.31592 0.92319 0.0
C50 C 0.74221 0.18877 0.8052 0.0
C51 C 0.63366 0.43274 0.84832 0.0
O52 O 0.75183 0.27894 0.88928 0.0
O53 O 0.77626 0.38316 0.92181 0.0
O54 O 0.72709 0.34712 0.76961 0.0
O55 O 0.79294 0.3873 0.8209 0.0
Co56 Co 0.70993 0.27761 0.19431 0.0
O57 O 0.79286 0.22369 0.2149 0.0
O58 O 0.79293 0.33919 0.2027 0.0
C59 C 0.623 0.2325 0.23975 0.0
O60 O 0.6374 0.353 0.17592 0.0
Co61 Co 0.57943 0.20431 0.152 0.0
O62 O 0.53363 0.29816 0.16002 0.0
C63 C 0.70426 0.24126 0.09855 0.0
C64 C 0.8283 0.28337 0.21512 0.0
C65 C 0.5704 0.35412 0.16654 0.0
O66 O 0.73863 0.26094 0.1322 0.0
O67 O 0.64058 0.21666 0.1003 0.0
O68 O 0.66804 0.28133 0.25157 0.0
O69 O 0.63819 0.20693 0.20263 0.0
Co70 Co 0.23562 0.21046 0.69045 0.0
O71 O 0.29316 0.29374 0.70687 0.0
O72 O 0.17632 0.29448 0.70021 0.0
C73 C 0.28452 0.12415 0.73492 0.0
O74 O 0.15697 0.13943 0.67778 0.0
Co75 Co 0.30242 0.0765 0.6471 0.0
O76 O 0.20547 0.03557 0.65607 0.0
C77 C 0.27381 0.20273 0.59454 0.0
C78 C 0.2338 0.32961 0.70976 0.0
C79 C 0.152 0.07354 0.66695 0.0
O80 O 0.24338 0.23372 0.62664 0.0
O81 O 0.30766 0.14366 0.59767 0.0
O82 O 0.23919 0.17139 0.74861 0.0
O83 O 0.30534 0.1375 0.69661 0.0
Co84 Co 0.306 0.72594 0.18786 0.0
O85 O 0.23229 0.7887 0.21191 0.0
O86 O 0.21642 0.67532 0.19635 0.0
C87 C 0.39978 0.75463 0.2324 0.0
O88 O 0.3639 0.64158 0.16578 0.0
Co89 Co 0.44592 0.77505 0.14534 0.0
O90 O 0.47709 0.67597 0.15661 0.0
C91 C 0.3146 0.76423 0.09273 0.0
C92 C 0.18985 0.73368 0.21169 0.0
C93 C 0.4303 0.62719 0.1604 0.0
O94 O 0.27769 0.75127 0.12663 0.0
O95 O 0.3821 0.77489 0.09416 0.0
O96 O 0.34889 0.71224 0.24452 0.0
O97 O 0.38825 0.78504 0.19612 0.0
Co98 Co 0.78548 0.80788 0.69089 0.0
O99 O 0.72557 0.73008 0.71168 0.0
O100 O 0.84038 0.72025 0.69847 0.0
C101 C 0.74694 0.89638 0.73704 0.0
O102 O 0.8663 0.87368 0.67285 0.0
Co103 Co 0.72427 0.94589 0.65042 0.0
O104 O 0.82046 0.98361 0.66398 0.0
C105 C 0.73707 0.81589 0.5968 0.0
C106 C 0.78233 0.69004 0.71204 0.0
C107 C 0.87335 0.94157 0.66845 0.0
O108 O 0.76512 0.78238 0.62865 0.0
O109 O 0.71639 0.88081 0.60011 0.0
O110 O 0.79277 0.84803 0.74848 0.0
O111 O 0.72091 0.88443 0.6997 0.0
C112 C 0.05438 0.0332 0.3778 0.0
C113 C 0.03776 0.08251 0.34521 0.0
C114 C 0.9612 0.99335 0.31118 0.0
C115 C 0.97126 0.94751 0.34652 0.0
N116 N 0.01244 0.93266 0.41863 0.0
N117 N 0.96709 0.11396 0.28396 0.0
C118 C 0.01361 0.96993 0.38136 0.0
C119 C 0.98815 0.06413 0.31298 0.0
N120 N 0.10972 0.04586 0.40499 0.0
N121 N 0.9297 0.96833 0.27502 0.0
H122 H 0.98777 0.16548 0.2833 0.0
H123 H 0.92536 0.10579 0.26266 0.0
H124 H 0.91177 0.91601 0.2717 0.0
H125 H 0.92774 0.9973 0.24686 0.0
H126 H 0.12792 0.0082 0.42677 0.0
H127 H 0.14219 0.09079 0.40294 0.0
H128 H 0.03707 0.95078 0.44623 0.0
H129 H 0.98016 0.88805 0.42343 0.0
C130 C 0.47588 0.5468 0.88147 0.0
C131 C 0.42917 0.53538 0.84677 0.0
C132 C 0.50836 0.44248 0.81857 0.0
C133 C 0.55866 0.45865 0.85092 0.0
N134 N 0.58125 0.50823 0.9201 0.0
N135 N 0.40434 0.48089 0.77925 0.0
C136 C 0.53994 0.50618 0.88432 0.0
C137 C 0.446 0.485 0.81475 0.0
N138 N 0.45933 0.59726 0.91127 0.0
N139 N 0.51819 0.38516 0.79241 0.0
H140 H 0.35907 0.51223 0.77506 0.0
H141 H 0.41809 0.45203 0.75225 0.0
H142 H 0.5621 0.35144 0.79375 0.0
H143 H 0.47911 0.36619 0.77182 0.0
H144 H 0.49429 0.61441 0.93476 0.0
H145 H 0.41132 0.62546 0.91129 0.0
H146 H 0.56854 0.53697 0.94727 0.0
H147 H 0.62541 0.47507 0.92442 0.0
C148 C 0.47918 0.43905 0.19405 0.0
C149 C 0.53264 0.42313 0.1637 0.0
C150 C 0.50532 0.53362 0.12543 0.0
C151 C 0.45496 0.55174 0.15746 0.0
N152 N 0.37635 0.50907 0.21337 0.0
N153 N 0.59875 0.45354 0.10074 0.0
C154 C 0.43609 0.50063 0.18893 0.0
C155 C 0.54617 0.46984 0.12928 0.0
N156 N 0.47273 0.39758 0.22952 0.0
N157 N 0.51006 0.5754 0.08995 0.0
H158 H 0.62709 0.40565 0.1014 0.0
H159 H 0.61718 0.48837 0.07754 0.0
H160 H 0.47667 0.61915 0.08485 0.0
H161 H 0.54147 0.56358 0.0637 0.0
H162 H 0.44165 0.41127 0.25566 0.0
H163 H 0.50414 0.3527 0.23477 0.0
H164 H 0.35571 0.46875 0.23249 0.0
H165 H 0.34265 0.55292 0.21222 0.0
C166 C 0.06475 0.98736 0.69868 0.0
C167 C 0.08075 0.03978 0.66761 0.0
C168 C 0.96533 0.0187 0.63371 0.0
C169 C 0.9459 0.9727 0.6675 0.0
N170 N 0.97189 0.92546 0.73715 0.0
N171 N 0.03971 0.11674 0.61109 0.0
C172 C 0.99427 0.95991 0.70133 0.0
C173 C 0.02899 0.05916 0.63687 0.0
N174 N 0.11646 0.96421 0.72596 0.0
N175 N 0.92467 0.02151 0.59774 0.0
H176 H 0.08502 0.14876 0.61273 0.0
H177 H 1.00044 0.13696 0.59101 0.0
H178 H 0.87926 0.99019 0.59332 0.0
H179 H 0.94035 0.04885 0.57052 0.0
H180 H 0.10993 0.92041 0.74593 0.0
H181 H 0.16777 0.98547 0.72651 0.0
H182 H 1.00271 0.92156 0.76454 0.0
H183 H 0.91992 0.90708 0.74126 0.0
C184 C 0.28013 0.29217 0.48418 0.0
C185 C 0.22262 0.25676 0.46356 0.0
C186 C 0.20222 0.18538 0.52796 0.0
C187 C 0.25499 0.22513 0.55017 0.0
N188 N 0.34049 0.32064 0.55078 0.0
N189 N 0.1188 0.18061 0.4698 0.0
C190 C 0.29288 0.28 0.52863 0.0
C191 C 0.18078 0.20675 0.48667 0.0
N192 N 0.32264 0.33694 0.46119 0.0
N193 N 0.17383 0.12506 0.5456 0.0
H194 H 0.10117 0.19212 0.43925 0.0
H195 H 0.08163 0.15177 0.48742 0.0
H196 H 0.18606 0.10735 0.57604 0.0
H197 H 0.14248 0.08903 0.52868 0.0
H198 H 0.36933 0.35973 0.47284 0.0
H199 H 0.31337 0.34765 0.42919 0.0
H200 H 0.3656 0.36556 0.53842 0.0
H201 H 0.35129 0.31189 0.58283 0.0
C202 C 0.30983 0.78197 0.97306 0.0
C203 C 0.25162 0.73767 0.96066 0.0
C204 C 0.22401 0.71825 0.03645 0.0
C205 C 0.28106 0.76437 0.04878 0.0
N206 N 0.35229 0.86486 0.02615 0.0
N207 N 0.13618 0.69311 0.9821 0.0
C208 C 0.31515 0.80454 0.01616 0.0
C209 C 0.20303 0.71569 0.99291 0.0
N210 N 0.36315 0.79921 0.94538 0.0
N211 N 0.19196 0.67331 0.06472 0.0
H212 H 0.11748 0.69498 0.95094 0.0
H213 H 0.09702 0.68168 1.0046 0.0
H214 H 0.20509 0.66967 0.09659 0.0
H215 H 0.15577 0.63417 0.05525 0.0
H216 H 0.40926 0.82581 0.95503 0.0
H217 H 0.36593 0.78113 0.9143 0.0
H218 H 0.37388 0.89849 1.00313 0.0
H219 H 0.35307 0.88569 0.05685 0.0
C220 C 0.70529 0.82414 0.51877 0.0
C221 C 0.73586 0.78353 0.55232 0.0
C222 C 0.78954 0.70669 0.49709 0.0
C223 C 0.77771 0.76083 0.46603 0.0
N224 N 0.72763 0.87749 0.45064 0.0
N225 N 0.79357 0.67244 0.57126 0.0
C226 C 0.73561 0.8209 0.4775 0.0
C227 C 0.77385 0.7204 0.54091 0.0
N228 N 0.64539 0.8638 0.52582 0.0
N229 N 0.81221 0.64079 0.48432 0.0
H230 H 0.76958 0.67024 0.60099 0.0
H231 H 0.83194 0.63312 0.56624 0.0
H232 H 0.8194 0.62769 0.45245 0.0
H233 H 0.8162 0.59701 0.5045 0.0
H234 H 0.61854 0.89053 0.50158 0.0
H235 H 0.61729 0.86101 0.55436 0.0
H236 H 0.70238 0.92458 0.45989 0.0
H237 H 0.75232 0.8811 0.42118 0.0
C238 C 0.80367 0.31439 0.99992 0.0
C239 C 0.76267 0.28229 0.96698 0.0
C240 C 0.71303 0.20292 0.02172 0.0
C241 C 0.73626 0.24958 0.05463 0.0
N242 N 0.79885 0.36017 0.07114 0.0
N243 N 0.66814 0.19744 0.95025 0.0
C244 C 0.78112 0.30783 0.04293 0.0
C245 C 0.71508 0.22615 0.97863 0.0
N246 N 0.8647 0.35073 0.99037 0.0
N247 N 0.68961 0.13593 0.03139 0.0
H248 H 0.66275 0.21416 0.91904 0.0
H249 H 0.62865 0.16134 0.95933 0.0
H250 H 0.69207 0.11541 0.06212 0.0
H251 H 0.67692 0.09836 0.00818 0.0
H252 H 0.89873 0.37082 0.01367 0.0
H253 H 0.88561 0.35224 0.9597 0.0
H254 H 0.82609 0.40616 0.06194 0.0
H255 H 0.78034 0.36269 0.10213 0.0
C256 C 0.49633 0.1804 0.24218 0.0
C257 C 0.55119 0.22079 0.26215 0.0
C258 C 0.46089 0.26106 0.31511 0.0
C259 C 0.40519 0.23184 0.28983 0.0
N260 N 0.37033 0.17014 0.22606 0.0
N261 N 0.58756 0.28443 0.32514 0.0
C262 C 0.42319 0.19317 0.25258 0.0
C263 C 0.5339 0.25675 0.30092 0.0
N264 N 0.5139 0.12547 0.21575 0.0
N265 N 0.44419 0.28984 0.35373 0.0
H266 H 0.6403 0.26749 0.32225 0.0
H267 H 0.57992 0.32159 0.3492 0.0
H268 H 0.39197 0.29338 0.36498 0.0
H269 H 0.48151 0.30686 0.37591 0.0
H270 H 0.47625 0.09082 0.20282 0.0
H271 H 0.56616 0.10734 0.21234 0.0
H272 H 0.38056 0.14868 0.19618 0.0
H273 H 0.31625 0.17884 0.23203 0.0
C274 C 0.25133 0.96107 0.80771 0.0
C275 C 0.28643 0.90592 0.78471 0.0
C276 C 0.33813 0.99774 0.7373 0.0
C277 C 0.29591 0.05189 0.75674 0.0
N278 N 0.24186 0.08776 0.8228 0.0
N279 N 0.35642 0.87153 0.72395 0.0
C280 C 0.2603 0.03437 0.79542 0.0
C281 C 0.32842 0.92439 0.74874 0.0
N282 N 0.20877 0.94354 0.84133 0.0
N283 N 0.39261 0.01674 0.71082 0.0
H284 H 0.35008 0.81743 0.73069 0.0
H285 H 0.37994 0.88103 0.69456 0.0
H286 H 0.40825 0.06959 0.70661 0.0
H287 H 0.42927 0.98051 0.69845 0.0
H288 H 0.17382 0.97929 0.85573 0.0
H289 H 0.20478 0.89184 0.85326 0.0
H290 H 0.22048 0.07909 0.85281 0.0
H291 H 0.25828 0.14034 0.81853 0.0
C292 C 0.59117 0.70758 0.26449 0.0
C293 C 0.61504 0.76897 0.28712 0.0
C294 C 0.49709 0.82375 0.27188 0.0
C295 C 0.47138 0.75856 0.25471 0.0
N296 N 0.4903 0.63104 0.25198 0.0
N297 N 0.5766 0.87663 0.32351 0.0
C298 C 0.51696 0.69807 0.25671 0.0
C299 C 0.56417 0.82497 0.2939 0.0
N300 N 0.63851 0.66004 0.24759 0.0
N301 N 0.45696 0.88424 0.26846 0.0
H302 H 0.61943 0.87511 0.34449 0.0
H303 H 0.53884 0.91521 0.33148 0.0
H304 H 0.40609 0.88461 0.25499 0.0
H305 H 0.4765 0.93452 0.27652 0.0
H306 H 0.62216 0.61736 0.2287 0.0
H307 H 0.69332 0.6689 0.24657 0.0
H308 H 0.52156 0.58548 0.25612 0.0
H309 H 0.43596 0.62111 0.24943 0.0
C310 C 0.78784 0.0603 0.80805 0.0
C311 C 0.74446 0.11326 0.78853 0.0
C312 C 0.68931 0.01964 0.74414 0.0
C313 C 0.73806 0.96776 0.75996 0.0
N314 N 0.80879 0.93438 0.82087 0.0
N315 N 0.66295 0.14459 0.73238 0.0
C316 C 0.78113 0.98682 0.79565 0.0
C317 C 0.69752 0.09307 0.75519 0.0
N318 N 0.8355 0.08 0.8387 0.0
N319 N 0.63056 0.99811 0.72188 0.0
H320 H 0.66884 0.19898 0.73839 0.0
H321 H 0.63463 0.13385 0.70467 0.0
H322 H 0.61664 0.94458 0.71858 0.0
H323 H 0.58982 0.03261 0.71266 0.0
H324 H 0.87567 0.04666 0.85 0.0
H325 H 0.83824 0.1315 0.85102 0.0
H326 H 0.83678 0.94393 0.84878 0.0
H327 H 0.79408 0.88108 0.81804 0.0
C328 C 0.03384 0.26335 0.21811 0.0
C329 C 0.0513 0.29854 0.25689 0.0
C330 C 0.92368 0.3304 0.26525 0.0
C331 C 0.90528 0.28841 0.22931 0.0
N332 N 0.94295 0.21168 0.17228 0.0
N333 N 0.01604 0.39464 0.30317 0.0
C334 C 0.96049 0.25403 0.20597 0.0
C335 C 0.99707 0.34036 0.27657 0.0
N336 N 0.08726 0.24545 0.19061 0.0
N337 N 0.87075 0.35821 0.29009 0.0
H338 H 0.06891 0.4104 0.30731 0.0
H339 H 0.97974 0.43097 0.31579 0.0
H340 H 0.81662 0.35195 0.2833 0.0
H341 H 0.88022 0.38167 0.3195 0.0
H342 H 0.07857 0.22439 0.16052 0.0
H343 H 0.13985 0.26192 0.19496 0.0
H344 H 0.97889 0.17731 0.15756 0.0
H345 H 0.89108 0.20728 0.16059 0.0
C346 C 0.26279 0.46216 0.70139 0.0
C347 C 0.23031 0.40614 0.72496 0.0
C348 C 0.17968 0.49635 0.77381 0.0
C349 C 0.22005 0.55136 0.75393 0.0
N350 N 0.27018 0.58944 0.6873 0.0
N351 N 0.16532 0.36981 0.78731 0.0
C352 C 0.2536 0.5351 0.71442 0.0
C353 C 0.19039 0.4234 0.76197 0.0
N354 N 0.3031 0.44576 0.66661 0.0
N355 N 0.1259 0.51396 0.80111 0.0
H356 H 0.17274 0.31589 0.78044 0.0
H357 H 0.14348 0.37875 0.81722 0.0
H358 H 0.10894 0.56637 0.80548 0.0
H359 H 0.09068 0.47678 0.81392 0.0
H360 H 0.33611 0.48228 0.65133 0.0
H361 H 0.30725 0.39421 0.65446 0.0
H362 H 0.28995 0.5819 0.6568 0.0
H363 H 0.25415 0.64188 0.69271 0.0
C364 C 0.10283 0.70923 0.27115 0.0
C365 C 0.11527 0.73522 0.22956 0.0
C366 C 0.98467 0.74814 0.21985 0.0
C367 C 0.97247 0.72392 0.26236 0.0
N368 N 0.02041 0.64831 0.31756 0.0
N369 N 0.06837 0.76944 0.16169 0.0
C370 C 0.03164 0.69508 0.28506 0.0
C371 C 0.05613 0.7522 0.20322 0.0
N372 N 0.15926 0.69811 0.29777 0.0
N373 N 0.92772 0.76393 0.19452 0.0
H374 H 0.11961 0.77462 0.14909 0.0
H375 H 0.02863 0.77577 0.139 0.0
H376 H 0.87658 0.74469 0.20063 0.0
H377 H 0.93123 0.79318 0.16657 0.0
H378 H 0.15304 0.68674 0.32991 0.0
H379 H 0.2121 0.70688 0.2887 0.0
H380 H 0.06163 0.6219 0.33323 0.0
H381 H 0.97046 0.62656 0.32406 0.0
C382 C 0.71486 0.50128 0.73776 0.0
C383 C 0.77257 0.47121 0.76166 0.0
C384 C 0.83496 0.58709 0.75536 0.0
C385 C 0.78088 0.61387 0.72787 0.0
N386 N 0.68009 0.58565 0.68337 0.0
N387 N 0.897 0.48229 0.78097 0.0
C388 C 0.72419 0.56766 0.71618 0.0
C389 C 0.83545 0.5132 0.76677 0.0
N390 N 0.64928 0.46971 0.73725 0.0
N391 N 0.88417 0.63237 0.77257 0.0
H392 H 0.90149 0.42775 0.78686 0.0
H393 H 0.94572 0.50913 0.7817 0.0
H394 H 0.88388 0.68723 0.76731 0.0
H395 H 0.92024 0.61648 0.7959 0.0
H396 H 0.60428 0.49424 0.72435 0.0
H397 H 0.63713 0.42349 0.75362 0.0
H398 H 0.6424 0.55057 0.67084 0.0
H399 H 0.68673 0.63189 0.66543 0.0
loop_
_geom_bond_atom_site_label_1
_geom_bond_atom_site_label_2
_geom_bond_distance
_geom_bond_site_symmetry_2
_ccdc_geom_bond_type
Co0 O1 2.216 . S
Co0 O2 2.091 . S
Co0 O4 2.004 . S
Co0 O10 2.021 . S
Co0 O12 2.137 . S
Co0 O13 2.244 . S
O1 Co0 2.216 . S
O1 C8 1.247 . S
O2 Co0 2.091 . S
O2 C8 1.261 . S
C3 O12 1.247 . S
C3 O13 1.272 . S
O4 Co0 2.004 . S
O4 C9 1.259 . S
Co5 O6 2.061 . S
Co5 O11 2.052 . S
Co5 O13 2.135 . S
O6 Co5 2.061 . S
O6 C9 1.235 . S
C7 O10 1.238 . S
C7 O11 1.241 . S
C8 O1 1.247 . S
C8 O2 1.261 . S
C9 O4 1.259 . S
C9 O6 1.235 . S
O10 Co0 2.021 . S
O10 C7 1.238 . S
O11 Co5 2.052 . S
O11 C7 1.241 . S
O12 Co0 2.137 . S
O12 C3 1.247 . S
O13 Co0 2.244 . S
O13 C3 1.272 . S
O13 Co5 2.135 . S
Co14 O15 2.216 . S
Co14 O16 2.091 . S
Co14 O18 2.004 . S
Co14 O24 2.021 . S
Co14 O26 2.137 . S
Co14 O27 2.244 . S
O15 Co14 2.216 . S
O15 C22 1.247 . S
O16 Co14 2.091 . S
O16 C22 1.261 . S
C17 O26 1.247 . S
C17 O27 1.272 . S
O18 Co14 2.004 . S
O18 C23 1.259 . S
Co19 O20 2.061 . S
Co19 O25 2.052 . S
Co19 O27 2.135 . S
O20 Co19 2.061 . S
O20 C23 1.235 . S
C21 O24 1.238 . S
C21 O25 1.241 . S
C22 O15 1.247 . S
C22 O16 1.261 . S
C23 O18 1.259 . S
C23 O20 1.235 . S
O24 Co14 2.021 . S
O24 C21 1.238 . S
O25 Co19 2.052 . S
O25 C21 1.241 . S
O26 Co14 2.137 . S
O26 C17 1.247 . S
O27 Co14 2.244 . S
O27 C17 1.272 . S
O27 Co19 2.135 . S
Co28 O29 2.216 . S
Co28 O30 2.091 . S
Co28 O32 2.004 . S
Co28 O38 2.021 . S
Co28 O40 2.137 . S
Co28 O41 2.244 . S
O29 Co28 2.216 . S
O29 C36 1.247 . S
O30 Co28 2.091 . S
O30 C36 1.261 . S
C31 O40 1.247 . S
C31 O41 1.272 . S
O32 Co28 2.004 . S
O32 C37 1.259 . S
Co33 O34 2.061 . S
Co33 O39 2.052 . S
Co33 O41 2.135 . S
O34 Co33 2.061 . S
O34 C37 1.235 . S
C35 O38 1.238 . S
C35 O39 1.241 . S
C36 O29 1.247 . S
C36 O30 1.261 . S
C37 O32 1.259 . S
C37 O34 1.235 . S
O38 Co28 2.021 . S
O38 C35 1.238 . S
O39 Co33 2.052 . S
O39 C35 1.241 . S
O40 Co28 2.137 . S
O40 C31 1.247 . S
O41 Co28 2.244 . S
O41 C31 1.272 . S
O41 Co33 2.135 . S
Co42 O43 2.216 . S
Co42 O44 2.091 . S
Co42 O46 2.004 . S
Co42 O52 2.021 . S
Co42 O54 2.137 . S
Co42 O55 2.244 . S
O43 Co42 2.216 . S
O43 C50 1.247 . S
O44 Co42 2.091 . S
O44 C50 1.261 . S
C45 O54 1.247 . S
C45 O55 1.272 . S
O46 Co42 2.004 . S
O46 C51 1.259 . S
Co47 O48 2.061 . S
Co47 O53 2.052 . S
Co47 O55 2.135 . S
O48 Co47 2.061 . S
O48 C51 1.235 . S
C49 O52 1.238 . S
C49 O53 1.241 . S
C50 O43 1.247 . S
C50 O44 1.261 . S
C51 O46 1.259 . S
C51 O48 1.235 . S
O52 Co42 2.021 . S
O52 C49 1.238 . S
O53 Co47 2.052 . S
O53 C49 1.241 . S
O54 Co42 2.137 . S
O54 C45 1.247 . S
O55 Co42 2.244 . S
O55 C45 1.272 . S
O55 Co47 2.135 . S
Co56 O57 2.216 . S
Co56 O58 2.091 . S
Co56 O60 2.004 . S
Co56 O66 2.021 . S
Co56 O68 2.137 . S
Co56 O69 2.244 . S
O57 Co56 2.216 . S
O57 C64 1.247 . S
O58 Co56 2.091 . S
O58 C64 1.261 . S
C59 O68 1.247 . S
C59 O69 1.272 . S
O60 Co56 2.004 . S
O60 C65 1.259 . S
Co61 O62 2.061 . S
Co61 O67 2.052 . S
Co61 O69 2.135 . S
O62 Co61 2.061 . S
O62 C65 1.235 . S
C63 O66 1.238 . S
C63 O67 1.241 . S
C64 O57 1.247 . S
C64 O58 1.261 . S
C65 O60 1.259 . S
C65 O62 1.235 . S
O66 Co56 2.021 . S
O66 C63 1.238 . S
O67 Co61 2.052 . S
O67 C63 1.241 . S
O68 Co56 2.137 . S
O68 C59 1.247 . S
O69 Co56 2.244 . S
O69 C59 1.272 . S
O69 Co61 2.135 . S
Co70 O71 2.216 . S
Co70 O72 2.091 . S
Co70 O74 2.004 . S
Co70 O80 2.021 . S
Co70 O82 2.137 . S
Co70 O83 2.244 . S
O71 Co70 2.216 . S
O71 C78 1.247 . S
O72 Co70 2.091 . S
O72 C78 1.261 . S
C73 O82 1.247 . S
C73 O83 1.272 . S
O74 Co70 2.004 . S
O74 C79 1.259 . S
Co75 O76 2.061 . S
Co75 O81 2.052 . S
Co75 O83 2.135 . S
O76 Co75 2.061 . S
O76 C79 1.235 . S
C77 O80 1.238 . S
C77 O81 1.241 . S
C78 O71 1.247 . S
C78 O72 1.261 . S
C79 O74 1.259 . S
C79 O76 1.235 . S
O80 Co70 2.021 . S
O80 C77 1.238 . S
O81 Co75 2.052 . S
O81 C77 1.241 . S
O82 Co70 2.137 . S
O82 C73 1.247 . S
O83 Co70 2.244 . S
O83 C73 1.272 . S
O83 Co75 2.135 . S
Co84 O85 2.216 . S
Co84 O86 2.091 . S
Co84 O88 2.004 . S
Co84 O94 2.021 . S
Co84 O96 2.137 . S
Co84 O97 2.244 . S
O85 Co84 2.216 . S
O85 C92 1.247 . S
O86 Co84 2.091 . S
O86 C92 1.261 . S
C87 O96 1.247 . S
C87 O97 1.272 . S
O88 Co84 2.004 . S
O88 C93 1.259 . S
Co89 O90 2.061 . S
Co89 O95 2.052 . S
Co89 O97 2.135 . S
O90 Co89 2.061 . S
O90 C93 1.235 . S
C91 O94 1.238 . S
C91 O95 1.241 . S
C92 O85 1.247 . S
C92 O86 1.261 . S
C93 O88 1.259 . S
C93 O90 1.235 . S
O94 Co84 2.021 . S
O94 C91 1.238 . S
O95 Co89 2.052 . S
O95 C91 1.241 . S
O96 Co84 2.137 . S
O96 C87 1.247 . S
O97 Co84 2.244 . S
O97 C87 1.272 . S
O97 Co89 2.135 . S
Co98 O99 2.216 . S
Co98 O100 2.091 . S
Co98 O102 2.004 . S
Co98 O108 2.021 . S
Co98 O110 2.137 . S
Co98 O111 2.244 . S
O99 Co98 2.216 . S
O99 C106 1.247 . S
O100 Co98 2.091 . S
O100 C106 1.261 . S
C101 O110 1.247 . S
C101 O111 1.272 . S
O102 Co98 2.004 . S
O102 C107 1.259 . S
Co103 O104 2.061 . S
Co103 O109 2.052 . S
Co103 O111 2.135 . S
O104 Co103 2.061 . S
O104 C107 1.235 . S
C105 O108 1.238 . S
C105 O109 1.241 . S
C106 O99 1.247 . S
C106 O100 1.261 . S
C107 O102 1.259 . S
C107 O104 1.235 . S
O108 Co98 2.021 . S
O108 C105 1.238 . S
O109 Co103 2.052 . S
O109 C105 1.241 . S
O110 Co98 2.137 . S
O110 C101 1.247 . S
O111 Co98 2.244 . S
O111 C101 1.272 . S
O111 Co103 2.135 . S
C112 C113 1.363 . S
C112 C118 1.378 1_445 S
C112 N120 1.356 . S
C113 C112 1.363 . S
C113 C119 1.364 . S
C114 C115 1.363 . S
C114 C119 1.378 1_665 S
C114 N121 1.356 . S
C115 C114 1.363 . S
C115 C118 1.364 . S
N116 C118 1.356 . S
N116 H128 0.984 1_655 S
N116 H129 0.985 . S
N117 C119 1.356 . S
N117 H122 0.984 . S
N117 H123 0.985 1_455 S
C118 C112 1.378 1_665 S
C118 C115 1.364 . S
C118 N116 1.356 . S
C119 C113 1.364 . S
C119 C114 1.378 1_445 S
C119 N117 1.356 . S
N120 C112 1.356 . S
N120 H126 0.984 1_545 S
N120 H127 0.984 . S
N121 C114 1.356 . S
N121 H124 0.984 . S
N121 H125 0.985 1_565 S
H122 N117 0.984 . S
H123 N117 0.985 1_655 S
H124 N121 0.984 . S
H125 N121 0.985 1_545 S
H126 N120 0.984 1_565 S
H127 N120 0.984 . S
H128 N116 0.984 1_455 S
H129 N116 0.985 . S
C130 C131 1.363 . S
C130 C136 1.379 . S
C130 N138 1.356 . S
C131 C130 1.363 . S
C131 C137 1.363 . S
C132 C133 1.363 . S
C132 C137 1.379 . S
C132 N139 1.356 . S
C133 C132 1.363 . S
C133 C136 1.363 . S
N134 C136 1.356 . S
N134 H146 0.984 . S
N134 H147 0.985 . S
N135 C137 1.356 . S
N135 H140 0.984 . S
N135 H141 0.985 . S
C136 C130 1.379 . S
C136 C133 1.363 . S
C136 N134 1.356 . S
C137 C131 1.363 . S
C137 C132 1.379 . S
C137 N135 1.356 . S
N138 C130 1.356 . S
N138 H144 0.984 . S
N138 H145 0.984 . S
N139 C132 1.356 . S
N139 H142 0.984 . S
N139 H143 0.985 . S
H140 N135 0.984 . S
H141 N135 0.985 . S
H142 N139 0.984 . S
H143 N139 0.985 . S
H144 N138 0.984 . S
H145 N138 0.984 . S
H146 N134 0.984 . S
H147 N134 0.985 . S
C148 C149 1.363 . S
C148 C154 1.379 . S
C148 N156 1.356 . S
C149 C148 1.363 . S
C149 C155 1.363 . S
C150 C151 1.363 . S
C150 C155 1.379 . S
C150 N157 1.356 . S
C151 C150 1.363 . S
C151 C154 1.363 . S
N152 C154 1.356 . S
N152 H164 0.984 . S
N152 H165 0.985 . S
N153 C155 1.356 . S
N153 H158 0.984 . S
N153 H159 0.985 . S
C154 C148 1.379 . S
C154 C151 1.363 . S
C154 N152 1.356 . S
C155 C149 1.363 . S
C155 C150 1.379 . S
C155 N153 1.356 . S
N156 C148 1.356 . S
N156 H162 0.984 . S
N156 H163 0.984 . S
N157 C150 1.356 . S
N157 H160 0.984 . S
N157 H161 0.985 . S
H158 N153 0.984 . S
H159 N153 0.985 . S
H160 N157 0.984 . S
H161 N157 0.985 . S
H162 N156 0.984 . S
H163 N156 0.984 . S
H164 N152 0.984 . S
H165 N152 0.985 . S
C166 C167 1.364 . S
C166 C172 1.378 1_445 S
C166 N174 1.356 . S
C167 C166 1.364 . S
C167 C173 1.363 . S
C168 C169 1.364 . S
C168 C173 1.378 1_665 S
C168 N175 1.356 . S
C169 C168 1.364 . S
C169 C172 1.363 . S
N170 C172 1.356 . S
N170 H182 0.984 1_655 S
N170 H183 0.985 . S
N171 C173 1.356 . S
N171 H176 0.984 . S
N171 H177 0.985 1_455 S
C172 C166 1.378 1_665 S
C172 C169 1.363 . S
C172 N170 1.356 . S
C173 C167 1.363 . S
C173 C168 1.378 1_445 S
C173 N171 1.356 . S
N174 C166 1.356 . S
N174 H180 0.984 1_545 S
N174 H181 0.984 . S
N175 C168 1.356 . S
N175 H178 0.984 . S
N175 H179 0.985 1_565 S
H176 N171 0.984 . S
H177 N171 0.985 1_655 S
H178 N175 0.984 . S
H179 N175 0.985 1_545 S
H180 N174 0.984 1_565 S
H181 N174 0.984 . S
H182 N170 0.984 1_455 S
H183 N170 0.985 . S
C184 C185 1.363 . S
C184 C190 1.379 . S
C184 N192 1.356 . S
C185 C184 1.363 . S
C185 C191 1.363 . S
C186 C187 1.363 . S
C186 C191 1.379 . S
C186 N193 1.356 . S
C187 C186 1.363 . S
C187 C190 1.363 . S
N188 C190 1.356 . S
N188 H200 0.984 . S
N188 H201 0.985 . S
N189 C191 1.356 . S
N189 H194 0.984 . S
N189 H195 0.985 . S
C190 C184 1.379 . S
C190 C187 1.363 . S
C190 N188 1.356 . S
C191 C185 1.363 . S
C191 C186 1.379 . S
C191 N189 1.356 . S
N192 C184 1.356 . S
N192 H198 0.984 . S
N192 H199 0.984 . S
N193 C186 1.356 . S
N193 H196 0.984 . S
N193 H197 0.985 . S
H194 N189 0.984 . S
H195 N189 0.985 . S
H196 N193 0.984 . S
H197 N193 0.985 . S
H198 N192 0.984 . S
H199 N192 0.984 . S
H200 N188 0.984 . S
H201 N188 0.985 . S
C202 C203 1.363 . S
C202 C208 1.379 1_556 S
C202 N210 1.356 . S
C203 C202 1.363 . S
C203 C209 1.363 . S
C204 C205 1.363 . S
C204 C209 1.379 1_554 S
C204 N211 1.356 . S
C205 C204 1.363 . S
C205 C208 1.363 . S
N206 C208 1.356 . S
N206 H218 0.984 . S
N206 H219 0.985 . S
N207 C209 1.356 . S
N207 H212 0.984 . S
N207 H213 0.985 . S
C208 C202 1.379 1_554 S
C208 C205 1.363 . S
C208 N206 1.356 . S
C209 C203 1.363 . S
C209 C204 1.379 1_556 S
C209 N207 1.356 . S
N210 C202 1.356 . S
N210 H216 0.984 . S
N210 H217 0.984 . S
N211 C204 1.356 . S
N211 H214 0.984 . S
N211 H215 0.985 . S
H212 N207 0.984 . S
H213 N207 0.985 . S
H214 N211 0.984 . S
H215 N211 0.985 . S
H216 N210 0.984 . S
H217 N210 0.984 . S
H218 N206 0.984 . S
H219 N206 0.985 . S
C220 C221 1.363 . S
C220 C226 1.379 . S
C220 N228 1.356 . S
C221 C220 1.363 . S
C221 C227 1.363 . S
C222 C223 1.363 . S
C222 C227 1.379 . S
C222 N229 1.356 . S
C223 C222 1.363 . S
C223 C226 1.363 . S
N224 C226 1.356 . S
N224 H236 0.984 . S
N224 H237 0.985 . S
N225 C227 1.356 . S
N225 H230 0.984 . S
N225 H231 0.985 . S
C226 C220 1.379 . S
C226 C223 1.363 . S
C226 N224 1.356 . S
C227 C221 1.363 . S
C227 C222 1.379 . S
C227 N225 1.356 . S
N228 C220 1.356 . S
N228 H234 0.984 . S
N228 H235 0.984 . S
N229 C222 1.356 . S
N229 H232 0.984 . S
N229 H233 0.985 . S
H230 N225 0.984 . S
H231 N225 0.985 . S
H232 N229 0.984 . S
H233 N229 0.985 . S
H234 N228 0.984 . S
H235 N228 0.984 . S
H236 N224 0.984 . S
H237 N224 0.985 . S
C238 C239 1.363 . S
C238 C244 1.379 1_556 S
C238 N246 1.356 . S
C239 C238 1.363 . S
C239 C245 1.363 . S
C240 C241 1.363 . S
C240 C245 1.379 1_554 S
C240 N247 1.356 . S
C241 C240 1.363 . S
C241 C244 1.363 . S
N242 C244 1.356 . S
N242 H254 0.984 . S
N242 H255 0.985 . S
N243 C245 1.356 . S
N243 H248 0.984 . S
N243 H249 0.985 . S
C244 C238 1.379 1_554 S
C244 C241 1.363 . S
C244 N242 1.356 . S
C245 C239 1.363 . S
C245 C240 1.379 1_556 S
C245 N243 1.356 . S
N246 C238 1.356 . S
N246 H252 0.984 . S
N246 H253 0.984 . S
N247 C240 1.356 . S
N247 H250 0.984 . S
N247 H251 0.985 . S
H248 N243 0.984 . S
H249 N243 0.985 . S
H250 N247 0.984 . S
H251 N247 0.985 . S
H252 N246 0.984 . S
H253 N246 0.984 . S
H254 N242 0.984 . S
H255 N242 0.985 . S
C256 C257 1.363 . S
C256 C262 1.379 . S
C256 N264 1.356 . S
C257 C256 1.363 . S
C257 C263 1.363 . S
C258 C259 1.363 . S
C258 C263 1.379 . S
C258 N265 1.356 . S
C259 C258 1.363 . S
C259 C262 1.363 . S
N260 C262 1.356 . S
N260 H272 0.984 . S
N260 H273 0.985 . S
N261 C263 1.356 . S
N261 H266 0.984 . S
N261 H267 0.985 . S
C262 C256 1.379 . S
C262 C259 1.363 . S
C262 N260 1.356 . S
C263 C257 1.363 . S
C263 C258 1.379 . S
C263 N261 1.356 . S
N264 C256 1.356 . S
N264 H270 0.984 . S
N264 H271 0.984 . S
N265 C258 1.356 . S
N265 H268 0.984 . S
N265 H269 0.985 . S
H266 N261 0.984 . S
H267 N261 0.985 . S
H268 N265 0.984 . S
H269 N265 0.985 . S
H270 N264 0.984 . S
H271 N264 0.984 . S
H272 N260 0.984 . S
H273 N260 0.985 . S
C274 C275 1.363 . S
C274 C280 1.379 . S
C274 N282 1.356 . S
C275 C274 1.363 . S
C275 C281 1.363 . S
C276 C277 1.363 . S
C276 C281 1.379 . S
C276 N283 1.356 . S
C277 C276 1.363 . S
C277 C280 1.363 . S
N278 C280 1.356 1_545 S
N278 H290 0.984 . S
N278 H291 0.985 . S
N279 C281 1.356 . S
N279 H284 0.984 . S
N279 H285 0.985 . S
C280 C274 1.379 . S
C280 C277 1.363 . S
C280 N278 1.356 1_565 S
C281 C275 1.363 . S
C281 C276 1.379 . S
C281 N279 1.356 . S
N282 C274 1.356 . S
N282 H288 0.984 . S
N282 H289 0.984 . S
N283 C276 1.356 . S
N283 H286 0.984 . S
N283 H287 0.985 . S
H284 N279 0.984 . S
H285 N279 0.985 . S
H286 N283 0.984 . S
H287 N283 0.985 . S
H288 N282 0.984 . S
H289 N282 0.984 . S
H290 N278 0.984 . S
H291 N278 0.985 . S
C292 C293 1.363 . S
C292 C298 1.379 . S
C292 N300 1.356 . S
C293 C292 1.363 . S
C293 C299 1.363 . S
C294 C295 1.363 . S
C294 C299 1.379 . S
C294 N301 1.356 . S
C295 C294 1.363 . S
C295 C298 1.363 . S
N296 C298 1.356 . S
N296 H308 0.984 . S
N296 H309 0.985 . S
N297 C299 1.356 . S
N297 H302 0.984 . S
N297 H303 0.985 . S
C298 C292 1.379 . S
C298 C295 1.363 . S
C298 N296 1.356 . S
C299 C293 1.363 . S
C299 C294 1.379 . S
C299 N297 1.356 . S
N300 C292 1.356 . S
N300 H306 0.984 . S
N300 H307 0.984 . S
N301 C294 1.356 . S
N301 H304 0.984 . S
N301 H305 0.985 . S
H302 N297 0.984 . S
H303 N297 0.985 . S
H304 N301 0.984 . S
H305 N301 0.985 . S
H306 N300 0.984 . S
H307 N300 0.984 . S
H308 N296 0.984 . S
H309 N296 0.985 . S
C310 C311 1.363 . S
C310 C316 1.379 . S
C310 N318 1.356 . S
C311 C310 1.363 . S
C311 C317 1.363 . S
C312 C313 1.363 . S
C312 C317 1.379 . S
C312 N319 1.356 . S
C313 C312 1.363 . S
C313 C316 1.363 . S
N314 C316 1.356 1_565 S
N314 H326 0.984 . S
N314 H327 0.985 . S
N315 C317 1.356 . S
N315 H320 0.984 . S
N315 H321 0.985 . S
C316 C310 1.379 . S
C316 C313 1.363 . S
C316 N314 1.356 1_545 S
C317 C311 1.363 . S
C317 C312 1.379 . S
C317 N315 1.356 . S
N318 C310 1.356 . S
N318 H324 0.984 . S
N318 H325 0.984 . S
N319 C312 1.356 . S
N319 H322 0.984 . S
N319 H323 0.985 . S
H320 N315 0.984 . S
H321 N315 0.985 . S
H322 N319 0.984 . S
H323 N319 0.985 . S
H324 N318 0.984 . S
H325 N318 0.984 . S
H326 N314 0.984 . S
H327 N314 0.985 . S
C328 C329 1.363 . S
C328 C334 1.379 . S
C328 N336 1.356 1_655 S
C329 C328 1.363 . S
C329 C335 1.363 . S
C330 C331 1.363 . S
C330 C335 1.379 . S
C330 N337 1.356 . S
C331 C330 1.363 . S
C331 C334 1.363 . S
N332 C334 1.356 . S
N332 H344 0.984 . S
N332 H345 0.985 . S
N333 C335 1.356 . S
N333 H338 0.984 . S
N333 H339 0.985 . S
C334 C328 1.379 . S
C334 C331 1.363 . S
C334 N332 1.356 . S
C335 C329 1.363 . S
C335 C330 1.379 . S
C335 N333 1.356 . S
N336 C328 1.356 1_455 S
N336 H342 0.984 . S
N336 H343 0.984 . S
N337 C330 1.356 . S
N337 H340 0.984 . S
N337 H341 0.985 . S
H338 N333 0.984 . S
H339 N333 0.985 . S
H340 N337 0.984 . S
H341 N337 0.985 . S
H342 N336 0.984 . S
H343 N336 0.984 . S
H344 N332 0.984 . S
H345 N332 0.985 . S
C346 C347 1.363 . S
C346 C352 1.379 . S
C346 N354 1.356 . S
C347 C346 1.363 . S
C347 C353 1.363 . S
C348 C349 1.363 . S
C348 C353 1.379 . S
C348 N355 1.356 . S
C349 C348 1.363 . S
C349 C352 1.363 . S
N350 C352 1.356 . S
N350 H362 0.984 . S
N350 H363 0.985 . S
N351 C353 1.356 . S
N351 H356 0.984 . S
N351 H357 0.985 . S
C352 C346 1.379 . S
C352 C349 1.363 . S
C352 N350 1.356 . S
C353 C347 1.363 . S
C353 C348 1.379 . S
C353 N351 1.356 . S
N354 C346 1.356 . S
N354 H360 0.984 . S
N354 H361 0.984 . S
N355 C348 1.356 . S
N355 H358 0.984 . S
N355 H359 0.985 . S
H356 N351 0.984 . S
H357 N351 0.985 . S
H358 N355 0.984 . S
H359 N355 0.985 . S
H360 N354 0.984 . S
H361 N354 0.984 . S
H362 N350 0.984 . S
H363 N350 0.985 . S
C364 C365 1.363 . S
C364 C370 1.379 . S
C364 N372 1.356 . S
C365 C364 1.363 . S
C365 C371 1.363 . S
C366 C367 1.363 . S
C366 C371 1.379 . S
C366 N373 1.356 . S
C367 C366 1.363 . S
C367 C370 1.363 . S
N368 C370 1.356 . S
N368 H380 0.984 . S
N368 H381 0.985 1_455 S
N369 C371 1.356 . S
N369 H374 0.984 . S
N369 H375 0.985 . S
C370 C364 1.379 . S
C370 C367 1.363 . S
C370 N368 1.356 . S
C371 C365 1.363 . S
C371 C366 1.379 . S
C371 N369 1.356 . S
N372 C364 1.356 . S
N372 H378 0.984 . S
N372 H379 0.984 . S
N373 C366 1.356 . S
N373 H376 0.984 1_455 S
N373 H377 0.985 . S
H374 N369 0.984 . S
H375 N369 0.985 . S
H376 N373 0.984 1_655 S
H377 N373 0.985 . S
H378 N372 0.984 . S
H379 N372 0.984 . S
H380 N368 0.984 . S
H381 N368 0.985 1_655 S
C382 C383 1.363 . S
C382 C388 1.379 . S
C382 N390 1.356 . S
C383 C382 1.363 . S
C383 C389 1.363 . S
C384 C385 1.363 . S
C384 C389 1.379 . S
C384 N391 1.356 . S
C385 C384 1.363 . S
C385 C388 1.363 . S
N386 C388 1.356 . S
N386 H398 0.984 . S
N386 H399 0.985 . S
N387 C389 1.356 . S
N387 H392 0.984 . S
N387 H393 0.985 . S
C388 C382 1.379 . S
C388 C385 1.363 . S
C388 N386 1.356 . S
C389 C383 1.363 . S
C389 C384 1.379 . S
C389 N387 1.356 . S
N390 C382 1.356 . S
N390 H396 0.984 . S
N390 H397 0.984 . S
N391 C384 1.356 . S
N391 H394 0.984 . S
N391 H395 0.985 . S
H392 N387 0.984 . S
H393 N387 0.985 . S
H394 N391 0.984 . S
H395 N391 0.985 . S
H396 N390 0.984 . S
H397 N390 0.984 . S
H398 N386 0.984 . S
H399 N386 0.985 . S
C113 C9 0.775 . S
C115 C37 0.775 . S
C131 C23 0.775 . S
C133 C51 0.775 . S
C149 C65 0.775 . S
C151 C93 0.775 . S
C167 C79 0.775 . S
C169 C107 0.775 . S
C185 C7 1.427 . S
C187 C77 1.427 . S
C203 C21 1.427 . S
C205 C91 1.427 . S
C221 C105 1.427 . S
C223 C35 1.427 . S
C239 C49 1.427 . S
C241 C63 1.427 . S
C257 C59 1.736 . S
C259 C8 1.793 . S
C275 C22 1.793 . S
C277 C73 1.736 1_565 S
C293 C36 1.793 . S
C295 C87 1.736 . S
C311 C50 1.793 . S
C313 C101 1.736 1_545 S
C329 C3 1.736 1_655 S
C331 C64 1.793 . S
C347 C78 1.793 . S
C349 C17 1.736 . S
C365 C92 1.793 . S
C367 C31 1.736 1_455 S
C383 C45 1.736 . S
C385 C106 1.793 . S
