# Generated by pormake.
# Topology ukp, (4)-cn, num edge types: 1
# Building blocks:
#     Node 0, Type 0, BuildingBlock: NAWXER_clean_sbu_0, # of connection points: 4
#     Node 1, Type 0, BuildingBlock: NAWXER_clean_sbu_0, # of connection points: 4
#     Node 2, Type 0, BuildingBlock: NAWXER_clean_sbu_0, # of connection points: 4
#     Node 3, Type 0, BuildingBlock: NAWXER_clean_sbu_0, # of connection points: 4
#     Node 4, Type 0, BuildingBlock: NAWXER_clean_sbu_0, # of connection points: 4
#     Node 5, Type 0, BuildingBlock: NAWXER_clean_sbu_0, # of connection points: 4
#     Node 6, Type 0, BuildingBlock: NAWXER_clean_sbu_0, # of connection points: 4
#     Node 7, Type 0, BuildingBlock: NAWXER_clean_sbu_0, # of connection points: 4
#     Node 8, Type 0, BuildingBlock: NAWXER_clean_sbu_0, # of connection points: 4
#     Node 9, Type 0, BuildingBlock: NAWXER_clean_sbu_0, # of connection points: 4
#     Node 10, Type 0, BuildingBlock: NAWXER_clean_sbu_0, # of connection points: 4
#     Node 11, Type 0, BuildingBlock: NAWXER_clean_sbu_0, # of connection points: 4
#     Node 12, Type 0, BuildingBlock: NAWXER_clean_sbu_0, # of connection points: 4
#     Node 13, Type 0, BuildingBlock: NAWXER_clean_sbu_0, # of connection points: 4
#     Node 14, Type 0, BuildingBlock: NAWXER_clean_sbu_0, # of connection points: 4
#     Node 15, Type 0, BuildingBlock: NAWXER_clean_sbu_0, # of connection points: 4
#     Node 16, Type 0, BuildingBlock: NAWXER_clean_sbu_0, # of connection points: 4
#     Node 17, Type 0, BuildingBlock: NAWXER_clean_sbu_0, # of connection points: 4
#     Node 18, Type 0, BuildingBlock: NAWXER_clean_sbu_0, # of connection points: 4
#     Node 19, Type 0, BuildingBlock: NAWXER_clean_sbu_0, # of connection points: 4
#     Node 20, Type 0, BuildingBlock: NAWXER_clean_sbu_0, # of connection points: 4
#     Node 21, Type 0, BuildingBlock: NAWXER_clean_sbu_0, # of connection points: 4
#     Node 22, Type 0, BuildingBlock: NAWXER_clean_sbu_0, # of connection points: 4
#     Node 23, Type 0, BuildingBlock: NAWXER_clean_sbu_0, # of connection points: 4
#     Node 24, Type 0, BuildingBlock: NAWXER_clean_sbu_0, # of connection points: 4
#     Node 25, Type 0, BuildingBlock: NAWXER_clean_sbu_0, # of connection points: 4
#     Node 26, Type 0, BuildingBlock: NAWXER_clean_sbu_0, # of connection points: 4
#     Node 27, Type 0, BuildingBlock: NAWXER_clean_sbu_0, # of connection points: 4
#     Node 28, Type 0, BuildingBlock: NAWXER_clean_sbu_0, # of connection points: 4
#     Node 29, Type 0, BuildingBlock: NAWXER_clean_sbu_0, # of connection points: 4
#     Node 30, Type 0, BuildingBlock: NAWXER_clean_sbu_0, # of connection points: 4
#     Node 31, Type 0, BuildingBlock: NAWXER_clean_sbu_0, # of connection points: 4
#     Node 32, Type 0, BuildingBlock: NAWXER_clean_sbu_0, # of connection points: 4
#     Node 33, Type 0, BuildingBlock: NAWXER_clean_sbu_0, # of connection points: 4
#     Node 34, Type 0, BuildingBlock: NAWXER_clean_sbu_0, # of connection points: 4
#     Node 35, Type 0, BuildingBlock: NAWXER_clean_sbu_0, # of connection points: 4
#     Node 36, Type 0, BuildingBlock: NAWXER_clean_sbu_0, # of connection points: 4
#     Node 37, Type 0, BuildingBlock: NAWXER_clean_sbu_0, # of connection points: 4
#     Node 38, Type 0, BuildingBlock: NAWXER_clean_sbu_0, # of connection points: 4
#     Node 39, Type 0, BuildingBlock: NAWXER_clean_sbu_0, # of connection points: 4
#     Node 40, Type 0, BuildingBlock: NAWXER_clean_sbu_0, # of connection points: 4
#     Node 41, Type 0, BuildingBlock: NAWXER_clean_sbu_0, # of connection points: 4
#     Node 42, Type 0, BuildingBlock: NAWXER_clean_sbu_0, # of connection points: 4
#     Node 43, Type 0, BuildingBlock: NAWXER_clean_sbu_0, # of connection points: 4
#     Node 44, Type 0, BuildingBlock: NAWXER_clean_sbu_0, # of connection points: 4
#     Node 45, Type 0, BuildingBlock: NAWXER_clean_sbu_0, # of connection points: 4
#     Node 46, Type 0, BuildingBlock: NAWXER_clean_sbu_0, # of connection points: 4
#     Node 47, Type 0, BuildingBlock: NAWXER_clean_sbu_0, # of connection points: 4
#     Edge 48, Type (0, 0), BuildingBlock: OJICUG_clean_linker_0, # of connection points: 2
#     Edge 49, Type (0, 0), BuildingBlock: OJICUG_clean_linker_0, # of connection points: 2
#     Edge 50, Type (0, 0), BuildingBlock: OJICUG_clean_linker_0, # of connection points: 2
#     Edge 51, Type (0, 0), BuildingBlock: OJICUG_clean_linker_0, # of connection points: 2
#     Edge 52, Type (0, 0), BuildingBlock: OJICUG_clean_linker_0, # of connection points: 2
#     Edge 53, Type (0, 0), BuildingBlock: OJICUG_clean_linker_0, # of connection points: 2
#     Edge 54, Type (0, 0), BuildingBlock: OJICUG_clean_linker_0, # of connection points: 2
#     Edge 55, Type (0, 0), BuildingBlock: OJICUG_clean_linker_0, # of connection points: 2
#     Edge 56, Type (0, 0), BuildingBlock: OJICUG_clean_linker_0, # of connection points: 2
#     Edge 57, Type (0, 0), BuildingBlock: OJICUG_clean_linker_0, # of connection points: 2
#     Edge 58, Type (0, 0), BuildingBlock: OJICUG_clean_linker_0, # of connection points: 2
#     Edge 59, Type (0, 0), BuildingBlock: OJICUG_clean_linker_0, # of connection points: 2
#     Edge 60, Type (0, 0), BuildingBlock: OJICUG_clean_linker_0, # of connection points: 2
#     Edge 61, Type (0, 0), BuildingBlock: OJICUG_clean_linker_0, # of connection points: 2
#     Edge 62, Type (0, 0), BuildingBlock: OJICUG_clean_linker_0, # of connection points: 2
#     Edge 63, Type (0, 0), BuildingBlock: OJICUG_clean_linker_0, # of connection points: 2
#     Edge 64, Type (0, 0), BuildingBlock: OJICUG_clean_linker_0, # of connection points: 2
#     Edge 65, Type (0, 0), BuildingBlock: OJICUG_clean_linker_0, # of connection points: 2
#     Edge 66, Type (0, 0), BuildingBlock: OJICUG_clean_linker_0, # of connection points: 2
#     Edge 67, Type (0, 0), BuildingBlock: OJICUG_clean_linker_0, # of connection points: 2
#     Edge 68, Type (0, 0), BuildingBlock: OJICUG_clean_linker_0, # of connection points: 2
#     Edge 69, Type (0, 0), BuildingBlock: OJICUG_clean_linker_0, # of connection points: 2
#     Edge 70, Type (0, 0), BuildingBlock: OJICUG_clean_linker_0, # of connection points: 2
#     Edge 71, Type (0, 0), BuildingBlock: OJICUG_clean_linker_0, # of connection points: 2
#     Edge 72, Type (0, 0), BuildingBlock: OJICUG_clean_linker_0, # of connection points: 2
#     Edge 73, Type (0, 0), BuildingBlock: OJICUG_clean_linker_0, # of connection points: 2
#     Edge 74, Type (0, 0), BuildingBlock: OJICUG_clean_linker_0, # of connection points: 2
#     Edge 75, Type (0, 0), BuildingBlock: OJICUG_clean_linker_0, # of connection points: 2
#     Edge 76, Type (0, 0), BuildingBlock: OJICUG_clean_linker_0, # of connection points: 2
#     Edge 77, Type (0, 0), BuildingBlock: OJICUG_clean_linker_0, # of connection points: 2
#     Edge 78, Type (0, 0), BuildingBlock: OJICUG_clean_linker_0, # of connection points: 2
#     Edge 79, Type (0, 0), BuildingBlock: OJICUG_clean_linker_0, # of connection points: 2
#     Edge 80, Type (0, 0), BuildingBlock: OJICUG_clean_linker_0, # of connection points: 2
#     Edge 81, Type (0, 0), BuildingBlock: OJICUG_clean_linker_0, # of connection points: 2
#     Edge 82, Type (0, 0), BuildingBlock: OJICUG_clean_linker_0, # of connection points: 2
#     Edge 83, Type (0, 0), BuildingBlock: OJICUG_clean_linker_0, # of connection points: 2
#     Edge 84, Type (0, 0), BuildingBlock: OJICUG_clean_linker_0, # of connection points: 2
#     Edge 85, Type (0, 0), BuildingBlock: OJICUG_clean_linker_0, # of connection points: 2
#     Edge 86, Type (0, 0), BuildingBlock: OJICUG_clean_linker_0, # of connection points: 2
#     Edge 87, Type (0, 0), BuildingBlock: OJICUG_clean_linker_0, # of connection points: 2
#     Edge 88, Type (0, 0), BuildingBlock: OJICUG_clean_linker_0, # of connection points: 2
#     Edge 89, Type (0, 0), BuildingBlock: OJICUG_clean_linker_0, # of connection points: 2
#     Edge 90, Type (0, 0), BuildingBlock: OJICUG_clean_linker_0, # of connection points: 2
#     Edge 91, Type (0, 0), BuildingBlock: OJICUG_clean_linker_0, # of connection points: 2
#     Edge 92, Type (0, 0), BuildingBlock: OJICUG_clean_linker_0, # of connection points: 2
#     Edge 93, Type (0, 0), BuildingBlock: OJICUG_clean_linker_0, # of connection points: 2
#     Edge 94, Type (0, 0), BuildingBlock: OJICUG_clean_linker_0, # of connection points: 2
#     Edge 95, Type (0, 0), BuildingBlock: OJICUG_clean_linker_0, # of connection points: 2
#     Edge 96, Type (0, 0), BuildingBlock: OJICUG_clean_linker_0, # of connection points: 2
#     Edge 97, Type (0, 0), BuildingBlock: OJICUG_clean_linker_0, # of connection points: 2
#     Edge 98, Type (0, 0), BuildingBlock: OJICUG_clean_linker_0, # of connection points: 2
#     Edge 99, Type (0, 0), BuildingBlock: OJICUG_clean_linker_0, # of connection points: 2
#     Edge 100, Type (0, 0), BuildingBlock: OJICUG_clean_linker_0, # of connection points: 2
#     Edge 101, Type (0, 0), BuildingBlock: OJICUG_clean_linker_0, # of connection points: 2
#     Edge 102, Type (0, 0), BuildingBlock: OJICUG_clean_linker_0, # of connection points: 2
#     Edge 103, Type (0, 0), BuildingBlock: OJICUG_clean_linker_0, # of connection points: 2
#     Edge 104, Type (0, 0), BuildingBlock: OJICUG_clean_linker_0, # of connection points: 2
#     Edge 105, Type (0, 0), BuildingBlock: OJICUG_clean_linker_0, # of connection points: 2
#     Edge 106, Type (0, 0), BuildingBlock: OJICUG_clean_linker_0, # of connection points: 2
#     Edge 107, Type (0, 0), BuildingBlock: OJICUG_clean_linker_0, # of connection points: 2
#     Edge 108, Type (0, 0), BuildingBlock: OJICUG_clean_linker_0, # of connection points: 2
#     Edge 109, Type (0, 0), BuildingBlock: OJICUG_clean_linker_0, # of connection points: 2
#     Edge 110, Type (0, 0), BuildingBlock: OJICUG_clean_linker_0, # of connection points: 2
#     Edge 111, Type (0, 0), BuildingBlock: OJICUG_clean_linker_0, # of connection points: 2
#     Edge 112, Type (0, 0), BuildingBlock: OJICUG_clean_linker_0, # of connection points: 2
#     Edge 113, Type (0, 0), BuildingBlock: OJICUG_clean_linker_0, # of connection points: 2
#     Edge 114, Type (0, 0), BuildingBlock: OJICUG_clean_linker_0, # of connection points: 2
#     Edge 115, Type (0, 0), BuildingBlock: OJICUG_clean_linker_0, # of connection points: 2
#     Edge 116, Type (0, 0), BuildingBlock: OJICUG_clean_linker_0, # of connection points: 2
#     Edge 117, Type (0, 0), BuildingBlock: OJICUG_clean_linker_0, # of connection points: 2
#     Edge 118, Type (0, 0), BuildingBlock: OJICUG_clean_linker_0, # of connection points: 2
#     Edge 119, Type (0, 0), BuildingBlock: OJICUG_clean_linker_0, # of connection points: 2
#     Edge 120, Type (0, 0), BuildingBlock: OJICUG_clean_linker_0, # of connection points: 2
#     Edge 121, Type (0, 0), BuildingBlock: OJICUG_clean_linker_0, # of connection points: 2
#     Edge 122, Type (0, 0), BuildingBlock: OJICUG_clean_linker_0, # of connection points: 2
#     Edge 123, Type (0, 0), BuildingBlock: OJICUG_clean_linker_0, # of connection points: 2
#     Edge 124, Type (0, 0), BuildingBlock: OJICUG_clean_linker_0, # of connection points: 2
#     Edge 125, Type (0, 0), BuildingBlock: OJICUG_clean_linker_0, # of connection points: 2
#     Edge 126, Type (0, 0), BuildingBlock: OJICUG_clean_linker_0, # of connection points: 2
#     Edge 127, Type (0, 0), BuildingBlock: OJICUG_clean_linker_0, # of connection points: 2
#     Edge 128, Type (0, 0), BuildingBlock: OJICUG_clean_linker_0, # of connection points: 2
#     Edge 129, Type (0, 0), BuildingBlock: OJICUG_clean_linker_0, # of connection points: 2
#     Edge 130, Type (0, 0), BuildingBlock: OJICUG_clean_linker_0, # of connection points: 2
#     Edge 131, Type (0, 0), BuildingBlock: OJICUG_clean_linker_0, # of connection points: 2
#     Edge 132, Type (0, 0), BuildingBlock: OJICUG_clean_linker_0, # of connection points: 2
#     Edge 133, Type (0, 0), BuildingBlock: OJICUG_clean_linker_0, # of connection points: 2
#     Edge 134, Type (0, 0), BuildingBlock: OJICUG_clean_linker_0, # of connection points: 2
#     Edge 135, Type (0, 0), BuildingBlock: OJICUG_clean_linker_0, # of connection points: 2
#     Edge 136, Type (0, 0), BuildingBlock: OJICUG_clean_linker_0, # of connection points: 2
#     Edge 137, Type (0, 0), BuildingBlock: OJICUG_clean_linker_0, # of connection points: 2
#     Edge 138, Type (0, 0), BuildingBlock: OJICUG_clean_linker_0, # of connection points: 2
#     Edge 139, Type (0, 0), BuildingBlock: OJICUG_clean_linker_0, # of connection points: 2
#     Edge 140, Type (0, 0), BuildingBlock: OJICUG_clean_linker_0, # of connection points: 2
#     Edge 141, Type (0, 0), BuildingBlock: OJICUG_clean_linker_0, # of connection points: 2
#     Edge 142, Type (0, 0), BuildingBlock: OJICUG_clean_linker_0, # of connection points: 2
#     Edge 143, Type (0, 0), BuildingBlock: OJICUG_clean_linker_0, # of connection points: 2
# Relax obj value: 0.179
# Max RMSD: 0.216
# Mean RMSD: 0.216
data_MOF--net-ukp--node1-NAWXER_clean_sbu_0--edge1-OJICUG_clean_linker_0
_symmetry_space_group_name_H-M    P1
_symmetry_Int_Tables_number       1
_symmetry_cell_setting            triclinic
loop_
_symmetry_equiv_pos_as_xyz
'x, y, z'
_cell_length_a     46.28169
_cell_length_b     46.28223
_cell_length_c     46.281591
_cell_angle_alpha  89.997764
_cell_angle_beta   90.004341
_cell_angle_gamma 89.992523
loop_
_atom_site_label
_atom_site_type_symbol
_atom_site_fract_x
_atom_site_fract_y
_atom_site_fract_z
_atom_type_partial_charge
C0 C 0.18778 0.29479 0.32515 0.0
C1 C 0.15234 0.22998 0.40065 0.0
O2 O 0.20431 0.29371 0.3474 0.0
Zn3 Zn 0.20581 0.27163 0.38885 0.0
O4 O 0.16519 0.27911 0.32401 0.0
Zn5 Zn 0.17027 0.26262 0.36217 0.0
O6 O 0.16694 0.30184 0.38762 0.0
O7 O 0.20605 0.30402 0.41477 0.0
O8 O 0.14063 0.23689 0.37686 0.0
O9 O 0.17667 0.24118 0.40756 0.0
O10 O 0.24098 0.25065 0.38562 0.0
O11 O 0.20834 0.2364 0.35397 0.0
C12 C 0.18254 0.31527 0.40623 0.0
C13 C 0.234 0.2347 0.36444 0.0
C14 C 0.02006 0.90276 0.65073 0.0
C15 C 0.95506 0.9382 0.57539 0.0
O16 O 0.00876 0.92702 0.65775 0.0
Zn17 Zn 0.97813 0.95609 0.63917 0.0
O18 O 0.01318 0.89113 0.62691 0.0
Zn19 Zn 0.9873 0.9207 0.61235 0.0
O20 O 0.01331 0.95894 0.60429 0.0
O21 O 0.9989 0.9914 0.63605 0.0
O22 O 0.97085 0.91569 0.57417 0.0
O23 O 0.95606 0.95465 0.5977 0.0
O24 O 0.94572 0.95606 0.66508 0.0
O25 O 0.94808 0.91708 0.63775 0.0
C26 C 0.01487 0.98457 0.61483 0.0
C27 C 0.93458 0.93254 0.65642 0.0
C28 C 0.26586 0.76511 0.86448 0.0
C29 C 0.31781 0.68482 0.90617 0.0
O30 O 0.29151 0.76356 0.85398 0.0
Zn31 Zn 0.32974 0.73755 0.86213 0.0
O32 O 0.259 0.74914 0.88568 0.0
Zn33 Zn 0.2943 0.72836 0.88886 0.0
O34 O 0.32333 0.75895 0.90753 0.0
O35 O 0.35927 0.76342 0.87676 0.0
O36 O 0.29427 0.69596 0.91477 0.0
O37 O 0.33332 0.69833 0.88755 0.0
O38 O 0.33485 0.7211 0.82396 0.0
O39 O 0.29585 0.70629 0.84742 0.0
C40 C 0.34759 0.77027 0.90057 0.0
C41 C 0.31236 0.7053 0.82514 0.0
C42 C 0.48525 0.01544 0.1149 0.0
C43 C 0.56551 0.06746 0.15657 0.0
O44 O 0.48679 0.04108 0.1044 0.0
Zn45 Zn 0.51279 0.07932 0.1125 0.0
O46 O 0.50124 0.00858 0.13611 0.0
Zn47 Zn 0.52197 0.0439 0.13928 0.0
O48 O 0.49128 0.0729 0.15786 0.0
O49 O 0.48688 0.10885 0.12708 0.0
O50 O 0.55437 0.04394 0.16521 0.0
O51 O 0.552 0.08293 0.13792 0.0
O52 O 0.52924 0.08438 0.07433 0.0
O53 O 0.54404 0.0454 0.09782 0.0
C54 C 0.47996 0.09716 0.15087 0.0
C55 C 0.54503 0.06187 0.07553 0.0
C56 C 0.18785 0.70515 0.17488 0.0
C57 C 0.15255 0.77014 0.09944 0.0
O58 O 0.20432 0.70612 0.15258 0.0
Zn59 Zn 0.20582 0.72818 0.11112 0.0
O60 O 0.16535 0.72095 0.17608 0.0
Zn61 Zn 0.17041 0.73738 0.13788 0.0
O62 O 0.1668 0.69815 0.11249 0.0
O63 O 0.20581 0.69578 0.08522 0.0
O64 O 0.14087 0.76328 0.12325 0.0
O65 O 0.1768 0.75881 0.09247 0.0
O66 O 0.24113 0.74892 0.11426 0.0
O67 O 0.20866 0.76337 0.14599 0.0
C68 C 0.18229 0.68464 0.09384 0.0
C69 C 0.2343 0.7649 0.13547 0.0
C70 C 0.48482 0.98404 0.38551 0.0
C71 C 0.56529 0.93233 0.34382 0.0
O72 O 0.48645 0.95839 0.396 0.0
Zn73 Zn 0.51259 0.92025 0.38786 0.0
O74 O 0.50079 0.99096 0.36433 0.0
Zn75 Zn 0.52169 0.95573 0.36113 0.0
O76 O 0.49117 0.92663 0.34246 0.0
O77 O 0.4868 0.89065 0.37321 0.0
O78 O 0.5541 0.95585 0.33524 0.0
O79 O 0.55181 0.91679 0.36244 0.0
O80 O 0.52905 0.91517 0.42602 0.0
O81 O 0.54375 0.95422 0.40258 0.0
C82 C 0.47992 0.90233 0.34941 0.0
C83 C 0.54478 0.93771 0.42485 0.0
C84 C 0.31752 0.31531 0.59351 0.0
C85 C 0.26538 0.23521 0.63528 0.0
O86 O 0.33298 0.30181 0.61219 0.0
Zn87 Zn 0.3293 0.26264 0.63765 0.0
O88 O 0.29398 0.30419 0.58488 0.0
Zn89 Zn 0.29391 0.27183 0.61084 0.0
O90 O 0.29542 0.29397 0.65226 0.0
O91 O 0.33437 0.27915 0.67581 0.0
O92 O 0.25856 0.25115 0.61403 0.0
O93 O 0.29102 0.23672 0.64579 0.0
O94 O 0.35881 0.23667 0.6231 0.0
O95 O 0.32289 0.24111 0.5923 0.0
C96 C 0.31188 0.29497 0.67457 0.0
C97 C 0.34713 0.22976 0.59931 0.0
C98 C 0.02002 0.09754 0.84935 0.0
C99 C 0.95513 0.06207 0.92472 0.0
O100 O 0.00875 0.07326 0.84235 0.0
Zn101 Zn 0.97822 0.04413 0.86098 0.0
O102 O 0.01315 0.10916 0.87319 0.0
Zn103 Zn 0.98735 0.07955 0.88776 0.0
O104 O 0.01343 0.04135 0.89586 0.0
O105 O 0.99906 0.00886 0.86412 0.0
O106 O 0.97089 0.08459 0.92593 0.0
O107 O 0.95615 0.04559 0.90243 0.0
O108 O 0.9458 0.04408 0.83507 0.0
O109 O 0.94812 0.0831 0.86235 0.0
C110 C 0.01502 0.01572 0.88534 0.0
C111 C 0.93463 0.0676 0.8437 0.0
C112 C 0.36418 0.23397 0.2349 0.0
C113 C 0.40569 0.18203 0.31531 0.0
O114 O 0.35369 0.20832 0.23642 0.0
Zn115 Zn 0.36178 0.17008 0.26245 0.0
O116 O 0.38535 0.24082 0.25093 0.0
Zn117 Zn 0.38849 0.20552 0.2717 0.0
O118 O 0.40724 0.17651 0.24115 0.0
O119 O 0.37651 0.14055 0.23661 0.0
O120 O 0.41431 0.20556 0.30417 0.0
O121 O 0.38709 0.16651 0.30176 0.0
O122 O 0.32356 0.16498 0.2788 0.0
O123 O 0.34699 0.20398 0.29366 0.0
C124 C 0.40033 0.15224 0.22982 0.0
C125 C 0.32471 0.18748 0.2946 0.0
C126 C 0.06176 0.07554 0.54503 0.0
C127 C 0.09707 0.15093 0.48004 0.0
O128 O 0.04525 0.09782 0.54401 0.0
Zn129 Zn 0.04373 0.13927 0.52192 0.0
O130 O 0.08429 0.07437 0.52927 0.0
Zn131 Zn 0.0792 0.11253 0.5128 0.0
O132 O 0.08272 0.13797 0.55199 0.0
O133 O 0.04366 0.1652 0.5543 0.0
O134 O 0.10876 0.12713 0.48695 0.0
O135 O 0.07279 0.1579 0.49131 0.0
O136 O 0.00847 0.13606 0.50109 0.0
O137 O 0.04102 0.10438 0.48673 0.0
C138 C 0.06719 0.15661 0.56547 0.0
C139 C 0.01537 0.11486 0.48513 0.0
C140 C 0.1355 0.76562 0.73492 0.0
C141 C 0.0939 0.81755 0.81526 0.0
O142 O 0.146 0.79127 0.73646 0.0
Zn143 Zn 0.13789 0.82949 0.76249 0.0
O144 O 0.11429 0.75877 0.75089 0.0
Zn145 Zn 0.11114 0.79407 0.77167 0.0
O146 O 0.09245 0.82312 0.7411 0.0
O147 O 0.12324 0.85905 0.73664 0.0
O148 O 0.08527 0.79403 0.80411 0.0
O149 O 0.11252 0.83306 0.80175 0.0
O150 O 0.17608 0.83458 0.7789 0.0
O151 O 0.15262 0.79557 0.7937 0.0
C152 C 0.09941 0.8474 0.72979 0.0
C153 C 0.17491 0.81206 0.79467 0.0
C154 C 0.43821 0.92459 0.04504 0.0
C155 C 0.40281 0.84932 0.97998 0.0
O156 O 0.45468 0.90229 0.04401 0.0
Zn157 Zn 0.45614 0.86086 0.0219 0.0
O158 O 0.41569 0.92582 0.02928 0.0
Zn159 Zn 0.42072 0.88766 0.01277 0.0
O160 O 0.41713 0.8622 0.05195 0.0
O161 O 0.45614 0.83491 0.05427 0.0
O162 O 0.39114 0.87312 0.9869 0.0
O163 O 0.42708 0.84231 0.99127 0.0
O164 O 0.49142 0.86402 0.00111 0.0
O165 O 0.45892 0.89576 0.98674 0.0
C166 C 0.43262 0.84353 0.06543 0.0
C167 C 0.48456 0.88525 0.98515 0.0
C168 C 0.40078 0.84708 0.27011 0.0
C169 C 0.32533 0.81176 0.20522 0.0
O170 O 0.40775 0.82281 0.25881 0.0
Zn171 Zn 0.3891 0.79376 0.22822 0.0
O172 O 0.37697 0.85876 0.26324 0.0
Zn173 Zn 0.36235 0.8292 0.2374 0.0
O174 O 0.35427 0.79101 0.26345 0.0
O175 O 0.38596 0.75848 0.24902 0.0
O176 O 0.32417 0.83428 0.22099 0.0
O177 O 0.34762 0.79526 0.20619 0.0
O178 O 0.41499 0.79372 0.19581 0.0
O179 O 0.38774 0.83276 0.19817 0.0
C180 C 0.36477 0.76536 0.26502 0.0
C181 C 0.40637 0.81725 0.18466 0.0
C182 C 0.48399 0.11434 0.51488 0.0
C183 C 0.43188 0.15587 0.4346 0.0
O184 O 0.45835 0.10381 0.51338 0.0
Zn185 Zn 0.42007 0.11187 0.4874 0.0
O186 O 0.4908 0.13554 0.49887 0.0
Zn187 Zn 0.45546 0.13865 0.47816 0.0
O188 O 0.42647 0.1573 0.5088 0.0
O189 O 0.39055 0.12651 0.51331 0.0
O190 O 0.4554 0.16452 0.44573 0.0
O191 O 0.41641 0.13722 0.44813 0.0
O192 O 0.41502 0.07366 0.47102 0.0
O193 O 0.45397 0.09717 0.45615 0.0
C194 C 0.40222 0.15033 0.52015 0.0
C195 C 0.43752 0.07486 0.45521 0.0
C196 C 0.09906 0.15306 0.77016 0.0
C197 C 0.1744 0.1885 0.70521 0.0
O198 O 0.09204 0.17733 0.75887 0.0
Zn199 Zn 0.11064 0.20642 0.72828 0.0
O200 O 0.1229 0.14144 0.76328 0.0
Zn201 Zn 0.13744 0.17103 0.73744 0.0
O202 O 0.14552 0.20924 0.76346 0.0
O203 O 0.11376 0.24172 0.74908 0.0
O204 O 0.17561 0.16598 0.72099 0.0
O205 O 0.1521 0.20497 0.70621 0.0
O206 O 0.08473 0.20643 0.69587 0.0
O207 O 0.11203 0.16743 0.69822 0.0
C208 C 0.13499 0.23488 0.76504 0.0
C209 C 0.09337 0.18291 0.68472 0.0
C210 C 0.06768 0.84373 0.93453 0.0
C211 C 0.01566 0.88534 0.01482 0.0
O212 O 0.08316 0.86238 0.94805 0.0
Zn213 Zn 0.07955 0.88776 0.98729 0.0
O214 O 0.04416 0.8351 0.94568 0.0
Zn215 Zn 0.04414 0.86099 0.97809 0.0
O216 O 0.04562 0.90247 0.95605 0.0
O217 O 0.0846 0.92596 0.97087 0.0
O218 O 0.00882 0.86414 0.99883 0.0
O219 O 0.0413 0.89585 0.01329 0.0
O220 O 0.10908 0.87314 0.01319 0.0
O221 O 0.07314 0.84237 0.00875 0.0
C222 C 0.06209 0.92477 0.95508 0.0
C223 C 0.0974 0.84934 0.02007 0.0
C224 C 0.23483 0.36453 0.23422 0.0
C225 C 0.31523 0.40603 0.18227 0.0
O226 O 0.23637 0.35402 0.20858 0.0
Zn227 Zn 0.26242 0.36207 0.17036 0.0
O228 O 0.25085 0.38571 0.24108 0.0
Zn229 Zn 0.27163 0.38882 0.20578 0.0
O230 O 0.24105 0.40751 0.17674 0.0
O231 O 0.23658 0.37673 0.14079 0.0
O232 O 0.30409 0.41467 0.20579 0.0
O233 O 0.30171 0.3874 0.16678 0.0
O234 O 0.27879 0.32385 0.1653 0.0
O235 O 0.29361 0.34731 0.2043 0.0
C236 C 0.22973 0.40055 0.15247 0.0
C237 C 0.29456 0.32501 0.18782 0.0
C238 C 0.79471 0.17474 0.81203 0.0
C239 C 0.7299 0.09926 0.84742 0.0
O240 O 0.79374 0.15246 0.79554 0.0
Zn241 Zn 0.77173 0.11097 0.79405 0.0
O242 O 0.77894 0.17591 0.83455 0.0
Zn243 Zn 0.76255 0.13772 0.82948 0.0
O244 O 0.80182 0.11236 0.83303 0.0
O245 O 0.80417 0.0851 0.794 0.0
O246 O 0.73675 0.12309 0.85907 0.0
O247 O 0.74119 0.09229 0.82314 0.0
O248 O 0.7509 0.1141 0.75878 0.0
O249 O 0.73648 0.1458 0.79129 0.0
C250 C 0.81534 0.09374 0.81752 0.0
C251 C 0.7349 0.13529 0.76565 0.0
C252 C 0.11454 0.48514 0.01547 0.0
C253 C 0.1561 0.56539 0.06756 0.0
O254 O 0.10401 0.48665 0.04111 0.0
Zn255 Zn 0.11209 0.51262 0.07938 0.0
O256 O 0.13575 0.50113 0.00866 0.0
Zn257 Zn 0.13887 0.52184 0.044 0.0
O258 O 0.15751 0.4912 0.073 0.0
O259 O 0.1267 0.48671 0.10892 0.0
O260 O 0.16475 0.55426 0.04404 0.0
O261 O 0.13745 0.55186 0.08303 0.0
O262 O 0.07389 0.52902 0.08444 0.0
O263 O 0.09739 0.54387 0.04548 0.0
C264 C 0.15052 0.47986 0.09725 0.0
C265 C 0.07508 0.54483 0.06195 0.0
C266 C 0.76496 0.86475 0.26561 0.0
C267 C 0.68458 0.90629 0.31755 0.0
O268 O 0.76341 0.85423 0.29125 0.0
Zn269 Zn 0.73737 0.8623 0.32946 0.0
O270 O 0.74897 0.88595 0.25875 0.0
Zn271 Zn 0.72817 0.88907 0.29404 0.0
O272 O 0.75874 0.90773 0.32311 0.0
O273 O 0.7632 0.87692 0.35903 0.0
O274 O 0.69572 0.91494 0.29403 0.0
O275 O 0.69811 0.88766 0.33304 0.0
O276 O 0.72096 0.8241 0.33451 0.0
O277 O 0.70616 0.84759 0.29551 0.0
C278 C 0.77005 0.90075 0.34738 0.0
C279 C 0.70519 0.82529 0.31199 0.0
C280 C 0.88528 0.01503 0.01555 0.0
C281 C 0.84368 0.93465 0.0674 0.0
O282 O 0.89581 0.01342 0.04118 0.0
Zn283 Zn 0.88775 0.98734 0.07936 0.0
O284 O 0.86408 0.99906 0.00867 0.0
Zn285 Zn 0.86096 0.97822 0.04393 0.0
O286 O 0.84235 0.00877 0.07304 0.0
O287 O 0.87318 0.01315 0.10896 0.0
O288 O 0.83505 0.94581 0.04389 0.0
O289 O 0.86234 0.94813 0.0829 0.0
O290 O 0.92593 0.97087 0.08436 0.0
O291 O 0.90242 0.95615 0.04536 0.0
C292 C 0.84935 0.02004 0.09732 0.0
C293 C 0.92472 0.95513 0.06183 0.0
C294 C 0.26537 0.63534 0.73438 0.0
C295 C 0.1849 0.59363 0.68274 0.0
O296 O 0.26373 0.64582 0.70873 0.0
Zn297 Zn 0.23759 0.63767 0.6706 0.0
O298 O 0.24942 0.61414 0.74131 0.0
Zn299 Zn 0.22852 0.61094 0.70609 0.0
O300 O 0.25904 0.59227 0.67696 0.0
O301 O 0.26336 0.62303 0.64099 0.0
O302 O 0.19611 0.58504 0.70624 0.0
O303 O 0.19836 0.61225 0.66718 0.0
O304 O 0.22112 0.67583 0.66552 0.0
O305 O 0.20645 0.65241 0.7046 0.0
C306 C 0.27027 0.59922 0.65266 0.0
C307 C 0.2054 0.67467 0.68808 0.0
C308 C 0.15099 0.51998 0.40301 0.0
C309 C 0.07563 0.45507 0.43846 0.0
O310 O 0.15802 0.50866 0.42726 0.0
Zn311 Zn 0.13942 0.47806 0.45635 0.0
O312 O 0.12714 0.51314 0.3914 0.0
Zn313 Zn 0.11259 0.48729 0.42097 0.0
O314 O 0.10458 0.51329 0.45921 0.0
O315 O 0.13633 0.49885 0.49167 0.0
O316 O 0.07441 0.47086 0.41596 0.0
O317 O 0.09795 0.45603 0.45491 0.0
O318 O 0.1653 0.44562 0.45629 0.0
O319 O 0.13798 0.44807 0.41731 0.0
C320 C 0.11512 0.51484 0.48484 0.0
C321 C 0.15663 0.43452 0.43276 0.0
C322 C 0.38543 0.48499 0.9841 0.0
C323 C 0.34395 0.56552 0.93231 0.0
O324 O 0.39595 0.48659 0.95846 0.0
Zn325 Zn 0.38789 0.51272 0.92029 0.0
O326 O 0.36425 0.501 0.99098 0.0
Zn327 Zn 0.36114 0.52188 0.95574 0.0
O328 O 0.34244 0.4914 0.92662 0.0
O329 O 0.37322 0.48695 0.89068 0.0
O330 O 0.33531 0.55435 0.95582 0.0
O331 O 0.36256 0.552 0.91679 0.0
O332 O 0.4261 0.5291 0.91526 0.0
O333 O 0.40264 0.54385 0.95428 0.0
C334 C 0.34938 0.48013 0.90233 0.0
C335 C 0.42493 0.54484 0.9378 0.0
C336 C 0.6825 0.81529 0.9063 0.0
C337 C 0.73431 0.73494 0.86454 0.0
O338 O 0.66696 0.80181 0.88768 0.0
Zn339 Zn 0.67047 0.76259 0.86225 0.0
O340 O 0.70603 0.80411 0.91489 0.0
Zn341 Zn 0.70595 0.77172 0.88896 0.0
O342 O 0.7044 0.7938 0.84752 0.0
O343 O 0.66536 0.77906 0.82408 0.0
O344 O 0.74122 0.7509 0.88575 0.0
O345 O 0.70865 0.73653 0.85407 0.0
O346 O 0.64092 0.73674 0.87689 0.0
O347 O 0.67692 0.74112 0.90762 0.0
C348 C 0.68789 0.79482 0.82525 0.0
C349 C 0.65264 0.72983 0.90068 0.0
C350 C 0.51999 0.40245 0.15049 0.0
C351 C 0.4551 0.4378 0.07501 0.0
O352 O 0.50867 0.42673 0.15745 0.0
Zn353 Zn 0.47808 0.45577 0.13879 0.0
O354 O 0.51312 0.39077 0.12668 0.0
Zn355 Zn 0.48727 0.42033 0.11204 0.0
O356 O 0.51333 0.45854 0.10397 0.0
O357 O 0.49887 0.49106 0.13565 0.0
O358 O 0.47087 0.41528 0.07383 0.0
O359 O 0.45607 0.45428 0.0973 0.0
O360 O 0.44564 0.45578 0.16466 0.0
O361 O 0.44801 0.41676 0.1374 0.0
C362 C 0.51489 0.48418 0.11448 0.0
C363 C 0.43449 0.43226 0.15602 0.0
C364 C 0.76575 0.26519 0.36453 0.0
C365 C 0.8176 0.18484 0.40627 0.0
O366 O 0.79141 0.2636 0.35404 0.0
Zn367 Zn 0.82961 0.23755 0.36222 0.0
O368 O 0.75888 0.24924 0.38576 0.0
Zn369 Zn 0.79416 0.22843 0.38896 0.0
O370 O 0.82322 0.259 0.40761 0.0
O371 O 0.85918 0.26339 0.37684 0.0
O372 O 0.79408 0.19603 0.41487 0.0
O373 O 0.83313 0.19832 0.38764 0.0
O374 O 0.8347 0.22108 0.32405 0.0
O375 O 0.79567 0.20634 0.34751 0.0
C376 C 0.8475 0.27028 0.40065 0.0
C377 C 0.81218 0.20532 0.32523 0.0
C378 C 0.98013 0.59717 0.65097 0.0
C379 C 0.04522 0.56178 0.57571 0.0
O380 O 0.99142 0.57291 0.65799 0.0
Zn381 Zn 0.02206 0.54383 0.63943 0.0
O382 O 0.98705 0.60882 0.62716 0.0
Zn383 Zn 0.01293 0.57925 0.61262 0.0
O384 O 0.9869 0.54105 0.6045 0.0
O385 O 0.00127 0.50853 0.63623 0.0
O386 O 0.02944 0.58429 0.57448 0.0
O387 O 0.04418 0.5453 0.598 0.0
O388 O 0.05446 0.54384 0.66537 0.0
O389 O 0.0521 0.58284 0.63808 0.0
C390 C 0.98532 0.51541 0.61501 0.0
C391 C 0.0656 0.56737 0.65674 0.0
C392 C 0.68238 0.18457 0.59367 0.0
C393 C 0.73428 0.26489 0.63536 0.0
O394 O 0.66687 0.19808 0.6123 0.0
Zn395 Zn 0.67043 0.23728 0.63773 0.0
O396 O 0.70592 0.19571 0.58508 0.0
Zn397 Zn 0.70588 0.22811 0.61099 0.0
O398 O 0.70436 0.20605 0.65244 0.0
O399 O 0.66535 0.22083 0.6759 0.0
O400 O 0.74116 0.2489 0.61417 0.0
O401 O 0.70863 0.26332 0.64585 0.0
O402 O 0.64088 0.26314 0.62309 0.0
O403 O 0.67684 0.25871 0.59234 0.0
C404 C 0.68786 0.20505 0.67472 0.0
C405 C 0.65257 0.27001 0.59929 0.0
C406 C 0.98477 0.48459 0.88508 0.0
C407 C 0.06525 0.4329 0.8434 0.0
O408 O 0.98641 0.45895 0.89558 0.0
Zn409 Zn 0.01256 0.42082 0.88745 0.0
O410 O 0.00072 0.49152 0.86388 0.0
Zn411 Zn 0.02162 0.45629 0.8607 0.0
O412 O 0.99108 0.42717 0.84207 0.0
O413 O 0.98678 0.3912 0.87286 0.0
O414 O 0.05404 0.45641 0.83479 0.0
O415 O 0.05178 0.41737 0.86204 0.0
O416 O 0.02902 0.41577 0.92562 0.0
O417 O 0.04369 0.45483 0.90217 0.0
C418 C 0.97985 0.40286 0.84905 0.0
C419 C 0.04473 0.43832 0.92445 0.0
C420 C 0.81197 0.79494 0.1747 0.0
C421 C 0.84731 0.72998 0.0993 0.0
O422 O 0.79547 0.79393 0.15242 0.0
Zn423 Zn 0.79397 0.77186 0.11097 0.0
O424 O 0.8345 0.77918 0.17589 0.0
Zn425 Zn 0.82943 0.76272 0.13772 0.0
O426 O 0.83296 0.80192 0.11228 0.0
O427 O 0.79391 0.80426 0.08505 0.0
O428 O 0.859 0.73687 0.1231 0.0
O429 O 0.82303 0.74127 0.09234 0.0
O430 O 0.75871 0.75104 0.11415 0.0
O431 O 0.79126 0.73665 0.14583 0.0
C432 C 0.81745 0.81541 0.09365 0.0
C433 C 0.76561 0.73505 0.13533 0.0
C434 C 0.45522 0.56181 0.42452 0.0
C435 C 0.52012 0.59721 0.34913 0.0
O436 O 0.45622 0.54532 0.40223 0.0
Zn437 Zn 0.47827 0.54385 0.36076 0.0
O438 O 0.47098 0.58434 0.42571 0.0
Zn439 Zn 0.48741 0.57928 0.38753 0.0
O440 O 0.44818 0.58283 0.36213 0.0
O441 O 0.44584 0.54381 0.33486 0.0
O442 O 0.51323 0.60887 0.37294 0.0
O443 O 0.50884 0.57293 0.34214 0.0
O444 O 0.4991 0.50858 0.36392 0.0
O445 O 0.51349 0.5411 0.39562 0.0
C446 C 0.43468 0.56733 0.34349 0.0
C447 C 0.51509 0.51546 0.38511 0.0
C448 C 0.90067 0.65254 0.72988 0.0
C449 C 0.82515 0.68793 0.79467 0.0
O450 O 0.90762 0.67682 0.74117 0.0
Zn451 Zn 0.88892 0.70591 0.77168 0.0
O452 O 0.87684 0.64089 0.7367 0.0
Zn453 Zn 0.86217 0.67047 0.7625 0.0
O454 O 0.85407 0.70867 0.73643 0.0
O455 O 0.88578 0.74118 0.75084 0.0
O456 O 0.82398 0.66541 0.7789 0.0
O457 O 0.84743 0.70442 0.79368 0.0
O458 O 0.91477 0.70598 0.80413 0.0
O459 O 0.88753 0.66695 0.80177 0.0
C460 C 0.86458 0.73431 0.73486 0.0
C461 C 0.90614 0.68247 0.81529 0.0
C462 C 0.51581 0.61454 0.98496 0.0
C463 C 0.56765 0.65613 0.06538 0.0
O464 O 0.54145 0.60403 0.98656 0.0
Zn465 Zn 0.57963 0.6121 0.01265 0.0
O466 O 0.50892 0.63572 0.00096 0.0
Zn467 Zn 0.54418 0.63886 0.02179 0.0
O468 O 0.57324 0.6575 0.99122 0.0
O469 O 0.60921 0.62674 0.98682 0.0
O470 O 0.54413 0.66475 0.05421 0.0
O471 O 0.58316 0.63749 0.05189 0.0
O472 O 0.58466 0.5739 0.02908 0.0
O473 O 0.54564 0.59739 0.04382 0.0
C474 C 0.59752 0.65054 0.97993 0.0
C475 C 0.56212 0.57509 0.04482 0.0
C476 C 0.59931 0.34732 0.22973 0.0
C477 C 0.67483 0.31206 0.29464 0.0
O478 O 0.59238 0.32305 0.24104 0.0
Zn479 Zn 0.61107 0.29402 0.27163 0.0
O480 O 0.62312 0.35902 0.23659 0.0
Zn481 Zn 0.63779 0.32948 0.26244 0.0
O482 O 0.64592 0.29127 0.23641 0.0
O483 O 0.61424 0.25874 0.25084 0.0
O484 O 0.67598 0.33458 0.27886 0.0
O485 O 0.65255 0.29555 0.29366 0.0
O486 O 0.58519 0.29396 0.30405 0.0
O487 O 0.61241 0.33301 0.3017 0.0
C488 C 0.63543 0.26562 0.23486 0.0
C489 C 0.5938 0.31749 0.31521 0.0
C490 C 0.93825 0.42462 0.54507 0.0
C491 C 0.90283 0.34937 0.47996 0.0
O492 O 0.95469 0.40229 0.54406 0.0
Zn493 Zn 0.95612 0.36086 0.52195 0.0
O494 O 0.91575 0.42588 0.52927 0.0
Zn495 Zn 0.92075 0.38772 0.51277 0.0
O496 O 0.91708 0.36227 0.55194 0.0
O497 O 0.95604 0.33492 0.55433 0.0
O498 O 0.8912 0.3732 0.48684 0.0
O499 O 0.92707 0.34233 0.49129 0.0
O500 O 0.99145 0.36399 0.50122 0.0
O501 O 0.95901 0.39578 0.48681 0.0
C502 C 0.93252 0.34358 0.56545 0.0
C503 C 0.98464 0.38523 0.48527 0.0
C504 C 0.90053 0.34743 0.77005 0.0
C505 C 0.82512 0.31198 0.70518 0.0
O506 O 0.90751 0.32315 0.75879 0.0
Zn507 Zn 0.88887 0.29403 0.72827 0.0
O508 O 0.8767 0.35907 0.76319 0.0
Zn509 Zn 0.8621 0.32947 0.73739 0.0
O510 O 0.85399 0.29129 0.76348 0.0
O511 O 0.88573 0.25878 0.74913 0.0
O512 O 0.82392 0.33451 0.72093 0.0
O513 O 0.84741 0.29549 0.70621 0.0
O514 O 0.91476 0.29393 0.69587 0.0
O515 O 0.88751 0.33297 0.69816 0.0
C516 C 0.86451 0.26566 0.76509 0.0
C517 C 0.90615 0.31745 0.68468 0.0
C518 C 0.93224 0.65635 0.9346 0.0
C519 C 0.98417 0.61462 0.0149 0.0
O520 O 0.91673 0.63772 0.9481 0.0
Zn521 Zn 0.9203 0.61228 0.98731 0.0
O522 O 0.95578 0.66495 0.94575 0.0
Zn523 Zn 0.95575 0.63902 0.97814 0.0
O524 O 0.95421 0.59759 0.95605 0.0
O525 O 0.9152 0.57412 0.97083 0.0
O526 O 0.99104 0.63582 0.99893 0.0
O527 O 0.95852 0.60413 0.01333 0.0
O528 O 0.89076 0.6269 0.01318 0.0
O529 O 0.92672 0.65766 0.00875 0.0
C530 C 0.93771 0.57532 0.95504 0.0
C531 C 0.90245 0.6507 0.02006 0.0
C532 C 0.59941 0.65257 0.27006 0.0
C533 C 0.67482 0.68795 0.20517 0.0
O534 O 0.59243 0.67684 0.25876 0.0
Zn535 Zn 0.61107 0.70592 0.2282 0.0
O536 O 0.62325 0.64092 0.26322 0.0
Zn537 Zn 0.63785 0.6705 0.23739 0.0
O538 O 0.64593 0.70871 0.26342 0.0
O539 O 0.61421 0.7412 0.24901 0.0
O540 O 0.67602 0.66544 0.22095 0.0
O541 O 0.65253 0.70443 0.20616 0.0
O542 O 0.58518 0.70594 0.19577 0.0
O543 O 0.61245 0.66692 0.19815 0.0
C544 C 0.63542 0.73435 0.26499 0.0
C545 C 0.59381 0.68241 0.18463 0.0
C546 C 0.56764 0.34359 0.43449 0.0
C547 C 0.51569 0.38527 0.51479 0.0
O548 O 0.58314 0.36222 0.448 0.0
Zn549 Zn 0.57956 0.38764 0.48722 0.0
O550 O 0.54411 0.33498 0.44564 0.0
Zn551 Zn 0.54412 0.36089 0.47804 0.0
O552 O 0.54564 0.40234 0.45597 0.0
O553 O 0.58464 0.42581 0.47075 0.0
O554 O 0.50883 0.36407 0.49881 0.0
O555 O 0.54134 0.39577 0.51323 0.0
O556 O 0.6091 0.37303 0.51309 0.0
O557 O 0.57315 0.34226 0.50866 0.0
C558 C 0.56213 0.42462 0.45497 0.0
C559 C 0.59742 0.34923 0.51997 0.0
C560 C 0.79475 0.82526 0.68797 0.0
C561 C 0.72986 0.90075 0.65266 0.0
O562 O 0.79376 0.84753 0.70448 0.0
Zn563 Zn 0.77172 0.88901 0.70601 0.0
O564 O 0.77898 0.82411 0.66544 0.0
Zn565 Zn 0.76256 0.86229 0.67055 0.0
O566 O 0.80181 0.88767 0.66703 0.0
O567 O 0.80414 0.91489 0.70608 0.0
O568 O 0.73673 0.87694 0.64098 0.0
O569 O 0.74115 0.9077 0.67695 0.0
O570 O 0.7509 0.88583 0.74128 0.0
O571 O 0.73649 0.85416 0.70873 0.0
C572 C 0.81531 0.90629 0.68256 0.0
C573 C 0.73491 0.86464 0.73439 0.0
C574 C 0.23492 0.63525 0.2657 0.0
C575 C 0.31538 0.59352 0.31743 0.0
O576 O 0.23656 0.64575 0.29135 0.0
Zn577 Zn 0.26268 0.63759 0.32949 0.0
O578 O 0.25086 0.61403 0.2588 0.0
Zn579 Zn 0.27176 0.61084 0.29403 0.0
O580 O 0.24126 0.59219 0.32318 0.0
O581 O 0.23691 0.62299 0.35912 0.0
O582 O 0.30418 0.58492 0.29391 0.0
O583 O 0.3019 0.61215 0.33296 0.0
O584 O 0.27917 0.67574 0.33456 0.0
O585 O 0.29385 0.65228 0.29551 0.0
C586 C 0.23003 0.59917 0.34748 0.0
C587 C 0.2949 0.67455 0.31202 0.0
C588 C 0.6146 0.98484 0.51564 0.0
C589 C 0.6561 0.06534 0.56741 0.0
O590 O 0.60408 0.98645 0.54128 0.0
Zn591 Zn 0.61213 0.01258 0.57943 0.0
O592 O 0.63577 0.00085 0.50874 0.0
Zn593 Zn 0.63888 0.02173 0.54398 0.0
O594 O 0.65755 0.99121 0.57309 0.0
O595 O 0.62678 0.98681 0.60905 0.0
O596 O 0.66473 0.05417 0.5439 0.0
O597 O 0.63748 0.05184 0.58293 0.0
O598 O 0.57392 0.02898 0.58444 0.0
O599 O 0.59738 0.04371 0.54541 0.0
C600 C 0.6506 0.97994 0.59738 0.0
C601 C 0.57508 0.04471 0.56189 0.0
C602 C 0.20496 0.32577 0.81177 0.0
C603 C 0.26999 0.40113 0.84701 0.0
O604 O 0.20598 0.34803 0.79524 0.0
Zn605 Zn 0.22809 0.38946 0.79368 0.0
O606 O 0.22074 0.3246 0.83428 0.0
Zn607 Zn 0.23723 0.36274 0.82915 0.0
O608 O 0.19804 0.3882 0.83268 0.0
O609 O 0.19568 0.4154 0.79362 0.0
O610 O 0.26309 0.37734 0.85869 0.0
O611 O 0.2587 0.40811 0.82272 0.0
O612 O 0.24889 0.38621 0.75839 0.0
O613 O 0.26326 0.35454 0.79096 0.0
C614 C 0.18454 0.40682 0.81716 0.0
C615 C 0.26485 0.365 0.7653 0.0
C616 C 0.34941 0.52001 0.59725 0.0
C617 C 0.4248 0.45509 0.56182 0.0
O618 O 0.34241 0.50873 0.57297 0.0
Zn619 Zn 0.36104 0.47815 0.54389 0.0
O620 O 0.37323 0.51313 0.60889 0.0
Zn621 Zn 0.38782 0.48729 0.5793 0.0
O622 O 0.39591 0.51334 0.54109 0.0
O623 O 0.36416 0.49896 0.50861 0.0
O624 O 0.426 0.47085 0.58434 0.0
O625 O 0.4025 0.45609 0.54534 0.0
O626 O 0.33514 0.44575 0.54385 0.0
O627 O 0.36243 0.44806 0.58286 0.0
C628 C 0.38538 0.51492 0.51545 0.0
C629 C 0.34378 0.43457 0.56735 0.0
C630 C 0.70533 0.17472 0.188 0.0
C631 C 0.77022 0.09927 0.15269 0.0
O632 O 0.70634 0.15246 0.20453 0.0
Zn633 Zn 0.7284 0.111 0.20606 0.0
O634 O 0.72108 0.17588 0.16547 0.0
Zn635 Zn 0.73753 0.13771 0.17059 0.0
O636 O 0.69829 0.11231 0.1671 0.0
O637 O 0.69599 0.0851 0.20617 0.0
O638 O 0.76333 0.12308 0.14102 0.0
O639 O 0.75895 0.09231 0.17698 0.0
O640 O 0.74924 0.11419 0.24132 0.0
O641 O 0.76361 0.14587 0.20876 0.0
C642 C 0.6848 0.0937 0.18264 0.0
C643 C 0.76521 0.13539 0.23442 0.0
C644 C 0.61483 0.0149 0.98459 0.0
C645 C 0.65642 0.93456 0.93261 0.0
O646 O 0.60431 0.01335 0.95895 0.0
Zn647 Zn 0.61239 0.98732 0.92073 0.0
O648 O 0.63605 0.99892 0.99144 0.0
Zn649 Zn 0.63918 0.97813 0.95614 0.0
O650 O 0.6578 0.00872 0.92706 0.0
O651 O 0.62696 0.01317 0.89116 0.0
O652 O 0.66507 0.9457 0.95613 0.0
O653 O 0.63778 0.94809 0.91713 0.0
O654 O 0.57421 0.97089 0.91568 0.0
O655 O 0.59771 0.95609 0.95466 0.0
C656 C 0.65079 0.02003 0.9028 0.0
C657 C 0.57541 0.95511 0.93819 0.0
C658 C 0.84919 0.98002 0.4027 0.0
C659 C 0.92458 0.04497 0.43807 0.0
O660 O 0.8422 0.99133 0.42696 0.0
Zn661 Zn 0.86082 0.02193 0.45602 0.0
O662 O 0.87301 0.98689 0.39105 0.0
Zn663 Zn 0.88761 0.01275 0.42061 0.0
O664 O 0.8957 0.98673 0.45884 0.0
O665 O 0.86398 0.00115 0.49133 0.0
O666 O 0.92579 0.02918 0.41556 0.0
O667 O 0.90228 0.04398 0.45454 0.0
O668 O 0.83494 0.05437 0.45601 0.0
O669 O 0.86223 0.05199 0.41701 0.0
C670 C 0.88519 0.98518 0.48448 0.0
C671 C 0.84359 0.06552 0.43249 0.0
C672 C 0.14149 0.17188 0.45732 0.0
C673 C 0.11124 0.17061 0.45923 0.0
H674 H 0.17821 0.19221 0.43765 0.0
C675 C 0.09456 0.18865 0.44136 0.0
H676 H 0.15485 0.15829 0.47091 0.0
C677 C 0.10789 0.20748 0.42181 0.0
C678 C 0.13815 0.20926 0.4204 0.0
H679 H 0.07118 0.18801 0.44233 0.0
H680 H 0.09453 0.22111 0.40825 0.0
C681 C 0.15482 0.19135 0.4384 0.0
C682 C 0.06163 0.84494 0.69118 0.0
C683 C 0.07967 0.86159 0.70906 0.0
H684 H 0.0291 0.84496 0.65814 0.0
C685 C 0.07832 0.89186 0.70725 0.0
H686 H 0.06233 0.82156 0.69206 0.0
C687 C 0.05877 0.90521 0.68842 0.0
C688 C 0.04087 0.88856 0.6704 0.0
H689 H 0.09191 0.9052 0.72086 0.0
H690 H 0.05785 0.92859 0.68776 0.0
C691 C 0.04272 0.8583 0.67171 0.0
C692 C 0.40533 0.8117 0.94123 0.0
C693 C 0.38864 0.82967 0.95914 0.0
H694 H 0.40538 0.77928 0.90807 0.0
C695 C 0.35839 0.82833 0.95728 0.0
H696 H 0.42871 0.81239 0.94215 0.0
C697 C 0.34507 0.80886 0.93836 0.0
C698 C 0.36175 0.79102 0.92031 0.0
H699 H 0.34502 0.84187 0.97092 0.0
H700 H 0.32169 0.80795 0.93765 0.0
C701 C 0.39201 0.79287 0.92167 0.0
C702 C 0.43818 0.15482 0.19129 0.0
C703 C 0.42013 0.13811 0.2091 0.0
H704 H 0.4708 0.15493 0.15834 0.0
C705 C 0.42154 0.10785 0.20725 0.0
H706 H 0.43743 0.1782 0.19221 0.0
C707 C 0.44116 0.09456 0.18845 0.0
C708 C 0.45908 0.11128 0.17051 0.0
H709 H 0.40795 0.09446 0.22081 0.0
H710 H 0.44213 0.07119 0.18775 0.0
C711 C 0.45716 0.14154 0.17185 0.0
C712 C 0.10814 0.7928 0.07834 0.0
C713 C 0.1384 0.79093 0.07972 0.0
H714 H 0.07146 0.81237 0.05784 0.0
C715 C 0.1551 0.80879 0.0617 0.0
H716 H 0.09476 0.77921 0.0919 0.0
C717 C 0.1418 0.82829 0.04279 0.0
C718 C 0.11154 0.82965 0.0409 0.0
H719 H 0.17848 0.80786 0.06242 0.0
H720 H 0.15518 0.84184 0.02918 0.0
C721 C 0.09484 0.81166 0.05878 0.0
C722 C 0.45736 0.85789 0.3283 0.0
C723 C 0.45917 0.88815 0.32968 0.0
H724 H 0.43784 0.82118 0.30783 0.0
C725 C 0.44127 0.90483 0.31168 0.0
H726 H 0.47099 0.84453 0.34186 0.0
C727 C 0.42178 0.8915 0.29278 0.0
C728 C 0.42048 0.86125 0.2909 0.0
H729 H 0.44216 0.92821 0.3124 0.0
H730 H 0.4082 0.90487 0.27918 0.0
C731 C 0.43851 0.84456 0.30877 0.0
C732 C 0.39151 0.207 0.57828 0.0
C733 C 0.36126 0.2089 0.57965 0.0
H734 H 0.42818 0.18736 0.55785 0.0
C735 C 0.34454 0.191 0.56168 0.0
H736 H 0.4049 0.22062 0.59181 0.0
C737 C 0.35783 0.17143 0.54283 0.0
C738 C 0.38809 0.17005 0.54094 0.0
H739 H 0.32116 0.19195 0.5624 0.0
H740 H 0.34444 0.15786 0.52925 0.0
C741 C 0.4048 0.18808 0.55879 0.0
C742 C 0.06134 0.15544 0.80882 0.0
C743 C 0.07939 0.13883 0.79092 0.0
H744 H 0.02887 0.15536 0.84192 0.0
C745 C 0.07812 0.10856 0.79273 0.0
H746 H 0.06198 0.17883 0.80793 0.0
C747 C 0.05865 0.09516 0.8116 0.0
C748 C 0.04074 0.11178 0.82965 0.0
H749 H 0.09171 0.09525 0.7791 0.0
H750 H 0.0578 0.07178 0.81227 0.0
C751 C 0.04251 0.14205 0.82833 0.0
C752 C 0.20712 0.42166 0.10804 0.0
C753 C 0.20896 0.42028 0.1383 0.0
H754 H 0.18756 0.44213 0.07134 0.0
C755 C 0.19108 0.43829 0.15499 0.0
H756 H 0.22073 0.4081 0.09467 0.0
C757 C 0.17157 0.45718 0.14167 0.0
C758 C 0.17023 0.45906 0.11141 0.0
H759 H 0.19199 0.43757 0.17837 0.0
H760 H 0.158 0.47078 0.15504 0.0
C761 C 0.18825 0.44119 0.09473 0.0
C762 C 0.70737 0.0782 0.89189 0.0
C763 C 0.70917 0.07954 0.86162 0.0
H764 H 0.68785 0.05778 0.92863 0.0
C765 C 0.69128 0.06151 0.84497 0.0
H766 H 0.72099 0.09178 0.90522 0.0
C767 C 0.67179 0.04263 0.85834 0.0
C768 C 0.67049 0.04079 0.8886 0.0
H769 H 0.69216 0.0622 0.82159 0.0
H770 H 0.65821 0.02901 0.845 0.0
C771 C 0.68852 0.05868 0.90525 0.0
C772 C 0.79263 0.92182 0.39183 0.0
C773 C 0.7908 0.92048 0.36157 0.0
H774 H 0.81217 0.94225 0.42856 0.0
C775 C 0.80867 0.93851 0.34491 0.0
H776 H 0.77902 0.90823 0.40518 0.0
C777 C 0.82816 0.9574 0.35825 0.0
C778 C 0.82949 0.95924 0.38851 0.0
H779 H 0.80777 0.93782 0.32152 0.0
H780 H 0.84173 0.97102 0.3449 0.0
C781 C 0.81148 0.94134 0.40518 0.0
C782 C 0.81164 0.05871 0.09487 0.0
C783 C 0.82966 0.04081 0.11153 0.0
H784 H 0.77916 0.0918 0.09489 0.0
C785 C 0.82835 0.04264 0.14179 0.0
H786 H 0.81231 0.05781 0.07149 0.0
C787 C 0.80885 0.06151 0.15515 0.0
C788 C 0.79096 0.07955 0.13849 0.0
H789 H 0.84193 0.02901 0.15513 0.0
H790 H 0.80796 0.0622 0.17853 0.0
C791 C 0.79278 0.07822 0.10823 0.0
C792 C 0.29279 0.57815 0.60818 0.0
C793 C 0.29101 0.57951 0.63844 0.0
H794 H 0.3123 0.55773 0.57143 0.0
C795 C 0.30894 0.5615 0.65509 0.0
H796 H 0.27915 0.59172 0.59485 0.0
C797 C 0.32843 0.54262 0.64172 0.0
C798 C 0.32971 0.54077 0.61146 0.0
H799 H 0.30807 0.5622 0.67847 0.0
H800 H 0.34204 0.52902 0.65505 0.0
C801 C 0.31165 0.55865 0.59481 0.0
C802 C 0.19137 0.56144 0.34511 0.0
C803 C 0.20932 0.57945 0.36173 0.0
H804 H 0.15828 0.52897 0.3452 0.0
C805 C 0.20759 0.5781 0.39199 0.0
H806 H 0.1922 0.56214 0.32173 0.0
C807 C 0.18876 0.55859 0.40539 0.0
C808 C 0.17067 0.54073 0.38878 0.0
H809 H 0.22125 0.59167 0.40531 0.0
H810 H 0.18815 0.55768 0.42878 0.0
C811 C 0.17191 0.54257 0.35851 0.0
C812 C 0.32826 0.45762 0.85787 0.0
C813 C 0.32962 0.45943 0.88813 0.0
H814 H 0.30778 0.43814 0.82114 0.0
C815 C 0.31157 0.44157 0.90479 0.0
H816 H 0.34186 0.47122 0.84452 0.0
C817 C 0.29264 0.42212 0.89144 0.0
C818 C 0.29078 0.42081 0.86118 0.0
H819 H 0.31227 0.44246 0.92817 0.0
H820 H 0.27901 0.40857 0.90479 0.0
C821 C 0.3087 0.43881 0.84452 0.0
C822 C 0.59495 0.68826 0.94128 0.0
C823 C 0.61166 0.67025 0.95914 0.0
H824 H 0.59486 0.72077 0.90821 0.0
C825 C 0.64192 0.67162 0.95726 0.0
H826 H 0.57157 0.68755 0.94221 0.0
C827 C 0.65521 0.69115 0.93838 0.0
C828 C 0.6385 0.70903 0.92039 0.0
H829 H 0.6553 0.65805 0.97086 0.0
H830 H 0.67859 0.69208 0.93766 0.0
C831 C 0.60825 0.70716 0.92176 0.0
C832 C 0.56157 0.34476 0.19108 0.0
C833 C 0.57958 0.36146 0.20895 0.0
H834 H 0.52907 0.34467 0.15801 0.0
C835 C 0.57819 0.39172 0.20708 0.0
H836 H 0.5623 0.32138 0.19201 0.0
C837 C 0.55866 0.40502 0.18821 0.0
C838 C 0.54078 0.38831 0.1702 0.0
H839 H 0.59176 0.4051 0.22068 0.0
H840 H 0.55771 0.4284 0.1875 0.0
C841 C 0.54267 0.35806 0.17157 0.0
C842 C 0.9053 0.31168 0.44127 0.0
C843 C 0.88864 0.32972 0.45914 0.0
H844 H 0.90531 0.2792 0.40817 0.0
C845 C 0.85838 0.32843 0.45726 0.0
H846 H 0.92868 0.31233 0.44221 0.0
C847 C 0.84503 0.30895 0.43837 0.0
C848 C 0.8617 0.29104 0.42036 0.0
H849 H 0.84503 0.34202 0.47087 0.0
H850 H 0.82165 0.30807 0.43765 0.0
C851 C 0.89196 0.29283 0.42173 0.0
C852 C 0.9218 0.60807 0.70739 0.0
C853 C 0.92044 0.63833 0.70918 0.0
H854 H 0.9423 0.57133 0.68794 0.0
C855 C 0.93851 0.65499 0.69133 0.0
H856 H 0.90819 0.59473 0.72098 0.0
C857 C 0.95745 0.64163 0.6719 0.0
C858 C 0.95931 0.61137 0.6706 0.0
H859 H 0.9378 0.67837 0.6922 0.0
H860 H 0.97109 0.65497 0.65835 0.0
C861 C 0.94137 0.59471 0.68859 0.0
C862 C 0.64182 0.32818 0.54267 0.0
C863 C 0.61157 0.32953 0.54078 0.0
H864 H 0.67851 0.30775 0.5623 0.0
C865 C 0.59486 0.31152 0.55865 0.0
H866 H 0.6552 0.34175 0.52907 0.0
C867 C 0.60817 0.29265 0.57818 0.0
C868 C 0.63842 0.2908 0.57957 0.0
H869 H 0.57148 0.31222 0.5577 0.0
H870 H 0.59479 0.27904 0.59174 0.0
C871 C 0.65513 0.30867 0.56157 0.0
C872 C 0.93834 0.34502 0.80863 0.0
C873 C 0.92027 0.36166 0.79077 0.0
H874 H 0.97091 0.34506 0.84164 0.0
C875 C 0.92158 0.39192 0.79257 0.0
H876 H 0.93767 0.32164 0.80775 0.0
C877 C 0.94112 0.40529 0.81139 0.0
C878 C 0.95907 0.38865 0.82939 0.0
H879 H 0.90797 0.40525 0.77897 0.0
H880 H 0.94201 0.42868 0.81205 0.0
C881 C 0.95725 0.35839 0.82808 0.0
C882 C 0.89171 0.70732 0.07822 0.0
C883 C 0.86146 0.70918 0.0796 0.0
H884 H 0.92839 0.68772 0.05777 0.0
C885 C 0.84475 0.6913 0.06161 0.0
H886 H 0.90509 0.72093 0.09177 0.0
C887 C 0.85805 0.67177 0.04273 0.0
C888 C 0.88831 0.67041 0.04085 0.0
H889 H 0.82137 0.69222 0.06233 0.0
H890 H 0.84467 0.6582 0.02914 0.0
C891 C 0.90501 0.68843 0.05871 0.0
C892 C 0.54273 0.64167 0.32813 0.0
C893 C 0.5409 0.61141 0.32945 0.0
H894 H 0.56231 0.6784 0.30776 0.0
C895 C 0.55882 0.59475 0.31145 0.0
H896 H 0.52909 0.65501 0.34169 0.0
C897 C 0.57836 0.60811 0.29261 0.0
C898 C 0.57969 0.63837 0.2908 0.0
H899 H 0.55792 0.57137 0.31212 0.0
H900 H 0.59196 0.59477 0.27901 0.0
C901 C 0.56163 0.65502 0.30866 0.0
C902 C 0.70723 0.9218 0.60823 0.0
C903 C 0.70909 0.92047 0.63849 0.0
H904 H 0.68764 0.9422 0.57152 0.0
C905 C 0.69122 0.9385 0.65517 0.0
H906 H 0.72084 0.90822 0.59487 0.0
C907 C 0.67169 0.95736 0.64183 0.0
C908 C 0.67033 0.95919 0.61157 0.0
H909 H 0.69214 0.93781 0.67855 0.0
H910 H 0.65812 0.97098 0.65519 0.0
C911 C 0.68834 0.9413 0.5949 0.0
C912 C 0.22179 0.35731 0.28596 0.0
C913 C 0.21801 0.34947 0.25688 0.0
H914 H 0.21521 0.34595 0.3302 0.0
C915 C 0.20111 0.32503 0.25031 0.0
H916 H 0.23452 0.37603 0.29185 0.0
C917 C 0.18969 0.30786 0.27251 0.0
C918 C 0.19547 0.31466 0.3015 0.0
H919 H 0.19775 0.31846 0.2281 0.0
H920 H 0.17778 0.28848 0.267 0.0
C921 C 0.21086 0.33997 0.30798 0.0
C922 C 0.89248 0.97217 0.53622 0.0
C923 C 0.9003 0.9684 0.50714 0.0
H924 H 0.90387 0.96562 0.58046 0.0
C925 C 0.92476 0.95152 0.50056 0.0
H926 H 0.87374 0.98489 0.54212 0.0
C927 C 0.94196 0.94013 0.52275 0.0
C928 C 0.93517 0.9459 0.55174 0.0
H929 H 0.93131 0.94816 0.47835 0.0
H930 H 0.96135 0.92823 0.51724 0.0
C931 C 0.90985 0.96127 0.55824 0.0
C932 C 0.28956 0.65996 0.80804 0.0
C933 C 0.30474 0.68538 0.80151 0.0
H934 H 0.26607 0.62375 0.79199 0.0
C935 C 0.31034 0.69225 0.77251 0.0
H936 H 0.28535 0.65392 0.83028 0.0
C937 C 0.29894 0.67502 0.75034 0.0
C938 C 0.28223 0.65046 0.75697 0.0
H939 H 0.32209 0.71172 0.76697 0.0
H940 H 0.30215 0.68163 0.72813 0.0
C941 C 0.27865 0.64256 0.78605 0.0
C942 C 0.57527 0.04856 0.00069 0.0
C943 C 0.59975 0.0317 0.00725 0.0
H944 H 0.53869 0.07183 0.01738 0.0
C945 C 0.60761 0.02795 0.03633 0.0
H946 H 0.56869 0.0519 0.97848 0.0
C947 C 0.59025 0.03885 0.05836 0.0
C948 C 0.56492 0.0542 0.05187 0.0
H949 H 0.62636 0.01524 0.04223 0.0
H950 H 0.59626 0.03452 0.08058 0.0
C951 C 0.55809 0.05995 0.02289 0.0
C952 C 0.21075 0.65985 0.19201 0.0
C953 C 0.19551 0.68525 0.19853 0.0
H954 H 0.23429 0.62368 0.20808 0.0
C955 C 0.1899 0.69212 0.22753 0.0
H956 H 0.21497 0.65381 0.16978 0.0
C957 C 0.20133 0.67492 0.2497 0.0
C958 C 0.21808 0.65038 0.2431 0.0
H959 H 0.17812 0.71157 0.23306 0.0
H960 H 0.1981 0.68153 0.27192 0.0
C961 C 0.22168 0.64248 0.21401 0.0
C962 C 0.57504 0.95115 0.49965 0.0
C963 C 0.59953 0.96796 0.49304 0.0
H964 H 0.53842 0.92789 0.48302 0.0
C965 C 0.60742 0.97159 0.46396 0.0
H966 H 0.56844 0.9479 0.52187 0.0
C967 C 0.59006 0.96064 0.44196 0.0
C968 C 0.56469 0.94537 0.44849 0.0
H969 H 0.62619 0.98424 0.45803 0.0
H970 H 0.59607 0.96489 0.41973 0.0
C971 C 0.55785 0.93971 0.47748 0.0
C972 C 0.3099 0.30813 0.72718 0.0
C973 C 0.30421 0.31492 0.69818 0.0
H974 H 0.30177 0.31881 0.77156 0.0
C975 C 0.28892 0.34027 0.69162 0.0
H976 H 0.32173 0.28871 0.73274 0.0
C977 C 0.27799 0.35767 0.7136 0.0
C978 C 0.28167 0.34985 0.7427 0.0
H979 H 0.28464 0.34624 0.66938 0.0
H980 H 0.26533 0.37644 0.70765 0.0
C981 C 0.29848 0.32536 0.74933 0.0
C982 C 0.92485 0.0487 0.99952 0.0
C983 C 0.90037 0.03186 0.99292 0.0
H984 H 0.96145 0.07196 0.98288 0.0
C985 C 0.89251 0.02816 0.96384 0.0
H986 H 0.93142 0.05201 0.02174 0.0
C987 C 0.90988 0.03908 0.94183 0.0
C988 C 0.93523 0.05439 0.94835 0.0
H989 H 0.87376 0.01548 0.95792 0.0
H990 H 0.90389 0.03479 0.91961 0.0
C991 C 0.94205 0.06011 0.97735 0.0
C992 C 0.30759 0.21015 0.33999 0.0
C993 C 0.30106 0.19511 0.31449 0.0
H994 H 0.29156 0.2336 0.37623 0.0
C995 C 0.27205 0.1897 0.30749 0.0
H996 H 0.32983 0.2142 0.34611 0.0
C997 C 0.24989 0.20117 0.32469 0.0
C998 C 0.25653 0.21776 0.34933 0.0
H999 H 0.26651 0.17806 0.28796 0.0
H1000 H 0.22768 0.19812 0.31798 0.0
C1001 C 0.28561 0.22112 0.35735 0.0
C1002 C 0.04852 0.0007 0.57528 0.0
C1003 C 0.03164 0.00725 0.59975 0.0
H1004 H 0.07179 0.01741 0.53871 0.0
C1005 C 0.02785 0.03632 0.60759 0.0
H1006 H 0.05189 0.97849 0.56871 0.0
C1007 C 0.03873 0.05836 0.59024 0.0
C1008 C 0.0541 0.05188 0.56491 0.0
H1009 H 0.01513 0.04221 0.62634 0.0
H1010 H 0.03437 0.08057 0.59623 0.0
C1011 C 0.0599 0.02291 0.5581 0.0
C1012 C 0.22756 0.81011 0.80768 0.0
C1013 C 0.19858 0.8044 0.81455 0.0
H1014 H 0.27197 0.80202 0.81826 0.0
C1015 C 0.19211 0.78911 0.83991 0.0
H1016 H 0.23306 0.82195 0.78825 0.0
C1017 C 0.21414 0.77821 0.85727 0.0
C1018 C 0.24321 0.78191 0.84938 0.0
H1019 H 0.16989 0.78481 0.84594 0.0
H1020 H 0.20825 0.76554 0.87605 0.0
C1021 C 0.24977 0.79872 0.82487 0.0
C1022 C 0.45155 0.99939 0.07537 0.0
C1023 C 0.46845 0.99279 0.09981 0.0
H1024 H 0.42822 0.98274 0.0388 0.0
C1025 C 0.47223 0.9637 0.10761 0.0
H1026 H 0.44818 0.0216 0.06884 0.0
C1027 C 0.46131 0.9417 0.09025 0.0
C1028 C 0.44591 0.94822 0.06495 0.0
H1029 H 0.48498 0.95779 0.12634 0.0
H1030 H 0.46566 0.91947 0.09621 0.0
C1031 C 0.44013 0.97721 0.05817 0.0
C1032 C 0.3081 0.78876 0.16001 0.0
C1033 C 0.30165 0.8041 0.18536 0.0
H1034 H 0.29192 0.76519 0.12391 0.0
C1035 C 0.27268 0.80987 0.19221 0.0
H1036 H 0.33031 0.78442 0.15399 0.0
C1037 C 0.25045 0.79851 0.17504 0.0
C1038 C 0.25698 0.78166 0.15055 0.0
H1039 H 0.2672 0.82175 0.21162 0.0
H1040 H 0.22825 0.80186 0.18164 0.0
C1041 C 0.28605 0.77789 0.14267 0.0
C1042 C 0.45118 2e-05 0.42514 0.0
C1043 C 0.4679 0.00662 0.40058 0.0
H1044 H 0.42795 0.01667 0.46177 0.0
C1045 C 0.47139 0.0357 0.39261 0.0
H1046 H 0.44804 0.97781 0.43181 0.0
C1047 C 0.46039 0.0577 0.40993 0.0
C1048 C 0.44521 0.05119 0.43535 0.0
H1049 H 0.48397 0.04162 0.37378 0.0
H1050 H 0.46454 0.07993 0.40383 0.0
C1051 C 0.43969 0.02219 0.4423 0.0
C1052 C 0.19157 0.21157 0.66002 0.0
C1053 C 0.19805 0.19616 0.68532 0.0
H1054 H 0.20772 0.23514 0.6239 0.0
C1055 C 0.22703 0.1903 0.69209 0.0
H1056 H 0.16935 0.21599 0.65406 0.0
C1057 C 0.24923 0.20162 0.67487 0.0
C1058 C 0.24268 0.21851 0.65041 0.0
H1059 H 0.23253 0.17837 0.71146 0.0
H1060 H 0.27144 0.19818 0.68139 0.0
C1061 C 0.2136 0.2224 0.64262 0.0
C1062 C 0.03911 0.94197 0.90985 0.0
C1063 C 0.05441 0.94844 0.93521 0.0
H1064 H 0.01551 0.95811 0.87374 0.0
C1065 C 0.06009 0.97743 0.94209 0.0
H1066 H 0.03483 0.91975 0.90381 0.0
C1067 C 0.04866 0.99963 0.92493 0.0
C1068 C 0.03185 0.99307 0.90042 0.0
H1069 H 0.07192 0.98293 0.96152 0.0
H1070 H 0.05194 0.02184 0.93154 0.0
C1071 C 0.02818 0.964 0.89251 0.0
C1072 C 0.30748 0.27233 0.18983 0.0
C1073 C 0.31439 0.30131 0.19552 0.0
H1074 H 0.31798 0.22791 0.19796 0.0
C1075 C 0.33975 0.30775 0.21083 0.0
H1076 H 0.28805 0.26686 0.17798 0.0
C1077 C 0.35706 0.2857 0.22176 0.0
C1078 C 0.34913 0.25663 0.21808 0.0
H1079 H 0.34582 0.32996 0.21511 0.0
H1080 H 0.37584 0.29157 0.23444 0.0
C1081 C 0.32462 0.25011 0.20125 0.0
C1082 C 0.8077 0.22739 0.81006 0.0
C1083 C 0.81458 0.19841 0.80438 0.0
H1084 H 0.81826 0.2718 0.80194 0.0
C1085 C 0.83997 0.19192 0.78913 0.0
H1086 H 0.78825 0.2329 0.82186 0.0
C1087 C 0.85733 0.21395 0.77824 0.0
C1088 C 0.84942 0.24302 0.7819 0.0
H1089 H 0.84602 0.1697 0.78486 0.0
H1090 H 0.87613 0.20805 0.76561 0.0
C1091 C 0.82489 0.24959 0.79867 0.0
C1092 C 0.03588 0.60742 0.02806 0.0
C1093 C 0.0068 0.59952 0.03172 0.0
H1094 H 0.08012 0.59612 0.03473 0.0
C1095 C 0.00023 0.575 0.04851 0.0
H1096 H 0.04178 0.62621 0.01542 0.0
C1097 C 0.02243 0.55782 0.05993 0.0
C1098 C 0.05142 0.5647 0.05427 0.0
H1099 H 0.97803 0.56839 0.05178 0.0
H1100 H 0.01692 0.53839 0.07175 0.0
C1101 C 0.0579 0.59008 0.03899 0.0
C1102 C 0.64262 0.78607 0.27808 0.0
C1103 C 0.6505 0.757 0.2818 0.0
H1104 H 0.65394 0.83032 0.28469 0.0
C1105 C 0.675 0.75043 0.29863 0.0
H1106 H 0.62385 0.79197 0.2654 0.0
C1107 C 0.69218 0.77263 0.31003 0.0
C1108 C 0.68532 0.80162 0.30431 0.0
H1109 H 0.6816 0.72823 0.30194 0.0
H1110 H 0.71159 0.76713 0.32188 0.0
C1111 C 0.65996 0.8081 0.28899 0.0
C1112 C 0.99955 0.92486 0.04851 0.0
C1113 C 0.99299 0.90043 0.0316 0.0
H1114 H 0.98287 0.96141 0.07184 0.0
C1115 C 0.96391 0.89261 0.02779 0.0
H1116 H 0.02176 0.93141 0.05189 0.0
C1117 C 0.94188 0.90996 0.03871 0.0
C1118 C 0.94837 0.93526 0.05412 0.0
H1119 H 0.95801 0.87389 0.01505 0.0
H1120 H 0.91967 0.90399 0.03434 0.0
C1121 C 0.97736 0.94204 0.05991 0.0
C1122 C 0.1923 0.72731 0.68994 0.0
C1123 C 0.18551 0.69833 0.69574 0.0
H1124 H 0.18164 0.77172 0.69791 0.0
C1125 C 0.16019 0.69184 0.7111 0.0
H1126 H 0.21169 0.73281 0.67805 0.0
C1127 C 0.1428 0.71387 0.72196 0.0
C1128 C 0.15062 0.74295 0.71816 0.0
H1129 H 0.15421 0.66963 0.71547 0.0
H1130 H 0.12406 0.70798 0.73468 0.0
C1131 C 0.17509 0.74951 0.70129 0.0
C1132 C 0.03641 0.39251 0.47239 0.0
C1133 C 0.00733 0.40033 0.46854 0.0
H1134 H 0.08066 0.4039 0.46593 0.0
C1135 C 0.00079 0.42478 0.45164 0.0
H1136 H 0.04229 0.37378 0.48513 0.0
C1137 C 0.023 0.44198 0.44029 0.0
C1138 C 0.05198 0.43519 0.44613 0.0
H1139 H 0.97859 0.43133 0.44822 0.0
H1140 H 0.0175 0.46136 0.42837 0.0
C1141 C 0.05845 0.40988 0.46153 0.0
C1142 C 0.47759 0.5578 0.93986 0.0
C1143 C 0.4486 0.56469 0.94549 0.0
H1144 H 0.52198 0.56833 0.94806 0.0
C1145 C 0.4421 0.59007 0.96076 0.0
H1146 H 0.4831 0.53836 0.92804 0.0
C1147 C 0.46411 0.6074 0.97171 0.0
C1148 C 0.49319 0.59948 0.96809 0.0
H1149 H 0.41987 0.59613 0.96499 0.0
H1150 H 0.45821 0.62619 0.98435 0.0
C1151 C 0.49977 0.57496 0.9513 0.0
C1152 C 0.71082 0.84008 0.8081 0.0
C1153 C 0.69554 0.81471 0.8016 0.0
H1154 H 0.7344 0.87621 0.79201 0.0
C1155 C 0.68986 0.80786 0.7726 0.0
H1156 H 0.71509 0.8461 0.83033 0.0
C1157 C 0.70128 0.82505 0.75042 0.0
C1158 C 0.71808 0.84955 0.75701 0.0
H1159 H 0.67804 0.78843 0.76709 0.0
H1160 H 0.698 0.81845 0.72821 0.0
C1161 C 0.72174 0.85744 0.78609 0.0
C1162 C 0.44215 0.43986 0.02234 0.0
C1163 C 0.43525 0.44549 0.05133 0.0
H1164 H 0.43164 0.44809 0.97794 0.0
C1165 C 0.40986 0.46076 0.05781 0.0
H1166 H 0.4616 0.42805 0.01684 0.0
C1167 C 0.39254 0.47172 0.03579 0.0
C1168 C 0.40048 0.46811 0.00671 0.0
H1169 H 0.4038 0.46499 0.08004 0.0
H1170 H 0.37375 0.48436 0.04169 0.0
C1171 C 0.425 0.45132 0.00014 0.0
C1172 C 0.81021 0.19224 0.2726 0.0
C1173 C 0.80453 0.18541 0.3016 0.0
H1174 H 0.80209 0.18161 0.22821 0.0
C1175 C 0.78927 0.16004 0.30812 0.0
H1176 H 0.82202 0.21167 0.26707 0.0
C1177 C 0.77836 0.14265 0.28612 0.0
C1178 C 0.78203 0.15051 0.25703 0.0
H1179 H 0.785 0.15403 0.33035 0.0
H1180 H 0.76572 0.12387 0.29204 0.0
C1181 C 0.79881 0.17503 0.25043 0.0
C1182 C 0.09043 0.53867 0.5586 0.0
C1183 C 0.06514 0.5541 0.55209 0.0
H1184 H 0.12652 0.51501 0.5425 0.0
C1185 C 0.0584 0.55994 0.5231 0.0
H1186 H 0.09636 0.53427 0.58082 0.0
C1187 C 0.07562 0.54856 0.50092 0.0
C1188 C 0.10003 0.53162 0.5075 0.0
H1189 H 0.03905 0.57188 0.51757 0.0
H1190 H 0.0691 0.55197 0.4787 0.0
C1191 C 0.10781 0.52778 0.53659 0.0
C1192 C 0.71084 0.15981 0.6919 0.0
C1193 C 0.69553 0.18517 0.69839 0.0
H1194 H 0.73444 0.1237 0.70803 0.0
C1195 C 0.68982 0.19202 0.72737 0.0
H1196 H 0.71513 0.15379 0.66968 0.0
C1197 C 0.70124 0.17485 0.74957 0.0
C1198 C 0.71807 0.15036 0.743 0.0
H1199 H 0.67797 0.21144 0.73288 0.0
H1200 H 0.69794 0.18145 0.77178 0.0
C1201 C 0.72176 0.14247 0.71393 0.0
C1202 C 0.05783 0.44014 0.97709 0.0
C1203 C 0.0646 0.44601 0.94811 0.0
H1204 H 0.06847 0.44805 0.02151 0.0
C1205 C 0.08989 0.46144 0.94165 0.0
H1206 H 0.03846 0.4282 0.98257 0.0
C1207 C 0.10725 0.47229 0.9637 0.0
C1208 C 0.09945 0.46841 0.99277 0.0
H1209 H 0.09585 0.46586 0.91944 0.0
H1210 H 0.12597 0.48506 0.95782 0.0
C1211 C 0.07501 0.45149 0.9993 0.0
C1212 C 0.79865 0.8252 0.24953 0.0
C1213 C 0.78178 0.84967 0.24296 0.0
H1214 H 0.82193 0.78862 0.23285 0.0
C1215 C 0.77803 0.85752 0.21388 0.0
H1216 H 0.80199 0.81863 0.27174 0.0
C1217 C 0.78894 0.84017 0.19186 0.0
C1218 C 0.8043 0.81483 0.19835 0.0
H1219 H 0.76532 0.87627 0.20797 0.0
H1220 H 0.78461 0.84616 0.16963 0.0
C1221 C 0.81005 0.80802 0.22734 0.0
C1222 C 0.39263 0.52794 0.46372 0.0
C1223 C 0.40048 0.5317 0.4928 0.0
H1224 H 0.404 0.53448 0.41947 0.0
C1225 C 0.42496 0.54854 0.49936 0.0
H1226 H 0.37387 0.51524 0.45783 0.0
C1227 C 0.44216 0.55991 0.47716 0.0
C1228 C 0.43534 0.55415 0.44818 0.0
H1229 H 0.43154 0.55189 0.52157 0.0
H1230 H 0.46157 0.57178 0.48267 0.0
C1231 C 0.41 0.53881 0.44169 0.0
C1232 C 0.75033 0.70136 0.82489 0.0
C1233 C 0.75692 0.71812 0.84942 0.0
H1234 H 0.76698 0.67817 0.78823 0.0
C1235 C 0.78601 0.72174 0.85732 0.0
H1236 H 0.72811 0.69812 0.81828 0.0
C1237 C 0.80801 0.71082 0.83995 0.0
C1238 C 0.8015 0.69559 0.81456 0.0
H1239 H 0.79193 0.73435 0.87612 0.0
H1240 H 0.83024 0.71506 0.84599 0.0
C1241 C 0.7725 0.68995 0.80768 0.0
C1242 C 0.5486 0.50024 0.07495 0.0
C1243 C 0.53175 0.50681 0.09943 0.0
H1244 H 0.57194 0.51692 0.0384 0.0
C1245 C 0.52809 0.53589 0.10733 0.0
H1246 H 0.55188 0.47803 0.06834 0.0
C1247 C 0.53907 0.55791 0.09002 0.0
C1248 C 0.5544 0.55142 0.06468 0.0
H1249 H 0.51539 0.54179 0.12609 0.0
H1250 H 0.5348 0.58013 0.09605 0.0
C1251 C 0.56007 0.52243 0.05781 0.0
C1252 C 0.69201 0.28916 0.33991 0.0
C1253 C 0.69849 0.30442 0.31453 0.0
H1254 H 0.70813 0.26565 0.37608 0.0
C1255 C 0.72748 0.31012 0.30766 0.0
H1256 H 0.66979 0.28488 0.34594 0.0
C1257 C 0.74968 0.29874 0.32487 0.0
C1258 C 0.74311 0.28197 0.3494 0.0
H1259 H 0.73298 0.32192 0.28822 0.0
H1260 H 0.77189 0.30203 0.31827 0.0
C1261 C 0.71403 0.27829 0.35729 0.0
C1262 C 0.97225 0.46369 0.60769 0.0
C1263 C 0.96851 0.49278 0.59989 0.0
H1264 H 0.96564 0.41947 0.59627 0.0
C1265 C 0.95164 0.4994 0.57543 0.0
H1266 H 0.98496 0.45775 0.62643 0.0
C1267 C 0.94022 0.47724 0.55822 0.0
C1268 C 0.94596 0.44824 0.56499 0.0
H1269 H 0.9483 0.52162 0.5689 0.0
H1270 H 0.92833 0.48279 0.53884 0.0
C1271 C 0.96132 0.4417 0.59031 0.0
C1272 C 0.80799 0.28897 0.65995 0.0
C1273 C 0.80147 0.30429 0.68529 0.0
H1274 H 0.7919 0.26536 0.62383 0.0
C1275 C 0.77248 0.30998 0.69213 0.0
H1276 H 0.83022 0.28469 0.65394 0.0
C1277 C 0.7503 0.29855 0.67493 0.0
C1278 C 0.7569 0.28172 0.65045 0.0
H1279 H 0.76695 0.32183 0.71154 0.0
H1280 H 0.72809 0.30185 0.68152 0.0
C1281 C 0.78598 0.27804 0.64259 0.0
C1282 C 0.93972 0.52269 0.94195 0.0
C1283 C 0.94534 0.5517 0.93511 0.0
H1284 H 0.94793 0.47832 0.93133 0.0
C1285 C 0.96055 0.55825 0.90971 0.0
H1286 H 0.92795 0.51714 0.96141 0.0
C1287 C 0.97148 0.53627 0.89231 0.0
C1288 C 0.96789 0.50717 0.90019 0.0
H1289 H 0.96476 0.58048 0.90369 0.0
H1290 H 0.98408 0.54221 0.87351 0.0
C1291 C 0.95114 0.50054 0.92473 0.0
C1292 C 0.72745 0.68997 0.19213 0.0
C1293 C 0.69846 0.69562 0.18527 0.0
H1294 H 0.77184 0.69815 0.18153 0.0
C1295 C 0.69193 0.71089 0.1599 0.0
H1296 H 0.73299 0.67816 0.21156 0.0
C1297 C 0.71393 0.72183 0.14253 0.0
C1298 C 0.74301 0.7182 0.15042 0.0
H1299 H 0.6697 0.71513 0.15387 0.0
H1300 H 0.708 0.73447 0.12375 0.0
C1301 C 0.74962 0.7014 0.17493 0.0
C1302 C 0.54874 0.49943 0.4247 0.0
C1303 C 0.53193 0.49284 0.4002 0.0
H1304 H 0.57199 0.48278 0.46132 0.0
C1305 C 0.52826 0.46375 0.39233 0.0
H1306 H 0.55202 0.52164 0.43129 0.0
C1307 C 0.53919 0.44175 0.40969 0.0
C1308 C 0.55448 0.44826 0.43506 0.0
H1309 H 0.5156 0.45784 0.37355 0.0
H1310 H 0.53492 0.41952 0.40368 0.0
C1311 C 0.56016 0.47725 0.4419 0.0
C1312 C 0.80777 0.77261 0.68989 0.0
C1313 C 0.81463 0.80159 0.6956 0.0
H1314 H 0.81836 0.7282 0.69796 0.0
C1315 C 0.84001 0.80807 0.71088 0.0
H1316 H 0.78834 0.76711 0.67806 0.0
C1317 C 0.85738 0.78604 0.72176 0.0
C1318 C 0.84949 0.75696 0.71806 0.0
H1319 H 0.84604 0.83029 0.71517 0.0
H1320 H 0.87617 0.79193 0.73441 0.0
C1321 C 0.82497 0.7504 0.70126 0.0
C1322 C 0.34014 0.69165 0.28901 0.0
C1323 C 0.31481 0.69817 0.30435 0.0
H1324 H 0.37626 0.70772 0.2654 0.0
C1325 C 0.30802 0.72716 0.31011 0.0
H1326 H 0.34611 0.66942 0.28469 0.0
C1327 C 0.32523 0.74933 0.29871 0.0
C1328 C 0.34969 0.74273 0.28184 0.0
H1329 H 0.28862 0.73269 0.32198 0.0
H1330 H 0.31867 0.77155 0.30204 0.0
C1331 C 0.35752 0.71365 0.27811 0.0
C1332 C 0.53576 0.10714 0.52781 0.0
C1333 C 0.50669 0.09928 0.53165 0.0
H1334 H 0.58003 0.09583 0.53434 0.0
C1335 C 0.50018 0.07484 0.54858 0.0
H1336 H 0.54162 0.12586 0.51505 0.0
C1337 C 0.52241 0.0577 0.55998 0.0
C1338 C 0.55138 0.06453 0.55416 0.0
H1339 H 0.47798 0.06827 0.55198 0.0
H1340 H 0.51694 0.03834 0.57193 0.0
C1341 C 0.55782 0.08982 0.53873 0.0
C1342 C 0.15968 0.30864 0.78884 0.0
C1343 C 0.18503 0.30214 0.80417 0.0
H1344 H 0.12353 0.29252 0.7653 0.0
C1345 C 0.19181 0.27316 0.80998 0.0
H1346 H 0.15371 0.33086 0.78447 0.0
C1347 C 0.17458 0.25097 0.79865 0.0
C1348 C 0.1501 0.25754 0.7818 0.0
H1349 H 0.21122 0.26764 0.82184 0.0
H1350 H 0.18113 0.22875 0.80202 0.0
C1351 C 0.14228 0.28662 0.778 0.0
C1352 C 0.44196 0.40987 0.5388 0.0
C1353 C 0.44846 0.43521 0.55413 0.0
H1354 H 0.45807 0.37375 0.51519 0.0
C1355 C 0.47744 0.44204 0.55985 0.0
H1356 H 0.41973 0.40386 0.53449 0.0
C1357 C 0.49963 0.42485 0.54844 0.0
C1358 C 0.49305 0.40037 0.5316 0.0
H1359 H 0.48296 0.46144 0.57171 0.0
H1360 H 0.52184 0.43143 0.55175 0.0
C1361 C 0.46397 0.39251 0.52788 0.0
C1362 C 0.67505 0.24955 0.20126 0.0
C1363 C 0.65054 0.24298 0.21806 0.0
H1364 H 0.71169 0.23287 0.17807 0.0
C1365 C 0.64267 0.2139 0.22178 0.0
H1366 H 0.68163 0.27176 0.19795 0.0
C1367 C 0.66006 0.19188 0.2109 0.0
C1368 C 0.68543 0.19837 0.19562 0.0
H1369 H 0.62389 0.208 0.23443 0.0
H1370 H 0.65405 0.16966 0.21521 0.0
C1371 C 0.69226 0.22736 0.1899 0.0
C1372 C 0.53627 0.89248 0.97205 0.0
C1373 C 0.50719 0.90034 0.96835 0.0
H1374 H 0.58051 0.90385 0.96545 0.0
C1375 C 0.5006 0.92484 0.95153 0.0
H1376 H 0.54218 0.87371 0.98472 0.0
C1377 C 0.52278 0.94204 0.94013 0.0
C1378 C 0.55177 0.93521 0.94585 0.0
H1379 H 0.47839 0.93142 0.94822 0.0
H1380 H 0.51726 0.96146 0.92829 0.0
C1381 C 0.55828 0.90985 0.96115 0.0
C1382 C 0.96368 0.10762 0.47194 0.0
C1383 C 0.99276 0.09975 0.46829 0.0
H1384 H 0.91945 0.09625 0.46526 0.0
C1385 C 0.99938 0.07524 0.4515 0.0
H1386 H 0.95775 0.1264 0.48458 0.0
C1387 C 0.97721 0.05803 0.44008 0.0
C1388 C 0.94821 0.06487 0.44574 0.0
H1389 H 0.0216 0.06865 0.44824 0.0
H1390 H 0.98275 0.0386 0.42827 0.0
C1391 C 0.94168 0.09024 0.46101 0.0
C1392 C 0.14879 0.38959 0.40397 0.0
C1393 C 0.16452 0.40445 0.42527 0.0
H1394 H 0.14159 0.34975 0.38186 0.0
C1395 C 0.18571 0.38943 0.44104 0.0
H1396 H 0.13204 0.40037 0.39167 0.0
C1397 C 0.19115 0.3602 0.43545 0.0
C1398 C 0.17525 0.34535 0.41424 0.0
H1399 H 0.19801 0.40019 0.45779 0.0
H1400 H 0.20787 0.34929 0.44766 0.0
C1401 C 0.15398 0.36039 0.39863 0.0
C1402 C 0.88955 0.94093 0.68556 0.0
C1403 C 0.9045 0.92512 0.66435 0.0
H1404 H 0.84947 0.94765 0.70778 0.0
C1405 C 0.88956 0.90385 0.64865 0.0
H1406 H 0.90038 0.95765 0.69783 0.0
C1407 C 0.86035 0.89858 0.6539 0.0
C1408 C 0.84539 0.91423 0.67518 0.0
H1409 H 0.90028 0.89153 0.63189 0.0
H1410 H 0.84965 0.88184 0.64153 0.0
C1411 C 0.86032 0.93541 0.69104 0.0
C1412 C 0.30937 0.6398 0.9353 0.0
C1413 C 0.32522 0.65474 0.91412 0.0
H1414 H 0.30258 0.59972 0.9575 0.0
C1415 C 0.34651 0.63979 0.89845 0.0
H1416 H 0.29263 0.65063 0.94755 0.0
C1417 C 0.35175 0.61058 0.9037 0.0
C1418 C 0.33605 0.59562 0.92495 0.0
H1419 H 0.35886 0.65051 0.88171 0.0
H1420 H 0.36851 0.59986 0.89135 0.0
C1421 C 0.31486 0.61056 0.94078 0.0
C1422 C 0.63973 0.10142 0.15402 0.0
C1423 C 0.65471 0.08576 0.17529 0.0
H1424 H 0.59979 0.1085 0.13205 0.0
C1425 C 0.63979 0.06457 0.19116 0.0
H1426 H 0.65042 0.11817 0.14166 0.0
C1427 C 0.61055 0.05906 0.18569 0.0
C1428 C 0.59559 0.07488 0.16449 0.0
H1429 H 0.65065 0.05232 0.20788 0.0
H1430 H 0.59973 0.04233 0.19796 0.0
C1431 C 0.61052 0.09616 0.1488 0.0
C1432 C 0.15359 0.63961 0.10155 0.0
C1433 C 0.17488 0.65457 0.08589 0.0
H1434 H 0.13158 0.59968 0.10861 0.0
C1435 C 0.19071 0.63964 0.06469 0.0
H1436 H 0.14125 0.65031 0.11831 0.0
C1437 C 0.18522 0.61041 0.05917 0.0
C1438 C 0.16402 0.59546 0.07499 0.0
H1439 H 0.20745 0.65048 0.05244 0.0
H1440 H 0.19748 0.59959 0.04244 0.0
C1441 C 0.14834 0.6104 0.09628 0.0
C1442 C 0.63957 0.89848 0.34624 0.0
C1443 C 0.6545 0.91419 0.32497 0.0
H1444 H 0.59967 0.89133 0.36826 0.0
C1445 C 0.63952 0.93539 0.30916 0.0
H1446 H 0.65031 0.88172 0.35856 0.0
C1447 C 0.61029 0.94085 0.31468 0.0
C1448 C 0.59537 0.92498 0.33587 0.0
H1449 H 0.65034 0.94768 0.29244 0.0
H1450 H 0.59942 0.95759 0.30245 0.0
C1451 C 0.61036 0.9037 0.35151 0.0
C1452 C 0.35153 0.38951 0.59599 0.0
C1453 C 0.33585 0.40449 0.57473 0.0
H1454 H 0.35861 0.34957 0.61798 0.0
C1455 C 0.31464 0.38956 0.55889 0.0
H1456 H 0.3683 0.4002 0.60833 0.0
C1457 C 0.30913 0.36033 0.56437 0.0
C1458 C 0.32496 0.34537 0.58556 0.0
H1459 H 0.30238 0.40042 0.54217 0.0
H1460 H 0.29239 0.34952 0.55212 0.0
C1461 C 0.34626 0.3603 0.60123 0.0
C1462 C 0.88959 0.09626 0.85143 0.0
C1463 C 0.90455 0.07499 0.83576 0.0
H1464 H 0.84966 0.11826 0.85852 0.0
C1465 C 0.88961 0.05914 0.81457 0.0
H1466 H 0.90029 0.10861 0.86819 0.0
C1467 C 0.86037 0.06463 0.80907 0.0
C1468 C 0.84542 0.08582 0.82491 0.0
H1469 H 0.90045 0.04241 0.80232 0.0
H1470 H 0.84954 0.05236 0.79235 0.0
C1471 C 0.86037 0.1015 0.84618 0.0
C1472 C 0.44027 0.185 0.38958 0.0
C1473 C 0.42445 0.16379 0.40452 0.0
H1474 H 0.44703 0.20722 0.34951 0.0
C1475 C 0.40318 0.14811 0.38957 0.0
H1476 H 0.45699 0.19727 0.40041 0.0
C1477 C 0.39793 0.15336 0.36035 0.0
C1478 C 0.4136 0.17464 0.3454 0.0
H1479 H 0.39085 0.13134 0.40028 0.0
H1480 H 0.38118 0.141 0.34963 0.0
C1481 C 0.43477 0.19049 0.36034 0.0
C1482 C 0.05872 0.18577 0.61047 0.0
C1483 C 0.07458 0.16458 0.59554 0.0
H1484 H 0.05194 0.20802 0.65053 0.0
C1485 C 0.09589 0.14895 0.6105 0.0
H1486 H 0.04197 0.198 0.59962 0.0
C1487 C 0.10114 0.15423 0.63971 0.0
C1488 C 0.08544 0.1755 0.65465 0.0
H1489 H 0.10826 0.1322 0.59981 0.0
H1490 H 0.11791 0.14191 0.65042 0.0
C1491 C 0.06422 0.19129 0.6397 0.0
C1492 C 0.05928 0.8146 0.88951 0.0
C1493 C 0.0751 0.8358 0.90446 0.0
H1494 H 0.05253 0.79237 0.84944 0.0
C1495 C 0.09638 0.85147 0.88951 0.0
H1496 H 0.04255 0.80234 0.90035 0.0
C1497 C 0.10164 0.84622 0.8603 0.0
C1498 C 0.08597 0.82494 0.84534 0.0
H1499 H 0.10872 0.86823 0.90023 0.0
H1500 H 0.11839 0.85857 0.84959 0.0
C1501 C 0.06478 0.8091 0.86028 0.0
C1502 C 0.44103 0.81435 0.11042 0.0
C1503 C 0.4252 0.83556 0.09549 0.0
H1504 H 0.44777 0.79209 0.15048 0.0
C1505 C 0.40392 0.85123 0.11044 0.0
H1506 H 0.45777 0.8021 0.09958 0.0
C1507 C 0.39865 0.84595 0.13965 0.0
C1508 C 0.41432 0.82466 0.15459 0.0
H1509 H 0.39158 0.86799 0.09974 0.0
H1510 H 0.38189 0.85829 0.15035 0.0
C1511 C 0.43552 0.80883 0.13965 0.0
C1512 C 0.38947 0.40356 0.14831 0.0
C1513 C 0.40442 0.42485 0.16397 0.0
H1514 H 0.34955 0.38152 0.14125 0.0
C1515 C 0.38947 0.44068 0.18517 0.0
H1516 H 0.40018 0.39121 0.13155 0.0
C1517 C 0.36025 0.43516 0.19068 0.0
C1518 C 0.34531 0.41396 0.17486 0.0
H1519 H 0.40031 0.45742 0.19742 0.0
H1520 H 0.34941 0.44742 0.20742 0.0
C1521 C 0.36026 0.39829 0.15358 0.0
C1522 C 0.81452 0.88965 0.05899 0.0
C1523 C 0.83573 0.90458 0.0748 0.0
H1524 H 0.79225 0.84959 0.05226 0.0
C1525 C 0.85142 0.88962 0.09607 0.0
H1526 H 0.80225 0.90049 0.04227 0.0
C1527 C 0.84616 0.86041 0.10134 0.0
C1528 C 0.82485 0.84548 0.08569 0.0
H1529 H 0.86819 0.90032 0.1084 0.0
H1530 H 0.85851 0.8497 0.11808 0.0
C1531 C 0.809 0.86042 0.0645 0.0
C1532 C 0.1398 0.60135 0.65417 0.0
C1533 C 0.15481 0.58568 0.67542 0.0
H1534 H 0.09984 0.60843 0.63224 0.0
C1535 C 0.13991 0.56448 0.69128 0.0
H1536 H 0.15047 0.61812 0.64181 0.0
C1537 C 0.11067 0.55896 0.68583 0.0
C1538 C 0.09568 0.57479 0.66466 0.0
H1539 H 0.15079 0.55222 0.70799 0.0
H1540 H 0.09986 0.54221 0.6981 0.0
C1541 C 0.11058 0.59608 0.64897 0.0
C1542 C 0.64862 0.88956 0.90391 0.0
C1543 C 0.66433 0.90448 0.92518 0.0
H1544 H 0.64148 0.84966 0.88188 0.0
C1545 C 0.68553 0.88951 0.94099 0.0
H1546 H 0.63186 0.90029 0.89158 0.0
C1547 C 0.691 0.86028 0.93546 0.0
C1548 C 0.67513 0.84537 0.91427 0.0
H1549 H 0.69781 0.90033 0.95772 0.0
H1550 H 0.70773 0.84942 0.9477 0.0
C1551 C 0.65385 0.86035 0.89863 0.0
C1552 C 0.80908 0.13983 0.43541 0.0
C1553 C 0.82495 0.15475 0.41422 0.0
H1554 H 0.80224 0.09977 0.45764 0.0
C1555 C 0.84621 0.13976 0.39856 0.0
H1556 H 0.79236 0.1507 0.44766 0.0
C1557 C 0.85141 0.11054 0.40382 0.0
C1558 C 0.8357 0.09561 0.42509 0.0
H1559 H 0.85858 0.15044 0.38181 0.0
H1560 H 0.86816 0.0998 0.39149 0.0
C1561 C 0.81452 0.11059 0.44091 0.0
C1562 C 0.69079 0.13956 0.56451 0.0
C1563 C 0.67495 0.15451 0.5857 0.0
H1564 H 0.69753 0.0995 0.54227 0.0
C1565 C 0.65364 0.13958 0.60134 0.0
H1566 H 0.70754 0.15039 0.55227 0.0
C1567 C 0.64836 0.11038 0.59607 0.0
C1568 C 0.66404 0.09542 0.5748 0.0
H1569 H 0.64128 0.15029 0.61809 0.0
H1570 H 0.63158 0.09968 0.60839 0.0
C1571 C 0.68526 0.11034 0.55899 0.0
C1572 C 0.11033 0.40432 0.85115 0.0
C1573 C 0.09534 0.42556 0.83546 0.0
H1574 H 0.15028 0.38237 0.85825 0.0
C1575 C 0.11024 0.44139 0.81423 0.0
H1576 H 0.09965 0.39199 0.86793 0.0
C1577 C 0.13948 0.43591 0.80872 0.0
C1578 C 0.15446 0.41476 0.82457 0.0
H1579 H 0.09937 0.45809 0.80196 0.0
H1580 H 0.15029 0.44816 0.79196 0.0
C1581 C 0.13954 0.3991 0.84589 0.0
C1582 C 0.36044 0.60125 0.34605 0.0
C1583 C 0.34546 0.58558 0.32478 0.0
H1584 H 0.40037 0.60833 0.36802 0.0
C1585 C 0.36039 0.56439 0.30892 0.0
H1586 H 0.34974 0.61799 0.35841 0.0
C1587 C 0.38963 0.55889 0.31439 0.0
C1588 C 0.40459 0.57472 0.33558 0.0
H1589 H 0.34954 0.55214 0.29219 0.0
H1590 H 0.40046 0.54217 0.30212 0.0
C1591 C 0.38965 0.59599 0.35127 0.0
C1592 C 0.90356 0.64863 0.88957 0.0
C1593 C 0.92485 0.66429 0.90452 0.0
H1594 H 0.88157 0.64152 0.84964 0.0
C1595 C 0.94071 0.68546 0.88957 0.0
H1596 H 0.89119 0.63189 0.90029 0.0
C1597 C 0.93523 0.69093 0.86033 0.0
C1598 C 0.91404 0.6751 0.84539 0.0
H1599 H 0.95745 0.69771 0.90041 0.0
H1600 H 0.94751 0.70764 0.84948 0.0
C1601 C 0.89833 0.65386 0.86035 0.0
C1602 C 0.59631 0.64842 0.11042 0.0
C1603 C 0.57503 0.66408 0.09545 0.0
H1604 H 0.61832 0.64136 0.15035 0.0
C1605 C 0.55919 0.68529 0.11037 0.0
H1606 H 0.60866 0.63166 0.09973 0.0
C1607 C 0.56469 0.69081 0.1396 0.0
C1608 C 0.58588 0.67499 0.15456 0.0
H1609 H 0.54246 0.69754 0.09952 0.0
H1610 H 0.55243 0.70755 0.15042 0.0
C1611 C 0.60156 0.6537 0.13963 0.0
C1612 C 0.56468 0.30902 0.36022 0.0
C1613 C 0.58588 0.32486 0.34529 0.0
H1614 H 0.54246 0.30223 0.40029 0.0
C1615 C 0.60157 0.34611 0.36026 0.0
H1616 H 0.55242 0.2923 0.34937 0.0
C1617 C 0.59633 0.35134 0.38948 0.0
C1618 C 0.57504 0.33566 0.40442 0.0
H1619 H 0.61833 0.35846 0.34956 0.0
H1620 H 0.60868 0.36808 0.4002 0.0
C1621 C 0.5592 0.31449 0.38946 0.0
C1622 C 0.89846 0.34608 0.63962 0.0
C1623 C 0.91411 0.32481 0.65461 0.0
H1624 H 0.89142 0.36807 0.59968 0.0
C1625 C 0.93532 0.30896 0.63971 0.0
H1626 H 0.88169 0.35844 0.6503 0.0
C1627 C 0.94086 0.31444 0.61048 0.0
C1628 C 0.92505 0.33564 0.59551 0.0
H1629 H 0.94757 0.29223 0.65057 0.0
H1630 H 0.95761 0.30218 0.59968 0.0
C1631 C 0.90375 0.35132 0.61042 0.0
loop_
_geom_bond_atom_site_label_1
_geom_bond_atom_site_label_2
_geom_bond_distance
_geom_bond_site_symmetry_2
_ccdc_geom_bond_type
C0 O2 1.247 . S
C0 O4 1.258 . S
C1 O8 1.247 . S
C1 O9 1.258 . S
O2 C0 1.247 . S
O2 Zn3 2.028 . S
Zn3 O2 2.028 . S
Zn3 O7 2.035 . S
Zn3 O9 2.035 . S
Zn3 O10 2.028 . S
O4 C0 1.258 . S
O4 Zn5 2.035 . S
Zn5 O4 2.035 . S
Zn5 O6 2.028 . S
Zn5 O8 2.028 . S
Zn5 O11 2.035 . S
O6 Zn5 2.028 . S
O6 C12 1.247 . S
O7 Zn3 2.035 . S
O7 C12 1.258 . S
O8 C1 1.247 . S
O8 Zn5 2.028 . S
O9 C1 1.258 . S
O9 Zn3 2.035 . S
O10 Zn3 2.028 . S
O10 C13 1.247 . S
O11 Zn5 2.035 . S
O11 C13 1.258 . S
C12 O6 1.247 . S
C12 O7 1.258 . S
C13 O10 1.247 . S
C13 O11 1.258 . S
C14 O16 1.247 1_455 S
C14 O18 1.258 . S
C15 O22 1.247 . S
C15 O23 1.258 . S
O16 C14 1.247 1_655 S
O16 Zn17 2.028 . S
Zn17 O16 2.028 . S
Zn17 O21 2.035 1_655 S
Zn17 O23 2.035 . S
Zn17 O24 2.028 . S
O18 C14 1.258 . S
O18 Zn19 2.035 1_455 S
Zn19 O18 2.035 1_655 S
Zn19 O20 2.028 1_655 S
Zn19 O22 2.028 . S
Zn19 O25 2.035 . S
O20 Zn19 2.028 1_455 S
O20 C26 1.247 . S
O21 Zn17 2.035 1_455 S
O21 C26 1.258 . S
O22 C15 1.247 . S
O22 Zn19 2.028 . S
O23 C15 1.258 . S
O23 Zn17 2.035 . S
O24 Zn17 2.028 . S
O24 C27 1.247 . S
O25 Zn19 2.035 . S
O25 C27 1.258 . S
C26 O20 1.247 . S
C26 O21 1.258 . S
C27 O24 1.247 . S
C27 O25 1.258 . S
C28 O30 1.247 . S
C28 O32 1.258 . S
C29 O36 1.247 . S
C29 O37 1.258 . S
O30 C28 1.247 . S
O30 Zn31 2.028 . S
Zn31 O30 2.028 . S
Zn31 O35 2.035 . S
Zn31 O37 2.035 . S
Zn31 O38 2.028 . S
O32 C28 1.258 . S
O32 Zn33 2.035 . S
Zn33 O32 2.035 . S
Zn33 O34 2.028 . S
Zn33 O36 2.028 . S
Zn33 O39 2.035 . S
O34 Zn33 2.028 . S
O34 C40 1.247 . S
O35 Zn31 2.035 . S
O35 C40 1.258 . S
O36 C29 1.247 . S
O36 Zn33 2.028 . S
O37 C29 1.258 . S
O37 Zn31 2.035 . S
O38 Zn31 2.028 . S
O38 C41 1.247 . S
O39 Zn33 2.035 . S
O39 C41 1.258 . S
C40 O34 1.247 . S
C40 O35 1.258 . S
C41 O38 1.247 . S
C41 O39 1.258 . S
C42 O44 1.247 . S
C42 O46 1.258 . S
C43 O50 1.247 . S
C43 O51 1.258 . S
O44 C42 1.247 . S
O44 Zn45 2.028 . S
Zn45 O44 2.028 . S
Zn45 O49 2.035 . S
Zn45 O51 2.035 . S
Zn45 O52 2.028 . S
O46 C42 1.258 . S
O46 Zn47 2.035 . S
Zn47 O46 2.035 . S
Zn47 O48 2.028 . S
Zn47 O50 2.028 . S
Zn47 O53 2.035 . S
O48 Zn47 2.028 . S
O48 C54 1.247 . S
O49 Zn45 2.035 . S
O49 C54 1.258 . S
O50 C43 1.247 . S
O50 Zn47 2.028 . S
O51 C43 1.258 . S
O51 Zn45 2.035 . S
O52 Zn45 2.028 . S
O52 C55 1.247 . S
O53 Zn47 2.035 . S
O53 C55 1.258 . S
C54 O48 1.247 . S
C54 O49 1.258 . S
C55 O52 1.247 . S
C55 O53 1.258 . S
C56 O58 1.247 . S
C56 O60 1.258 . S
C57 O64 1.247 . S
C57 O65 1.258 . S
O58 C56 1.247 . S
O58 Zn59 2.028 . S
Zn59 O58 2.028 . S
Zn59 O63 2.035 . S
Zn59 O65 2.035 . S
Zn59 O66 2.028 . S
O60 C56 1.258 . S
O60 Zn61 2.035 . S
Zn61 O60 2.035 . S
Zn61 O62 2.028 . S
Zn61 O64 2.028 . S
Zn61 O67 2.035 . S
O62 Zn61 2.028 . S
O62 C68 1.247 . S
O63 Zn59 2.035 . S
O63 C68 1.258 . S
O64 C57 1.247 . S
O64 Zn61 2.028 . S
O65 C57 1.258 . S
O65 Zn59 2.035 . S
O66 Zn59 2.028 . S
O66 C69 1.247 . S
O67 Zn61 2.035 . S
O67 C69 1.258 . S
C68 O62 1.247 . S
C68 O63 1.258 . S
C69 O66 1.247 . S
C69 O67 1.258 . S
C70 O72 1.247 . S
C70 O74 1.258 . S
C71 O78 1.247 . S
C71 O79 1.258 . S
O72 C70 1.247 . S
O72 Zn73 2.028 . S
Zn73 O72 2.028 . S
Zn73 O77 2.035 . S
Zn73 O79 2.035 . S
Zn73 O80 2.028 . S
O74 C70 1.258 . S
O74 Zn75 2.035 . S
Zn75 O74 2.035 . S
Zn75 O76 2.028 . S
Zn75 O78 2.028 . S
Zn75 O81 2.035 . S
O76 Zn75 2.028 . S
O76 C82 1.247 . S
O77 Zn73 2.035 . S
O77 C82 1.258 . S
O78 C71 1.247 . S
O78 Zn75 2.028 . S
O79 C71 1.258 . S
O79 Zn73 2.035 . S
O80 Zn73 2.028 . S
O80 C83 1.247 . S
O81 Zn75 2.035 . S
O81 C83 1.258 . S
C82 O76 1.247 . S
C82 O77 1.258 . S
C83 O80 1.247 . S
C83 O81 1.258 . S
C84 O86 1.247 . S
C84 O88 1.258 . S
C85 O92 1.247 . S
C85 O93 1.258 . S
O86 C84 1.247 . S
O86 Zn87 2.028 . S
Zn87 O86 2.028 . S
Zn87 O91 2.035 . S
Zn87 O93 2.035 . S
Zn87 O94 2.028 . S
O88 C84 1.258 . S
O88 Zn89 2.035 . S
Zn89 O88 2.035 . S
Zn89 O90 2.028 . S
Zn89 O92 2.028 . S
Zn89 O95 2.035 . S
O90 Zn89 2.028 . S
O90 C96 1.247 . S
O91 Zn87 2.035 . S
O91 C96 1.258 . S
O92 C85 1.247 . S
O92 Zn89 2.028 . S
O93 C85 1.258 . S
O93 Zn87 2.035 . S
O94 Zn87 2.028 . S
O94 C97 1.247 . S
O95 Zn89 2.035 . S
O95 C97 1.258 . S
C96 O90 1.247 . S
C96 O91 1.258 . S
C97 O94 1.247 . S
C97 O95 1.258 . S
C98 O100 1.247 1_455 S
C98 O102 1.258 . S
C99 O106 1.247 . S
C99 O107 1.258 . S
O100 C98 1.247 1_655 S
O100 Zn101 2.028 . S
Zn101 O100 2.028 . S
Zn101 O105 2.035 1_655 S
Zn101 O107 2.035 . S
Zn101 O108 2.028 . S
O102 C98 1.258 . S
O102 Zn103 2.035 1_455 S
Zn103 O102 2.035 1_655 S
Zn103 O104 2.028 1_655 S
Zn103 O106 2.028 . S
Zn103 O109 2.035 . S
O104 Zn103 2.028 1_455 S
O104 C110 1.247 . S
O105 Zn101 2.035 1_455 S
O105 C110 1.258 . S
O106 C99 1.247 . S
O106 Zn103 2.028 . S
O107 C99 1.258 . S
O107 Zn101 2.035 . S
O108 Zn101 2.028 . S
O108 C111 1.247 . S
O109 Zn103 2.035 . S
O109 C111 1.258 . S
C110 O104 1.247 . S
C110 O105 1.258 . S
C111 O108 1.247 . S
C111 O109 1.258 . S
C112 O114 1.247 . S
C112 O116 1.258 . S
C113 O120 1.247 . S
C113 O121 1.258 . S
O114 C112 1.247 . S
O114 Zn115 2.028 . S
Zn115 O114 2.028 . S
Zn115 O119 2.035 . S
Zn115 O121 2.035 . S
Zn115 O122 2.028 . S
O116 C112 1.258 . S
O116 Zn117 2.035 . S
Zn117 O116 2.035 . S
Zn117 O118 2.028 . S
Zn117 O120 2.028 . S
Zn117 O123 2.035 . S
O118 Zn117 2.028 . S
O118 C124 1.247 . S
O119 Zn115 2.035 . S
O119 C124 1.258 . S
O120 C113 1.247 . S
O120 Zn117 2.028 . S
O121 C113 1.258 . S
O121 Zn115 2.035 . S
O122 Zn115 2.028 . S
O122 C125 1.247 . S
O123 Zn117 2.035 . S
O123 C125 1.258 . S
C124 O118 1.247 . S
C124 O119 1.258 . S
C125 O122 1.247 . S
C125 O123 1.258 . S
C126 O128 1.247 . S
C126 O130 1.258 . S
C127 O134 1.247 . S
C127 O135 1.258 . S
O128 C126 1.247 . S
O128 Zn129 2.028 . S
Zn129 O128 2.028 . S
Zn129 O133 2.035 . S
Zn129 O135 2.035 . S
Zn129 O136 2.028 . S
O130 C126 1.258 . S
O130 Zn131 2.035 . S
Zn131 O130 2.035 . S
Zn131 O132 2.028 . S
Zn131 O134 2.028 . S
Zn131 O137 2.035 . S
O132 Zn131 2.028 . S
O132 C138 1.247 . S
O133 Zn129 2.035 . S
O133 C138 1.258 . S
O134 C127 1.247 . S
O134 Zn131 2.028 . S
O135 C127 1.258 . S
O135 Zn129 2.035 . S
O136 Zn129 2.028 . S
O136 C139 1.247 . S
O137 Zn131 2.035 . S
O137 C139 1.258 . S
C138 O132 1.247 . S
C138 O133 1.258 . S
C139 O136 1.247 . S
C139 O137 1.258 . S
C140 O142 1.247 . S
C140 O144 1.258 . S
C141 O148 1.247 . S
C141 O149 1.258 . S
O142 C140 1.247 . S
O142 Zn143 2.028 . S
Zn143 O142 2.028 . S
Zn143 O147 2.035 . S
Zn143 O149 2.035 . S
Zn143 O150 2.028 . S
O144 C140 1.258 . S
O144 Zn145 2.035 . S
Zn145 O144 2.035 . S
Zn145 O146 2.028 . S
Zn145 O148 2.028 . S
Zn145 O151 2.035 . S
O146 Zn145 2.028 . S
O146 C152 1.247 . S
O147 Zn143 2.035 . S
O147 C152 1.258 . S
O148 C141 1.247 . S
O148 Zn145 2.028 . S
O149 C141 1.258 . S
O149 Zn143 2.035 . S
O150 Zn143 2.028 . S
O150 C153 1.247 . S
O151 Zn145 2.035 . S
O151 C153 1.258 . S
C152 O146 1.247 . S
C152 O147 1.258 . S
C153 O150 1.247 . S
C153 O151 1.258 . S
C154 O156 1.247 . S
C154 O158 1.258 . S
C155 O162 1.247 . S
C155 O163 1.258 1_556 S
O156 C154 1.247 . S
O156 Zn157 2.028 . S
Zn157 O156 2.028 . S
Zn157 O161 2.035 . S
Zn157 O163 2.035 . S
Zn157 O164 2.028 1_554 S
O158 C154 1.258 . S
O158 Zn159 2.035 . S
Zn159 O158 2.035 . S
Zn159 O160 2.028 . S
Zn159 O162 2.028 1_554 S
Zn159 O165 2.035 1_554 S
O160 Zn159 2.028 . S
O160 C166 1.247 . S
O161 Zn157 2.035 . S
O161 C166 1.258 . S
O162 C155 1.247 . S
O162 Zn159 2.028 1_556 S
O163 C155 1.258 1_554 S
O163 Zn157 2.035 . S
O164 Zn157 2.028 1_556 S
O164 C167 1.247 . S
O165 Zn159 2.035 1_556 S
O165 C167 1.258 . S
C166 O160 1.247 . S
C166 O161 1.258 . S
C167 O164 1.247 . S
C167 O165 1.258 . S
C168 O170 1.247 . S
C168 O172 1.258 . S
C169 O176 1.247 . S
C169 O177 1.258 . S
O170 C168 1.247 . S
O170 Zn171 2.028 . S
Zn171 O170 2.028 . S
Zn171 O175 2.035 . S
Zn171 O177 2.035 . S
Zn171 O178 2.028 . S
O172 C168 1.258 . S
O172 Zn173 2.035 . S
Zn173 O172 2.035 . S
Zn173 O174 2.028 . S
Zn173 O176 2.028 . S
Zn173 O179 2.035 . S
O174 Zn173 2.028 . S
O174 C180 1.247 . S
O175 Zn171 2.035 . S
O175 C180 1.258 . S
O176 C169 1.247 . S
O176 Zn173 2.028 . S
O177 C169 1.258 . S
O177 Zn171 2.035 . S
O178 Zn171 2.028 . S
O178 C181 1.247 . S
O179 Zn173 2.035 . S
O179 C181 1.258 . S
C180 O174 1.247 . S
C180 O175 1.258 . S
C181 O178 1.247 . S
C181 O179 1.258 . S
C182 O184 1.247 . S
C182 O186 1.258 . S
C183 O190 1.247 . S
C183 O191 1.258 . S
O184 C182 1.247 . S
O184 Zn185 2.028 . S
Zn185 O184 2.028 . S
Zn185 O189 2.035 . S
Zn185 O191 2.035 . S
Zn185 O192 2.028 . S
O186 C182 1.258 . S
O186 Zn187 2.035 . S
Zn187 O186 2.035 . S
Zn187 O188 2.028 . S
Zn187 O190 2.028 . S
Zn187 O193 2.035 . S
O188 Zn187 2.028 . S
O188 C194 1.247 . S
O189 Zn185 2.035 . S
O189 C194 1.258 . S
O190 C183 1.247 . S
O190 Zn187 2.028 . S
O191 C183 1.258 . S
O191 Zn185 2.035 . S
O192 Zn185 2.028 . S
O192 C195 1.247 . S
O193 Zn187 2.035 . S
O193 C195 1.258 . S
C194 O188 1.247 . S
C194 O189 1.258 . S
C195 O192 1.247 . S
C195 O193 1.258 . S
C196 O198 1.247 . S
C196 O200 1.258 . S
C197 O204 1.247 . S
C197 O205 1.258 . S
O198 C196 1.247 . S
O198 Zn199 2.028 . S
Zn199 O198 2.028 . S
Zn199 O203 2.035 . S
Zn199 O205 2.035 . S
Zn199 O206 2.028 . S
O200 C196 1.258 . S
O200 Zn201 2.035 . S
Zn201 O200 2.035 . S
Zn201 O202 2.028 . S
Zn201 O204 2.028 . S
Zn201 O207 2.035 . S
O202 Zn201 2.028 . S
O202 C208 1.247 . S
O203 Zn199 2.035 . S
O203 C208 1.258 . S
O204 C197 1.247 . S
O204 Zn201 2.028 . S
O205 C197 1.258 . S
O205 Zn199 2.035 . S
O206 Zn199 2.028 . S
O206 C209 1.247 . S
O207 Zn201 2.035 . S
O207 C209 1.258 . S
C208 O202 1.247 . S
C208 O203 1.258 . S
C209 O206 1.247 . S
C209 O207 1.258 . S
C210 O212 1.247 . S
C210 O214 1.258 . S
C211 O218 1.247 . S
C211 O219 1.258 . S
O212 C210 1.247 . S
O212 Zn213 2.028 . S
Zn213 O212 2.028 . S
Zn213 O217 2.035 . S
Zn213 O219 2.035 1_556 S
Zn213 O220 2.028 1_556 S
O214 C210 1.258 . S
O214 Zn215 2.035 . S
Zn215 O214 2.035 . S
Zn215 O216 2.028 . S
Zn215 O218 2.028 1_556 S
Zn215 O221 2.035 . S
O216 Zn215 2.028 . S
O216 C222 1.247 . S
O217 Zn213 2.035 . S
O217 C222 1.258 . S
O218 C211 1.247 . S
O218 Zn215 2.028 1_554 S
O219 C211 1.258 . S
O219 Zn213 2.035 1_554 S
O220 Zn213 2.028 1_554 S
O220 C223 1.247 . S
O221 Zn215 2.035 . S
O221 C223 1.258 1_556 S
C222 O216 1.247 . S
C222 O217 1.258 . S
C223 O220 1.247 . S
C223 O221 1.258 1_554 S
C224 O226 1.247 . S
C224 O228 1.258 . S
C225 O232 1.247 . S
C225 O233 1.258 . S
O226 C224 1.247 . S
O226 Zn227 2.028 . S
Zn227 O226 2.028 . S
Zn227 O231 2.035 . S
Zn227 O233 2.035 . S
Zn227 O234 2.028 . S
O228 C224 1.258 . S
O228 Zn229 2.035 . S
Zn229 O228 2.035 . S
Zn229 O230 2.028 . S
Zn229 O232 2.028 . S
Zn229 O235 2.035 . S
O230 Zn229 2.028 . S
O230 C236 1.247 . S
O231 Zn227 2.035 . S
O231 C236 1.258 . S
O232 C225 1.247 . S
O232 Zn229 2.028 . S
O233 C225 1.258 . S
O233 Zn227 2.035 . S
O234 Zn227 2.028 . S
O234 C237 1.247 . S
O235 Zn229 2.035 . S
O235 C237 1.258 . S
C236 O230 1.247 . S
C236 O231 1.258 . S
C237 O234 1.247 . S
C237 O235 1.258 . S
C238 O240 1.247 . S
C238 O242 1.258 . S
C239 O246 1.247 . S
C239 O247 1.258 . S
O240 C238 1.247 . S
O240 Zn241 2.028 . S
Zn241 O240 2.028 . S
Zn241 O245 2.035 . S
Zn241 O247 2.035 . S
Zn241 O248 2.028 . S
O242 C238 1.258 . S
O242 Zn243 2.035 . S
Zn243 O242 2.035 . S
Zn243 O244 2.028 . S
Zn243 O246 2.028 . S
Zn243 O249 2.035 . S
O244 Zn243 2.028 . S
O244 C250 1.247 . S
O245 Zn241 2.035 . S
O245 C250 1.258 . S
O246 C239 1.247 . S
O246 Zn243 2.028 . S
O247 C239 1.258 . S
O247 Zn241 2.035 . S
O248 Zn241 2.028 . S
O248 C251 1.247 . S
O249 Zn243 2.035 . S
O249 C251 1.258 . S
C250 O244 1.247 . S
C250 O245 1.258 . S
C251 O248 1.247 . S
C251 O249 1.258 . S
C252 O254 1.247 . S
C252 O256 1.258 . S
C253 O260 1.247 . S
C253 O261 1.258 . S
O254 C252 1.247 . S
O254 Zn255 2.028 . S
Zn255 O254 2.028 . S
Zn255 O259 2.035 . S
Zn255 O261 2.035 . S
Zn255 O262 2.028 . S
O256 C252 1.258 . S
O256 Zn257 2.035 . S
Zn257 O256 2.035 . S
Zn257 O258 2.028 . S
Zn257 O260 2.028 . S
Zn257 O263 2.035 . S
O258 Zn257 2.028 . S
O258 C264 1.247 . S
O259 Zn255 2.035 . S
O259 C264 1.258 . S
O260 C253 1.247 . S
O260 Zn257 2.028 . S
O261 C253 1.258 . S
O261 Zn255 2.035 . S
O262 Zn255 2.028 . S
O262 C265 1.247 . S
O263 Zn257 2.035 . S
O263 C265 1.258 . S
C264 O258 1.247 . S
C264 O259 1.258 . S
C265 O262 1.247 . S
C265 O263 1.258 . S
C266 O268 1.247 . S
C266 O270 1.258 . S
C267 O274 1.247 . S
C267 O275 1.258 . S
O268 C266 1.247 . S
O268 Zn269 2.028 . S
Zn269 O268 2.028 . S
Zn269 O273 2.035 . S
Zn269 O275 2.035 . S
Zn269 O276 2.028 . S
O270 C266 1.258 . S
O270 Zn271 2.035 . S
Zn271 O270 2.035 . S
Zn271 O272 2.028 . S
Zn271 O274 2.028 . S
Zn271 O277 2.035 . S
O272 Zn271 2.028 . S
O272 C278 1.247 . S
O273 Zn269 2.035 . S
O273 C278 1.258 . S
O274 C267 1.247 . S
O274 Zn271 2.028 . S
O275 C267 1.258 . S
O275 Zn269 2.035 . S
O276 Zn269 2.028 . S
O276 C279 1.247 . S
O277 Zn271 2.035 . S
O277 C279 1.258 . S
C278 O272 1.247 . S
C278 O273 1.258 . S
C279 O276 1.247 . S
C279 O277 1.258 . S
C280 O282 1.247 . S
C280 O284 1.258 . S
C281 O288 1.247 . S
C281 O289 1.258 . S
O282 C280 1.247 . S
O282 Zn283 2.028 1_545 S
Zn283 O282 2.028 1_565 S
Zn283 O287 2.035 1_565 S
Zn283 O289 2.035 . S
Zn283 O290 2.028 . S
O284 C280 1.258 . S
O284 Zn285 2.035 1_545 S
Zn285 O284 2.035 1_565 S
Zn285 O286 2.028 . S
Zn285 O288 2.028 . S
Zn285 O291 2.035 . S
O286 Zn285 2.028 . S
O286 C292 1.247 1_565 S
O287 Zn283 2.035 1_545 S
O287 C292 1.258 . S
O288 C281 1.247 . S
O288 Zn285 2.028 . S
O289 C281 1.258 . S
O289 Zn283 2.035 . S
O290 Zn283 2.028 . S
O290 C293 1.247 . S
O291 Zn285 2.035 . S
O291 C293 1.258 . S
C292 O286 1.247 1_545 S
C292 O287 1.258 . S
C293 O290 1.247 . S
C293 O291 1.258 . S
C294 O296 1.247 . S
C294 O298 1.258 . S
C295 O302 1.247 . S
C295 O303 1.258 . S
O296 C294 1.247 . S
O296 Zn297 2.028 . S
Zn297 O296 2.028 . S
Zn297 O301 2.035 . S
Zn297 O303 2.035 . S
Zn297 O304 2.028 . S
O298 C294 1.258 . S
O298 Zn299 2.035 . S
Zn299 O298 2.035 . S
Zn299 O300 2.028 . S
Zn299 O302 2.028 . S
Zn299 O305 2.035 . S
O300 Zn299 2.028 . S
O300 C306 1.247 . S
O301 Zn297 2.035 . S
O301 C306 1.258 . S
O302 C295 1.247 . S
O302 Zn299 2.028 . S
O303 C295 1.258 . S
O303 Zn297 2.035 . S
O304 Zn297 2.028 . S
O304 C307 1.247 . S
O305 Zn299 2.035 . S
O305 C307 1.258 . S
C306 O300 1.247 . S
C306 O301 1.258 . S
C307 O304 1.247 . S
C307 O305 1.258 . S
C308 O310 1.247 . S
C308 O312 1.258 . S
C309 O316 1.247 . S
C309 O317 1.258 . S
O310 C308 1.247 . S
O310 Zn311 2.028 . S
Zn311 O310 2.028 . S
Zn311 O315 2.035 . S
Zn311 O317 2.035 . S
Zn311 O318 2.028 . S
O312 C308 1.258 . S
O312 Zn313 2.035 . S
Zn313 O312 2.035 . S
Zn313 O314 2.028 . S
Zn313 O316 2.028 . S
Zn313 O319 2.035 . S
O314 Zn313 2.028 . S
O314 C320 1.247 . S
O315 Zn311 2.035 . S
O315 C320 1.258 . S
O316 C309 1.247 . S
O316 Zn313 2.028 . S
O317 C309 1.258 . S
O317 Zn311 2.035 . S
O318 Zn311 2.028 . S
O318 C321 1.247 . S
O319 Zn313 2.035 . S
O319 C321 1.258 . S
C320 O314 1.247 . S
C320 O315 1.258 . S
C321 O318 1.247 . S
C321 O319 1.258 . S
C322 O324 1.247 . S
C322 O326 1.258 . S
C323 O330 1.247 . S
C323 O331 1.258 . S
O324 C322 1.247 . S
O324 Zn325 2.028 . S
Zn325 O324 2.028 . S
Zn325 O329 2.035 . S
Zn325 O331 2.035 . S
Zn325 O332 2.028 . S
O326 C322 1.258 . S
O326 Zn327 2.035 . S
Zn327 O326 2.035 . S
Zn327 O328 2.028 . S
Zn327 O330 2.028 . S
Zn327 O333 2.035 . S
O328 Zn327 2.028 . S
O328 C334 1.247 . S
O329 Zn325 2.035 . S
O329 C334 1.258 . S
O330 C323 1.247 . S
O330 Zn327 2.028 . S
O331 C323 1.258 . S
O331 Zn325 2.035 . S
O332 Zn325 2.028 . S
O332 C335 1.247 . S
O333 Zn327 2.035 . S
O333 C335 1.258 . S
C334 O328 1.247 . S
C334 O329 1.258 . S
C335 O332 1.247 . S
C335 O333 1.258 . S
C336 O338 1.247 . S
C336 O340 1.258 . S
C337 O344 1.247 . S
C337 O345 1.258 . S
O338 C336 1.247 . S
O338 Zn339 2.028 . S
Zn339 O338 2.028 . S
Zn339 O343 2.035 . S
Zn339 O345 2.035 . S
Zn339 O346 2.028 . S
O340 C336 1.258 . S
O340 Zn341 2.035 . S
Zn341 O340 2.035 . S
Zn341 O342 2.028 . S
Zn341 O344 2.028 . S
Zn341 O347 2.035 . S
O342 Zn341 2.028 . S
O342 C348 1.247 . S
O343 Zn339 2.035 . S
O343 C348 1.258 . S
O344 C337 1.247 . S
O344 Zn341 2.028 . S
O345 C337 1.258 . S
O345 Zn339 2.035 . S
O346 Zn339 2.028 . S
O346 C349 1.247 . S
O347 Zn341 2.035 . S
O347 C349 1.258 . S
C348 O342 1.247 . S
C348 O343 1.258 . S
C349 O346 1.247 . S
C349 O347 1.258 . S
C350 O352 1.247 . S
C350 O354 1.258 . S
C351 O358 1.247 . S
C351 O359 1.258 . S
O352 C350 1.247 . S
O352 Zn353 2.028 . S
Zn353 O352 2.028 . S
Zn353 O357 2.035 . S
Zn353 O359 2.035 . S
Zn353 O360 2.028 . S
O354 C350 1.258 . S
O354 Zn355 2.035 . S
Zn355 O354 2.035 . S
Zn355 O356 2.028 . S
Zn355 O358 2.028 . S
Zn355 O361 2.035 . S
O356 Zn355 2.028 . S
O356 C362 1.247 . S
O357 Zn353 2.035 . S
O357 C362 1.258 . S
O358 C351 1.247 . S
O358 Zn355 2.028 . S
O359 C351 1.258 . S
O359 Zn353 2.035 . S
O360 Zn353 2.028 . S
O360 C363 1.247 . S
O361 Zn355 2.035 . S
O361 C363 1.258 . S
C362 O356 1.247 . S
C362 O357 1.258 . S
C363 O360 1.247 . S
C363 O361 1.258 . S
C364 O366 1.247 . S
C364 O368 1.258 . S
C365 O372 1.247 . S
C365 O373 1.258 . S
O366 C364 1.247 . S
O366 Zn367 2.028 . S
Zn367 O366 2.028 . S
Zn367 O371 2.035 . S
Zn367 O373 2.035 . S
Zn367 O374 2.028 . S
O368 C364 1.258 . S
O368 Zn369 2.035 . S
Zn369 O368 2.035 . S
Zn369 O370 2.028 . S
Zn369 O372 2.028 . S
Zn369 O375 2.035 . S
O370 Zn369 2.028 . S
O370 C376 1.247 . S
O371 Zn367 2.035 . S
O371 C376 1.258 . S
O372 C365 1.247 . S
O372 Zn369 2.028 . S
O373 C365 1.258 . S
O373 Zn367 2.035 . S
O374 Zn367 2.028 . S
O374 C377 1.247 . S
O375 Zn369 2.035 . S
O375 C377 1.258 . S
C376 O370 1.247 . S
C376 O371 1.258 . S
C377 O374 1.247 . S
C377 O375 1.258 . S
C378 O380 1.247 1_655 S
C378 O382 1.258 . S
C379 O386 1.247 . S
C379 O387 1.258 . S
O380 C378 1.247 1_455 S
O380 Zn381 2.028 . S
Zn381 O380 2.028 . S
Zn381 O385 2.035 1_455 S
Zn381 O387 2.035 . S
Zn381 O388 2.028 . S
O382 C378 1.258 . S
O382 Zn383 2.035 1_655 S
Zn383 O382 2.035 1_455 S
Zn383 O384 2.028 1_455 S
Zn383 O386 2.028 . S
Zn383 O389 2.035 . S
O384 Zn383 2.028 1_655 S
O384 C390 1.247 . S
O385 Zn381 2.035 1_655 S
O385 C390 1.258 . S
O386 C379 1.247 . S
O386 Zn383 2.028 . S
O387 C379 1.258 . S
O387 Zn381 2.035 . S
O388 Zn381 2.028 . S
O388 C391 1.247 . S
O389 Zn383 2.035 . S
O389 C391 1.258 . S
C390 O384 1.247 . S
C390 O385 1.258 . S
C391 O388 1.247 . S
C391 O389 1.258 . S
C392 O394 1.247 . S
C392 O396 1.258 . S
C393 O400 1.247 . S
C393 O401 1.258 . S
O394 C392 1.247 . S
O394 Zn395 2.028 . S
Zn395 O394 2.028 . S
Zn395 O399 2.035 . S
Zn395 O401 2.035 . S
Zn395 O402 2.028 . S
O396 C392 1.258 . S
O396 Zn397 2.035 . S
Zn397 O396 2.035 . S
Zn397 O398 2.028 . S
Zn397 O400 2.028 . S
Zn397 O403 2.035 . S
O398 Zn397 2.028 . S
O398 C404 1.247 . S
O399 Zn395 2.035 . S
O399 C404 1.258 . S
O400 C393 1.247 . S
O400 Zn397 2.028 . S
O401 C393 1.258 . S
O401 Zn395 2.035 . S
O402 Zn395 2.028 . S
O402 C405 1.247 . S
O403 Zn397 2.035 . S
O403 C405 1.258 . S
C404 O398 1.247 . S
C404 O399 1.258 . S
C405 O402 1.247 . S
C405 O403 1.258 . S
C406 O408 1.247 . S
C406 O410 1.258 . S
C407 O414 1.247 . S
C407 O415 1.258 . S
O408 C406 1.247 . S
O408 Zn409 2.028 1_655 S
Zn409 O408 2.028 1_455 S
Zn409 O413 2.035 1_455 S
Zn409 O415 2.035 . S
Zn409 O416 2.028 . S
O410 C406 1.258 . S
O410 Zn411 2.035 1_655 S
Zn411 O410 2.035 1_455 S
Zn411 O412 2.028 . S
Zn411 O414 2.028 . S
Zn411 O417 2.035 . S
O412 Zn411 2.028 . S
O412 C418 1.247 1_455 S
O413 Zn409 2.035 1_655 S
O413 C418 1.258 . S
O414 C407 1.247 . S
O414 Zn411 2.028 . S
O415 C407 1.258 . S
O415 Zn409 2.035 . S
O416 Zn409 2.028 . S
O416 C419 1.247 . S
O417 Zn411 2.035 . S
O417 C419 1.258 . S
C418 O412 1.247 1_655 S
C418 O413 1.258 . S
C419 O416 1.247 . S
C419 O417 1.258 . S
C420 O422 1.247 . S
C420 O424 1.258 . S
C421 O428 1.247 . S
C421 O429 1.258 . S
O422 C420 1.247 . S
O422 Zn423 2.028 . S
Zn423 O422 2.028 . S
Zn423 O427 2.035 . S
Zn423 O429 2.035 . S
Zn423 O430 2.028 . S
O424 C420 1.258 . S
O424 Zn425 2.035 . S
Zn425 O424 2.035 . S
Zn425 O426 2.028 . S
Zn425 O428 2.028 . S
Zn425 O431 2.035 . S
O426 Zn425 2.028 . S
O426 C432 1.247 . S
O427 Zn423 2.035 . S
O427 C432 1.258 . S
O428 C421 1.247 . S
O428 Zn425 2.028 . S
O429 C421 1.258 . S
O429 Zn423 2.035 . S
O430 Zn423 2.028 . S
O430 C433 1.247 . S
O431 Zn425 2.035 . S
O431 C433 1.258 . S
C432 O426 1.247 . S
C432 O427 1.258 . S
C433 O430 1.247 . S
C433 O431 1.258 . S
C434 O436 1.247 . S
C434 O438 1.258 . S
C435 O442 1.247 . S
C435 O443 1.258 . S
O436 C434 1.247 . S
O436 Zn437 2.028 . S
Zn437 O436 2.028 . S
Zn437 O441 2.035 . S
Zn437 O443 2.035 . S
Zn437 O444 2.028 . S
O438 C434 1.258 . S
O438 Zn439 2.035 . S
Zn439 O438 2.035 . S
Zn439 O440 2.028 . S
Zn439 O442 2.028 . S
Zn439 O445 2.035 . S
O440 Zn439 2.028 . S
O440 C446 1.247 . S
O441 Zn437 2.035 . S
O441 C446 1.258 . S
O442 C435 1.247 . S
O442 Zn439 2.028 . S
O443 C435 1.258 . S
O443 Zn437 2.035 . S
O444 Zn437 2.028 . S
O444 C447 1.247 . S
O445 Zn439 2.035 . S
O445 C447 1.258 . S
C446 O440 1.247 . S
C446 O441 1.258 . S
C447 O444 1.247 . S
C447 O445 1.258 . S
C448 O450 1.247 . S
C448 O452 1.258 . S
C449 O456 1.247 . S
C449 O457 1.258 . S
O450 C448 1.247 . S
O450 Zn451 2.028 . S
Zn451 O450 2.028 . S
Zn451 O455 2.035 . S
Zn451 O457 2.035 . S
Zn451 O458 2.028 . S
O452 C448 1.258 . S
O452 Zn453 2.035 . S
Zn453 O452 2.035 . S
Zn453 O454 2.028 . S
Zn453 O456 2.028 . S
Zn453 O459 2.035 . S
O454 Zn453 2.028 . S
O454 C460 1.247 . S
O455 Zn451 2.035 . S
O455 C460 1.258 . S
O456 C449 1.247 . S
O456 Zn453 2.028 . S
O457 C449 1.258 . S
O457 Zn451 2.035 . S
O458 Zn451 2.028 . S
O458 C461 1.247 . S
O459 Zn453 2.035 . S
O459 C461 1.258 . S
C460 O454 1.247 . S
C460 O455 1.258 . S
C461 O458 1.247 . S
C461 O459 1.258 . S
C462 O464 1.247 . S
C462 O466 1.258 . S
C463 O470 1.247 . S
C463 O471 1.258 . S
O464 C462 1.247 . S
O464 Zn465 2.028 1_556 S
Zn465 O464 2.028 1_554 S
Zn465 O469 2.035 1_554 S
Zn465 O471 2.035 . S
Zn465 O472 2.028 . S
O466 C462 1.258 . S
O466 Zn467 2.035 1_556 S
Zn467 O466 2.035 1_554 S
Zn467 O468 2.028 . S
Zn467 O470 2.028 . S
Zn467 O473 2.035 . S
O468 Zn467 2.028 . S
O468 C474 1.247 1_554 S
O469 Zn465 2.035 1_556 S
O469 C474 1.258 . S
O470 C463 1.247 . S
O470 Zn467 2.028 . S
O471 C463 1.258 . S
O471 Zn465 2.035 . S
O472 Zn465 2.028 . S
O472 C475 1.247 . S
O473 Zn467 2.035 . S
O473 C475 1.258 . S
C474 O468 1.247 1_556 S
C474 O469 1.258 . S
C475 O472 1.247 . S
C475 O473 1.258 . S
C476 O478 1.247 . S
C476 O480 1.258 . S
C477 O484 1.247 . S
C477 O485 1.258 . S
O478 C476 1.247 . S
O478 Zn479 2.028 . S
Zn479 O478 2.028 . S
Zn479 O483 2.035 . S
Zn479 O485 2.035 . S
Zn479 O486 2.028 . S
O480 C476 1.258 . S
O480 Zn481 2.035 . S
Zn481 O480 2.035 . S
Zn481 O482 2.028 . S
Zn481 O484 2.028 . S
Zn481 O487 2.035 . S
O482 Zn481 2.028 . S
O482 C488 1.247 . S
O483 Zn479 2.035 . S
O483 C488 1.258 . S
O484 C477 1.247 . S
O484 Zn481 2.028 . S
O485 C477 1.258 . S
O485 Zn479 2.035 . S
O486 Zn479 2.028 . S
O486 C489 1.247 . S
O487 Zn481 2.035 . S
O487 C489 1.258 . S
C488 O482 1.247 . S
C488 O483 1.258 . S
C489 O486 1.247 . S
C489 O487 1.258 . S
C490 O492 1.247 . S
C490 O494 1.258 . S
C491 O498 1.247 . S
C491 O499 1.258 . S
O492 C490 1.247 . S
O492 Zn493 2.028 . S
Zn493 O492 2.028 . S
Zn493 O497 2.035 . S
Zn493 O499 2.035 . S
Zn493 O500 2.028 . S
O494 C490 1.258 . S
O494 Zn495 2.035 . S
Zn495 O494 2.035 . S
Zn495 O496 2.028 . S
Zn495 O498 2.028 . S
Zn495 O501 2.035 . S
O496 Zn495 2.028 . S
O496 C502 1.247 . S
O497 Zn493 2.035 . S
O497 C502 1.258 . S
O498 C491 1.247 . S
O498 Zn495 2.028 . S
O499 C491 1.258 . S
O499 Zn493 2.035 . S
O500 Zn493 2.028 . S
O500 C503 1.247 . S
O501 Zn495 2.035 . S
O501 C503 1.258 . S
C502 O496 1.247 . S
C502 O497 1.258 . S
C503 O500 1.247 . S
C503 O501 1.258 . S
C504 O506 1.247 . S
C504 O508 1.258 . S
C505 O512 1.247 . S
C505 O513 1.258 . S
O506 C504 1.247 . S
O506 Zn507 2.028 . S
Zn507 O506 2.028 . S
Zn507 O511 2.035 . S
Zn507 O513 2.035 . S
Zn507 O514 2.028 . S
O508 C504 1.258 . S
O508 Zn509 2.035 . S
Zn509 O508 2.035 . S
Zn509 O510 2.028 . S
Zn509 O512 2.028 . S
Zn509 O515 2.035 . S
O510 Zn509 2.028 . S
O510 C516 1.247 . S
O511 Zn507 2.035 . S
O511 C516 1.258 . S
O512 C505 1.247 . S
O512 Zn509 2.028 . S
O513 C505 1.258 . S
O513 Zn507 2.035 . S
O514 Zn507 2.028 . S
O514 C517 1.247 . S
O515 Zn509 2.035 . S
O515 C517 1.258 . S
C516 O510 1.247 . S
C516 O511 1.258 . S
C517 O514 1.247 . S
C517 O515 1.258 . S
C518 O520 1.247 . S
C518 O522 1.258 . S
C519 O526 1.247 . S
C519 O527 1.258 . S
O520 C518 1.247 . S
O520 Zn521 2.028 . S
Zn521 O520 2.028 . S
Zn521 O525 2.035 . S
Zn521 O527 2.035 1_556 S
Zn521 O528 2.028 1_556 S
O522 C518 1.258 . S
O522 Zn523 2.035 . S
Zn523 O522 2.035 . S
Zn523 O524 2.028 . S
Zn523 O526 2.028 1_556 S
Zn523 O529 2.035 . S
O524 Zn523 2.028 . S
O524 C530 1.247 . S
O525 Zn521 2.035 . S
O525 C530 1.258 . S
O526 C519 1.247 . S
O526 Zn523 2.028 1_554 S
O527 C519 1.258 . S
O527 Zn521 2.035 1_554 S
O528 Zn521 2.028 1_554 S
O528 C531 1.247 . S
O529 Zn523 2.035 . S
O529 C531 1.258 1_556 S
C530 O524 1.247 . S
C530 O525 1.258 . S
C531 O528 1.247 . S
C531 O529 1.258 1_554 S
C532 O534 1.247 . S
C532 O536 1.258 . S
C533 O540 1.247 . S
C533 O541 1.258 . S
O534 C532 1.247 . S
O534 Zn535 2.028 . S
Zn535 O534 2.028 . S
Zn535 O539 2.035 . S
Zn535 O541 2.035 . S
Zn535 O542 2.028 . S
O536 C532 1.258 . S
O536 Zn537 2.035 . S
Zn537 O536 2.035 . S
Zn537 O538 2.028 . S
Zn537 O540 2.028 . S
Zn537 O543 2.035 . S
O538 Zn537 2.028 . S
O538 C544 1.247 . S
O539 Zn535 2.035 . S
O539 C544 1.258 . S
O540 C533 1.247 . S
O540 Zn537 2.028 . S
O541 C533 1.258 . S
O541 Zn535 2.035 . S
O542 Zn535 2.028 . S
O542 C545 1.247 . S
O543 Zn537 2.035 . S
O543 C545 1.258 . S
C544 O538 1.247 . S
C544 O539 1.258 . S
C545 O542 1.247 . S
C545 O543 1.258 . S
C546 O548 1.247 . S
C546 O550 1.258 . S
C547 O554 1.247 . S
C547 O555 1.258 . S
O548 C546 1.247 . S
O548 Zn549 2.028 . S
Zn549 O548 2.028 . S
Zn549 O553 2.035 . S
Zn549 O555 2.035 . S
Zn549 O556 2.028 . S
O550 C546 1.258 . S
O550 Zn551 2.035 . S
Zn551 O550 2.035 . S
Zn551 O552 2.028 . S
Zn551 O554 2.028 . S
Zn551 O557 2.035 . S
O552 Zn551 2.028 . S
O552 C558 1.247 . S
O553 Zn549 2.035 . S
O553 C558 1.258 . S
O554 C547 1.247 . S
O554 Zn551 2.028 . S
O555 C547 1.258 . S
O555 Zn549 2.035 . S
O556 Zn549 2.028 . S
O556 C559 1.247 . S
O557 Zn551 2.035 . S
O557 C559 1.258 . S
C558 O552 1.247 . S
C558 O553 1.258 . S
C559 O556 1.247 . S
C559 O557 1.258 . S
C560 O562 1.247 . S
C560 O564 1.258 . S
C561 O568 1.247 . S
C561 O569 1.258 . S
O562 C560 1.247 . S
O562 Zn563 2.028 . S
Zn563 O562 2.028 . S
Zn563 O567 2.035 . S
Zn563 O569 2.035 . S
Zn563 O570 2.028 . S
O564 C560 1.258 . S
O564 Zn565 2.035 . S
Zn565 O564 2.035 . S
Zn565 O566 2.028 . S
Zn565 O568 2.028 . S
Zn565 O571 2.035 . S
O566 Zn565 2.028 . S
O566 C572 1.247 . S
O567 Zn563 2.035 . S
O567 C572 1.258 . S
O568 C561 1.247 . S
O568 Zn565 2.028 . S
O569 C561 1.258 . S
O569 Zn563 2.035 . S
O570 Zn563 2.028 . S
O570 C573 1.247 . S
O571 Zn565 2.035 . S
O571 C573 1.258 . S
C572 O566 1.247 . S
C572 O567 1.258 . S
C573 O570 1.247 . S
C573 O571 1.258 . S
C574 O576 1.247 . S
C574 O578 1.258 . S
C575 O582 1.247 . S
C575 O583 1.258 . S
O576 C574 1.247 . S
O576 Zn577 2.028 . S
Zn577 O576 2.028 . S
Zn577 O581 2.035 . S
Zn577 O583 2.035 . S
Zn577 O584 2.028 . S
O578 C574 1.258 . S
O578 Zn579 2.035 . S
Zn579 O578 2.035 . S
Zn579 O580 2.028 . S
Zn579 O582 2.028 . S
Zn579 O585 2.035 . S
O580 Zn579 2.028 . S
O580 C586 1.247 . S
O581 Zn577 2.035 . S
O581 C586 1.258 . S
O582 C575 1.247 . S
O582 Zn579 2.028 . S
O583 C575 1.258 . S
O583 Zn577 2.035 . S
O584 Zn577 2.028 . S
O584 C587 1.247 . S
O585 Zn579 2.035 . S
O585 C587 1.258 . S
C586 O580 1.247 . S
C586 O581 1.258 . S
C587 O584 1.247 . S
C587 O585 1.258 . S
C588 O590 1.247 . S
C588 O592 1.258 . S
C589 O596 1.247 . S
C589 O597 1.258 . S
O590 C588 1.247 . S
O590 Zn591 2.028 1_565 S
Zn591 O590 2.028 1_545 S
Zn591 O595 2.035 1_545 S
Zn591 O597 2.035 . S
Zn591 O598 2.028 . S
O592 C588 1.258 . S
O592 Zn593 2.035 1_565 S
Zn593 O592 2.035 1_545 S
Zn593 O594 2.028 . S
Zn593 O596 2.028 . S
Zn593 O599 2.035 . S
O594 Zn593 2.028 . S
O594 C600 1.247 1_545 S
O595 Zn591 2.035 1_565 S
O595 C600 1.258 . S
O596 C589 1.247 . S
O596 Zn593 2.028 . S
O597 C589 1.258 . S
O597 Zn591 2.035 . S
O598 Zn591 2.028 . S
O598 C601 1.247 . S
O599 Zn593 2.035 . S
O599 C601 1.258 . S
C600 O594 1.247 1_565 S
C600 O595 1.258 . S
C601 O598 1.247 . S
C601 O599 1.258 . S
C602 O604 1.247 . S
C602 O606 1.258 . S
C603 O610 1.247 . S
C603 O611 1.258 . S
O604 C602 1.247 . S
O604 Zn605 2.028 . S
Zn605 O604 2.028 . S
Zn605 O609 2.035 . S
Zn605 O611 2.035 . S
Zn605 O612 2.028 . S
O606 C602 1.258 . S
O606 Zn607 2.035 . S
Zn607 O606 2.035 . S
Zn607 O608 2.028 . S
Zn607 O610 2.028 . S
Zn607 O613 2.035 . S
O608 Zn607 2.028 . S
O608 C614 1.247 . S
O609 Zn605 2.035 . S
O609 C614 1.258 . S
O610 C603 1.247 . S
O610 Zn607 2.028 . S
O611 C603 1.258 . S
O611 Zn605 2.035 . S
O612 Zn605 2.028 . S
O612 C615 1.247 . S
O613 Zn607 2.035 . S
O613 C615 1.258 . S
C614 O608 1.247 . S
C614 O609 1.258 . S
C615 O612 1.247 . S
C615 O613 1.258 . S
C616 O618 1.247 . S
C616 O620 1.258 . S
C617 O624 1.247 . S
C617 O625 1.258 . S
O618 C616 1.247 . S
O618 Zn619 2.028 . S
Zn619 O618 2.028 . S
Zn619 O623 2.035 . S
Zn619 O625 2.035 . S
Zn619 O626 2.028 . S
O620 C616 1.258 . S
O620 Zn621 2.035 . S
Zn621 O620 2.035 . S
Zn621 O622 2.028 . S
Zn621 O624 2.028 . S
Zn621 O627 2.035 . S
O622 Zn621 2.028 . S
O622 C628 1.247 . S
O623 Zn619 2.035 . S
O623 C628 1.258 . S
O624 C617 1.247 . S
O624 Zn621 2.028 . S
O625 C617 1.258 . S
O625 Zn619 2.035 . S
O626 Zn619 2.028 . S
O626 C629 1.247 . S
O627 Zn621 2.035 . S
O627 C629 1.258 . S
C628 O622 1.247 . S
C628 O623 1.258 . S
C629 O626 1.247 . S
C629 O627 1.258 . S
C630 O632 1.247 . S
C630 O634 1.258 . S
C631 O638 1.247 . S
C631 O639 1.258 . S
O632 C630 1.247 . S
O632 Zn633 2.028 . S
Zn633 O632 2.028 . S
Zn633 O637 2.035 . S
Zn633 O639 2.035 . S
Zn633 O640 2.028 . S
O634 C630 1.258 . S
O634 Zn635 2.035 . S
Zn635 O634 2.035 . S
Zn635 O636 2.028 . S
Zn635 O638 2.028 . S
Zn635 O641 2.035 . S
O636 Zn635 2.028 . S
O636 C642 1.247 . S
O637 Zn633 2.035 . S
O637 C642 1.258 . S
O638 C631 1.247 . S
O638 Zn635 2.028 . S
O639 C631 1.258 . S
O639 Zn633 2.035 . S
O640 Zn633 2.028 . S
O640 C643 1.247 . S
O641 Zn635 2.035 . S
O641 C643 1.258 . S
C642 O636 1.247 . S
C642 O637 1.258 . S
C643 O640 1.247 . S
C643 O641 1.258 . S
C644 O646 1.247 . S
C644 O648 1.258 . S
C645 O652 1.247 . S
C645 O653 1.258 . S
O646 C644 1.247 . S
O646 Zn647 2.028 1_545 S
Zn647 O646 2.028 1_565 S
Zn647 O651 2.035 1_565 S
Zn647 O653 2.035 . S
Zn647 O654 2.028 . S
O648 C644 1.258 . S
O648 Zn649 2.035 1_545 S
Zn649 O648 2.035 1_565 S
Zn649 O650 2.028 . S
Zn649 O652 2.028 . S
Zn649 O655 2.035 . S
O650 Zn649 2.028 . S
O650 C656 1.247 1_565 S
O651 Zn647 2.035 1_545 S
O651 C656 1.258 . S
O652 C645 1.247 . S
O652 Zn649 2.028 . S
O653 C645 1.258 . S
O653 Zn647 2.035 . S
O654 Zn647 2.028 . S
O654 C657 1.247 . S
O655 Zn649 2.035 . S
O655 C657 1.258 . S
C656 O650 1.247 1_545 S
C656 O651 1.258 . S
C657 O654 1.247 . S
C657 O655 1.258 . S
C658 O660 1.247 1_565 S
C658 O662 1.258 . S
C659 O666 1.247 . S
C659 O667 1.258 . S
O660 C658 1.247 1_545 S
O660 Zn661 2.028 . S
Zn661 O660 2.028 . S
Zn661 O665 2.035 1_545 S
Zn661 O667 2.035 . S
Zn661 O668 2.028 . S
O662 C658 1.258 . S
O662 Zn663 2.035 1_565 S
Zn663 O662 2.035 1_545 S
Zn663 O664 2.028 1_545 S
Zn663 O666 2.028 . S
Zn663 O669 2.035 . S
O664 Zn663 2.028 1_565 S
O664 C670 1.247 . S
O665 Zn661 2.035 1_565 S
O665 C670 1.258 . S
O666 C659 1.247 . S
O666 Zn663 2.028 . S
O667 C659 1.258 . S
O667 Zn661 2.035 . S
O668 Zn661 2.028 . S
O668 C671 1.247 . S
O669 Zn663 2.035 . S
O669 C671 1.258 . S
C670 O664 1.247 . S
C670 O665 1.258 . S
C671 O668 1.247 . S
C671 O669 1.258 . S
C672 C673 1.387 . S
C672 H676 0.950 . S
C672 C681 1.390 . S
C673 C672 1.387 . S
C673 C675 1.387 . S
H674 C681 0.950 . S
C675 C673 1.387 . S
C675 C677 1.390 . S
C675 H679 0.950 . S
H676 C672 0.950 . S
C677 C675 1.390 . S
C677 C678 1.387 . S
C677 H680 0.950 . S
C678 C677 1.387 . S
C678 C681 1.387 . S
H679 C675 0.950 . S
H680 C677 0.950 . S
C681 C672 1.390 . S
C681 H674 0.950 . S
C681 C678 1.387 . S
C682 C683 1.387 . S
C682 H686 0.950 . S
C682 C691 1.390 . S
C683 C682 1.387 . S
C683 C685 1.387 . S
H684 C691 0.950 . S
C685 C683 1.387 . S
C685 C687 1.390 . S
C685 H689 0.950 . S
H686 C682 0.950 . S
C687 C685 1.390 . S
C687 C688 1.387 . S
C687 H690 0.950 . S
C688 C687 1.387 . S
C688 C691 1.387 . S
H689 C685 0.950 . S
H690 C687 0.950 . S
C691 C682 1.390 . S
C691 H684 0.950 . S
C691 C688 1.387 . S
C692 C693 1.387 . S
C692 H696 0.950 . S
C692 C701 1.390 . S
C693 C692 1.387 . S
C693 C695 1.387 . S
H694 C701 0.950 . S
C695 C693 1.387 . S
C695 C697 1.390 . S
C695 H699 0.950 . S
H696 C692 0.950 . S
C697 C695 1.390 . S
C697 C698 1.387 . S
C697 H700 0.950 . S
C698 C697 1.387 . S
C698 C701 1.387 . S
H699 C695 0.950 . S
H700 C697 0.950 . S
C701 C692 1.390 . S
C701 H694 0.950 . S
C701 C698 1.387 . S
C702 C703 1.387 . S
C702 H706 0.950 . S
C702 C711 1.390 . S
C703 C702 1.387 . S
C703 C705 1.387 . S
H704 C711 0.950 . S
C705 C703 1.387 . S
C705 C707 1.390 . S
C705 H709 0.950 . S
H706 C702 0.950 . S
C707 C705 1.390 . S
C707 C708 1.387 . S
C707 H710 0.950 . S
C708 C707 1.387 . S
C708 C711 1.387 . S
H709 C705 0.950 . S
H710 C707 0.950 . S
C711 C702 1.390 . S
C711 H704 0.950 . S
C711 C708 1.387 . S
C712 C713 1.387 . S
C712 H716 0.950 . S
C712 C721 1.390 . S
C713 C712 1.387 . S
C713 C715 1.387 . S
H714 C721 0.950 . S
C715 C713 1.387 . S
C715 C717 1.390 . S
C715 H719 0.950 . S
H716 C712 0.950 . S
C717 C715 1.390 . S
C717 C718 1.387 . S
C717 H720 0.950 . S
C718 C717 1.387 . S
C718 C721 1.387 . S
H719 C715 0.950 . S
H720 C717 0.950 . S
C721 C712 1.390 . S
C721 H714 0.950 . S
C721 C718 1.387 . S
C722 C723 1.387 . S
C722 H726 0.950 . S
C722 C731 1.390 . S
C723 C722 1.387 . S
C723 C725 1.387 . S
H724 C731 0.950 . S
C725 C723 1.387 . S
C725 C727 1.390 . S
C725 H729 0.950 . S
H726 C722 0.950 . S
C727 C725 1.390 . S
C727 C728 1.387 . S
C727 H730 0.950 . S
C728 C727 1.387 . S
C728 C731 1.387 . S
H729 C725 0.950 . S
H730 C727 0.950 . S
C731 C722 1.390 . S
C731 H724 0.950 . S
C731 C728 1.387 . S
C732 C733 1.387 . S
C732 H736 0.950 . S
C732 C741 1.390 . S
C733 C732 1.387 . S
C733 C735 1.387 . S
H734 C741 0.950 . S
C735 C733 1.387 . S
C735 C737 1.390 . S
C735 H739 0.950 . S
H736 C732 0.950 . S
C737 C735 1.390 . S
C737 C738 1.387 . S
C737 H740 0.950 . S
C738 C737 1.387 . S
C738 C741 1.387 . S
H739 C735 0.950 . S
H740 C737 0.950 . S
C741 C732 1.390 . S
C741 H734 0.950 . S
C741 C738 1.387 . S
C742 C743 1.387 . S
C742 H746 0.950 . S
C742 C751 1.390 . S
C743 C742 1.387 . S
C743 C745 1.387 . S
H744 C751 0.950 . S
C745 C743 1.387 . S
C745 C747 1.390 . S
C745 H749 0.950 . S
H746 C742 0.950 . S
C747 C745 1.390 . S
C747 C748 1.387 . S
C747 H750 0.950 . S
C748 C747 1.387 . S
C748 C751 1.387 . S
H749 C745 0.950 . S
H750 C747 0.950 . S
C751 C742 1.390 . S
C751 H744 0.950 . S
C751 C748 1.387 . S
C752 C753 1.387 . S
C752 H756 0.950 . S
C752 C761 1.390 . S
C753 C752 1.387 . S
C753 C755 1.387 . S
H754 C761 0.950 . S
C755 C753 1.387 . S
C755 C757 1.390 . S
C755 H759 0.950 . S
H756 C752 0.950 . S
C757 C755 1.390 . S
C757 C758 1.387 . S
C757 H760 0.950 . S
C758 C757 1.387 . S
C758 C761 1.387 . S
H759 C755 0.950 . S
H760 C757 0.950 . S
C761 C752 1.390 . S
C761 H754 0.950 . S
C761 C758 1.387 . S
C762 C763 1.387 . S
C762 H766 0.950 . S
C762 C771 1.390 . S
C763 C762 1.387 . S
C763 C765 1.387 . S
H764 C771 0.950 . S
C765 C763 1.387 . S
C765 C767 1.390 . S
C765 H769 0.950 . S
H766 C762 0.950 . S
C767 C765 1.390 . S
C767 C768 1.387 . S
C767 H770 0.950 . S
C768 C767 1.387 . S
C768 C771 1.387 . S
H769 C765 0.950 . S
H770 C767 0.950 . S
C771 C762 1.390 . S
C771 H764 0.950 . S
C771 C768 1.387 . S
C772 C773 1.387 . S
C772 H776 0.950 . S
C772 C781 1.390 . S
C773 C772 1.387 . S
C773 C775 1.387 . S
H774 C781 0.950 . S
C775 C773 1.387 . S
C775 C777 1.390 . S
C775 H779 0.950 . S
H776 C772 0.950 . S
C777 C775 1.390 . S
C777 C778 1.387 . S
C777 H780 0.950 . S
C778 C777 1.387 . S
C778 C781 1.387 . S
H779 C775 0.950 . S
H780 C777 0.950 . S
C781 C772 1.390 . S
C781 H774 0.950 . S
C781 C778 1.387 . S
C782 C783 1.387 . S
C782 H786 0.950 . S
C782 C791 1.390 . S
C783 C782 1.387 . S
C783 C785 1.387 . S
H784 C791 0.950 . S
C785 C783 1.387 . S
C785 C787 1.390 . S
C785 H789 0.950 . S
H786 C782 0.950 . S
C787 C785 1.390 . S
C787 C788 1.387 . S
C787 H790 0.950 . S
C788 C787 1.387 . S
C788 C791 1.387 . S
H789 C785 0.950 . S
H790 C787 0.950 . S
C791 C782 1.390 . S
C791 H784 0.950 . S
C791 C788 1.387 . S
C792 C793 1.387 . S
C792 H796 0.950 . S
C792 C801 1.390 . S
C793 C792 1.387 . S
C793 C795 1.387 . S
H794 C801 0.950 . S
C795 C793 1.387 . S
C795 C797 1.390 . S
C795 H799 0.950 . S
H796 C792 0.950 . S
C797 C795 1.390 . S
C797 C798 1.387 . S
C797 H800 0.950 . S
C798 C797 1.387 . S
C798 C801 1.387 . S
H799 C795 0.950 . S
H800 C797 0.950 . S
C801 C792 1.390 . S
C801 H794 0.950 . S
C801 C798 1.387 . S
C802 C803 1.387 . S
C802 H806 0.950 . S
C802 C811 1.390 . S
C803 C802 1.387 . S
C803 C805 1.387 . S
H804 C811 0.950 . S
C805 C803 1.387 . S
C805 C807 1.390 . S
C805 H809 0.950 . S
H806 C802 0.950 . S
C807 C805 1.390 . S
C807 C808 1.387 . S
C807 H810 0.950 . S
C808 C807 1.387 . S
C808 C811 1.387 . S
H809 C805 0.950 . S
H810 C807 0.950 . S
C811 C802 1.390 . S
C811 H804 0.950 . S
C811 C808 1.387 . S
C812 C813 1.387 . S
C812 H816 0.950 . S
C812 C821 1.390 . S
C813 C812 1.387 . S
C813 C815 1.387 . S
H814 C821 0.950 . S
C815 C813 1.387 . S
C815 C817 1.390 . S
C815 H819 0.950 . S
H816 C812 0.950 . S
C817 C815 1.390 . S
C817 C818 1.387 . S
C817 H820 0.950 . S
C818 C817 1.387 . S
C818 C821 1.387 . S
H819 C815 0.950 . S
H820 C817 0.950 . S
C821 C812 1.390 . S
C821 H814 0.950 . S
C821 C818 1.387 . S
C822 C823 1.387 . S
C822 H826 0.950 . S
C822 C831 1.390 . S
C823 C822 1.387 . S
C823 C825 1.387 . S
H824 C831 0.950 . S
C825 C823 1.387 . S
C825 C827 1.390 . S
C825 H829 0.950 . S
H826 C822 0.950 . S
C827 C825 1.390 . S
C827 C828 1.387 . S
C827 H830 0.950 . S
C828 C827 1.387 . S
C828 C831 1.387 . S
H829 C825 0.950 . S
H830 C827 0.950 . S
C831 C822 1.390 . S
C831 H824 0.950 . S
C831 C828 1.387 . S
C832 C833 1.387 . S
C832 H836 0.950 . S
C832 C841 1.390 . S
C833 C832 1.387 . S
C833 C835 1.387 . S
H834 C841 0.950 . S
C835 C833 1.387 . S
C835 C837 1.390 . S
C835 H839 0.950 . S
H836 C832 0.950 . S
C837 C835 1.390 . S
C837 C838 1.387 . S
C837 H840 0.950 . S
C838 C837 1.387 . S
C838 C841 1.387 . S
H839 C835 0.950 . S
H840 C837 0.950 . S
C841 C832 1.390 . S
C841 H834 0.950 . S
C841 C838 1.387 . S
C842 C843 1.387 . S
C842 H846 0.950 . S
C842 C851 1.390 . S
C843 C842 1.387 . S
C843 C845 1.387 . S
H844 C851 0.950 . S
C845 C843 1.387 . S
C845 C847 1.390 . S
C845 H849 0.950 . S
H846 C842 0.950 . S
C847 C845 1.390 . S
C847 C848 1.387 . S
C847 H850 0.950 . S
C848 C847 1.387 . S
C848 C851 1.387 . S
H849 C845 0.950 . S
H850 C847 0.950 . S
C851 C842 1.390 . S
C851 H844 0.950 . S
C851 C848 1.387 . S
C852 C853 1.387 . S
C852 H856 0.950 . S
C852 C861 1.390 . S
C853 C852 1.387 . S
C853 C855 1.387 . S
H854 C861 0.950 . S
C855 C853 1.387 . S
C855 C857 1.390 . S
C855 H859 0.950 . S
H856 C852 0.950 . S
C857 C855 1.390 . S
C857 C858 1.387 . S
C857 H860 0.950 . S
C858 C857 1.387 . S
C858 C861 1.387 . S
H859 C855 0.950 . S
H860 C857 0.950 . S
C861 C852 1.390 . S
C861 H854 0.950 . S
C861 C858 1.387 . S
C862 C863 1.387 . S
C862 H866 0.950 . S
C862 C871 1.390 . S
C863 C862 1.387 . S
C863 C865 1.387 . S
H864 C871 0.950 . S
C865 C863 1.387 . S
C865 C867 1.390 . S
C865 H869 0.950 . S
H866 C862 0.950 . S
C867 C865 1.390 . S
C867 C868 1.387 . S
C867 H870 0.950 . S
C868 C867 1.387 . S
C868 C871 1.387 . S
H869 C865 0.950 . S
H870 C867 0.950 . S
C871 C862 1.390 . S
C871 H864 0.950 . S
C871 C868 1.387 . S
C872 C873 1.387 . S
C872 H876 0.950 . S
C872 C881 1.390 . S
C873 C872 1.387 . S
C873 C875 1.387 . S
H874 C881 0.950 . S
C875 C873 1.387 . S
C875 C877 1.390 . S
C875 H879 0.950 . S
H876 C872 0.950 . S
C877 C875 1.390 . S
C877 C878 1.387 . S
C877 H880 0.950 . S
C878 C877 1.387 . S
C878 C881 1.387 . S
H879 C875 0.950 . S
H880 C877 0.950 . S
C881 C872 1.390 . S
C881 H874 0.950 . S
C881 C878 1.387 . S
C882 C883 1.387 . S
C882 H886 0.950 . S
C882 C891 1.390 . S
C883 C882 1.387 . S
C883 C885 1.387 . S
H884 C891 0.950 . S
C885 C883 1.387 . S
C885 C887 1.390 . S
C885 H889 0.950 . S
H886 C882 0.950 . S
C887 C885 1.390 . S
C887 C888 1.387 . S
C887 H890 0.950 . S
C888 C887 1.387 . S
C888 C891 1.387 . S
H889 C885 0.950 . S
H890 C887 0.950 . S
C891 C882 1.390 . S
C891 H884 0.950 . S
C891 C888 1.387 . S
C892 C893 1.387 . S
C892 H896 0.950 . S
C892 C901 1.390 . S
C893 C892 1.387 . S
C893 C895 1.387 . S
H894 C901 0.950 . S
C895 C893 1.387 . S
C895 C897 1.390 . S
C895 H899 0.950 . S
H896 C892 0.950 . S
C897 C895 1.390 . S
C897 C898 1.387 . S
C897 H900 0.950 . S
C898 C897 1.387 . S
C898 C901 1.387 . S
H899 C895 0.950 . S
H900 C897 0.950 . S
C901 C892 1.390 . S
C901 H894 0.950 . S
C901 C898 1.387 . S
C902 C903 1.387 . S
C902 H906 0.950 . S
C902 C911 1.390 . S
C903 C902 1.387 . S
C903 C905 1.387 . S
H904 C911 0.950 . S
C905 C903 1.387 . S
C905 C907 1.390 . S
C905 H909 0.950 . S
H906 C902 0.950 . S
C907 C905 1.390 . S
C907 C908 1.387 . S
C907 H910 0.950 . S
C908 C907 1.387 . S
C908 C911 1.387 . S
H909 C905 0.950 . S
H910 C907 0.950 . S
C911 C902 1.390 . S
C911 H904 0.950 . S
C911 C908 1.387 . S
C912 C913 1.387 . S
C912 H916 0.950 . S
C912 C921 1.390 . S
C913 C912 1.387 . S
C913 C915 1.387 . S
H914 C921 0.950 . S
C915 C913 1.387 . S
C915 C917 1.390 . S
C915 H919 0.950 . S
H916 C912 0.950 . S
C917 C915 1.390 . S
C917 C918 1.387 . S
C917 H920 0.950 . S
C918 C917 1.387 . S
C918 C921 1.387 . S
H919 C915 0.950 . S
H920 C917 0.950 . S
C921 C912 1.390 . S
C921 H914 0.950 . S
C921 C918 1.387 . S
C922 C923 1.387 . S
C922 H926 0.950 1_565 S
C922 C931 1.390 . S
C923 C922 1.387 . S
C923 C925 1.387 . S
H924 C931 0.950 . S
C925 C923 1.387 . S
C925 C927 1.390 . S
C925 H929 0.950 . S
H926 C922 0.950 1_545 S
C927 C925 1.390 . S
C927 C928 1.387 . S
C927 H930 0.950 . S
C928 C927 1.387 . S
C928 C931 1.387 . S
H929 C925 0.950 . S
H930 C927 0.950 . S
C931 C922 1.390 . S
C931 H924 0.950 . S
C931 C928 1.387 . S
C932 C933 1.387 . S
C932 H936 0.950 . S
C932 C941 1.390 . S
C933 C932 1.387 . S
C933 C935 1.387 . S
H934 C941 0.950 . S
C935 C933 1.387 . S
C935 C937 1.390 . S
C935 H939 0.950 . S
H936 C932 0.950 . S
C937 C935 1.390 . S
C937 C938 1.387 . S
C937 H940 0.950 . S
C938 C937 1.387 . S
C938 C941 1.387 . S
H939 C935 0.950 . S
H940 C937 0.950 . S
C941 C932 1.390 . S
C941 H934 0.950 . S
C941 C938 1.387 . S
C942 C943 1.387 . S
C942 H946 0.950 . S
C942 C951 1.390 1_556 S
C943 C942 1.387 . S
C943 C945 1.387 1_556 S
H944 C951 0.950 . S
C945 C943 1.387 1_554 S
C945 C947 1.390 . S
C945 H949 0.950 1_554 S
H946 C942 0.950 . S
C947 C945 1.390 . S
C947 C948 1.387 . S
C947 H950 0.950 . S
C948 C947 1.387 . S
C948 C951 1.387 . S
H949 C945 0.950 1_556 S
H950 C947 0.950 . S
C951 C942 1.390 1_554 S
C951 H944 0.950 . S
C951 C948 1.387 . S
C952 C953 1.387 . S
C952 H956 0.950 . S
C952 C961 1.390 . S
C953 C952 1.387 . S
C953 C955 1.387 . S
H954 C961 0.950 . S
C955 C953 1.387 . S
C955 C957 1.390 . S
C955 H959 0.950 . S
H956 C952 0.950 . S
C957 C955 1.390 . S
C957 C958 1.387 . S
C957 H960 0.950 . S
C958 C957 1.387 . S
C958 C961 1.387 . S
H959 C955 0.950 . S
H960 C957 0.950 . S
C961 C952 1.390 . S
C961 H954 0.950 . S
C961 C958 1.387 . S
C962 C963 1.387 . S
C962 H966 0.950 . S
C962 C971 1.390 . S
C963 C962 1.387 . S
C963 C965 1.387 . S
H964 C971 0.950 . S
C965 C963 1.387 . S
C965 C967 1.390 . S
C965 H969 0.950 1_565 S
H966 C962 0.950 . S
C967 C965 1.390 . S
C967 C968 1.387 . S
C967 H970 0.950 . S
C968 C967 1.387 . S
C968 C971 1.387 . S
H969 C965 0.950 1_545 S
H970 C967 0.950 . S
C971 C962 1.390 . S
C971 H964 0.950 . S
C971 C968 1.387 . S
C972 C973 1.387 . S
C972 H976 0.950 . S
C972 C981 1.390 . S
C973 C972 1.387 . S
C973 C975 1.387 . S
H974 C981 0.950 . S
C975 C973 1.387 . S
C975 C977 1.390 . S
C975 H979 0.950 . S
H976 C972 0.950 . S
C977 C975 1.390 . S
C977 C978 1.387 . S
C977 H980 0.950 . S
C978 C977 1.387 . S
C978 C981 1.387 . S
H979 C975 0.950 . S
H980 C977 0.950 . S
C981 C972 1.390 . S
C981 H974 0.950 . S
C981 C978 1.387 . S
C982 C983 1.387 . S
C982 H986 0.950 . S
C982 C991 1.390 1_554 S
C983 C982 1.387 . S
C983 C985 1.387 . S
H984 C991 0.950 . S
C985 C983 1.387 . S
C985 C987 1.390 1_554 S
C985 H989 0.950 1_545 S
H986 C982 0.950 . S
C987 C985 1.390 1_556 S
C987 C988 1.387 . S
C987 H990 0.950 . S
C988 C987 1.387 . S
C988 C991 1.387 . S
H989 C985 0.950 1_565 S
H990 C987 0.950 . S
C991 C982 1.390 1_556 S
C991 H984 0.950 . S
C991 C988 1.387 . S
C992 C993 1.387 . S
C992 H996 0.950 . S
C992 C1001 1.390 . S
C993 C992 1.387 . S
C993 C995 1.387 . S
H994 C1001 0.950 . S
C995 C993 1.387 . S
C995 C997 1.390 . S
C995 H999 0.950 . S
H996 C992 0.950 . S
C997 C995 1.390 . S
C997 C998 1.387 . S
C997 H1000 0.950 . S
C998 C997 1.387 . S
C998 C1001 1.387 . S
H999 C995 0.950 . S
H1000 C997 0.950 . S
C1001 C992 1.390 . S
C1001 H994 0.950 . S
C1001 C998 1.387 . S
C1002 C1003 1.387 . S
C1002 H1006 0.950 . S
C1002 C1011 1.390 1_565 S
C1003 C1002 1.387 . S
C1003 C1005 1.387 1_565 S
H1004 C1011 0.950 . S
C1005 C1003 1.387 1_545 S
C1005 C1007 1.391 . S
C1005 H1009 0.950 1_545 S
H1006 C1002 0.950 . S
C1007 C1005 1.391 . S
C1007 C1008 1.387 . S
C1007 H1010 0.950 . S
C1008 C1007 1.387 . S
C1008 C1011 1.387 . S
H1009 C1005 0.950 1_565 S
H1010 C1007 0.950 . S
C1011 C1002 1.390 1_545 S
C1011 H1004 0.950 . S
C1011 C1008 1.387 . S
C1012 C1013 1.387 . S
C1012 H1016 0.950 . S
C1012 C1021 1.390 . S
C1013 C1012 1.387 . S
C1013 C1015 1.387 . S
H1014 C1021 0.950 . S
C1015 C1013 1.387 . S
C1015 C1017 1.390 . S
C1015 H1019 0.950 . S
H1016 C1012 0.950 . S
C1017 C1015 1.390 . S
C1017 C1018 1.387 . S
C1017 H1020 0.950 . S
C1018 C1017 1.387 . S
C1018 C1021 1.387 . S
H1019 C1015 0.950 . S
H1020 C1017 0.950 . S
C1021 C1012 1.390 . S
C1021 H1014 0.950 . S
C1021 C1018 1.387 . S
C1022 C1023 1.387 . S
C1022 H1026 0.950 . S
C1022 C1031 1.390 1_545 S
C1023 C1022 1.387 . S
C1023 C1025 1.387 . S
H1024 C1031 0.950 . S
C1025 C1023 1.387 . S
C1025 C1027 1.390 1_545 S
C1025 H1029 0.950 . S
H1026 C1022 0.950 . S
C1027 C1025 1.390 1_565 S
C1027 C1028 1.387 . S
C1027 H1030 0.950 . S
C1028 C1027 1.387 . S
C1028 C1031 1.387 . S
H1029 C1025 0.950 . S
H1030 C1027 0.950 . S
C1031 C1022 1.390 1_565 S
C1031 H1024 0.950 . S
C1031 C1028 1.387 . S
C1032 C1033 1.387 . S
C1032 H1036 0.950 . S
C1032 C1041 1.390 . S
C1033 C1032 1.387 . S
C1033 C1035 1.387 . S
H1034 C1041 0.950 . S
C1035 C1033 1.387 . S
C1035 C1037 1.390 . S
C1035 H1039 0.950 . S
H1036 C1032 0.950 . S
C1037 C1035 1.390 . S
C1037 C1038 1.387 . S
C1037 H1040 0.950 . S
C1038 C1037 1.387 . S
C1038 C1041 1.387 . S
H1039 C1035 0.950 . S
H1040 C1037 0.950 . S
C1041 C1032 1.390 . S
C1041 H1034 0.950 . S
C1041 C1038 1.387 . S
C1042 C1043 1.387 . S
C1042 H1046 0.950 . S
C1042 C1051 1.390 1_565 S
C1043 C1042 1.387 . S
C1043 C1045 1.394 . S
H1044 C1051 0.950 . S
C1045 C1043 1.394 . S
C1045 C1047 1.381 1_565 S
C1045 H1049 0.953 . S
H1046 C1042 0.950 . S
C1047 C1045 1.381 1_545 S
C1047 C1048 1.387 . S
C1047 H1050 0.950 . S
C1048 C1047 1.387 . S
C1048 C1051 1.387 . S
H1049 C1045 0.953 . S
H1050 C1047 0.950 . S
C1051 C1042 1.390 1_545 S
C1051 H1044 0.950 . S
C1051 C1048 1.387 . S
C1052 C1053 1.387 . S
C1052 H1056 0.950 . S
C1052 C1061 1.390 . S
C1053 C1052 1.387 . S
C1053 C1055 1.387 . S
H1054 C1061 0.950 . S
C1055 C1053 1.387 . S
C1055 C1057 1.390 . S
C1055 H1059 0.950 . S
H1056 C1052 0.950 . S
C1057 C1055 1.390 . S
C1057 C1058 1.387 . S
C1057 H1060 0.950 . S
C1058 C1057 1.387 . S
C1058 C1061 1.387 . S
H1059 C1055 0.950 . S
H1060 C1057 0.950 . S
C1061 C1052 1.390 . S
C1061 H1054 0.950 . S
C1061 C1058 1.387 . S
C1062 C1063 1.387 . S
C1062 H1066 0.950 . S
C1062 C1071 1.396 . S
C1063 C1062 1.387 . S
C1063 C1065 1.387 . S
H1064 C1071 0.948 1_545 S
C1065 C1063 1.387 . S
C1065 C1067 1.390 1_565 S
C1065 H1069 0.950 . S
H1066 C1062 0.950 . S
C1067 C1065 1.390 1_545 S
C1067 C1068 1.387 . S
C1067 H1070 0.950 . S
C1068 C1067 1.387 . S
C1068 C1071 1.384 1_545 S
H1069 C1065 0.950 . S
H1070 C1067 0.950 . S
C1071 C1062 1.396 . S
C1071 H1064 0.948 1_565 S
C1071 C1068 1.384 1_565 S
C1072 C1073 1.387 . S
C1072 H1076 0.950 . S
C1072 C1081 1.390 . S
C1073 C1072 1.387 . S
C1073 C1075 1.387 . S
H1074 C1081 0.950 . S
C1075 C1073 1.387 . S
C1075 C1077 1.390 . S
C1075 H1079 0.950 . S
H1076 C1072 0.950 . S
C1077 C1075 1.390 . S
C1077 C1078 1.387 . S
C1077 H1080 0.950 . S
C1078 C1077 1.387 . S
C1078 C1081 1.387 . S
H1079 C1075 0.950 . S
H1080 C1077 0.950 . S
C1081 C1072 1.390 . S
C1081 H1074 0.950 . S
C1081 C1078 1.387 . S
C1082 C1083 1.387 . S
C1082 H1086 0.950 . S
C1082 C1091 1.390 . S
C1083 C1082 1.387 . S
C1083 C1085 1.387 . S
H1084 C1091 0.950 . S
C1085 C1083 1.387 . S
C1085 C1087 1.390 . S
C1085 H1089 0.950 . S
H1086 C1082 0.950 . S
C1087 C1085 1.390 . S
C1087 C1088 1.387 . S
C1087 H1090 0.950 . S
C1088 C1087 1.387 . S
C1088 C1091 1.387 . S
H1089 C1085 0.950 . S
H1090 C1087 0.950 . S
C1091 C1082 1.390 . S
C1091 H1084 0.950 . S
C1091 C1088 1.387 . S
C1092 C1093 1.387 1_455 S
C1092 H1096 0.950 1_454 S
C1092 C1101 1.390 . S
C1093 C1092 1.387 1_655 S
C1093 C1095 1.387 . S
H1094 C1101 0.950 . S
C1095 C1093 1.387 . S
C1095 C1097 1.390 1_655 S
C1095 H1099 0.950 . S
H1096 C1092 0.950 1_656 S
C1097 C1095 1.390 1_455 S
C1097 C1098 1.387 . S
C1097 H1100 0.950 . S
C1098 C1097 1.387 . S
C1098 C1101 1.387 . S
H1099 C1095 0.950 . S
H1100 C1097 0.950 . S
C1101 C1092 1.390 . S
C1101 H1094 0.950 . S
C1101 C1098 1.387 . S
C1102 C1103 1.387 . S
C1102 H1106 0.950 . S
C1102 C1111 1.390 . S
C1103 C1102 1.387 . S
C1103 C1105 1.387 . S
H1104 C1111 0.950 . S
C1105 C1103 1.387 . S
C1105 C1107 1.390 . S
C1105 H1109 0.950 . S
H1106 C1102 0.950 . S
C1107 C1105 1.390 . S
C1107 C1108 1.387 . S
C1107 H1110 0.950 . S
C1108 C1107 1.387 . S
C1108 C1111 1.387 . S
H1109 C1105 0.950 . S
H1110 C1107 0.950 . S
C1111 C1102 1.390 . S
C1111 H1104 0.950 . S
C1111 C1108 1.387 . S
C1112 C1113 1.387 . S
C1112 H1116 0.950 . S
C1112 C1121 1.390 1_455 S
C1113 C1112 1.387 . S
C1113 C1115 1.387 . S
H1114 C1121 0.950 . S
C1115 C1113 1.387 . S
C1115 C1117 1.390 1_455 S
C1115 H1119 0.928 1_554 S
H1116 C1112 0.950 . S
C1117 C1115 1.390 1_655 S
C1117 C1118 1.387 . S
C1117 H1120 0.950 . S
C1118 C1117 1.387 . S
C1118 C1121 1.387 . S
H1119 C1115 0.928 1_556 S
H1120 C1117 0.950 . S
C1121 C1112 1.390 1_655 S
C1121 H1114 0.950 . S
C1121 C1118 1.387 . S
C1122 C1123 1.387 . S
C1122 H1126 0.950 . S
C1122 C1131 1.390 . S
C1123 C1122 1.387 . S
C1123 C1125 1.387 . S
H1124 C1131 0.950 . S
C1125 C1123 1.387 . S
C1125 C1127 1.390 . S
C1125 H1129 0.950 . S
H1126 C1122 0.950 . S
C1127 C1125 1.390 . S
C1127 C1128 1.387 . S
C1127 H1130 0.950 . S
C1128 C1127 1.387 . S
C1128 C1131 1.387 . S
H1129 C1125 0.950 . S
H1130 C1127 0.950 . S
C1131 C1122 1.390 . S
C1131 H1124 0.950 . S
C1131 C1128 1.387 . S
C1132 C1133 1.387 . S
C1132 H1136 0.950 . S
C1132 C1141 1.390 1_655 S
C1133 C1132 1.387 . S
C1133 C1135 1.387 . S
H1134 C1141 0.950 . S
C1135 C1133 1.387 . S
C1135 C1137 1.390 1_655 S
C1135 H1139 0.950 . S
H1136 C1132 0.950 . S
C1137 C1135 1.390 1_455 S
C1137 C1138 1.387 . S
C1137 H1140 0.950 . S
C1138 C1137 1.387 . S
C1138 C1141 1.387 . S
H1139 C1135 0.950 . S
H1140 C1137 0.950 . S
C1141 C1132 1.390 1_455 S
C1141 H1134 0.950 . S
C1141 C1138 1.387 . S
C1142 C1143 1.387 . S
C1142 H1146 0.950 . S
C1142 C1151 1.390 . S
C1143 C1142 1.387 . S
C1143 C1145 1.387 . S
H1144 C1151 0.950 . S
C1145 C1143 1.387 . S
C1145 C1147 1.390 . S
C1145 H1149 0.950 . S
H1146 C1142 0.950 . S
C1147 C1145 1.390 . S
C1147 C1148 1.387 . S
C1147 H1150 0.950 . S
C1148 C1147 1.387 . S
C1148 C1151 1.387 . S
H1149 C1145 0.950 . S
H1150 C1147 0.950 . S
C1151 C1142 1.390 . S
C1151 H1144 0.950 . S
C1151 C1148 1.387 . S
C1152 C1153 1.387 . S
C1152 H1156 0.950 . S
C1152 C1161 1.390 . S
C1153 C1152 1.387 . S
C1153 C1155 1.387 . S
H1154 C1161 0.950 . S
C1155 C1153 1.387 . S
C1155 C1157 1.390 . S
C1155 H1159 0.950 . S
H1156 C1152 0.950 . S
C1157 C1155 1.390 . S
C1157 C1158 1.387 . S
C1157 H1160 0.950 . S
C1158 C1157 1.387 . S
C1158 C1161 1.387 . S
H1159 C1155 0.950 . S
H1160 C1157 0.950 . S
C1161 C1152 1.390 . S
C1161 H1154 0.950 . S
C1161 C1158 1.387 . S
C1162 C1163 1.387 . S
C1162 H1166 0.950 . S
C1162 C1171 1.390 1_554 S
C1163 C1162 1.387 . S
C1163 C1165 1.387 . S
H1164 C1171 0.950 . S
C1165 C1163 1.387 . S
C1165 C1167 1.390 . S
C1165 H1169 0.950 . S
H1166 C1162 0.950 . S
C1167 C1165 1.390 . S
C1167 C1168 1.387 1_554 S
C1167 H1170 0.950 1_554 S
C1168 C1167 1.387 1_556 S
C1168 C1171 1.387 . S
H1169 C1165 0.950 . S
H1170 C1167 0.950 1_556 S
C1171 C1162 1.390 1_556 S
C1171 H1164 0.950 . S
C1171 C1168 1.387 . S
C1172 C1173 1.387 . S
C1172 H1176 0.950 . S
C1172 C1181 1.390 . S
C1173 C1172 1.387 . S
C1173 C1175 1.387 . S
H1174 C1181 0.950 . S
C1175 C1173 1.387 . S
C1175 C1177 1.390 . S
C1175 H1179 0.950 . S
H1176 C1172 0.950 . S
C1177 C1175 1.390 . S
C1177 C1178 1.387 . S
C1177 H1180 0.950 . S
C1178 C1177 1.387 . S
C1178 C1181 1.387 . S
H1179 C1175 0.950 . S
H1180 C1177 0.950 . S
C1181 C1172 1.390 . S
C1181 H1174 0.950 . S
C1181 C1178 1.387 . S
C1182 C1183 1.387 . S
C1182 H1186 0.950 . S
C1182 C1191 1.390 . S
C1183 C1182 1.387 . S
C1183 C1185 1.387 . S
H1184 C1191 0.950 . S
C1185 C1183 1.387 . S
C1185 C1187 1.390 . S
C1185 H1189 0.950 . S
H1186 C1182 0.950 . S
C1187 C1185 1.390 . S
C1187 C1188 1.387 . S
C1187 H1190 0.950 . S
C1188 C1187 1.387 . S
C1188 C1191 1.387 . S
H1189 C1185 0.950 . S
H1190 C1187 0.950 . S
C1191 C1182 1.390 . S
C1191 H1184 0.950 . S
C1191 C1188 1.387 . S
C1192 C1193 1.387 . S
C1192 H1196 0.950 . S
C1192 C1201 1.390 . S
C1193 C1192 1.387 . S
C1193 C1195 1.387 . S
H1194 C1201 0.950 . S
C1195 C1193 1.387 . S
C1195 C1197 1.390 . S
C1195 H1199 0.950 . S
H1196 C1192 0.950 . S
C1197 C1195 1.390 . S
C1197 C1198 1.387 . S
C1197 H1200 0.950 . S
C1198 C1197 1.387 . S
C1198 C1201 1.387 . S
H1199 C1195 0.950 . S
H1200 C1197 0.950 . S
C1201 C1192 1.390 . S
C1201 H1194 0.950 . S
C1201 C1198 1.387 . S
C1202 C1203 1.387 . S
C1202 H1206 0.950 . S
C1202 C1211 1.390 1_556 S
C1203 C1202 1.387 . S
C1203 C1205 1.387 . S
H1204 C1211 0.950 . S
C1205 C1203 1.387 . S
C1205 C1207 1.390 1_556 S
C1205 H1209 0.950 . S
H1206 C1202 0.950 . S
C1207 C1205 1.390 1_554 S
C1207 C1208 1.387 . S
C1207 H1210 0.950 . S
C1208 C1207 1.387 . S
C1208 C1211 1.387 . S
H1209 C1205 0.950 . S
H1210 C1207 0.950 . S
C1211 C1202 1.390 1_554 S
C1211 H1204 0.950 . S
C1211 C1208 1.387 . S
C1212 C1213 1.387 . S
C1212 H1216 0.950 . S
C1212 C1221 1.390 . S
C1213 C1212 1.387 . S
C1213 C1215 1.387 . S
H1214 C1221 0.950 . S
C1215 C1213 1.387 . S
C1215 C1217 1.390 . S
C1215 H1219 0.950 . S
H1216 C1212 0.950 . S
C1217 C1215 1.390 . S
C1217 C1218 1.387 . S
C1217 H1220 0.950 . S
C1218 C1217 1.387 . S
C1218 C1221 1.387 . S
H1219 C1215 0.950 . S
H1220 C1217 0.950 . S
C1221 C1212 1.390 . S
C1221 H1214 0.950 . S
C1221 C1218 1.387 . S
C1222 C1223 1.387 . S
C1222 H1226 0.950 . S
C1222 C1231 1.390 . S
C1223 C1222 1.387 . S
C1223 C1225 1.387 . S
H1224 C1231 0.950 . S
C1225 C1223 1.387 . S
C1225 C1227 1.390 . S
C1225 H1229 0.950 . S
H1226 C1222 0.950 . S
C1227 C1225 1.390 . S
C1227 C1228 1.387 . S
C1227 H1230 0.950 . S
C1228 C1227 1.387 . S
C1228 C1231 1.387 . S
H1229 C1225 0.950 . S
H1230 C1227 0.950 . S
C1231 C1222 1.390 . S
C1231 H1224 0.950 . S
C1231 C1228 1.387 . S
C1232 C1233 1.387 . S
C1232 H1236 0.950 . S
C1232 C1241 1.390 . S
C1233 C1232 1.387 . S
C1233 C1235 1.387 . S
H1234 C1241 0.950 . S
C1235 C1233 1.387 . S
C1235 C1237 1.390 . S
C1235 H1239 0.950 . S
H1236 C1232 0.950 . S
C1237 C1235 1.390 . S
C1237 C1238 1.387 . S
C1237 H1240 0.950 . S
C1238 C1237 1.387 . S
C1238 C1241 1.387 . S
H1239 C1235 0.950 . S
H1240 C1237 0.950 . S
C1241 C1232 1.390 . S
C1241 H1234 0.950 . S
C1241 C1238 1.387 . S
C1242 C1243 1.387 . S
C1242 H1246 0.950 . S
C1242 C1251 1.390 . S
C1243 C1242 1.387 . S
C1243 C1245 1.387 . S
H1244 C1251 0.950 . S
C1245 C1243 1.387 . S
C1245 C1247 1.390 . S
C1245 H1249 0.950 . S
H1246 C1242 0.950 . S
C1247 C1245 1.390 . S
C1247 C1248 1.387 . S
C1247 H1250 0.950 . S
C1248 C1247 1.387 . S
C1248 C1251 1.387 . S
H1249 C1245 0.950 . S
H1250 C1247 0.950 . S
C1251 C1242 1.390 . S
C1251 H1244 0.950 . S
C1251 C1248 1.387 . S
C1252 C1253 1.387 . S
C1252 H1256 0.950 . S
C1252 C1261 1.390 . S
C1253 C1252 1.387 . S
C1253 C1255 1.387 . S
H1254 C1261 0.950 . S
C1255 C1253 1.387 . S
C1255 C1257 1.390 . S
C1255 H1259 0.950 . S
H1256 C1252 0.950 . S
C1257 C1255 1.390 . S
C1257 C1258 1.387 . S
C1257 H1260 0.950 . S
C1258 C1257 1.387 . S
C1258 C1261 1.387 . S
H1259 C1255 0.950 . S
H1260 C1257 0.950 . S
C1261 C1252 1.390 . S
C1261 H1254 0.950 . S
C1261 C1258 1.387 . S
C1262 C1263 1.387 . S
C1262 H1266 0.950 . S
C1262 C1271 1.390 . S
C1263 C1262 1.387 . S
C1263 C1265 1.387 . S
H1264 C1271 0.950 . S
C1265 C1263 1.387 . S
C1265 C1267 1.390 . S
C1265 H1269 0.950 . S
H1266 C1262 0.950 . S
C1267 C1265 1.390 . S
C1267 C1268 1.387 . S
C1267 H1270 0.950 . S
C1268 C1267 1.387 . S
C1268 C1271 1.387 . S
H1269 C1265 0.950 . S
H1270 C1267 0.950 . S
C1271 C1262 1.390 . S
C1271 H1264 0.950 . S
C1271 C1268 1.387 . S
C1272 C1273 1.387 . S
C1272 H1276 0.950 . S
C1272 C1281 1.390 . S
C1273 C1272 1.387 . S
C1273 C1275 1.387 . S
H1274 C1281 0.950 . S
C1275 C1273 1.387 . S
C1275 C1277 1.390 . S
C1275 H1279 0.950 . S
H1276 C1272 0.950 . S
C1277 C1275 1.390 . S
C1277 C1278 1.387 . S
C1277 H1280 0.950 . S
C1278 C1277 1.387 . S
C1278 C1281 1.387 . S
H1279 C1275 0.950 . S
H1280 C1277 0.950 . S
C1281 C1272 1.390 . S
C1281 H1274 0.950 . S
C1281 C1278 1.387 . S
C1282 C1283 1.387 . S
C1282 H1286 0.950 . S
C1282 C1291 1.390 . S
C1283 C1282 1.387 . S
C1283 C1285 1.387 . S
H1284 C1291 0.950 . S
C1285 C1283 1.387 . S
C1285 C1287 1.390 . S
C1285 H1289 0.950 . S
H1286 C1282 0.950 . S
C1287 C1285 1.390 . S
C1287 C1288 1.387 . S
C1287 H1290 0.950 . S
C1288 C1287 1.387 . S
C1288 C1291 1.387 . S
H1289 C1285 0.950 . S
H1290 C1287 0.950 . S
C1291 C1282 1.390 . S
C1291 H1284 0.950 . S
C1291 C1288 1.387 . S
C1292 C1293 1.387 . S
C1292 H1296 0.950 . S
C1292 C1301 1.390 . S
C1293 C1292 1.387 . S
C1293 C1295 1.387 . S
H1294 C1301 0.950 . S
C1295 C1293 1.387 . S
C1295 C1297 1.390 . S
C1295 H1299 0.950 . S
H1296 C1292 0.950 . S
C1297 C1295 1.390 . S
C1297 C1298 1.387 . S
C1297 H1300 0.950 . S
C1298 C1297 1.387 . S
C1298 C1301 1.387 . S
H1299 C1295 0.950 . S
H1300 C1297 0.950 . S
C1301 C1292 1.390 . S
C1301 H1294 0.950 . S
C1301 C1298 1.387 . S
C1302 C1303 1.387 . S
C1302 H1306 0.950 . S
C1302 C1311 1.390 . S
C1303 C1302 1.387 . S
C1303 C1305 1.387 . S
H1304 C1311 0.950 . S
C1305 C1303 1.387 . S
C1305 C1307 1.390 . S
C1305 H1309 0.950 . S
H1306 C1302 0.950 . S
C1307 C1305 1.390 . S
C1307 C1308 1.387 . S
C1307 H1310 0.950 . S
C1308 C1307 1.387 . S
C1308 C1311 1.387 . S
H1309 C1305 0.950 . S
H1310 C1307 0.950 . S
C1311 C1302 1.390 . S
C1311 H1304 0.950 . S
C1311 C1308 1.387 . S
C1312 C1313 1.387 . S
C1312 H1316 0.950 . S
C1312 C1321 1.390 . S
C1313 C1312 1.387 . S
C1313 C1315 1.387 . S
H1314 C1321 0.950 . S
C1315 C1313 1.387 . S
C1315 C1317 1.390 . S
C1315 H1319 0.950 . S
H1316 C1312 0.950 . S
C1317 C1315 1.390 . S
C1317 C1318 1.387 . S
C1317 H1320 0.950 . S
C1318 C1317 1.387 . S
C1318 C1321 1.387 . S
H1319 C1315 0.950 . S
H1320 C1317 0.950 . S
C1321 C1312 1.390 . S
C1321 H1314 0.950 . S
C1321 C1318 1.387 . S
C1322 C1323 1.387 . S
C1322 H1326 0.950 . S
C1322 C1331 1.390 . S
C1323 C1322 1.387 . S
C1323 C1325 1.387 . S
H1324 C1331 0.950 . S
C1325 C1323 1.387 . S
C1325 C1327 1.390 . S
C1325 H1329 0.950 . S
H1326 C1322 0.950 . S
C1327 C1325 1.390 . S
C1327 C1328 1.387 . S
C1327 H1330 0.950 . S
C1328 C1327 1.387 . S
C1328 C1331 1.387 . S
H1329 C1325 0.950 . S
H1330 C1327 0.950 . S
C1331 C1322 1.390 . S
C1331 H1324 0.950 . S
C1331 C1328 1.387 . S
C1332 C1333 1.387 . S
C1332 H1336 0.950 . S
C1332 C1341 1.390 . S
C1333 C1332 1.387 . S
C1333 C1335 1.387 . S
H1334 C1341 0.950 . S
C1335 C1333 1.387 . S
C1335 C1337 1.390 . S
C1335 H1339 0.950 . S
H1336 C1332 0.950 . S
C1337 C1335 1.390 . S
C1337 C1338 1.387 . S
C1337 H1340 0.950 . S
C1338 C1337 1.387 . S
C1338 C1341 1.387 . S
H1339 C1335 0.950 . S
H1340 C1337 0.950 . S
C1341 C1332 1.390 . S
C1341 H1334 0.950 . S
C1341 C1338 1.387 . S
C1342 C1343 1.387 . S
C1342 H1346 0.950 . S
C1342 C1351 1.390 . S
C1343 C1342 1.387 . S
C1343 C1345 1.387 . S
H1344 C1351 0.950 . S
C1345 C1343 1.387 . S
C1345 C1347 1.390 . S
C1345 H1349 0.950 . S
H1346 C1342 0.950 . S
C1347 C1345 1.390 . S
C1347 C1348 1.387 . S
C1347 H1350 0.950 . S
C1348 C1347 1.387 . S
C1348 C1351 1.387 . S
H1349 C1345 0.950 . S
H1350 C1347 0.950 . S
C1351 C1342 1.390 . S
C1351 H1344 0.950 . S
C1351 C1348 1.387 . S
C1352 C1353 1.387 . S
C1352 H1356 0.950 . S
C1352 C1361 1.390 . S
C1353 C1352 1.387 . S
C1353 C1355 1.387 . S
H1354 C1361 0.950 . S
C1355 C1353 1.387 . S
C1355 C1357 1.390 . S
C1355 H1359 0.950 . S
H1356 C1352 0.950 . S
C1357 C1355 1.390 . S
C1357 C1358 1.387 . S
C1357 H1360 0.950 . S
C1358 C1357 1.387 . S
C1358 C1361 1.387 . S
H1359 C1355 0.950 . S
H1360 C1357 0.950 . S
C1361 C1352 1.390 . S
C1361 H1354 0.950 . S
C1361 C1358 1.387 . S
C1362 C1363 1.387 . S
C1362 H1366 0.950 . S
C1362 C1371 1.390 . S
C1363 C1362 1.387 . S
C1363 C1365 1.387 . S
H1364 C1371 0.950 . S
C1365 C1363 1.387 . S
C1365 C1367 1.390 . S
C1365 H1369 0.950 . S
H1366 C1362 0.950 . S
C1367 C1365 1.390 . S
C1367 C1368 1.387 . S
C1367 H1370 0.950 . S
C1368 C1367 1.387 . S
C1368 C1371 1.387 . S
H1369 C1365 0.950 . S
H1370 C1367 0.950 . S
C1371 C1362 1.390 . S
C1371 H1364 0.950 . S
C1371 C1368 1.387 . S
C1372 C1373 1.387 . S
C1372 H1376 0.950 1_556 S
C1372 C1381 1.390 . S
C1373 C1372 1.387 . S
C1373 C1375 1.387 . S
H1374 C1381 0.950 . S
C1375 C1373 1.387 . S
C1375 C1377 1.390 . S
C1375 H1379 0.950 . S
H1376 C1372 0.950 1_554 S
C1377 C1375 1.390 . S
C1377 C1378 1.387 . S
C1377 H1380 0.950 . S
C1378 C1377 1.387 . S
C1378 C1381 1.387 . S
H1379 C1375 0.950 . S
H1380 C1377 0.950 . S
C1381 C1372 1.390 . S
C1381 H1374 0.950 . S
C1381 C1378 1.387 . S
C1382 C1383 1.387 . S
C1382 H1386 0.950 . S
C1382 C1391 1.390 1_455 S
C1383 C1382 1.387 . S
C1383 C1385 1.387 . S
H1384 C1391 0.950 . S
C1385 C1383 1.387 . S
C1385 C1387 1.390 1_455 S
C1385 H1389 0.950 . S
H1386 C1382 0.950 . S
C1387 C1385 1.390 1_655 S
C1387 C1388 1.387 . S
C1387 H1390 0.950 . S
C1388 C1387 1.387 . S
C1388 C1391 1.387 . S
H1389 C1385 0.950 . S
H1390 C1387 0.950 . S
C1391 C1382 1.390 1_655 S
C1391 H1384 0.950 . S
C1391 C1388 1.387 . S
C1392 C1393 1.387 . S
C1392 H1396 0.950 . S
C1392 C1401 1.390 . S
C1393 C1392 1.387 . S
C1393 C1395 1.387 . S
H1394 C1401 0.950 . S
C1395 C1393 1.387 . S
C1395 C1397 1.390 . S
C1395 H1399 0.950 . S
H1396 C1392 0.950 . S
C1397 C1395 1.390 . S
C1397 C1398 1.387 . S
C1397 H1400 0.950 . S
C1398 C1397 1.387 . S
C1398 C1401 1.387 . S
H1399 C1395 0.950 . S
H1400 C1397 0.950 . S
C1401 C1392 1.390 . S
C1401 H1394 0.950 . S
C1401 C1398 1.387 . S
C1402 C1403 1.387 . S
C1402 H1406 0.950 . S
C1402 C1411 1.390 . S
C1403 C1402 1.387 . S
C1403 C1405 1.387 . S
H1404 C1411 0.950 . S
C1405 C1403 1.387 . S
C1405 C1407 1.390 . S
C1405 H1409 0.950 . S
H1406 C1402 0.950 . S
C1407 C1405 1.390 . S
C1407 C1408 1.387 . S
C1407 H1410 0.950 . S
C1408 C1407 1.387 . S
C1408 C1411 1.387 . S
H1409 C1405 0.950 . S
H1410 C1407 0.950 . S
C1411 C1402 1.390 . S
C1411 H1404 0.950 . S
C1411 C1408 1.387 . S
C1412 C1413 1.387 . S
C1412 H1416 0.950 . S
C1412 C1421 1.390 . S
C1413 C1412 1.387 . S
C1413 C1415 1.387 . S
H1414 C1421 0.950 . S
C1415 C1413 1.387 . S
C1415 C1417 1.390 . S
C1415 H1419 0.950 . S
H1416 C1412 0.950 . S
C1417 C1415 1.390 . S
C1417 C1418 1.387 . S
C1417 H1420 0.950 . S
C1418 C1417 1.387 . S
C1418 C1421 1.387 . S
H1419 C1415 0.950 . S
H1420 C1417 0.950 . S
C1421 C1412 1.390 . S
C1421 H1414 0.950 . S
C1421 C1418 1.387 . S
C1422 C1423 1.387 . S
C1422 H1426 0.950 . S
C1422 C1431 1.390 . S
C1423 C1422 1.387 . S
C1423 C1425 1.387 . S
H1424 C1431 0.950 . S
C1425 C1423 1.387 . S
C1425 C1427 1.390 . S
C1425 H1429 0.950 . S
H1426 C1422 0.950 . S
C1427 C1425 1.390 . S
C1427 C1428 1.387 . S
C1427 H1430 0.950 . S
C1428 C1427 1.387 . S
C1428 C1431 1.387 . S
H1429 C1425 0.950 . S
H1430 C1427 0.950 . S
C1431 C1422 1.390 . S
C1431 H1424 0.950 . S
C1431 C1428 1.387 . S
C1432 C1433 1.387 . S
C1432 H1436 0.950 . S
C1432 C1441 1.390 . S
C1433 C1432 1.387 . S
C1433 C1435 1.387 . S
H1434 C1441 0.950 . S
C1435 C1433 1.387 . S
C1435 C1437 1.390 . S
C1435 H1439 0.950 . S
H1436 C1432 0.950 . S
C1437 C1435 1.390 . S
C1437 C1438 1.387 . S
C1437 H1440 0.950 . S
C1438 C1437 1.387 . S
C1438 C1441 1.387 . S
H1439 C1435 0.950 . S
H1440 C1437 0.950 . S
C1441 C1432 1.390 . S
C1441 H1434 0.950 . S
C1441 C1438 1.387 . S
C1442 C1443 1.387 . S
C1442 H1446 0.950 . S
C1442 C1451 1.390 . S
C1443 C1442 1.387 . S
C1443 C1445 1.387 . S
H1444 C1451 0.950 . S
C1445 C1443 1.387 . S
C1445 C1447 1.390 . S
C1445 H1449 0.950 . S
H1446 C1442 0.950 . S
C1447 C1445 1.390 . S
C1447 C1448 1.387 . S
C1447 H1450 0.950 . S
C1448 C1447 1.387 . S
C1448 C1451 1.387 . S
H1449 C1445 0.950 . S
H1450 C1447 0.950 . S
C1451 C1442 1.390 . S
C1451 H1444 0.950 . S
C1451 C1448 1.387 . S
C1452 C1453 1.387 . S
C1452 H1456 0.950 . S
C1452 C1461 1.390 . S
C1453 C1452 1.387 . S
C1453 C1455 1.387 . S
H1454 C1461 0.950 . S
C1455 C1453 1.387 . S
C1455 C1457 1.390 . S
C1455 H1459 0.950 . S
H1456 C1452 0.950 . S
C1457 C1455 1.390 . S
C1457 C1458 1.387 . S
C1457 H1460 0.950 . S
C1458 C1457 1.387 . S
C1458 C1461 1.387 . S
H1459 C1455 0.950 . S
H1460 C1457 0.950 . S
C1461 C1452 1.390 . S
C1461 H1454 0.950 . S
C1461 C1458 1.387 . S
C1462 C1463 1.387 . S
C1462 H1466 0.950 . S
C1462 C1471 1.390 . S
C1463 C1462 1.387 . S
C1463 C1465 1.387 . S
H1464 C1471 0.950 . S
C1465 C1463 1.387 . S
C1465 C1467 1.390 . S
C1465 H1469 0.950 . S
H1466 C1462 0.950 . S
C1467 C1465 1.390 . S
C1467 C1468 1.387 . S
C1467 H1470 0.950 . S
C1468 C1467 1.387 . S
C1468 C1471 1.387 . S
H1469 C1465 0.950 . S
H1470 C1467 0.950 . S
C1471 C1462 1.390 . S
C1471 H1464 0.950 . S
C1471 C1468 1.387 . S
C1472 C1473 1.387 . S
C1472 H1476 0.950 . S
C1472 C1481 1.390 . S
C1473 C1472 1.387 . S
C1473 C1475 1.387 . S
H1474 C1481 0.950 . S
C1475 C1473 1.387 . S
C1475 C1477 1.390 . S
C1475 H1479 0.950 . S
H1476 C1472 0.950 . S
C1477 C1475 1.390 . S
C1477 C1478 1.387 . S
C1477 H1480 0.950 . S
C1478 C1477 1.387 . S
C1478 C1481 1.387 . S
H1479 C1475 0.950 . S
H1480 C1477 0.950 . S
C1481 C1472 1.390 . S
C1481 H1474 0.950 . S
C1481 C1478 1.387 . S
C1482 C1483 1.387 . S
C1482 H1486 0.950 . S
C1482 C1491 1.390 . S
C1483 C1482 1.387 . S
C1483 C1485 1.387 . S
H1484 C1491 0.950 . S
C1485 C1483 1.387 . S
C1485 C1487 1.390 . S
C1485 H1489 0.950 . S
H1486 C1482 0.950 . S
C1487 C1485 1.390 . S
C1487 C1488 1.387 . S
C1487 H1490 0.950 . S
C1488 C1487 1.387 . S
C1488 C1491 1.387 . S
H1489 C1485 0.950 . S
H1490 C1487 0.950 . S
C1491 C1482 1.390 . S
C1491 H1484 0.950 . S
C1491 C1488 1.387 . S
C1492 C1493 1.387 . S
C1492 H1496 0.950 . S
C1492 C1501 1.390 . S
C1493 C1492 1.387 . S
C1493 C1495 1.387 . S
H1494 C1501 0.950 . S
C1495 C1493 1.387 . S
C1495 C1497 1.390 . S
C1495 H1499 0.950 . S
H1496 C1492 0.950 . S
C1497 C1495 1.390 . S
C1497 C1498 1.387 . S
C1497 H1500 0.950 . S
C1498 C1497 1.387 . S
C1498 C1501 1.387 . S
H1499 C1495 0.950 . S
H1500 C1497 0.950 . S
C1501 C1492 1.390 . S
C1501 H1494 0.950 . S
C1501 C1498 1.387 . S
C1502 C1503 1.387 . S
C1502 H1506 0.950 . S
C1502 C1511 1.390 . S
C1503 C1502 1.387 . S
C1503 C1505 1.387 . S
H1504 C1511 0.950 . S
C1505 C1503 1.387 . S
C1505 C1507 1.390 . S
C1505 H1509 0.950 . S
H1506 C1502 0.950 . S
C1507 C1505 1.390 . S
C1507 C1508 1.387 . S
C1507 H1510 0.950 . S
C1508 C1507 1.387 . S
C1508 C1511 1.387 . S
H1509 C1505 0.950 . S
H1510 C1507 0.950 . S
C1511 C1502 1.390 . S
C1511 H1504 0.950 . S
C1511 C1508 1.387 . S
C1512 C1513 1.387 . S
C1512 H1516 0.950 . S
C1512 C1521 1.390 . S
C1513 C1512 1.387 . S
C1513 C1515 1.387 . S
H1514 C1521 0.950 . S
C1515 C1513 1.387 . S
C1515 C1517 1.390 . S
C1515 H1519 0.950 . S
H1516 C1512 0.950 . S
C1517 C1515 1.390 . S
C1517 C1518 1.387 . S
C1517 H1520 0.950 . S
C1518 C1517 1.387 . S
C1518 C1521 1.387 . S
H1519 C1515 0.950 . S
H1520 C1517 0.950 . S
C1521 C1512 1.390 . S
C1521 H1514 0.950 . S
C1521 C1518 1.387 . S
C1522 C1523 1.387 . S
C1522 H1526 0.950 . S
C1522 C1531 1.390 . S
C1523 C1522 1.387 . S
C1523 C1525 1.387 . S
H1524 C1531 0.950 . S
C1525 C1523 1.387 . S
C1525 C1527 1.390 . S
C1525 H1529 0.950 . S
H1526 C1522 0.950 . S
C1527 C1525 1.390 . S
C1527 C1528 1.387 . S
C1527 H1530 0.950 . S
C1528 C1527 1.387 . S
C1528 C1531 1.387 . S
H1529 C1525 0.950 . S
H1530 C1527 0.950 . S
C1531 C1522 1.390 . S
C1531 H1524 0.950 . S
C1531 C1528 1.387 . S
C1532 C1533 1.387 . S
C1532 H1536 0.950 . S
C1532 C1541 1.390 . S
C1533 C1532 1.387 . S
C1533 C1535 1.387 . S
H1534 C1541 0.950 . S
C1535 C1533 1.387 . S
C1535 C1537 1.390 . S
C1535 H1539 0.950 . S
H1536 C1532 0.950 . S
C1537 C1535 1.390 . S
C1537 C1538 1.387 . S
C1537 H1540 0.950 . S
C1538 C1537 1.387 . S
C1538 C1541 1.387 . S
H1539 C1535 0.950 . S
H1540 C1537 0.950 . S
C1541 C1532 1.390 . S
C1541 H1534 0.950 . S
C1541 C1538 1.387 . S
C1542 C1543 1.387 . S
C1542 H1546 0.950 . S
C1542 C1551 1.390 . S
C1543 C1542 1.387 . S
C1543 C1545 1.387 . S
H1544 C1551 0.950 . S
C1545 C1543 1.387 . S
C1545 C1547 1.390 . S
C1545 H1549 0.950 . S
H1546 C1542 0.950 . S
C1547 C1545 1.390 . S
C1547 C1548 1.387 . S
C1547 H1550 0.950 . S
C1548 C1547 1.387 . S
C1548 C1551 1.387 . S
H1549 C1545 0.950 . S
H1550 C1547 0.950 . S
C1551 C1542 1.390 . S
C1551 H1544 0.950 . S
C1551 C1548 1.387 . S
C1552 C1553 1.387 . S
C1552 H1556 0.950 . S
C1552 C1561 1.390 . S
C1553 C1552 1.387 . S
C1553 C1555 1.387 . S
H1554 C1561 0.950 . S
C1555 C1553 1.387 . S
C1555 C1557 1.390 . S
C1555 H1559 0.950 . S
H1556 C1552 0.950 . S
C1557 C1555 1.390 . S
C1557 C1558 1.387 . S
C1557 H1560 0.950 . S
C1558 C1557 1.387 . S
C1558 C1561 1.387 . S
H1559 C1555 0.950 . S
H1560 C1557 0.950 . S
C1561 C1552 1.390 . S
C1561 H1554 0.950 . S
C1561 C1558 1.387 . S
C1562 C1563 1.387 . S
C1562 H1566 0.950 . S
C1562 C1571 1.390 . S
C1563 C1562 1.387 . S
C1563 C1565 1.387 . S
H1564 C1571 0.950 . S
C1565 C1563 1.387 . S
C1565 C1567 1.390 . S
C1565 H1569 0.950 . S
H1566 C1562 0.950 . S
C1567 C1565 1.390 . S
C1567 C1568 1.387 . S
C1567 H1570 0.950 . S
C1568 C1567 1.387 . S
C1568 C1571 1.387 . S
H1569 C1565 0.950 . S
H1570 C1567 0.950 . S
C1571 C1562 1.390 . S
C1571 H1564 0.950 . S
C1571 C1568 1.387 . S
C1572 C1573 1.387 . S
C1572 H1576 0.950 . S
C1572 C1581 1.390 . S
C1573 C1572 1.387 . S
C1573 C1575 1.387 . S
H1574 C1581 0.950 . S
C1575 C1573 1.387 . S
C1575 C1577 1.390 . S
C1575 H1579 0.950 . S
H1576 C1572 0.950 . S
C1577 C1575 1.390 . S
C1577 C1578 1.387 . S
C1577 H1580 0.950 . S
C1578 C1577 1.387 . S
C1578 C1581 1.387 . S
H1579 C1575 0.950 . S
H1580 C1577 0.950 . S
C1581 C1572 1.390 . S
C1581 H1574 0.950 . S
C1581 C1578 1.387 . S
C1582 C1583 1.387 . S
C1582 H1586 0.950 . S
C1582 C1591 1.390 . S
C1583 C1582 1.387 . S
C1583 C1585 1.387 . S
H1584 C1591 0.950 . S
C1585 C1583 1.387 . S
C1585 C1587 1.390 . S
C1585 H1589 0.950 . S
H1586 C1582 0.950 . S
C1587 C1585 1.390 . S
C1587 C1588 1.387 . S
C1587 H1590 0.950 . S
C1588 C1587 1.387 . S
C1588 C1591 1.387 . S
H1589 C1585 0.950 . S
H1590 C1587 0.950 . S
C1591 C1582 1.390 . S
C1591 H1584 0.950 . S
C1591 C1588 1.387 . S
C1592 C1593 1.387 . S
C1592 H1596 0.950 . S
C1592 C1601 1.390 . S
C1593 C1592 1.387 . S
C1593 C1595 1.387 . S
H1594 C1601 0.950 . S
C1595 C1593 1.387 . S
C1595 C1597 1.390 . S
C1595 H1599 0.950 . S
H1596 C1592 0.950 . S
C1597 C1595 1.390 . S
C1597 C1598 1.387 . S
C1597 H1600 0.950 . S
C1598 C1597 1.387 . S
C1598 C1601 1.387 . S
H1599 C1595 0.950 . S
H1600 C1597 0.950 . S
C1601 C1592 1.390 . S
C1601 H1594 0.950 . S
C1601 C1598 1.387 . S
C1602 C1603 1.387 . S
C1602 H1606 0.950 . S
C1602 C1611 1.390 . S
C1603 C1602 1.387 . S
C1603 C1605 1.387 . S
H1604 C1611 0.950 . S
C1605 C1603 1.387 . S
C1605 C1607 1.390 . S
C1605 H1609 0.950 . S
H1606 C1602 0.950 . S
C1607 C1605 1.390 . S
C1607 C1608 1.387 . S
C1607 H1610 0.950 . S
C1608 C1607 1.387 . S
C1608 C1611 1.387 . S
H1609 C1605 0.950 . S
H1610 C1607 0.950 . S
C1611 C1602 1.390 . S
C1611 H1604 0.950 . S
C1611 C1608 1.387 . S
C1612 C1613 1.387 . S
C1612 H1616 0.950 . S
C1612 C1621 1.390 . S
C1613 C1612 1.387 . S
C1613 C1615 1.387 . S
H1614 C1621 0.950 . S
C1615 C1613 1.387 . S
C1615 C1617 1.390 . S
C1615 H1619 0.950 . S
H1616 C1612 0.950 . S
C1617 C1615 1.390 . S
C1617 C1618 1.387 . S
C1617 H1620 0.950 . S
C1618 C1617 1.387 . S
C1618 C1621 1.387 . S
H1619 C1615 0.950 . S
H1620 C1617 0.950 . S
C1621 C1612 1.390 . S
C1621 H1614 0.950 . S
C1621 C1618 1.387 . S
C1622 C1623 1.387 . S
C1622 H1626 0.950 . S
C1622 C1631 1.390 . S
C1623 C1622 1.387 . S
C1623 C1625 1.387 . S
H1624 C1631 0.950 . S
C1625 C1623 1.387 . S
C1625 C1627 1.390 . S
C1625 H1629 0.950 . S
H1626 C1622 0.950 . S
C1627 C1625 1.390 . S
C1627 C1628 1.387 . S
C1627 H1630 0.950 . S
C1628 C1627 1.387 . S
C1628 C1631 1.387 . S
H1629 C1625 0.950 . S
H1630 C1627 0.950 . S
C1631 C1622 1.390 . S
C1631 H1624 0.950 . S
C1631 C1628 1.387 . S
C673 C127 2.020 . S
C678 C1 2.019 . S
C683 C152 2.020 . S
C688 C14 2.020 . S
C693 C155 2.019 . S
C698 C40 2.020 . S
C703 C124 2.020 . S
C708 C54 2.021 . S
C713 C57 2.020 . S
C718 C223 2.019 . S
C723 C82 2.021 . S
C728 C168 2.020 . S
C733 C97 2.020 . S
C738 C194 2.019 . S
C743 C196 2.020 . S
C748 C98 2.021 . S
C753 C236 2.021 . S
C758 C264 2.020 . S
C763 C239 2.020 . S
C768 C656 2.020 . S
C773 C278 2.021 . S
C778 C658 2.020 . S
C783 C292 2.020 . S
C788 C631 2.020 . S
C793 C306 2.021 . S
C798 C616 2.020 . S
C803 C586 2.019 . S
C808 C308 2.020 . S
C813 C334 2.020 . S
C818 C603 2.019 . S
C823 C474 2.019 . S
C828 C349 2.020 . S
C833 C476 2.020 . S
C838 C350 2.021 . S
C843 C491 2.019 . S
C848 C376 2.020 . S
C853 C448 2.021 . S
C858 C378 2.020 . S
C863 C559 2.020 . S
C868 C405 2.020 . S
C873 C504 2.019 . S
C878 C418 2.020 . S
C883 C421 2.020 . S
C888 C531 2.019 . S
C893 C435 2.020 . S
C898 C532 2.020 . S
C903 C561 2.020 . S
C908 C600 2.020 . S
C913 C224 1.308 . S
C918 C0 1.344 . S
C923 C670 1.309 . S
C928 C15 1.342 . S
C933 C41 1.341 . S
C938 C294 1.306 . S
C943 C644 1.308 . S
C948 C55 1.342 . S
C953 C56 1.342 . S
C958 C574 1.306 . S
C963 C588 1.307 . S
C968 C83 1.341 . S
C973 C96 1.344 . S
C978 C615 1.307 . S
C983 C280 1.306 . S
C988 C99 1.340 . S
C993 C125 1.340 . S
C998 C13 1.304 . S
C1003 C26 1.309 . S
C1008 C126 1.344 . S
C1013 C153 1.340 . S
C1018 C28 1.306 . S
C1023 C42 1.306 . S
C1028 C154 1.342 . S
C1033 C169 1.343 . S
C1038 C69 1.307 . S
C1043 C70 1.310 . S
C1048 C195 1.343 . S
C1053 C197 1.343 . S
C1058 C85 1.307 . S
C1063 C222 1.342 . S
C1068 C110 1.306 . S
C1073 C237 1.341 . S
C1078 C112 1.308 . S
C1083 C238 1.344 . S
C1088 C516 1.309 . S
C1093 C519 1.305 . S
C1098 C265 1.342 . S
C1103 C544 1.306 . S
C1108 C279 1.340 . S
C1113 C211 1.304 . S
C1118 C293 1.340 . S
C1123 C307 1.341 . S
C1128 C140 1.307 . S
C1133 C503 1.307 . S
C1138 C309 1.343 . S
C1143 C335 1.343 . S
C1148 C462 1.309 . S
C1153 C348 1.343 . S
C1158 C573 1.304 . S
C1163 C351 1.342 . S
C1168 C322 1.308 . S
C1173 C377 1.343 . S
C1178 C643 1.307 . S
C1183 C379 1.342 . S
C1188 C320 1.308 . S
C1193 C404 1.344 . S
C1198 C251 1.306 . S
C1203 C419 1.340 . S
C1208 C252 1.306 . S
C1213 C266 1.309 . S
C1218 C420 1.344 . S
C1223 C628 1.309 . S
C1228 C434 1.344 . S
C1233 C337 1.307 . S
C1238 C449 1.343 . S
C1243 C362 1.309 . S
C1248 C475 1.342 . S
C1253 C477 1.343 . S
C1258 C364 1.309 . S
C1263 C390 1.306 . S
C1268 C490 1.342 . S
C1273 C505 1.342 . S
C1278 C393 1.305 . S
C1283 C530 1.344 . S
C1288 C406 1.309 . S
C1293 C533 1.343 . S
C1298 C433 1.307 . S
C1303 C447 1.307 . S
C1308 C558 1.344 . S
C1313 C560 1.344 . S
C1318 C460 1.309 . S
C1323 C587 1.342 . S
C1328 C180 1.309 . S
C1333 C182 1.309 . S
C1338 C601 1.343 . S
C1343 C602 1.344 . S
C1348 C208 1.309 . S
C1353 C617 1.340 . S
C1358 C547 1.303 . S
C1363 C488 1.307 . S
C1368 C630 1.342 . S
C1373 C167 1.306 . S
C1378 C657 1.342 . S
C1383 C139 1.307 . S
C1388 C659 1.343 . S
C1393 C321 1.638 . S
C1398 C12 1.640 . S
C1403 C27 1.641 . S
C1408 C572 1.644 . S
C1413 C29 1.642 . S
C1418 C323 1.641 . S
C1423 C642 1.640 . S
C1428 C43 1.638 . S
C1433 C68 1.641 . S
C1438 C253 1.638 . S
C1443 C267 1.638 . S
C1448 C71 1.638 . S
C1453 C629 1.638 . S
C1458 C84 1.640 . S
C1463 C111 1.638 . S
C1468 C250 1.640 . S
C1473 C183 1.642 . S
C1478 C113 1.642 . S
C1483 C138 1.644 . S
C1488 C209 1.642 . S
C1493 C210 1.644 . S
C1498 C141 1.642 . S
C1503 C166 1.644 . S
C1508 C181 1.642 . S
C1513 C363 1.638 . S
C1518 C225 1.638 . S
C1523 C281 1.642 . S
C1528 C432 1.644 . S
C1533 C295 1.638 . S
C1538 C391 1.638 . S
C1543 C645 1.639 . S
C1548 C336 1.640 . S
C1553 C365 1.642 . S
C1558 C671 1.642 . S
C1563 C392 1.644 . S
C1568 C589 1.642 . S
C1573 C407 1.638 . S
C1578 C614 1.640 . S
C1583 C575 1.638 . S
C1588 C446 1.640 . S
C1593 C518 1.641 . S
C1598 C461 1.639 . S
C1603 C463 1.639 . S
C1608 C545 1.640 . S
C1613 C489 1.642 . S
C1618 C546 1.644 . S
C1623 C517 1.639 . S
C1628 C502 1.640 . S
