# Generated by pormake.
# Topology qzd, (4)-cn, num edge types: 1
# Building blocks:
#     Node 0, Type 0, BuildingBlock: NAWXER_clean_sbu_0, # of connection points: 4
#     Node 1, Type 0, BuildingBlock: NAWXER_clean_sbu_0, # of connection points: 4
#     Node 2, Type 0, BuildingBlock: NAWXER_clean_sbu_0, # of connection points: 4
#     Edge 3, Type (0, 0), BuildingBlock: MIFKUJ_clean_linker_0, # of connection points: 2
#     Edge 4, Type (0, 0), BuildingBlock: MIFKUJ_clean_linker_0, # of connection points: 2
#     Edge 5, Type (0, 0), BuildingBlock: MIFKUJ_clean_linker_0, # of connection points: 2
#     Edge 6, Type (0, 0), BuildingBlock: MIFKUJ_clean_linker_0, # of connection points: 2
#     Edge 7, Type (0, 0), BuildingBlock: MIFKUJ_clean_linker_0, # of connection points: 2
#     Edge 8, Type (0, 0), BuildingBlock: MIFKUJ_clean_linker_0, # of connection points: 2
# Relax obj value: 0.000
# Max RMSD: 0.038
# Mean RMSD: 0.038
data_MOF--net-qzd--node1-NAWXER_clean_sbu_0--edge1-MIFKUJ_clean_linker_0
_symmetry_space_group_name_H-M    P1
_symmetry_Int_Tables_number       1
_symmetry_cell_setting            triclinic
loop_
_symmetry_equiv_pos_as_xyz
'x, y, z'
_cell_length_a     19.256927
_cell_length_b     19.267671
_cell_length_c     57.631288
_cell_angle_alpha  94.816178
_cell_angle_beta   95.287616
_cell_angle_gamma 120.15729
loop_
_atom_site_label
_atom_site_type_symbol
_atom_site_fract_x
_atom_site_fract_y
_atom_site_fract_z
_atom_type_partial_charge
C0 C 0.07177 0.87887 0.0226 0.0
C1 C 0.81774 0.8808 0.01973 0.0
O2 O 0.99964 0.81808 0.01901 0.0
Zn3 Zn 0.94377 0.87836 0.02086 0.0
O4 O 0.08309 0.9507 0.02601 0.0
Zn5 Zn 1.01141 1.00708 0.02769 0.0
O6 O 0.04671 0.06387 0.0597 0.0
O7 O 0.97442 0.93062 0.0576 0.0
O8 O 0.8812 0.95231 0.02392 0.0
O9 O 0.82605 0.81944 0.01646 0.0
O10 O 0.96984 0.93752 0.99003 0.0
O11 O 0.03935 0.0697 1.0019 0.0
C12 C 0.0137 1.00159 0.06997 0.0
C13 C 1.0066 0.01022 0.98518 0.0
C14 C 0.05015 0.10033 0.40767 0.0
C15 C 0.02065 0.07403 0.32169 0.0
O16 O 0.01316 0.13466 0.39921 0.0
Zn17 Zn 0.97317 0.15097 0.36502 0.0
O18 O 0.07406 0.06487 0.39376 0.0
Zn19 Zn 0.03557 0.08659 0.36462 0.0
O20 O 0.11107 0.21613 0.3664 0.0
O21 O 0.0317 0.26788 0.36681 0.0
O22 O 0.05528 0.04818 0.33535 0.0
O23 O 0.9878 0.11191 0.33045 0.0
O24 O 0.85623 0.09387 0.36357 0.0
O25 O 0.90578 0.01261 0.36243 0.0
C26 C 0.10226 0.27798 0.36698 0.0
C27 C 0.84471 0.02259 0.36235 0.0
C28 C 0.11374 0.11752 0.74412 0.0
C29 C 0.12494 0.10996 0.65957 0.0
O30 O 0.05469 0.08597 0.72719 0.0
Zn31 Zn 0.11854 0.11325 0.70186 0.0
O32 O 0.1869 0.15341 0.73962 0.0
Zn33 Zn 0.24724 0.17962 0.70891 0.0
O34 O 0.307 0.29737 0.71319 0.0
O35 O 0.1741 0.24331 0.70593 0.0
O36 O 0.19586 0.14872 0.67209 0.0
O37 O 0.06246 0.0783 0.66972 0.0
O38 O 0.17391 0.04062 0.70466 0.0
O39 O 0.30688 0.12317 0.71133 0.0
C40 C 0.24589 0.30634 0.71018 0.0
C41 C 0.24564 0.0514 0.70829 0.0
H42 H 0.66814 0.73976 0.01014 0.0
H43 H 0.53445 0.72555 0.01088 0.0
H44 H 0.6493 0.98514 0.0294 0.0
H45 H 0.78238 0.99986 0.02885 0.0
H46 H 0.5366 0.90587 0.05696 0.0
H47 H 0.55396 0.8913 0.97381 0.0
H48 H 0.57086 0.83582 0.93602 0.0
H49 H 0.36246 0.60306 0.93918 0.0
H50 H 0.34498 0.65695 0.97718 0.0
H51 H 0.23193 0.99737 0.03156 0.0
H52 H 0.35006 0.98235 0.03155 0.0
H53 H 0.19328 0.72255 0.01401 0.0
H54 H 0.07359 0.73708 0.01375 0.0
H55 H 0.31774 0.7829 0.98761 0.0
H56 H 0.29269 0.80279 0.0691 0.0
H57 H 0.27562 0.86047 0.10647 0.0
H58 H 0.49879 0.08417 0.10647 0.0
H59 H 0.51663 0.02828 0.0689 0.0
C60 C 0.66485 0.7938 0.01429 0.0
C61 C 0.73608 0.87095 0.01942 0.0
C62 C 0.58839 0.78559 0.01465 0.0
C63 C 0.58183 0.85434 0.02012 0.0
C64 C 0.65283 0.93122 0.02521 0.0
C65 C 0.72898 0.9395 0.02479 0.0
C66 C 0.5015 0.84707 0.02089 0.0
C67 C 0.48896 0.87945 0.04174 0.0
C68 C 0.43831 0.81031 1.00129 0.0
C69 C 0.44879 0.77787 0.97847 0.0
C70 C 0.51219 0.82809 0.96655 0.0
C71 C 0.52178 0.79698 0.94507 0.0
C72 C 0.46794 0.71589 0.93524 0.0
C73 C 0.40423 0.66581 0.94684 0.0
C74 C 0.39443 0.69661 0.96834 0.0
C75 C 0.22214 0.93683 0.02774 0.0
C76 C 0.14306 0.86834 0.02276 0.0
C77 C 0.28999 0.92837 0.02783 0.0
C78 C 0.28063 0.85126 0.02309 0.0
C79 C 0.20188 0.78262 0.01781 0.0
C80 C 0.13361 0.79102 0.01775 0.0
C81 C 0.35373 0.8435 0.0235 0.0
C82 C 0.3649 0.80826 1.00293 0.0
C83 C 0.41586 0.87773 0.04337 0.0
C84 C 0.40569 0.91146 0.06608 0.0
C85 C 0.33786 0.86448 0.07698 0.0
C86 C 0.32808 0.89683 0.09821 0.0
C87 C 0.38601 0.97598 0.10882 0.0
C88 C 0.45394 0.02288 0.09823 0.0
C89 C 0.46397 0.99085 0.07698 0.0
H90 H 0.37832 1.00092 0.12526 0.0
H91 H 0.47544 0.69193 0.91861 0.0
H92 H 0.80038 0.8631 0.35585 0.0
H93 H 0.66625 0.74469 0.35527 0.0
H94 H 0.56716 0.89986 0.36601 0.0
H95 H 0.70227 0.01969 0.36678 0.0
H96 H 0.51511 0.78164 0.39478 0.0
H97 H 0.5256 0.7926 0.31288 0.0
H98 H 0.58497 0.80434 0.27626 0.0
H99 H 0.58866 0.58547 0.28209 0.0
H100 H 0.53042 0.57304 0.31896 0.0
H101 H 0.11113 0.42562 0.37176 0.0
H102 H 0.22988 0.55906 0.37011 0.0
H103 H 0.37332 0.44777 0.36009 0.0
H104 H 0.2558 0.31497 0.36172 0.0
H105 H 0.3918 0.55261 0.32864 0.0
H106 H 0.3953 0.55054 0.41248 0.0
H107 H 0.33818 0.53946 0.4495 0.0
H108 H 0.30824 0.74201 0.43983 0.0
H109 H 0.3642 0.75356 0.40254 0.0
C110 C 0.7502 0.87238 0.358 0.0
C111 C 0.76213 0.95102 0.3613 0.0
C112 C 0.67336 0.80443 0.35757 0.0
C113 C 0.60647 0.81333 0.36033 0.0
C114 C 0.61795 0.89166 0.36376 0.0
C115 C 0.69508 0.95998 0.3641 0.0
C116 C 0.5253 0.74028 0.36005 0.0
C117 C 0.48718 0.73222 0.38011 0.0
C118 C 0.48952 0.67532 0.34106 0.0
C119 C 0.52413 0.68222 0.31879 0.0
C120 C 0.53961 0.74728 0.30645 0.0
C121 C 0.57298 0.75401 0.28563 0.0
C122 C 0.59072 0.69578 0.27688 0.0
C123 C 0.57492 0.63056 0.2889 0.0
C124 C 0.54162 0.62358 0.30975 0.0
C125 C 0.16808 0.42969 0.3693 0.0
C126 C 0.17392 0.35958 0.3669 0.0
C127 C 0.23586 0.50596 0.36841 0.0
C128 C 0.31045 0.5133 0.365 0.0
C129 C 0.31631 0.44347 0.36265 0.0
C130 C 0.24902 0.36757 0.3637 0.0
C131 C 0.38269 0.59324 0.36358 0.0
C132 C 0.41905 0.60255 0.34315 0.0
C133 C 0.41669 0.65922 0.38221 0.0
C134 C 0.38292 0.65223 0.40458 0.0
C135 C 0.37579 0.5922 0.41813 0.0
C136 C 0.34379 0.58595 0.43918 0.0
C137 C 0.31932 0.63981 0.44697 0.0
C138 C 0.32703 0.7002 0.43374 0.0
C139 C 0.35891 0.70665 0.41266 0.0
H140 H 0.29461 0.6349 0.46328 0.0
H141 H 0.61657 0.70111 0.26076 0.0
H142 H 0.38718 0.04739 0.71262 0.0
H143 H 0.40112 0.9282 0.71484 0.0
H144 H 0.14071 0.77554 0.70868 0.0
H145 H 0.12627 0.89351 0.70658 0.0
H146 H 0.21769 0.74137 0.74338 0.0
H147 H 0.23768 0.78086 0.66207 0.0
H148 H 0.29567 0.85791 0.62984 0.0
H149 H 0.52752 0.88735 0.65463 0.0
H150 H 0.47109 0.81135 0.68723 0.0
H151 H 0.1268 0.344 0.70783 0.0
H152 H 0.14188 0.47775 0.70974 0.0
H153 H 0.40246 0.58908 0.71731 0.0
H154 H 0.38792 0.45449 0.71527 0.0
H155 H 0.34409 0.65393 0.68536 0.0
H156 H 0.31866 0.60095 0.76439 0.0
H157 H 0.25851 0.52163 0.79602 0.0
H158 H 0.0359 0.51682 0.77545 0.0
H159 H 0.09426 0.59508 0.74345 0.0
C160 C 0.33293 0.98839 0.71171 0.0
C161 C 0.2556 0.98009 0.70936 0.0
C162 C 0.34098 0.92032 0.71292 0.0
C163 C 0.27189 0.84282 0.71182 0.0
C164 C 0.19489 0.83467 0.70962 0.0
C165 C 0.18677 0.90232 0.70831 0.0
C166 C 0.27881 0.76968 0.71304 0.0
C167 C 0.24489 0.72201 0.7306 0.0
C168 C 0.31648 0.74563 0.69681 0.0
C169 C 0.35045 0.79134 0.67725 0.0
C170 C 0.30122 0.80442 0.66078 0.0
C171 C 0.33376 0.84776 0.64242 0.0
C172 C 0.4153 0.87775 0.64024 0.0
C173 C 0.46442 0.86425 0.65638 0.0
C174 C 0.43219 0.82102 0.67479 0.0
C175 C 0.1875 0.39674 0.70994 0.0
C176 C 0.25621 0.38838 0.71149 0.0
C177 C 0.19599 0.47334 0.71112 0.0
C178 C 0.27334 0.54357 0.71396 0.0
C179 C 0.3422 0.53569 0.71521 0.0
C180 C 0.33378 0.45878 0.71412 0.0
C181 C 0.28122 0.62471 0.71537 0.0
C182 C 0.31795 0.67389 0.69835 0.0
C183 C 0.246 0.6502 0.73209 0.0
C184 C 0.2107 0.60341 0.7514 0.0
C185 C 0.25667 0.58247 0.76649 0.0
C186 C 0.22292 0.53777 0.78451 0.0
C187 C 0.14338 0.51407 0.78771 0.0
C188 C 0.09749 0.53518 0.77294 0.0
C189 C 0.13092 0.5798 0.75487 0.0
H190 H 0.11736 0.47946 0.80167 0.0
H191 H 0.44038 0.91125 0.62601 0.0
H192 H 0.92304 0.08769 0.28724 0.0
H193 H 0.92345 0.07327 0.24478 0.0
H194 H 0.11967 0.02574 0.25529 0.0
H195 H 0.11715 0.03682 0.29777 0.0
H196 H 0.02672 0.15418 0.21873 0.0
H197 H 0.11557 0.90826 0.20773 0.0
H198 H 0.09855 0.79037 0.22598 0.0
H199 H 0.88201 0.76034 0.25012 0.0
H200 H 0.89719 0.87736 0.23177 0.0
H201 H 0.12107 0.13325 0.10303 0.0
H202 H 0.1268 0.1453 0.14591 0.0
H203 H 0.91972 0.90183 0.13824 0.0
H204 H 0.91622 0.88833 0.09565 0.0
H205 H 0.01853 0.91901 0.17344 0.0
H206 H 0.9083 0.08075 0.1493 0.0
H207 H 0.90415 0.18856 0.13008 0.0
H208 H 0.12574 0.36886 0.17455 0.0
H209 H 0.13171 0.26195 0.19384 0.0
C210 C 0.96592 0.07357 0.2805 0.0
C211 C 0.01978 0.06296 0.29587 0.0
C212 C 0.96634 0.06568 0.25619 0.0
C213 C 0.02113 0.04777 0.24668 0.0
C214 C 0.07559 0.03789 0.26206 0.0
C215 C 0.07429 0.04448 0.28638 0.0
C216 C 0.0216 0.04054 0.22074 0.0
C217 C 0.02498 0.10271 0.20886 0.0
C218 C 0.01812 0.97295 0.20765 0.0
C219 C 1.0081 0.90213 0.2186 0.0
C220 C 0.06423 0.87634 0.21688 0.0
C221 C 0.05491 0.8097 0.22725 0.0
C222 C 0.98941 0.76808 0.23927 0.0
C223 C 0.9329 0.79283 0.24089 0.0
C224 C 0.9419 0.85937 0.23053 0.0
C225 C 0.07692 0.08233 0.11053 0.0
C226 C 0.01811 0.00992 0.09594 0.0
C227 C 0.07996 0.08936 0.13505 0.0
C228 C 0.02293 0.02489 0.14541 0.0
C229 C 0.96462 0.95243 0.13079 0.0
C230 C 0.96252 0.94486 0.10638 0.0
C231 C 0.02321 0.03246 0.1714 0.0
C232 C 0.02047 0.97059 0.18332 0.0
C233 C 0.02431 0.0989 0.18439 0.0
C234 C 0.02089 0.16329 0.17283 0.0
C235 C 0.95644 0.14334 0.15486 0.0
C236 C 0.95371 0.20428 0.14398 0.0
C237 C 0.01477 0.28548 0.15105 0.0
C238 C 0.07857 0.30592 0.16907 0.0
C239 C 0.08163 0.2452 0.17999 0.0
H240 H 0.01255 0.33258 0.1426 0.0
H241 H 0.98233 0.71654 0.2473 0.0
H242 H 0.24199 0.1982 0.63347 0.0
H243 H 0.2286 0.19268 0.59077 0.0
H244 H 0.97759 1.0009 0.58381 0.0
H245 H 0.98985 1.00844 0.62673 0.0
H246 H 0.20027 0.08697 0.55562 0.0
H247 H 0.86644 1.00865 0.53631 0.0
H248 H 0.76788 0.02866 0.55595 0.0
H249 H 0.96375 0.24258 0.59963 0.0
H250 H 0.06337 0.22439 0.58005 0.0
H251 H 0.07645 0.99559 0.4311 0.0
H252 H 0.08802 0.99203 0.47359 0.0
H253 H 0.06546 0.20374 0.48489 0.0
H254 H 0.04997 0.205 0.44245 0.0
H255 H 0.97901 0.1056 0.51092 0.0
H256 H 0.25329 0.2068 0.49699 0.0
H257 H 0.36302 0.20613 0.4782 0.0
H258 H 0.30651 0.98152 0.50249 0.0
H259 H 0.19577 0.98037 0.52119 0.0
C260 C 0.18385 0.1548 0.62288 0.0
C261 C 0.1168 0.10413 0.63354 0.0
C262 C 0.17636 0.1515 0.5984 0.0
C263 C 0.10186 0.09705 0.58397 0.0
C264 C 0.0353 0.04472 0.59454 0.0
C265 C 0.04244 0.04884 0.61909 0.0
C266 C 0.09411 0.09628 0.55796 0.0
C267 C 0.15174 0.09089 0.54585 0.0
C268 C 0.03168 0.10266 0.54514 0.0
C269 C 0.97229 0.11456 0.55689 0.0
C270 C 0.88841 0.06006 0.55006 0.0
C271 C 0.83239 0.07107 0.56119 0.0
C272 C 0.85955 0.13668 0.57909 0.0
C273 C 0.9428 0.1916 0.58584 0.0
C274 C 0.99906 0.18092 0.57475 0.0
C275 C 0.07447 0.04161 0.44269 0.0
C276 C 0.06243 0.10065 0.43344 0.0
C277 C 0.08137 0.03974 0.46701 0.0
C278 C 0.07855 0.09818 0.48261 0.0
C279 C 0.06746 0.15768 0.47332 0.0
C280 C 0.05896 0.15858 0.44903 0.0
C281 C 0.08558 0.09698 0.50856 0.0
C282 C 0.02746 0.10145 0.52064 0.0
C283 C 0.14915 0.09249 0.52146 0.0
C284 C 0.21575 0.0931 0.51027 0.0
C285 C 0.26392 0.15699 0.49817 0.0
C286 C 0.32634 0.15698 0.48757 0.0
C287 C 0.34158 0.09371 0.48909 0.0
C288 C 0.29456 0.03042 0.50129 0.0
C289 C 0.23201 0.0301 0.51191 0.0
H290 H 0.38994 0.09381 0.48087 0.0
H291 H 0.81608 0.14506 0.58769 0.0
H292 H 0.22603 0.1624 0.78349 0.0
H293 H 0.20201 0.14635 0.82408 0.0
H294 H 0.94506 0.04254 0.80177 0.0
H295 H 0.96844 0.05829 0.76093 0.0
H296 H 1.00437 0.15315 0.84369 0.0
H297 H 1.01002 0.9189 0.81114 0.0
H298 H 0.06735 0.84671 0.79046 0.0
H299 H 0.27844 0.96177 0.84398 0.0
H300 H 0.22288 0.03564 0.8648 0.0
H301 H 0.94314 0.89522 0.94592 0.0
H302 H 0.95495 0.91569 0.90496 0.0
H303 H 0.09487 0.17508 0.92669 0.0
H304 H 0.08256 0.15516 0.96789 0.0
H305 H 0.08609 0.98184 0.8841 0.0
H306 H 0.0583 0.2666 0.88198 0.0
H307 H 0.99227 0.33161 0.90157 0.0
H308 H 0.80759 0.1001 0.91585 0.0
H309 H 0.87187 0.03359 0.89607 0.0
C310 C 0.16436 0.13656 0.78716 0.0
C311 C 0.09905 0.11116 0.76889 0.0
C312 C 0.15078 0.12734 0.8104 0.0
C313 C 0.07171 0.09268 0.81591 0.0
C314 C 1.00657 0.06944 0.79788 0.0
C315 C 0.02002 0.07815 0.77454 0.0
C316 C 0.05706 0.07792 0.84035 0.0
C317 C 0.02226 0.11581 0.85257 0.0
C318 C 0.07932 0.0282 0.85178 0.0
C319 C 0.11262 0.98337 0.83941 0.0
C320 C 0.06895 0.92929 0.81841 0.0
C321 C 0.10108 0.88799 0.80667 0.0
C322 C 0.17658 0.89979 0.81587 0.0
C323 C 0.22001 0.95276 0.83686 0.0
C324 C 0.1882 0.99432 0.84865 0.0
C325 C 0.97612 0.95677 0.94206 0.0
C326 C 1.01194 0.02359 0.96025 0.0
C327 C 0.98298 0.96831 0.91858 0.0
C328 C 0.02545 0.04686 0.91269 0.0
C329 C 0.06092 0.11388 0.93077 0.0
C330 C 0.05408 0.10239 0.95433 0.0
C331 C 0.03434 0.05799 0.88769 0.0
C332 C 0.06828 0.01942 0.87532 0.0
C333 C 1.01017 0.10613 0.87606 0.0
C334 C 0.97045 0.14531 0.88776 0.0
C335 C 1.00345 0.22955 0.88923 0.0
C336 C 0.96635 0.26666 0.90038 0.0
C337 C 0.89594 0.22006 0.91002 0.0
C338 C 0.86232 0.13618 0.90846 0.0
C339 C 0.89913 0.09877 0.89731 0.0
H340 H 0.86735 0.24891 0.91865 0.0
H341 H 0.20136 0.86776 0.80676 0.0
loop_
_geom_bond_atom_site_label_1
_geom_bond_atom_site_label_2
_geom_bond_distance
_geom_bond_site_symmetry_2
_ccdc_geom_bond_type
C0 O2 1.248 . S
C0 O4 1.256 1_565 S
C1 O8 1.250 . S
C1 O9 1.253 1_545 S
O2 C0 1.248 . S
O2 Zn3 2.028 1_455 S
Zn3 O2 2.028 1_655 S
Zn3 O7 2.035 . S
Zn3 O9 2.035 . S
Zn3 O10 2.028 1_554 S
O4 C0 1.256 1_545 S
O4 Zn5 2.035 . S
Zn5 O4 2.035 . S
Zn5 O6 2.028 . S
Zn5 O8 2.028 1_455 S
Zn5 O11 2.035 1_554 S
O6 Zn5 2.028 . S
O6 C12 1.250 . S
O7 Zn3 2.035 . S
O7 C12 1.255 1_665 S
O8 C1 1.250 . S
O8 Zn5 2.028 1_655 S
O9 C1 1.253 1_565 S
O9 Zn3 2.035 . S
O10 Zn3 2.028 1_556 S
O10 C13 1.247 1_655 S
O11 Zn5 2.035 1_556 S
O11 C13 1.258 1_545 S
C12 O6 1.250 . S
C12 O7 1.255 1_445 S
C13 O10 1.247 1_455 S
C13 O11 1.258 1_565 S
C14 O16 1.247 1_455 S
C14 O18 1.258 . S
C15 O22 1.247 . S
C15 O23 1.258 1_455 S
O16 C14 1.247 1_655 S
O16 Zn17 2.028 . S
Zn17 O16 2.028 . S
Zn17 O21 2.035 1_655 S
Zn17 O23 2.035 . S
Zn17 O24 2.028 . S
O18 C14 1.258 . S
O18 Zn19 2.035 . S
Zn19 O18 2.035 . S
Zn19 O20 2.028 . S
Zn19 O22 2.028 . S
Zn19 O25 2.035 1_445 S
O20 Zn19 2.028 . S
O20 C26 1.247 . S
O21 Zn17 2.035 1_455 S
O21 C26 1.258 . S
O22 C15 1.247 . S
O22 Zn19 2.028 . S
O23 C15 1.258 1_655 S
O23 Zn17 2.035 . S
O24 Zn17 2.028 . S
O24 C27 1.247 1_545 S
O25 Zn19 2.035 1_665 S
O25 C27 1.258 . S
C26 O20 1.247 . S
C26 O21 1.258 . S
C27 O24 1.247 1_565 S
C27 O25 1.258 . S
C28 O30 1.247 . S
C28 O32 1.258 . S
C29 O36 1.247 . S
C29 O37 1.258 . S
O30 C28 1.247 . S
O30 Zn31 2.028 . S
Zn31 O30 2.028 . S
Zn31 O35 2.035 . S
Zn31 O37 2.035 . S
Zn31 O38 2.028 1_545 S
O32 C28 1.258 . S
O32 Zn33 2.035 . S
Zn33 O32 2.035 . S
Zn33 O34 2.028 . S
Zn33 O36 2.028 . S
Zn33 O39 2.035 . S
O34 Zn33 2.028 . S
O34 C40 1.247 . S
O35 Zn31 2.035 . S
O35 C40 1.258 . S
O36 C29 1.247 . S
O36 Zn33 2.028 . S
O37 C29 1.258 . S
O37 Zn31 2.035 . S
O38 Zn31 2.028 1_565 S
O38 C41 1.247 . S
O39 Zn33 2.035 . S
O39 C41 1.258 1_545 S
C40 O34 1.247 . S
C40 O35 1.258 . S
C41 O38 1.247 . S
C41 O39 1.258 1_565 S
H42 C60 0.951 . S
H43 C62 0.951 . S
H44 C64 0.950 . S
H45 C65 0.950 . S
H46 C67 0.950 . S
H47 C70 0.950 . S
H48 C71 0.950 . S
H49 C73 0.950 . S
H50 C74 0.950 . S
H51 C75 0.951 . S
H52 C77 0.951 . S
H53 C79 0.950 . S
H54 C80 0.950 . S
H55 C82 0.950 1_556 S
H56 C85 0.950 . S
H57 C86 0.950 . S
H58 C88 0.950 . S
H59 C89 0.950 . S
C60 H42 0.951 . S
C60 C61 1.366 1_565 S
C60 C62 1.388 . S
C61 C60 1.366 1_545 S
C61 C65 1.384 . S
C62 H43 0.951 . S
C62 C60 1.388 . S
C62 C63 1.366 1_565 S
C63 C62 1.366 1_545 S
C63 C64 1.414 . S
C63 C66 1.499 . S
C64 H44 0.950 . S
C64 C63 1.414 . S
C64 C65 1.374 . S
C65 H45 0.950 . S
C65 C61 1.384 . S
C65 C64 1.374 . S
C66 C63 1.499 . S
C66 C67 1.373 . S
C66 C68 1.389 1_545 S
C67 H46 0.950 . S
C67 C66 1.373 . S
C67 C83 1.377 . S
C68 C66 1.389 1_565 S
C68 C69 1.524 1_554 S
C68 C82 1.377 . S
C69 C68 1.524 1_556 S
C69 C70 1.397 1_565 S
C69 C74 1.363 . S
C70 H47 0.950 . S
C70 C69 1.397 1_545 S
C70 C71 1.334 . S
C71 H48 0.950 . S
C71 C70 1.334 . S
C71 C72 1.287 1_545 S
C72 C71 1.287 1_565 S
C72 C73 1.524 . S
C72 H91 0.913 . S
C73 H49 0.950 . S
C73 C72 1.524 . S
C73 C74 1.415 . S
C74 H50 0.950 . S
C74 C69 1.363 . S
C74 C73 1.415 . S
C75 H51 0.951 . S
C75 C76 1.366 . S
C75 C77 1.388 . S
C76 C75 1.366 . S
C76 C80 1.384 1_545 S
C77 H52 0.951 . S
C77 C75 1.388 . S
C77 C78 1.366 1_545 S
C78 C77 1.366 1_565 S
C78 C79 1.414 . S
C78 C81 1.499 . S
C79 H53 0.950 . S
C79 C78 1.414 . S
C79 C80 1.374 . S
C80 H54 0.950 . S
C80 C76 1.384 1_565 S
C80 C79 1.374 . S
C81 C78 1.499 . S
C81 C82 1.373 . S
C81 C83 1.389 1_565 S
C82 H55 0.950 1_554 S
C82 C68 1.377 . S
C82 C81 1.373 . S
C83 C67 1.377 . S
C83 C81 1.389 1_545 S
C83 C84 1.524 . S
C84 C83 1.524 . S
C84 C85 1.397 1_545 S
C84 C89 1.363 . S
C85 H56 0.950 . S
C85 C84 1.397 1_565 S
C85 C86 1.334 . S
C86 H57 0.950 . S
C86 C85 1.334 . S
C86 C87 1.287 1_565 S
C87 C86 1.287 1_545 S
C87 C88 1.524 . S
C87 H90 0.999 . S
C88 H58 0.950 . S
C88 C87 1.524 . S
C88 C89 1.415 . S
C89 H59 0.950 . S
C89 C84 1.363 . S
C89 C88 1.415 . S
H90 C87 0.999 . S
H91 C72 0.913 . S
H92 C110 0.951 . S
H93 C112 0.951 . S
H94 C114 0.950 . S
H95 C115 0.950 . S
H96 C117 0.950 . S
H97 C120 0.950 . S
H98 C121 0.950 . S
H99 C123 0.950 . S
H100 C124 0.950 . S
H101 C125 0.951 . S
H102 C127 0.951 . S
H103 C129 0.950 . S
H104 C130 0.950 . S
H105 C132 0.950 . S
H106 C135 0.950 . S
H107 C136 0.950 . S
H108 C138 0.950 . S
H109 C139 0.950 . S
C110 H92 0.951 . S
C110 C111 1.366 . S
C110 C112 1.388 . S
C111 C110 1.366 . S
C111 C115 1.385 . S
C112 H93 0.951 . S
C112 C110 1.388 . S
C112 C113 1.366 . S
C113 C112 1.366 . S
C113 C114 1.414 . S
C113 C116 1.499 . S
C114 H94 0.950 . S
C114 C113 1.414 . S
C114 C115 1.374 . S
C115 H95 0.950 . S
C115 C111 1.385 . S
C115 C114 1.374 . S
C116 C113 1.499 . S
C116 C117 1.373 . S
C116 C118 1.389 . S
C117 H96 0.950 . S
C117 C116 1.373 . S
C117 C133 1.377 . S
C118 C116 1.389 . S
C118 C119 1.524 . S
C118 C132 1.377 . S
C119 C118 1.524 . S
C119 C120 1.397 . S
C119 C124 1.363 . S
C120 H97 0.950 . S
C120 C119 1.397 . S
C120 C121 1.334 . S
C121 H98 0.950 . S
C121 C120 1.334 . S
C121 C122 1.287 . S
C122 C121 1.287 . S
C122 C123 1.524 . S
C122 H141 0.913 . S
C123 H99 0.950 . S
C123 C122 1.524 . S
C123 C124 1.415 . S
C124 H100 0.950 . S
C124 C119 1.363 . S
C124 C123 1.415 . S
C125 H101 0.951 . S
C125 C126 1.366 . S
C125 C127 1.388 . S
C126 C125 1.366 . S
C126 C130 1.385 . S
C127 H102 0.951 . S
C127 C125 1.388 . S
C127 C128 1.366 . S
C128 C127 1.366 . S
C128 C129 1.414 . S
C128 C131 1.499 . S
C129 H103 0.950 . S
C129 C128 1.414 . S
C129 C130 1.374 . S
C130 H104 0.950 . S
C130 C126 1.385 . S
C130 C129 1.374 . S
C131 C128 1.499 . S
C131 C132 1.373 . S
C131 C133 1.389 . S
C132 H105 0.950 . S
C132 C118 1.377 . S
C132 C131 1.373 . S
C133 C117 1.377 . S
C133 C131 1.389 . S
C133 C134 1.524 . S
C134 C133 1.524 . S
C134 C135 1.397 . S
C134 C139 1.363 . S
C135 H106 0.950 . S
C135 C134 1.397 . S
C135 C136 1.334 . S
C136 H107 0.950 . S
C136 C135 1.334 . S
C136 C137 1.287 . S
C137 C136 1.287 . S
C137 C138 1.524 . S
C137 H140 0.999 . S
C138 H108 0.950 . S
C138 C137 1.524 . S
C138 C139 1.415 . S
C139 H109 0.950 . S
C139 C134 1.363 . S
C139 C138 1.415 . S
H140 C137 0.999 . S
H141 C122 0.913 . S
H142 C160 0.951 . S
H143 C162 0.951 . S
H144 C164 0.950 1_655 S
H145 C165 0.950 1_655 S
H146 C167 0.950 . S
H147 C170 0.950 . S
H148 C171 0.950 . S
H149 C173 0.950 . S
H150 C174 0.950 . S
H151 C175 0.951 1_655 S
H152 C177 0.949 1_655 S
H153 C179 0.950 . S
H154 C180 0.950 . S
H155 C182 0.950 . S
H156 C185 0.950 . S
H157 C186 0.950 . S
H158 C188 0.950 1_655 S
H159 C189 0.950 1_655 S
C160 H142 0.951 . S
C160 C161 1.366 . S
C160 C162 1.388 . S
C161 C160 1.366 . S
C161 C165 1.385 . S
C162 H143 0.951 . S
C162 C160 1.388 . S
C162 C163 1.366 . S
C163 C162 1.366 . S
C163 C164 1.414 . S
C163 C166 1.499 . S
C164 H144 0.950 1_455 S
C164 C163 1.414 . S
C164 C165 1.374 . S
C165 H145 0.950 1_455 S
C165 C161 1.385 . S
C165 C164 1.374 . S
C166 C163 1.499 . S
C166 C167 1.373 . S
C166 C168 1.389 . S
C167 H146 0.950 . S
C167 C166 1.373 . S
C167 C183 1.377 . S
C168 C166 1.389 . S
C168 C169 1.524 . S
C168 C182 1.377 . S
C169 C168 1.524 . S
C169 C170 1.397 . S
C169 C174 1.363 . S
C170 H147 0.950 . S
C170 C169 1.397 . S
C170 C171 1.334 . S
C171 H148 0.950 . S
C171 C170 1.334 . S
C171 C172 1.287 . S
C172 C171 1.287 . S
C172 C173 1.524 . S
C172 H191 0.913 . S
C173 H149 0.950 . S
C173 C172 1.524 . S
C173 C174 1.415 . S
C174 H150 0.950 . S
C174 C169 1.363 . S
C174 C173 1.415 . S
C175 H151 0.951 1_455 S
C175 C176 1.366 . S
C175 C177 1.388 . S
C176 C175 1.366 . S
C176 C180 1.385 . S
C177 H152 0.949 1_455 S
C177 C175 1.388 . S
C177 C178 1.366 . S
C178 C177 1.366 . S
C178 C179 1.414 . S
C178 C181 1.499 . S
C179 H153 0.950 . S
C179 C178 1.414 . S
C179 C180 1.374 . S
C180 H154 0.950 . S
C180 C176 1.385 . S
C180 C179 1.374 . S
C181 C178 1.499 . S
C181 C182 1.373 . S
C181 C183 1.389 . S
C182 H155 0.950 . S
C182 C168 1.377 . S
C182 C181 1.373 . S
C183 C167 1.377 . S
C183 C181 1.389 . S
C183 C184 1.524 . S
C184 C183 1.524 . S
C184 C185 1.397 . S
C184 C189 1.363 . S
C185 H156 0.950 . S
C185 C184 1.397 . S
C185 C186 1.334 . S
C186 H157 0.950 . S
C186 C185 1.334 . S
C186 C187 1.287 . S
C187 C186 1.287 . S
C187 C188 1.524 . S
C187 H190 0.999 . S
C188 H158 0.950 1_455 S
C188 C187 1.524 . S
C188 C189 1.415 . S
C189 H159 0.950 1_455 S
C189 C184 1.363 . S
C189 C188 1.415 . S
H190 C187 0.999 . S
H191 C172 0.913 . S
H192 C210 0.951 1_565 S
H193 C212 0.951 1_565 S
H194 C214 0.950 . S
H195 C215 0.950 . S
H196 C217 0.950 . S
H197 C220 0.950 . S
H198 C221 0.950 . S
H199 C223 0.950 . S
H200 C224 0.950 . S
H201 C225 0.951 . S
H202 C227 0.951 . S
H203 C229 0.950 . S
H204 C230 0.950 . S
H205 C232 0.950 . S
H206 C235 0.950 . S
H207 C236 0.950 . S
H208 C238 0.950 . S
H209 C239 0.950 . S
C210 H192 0.951 1_545 S
C210 C211 1.366 1_655 S
C210 C212 1.388 . S
C211 C210 1.366 1_455 S
C211 C215 1.385 . S
C212 H193 0.951 1_545 S
C212 C210 1.388 . S
C212 C213 1.366 1_655 S
C213 C212 1.366 1_455 S
C213 C214 1.414 . S
C213 C216 1.499 . S
C214 H194 0.950 . S
C214 C213 1.414 . S
C214 C215 1.374 . S
C215 H195 0.950 . S
C215 C211 1.385 . S
C215 C214 1.374 . S
C216 C213 1.499 . S
C216 C217 1.373 . S
C216 C218 1.389 1_445 S
C217 H196 0.950 . S
C217 C216 1.373 . S
C217 C233 1.377 . S
C218 C216 1.389 1_665 S
C218 C219 1.524 . S
C218 C232 1.377 . S
C219 C218 1.524 . S
C219 C220 1.397 1_655 S
C219 C224 1.363 . S
C220 H197 0.950 . S
C220 C219 1.397 1_455 S
C220 C221 1.334 . S
C221 H198 0.950 . S
C221 C220 1.334 . S
C221 C222 1.287 1_455 S
C222 C221 1.287 1_655 S
C222 C223 1.524 . S
C222 H241 0.913 . S
C223 H199 0.950 . S
C223 C222 1.524 . S
C223 C224 1.415 . S
C224 H200 0.950 . S
C224 C219 1.363 . S
C224 C223 1.415 . S
C225 H201 0.951 . S
C225 C226 1.366 . S
C225 C227 1.388 . S
C226 C225 1.366 . S
C226 C230 1.385 1_445 S
C227 H202 0.951 . S
C227 C225 1.388 . S
C227 C228 1.366 . S
C228 C227 1.366 . S
C228 C229 1.414 1_445 S
C228 C231 1.499 1_455 S
C229 H203 0.950 . S
C229 C228 1.414 1_665 S
C229 C230 1.374 . S
C230 H204 0.950 . S
C230 C226 1.385 1_665 S
C230 C229 1.374 . S
C231 C228 1.499 1_655 S
C231 C232 1.373 1_545 S
C231 C233 1.389 1_655 S
C232 H205 0.950 . S
C232 C218 1.377 . S
C232 C231 1.373 1_565 S
C233 C217 1.377 . S
C233 C231 1.389 1_455 S
C233 C234 1.524 . S
C234 C233 1.524 . S
C234 C235 1.397 1_455 S
C234 C239 1.363 . S
C235 H206 0.950 . S
C235 C234 1.397 1_655 S
C235 C236 1.334 . S
C236 H207 0.950 . S
C236 C235 1.334 . S
C236 C237 1.287 1_655 S
C237 C236 1.287 1_455 S
C237 C238 1.524 . S
C237 H240 0.999 . S
C238 H208 0.950 . S
C238 C237 1.524 . S
C238 C239 1.415 . S
C239 H209 0.950 . S
C239 C234 1.363 . S
C239 C238 1.415 . S
H240 C237 0.999 . S
H241 C222 0.913 . S
H242 C260 0.951 . S
H243 C262 0.951 . S
H244 C264 0.950 1_565 S
H245 C265 0.950 1_565 S
H246 C267 0.950 . S
H247 C270 0.950 . S
H248 C271 0.950 . S
H249 C273 0.950 . S
H250 C274 0.950 1_455 S
H251 C275 0.951 1_665 S
H252 C277 0.951 1_565 S
H253 C279 0.950 . S
H254 C280 0.950 . S
H255 C282 0.950 1_655 S
H256 C285 0.950 . S
H257 C286 0.950 . S
H258 C288 0.950 . S
H259 C289 0.950 . S
C260 H242 0.951 . S
C260 C261 1.366 . S
C260 C262 1.388 . S
C261 C260 1.366 . S
C261 C265 1.385 . S
C262 H243 0.951 . S
C262 C260 1.388 . S
C262 C263 1.366 . S
C263 C262 1.366 . S
C263 C264 1.414 . S
C263 C266 1.499 . S
C264 H244 0.950 1_545 S
C264 C263 1.414 . S
C264 C265 1.374 . S
C265 H245 0.950 1_545 S
C265 C261 1.385 . S
C265 C264 1.374 . S
C266 C263 1.499 . S
C266 C267 1.373 . S
C266 C268 1.389 . S
C267 H246 0.950 . S
C267 C266 1.373 . S
C267 C283 1.377 . S
C268 C266 1.389 . S
C268 C269 1.524 1_455 S
C268 C282 1.377 . S
C269 C268 1.524 1_655 S
C269 C270 1.397 . S
C269 C274 1.363 . S
C270 H247 0.950 . S
C270 C269 1.397 . S
C270 C271 1.334 . S
C271 H248 0.950 . S
C271 C270 1.334 . S
C271 C272 1.287 . S
C272 C271 1.287 . S
C272 C273 1.524 . S
C272 H291 0.913 . S
C273 H249 0.950 . S
C273 C272 1.524 . S
C273 C274 1.415 . S
C274 H250 0.950 1_655 S
C274 C269 1.363 . S
C274 C273 1.415 . S
C275 H251 0.951 1_445 S
C275 C276 1.366 . S
C275 C277 1.388 . S
C276 C275 1.366 . S
C276 C280 1.385 . S
C277 H252 0.951 1_545 S
C277 C275 1.388 . S
C277 C278 1.366 . S
C278 C277 1.366 . S
C278 C279 1.414 . S
C278 C281 1.499 . S
C279 H253 0.950 . S
C279 C278 1.414 . S
C279 C280 1.374 . S
C280 H254 0.950 . S
C280 C276 1.385 . S
C280 C279 1.374 . S
C281 C278 1.499 . S
C281 C282 1.373 . S
C281 C283 1.389 . S
C282 H255 0.950 1_455 S
C282 C268 1.377 . S
C282 C281 1.373 . S
C283 C267 1.377 . S
C283 C281 1.389 . S
C283 C284 1.524 . S
C284 C283 1.524 . S
C284 C285 1.397 . S
C284 C289 1.363 1_545 S
C285 H256 0.950 . S
C285 C284 1.397 . S
C285 C286 1.334 . S
C286 H257 0.950 . S
C286 C285 1.334 . S
C286 C287 1.287 . S
C287 C286 1.287 . S
C287 C288 1.524 1_545 S
C287 H290 0.999 1_545 S
C288 H258 0.950 . S
C288 C287 1.524 1_565 S
C288 C289 1.415 . S
C289 H259 0.950 . S
C289 C284 1.363 1_565 S
C289 C288 1.415 . S
H290 C287 0.999 1_565 S
H291 C272 0.913 . S
H292 C310 0.951 . S
H293 C312 0.951 . S
H294 C314 0.950 1_655 S
H295 C315 0.950 1_655 S
H296 C317 0.950 . S
H297 C320 0.950 1_655 S
H298 C321 0.950 1_655 S
H299 C323 0.950 . S
H300 C324 0.950 . S
H301 C325 0.951 . S
H302 C327 0.951 . S
H303 C329 0.950 . S
H304 C330 0.950 . S
H305 C332 0.950 . S
H306 C335 0.950 . S
H307 C336 0.950 . S
H308 C338 0.950 . S
H309 C339 0.950 . S
C310 H292 0.951 . S
C310 C311 1.366 . S
C310 C312 1.388 . S
C311 C310 1.366 . S
C311 C315 1.385 . S
C312 H293 0.951 . S
C312 C310 1.388 . S
C312 C313 1.366 . S
C313 C312 1.366 . S
C313 C314 1.414 . S
C313 C316 1.499 . S
C314 H294 0.950 1_455 S
C314 C313 1.414 . S
C314 C315 1.374 . S
C315 H295 0.950 1_455 S
C315 C311 1.385 . S
C315 C314 1.374 . S
C316 C313 1.499 . S
C316 C317 1.373 . S
C316 C318 1.389 1_545 S
C317 H296 0.950 . S
C317 C316 1.373 . S
C317 C333 1.377 . S
C318 C316 1.389 1_565 S
C318 C319 1.524 . S
C318 C332 1.377 . S
C319 C318 1.524 . S
C319 C320 1.397 . S
C319 C324 1.363 . S
C320 H297 0.950 1_455 S
C320 C319 1.397 . S
C320 C321 1.334 . S
C321 H298 0.950 1_455 S
C321 C320 1.334 . S
C321 C322 1.287 . S
C322 C321 1.287 . S
C322 C323 1.524 . S
C322 H341 0.913 . S
C323 H299 0.950 . S
C323 C322 1.524 . S
C323 C324 1.415 . S
C324 H300 0.950 . S
C324 C319 1.363 . S
C324 C323 1.415 . S
C325 H301 0.951 . S
C325 C326 1.366 1_655 S
C325 C327 1.388 . S
C326 C325 1.366 1_455 S
C326 C330 1.385 . S
C327 H302 0.951 . S
C327 C325 1.388 . S
C327 C328 1.366 1_655 S
C328 C327 1.366 1_455 S
C328 C329 1.414 . S
C328 C331 1.499 . S
C329 H303 0.950 . S
C329 C328 1.414 . S
C329 C330 1.374 . S
C330 H304 0.950 . S
C330 C326 1.385 . S
C330 C329 1.374 . S
C331 C328 1.499 . S
C331 C332 1.373 1_545 S
C331 C333 1.389 . S
C332 H305 0.950 . S
C332 C318 1.377 . S
C332 C331 1.373 1_565 S
C333 C317 1.377 . S
C333 C331 1.389 . S
C333 C334 1.524 . S
C334 C333 1.524 . S
C334 C335 1.397 . S
C334 C339 1.363 1_455 S
C335 H306 0.950 . S
C335 C334 1.397 . S
C335 C336 1.334 . S
C336 H307 0.950 . S
C336 C335 1.334 . S
C336 C337 1.287 . S
C337 C336 1.287 . S
C337 C338 1.524 1_455 S
C337 H340 0.999 . S
C338 H308 0.950 . S
C338 C337 1.524 1_655 S
C338 C339 1.415 . S
C339 H309 0.950 . S
C339 C334 1.363 1_655 S
C339 C338 1.415 . S
H340 C337 0.999 . S
H341 C322 0.913 . S
C61 C1 1.501 . S
C76 C0 1.499 1_545 S
C111 C27 1.499 . S
C126 C26 1.499 . S
C161 C41 1.499 . S
C176 C40 1.499 . S
C211 C15 1.527 . S
C226 C12 1.528 . S
C261 C29 1.529 . S
C276 C14 1.528 . S
C311 C28 1.529 . S
C326 C13 1.529 1_545 S
